drugbank_target|Q02817 Mucin-2 (DB01411)
 OpenBabel12092119463D

  0  0  0     0  0            999 V3000
M  V30 BEGIN CTAB
M  V30 COUNTS 74883 76007 0 0 0
M  V30 BEGIN ATOM
M  V30 1 H -0.908 1.98254 -0.117106 0
M  V30 2 N 0 1.576 0 0
M  V30 3 C 0.933 2.03868 1.02534 0
M  V30 4 C 1.911 0.928543 1.3348 0
M  V30 5 O 3.095 1.19667 1.45644 0
M  V30 6 C 0.222 2.43627 2.35294 0
M  V30 7 C -0.732 3.65373 2.2001 0
M  V30 8 S 0.101 5.13292 1.52614 0
M  V30 9 C 1.257 5.56322 2.86805 0
M  V30 10 H 1.49 2.90518 0.631377 0
M  V30 11 H -0.977 1.52953 0.210867 0
M  V30 12 H 0.981 2.67203 3.11629 0
M  V30 13 H -0.358 1.57376 2.7183 0
M  V30 14 H -1.165 3.90944 3.18086 0
M  V30 15 H -1.563 3.418 1.51819 0
M  V30 16 H 0.729 5.58782 3.83104 0
M  V30 17 H 1.672 6.56266 2.65933 0
M  V30 18 H 2.08 4.83886 2.90714 0
M  V30 19 N 1.4781 -0.272755 1.55222 0
M  V30 20 C 2.7261 -1.00234 1.75492 0
M  V30 21 C 3.0471 -1.8681 0.5592 0
M  V30 22 O 2.3171 -1.91215 -0.425882 0
M  V30 23 H 0.8971 -0.373076 0.647166 0
M  V30 24 H 3.5591 -0.296926 1.92625 0
M  V30 25 H 2.6551 -1.63913 2.65592 0
M  V30 26 N 2.9562 -1.48159 -0.537278 0
M  V30 27 C 3.8862 -1.65029 -1.6519 0
M  V30 28 C 4.8672 -0.499281 -1.62607 0
M  V30 29 O 6.0522 -0.730972 -1.79918 0
M  V30 30 C 3.1822 -1.68303 -3.03795 0
M  V30 31 C 2.1362 -2.8283 -3.21234 0
M  V30 32 C 1.4622 -2.71189 -4.60826 0
M  V30 33 C 2.7622 -4.24211 -3.04701 0
M  V30 34 H 4.4562 -2.58341 -1.51328 0
M  V30 35 H 2.0022 -1.24325 -0.726585 0
M  V30 36 H 3.9552 -1.78693 -3.81637 0
M  V30 37 H 2.6792 -0.715635 -3.18663 0
M  V30 38 H 1.3382 -2.71983 -2.45807 0
M  V30 39 H 0.9862 -1.72435 -4.7252 0
M  V30 40 H 0.6862 -3.48035 -4.7344 0
M  V30 41 H 2.2102 -2.83537 -5.40777 0
M  V30 42 H 3.6242 -4.3593 -3.72341 0
M  V30 43 H 2.0212 -5.01998 -3.28813 0
M  V30 44 H 3.0912 -4.41184 -2.01209 0
M  V30 45 N 4.4343 0.785586 -1.36625 0
M  V30 46 C 5.8453 1.36101 -1.27803 0
M  V30 47 C 6.1963 1.96035 0.0804875 0
M  V30 48 O 5.3213 1.92834 0.982042 0
M  V30 49 C 5.9163 2.47442 -2.31426 0
M  V30 50 C 4.4753 3.00789 -2.26281 0
M  V30 51 C 3.6223 1.73896 -2.15999 0
M  V30 52 H 6.5733 0.586928 -1.47448 0
M  V30 53 H 6.5943 3.2656 -1.95291 0
M  V30 54 H 6.1063 2.03791 -3.30289 0
M  V30 55 H 4.2073 3.48851 -1.30896 0
M  V30 56 H 4.3203 3.57343 -3.19128 0
M  V30 57 H 2.6843 1.9628 -1.62316 0
M  V30 58 H 3.4673 1.32368 -3.16755 0
M  V30 59 N 5.9124 1.20967 1.01018 0
M  V30 60 C 6.8424 0.988272 2.11555 0
M  V30 61 C 7.8234 -0.0849778 1.69888 0
M  V30 62 O 9.0084 0.0738202 1.9406 0
M  V30 63 C 6.1384 0.546528 3.42973 0
M  V30 64 C 5.0924 1.56375 3.9841 0
M  V30 65 C 4.4184 0.97842 5.25672 0
M  V30 66 C 5.7184 2.94922 4.31066 0
M  V30 67 H 7.4124 1.91276 2.30334 0
M  V30 68 H 4.9584 0.921073 1.1069 0
M  V30 69 H 6.9114 0.378839 4.19694 0
M  V30 70 H 5.6354 -0.413598 3.23971 0
M  V30 71 H 4.2944 1.71891 3.23804 0
M  V30 72 H 3.9424 0.0101688 5.02999 0
M  V30 73 H 3.6424 1.65784 5.63728 0
M  V30 74 H 5.1664 0.821939 6.05043 0
M  V30 75 H 6.5804 2.8288 4.9865 0
M  V30 76 H 4.9774 3.5983 4.80253 0
M  V30 77 H 6.0474 3.4616 3.39561 0
M  V30 78 N 7.3905 -1.2043 1.01659 0
M  V30 79 C 8.3535 -2.21433 0.591616 0
M  V30 80 C 9.3535 -1.57203 -0.338226 0
M  V30 81 O 10.5435 -1.73737 -0.126918 0
M  V30 82 C 7.6755 -3.40628 -0.136058 0
M  V30 83 H 8.8685 -2.60545 1.48514 0
M  V30 84 H 6.4215 -1.33893 0.806379 0
M  V30 85 H 7.1565 -3.07019 -1.04449 0
M  V30 86 H 6.9415 -3.88475 0.531917 0
M  V30 87 H 8.4315 -4.15475 -0.420735 0
M  V30 88 N 8.8686 -0.792821 -1.36206 0
M  V30 89 C 10.2846 -0.474903 -1.52371 0
M  V30 90 C 10.4846 1.00622 -1.74578 0
M  V30 91 O 9.5406 1.79162 -1.77924 0
M  V30 92 C 10.8536 -1.3083 -2.70747 0
M  V30 93 C 12.4016 -1.30234 -2.84619 0
M  V30 94 C 12.8766 -2.11956 -4.06004 0
M  V30 95 N 14.3676 -2.09419 -4.13156 0
M  V30 96 C 15.1026 -2.69419 -5.06163 0
M  V30 97 N 14.5986 -3.3829 -6.04592 0
M  V30 98 N 16.3916 -2.59134 -4.98804 0
M  V30 99 H 8.5426 -1.75222 -1.20046 0
M  V30 100 H 10.8056 -0.745024 -0.586211 0
M  V30 101 H 10.5116 -2.35881 -2.6087 0
M  V30 102 H 10.3856 -0.95196 -3.6499 0
M  V30 103 H 12.7726 -0.259748 -2.93955 0
M  V30 104 H 12.8536 -1.69847 -1.91274 0
M  V30 105 H 12.4976 -3.16248 -3.97429 0
M  V30 106 H 12.4276 -1.69711 -4.98503 0
M  V30 107 H 14.9186 -1.59297 -3.42685 0
M  V30 108 H 15.2316 -3.81394 -6.7213 0
M  V30 109 H 13.5766 -3.42393 -6.04807 0
M  V30 110 H 16.7676 -2.04927 -4.20859 0
M  V30 111 H 16.9406 -3.06185 -5.711 0
M  V30 112 N 10.3467 1.47872 -0.545128 0
M  V30 113 C 11.2767 2.32661 0.197793 0
M  V30 114 C 12.2577 1.43041 0.920504 0
M  V30 115 O 13.4427 1.71912 0.90333 0
M  V30 116 C 10.5727 3.24569 1.23582 0
M  V30 117 C 9.5267 4.23333 0.630323 0
M  V30 118 C 8.8527 5.0448 1.77211 0
M  V30 119 C 10.1527 5.20704 -0.407974 0
M  V30 120 H 11.8467 2.95024 -0.510045 0
M  V30 121 H 9.3927 1.4187 -0.246731 0
M  V30 122 H 11.3457 3.8272 1.76362 0
M  V30 123 H 10.0697 2.60236 1.97344 0
M  V30 124 H 8.7287 3.6639 0.123922 0
M  V30 125 H 8.3767 4.36561 2.49847 0
M  V30 126 H 8.0767 5.71339 1.37281 0
M  V30 127 H 9.6007 5.65487 2.3034 0
M  V30 128 H 11.0147 5.7329 0.033305 0
M  V30 129 H 9.4117 5.95699 -0.725486 0
M  V30 130 H 10.4817 4.66917 -1.30828 0
M  V30 131 N 11.8248 0.280983 1.55075 0
M  V30 132 C 12.7878 -0.590896 2.21452 0
M  V30 133 C 13.7878 -1.07682 1.19421 0
M  V30 134 O 14.9778 -0.97605 1.44288 0
M  V30 135 C 12.1098 -1.81587 2.88511 0
M  V30 136 H 13.3028 -0.0112554 2.99898 0
M  V30 137 H 10.8558 0.0316438 1.56268 0
M  V30 138 H 11.5908 -2.43587 2.14093 0
M  V30 139 H 11.3758 -1.4753 3.63287 0
M  V30 140 H 12.8658 -2.43575 3.39206 0
M  V30 141 N 13.3029 -1.57598 0.00835791 0
M  V30 142 C 14.2659 -2.07884 -0.965242 0
M  V30 143 C 15.2659 -0.989825 -1.26725 0
M  V30 144 O 16.4559 -1.25218 -1.21104 0
M  V30 145 C 13.5879 -2.52731 -2.28779 0
M  V30 146 H 14.7809 -2.95178 -0.530112 0
M  V30 147 H 12.3339 -1.54458 -0.239283 0
M  V30 148 H 13.0689 -1.68705 -2.76964 0
M  V30 149 H 12.8539 -3.32272 -2.08177 0
M  V30 150 H 14.3439 -2.91933 -2.98605 0
M  V30 151 N 14.781 0.264519 -1.55364 0
M  V30 152 C 16.027 0.99646 -1.76631 0
M  V30 153 C 16.36 1.85632 -0.570478 0
M  V30 154 O 15.635 1.89647 0.43175 0
M  V30 155 C 15.918 1.87187 -3.07625 0
M  V30 156 C 15.771 1.04138 -4.37579 0
M  V30 157 C 17.09 2.85749 -3.34717 0
M  V30 158 H 14.209 0.360841 -0.642622 0
M  V30 159 H 16.851 0.268218 -1.88097 0
M  V30 160 H 15.001 2.49279 -2.9798 0
M  V30 161 H 16.673 0.440517 -4.59192 0
M  V30 162 H 14.916 0.345115 -4.32425 0
M  V30 163 H 15.587 1.68729 -5.2558 0
M  V30 164 H 18.063 2.33793 -3.4421 0
M  V30 165 H 16.939 3.44136 -4.27623 0
M  V30 166 H 17.2 3.61311 -2.54768 0
M  V30 167 N 16.2591 1.48442 0.529413 0
M  V30 168 C 17.4991 1.58086 1.29569 0
M  V30 169 C 17.8631 0.249302 1.90375 0
M  V30 170 O 19.0641 0.220738 2.67892 0
M  V30 171 C 17.3351 2.68793 2.35552 0
M  V30 172 S 18.8941 2.98207 3.21898 0
M  V30 173 H 15.7121 0.557922 0.440732 0
M  V30 174 H 18.3141 1.85966 0.603059 0
M  V30 175 H 17.0181 3.64102 1.89363 0
M  V30 176 H 16.5491 2.42817 3.09522 0
M  V30 177 H 18.5641 2.37548 4.35644 0
M  V30 178 N 17.7372 -0.778329 1.37039 0
M  V30 179 C 18.6672 -1.90546 1.34962 0
M  V30 180 C 19.6482 -1.68681 0.219274 0
M  V30 181 O 20.8332 -1.89634 0.418624 0
M  V30 182 C 17.9632 -3.27734 1.14925 0
M  V30 183 C 16.9172 -3.64147 2.24902 0
M  V30 184 C 16.2432 -4.99806 1.89996 0
M  V30 185 C 17.5432 -3.71579 3.67051 0
M  V30 186 H 19.2372 -1.92541 2.29277 0
M  V30 187 H 16.7832 -0.924948 1.10366 0
M  V30 188 H 18.7362 -4.06215 1.12104 0
M  V30 189 H 17.4602 -3.26154 0.170631 0
M  V30 190 H 16.1192 -2.8797 2.26868 0
M  V30 191 H 15.7672 -4.94759 0.906796 0
M  V30 192 H 15.4672 -5.25139 2.63634 0
M  V30 193 H 16.9912 -5.80694 1.88749 0
M  V30 194 H 18.4052 -4.40227 3.67251 0
M  V30 195 H 16.8022 -4.08405 4.39688 0
M  V30 196 H 17.8722 -2.72404 4.01154 0
M  V30 197 N 19.2153 -1.21501 -1.00376 0
M  V30 198 C 20.1783 -0.976927 -2.07337 0
M  V30 199 C 21.1783 0.0525322 -1.60714 0
M  V30 200 O 22.3683 -0.184869 -1.73216 0
M  V30 201 C 19.5003 -0.473423 -3.37597 0
M  V30 202 H 20.6933 -1.92587 -2.29892 0
M  V30 203 H 18.2463 -1.03217 -1.17371 0
M  V30 204 H 18.9813 0.480379 -3.20722 0
M  V30 205 H 18.7663 -1.216 -3.72768 0
M  V30 206 H 20.2563 -0.32675 -4.1632 0
M  V30 207 N 20.6934 1.19889 -1.02296 0
M  V30 208 C 21.6234 2.25141 -0.619174 0
M  V30 209 C 22.6044 1.66051 0.368915 0
M  V30 210 O 23.7894 1.92546 0.252941 0
M  V30 211 C 20.9194 3.4728 0.0368783 0
M  V30 212 C 19.8734 4.19005 -0.872865 0
M  V30 213 C 19.1994 5.34637 -0.0822402 0
M  V30 214 C 20.4994 4.74452 -2.18387 0
M  V30 215 H 22.1934 2.59171 -1.49903 0
M  V30 216 H 19.7394 1.24579 -0.722222 0
M  V30 217 H 21.6924 4.20098 0.330958 0
M  V30 218 H 20.4164 3.12433 0.95149 0
M  V30 219 H 19.0754 3.48061 -1.15105 0
M  V30 220 H 18.7234 4.96034 0.83422 0
M  V30 221 H 18.4234 5.83557 -0.688149 0
M  V30 222 H 19.9474 6.10255 0.205238 0
M  V30 223 H 21.3614 5.39055 -1.95172 0
M  V30 224 H 19.7584 5.33834 -2.74119 0
M  V30 225 H 20.8284 3.92844 -2.84257 0
M  V30 226 N 22.1715 0.800033 1.35784 0
M  V30 227 C 23.3965 0.388511 2.03729 0
M  V30 228 C 23.8215 -0.990481 1.5991 0
M  V30 229 O 23.1795 -1.64013 0.772612 0
M  V30 230 C 23.2275 0.4726 3.5749 0
M  V30 231 O 22.3315 -0.51646 4.09153 0
M  V30 232 H 21.6725 0.163271 0.643614 0
M  V30 233 H 24.2025 1.0841 1.73518 0
M  V30 234 H 24.2125 0.34003 4.06581 0
M  V30 235 H 22.8875 1.47848 3.88734 0
M  V30 236 H 21.4645 -0.344673 3.71304 0
M  V30 237 N 23.6496 -1.47581 0.552962 0
M  V30 238 C 24.5796 -2.32762 -0.185451 0
M  V30 239 C 25.5606 -1.43527 -0.912905 0
M  V30 240 O 26.7456 -1.72388 -0.894201 0
M  V30 241 C 23.8756 -3.25219 -1.21859 0
M  V30 242 C 22.8296 -4.23661 -0.607864 0
M  V30 243 C 22.1556 -5.05413 -1.74533 0
M  V30 244 C 23.4556 -5.20481 0.435582 0
M  V30 245 H 25.1496 -2.94749 0.525684 0
M  V30 246 H 22.6956 -1.41738 0.254251 0
M  V30 247 H 24.6486 -3.8365 -1.7433 0
M  V30 248 H 23.3726 -2.61279 -1.95961 0
M  V30 249 H 22.0316 -3.66451 -0.104489 0
M  V30 250 H 21.6796 -4.3788 -2.47529 0
M  V30 251 H 21.3796 -5.72059 -1.34249 0
M  V30 252 H 22.9036 -5.66701 -2.27338 0
M  V30 253 H 24.3176 -5.733 -0.00290157 0
M  V30 254 H 22.7146 -5.95305 0.757067 0
M  V30 255 H 23.7846 -4.66217 1.33303 0
M  V30 256 N 25.1277 -0.289203 -1.54924 0
M  V30 257 C 26.0907 0.579144 -2.21762 0
M  V30 258 C 27.0907 1.07047 -1.1999 0
M  V30 259 O 28.2807 0.968384 -1.44803 0
M  V30 260 C 25.4127 1.80055 -2.8947 0
M  V30 261 H 26.6057 -0.00464908 -2.999 0
M  V30 262 H 24.1587 -0.0399306 -1.56249 0
M  V30 263 H 24.8937 2.42449 -2.15381 0
M  V30 264 H 24.6787 1.45602 -3.64064 0
M  V30 265 H 26.1687 2.41773 -3.40493 0
M  V30 266 N 26.6058 1.57591 -0.0167156 0
M  V30 267 C 27.8538 1.90906 0.663285 0
M  V30 268 C 28.1748 0.892509 1.73376 0
M  V30 269 O 27.4448 -0.0677623 1.95783 0
M  V30 270 H 26.0248 0.704637 0.247983 0
M  V30 271 H 28.6868 1.94803 -0.0615909 0
M  V30 272 H 27.7828 2.9116 1.12393 0
M  V30 273 N 28.0839 -0.256276 1.55502 0
M  V30 274 C 29.3319 -0.983672 1.76545 0
M  V30 275 C 29.6529 -1.86206 0.578982 0
M  V30 276 O 28.9229 -1.91656 -0.405577 0
M  V30 277 H 27.5029 -0.366191 0.651086 0
M  V30 278 H 30.1649 -0.276479 1.92929 0
M  V30 279 H 29.2609 -1.61087 2.67315 0
M  V30 280 N 29.562 -1.4872 -0.521534 0
M  V30 281 C 30.787 -1.61101 -1.30618 0
M  V30 282 C 31.212 -0.274611 -1.86085 0
M  V30 283 O 30.57 0.754937 -1.64834 0
M  V30 284 C 30.618 -2.66709 -2.4269 0
M  V30 285 O 29.722 -2.24456 -3.45967 0
M  V30 286 H 29.063 -0.539921 -0.386499 0
M  V30 287 H 31.593 -1.94767 -0.626645 0
M  V30 288 H 31.603 -2.88245 -2.88754 0
M  V30 289 H 30.278 -3.63727 -2.01682 0
M  V30 290 H 28.855 -2.13168 -3.05964 0
M  V30 291 N 31.0401 0.771051 -1.3745 0
M  V30 292 C 31.9501 1.91538 -1.35464 0
M  V30 293 C 32.9661 1.72134 -0.254123 0
M  V30 294 O 34.1421 1.95358 -0.489626 0
M  V30 295 C 31.2071 3.26671 -1.16134 0
M  V30 296 C 30.2681 3.58723 -2.35831 0
M  V30 297 C 29.5011 4.87409 -2.17413 0
M  V30 298 O 29.7241 5.58506 -1.15876 0
M  V30 299 O 28.6581 5.18539 -3.05615 0
M  V30 300 H 32.4841 1.96165 -2.31847 0
M  V30 301 H 30.0691 0.9139 -1.18187 0
M  V30 302 H 31.9511 4.07499 -1.07345 0
M  V30 303 H 30.6261 3.22894 -0.228251 0
M  V30 304 H 29.5331 2.78127 -2.50192 0
M  V30 305 H 30.8661 3.67243 -3.27709 0
M  V30 306 N 32.5182 1.22032 0.997298 0
M  V30 307 C 33.4482 1.01065 2.10495 0
M  V30 308 C 34.4292 -0.0669542 1.69968 0
M  V30 309 O 35.6142 0.0943987 1.9397 0
M  V30 310 C 32.7442 0.582874 3.42374 0
M  V30 311 C 31.6982 1.60592 3.96729 0
M  V30 312 C 31.0242 1.03412 5.24605 0
M  V30 313 C 32.3242 2.99478 4.27914 0
M  V30 314 H 34.0182 1.93708 2.28292 0
M  V30 315 H 31.5642 0.932761 1.09707 0
M  V30 316 H 33.5172 0.423332 4.19268 0
M  V30 317 H 32.2412 -0.379213 3.24391 0
M  V30 318 H 30.9002 1.75316 3.21963 0
M  V30 319 H 30.5482 0.063518 5.0296 0
M  V30 320 H 30.2482 1.71754 5.61938 0
M  V30 321 H 31.7722 0.886066 6.04137 0
M  V30 322 H 33.1862 2.88153 4.95622 0
M  V30 323 H 31.5832 3.64903 4.76409 0
M  V30 324 H 32.6532 3.49742 3.3587 0
M  V30 325 N 33.9963 -1.19345 1.0293 0
M  V30 326 C 34.9283 -2.22036 0.56857 0
M  V30 327 C 35.9413 -1.58865 -0.355779 0
M  V30 328 O 37.1303 -1.77851 -0.152103 0
M  V30 329 C 34.2303 -3.38363 -0.190752 0
M  V30 330 C 33.4033 -4.31118 0.738643 0
M  V30 331 C 32.4623 -5.26194 0.0246497 0
M  V30 332 O 31.4883 -5.65461 0.651354 0
M  V30 333 N 32.6903 -5.66971 -1.24594 0
M  V30 334 H 35.4553 -2.6219 1.45177 0
M  V30 335 H 33.0163 -1.34015 0.908381 0
M  V30 336 H 35.0083 -3.98981 -0.677961 0
M  V30 337 H 33.5783 -2.96994 -0.975366 0
M  V30 338 H 32.7983 -3.68276 1.40593 0
M  V30 339 H 34.0863 -4.90001 1.37029 0
M  V30 340 H 33.4843 -5.37104 -1.77583 0
M  V30 341 H 32.0413 -6.2984 -1.67764 0
M  V30 342 N 35.4744 -0.807222 -1.35358 0
M  V30 343 C 36.7024 -0.400377 -2.02989 0
M  V30 344 C 37.1174 0.988859 -1.60832 0
M  V30 345 O 36.4744 1.63729 -0.806175 0
M  V30 346 C 36.5254 -0.474867 -3.58368 0
M  V30 347 O 36.2464 -1.80933 -3.98992 0
M  V30 348 C 37.7474 -0.0609112 -4.43258 0
M  V30 349 H 34.9674 -0.162587 -0.651004 0
M  V30 350 H 37.5114 -1.09102 -1.72965 0
M  V30 351 H 35.6664 0.167534 -3.87038 0
M  V30 352 H 36.0804 -1.77256 -4.9364 0
M  V30 353 H 37.5544 -0.164145 -5.51756 0
M  V30 354 H 38.0314 0.993831 -4.27808 0
M  V30 355 H 38.6374 -0.676492 -4.19885 0
M  V30 356 N 36.9525 1.47285 -0.560781 0
M  V30 357 C 37.8625 2.33846 0.187954 0
M  V30 358 C 38.8785 1.48412 0.908293 0
M  V30 359 O 40.0545 1.81332 0.876388 0
M  V30 360 C 37.1195 3.25178 1.2025 0
M  V30 361 C 36.1805 4.26504 0.489208 0
M  V30 362 C 35.4135 5.13472 1.45542 0
M  V30 363 O 35.6365 5.02959 2.6905 0
M  V30 364 O 34.5705 5.93902 0.977963 0
M  V30 365 H 38.3965 2.99177 -0.522177 0
M  V30 366 H 35.9815 1.45903 -0.321364 0
M  V30 367 H 37.8635 3.81584 1.78805 0
M  V30 368 H 36.5385 2.6247 1.89449 0
M  V30 369 H 35.4455 3.73847 -0.137627 0
M  V30 370 H 36.7785 4.91935 -0.161399 0
M  V30 371 N 38.4306 0.297415 1.54768 0
M  V30 372 C 39.6786 -0.312295 1.99673 0
M  V30 373 C 39.9996 -1.54686 1.18732 0
M  V30 374 O 39.2696 -1.93854 0.282382 0
M  V30 375 H 37.8496 -0.118381 0.73756 0
M  V30 376 H 40.5116 0.407915 1.90583 0
M  V30 377 H 39.6076 -0.586813 3.06534 0
M  V30 378 N 39.9087 -1.5758 0.0250728 0
M  V30 379 C 41.3247 -1.56124 -0.331282 0
M  V30 380 C 41.5247 -1.03029 -1.73169 0
M  V30 381 O 40.5807 -0.675215 -2.43305 0
M  V30 382 C 41.8937 -3.00139 -0.183584 0
M  V30 383 C 43.4417 -3.11946 -0.256654 0
M  V30 384 C 43.9167 -4.57793 -0.137792 0
M  V30 385 N 45.4077 -4.6279 -0.194904 0
M  V30 386 C 46.1427 -5.7326 -0.126655 0
M  V30 387 N 45.6387 -6.928 -0.00755288 0
M  V30 388 N 47.4317 -5.61811 -0.180348 0
M  V30 389 H 39.5827 -1.90424 0.94087 0
M  V30 390 H 41.8457 -0.875761 0.362968 0
M  V30 391 H 41.5517 -3.4292 0.780927 0
M  V30 392 H 41.4257 -3.64899 -0.955448 0
M  V30 393 H 43.8127 -2.69079 -1.21162 0
M  V30 394 H 43.8937 -2.49915 0.545517 0
M  V30 395 H 43.5377 -5.01339 0.813739 0
M  V30 396 H 43.4677 -5.17798 -0.958775 0
M  V30 397 H 45.9587 -3.76807 -0.287267 0
M  V30 398 H 46.2717 -7.72791 0.0379428 0
M  V30 399 H 44.6167 -6.94995 0.0271731 0
M  V30 400 H 47.8077 -4.6731 -0.271767 0
M  V30 401 H 47.9807 -6.47882 -0.123697 0
M  V30 402 N 41.3868 0.248026 -1.55636 0
M  V30 403 C 42.6148 0.993808 -1.81469 0
M  V30 404 C 43.0298 1.78991 -0.60064 0
M  V30 405 O 42.3868 1.77345 0.430682 0
M  V30 406 C 42.4378 1.93258 -3.05506 0
M  V30 407 O 42.1588 1.16869 -4.22224 0
M  V30 408 C 43.6598 2.79444 -3.4413 0
M  V30 409 H 40.8798 0.292486 -0.603898 0
M  V30 410 H 43.4238 0.271253 -2.02693 0
M  V30 411 H 41.5788 2.60943 -2.86335 0
M  V30 412 H 41.9928 1.80359 -4.92515 0
M  V30 413 H 43.4668 3.41066 -4.34026 0
M  V30 414 H 43.9438 3.50499 -2.64665 0
M  V30 415 H 44.5498 2.17214 -3.65648 0
M  V30 416 N 42.8649 1.48995 0.513639 0
M  V30 417 C 44.2809 1.35478 0.843682 0
M  V30 418 C 44.4809 0.378213 1.97919 0
M  V30 419 O 43.5369 -0.194689 2.51748 0
M  V30 420 C 44.8499 2.75901 1.1958 0
M  V30 421 C 46.3979 2.84509 1.30474 0
M  V30 422 C 46.8729 4.25671 1.69021 0
M  V30 423 N 48.3639 4.28422 1.76094 0
M  V30 424 C 49.0989 5.34601 2.07338 0
M  V30 425 N 48.5949 6.5104 2.36894 0
M  V30 426 N 50.3879 5.22007 2.08483 0
M  V30 427 H 42.5389 2.11092 -0.235328 0
M  V30 428 H 44.8019 0.947039 -0.0426669 0
M  V30 429 H 44.5079 3.49001 0.434913 0
M  V30 430 H 44.3819 3.10467 2.1422 0
M  V30 431 H 46.7689 2.11655 2.05637 0
M  V30 432 H 46.8499 2.53542 0.339155 0
M  V30 433 H 46.4939 4.99048 0.944135 0
M  V30 434 H 46.4239 4.54094 2.66658 0
M  V30 435 H 48.9149 3.44441 1.55464 0
M  V30 436 H 49.2279 7.2779 2.59887 0
M  V30 437 H 47.5729 6.54287 2.34378 0
M  V30 438 H 50.7639 4.30051 1.84861 0
M  V30 439 H 50.9369 6.04854 2.325 0
M  V30 440 N 44.343 -0.763751 1.37857 0
M  V30 441 C 45.573 -1.55067 1.3652 0
M  V30 442 C 45.981 -1.89135 -0.0494227 0
M  V30 443 O 45.324 -1.52529 -1.02375 0
M  V30 444 C 45.386 -2.8838 2.14656 0
M  V30 445 C 45.05 -2.76905 3.63555 0
M  V30 446 C 46.047 -2.4739 4.57268 0
M  V30 447 C 43.732 -2.94676 4.06781 0
M  V30 448 C 45.726 -2.35786 5.92186 0
M  V30 449 C 43.413 -2.82692 5.41782 0
M  V30 450 C 44.411 -2.53289 6.34298 0
M  V30 451 O 44.099 -2.41345 7.66817 0
M  V30 452 H 43.831 -0.486776 0.469069 0
M  V30 453 H 46.385 -0.953812 1.81911 0
M  V30 454 H 44.615 -3.50217 1.63967 0
M  V30 455 H 46.304 -3.49828 2.05852 0
M  V30 456 H 47.07 -2.33339 4.2518 0
M  V30 457 H 42.949 -3.16563 3.35126 0
M  V30 458 H 46.493 -2.12757 6.64365 0
M  V30 459 H 42.39 -2.96314 5.7347 0
M  V30 460 H 43.158 -2.56634 7.77226 0
M  V30 461 N 45.8211 -1.22559 -0.990812 0
M  V30 462 C 46.7711 -0.964807 -2.0658 0
M  V30 463 C 47.7551 0.0853472 -1.60673 0
M  V30 464 O 48.9471 -0.125443 -1.76555 0
M  V30 465 C 46.0761 -0.546707 -3.38919 0
M  V30 466 C 45.1621 -1.6317 -3.91454 0
M  V30 467 N 45.5531 -2.85985 -4.17189 0
M  V30 468 C 43.8511 -1.50387 -4.19881 0
M  V30 469 C 44.5521 -3.56159 -4.59919 0
M  V30 470 N 43.5281 -2.83637 -4.63736 0
M  V30 471 H 47.3301 -1.89769 -2.24421 0
M  V30 472 H 44.8441 -1.12343 -1.17273 0
M  V30 473 H 46.8411 -0.34119 -4.15502 0
M  V30 474 H 45.5011 0.379254 -3.22478 0
M  V30 475 H 46.5121 -3.22392 -4.05319 0
M  V30 476 H 43.1891 -0.644254 -4.12499 0
M  V30 477 H 44.5791 -4.6139 -4.88435 0
M  V30 478 N 47.2992 1.18797 -1.03562 0
M  V30 479 C 48.5472 1.88278 -0.734569 0
M  V30 480 C 48.8682 1.8043 0.739586 0
M  V30 481 O 48.1382 1.21925 1.53333 0
M  V30 482 H 46.7182 0.696991 -0.268725 0
M  V30 483 H 49.3802 1.44192 -1.31129 0
M  V30 484 H 48.4762 2.94443 -1.03489 0
M  V30 485 N 48.7773 0.814389 1.34928 0
M  V30 486 C 50.1933 0.499084 1.51596 0
M  V30 487 C 50.3933 -0.978319 1.76157 0
M  V30 488 O 49.4493 -1.76309 1.80752 0
M  V30 489 C 50.7623 1.35121 2.68631 0
M  V30 490 C 52.3103 1.34746 2.82511 0
M  V30 491 C 52.7853 2.18388 4.0258 0
M  V30 492 N 54.2763 2.15966 4.09772 0
M  V30 493 C 55.0113 2.77437 5.01813 0
M  V30 494 N 54.5073 3.47866 5.99134 0
M  V30 495 N 56.3003 2.67037 4.94619 0
M  V30 496 H 48.4513 1.7711 1.17243 0
M  V30 497 H 50.7143 0.754256 0.574284 0
M  V30 498 H 50.4203 2.40001 2.57085 0
M  V30 499 H 50.2943 1.00991 3.63429 0
M  V30 500 H 52.6813 0.30648 2.93504 0
M  V30 501 H 52.7623 1.72869 1.88547 0
M  V30 502 H 52.4063 3.2253 3.92347 0
M  V30 503 H 52.3363 1.77621 4.9574 0
M  V30 504 H 54.8273 1.64729 3.40107 0
M  V30 505 H 55.1403 3.92038 6.65977 0
M  V30 506 H 53.4853 3.51972 5.99284 0
M  V30 507 H 56.6763 2.11597 4.17546 0
M  V30 508 H 56.8493 3.15232 5.66156 0
M  V30 509 N 50.2554 -1.46986 0.568584 0
M  V30 510 C 51.2034 -2.31858 -0.185649 0
M  V30 511 C 52.1974 -1.43624 -0.898249 0
M  V30 512 O 53.4034 -1.60327 -0.818242 0
M  V30 513 H 49.7784 -0.747866 -0.0787399 0
M  V30 514 H 51.7494 -2.93303 0.549191 0
M  V30 515 C 50.4984 -3.26513 -1.19519 0
M  V30 516 H 49.8214 -3.94377 -0.656285 0
M  V30 517 H 51.2614 -3.88707 -1.6936 0
M  V30 518 C 49.7204 -2.50847 -2.24894 0
M  V30 519 O 50.2504 -2.26119 -3.32014 0
M  V30 520 N 48.4564 -2.11656 -1.99124 0
M  V30 521 H 48.0034 -2.31966 -1.12024 0
M  V30 522 H 47.9614 -1.61347 -2.69842 0
M  V30 523 N 51.7335 -0.305618 -1.54608 0
M  V30 524 C 52.9795 0.302746 -2.00528 0
M  V30 525 C 53.3125 1.53184 -1.19367 0
M  V30 526 O 52.5875 1.92598 -0.271321 0
M  V30 527 C 52.8705 0.654756 -3.54097 0
M  V30 528 C 52.7235 -0.583793 -4.45995 0
M  V30 529 C 54.0425 1.47947 -4.14487 0
M  V30 530 H 51.1615 0.108564 -0.72896 0
M  V30 531 H 53.8035 -0.418634 -1.85331 0
M  V30 532 H 51.9535 1.26935 -3.67178 0
M  V30 533 H 53.6255 -1.22224 -4.44814 0
M  V30 534 H 51.8685 -1.21615 -4.16404 0
M  V30 535 H 52.5395 -0.293287 -5.5122 0
M  V30 536 H 55.0155 0.96013 -4.04871 0
M  V30 537 H 53.8915 1.69454 -5.22088 0
M  V30 538 H 54.1525 2.47011 -3.66658 0
M  V30 539 N 53.2116 1.57565 -0.0334293 0
M  V30 540 C 54.4516 1.93844 0.648379 0
M  V30 541 C 54.8156 0.910387 1.69044 0
M  V30 542 O 56.0166 1.15952 2.42505 0
M  V30 543 C 54.2876 3.35017 1.24492 0
M  V30 544 S 55.8466 3.93229 1.94721 0
M  V30 545 H 52.6646 0.678231 0.213364 0
M  V30 546 H 55.2666 1.95254 -0.0981253 0
M  V30 547 H 53.9706 4.07652 0.474128 0
M  V30 548 H 53.5016 3.37061 2.02864 0
M  V30 549 H 55.5166 3.77014 3.22606 0
M  V30 550 N 54.6897 -0.239769 1.55765 0
M  V30 551 C 55.9147 -0.988373 1.82335 0
M  V30 552 C 56.3397 -1.77886 0.611421 0
M  V30 553 O 55.6977 -1.75889 -0.439639 0
M  V30 554 C 55.7457 -1.89627 3.06715 0
M  V30 555 O 54.8497 -2.98904 2.84131 0
M  V30 556 H 54.1907 -0.280858 0.601677 0
M  V30 557 H 56.7207 -0.258597 2.02959 0
M  V30 558 H 56.7307 -2.30957 3.36338 0
M  V30 559 H 55.4057 -1.31511 3.9456 0
M  V30 560 H 53.9827 -2.61651 2.65694 0
M  V30 561 N 56.1678 -1.49265 -0.50573 0
M  V30 562 C 57.3958 -1.62215 -1.28429 0
M  V30 563 C 57.8108 -0.291697 -1.86533 0
M  V30 564 O 57.1678 0.722233 -1.67601 0
M  V30 565 C 57.2188 -2.68735 -2.41793 0
M  V30 566 O 56.9398 -3.96619 -1.86078 0
M  V30 567 C 58.4408 -2.92346 -3.3324 0
M  V30 568 H 55.6608 -0.546239 -0.389697 0
M  V30 569 H 58.2048 -1.95265 -0.607609 0
M  V30 570 H 56.3598 -2.38476 -3.053 0
M  V30 571 H 56.7738 -4.55256 -2.60465 0
M  V30 572 H 58.2478 -3.70623 -4.09075 0
M  V30 573 H 58.7248 -2.02081 -3.89948 0
M  V30 574 H 59.3308 -3.24003 -2.75503 0
M  V30 575 N 57.6459 0.756429 -1.3826 0
M  V30 576 C 58.8919 1.5168 -1.35517 0
M  V30 577 C 59.2469 1.9232 0.0554451 0
M  V30 578 O 58.5399 1.62352 1.01746 0
M  V30 579 C 58.7339 2.78313 -2.24224 0
M  V30 580 C 58.5629 2.50053 -3.7377 0
M  V30 581 C 57.3329 2.43414 -4.42807 0
M  V30 582 C 59.5309 2.1702 -4.66269 0
M  V30 583 N 57.5129 2.07398 -5.77805 0
M  V30 584 C 58.8839 1.91271 -5.89759 0
M  V30 585 C 60.9389 2.03305 -4.54501 0
M  V30 586 C 59.6419 1.53192 -7.02798 0
M  V30 587 C 61.6679 1.66627 -5.67441 0
M  V30 588 C 61.0299 1.4175 -6.8999 0
M  V30 589 H 57.1289 0.554735 -0.551174 0
M  V30 590 H 59.7129 0.881106 -1.73622 0
M  V30 591 H 57.8839 3.39696 -1.88311 0
M  V30 592 H 59.6159 3.44343 -2.12627 0
M  V30 593 H 56.3709 2.59789 -3.95988 0
M  V30 594 H 56.7949 1.92044 -6.4919 0
M  V30 595 H 61.4369 2.21215 -3.60311 0
M  V30 596 H 59.1549 1.34022 -7.96909 0
M  V30 597 H 62.7409 1.56652 -5.60314 0
M  V30 598 H 61.6209 1.1379 -7.759 0
M  V30 599 N 59.124 1.23083 0.984299 0
M  V30 600 C 60.372 1.05848 1.72165 0
M  V30 601 C 60.693 -0.406049 1.90726 0
M  V30 602 O 59.963 -1.29139 1.47309 0
M  V30 603 H 58.543 0.388685 0.637913 0
M  V30 604 H 61.205 1.54736 1.18503 0
M  V30 605 H 60.301 1.54327 2.71274 0
M  V30 606 N 60.6021 -1.18246 1.0419 0
M  V30 607 C 61.5501 -2.23968 0.627792 0
M  V30 608 C 62.5441 -1.65828 -0.346019 0
M  V30 609 O 63.7501 -1.78733 -0.213175 0
M  V30 610 H 60.1251 -0.728939 0.184802 0
M  V30 611 H 62.0961 -2.56202 1.52981 0
M  V30 612 C 60.8451 -3.47699 0.00796591 0
M  V30 613 H 60.1681 -3.92734 0.748347 0
M  V30 614 H 61.6081 -4.23294 -0.24455 0
M  V30 615 C 60.0671 -3.13153 -1.24246 0
M  V30 616 O 60.5971 -3.27003 -2.33307 0
M  V30 617 N 58.8031 -2.67467 -1.13622 0
M  V30 618 H 58.3501 -2.56396 -0.248734 0
M  V30 619 H 58.3081 -2.44724 -1.97377 0
M  V30 620 N 62.0802 -0.821533 -1.34494 0
M  V30 621 C 63.3272 -0.408946 -1.98328 0
M  V30 622 C 63.6552 1.02764 -1.65136 0
M  V30 623 O 62.9102 1.73026 -0.914349 0
M  V30 624 C 63.2092 -0.556512 -3.53041 0
M  V30 625 C 62.8752 -1.95861 -4.0614 0
M  V30 626 C 61.5372 -2.34217 -4.20352 0
M  V30 627 C 63.8892 -2.87523 -4.34718 0
M  V30 628 C 61.2172 -3.63572 -4.6047 0
M  V30 629 C 63.5692 -4.1634 -4.76281 0
M  V30 630 C 62.2332 -4.54675 -4.88699 0
M  V30 631 H 61.5032 -0.149644 -0.725732 0
M  V30 632 H 64.1502 -1.04521 -1.6046 0
M  V30 633 H 62.4552 0.163148 -3.9146 0
M  V30 634 H 64.1522 -0.217826 -4.00408 0
M  V30 635 H 60.7422 -1.65066 -3.95539 0
M  V30 636 H 64.9262 -2.59133 -4.23277 0
M  V30 637 H 60.1822 -3.93101 -4.68275 0
M  V30 638 H 64.3562 -4.87455 -4.97354 0
M  V30 639 H 61.9832 -5.54959 -5.19542 0
M  V30 640 N 63.5583 1.46682 -0.576371 0
M  V30 641 C 64.5083 2.27278 0.181288 0
M  V30 642 C 65.4923 1.35497 0.867721 0
M  V30 643 O 66.6843 1.59717 0.762863 0
M  V30 644 C 63.8133 3.21703 1.19841 0
M  V30 645 C 62.8993 4.20969 0.51442 0
M  V30 646 N 63.2903 5.03999 -0.426407 0
M  V30 647 C 61.5883 4.39373 0.765963 0
M  V30 648 C 62.2893 5.75812 -0.825565 0
M  V30 649 N 61.2653 5.43315 -0.176116 0
M  V30 650 H 65.0673 2.88863 -0.541785 0
M  V30 651 H 62.5813 1.57455 -0.397697 0
M  V30 652 H 64.5783 3.78145 1.75533 0
M  V30 653 H 63.2383 2.61677 1.92238 0
M  V30 654 H 64.2493 5.11659 -0.8016 0
M  V30 655 H 60.9263 3.90502 1.47698 0
M  V30 656 H 62.3163 6.52577 -1.59976 0
M  V30 657 N 65.0364 0.313813 1.54444 0
M  V30 658 C 66.2664 -0.293491 2.04505 0
M  V30 659 C 66.6744 -1.47086 1.19005 0
M  V30 660 O 66.0174 -1.82481 0.211257 0
M  V30 661 C 66.0794 -0.800455 3.50475 0
M  V30 662 C 65.7434 0.253322 4.56297 0
M  V30 663 C 66.7404 1.08612 5.08428 0
M  V30 664 C 64.4254 0.398708 5.00715 0
M  V30 665 C 66.4194 2.05013 6.0353 0
M  V30 666 C 64.1064 1.36614 5.95634 0
M  V30 667 C 65.1044 2.19033 6.46926 0
M  V30 668 O 64.7924 3.14134 7.39983 0
M  V30 669 H 64.5244 -0.0658325 0.672787 0
M  V30 670 H 67.0784 0.455177 2.00293 0
M  V30 671 H 65.3084 -1.59987 3.52053 0
M  V30 672 H 66.9974 -1.32504 3.83663 0
M  V30 673 H 67.7634 0.984736 4.74898 0
M  V30 674 H 63.6424 -0.23289 4.60411 0
M  V30 675 H 67.1864 2.69382 6.4349 0
M  V30 676 H 63.0834 1.4682 6.28581 0
M  V30 677 H 63.8514 3.0926 7.57826 0
M  V30 678 N 66.5145 -1.57545 0.0417849 0
M  V30 679 C 67.4615 -2.10977 -0.935805 0
M  V30 680 C 68.4315 -1.01486 -1.31491 0
M  V30 681 O 69.6165 -1.2898 -1.40602 0
M  V30 682 C 66.7565 -2.65169 -2.2086 0
M  V30 683 C 65.8695 -3.88714 -1.88482 0
M  V30 684 C 65.0045 -4.31254 -3.1015 0
M  V30 685 C 64.0435 -5.47524 -2.7365 0
M  V30 686 N 63.1805 -5.85162 -3.87982 0
M  V30 687 H 68.0205 -2.94218 -0.473249 0
M  V30 688 H 65.5575 -1.45415 -0.221981 0
M  V30 689 H 67.5155 -2.94685 -2.95325 0
M  V30 690 H 66.1455 -1.8474 -2.64709 0
M  V30 691 H 65.1975 -3.65849 -1.04205 0
M  V30 692 H 66.5095 -4.73245 -1.57608 0
M  V30 693 H 65.6635 -4.62273 -3.92923 0
M  V30 694 H 64.4025 -3.45516 -3.44195 0
M  V30 695 H 63.4075 -5.16187 -1.89291 0
M  V30 696 H 64.6325 -6.34971 -2.40807 0
M  V30 697 H 62.5785 -5.02377 -4.21846 0
M  V30 698 H 62.4955 -6.64362 -3.60775 0
M  V30 699 H 63.7635 -6.20791 -4.71422 0
M  V30 700 N 67.9926 0.231505 -1.5589 0
M  V30 701 C 69.2206 0.974505 -1.82513 0
M  V30 702 C 69.6356 1.78344 -0.619591 0
M  V30 703 O 68.9926 1.77792 0.411848 0
M  V30 704 C 69.0436 1.90007 -3.07538 0
M  V30 705 O 68.7646 1.12385 -4.2344 0
M  V30 706 C 70.2656 2.75779 -3.47075 0
M  V30 707 H 67.4856 0.286065 -0.606966 0
M  V30 708 H 70.0296 0.249739 -2.02969 0
M  V30 709 H 68.1846 2.57891 -2.89086 0
M  V30 710 H 68.5986 1.75125 -4.944 0
M  V30 711 H 70.0726 3.36443 -4.37619 0
M  V30 712 H 70.5496 3.47672 -2.68367 0
M  V30 713 H 71.1556 2.13323 -3.67931 0
M  V30 714 N 69.4707 1.49531 0.497807 0
M  V30 715 C 70.7177 1.59179 1.25173 0
M  V30 716 C 71.0457 0.279932 1.92475 0
M  V30 717 O 70.3007 -0.732383 1.81479 0
M  V30 718 C 70.5997 2.70252 2.33878 0
M  V30 719 C 70.2657 4.11644 1.84012 0
M  V30 720 C 68.9277 4.50121 1.70132 0
M  V30 721 C 71.2797 5.00121 1.46725 0
M  V30 722 C 68.6077 5.74845 1.17348 0
M  V30 723 C 70.9597 6.25366 0.95392 0
M  V30 724 C 69.6237 6.6267 0.801538 0
M  V30 725 H 68.8937 0.582478 0.45804 0
M  V30 726 H 71.5407 1.83373 0.551948 0
M  V30 727 H 69.8457 2.40041 3.09657 0
M  V30 728 H 71.5427 2.74925 2.9192 0
M  V30 729 H 68.1327 3.81274 1.95775 0
M  V30 730 H 72.3167 4.71048 1.56294 0
M  V30 731 H 67.5727 6.02444 1.04264 0
M  V30 732 H 71.7467 6.93301 0.656225 0
M  V30 733 H 69.3737 7.59197 0.390351 0
M  V30 734 N 70.9488 -0.749086 1.3866 0
M  V30 735 C 72.2258 -1.4992 1.25632 0
M  V30 736 C 72.6058 -2.10633 -0.140317 0
M  V30 737 O 71.9538 -1.97437 -1.15025 0
M  V30 738 C 72.1638 -2.56195 2.36992 0
M  V30 739 C 73.5118 -3.22972 2.75634 0
M  V30 740 O 74.5358 -2.66502 2.36337 0
M  V30 741 O 73.3948 -4.25122 3.43415 0
M  V30 742 H 70.4888 -0.665067 0.491544 0
M  V30 743 H 73.0348 -0.784113 1.50498 0
M  V30 744 H 71.8068 -2.09612 3.30422 0
M  V30 745 H 71.4298 -3.35279 2.13714 0
M  V30 746 N 72.4269 -1.23603 -0.977757 0
M  V30 747 C 73.6749 -1.06759 -1.71601 0
M  V30 748 C 73.9959 0.395929 -1.90938 0
M  V30 749 O 73.2659 1.28356 -1.47992 0
M  V30 750 H 71.8459 -0.392062 -0.635843 0
M  V30 751 H 74.5079 -1.55362 -1.1768 0
M  V30 752 H 73.6039 -1.55763 -2.70452 0
M  V30 753 N 73.905 1.17692 -1.04816 0
M  V30 754 C 75.182 1.83768 -0.669963 0
M  V30 755 C 75.562 1.93232 0.849986 0
M  V30 756 O 74.91 1.46397 1.75443 0
M  V30 757 C 75.12 3.21641 -1.35455 0
M  V30 758 C 76.468 3.97592 -1.49017 0
M  V30 759 O 77.492 3.31107 -1.31326 0
M  V30 760 O 76.351 5.16729 -1.77914 0
M  V30 761 H 73.445 0.792799 -0.235368 0
M  V30 762 H 75.991 1.25021 -1.14751 0
M  V30 763 H 74.763 3.097 -2.39168 0
M  V30 764 H 74.386 3.88052 -0.866107 0
M  V30 765 N 75.3831 0.828654 1.34056 0
M  V30 766 C 76.6291 0.42008 1.98402 0
M  V30 767 C 76.9621 -1.01564 1.65525 0
M  V30 768 O 76.2371 -1.70834 0.929831 0
M  V30 769 C 76.5201 0.62927 3.54559 0
M  V30 770 C 76.3731 2.11152 3.97159 0
M  V30 771 C 77.6921 0.0688756 4.40046 0
M  V30 772 H 74.8111 0.154104 0.720709 0
M  V30 773 H 77.4531 1.04228 1.5886 0
M  V30 774 H 75.6031 0.0996418 3.88372 0
M  V30 775 H 77.2751 2.70522 3.73651 0
M  V30 776 H 75.5181 2.59985 3.47261 0
M  V30 777 H 76.1891 2.20868 5.05887 0
M  V30 778 H 78.6651 0.521458 4.1282 0
M  V30 779 H 77.5411 0.245006 5.48353 0
M  V30 780 H 77.8021 -1.0266 4.30015 0
M  V30 781 N 76.8612 -1.46375 0.584142 0
M  V30 782 C 78.1082 -2.02378 0.0702675 0
M  V30 783 C 78.4362 -1.45545 -1.29023 0
M  V30 784 O 77.6912 -0.610967 -1.85918 0
M  V30 785 C 77.9902 -3.57373 -0.0439342 0
M  V30 786 C 77.6562 -4.33252 1.24915 0
M  V30 787 C 76.3182 -4.53701 1.60341 0
M  V30 788 C 78.6702 -4.7681 2.1048 0
M  V30 789 C 75.9982 -5.1496 2.81128 0
M  V30 790 C 78.3502 -5.39404 3.30494 0
M  V30 791 C 77.0142 -5.5808 3.66201 0
M  V30 792 H 76.2842 -0.740554 0.0257127 0
M  V30 793 H 78.9312 -1.75727 0.761065 0
M  V30 794 H 77.2362 -3.83169 -0.817869 0
M  V30 795 H 78.9332 -3.98384 -0.457318 0
M  V30 796 H 75.5232 -4.17633 0.963364 0
M  V30 797 H 79.7072 -4.60766 1.84414 0
M  V30 798 H 74.9632 -5.27611 3.08928 0
M  V30 799 H 79.1372 -5.72114 3.97063 0
M  V30 800 H 76.7642 -6.05318 4.59885 0
M  V30 801 N 78.3393 -0.321999 -1.54275 0
M  V30 802 C 79.7553 0.0306999 -1.5957 0
M  V30 803 C 79.9553 1.50614 -1.33857 0
M  V30 804 O 79.0113 2.2619 -1.12223 0
M  V30 805 C 80.3243 -0.386122 -2.98211 0
M  V30 806 C 81.8723 -0.336647 -3.11184 0
M  V30 807 C 82.3473 -0.728607 -4.52167 0
M  V30 808 N 83.8383 -0.681952 -4.58152 0
M  V30 809 C 84.5733 -0.957449 -5.6535 0
M  V30 810 N 84.0693 -1.3 -6.80494 0
M  V30 811 N 85.8623 -0.883113 -5.55119 0
M  V30 812 H 78.0133 -1.28332 -1.69247 0
M  V30 813 H 80.2763 -0.521716 -0.791528 0
M  V30 814 H 79.9823 -1.41404 -3.22022 0
M  V30 815 H 79.8563 0.249662 -3.76373 0
M  V30 816 H 82.2433 0.682058 -2.8711 0
M  V30 817 H 82.3243 -1.00734 -2.3513 0
M  V30 818 H 81.9683 -1.74522 -4.76974 0
M  V30 819 H 81.8983 -0.0356152 -5.26588 0
M  V30 820 H 84.3893 -0.428985 -3.75457 0
M  V30 821 H 84.7023 -1.49563 -7.58189 0
M  V30 822 H 83.0473 -1.33824 -6.81994 0
M  V30 823 H 86.2383 -0.615001 -4.64042 0
M  V30 824 H 86.4113 -1.10118 -6.38575 0
M  V30 825 N 79.8174 1.5752 -0.0501392 0
M  V30 826 C 81.0644 1.9265 0.623874 0
M  V30 827 C 81.3924 0.928411 1.70912 0
M  V30 828 O 80.6474 -0.0594525 1.9561 0
M  V30 829 C 80.9464 3.34467 1.25963 0
M  V30 830 C 80.6124 4.49883 0.302689 0
M  V30 831 C 79.2744 4.81184 0.0393636 0
M  V30 832 C 81.6264 5.20002 -0.353205 0
M  V30 833 C 78.9544 5.79951 -0.887308 0
M  V30 834 C 81.3064 6.1976 -1.26806 0
M  V30 835 C 79.9704 6.49491 -1.54007 0
M  V30 836 H 79.2404 0.704957 0.228292 0
M  V30 837 H 81.8874 1.91146 -0.116398 0
M  V30 838 H 80.1924 3.32333 2.07514 0
M  V30 839 H 81.8894 3.58928 1.78806 0
M  V30 840 H 78.4794 4.25457 0.518109 0
M  V30 841 H 82.6634 4.96033 -0.162854 0
M  V30 842 H 77.9194 6.01322 -1.10553 0
M  V30 843 H 82.0934 6.73205 -1.78236 0
M  V30 844 H 79.7204 7.25837 -2.25976 0
M  V30 845 N 81.2955 -0.223234 1.56011 0
M  V30 846 C 82.7065 -0.790368 1.69145 0
M  V30 847 C 83.0575 -1.85055 0.651845 0
M  V30 848 O 82.1825 -2.15498 -0.197359 0
M  V30 849 C 82.7775 -1.4404 3.06656 0
M  V30 850 C 81.3365 -1.95494 3.2165 0
M  V30 851 C 80.4835 -0.814506 2.65068 0
M  V30 852 H 83.4345 0.00139011 1.587 0
M  V30 853 H 83.4555 -2.30916 3.0242 0
M  V30 854 H 82.9675 -0.668543 3.82298 0
M  V30 855 H 81.0685 -2.75487 2.50874 0
M  V30 856 H 81.1815 -2.13607 4.28846 0
M  V30 857 H 79.5455 -1.22137 2.23505 0
M  V30 858 H 80.3285 -0.0553515 3.43255 0
M  V30 859 N 82.7736 -1.49793 -0.48987 0
M  V30 860 C 84.0216 -1.59525 -1.24081 0
M  V30 861 C 84.3426 -0.288953 -1.92847 0
M  V30 862 O 83.6126 0.692436 -1.83254 0
M  V30 863 H 82.1926 -0.587796 -0.460983 0
M  V30 864 H 84.8546 -1.86477 -0.566778 0
M  V30 865 H 83.9506 -2.39696 -1.99881 0
M  V30 866 N 84.2517 0.741722 -1.39055 0
M  V30 867 C 85.1817 1.869 -1.39966 0
M  V30 868 C 86.1627 1.6804 -0.26392 0
M  V30 869 O 87.3477 1.88458 -0.468755 0
M  V30 870 C 84.4777 3.24572 -1.23574 0
M  V30 871 C 83.4317 3.58056 -2.34477 0
M  V30 872 C 82.7577 4.94593 -2.0318 0
M  V30 873 C 84.0577 3.61716 -3.76774 0
M  V30 874 H 85.7517 1.86395 -2.34302 0
M  V30 875 H 83.2977 0.895361 -1.1278 0
M  V30 876 H 85.2507 4.031 -1.22834 0
M  V30 877 H 83.9747 3.25587 -0.257045 0
M  V30 878 H 82.6337 2.81854 -2.34423 0
M  V30 879 H 82.2817 4.92181 -1.03765 0
M  V30 880 H 81.9817 5.17964 -2.77465 0
M  V30 881 H 83.5057 5.75486 -2.04079 0
M  V30 882 H 84.9197 4.30335 -3.78794 0
M  V30 883 H 83.3167 3.96603 -4.50362 0
M  V30 884 H 84.3867 2.61672 -4.08235 0
M  V30 885 N 85.7298 1.2412 0.971189 0
M  V30 886 C 86.9698 1.09066 1.7287 0
M  V30 887 C 87.3338 -0.364794 1.88503 0
M  V30 888 O 88.5348 -0.636748 2.61149 0
M  V30 889 C 86.8058 1.80629 3.08396 0
M  V30 890 S 88.3648 1.81263 3.99611 0
M  V30 891 H 85.1828 0.390145 0.594397 0
M  V30 892 H 87.7848 1.57397 1.15959 0
M  V30 893 H 86.4888 2.85647 2.94676 0
M  V30 894 H 86.0198 1.32617 3.70373 0
M  V30 895 H 88.0348 0.877804 4.88374 0
M  V30 896 N 87.2079 -1.17134 1.05439 0
M  V30 897 C 88.4849 -1.83411 0.679699 0
M  V30 898 C 88.8649 -1.9368 -0.839726 0
M  V30 899 O 88.2129 -1.47325 -1.74664 0
M  V30 900 C 88.4229 -3.20918 1.37159 0
M  V30 901 C 89.7709 -3.96796 1.51123 0
M  V30 902 O 90.7949 -3.30406 1.3308 0
M  V30 903 O 89.6539 -5.15778 1.80651 0
M  V30 904 H 86.7479 -0.79154 0.239569 0
M  V30 905 H 89.2939 -1.24411 1.15413 0
M  V30 906 H 88.0659 -3.08428 2.40807 0
M  V30 907 H 87.6889 -3.87587 0.886674 0
M  V30 908 N 88.686 -0.835752 -1.33615 0
M  V30 909 C 89.916 -0.442701 -2.01801 0
M  V30 910 C 90.324 0.959807 -1.63047 0
M  V30 911 O 89.667 1.63468 -0.838088 0
M  V30 912 C 89.729 -0.480125 -3.56279 0
M  V30 913 C 89.393 -1.8382 -4.18401 0
M  V30 914 C 90.39 -2.80097 -4.37998 0
M  V30 915 C 88.075 -2.13019 -4.54894 0
M  V30 916 C 90.069 -4.03736 -4.9323 0
M  V30 917 C 87.756 -3.36916 -5.09834 0
M  V30 918 C 88.754 -4.32091 -5.28948 0
M  V30 919 O 88.442 -5.53797 -5.82721 0
M  V30 920 H 88.174 -0.17441 -0.653114 0
M  V30 921 H 90.728 -1.129 -1.71589 0
M  V30 922 H 88.958 0.262931 -3.85805 0
M  V30 923 H 90.647 -0.105335 -4.05763 0
M  V30 924 H 91.413 -2.58838 -4.10156 0
M  V30 925 H 87.292 -1.39733 -4.39313 0
M  V30 926 H 90.836 -4.78034 -5.08064 0
M  V30 927 H 86.733 -3.58033 -5.37106 0
M  V30 928 H 87.501 -5.55494 -6.0114 0
M  V30 929 N 90.1641 1.46063 -0.591896 0
M  V30 930 C 91.1121 2.32124 0.148739 0
M  V30 931 C 92.1061 1.45035 0.875286 0
M  V30 932 O 93.3121 1.61609 0.792632 0
M  V30 933 H 89.6871 0.749024 0.066832 0
M  V30 934 H 91.6581 2.92392 -0.595783 0
M  V30 935 C 90.4071 3.28373 1.1431 0
M  V30 936 H 89.7301 3.95371 0.59346 0
M  V30 937 H 91.1701 3.91352 1.63155 0
M  V30 938 C 89.6291 2.54393 2.20875 0
M  V30 939 O 90.1591 2.31373 3.28374 0
M  V30 940 N 88.3651 2.14797 1.95731 0
M  V30 941 H 87.9121 2.33719 1.08319 0
M  V30 942 H 87.8701 1.65619 2.67241 0
M  V30 943 N 91.6422 0.330177 1.54103 0
M  V30 944 C 92.8892 -0.270405 2.00686 0
M  V30 945 C 93.2172 -1.51621 1.21825 0
M  V30 946 O 92.4722 -1.93536 0.29025 0
M  V30 947 C 92.7712 -0.643134 3.51566 0
M  V30 948 C 92.4372 0.504251 4.48072 0
M  V30 949 C 91.0992 0.819163 4.74176 0
M  V30 950 C 93.4512 1.27465 5.05373 0
M  V30 951 C 90.7792 1.90708 5.5484 0
M  V30 952 C 93.1312 2.35271 5.87223 0
M  V30 953 C 91.7952 2.67336 6.11627 0
M  V30 954 H 91.0652 -0.0989482 0.734364 0
M  V30 955 H 93.7122 0.455324 1.86008 0
M  V30 956 H 92.0172 -1.44938 3.64006 0
M  V30 957 H 93.7142 -1.11949 3.85056 0
M  V30 958 H 90.3042 0.248733 4.27878 0
M  V30 959 H 94.4882 1.04462 4.85182 0
M  V30 960 H 89.7442 2.15991 5.71977 0
M  V30 961 H 93.9182 2.95405 6.30641 0
M  V30 962 H 91.5452 3.51763 6.73919 0
M  V30 963 N 93.1203 -1.57491 0.0584922 0
M  V30 964 C 94.0833 -2.1085 -0.898617 0
M  V30 965 C 95.0833 -1.02964 -1.23511 0
M  V30 966 O 96.2733 -1.29007 -1.17059 0
M  V30 967 C 93.4053 -2.59881 -2.20623 0
M  V30 968 H 94.5983 -2.96715 -0.435936 0
M  V30 969 H 92.1513 -1.55141 -0.190023 0
M  V30 970 H 92.8863 -1.77431 -2.71457 0
M  V30 971 H 92.6713 -3.38727 -1.97501 0
M  V30 972 H 94.1613 -3.01285 -2.89166 0
M  V30 973 N 94.5984 0.214957 -1.56127 0
M  V30 974 C 95.8234 0.95924 -1.83884 0
M  V30 975 C 96.2484 1.7689 -0.639644 0
M  V30 976 O 95.6064 1.76566 0.411601 0
M  V30 977 C 95.6544 1.84723 -3.09693 0
M  V30 978 O 94.7584 2.94346 -2.8885 0
M  V30 979 H 94.0994 0.27125 -0.606069 0
M  V30 980 H 96.6294 0.226276 -2.03345 0
M  V30 981 H 96.6394 2.25576 -3.39969 0
M  V30 982 H 95.3144 1.25218 -3.96602 0
M  V30 983 H 93.8914 2.57391 -2.69823 0
M  V30 984 N 96.0765 1.50051 0.48192 0
M  V30 985 C 97.3535 1.51009 1.2432 0
M  V30 986 C 97.7335 0.248587 2.09631 0
M  V30 987 O 97.0815 -0.768409 2.15192 0
M  V30 988 C 97.2915 2.79981 2.08355 0
M  V30 989 C 98.6395 3.3022 2.66908 0
M  V30 990 O 99.6635 2.81228 2.18607 0
M  V30 991 O 98.5225 4.15595 3.54884 0
M  V30 992 H 95.6165 0.605239 0.563573 0
M  V30 993 H 98.1625 1.62332 0.494627 0
M  V30 994 H 96.9345 3.63275 1.45419 0
M  V30 995 H 96.5575 2.7161 2.90368 0
M  V30 996 N 97.5546 -0.734337 1.39446 0
M  V30 997 C 98.7946 -1.50655 1.38139 0
M  V30 998 C 99.1586 -1.91986 -0.0228701 0
M  V30 999 O 100.36 -2.68318 -0.160947 0
M  V30 1000 C 98.6306 -2.71251 2.32718 0
M  V30 1001 S 100.19 -3.60892 2.49605 0
M  V30 1002 H 97.0076 -0.515315 0.489869 0
M  V30 1003 H 99.6096 -0.860392 1.75549 0
M  V30 1004 H 98.3136 -2.39027 3.33608 0
M  V30 1005 H 97.8446 -3.40795 1.96526 0
M  V30 1006 H 99.8596 -4.64899 1.73446 0
M  V30 1007 N 99.0327 -1.24633 -0.964593 0
M  V30 1008 C 100.449 -1.01239 -1.2338 0
M  V30 1009 C 100.649 0.2769 -1.99588 0
M  V30 1010 O 99.7047 0.992241 -2.32187 0
M  V30 1011 C 101.018 -2.22937 -2.01791 0
M  V30 1012 C 102.566 -2.27594 -2.14872 0
M  V30 1013 C 103.041 -3.48921 -2.96678 0
M  V30 1014 N 104.532 -3.49257 -3.04259 0
M  V30 1015 C 105.267 -4.39795 -3.67924 0
M  V30 1016 N 104.763 -5.40591 -4.33281 0
M  V30 1017 N 106.556 -4.275 -3.64966 0
M  V30 1018 H 98.7067 -2.0748 -0.454502 0
M  V30 1019 H 100.97 -0.910647 -0.26349 0
M  V30 1020 H 100.676 -3.16587 -1.53184 0
M  V30 1021 H 100.55 -2.25306 -3.02518 0
M  V30 1022 H 102.937 -1.34473 -2.6268 0
M  V30 1023 H 103.018 -2.2925 -1.13482 0
M  V30 1024 H 102.662 -4.42359 -2.49562 0
M  V30 1025 H 102.592 -3.4451 -3.98272 0
M  V30 1026 H 105.083 -2.76337 -2.57771 0
M  V30 1027 H 105.396 -6.05904 -4.79687 0
M  V30 1028 H 103.741 -5.44475 -4.3194 0
M  V30 1029 H 106.932 -3.47987 -3.13086 0
M  V30 1030 H 107.105 -4.98258 -4.14298 0
M  V30 1031 N 100.511 1.16574 -1.06058 0
M  V30 1032 C 101.759 1.86677 -0.77434 0
M  V30 1033 C 102.08 1.81959 0.701147 0
M  V30 1034 O 101.35 1.2515 1.50713 0
M  V30 1035 H 99.9298 0.691134 -0.283449 0
M  V30 1036 H 102.592 1.41378 -1.34158 0
M  V30 1037 H 101.688 2.92181 -1.09711 0
M  V30 1038 N 101.989 0.842826 1.3317 0
M  V30 1039 C 103.214 0.453129 2.02389 0
M  V30 1040 C 103.639 -0.939105 1.6298 0
M  V30 1041 O 102.997 -1.61472 0.8244 0
M  V30 1042 C 103.045 0.586094 3.55805 0
M  V30 1043 O 102.149 -0.386029 4.10589 0
M  V30 1044 H 101.49 0.183664 0.638094 0
M  V30 1045 H 104.02 1.13875 1.69981 0
M  V30 1046 H 104.03 0.469209 4.05293 0
M  V30 1047 H 102.705 1.6014 3.83833 0
M  V30 1048 H 101.282 -0.226371 3.72212 0
M  V30 1049 N 103.467 -1.45747 0.599634 0
M  V30 1050 C 104.697 -2.06369 0.0977132 0
M  V30 1051 C 105.105 -1.44624 -1.21985 0
M  V30 1052 O 104.448 -0.551831 -1.75216 0
M  V30 1053 C 104.51 -3.59284 -0.124673 0
M  V30 1054 C 104.174 -4.43318 1.10987 0
M  V30 1055 C 105.171 -4.78796 2.02609 0
M  V30 1056 C 102.856 -4.84194 1.33647 0
M  V30 1057 C 104.85 -5.53997 3.15224 0
M  V30 1058 C 102.537 -5.5915 2.46565 0
M  V30 1059 C 103.535 -5.93968 3.37182 0
M  V30 1060 O 103.223 -6.67405 4.48136 0
M  V30 1061 H 102.955 -0.673122 0.0623153 0
M  V30 1062 H 105.509 -1.88104 0.824981 0
M  V30 1063 H 103.739 -3.75919 -0.906745 0
M  V30 1064 H 105.428 -4.01775 -0.577201 0
M  V30 1065 H 106.194 -4.47781 1.86325 0
M  V30 1066 H 102.073 -4.56534 0.64016 0
M  V30 1067 H 105.617 -5.81091 3.85978 0
M  V30 1068 H 101.514 -5.89579 2.62805 0
M  V30 1069 H 102.282 -6.85847 4.46717 0
M  V30 1070 N 104.945 -0.338344 -1.53925 0
M  V30 1071 C 105.892 0.520845 -2.24846 0
M  V30 1072 C 106.862 1.09976 -1.24477 0
M  V30 1073 O 108.047 1.13735 -1.53196 0
M  V30 1074 C 105.187 1.6685 -3.02084 0
M  V30 1075 C 104.3 1.11739 -4.17299 0
M  V30 1076 C 103.435 2.23193 -4.82036 0
M  V30 1077 C 102.474 1.65407 -5.89328 0
M  V30 1078 N 101.611 2.70582 -6.47866 0
M  V30 1079 H 106.451 -0.0904881 -2.97863 0
M  V30 1080 H 103.988 -0.0564282 -1.46992 0
M  V30 1081 H 105.946 2.34407 -3.45122 0
M  V30 1082 H 104.576 2.2509 -2.31375 0
M  V30 1083 H 103.628 0.332919 -3.7894 0
M  V30 1084 H 104.94 0.654677 -4.94485 0
M  V30 1085 H 104.094 2.98626 -5.28117 0
M  V30 1086 H 102.833 2.72807 -4.04262 0
M  V30 1087 H 101.838 0.884779 -5.42634 0
M  V30 1088 H 103.063 1.16652 -6.69006 0
M  V30 1089 H 101.009 3.1946 -5.72959 0
M  V30 1090 H 100.926 2.28917 -7.20509 0
M  V30 1091 H 102.194 3.45799 -6.98601 0
M  V30 1092 N 106.423 1.57458 -0.0668435 0
M  V30 1093 C 107.333 2.15937 0.916975 0
M  V30 1094 C 108.349 1.12123 1.33058 0
M  V30 1095 O 109.525 1.44366 1.40429 0
M  V30 1096 C 106.59 2.70547 2.16807 0
M  V30 1097 C 105.651 3.89215 1.81135 0
M  V30 1098 C 104.884 4.41211 3.0028 0
M  V30 1099 O 105.107 3.92225 4.14144 0
M  V30 1100 O 104.041 5.32605 2.80384 0
M  V30 1101 H 107.867 3.00354 0.449561 0
M  V30 1102 H 105.452 1.48584 0.155949 0
M  V30 1103 H 107.334 3.0557 2.90181 0
M  V30 1104 H 106.009 1.89192 2.62656 0
M  V30 1105 H 104.916 3.59054 1.05028 0
M  V30 1106 H 106.249 4.71848 1.40073 0
M  V30 1107 N 107.901 -0.206675 1.56239 0
M  V30 1108 C 109.148 -0.928842 1.79941 0
M  V30 1109 C 109.476 -1.83734 0.638131 0
M  V30 1110 O 108.731 -1.92039 -0.376746 0
M  V30 1111 C 109.03 -1.78675 3.09532 0
M  V30 1112 C 108.696 -1.03022 4.38973 0
M  V30 1113 C 107.358 -0.821302 4.74139 0
M  V30 1114 C 109.71 -0.497081 5.18824 0
M  V30 1115 C 107.038 -0.0675719 5.86661 0
M  V30 1116 C 109.39 0.24338 6.32132 0
M  V30 1117 C 108.054 0.463422 6.65889 0
M  V30 1118 H 107.324 -0.339887 0.658451 0
M  V30 1119 H 109.971 -0.195977 1.90495 0
M  V30 1120 H 108.276 -2.58794 2.94165 0
M  V30 1121 H 109.973 -2.34792 3.25075 0
M  V30 1122 H 106.563 -1.20306 4.11369 0
M  V30 1123 H 110.747 -0.645921 4.92079 0
M  V30 1124 H 106.003 0.112995 6.11296 0
M  V30 1125 H 110.177 0.66393 6.93228 0
M  V30 1126 H 107.804 1.04938 7.52922 0
M  V30 1127 N 109.379 -1.50304 -0.473955 0
M  V30 1128 C 110.342 -1.6841 -1.55469 0
M  V30 1129 C 111.342 -0.554905 -1.50922 0
M  V30 1130 O 112.532 -0.821882 -1.53593 0
M  V30 1131 C 109.664 -1.70667 -2.95102 0
M  V30 1132 H 110.857 -2.64828 -1.40733 0
M  V30 1133 H 108.41 -1.39742 -0.700132 0
M  V30 1134 H 109.145 -0.75932 -3.15285 0
M  V30 1135 H 108.93 -2.52698 -2.9981 0
M  V30 1136 H 110.42 -1.8664 -3.73571 0
M  V30 1137 N 110.857 0.726932 -1.39834 0
M  V30 1138 C 112.103 1.48884 -1.377 0
M  V30 1139 C 112.436 1.94185 0.0244852 0
M  V30 1140 O 111.711 1.67361 0.990986 0
M  V30 1141 C 111.994 2.72288 -2.3565 0
M  V30 1142 C 111.847 2.32956 -3.84775 0
M  V30 1143 C 113.166 3.74414 -2.31306 0
M  V30 1144 H 110.285 0.540062 -0.5015 0
M  V30 1145 H 112.927 0.830547 -1.70886 0
M  V30 1146 H 111.077 3.28457 -2.07481 0
M  V30 1147 H 112.749 1.82356 -4.23726 0
M  V30 1148 H 110.992 1.65088 -4.01159 0
M  V30 1149 H 111.663 3.21362 -4.4881 0
M  V30 1150 H 114.139 3.27849 -2.56231 0
M  V30 1151 H 113.015 4.58414 -3.01907 0
M  V30 1152 H 113.276 4.21909 -1.32081 0
M  V30 1153 N 112.336 1.25143 0.95797 0
M  V30 1154 C 113.286 1.01924 2.0395 0
M  V30 1155 C 114.27 -0.0427175 1.60843 0
M  V30 1156 O 115.462 0.17221 1.7616 0
M  V30 1157 C 112.591 0.636373 3.3735 0
M  V30 1158 C 111.677 1.73492 3.8699 0
M  V30 1159 N 112.068 2.96945 4.0946 0
M  V30 1160 C 110.366 1.61467 4.15746 0
M  V30 1161 C 111.067 3.68228 4.50315 0
M  V30 1162 N 110.043 2.95833 4.56053 0
M  V30 1163 H 113.845 1.95653 2.19311 0
M  V30 1164 H 111.359 1.15413 1.14253 0
M  V30 1165 H 113.356 0.451233 4.14451 0
M  V30 1166 H 112.016 -0.293621 3.2337 0
M  V30 1167 H 113.027 3.33025 3.96629 0
M  V30 1168 H 109.704 0.753394 4.10646 0
M  V30 1169 H 111.094 4.74178 4.76031 0
M  V30 1170 N 113.814 -1.1601 1.06675 0
M  V30 1171 C 114.744 -2.22688 0.702307 0
M  V30 1172 C 115.725 -1.67306 -0.307032 0
M  V30 1173 O 116.91 -1.93352 -0.181305 0
M  V30 1174 C 114.04 -3.47178 0.092038 0
M  V30 1175 C 112.994 -4.15477 1.02777 0
M  V30 1176 C 112.32 -5.33963 0.28061 0
M  V30 1177 C 113.62 -4.66019 2.35846 0
M  V30 1178 H 115.314 -2.53429 1.59419 0
M  V30 1179 H 112.86 -1.21813 0.767961 0
M  V30 1180 H 114.813 -4.21037 -0.174814 0
M  V30 1181 H 113.537 -3.15749 -0.834877 0
M  V30 1182 H 112.196 -3.43549 1.27944 0
M  V30 1183 H 111.844 -4.98788 -0.649545 0
M  V30 1184 H 111.544 -5.806 0.904258 0
M  V30 1185 H 113.068 -6.10596 0.021396 0
M  V30 1186 H 114.482 -5.3144 2.15045 0
M  V30 1187 H 112.879 -5.23293 2.93743 0
M  V30 1188 H 113.949 -3.82023 2.98641 0
M  V30 1189 N 115.292 -0.849877 -1.32721 0
M  V30 1190 C 116.239 -0.289033 -2.28983 0
M  V30 1191 C 117.209 0.601324 -1.54833 0
M  V30 1192 O 118.394 0.537253 -1.8308 0
M  V30 1193 C 115.534 0.520623 -3.4115 0
M  V30 1194 C 114.647 -0.394989 -4.3019 0
M  V30 1195 C 113.782 0.426834 -5.29482 0
M  V30 1196 C 112.821 -0.486476 -6.10164 0
M  V30 1197 N 111.958 0.297879 -7.01468 0
M  V30 1198 H 116.798 -1.11519 -2.76347 0
M  V30 1199 H 114.335 -0.56138 -1.35967 0
M  V30 1200 H 116.293 1.00563 -4.04899 0
M  V30 1201 H 114.923 1.31165 -2.9495 0
M  V30 1202 H 113.975 -0.99836 -3.67065 0
M  V30 1203 H 115.287 -1.09612 -4.86607 0
M  V30 1204 H 114.441 0.975205 -5.98811 0
M  V30 1205 H 113.18 1.16136 -4.73671 0
M  V30 1206 H 112.185 -1.04677 -5.39743 0
M  V30 1207 H 113.41 -1.21953 -6.6806 0
M  V30 1208 H 111.356 1.01558 -6.48091 0
M  V30 1209 H 111.273 -0.344318 -7.55216 0
M  V30 1210 H 112.541 0.828131 -7.75089 0
M  V30 1211 N 116.77 1.45427 -0.607355 0
M  V30 1212 C 118.186 1.57283 -0.270985 0
M  V30 1213 C 118.386 1.59875 1.22647 0
M  V30 1214 O 117.442 1.52893 2.00948 0
M  V30 1215 C 118.755 2.85566 -0.941952 0
M  V30 1216 C 120.303 2.9924 -0.917849 0
M  V30 1217 C 120.778 4.30293 -1.56882 0
M  V30 1218 N 122.269 4.37051 -1.5343 0
M  V30 1219 C 123.004 5.37123 -2.00715 0
M  V30 1220 N 122.5 6.43734 -2.56084 0
M  V30 1221 N 124.293 5.28479 -1.91484 0
M  V30 1222 H 116.444 1.41988 -1.57966 0
M  V30 1223 H 118.707 0.67885 -0.661715 0
M  V30 1224 H 118.413 2.8955 -1.99633 0
M  V30 1225 H 118.287 3.74322 -0.465096 0
M  V30 1226 H 120.674 2.94822 0.127984 0
M  V30 1227 H 120.755 2.11895 -1.43297 0
M  V30 1228 H 120.399 4.35469 -2.61398 0
M  V30 1229 H 120.329 5.16454 -1.02873 0
M  V30 1230 H 122.82 3.60615 -1.12982 0
M  V30 1231 H 123.133 7.16341 -2.89958 0
M  V30 1232 H 121.478 6.44485 -2.60122 0
M  V30 1233 H 124.669 4.44098 -1.47967 0
M  V30 1234 H 124.842 6.0632 -2.28648 0
M  V30 1235 N 118.248 0.346503 1.53744 0
M  V30 1236 C 119.496 -0.248612 2.00565 0
M  V30 1237 C 119.817 -1.5083 1.23593 0
M  V30 1238 O 119.087 -1.92858 0.343912 0
M  V30 1239 H 117.667 -0.0948564 0.740953 0
M  V30 1240 H 120.329 0.468341 1.89189 0
M  V30 1241 H 119.425 -0.488994 3.08245 0
M  V30 1242 N 119.726 -1.57421 0.075193 0
M  V30 1243 C 121.137 -1.81021 -0.456964 0
M  V30 1244 C 121.488 -0.98936 -1.69429 0
M  V30 1245 O 120.613 -0.212865 -2.15351 0
M  V30 1246 C 121.208 -3.28329 -0.83581 0
M  V30 1247 C 119.767 -3.52764 -1.31281 0
M  V30 1248 C 118.914 -2.75676 -0.299648 0
M  V30 1249 H 121.865 -1.55822 0.300856 0
M  V30 1250 H 121.886 -3.40564 -1.69696 0
M  V30 1251 H 121.398 -3.88046 0.0649238 0
M  V30 1252 H 119.499 -2.98355 -2.23193 0
M  V30 1253 H 119.612 -4.61451 -1.28839 0
M  V30 1254 H 117.976 -2.42538 -0.777641 0
M  V30 1255 H 118.759 -3.38132 0.593417 0
M  V30 1256 N 121.204 0.198386 -1.56346 0
M  V30 1257 C 122.452 0.91747 -1.80075 0
M  V30 1258 C 122.773 1.83929 -0.647692 0
M  V30 1259 O 122.043 1.93029 0.334166 0
M  V30 1260 H 120.623 0.341774 -0.664228 0
M  V30 1261 H 123.285 0.204684 -1.93822 0
M  V30 1262 H 122.381 1.51055 -2.7311 0
M  V30 1263 N 122.682 1.50554 0.465978 0
M  V30 1264 C 123.614 1.65949 1.58093 0
M  V30 1265 C 124.627 0.540827 1.53554 0
M  V30 1266 O 125.816 0.814187 1.5885 0
M  V30 1267 C 122.916 1.63261 2.96983 0
M  V30 1268 C 122.089 2.91245 3.26336 0
M  V30 1269 C 121.148 2.8113 4.44806 0
M  V30 1270 O 120.174 3.55086 4.44862 0
M  V30 1271 N 121.376 1.95032 5.46756 0
M  V30 1272 H 124.141 2.62122 1.45301 0
M  V30 1273 H 121.702 1.48082 0.65448 0
M  V30 1274 H 123.694 1.54101 3.74212 0
M  V30 1275 H 122.264 0.748032 3.03518 0
M  V30 1276 H 121.484 3.14493 2.37672 0
M  V30 1277 H 122.772 3.76022 3.42761 0
M  V30 1278 H 122.17 1.3427 5.49534 0
M  V30 1279 H 120.727 1.91772 6.2295 0
M  V30 1280 N 124.16 -0.719506 1.40217 0
M  V30 1281 C 125.123 -1.8153 1.39927 0
M  V30 1282 C 126.123 -1.58095 0.293723 0
M  V30 1283 O 127.313 -1.65209 0.552429 0
M  V30 1284 C 124.445 -3.19561 1.18716 0
M  V30 1285 H 125.638 -1.83186 2.37451 0
M  V30 1286 H 123.191 -0.924746 1.26008 0
M  V30 1287 H 123.926 -3.23557 0.219366 0
M  V30 1288 H 123.711 -3.3797 1.98793 0
M  V30 1289 H 125.201 -3.99598 1.21291 0
M  V30 1290 N 125.638 -1.25649 -0.95132 0
M  V30 1291 C 126.548 -1.08073 -2.08224 0
M  V30 1292 C 127.564 -0.0169666 -1.73992 0
M  V30 1293 O 128.74 -0.218593 -2.0021 0
M  V30 1294 C 125.805 -0.704922 -3.39458 0
M  V30 1295 C 124.866 -1.84699 -3.87537 0
M  V30 1296 C 124.099 -1.48902 -5.12508 0
M  V30 1297 O 124.322 -0.386156 -5.69091 0
M  V30 1298 O 123.256 -2.32033 -5.55378 0
M  V30 1299 H 127.082 -2.02924 -2.25954 0
M  V30 1300 H 124.667 -1.04618 -1.06656 0
M  V30 1301 H 126.549 -0.507609 -4.18332 0
M  V30 1302 H 125.224 0.214291 -3.2299 0
M  V30 1303 H 124.131 -2.09919 -3.09653 0
M  V30 1304 H 125.464 -2.74557 -4.08509 0
M  V30 1305 N 127.117 1.15442 -1.07289 0
M  V30 1306 C 128.08 2.18358 -0.696591 0
M  V30 1307 C 129.08 1.58637 0.262837 0
M  V30 1308 O 130.27 1.74145 0.0438809 0
M  V30 1309 C 127.402 3.4089 -0.0266151 0
M  V30 1310 H 128.595 2.53162 -1.60776 0
M  V30 1311 H 126.148 1.29893 -0.869342 0
M  V30 1312 H 126.883 3.11653 0.896822 0
M  V30 1313 H 126.668 3.85495 -0.716657 0
M  V30 1314 H 128.158 4.17009 0.222028 0
M  V30 1315 N 128.595 0.856903 1.32268 0
M  V30 1316 C 130.006 0.515711 1.79436 0
M  V30 1317 C 130.357 -0.966586 1.70738 0
M  V30 1318 O 129.482 -1.75409 1.26731 0
M  V30 1319 C 130.077 0.929335 3.25805 0
M  V30 1320 C 128.636 0.640006 3.70919 0
M  V30 1321 C 127.783 1.12784 2.53328 0
M  V30 1322 H 130.734 1.04389 1.19535 0
M  V30 1323 H 130.755 0.246633 3.797 0
M  V30 1324 H 130.267 2.00821 3.32103 0
M  V30 1325 H 128.368 -0.428051 3.70133 0
M  V30 1326 H 128.481 1.20788 4.63624 0
M  V30 1327 H 126.845 0.548033 2.48734 0
M  V30 1328 H 127.628 2.21387 2.62379 0
M  V30 1329 N 130.073 -1.45103 0.615059 0
M  V30 1330 C 131.036 -2.29025 -0.0895485 0
M  V30 1331 C 132.036 -1.40174 -0.787906 0
M  V30 1332 O 133.226 -1.62217 -0.634933 0
M  V30 1333 C 130.358 -3.21376 -1.13711 0
M  V30 1334 H 131.551 -2.92807 0.648382 0
M  V30 1335 H 129.104 -1.51749 0.374444 0
M  V30 1336 H 129.839 -2.6241 -1.90556 0
M  V30 1337 H 129.624 -3.86834 -0.640475 0
M  V30 1338 H 131.114 -3.84459 -1.63036 0
M  V30 1339 N 131.551 -0.354651 -1.53558 0
M  V30 1340 C 132.799 0.237972 -2.00694 0
M  V30 1341 C 133.12 1.50173 -1.24391 0
M  V30 1342 O 132.39 1.92673 -0.354135 0
M  V30 1343 H 130.97 0.0909256 -0.741446 0
M  V30 1344 H 133.632 -0.478368 -1.88938 0
M  V30 1345 H 132.728 0.47264 -3.085 0
M  V30 1346 N 133.029 1.57378 -0.0835403 0
M  V30 1347 C 134.275 1.94217 0.583733 0
M  V30 1348 C 134.608 0.964653 1.68547 0
M  V30 1349 O 133.883 -0.00422258 1.945 0
M  V30 1350 C 134.166 3.41253 1.14972 0
M  V30 1351 C 134.019 4.49768 0.0538277 0
M  V30 1352 C 135.338 3.89352 2.05166 0
M  V30 1353 H 132.457 0.706233 0.210724 0
M  V30 1354 H 135.099 1.89392 -0.1519 0
M  V30 1355 H 133.249 3.45496 1.77665 0
M  V30 1356 H 134.921 4.57641 -0.579851 0
M  V30 1357 H 133.164 4.29432 -0.614068 0
M  V30 1358 H 133.835 5.49817 0.490452 0
M  V30 1359 H 136.311 3.87189 1.52393 0
M  V30 1360 H 135.187 4.92822 2.41698 0
M  V30 1361 H 135.448 3.27973 2.96456 0
M  V30 1362 N 134.507 -0.190092 1.56449 0
M  V30 1363 C 135.417 -1.25591 1.98152 0
M  V30 1364 C 136.433 -1.49519 0.889944 0
M  V30 1365 O 137.609 -1.62036 1.19609 0
M  V30 1366 C 134.674 -2.57916 2.3169 0
M  V30 1367 C 133.735 -2.42015 3.5458 0
M  V30 1368 C 132.968 -3.6803 3.8651 0
M  V30 1369 O 133.191 -4.72413 3.1966 0
M  V30 1370 O 132.125 -3.6326 4.79923 0
M  V30 1371 H 135.951 -0.931988 2.89046 0
M  V30 1372 H 133.536 -0.395488 1.4407 0
M  V30 1373 H 135.418 -3.36008 2.54316 0
M  V30 1374 H 134.093 -2.89925 1.43963 0
M  V30 1375 H 133 -1.62017 3.37196 0
M  V30 1376 H 134.333 -2.14937 4.4279 0
M  V30 1377 N 135.985 -1.50799 -0.457987 0
M  V30 1378 C 137.21 -1.66496 -1.23668 0
M  V30 1379 C 137.635 -0.353288 -1.84752 0
M  V30 1380 O 136.993 0.684346 -1.67888 0
M  V30 1381 C 137.041 -2.76763 -2.3116 0
M  V30 1382 O 136.145 -2.38928 -3.36136 0
M  V30 1383 H 135.486 -0.555828 -0.363252 0
M  V30 1384 H 138.016 -1.9725 -0.543474 0
M  V30 1385 H 138.026 -3.00232 -2.76269 0
M  V30 1386 H 136.701 -3.71954 -1.86073 0
M  V30 1387 H 135.278 -2.25953 -2.96647 0
M  V30 1388 N 137.463 0.71206 -1.40597 0
M  V30 1389 C 138.712 1.46754 -1.38369 0
M  V30 1390 C 139.025 1.95598 0.0097839 0
M  V30 1391 O 140.231 2.71059 0.154677 0
M  V30 1392 C 138.687 2.65289 -2.43207 0
M  V30 1393 C 138.295 2.23301 -3.88382 0
M  V30 1394 C 140.039 3.43008 -2.50091 0
M  V30 1395 C 137.946 3.38696 -4.84808 0
M  V30 1396 H 136.876 0.55118 -0.514506 0
M  V30 1397 H 139.527 0.774616 -1.66349 0
M  V30 1398 H 137.909 3.36769 -2.08332 0
M  V30 1399 H 139.083 1.59218 -4.32419 0
M  V30 1400 H 137.398 1.58618 -3.85006 0
M  V30 1401 H 139.995 4.28881 -3.1932 0
M  V30 1402 H 140.338 3.87065 -1.53253 0
M  V30 1403 H 140.871 2.78574 -2.83974 0
M  V30 1404 H 137.61 2.99668 -5.82992 0
M  V30 1405 H 137.13 4.01683 -4.45433 0
M  V30 1406 H 138.809 4.04712 -5.04794 0
M  V30 1407 N 138.941 1.26152 0.944643 0
M  V30 1408 C 139.871 1.09902 2.06019 0
M  V30 1409 C 140.852 0.00519538 1.70099 0
M  V30 1410 O 142.037 0.176583 1.93396 0
M  V30 1411 C 139.167 0.727562 3.39594 0
M  V30 1412 C 138.121 1.77274 3.89561 0
M  V30 1413 C 137.447 1.25569 5.19747 0
M  V30 1414 C 138.747 3.17357 4.14827 0
M  V30 1415 H 140.441 2.03217 2.19871 0
M  V30 1416 H 137.987 0.978452 1.05652 0
M  V30 1417 H 139.94 0.600777 4.17095 0
M  V30 1418 H 138.664 -0.241287 3.25707 0
M  V30 1419 H 137.323 1.88814 3.14237 0
M  V30 1420 H 136.971 0.276783 5.02238 0
M  V30 1421 H 136.671 1.95433 5.54148 0
M  V30 1422 H 138.195 1.1415 5.99835 0
M  V30 1423 H 139.609 3.08914 4.82954 0
M  V30 1424 H 138.006 3.84781 4.60504 0
M  V30 1425 H 139.076 3.63673 3.20734 0
M  V30 1426 N 140.419 -1.14872 1.07899 0
M  V30 1427 C 141.349 -2.2193 0.725887 0
M  V30 1428 C 142.33 -1.67622 -0.28927 0
M  V30 1429 O 143.515 -1.93533 -0.160787 0
M  V30 1430 C 140.645 -3.47061 0.128856 0
M  V30 1431 C 139.599 -4.14363 1.07178 0
M  V30 1432 C 138.925 -5.33636 0.337229 0
M  V30 1433 C 140.225 -4.63492 2.40775 0
M  V30 1434 H 141.919 -2.51724 1.62097 0
M  V30 1435 H 139.465 -1.20991 0.780838 0
M  V30 1436 H 141.418 -4.21199 -0.130147 0
M  V30 1437 H 140.142 -3.16617 -0.80134 0
M  V30 1438 H 138.801 -3.42173 1.3158 0
M  V30 1439 H 138.449 -4.99449 -0.596606 0
M  V30 1440 H 138.149 -5.79609 0.965788 0
M  V30 1441 H 139.673 -6.10539 0.0861567 0
M  V30 1442 H 141.087 -5.2913 2.20669 0
M  V30 1443 H 139.484 -5.20148 2.99276 0
M  V30 1444 H 140.554 -3.78834 3.02676 0
M  V30 1445 N 141.898 -0.863906 -1.31812 0
M  V30 1446 C 143.126 -0.486111 -2.01108 0
M  V30 1447 C 143.541 0.919755 -1.64882 0
M  V30 1448 O 142.898 1.60162 -0.874893 0
M  V30 1449 C 142.949 -0.626435 -3.56031 0
M  V30 1450 O 142.67 -1.97693 -3.90959 0
M  V30 1451 C 144.171 -0.248857 -4.42601 0
M  V30 1452 H 141.391 -0.190052 -0.643523 0
M  V30 1453 H 143.935 -1.1634 -1.68182 0
M  V30 1454 H 142.09 0.00322717 -3.874 0
M  V30 1455 H 142.504 -1.98034 -4.85678 0
M  V30 1456 H 143.978 -0.398016 -5.50563 0
M  V30 1457 H 144.455 0.811489 -4.31638 0
M  V30 1458 H 145.061 -0.853971 -4.16638 0
M  V30 1459 N 143.376 1.44774 -0.622745 0
M  V30 1460 C 144.625 2.01334 -0.121397 0
M  V30 1461 C 144.938 1.49505 1.26125 0
M  V30 1462 O 146.144 1.98139 1.85616 0
M  V30 1463 C 144.6 3.59516 -0.166298 0
M  V30 1464 C 144.208 4.20342 -1.54974 0
M  V30 1465 C 145.952 4.23582 0.279021 0
M  V30 1466 C 143.859 5.70721 -1.55021 0
M  V30 1467 H 142.789 0.752851 -0.0416172 0
M  V30 1468 H 145.44 1.66083 -0.780309 0
M  V30 1469 H 143.822 3.92027 0.559557 0
M  V30 1470 H 144.996 3.99381 -2.29851 0
M  V30 1471 H 143.311 3.68529 -1.93843 0
M  V30 1472 H 145.908 5.33868 0.298083 0
M  V30 1473 H 146.251 3.95327 1.30471 0
M  V30 1474 H 146.784 3.95843 -0.394063 0
M  V30 1475 H 143.523 6.03698 -2.55399 0
M  V30 1476 H 143.043 5.93829 -0.844245 0
M  V30 1477 H 144.722 6.34203 -1.28047 0
M  V30 1478 N 144.854 0.36279 1.53368 0
M  V30 1479 C 145.801 -0.485008 2.25646 0
M  V30 1480 C 146.771 -1.07982 1.2621 0
M  V30 1481 O 147.956 -1.11284 1.54986 0
M  V30 1482 C 145.096 -1.62023 3.04701 0
M  V30 1483 C 144.209 -1.05086 4.19024 0
M  V30 1484 C 143.344 -2.15496 4.85525 0
M  V30 1485 C 142.383 -1.5601 5.91884 0
M  V30 1486 N 141.52 -2.60241 6.52088 0
M  V30 1487 H 146.36 0.137864 2.97681 0
M  V30 1488 H 143.897 0.0798061 1.46883 0
M  V30 1489 H 145.855 -2.28887 3.48807 0
M  V30 1490 H 144.485 -2.2138 2.34927 0
M  V30 1491 H 143.537 -0.27259 3.79422 0
M  V30 1492 H 144.849 -0.575926 4.95464 0
M  V30 1493 H 144.003 -2.90186 5.32801 0
M  V30 1494 H 142.742 -2.66341 4.08551 0
M  V30 1495 H 141.747 -0.798338 5.43973 0
M  V30 1496 H 142.972 -1.05994 6.70777 0
M  V30 1497 H 140.918 -3.10304 5.77968 0
M  V30 1498 H 140.835 -2.17426 7.24059 0
M  V30 1499 H 142.103 -3.34641 7.04014 0
M  V30 1500 N 146.332 -1.57332 0.0918853 0
M  V30 1501 C 147.609 -1.85691 -0.614668 0
M  V30 1502 C 147.989 -0.988146 -1.86545 0
M  V30 1503 O 147.337 -0.0597055 -2.28422 0
M  V30 1504 C 147.547 -3.36294 -0.933126 0
M  V30 1505 C 148.895 -4.04275 -1.29796 0
M  V30 1506 O 149.919 -3.41157 -1.02424 0
M  V30 1507 O 148.778 -5.1564 -1.81047 0
M  V30 1508 H 145.872 -0.767802 -0.307261 0
M  V30 1509 H 148.418 -1.69244 0.12434 0
M  V30 1510 H 147.19 -3.91273 -0.0456404 0
M  V30 1511 H 146.813 -3.58076 -1.72822 0
M  V30 1512 N 147.81 0.181792 -1.56548 0
M  V30 1513 C 149.087 0.926765 -1.72251 0
M  V30 1514 C 149.467 2.00831 -0.650386 0
M  V30 1515 O 148.815 2.26008 0.336521 0
M  V30 1516 C 149.025 1.50106 -3.1507 0
M  V30 1517 C 150.373 1.97805 -3.75711 0
M  V30 1518 O 151.397 1.59922 -3.18282 0
M  V30 1519 O 150.256 2.67555 -4.76525 0
M  V30 1520 H 147.35 0.435506 -0.703039 0
M  V30 1521 H 149.896 0.170443 -1.68842 0
M  V30 1522 H 148.668 0.72212 -3.84579 0
M  V30 1523 H 148.291 2.32186 -3.22763 0
M  V30 1524 N 149.288 1.51039 0.449983 0
M  V30 1525 C 150.516 1.66869 1.2232 0
M  V30 1526 C 150.931 0.360727 1.85322 0
M  V30 1527 O 150.288 -0.659531 1.70166 0
M  V30 1528 C 150.339 2.77524 2.31652 0
M  V30 1529 O 150.06 4.03252 1.7123 0
M  V30 1530 C 151.561 3.04512 3.2216 0
M  V30 1531 H 148.781 0.560326 0.369155 0
M  V30 1532 H 151.325 1.97385 0.534719 0
M  V30 1533 H 149.48 2.49642 2.96239 0
M  V30 1534 H 149.894 4.64609 2.43389 0
M  V30 1535 H 151.368 3.85551 3.95038 0
M  V30 1536 H 151.845 2.16415 3.8218 0
M  V30 1537 H 152.451 3.34005 2.63288 0
M  V30 1538 N 150.766 -0.704594 1.40972 0
M  V30 1539 C 152.015 -1.46018 1.39146 0
M  V30 1540 C 152.328 -1.956 0.000589254 0
M  V30 1541 O 153.534 -2.71137 -0.1403 0
M  V30 1542 C 151.99 -2.63996 2.4461 0
M  V30 1543 C 151.598 -2.21238 3.89561 0
M  V30 1544 C 153.342 -3.41677 2.51907 0
M  V30 1545 C 151.249 -3.3612 4.86598 0
M  V30 1546 H 150.179 -0.548444 0.517422 0
M  V30 1547 H 152.83 -0.765784 1.66757 0
M  V30 1548 H 151.212 -3.3566 2.10115 0
M  V30 1549 H 152.386 -1.56923 4.33257 0
M  V30 1550 H 150.701 -1.56574 3.85841 0
M  V30 1551 H 153.298 -4.27182 3.2159 0
M  V30 1552 H 153.641 -3.86247 1.55303 0
M  V30 1553 H 154.174 -2.77064 2.85448 0
M  V30 1554 H 150.913 -2.96572 5.84573 0
M  V30 1555 H 150.433 -3.99315 4.47557 0
M  V30 1556 H 152.112 -4.02029 5.06934 0
M  V30 1557 N 152.244 -1.26651 -0.937939 0
M  V30 1558 C 153.474 -1.15006 -1.71631 0
M  V30 1559 C 153.882 0.297026 -1.86854 0
M  V30 1560 O 153.225 1.21493 -1.37786 0
M  V30 1561 C 153.287 -1.74984 -3.14039 0
M  V30 1562 C 152.951 -3.24103 -3.2219 0
M  V30 1563 C 153.948 -4.20877 -3.05219 0
M  V30 1564 C 151.633 -3.64625 -3.45476 0
M  V30 1565 C 153.627 -5.56151 -3.11408 0
M  V30 1566 C 151.314 -5.00032 -3.513 0
M  V30 1567 C 152.312 -5.95604 -3.34282 0
M  V30 1568 O 152 -7.28545 -3.3982 0
M  V30 1569 H 151.732 -0.401183 -0.544085 0
M  V30 1570 H 154.286 -1.67832 -1.18413 0
M  V30 1571 H 152.516 -1.16624 -3.68695 0
M  V30 1572 H 154.205 -1.58199 -3.73802 0
M  V30 1573 H 154.971 -3.90908 -2.87081 0
M  V30 1574 H 150.85 -2.90718 -3.57777 0
M  V30 1575 H 154.394 -6.30727 -2.98043 0
M  V30 1576 H 150.291 -5.29659 -3.68959 0
M  V30 1577 H 151.059 -7.3686 -3.56343 0
M  V30 1578 N 153.722 1.14298 -1.08507 0
M  V30 1579 C 154.652 2.21542 -0.737646 0
M  V30 1580 C 155.633 1.67773 0.280377 0
M  V30 1581 O 156.818 1.93616 0.150521 0
M  V30 1582 C 153.948 3.46988 -0.147259 0
M  V30 1583 C 152.902 4.13789 -1.09374 0
M  V30 1584 C 152.228 5.33449 -0.365524 0
M  V30 1585 C 153.528 4.62208 -2.4323 0
M  V30 1586 H 155.222 2.5086 -1.6343 0
M  V30 1587 H 152.768 1.20576 -0.787243 0
M  V30 1588 H 154.721 4.21262 0.107808 0
M  V30 1589 H 153.445 3.17037 0.784538 0
M  V30 1590 H 152.104 3.4147 -1.33393 0
M  V30 1591 H 151.752 4.99759 0.57011 0
M  V30 1592 H 151.452 5.79088 -0.996512 0
M  V30 1593 H 152.976 6.10485 -0.118534 0
M  V30 1594 H 154.39 5.27952 -2.23472 0
M  V30 1595 H 152.787 5.18553 -3.02031 0
M  V30 1596 H 153.857 3.77224 -3.04681 0
M  V30 1597 N 155.201 0.870884 1.31352 0
M  V30 1598 C 156.429 0.49677 2.00848 0
M  V30 1599 C 156.844 -0.910998 1.65367 0
M  V30 1600 O 156.201 -1.59696 0.883374 0
M  V30 1601 C 156.252 0.645308 3.55694 0
M  V30 1602 O 155.973 1.99764 3.89905 0
M  V30 1603 C 157.474 0.272326 4.42463 0
M  V30 1604 H 154.694 0.193462 0.642506 0
M  V30 1605 H 157.238 1.1723 1.67563 0
M  V30 1606 H 155.393 0.0173176 3.87396 0
M  V30 1607 H 155.807 2.00607 4.84621 0
M  V30 1608 H 157.281 0.427208 5.50344 0
M  V30 1609 H 157.758 -0.788587 4.32062 0
M  V30 1610 H 158.364 0.876054 4.1618 0
M  V30 1611 N 156.679 -1.44442 0.630414 0
M  V30 1612 C 158.095 -1.56832 0.295973 0
M  V30 1613 C 158.295 -1.61806 -1.20088 0
M  V30 1614 O 157.351 -1.5607 -1.9849 0
M  V30 1615 C 158.664 -2.84031 0.987264 0
M  V30 1616 C 160.212 -2.97742 0.96534 0
M  V30 1617 C 160.687 -4.27743 1.63708 0
M  V30 1618 N 162.178 -4.34555 1.60364 0
M  V30 1619 C 162.913 -5.33862 2.09234 0
M  V30 1620 N 162.409 -6.39578 2.66292 0
M  V30 1621 N 164.202 -5.25366 1.99867 0
M  V30 1622 H 156.353 -1.39457 1.60205 0
M  V30 1623 H 158.616 -0.668237 0.672431 0
M  V30 1624 H 158.322 -2.86338 2.04215 0
M  V30 1625 H 158.196 -3.73534 0.524588 0
M  V30 1626 H 160.583 -2.94989 -0.0810639 0
M  V30 1627 H 160.664 -2.09589 1.4665 0
M  V30 1628 H 160.308 -4.31255 2.68293 0
M  V30 1629 H 160.238 -5.14752 1.11076 0
M  V30 1630 H 162.729 -3.58772 1.18705 0
M  V30 1631 H 163.042 -7.11637 3.01317 0
M  V30 1632 H 161.387 -6.40265 2.70343 0
M  V30 1633 H 164.578 -4.41688 1.55013 0
M  V30 1634 H 164.751 -6.02606 2.38265 0
M  V30 1635 N 158.157 -0.370918 -1.53173 0
M  V30 1636 C 159.107 0.489588 -2.22681 0
M  V30 1637 C 160.091 1.04442 -1.22395 0
M  V30 1638 O 161.283 0.973578 -1.47819 0
M  V30 1639 C 158.412 1.626 -3.02351 0
M  V30 1640 C 157.498 1.08379 -4.10018 0
M  V30 1641 N 157.889 0.265004 -5.05105 0
M  V30 1642 C 156.187 1.35809 -4.2482 0
M  V30 1643 C 156.888 -0.0324755 -5.81691 0
M  V30 1644 N 155.864 0.566581 -5.40639 0
M  V30 1645 H 159.666 -0.142729 -2.93553 0
M  V30 1646 H 157.18 -0.179221 -1.61408 0
M  V30 1647 H 159.177 2.2547 -3.50669 0
M  V30 1648 H 157.837 2.26132 -2.33011 0
M  V30 1649 H 158.848 -0.0962352 -5.17811 0
M  V30 1650 H 155.525 1.9958 -3.66707 0
M  V30 1651 H 156.915 -0.69473 -6.68299 0
M  V30 1652 N 159.635 1.57281 -0.100228 0
M  V30 1653 C 160.565 2.17328 0.853857 0
M  V30 1654 C 161.546 1.10804 1.2906 0
M  V30 1655 O 162.731 1.38963 1.35657 0
M  V30 1656 C 159.861 2.75772 2.11109 0
M  V30 1657 C 158.815 3.87713 1.81279 0
M  V30 1658 C 158.141 4.32882 3.13874 0
M  V30 1659 C 159.441 5.10677 1.09574 0
M  V30 1660 H 161.135 2.97305 0.353545 0
M  V30 1661 H 158.681 1.43009 0.168612 0
M  V30 1662 H 160.634 3.16433 2.78296 0
M  V30 1663 H 159.358 1.93057 2.63432 0
M  V30 1664 H 158.017 3.476 1.16489 0
M  V30 1665 H 157.665 3.47051 3.64095 0
M  V30 1666 H 157.365 5.08358 2.94696 0
M  V30 1667 H 158.889 4.7618 3.82211 0
M  V30 1668 H 160.303 5.48474 1.66879 0
M  V30 1669 H 158.7 5.91615 1.00557 0
M  V30 1670 H 159.77 4.84835 0.0793299 0
M  V30 1671 N 161.113 -0.173488 1.56642 0
M  V30 1672 C 162.076 -1.19859 1.95362 0
M  V30 1673 C 163.076 -1.37296 0.83704 0
M  V30 1674 O 164.266 -1.34739 1.10413 0
M  V30 1675 C 161.398 -2.56405 2.24654 0
M  V30 1676 H 162.591 -0.867062 2.87092 0
M  V30 1677 H 160.144 -0.415853 1.50666 0
M  V30 1678 H 160.879 -2.94576 1.35631 0
M  V30 1679 H 160.664 -2.45115 3.06041 0
M  V30 1680 H 162.154 -3.30287 2.5554 0
M  V30 1681 N 162.591 -1.51276 -0.441967 0
M  V30 1682 C 163.837 -1.63958 -1.19355 0
M  V30 1683 C 164.17 -0.352543 -1.90973 0
M  V30 1684 O 163.445 0.647627 -1.83401 0
M  V30 1685 C 163.728 -2.83979 -2.21422 0
M  V30 1686 C 163.581 -4.22646 -1.53918 0
M  V30 1687 C 164.9 -2.99521 -3.22451 0
M  V30 1688 H 162.019 -0.596709 -0.432559 0
M  V30 1689 H 164.661 -1.83748 -0.483398 0
M  V30 1690 H 162.811 -2.67237 -2.81987 0
M  V30 1691 H 164.483 -4.51045 -0.967256 0
M  V30 1692 H 162.726 -4.25558 -0.841615 0
M  V30 1693 H 163.397 -5.02609 -2.28229 0
M  V30 1694 H 165.873 -3.14944 -2.71937 0
M  V30 1695 H 164.749 -3.85072 -3.91166 0
M  V30 1696 H 165.01 -2.11391 -3.88287 0
M  V30 1697 N 164.069 0.697108 -1.41344 0
M  V30 1698 C 164.999 1.82353 -1.45841 0
M  V30 1699 C 165.98 1.67115 -0.317247 0
M  V30 1700 O 167.165 1.86871 -0.528474 0
M  V30 1701 C 164.295 3.20476 -1.33838 0
M  V30 1702 C 163.249 3.50415 -2.4575 0
M  V30 1703 C 162.575 4.87878 -2.18813 0
M  V30 1704 C 163.875 3.49546 -3.88091 0
M  V30 1705 H 165.569 1.78846 -2.40113 0
M  V30 1706 H 163.115 0.859028 -1.15571 0
M  V30 1707 H 165.068 3.98988 -1.35596 0
M  V30 1708 H 163.792 3.24604 -0.360498 0
M  V30 1709 H 162.451 2.74253 -2.43271 0
M  V30 1710 H 162.099 4.8863 -1.19371 0
M  V30 1711 H 161.799 5.08875 -2.93803 0
M  V30 1712 H 163.323 5.68702 -2.22284 0
M  V30 1713 H 164.737 4.18066 -3.92293 0
M  V30 1714 H 163.134 3.82075 -4.62751 0
M  V30 1715 H 164.204 2.48552 -4.16353 0
M  V30 1716 N 165.547 1.27147 0.931209 0
M  V30 1717 C 166.495 1.09398 2.05268 0
M  V30 1718 C 167.489 0.0180591 1.6939 0
M  V30 1719 O 168.695 0.17551 1.79142 0
M  V30 1720 H 165.07 0.336986 0.672268 0
M  V30 1721 H 167.041 2.04416 2.17386 0
M  V30 1722 C 165.79 0.75424 3.39421 0
M  V30 1723 H 165.113 1.57404 3.67511 0
M  V30 1724 H 166.553 0.669903 4.18674 0
M  V30 1725 C 165.012 -0.541197 3.32525 0
M  V30 1726 O 165.542 -1.57664 3.69466 0
M  V30 1727 N 163.748 -0.535517 2.85623 0
M  V30 1728 H 163.295 0.307511 2.55758 0
M  V30 1729 H 163.253 -1.40236 2.81392 0
M  V30 1730 N 167.025 -1.13721 1.09112 0
M  V30 1731 C 168.273 -1.84559 0.823562 0
M  V30 1732 C 168.594 -1.83754 -0.652658 0
M  V30 1733 O 167.864 -1.29102 -1.47342 0
M  V30 1734 H 166.444 -0.683376 0.301673 0
M  V30 1735 H 169.106 -1.37771 1.37859 0
M  V30 1736 H 168.202 -2.8917 1.17419 0
M  V30 1737 N 168.503 -0.877838 -1.30888 0
M  V30 1738 C 169.466 -0.344265 -2.266 0
M  V30 1739 C 170.466 0.50922 -1.52524 0
M  V30 1740 O 171.656 0.317398 -1.71284 0
M  V30 1741 C 168.788 0.510198 -3.37061 0
M  V30 1742 H 169.981 -1.1893 -2.7531 0
M  V30 1743 H 167.534 -0.654088 -1.41956 0
M  V30 1744 H 168.269 1.37612 -2.93655 0
M  V30 1745 H 168.054 -0.101047 -3.9197 0
M  V30 1746 H 169.544 0.875537 -4.08319 0
M  V30 1747 N 169.982 1.44106 -0.638065 0
M  V30 1748 C 171.228 2.02277 -0.145546 0
M  V30 1749 C 171.561 1.50125 1.23191 0
M  V30 1750 O 170.836 0.688133 1.8192 0
M  V30 1751 C 171.119 3.59829 -0.139791 0
M  V30 1752 C 170.972 4.22247 -1.55008 0
M  V30 1753 C 172.291 4.36873 0.531966 0
M  V30 1754 H 169.41 0.734992 -0.0543632 0
M  V30 1755 H 172.052 1.71592 -0.815863 0
M  V30 1756 H 170.202 3.86102 0.431007 0
M  V30 1757 H 171.874 4.07057 -2.1703 0
M  V30 1758 H 170.117 3.79476 -2.10191 0
M  V30 1759 H 170.788 5.31284 -1.49804 0
M  V30 1760 H 173.264 4.16074 0.0464781 0
M  V30 1761 H 172.14 5.4657 0.505206 0
M  V30 1762 H 172.401 4.11995 1.60352 0
M  V30 1763 N 171.46 0.379036 1.52974 0
M  V30 1764 C 172.706 -0.206727 2.01744 0
M  V30 1765 C 173.039 -1.47314 1.26539 0
M  V30 1766 O 172.314 -1.91084 0.362903 0
M  V30 1767 C 172.597 -0.485066 3.56818 0
M  V30 1768 C 172.45 0.795919 4.42702 0
M  V30 1769 C 173.769 -1.28003 4.21074 0
M  V30 1770 H 170.888 -0.0736607 0.73331 0
M  V30 1771 H 173.53 0.506581 1.83122 0
M  V30 1772 H 171.68 -1.09272 3.72816 0
M  V30 1773 H 173.352 1.43307 4.38476 0
M  V30 1774 H 171.595 1.41344 4.10127 0
M  V30 1775 H 172.266 0.555947 5.49193 0
M  V30 1776 H 174.742 -0.765867 4.08991 0
M  V30 1777 H 173.618 -1.44352 5.29579 0
M  V30 1778 H 173.879 -2.29236 3.78026 0
M  V30 1779 N 172.938 -1.57226 0.108567 0
M  V30 1780 C 174.163 -1.99604 -0.563303 0
M  V30 1781 C 174.588 -0.987563 -1.6009 0
M  V30 1782 O 173.946 0.0421687 -1.81251 0
M  V30 1783 C 173.994 -3.40902 -1.17552 0
M  V30 1784 O 173.098 -3.42896 -2.2912 0
M  V30 1785 H 172.439 -0.648704 -0.1417 0
M  V30 1786 H 174.969 -2.03679 0.193961 0
M  V30 1787 H 174.979 -3.78886 -1.51357 0
M  V30 1788 H 173.654 -4.1382 -0.415445 0
M  V30 1789 H 172.231 -3.1672 -1.96832 0
M  V30 1790 N 174.416 0.165178 -1.56732 0
M  V30 1791 C 175.644 0.896218 -1.86482 0
M  V30 1792 C 176.059 1.75555 -0.694675 0
M  V30 1793 O 175.416 1.79379 0.33607 0
M  V30 1794 C 175.467 1.76792 -3.1532 0
M  V30 1795 O 175.188 0.943239 -4.27825 0
M  V30 1796 C 176.689 2.6081 -3.58459 0
M  V30 1797 H 173.909 0.260064 -0.618553 0
M  V30 1798 H 176.453 0.163428 -2.03846 0
M  V30 1799 H 174.608 2.45398 -2.99764 0
M  V30 1800 H 175.022 1.53998 -5.01383 0
M  V30 1801 H 176.496 3.17579 -4.51495 0
M  V30 1802 H 176.973 3.35977 -2.82872 0
M  V30 1803 H 177.579 1.97526 -3.76648 0
M  V30 1804 N 175.894 1.51508 0.433938 0
M  V30 1805 C 177.305 1.56784 1.01369 0
M  V30 1806 C 177.656 0.393349 1.92217 0
M  V30 1807 O 176.781 -0.489441 2.10792 0
M  V30 1808 C 177.376 2.84144 1.8452 0
M  V30 1809 C 175.935 2.9198 2.37539 0
M  V30 1810 C 175.082 2.51482 1.16843 0
M  V30 1811 H 178.033 1.57236 0.215081 0
M  V30 1812 H 178.054 2.68098 2.70007 0
M  V30 1813 H 177.566 3.69607 1.18373 0
M  V30 1814 H 175.667 2.10955 3.0713 0
M  V30 1815 H 175.78 3.95704 2.70103 0
M  V30 1816 H 174.144 2.04758 1.51481 0
M  V30 1817 H 174.927 3.39293 0.523015 0
M  V30 1818 N 177.372 -0.689602 1.41712 0
M  V30 1819 C 178.322 -1.79571 1.40493 0
M  V30 1820 C 179.306 -1.58473 0.278409 0
M  V30 1821 O 180.498 -1.69204 0.519532 0
M  V30 1822 C 177.627 -3.17923 1.29536 0
M  V30 1823 C 176.713 -3.44695 2.47075 0
M  V30 1824 N 177.104 -3.42132 3.72531 0
M  V30 1825 C 175.402 -3.75269 2.41017 0
M  V30 1826 C 176.103 -3.67976 4.50521 0
M  V30 1827 N 175.079 -3.88014 3.80718 0
M  V30 1828 H 178.881 -1.75961 2.35404 0
M  V30 1829 H 176.395 -0.889839 1.35851 0
M  V30 1830 H 178.392 -3.97167 1.26745 0
M  V30 1831 H 177.052 -3.22741 0.356153 0
M  V30 1832 H 178.063 -3.22375 4.05333 0
M  V30 1833 H 174.74 -3.87421 1.55599 0
M  V30 1834 H 176.13 -3.7208 5.59469 0
M  V30 1835 N 178.85 -1.27639 -0.924453 0
M  V30 1836 C 180.08 -1.16819 -1.70402 0
M  V30 1837 C 180.488 0.277191 -1.87158 0
M  V30 1838 O 179.831 1.20025 -1.39067 0
M  V30 1839 C 179.893 -1.78305 -3.12166 0
M  V30 1840 C 179.557 -3.27502 -3.18734 0
M  V30 1841 C 180.554 -4.2409 -3.00738 0
M  V30 1842 C 178.239 -3.68269 -3.4159 0
M  V30 1843 C 180.233 -5.59422 -3.05492 0
M  V30 1844 C 177.92 -5.0373 -3.45977 0
M  V30 1845 C 178.918 -5.99116 -3.27946 0
M  V30 1846 O 178.606 -7.32108 -3.32074 0
M  V30 1847 H 178.338 -0.406931 -0.539799 0
M  V30 1848 H 180.892 -1.69078 -1.16626 0
M  V30 1849 H 179.122 -1.20528 -3.67437 0
M  V30 1850 H 180.811 -1.62154 -3.72103 0
M  V30 1851 H 181.577 -3.93931 -2.82919 0
M  V30 1852 H 177.456 -2.94496 -3.54673 0
M  V30 1853 H 181 -6.33852 -2.91337 0
M  V30 1854 H 176.897 -5.33543 -3.63321 0
M  V30 1855 H 177.665 -7.40598 -3.48507 0
M  V30 1856 N 180.328 1.1314 -1.09713 0
M  V30 1857 C 181.553 1.88862 -0.857081 0
M  V30 1858 C 181.978 1.78729 0.586304 0
M  V30 1859 O 181.336 1.13692 1.41222 0
M  V30 1860 C 181.384 3.36325 -1.30069 0
M  V30 1861 O 180.488 4.09815 -0.461007 0
M  V30 1862 H 179.829 0.587108 -0.310162 0
M  V30 1863 H 182.359 1.43129 -1.46203 0
M  V30 1864 H 182.369 3.87157 -1.28738 0
M  V30 1865 H 181.044 3.43017 -2.35185 0
M  V30 1866 H 179.621 3.68986 -0.538888 0
M  V30 1867 N 181.806 0.884767 1.30421 0
M  V30 1868 C 183.217 0.553656 1.78302 0
M  V30 1869 C 183.568 -0.930153 1.7275 0
M  V30 1870 O 182.693 -1.72681 1.30423 0
M  V30 1871 C 183.288 0.998234 3.2376 0
M  V30 1872 C 181.847 0.71854 3.69478 0
M  V30 1873 C 180.994 1.18132 2.50879 0
M  V30 1874 H 183.945 1.06901 1.17294 0
M  V30 1875 H 183.966 0.327118 3.79091 0
M  V30 1876 H 183.478 2.0782 3.27769 0
M  V30 1877 H 181.579 -0.349444 3.70958 0
M  V30 1878 H 181.692 1.30595 4.60958 0
M  V30 1879 H 180.056 0.600669 2.47516 0
M  V30 1880 H 180.839 2.26902 2.57624 0
M  V30 1881 N 183.284 -1.43765 0.645699 0
M  V30 1882 C 184.532 -2.01499 0.155731 0
M  V30 1883 C 184.853 -1.51151 -1.232 0
M  V30 1884 O 184.123 -0.721044 -1.82148 0
M  V30 1885 H 182.703 -0.745003 0.0545817 0
M  V30 1886 H 185.365 -1.76075 0.835677 0
M  V30 1887 H 184.461 -3.1181 0.134577 0
M  V30 1888 N 184.763 -0.387143 -1.52771 0
M  V30 1889 C 185.693 0.440551 -2.29306 0
M  V30 1890 C 186.674 1.06535 -1.32606 0
M  V30 1891 O 187.859 1.07853 -1.61497 0
M  V30 1892 C 184.989 1.56919 -3.09829 0
M  V30 1893 C 183.943 1.07054 -4.14395 0
M  V30 1894 C 183.269 2.29109 -4.83129 0
M  V30 1895 C 184.569 0.140015 -5.22112 0
M  V30 1896 H 186.263 -0.198026 -2.98744 0
M  V30 1897 H 183.809 -0.09668 -1.43675 0
M  V30 1898 H 185.762 2.15503 -3.62128 0
M  V30 1899 H 184.486 2.23532 -2.3812 0
M  V30 1900 H 183.145 0.507247 -3.63074 0
M  V30 1901 H 182.793 2.94227 -4.0797 0
M  V30 1902 H 182.493 1.96406 -5.53804 0
M  V30 1903 H 184.017 2.88339 -5.38231 0
M  V30 1904 H 185.431 0.633978 -5.69784 0
M  V30 1905 H 183.828 -0.0971485 -6.00021 0
M  V30 1906 H 184.898 -0.811711 -4.78058 0
M  V30 1907 N 186.241 1.57166 -0.116904 0
M  V30 1908 C 187.171 2.18222 0.830759 0
M  V30 1909 C 188.152 1.12167 1.27877 0
M  V30 1910 O 189.337 1.40394 1.34176 0
M  V30 1911 C 186.467 2.77996 2.08172 0
M  V30 1912 C 185.421 3.89614 1.77157 0
M  V30 1913 C 184.747 4.36187 3.09265 0
M  V30 1914 C 186.047 5.1181 1.04151 0
M  V30 1915 H 187.741 2.97664 0.321992 0
M  V30 1916 H 185.287 1.4318 0.153434 0
M  V30 1917 H 187.24 3.19366 2.74924 0
M  V30 1918 H 185.964 1.9584 2.6137 0
M  V30 1919 H 184.623 3.48816 1.12796 0
M  V30 1920 H 184.271 3.50893 3.60393 0
M  V30 1921 H 183.971 5.11455 2.89288 0
M  V30 1922 H 185.495 4.80207 3.77139 0
M  V30 1923 H 186.909 5.50214 1.61052 0
M  V30 1924 H 185.306 5.92648 0.942762 0
M  V30 1925 H 186.376 4.84892 0.0279022 0
M  V30 1926 N 187.719 -0.156864 1.56817 0
M  V30 1927 C 188.968 -0.869504 1.81996 0
M  V30 1928 C 189.281 -1.82777 0.696545 0
M  V30 1929 O 190.487 -2.58384 0.833658 0
M  V30 1930 C 188.943 -1.59679 3.22538 0
M  V30 1931 C 188.551 -0.681431 4.42787 0
M  V30 1932 C 190.295 -2.2968 3.56997 0
M  V30 1933 C 188.202 -1.40978 5.74351 0
M  V30 1934 H 187.132 -0.328438 0.678708 0
M  V30 1935 H 189.783 -0.1223 1.83092 0
M  V30 1936 H 188.165 -2.38927 3.158 0
M  V30 1937 H 189.339 0.0751166 4.60739 0
M  V30 1938 H 187.654 -0.0903431 4.16302 0
M  V30 1939 H 190.251 -2.84794 4.52544 0
M  V30 1940 H 190.594 -3.05707 2.82576 0
M  V30 1941 H 191.127 -1.57361 3.65352 0
M  V30 1942 H 187.866 -0.691561 6.51842 0
M  V30 1943 H 187.386 -2.13929 5.60352 0
M  V30 1944 H 189.065 -1.95337 6.16808 0
M  V30 1945 N 189.197 -1.51736 -0.425897 0
M  V30 1946 C 190.107 -1.76738 -1.54275 0
M  V30 1947 C 191.123 -0.65211 -1.61318 0
M  V30 1948 O 192.299 -0.935654 -1.78346 0
M  V30 1949 C 189.364 -1.89755 -2.90162 0
M  V30 1950 C 188.425 -3.13633 -2.93143 0
M  V30 1951 C 187.658 -3.2602 -4.22548 0
M  V30 1952 O 187.881 -2.44067 -5.15546 0
M  V30 1953 O 186.815 -4.19071 -4.32046 0
M  V30 1954 H 190.641 -2.71502 -1.36089 0
M  V30 1955 H 188.226 -1.36376 -0.610069 0
M  V30 1956 H 190.108 -2.00236 -3.70788 0
M  V30 1957 H 188.783 -0.981785 -3.08452 0
M  V30 1958 H 187.69 -3.08622 -2.11431 0
M  V30 1959 H 189.023 -4.04936 -2.798 0
M  V30 1960 N 190.675 0.682077 -1.42076 0
M  V30 1961 C 191.622 1.79578 -1.44984 0
M  V30 1962 C 192.592 1.6332 -0.302614 0
M  V30 1963 O 193.777 1.83978 -0.505633 0
M  V30 1964 C 190.917 3.1756 -1.35091 0
M  V30 1965 C 190.03 3.45156 -2.59791 0
M  V30 1966 C 189.165 4.72826 -2.42093 0
M  V30 1967 C 188.204 4.93433 -3.62202 0
M  V30 1968 N 187.341 6.12338 -3.43491 0
M  V30 1969 H 192.181 1.76427 -2.40161 0
M  V30 1970 H 189.718 0.861376 -1.19242 0
M  V30 1971 H 191.676 3.97287 -1.27354 0
M  V30 1972 H 190.306 3.19854 -0.435133 0
M  V30 1973 H 189.358 2.59736 -2.77923 0
M  V30 1974 H 190.67 3.5628 -3.49094 0
M  V30 1975 H 189.824 5.60631 -2.319 0
M  V30 1976 H 188.563 4.63973 -1.50268 0
M  V30 1977 H 187.568 4.04073 -3.72834 0
M  V30 1978 H 188.793 5.04136 -4.54998 0
M  V30 1979 H 186.739 6.04672 -2.54377 0
M  V30 1980 H 186.656 6.2429 -4.26377 0
M  V30 1981 H 187.924 7.02841 -3.37097 0
M  V30 1982 N 192.153 1.28127 0.917671 0
M  V30 1983 C 193.378 1.18007 1.70555 0
M  V30 1984 C 193.803 -0.258257 1.86319 0
M  V30 1985 O 193.161 -1.1869 1.37049 0
M  V30 1986 C 193.209 1.87948 3.07746 0
M  V30 1987 O 192.313 1.18427 3.9503 0
M  V30 1988 H 191.654 0.409867 0.522403 0
M  V30 1989 H 194.184 1.69379 1.1477 0
M  V30 1990 H 194.194 1.95701 3.58001 0
M  V30 1991 H 192.869 2.92573 2.95591 0
M  V30 1992 H 191.446 1.18811 3.53466 0
M  V30 1993 N 193.631 -1.12557 1.10312 0
M  V30 1994 C 194.908 -1.80363 0.756878 0
M  V30 1995 C 195.288 -1.97067 -0.756824 0
M  V30 1996 O 194.636 -1.54601 -1.68259 0
M  V30 1997 C 194.846 -3.14812 1.50647 0
M  V30 1998 C 196.194 -3.90029 1.67817 0
M  V30 1999 O 197.218 -3.24464 1.46974 0
M  V30 2000 O 196.077 -5.07652 2.02365 0
M  V30 2001 H 193.171 -0.780667 0.272926 0
M  V30 2002 H 195.717 -1.19404 1.20586 0
M  V30 2003 H 194.489 -2.97936 2.53672 0
M  V30 2004 H 194.112 -3.83478 1.05026 0
M  V30 2005 N 195.109 -0.891671 -1.2995 0
M  V30 2006 C 196.072 -0.36828 -2.26222 0
M  V30 2007 C 197.072 0.493014 -1.53056 0
M  V30 2008 O 198.262 0.299213 -1.71611 0
M  V30 2009 C 195.394 0.47442 -3.37583 0
M  V30 2010 H 196.587 -1.21844 -2.74033 0
M  V30 2011 H 194.14 -0.669107 -1.41254 0
M  V30 2012 H 194.875 1.34489 -2.95099 0
M  V30 2013 H 194.66 -0.142615 -3.91841 0
M  V30 2014 H 196.15 0.83218 -4.09224 0
M  V30 2015 N 196.587 1.43421 -0.653314 0
M  V30 2016 C 197.817 2.05864 -0.174238 0
M  V30 2017 C 198.225 1.49052 1.16534 0
M  V30 2018 O 197.568 0.616481 1.73047 0
M  V30 2019 C 197.63 3.59499 -0.00875873 0
M  V30 2020 C 197.294 4.38893 -1.27364 0
M  V30 2021 C 198.291 4.70947 -2.20239 0
M  V30 2022 C 195.976 4.789 -1.51525 0
M  V30 2023 C 197.97 5.41916 -3.35568 0
M  V30 2024 C 195.657 5.49614 -2.67147 0
M  V30 2025 C 196.655 5.81044 -3.58994 0
M  V30 2026 O 196.343 6.50313 -4.72597 0
M  V30 2027 H 196.075 0.670345 -0.0872549 0
M  V30 2028 H 198.629 1.84913 -0.894226 0
M  V30 2029 H 196.859 3.79025 0.7666 0
M  V30 2030 H 198.548 4.0364 0.427687 0
M  V30 2031 H 199.314 4.40558 -2.02815 0
M  V30 2032 H 195.193 4.53843 -0.809158 0
M  V30 2033 H 198.737 5.66365 -4.07279 0
M  V30 2034 H 194.634 5.79419 -2.84505 0
M  V30 2035 H 195.402 6.68795 -4.71864 0
M  V30 2036 N 198.065 0.39524 1.52563 0
M  V30 2037 C 199.293 -0.184943 2.06072 0
M  V30 2038 C 199.708 -1.40021 1.26647 0
M  V30 2039 O 199.065 -1.79767 0.314672 0
M  V30 2040 C 199.116 -0.549179 3.57304 0
M  V30 2041 O 198.837 0.617813 4.33722 0
M  V30 2042 C 200.338 -1.18459 4.2718 0
M  V30 2043 H 197.558 -0.0265025 0.670476 0
M  V30 2044 H 200.102 0.562184 1.96621 0
M  V30 2045 H 198.257 -1.2462 3.66809 0
M  V30 2046 H 198.671 0.317091 5.23541 0
M  V30 2047 H 200.145 -1.38976 5.34219 0
M  V30 2048 H 200.622 -2.15368 3.82771 0
M  V30 2049 H 201.228 -0.528163 4.22008 0
M  V30 2050 N 199.544 -1.57102 0.125237 0
M  V30 2051 C 200.491 -2.15641 -0.822655 0
M  V30 2052 C 201.461 -1.08313 -1.25927 0
M  V30 2053 O 202.646 -1.36251 -1.33567 0
M  V30 2054 C 199.786 -2.76504 -2.06494 0
M  V30 2055 C 198.899 -3.98158 -1.67612 0
M  V30 2056 C 198.034 -4.47088 -2.86854 0
M  V30 2057 C 197.073 -5.6126 -2.44242 0
M  V30 2058 N 196.21 -6.04905 -3.56419 0
M  V30 2059 H 201.05 -2.96313 -0.316625 0
M  V30 2060 H 198.587 -1.46388 -0.144588 0
M  V30 2061 H 200.545 -3.09925 -2.79289 0
M  V30 2062 H 199.175 -1.98512 -2.54545 0
M  V30 2063 H 198.227 -3.70858 -0.846661 0
M  V30 2064 H 199.539 -4.80934 -1.32301 0
M  V30 2065 H 198.693 -4.82451 -3.67867 0
M  V30 2066 H 197.432 -3.63275 -3.25396 0
M  V30 2067 H 196.437 -5.25495 -1.61663 0
M  V30 2068 H 197.662 -6.46843 -2.0681 0
M  V30 2069 H 195.608 -5.24032 -3.94623 0
M  V30 2070 H 195.525 -6.82552 -3.25051 0
M  V30 2071 H 196.793 -6.44907 -4.37853 0
M  V30 2072 N 201.022 0.148545 -1.56898 0
M  V30 2073 C 202.268 0.862694 -1.83536 0
M  V30 2074 C 202.601 1.80889 -0.706604 0
M  V30 2075 O 201.876 1.92328 0.289885 0
M  V30 2076 C 202.159 1.63853 -3.20662 0
M  V30 2077 C 202.012 0.713925 -4.44098 0
M  V30 2078 C 203.331 2.60133 -3.54991 0
M  V30 2079 H 200.45 0.312179 -0.667618 0
M  V30 2080 H 203.092 0.127953 -1.89569 0
M  V30 2081 H 201.242 2.26489 -3.1565 0
M  V30 2082 H 202.914 0.098686 -4.61194 0
M  V30 2083 H 201.157 0.0234019 -4.33794 0
M  V30 2084 H 201.828 1.29278 -5.36648 0
M  V30 2085 H 204.304 2.07616 -3.60603 0
M  V30 2086 H 203.18 3.11468 -4.51972 0
M  V30 2087 H 203.441 3.41417 -2.80868 0
M  V30 2088 N 202.5 1.5196 0.417844 0
M  V30 2089 C 203.73 1.69181 1.18581 0
M  V30 2090 C 204.138 0.397104 1.84986 0
M  V30 2091 O 203.481 -0.636011 1.72339 0
M  V30 2092 C 203.543 2.76497 2.29759 0
M  V30 2093 C 203.207 4.18514 1.83563 0
M  V30 2094 C 204.204 5.02648 1.32821 0
M  V30 2095 C 201.889 4.64708 1.90661 0
M  V30 2096 C 203.883 6.31044 0.897894 0
M  V30 2097 C 201.57 5.93096 1.47241 0
M  V30 2098 C 202.568 6.76093 0.968891 0
M  V30 2099 O 202.256 8.02078 0.540924 0
M  V30 2100 H 201.988 0.570457 0.362705 0
M  V30 2101 H 204.542 1.99249 0.498885 0
M  V30 2102 H 202.772 2.41786 3.01789 0
M  V30 2103 H 204.461 2.82403 2.91553 0
M  V30 2104 H 205.227 4.68154 1.26716 0
M  V30 2105 H 201.106 4.00216 2.28797 0
M  V30 2106 H 204.65 6.95776 0.504192 0
M  V30 2107 H 200.547 6.271 1.53022 0
M  V30 2108 H 201.315 8.15794 0.66502 0
M  V30 2109 N 203.978 -0.674533 1.42435 0
M  V30 2110 C 205.203 -1.46784 1.46524 0
M  V30 2111 C 205.628 -1.87938 0.078066 0
M  V30 2112 O 204.986 -1.56014 -0.92354 0
M  V30 2113 C 205.034 -2.69307 2.39805 0
M  V30 2114 O 204.138 -3.67587 1.86959 0
M  V30 2115 H 203.479 -0.440959 0.496439 0
M  V30 2116 H 206.009 -0.827326 1.87127 0
M  V30 2117 H 206.019 -3.17374 2.56393 0
M  V30 2118 H 204.694 -2.38692 3.40586 0
M  V30 2119 H 203.271 -3.2662 1.79927 0
M  V30 2120 N 205.456 -1.28612 -0.910864 0
M  V30 2121 C 206.872 -1.06381 -1.18976 0
M  V30 2122 C 207.072 0.191998 -2.00583 0
M  V30 2123 O 206.128 0.892869 -2.36187 0
M  V30 2124 C 207.441 -2.31295 -1.92154 0
M  V30 2125 C 208.989 -2.36503 -2.05025 0
M  V30 2126 C 209.464 -3.61191 -2.81612 0
M  V30 2127 N 210.955 -3.61847 -2.89172 0
M  V30 2128 C 211.69 -4.55004 -3.4894 0
M  V30 2129 N 211.186 -5.58482 -4.09963 0
M  V30 2130 N 212.979 -4.42594 -3.46506 0
M  V30 2131 H 205.13 -2.09221 -0.366094 0
M  V30 2132 H 207.393 -0.921003 -0.224629 0
M  V30 2133 H 207.099 -3.228 -1.39618 0
M  V30 2134 H 206.973 -2.37934 -2.9269 0
M  V30 2135 H 209.36 -1.45494 -2.5674 0
M  V30 2136 H 209.441 -2.33857 -1.03657 0
M  V30 2137 H 209.085 -4.52545 -2.30576 0
M  V30 2138 H 209.015 -3.61092 -3.83302 0
M  V30 2139 H 211.506 -2.87022 -2.45819 0
M  V30 2140 H 211.819 -6.25704 -4.53557 0
M  V30 2141 H 210.164 -5.62305 -4.08459 0
M  V30 2142 H 213.355 -3.60953 -2.98045 0
M  V30 2143 H 213.528 -5.15381 -3.92793 0
M  V30 2144 N 206.934 1.1197 -1.10907 0
M  V30 2145 C 207.897 2.16031 -0.765707 0
M  V30 2146 C 208.897 1.59393 0.212235 0
M  V30 2147 O 210.087 1.74196 -0.0115441 0
M  V30 2148 C 207.219 3.40632 -0.135053 0
M  V30 2149 H 208.412 2.47919 -1.68748 0
M  V30 2150 H 205.965 1.27061 -0.910226 0
M  V30 2151 H 206.7 3.14348 0.797218 0
M  V30 2152 H 206.485 3.8302 -0.838937 0
M  V30 2153 H 207.975 4.17505 0.0892469 0
M  V30 2154 N 208.412 0.89855 1.29475 0
M  V30 2155 C 209.66 0.522847 1.9522 0
M  V30 2156 C 209.981 -0.93371 1.71192 0
M  V30 2157 O 209.251 -1.65823 1.04305 0
M  V30 2158 H 207.831 0.190366 0.722336 0
M  V30 2159 H 210.493 1.14459 1.5775 0
M  V30 2160 H 209.589 0.704476 3.04045 0
M  V30 2161 N 209.89 -1.43072 0.660911 0
M  V30 2162 C 210.82 -2.33497 -0.0122829 0
M  V30 2163 C 211.801 -1.49903 -0.803925 0
M  V30 2164 O 212.986 -1.78546 -0.763864 0
M  V30 2165 C 210.116 -3.33363 -0.973994 0
M  V30 2166 C 209.07 -4.27003 -0.291928 0
M  V30 2167 C 208.396 -5.16967 -1.36562 0
M  V30 2168 C 209.696 -5.15816 0.820462 0
M  V30 2169 H 211.39 -2.90038 0.742873 0
M  V30 2170 H 208.936 -1.39461 0.358688 0
M  V30 2171 H 210.889 -3.95524 -1.45392 0
M  V30 2172 H 209.613 -2.75095 -1.7604 0
M  V30 2173 H 208.272 -3.66217 0.167623 0
M  V30 2174 H 207.92 -4.55034 -2.14366 0
M  V30 2175 H 207.62 -5.80441 -0.914454 0
M  V30 2176 H 209.144 -5.82003 -1.84675 0
M  V30 2177 H 210.558 -5.71742 0.422366 0
M  V30 2178 H 208.955 -5.8805 1.19656 0
M  V30 2179 H 210.025 -4.55045 1.67518 0
M  V30 2180 N 211.368 -0.403325 -1.52352 0
M  V30 2181 C 212.596 0.174012 -2.06167 0
M  V30 2182 C 213.011 1.39347 -1.27388 0
M  V30 2183 O 212.368 1.79597 -0.324201 0
M  V30 2184 C 212.419 0.530223 -3.5759 0
M  V30 2185 O 212.14 -0.640806 -4.33388 0
M  V30 2186 C 213.641 1.16192 -4.27802 0
M  V30 2187 H 210.861 0.0229464 -0.670608 0
M  V30 2188 H 213.405 -0.572604 -1.9632 0
M  V30 2189 H 211.56 1.22673 -3.67464 0
M  V30 2190 H 211.974 -0.344851 -5.23365 0
M  V30 2191 H 213.448 1.36141 -5.34948 0
M  V30 2192 H 213.925 2.13335 -3.83907 0
M  V30 2193 H 214.531 0.505775 -4.22282 0
M  V30 2194 N 212.846 1.57033 -0.133567 0
M  V30 2195 C 213.776 2.1909 0.807567 0
M  V30 2196 C 214.757 1.13517 1.26681 0
M  V30 2197 O 215.942 1.41809 1.32679 0
M  V30 2198 C 213.072 2.80188 2.05212 0
M  V30 2199 C 212.026 3.91471 1.73015 0
M  V30 2200 C 211.352 4.39443 3.04622 0
M  V30 2201 C 212.652 5.12886 0.987168 0
M  V30 2202 H 214.346 2.97988 0.290403 0
M  V30 2203 H 211.892 1.43335 0.138239 0
M  V30 2204 H 213.845 3.22264 2.71521 0
M  V30 2205 H 212.569 1.98601 2.59278 0
M  V30 2206 H 211.228 3.49993 1.0909 0
M  V30 2207 H 210.876 3.54695 3.56651 0
M  V30 2208 H 210.576 5.14495 2.83847 0
M  V30 2209 H 212.1 4.8418 3.72024 0
M  V30 2210 H 213.514 5.51891 1.55208 0
M  V30 2211 H 211.911 5.93615 0.87985 0
M  V30 2212 H 212.981 4.84894 -0.0235286 0
M  V30 2213 N 214.325 -0.140222 1.56975 0
M  V30 2214 C 215.258 -1.20266 1.93936 0
M  V30 2215 C 216.236 -1.41212 0.806099 0
M  V30 2216 O 217.42 -1.55713 1.06234 0
M  V30 2217 C 214.547 -2.56037 2.21726 0
M  V30 2218 C 213.593 -2.51646 3.44349 0
M  V30 2219 S 214.426 -1.97678 4.97678 0
M  V30 2220 C 215.582 -3.35165 5.28597 0
M  V30 2221 H 215.815 -0.887358 2.83749 0
M  V30 2222 H 213.348 -0.346119 1.50471 0
M  V30 2223 H 215.306 -3.34167 2.38416 0
M  V30 2224 H 213.967 -2.84755 1.32566 0
M  V30 2225 H 213.16 -3.51608 3.61092 0
M  V30 2226 H 212.762 -1.81628 3.26936 0
M  V30 2227 H 215.054 -4.31302 5.2248 0
M  V30 2228 H 215.997 -3.23269 6.30002 0
M  V30 2229 H 216.405 -3.32614 4.56101 0
M  V30 2230 N 215.803 -1.52179 -0.40978 0
M  V30 2231 C 217.049 -1.67408 -1.15525 0
M  V30 2232 C 217.404 -0.398746 -1.88223 0
M  V30 2233 O 216.697 0.60678 -1.81738 0
M  V30 2234 C 216.891 -2.83428 -2.17723 0
M  V30 2235 C 216.72 -4.22121 -1.55061 0
M  V30 2236 C 215.49 -4.87657 -1.3236 0
M  V30 2237 C 217.688 -5.04248 -1.01185 0
M  V30 2238 N 215.67 -6.10387 -0.655834 0
M  V30 2239 C 217.041 -6.18209 -0.470963 0
M  V30 2240 C 219.096 -4.89583 -0.906252 0
M  V30 2241 C 217.799 -7.1911 0.165172 0
M  V30 2242 C 219.825 -5.90718 -0.28397 0
M  V30 2243 C 219.187 -7.03969 0.246243 0
M  V30 2244 H 215.286 -0.666251 -0.409431 0
M  V30 2245 H 217.87 -1.89482 -0.447729 0
M  V30 2246 H 216.041 -2.6297 -2.85834 0
M  V30 2247 H 217.773 -2.87697 -2.84627 0
M  V30 2248 H 214.528 -4.46007 -1.59294 0
M  V30 2249 H 214.952 -6.76153 -0.338596 0
M  V30 2250 H 219.594 -4.02253 -1.302 0
M  V30 2251 H 217.312 -8.06066 0.572986 0
M  V30 2252 H 220.898 -5.81443 -0.203792 0
M  V30 2253 H 219.778 -7.80886 0.720173 0
M  V30 2254 N 217.281 0.66697 -1.42791 0
M  V30 2255 C 218.229 1.80157 -1.47127 0
M  V30 2256 C 219.223 1.65825 -0.346199 0
M  V30 2257 O 220.429 1.72338 -0.519572 0
M  V30 2258 H 216.804 0.594158 -0.460956 0
M  V30 2259 H 218.775 1.73619 -2.42692 0
M  V30 2260 C 217.524 3.18351 -1.39813 0
M  V30 2261 H 216.847 3.3001 -2.25684 0
M  V30 2262 H 218.287 3.97736 -1.46908 0
M  V30 2263 C 216.746 3.36707 -0.11391 0
M  V30 2264 O 217.276 3.93027 0.830241 0
M  V30 2265 N 215.482 2.90586 -0.0285295 0
M  V30 2266 H 215.029 2.4494 -0.79764 0
M  V30 2267 H 214.987 3.03245 0.830063 0
M  V30 2268 N 218.759 1.29093 0.90403 0
M  V30 2269 C 220.175 1.07011 1.1841 0
M  V30 2270 C 220.375 -0.181358 2.00682 0
M  V30 2271 O 219.431 -0.880331 2.36657 0
M  V30 2272 C 220.744 2.32311 1.90924 0
M  V30 2273 C 222.292 2.37587 2.03768 0
M  V30 2274 C 222.767 3.62679 2.79693 0
M  V30 2275 N 224.258 3.63376 2.87249 0
M  V30 2276 C 224.993 4.56848 3.46522 0
M  V30 2277 N 224.489 5.60648 4.06996 0
M  V30 2278 N 226.282 4.44426 3.44154 0
M  V30 2279 H 218.433 2.09412 0.354993 0
M  V30 2280 H 220.696 0.922181 0.219742 0
M  V30 2281 H 220.402 3.23536 1.37905 0
M  V30 2282 H 220.276 2.39483 2.91424 0
M  V30 2283 H 222.663 1.46853 2.55965 0
M  V30 2284 H 222.744 2.34403 1.02415 0
M  V30 2285 H 222.388 4.53762 2.28173 0
M  V30 2286 H 222.318 3.63119 3.81381 0
M  V30 2287 H 224.809 2.88321 2.44293 0
M  V30 2288 H 225.122 6.28101 4.50232 0
M  V30 2289 H 223.467 5.64463 4.05471 0
M  V30 2290 H 226.658 3.62529 2.96126 0
M  V30 2291 H 226.831 5.17457 3.90054 0
M  V30 2292 N 220.237 -1.11381 1.11499 0
M  V30 2293 C 221.147 -2.21019 0.786628 0
M  V30 2294 C 222.163 -1.72597 -0.220507 0
M  V30 2295 O 223.339 -2.01321 -0.0565251 0
M  V30 2296 C 220.404 -3.459 0.235333 0
M  V30 2297 C 219.465 -4.09107 1.30115 0
M  V30 2298 C 218.698 -5.28027 0.776068 0
M  V30 2299 O 218.921 -5.6904 -0.393661 0
M  V30 2300 O 217.855 -5.81835 1.54114 0
M  V30 2301 H 221.681 -2.51521 1.70209 0
M  V30 2302 H 219.266 -1.19928 0.890928 0
M  V30 2303 H 221.148 -4.21346 -0.067715 0
M  V30 2304 H 219.823 -3.17049 -0.652828 0
M  V30 2305 H 218.73 -3.35391 1.65722 0
M  V30 2306 H 220.063 -4.42139 2.16273 0
M  V30 2307 N 221.715 -0.905404 -1.28997 0
M  V30 2308 C 222.992 -0.453513 -1.9027 0
M  V30 2309 C 223.372 1.06721 -1.82137 0
M  V30 2310 O 222.72 1.91159 -1.25182 0
M  V30 2311 C 222.93 -0.974494 -3.35119 0
M  V30 2312 C 224.278 -1.0216 -4.12127 0
M  V30 2313 O 225.302 -0.922557 -3.44046 0
M  V30 2314 O 224.161 -1.17121 -5.33802 0
M  V30 2315 H 221.255 -0.142347 -0.814657 0
M  V30 2316 H 223.801 -0.995642 -1.37423 0
M  V30 2317 H 222.573 -2.01848 -3.35221 0
M  V30 2318 H 222.196 -0.412706 -3.95452 0
M  V30 2319 N 223.193 1.4272 -0.668489 0
M  V30 2320 C 224.156 2.292 0.00448567 0
M  V30 2321 C 225.156 1.43001 0.735339 0
M  V30 2322 O 226.346 1.64461 0.57429 0
M  V30 2323 C 223.478 3.25375 1.01705 0
M  V30 2324 H 224.671 2.90199 -0.756608 0
M  V30 2325 H 222.224 1.50254 -0.430506 0
M  V30 2326 H 222.959 2.69301 1.80686 0
M  V30 2327 H 222.744 3.88944 0.496463 0
M  V30 2328 H 224.234 3.90245 1.48655 0
M  V30 2329 N 224.671 0.411399 1.52136 0
M  V30 2330 C 225.601 -0.404015 2.29978 0
M  V30 2331 C 226.582 -1.04412 1.34284 0
M  V30 2332 O 227.767 -1.0527 1.63192 0
M  V30 2333 C 224.897 -1.5197 3.12286 0
M  V30 2334 C 223.851 -1.00448 4.16046 0
M  V30 2335 C 223.177 -2.21393 4.86712 0
M  V30 2336 C 224.477 -0.0569336 5.22269 0
M  V30 2337 H 226.171 0.245529 2.98392 0
M  V30 2338 H 223.717 0.119525 1.43503 0
M  V30 2339 H 225.67 -2.09715 3.6551 0
M  V30 2340 H 224.394 -2.19716 2.41646 0
M  V30 2341 H 223.053 -0.449421 3.63835 0
M  V30 2342 H 222.701 -2.87699 4.12599 0
M  V30 2343 H 222.401 -1.87571 5.56858 0
M  V30 2344 H 223.925 -2.7974 5.4275 0
M  V30 2345 H 225.339 -0.54325 5.7072 0
M  V30 2346 H 223.736 0.192594 5.99791 0
M  V30 2347 H 224.806 0.887663 4.76706 0
M  V30 2348 N 226.149 -1.5696 0.141893 0
M  V30 2349 C 227.082 -2.12271 -0.837627 0
M  V30 2350 C 228.06 -1.04495 -1.24578 0
M  V30 2351 O 229.244 -1.32293 -1.34278 0
M  V30 2352 C 226.371 -2.63822 -2.12404 0
M  V30 2353 C 225.417 -3.83698 -1.86221 0
M  V30 2354 S 226.25 -5.24948 -1.05781 0
M  V30 2355 C 227.406 -5.79884 -2.35552 0
M  V30 2356 H 227.639 -2.95023 -0.367249 0
M  V30 2357 H 225.172 -1.54231 -0.0723014 0
M  V30 2358 H 227.13 -2.94175 -2.86307 0
M  V30 2359 H 225.791 -1.8121 -2.56557 0
M  V30 2360 H 224.984 -4.17995 -2.81596 0
M  V30 2361 H 224.586 -3.5408 -1.20429 0
M  V30 2362 H 226.878 -5.91005 -3.31239 0
M  V30 2363 H 227.821 -6.77544 -2.05767 0
M  V30 2364 H 228.229 -5.08095 -2.45967 0
M  V30 2365 N 227.627 0.131896 -1.57047 0
M  V30 2366 C 228.557 1.16384 -2.02428 0
M  V30 2367 C 229.538 1.43936 -0.90644 0
M  V30 2368 O 230.723 1.54599 -1.17528 0
M  V30 2369 C 227.853 2.49328 -2.4177 0
M  V30 2370 C 226.807 2.36266 -3.56879 0
M  V30 2371 C 226.133 3.74057 -3.8208 0
M  V30 2372 C 227.433 1.834 -4.89042 0
M  V30 2373 H 229.127 0.786433 -2.88887 0
M  V30 2374 H 226.673 0.376855 -1.38981 0
M  V30 2375 H 228.626 3.21759 -2.7212 0
M  V30 2376 H 227.35 2.88934 -1.52266 0
M  V30 2377 H 226.009 1.66286 -3.26718 0
M  V30 2378 H 225.657 4.11125 -2.89803 0
M  V30 2379 H 225.357 3.66174 -4.59554 0
M  V30 2380 H 226.881 4.48012 -4.1487 0
M  V30 2381 H 228.295 2.45636 -5.18011 0
M  V30 2382 H 226.692 1.8637 -5.70426 0
M  V30 2383 H 227.762 0.790662 -4.7841 0
M  V30 2384 N 229.106 1.52395 0.401703 0
M  V30 2385 C 230.016 1.7917 1.51444 0
M  V30 2386 C 231.032 0.677691 1.6026 0
M  V30 2387 O 232.208 0.963909 1.76835 0
M  V30 2388 C 229.273 1.94347 2.87107 0
M  V30 2389 C 228.334 3.18257 2.88116 0
M  V30 2390 C 227.567 3.32701 4.17308 0
M  V30 2391 O 227.79 2.52238 5.11598 0
M  V30 2392 O 226.724 4.25891 4.25324 0
M  V30 2393 H 230.55 2.73633 1.31752 0
M  V30 2394 H 228.135 1.3733 0.588296 0
M  V30 2395 H 230.017 2.06109 3.67555 0
M  V30 2396 H 228.692 1.03073 3.06851 0
M  V30 2397 H 227.599 3.11947 2.06494 0
M  V30 2398 H 228.932 4.09336 2.73322 0
M  V30 2399 N 230.584 -0.659388 1.43143 0
M  V30 2400 C 231.514 -1.78422 1.50625 0
M  V30 2401 C 232.495 -1.66216 0.361443 0
M  V30 2402 O 233.68 -1.85404 0.577834 0
M  V30 2403 C 230.81 -3.16815 1.42287 0
M  V30 2404 C 229.764 -3.43777 2.54954 0
M  V30 2405 C 229.09 -4.81905 2.31671 0
M  V30 2406 C 230.39 -3.39134 3.97222 0
M  V30 2407 H 232.084 -1.72417 2.44771 0
M  V30 2408 H 229.63 -0.828084 1.17808 0
M  V30 2409 H 231.583 -3.95253 1.46127 0
M  V30 2410 H 230.307 -3.23534 0.446435 0
M  V30 2411 H 228.966 -2.67707 2.50457 0
M  V30 2412 H 228.614 -4.85294 1.32284 0
M  V30 2413 H 228.314 -5.00906 3.07192 0
M  V30 2414 H 229.838 -5.62609 2.37284 0
M  V30 2415 H 231.252 -4.07518 4.03239 0
M  V30 2416 H 229.649 -3.69671 4.72719 0
M  V30 2417 H 230.719 -2.37426 4.22797 0
M  V30 2418 N 232.062 -1.29571 -0.897171 0
M  V30 2419 C 233.339 -1.08365 -1.62839 0
M  V30 2420 C 233.719 0.371331 -2.07808 0
M  V30 2421 O 233.067 1.3606 -1.83576 0
M  V30 2422 C 233.277 -2.0735 -2.80726 0
M  V30 2423 C 234.625 -2.38406 -3.51351 0
M  V30 2424 O 235.649 -2.05564 -2.90898 0
M  V30 2425 O 234.508 -2.9453 -4.60341 0
M  V30 2426 H 231.602 -0.415345 -0.715134 0
M  V30 2427 H 234.148 -1.40952 -0.945018 0
M  V30 2428 H 232.92 -3.05339 -2.44711 0
M  V30 2429 H 232.543 -1.75507 -3.56767 0
M  V30 2430 N 233.54 1.10788 -1.12088 0
M  V30 2431 C 234.768 1.86461 -0.896651 0
M  V30 2432 C 235.183 1.80492 0.553912 0
M  V30 2433 O 234.54 1.19102 1.38278 0
M  V30 2434 C 234.591 3.35006 -1.35843 0
M  V30 2435 O 234.312 3.40866 -2.75213 0
M  V30 2436 C 235.813 4.27565 -1.1706 0
M  V30 2437 H 233.033 0.589425 -0.320654 0
M  V30 2438 H 235.577 1.40076 -1.48993 0
M  V30 2439 H 233.732 3.7887 -0.808458 0
M  V30 2440 H 234.146 4.33411 -2.9539 0
M  V30 2441 H 235.62 5.30007 -1.54263 0
M  V30 2442 H 236.097 4.3906 -0.110814 0
M  V30 2443 H 236.703 3.89501 -1.70789 0
M  V30 2444 N 235.018 0.912232 1.28515 0
M  V30 2445 C 235.965 0.397954 2.27343 0
M  V30 2446 C 236.935 -0.526766 1.57526 0
M  V30 2447 O 238.12 -0.449292 1.85435 0
M  V30 2448 C 235.26 -0.357263 3.43246 0
M  V30 2449 C 234.373 0.599788 4.27816 0
M  V30 2450 C 233.508 -0.173725 5.30916 0
M  V30 2451 C 232.547 0.777039 6.07148 0
M  V30 2452 N 231.684 0.0371398 7.0209 0
M  V30 2453 H 236.524 1.24577 2.70711 0
M  V30 2454 H 234.061 0.625612 1.33133 0
M  V30 2455 H 236.019 -0.8113 4.09236 0
M  V30 2456 H 234.649 -1.16943 3.00872 0
M  V30 2457 H 233.701 1.17235 3.61884 0
M  V30 2458 H 235.013 1.32704 4.80823 0
M  V30 2459 H 234.167 -0.688394 6.02782 0
M  V30 2460 H 232.906 -0.934041 4.78672 0
M  V30 2461 H 231.911 1.3031 5.34134 0
M  V30 2462 H 233.136 1.53689 6.61481 0
M  V30 2463 H 231.082 -0.705213 6.52198 0
M  V30 2464 H 230.999 0.704249 7.52713 0
M  V30 2465 H 232.267 -0.457383 7.78157 0
M  V30 2466 N 236.496 -1.42363 0.676048 0
M  V30 2467 C 237.743 -2.01522 0.19883 0
M  V30 2468 C 238.071 -1.53456 -1.19505 0
M  V30 2469 O 237.326 -0.727967 -1.81657 0
M  V30 2470 C 237.625 -3.56929 0.183431 0
M  V30 2471 C 237.291 -4.24431 1.52215 0
M  V30 2472 C 235.953 -4.42585 1.8887 0
M  V30 2473 C 238.305 -4.62459 2.40377 0
M  V30 2474 C 235.633 -4.96039 3.13309 0
M  V30 2475 C 237.985 -5.17294 3.64129 0
M  V30 2476 C 236.649 -5.33661 4.00951 0
M  V30 2477 H 235.919 -0.737419 0.0727571 0
M  V30 2478 H 238.566 -1.70531 0.871281 0
M  V30 2479 H 236.871 -3.87594 -0.572532 0
M  V30 2480 H 238.568 -4.00486 -0.203035 0
M  V30 2481 H 235.158 -4.10661 1.22701 0
M  V30 2482 H 239.342 -4.48105 2.13343 0
M  V30 2483 H 234.598 -5.06896 3.41857 0
M  V30 2484 H 238.772 -5.45704 4.32644 0
M  V30 2485 H 236.399 -5.74845 4.9745 0
M  V30 2486 N 237.974 -0.419461 -1.51915 0
M  V30 2487 C 239.39 -0.0708431 -1.59443 0
M  V30 2488 C 239.59 1.41796 -1.43164 0
M  V30 2489 O 238.646 2.18596 -1.26381 0
M  V30 2490 C 239.959 -0.574991 -2.95151 0
M  V30 2491 C 241.507 -0.533867 -3.08413 0
M  V30 2492 C 241.982 -1.01469 -4.46618 0
M  V30 2493 N 243.473 -0.971939 -4.52888 0
M  V30 2494 C 244.208 -1.31505 -5.58116 0
M  V30 2495 N 243.704 -1.73014 -6.70849 0
M  V30 2496 N 245.497 -1.23436 -5.48379 0
M  V30 2497 H 237.648 -1.38836 -1.60743 0
M  V30 2498 H 239.911 -0.570998 -0.756747 0
M  V30 2499 H 239.617 -1.61597 -3.12377 0
M  V30 2500 H 239.491 0.00979777 -3.77199 0
M  V30 2501 H 241.878 0.498086 -2.90866 0
M  V30 2502 H 241.959 -1.15484 -2.28248 0
M  V30 2503 H 241.603 -2.04502 -4.6491 0
M  V30 2504 H 241.533 -0.370433 -5.25295 0
M  V30 2505 H 244.024 -0.666893 -3.71969 0
M  V30 2506 H 244.337 -1.97479 -7.47143 0
M  V30 2507 H 242.682 -1.76926 -6.72103 0
M  V30 2508 H 245.873 -0.908869 -4.59192 0
M  V30 2509 H 246.046 -1.50506 -6.30279 0
M  V30 2510 N 239.452 1.56882 -0.150215 0
M  V30 2511 C 240.4 2.18214 0.805313 0
M  V30 2512 C 241.394 1.14006 1.25296 0
M  V30 2513 O 242.6 1.3225 1.22107 0
M  V30 2514 H 238.975 0.698762 0.277913 0
M  V30 2515 H 240.946 2.97231 0.263862 0
M  V30 2516 C 239.695 2.82065 2.03309 0
M  V30 2517 H 239.018 3.61968 1.69763 0
M  V30 2518 H 240.458 3.28477 2.68103 0
M  V30 2519 C 238.917 1.80739 2.84315 0
M  V30 2520 O 239.447 1.27983 3.80767 0
M  V30 2521 N 237.653 1.4997 2.48913 0
M  V30 2522 H 237.2 1.93062 1.70542 0
M  V30 2523 H 237.158 0.824217 3.03404 0
M  V30 2524 N 240.93 -0.123565 1.57115 0
M  V30 2525 C 241.88 -1.1575 1.96433 0
M  V30 2526 C 242.864 -1.37313 0.838686 0
M  V30 2527 O 244.056 -1.38482 1.10235 0
M  V30 2528 C 241.185 -2.48526 2.36833 0
M  V30 2529 C 240.271 -2.30457 3.5602 0
M  V30 2530 N 240.662 -1.8219 4.71848 0
M  V30 2531 C 238.96 -2.61129 3.61563 0
M  V30 2532 C 239.661 -1.77721 5.53886 0
M  V30 2533 N 238.637 -2.21899 4.96248 0
M  V30 2534 H 242.439 -0.776797 2.83449 0
M  V30 2535 H 239.953 -0.331364 1.58983 0
M  V30 2536 H 241.95 -3.233 2.63216 0
M  V30 2537 H 240.61 -2.87358 1.5118 0
M  V30 2538 H 241.621 -1.51805 4.95152 0
M  V30 2539 H 238.298 -3.03678 2.86507 0
M  V30 2540 H 239.688 -1.41697 6.56789 0
M  V30 2541 N 242.408 -1.52605 -0.393616 0
M  V30 2542 C 243.636 -1.71294 -1.16043 0
M  V30 2543 C 244.051 -0.429259 -1.83855 0
M  V30 2544 O 243.408 0.595921 -1.72496 0
M  V30 2545 C 243.459 -2.8593 -2.21193 0
M  V30 2546 O 243.18 -4.09329 -1.56146 0
M  V30 2547 C 244.681 -3.16259 -3.10636 0
M  V30 2548 H 241.901 -0.573641 -0.348104 0
M  V30 2549 H 244.445 -1.99234 -0.461092 0
M  V30 2550 H 242.6 -2.60465 -2.86769 0
M  V30 2551 H 243.014 -4.73323 -2.25978 0
M  V30 2552 H 244.488 -3.99946 -3.80456 0
M  V30 2553 H 244.965 -2.3045 -3.73884 0
M  V30 2554 H 245.571 -3.43547 -2.50711 0
M  V30 2555 N 243.887 0.651787 -1.4349 0
M  V30 2556 C 245.127 1.42345 -1.46688 0
M  V30 2557 C 245.491 1.91793 -0.0891023 0
M  V30 2558 O 246.692 2.688 0.00423594 0
M  V30 2559 C 244.963 2.57221 -2.48137 0
M  V30 2560 S 246.522 3.45725 -2.70221 0
M  V30 2561 H 243.34 0.485878 -0.51908 0
M  V30 2562 H 245.942 0.756578 -1.80267 0
M  V30 2563 H 244.646 2.1917 -3.46976 0
M  V30 2564 H 244.177 3.28757 -2.16061 0
M  V30 2565 H 246.192 4.53996 -2.00255 0
M  V30 2566 N 245.365 1.30045 0.890287 0
M  V30 2567 C 246.613 1.18327 1.63839 0
M  V30 2568 C 246.934 -0.263455 1.93212 0
M  V30 2569 O 246.204 -1.17856 1.56482 0
M  V30 2570 H 244.784 0.434933 0.607324 0
M  V30 2571 H 247.446 1.631 1.06698 0
M  V30 2572 H 246.542 1.74024 2.59079 0
M  V30 2573 N 246.843 -1.10192 1.12674 0
M  V30 2574 C 247.773 -2.18652 0.819362 0
M  V30 2575 C 248.754 -1.68698 -0.217915 0
M  V30 2576 O 249.939 -1.94041 -0.0785581 0
M  V30 2577 C 247.069 -3.46202 0.27594 0
M  V30 2578 C 246.023 -4.09444 1.24656 0
M  V30 2579 C 245.349 -5.31725 0.563258 0
M  V30 2580 C 246.649 -4.52863 2.60217 0
M  V30 2581 H 248.343 -2.44622 1.72628 0
M  V30 2582 H 245.889 -1.17571 0.831451 0
M  V30 2583 H 247.842 -4.21372 0.0486149 0
M  V30 2584 H 246.566 -3.1973 -0.666331 0
M  V30 2585 H 245.225 -3.36284 1.45974 0
M  V30 2586 H 244.873 -5.0153 -0.384235 0
M  V30 2587 H 244.573 -5.74991 1.21075 0
M  V30 2588 H 246.097 -6.09624 0.34503 0
M  V30 2589 H 247.511 -5.19294 2.42913 0
M  V30 2590 H 245.908 -5.06986 3.21068 0
M  V30 2591 H 246.978 -3.65656 3.18471 0
M  V30 2592 N 248.321 -0.919034 -1.28029 0
M  V30 2593 C 249.561 -0.562107 -1.96519 0
M  V30 2594 C 249.925 0.878784 -1.70708 0
M  V30 2595 O 251.126 1.34355 -2.32813 0
M  V30 2596 C 249.397 -0.868953 -3.46676 0
M  V30 2597 S 250.956 -0.619237 -4.34409 0
M  V30 2598 H 247.774 -0.2078 -0.679956 0
M  V30 2599 H 250.376 -1.18562 -1.55446 0
M  V30 2600 H 249.08 -1.91547 -3.62957 0
M  V30 2601 H 248.611 -0.234301 -3.92702 0
M  V30 2602 H 250.626 0.526995 -4.93394 0
M  V30 2603 N 249.799 1.42003 -0.683588 0
M  V30 2604 C 251.047 2.01015 -0.209101 0
M  V30 2605 C 251.368 1.54365 1.19149 0
M  V30 2606 O 250.638 0.769083 1.80172 0
M  V30 2607 H 249.218 0.743294 -0.074315 0
M  V30 2608 H 251.88 1.73798 -0.882066 0
M  V30 2609 H 250.976 3.11343 -0.2172 0
M  V30 2610 N 251.277 0.427512 1.51691 0
M  V30 2611 C 252.554 -0.201684 1.94557 0
M  V30 2612 C 252.934 -1.60981 1.36559 0
M  V30 2613 O 252.282 -2.21814 0.548702 0
M  V30 2614 C 252.492 -0.189394 3.48486 0
M  V30 2615 C 253.84 -0.39978 4.22714 0
M  V30 2616 O 254.864 -0.267945 3.55191 0
M  V30 2617 O 253.723 -0.661249 5.42485 0
M  V30 2618 H 250.817 -0.135261 0.815864 0
M  V30 2619 H 253.363 0.484782 1.62628 0
M  V30 2620 H 252.135 0.795431 3.8313 0
M  V30 2621 H 251.758 -0.919187 3.86829 0
M  V30 2622 N 252.755 -1.56801 0.158532 0
M  V30 2623 C 253.985 -2.00568 -0.495583 0
M  V30 2624 C 254.393 -1.03774 -1.58201 0
M  V30 2625 O 253.736 -0.0285797 -1.83678 0
M  V30 2626 C 253.798 -3.40768 -1.14532 0
M  V30 2627 C 253.462 -4.56553 -0.202101 0
M  V30 2628 C 254.459 -5.16714 0.574675 0
M  V30 2629 C 252.144 -5.02197 -0.101648 0
M  V30 2630 C 254.138 -6.20939 1.43924 0
M  V30 2631 C 251.825 -6.06274 0.766508 0
M  V30 2632 C 252.823 -6.65515 1.53555 0
M  V30 2633 O 252.511 -7.67575 2.38922 0
M  V30 2634 H 252.243 -0.662893 -0.13247 0
M  V30 2635 H 254.797 -2.03829 0.253559 0
M  V30 2636 H 253.027 -3.34381 -1.94233 0
M  V30 2637 H 254.716 -3.6857 -1.70033 0
M  V30 2638 H 255.482 -4.82341 0.507167 0
M  V30 2639 H 251.361 -4.55807 -0.689994 0
M  V30 2640 H 254.905 -6.67107 2.03996 0
M  V30 2641 H 250.802 -6.40073 0.835266 0
M  V30 2642 H 251.57 -7.84844 2.32296 0
M  V30 2643 N 254.233 0.115231 -1.57178 0
M  V30 2644 C 255.181 1.16014 -2.01602 0
M  V30 2645 C 256.175 1.42653 -0.913587 0
M  V30 2646 O 257.381 1.42571 -1.09879 0
M  V30 2647 H 253.756 0.391252 -0.642204 0
M  V30 2648 H 255.727 0.758998 -2.88586 0
M  V30 2649 C 254.476 2.47767 -2.4394 0
M  V30 2650 H 253.799 2.28108 -3.28339 0
M  V30 2651 H 255.239 3.19432 -2.78818 0
M  V30 2652 C 253.698 3.10617 -1.30455 0
M  V30 2653 O 254.228 3.96846 -0.622585 0
M  V30 2654 N 252.434 2.70553 -1.06064 0
M  V30 2655 H 251.981 2.00527 -1.61699 0
M  V30 2656 H 251.939 3.12934 -0.303284 0
M  V30 2657 N 255.711 1.52812 0.385517 0
M  V30 2658 C 256.959 1.67694 1.12797 0
M  V30 2659 C 257.28 0.421115 1.90399 0
M  V30 2660 O 256.55 -0.564551 1.87589 0
M  V30 2661 H 255.13 0.618155 0.419396 0
M  V30 2662 H 257.792 1.89938 0.436972 0
M  V30 2663 H 256.888 2.52896 1.82894 0
M  V30 2664 N 257.189 -0.644168 1.43834 0
M  V30 2665 C 258.119 -1.76814 1.52509 0
M  V30 2666 C 259.1 -1.65823 0.379052 0
M  V30 2667 O 260.285 -1.84781 0.597466 0
M  V30 2668 C 257.415 -3.15288 1.4564 0
M  V30 2669 C 256.369 -3.41053 2.58586 0
M  V30 2670 C 255.695 -4.79421 2.36769 0
M  V30 2671 C 256.995 -3.34902 4.00797 0
M  V30 2672 H 258.689 -1.69812 2.46586 0
M  V30 2673 H 256.235 -0.815542 1.1868 0
M  V30 2674 H 258.188 -3.93681 1.50311 0
M  V30 2675 H 256.912 -3.23043 0.480725 0
M  V30 2676 H 255.571 -2.65035 2.53282 0
M  V30 2677 H 255.219 -4.83863 1.37424 0
M  V30 2678 H 254.919 -4.9762 3.12487 0
M  V30 2679 H 256.443 -5.6006 2.43238 0
M  V30 2680 H 257.857 -4.03218 4.07539 0
M  V30 2681 H 256.254 -3.64637 4.76613 0
M  V30 2682 H 257.324 -2.32928 4.25291 0
M  V30 2683 N 258.668 -1.30515 -0.883378 0
M  V30 2684 C 259.6 -1.12846 -1.99496 0
M  V30 2685 C 260.613 -0.0712571 -1.62644 0
M  V30 2686 O 261.802 -0.317432 -1.75655 0
M  V30 2687 C 258.902 -0.699123 -3.3161 0
M  V30 2688 C 258.075 -1.83842 -3.96889 0
M  V30 2689 C 257.134 -1.39737 -5.07307 0
M  V30 2690 O 256.16 -2.10485 -5.28852 0
M  V30 2691 N 257.362 -0.277279 -5.79837 0
M  V30 2692 H 260.127 -2.08585 -2.15203 0
M  V30 2693 H 257.688 -1.22672 -1.05656 0
M  V30 2694 H 259.68 -0.387044 -4.02845 0
M  V30 2695 H 258.25 0.166276 -3.12157 0
M  V30 2696 H 257.47 -2.31853 -3.18807 0
M  V30 2697 H 258.758 -2.60187 -4.37241 0
M  V30 2698 H 258.156 0.3122 -5.64838 0
M  V30 2699 H 256.713 -0.0246623 -6.51795 0
M  V30 2700 N 260.146 1.09593 -1.13257 0
M  V30 2701 C 261.371 1.8604 -0.916732 0
M  V30 2702 C 261.796 1.80504 0.529146 0
M  V30 2703 O 261.154 1.18127 1.37534 0
M  V30 2704 C 261.202 3.32017 -1.40703 0
M  V30 2705 O 260.306 4.08141 -0.591153 0
M  V30 2706 H 259.647 0.576943 -0.328683 0
M  V30 2707 H 262.177 1.38405 -1.50682 0
M  V30 2708 H 262.187 3.82865 -1.4099 0
M  V30 2709 H 260.862 3.35361 -2.45979 0
M  V30 2710 H 259.439 3.67084 -0.656005 0
M  V30 2711 N 261.624 0.925811 1.2754 0
M  V30 2712 C 262.854 0.580666 1.98272 0
M  V30 2713 C 263.262 -0.845207 1.69272 0
M  V30 2714 O 262.605 -1.57306 0.948707 0
M  V30 2715 C 262.667 0.724418 3.52126 0
M  V30 2716 C 262.331 2.12206 4.04744 0
M  V30 2717 C 263.328 3.09604 4.17662 0
M  V30 2718 C 261.013 2.4385 4.39138 0
M  V30 2719 C 263.007 4.36755 4.64246 0
M  V30 2720 C 260.694 3.71237 4.85414 0
M  V30 2721 C 261.692 4.67503 4.97926 0
M  V30 2722 O 261.38 5.92624 5.43187 0
M  V30 2723 H 261.112 0.218987 0.639547 0
M  V30 2724 H 263.666 1.24452 1.63404 0
M  V30 2725 H 261.896 0.0034663 3.867 0
M  V30 2726 H 263.585 0.384607 4.04074 0
M  V30 2727 H 264.351 2.86478 3.91351 0
M  V30 2728 H 260.23 1.69665 4.28643 0
M  V30 2729 H 263.774 5.11898 4.73927 0
M  V30 2730 H 259.671 3.94182 5.11166 0
M  V30 2731 H 260.439 5.95585 5.61445 0
M  V30 2732 N 263.102 -1.41638 0.69111 0
M  V30 2733 C 264.327 -2.06148 0.227583 0
M  V30 2734 C 264.752 -1.51652 -1.11281 0
M  V30 2735 O 264.11 -0.64164 -1.69566 0
M  V30 2736 C 264.158 -3.60095 0.190858 0
M  V30 2737 O 263.262 -4.03845 -0.835664 0
M  V30 2738 H 262.603 -0.654434 0.112306 0
M  V30 2739 H 265.133 -1.81484 0.944714 0
M  V30 2740 H 265.143 -4.07995 0.020207 0
M  V30 2741 H 263.818 -3.99129 1.16915 0
M  V30 2742 H 262.395 -3.67458 -0.63473 0
M  V30 2743 N 264.58 -0.43555 -1.51462 0
M  V30 2744 C 265.49 0.383001 -2.31453 0
M  V30 2745 C 266.506 1.02931 -1.4029 0
M  V30 2746 O 267.682 1.02507 -1.73362 0
M  V30 2747 C 264.747 1.47043 -3.13973 0
M  V30 2748 C 263.808 0.844433 -4.20913 0
M  V30 2749 C 263.041 1.88004 -4.9949 0
M  V30 2750 O 263.264 3.10199 -4.78678 0
M  V30 2751 O 262.198 1.47157 -5.83634 0
M  V30 2752 H 266.024 -0.269964 -3.02498 0
M  V30 2753 H 263.609 -0.19813 -1.4808 0
M  V30 2754 H 265.491 2.10113 -3.65281 0
M  V30 2755 H 264.166 2.10751 -2.45695 0
M  V30 2756 H 263.073 0.175729 -3.73687 0
M  V30 2757 H 264.406 0.250869 -4.9156 0
M  V30 2758 N 266.058 1.56714 -0.166846 0
M  V30 2759 C 267.305 1.96747 0.479252 0
M  V30 2760 C 267.633 1.05263 1.63554 0
M  V30 2761 O 266.888 0.0858098 1.95512 0
M  V30 2762 C 267.187 3.42889 1.00806 0
M  V30 2763 C 266.853 4.50889 -0.0318574 0
M  V30 2764 C 265.515 4.8015 -0.317675 0
M  V30 2765 C 267.867 5.15949 -0.737956 0
M  V30 2766 C 265.195 5.71772 -1.31506 0
M  V30 2767 C 267.547 6.08647 -1.72429 0
M  V30 2768 C 266.211 6.36277 -2.0176 0
M  V30 2769 H 265.481 0.719949 0.175371 0
M  V30 2770 H 268.128 1.89756 -0.257864 0
M  V30 2771 H 266.433 3.4681 1.82291 0
M  V30 2772 H 268.13 3.71203 1.51689 0
M  V30 2773 H 264.72 4.28128 0.201088 0
M  V30 2774 H 268.904 4.93458 -0.530351 0
M  V30 2775 H 264.16 5.91465 -1.54853 0
M  V30 2776 H 268.334 6.58129 -2.27682 0
M  V30 2777 H 265.961 7.07075 -2.79194 0
M  V30 2778 N 267.536 -0.106894 1.57237 0
M  V30 2779 C 268.466 -1.13148 2.04254 0
M  V30 2780 C 269.447 -1.42476 0.929224 0
M  V30 2781 O 270.632 -1.52709 1.19973 0
M  V30 2782 C 267.762 -2.4545 2.45706 0
M  V30 2783 C 266.716 -2.30558 3.60592 0
M  V30 2784 C 266.042 -3.67931 3.87983 0
M  V30 2785 C 267.342 -1.75597 4.91897 0
M  V30 2786 H 269.036 -0.740374 2.90101 0
M  V30 2787 H 266.582 -0.354696 1.39563 0
M  V30 2788 H 268.535 -3.17389 2.77205 0
M  V30 2789 H 267.259 -2.86475 1.56843 0
M  V30 2790 H 265.918 -1.61067 3.29322 0
M  V30 2791 H 265.566 -4.06462 2.96306 0
M  V30 2792 H 265.266 -3.58817 4.65322 0
M  V30 2793 H 266.79 -4.41356 4.21945 0
M  V30 2794 H 268.204 -2.37364 5.21854 0
M  V30 2795 H 266.601 -1.77272 5.73319 0
M  V30 2796 H 267.671 -0.714451 4.79608 0
M  V30 2797 N 269.014 -1.53014 -0.377408 0
M  V30 2798 C 270.239 -1.72818 -1.14668 0
M  V30 2799 C 270.664 -0.450725 -1.8262 0
M  V30 2800 O 270.022 0.59439 -1.7128 0
M  V30 2801 C 270.07 -2.88627 -2.16164 0
M  V30 2802 O 269.174 -2.56409 -3.22998 0
M  V30 2803 H 268.515 -0.574301 -0.333278 0
M  V30 2804 H 271.045 -1.99853 -0.438152 0
M  V30 2805 H 271.055 -3.14455 -2.59966 0
M  V30 2806 H 269.73 -3.81294 -1.66095 0
M  V30 2807 H 268.307 -2.4136 -2.84253 0
M  V30 2808 N 270.492 0.636531 -1.44174 0
M  V30 2809 C 271.769 1.39463 -1.37148 0
M  V30 2810 C 272.149 2.11082 -0.027507 0
M  V30 2811 O 271.497 2.05954 0.989716 0
M  V30 2812 C 271.707 2.36552 -2.56601 0
M  V30 2813 C 273.055 3.00048 -3.00427 0
M  V30 2814 O 274.079 2.46878 -2.56767 0
M  V30 2815 O 272.938 3.96488 -3.76111 0
M  V30 2816 H 270.032 0.623903 -0.542839 0
M  V30 2817 H 272.578 0.662039 -1.56253 0
M  V30 2818 H 271.35 1.82692 -3.46034 0
M  V30 2819 H 270.973 3.17236 -2.39681 0
M  V30 2820 N 271.97 1.30982 0.876444 0
M  V30 2821 C 273.218 1.20058 1.62575 0
M  V30 2822 C 273.539 -0.242947 1.93481 0
M  V30 2823 O 272.809 -1.1619 1.57724 0
M  V30 2824 H 271.389 0.44135 0.602677 0
M  V30 2825 H 274.051 1.64222 1.04962 0
M  V30 2826 H 273.147 1.76762 2.57219 0
M  V30 2827 N 273.449 -1.08991 1.13837 0
M  V30 2828 C 274.695 -1.81526 0.90422 0
M  V30 2829 C 275.028 -1.85706 -0.568066 0
M  V30 2830 O 274.303 -1.32855 -1.42056 0
M  V30 2831 C 274.586 -3.27447 1.49835 0
M  V30 2832 C 274.439 -3.31512 3.04006 0
M  V30 2833 C 275.758 -4.24256 1.17025 0
M  V30 2834 H 272.877 -0.659029 0.329923 0
M  V30 2835 H 275.519 -1.27644 1.40737 0
M  V30 2836 H 273.669 -3.73462 1.07044 0
M  V30 2837 H 275.341 -2.93867 3.55584 0
M  V30 2838 H 273.584 -2.70963 3.38765 0
M  V30 2839 H 274.255 -4.34329 3.40679 0
M  V30 2840 H 276.731 -3.86549 1.54009 0
M  V30 2841 H 275.607 -5.24684 1.61237 0
M  V30 2842 H 275.868 -4.42019 0.0846274 0
M  V30 2843 N 274.927 -0.932562 -1.27047 0
M  V30 2844 C 275.857 -0.452902 -2.29066 0
M  V30 2845 C 276.838 0.489338 -1.62909 0
M  V30 2846 O 278.023 0.393046 -1.90181 0
M  V30 2847 C 275.153 0.290698 -3.46081 0
M  V30 2848 C 274.107 -0.564168 -4.24265 0
M  V30 2849 C 273.433 0.308886 -5.33807 0
M  V30 2850 C 274.733 -1.83112 -4.89149 0
M  V30 2851 H 276.427 -1.30552 -2.69437 0
M  V30 2852 H 273.973 -0.629201 -1.29526 0
M  V30 2853 H 275.926 0.637233 -4.16554 0
M  V30 2854 H 274.65 1.17738 -3.0464 0
M  V30 2855 H 273.309 -0.893477 -3.55545 0
M  V30 2856 H 272.957 1.19467 -4.88607 0
M  V30 2857 H 272.657 -0.259633 -5.87026 0
M  V30 2858 H 274.181 0.650884 -6.07121 0
M  V30 2859 H 275.595 -1.55236 -5.51883 0
M  V30 2860 H 273.992 -2.34353 -5.52448 0
M  V30 2861 H 275.062 -2.54772 -4.12576 0
M  V30 2862 N 276.405 1.4127 -0.698611 0
M  V30 2863 C 277.652 2.0118 -0.230865 0
M  V30 2864 C 277.98 1.55338 1.17049 0
M  V30 2865 O 277.235 0.756775 1.80475 0
M  V30 2866 C 277.534 3.56592 -0.240192 0
M  V30 2867 C 277.2 4.21955 -1.58948 0
M  V30 2868 C 275.862 4.39524 -1.95887 0
M  V30 2869 C 278.214 4.58576 -2.47704 0
M  V30 2870 C 275.542 4.90992 -3.2116 0
M  V30 2871 C 277.894 5.11435 -3.72313 0
M  V30 2872 C 276.558 5.27215 -4.0939 0
M  V30 2873 H 275.828 0.736169 -0.0844796 0
M  V30 2874 H 278.475 1.69124 -0.8983 0
M  V30 2875 H 276.78 3.88456 0.510797 0
M  V30 2876 H 278.477 4.00758 0.139296 0
M  V30 2877 H 275.067 4.08657 -1.29219 0
M  V30 2878 H 279.251 4.44654 -2.20445 0
M  V30 2879 H 274.507 5.01393 -3.49878 0
M  V30 2880 H 278.681 5.38752 -4.4127 0
M  V30 2881 H 276.308 5.66859 -5.06533 0
M  V30 2882 N 277.883 0.443576 1.51229 0
M  V30 2883 C 279.108 -0.121648 2.07043 0
M  V30 2884 C 279.533 -1.35156 1.30823 0
M  V30 2885 O 278.891 -1.7793 0.347934 0
M  V30 2886 C 278.939 -0.41624 3.5819 0
M  V30 2887 O 278.043 -1.50163 3.8409 0
M  V30 2888 H 277.384 0.000871367 0.663999 0
M  V30 2889 H 279.914 0.626706 1.94765 0
M  V30 2890 H 279.924 -0.664867 4.02546 0
M  V30 2891 H 278.599 0.482653 4.1309 0
M  V30 2892 H 277.176 -1.24248 3.51592 0
M  V30 2893 N 279.361 -1.56624 0.175154 0
M  V30 2894 C 280.772 -1.83561 -0.340916 0
M  V30 2895 C 281.123 -1.09511 -1.62794 0
M  V30 2896 O 280.248 -0.349389 -2.13561 0
M  V30 2897 C 280.843 -3.32979 -0.625313 0
M  V30 2898 C 279.402 -3.60399 -1.08581 0
M  V30 2899 C 278.549 -2.77024 -0.123722 0
M  V30 2900 H 281.5 -1.53593 0.399344 0
M  V30 2901 H 281.521 -3.50666 -1.47694 0
M  V30 2902 H 281.033 -3.86847 0.311575 0
M  V30 2903 H 279.134 -3.11945 -2.03767 0
M  V30 2904 H 279.247 -4.68711 -0.992317 0
M  V30 2905 H 277.611 -2.46993 -0.621821 0
M  V30 2906 H 278.394 -3.33674 0.807256 0
M  V30 2907 N 280.839 0.0985539 -1.57292 0
M  V30 2908 C 281.769 1.12064 -2.04851 0
M  V30 2909 C 282.75 1.41981 -0.936767 0
M  V30 2910 O 283.935 1.52071 -1.20781 0
M  V30 2911 C 281.065 2.44144 -2.47004 0
M  V30 2912 C 280.019 2.28643 -3.6181 0
M  V30 2913 C 279.345 3.65869 -3.89929 0
M  V30 2914 C 280.645 1.72986 -4.92822 0
M  V30 2915 H 282.339 0.724979 -2.9049 0
M  V30 2916 H 279.885 0.34729 -1.39749 0
M  V30 2917 H 281.838 3.15914 -2.78884 0
M  V30 2918 H 280.562 2.85639 -1.5836 0
M  V30 2919 H 279.221 1.59318 -3.30172 0
M  V30 2920 H 278.869 4.04885 -2.98458 0
M  V30 2921 H 278.569 3.56344 -4.67218 0
M  V30 2922 H 280.093 4.39112 -4.2428 0
M  V30 2923 H 281.507 2.34593 -5.23105 0
M  V30 2924 H 279.904 1.74229 -5.74251 0
M  V30 2925 H 280.974 0.689007 -4.7998 0
M  V30 2926 N 282.317 1.53212 0.369288 0
M  V30 2927 C 283.227 1.82342 1.47609 0
M  V30 2928 C 284.243 0.711532 1.58787 0
M  V30 2929 O 285.419 1.0012 1.74751 0
M  V30 2930 C 282.484 2.00393 2.8292 0
M  V30 2931 C 281.545 3.24297 2.81301 0
M  V30 2932 C 280.778 3.41478 4.10157 0
M  V30 2933 O 281.001 2.63033 5.06132 0
M  V30 2934 O 279.935 4.34817 4.16194 0
M  V30 2935 H 283.761 2.76366 1.25918 0
M  V30 2936 H 281.346 1.38547 0.559034 0
M  V30 2937 H 283.228 2.13859 3.63101 0
M  V30 2938 H 281.903 1.09559 3.04596 0
M  V30 2939 H 280.81 3.16257 1.99831 0
M  V30 2940 H 282.143 4.15041 2.64578 0
M  V30 2941 N 283.795 -0.628877 1.44509 0
M  V30 2942 C 285.042 -1.38839 1.47411 0
M  V30 2943 C 285.37 -1.94202 0.10757 0
M  V30 2944 O 284.625 -1.74243 -0.890947 0
M  V30 2945 C 284.924 -2.56995 2.48371 0
M  V30 2946 C 284.59 -2.19908 3.93639 0
M  V30 2947 C 283.252 -2.09506 4.33198 0
M  V30 2948 C 285.604 -1.9064 4.85083 0
M  V30 2949 C 282.932 -1.68028 5.62124 0
M  V30 2950 C 285.284 -1.50655 6.14399 0
M  V30 2951 C 283.948 -1.38796 6.5291 0
M  V30 2952 H 283.218 -0.508048 0.539414 0
M  V30 2953 H 285.865 -0.712913 1.77735 0
M  V30 2954 H 284.17 -3.29786 2.11538 0
M  V30 2955 H 285.867 -3.15223 2.47861 0
M  V30 2956 H 282.457 -2.28922 3.62343 0
M  V30 2957 H 286.641 -1.97585 4.55273 0
M  V30 2958 H 281.897 -1.57452 5.90778 0
M  V30 2959 H 286.071 -1.27048 6.84713 0
M  V30 2960 H 283.698 -1.06429 7.52713 0
M  V30 2961 N 285.273 -1.31445 -0.869486 0
M  V30 2962 C 286.521 -1.20918 -1.61936 0
M  V30 2963 C 286.842 0.232683 -1.93607 0
M  V30 2964 O 286.112 1.15352 -1.58338 0
M  V30 2965 H 284.692 -0.44454 -0.600328 0
M  V30 2966 H 287.354 -1.64776 -1.0409 0
M  V30 2967 H 286.45 -1.78124 -2.56278 0
M  V30 2968 N 286.751 1.08385 -1.14413 0
M  V30 2969 C 287.699 2.17406 -0.826888 0
M  V30 2970 C 288.693 1.6827 0.195312 0
M  V30 2971 O 289.899 1.79927 0.0513892 0
M  V30 2972 H 286.274 0.70934 -0.249681 0
M  V30 2973 H 288.245 2.41388 -1.75426 0
M  V30 2974 C 286.994 3.46215 -0.320979 0
M  V30 2975 H 286.317 3.84401 -1.0989 0
M  V30 2976 H 287.757 4.23777 -0.137549 0
M  V30 2977 C 286.216 3.23067 0.955472 0
M  V30 2978 O 286.746 3.4668 2.02918 0
M  V30 2979 N 284.952 2.7661 0.890798 0
M  V30 2980 H 284.499 2.57594 0.0168815 0
M  V30 2981 H 284.457 2.61501 1.74542 0
M  V30 2982 N 288.23 0.939286 1.26551 0
M  V30 2983 C 289.163 0.391702 2.24813 0
M  V30 2984 C 290.141 -0.518421 1.54114 0
M  V30 2985 O 291.325 -0.456299 1.82894 0
M  V30 2986 C 288.452 -0.437382 3.35864 0
M  V30 2987 C 287.498 0.410946 4.24516 0
M  V30 2988 S 288.331 1.83372 5.03125 0
M  V30 2989 C 289.487 1.01264 6.17654 0
M  V30 2990 H 289.72 1.22448 2.70913 0
M  V30 2991 H 287.253 0.742269 1.35387 0
M  V30 2992 H 289.211 -0.909837 4.0029 0
M  V30 2993 H 287.872 -1.24482 2.8838 0
M  V30 2994 H 287.065 -0.224191 5.03501 0
M  V30 2995 H 286.667 0.818014 3.64945 0
M  V30 2996 H 288.959 0.254023 6.77024 0
M  V30 2997 H 289.902 1.77589 6.85469 0
M  V30 2998 H 290.31 0.549532 5.61819 0
M  V30 2999 N 289.708 -1.40897 0.706093 0
M  V30 3000 C 290.64 -2.29199 0.00815776 0
M  V30 3001 C 291.653 -1.45336 -0.733582 0
M  V30 3002 O 292.842 -1.68727 -0.582537 0
M  V30 3003 C 289.942 -3.23417 -1.01265 0
M  V30 3004 C 289.115 -4.36089 -0.338387 0
M  V30 3005 C 288.174 -5.10811 -1.26326 0
M  V30 3006 O 287.2 -5.64215 -0.751651 0
M  V30 3007 N 288.402 -5.19269 -2.595 0
M  V30 3008 H 291.167 -2.89738 0.766297 0
M  V30 3009 H 288.728 -1.52164 0.55296 0
M  V30 3010 H 290.72 -3.70276 -1.63334 0
M  V30 3011 H 289.29 -2.64112 -1.67223 0
M  V30 3012 H 288.51 -3.91479 0.462352 0
M  V30 3013 H 289.798 -5.08634 0.130031 0
M  V30 3014 H 289.196 -4.77347 -3.03573 0
M  V30 3015 H 287.753 -5.69667 -3.16737 0
M  V30 3016 N 291.186 -0.45159 -1.50991 0
M  V30 3017 C 292.133 0.352625 -2.2809 0
M  V30 3018 C 293.103 1.0044 -1.32291 0
M  V30 3019 O 294.288 1.02058 -1.6121 0
M  V30 3020 C 291.428 1.43983 -3.13629 0
M  V30 3021 C 290.541 0.804772 -4.24438 0
M  V30 3022 C 289.676 1.86822 -4.97263 0
M  V30 3023 C 288.715 1.21236 -5.99973 0
M  V30 3024 N 287.852 2.2178 -6.66152 0
M  V30 3025 H 292.692 -0.311186 -2.96371 0
M  V30 3026 H 290.229 -0.165308 -1.46168 0
M  V30 3027 H 292.187 2.08161 -3.61559 0
M  V30 3028 H 290.817 2.07307 -2.47434 0
M  V30 3029 H 289.869 0.0509129 -3.80366 0
M  V30 3030 H 291.181 0.286076 -4.97979 0
M  V30 3031 H 290.335 2.58628 -5.48813 0
M  V30 3032 H 289.074 2.42068 -4.23385 0
M  V30 3033 H 288.079 0.479828 -5.47702 0
M  V30 3034 H 289.304 0.667051 -6.75816 0
M  V30 3035 H 287.25 2.76079 -5.95077 0
M  V30 3036 H 287.167 1.74841 -7.35504 0
M  V30 3037 H 288.435 2.93026 -7.22327 0
M  V30 3038 N 292.664 1.56529 -0.183458 0
M  V30 3039 C 293.913 1.96419 0.458511 0
M  V30 3040 C 294.226 1.0727 1.63562 0
M  V30 3041 O 295.432 1.36893 2.34462 0
M  V30 3042 C 293.888 3.49298 0.867122 0
M  V30 3043 C 293.496 4.47092 -0.285057 0
M  V30 3044 C 295.24 3.97983 1.47683 0
M  V30 3045 C 293.147 5.91225 0.143862 0
M  V30 3046 H 292.077 0.733394 0.175071 0
M  V30 3047 H 294.728 1.81448 -0.273624 0
M  V30 3048 H 293.11 3.59731 1.65559 0
M  V30 3049 H 294.284 4.48383 -1.0625 0
M  V30 3050 H 292.599 4.08535 -0.805503 0
M  V30 3051 H 295.196 5.03134 1.80999 0
M  V30 3052 H 295.539 3.41618 2.37914 0
M  V30 3053 H 296.072 3.90617 0.752562 0
M  V30 3054 H 292.811 6.5149 -0.723974 0
M  V30 3055 H 292.331 5.93214 0.886413 0
M  V30 3056 H 294.01 6.44362 0.583628 0
M  V30 3057 N 294.142 -0.090211 1.57342 0
M  V30 3058 C 295.09 -1.12792 2.03422 0
M  V30 3059 C 296.084 -1.41182 0.936166 0
M  V30 3060 O 297.29 -1.40805 1.12133 0
M  V30 3061 H 293.665 -0.380986 0.648347 0
M  V30 3062 H 295.636 -0.71299 2.89757 0
M  V30 3063 C 294.385 -2.43855 2.47851 0
M  V30 3064 H 293.708 -2.22855 3.31927 0
M  V30 3065 H 295.148 -3.14955 2.83865 0
M  V30 3066 C 293.607 -3.08503 1.3538 0
M  V30 3067 O 294.137 -3.95805 0.685641 0
M  V30 3068 N 292.343 -2.68831 1.10355 0
M  V30 3069 H 291.89 -1.97929 1.64869 0
M  V30 3070 H 291.848 -3.12412 0.353031 0
M  V30 3071 N 295.62 -1.53406 -0.361157 0
M  V30 3072 C 296.552 -1.76446 -1.46286 0
M  V30 3073 C 297.565 -0.645322 -1.49464 0
M  V30 3074 O 298.754 -0.921681 -1.52864 0
M  V30 3075 C 295.854 -1.83332 -2.85031 0
M  V30 3076 C 295.027 -3.13033 -3.05498 0
M  V30 3077 C 294.086 -3.11104 -4.24383 0
M  V30 3078 O 293.112 -3.84888 -4.19344 0
M  V30 3079 N 294.314 -2.32234 -5.32022 0
M  V30 3080 H 297.079 -2.71508 -1.26899 0
M  V30 3081 H 294.64 -1.52238 -0.550915 0
M  V30 3082 H 296.632 -1.79514 -3.62708 0
M  V30 3083 H 295.202 -0.955342 -2.97644 0
M  V30 3084 H 294.422 -3.30119 -2.15442 0
M  V30 3085 H 295.71 -3.9874 -3.16044 0
M  V30 3086 H 295.108 -1.71807 -5.38979 0
M  V30 3087 H 293.665 -2.3423 -6.08259 0
M  V30 3088 N 297.098 0.621204 -1.44841 0
M  V30 3089 C 298.509 1.20298 -1.42777 0
M  V30 3090 C 298.86 1.95639 -0.148259 0
M  V30 3091 O 297.985 2.02955 0.750892 0
M  V30 3092 C 298.58 2.1882 -2.58657 0
M  V30 3093 C 297.139 2.72403 -2.59756 0
M  V30 3094 C 296.286 1.4757 -2.34773 0
M  V30 3095 H 299.237 0.411297 -1.53278 0
M  V30 3096 H 299.258 3.01607 -2.31977 0
M  V30 3097 H 298.77 1.63957 -3.51766 0
M  V30 3098 H 296.871 3.31242 -1.70615 0
M  V30 3099 H 296.984 3.17765 -3.58556 0
M  V30 3100 H 295.348 1.76051 -1.8406 0
M  V30 3101 H 296.131 0.945954 -3.3001 0
M  V30 3102 N 298.576 1.31904 0.862503 0
M  V30 3103 C 299.853 1.12644 1.59908 0
M  V30 3104 C 300.233 -0.316104 2.0872 0
M  V30 3105 O 299.581 -1.31145 1.87118 0
M  V30 3106 C 299.791 2.1472 2.7513 0
M  V30 3107 C 301.139 2.47637 3.44907 0
M  V30 3108 O 302.163 2.13205 2.85346 0
M  V30 3109 O 301.022 3.06632 4.52371 0
M  V30 3110 H 298.116 0.43416 0.703871 0
M  V30 3111 H 300.662 1.43408 0.907314 0
M  V30 3112 H 299.434 3.1172 2.3653 0
M  V30 3113 H 299.057 1.84905 3.51989 0
M  V30 3114 N 300.054 -1.07777 1.14986 0
M  V30 3115 C 301.3 -1.80557 0.923422 0
M  V30 3116 C 301.633 -1.86298 -0.548337 0
M  V30 3117 O 300.908 -1.34354 -1.40639 0
M  V30 3118 C 301.191 -3.25839 1.53299 0
M  V30 3119 C 301.044 -3.28269 3.07505 0
M  V30 3120 C 302.363 -4.22991 1.21518 0
M  V30 3121 H 299.482 -0.655493 0.336894 0
M  V30 3122 H 302.124 -1.26144 1.42083 0
M  V30 3123 H 300.274 -3.72306 1.10999 0
M  V30 3124 H 301.946 -2.90079 3.58681 0
M  V30 3125 H 300.189 -2.67355 3.4162 0
M  V30 3126 H 300.86 -4.30691 3.45266 0
M  V30 3127 H 303.336 -3.84894 1.581 0
M  V30 3128 H 302.212 -5.22945 1.66793 0
M  V30 3129 H 302.473 -4.41904 0.131505 0
M  V30 3130 N 301.532 -0.945985 -1.26051 0
M  V30 3131 C 302.778 -0.597002 -1.93814 0
M  V30 3132 C 303.111 0.862484 -1.73997 0
M  V30 3133 O 302.386 1.61769 -1.07986 0
M  V30 3134 C 302.669 -0.945937 -3.47454 0
M  V30 3135 C 302.522 -2.46052 -3.76535 0
M  V30 3136 C 303.841 -0.464785 -4.37639 0
M  V30 3137 H 300.96 -0.218366 -0.703907 0
M  V30 3138 H 303.602 -1.18107 -1.48831 0
M  V30 3139 H 301.752 -0.448902 -3.85898 0
M  V30 3140 H 303.424 -3.03065 -3.47778 0
M  V30 3141 H 301.667 -2.90194 -3.22444 0
M  V30 3142 H 302.338 -2.65517 -4.83947 0
M  V30 3143 H 304.814 -0.891016 -4.06448 0
M  V30 3144 H 303.69 -0.737712 -5.4392 0
M  V30 3145 H 303.951 0.635274 -4.37512 0
M  V30 3146 N 303.011 1.40521 -0.713556 0
M  V30 3147 C 304.251 2.02783 -0.256584 0
M  V30 3148 C 304.615 1.55352 1.12827 0
M  V30 3149 O 305.816 2.09663 1.68211 0
M  V30 3150 C 304.087 3.5586 -0.331414 0
M  V30 3151 S 305.646 4.38773 0.0488703 0
M  V30 3152 H 302.464 0.703655 -0.101934 0
M  V30 3153 H 305.066 1.71674 -0.935325 0
M  V30 3154 H 303.77 3.87874 -1.34098 0
M  V30 3155 H 303.301 3.91695 0.365873 0
M  V30 3156 H 305.316 4.79633 1.2715 0
M  V30 3157 N 304.489 0.459591 1.5075 0
M  V30 3158 C 305.399 -0.34613 2.32033 0
M  V30 3159 C 306.415 -1.00686 1.41909 0
M  V30 3160 O 307.591 -0.997361 1.7497 0
M  V30 3161 C 304.656 -1.42029 3.16273 0
M  V30 3162 C 303.717 -0.777362 4.22203 0
M  V30 3163 C 302.95 -1.80034 5.02418 0
M  V30 3164 O 303.173 -3.02544 4.83553 0
M  V30 3165 O 302.107 -1.37853 5.85901 0
M  V30 3166 H 305.933 0.318054 3.0203 0
M  V30 3167 H 303.518 0.221663 1.47746 0
M  V30 3168 H 305.4 -2.04275 3.68578 0
M  V30 3169 H 304.075 -2.06815 2.49016 0
M  V30 3170 H 302.982 -0.116256 3.73919 0
M  V30 3171 H 304.315 -0.172634 4.91897 0
M  V30 3172 N 305.967 -1.56429 0.191757 0
M  V30 3173 C 307.244 -1.89224 -0.495332 0
M  V30 3174 C 307.624 -1.10478 -1.79883 0
M  V30 3175 O 306.972 -0.204852 -2.2758 0
M  V30 3176 C 307.182 -3.41548 -0.717367 0
M  V30 3177 C 308.53 -4.11711 -1.03823 0
M  V30 3178 O 309.554 -3.4698 -0.805204 0
M  V30 3179 O 308.413 -5.2611 -1.47887 0
M  V30 3180 H 305.507 -0.785788 -0.25781 0
M  V30 3181 H 308.053 -1.68111 0.231721 0
M  V30 3182 H 306.825 -3.90772 0.203287 0
M  V30 3183 H 306.448 -3.68342 -1.497 0
M  V30 3184 N 307.445 0.0818655 -1.57387 0
M  V30 3185 C 308.856 0.634871 -1.75574 0
M  V30 3186 C 309.207 1.78435 -0.815809 0
M  V30 3187 O 308.332 2.164 0.0025366 0
M  V30 3188 C 308.927 1.15845 -3.18379 0
M  V30 3189 C 307.486 1.65741 -3.37945 0
M  V30 3190 C 306.633 0.572549 -2.71325 0
M  V30 3191 H 309.584 -0.144268 -1.58043 0
M  V30 3192 H 309.605 2.02751 -3.21982 0
M  V30 3193 H 309.117 0.321631 -3.86765 0
M  V30 3194 H 307.218 2.51781 -2.74658 0
M  V30 3195 H 307.331 1.74129 -4.46336 0
M  V30 3196 H 305.695 1.01518 -2.33594 0
M  V30 3197 H 306.478 -0.253918 -3.4236 0
M  V30 3198 N 308.923 1.53595 0.353017 0
M  V30 3199 C 309.833 1.83897 1.45667 0
M  V30 3200 C 310.849 0.728334 1.58023 0
M  V30 3201 O 312.025 1.01968 1.73679 0
M  V30 3202 C 309.09 2.03383 2.80778 0
M  V30 3203 C 308.151 3.27262 2.77845 0
M  V30 3204 C 307.384 3.45809 4.06512 0
M  V30 3205 O 307.607 2.68387 5.03314 0
M  V30 3206 O 306.541 4.39207 4.11559 0
M  V30 3207 H 310.367 2.77686 1.2298 0
M  V30 3208 H 307.952 1.39132 0.544308 0
M  V30 3209 H 309.834 2.17698 3.60812 0
M  V30 3210 H 308.509 1.12783 3.03417 0
M  V30 3211 H 307.416 3.18359 1.96465 0
M  V30 3212 H 308.749 4.17824 2.60161 0
M  V30 3213 N 310.401 -0.613514 1.45168 0
M  V30 3214 C 311.311 -1.75296 1.55912 0
M  V30 3215 C 312.327 -1.68244 0.443856 0
M  V30 3216 O 313.503 -1.88706 0.70371 0
M  V30 3217 C 310.568 -3.1174 1.5172 0
M  V30 3218 C 309.629 -3.30291 2.74238 0
M  V30 3219 C 308.862 -4.60226 2.70236 0
M  V30 3220 O 309.085 -5.42168 1.77229 0
M  V30 3221 O 308.019 -4.81361 3.61352 0
M  V30 3222 H 311.845 -1.69183 2.52212 0
M  V30 3223 H 309.43 -0.776886 1.27612 0
M  V30 3224 H 311.312 -3.93044 1.51968 0
M  V30 3225 H 309.987 -3.18357 0.585697 0
M  V30 3226 H 308.894 -2.48598 2.79553 0
M  V30 3227 H 310.227 -3.28547 3.66494 0
M  V30 3228 N 311.879 -1.3236 -0.855495 0
M  V30 3229 C 312.789 -1.23221 -1.99634 0
M  V30 3230 C 313.805 -0.145983 -1.73387 0
M  V30 3231 O 314.981 -0.366502 -1.98037 0
M  V30 3232 C 312.046 -0.954782 -3.33294 0
M  V30 3233 C 311.107 -2.12937 -3.72769 0
M  V30 3234 C 310.34 -1.86508 -5.00051 0
M  V30 3235 O 310.563 -0.807231 -5.64659 0
M  V30 3236 O 309.497 -2.72591 -5.36636 0
M  V30 3237 H 313.323 -2.19126 -2.1028 0
M  V30 3238 H 310.908 -1.12241 -0.986018 0
M  V30 3239 H 312.79 -0.816519 -4.13414 0
M  V30 3240 H 311.465 -0.0258854 -3.2369 0
M  V30 3241 H 310.372 -2.3231 -2.93228 0
M  V30 3242 H 311.705 -3.04102 -3.87018 0
M  V30 3243 N 313.357 1.07166 -1.15556 0
M  V30 3244 C 314.603 1.80065 -0.932984 0
M  V30 3245 C 314.936 1.86586 0.53845 0
M  V30 3246 O 314.211 1.35098 1.39924 0
M  V30 3247 C 314.494 3.25022 -1.55025 0
M  V30 3248 C 314.347 3.26634 -3.09242 0
M  V30 3249 C 315.666 4.22341 -1.2376 0
M  V30 3250 H 312.785 0.653697 -0.340366 0
M  V30 3251 H 315.427 1.25389 -1.4275 0
M  V30 3252 H 313.577 3.71712 -1.12972 0
M  V30 3253 H 315.249 2.88173 -3.60214 0
M  V30 3254 H 313.492 2.65539 -3.43033 0
M  V30 3255 H 314.163 4.28854 -3.47546 0
M  V30 3256 H 316.639 3.8405 -1.60139 0
M  V30 3257 H 315.515 5.22053 -1.69564 0
M  V30 3258 H 315.776 4.41828 -0.154938 0
M  V30 3259 N 314.835 0.952656 1.25548 0
M  V30 3260 C 315.798 0.475794 2.24207 0
M  V30 3261 C 316.798 -0.419428 1.55234 0
M  V30 3262 O 317.988 -0.216994 1.72843 0
M  V30 3263 C 315.12 -0.312814 3.39462 0
M  V30 3264 H 316.313 1.34779 2.67908 0
M  V30 3265 H 313.866 0.735739 1.37901 0
M  V30 3266 H 314.601 -1.20257 3.01179 0
M  V30 3267 H 314.386 0.329404 3.90714 0
M  V30 3268 H 315.876 -0.635986 4.12729 0
M  V30 3269 N 316.313 -1.40141 0.720998 0
M  V30 3270 C 317.724 -1.83678 0.334553 0
M  V30 3271 C 318.075 -1.6027 -1.13173 0
M  V30 3272 O 317.2 -1.08643 -1.87152 0
M  V30 3273 C 317.795 -3.33437 0.600437 0
M  V30 3274 C 316.354 -3.75447 0.267642 0
M  V30 3275 C 315.501 -2.63296 0.870097 0
M  V30 3276 H 318.452 -1.29331 0.919732 0
M  V30 3277 H 318.473 -3.80269 -0.132517 0
M  V30 3278 H 317.985 -3.50442 1.66768 0
M  V30 3279 H 316.086 -3.64035 -0.794329 0
M  V30 3280 H 316.199 -4.73344 0.74042 0
M  V30 3281 H 314.563 -2.52954 0.297739 0
M  V30 3282 H 315.346 -2.83112 1.94172 0
M  V30 3283 N 317.792 -0.46758 -1.50504 0
M  V30 3284 C 318.755 0.317059 -2.26996 0
M  V30 3285 C 319.755 0.923513 -1.31635 0
M  V30 3286 O 320.945 0.793239 -1.55091 0
M  V30 3287 C 318.077 1.45134 -3.08462 0
M  V30 3288 H 319.27 -0.353723 -2.97807 0
M  V30 3289 H 316.823 -0.221545 -1.54722 0
M  V30 3290 H 317.558 2.15728 -2.4214 0
M  V30 3291 H 317.343 1.02232 -3.78538 0
M  V30 3292 H 318.833 2.00493 -3.66323 0
M  V30 3293 N 319.27 1.56325 -0.20005 0
M  V30 3294 C 320.495 2.02548 0.44597 0
M  V30 3295 C 320.92 1.07922 1.5406 0
M  V30 3296 O 320.278 0.0635775 1.81188 0
M  V30 3297 C 320.326 3.47175 0.974761 0
M  V30 3298 O 319.43 3.55671 2.08739 0
M  V30 3299 H 318.771 0.655862 0.103638 0
M  V30 3300 H 321.301 2.02201 -0.312381 0
M  V30 3301 H 321.311 3.87067 1.2901 0
M  V30 3302 H 319.986 4.15538 0.17347 0
M  V30 3303 H 318.563 3.27657 1.78032 0
M  V30 3304 N 320.748 -0.0735177 1.57428 0
M  V30 3305 C 321.988 -0.778363 1.89 0
M  V30 3306 C 322.352 -1.7483 0.793634 0
M  V30 3307 O 323.553 -2.49811 0.992367 0
M  V30 3308 C 321.824 -1.46929 3.25802 0
M  V30 3309 S 323.383 -2.20943 3.79117 0
M  V30 3310 H 320.201 -0.258874 0.662197 0
M  V30 3311 H 322.803 -0.0345338 1.95469 0
M  V30 3312 H 321.507 -0.749532 4.03497 0
M  V30 3313 H 321.038 -2.25258 3.22525 0
M  V30 3314 H 323.053 -3.47435 3.54265 0
M  V30 3315 N 322.226 -1.5378 -0.344866 0
M  V30 3316 C 323.451 -1.75211 -1.10977 0
M  V30 3317 C 323.876 -0.48936 -1.81623 0
M  V30 3318 O 323.234 0.557925 -1.72502 0
M  V30 3319 C 323.282 -2.93147 -2.09993 0
M  V30 3320 O 322.386 -2.63203 -3.17487 0
M  V30 3321 H 321.727 -0.581241 -0.321021 0
M  V30 3322 H 324.257 -2.00738 -0.395661 0
M  V30 3323 H 324.267 -3.19898 -2.53237 0
M  V30 3324 H 322.942 -3.84731 -1.5797 0
M  V30 3325 H 321.519 -2.47336 -2.79069 0
M  V30 3326 N 323.704 0.605807 -1.45491 0
M  V30 3327 C 324.614 1.74466 -1.56839 0
M  V30 3328 C 325.63 1.68006 -0.452772 0
M  V30 3329 O 326.806 1.8833 -0.713708 0
M  V30 3330 C 323.871 3.10931 -1.53371 0
M  V30 3331 C 322.932 3.28832 -2.75986 0
M  V30 3332 C 322.165 4.58787 -2.72673 0
M  V30 3333 O 322.388 5.4122 -1.80102 0
M  V30 3334 O 321.322 4.79438 -3.63899 0
M  V30 3335 H 325.148 1.67843 -2.53106 0
M  V30 3336 H 322.733 0.770108 -1.28022 0
M  V30 3337 H 324.615 3.92233 -1.54051 0
M  V30 3338 H 323.29 3.18042 -0.602572 0
M  V30 3339 H 322.197 2.47112 -2.80867 0
M  V30 3340 H 323.53 3.26599 -3.68231 0
M  V30 3341 N 325.182 1.32811 0.848464 0
M  V30 3342 C 326.132 1.18842 1.94578 0
M  V30 3343 C 327.116 0.0937517 1.60627 0
M  V30 3344 O 328.308 0.320887 1.74067 0
M  V30 3345 C 325.437 0.91999 3.30743 0
M  V30 3346 C 324.523 2.05665 3.70894 0
M  V30 3347 N 324.914 3.30579 3.8282 0
M  V30 3348 C 323.212 1.9612 4.00566 0
M  V30 3349 C 323.913 4.05067 4.17487 0
M  V30 3350 N 322.889 3.33419 4.2934 0
M  V30 3351 H 326.691 2.13536 2.0194 0
M  V30 3352 H 324.205 1.2468 1.0406 0
M  V30 3353 H 326.202 0.800859 4.09136 0
M  V30 3354 H 324.862 -0.0185076 3.24695 0
M  V30 3355 H 325.873 3.65441 3.66978 0
M  V30 3356 H 322.55 1.09871 4.02784 0
M  V30 3357 H 323.94 5.12815 4.34131 0
M  V30 3358 N 326.66 -1.06551 1.16123 0
M  V30 3359 C 328.076 -1.3142 0.905585 0
M  V30 3360 C 328.276 -1.96571 -0.442964 0
M  V30 3361 O 327.332 -2.23068 -1.18308 0
M  V30 3362 C 328.645 -2.19741 2.05267 0
M  V30 3363 C 330.193 -2.33165 2.08813 0
M  V30 3364 C 330.668 -3.24838 3.22868 0
M  V30 3365 N 332.159 -3.32421 3.22568 0
M  V30 3366 C 332.894 -4.0344 4.0746 0
M  V30 3367 N 332.39 -4.77003 5.02434 0
M  V30 3368 N 334.183 -3.99464 3.95456 0
M  V30 3369 H 326.334 -0.626548 2.02949 0
M  V30 3370 H 328.597 -0.338777 0.8854 0
M  V30 3371 H 328.303 -1.79142 3.02657 0
M  V30 3372 H 328.177 -3.20313 1.99198 0
M  V30 3373 H 330.564 -2.73013 1.12018 0
M  V30 3374 H 330.645 -1.3227 2.18948 0
M  V30 3375 H 330.289 -2.85708 4.19921 0
M  V30 3376 H 330.219 -4.25707 3.0997 0
M  V30 3377 H 332.71 -2.79994 2.53795 0
M  V30 3378 H 333.023 -5.28712 5.63634 0
M  V30 3379 H 331.368 -4.75992 5.06415 0
M  V30 3380 H 334.559 -3.4111 3.20564 0
M  V30 3381 H 334.732 -4.54544 4.61837 0
M  V30 3382 N 328.138 -0.959301 -1.25041 0
M  V30 3383 C 329.101 -0.487677 -2.23952 0
M  V30 3384 C 330.101 0.41119 -1.55454 0
M  V30 3385 O 331.291 0.207825 -1.72956 0
M  V30 3386 C 328.423 0.294807 -3.39623 0
M  V30 3387 H 329.616 -1.36198 -2.67189 0
M  V30 3388 H 327.169 -0.743042 -1.37508 0
M  V30 3389 H 327.904 1.18658 -3.01813 0
M  V30 3390 H 327.689 -0.35012 -3.90534 0
M  V30 3391 H 329.179 0.614089 -4.1306 0
M  V30 3392 N 329.616 1.39756 -0.72842 0
M  V30 3393 C 330.526 2.34444 -0.0855374 0
M  V30 3394 C 331.542 1.57976 0.729356 0
M  V30 3395 O 332.718 1.90301 0.659346 0
M  V30 3396 C 329.783 3.36965 0.815798 0
M  V30 3397 C 328.844 4.29299 -0.0105996 0
M  V30 3398 C 328.077 5.26923 0.84781 0
M  V30 3399 O 328.3 5.30859 2.08673 0
M  V30 3400 O 327.234 6.01249 0.279969 0
M  V30 3401 H 331.06 2.91065 -0.866892 0
M  V30 3402 H 328.645 1.4117 -0.48902 0
M  V30 3403 H 330.527 3.99804 1.33171 0
M  V30 3404 H 329.202 2.82739 1.57608 0
M  V30 3405 H 328.109 3.69703 -0.571877 0
M  V30 3406 H 329.442 4.86712 -0.73295 0
M  V30 3407 N 331.094 0.475555 1.50254 0
M  V30 3408 C 332.334 -0.0765802 2.04256 0
M  V30 3409 C 332.698 -1.36587 1.34937 0
M  V30 3410 O 333.899 -2.00066 1.79519 0
M  V30 3411 C 332.17 -0.251668 3.56513 0
M  V30 3412 S 333.729 -0.761716 4.32138 0
M  V30 3413 H 330.547 -0.0138456 0.710865 0
M  V30 3414 H 333.149 0.643714 1.84598 0
M  V30 3415 H 331.853 0.692404 4.04517 0
M  V30 3416 H 331.384 -0.997946 3.80532 0
M  V30 3417 H 333.399 -2.03451 4.52573 0
M  V30 3418 N 332.573 -1.56217 0.208337 0
M  V30 3419 C 333.483 -2.23316 -0.718836 0
M  V30 3420 C 334.499 -1.23648 -1.22422 0
M  V30 3421 O 335.675 -1.56423 -1.26861 0
M  V30 3422 C 332.74 -2.88968 -1.91568 0
M  V30 3423 C 331.801 -4.03943 -1.45357 0
M  V30 3424 C 331.034 -4.66455 -2.59337 0
M  V30 3425 O 331.257 -4.27919 -3.77149 0
M  V30 3426 O 330.191 -5.55686 -2.31293 0
M  V30 3427 H 334.017 -3.03182 -0.177315 0
M  V30 3428 H 331.602 -1.49384 -0.0215402 0
M  V30 3429 H 333.484 -3.30455 -2.61491 0
M  V30 3430 H 332.159 -2.12071 -2.44556 0
M  V30 3431 H 331.066 -3.67052 -0.722746 0
M  V30 3432 H 332.399 -4.82543 -0.970219 0
M  V30 3433 N 334.051 0.0651679 -1.57465 0
M  V30 3434 C 335.467 0.420105 -1.53972 0
M  V30 3435 C 335.667 1.78782 -0.929474 0
M  V30 3436 O 334.723 2.46771 -0.534839 0
M  V30 3437 C 336.036 0.355084 -2.98596 0
M  V30 3438 C 337.584 0.434792 -3.09965 0
M  V30 3439 C 338.059 0.399609 -4.56253 0
M  V30 3440 N 339.55 0.459488 -4.60915 0
M  V30 3441 C 340.285 0.454584 -5.71595 0
M  V30 3442 N 339.781 0.404102 -6.9162 0
M  V30 3443 N 341.574 0.501635 -5.59857 0
M  V30 3444 H 333.725 -0.830328 -1.95498 0
M  V30 3445 H 335.988 -0.312244 -0.895102 0
M  V30 3446 H 335.694 -0.583357 -3.46828 0
M  V30 3447 H 335.568 1.16275 -3.58831 0
M  V30 3448 H 337.955 1.36366 -2.61703 0
M  V30 3449 H 338.036 -0.40157 -2.52628 0
M  V30 3450 H 337.68 -0.525436 -5.05175 0
M  V30 3451 H 337.61 1.25359 -5.11461 0
M  V30 3452 H 340.101 0.502482 -3.74544 0
M  V30 3453 H 340.414 0.404468 -7.71741 0
M  V30 3454 H 338.759 0.37069 -6.94011 0
M  V30 3455 H 341.95 0.538812 -4.64989 0
M  V30 3456 H 342.123 0.494345 -6.46112 0
M  V30 3457 N 335.529 1.53961 0.336706 0
M  V30 3458 C 336.459 1.85417 1.41925 0
M  V30 3459 C 337.44 0.709856 1.5458 0
M  V30 3460 O 338.625 0.962396 1.68676 0
M  V30 3461 C 335.755 2.06985 2.78881 0
M  V30 3462 C 334.709 3.22813 2.81026 0
M  V30 3463 C 334.035 3.29727 4.20932 0
M  V30 3464 C 335.335 4.60767 2.45949 0
M  V30 3465 H 337.029 2.76079 1.15848 0
M  V30 3466 H 334.575 1.32839 0.555859 0
M  V30 3467 H 336.528 2.27575 3.54665 0
M  V30 3468 H 335.252 1.13061 3.06406 0
M  V30 3469 H 333.911 3.0209 2.07695 0
M  V30 3470 H 333.559 2.33385 4.45579 0
M  V30 3471 H 333.259 4.07566 4.23277 0
M  V30 3472 H 334.783 3.52536 4.98549 0
M  V30 3473 H 336.197 4.81325 3.11446 0
M  V30 3474 H 334.594 5.4106 2.59566 0
M  V30 3475 H 335.664 4.6391 1.41122 0
M  V30 3476 N 337.007 -0.598083 1.45811 0
M  V30 3477 C 337.937 -1.71873 1.58057 0
M  V30 3478 C 338.918 -1.64533 0.431615 0
M  V30 3479 O 340.103 -1.82787 0.65595 0
M  V30 3480 C 337.233 -3.10495 1.55597 0
M  V30 3481 C 336.187 -3.32654 2.69305 0
M  V30 3482 C 335.513 -4.71646 2.51902 0
M  V30 3483 C 336.813 -3.21981 4.11248 0
M  V30 3484 H 338.507 -1.61881 2.51863 0
M  V30 3485 H 336.053 -0.777372 1.21214 0
M  V30 3486 H 338.006 -3.88699 1.6276 0
M  V30 3487 H 336.73 -3.2135 0.583255 0
M  V30 3488 H 335.389 -2.56843 2.61586 0
M  V30 3489 H 335.037 -4.79246 1.52748 0
M  V30 3490 H 334.737 -4.87426 3.2816 0
M  V30 3491 H 336.261 -5.52038 2.60933 0
M  V30 3492 H 337.675 -3.90049 4.20161 0
M  V30 3493 H 336.072 -3.49289 4.87972 0
M  V30 3494 H 337.142 -2.1928 4.32486 0
M  V30 3495 N 338.485 -1.33259 -0.841409 0
M  V30 3496 C 339.713 -1.27605 -1.62864 0
M  V30 3497 C 340.128 0.153507 -1.88175 0
M  V30 3498 O 339.485 1.09485 -1.46011 0
M  V30 3499 C 339.536 -2.04596 -2.98031 0
M  V30 3500 O 339.257 -3.41975 -2.73834 0
M  V30 3501 C 340.758 -2.06122 -3.92465 0
M  V30 3502 H 337.978 -0.439718 -0.506842 0
M  V30 3503 H 340.522 -1.75591 -1.04824 0
M  V30 3504 H 338.677 -1.60299 -3.5268 0
M  V30 3505 H 339.091 -3.81549 -3.59889 0
M  V30 3506 H 340.565 -2.64451 -4.84531 0
M  V30 3507 H 341.042 -1.05083 -4.26444 0
M  V30 3508 H 341.648 -2.50427 -3.43753 0
M  V30 3509 N 339.963 1.05934 -1.16686 0
M  V30 3510 C 340.926 2.11669 -0.879144 0
M  V30 3511 C 341.926 1.60294 0.127445 0
M  V30 3512 O 343.116 1.7389 -0.103865 0
M  V30 3513 C 340.248 3.39438 -0.315425 0
M  V30 3514 H 341.441 2.38626 -1.81653 0
M  V30 3515 H 338.994 1.22058 -0.976299 0
M  V30 3516 H 339.729 3.18132 0.629468 0
M  V30 3517 H 339.514 3.78034 -1.04079 0
M  V30 3518 H 341.004 4.17391 -0.132189 0
M  V30 3519 N 341.441 0.965919 1.2453 0
M  V30 3520 C 342.351 0.502154 2.29163 0
M  V30 3521 C 343.367 -0.436017 1.68448 0
M  V30 3522 O 344.543 -0.309497 1.99008 0
M  V30 3523 C 341.608 -0.201956 3.46111 0
M  V30 3524 C 340.669 0.775821 4.22232 0
M  V30 3525 C 339.902 0.105217 5.33596 0
M  V30 3526 O 340.125 -1.10683 5.59558 0
M  V30 3527 O 339.059 0.796475 5.96607 0
M  V30 3528 H 342.885 1.37194 2.70946 0
M  V30 3529 H 340.47 0.732875 1.30189 0
M  V30 3530 H 342.352 -0.597564 4.17142 0
M  V30 3531 H 341.027 -1.04673 3.06309 0
M  V30 3532 H 339.934 1.22185 3.53584 0
M  V30 3533 H 341.267 1.58896 4.65846 0
M  V30 3534 N 342.919 -1.39368 0.735821 0
M  V30 3535 C 343.882 -2.2896 0.104874 0
M  V30 3536 C 344.882 -1.46347 -0.666274 0
M  V30 3537 O 346.072 -1.67014 -0.49517 0
M  V30 3538 C 343.204 -3.29857 -0.860656 0
M  V30 3539 H 344.397 -2.86259 0.894205 0
M  V30 3540 H 341.95 -1.48029 0.501704 0
M  V30 3541 H 342.685 -2.77615 -1.67631 0
M  V30 3542 H 342.47 -3.9087 -0.310327 0
M  V30 3543 H 343.96 -3.96893 -1.29867 0
M  V30 3544 N 344.397 -0.483516 -1.5 0
M  V30 3545 C 345.644 0.0671597 -2.02389 0
M  V30 3546 C 345.972 1.38597 -1.36459 0
M  V30 3547 O 345.227 1.89634 -0.483458 0
M  V30 3548 C 345.526 0.286226 -3.56252 0
M  V30 3549 C 345.192 -0.952416 -4.40726 0
M  V30 3550 C 343.854 -1.29199 -4.63531 0
M  V30 3551 C 346.206 -1.77655 -4.89988 0
M  V30 3552 C 343.534 -2.45553 -5.32842 0
M  V30 3553 C 345.886 -2.93147 -5.60578 0
M  V30 3554 C 344.55 -3.27505 -5.81633 0
M  V30 3555 H 343.82 0.0245755 -0.740592 0
M  V30 3556 H 346.467 -0.640124 -1.80485 0
M  V30 3557 H 344.772 1.07587 -3.76739 0
M  V30 3558 H 346.469 0.726473 -3.94365 0
M  V30 3559 H 343.059 -0.677881 -4.23205 0
M  V30 3560 H 347.243 -1.52737 -4.72213 0
M  V30 3561 H 342.499 -2.72431 -5.47349 0
M  V30 3562 H 346.673 -3.57344 -5.97727 0
M  V30 3563 H 344.3 -4.1777 -6.35116 0
M  V30 3564 N 345.875 1.56104 -0.216619 0
M  V30 3565 C 346.838 2.18819 0.681962 0
M  V30 3566 C 347.838 1.14866 1.12528 0
M  V30 3567 O 349.028 1.40128 1.03488 0
M  V30 3568 C 346.16 2.80756 1.93362 0
M  V30 3569 H 347.353 2.99595 0.135254 0
M  V30 3570 H 344.906 1.56265 0.0330003 0
M  V30 3571 H 345.641 2.03837 2.52232 0
M  V30 3572 H 345.426 3.56876 1.62426 0
M  V30 3573 H 346.916 3.28844 2.57393 0
M  V30 3574 N 347.353 -0.0568162 1.57498 0
M  V30 3575 C 348.63 -0.786954 1.79071 0
M  V30 3576 C 349.01 -1.95028 0.80792 0
M  V30 3577 O 348.358 -2.27968 -0.155858 0
M  V30 3578 C 348.568 -1.24594 3.26002 0
M  V30 3579 C 349.916 -1.67323 3.90241 0
M  V30 3580 O 350.94 -1.34124 3.29984 0
M  V30 3581 O 349.799 -2.28842 4.9628 0
M  V30 3582 H 346.893 -0.378262 0.735423 0
M  V30 3583 H 349.439 -0.035734 1.69662 0
M  V30 3584 H 348.211 -0.41423 3.89101 0
M  V30 3585 H 347.834 -2.05803 3.40192 0
M  V30 3586 N 348.832 -1.54138 -0.328536 0
M  V30 3587 C 350.072 -1.73827 -1.07534 0
M  V30 3588 C 350.436 -0.498777 -1.85408 0
M  V30 3589 O 351.637 -0.572937 -2.62623 0
M  V30 3590 C 349.908 -2.97573 -1.97952 0
M  V30 3591 S 351.467 -3.38143 -2.79652 0
M  V30 3592 H 348.285 -0.611287 -0.36311 0
M  V30 3593 H 350.887 -1.92306 -0.351931 0
M  V30 3594 H 349.591 -3.85939 -1.39569 0
M  V30 3595 H 349.122 -2.81603 -2.74706 0
M  V30 3596 H 351.137 -2.93052 -4.00418 0
M  V30 3597 N 350.31 0.590341 -1.46126 0
M  V30 3598 C 351.242 1.71427 -1.52136 0
M  V30 3599 C 352.255 1.57542 -0.41042 0
M  V30 3600 O 353.444 1.65106 -0.678389 0
M  V30 3601 C 350.544 3.09605 -1.37834 0
M  V30 3602 C 349.717 3.49566 -2.62912 0
M  V30 3603 C 348.776 4.66773 -2.42918 0
M  V30 3604 O 347.802 4.73019 -3.1661 0
M  V30 3605 N 349.004 5.61161 -1.4859 0
M  V30 3606 H 351.769 1.66728 -2.49042 0
M  V30 3607 H 349.33 0.776113 -1.42085 0
M  V30 3608 H 351.322 3.85796 -1.22243 0
M  V30 3609 H 349.892 3.08714 -0.491393 0
M  V30 3610 H 349.112 2.63158 -2.93499 0
M  V30 3611 H 350.4 3.73028 -3.46017 0
M  V30 3612 H 349.798 5.58844 -0.87808 0
M  V30 3613 H 348.355 6.36814 -1.38965 0
M  V30 3614 N 351.788 1.33704 0.83433 0
M  V30 3615 C 353.065 1.16011 1.57483 0
M  V30 3616 C 353.445 -0.27176 2.09343 0
M  V30 3617 O 352.793 -1.27146 1.89858 0
M  V30 3618 C 353.003 2.20507 2.70514 0
M  V30 3619 C 354.351 2.54898 3.39577 0
M  V30 3620 O 355.375 2.19209 2.80759 0
M  V30 3621 O 354.234 3.16158 4.45765 0
M  V30 3622 H 351.328 0.448992 0.694503 0
M  V30 3623 H 353.874 1.453 0.876691 0
M  V30 3624 H 352.646 3.16667 2.29865 0
M  V30 3625 H 352.269 1.92329 3.47987 0
M  V30 3626 N 353.266 -1.05314 1.17247 0
M  V30 3627 C 354.196 -2.1498 0.911362 0
M  V30 3628 C 355.177 -1.69471 -0.146169 0
M  V30 3629 O 356.362 -1.942 0.003812 0
M  V30 3630 C 353.492 -3.4472 0.422528 0
M  V30 3631 C 352.446 -4.03789 1.4191 0
M  V30 3632 C 351.772 -5.28858 0.788274 0
M  V30 3633 C 353.072 -4.41418 2.7919 0
M  V30 3634 H 354.766 -2.3708 1.82848 0
M  V30 3635 H 352.312 -1.13938 0.880569 0
M  V30 3636 H 354.265 -4.20787 0.227289 0
M  V30 3637 H 352.989 -3.22269 -0.530123 0
M  V30 3638 H 351.648 -3.2979 1.60106 0
M  V30 3639 H 351.296 -5.02709 -0.171173 0
M  V30 3640 H 350.996 -5.69338 1.45353 0
M  V30 3641 H 352.52 -6.07612 0.603282 0
M  V30 3642 H 353.934 -5.08524 2.64719 0
M  V30 3643 H 352.331 -4.92913 3.42282 0
M  V30 3644 H 353.401 -3.51819 3.33693 0
M  V30 3645 N 354.744 -0.972509 -1.24016 0
M  V30 3646 C 355.99 -0.637978 -1.92504 0
M  V30 3647 C 356.323 0.825383 -1.75787 0
M  V30 3648 O 355.598 1.59442 -1.11393 0
M  V30 3649 C 355.881 -1.01942 -3.45369 0
M  V30 3650 C 355.734 -2.53983 -3.71231 0
M  V30 3651 C 357.053 -0.55751 -4.36555 0
M  V30 3652 H 354.172 -0.233248 -0.699117 0
M  V30 3653 H 356.814 -1.21238 -1.46292 0
M  V30 3654 H 354.964 -0.530656 -3.84859 0
M  V30 3655 H 356.636 -3.10374 -3.41271 0
M  V30 3656 H 354.879 -2.96968 -3.16216 0
M  V30 3657 H 355.55 -2.75723 -4.78206 0
M  V30 3658 H 358.026 -0.977029 -4.04467 0
M  V30 3659 H 356.902 -0.85292 -5.42233 0
M  V30 3660 H 357.163 0.542328 -4.38761 0
M  V30 3661 N 356.222 1.38976 -0.743202 0
M  V30 3662 C 357.633 1.83123 -0.363732 0
M  V30 3663 C 357.984 1.6205 1.10609 0
M  V30 3664 O 357.109 1.11606 1.854 0
M  V30 3665 C 357.704 3.32439 -0.653408 0
M  V30 3666 C 356.263 3.74974 -0.327338 0
M  V30 3667 C 355.41 2.61878 -0.911875 0
M  V30 3668 H 358.361 1.27852 -0.940191 0
M  V30 3669 H 358.382 3.80432 0.0720031 0
M  V30 3670 H 357.894 3.47745 -1.72323 0
M  V30 3671 H 355.995 3.65252 0.736314 0
M  V30 3672 H 356.108 4.72106 -0.815631 0
M  V30 3673 H 354.472 2.52448 -0.337944 0
M  V30 3674 H 355.255 2.79987 -1.98651 0
M  V30 3675 N 357.7 0.491464 1.49741 0
M  V30 3676 C 358.63 -0.28154 2.31796 0
M  V30 3677 C 359.611 -0.971473 1.3963 0
M  V30 3678 O 360.796 -0.964719 1.68543 0
M  V30 3679 C 357.926 -1.35203 3.19902 0
M  V30 3680 C 356.88 -0.782529 4.20786 0
M  V30 3681 C 356.206 -1.95283 4.97764 0
M  V30 3682 C 357.506 0.21999 5.21837 0
M  V30 3683 H 359.2 0.403355 2.96671 0
M  V30 3684 H 356.746 0.195425 1.42668 0
M  V30 3685 H 358.699 -1.90045 3.76113 0
M  V30 3686 H 357.423 -2.06598 2.52953 0
M  V30 3687 H 356.082 -0.255928 3.65706 0
M  V30 3688 H 355.73 -2.65423 4.2727 0
M  V30 3689 H 355.43 -1.57789 5.66018 0
M  V30 3690 H 356.954 -2.50577 5.56816 0
M  V30 3691 H 358.368 -0.23996 5.72798 0
M  V30 3692 H 356.765 0.51026 5.97927 0
M  V30 3693 H 357.835 1.13911 4.7133 0
M  V30 3694 N 359.178 -1.55987 0.224894 0
M  V30 3695 C 360.088 -2.24066 -0.69511 0
M  V30 3696 C 361.104 -1.24939 -1.21104 0
M  V30 3697 O 362.28 -1.5776 -1.25195 0
M  V30 3698 C 359.345 -2.90983 -1.88493 0
M  V30 3699 C 358.406 -4.05462 -1.41064 0
M  V30 3700 C 357.639 -4.69179 -2.54375 0
M  V30 3701 O 357.862 -4.31895 -3.72589 0
M  V30 3702 O 356.796 -5.58108 -2.25386 0
M  V30 3703 H 360.622 -3.03353 -0.145149 0
M  V30 3704 H 358.207 -1.49399 -0.00569476 0
M  V30 3705 H 360.089 -3.33209 -2.57972 0
M  V30 3706 H 358.764 -2.14653 -2.42293 0
M  V30 3707 H 357.671 -3.67798 -0.683774 0
M  V30 3708 H 359.004 -4.83545 -0.918985 0
M  V30 3709 N 360.656 0.0484629 -1.57525 0
M  V30 3710 C 362.067 0.597486 -1.76881 0
M  V30 3711 C 362.418 1.76664 -0.853475 0
M  V30 3712 O 361.543 2.16357 -0.0433656 0
M  V30 3713 C 362.138 1.09066 -3.20765 0
M  V30 3714 C 360.697 1.58535 -3.41385 0
M  V30 3715 C 359.844 0.514868 -2.72478 0
M  V30 3716 H 362.795 -0.177758 -1.57701 0
M  V30 3717 H 362.816 1.95875 -3.2621 0
M  V30 3718 H 362.328 0.239521 -3.8736 0
M  V30 3719 H 360.429 2.45898 -2.79937 0
M  V30 3720 H 360.542 1.64622 -4.49929 0
M  V30 3721 H 358.906 0.965407 -2.35695 0
M  V30 3722 H 359.689 -0.32648 -3.41744 0
M  V30 3723 N 362.134 1.5431 0.320358 0
M  V30 3724 C 363.364 1.7638 1.07582 0
M  V30 3725 C 363.772 0.513944 1.82086 0
M  V30 3726 O 363.115 -0.525123 1.76035 0
M  V30 3727 C 363.177 2.9055 2.1171 0
M  V30 3728 C 362.841 4.2934 1.56575 0
M  V30 3729 C 363.838 5.10077 1.00586 0
M  V30 3730 C 361.523 4.75893 1.60722 0
M  V30 3731 C 363.517 6.35477 0.494756 0
M  V30 3732 C 361.204 6.0126 1.09224 0
M  V30 3733 C 362.202 6.80886 0.53696 0
M  V30 3734 O 361.89 8.03894 0.0297371 0
M  V30 3735 H 361.622 0.592369 0.325692 0
M  V30 3736 H 364.176 2.02019 0.37116 0
M  V30 3737 H 362.406 2.60489 2.85801 0
M  V30 3738 H 364.095 3.00373 2.73003 0
M  V30 3739 H 364.861 4.75265 0.966869 0
M  V30 3740 H 360.74 4.13957 2.02882 0
M  V30 3741 H 364.284 6.97574 0.0606842 0
M  V30 3742 H 360.181 6.35562 1.12831 0
M  V30 3743 H 360.949 8.18372 0.14486 0
M  V30 3744 N 363.613 -0.582584 1.46437 0
M  V30 3745 C 364.543 -1.70187 1.59871 0
M  V30 3746 C 365.524 -1.64066 0.449042 0
M  V30 3747 O 366.709 -1.82081 0.6753 0
M  V30 3748 C 363.839 -3.08827 1.58881 0
M  V30 3749 C 362.793 -3.29779 2.72819 0
M  V30 3750 C 362.119 -4.68947 2.5689 0
M  V30 3751 C 363.419 -3.17601 4.1464 0
M  V30 3752 H 365.113 -1.592 2.53566 0
M  V30 3753 H 362.659 -0.764472 1.22032 0
M  V30 3754 H 364.612 -3.86951 1.66873 0
M  V30 3755 H 363.336 -3.20713 0.617306 0
M  V30 3756 H 361.995 -2.54054 2.64296 0
M  V30 3757 H 361.643 -4.77599 1.57823 0
M  V30 3758 H 361.343 -4.83919 3.33312 0
M  V30 3759 H 362.867 -5.4924 2.66773 0
M  V30 3760 H 364.281 -3.8557 4.24274 0
M  V30 3761 H 362.678 -3.44094 4.9165 0
M  V30 3762 H 363.748 -2.14681 4.34788 0
M  V30 3763 N 365.091 -1.34144 -0.827227 0
M  V30 3764 C 366.507 -1.13732 -1.11969 0
M  V30 3765 C 366.707 0.0640463 -2.01398 0
M  V30 3766 O 365.763 0.740856 -2.41387 0
M  V30 3767 C 367.076 -2.43047 -1.77055 0
M  V30 3768 C 368.624 -2.49063 -1.89569 0
M  V30 3769 C 369.099 -3.78369 -2.58072 0
M  V30 3770 N 370.59 -3.79505 -2.65575 0
M  V30 3771 C 371.325 -4.76274 -3.19297 0
M  V30 3772 N 370.821 -5.83424 -3.73616 0
M  V30 3773 N 372.614 -4.63735 -3.17658 0
M  V30 3774 H 364.765 -2.11126 -0.232296 0
M  V30 3775 H 367.028 -0.933424 -0.165602 0
M  V30 3776 H 366.734 -3.31025 -1.18807 0
M  V30 3777 H 366.608 -2.56066 -2.76966 0
M  V30 3778 H 368.995 -1.61527 -2.46968 0
M  V30 3779 H 369.076 -2.39975 -0.885745 0
M  V30 3780 H 368.72 -4.66293 -2.01329 0
M  V30 3781 H 368.65 -3.84737 -3.59562 0
M  V30 3782 H 371.141 -3.02074 -2.27068 0
M  V30 3783 H 371.454 -6.53282 -4.12846 0
M  V30 3784 H 369.799 -5.87143 -3.71871 0
M  V30 3785 H 372.99 -3.79177 -2.74486 0
M  V30 3786 H 373.163 -5.39318 -3.59221 0
M  V30 3787 N 366.569 1.04691 -1.17803 0
M  V30 3788 C 367.532 2.10724 -0.901545 0
M  V30 3789 C 368.532 1.6042 0.110437 0
M  V30 3790 O 369.722 1.7377 -0.122303 0
M  V30 3791 C 366.854 3.39084 -0.351409 0
M  V30 3792 H 368.047 2.36686 -1.84174 0
M  V30 3793 H 365.6 1.21015 -0.98919 0
M  V30 3794 H 366.335 3.18782 0.59569 0
M  V30 3795 H 366.12 3.76909 -1.08083 0
M  V30 3796 H 367.61 4.17227 -0.176451 0
M  V30 3797 N 368.047 0.979072 1.23499 0
M  V30 3798 C 369.287 0.655228 1.93613 0
M  V30 3799 C 369.651 -0.796336 1.74707 0
M  V30 3800 O 370.852 -1.23094 2.38959 0
M  V30 3801 C 369.123 1.03337 3.42135 0
M  V30 3802 S 370.682 0.825793 4.3096 0
M  V30 3803 H 367.5 0.240004 0.669267 0
M  V30 3804 H 370.102 1.25843 1.49612 0
M  V30 3805 H 368.806 2.08646 3.53405 0
M  V30 3806 H 368.337 0.421397 3.91137 0
M  V30 3807 H 370.352 -0.290991 4.95346 0
M  V30 3808 N 369.525 -1.3858 0.750561 0
M  V30 3809 C 370.457 -2.29057 0.0810714 0
M  V30 3810 C 371.47 -1.47596 -0.686973 0
M  V30 3811 O 372.659 -1.70495 -0.528563 0
M  V30 3812 C 369.759 -3.26475 -0.909247 0
M  V30 3813 C 368.932 -4.36945 -0.199478 0
M  V30 3814 C 367.991 -5.14572 -1.10011 0
M  V30 3815 O 367.017 -5.66321 -0.57177 0
M  V30 3816 N 368.219 -5.27262 -2.42849 0
M  V30 3817 H 370.984 -2.87153 0.858087 0
M  V30 3818 H 368.545 -1.50328 0.60109 0
M  V30 3819 H 370.537 -3.75285 -1.51471 0
M  V30 3820 H 369.107 -2.69298 -1.58736 0
M  V30 3821 H 368.327 -3.8981 0.586664 0
M  V30 3822 H 369.615 -5.07963 0.291783 0
M  V30 3823 H 369.013 -4.86763 -2.88233 0
M  V30 3824 H 367.57 -5.79456 -2.98453 0
M  V30 3825 N 371.003 -0.499398 -1.49478 0
M  V30 3826 C 371.935 0.316575 -2.27003 0
M  V30 3827 C 372.948 0.932047 -1.33479 0
M  V30 3828 O 374.137 0.815658 -1.58774 0
M  V30 3829 C 371.237 1.46055 -3.05812 0
M  V30 3830 C 370.41 0.952679 -4.26899 0
M  V30 3831 C 369.469 1.97407 -4.87767 0
M  V30 3832 O 368.495 1.54326 -5.4788 0
M  V30 3833 N 369.697 3.30436 -4.77276 0
M  V30 3834 H 372.462 -0.348168 -2.97671 0
M  V30 3835 H 370.023 -0.33185 -1.58463 0
M  V30 3836 H 372.015 2.14135 -3.43407 0
M  V30 3837 H 370.585 2.02948 -2.37762 0
M  V30 3838 H 369.805 0.0968248 -3.94081 0
M  V30 3839 H 371.093 0.59174 -5.05347 0
M  V30 3840 H 370.491 3.68126 -4.29534 0
M  V30 3841 H 369.048 3.94235 -5.19059 0
M  V30 3842 N 372.481 1.55866 -0.233164 0
M  V30 3843 C 373.758 1.90471 0.444988 0
M  V30 3844 C 374.138 1.15209 1.7689 0
M  V30 3845 O 373.486 0.265119 2.26957 0
M  V30 3846 C 373.696 3.4333 0.626559 0
M  V30 3847 C 375.044 4.14319 0.92871 0
M  V30 3848 O 376.068 3.48993 0.712926 0
M  V30 3849 O 374.927 5.29846 1.33887 0
M  V30 3850 H 372.021 0.792347 0.236885 0
M  V30 3851 H 374.567 1.67437 -0.276211 0
M  V30 3852 H 373.339 3.90095 -0.306822 0
M  V30 3853 H 372.962 3.72181 1.39881 0
M  V30 3854 N 373.959 -0.0401083 1.57549 0
M  V30 3855 C 375.375 -0.395556 1.54621 0
M  V30 3856 C 375.575 -1.77281 0.957799 0
M  V30 3857 O 374.631 -2.45888 0.574031 0
M  V30 3858 C 375.944 -0.307535 2.99123 0
M  V30 3859 C 377.492 -0.385425 3.10618 0
M  V30 3860 C 377.967 -0.326973 4.56831 0
M  V30 3861 N 379.458 -0.386102 4.61588 0
M  V30 3862 C 380.193 -0.363591 5.72246 0
M  V30 3863 N 379.689 -0.29402 6.92176 0
M  V30 3864 N 381.482 -0.412503 5.60584 0
M  V30 3865 H 373.633 0.861325 1.94152 0
M  V30 3866 H 375.896 0.326445 0.890021 0
M  V30 3867 H 375.602 0.638461 3.45856 0
M  V30 3868 H 375.476 -1.10552 3.60636 0
M  V30 3869 H 377.863 -1.32185 2.63839 0
M  V30 3870 H 377.944 0.44171 2.51957 0
M  V30 3871 H 377.588 0.605738 5.04275 0
M  V30 3872 H 377.518 -1.17207 5.13391 0
M  V30 3873 H 380.009 -0.442832 3.75296 0
M  V30 3874 H 380.322 -0.28164 7.72287 0
M  V30 3875 H 378.667 -0.260232 6.94513 0
M  V30 3876 H 381.858 -0.464769 4.65787 0
M  V30 3877 H 382.031 -0.391492 6.46816 0
M  V30 3878 N 375.437 -1.54477 -0.31217 0
M  V30 3879 C 376.677 -1.74958 -1.05684 0
M  V30 3880 C 377.041 -0.518414 -1.84869 0
M  V30 3881 O 378.242 -0.600759 -2.62001 0
M  V30 3882 C 376.513 -2.99656 -1.94785 0
M  V30 3883 S 378.072 -3.4109 -2.76049 0
M  V30 3884 H 374.89 -0.615104 -0.356606 0
M  V30 3885 H 377.492 -1.92669 -0.331514 0
M  V30 3886 H 376.196 -3.87397 -1.35468 0
M  V30 3887 H 375.727 -2.845 -2.71704 0
M  V30 3888 H 377.742 -2.97283 -3.97287 0
M  V30 3889 N 376.915 0.57481 -1.46744 0
M  V30 3890 C 378.331 0.898981 -1.31873 0
M  V30 3891 C 378.531 1.99313 -0.29605 0
M  V30 3892 O 377.587 2.50728 0.298621 0
M  V30 3893 C 378.9 1.30886 -2.7072 0
M  V30 3894 C 380.448 1.42127 -2.78871 0
M  V30 3895 C 380.923 1.86478 -4.18318 0
M  V30 3896 N 382.414 1.93658 -4.20774 0
M  V30 3897 C 383.149 2.29267 -5.2557 0
M  V30 3898 N 382.645 2.63612 -6.40688 0
M  V30 3899 N 384.438 2.29889 -5.1294 0
M  V30 3900 H 376.589 -0.147839 -2.11885 0
M  V30 3901 H 378.852 -0.00347013 -0.947994 0
M  V30 3902 H 378.558 0.578853 -3.46904 0
M  V30 3903 H 378.432 2.26874 -3.01343 0
M  V30 3904 H 380.819 2.14213 -2.0297 0
M  V30 3905 H 380.9 0.443705 -2.51922 0
M  V30 3906 H 380.544 1.14968 -4.94717 0
M  V30 3907 H 380.474 2.85207 -4.42679 0
M  V30 3908 H 382.965 1.69574 -3.37718 0
M  V30 3909 H 383.278 2.89759 -7.16421 0
M  V30 3910 H 381.623 2.61232 -6.44036 0
M  V30 3911 H 384.814 2.02485 -4.22039 0
M  V30 3912 H 384.987 2.57312 -5.94722 0
M  V30 3913 N 378.394 1.34581 0.820102 0
M  V30 3914 C 379.634 1.28448 1.58998 0
M  V30 3915 C 379.998 -0.142883 1.91468 0
M  V30 3916 O 381.199 -0.328422 2.66786 0
M  V30 3917 C 379.47 2.153 2.85273 0
M  V30 3918 S 381.029 2.26548 3.75794 0
M  V30 3919 H 377.847 0.456685 0.54494 0
M  V30 3920 H 380.449 1.69825 0.968487 0
M  V30 3921 H 379.153 3.18008 2.59421 0
M  V30 3922 H 378.684 1.7483 3.52417 0
M  V30 3923 H 380.699 1.44034 4.74835 0
M  V30 3924 N 379.872 -1.04064 1.18357 0
M  V30 3925 C 381.283 -1.58719 0.98312 0
M  V30 3926 C 381.634 -1.90556 -0.467193 0
M  V30 3927 O 380.759 -1.69561 -1.34454 0
M  V30 3928 C 381.354 -2.88379 1.77828 0
M  V30 3929 C 379.913 -3.3965 1.62218 0
M  V30 3930 C 379.06 -2.13235 1.77274 0
M  V30 3931 H 382.011 -0.867359 1.32901 0
M  V30 3932 H 382.032 -3.58773 1.26737 0
M  V30 3933 H 381.544 -2.65176 2.83379 0
M  V30 3934 H 379.645 -3.67866 0.592036 0
M  V30 3935 H 379.758 -4.13475 2.42023 0
M  V30 3936 H 378.122 -2.24542 1.20221 0
M  V30 3937 H 378.905 -1.92487 2.8426 0
M  V30 3938 N 381.35 -0.985608 -1.22978 0
M  V30 3939 C 382.598 -0.656087 -1.91154 0
M  V30 3940 C 382.919 0.813561 -1.77218 0
M  V30 3941 O 382.189 1.58244 -1.1548 0
M  V30 3942 H 380.769 -0.239674 -0.707506 0
M  V30 3943 H 383.431 -1.25054 -1.49491 0
M  V30 3944 H 382.527 -0.912253 -2.9847 0
M  V30 3945 N 382.828 1.3818 -0.7579 0
M  V30 3946 C 384.076 1.99624 -0.315361 0
M  V30 3947 C 384.397 1.60464 1.10799 0
M  V30 3948 O 383.667 0.863507 1.75842 0
M  V30 3949 H 382.247 0.73831 -0.113611 0
M  V30 3950 H 384.909 1.68878 -0.972952 0
M  V30 3951 H 384.005 3.09754 -0.381931 0
M  V30 3952 N 384.306 0.507319 1.49211 0
M  V30 3953 C 385.583 -0.0982702 1.95353 0
M  V30 3954 C 385.963 -1.53516 1.449 0
M  V30 3955 O 385.311 -2.18594 0.66551 0
M  V30 3956 C 385.521 -0.00440283 3.49 0
M  V30 3957 C 386.869 -0.175147 4.24239 0
M  V30 3958 O 387.893 -0.0792891 3.56112 0
M  V30 3959 O 386.752 -0.37276 5.45227 0
M  V30 3960 H 383.846 -0.0918236 0.821887 0
M  V30 3961 H 386.392 0.570307 1.5983 0
M  V30 3962 H 385.164 0.997402 3.78375 0
M  V30 3963 H 384.787 -0.712845 3.91158 0
M  V30 3964 N 385.784 -1.5574 0.241426 0
M  V30 3965 C 387.012 -2.03208 -0.389134 0
M  V30 3966 C 387.427 -1.12082 -1.51931 0
M  V30 3967 O 386.784 -0.134183 -1.82006 0
M  V30 3968 C 386.835 -3.50064 -0.902087 0
M  V30 3969 O 386.556 -4.37717 0.18305 0
M  V30 3970 C 388.057 -4.13268 -1.60389 0
M  V30 3971 H 385.277 -0.664509 -0.0931053 0
M  V30 3972 H 387.821 -2.0124 0.36369 0
M  V30 3973 H 385.976 -3.52583 -1.60511 0
M  V30 3974 H 386.39 -5.24097 -0.205579 0
M  V30 3975 H 387.864 -5.17733 -1.91458 0
M  V30 3976 H 388.341 -3.59434 -2.52397 0
M  V30 3977 H 388.947 -4.14655 -0.945576 0
M  V30 3978 N 387.262 0.0317525 -1.57568 0
M  V30 3979 C 388.502 0.727979 -1.90997 0
M  V30 3980 C 388.866 1.72664 -0.839708 0
M  V30 3981 O 390.067 2.47092 -1.05825 0
M  V30 3982 C 388.338 1.38239 -3.29583 0
M  V30 3983 S 389.897 2.10814 -3.84841 0
M  V30 3984 H 386.715 0.241226 -0.668828 0
M  V30 3985 H 389.317 -0.0173037 -1.95492 0
M  V30 3986 H 388.021 0.642288 -4.05343 0
M  V30 3987 H 387.552 2.16628 -3.28384 0
M  V30 3988 H 389.567 3.3792 -3.63352 0
M  V30 3989 N 388.74 1.54641 0.303973 0
M  V30 3990 C 389.986 1.74038 1.04109 0
M  V30 3991 C 390.319 0.523051 1.87024 0
M  V30 3992 O 389.594 -0.479874 1.88487 0
M  V30 3993 C 389.877 3.02761 1.94955 0
M  V30 3994 C 389.73 4.34787 1.1524 0
M  V30 3995 C 391.049 3.27336 2.94175 0
M  V30 3996 H 388.168 0.63323 0.377079 0
M  V30 3997 H 390.81 1.87354 0.316001 0
M  V30 3998 H 388.96 2.9154 2.56782 0
M  V30 3999 H 390.632 4.57922 0.557236 0
M  V30 4000 H 388.875 4.31407 0.455053 0
M  V30 4001 H 389.546 5.21116 1.8205 0
M  V30 4002 H 392.022 3.38148 2.42477 0
M  V30 4003 H 390.898 4.18726 3.54908 0
M  V30 4004 H 391.159 2.45491 3.67677 0
M  V30 4005 N 390.218 -0.567019 1.47046 0
M  V30 4006 C 391.458 -1.3355 1.54738 0
M  V30 4007 C 391.822 -1.90947 0.200772 0
M  V30 4008 O 393.023 -2.68367 0.152489 0
M  V30 4009 C 391.294 -2.42317 2.62712 0
M  V30 4010 S 392.853 -3.29383 2.89918 0
M  V30 4011 H 389.671 -0.454788 0.546525 0
M  V30 4012 H 392.273 -0.650191 1.84371 0
M  V30 4013 H 390.977 -1.98568 3.59164 0
M  V30 4014 H 390.508 -3.15601 2.34861 0
M  V30 4015 H 392.523 -4.41548 2.26384 0
M  V30 4016 N 391.696 -1.35014 -0.812953 0
M  V30 4017 C 392.921 -1.31187 -1.60639 0
M  V30 4018 C 393.346 0.109382 -1.87782 0
M  V30 4019 O 392.704 1.07424 -1.46047 0
M  V30 4020 C 392.752 -2.11809 -2.91838 0
M  V30 4021 O 391.856 -1.49444 -3.8437 0
M  V30 4022 H 391.197 -0.450084 -0.488181 0
M  V30 4023 H 393.727 -1.77963 -1.00947 0
M  V30 4024 H 393.737 -2.23531 -3.41318 0
M  V30 4025 H 392.412 -3.15137 -2.71407 0
M  V30 4026 H 390.989 -1.46524 -3.42907 0
M  V30 4027 N 393.175 1.03435 -1.18907 0
M  V30 4028 C 394.403 1.80381 -1.01342 0
M  V30 4029 C 394.818 1.83649 0.438005 0
M  V30 4030 O 394.175 1.27655 1.30424 0
M  V30 4031 C 394.226 3.25689 -1.56873 0
M  V30 4032 O 393.947 3.22673 -2.96334 0
M  V30 4033 C 395.448 4.19255 -1.44014 0
M  V30 4034 H 392.668 0.56784 -0.35749 0
M  V30 4035 H 395.212 1.30317 -1.576 0
M  V30 4036 H 393.367 3.72962 -1.04777 0
M  V30 4037 H 393.781 4.13748 -3.22355 0
M  V30 4038 H 395.255 5.19123 -1.87657 0
M  V30 4039 H 395.732 4.37467 -0.389815 0
M  V30 4040 H 396.338 3.77851 -1.95214 0
M  V30 4041 N 394.653 0.992116 1.22453 0
M  V30 4042 C 395.899 0.668523 1.91464 0
M  V30 4043 C 396.232 -0.797313 1.77078 0
M  V30 4044 O 395.507 -1.5765 1.13916 0
M  V30 4045 C 395.79 1.07424 3.43703 0
M  V30 4046 C 395.643 2.59857 3.67143 0
M  V30 4047 C 396.962 0.626891 4.35612 0
M  V30 4048 H 394.081 0.244341 0.695318 0
M  V30 4049 H 396.723 1.2355 1.44345 0
M  V30 4050 H 394.873 0.591816 3.83966 0
M  V30 4051 H 396.545 3.15764 3.3629 0
M  V30 4052 H 394.788 3.01961 3.11451 0
M  V30 4053 H 395.459 2.83296 4.73759 0
M  V30 4054 H 397.935 1.04125 4.02861 0
M  V30 4055 H 396.811 0.939076 5.40807 0
M  V30 4056 H 397.072 -0.472457 4.39568 0
M  V30 4057 N 396.131 -1.37776 0.765217 0
M  V30 4058 C 397.094 -2.28686 0.153416 0
M  V30 4059 C 398.094 -1.47727 -0.635081 0
M  V30 4060 O 399.284 -1.68027 -0.459632 0
M  V30 4061 C 396.416 -3.31608 -0.790495 0
M  V30 4062 H 397.609 -2.84297 0.954723 0
M  V30 4063 H 395.162 -1.46932 0.53299 0
M  V30 4064 H 395.897 -2.81109 -1.61705 0
M  V30 4065 H 395.682 -3.9144 -0.227348 0
M  V30 4066 H 397.172 -3.99559 -1.21419 0
M  V30 4067 N 397.609 -0.515225 -1.4894 0
M  V30 4068 C 398.519 0.259774 -2.33157 0
M  V30 4069 C 399.535 0.953501 -1.45548 0
M  V30 4070 O 400.711 0.931735 -1.78552 0
M  V30 4071 C 397.776 1.30193 -3.21326 0
M  V30 4072 C 396.837 0.620129 -4.24797 0
M  V30 4073 C 396.07 1.61263 -5.08753 0
M  V30 4074 O 396.293 2.84389 -4.94448 0
M  V30 4075 O 395.227 1.16013 -5.90614 0
M  V30 4076 H 399.053 -0.429932 -3.00641 0
M  V30 4077 H 396.638 -0.276346 -1.46822 0
M  V30 4078 H 398.52 1.90455 -3.75905 0
M  V30 4079 H 397.195 1.97431 -2.56521 0
M  V30 4080 H 396.102 -0.0226019 -3.74093 0
M  V30 4081 H 397.435 -0.0100493 -4.92199 0
M  V30 4082 N 399.087 1.5561 -0.249682 0
M  V30 4083 C 400.334 1.99011 0.374287 0
M  V30 4084 C 400.662 1.13785 1.57744 0
M  V30 4085 O 399.917 0.189326 1.94782 0
M  V30 4086 C 400.216 3.4775 0.824887 0
M  V30 4087 C 399.882 4.50086 -0.270819 0
M  V30 4088 C 398.544 4.77791 -0.571746 0
M  V30 4089 C 400.896 5.11312 -1.01041 0
M  V30 4090 C 398.224 5.63997 -1.61629 0
M  V30 4091 C 400.576 5.98651 -2.0445 0
M  V30 4092 C 399.24 6.24688 -2.35204 0
M  V30 4093 H 398.51 0.728233 0.136961 0
M  V30 4094 H 401.157 1.88122 -0.358087 0
M  V30 4095 H 399.462 3.55985 1.63651 0
M  V30 4096 H 401.159 3.78721 1.31799 0
M  V30 4097 H 397.749 4.28592 -0.026136 0
M  V30 4098 H 401.933 4.89953 -0.791177 0
M  V30 4099 H 397.189 5.82425 -1.85988 0
M  V30 4100 H 401.363 6.45135 -2.62248 0
M  V30 4101 H 398.99 6.91281 -3.16282 0
M  V30 4102 N 400.565 -0.0233959 1.57583 0
M  V30 4103 C 401.79 -0.728376 1.94189 0
M  V30 4104 C 402.215 -1.67793 0.850119 0
M  V30 4105 O 401.573 -1.80262 -0.19371 0
M  V30 4106 C 401.621 -1.45669 3.29868 0
M  V30 4107 O 400.725 -2.57013 3.22518 0
M  V30 4108 H 400.066 -0.195493 0.63457 0
M  V30 4109 H 402.596 0.0228214 2.04587 0
M  V30 4110 H 402.606 -1.82535 3.6489 0
M  V30 4111 H 401.281 -0.760314 4.08891 0
M  V30 4112 H 399.858 -2.22648 2.99136 0
M  V30 4113 N 402.043 -1.548 -0.295768 0
M  V30 4114 C 403.459 -1.4613 -0.641722 0
M  V30 4115 C 403.659 -0.656771 -1.90496 0
M  V30 4116 O 402.715 -0.166547 -2.5195 0
M  V30 4117 C 404.028 -2.90141 -0.789852 0
M  V30 4118 C 405.576 -3.00216 -0.885396 0
M  V30 4119 C 406.051 -4.45434 -1.06548 0
M  V30 4120 N 407.542 -4.49166 -1.13156 0
M  V30 4121 C 408.277 -5.58717 -1.28929 0
M  V30 4122 N 407.773 -6.78182 -1.41567 0
M  V30 4123 N 409.566 -5.46415 -1.31859 0
M  V30 4124 H 401.717 -2.05574 0.534147 0
M  V30 4125 H 403.98 -0.931259 0.177372 0
M  V30 4126 H 403.686 -3.51635 0.0675598 0
M  V30 4127 H 403.56 -3.37859 -1.67724 0
M  V30 4128 H 405.947 -2.38833 -1.73329 0
M  V30 4129 H 406.028 -2.55787 0.0261185 0
M  V30 4130 H 405.672 -5.07413 -0.222335 0
M  V30 4131 H 405.602 -4.87499 -1.9913 0
M  V30 4132 H 408.093 -3.631 -1.04721 0
M  V30 4133 H 408.406 -7.57428 -1.53372 0
M  V30 4134 H 406.751 -6.81037 -1.38613 0
M  V30 4135 H 409.942 -4.5203 -1.21601 0
M  V30 4136 H 410.115 -6.31841 -1.43808 0
M  V30 4137 N 403.521 0.559213 -1.47345 0
M  V30 4138 C 404.453 1.68161 -1.55738 0
M  V30 4139 C 405.466 1.56636 -0.443744 0
M  V30 4140 O 406.655 1.6363 -0.713258 0
M  V30 4141 C 403.755 3.06611 -1.4437 0
M  V30 4142 C 402.928 3.4391 -2.70268 0
M  V30 4143 C 401.987 4.61515 -2.52765 0
M  V30 4144 O 401.013 4.66197 -3.26572 0
M  V30 4145 N 402.215 5.57883 -1.6046 0
M  V30 4146 H 404.98 1.61408 -2.52522 0
M  V30 4147 H 402.541 0.7458 -1.43699 0
M  V30 4148 H 404.533 3.83117 -1.30398 0
M  V30 4149 H 403.103 3.07602 -0.556766 0
M  V30 4150 H 402.323 2.56873 -2.99015 0
M  V30 4151 H 403.611 3.65605 -3.53851 0
M  V30 4152 H 403.009 5.56855 -0.996422 0
M  V30 4153 H 401.566 6.33723 -1.52441 0
M  V30 4154 N 404.999 1.35443 0.805782 0
M  V30 4155 C 406.239 1.30127 1.57627 0
M  V30 4156 C 406.603 -0.122567 1.91608 0
M  V30 4157 O 407.804 -0.300107 2.67119 0
M  V30 4158 C 406.075 2.18314 2.82973 0
M  V30 4159 S 407.634 2.30521 3.7337 0
M  V30 4160 H 404.452 0.462439 0.540066 0
M  V30 4161 H 407.054 1.70843 0.95042 0
M  V30 4162 H 405.758 3.20741 2.56034 0
M  V30 4163 H 405.289 1.78558 3.50543 0
M  V30 4164 H 407.304 1.49062 4.73281 0
M  V30 4165 N 406.477 -1.02803 1.19454 0
M  V30 4166 C 407.702 -1.80378 1.02364 0
M  V30 4167 C 408.127 -1.83282 -0.423007 0
M  V30 4168 O 407.485 -1.25945 -1.30413 0
M  V30 4169 C 407.533 -3.23248 1.59821 0
M  V30 4170 O 406.637 -4.04 0.828105 0
M  V30 4171 H 405.978 -0.556799 0.361761 0
M  V30 4172 H 408.508 -1.29385 1.58495 0
M  V30 4173 H 408.518 -3.73994 1.63073 0
M  V30 4174 H 407.193 -3.2045 2.65113 0
M  V30 4175 H 405.77 -3.62635 0.86891 0
M  V30 4176 N 407.956 -0.998596 -1.21925 0
M  V30 4177 C 408.906 -0.524743 -2.21879 0
M  V30 4178 C 409.89 0.41017 -1.55584 0
M  V30 4179 O 411.082 0.236063 -1.75419 0
M  V30 4180 C 408.211 0.153636 -3.42956 0
M  V30 4181 C 407.297 -0.801918 -4.16449 0
M  V30 4182 N 407.688 -1.95211 -4.66611 0
M  V30 4183 C 405.986 -0.618972 -4.41684 0
M  V30 4184 C 406.687 -2.55234 -5.22715 0
M  V30 4185 N 405.663 -1.83451 -5.1171 0
M  V30 4186 H 409.465 -1.40189 -2.58311 0
M  V30 4187 H 406.979 -0.86159 -1.3766 0
M  V30 4188 H 408.976 0.510534 -4.13762 0
M  V30 4189 H 407.636 1.02684 -3.08036 0
M  V30 4190 H 408.647 -2.33271 -4.62391 0
M  V30 4191 H 405.324 0.207694 -4.16983 0
M  V30 4192 H 406.714 -3.52471 -5.72026 0
M  V30 4193 N 409.434 1.37368 -0.772513 0
M  V30 4194 C 410.397 2.28601 -0.165541 0
M  V30 4195 C 411.397 1.48062 0.627238 0
M  V30 4196 O 412.587 1.68268 0.450715 0
M  V30 4197 C 409.719 3.32023 0.772897 0
M  V30 4198 H 410.912 2.83787 -0.969787 0
M  V30 4199 H 408.465 1.46647 -0.540775 0
M  V30 4200 H 409.2 2.81962 1.60212 0
M  V30 4201 H 408.985 3.91555 0.206585 0
M  V30 4202 H 410.475 4.00197 1.19298 0
M  V30 4203 N 410.912 0.523116 1.48665 0
M  V30 4204 C 412.16 -0.0134497 2.02096 0
M  V30 4205 C 412.481 -1.35418 1.40311 0
M  V30 4206 O 411.751 -1.87543 0.566074 0
M  V30 4207 H 410.331 -0.00795915 0.746958 0
M  V30 4208 H 412.993 0.685388 1.82451 0
M  V30 4209 H 412.089 -0.126849 3.11842 0
M  V30 4210 N 412.39 -1.55475 0.257931 0
M  V30 4211 C 413.638 -1.98813 -0.363009 0
M  V30 4212 C 413.959 -1.14757 -1.57657 0
M  V30 4213 O 413.229 -0.232956 -1.9451 0
M  V30 4214 H 411.809 -0.734308 -0.137113 0
M  V30 4215 H 414.471 -1.9156 0.359281 0
M  V30 4216 H 413.567 -3.04941 -0.664634 0
M  V30 4217 N 413.868 0.0150385 -1.57593 0
M  V30 4218 C 415.284 0.370907 -1.5523 0
M  V30 4219 C 415.484 1.75735 -0.985882 0
M  V30 4220 O 414.54 2.44944 -0.613077 0
M  V30 4221 C 415.853 0.259908 -2.99575 0
M  V30 4222 C 417.401 0.335959 -3.11192 0
M  V30 4223 C 417.876 0.254253 -4.57294 0
M  V30 4224 N 419.367 0.312618 -4.62144 0
M  V30 4225 C 420.102 0.272505 -5.72752 0
M  V30 4226 N 419.598 0.183864 -6.92556 0
M  V30 4227 N 421.391 0.323267 -5.6117 0
M  V30 4228 H 413.542 -0.892104 -1.92757 0
M  V30 4229 H 415.805 -0.340563 -0.884715 0
M  V30 4230 H 415.511 -0.693403 -3.44797 0
M  V30 4231 H 415.385 1.048 -3.62349 0
M  V30 4232 H 417.772 1.27971 -2.65909 0
M  V30 4233 H 417.853 -0.481739 -2.51223 0
M  V30 4234 H 417.497 -0.685887 -5.03247 0
M  V30 4235 H 417.427 1.09024 -5.15191 0
M  V30 4236 H 419.918 0.38307 -3.75953 0
M  V30 4237 H 420.231 0.15874 -7.72637 0
M  V30 4238 H 418.576 0.149708 -6.94839 0
M  V30 4239 H 421.767 0.390607 -4.66467 0
M  V30 4240 H 421.94 0.288539 -6.47357 0
M  V30 4241 N 415.346 1.54954 0.287554 0
M  V30 4242 C 416.757 1.65732 0.859634 0
M  V30 4243 C 417.108 0.574767 1.87592 0
M  V30 4244 O 416.233 -0.286299 2.14498 0
M  V30 4245 C 416.828 3.00438 1.56597 0
M  V30 4246 C 415.387 3.13292 2.08627 0
M  V30 4247 C 414.534 2.61473 0.923416 0
M  V30 4248 H 417.485 1.5857 0.0642338 0
M  V30 4249 H 417.506 2.92613 2.43224 0
M  V30 4250 H 417.018 3.79207 0.826053 0
M  V30 4251 H 415.119 2.39268 2.85625 0
M  V30 4252 H 415.232 4.19647 2.31157 0
M  V30 4253 H 413.596 2.18264 1.31275 0
M  V30 4254 H 414.379 3.42733 0.197241 0
M  V30 4255 N 416.824 -0.551391 1.4764 0
M  V30 4256 C 418.072 -1.30572 1.54258 0
M  V30 4257 C 418.393 -1.93877 0.208963 0
M  V30 4258 O 417.663 -1.80234 -0.767619 0
M  V30 4259 H 416.243 -0.484894 0.568231 0
M  V30 4260 H 418.905 -0.643402 1.83974 0
M  V30 4261 H 418.001 -2.09621 2.31226 0
M  V30 4262 N 418.302 -1.35869 -0.798587 0
M  V30 4263 C 419.25 -1.29491 -1.93222 0
M  V30 4264 C 420.244 -0.18836 -1.6835 0
M  V30 4265 O 421.45 -0.354822 -1.76468 0
M  V30 4266 H 417.825 -0.402901 -0.63496 0
M  V30 4267 H 419.796 -2.25247 -1.9572 0
M  V30 4268 C 418.545 -1.09184 -3.30112 0
M  V30 4269 H 417.868 -1.93574 -3.49813 0
M  V30 4270 H 419.308 -1.08766 -4.09812 0
M  V30 4271 C 417.767 0.203959 -3.36282 0
M  V30 4272 O 418.297 1.19699 -3.83451 0
M  V30 4273 N 416.503 0.245488 -2.89561 0
M  V30 4274 H 416.05 -0.563223 -2.51367 0
M  V30 4275 H 416.008 1.11219 -2.94071 0
M  V30 4276 N 419.78 1.02168 -1.19998 0
M  V30 4277 C 421.026 1.7606 -1.01855 0
M  V30 4278 C 421.381 1.87178 0.445222 0
M  V30 4279 O 420.674 1.3828 1.32624 0
M  V30 4280 C 420.868 3.18081 -1.62969 0
M  V30 4281 C 420.697 3.20809 -3.15137 0
M  V30 4282 C 419.467 3.28342 -3.84083 0
M  V30 4283 C 421.665 3.07268 -4.1242 0
M  V30 4284 N 419.647 3.2052 -5.23584 0
M  V30 4285 C 421.018 3.0716 -5.38566 0
M  V30 4286 C 423.073 2.91448 -4.03686 0
M  V30 4287 C 421.776 2.92853 -6.56985 0
M  V30 4288 C 423.802 2.78494 -5.21723 0
M  V30 4289 C 423.164 2.79046 -6.46771 0
M  V30 4290 H 419.263 0.655192 -0.426905 0
M  V30 4291 H 421.847 1.21564 -1.52087 0
M  V30 4292 H 420.018 3.70882 -1.15329 0
M  V30 4293 H 421.75 3.80375 -1.38192 0
M  V30 4294 H 418.505 3.34859 -3.34913 0
M  V30 4295 H 418.929 3.19997 -5.96599 0
M  V30 4296 H 423.571 2.89838 -3.07821 0
M  V30 4297 H 421.289 2.93213 -7.53028 0
M  V30 4298 H 424.875 2.67278 -5.16773 0
M  V30 4299 H 423.755 2.69134 -7.36571 0
M  V30 4300 N 421.258 1.00505 1.21394 0
M  V30 4301 C 422.674 0.717873 1.42544 0
M  V30 4302 C 422.874 -0.706936 1.88692 0
M  V30 4303 O 421.93 -1.47627 2.04847 0
M  V30 4304 C 423.243 1.73377 2.45684 0
M  V30 4305 C 424.791 1.75059 2.59467 0
M  V30 4306 C 425.266 2.75545 3.6584 0
M  V30 4307 N 426.757 2.74213 3.73311 0
M  V30 4308 C 427.492 3.48626 4.55245 0
M  V30 4309 N 426.988 4.32678 5.41075 0
M  V30 4310 N 428.781 3.37276 4.49668 0
M  V30 4311 H 420.932 1.92506 0.897503 0
M  V30 4312 H 423.195 0.830919 0.456375 0
M  V30 4313 H 422.901 2.75395 2.18748 0
M  V30 4314 H 422.775 1.53647 3.44489 0
M  V30 4315 H 425.162 0.737337 2.8574 0
M  V30 4316 H 425.243 1.98861 1.60897 0
M  V30 4317 H 424.887 3.77028 3.40313 0
M  V30 4318 H 424.817 2.49009 4.64007 0
M  V30 4319 H 427.308 2.13234 3.11993 0
M  V30 4320 H 427.621 4.86253 6.00648 0
M  V30 4321 H 425.966 4.3676 5.40616 0
M  V30 4322 H 429.157 2.71043 3.81646 0
M  V30 4323 H 429.33 3.95524 5.13288 0
M  V30 4324 N 422.737 -1.36956 0.779787 0
M  V30 4325 C 423.965 -2.03755 0.359398 0
M  V30 4326 C 424.38 -1.58807 -1.02106 0
M  V30 4327 O 423.737 -0.773024 -1.6532 0
M  V30 4328 C 423.788 -3.59251 0.402568 0
M  V30 4329 O 423.509 -4.02557 1.72858 0
M  V30 4330 C 425.01 -4.43291 -0.0284068 0
M  V30 4331 H 422.23 -0.654148 0.149437 0
M  V30 4332 H 424.774 -1.75128 1.05595 0
M  V30 4333 H 422.929 -3.86621 -0.245478 0
M  V30 4334 H 423.343 -4.97111 1.67275 0
M  V30 4335 H 424.817 -5.51975 0.0529466 0
M  V30 4336 H 425.294 -4.25719 -1.07982 0
M  V30 4337 H 425.9 -4.21163 0.591758 0
M  V30 4338 N 424.215 -0.530993 -1.48385 0
M  V30 4339 C 425.178 0.220497 -2.28137 0
M  V30 4340 C 426.178 0.866851 -1.35434 0
M  V30 4341 O 427.368 0.726746 -1.58316 0
M  V30 4342 C 424.5 1.31921 -3.1434 0
M  V30 4343 H 425.693 -0.479714 -2.96038 0
M  V30 4344 H 423.246 -0.286968 -1.53643 0
M  V30 4345 H 423.981 2.05264 -2.51072 0
M  V30 4346 H 423.766 0.86085 -3.82533 0
M  V30 4347 H 425.256 1.84776 -3.74497 0
M  V30 4348 N 425.693 1.55336 -0.266172 0
M  V30 4349 C 426.921 2.03801 0.356756 0
M  V30 4350 C 427.336 1.14485 1.50129 0
M  V30 4351 O 426.693 0.163121 1.8177 0
M  V30 4352 C 426.744 3.51455 0.846281 0
M  V30 4353 O 426.465 4.37371 -0.252663 0
M  V30 4354 C 427.966 4.15767 1.53794 0
M  V30 4355 H 425.186 0.665906 0.0825218 0
M  V30 4356 H 427.73 2.00636 -0.39566 0
M  V30 4357 H 425.885 3.55092 1.54881 0
M  V30 4358 H 426.299 5.24358 0.122173 0
M  V30 4359 H 427.773 5.20714 1.83198 0
M  V30 4360 H 428.25 3.63404 2.46646 0
M  V30 4361 H 428.856 4.16107 0.879488 0
M  V30 4362 N 427.171 -0.0066808 1.57599 0
M  V30 4363 C 428.101 -0.999296 2.11036 0
M  V30 4364 C 429.082 -1.36278 1.01795 0
M  V30 4365 O 430.267 -1.4477 1.29442 0
M  V30 4366 C 427.397 -2.29328 2.60818 0
M  V30 4367 C 426.351 -2.07159 3.74525 0
M  V30 4368 C 425.677 -3.42512 4.10596 0
M  V30 4369 C 426.977 -1.43959 5.02069 0
M  V30 4370 H 428.671 -0.554382 2.94223 0
M  V30 4371 H 426.217 -0.265221 1.41536 0
M  V30 4372 H 428.17 -2.99117 2.96828 0
M  V30 4373 H 426.894 -2.7592 1.74745 0
M  V30 4374 H 425.553 -1.39797 3.38899 0
M  V30 4375 H 425.201 -3.86795 3.21556 0
M  V30 4376 H 424.901 -3.28498 4.87199 0
M  V30 4377 H 426.425 -4.13628 4.4916 0
M  V30 4378 H 427.839 -2.03696 5.35893 0
M  V30 4379 H 426.236 -1.40452 5.83432 0
M  V30 4380 H 427.306 -0.407992 4.83181 0
M  V30 4381 N 428.649 -1.55105 -0.279332 0
M  V30 4382 C 429.889 -1.7716 -1.01949 0
M  V30 4383 C 430.253 -0.557511 -1.83728 0
M  V30 4384 O 431.454 -0.656198 -2.60667 0
M  V30 4385 C 429.725 -3.0372 -1.88385 0
M  V30 4386 S 431.284 -3.46868 -2.68752 0
M  V30 4387 H 428.102 -0.62253 -0.343478 0
M  V30 4388 H 430.704 -1.93329 -0.290572 0
M  V30 4389 H 429.408 -3.90184 -1.2722 0
M  V30 4390 H 428.939 -2.902 -2.65608 0
M  V30 4391 H 430.954 -3.05643 -3.90892 0
M  V30 4392 N 430.127 0.543554 -1.4793 0
M  V30 4393 C 431.538 1.12561 -1.48953 0
M  V30 4394 C 431.889 1.94578 -0.251754 0
M  V30 4395 O 431.014 2.0665 0.642255 0
M  V30 4396 C 431.609 2.04801 -2.69892 0
M  V30 4397 C 430.168 2.58251 -2.73831 0
M  V30 4398 C 429.315 1.34918 -2.42265 0
M  V30 4399 H 432.266 0.32947 -1.55242 0
M  V30 4400 H 432.287 2.88886 -2.47639 0
M  V30 4401 H 431.799 1.4508 -3.59963 0
M  V30 4402 H 429.9 3.21732 -1.87934 0
M  V30 4403 H 430.013 2.98312 -3.74895 0
M  V30 4404 H 428.377 1.66046 -1.93134 0
M  V30 4405 H 429.16 0.769693 -3.3456 0
M  V30 4406 N 431.605 1.3629 0.791371 0
M  V30 4407 C 432.552 1.30458 1.90393 0
M  V30 4408 C 433.522 0.173632 1.6519 0
M  V30 4409 O 434.707 0.35983 1.87376 0
M  V30 4410 C 431.847 1.09777 3.27174 0
M  V30 4411 C 430.96 2.31929 3.64462 0
M  V30 4412 C 430.095 2.04276 4.90352 0
M  V30 4413 C 429.134 3.224 5.20312 0
M  V30 4414 N 428.271 2.94424 6.37385 0
M  V30 4415 H 433.111 2.25589 1.94714 0
M  V30 4416 H 430.648 1.12122 0.952216 0
M  V30 4417 H 432.606 0.958133 4.06049 0
M  V30 4418 H 431.236 0.183014 3.22281 0
M  V30 4419 H 430.288 2.56703 2.80727 0
M  V30 4420 H 431.6 3.20085 3.82553 0
M  V30 4421 H 430.754 1.87231 5.77087 0
M  V30 4422 H 429.493 1.13428 4.74326 0
M  V30 4423 H 428.498 3.40005 4.32061 0
M  V30 4424 H 429.723 4.14071 5.38258 0
M  V30 4425 H 427.669 2.06185 6.22755 0
M  V30 4426 H 427.586 3.76118 6.55798 0
M  V30 4427 H 428.854 2.80953 7.27108 0
M  V30 4428 N 433.083 -1.0153 1.20538 0
M  V30 4429 C 434.311 -1.78746 1.04199 0
M  V30 4430 C 434.726 -1.84323 -0.408733 0
M  V30 4431 O 434.083 -1.29714 -1.28377 0
M  V30 4432 C 434.134 -3.23152 1.62035 0
M  V30 4433 O 433.855 -3.17918 3.0143 0
M  V30 4434 C 435.356 -4.16911 1.50666 0
M  V30 4435 H 432.576 -0.56208 0.366479 0
M  V30 4436 H 435.12 -1.27794 1.59653 0
M  V30 4437 H 433.275 -3.71248 1.10697 0
M  V30 4438 H 433.689 -4.08567 3.28897 0
M  V30 4439 H 435.163 -5.16072 1.95892 0
M  V30 4440 H 435.64 -4.36791 0.459363 0
M  V30 4441 H 436.246 -3.74698 2.01201 0
M  V30 4442 N 434.561 -1.01147 -1.20859 0
M  V30 4443 C 435.801 -0.706331 -1.91808 0
M  V30 4444 C 436.165 0.749736 -1.76757 0
M  V30 4445 O 437.366 1.16716 -2.42138 0
M  V30 4446 C 435.637 -1.12371 -3.39275 0
M  V30 4447 S 437.196 -0.939764 -4.28619 0
M  V30 4448 H 434.014 -0.257665 -0.662669 0
M  V30 4449 H 436.616 -1.29766 -1.46223 0
M  V30 4450 H 435.32 -2.17943 -3.47749 0
M  V30 4451 H 434.851 -0.524952 -3.89882 0
M  V30 4452 H 436.866 0.159556 -4.95943 0
M  V30 4453 N 436.039 1.36541 -0.78704 0
M  V30 4454 C 437.45 1.81873 -0.421807 0
M  V30 4455 C 437.801 1.65487 1.05397 0
M  V30 4456 O 436.926 1.17448 1.81755 0
M  V30 4457 C 437.521 3.30192 -0.758841 0
M  V30 4458 C 436.08 3.73743 -0.446468 0
M  V30 4459 C 435.227 2.58844 -0.994728 0
M  V30 4460 H 438.178 1.24796 -0.98039 0
M  V30 4461 H 438.199 3.80468 -0.0490648 0
M  V30 4462 H 437.711 3.42087 -1.83299 0
M  V30 4463 H 435.812 3.6741 0.619739 0
M  V30 4464 H 435.925 4.69272 -0.965415 0
M  V30 4465 H 434.289 2.51245 -0.418087 0
M  V30 4466 H 435.072 2.73525 -2.07458 0
M  V30 4467 N 437.518 0.538854 1.48102 0
M  V30 4468 C 438.766 0.00798599 2.02098 0
M  V30 4469 C 439.087 -1.33922 1.41739 0
M  V30 4470 O 438.357 -1.86932 0.585934 0
M  V30 4471 H 436.937 -3.62179e-05 0.747 0
M  V30 4472 H 439.599 0.7047 1.81714 0
M  V30 4473 H 438.695 -0.0937672 3.11959 0
M  V30 4474 N 438.996 -1.55193 0.274407 0
M  V30 4475 C 439.944 -2.23924 -0.629362 0
M  V30 4476 C 440.938 -1.23602 -1.1584 0
M  V30 4477 O 442.144 -1.41535 -1.11211 0
M  V30 4478 H 438.519 -0.718637 -0.221507 0
M  V30 4479 H 440.49 -2.98388 -0.0268322 0
M  V30 4480 C 439.239 -2.97329 -1.80252 0
M  V30 4481 H 438.562 -3.74313 -1.40462 0
M  V30 4482 H 440.002 -3.48743 -2.41152 0
M  V30 4483 C 438.461 -2.0276 -2.69054 0
M  V30 4484 O 438.991 -1.57836 -3.69392 0
M  V30 4485 N 437.197 -1.69275 -2.36208 0
M  V30 4486 H 436.744 -2.06004 -1.54661 0
M  V30 4487 H 436.702 -1.06271 -2.95895 0
M  V30 4488 N 440.474 -0.00167713 -1.576 0
M  V30 4489 C 441.404 0.988091 -2.11563 0
M  V30 4490 C 442.385 1.35736 -1.02517 0
M  V30 4491 O 443.57 1.44082 -1.30208 0
M  V30 4492 C 440.7 2.27941 -2.62031 0
M  V30 4493 C 439.654 2.0517 -3.75619 0
M  V30 4494 C 438.98 3.4033 -4.12407 0
M  V30 4495 C 440.28 1.41294 -5.02825 0
M  V30 4496 H 441.974 0.538771 -2.94513 0
M  V30 4497 H 439.52 0.257712 -1.41675 0
M  V30 4498 H 441.473 2.97539 -2.9841 0
M  V30 4499 H 440.197 2.74989 -1.76205 0
M  V30 4500 H 438.856 1.37998 -3.39635 0
M  V30 4501 H 438.504 3.85085 -3.23603 0
M  V30 4502 H 438.204 3.25909 -4.88935 0
M  V30 4503 H 439.728 4.1124 -4.51347 0
M  V30 4504 H 441.142 2.00851 -5.36965 0
M  V30 4505 H 439.539 1.37356 -5.84169 0
M  V30 4506 H 440.609 0.382362 -4.8339 0
M  V30 4507 N 441.952 1.55251 0.271103 0
M  V30 4508 C 443.198 1.76207 1.00394 0
M  V30 4509 C 443.531 0.562604 1.85872 0
M  V30 4510 O 442.806 -0.439785 1.89463 0
M  V30 4511 C 443.089 3.06828 1.8849 0
M  V30 4512 C 442.942 4.37134 1.05992 0
M  V30 4513 C 444.261 3.33503 2.87165 0
M  V30 4514 H 441.38 0.641086 0.363562 0
M  V30 4515 H 444.022 1.87982 0.276189 0
M  V30 4516 H 442.172 2.96921 2.5054 0
M  V30 4517 H 443.844 4.59001 0.459978 0
M  V30 4518 H 442.087 4.32275 0.363443 0
M  V30 4519 H 442.758 5.2486 1.70955 0
M  V30 4520 H 445.234 3.43215 2.3525 0
M  V30 4521 H 444.11 4.2616 3.45946 0
M  V30 4522 H 444.371 2.53235 3.62387 0
M  V30 4523 N 443.43 -0.535701 1.48216 0
M  V30 4524 C 444.66 -1.3148 1.59363 0
M  V30 4525 C 445.068 -1.8753 0.250844 0
M  V30 4526 O 444.411 -1.66821 -0.769174 0
M  V30 4527 C 444.473 -2.50731 2.57632 0
M  V30 4528 C 444.137 -2.15811 4.02833 0
M  V30 4529 C 445.134 -1.71822 4.90686 0
M  V30 4530 C 442.819 -2.26509 4.48329 0
M  V30 4531 C 444.813 -1.3899 6.22062 0
M  V30 4532 C 442.5 -1.93289 5.79726 0
M  V30 4533 C 443.498 -1.49599 6.66415 0
M  V30 4534 O 443.186 -1.16812 7.95368 0
M  V30 4535 H 442.918 -0.406315 0.540263 0
M  V30 4536 H 445.472 -0.653569 1.94725 0
M  V30 4537 H 443.702 -3.19817 2.1738 0
M  V30 4538 H 445.391 -3.12797 2.58675 0
M  V30 4539 H 446.157 -1.63031 4.56778 0
M  V30 4540 H 442.036 -2.59471 3.81045 0
M  V30 4541 H 445.58 -1.04816 6.89681 0
M  V30 4542 H 441.477 -2.01718 6.13172 0
M  V30 4543 H 442.245 -1.30259 8.08069 0
M  V30 4544 N 444.908 -1.36708 -0.784132 0
M  V30 4545 C 445.838 -1.34153 -1.91116 0
M  V30 4546 C 446.819 -0.212121 -1.68772 0
M  V30 4547 O 448.004 -0.410581 -1.8981 0
M  V30 4548 C 445.134 -1.13535 -3.28218 0
M  V30 4549 C 444.088 -2.23356 -3.65097 0
M  V30 4550 C 443.414 -1.87875 -5.00607 0
M  V30 4551 C 444.714 -3.65473 -3.73131 0
M  V30 4552 H 446.408 -2.28459 -1.93512 0
M  V30 4553 H 443.954 -1.09973 -0.929618 0
M  V30 4554 H 445.907 -1.10381 -4.06687 0
M  V30 4555 H 444.631 -0.156804 -3.26223 0
M  V30 4556 H 443.29 -2.25645 -2.88929 0
M  V30 4557 H 442.938 -0.885814 -4.95139 0
M  V30 4558 H 442.638 -2.61406 -5.26252 0
M  V30 4559 H 444.162 -1.86286 -5.81489 0
M  V30 4560 H 445.576 -3.65382 -4.41779 0
M  V30 4561 H 443.973 -4.37953 -4.10265 0
M  V30 4562 H 445.043 -3.99995 -2.74102 0
M  V30 4563 N 446.386 1.0089 -1.21074 0
M  V30 4564 C 447.296 2.13039 -0.982425 0
M  V30 4565 C 448.312 1.73881 0.0642161 0
M  V30 4566 O 449.488 2.01012 -0.12496 0
M  V30 4567 C 446.553 3.42377 -0.545803 0
M  V30 4568 C 445.614 3.95731 -1.6642 0
M  V30 4569 C 444.847 5.18896 -1.24832 0
M  V30 4570 O 445.07 5.70273 -0.120265 0
M  V30 4571 O 444.004 5.65597 -2.05873 0
M  V30 4572 H 447.83 2.35175 -1.92163 0
M  V30 4573 H 445.415 1.1142 -0.995285 0
M  V30 4574 H 447.297 4.20244 -0.311912 0
M  V30 4575 H 445.972 3.21639 0.364727 0
M  V30 4576 H 444.879 3.19108 -1.95246 0
M  V30 4577 H 446.212 4.20872 -2.55201 0
M  V30 4578 N 447.864 1.01787 1.20321 0
M  V30 4579 C 449.089 0.727009 1.9424 0
M  V30 4580 C 449.514 -0.706179 1.74341 0
M  V30 4581 O 448.872 -1.48609 1.03852 0
M  V30 4582 C 448.92 1.06958 3.44372 0
M  V30 4583 O 448.024 0.181983 4.11998 0
M  V30 4584 H 447.365 0.269626 0.606793 0
M  V30 4585 H 449.895 1.36158 1.52716 0
M  V30 4586 H 449.905 1.02182 3.94997 0
M  V30 4587 H 448.58 2.11378 3.58179 0
M  V30 4588 H 447.157 0.287378 3.71791 0
M  V30 4589 N 449.342 -1.36122 0.79427 0
M  V30 4590 C 450.59 -1.98718 0.368177 0
M  V30 4591 C 450.911 -1.63345 -1.06506 0
M  V30 4592 O 450.181 -0.909825 -1.73491 0
M  V30 4593 H 448.761 -0.735038 0.133146 0
M  V30 4594 H 451.423 -1.66239 1.01739 0
M  V30 4595 H 450.519 -3.08633 0.463923 0
M  V30 4596 N 450.82 -0.546701 -1.47814 0
M  V30 4597 C 452.045 -0.021268 -2.07389 0
M  V30 4598 C 452.47 1.25822 -1.39822 0
M  V30 4599 O 451.828 1.75111 -0.46968 0
M  V30 4600 C 451.876 0.168502 -3.60206 0
M  V30 4601 O 450.98 1.23347 -3.93522 0
M  V30 4602 H 450.321 -0.0466108 -0.662362 0
M  V30 4603 H 452.851 -0.759387 -1.89985 0
M  V30 4604 H 452.861 0.385982 -4.0617 0
M  V30 4605 H 451.536 -0.766075 -4.08784 0
M  V30 4606 H 450.113 0.997319 -3.59316 0
M  V30 4607 N 452.299 1.55045 -0.282633 0
M  V30 4608 C 453.71 1.85473 0.213655 0
M  V30 4609 C 454.061 1.20465 1.54863 0
M  V30 4610 O 453.186 0.495676 2.10647 0
M  V30 4611 C 453.781 3.36496 0.394445 0
M  V30 4612 C 452.34 3.67022 0.834961 0
M  V30 4613 C 451.487 2.77218 -0.0674081 0
M  V30 4614 H 454.438 1.50478 -0.504202 0
M  V30 4615 H 454.459 3.60007 1.23186 0
M  V30 4616 H 453.971 3.83782 -0.577326 0
M  V30 4617 H 452.072 3.25241 1.81794 0
M  V30 4618 H 452.185 4.74433 0.667075 0
M  V30 4619 H 450.549 2.5069 0.450196 0
M  V30 4620 H 451.332 3.2732 -1.0352 0
M  V30 4621 N 453.777 0.010035 1.57597 0
M  V30 4622 C 455.017 -0.677084 1.9286 0
M  V30 4623 C 455.381 -1.70377 0.885192 0
M  V30 4624 O 456.582 -2.44199 1.12339 0
M  V30 4625 C 454.853 -1.29452 3.33132 0
M  V30 4626 S 456.412 -2.00537 3.90295 0
M  V30 4627 H 453.23 -0.223409 0.674989 0
M  V30 4628 H 455.832 0.0691289 1.95378 0
M  V30 4629 H 454.536 -0.534593 4.06903 0
M  V30 4630 H 454.067 -2.07845 3.34012 0
M  V30 4631 H 456.082 -3.28168 3.72183 0
M  V30 4632 N 455.255 -1.55392 -0.262866 0
M  V30 4633 C 456.188 -1.8391 -1.35101 0
M  V30 4634 C 457.166 -0.692901 -1.47097 0
M  V30 4635 O 458.35 -0.936979 -1.63563 0
M  V30 4636 C 455.477 -2.00969 -2.72634 0
M  V30 4637 C 454.523 -3.23559 -2.7787 0
M  V30 4638 S 455.356 -4.80647 -2.3609 0
M  V30 4639 C 456.512 -5.00692 -3.75578 0
M  V30 4640 H 456.745 -2.75918 -1.1071 0
M  V30 4641 H 454.278 -1.47294 -0.463029 0
M  V30 4642 H 456.236 -2.11482 -3.51832 0
M  V30 4643 H 454.897 -1.09832 -2.94272 0
M  V30 4644 H 454.09 -3.32413 -3.78837 0
M  V30 4645 H 453.692 -3.11689 -2.06702 0
M  V30 4646 H 455.984 -4.87055 -4.70939 0
M  V30 4647 H 456.927 -6.02717 -3.71669 0
M  V30 4648 H 457.335 -4.28619 -3.6735 0
M  V30 4649 N 456.733 0.527833 -1.48498 0
M  V30 4650 C 458.01 1.28905 -1.47115 0
M  V30 4651 C 458.39 2.10297 -0.184007 0
M  V30 4652 O 457.738 2.12728 0.834218 0
M  V30 4653 C 457.948 2.16866 -2.73441 0
M  V30 4654 C 459.296 2.76936 -3.21857 0
M  V30 4655 O 460.32 2.27152 -2.74373 0
M  V30 4656 O 459.179 3.67496 -4.04486 0
M  V30 4657 H 456.273 0.581918 -0.587623 0
M  V30 4658 H 458.819 0.544311 -1.60734 0
M  V30 4659 H 457.591 1.56521 -3.58632 0
M  V30 4660 H 457.214 2.98583 -2.62553 0
M  V30 4661 N 458.211 1.37122 0.776871 0
M  V30 4662 C 459.439 1.3523 1.5659 0
M  V30 4663 C 459.854 -0.0635518 1.88693 0
M  V30 4664 O 459.211 -1.02394 1.51069 0
M  V30 4665 C 459.262 2.18583 2.8793 0
M  V30 4666 O 458.983 3.5465 2.57206 0
M  V30 4667 C 460.484 2.24612 3.82183 0
M  V30 4668 H 457.704 0.4634 0.485285 0
M  V30 4669 H 460.248 1.80392 0.963266 0
M  V30 4670 H 458.403 1.76943 3.4463 0
M  V30 4671 H 458.817 3.98286 3.41275 0
M  V30 4672 H 460.291 2.87267 4.71361 0
M  V30 4673 H 460.768 1.25309 4.20944 0
M  V30 4674 H 461.374 2.66543 3.31414 0
M  V30 4675 N 459.689 -1.00246 1.21608 0
M  V30 4676 C 460.929 -1.75589 1.04631 0
M  V30 4677 C 461.293 -1.87513 -0.412648 0
M  V30 4678 O 462.494 -2.59444 -0.703003 0
M  V30 4679 C 460.765 -3.12893 1.72722 0
M  V30 4680 S 462.324 -4.04095 1.71034 0
M  V30 4681 H 459.142 -0.604133 0.374892 0
M  V30 4682 H 461.744 -1.19927 1.54395 0
M  V30 4683 H 460.448 -3.0185 2.78055 0
M  V30 4684 H 459.979 -3.73628 1.23149 0
M  V30 4685 H 461.994 -4.9045 0.753231 0
M  V30 4686 N 461.167 -1.02423 -1.1978 0
M  V30 4687 C 462.392 -0.7373 -1.93852 0
M  V30 4688 C 462.817 0.696923 -1.74713 0
M  V30 4689 O 462.175 1.48056 -1.04638 0
M  V30 4690 C 462.223 -1.08783 -3.438 0
M  V30 4691 O 461.327 -0.20383 -4.11896 0
M  V30 4692 H 460.668 -0.27284 -0.605355 0
M  V30 4693 H 463.198 -1.36966 -1.51992 0
M  V30 4694 H 463.208 -1.04276 -3.9445 0
M  V30 4695 H 461.883 -2.13274 -3.57053 0
M  V30 4696 H 460.46 -0.307091 -3.71633 0
M  V30 4697 N 462.645 1.35699 -0.801477 0
M  V30 4698 C 463.595 2.2728 -0.181073 0
M  V30 4699 C 464.579 1.47533 0.642098 0
M  V30 4700 O 465.771 1.69785 0.500193 0
M  V30 4701 C 462.9 3.36626 0.673612 0
M  V30 4702 C 461.986 4.23802 -0.159008 0
M  V30 4703 N 462.377 4.90879 -1.2195 0
M  V30 4704 C 460.675 4.45959 0.0602005 0
M  V30 4705 C 461.376 5.5546 -1.72738 0
M  V30 4706 N 460.352 5.33663 -1.03465 0
M  V30 4707 H 464.154 2.76632 -0.992582 0
M  V30 4708 H 461.668 1.49166 -0.642127 0
M  V30 4709 H 463.665 4.01179 1.13408 0
M  V30 4710 H 462.325 2.88828 1.48353 0
M  V30 4711 H 463.336 4.92497 -1.60209 0
M  V30 4712 H 460.013 4.08969 0.839664 0
M  V30 4713 H 461.403 6.18991 -2.61342 0
M  V30 4714 N 464.123 0.554532 1.47522 0
M  V30 4715 C 465.053 -0.182974 2.32782 0
M  V30 4716 C 466.034 -0.911377 1.43624 0
M  V30 4717 O 467.219 -0.892366 1.72483 0
M  V30 4718 C 464.349 -1.21513 3.25349 0
M  V30 4719 C 463.303 -0.603355 4.23726 0
M  V30 4720 C 462.629 -1.73995 5.05598 0
M  V30 4721 C 463.929 0.441121 5.20434 0
M  V30 4722 H 465.623 0.52882 2.94693 0
M  V30 4723 H 463.169 0.255759 1.41711 0
M  V30 4724 H 465.122 -1.73922 3.83835 0
M  V30 4725 H 463.846 -1.95683 2.61487 0
M  V30 4726 H 462.505 -0.10059 3.66462 0
M  V30 4727 H 462.153 -2.47063 4.38143 0
M  V30 4728 H 461.853 -1.3364 5.72201 0
M  V30 4729 H 463.377 -2.26735 5.66942 0
M  V30 4730 H 464.791 0.00319931 5.733 0
M  V30 4731 H 463.188 0.763402 5.95224 0
M  V30 4732 H 464.258 1.33799 4.66075 0
M  V30 4733 N 465.601 -1.54893 0.290851 0
M  V30 4734 C 466.511 -2.26812 -0.59945 0
M  V30 4735 C 467.527 -1.29963 -1.15696 0
M  V30 4736 O 468.703 -1.62928 -1.18391 0
M  V30 4737 C 465.768 -2.98716 -1.75982 0
M  V30 4738 C 464.829 -4.1108 -1.2374 0
M  V30 4739 C 464.062 -4.79546 -2.34246 0
M  V30 4740 O 464.285 -4.47309 -3.53936 0
M  V30 4741 O 463.219 -5.67165 -2.01512 0
M  V30 4742 H 467.045 -3.03696 -0.0163561 0
M  V30 4743 H 464.63 -1.49289 0.0576755 0
M  V30 4744 H 466.512 -3.43851 -2.43607 0
M  V30 4745 H 465.187 -2.24737 -2.3297 0
M  V30 4746 H 464.094 -3.70367 -0.527163 0
M  V30 4747 H 465.427 -4.87007 -0.71307 0
M  V30 4748 N 467.08 -0.0183926 -1.57589 0
M  V30 4749 C 468.326 0.663543 -1.91638 0
M  V30 4750 C 468.659 1.72392 -0.894134 0
M  V30 4751 O 467.934 1.94316 0.0846449 0
M  V30 4752 C 468.217 1.28984 -3.36207 0
M  V30 4753 C 468.07 0.239761 -4.49161 0
M  V30 4754 C 469.389 2.2109 -3.80536 0
M  V30 4755 H 466.508 0.239746 -0.696915 0
M  V30 4756 H 469.15 -0.073456 -1.89858 0
M  V30 4757 H 467.3 1.91799 -3.37854 0
M  V30 4758 H 468.972 -0.390119 -4.59647 0
M  V30 4759 H 467.215 -0.435972 -4.31604 0
M  V30 4760 H 467.886 0.717383 -5.47319 0
M  V30 4761 H 470.362 1.68273 -3.80557 0
M  V30 4762 H 469.238 2.61869 -4.82406 0
M  V30 4763 H 469.499 3.09764 -3.15434 0
M  V30 4764 N 468.558 1.5553 0.254621 0
M  V30 4765 C 469.783 1.81383 1.00573 0
M  V30 4766 C 470.208 0.594419 1.78461 0
M  V30 4767 O 469.566 -0.456403 1.75461 0
M  V30 4768 C 469.614 3.04892 1.92545 0
M  V30 4769 O 468.718 2.81266 3.01601 0
M  V30 4770 H 468.059 0.598969 0.286587 0
M  V30 4771 H 470.589 2.02703 0.277952 0
M  V30 4772 H 470.599 3.34119 2.34155 0
M  V30 4773 H 469.274 3.93287 1.3527 0
M  V30 4774 H 467.851 2.63185 2.64174 0
M  V30 4775 N 470.036 -0.519951 1.48776 0
M  V30 4776 C 471.261 -1.30447 1.6124 0
M  V30 4777 C 471.686 -1.86055 0.276591 0
M  V30 4778 O 471.044 -1.64915 -0.753183 0
M  V30 4779 C 471.092 -2.42406 2.66967 0
M  V30 4780 O 470.196 -3.45728 2.24824 0
M  V30 4781 H 469.537 -0.385924 0.540332 0
M  V30 4782 H 472.067 -0.624572 1.94834 0
M  V30 4783 H 472.077 -2.88447 2.88552 0
M  V30 4784 H 470.752 -2.01294 3.63941 0
M  V30 4785 H 469.329 -3.05737 2.13494 0
M  V30 4786 N 471.514 -1.37532 -0.769588 0
M  V30 4787 C 472.444 -1.36172 -1.89682 0
M  V30 4788 C 473.425 -0.23001 -1.68538 0
M  V30 4789 O 474.61 -0.43069 -1.89364 0
M  V30 4790 C 471.74 -1.1701 -3.26995 0
M  V30 4791 C 470.694 -2.27216 -3.62708 0
M  V30 4792 C 470.02 -1.93174 -4.98586 0
M  V30 4793 C 471.32 -3.6941 -3.69234 0
M  V30 4794 H 473.014 -2.30499 -1.91078 0
M  V30 4795 H 470.56 -1.10953 -0.917902 0
M  V30 4796 H 472.513 -1.14688 -4.05493 0
M  V30 4797 H 471.237 -0.191395 -3.26039 0
M  V30 4798 H 469.896 -2.28697 -2.86519 0
M  V30 4799 H 469.544 -0.938281 -4.94171 0
M  V30 4800 H 469.244 -2.66973 -5.23449 0
M  V30 4801 H 470.768 -1.92443 -5.79481 0
M  V30 4802 H 472.182 -3.70047 -4.37879 0
M  V30 4803 H 470.579 -4.4228 -4.05597 0
M  V30 4804 H 471.649 -4.0288 -2.69844 0
M  V30 4805 N 472.992 0.995999 -1.22138 0
M  V30 4806 C 474.232 1.75032 -1.05561 0
M  V30 4807 C 474.596 1.87729 0.402698 0
M  V30 4808 O 475.797 2.59813 0.689234 0
M  V30 4809 C 474.068 3.11973 -1.74379 0
M  V30 4810 S 475.627 4.03182 -1.73175 0
M  V30 4811 H 472.445 0.602137 -0.37809 0
M  V30 4812 H 475.047 1.19107 -1.55028 0
M  V30 4813 H 473.751 3.00371 -2.79652 0
M  V30 4814 H 473.282 3.7297 -1.25128 0
M  V30 4815 H 475.297 4.90043 -0.77923 0
M  V30 4816 N 474.47 1.03057 1.19235 0
M  V30 4817 C 475.38 0.622922 2.26179 0
M  V30 4818 C 476.396 -0.346113 1.70523 0
M  V30 4819 O 477.572 -0.203572 2.00369 0
M  V30 4820 C 474.637 -0.0182063 3.46695 0
M  V30 4821 C 473.698 0.998546 4.17526 0
M  V30 4822 C 472.931 0.387917 5.32288 0
M  V30 4823 O 473.154 -0.808668 5.64639 0
M  V30 4824 O 472.088 1.1116 5.91546 0
M  V30 4825 H 475.914 1.51363 2.63292 0
M  V30 4826 H 473.499 0.800856 1.26122 0
M  V30 4827 H 475.381 -0.375606 4.19723 0
M  V30 4828 H 474.056 -0.882895 3.11427 0
M  V30 4829 H 472.963 1.40756 3.4661 0
M  V30 4830 H 474.296 1.83366 4.56769 0
M  V30 4831 N 475.948 -1.35272 0.808662 0
M  V30 4832 C 476.858 -2.33546 0.222079 0
M  V30 4833 C 477.874 -1.6196 -0.636011 0
M  V30 4834 O 479.05 -1.93822 -0.547274 0
M  V30 4835 C 476.115 -3.41148 -0.61795 0
M  V30 4836 C 475.176 -4.28507 0.260875 0
M  V30 4837 C 474.409 -5.3097 -0.539156 0
M  V30 4838 O 474.632 -5.42123 -1.77367 0
M  V30 4839 O 473.566 -6.01858 0.0710526 0
M  V30 4840 H 477.392 -2.85515 1.03512 0
M  V30 4841 H 474.977 -1.38079 0.570495 0
M  V30 4842 H 476.859 -4.06889 -1.09634 0
M  V30 4843 H 475.534 -2.91447 -1.40855 0
M  V30 4844 H 474.441 -3.6574 0.786451 0
M  V30 4845 H 475.774 -4.81611 1.01547 0
M  V30 4846 N 477.426 -0.562348 -1.47226 0
M  V30 4847 C 478.376 0.202967 -2.27095 0
M  V30 4848 C 479.36 0.880611 -1.34663 0
M  V30 4849 O 480.552 0.778069 -1.58981 0
M  V30 4850 C 477.681 1.22906 -3.20545 0
M  V30 4851 C 476.767 0.554566 -4.20459 0
M  V30 4852 N 477.158 -0.378295 -5.04383 0
M  V30 4853 C 475.456 0.807854 -4.38623 0
M  V30 4854 C 476.157 -0.770583 -5.76573 0
M  V30 4855 N 475.133 -0.124263 -5.43458 0
M  V30 4856 H 478.935 -0.514196 -2.89367 0
M  V30 4857 H 476.449 -0.382655 -1.57827 0
M  V30 4858 H 478.446 1.79134 -3.76453 0
M  V30 4859 H 477.106 1.94726 -2.59831 0
M  V30 4860 H 478.117 -0.75274 -5.124 0
M  V30 4861 H 474.794 1.51418 -3.89075 0
M  V30 4862 H 476.184 -1.53742 -6.54074 0
M  V30 4863 N 478.904 1.54736 -0.299062 0
M  V30 4864 C 480.32 1.59507 0.0543849 0
M  V30 4865 C 480.52 1.31606 1.52585 0
M  V30 4866 O 479.576 1.08853 2.27832 0
M  V30 4867 C 480.889 2.98751 -0.34181 0
M  V30 4868 C 482.437 3.1165 -0.290414 0
M  V30 4869 C 482.912 4.53199 -0.661402 0
M  V30 4870 N 484.403 4.59114 -0.613863 0
M  V30 4871 C 485.138 5.66709 -0.873417 0
M  V30 4872 N 484.634 6.82349 -1.19884 0
M  V30 4873 N 486.427 5.56369 -0.800608 0
M  V30 4874 H 478.578 1.71133 -1.25806 0
M  V30 4875 H 480.841 0.799186 -0.509908 0
M  V30 4876 H 480.547 3.24085 -1.36608 0
M  V30 4877 H 480.421 3.75961 0.305508 0
M  V30 4878 H 482.808 2.86066 0.724605 0
M  V30 4879 H 482.889 2.366 -0.972327 0
M  V30 4880 H 482.533 4.79513 -1.67422 0
M  V30 4881 H 482.463 5.26583 0.0425612 0
M  V30 4882 H 484.954 3.76053 -0.3732 0
M  V30 4883 H 485.267 7.60326 -1.38291 0
M  V30 4884 H 483.612 6.83906 -1.23685 0
M  V30 4885 H 486.803 4.64904 -0.546045 0
M  V30 4886 H 486.976 6.40139 -1.00626 0
M  V30 4887 N 480.382 0.0267497 1.57577 0
M  V30 4888 C 481.315 -0.99059 2.05579 0
M  V30 4889 C 482.293 -1.31884 0.951065 0
M  V30 4890 O 483.477 -1.43592 1.22121 0
M  V30 4891 C 480.604 -2.31125 2.47586 0
M  V30 4892 C 479.65 -2.13777 3.69055 0
M  V30 4893 S 480.483 -1.4388 5.15809 0
M  V30 4894 C 481.639 -2.77321 5.6111 0
M  V30 4895 H 481.872 -0.581976 2.91548 0
M  V30 4896 H 479.405 -0.184876 1.53289 0
M  V30 4897 H 481.363 -3.07049 2.72454 0
M  V30 4898 H 480.024 -2.6912 1.61967 0
M  V30 4899 H 479.217 -3.11405 3.96287 0
M  V30 4900 H 478.819 -1.45996 3.44327 0
M  V30 4901 H 481.111 -3.73565 5.65204 0
M  V30 4902 H 482.054 -2.54756 6.60685 0
M  V30 4903 H 482.462 -2.82459 4.88751 0
M  V30 4904 N 481.861 -1.55662 -0.24637 0
M  V30 4905 C 483.138 -1.68272 -0.997198 0
M  V30 4906 C 483.518 -0.566785 -2.03349 0
M  V30 4907 O 482.866 0.429688 -2.24424 0
M  V30 4908 C 483.076 -3.08594 -1.63006 0
M  V30 4909 C 484.424 -3.6721 -2.13171 0
M  V30 4910 O 485.448 -3.11397 -1.72946 0
M  V30 4911 O 484.307 -4.65054 -2.87031 0
M  V30 4912 H 481.401 -0.684429 -0.464205 0
M  V30 4913 H 483.947 -1.67993 -0.240114 0
M  V30 4914 H 482.719 -3.81264 -0.880527 0
M  V30 4915 H 482.342 -3.12886 -2.45333 0
M  V30 4916 N 483.339 0.512053 -1.4905 0
M  V30 4917 C 484.587 1.26436 -1.57665 0
M  V30 4918 C 484.908 1.93255 -0.260293 0
M  V30 4919 O 484.178 1.82206 0.719564 0
M  V30 4920 H 482.758 0.469658 -0.580888 0
M  V30 4921 H 485.42 0.594398 -1.85615 0
M  V30 4922 H 484.516 2.03417 -2.36702 0
M  V30 4923 N 484.817 1.37938 0.762283 0
M  V30 4924 C 486.057 1.35076 1.53407 0
M  V30 4925 C 486.421 -0.061546 1.91901 0
M  V30 4926 O 487.622 -0.214973 2.67939 0
M  V30 4927 C 485.893 2.27206 2.75884 0
M  V30 4928 S 487.452 2.42283 3.65848 0
M  V30 4929 H 484.27 0.479387 0.52508 0
M  V30 4930 H 486.872 1.7378 0.895586 0
M  V30 4931 H 485.576 3.28724 2.457 0
M  V30 4932 H 485.107 1.8962 3.44685 0
M  V30 4933 H 487.122 1.64044 4.68299 0
M  V30 4934 N 486.295 -0.989507 1.22664 0
M  V30 4935 C 487.542 -1.72953 1.05325 0
M  V30 4936 C 487.87 -1.90104 -0.411168 0
M  V30 4937 O 487.125 -1.44386 -1.32103 0
M  V30 4938 C 487.424 -3.13649 1.71345 0
M  V30 4939 C 487.09 -3.16403 3.21248 0
M  V30 4940 C 485.752 -3.16862 3.62149 0
M  V30 4941 C 488.104 -3.12428 4.17179 0
M  V30 4942 C 485.432 -3.11051 4.97458 0
M  V30 4943 C 487.784 -3.08159 5.52468 0
M  V30 4944 C 486.448 -3.06935 5.92746 0
M  V30 4945 H 485.718 -0.632881 0.385412 0
M  V30 4946 H 488.365 -1.15863 1.52473 0
M  V30 4947 H 486.67 -3.74069 1.16532 0
M  V30 4948 H 488.367 -3.69658 1.55416 0
M  V30 4949 H 484.957 -3.16798 2.88682 0
M  V30 4950 H 489.141 -3.11221 3.86595 0
M  V30 4951 H 484.397 -3.0845 5.27891 0
M  V30 4952 H 488.571 -3.04039 6.26525 0
M  V30 4953 H 486.198 -3.02186 6.97558 0
M  V30 4954 N 487.773 -1.03688 -1.18687 0
M  V30 4955 C 489.013 -0.746858 -1.90267 0
M  V30 4956 C 489.377 0.712075 -1.78307 0
M  V30 4957 O 490.578 1.11553 -2.44559 0
M  V30 4958 C 488.849 -1.19543 -3.36815 0
M  V30 4959 S 490.408 -1.03047 -4.26529 0
M  V30 4960 H 487.226 -0.271663 -0.657054 0
M  V30 4961 H 489.828 -1.32838 -1.43437 0
M  V30 4962 H 488.532 -2.2527 -3.43047 0
M  V30 4963 H 488.063 -0.607533 -3.88681 0
M  V30 4964 H 490.078 0.0543232 -4.9617 0
M  V30 4965 N 489.251 1.34841 -0.815825 0
M  V30 4966 C 490.662 1.80937 -0.46029 0
M  V30 4967 C 491.013 1.67685 1.01863 0
M  V30 4968 O 490.138 1.21277 1.79223 0
M  V30 4969 C 490.733 3.28509 -0.828708 0
M  V30 4970 C 489.292 3.72712 -0.525644 0
M  V30 4971 C 488.439 2.56676 -1.04941 0
M  V30 4972 H 491.39 1.22688 -1.00664 0
M  V30 4973 H 491.411 3.80279 -0.129757 0
M  V30 4974 H 490.923 3.38122 -1.90513 0
M  V30 4975 H 489.024 3.68642 0.541666 0
M  V30 4976 H 489.137 4.67119 -1.06474 0
M  V30 4977 H 487.501 2.50302 -0.471286 0
M  V30 4978 H 488.284 2.69063 -2.13214 0
M  V30 4979 N 490.729 0.570148 1.46925 0
M  V30 4980 C 491.639 -0.173061 2.33961 0
M  V30 4981 C 492.655 -0.898825 1.48987 0
M  V30 4982 O 493.831 -0.864825 1.81887 0
M  V30 4983 C 490.896 -1.18177 3.25937 0
M  V30 4984 C 489.957 -0.462041 4.26806 0
M  V30 4985 C 489.19 -1.4227 5.14388 0
M  V30 4986 O 489.413 -2.65842 5.04662 0
M  V30 4987 O 488.347 -0.940127 5.94513 0
M  V30 4988 H 492.173 0.541216 2.98839 0
M  V30 4989 H 489.758 0.330647 1.45695 0
M  V30 4990 H 491.64 -1.76372 3.82715 0
M  V30 4991 H 490.315 -1.87774 2.63671 0
M  V30 4992 H 489.222 0.161429 3.73752 0
M  V30 4993 H 490.555 0.192719 4.91823 0
M  V30 4994 N 492.207 -1.54576 0.307264 0
M  V30 4995 C 493.455 -1.99867 -0.299574 0
M  V30 4996 C 493.776 -1.19714 -1.53927 0
M  V30 4997 O 493.046 -0.29472 -1.9367 0
M  V30 4998 H 491.626 -0.738299 -0.113683 0
M  V30 4999 H 494.288 -1.9032 0.420042 0
M  V30 5000 H 493.384 -3.06901 -0.567283 0
M  V30 5001 N 493.685 -0.035106 -1.57561 0
M  V30 5002 C 494.913 0.652258 -1.9635 0
M  V30 5003 C 495.328 1.65317 -0.911897 0
M  V30 5004 O 494.685 1.82194 0.105657 0
M  V30 5005 C 494.736 1.35337 -3.35211 0
M  V30 5006 O 494.457 0.392548 -4.36338 0
M  V30 5007 C 495.958 2.13199 -3.88666 0
M  V30 5008 H 493.178 0.179444 -0.646561 0
M  V30 5009 H 495.722 -0.0966459 -2.04271 0
M  V30 5010 H 493.877 2.05362 -3.28489 0
M  V30 5011 H 494.291 0.891097 -5.16875 0
M  V30 5012 H 495.765 2.577 -4.88154 0
M  V30 5013 H 496.242 2.97353 -3.23231 0
M  V30 5014 H 496.848 1.48118 -3.98674 0
M  V30 5015 N 495.163 1.55791 0.238111 0
M  V30 5016 C 496.409 1.78297 0.966337 0
M  V30 5017 C 496.742 0.601903 1.84637 0
M  V30 5018 O 496.017 -0.399499 1.90353 0
M  V30 5019 C 496.3 3.10758 1.81939 0
M  V30 5020 C 496.153 4.39283 0.966958 0
M  V30 5021 C 497.472 3.39519 2.80027 0
M  V30 5022 H 494.591 0.648654 0.349882 0
M  V30 5023 H 497.233 1.88525 0.236253 0
M  V30 5024 H 495.383 3.02168 2.44185 0
M  V30 5025 H 497.055 4.59873 0.362514 0
M  V30 5026 H 495.298 4.32948 0.271669 0
M  V30 5027 H 495.969 5.28368 1.59784 0
M  V30 5028 H 498.445 3.48128 2.27917 0
M  V30 5029 H 497.321 4.33402 3.36829 0
M  V30 5030 H 497.582 2.60864 3.56934 0
M  V30 5031 N 496.642 -0.504142 1.49319 0
M  V30 5032 C 497.872 -1.28071 1.62116 0
M  V30 5033 C 498.28 -1.86955 0.290566 0
M  V30 5034 O 497.623 -1.68415 -0.733616 0
M  V30 5035 C 497.685 -2.4521 2.62893 0
M  V30 5036 C 497.349 -2.07218 4.0732 0
M  V30 5037 C 498.346 -1.61375 4.94221 0
M  V30 5038 C 496.031 -2.16949 4.53033 0
M  V30 5039 C 498.025 -1.25763 6.2487 0
M  V30 5040 C 495.712 -1.80949 5.83696 0
M  V30 5041 C 496.71 -1.3543 6.69438 0
M  V30 5042 O 496.398 -0.99915 7.97667 0
M  V30 5043 H 496.13 -0.394763 0.54876 0
M  V30 5044 H 498.684 -0.612118 1.96067 0
M  V30 5045 H 496.914 -3.15134 2.24115 0
M  V30 5046 H 498.603 -3.0724 2.65252 0
M  V30 5047 H 499.369 -1.53306 4.60133 0
M  V30 5048 H 495.248 -2.5133 3.86463 0
M  V30 5049 H 498.792 -0.901631 6.91749 0
M  V30 5050 H 494.689 -1.88667 6.17313 0
M  V30 5051 H 495.457 -1.13089 8.1065 0
M  V30 5052 N 498.12 -1.38341 -0.754957 0
M  V30 5053 C 499.397 -1.24995 -1.50451 0
M  V30 5054 C 499.777 0.149244 -2.10572 0
M  V30 5055 O 499.125 1.15861 -1.96948 0
M  V30 5056 C 499.335 -2.35904 -2.57197 0
M  V30 5057 C 500.683 -2.74262 -3.24138 0
M  V30 5058 O 501.707 -2.35205 -2.67501 0
M  V30 5059 O 500.566 -3.4161 -4.26574 0
M  V30 5060 H 497.66 -0.48872 -0.667144 0
M  V30 5061 H 500.206 -1.50165 -0.790486 0
M  V30 5062 H 498.978 -3.2953 -2.11011 0
M  V30 5063 H 498.601 -2.12291 -3.36182 0
M  V30 5064 N 499.598 0.982988 -1.23187 0
M  V30 5065 C 500.875 1.69814 -0.970707 0
M  V30 5066 C 501.255 2.04811 0.511424 0
M  V30 5067 O 500.603 1.73924 1.48198 0
M  V30 5068 C 500.813 2.94143 -1.87831 0
M  V30 5069 C 502.161 3.66712 -2.14026 0
M  V30 5070 O 503.185 3.04171 -1.8536 0
M  V30 5071 O 502.044 4.79258 -2.62629 0
M  V30 5072 H 499.138 0.741659 -0.365884 0
M  V30 5073 H 501.684 1.03844 -1.34218 0
M  V30 5074 H 500.456 2.64858 -2.88038 0
M  V30 5075 H 500.079 3.6785 -1.50905 0
M  V30 5076 N 501.076 1.04316 1.18135 0
M  V30 5077 C 502.325 0.74319 1.87509 0
M  V30 5078 C 502.638 -0.732136 1.81381 0
M  V30 5079 O 503.844 -1.14572 2.46141 0
M  V30 5080 C 502.3 1.27913 3.36402 0
M  V30 5081 C 501.908 2.78326 3.51053 0
M  V30 5082 C 503.652 1.0558 4.11161 0
M  V30 5083 C 501.559 3.25266 4.93919 0
M  V30 5084 H 500.489 0.274313 0.702331 0
M  V30 5085 H 503.14 1.25931 1.33467 0
M  V30 5086 H 501.522 0.690853 3.89927 0
M  V30 5087 H 502.696 3.42933 3.07788 0
M  V30 5088 H 501.011 2.991 2.89704 0
M  V30 5089 H 503.608 1.38161 5.16542 0
M  V30 5090 H 503.951 -0.00684729 4.16299 0
M  V30 5091 H 504.484 1.60882 3.63816 0
M  V30 5092 H 501.223 4.30922 4.9395 0
M  V30 5093 H 500.743 2.65396 5.3789 0
M  V30 5094 H 502.422 3.19433 5.62647 0
M  V30 5095 N 502.554 -1.34406 0.822964 0
M  V30 5096 C 503.802 -1.97892 0.410245 0
M  V30 5097 C 504.123 -1.65567 -1.03017 0
M  V30 5098 O 503.393 -0.94642 -1.71522 0
M  V30 5099 H 501.973 -0.732049 0.148707 0
M  V30 5100 H 504.635 -1.64043 1.05242 0
M  V30 5101 H 503.731 -3.07579 0.529284 0
M  V30 5102 N 504.032 -0.577932 -1.46621 0
M  V30 5103 C 505.309 0.00495287 -1.95599 0
M  V30 5104 C 505.689 1.46428 -1.5206 0
M  V30 5105 O 505.037 2.1517 -0.769046 0
M  V30 5106 C 505.247 -0.162114 -3.48623 0
M  V30 5107 C 506.595 -0.0274623 -4.24591 0
M  V30 5108 O 507.619 -0.0907067 -3.56084 0
M  V30 5109 O 506.478 0.1122 -5.46385 0
M  V30 5110 H 503.572 0.0525057 -0.825332 0
M  V30 5111 H 506.118 -0.645914 -1.56927 0
M  V30 5112 H 504.89 -1.17679 -3.73185 0
M  V30 5113 H 504.513 0.525407 -3.94113 0
M  V30 5114 N 505.51 1.54411 -0.315457 0
M  V30 5115 C 506.735 2.05299 0.294496 0
M  V30 5116 C 507.16 1.19052 1.4563 0
M  V30 5117 O 506.518 0.197804 1.80218 0
M  V30 5118 C 506.566 3.5345 0.714549 0
M  V30 5119 O 505.67 3.70175 1.81781 0
M  V30 5120 H 505.011 0.661743 0.0547019 0
M  V30 5121 H 507.541 1.99327 -0.461508 0
M  V30 5122 H 507.551 3.9557 0.999426 0
M  V30 5123 H 506.226 4.1568 -0.135244 0
M  V30 5124 H 504.803 3.3996 1.53236 0
M  V30 5125 N 506.988 0.0434614 1.5754 0
M  V30 5126 C 508.236 -0.630786 1.92004 0
M  V30 5127 C 508.557 -1.71836 0.921807 0
M  V30 5128 O 507.827 -1.9587 -0.034522 0
M  V30 5129 H 506.407 -0.235988 0.708745 0
M  V30 5130 H 509.069 0.0946462 1.9467 0
M  V30 5131 H 508.165 -1.07434 2.93026 0
M  V30 5132 N 508.466 -1.55915 -0.229846 0
M  V30 5133 C 509.706 -1.80314 -0.962614 0
M  V30 5134 C 510.07 -0.61568 -1.81861 0
M  V30 5135 O 511.271 -0.738795 -2.58448 0
M  V30 5136 C 509.542 -3.0956 -1.78627 0
M  V30 5137 S 511.101 -3.55243 -2.57581 0
M  V30 5138 H 507.919 -0.633142 -0.323499 0
M  V30 5139 H 510.521 -1.94155 -0.228919 0
M  V30 5140 H 509.225 -3.94033 -1.14742 0
M  V30 5141 H 508.756 -2.98503 -2.56241 0
M  V30 5142 H 510.771 -3.17924 -3.80971 0
M  V30 5143 N 509.944 0.496216 -1.49584 0
M  V30 5144 C 511.19 1.25189 -1.59548 0
M  V30 5145 C 511.523 1.9212 -0.283466 0
M  V30 5146 O 510.798 1.80947 0.713324 0
M  V30 5147 C 511.081 2.31516 -2.75812 0
M  V30 5148 C 510.934 1.69054 -4.16822 0
M  V30 5149 C 512.253 3.3304 -2.87702 0
M  V30 5150 H 509.372 0.45379 -0.580727 0
M  V30 5151 H 512.014 0.549327 -1.81886 0
M  V30 5152 H 510.164 2.91438 -2.56897 0
M  V30 5153 H 511.836 1.12923 -4.47265 0
M  V30 5154 H 510.079 0.994485 -4.22247 0
M  V30 5155 H 510.75 2.462 -4.94054 0
M  V30 5156 H 513.226 2.83114 -3.04936 0
M  V30 5157 H 512.102 4.04794 -3.7072 0
M  V30 5158 H 512.363 3.95655 -1.97255 0
M  V30 5159 N 511.423 1.38739 0.74761 0
M  V30 5160 C 512.834 1.31507 1.32524 0
M  V30 5161 C 513.185 -0.0263963 1.96182 0
M  V30 5162 O 512.31 -0.92849 1.95469 0
M  V30 5163 C 512.905 2.38162 2.40966 0
M  V30 5164 C 511.464 2.34489 2.94434 0
M  V30 5165 C 510.611 2.20712 1.67873 0
M  V30 5166 H 513.562 1.4901 0.546043 0
M  V30 5167 H 513.583 2.04222 3.21051 0
M  V30 5168 H 513.095 3.35783 1.94605 0
M  V30 5169 H 511.196 1.40467 3.45108 0
M  V30 5170 H 511.309 3.28861 3.48407 0
M  V30 5171 H 509.673 1.67667 1.91729 0
M  V30 5172 H 510.456 3.20285 1.23582 0
M  V30 5173 N 512.901 -0.976442 1.23707 0
M  V30 5174 C 514.147 -1.72081 1.07312 0
M  V30 5175 C 514.48 -1.90275 -0.388476 0
M  V30 5176 O 513.755 -1.4579 -1.28746 0
M  V30 5177 C 514.038 -3.11675 1.80363 0
M  V30 5178 C 513.891 -3.01027 3.3422 0
M  V30 5179 C 515.21 -4.1117 1.5693 0
M  V30 5180 H 512.329 -0.624583 0.391236 0
M  V30 5181 H 514.971 -1.13649 1.52263 0
M  V30 5182 H 513.121 -3.61559 1.42153 0
M  V30 5183 H 514.793 -2.58637 3.81975 0
M  V30 5184 H 513.036 -2.3744 3.63049 0
M  V30 5185 H 513.707 -3.9988 3.80525 0
M  V30 5186 H 516.183 -3.7011 1.90151 0
M  V30 5187 H 515.059 -5.06928 2.10513 0
M  V30 5188 H 515.32 -4.392 0.505548 0
M  V30 5189 N 514.379 -1.04941 -1.1758 0
M  V30 5190 C 515.604 -0.778253 -1.92245 0
M  V30 5191 C 516.029 0.659707 -1.76152 0
M  V30 5192 O 515.387 1.45803 -1.07755 0
M  V30 5193 C 515.435 -1.16051 -3.41416 0
M  V30 5194 O 514.539 -0.291153 -4.11371 0
M  V30 5195 H 513.88 -0.285619 -0.599431 0
M  V30 5196 H 516.41 -1.40159 -1.49052 0
M  V30 5197 H 516.42 -1.12619 -3.92149 0
M  V30 5198 H 515.095 -2.208 -3.52449 0
M  V30 5199 H 513.672 -0.385851 -3.70898 0
M  V30 5200 N 515.857 1.33968 -0.830081 0
M  V30 5201 C 516.789 2.28194 -0.21448 0
M  V30 5202 C 517.802 1.5135 0.599752 0
M  V30 5203 O 518.991 1.73286 0.42826 0
M  V30 5204 C 516.091 3.31221 0.717356 0
M  V30 5205 C 515.264 4.37365 -0.055613 0
M  V30 5206 C 514.323 5.2011 0.798231 0
M  V30 5207 O 513.349 5.68691 0.240616 0
M  V30 5208 N 514.551 5.40523 2.11695 0
M  V30 5209 H 517.316 2.81662 -1.02405 0
M  V30 5210 H 514.877 1.46568 -0.687713 0
M  V30 5211 H 516.869 3.83477 1.29334 0
M  V30 5212 H 515.439 2.78095 1.42765 0
M  V30 5213 H 514.659 3.85727 -0.812936 0
M  V30 5214 H 515.947 5.05397 -0.587444 0
M  V30 5215 H 515.345 5.0274 2.59363 0
M  V30 5216 H 513.902 5.95871 2.64162 0
M  V30 5217 N 517.335 0.585699 1.46312 0
M  V30 5218 C 518.575 0.0751432 2.04262 0
M  V30 5219 C 518.939 -1.26201 1.44697 0
M  V30 5220 O 520.14 -1.86198 1.93865 0
M  V30 5221 C 518.411 0.013478 3.57397 0
M  V30 5222 S 519.97 -0.439068 4.36598 0
M  V30 5223 H 516.788 0.0389228 0.709934 0
M  V30 5224 H 519.39 0.778871 1.79315 0
M  V30 5225 H 518.094 0.990558 3.98266 0
M  V30 5226 H 517.625 -0.712927 3.86886 0
M  V30 5227 H 519.64 -1.6932 4.66417 0
M  V30 5228 N 518.813 -1.54241 0.323641 0
M  V30 5229 C 519.763 -2.21071 -0.557833 0
M  V30 5230 C 520.747 -1.19126 -1.08157 0
M  V30 5231 O 521.939 -1.44755 -1.01857 0
M  V30 5232 C 519.068 -2.97208 -1.71821 0
M  V30 5233 C 518.154 -4.06491 -1.20936 0
M  V30 5234 N 518.545 -5.04052 -0.420202 0
M  V30 5235 C 516.843 -4.20443 -1.48808 0
M  V30 5236 C 517.544 -5.81516 -0.146413 0
M  V30 5237 N 516.52 -5.38641 -0.732562 0
M  V30 5238 H 520.322 -2.93853 0.0523921 0
M  V30 5239 H 517.836 -1.61883 0.129502 0
M  V30 5240 H 519.833 -3.4357 -2.36146 0
M  V30 5241 H 518.493 -2.25947 -2.33191 0
M  V30 5242 H 519.504 -5.17862 -0.0630401 0
M  V30 5243 H 516.181 -3.60396 -2.10762 0
M  V30 5244 H 517.571 -6.70119 0.488895 0
M  V30 5245 N 520.291 -0.0518155 -1.57515 0
M  V30 5246 C 521.531 0.625712 -1.94587 0
M  V30 5247 C 521.895 1.6797 -0.930053 0
M  V30 5248 O 523.096 2.41135 -1.18774 0
M  V30 5249 C 521.367 1.20574 -3.36447 0
M  V30 5250 S 522.926 1.90118 -3.95475 0
M  V30 5251 H 519.744 0.205434 -0.680675 0
M  V30 5252 H 522.346 -0.120906 -1.95126 0
M  V30 5253 H 521.05 0.426521 -4.08178 0
M  V30 5254 H 520.581 1.98916 -3.39405 0
M  V30 5255 H 522.596 3.18184 -3.80753 0
M  V30 5256 N 521.769 1.56035 0.221574 0
M  V30 5257 C 523.185 1.49026 0.571271 0
M  V30 5258 C 523.385 0.746912 1.87146 0
M  V30 5259 O 522.441 0.286566 2.50869 0
M  V30 5260 C 523.754 2.93579 0.650522 0
M  V30 5261 C 525.302 3.04099 0.741151 0
M  V30 5262 C 525.777 4.5001 0.851747 0
M  V30 5263 N 527.268 4.54053 0.915968 0
M  V30 5264 C 528.003 5.64232 1.02125 0
M  V30 5265 N 527.499 6.84164 1.09049 0
M  V30 5266 N 529.292 5.52084 1.05639 0
M  V30 5267 H 521.443 2.02791 -0.63162 0
M  V30 5268 H 523.706 0.921736 -0.221602 0
M  V30 5269 H 523.412 3.50912 -0.235253 0
M  V30 5270 H 523.286 3.45476 1.51413 0
M  V30 5271 H 525.673 2.4683 1.61737 0
M  V30 5272 H 525.754 2.55371 -0.148128 0
M  V30 5273 H 525.398 5.07896 -0.0200117 0
M  V30 5274 H 525.328 4.96444 1.75644 0
M  V30 5275 H 527.819 3.67683 0.872782 0
M  V30 5276 H 528.132 7.63883 1.1706 0
M  V30 5277 H 526.477 6.86875 1.05962 0
M  V30 5278 H 529.668 4.57317 0.998953 0
M  V30 5279 H 529.841 6.37983 1.13498 0
M  V30 5280 N 523.247 -0.488276 1.49845 0
M  V30 5281 C 524.177 -1.59675 1.70371 0
M  V30 5282 C 525.158 -1.60878 0.552473 0
M  V30 5283 O 526.343 -1.77417 0.78973 0
M  V30 5284 C 523.473 -2.98098 1.782 0
M  V30 5285 C 522.427 -3.11761 2.93239 0
M  V30 5286 C 521.753 -4.51661 2.86193 0
M  V30 5287 C 523.053 -2.90589 4.33999 0
M  V30 5288 H 524.747 -1.42752 2.63177 0
M  V30 5289 H 522.293 -0.685317 1.26647 0
M  V30 5290 H 524.246 -3.75555 1.91144 0
M  V30 5291 H 522.97 -3.16138 0.820018 0
M  V30 5292 H 521.629 -2.36732 2.79917 0
M  V30 5293 H 521.277 -4.66595 1.87877 0
M  V30 5294 H 520.977 -4.61742 3.63412 0
M  V30 5295 H 522.501 -5.31162 3.01163 0
M  V30 5296 H 523.915 -3.57807 4.47936 0
M  V30 5297 H 522.312 -3.1213 5.12538 0
M  V30 5298 H 523.382 -1.86595 4.4756 0
M  V30 5299 N 524.725 -1.39134 -0.740242 0
M  V30 5300 C 525.675 -1.33928 -1.84519 0
M  V30 5301 C 526.659 -0.221097 -1.59374 0
M  V30 5302 O 527.851 -0.458195 -1.70967 0
M  V30 5303 C 524.98 -1.17991 -3.22387 0
M  V30 5304 C 524.066 -2.34488 -3.53378 0
M  V30 5305 N 524.457 -3.59954 -3.5534 0
M  V30 5306 C 522.755 -2.27331 -3.83714 0
M  V30 5307 C 523.456 -4.36962 -3.83978 0
M  V30 5308 N 522.432 -3.66482 -4.01487 0
M  V30 5309 H 526.234 -2.28907 -1.84333 0
M  V30 5310 H 523.748 -1.32555 -0.938237 0
M  V30 5311 H 525.745 -1.12345 -4.01478 0
M  V30 5312 H 524.405 -0.23957 -3.23815 0
M  V30 5313 H 525.416 -3.93448 -3.36778 0
M  V30 5314 H 522.093 -1.41531 -3.92779 0
M  V30 5315 H 523.483 -5.45692 -3.92008 0
M  V30 5316 N 526.204 0.969867 -1.24223 0
M  V30 5317 C 527.452 1.70918 -1.0785 0
M  V30 5318 C 527.773 1.91186 0.383763 0
M  V30 5319 O 527.043 1.48806 1.27411 0
M  V30 5320 H 525.623 0.633334 -0.396103 0
M  V30 5321 H 528.285 1.16689 -1.56108 0
M  V30 5322 H 527.381 2.69455 -1.57482 0
M  V30 5323 N 527.682 1.05563 1.17022 0
M  V30 5324 C 528.632 0.630007 2.19123 0
M  V30 5325 C 529.616 -0.335472 1.57364 0
M  V30 5326 O 530.808 -0.1521 1.76345 0
M  V30 5327 C 527.937 0.0101676 3.43298 0
M  V30 5328 C 527.023 0.999698 4.12149 0
M  V30 5329 N 527.414 2.17251 4.56766 0
M  V30 5330 C 525.712 0.829 4.38228 0
M  V30 5331 C 526.413 2.79883 5.09942 0
M  V30 5332 N 525.389 2.07656 5.02374 0
M  V30 5333 H 529.191 1.52353 2.51328 0
M  V30 5334 H 526.705 0.926288 1.33393 0
M  V30 5335 H 528.702 -0.312541 4.15727 0
M  V30 5336 H 527.362 -0.878707 3.12584 0
M  V30 5337 H 528.373 2.55067 4.50734 0
M  V30 5338 H 525.05 -0.00850974 4.17499 0
M  V30 5339 H 526.44 3.79362 5.54558 0
M  V30 5340 N 529.16 -1.33526 0.837174 0
M  V30 5341 C 530.09 -2.31764 0.284206 0
M  V30 5342 C 531.071 -1.58896 -0.607142 0
M  V30 5343 O 532.256 -1.86798 -0.531047 0
M  V30 5344 C 529.386 -3.43029 -0.542962 0
M  V30 5345 C 528.34 -4.27255 0.252451 0
M  V30 5346 C 527.666 -5.3012 -0.69836 0
M  V30 5347 C 528.966 -5.01229 1.46858 0
M  V30 5348 H 530.66 -2.78262 1.10502 0
M  V30 5349 H 528.206 -1.3378 0.532812 0
M  V30 5350 H 530.159 -4.1078 -0.940096 0
M  V30 5351 H 528.883 -2.95216 -1.39697 0
M  V30 5352 H 527.542 -3.61127 0.631124 0
M  V30 5353 H 527.19 -4.78564 -1.54872 0
M  V30 5354 H 526.89 -5.87353 -0.170274 0
M  V30 5355 H 528.414 -6.00737 -1.09305 0
M  V30 5356 H 529.828 -5.61756 1.14469 0
M  V30 5357 H 528.225 -5.68104 1.93333 0
M  V30 5358 H 529.295 -4.301 2.23924 0
M  V30 5359 N 530.638 -0.59345 -1.46 0
M  V30 5360 C 531.868 -0.0889642 -2.06408 0
M  V30 5361 C 532.276 1.22597 -1.44106 0
M  V30 5362 O 531.619 1.75448 -0.544398 0
M  V30 5363 C 531.681 0.139902 -3.59228 0
M  V30 5364 C 531.345 -1.09107 -4.43784 0
M  V30 5365 C 532.342 -2.00577 -4.79651 0
M  V30 5366 C 530.027 -1.31593 -4.84756 0
M  V30 5367 C 532.021 -3.12873 -5.55328 0
M  V30 5368 C 529.708 -2.44192 -5.60191 0
M  V30 5369 C 530.706 -3.34661 -5.95392 0
M  V30 5370 O 530.394 -4.45302 -6.69299 0
M  V30 5371 H 530.126 -0.0594613 -0.67338 0
M  V30 5372 H 532.68 -0.817 -1.88452 0
M  V30 5373 H 530.91 0.922672 -3.75531 0
M  V30 5374 H 532.599 0.594228 -4.01527 0
M  V30 5375 H 533.365 -1.84425 -4.48567 0
M  V30 5376 H 529.244 -0.620801 -4.56801 0
M  V30 5377 H 532.788 -3.83511 -5.82722 0
M  V30 5378 H 528.685 -2.60303 -5.90688 0
M  V30 5379 H 529.453 -4.43805 -6.87735 0
M  V30 5380 N 532.116 1.54067 -0.331816 0
M  V30 5381 C 533.344 2.05131 0.269996 0
M  V30 5382 C 533.759 1.20749 1.45138 0
M  V30 5383 O 533.116 0.240069 1.80914 0
M  V30 5384 C 533.167 3.54728 0.696456 0
M  V30 5385 O 532.888 4.35906 -0.43794 0
M  V30 5386 C 534.389 4.21916 1.36021 0
M  V30 5387 H 531.609 0.668807 0.0542042 0
M  V30 5388 H 534.153 1.98777 -0.4804 0
M  V30 5389 H 532.308 3.61342 1.39681 0
M  V30 5390 H 532.722 5.24404 -0.100334 0
M  V30 5391 H 534.196 5.28015 1.60947 0
M  V30 5392 H 534.673 3.73538 2.31011 0
M  V30 5393 H 535.279 4.19463 0.702212 0
M  V30 5394 N 533.594 0.0601682 1.57485 0
M  V30 5395 C 535.005 -0.474217 1.80577 0
M  V30 5396 C 535.356 -1.70365 0.973147 0
M  V30 5397 O 534.481 -2.15544 0.192306 0
M  V30 5398 C 535.076 -0.867102 3.27516 0
M  V30 5399 C 533.635 -1.34642 3.51495 0
M  V30 5400 C 532.782 -0.32594 2.75378 0
M  V30 5401 H 535.733 0.285973 1.56102 0
M  V30 5402 H 535.754 -1.72938 3.38929 0
M  V30 5403 H 535.266 0.0278927 3.8809 0
M  V30 5404 H 533.367 -2.2603 2.96212 0
M  V30 5405 H 533.48 -1.33237 4.60201 0
M  V30 5406 H 531.844 -0.800749 2.41785 0
M  V30 5407 H 532.627 0.561125 3.38683 0
M  V30 5408 N 535.072 -1.5615 -0.213296 0
M  V30 5409 C 536.32 -1.79191 -0.934612 0
M  V30 5410 C 536.641 -0.630112 -1.84539 0
M  V30 5411 O 535.911 0.35257 -1.92701 0
M  V30 5412 H 534.491 -0.660937 -0.348097 0
M  V30 5413 H 537.153 -1.93618 -0.22317 0
M  V30 5414 H 536.249 -2.71656 -1.53654 0
M  V30 5415 N 536.55 0.480323 -1.50102 0
M  V30 5416 C 537.482 1.59669 -1.64433 0
M  V30 5417 C 538.495 1.54063 -0.52615 0
M  V30 5418 O 539.684 1.59619 -0.798992 0
M  V30 5419 C 536.784 2.98527 -1.6042 0
M  V30 5420 C 535.957 3.291 -2.88117 0
M  V30 5421 C 535.016 4.47468 -2.76873 0
M  V30 5422 O 534.042 4.4823 -3.50825 0
M  V30 5423 N 535.244 5.48593 -1.89806 0
M  V30 5424 H 538.009 1.47795 -2.60723 0
M  V30 5425 H 535.57 0.66858 -1.4745 0
M  V30 5426 H 537.562 3.75666 -1.50523 0
M  V30 5427 H 536.132 3.04218 -0.719036 0
M  V30 5428 H 535.352 2.40662 -3.12211 0
M  V30 5429 H 536.64 3.46334 -3.72734 0
M  V30 5430 H 536.038 5.50791 -1.2902 0
M  V30 5431 H 534.595 6.24752 -1.85819 0
M  V30 5432 N 538.028 1.39524 0.732853 0
M  V30 5433 C 538.938 1.40695 1.87729 0
M  V30 5434 C 539.954 0.301496 1.71368 0
M  V30 5435 O 541.13 0.543313 1.93933 0
M  V30 5436 C 538.195 1.25098 3.23344 0
M  V30 5437 C 537.256 2.45634 3.52083 0
M  V30 5438 C 536.489 2.30772 4.81228 0
M  V30 5439 O 536.712 1.31233 5.55098 0
M  V30 5440 O 535.646 3.19799 5.09914 0
M  V30 5441 H 539.472 2.37168 1.89697 0
M  V30 5442 H 537.057 1.20663 0.880959 0
M  V30 5443 H 538.939 1.18541 4.04383 0
M  V30 5444 H 537.614 0.317209 3.22142 0
M  V30 5445 H 536.521 2.57767 2.71122 0
M  V30 5446 H 537.854 3.37712 3.58066 0
M  V30 5447 N 539.506 -0.963266 1.24736 0
M  V30 5448 C 540.755 -1.70115 1.08369 0
M  V30 5449 C 541.068 -1.91939 -0.376688 0
M  V30 5450 O 542.274 -2.6334 -0.660624 0
M  V30 5451 C 540.73 -3.06218 1.89099 0
M  V30 5452 C 540.338 -2.92221 3.39574 0
M  V30 5453 C 542.082 -3.83848 1.81275 0
M  V30 5454 C 539.989 -4.23662 4.12631 0
M  V30 5455 H 538.919 -0.637944 0.401924 0
M  V30 5456 H 541.57 -1.07304 1.48856 0
M  V30 5457 H 539.952 -3.69884 1.41429 0
M  V30 5458 H 541.126 -2.37541 3.94856 0
M  V30 5459 H 539.441 -2.28054 3.48397 0
M  V30 5460 H 542.038 -4.81188 2.33158 0
M  V30 5461 H 542.381 -4.08949 0.778895 0
M  V30 5462 H 542.914 -3.26918 2.26649 0
M  V30 5463 H 539.653 -4.03753 5.16395 0
M  V30 5464 H 539.173 -4.78141 3.62135 0
M  V30 5465 H 540.852 -4.92256 4.19873 0
M  V30 5466 N 540.985 -1.06182 -1.16461 0
M  V30 5467 C 542.213 -0.798583 -1.90867 0
M  V30 5468 C 542.628 0.646921 -1.77371 0
M  V30 5469 O 541.985 1.44279 -1.11758 0
M  V30 5470 C 542.036 -1.18258 -3.4161 0
M  V30 5471 O 541.757 -2.57135 -3.54701 0
M  V30 5472 C 543.258 -0.946917 -4.33069 0
M  V30 5473 H 540.478 -0.289603 -0.605286 0
M  V30 5474 H 543.022 -1.41515 -1.47627 0
M  V30 5475 H 541.177 -0.610562 -3.82558 0
M  V30 5476 H 541.591 -2.72477 -4.4817 0
M  V30 5477 H 543.065 -1.26523 -5.37304 0
M  V30 5478 H 543.542 0.117406 -4.39043 0
M  V30 5479 H 544.148 -1.50326 -3.97847 0
M  V30 5480 N 542.463 1.3308 -0.844243 0
M  V30 5481 C 543.411 2.31028 -0.269954 0
M  V30 5482 C 544.405 1.58381 0.600997 0
M  V30 5483 O 545.611 1.73203 0.48996 0
M  V30 5484 H 541.986 0.748866 -0.0685782 0
M  V30 5485 H 543.957 2.76967 -1.11049 0
M  V30 5486 C 542.706 3.43549 0.535676 0
M  V30 5487 H 542.029 3.99604 -0.125202 0
M  V30 5488 H 543.469 4.14267 0.903262 0
M  V30 5489 C 541.928 2.8988 1.71672 0
M  V30 5490 O 542.458 2.86511 2.81557 0
M  V30 5491 N 540.664 2.46416 1.54037 0
M  V30 5492 H 540.211 2.49356 0.64649 0
M  V30 5493 H 540.169 2.1086 2.33207 0
M  V30 5494 N 543.941 0.601185 1.45683 0
M  V30 5495 C 545.218 0.0261659 1.95582 0
M  V30 5496 C 545.598 -1.4399 1.5437 0
M  V30 5497 O 544.946 -2.13919 0.80318 0
M  V30 5498 C 545.156 0.217557 3.48321 0
M  V30 5499 C 546.504 0.0950076 4.24494 0
M  V30 5500 O 547.528 0.147345 3.55895 0
M  V30 5501 O 546.387 -0.025261 5.46494 0
M  V30 5502 H 543.481 -0.0393688 0.826062 0
M  V30 5503 H 546.027 0.670798 1.55879 0
M  V30 5504 H 544.799 1.23601 3.71266 0
M  V30 5505 H 544.422 -0.46264 3.94899 0
M  V30 5506 N 545.419 -1.53889 0.339982 0
M  V30 5507 C 546.659 -2.02765 -0.258011 0
M  V30 5508 C 547.023 -1.22249 -1.48051 0
M  V30 5509 O 548.224 -1.61007 -2.15245 0
M  V30 5510 C 546.495 -3.5286 -0.567872 0
M  V30 5511 S 548.054 -4.23647 -1.14318 0
M  V30 5512 H 544.872 -0.706814 -0.0770389 0
M  V30 5513 H 547.474 -1.89594 0.476917 0
M  V30 5514 H 546.178 -4.09073 0.329745 0
M  V30 5515 H 545.709 -3.70144 -1.33256 0
M  V30 5516 H 547.724 -4.32676 -2.42911 0
M  V30 5517 N 546.897 -0.0685191 -1.57451 0
M  V30 5518 C 547.807 0.914677 -2.16034 0
M  V30 5519 C 548.823 1.32938 -1.12265 0
M  V30 5520 O 549.999 1.40275 -1.44516 0
M  V30 5521 C 547.064 2.16519 -2.70777 0
M  V30 5522 C 546.125 1.80721 -3.89408 0
M  V30 5523 C 545.358 2.9981 -4.41531 0
M  V30 5524 O 545.581 4.13727 -3.92666 0
M  V30 5525 O 544.515 2.79817 -5.32903 0
M  V30 5526 H 548.341 0.446364 -3.00402 0
M  V30 5527 H 545.926 0.154367 -1.486 0
M  V30 5528 H 547.808 2.89856 -3.05878 0
M  V30 5529 H 546.483 2.62454 -1.89471 0
M  V30 5530 H 545.39 1.04646 -3.59166 0
M  V30 5531 H 546.723 1.39571 -4.71997 0
M  V30 5532 N 548.375 1.56261 0.205012 0
M  V30 5533 C 549.307 1.90266 1.27795 0
M  V30 5534 C 550.32 0.792397 1.42214 0
M  V30 5535 O 551.509 1.07077 1.42817 0
M  V30 5536 C 548.609 2.11074 2.65143 0
M  V30 5537 C 547.782 3.42176 2.7246 0
M  V30 5538 C 546.841 3.52216 3.90936 0
M  V30 5539 O 545.867 4.25119 3.78501 0
M  V30 5540 N 547.069 2.84573 5.05963 0
M  V30 5541 H 549.834 2.82896 0.989434 0
M  V30 5542 H 547.395 1.57008 0.394981 0
M  V30 5543 H 549.387 2.15089 3.4281 0
M  V30 5544 H 547.957 1.2499 2.86524 0
M  V30 5545 H 547.177 3.50116 1.81142 0
M  V30 5546 H 548.465 4.28509 2.74331 0
M  V30 5547 H 547.863 2.25152 5.18963 0
M  V30 5548 H 546.42 2.94228 5.81613 0
M  V30 5549 N 549.853 -0.472356 1.50355 0
M  V30 5550 C 551.093 -1.23439 1.62918 0
M  V30 5551 C 551.457 -1.89284 0.321801 0
M  V30 5552 O 552.658 -2.66854 0.322852 0
M  V30 5553 C 550.929 -2.25119 2.7759 0
M  V30 5554 S 552.488 -3.10278 3.10279 0
M  V30 5555 H 549.306 -0.41911 0.574341 0
M  V30 5556 H 551.908 -0.531621 1.88133 0
M  V30 5557 H 550.612 -1.75324 3.71066 0
M  V30 5558 H 550.143 -3.00026 2.54457 0
M  V30 5559 H 552.158 -4.26257 2.54007 0
M  V30 5560 N 551.331 -1.39911 -0.725443 0
M  V30 5561 C 552.577 -1.37858 -1.48738 0
M  V30 5562 C 552.91 0.0224187 -1.94187 0
M  V30 5563 O 552.185 0.989204 -1.67466 0
M  V30 5564 C 552.468 -2.3594 -2.72038 0
M  V30 5565 C 552.321 -3.85023 -2.32546 0
M  V30 5566 C 553.64 -2.31704 -3.74167 0
M  V30 5567 H 550.759 -0.502074 -0.539528 0
M  V30 5568 H 553.401 -1.70974 -0.828728 0
M  V30 5569 H 551.551 -2.0783 -3.28236 0
M  V30 5570 H 553.223 -4.2392 -1.81905 0
M  V30 5571 H 551.466 -4.01334 -1.64661 0
M  V30 5572 H 552.137 -4.49152 -3.20884 0
M  V30 5573 H 554.613 -2.5658 -3.27576 0
M  V30 5574 H 553.489 -3.02395 -4.58092 0
M  V30 5575 H 553.75 -1.3253 -4.21768 0
M  V30 5576 N 552.809 0.956637 -1.25245 0
M  V30 5577 C 554.049 1.71585 -1.11076 0
M  V30 5578 C 554.413 1.88916 0.34277 0
M  V30 5579 O 555.614 2.61875 0.606227 0
M  V30 5580 C 553.885 3.06267 -1.84215 0
M  V30 5581 S 555.444 3.97469 -1.85914 0
M  V30 5582 H 552.262 0.589803 -0.397055 0
M  V30 5583 H 554.864 1.14114 -1.58739 0
M  V30 5584 H 553.568 2.91322 -2.89067 0
M  V30 5585 H 553.099 3.688 -1.36931 0
M  V30 5586 H 555.114 4.87316 -0.93474 0
M  V30 5587 N 554.287 1.06798 1.15896 0
M  V30 5588 C 555.235 0.677525 2.22514 0
M  V30 5589 C 556.229 -0.308994 1.66558 0
M  V30 5590 O 557.435 -0.173308 1.79164 0
M  V30 5591 H 553.81 0.200994 0.724642 0
M  V30 5592 H 555.781 1.5865 2.52731 0
M  V30 5593 C 554.53 0.0854153 3.47595 0
M  V30 5594 H 553.853 0.835645 3.90969 0
M  V30 5595 H 555.293 -0.150199 4.23734 0
M  V30 5596 C 553.752 -1.1724 3.15843 0
M  V30 5597 O 554.282 -2.25965 3.32119 0
M  V30 5598 N 552.488 -1.07636 2.69931 0
M  V30 5599 H 552.035 -0.191559 2.56887 0
M  V30 5600 H 551.993 -1.91876 2.4906 0
M  V30 5601 N 555.766 -1.3263 0.851289 0
M  V30 5602 C 556.729 -2.27247 0.298541 0
M  V30 5603 C 557.729 -1.51467 -0.539847 0
M  V30 5604 O 558.919 -1.7061 -0.351843 0
M  V30 5605 C 556.051 -3.35964 -0.578004 0
M  V30 5606 H 557.244 -2.7765 1.13359 0
M  V30 5607 H 554.797 -1.43245 0.625354 0
M  V30 5608 H 555.532 -2.90823 -1.435 0
M  V30 5609 H 555.317 -3.92094 0.0220539 0
M  V30 5610 H 556.807 -4.06472 -0.957626 0
M  V30 5611 N 557.244 -0.608902 -1.45362 0
M  V30 5612 C 558.492 -0.104401 -2.0183 0
M  V30 5613 C 558.813 1.27007 -1.47967 0
M  V30 5614 O 558.083 1.83924 -0.674455 0
M  V30 5615 H 556.663 -0.0356042 -0.746151 0
M  V30 5616 H 559.325 -0.790596 -1.78145 0
M  V30 5617 H 558.421 -0.0551793 -3.12051 0
M  V30 5618 N 558.722 1.53707 -0.348139 0
M  V30 5619 C 560.138 1.596 0.00361134 0
M  V30 5620 C 560.338 1.36394 1.4832 0
M  V30 5621 O 559.394 1.16046 2.24253 0
M  V30 5622 C 560.707 2.97512 -0.436682 0
M  V30 5623 C 562.255 3.10568 -0.389416 0
M  V30 5624 C 562.73 4.50866 -0.805249 0
M  V30 5625 N 564.221 4.56929 -0.759616 0
M  V30 5626 C 564.956 5.63643 -1.05327 0
M  V30 5627 N 564.452 6.78189 -1.41531 0
M  V30 5628 N 566.245 5.5354 -0.977207 0
M  V30 5629 H 558.396 1.67044 -1.31187 0
M  V30 5630 H 560.659 0.782559 -0.535075 0
M  V30 5631 H 560.365 3.19575 -1.46849 0
M  V30 5632 H 560.239 3.76742 0.185744 0
M  V30 5633 H 562.626 2.88226 0.633228 0
M  V30 5634 H 562.707 2.33387 -1.04711 0
M  V30 5635 H 562.351 4.73943 -1.82593 0
M  V30 5636 H 562.281 5.26452 -0.124989 0
M  V30 5637 H 564.772 3.74675 -0.49265 0
M  V30 5638 H 565.085 7.55541 -1.62411 0
M  V30 5639 H 563.43 6.79624 -1.45381 0
M  V30 5640 H 566.621 4.62932 -0.693675 0
M  V30 5641 H 566.794 6.36614 -1.2094 0
M  V30 5642 N 560.2 0.0768682 1.57412 0
M  V30 5643 C 561.446 -0.585926 1.94778 0
M  V30 5644 C 561.801 -1.66912 0.956982 0
M  V30 5645 O 561.094 -1.9159 -0.0199454 0
M  V30 5646 C 561.288 -1.20268 3.36557 0
M  V30 5647 C 561.117 -0.18076 4.49337 0
M  V30 5648 C 559.887 0.236362 5.04747 0
M  V30 5649 C 562.085 0.583978 5.10974 0
M  V30 5650 N 560.067 1.24846 6.01071 0
M  V30 5651 C 561.438 1.44841 6.02844 0
M  V30 5652 C 563.493 0.639492 4.93776 0
M  V30 5653 C 562.196 2.36343 6.79363 0
M  V30 5654 C 564.222 1.54204 5.70942 0
M  V30 5655 C 563.584 2.39414 6.62465 0
M  V30 5656 H 559.683 -0.185281 0.759734 0
M  V30 5657 H 562.267 0.155193 1.9408 0
M  V30 5658 H 560.438 -1.9137 3.37982 0
M  V30 5659 H 562.17 -1.82636 3.61146 0
M  V30 5660 H 558.925 -0.14777 4.73369 0
M  V30 5661 H 559.349 1.75217 6.53933 0
M  V30 5662 H 563.991 -0.00510074 4.228 0
M  V30 5663 H 561.709 3.01836 7.49614 0
M  V30 5664 H 565.295 1.5899 5.59655 0
M  V30 5665 H 564.175 3.0812 7.21132 0
M  V30 5666 N 561.678 -1.56367 -0.196722 0
M  V30 5667 C 562.924 -1.80796 -0.918725 0
M  V30 5668 C 563.257 -0.650645 -1.82976 0
M  V30 5669 O 562.532 0.348889 -1.91345 0
M  V30 5670 C 562.815 -3.15472 -1.73636 0
M  V30 5671 C 562.668 -4.41693 -0.85015 0
M  V30 5672 C 563.987 -3.46824 -2.70927 0
M  V30 5673 H 561.106 -0.657702 -0.332561 0
M  V30 5674 H 563.748 -1.89086 -0.186186 0
M  V30 5675 H 561.898 -3.08536 -2.36088 0
M  V30 5676 H 563.57 -4.60673 -0.240459 0
M  V30 5677 H 561.813 -4.33517 -0.156785 0
M  V30 5678 H 562.484 -5.32419 -1.45719 0
M  V30 5679 H 564.96 -3.54049 -2.18607 0
M  V30 5680 H 563.836 -4.4218 -3.25219 0
M  V30 5681 H 564.097 -2.70236 -3.49893 0
M  V30 5682 N 563.156 0.464375 -1.50603 0
M  V30 5683 C 564.396 1.22573 -1.6357 0
M  V30 5684 C 564.76 1.89111 -0.331834 0
M  V30 5685 O 565.961 2.66679 -0.336999 0
M  V30 5686 C 564.232 2.23643 -2.7878 0
M  V30 5687 S 565.791 3.08628 -3.1192 0
M  V30 5688 H 562.609 0.416058 -0.576556 0
M  V30 5689 H 565.211 0.521637 -1.88412 0
M  V30 5690 H 563.915 1.73354 -3.7199 0
M  V30 5691 H 563.446 2.98672 -2.56044 0
M  V30 5692 H 565.461 4.24904 -2.56264 0
M  V30 5693 N 564.634 1.40294 0.718013 0
M  V30 5694 C 565.581 1.40367 1.8321 0
M  V30 5695 C 566.551 0.260952 1.64037 0
M  V30 5696 O 567.736 0.458648 1.85205 0
M  V30 5697 C 564.876 1.26965 3.20895 0
M  V30 5698 C 563.989 2.50922 3.51656 0
M  V30 5699 C 563.124 2.29981 4.78834 0
M  V30 5700 C 562.163 3.49527 5.02491 0
M  V30 5701 N 561.3 3.27796 6.20882 0
M  V30 5702 H 566.14 2.35593 1.82482 0
M  V30 5703 H 563.677 1.17012 0.891444 0
M  V30 5704 H 565.635 1.17202 4.00399 0
M  V30 5705 H 564.265 0.353591 3.20858 0
M  V30 5706 H 563.317 2.71223 2.66725 0
M  V30 5707 H 564.629 3.39913 3.65048 0
M  V30 5708 H 563.783 2.17558 5.66351 0
M  V30 5709 H 562.522 1.38411 4.67647 0
M  V30 5710 H 561.527 3.6243 4.1343 0
M  V30 5711 H 562.752 4.42021 5.15553 0
M  V30 5712 H 560.698 2.38906 6.1095 0
M  V30 5713 H 560.615 4.10351 6.34939 0
M  V30 5714 H 561.883 3.19101 7.11193 0
M  V30 5715 N 566.112 -0.949982 1.2575 0
M  V30 5716 C 567.389 -1.6718 1.01539 0
M  V30 5717 C 567.769 -2.06095 -0.456942 0
M  V30 5718 O 567.117 -1.77792 -1.43534 0
M  V30 5719 C 567.327 -2.8906 1.95564 0
M  V30 5720 C 568.675 -3.60909 2.23673 0
M  V30 5721 O 569.699 -2.9915 1.9336 0
M  V30 5722 O 568.558 -4.72127 2.75243 0
M  V30 5723 H 565.652 -0.731697 0.385419 0
M  V30 5724 H 568.198 -1.00249 1.36924 0
M  V30 5725 H 566.97 -2.57128 2.94959 0
M  V30 5726 H 566.593 -3.63719 1.60605 0
M  V30 5727 N 567.59 -1.07411 -1.15328 0
M  V30 5728 C 568.52 -0.716472 -2.22236 0
M  V30 5729 C 569.501 0.296373 -1.67498 0
M  V30 5730 O 570.686 0.168989 -1.93463 0
M  V30 5731 C 567.816 -0.114142 -3.47112 0
M  V30 5732 C 566.77 -1.05421 -4.14814 0
M  V30 5733 C 566.096 -0.314604 -5.33774 0
M  V30 5734 C 567.396 -2.38808 -4.64508 0
M  V30 5735 H 569.09 -1.61029 -2.52408 0
M  V30 5736 H 566.636 -0.775702 -1.21321 0
M  V30 5737 H 568.589 0.148001 -4.2114 0
M  V30 5738 H 567.313 0.814755 -3.16274 0
M  V30 5739 H 565.972 -1.30128 -3.42728 0
M  V30 5740 H 565.62 0.617772 -4.99192 0
M  V30 5741 H 565.32 -0.941209 -5.80013 0
M  V30 5742 H 566.844 -0.0602747 -6.1057 0
M  V30 5743 H 568.258 -2.18424 -5.3006 0
M  V30 5744 H 566.655 -2.97069 -5.21412 0
M  V30 5745 H 567.725 -3.01067 -3.80114 0
M  V30 5746 N 569.068 1.32177 -0.85831 0
M  V30 5747 C 570.479 1.79381 -0.517621 0
M  V30 5748 C 570.83 1.70841 0.964769 0
M  V30 5749 O 569.955 1.26917 1.75274 0
M  V30 5750 C 570.55 3.25706 -0.932801 0
M  V30 5751 C 569.109 3.70851 -0.643953 0
M  V30 5752 C 568.256 2.53208 -1.13054 0
M  V30 5753 H 571.207 1.19424 -1.04516 0
M  V30 5754 H 571.228 3.79673 -0.250674 0
M  V30 5755 H 570.74 3.31889 -2.01174 0
M  V30 5756 H 568.841 3.70178 0.424112 0
M  V30 5757 H 568.954 4.63495 -1.21281 0
M  V30 5758 H 567.318 2.48676 -0.550679 0
M  V30 5759 H 568.101 2.62143 -2.21666 0
M  V30 5760 N 570.547 0.616602 1.45037 0
M  V30 5761 C 571.787 0.118453 2.04056 0
M  V30 5762 C 572.151 -1.23104 1.47341 0
M  V30 5763 O 573.352 -1.82044 1.97771 0
M  V30 5764 C 571.623 0.0892842 3.57288 0
M  V30 5765 S 573.182 -0.346361 4.37431 0
M  V30 5766 H 570 0.0539728 0.708948 0
M  V30 5767 H 572.602 0.816731 1.77623 0
M  V30 5768 H 571.306 1.07481 3.96076 0
M  V30 5769 H 570.837 -0.630703 3.88311 0
M  V30 5770 H 572.852 -1.59389 4.69904 0
M  V30 5771 N 572.025 -1.5352 0.356285 0
M  V30 5772 C 573.436 -1.86282 -0.12492 0
M  V30 5773 C 573.787 -1.27717 -1.48939 0
M  V30 5774 O 572.912 -0.595614 -2.08042 0
M  V30 5775 C 573.507 -3.37995 -0.23345 0
M  V30 5776 C 572.066 -3.70588 -0.658899 0
M  V30 5777 C 571.213 -2.76581 0.199596 0
M  V30 5778 H 574.164 -1.47901 0.575423 0
M  V30 5779 H 574.185 -3.65475 -1.0587 0
M  V30 5780 H 573.697 -3.8059 0.759776 0
M  V30 5781 H 571.798 -3.33544 -1.66069 0
M  V30 5782 H 571.911 -4.77076 -0.439957 0
M  V30 5783 H 570.275 -2.52552 -0.330076 0
M  V30 5784 H 571.058 -3.22008 1.19019 0
M  V30 5785 N 573.503 -0.0852151 -1.57369 0
M  V30 5786 C 574.751 0.579658 -1.93609 0
M  V30 5787 C 575.072 1.69332 -0.967043 0
M  V30 5788 O 574.342 1.95892 -0.0174215 0
M  V30 5789 H 572.922 0.217113 -0.714752 0
M  V30 5790 H 575.584 -0.146226 -1.94351 0
M  V30 5791 H 574.68 0.996276 -2.95771 0
M  V30 5792 N 574.981 1.5647 0.188427 0
M  V30 5793 C 576.209 1.85131 0.923803 0
M  V30 5794 C 576.624 0.668537 1.76567 0
M  V30 5795 O 575.981 -0.362662 1.7886 0
M  V30 5796 C 576.032 3.12661 1.81453 0
M  V30 5797 O 575.753 4.26378 1.00665 0
M  V30 5798 C 577.254 3.54548 2.66103 0
M  V30 5799 H 574.474 0.614624 0.269218 0
M  V30 5800 H 577.018 2.03581 0.193671 0
M  V30 5801 H 575.173 2.96088 2.49821 0
M  V30 5802 H 575.587 4.99041 1.61425 0
M  V30 5803 H 577.061 4.4673 3.24247 0
M  V30 5804 H 577.538 2.77853 3.40139 0
M  V30 5805 H 578.144 3.73674 2.03096 0
M  V30 5806 N 576.459 -0.456382 1.50847 0
M  V30 5807 C 577.699 -1.21704 1.64218 0
M  V30 5808 C 578.063 -1.88932 0.341859 0
M  V30 5809 O 579.264 -2.66497 0.351137 0
M  V30 5810 C 577.535 -2.22162 2.79962 0
M  V30 5811 S 579.094 -3.0697 3.13552 0
M  V30 5812 H 575.912 -0.412995 0.578754 0
M  V30 5813 H 578.514 -0.511637 1.88686 0
M  V30 5814 H 577.218 -1.71379 3.72904 0
M  V30 5815 H 576.749 -2.9731 2.57624 0
M  V30 5816 H 578.764 -4.23539 2.58513 0
M  V30 5817 N 577.937 -1.40673 -0.710563 0
M  V30 5818 C 578.9 -1.4108 -1.80635 0
M  V30 5819 C 579.9 -0.303783 -1.57904 0
M  V30 5820 O 581.09 -0.562937 -1.64853 0
M  V30 5821 C 578.222 -1.20748 -3.18799 0
M  V30 5822 H 579.415 -2.38612 -1.81671 0
M  V30 5823 H 576.968 -1.26595 -0.916704 0
M  V30 5824 H 577.703 -0.239964 -3.23411 0
M  V30 5825 H 577.488 -2.00941 -3.36698 0
M  V30 5826 H 578.978 -1.23833 -3.98817 0
M  V30 5827 N 579.415 0.9433 -1.26252 0
M  V30 5828 C 580.345 2.05902 -1.10122 0
M  V30 5829 C 581.326 1.70099 -0.00700552 0
M  V30 5830 O 582.511 1.93377 -0.178641 0
M  V30 5831 C 579.641 3.39516 -0.731175 0
M  V30 5832 C 578.595 3.89372 -1.77688 0
M  V30 5833 C 577.921 5.19613 -1.26122 0
M  V30 5834 C 579.221 4.14489 -3.17799 0
M  V30 5835 H 580.915 2.19655 -2.03451 0
M  V30 5836 H 578.461 1.05548 -0.979576 0
M  V30 5837 H 580.414 4.17031 -0.605215 0
M  V30 5838 H 579.138 3.25733 0.23782 0
M  V30 5839 H 577.797 3.14036 -1.89148 0
M  V30 5840 H 577.445 5.02208 -0.282128 0
M  V30 5841 H 577.145 5.53939 -1.96023 0
M  V30 5842 H 578.669 5.99713 -1.14789 0
M  V30 5843 H 580.083 4.82625 -3.09428 0
M  V30 5844 H 578.48 4.60094 -3.85271 0
M  V30 5845 H 579.55 3.20347 -3.64014 0
M  V30 5846 N 580.893 1.08022 1.14757 0
M  V30 5847 C 581.803 0.718292 2.23333 0
M  V30 5848 C 582.819 -0.273477 1.71837 0
M  V30 5849 O 583.995 -0.118406 2.01052 0
M  V30 5850 C 581.06 0.128855 3.4646 0
M  V30 5851 C 580.121 1.17473 4.12915 0
M  V30 5852 C 579.354 0.61333 5.30164 0
M  V30 5853 O 579.577 -0.568458 5.6756 0
M  V30 5854 O 578.511 1.3615 5.86299 0
M  V30 5855 H 582.337 1.62394 2.56636 0
M  V30 5856 H 579.922 0.853628 1.22611 0
M  V30 5857 H 581.804 -0.197249 4.20938 0
M  V30 5858 H 580.479 -0.750014 3.14891 0
M  V30 5859 H 579.386 1.5533 3.40328 0
M  V30 5860 H 580.719 2.02574 4.48581 0
M  V30 5861 N 582.371 -1.3172 0.865308 0
M  V30 5862 C 583.619 -1.96487 0.472995 0
M  V30 5863 C 583.94 -1.68761 -0.976975 0
M  V30 5864 O 583.21 -1.00051 -1.68424 0
M  V30 5865 H 581.79 -0.726947 0.171922 0
M  V30 5866 H 584.452 -1.60612 1.10407 0
M  V30 5867 H 583.548 -3.0574 0.62687 0
M  V30 5868 N 583.85 -0.624285 -1.44708 0
M  V30 5869 C 585.098 -0.125802 -2.01708 0
M  V30 5870 C 585.418 1.2543 -1.49306 0
M  V30 5871 O 584.689 1.83198 -0.693924 0
M  V30 5872 H 583.269 -0.0435161 -0.745731 0
M  V30 5873 H 585.931 -0.809446 -1.77296 0
M  V30 5874 H 585.027 -0.0882734 -3.11975 0
M  V30 5875 N 585.328 1.53329 -0.364422 0
M  V30 5876 C 586.553 2.06132 0.229033 0
M  V30 5877 C 586.978 1.23625 1.41769 0
M  V30 5878 O 586.336 0.255038 1.79497 0
M  V30 5879 C 586.384 3.55544 0.60174 0
M  V30 5880 O 585.488 3.75771 1.69912 0
M  V30 5881 H 584.829 0.663148 0.0336213 0
M  V30 5882 H 587.359 1.97758 -0.524689 0
M  V30 5883 H 587.369 3.98549 0.873073 0
M  V30 5884 H 586.044 4.15039 -0.267421 0
M  V30 5885 H 584.621 3.44663 1.42343 0
M  V30 5886 N 586.806 0.0935595 1.57322 0
M  V30 5887 C 587.756 -0.876521 2.10478 0
M  V30 5888 C 588.74 -1.24482 1.01946 0
M  V30 5889 O 589.932 -1.22016 1.28223 0
M  V30 5890 C 587.061 -2.13615 2.68745 0
M  V30 5891 C 586.147 -1.79335 3.84317 0
M  V30 5892 N 586.538 -1.15606 4.92411 0
M  V30 5893 C 584.836 -2.08954 3.94023 0
M  V30 5894 C 585.537 -0.999036 5.73057 0
M  V30 5895 N 584.513 -1.51585 5.22037 0
M  V30 5896 H 588.315 -0.379829 2.91435 0
M  V30 5897 H 585.829 -0.109699 1.62029 0
M  V30 5898 H 587.826 -2.84053 3.05155 0
M  V30 5899 H 586.486 -2.63851 1.89242 0
M  V30 5900 H 587.497 -0.823063 5.11318 0
M  V30 5901 H 584.174 -2.61416 3.25527 0
M  V30 5902 H 585.564 -0.500772 6.70031 0
M  V30 5903 N 588.284 -1.56567 -0.180126 0
M  V30 5904 C 589.533 -1.80685 -0.896426 0
M  V30 5905 C 589.846 -0.669335 -1.83791 0
M  V30 5906 O 591.052 -0.795209 -2.59593 0
M  V30 5907 C 589.508 -3.20132 -1.6445 0
M  V30 5908 C 589.116 -4.41727 -0.747088 0
M  V30 5909 C 590.86 -3.53549 -2.34955 0
M  V30 5910 C 588.767 -5.72195 -1.49489 0
M  V30 5911 H 587.697 -0.673758 -0.338477 0
M  V30 5912 H 590.348 -1.8289 -0.149467 0
M  V30 5913 H 588.73 -3.12218 -2.43589 0
M  V30 5914 H 589.904 -4.608 0.00671129 0
M  V30 5915 H 588.219 -4.16122 -0.152134 0
M  V30 5916 H 590.816 -4.48267 -2.91481 0
M  V30 5917 H 591.159 -2.78006 -3.09868 0
M  V30 5918 H 591.692 -3.62976 -1.62768 0
M  V30 5919 H 588.431 -6.50743 -0.788251 0
M  V30 5920 H 587.951 -5.57115 -2.22224 0
M  V30 5921 H 589.63 -6.1384 -2.04472 0
M  V30 5922 N 589.762 0.448376 -1.51087 0
M  V30 5923 C 590.99 1.22143 -1.66999 0
M  V30 5924 C 591.405 1.85283 -0.362699 0
M  V30 5925 O 590.762 1.70236 0.65772 0
M  V30 5926 C 590.813 2.31357 -2.7777 0
M  V30 5927 O 590.534 1.70801 -4.03434 0
M  V30 5928 C 592.035 3.21836 -3.04855 0
M  V30 5929 H 589.255 0.368558 -0.560719 0
M  V30 5930 H 591.799 0.532618 -1.97442 0
M  V30 5931 H 589.954 2.95973 -2.49958 0
M  V30 5932 H 590.368 2.42895 -4.64868 0
M  V30 5933 H 591.842 3.94627 -3.85971 0
M  V30 5934 H 592.319 3.81949 -2.16821 0
M  V30 5935 H 592.925 2.62933 -3.34285 0
M  V30 5936 N 591.24 1.41047 0.703093 0
M  V30 5937 C 592.468 1.4334 1.49202 0
M  V30 5938 C 592.883 0.0365596 1.88765 0
M  V30 5939 O 592.24 -0.942419 1.56284 0
M  V30 5940 C 592.291 2.33538 2.75939 0
M  V30 5941 O 592.012 3.67786 2.38045 0
M  V30 5942 C 593.513 2.44555 3.6974 0
M  V30 5943 H 590.733 0.488472 0.460039 0
M  V30 5944 H 593.277 1.85245 0.86629 0
M  V30 5945 H 591.432 1.94962 3.34766 0
M  V30 5946 H 591.846 4.15816 3.19683 0
M  V30 5947 H 593.32 3.11849 4.55471 0
M  V30 5948 H 593.797 1.47447 4.1371 0
M  V30 5949 H 594.403 2.83735 3.16819 0
M  V30 5950 N 592.718 -0.936591 1.26751 0
M  V30 5951 C 593.965 -1.68331 1.12566 0
M  V30 5952 C 594.293 -1.91677 -0.330168 0
M  V30 5953 O 593.548 -1.49859 -1.2586 0
M  V30 5954 C 593.847 -3.06099 1.84494 0
M  V30 5955 C 593.513 -3.02493 3.34378 0
M  V30 5956 C 592.175 -3.01217 3.75262 0
M  V30 5957 C 594.527 -2.94453 4.30055 0
M  V30 5958 C 591.855 -2.89672 5.10203 0
M  V30 5959 C 594.207 -2.84449 5.65041 0
M  V30 5960 C 592.871 -2.81518 6.0523 0
M  V30 5961 H 592.141 -0.615965 0.411907 0
M  V30 5962 H 594.788 -1.09292 1.5725 0
M  V30 5963 H 593.093 -3.6879 1.32292 0
M  V30 5964 H 594.79 -3.62733 1.70955 0
M  V30 5965 H 591.38 -3.04269 3.01858 0
M  V30 5966 H 595.564 -2.94544 3.99447 0
M  V30 5967 H 590.82 -2.85783 5.40498 0
M  V30 5968 H 594.994 -2.77192 6.38856 0
M  V30 5969 H 592.621 -2.72329 7.09747 0
M  V30 5970 N 594.196 -1.08629 -1.14182 0
M  V30 5971 C 595.473 -0.73002 -1.81466 0
M  V30 5972 C 595.853 0.785996 -1.95922 0
M  V30 5973 O 595.201 1.70535 -1.52086 0
M  V30 5974 C 595.411 -1.45957 -3.17014 0
M  V30 5975 C 596.759 -1.62008 -3.92477 0
M  V30 5976 O 597.783 -1.42141 -3.26611 0
M  V30 5977 O 596.642 -1.94806 -5.106 0
M  V30 5978 H 593.736 -0.261307 -0.784632 0
M  V30 5979 H 596.282 -1.188 -1.2118 0
M  V30 5980 H 595.054 -2.49221 -3.01669 0
M  V30 5981 H 594.677 -0.993222 -3.84995 0
M  V30 5982 N 595.674 1.31259 -0.872281 0
M  V30 5983 C 596.922 1.96233 -0.483409 0
M  V30 5984 C 597.243 1.69276 0.968012 0
M  V30 5985 O 596.513 1.00943 1.67891 0
M  V30 5986 H 595.093 0.726025 -0.175774 0
M  V30 5987 H 597.755 1.60024 -1.11258 0
M  V30 5988 H 596.851 3.05403 -0.643075 0
M  V30 5989 N 597.152 0.631951 1.44375 0
M  V30 5990 C 598.099 -0.0724807 2.30686 0
M  V30 5991 C 599.069 -0.835975 1.43529 0
M  V30 5992 O 600.254 -0.816849 1.7243 0
M  V30 5993 C 597.394 -1.04753 3.28817 0
M  V30 5994 C 596.507 -0.282367 4.31076 0
M  V30 5995 C 595.642 -1.2493 5.163 0
M  V30 5996 C 594.681 -0.473349 6.10267 0
M  V30 5997 N 593.818 -1.39079 6.88187 0
M  V30 5998 H 598.658 0.669477 2.90383 0
M  V30 5999 H 596.195 0.341927 1.43071 0
M  V30 6000 H 598.153 -1.62623 3.842 0
M  V30 6001 H 596.783 -1.75661 2.70819 0
M  V30 6002 H 595.835 0.412268 3.78159 0
M  V30 6003 H 597.147 0.321955 4.9776 0
M  V30 6004 H 596.301 -1.89931 5.76204 0
M  V30 6005 H 595.04 -1.88755 4.49692 0
M  V30 6006 H 594.045 0.190142 5.49471 0
M  V30 6007 H 595.27 0.16019 6.78911 0
M  V30 6008 H 593.216 -2.01623 6.24247 0
M  V30 6009 H 593.133 -0.840513 7.51313 0
M  V30 6010 H 594.401 -2.02961 7.52613 0
M  V30 6011 N 598.631 -1.53133 0.372548 0
M  V30 6012 C 599.859 -2.05774 -0.215515 0
M  V30 6013 C 600.274 -1.24555 -1.41886 0
M  V30 6014 O 599.631 -0.287951 -1.80214 0
M  V30 6015 C 599.682 -3.5645 -0.602161 0
M  V30 6016 O 599.403 -4.34591 0.553359 0
M  V30 6017 C 600.904 -4.25374 -1.24787 0
M  V30 6018 H 598.124 -0.670009 -0.0364529 0
M  V30 6019 H 600.668 -1.97434 0.532934 0
M  V30 6020 H 598.823 -3.64918 -1.30052 0
M  V30 6021 H 599.237 -5.23954 0.239336 0
M  V30 6022 H 600.711 -5.32097 -1.46891 0
M  V30 6023 H 601.188 -3.79531 -2.21026 0
M  V30 6024 H 601.794 -4.21177 -0.590752 0
M  V30 6025 N 600.109 -0.101901 -1.5727 0
M  V30 6026 C 601.339 0.567568 -1.98651 0
M  V30 6027 C 601.747 1.61839 -0.980037 0
M  V30 6028 O 601.09 1.83661 0.0376564 0
M  V30 6029 C 601.152 1.26742 -3.36417 0
M  V30 6030 C 600.816 0.366561 -4.55528 0
M  V30 6031 C 601.813 -0.388022 -5.1845 0
M  V30 6032 C 599.498 0.282629 -5.01504 0
M  V30 6033 C 601.492 -1.21445 -6.25724 0
M  V30 6034 C 599.179 -0.547443 -6.08643 0
M  V30 6035 C 600.177 -1.29462 -6.70618 0
M  V30 6036 O 599.865 -2.11095 -7.7569 0
M  V30 6037 H 599.597 0.156282 -0.657687 0
M  V30 6038 H 602.151 -0.179912 -2.04611 0
M  V30 6039 H 600.381 2.06162 -3.27161 0
M  V30 6040 H 602.07 1.8321 -3.622 0
M  V30 6041 H 602.836 -0.332949 -4.83856 0
M  V30 6042 H 598.715 0.853868 -4.53023 0
M  V30 6043 H 602.259 -1.79814 -6.74027 0
M  V30 6044 H 598.156 -0.603971 -6.42668 0
M  V30 6045 H 598.924 -2.03851 -7.92709 0
M  V30 6046 N 601.587 1.56661 0.17182 0
M  V30 6047 C 602.815 1.861 0.904115 0
M  V30 6048 C 603.23 0.687227 1.75848 0
M  V30 6049 O 602.587 -0.343671 1.79235 0
M  V30 6050 C 602.638 3.14568 1.78127 0
M  V30 6051 O 602.359 4.27422 0.961366 0
M  V30 6052 C 603.86 3.5735 2.62327 0
M  V30 6053 H 601.08 0.617445 0.262684 0
M  V30 6054 H 603.624 2.03775 0.172068 0
M  V30 6055 H 601.779 2.98721 2.46666 0
M  V30 6056 H 602.193 5.00725 1.56123 0
M  V30 6057 H 603.667 4.50144 3.1949 0
M  V30 6058 H 604.144 2.81445 3.37173 0
M  V30 6059 H 604.75 3.75807 1.99121 0
M  V30 6060 N 603.065 -0.440357 1.51323 0
M  V30 6061 C 604.312 -1.19004 1.63842 0
M  V30 6062 C 604.64 -1.91266 0.35321 0
M  V30 6063 O 603.895 -1.84143 -0.662565 0
M  V30 6064 C 604.194 -2.2339 2.78984 0
M  V30 6065 C 603.86 -1.68162 4.18369 0
M  V30 6066 C 602.522 -1.52823 4.56288 0
M  V30 6067 C 604.874 -1.27524 5.05358 0
M  V30 6068 C 602.202 -0.953157 5.78906 0
M  V30 6069 C 604.554 -0.714474 6.28552 0
M  V30 6070 C 603.218 -0.547961 6.65247 0
M  V30 6071 H 602.488 -0.435468 0.59954 0
M  V30 6072 H 605.135 -0.481538 1.85347 0
M  V30 6073 H 603.44 -3.00267 2.51688 0
M  V30 6074 H 605.137 -2.81211 2.85869 0
M  V30 6075 H 601.727 -1.81077 3.8847 0
M  V30 6076 H 605.911 -1.38197 4.76671 0
M  V30 6077 H 601.167 -0.811882 6.05986 0
M  V30 6078 H 605.341 -0.391059 6.95301 0
M  V30 6079 H 602.968 -0.100222 7.60134 0
M  V30 6080 N 604.543 -1.41418 -0.695603 0
M  V30 6081 C 605.493 -1.39731 -1.80165 0
M  V30 6082 C 606.477 -0.271689 -1.5859 0
M  V30 6083 O 607.669 -0.512354 -1.69422 0
M  V30 6084 C 604.798 -1.28187 -3.1847 0
M  V30 6085 C 603.884 -2.45612 -3.45739 0
M  V30 6086 N 604.275 -3.71077 -3.43708 0
M  V30 6087 C 602.573 -2.39424 -3.76288 0
M  V30 6088 C 603.274 -4.48957 -3.69882 0
M  V30 6089 N 602.25 -3.7907 -3.89624 0
M  V30 6090 H 606.052 -2.34656 -1.76957 0
M  V30 6091 H 603.566 -1.35473 -0.89559 0
M  V30 6092 H 605.563 -1.2506 -3.977 0
M  V30 6093 H 604.223 -0.342468 -3.22889 0
M  V30 6094 H 605.234 -4.03963 -3.2409 0
M  V30 6095 H 601.911 -1.53955 -3.88077 0
M  V30 6096 H 603.301 -5.57887 -3.74448 0
M  V30 6097 N 606.021 0.929856 -1.27246 0
M  V30 6098 C 607.269 1.674 -1.13233 0
M  V30 6099 C 607.59 1.92311 0.322744 0
M  V30 6100 O 606.86 1.52784 1.22612 0
M  V30 6101 H 605.44 0.620411 -0.416052 0
M  V30 6102 H 608.102 1.11663 -1.59741 0
M  V30 6103 H 607.198 2.64308 -1.65975 0
M  V30 6104 N 607.499 1.09233 1.13605 0
M  V30 6105 C 608.776 0.739633 1.81077 0
M  V30 6106 C 609.156 -0.775595 1.96336 0
M  V30 6107 O 608.504 -1.69726 1.52988 0
M  V30 6108 C 608.714 1.47636 3.16235 0
M  V30 6109 C 610.062 1.64087 3.91613 0
M  V30 6110 O 611.086 1.43871 3.25852 0
M  V30 6111 O 609.945 1.97511 5.0956 0
M  V30 6112 H 607.039 0.265464 0.783236 0
M  V30 6113 H 609.585 1.19441 1.20549 0
M  V30 6114 H 608.357 2.50818 3.00344 0
M  V30 6115 H 607.98 1.01362 3.84462 0
M  V30 6116 N 608.977 -1.30795 0.87923 0
M  V30 6117 C 610.217 -1.98155 0.50141 0
M  V30 6118 C 610.581 -1.67925 -0.930863 0
M  V30 6119 O 611.782 -2.28572 -1.41451 0
M  V30 6120 C 610.053 -3.49184 0.761937 0
M  V30 6121 S 611.612 -4.36107 0.485361 0
M  V30 6122 H 608.43 -0.686025 0.186792 0
M  V30 6123 H 611.032 -1.59018 1.13726 0
M  V30 6124 H 609.736 -3.68676 1.80295 0
M  V30 6125 H 609.267 -3.93236 0.113432 0
M  V30 6126 H 611.282 -4.9154 -0.678467 0
M  V30 6127 N 610.455 -0.639598 -1.44038 0
M  V30 6128 C 611.685 -0.154586 -2.06021 0
M  V30 6129 C 612.093 1.17951 -1.47933 0
M  V30 6130 O 611.436 1.73627 -0.59994 0
M  V30 6131 C 611.498 0.0255459 -3.59491 0
M  V30 6132 C 611.162 -1.2317 -4.40089 0
M  V30 6133 C 612.159 -2.15735 -4.73027 0
M  V30 6134 C 609.844 -1.46949 -4.80324 0
M  V30 6135 C 611.838 -3.30382 -5.45093 0
M  V30 6136 C 609.525 -2.61891 -5.52138 0
M  V30 6137 C 610.523 -3.53433 -5.84443 0
M  V30 6138 O 610.211 -4.6637 -6.54793 0
M  V30 6139 H 609.943 -0.0808543 -0.671147 0
M  V30 6140 H 612.497 -0.876541 -1.85758 0
M  V30 6141 H 610.727 0.802733 -3.78276 0
M  V30 6142 H 612.416 0.466184 -4.03214 0
M  V30 6143 H 613.182 -1.98602 -4.42473 0
M  V30 6144 H 609.061 -0.765815 -4.54595 0
M  V30 6145 H 612.605 -4.01856 -5.70226 0
M  V30 6146 H 608.502 -2.78964 -5.82108 0
M  V30 6147 H 609.27 -4.6546 -6.73267 0
M  V30 6148 N 611.933 1.52934 -0.380664 0
M  V30 6149 C 613.163 2.05587 0.204302 0
M  V30 6150 C 613.571 1.25288 1.41773 0
M  V30 6151 O 612.914 0.290394 1.8139 0
M  V30 6152 C 612.976 3.53624 0.647324 0
M  V30 6153 C 612.64 4.54765 -0.451465 0
M  V30 6154 C 613.637 5.03226 -1.30614 0
M  V30 6155 C 611.322 4.98508 -0.616025 0
M  V30 6156 C 613.316 5.94046 -2.31058 0
M  V30 6157 C 611.003 5.89131 -1.62381 0
M  V30 6158 C 612.001 6.36792 -2.46952 0
M  V30 6159 O 611.689 7.25626 -3.46009 0
M  V30 6160 H 611.421 0.675013 0.0365198 0
M  V30 6161 H 613.975 1.98125 -0.541827 0
M  V30 6162 H 612.205 3.58676 1.44529 0
M  V30 6163 H 613.894 3.89061 1.15698 0
M  V30 6164 H 614.66 4.70167 -1.19027 0
M  V30 6165 H 610.539 4.60989 0.0324987 0
M  V30 6166 H 614.083 6.3117 -2.97104 0
M  V30 6167 H 609.98 6.21603 -1.7401 0
M  V30 6168 H 610.748 7.43664 -3.41916 0
M  V30 6169 N 613.412 0.11024 1.57214 0
M  V30 6170 C 614.658 -0.550684 1.9518 0
M  V30 6171 C 614.991 -1.66885 0.993122 0
M  V30 6172 O 614.266 -1.94479 0.0287907 0
M  V30 6173 C 614.549 -1.09163 3.43155 0
M  V30 6174 C 614.402 0.0225198 4.49794 0
M  V30 6175 C 615.721 -1.98527 3.92778 0
M  V30 6176 H 612.84 -0.198706 0.709708 0
M  V30 6177 H 615.482 0.184024 1.89107 0
M  V30 6178 H 613.632 -1.71775 3.48462 0
M  V30 6179 H 615.304 0.657443 4.56591 0
M  V30 6180 H 613.547 0.686868 4.28328 0
M  V30 6181 H 614.218 -0.39706 5.5057 0
M  V30 6182 H 616.694 -1.458 3.8972 0
M  V30 6183 H 615.57 -2.33298 4.96853 0
M  V30 6184 H 615.831 -2.90846 3.32958 0
M  V30 6185 N 614.89 -1.56749 -0.16351 0
M  V30 6186 C 615.82 -2.00042 -1.20438 0
M  V30 6187 C 616.801 -0.877256 -1.45733 0
M  V30 6188 O 617.986 -1.1439 -1.56935 0
M  V30 6189 C 615.116 -2.36697 -2.54149 0
M  V30 6190 C 614.07 -3.52046 -2.43408 0
M  V30 6191 C 613.396 -3.74466 -3.81679 0
M  V30 6192 C 614.696 -4.85247 -1.93216 0
M  V30 6193 H 616.39 -2.87244 -0.844477 0
M  V30 6194 H 613.936 -1.38194 -0.40478 0
M  V30 6195 H 615.889 -2.65582 -3.27176 0
M  V30 6196 H 614.613 -1.46414 -2.91943 0
M  V30 6197 H 613.272 -3.23301 -1.72834 0
M  V30 6198 H 612.92 -2.81461 -4.1688 0
M  V30 6199 H 612.62 -4.52084 -3.75359 0
M  V30 6200 H 614.144 -4.0576 -4.5628 0
M  V30 6201 H 615.558 -5.12957 -2.56023 0
M  V30 6202 H 613.955 -5.66556 -1.97825 0
M  V30 6203 H 615.025 -4.7672 -0.88689 0
M  V30 6204 N 616.368 0.432326 -1.51554 0
M  V30 6205 C 617.331 1.50765 -1.72634 0
M  V30 6206 C 618.331 1.49334 -0.596314 0
M  V30 6207 O 619.521 1.51268 -0.863925 0
M  V30 6208 C 616.653 2.90284 -1.7874 0
M  V30 6209 H 617.846 1.33377 -2.68609 0
M  V30 6210 H 615.399 0.661329 -1.4162 0
M  V30 6211 H 616.134 3.13071 -0.845977 0
M  V30 6212 H 615.919 2.92727 -2.6087 0
M  V30 6213 H 617.409 3.68282 -1.96871 0
M  V30 6214 N 617.846 1.41785 0.688094 0
M  V30 6215 C 618.793 1.44221 1.80191 0
M  V30 6216 C 619.763 0.295688 1.63447 0
M  V30 6217 O 620.948 0.49783 1.84191 0
M  V30 6218 C 618.088 1.33743 3.1813 0
M  V30 6219 C 617.201 2.58325 3.46254 0
M  V30 6220 C 616.336 2.40086 4.73848 0
M  V30 6221 C 615.375 3.60107 4.94964 0
M  V30 6222 N 614.512 3.40892 6.13789 0
M  V30 6223 H 619.352 2.39411 1.77444 0
M  V30 6224 H 616.889 1.18876 0.866423 0
M  V30 6225 H 618.847 1.25669 3.97823 0
M  V30 6226 H 617.477 0.42157 3.20035 0
M  V30 6227 H 616.529 2.7682 2.60912 0
M  V30 6228 H 617.841 3.4758 3.57756 0
M  V30 6229 H 616.995 2.29522 5.61609 0
M  V30 6230 H 615.734 1.483 4.64606 0
M  V30 6231 H 614.739 3.71118 4.05649 0
M  V30 6232 H 615.964 4.52857 5.06061 0
M  V30 6233 H 613.91 2.51812 6.05745 0
M  V30 6234 H 613.827 4.23727 6.26092 0
M  V30 6235 H 615.095 3.34114 7.04264 0
M  V30 6236 N 619.324 -0.923095 1.27737 0
M  V30 6237 C 620.572 -1.66797 1.14119 0
M  V30 6238 C 620.893 -1.92479 -0.312541 0
M  V30 6239 O 620.163 -1.53432 -1.218 0
M  V30 6240 H 618.743 -0.618196 0.419336 0
M  V30 6241 H 621.405 -1.10815 1.60331 0
M  V30 6242 H 620.501 -2.63424 1.67374 0
M  V30 6243 N 620.802 -1.09834 -1.13024 0
M  V30 6244 C 622.079 -0.749225 -1.80682 0
M  V30 6245 C 622.459 0.765171 -1.96744 0
M  V30 6246 O 621.807 1.68912 -1.53886 0
M  V30 6247 C 622.017 -1.49311 -3.15448 0
M  V30 6248 C 623.365 -1.66162 -3.90737 0
M  V30 6249 O 624.389 -1.45597 -3.25085 0
M  V30 6250 O 623.248 -2.00211 -5.08505 0
M  V30 6251 H 620.342 -0.269614 -0.781817 0
M  V30 6252 H 622.888 -1.20078 -1.19914 0
M  V30 6253 H 621.66 -2.52407 -2.99009 0
M  V30 6254 H 621.283 -1.034 -3.8392 0
M  V30 6255 N 622.28 1.30327 -0.886154 0
M  V30 6256 C 623.23 2.25668 -0.325248 0
M  V30 6257 C 624.214 1.51318 0.546972 0
M  V30 6258 O 625.406 1.72623 0.391203 0
M  V30 6259 C 622.535 3.40229 0.458167 0
M  V30 6260 C 621.621 4.21933 -0.428208 0
M  V30 6261 N 622.012 4.82129 -1.52921 0
M  V30 6262 C 620.31 4.45439 -0.223535 0
M  V30 6263 C 621.011 5.43351 -2.07714 0
M  V30 6264 N 619.987 5.26002 -1.37195 0
M  V30 6265 H 623.789 2.69759 -1.1665 0
M  V30 6266 H 621.303 1.4478 -0.735691 0
M  V30 6267 H 623.3 4.07579 0.876648 0
M  V30 6268 H 621.96 2.97678 1.29684 0
M  V30 6269 H 622.971 4.81312 -1.91205 0
M  V30 6270 H 619.648 4.13481 0.577875 0
M  V30 6271 H 621.038 6.01118 -3.00178 0
M  V30 6272 N 623.758 0.647228 1.43697 0
M  V30 6273 C 624.706 -0.0600105 2.32523 0
M  V30 6274 C 625.7 -0.819277 1.48271 0
M  V30 6275 O 626.906 -0.730356 1.64517 0
M  V30 6276 H 623.281 -0.0381872 0.75103 0
M  V30 6277 H 625.252 0.706978 2.89904 0
M  V30 6278 C 624.001 -1.0169 3.32497 0
M  V30 6279 H 623.324 -0.442083 3.97348 0
M  V30 6280 H 624.764 -1.48095 3.97296 0
M  V30 6281 C 623.223 -2.11002 2.6264 0
M  V30 6282 O 623.753 -3.19302 2.4374 0
M  V30 6283 N 621.959 -1.87388 2.22113 0
M  V30 6284 H 621.506 -0.993174 2.37684 0
M  V30 6285 H 621.464 -2.60723 1.75701 0
M  V30 6286 N 625.236 -1.5273 0.388769 0
M  V30 6287 C 626.513 -1.93981 -0.251133 0
M  V30 6288 C 626.893 -1.32418 -1.64404 0
M  V30 6289 O 626.241 -0.492074 -2.23139 0
M  V30 6290 C 626.451 -3.47891 -0.27802 0
M  V30 6291 C 627.799 -4.21559 -0.507229 0
M  V30 6292 O 628.823 -3.54394 -0.358252 0
M  V30 6293 O 627.682 -5.40626 -0.799094 0
M  V30 6294 H 624.776 -0.812157 -0.15598 0
M  V30 6295 H 627.322 -1.63809 0.443237 0
M  V30 6296 H 626.094 -3.8503 0.697669 0
M  V30 6297 H 625.717 -3.84364 -1.01733 0
M  V30 6298 N 626.714 -0.118576 -1.57153 0
M  V30 6299 C 627.939 0.550582 -1.99958 0
M  V30 6300 C 628.364 1.59458 -0.997736 0
M  V30 6301 O 627.722 1.81274 0.0306269 0
M  V30 6302 C 627.77 1.15379 -3.41643 0
M  V30 6303 O 626.874 2.26932 -3.44348 0
M  V30 6304 H 626.215 0.137567 -0.649593 0
M  V30 6305 H 628.745 -0.206926 -2.03551 0
M  V30 6306 H 628.755 1.48942 -3.79843 0
M  V30 6307 H 627.43 0.389087 -4.14076 0
M  V30 6308 H 626.007 1.94812 -3.17967 0
M  V30 6309 N 628.193 1.56834 0.155195 0
M  V30 6310 C 629.423 1.86778 0.883044 0
M  V30 6311 C 629.831 0.703824 1.75622 0
M  V30 6312 O 629.174 -0.33581 1.80605 0
M  V30 6313 C 629.236 3.1133 1.79761 0
M  V30 6314 C 628.9 4.43504 1.10242 0
M  V30 6315 C 629.897 5.17859 0.460204 0
M  V30 6316 C 627.582 4.90233 1.09437 0
M  V30 6317 C 629.576 6.37144 -0.180782 0
M  V30 6318 C 627.263 6.09444 0.449569 0
M  V30 6319 C 628.261 6.82744 -0.186888 0
M  V30 6320 O 627.949 7.99692 -0.821486 0
M  V30 6321 H 627.681 0.62352 0.261149 0
M  V30 6322 H 630.235 2.04813 0.155204 0
M  V30 6323 H 628.465 2.89282 2.56618 0
M  V30 6324 H 630.154 3.27587 2.39669 0
M  V30 6325 H 630.92 4.8283 0.458289 0
M  V30 6326 H 626.799 4.33109 1.57917 0
M  V30 6327 H 630.343 6.94296 -0.678154 0
M  V30 6328 H 626.24 6.43936 0.449123 0
M  V30 6329 H 627.008 8.15306 -0.722337 0
M  V30 6330 N 629.671 -0.424282 1.51781 0
M  V30 6331 C 630.634 -1.49848 1.73431 0
M  V30 6332 C 631.634 -1.49016 0.604225 0
M  V30 6333 O 632.824 -1.50808 0.871935 0
M  V30 6334 C 629.956 -2.89332 1.80277 0
M  V30 6335 H 631.149 -1.3195 2.69312 0
M  V30 6336 H 628.702 -0.653809 1.41968 0
M  V30 6337 H 629.437 -3.12618 0.862568 0
M  V30 6338 H 629.222 -2.9134 2.62419 0
M  V30 6339 H 630.712 -3.67233 1.98821 0
M  V30 6340 N 631.149 -1.42148 -0.680565 0
M  V30 6341 C 632.079 -1.4796 -1.80638 0
M  V30 6342 C 633.06 -0.336728 -1.66734 0
M  V30 6343 O 634.245 -0.550247 -1.86242 0
M  V30 6344 C 631.375 -1.37569 -3.18892 0
M  V30 6345 C 630.329 -2.49823 -3.47524 0
M  V30 6346 C 629.655 -2.24491 -4.85291 0
M  V30 6347 C 630.955 -3.92144 -3.44994 0
M  V30 6348 H 632.649 -2.42184 -1.76032 0
M  V30 6349 H 630.195 -1.16566 -0.845481 0
M  V30 6350 H 632.148 -1.40243 -3.97379 0
M  V30 6351 H 630.872 -0.398357 -3.24162 0
M  V30 6352 H 629.531 -2.46455 -2.71395 0
M  V30 6353 H 629.179 -1.25066 -4.87204 0
M  V30 6354 H 628.879 -2.99722 -5.05411 0
M  V30 6355 H 630.403 -2.28906 -5.66069 0
M  V30 6356 H 631.817 -3.97145 -4.13459 0
M  V30 6357 H 630.214 -4.67179 -3.76648 0
M  V30 6358 H 631.284 -4.19225 -2.43676 0
M  V30 6359 N 632.627 0.916307 -1.28225 0
M  V30 6360 C 633.557 2.0352 -1.14464 0
M  V30 6361 C 634.538 1.70045 -0.0430844 0
M  V30 6362 O 635.723 1.92954 -0.219619 0
M  V30 6363 C 632.853 3.37889 -0.803027 0
M  V30 6364 C 631.807 3.85516 -1.85908 0
M  V30 6365 C 631.133 5.1682 -1.37116 0
M  V30 6366 C 632.433 4.07655 -3.26519 0
M  V30 6367 H 634.127 2.1529 -2.08064 0
M  V30 6368 H 631.673 1.03446 -1.00174 0
M  V30 6369 H 633.626 4.15654 -0.693537 0
M  V30 6370 H 632.35 3.26164 0.168674 0
M  V30 6371 H 631.009 3.09953 -1.95767 0
M  V30 6372 H 630.657 5.01497 -0.38859 0
M  V30 6373 H 630.357 5.49657 -2.07728 0
M  V30 6374 H 631.881 5.97143 -1.27484 0
M  V30 6375 H 633.295 4.75953 -3.19596 0
M  V30 6376 H 631.692 4.51818 -3.94943 0
M  V30 6377 H 632.762 3.12553 -3.70727 0
M  V30 6378 N 634.105 1.10431 1.1244 0
M  V30 6379 C 635.353 0.845045 1.83585 0
M  V30 6380 C 635.674 -0.631168 1.84503 0
M  V30 6381 O 634.944 -1.45825 1.30813 0
M  V30 6382 H 633.524 0.309628 0.679809 0
M  V30 6383 H 636.186 1.39458 1.36153 0
M  V30 6384 H 635.282 1.20786 2.8778 0
M  V30 6385 N 635.583 -1.29855 0.893053 0
M  V30 6386 C 636.493 -2.31661 0.370157 0
M  V30 6387 C 637.509 -1.65677 -0.531723 0
M  V30 6388 O 638.685 -1.9691 -0.422902 0
M  V30 6389 C 635.75 -3.44388 -0.399741 0
M  V30 6390 C 634.811 -4.2598 0.532861 0
M  V30 6391 C 634.044 -5.33324 -0.200388 0
M  V30 6392 O 634.267 -5.52305 -1.42531 0
M  V30 6393 O 633.201 -6.00188 0.453668 0
M  V30 6394 H 637.027 -2.78354 1.2146 0
M  V30 6395 H 634.612 -1.34171 0.657153 0
M  V30 6396 H 636.494 -4.13037 -0.835358 0
M  V30 6397 H 635.169 -2.99815 -1.22035 0
M  V30 6398 H 634.076 -3.59998 1.01746 0
M  V30 6399 H 635.409 -4.74178 1.3197 0
M  V30 6400 N 637.061 -0.65484 -1.43351 0
M  V30 6401 C 637.991 0.0221809 -2.33489 0
M  V30 6402 C 638.972 0.810272 -1.49561 0
M  V30 6403 O 640.157 0.771426 -1.78221 0
M  V30 6404 C 637.287 0.988117 -3.32947 0
M  V30 6405 C 636.241 0.310026 -4.26876 0
M  V30 6406 C 635.567 1.38752 -5.16384 0
M  V30 6407 C 636.867 -0.798589 -5.16159 0
M  V30 6408 H 638.561 -0.730571 -2.9035 0
M  V30 6409 H 636.107 -0.352773 -1.39612 0
M  V30 6410 H 638.06 1.47067 -3.94904 0
M  V30 6411 H 636.784 1.77205 -2.74346 0
M  V30 6412 H 635.443 -0.152097 -3.66284 0
M  V30 6413 H 635.091 2.16293 -4.54121 0
M  V30 6414 H 634.791 0.939051 -5.80048 0
M  V30 6415 H 636.315 1.87141 -5.81215 0
M  V30 6416 H 637.729 -0.398126 -5.71916 0
M  V30 6417 H 636.126 -1.17163 -5.88552 0
M  V30 6418 H 637.196 -1.65588 -4.55751 0
M  V30 6419 N 638.539 1.52521 -0.396863 0
M  V30 6420 C 639.502 2.2527 0.422604 0
M  V30 6421 C 640.502 1.27184 0.983913 0
M  V30 6422 O 641.692 1.51222 0.864723 0
M  V30 6423 C 638.824 3.01356 1.59365 0
M  V30 6424 H 640.017 2.99133 -0.214416 0
M  V30 6425 H 637.57 1.55587 -0.149128 0
M  V30 6426 H 638.305 2.31813 2.26789 0
M  V30 6427 H 638.09 3.73357 1.19779 0
M  V30 6428 H 639.58 3.56571 2.17363 0
M  V30 6429 N 640.017 0.126909 1.57088 0
M  V30 6430 C 641.428 -0.397201 1.82426 0
M  V30 6431 C 641.779 -1.66084 1.04453 0
M  V30 6432 O 640.904 -2.14534 0.283552 0
M  V30 6433 C 641.499 -0.727411 3.30899 0
M  V30 6434 C 640.058 -1.19612 3.56889 0
M  V30 6435 C 639.205 -0.20885 2.76512 0
M  V30 6436 H 642.156 0.351924 1.54749 0
M  V30 6437 H 642.177 -1.58407 3.45959 0
M  V30 6438 H 641.689 0.19247 3.87622 0
M  V30 6439 H 639.79 -2.13263 3.05532 0
M  V30 6440 H 639.903 -1.13598 4.65438 0
M  V30 6441 H 638.267 -0.697479 2.44964 0
M  V30 6442 H 639.05 0.704267 3.35998 0
M  V30 6443 N 641.495 -1.56914 -0.146875 0
M  V30 6444 C 642.735 -1.85163 -0.86568 0
M  V30 6445 C 643.099 -0.711215 -1.78342 0
M  V30 6446 O 644.3 -0.874754 -2.54168 0
M  V30 6447 C 642.571 -3.18593 -1.61967 0
M  V30 6448 S 644.13 -3.68397 -2.38388 0
M  V30 6449 H 640.948 -0.6494 -0.289483 0
M  V30 6450 H 643.55 -1.95096 -0.125679 0
M  V30 6451 H 642.254 -3.99562 -0.93694 0
M  V30 6452 H 641.785 -3.11666 -2.40058 0
M  V30 6453 H 643.8 -3.37672 -3.63582 0
M  V30 6454 N 642.974 0.416227 -1.52004 0
M  V30 6455 C 644.222 1.16153 -1.65387 0
M  V30 6456 C 644.543 1.91208 -0.382669 0
M  V30 6457 O 643.813 1.86413 0.602231 0
M  V30 6458 H 642.393 0.431765 -0.60958 0
M  V30 6459 H 645.055 0.475151 -1.89019 0
M  V30 6460 H 644.151 1.87952 -2.4916 0
M  V30 6461 N 644.452 1.42507 0.673017 0
M  V30 6462 C 645.677 1.4668 1.46627 0
M  V30 6463 C 646.102 0.080066 1.8793 0
M  V30 6464 O 645.46 -0.921879 1.56112 0
M  V30 6465 C 645.508 2.40091 2.69051 0
M  V30 6466 O 644.612 1.8735 3.67387 0
M  V30 6467 H 643.953 0.496908 0.44043 0
M  V30 6468 H 646.483 1.87215 0.825334 0
M  V30 6469 H 646.493 2.56731 3.17101 0
M  V30 6470 H 645.168 3.4084 2.3833 0
M  V30 6471 H 643.745 1.80274 3.26429 0
M  V30 6472 N 645.93 -0.909495 1.28709 0
M  V30 6473 C 647.158 -1.69272 1.18973 0
M  V30 6474 C 647.573 -1.87123 -0.251048 0
M  V30 6475 O 646.93 -1.40127 -1.16922 0
M  V30 6476 C 646.981 -3.08257 1.88839 0
M  V30 6477 O 646.702 -2.91228 3.27289 0
M  V30 6478 C 648.203 -4.02642 1.85457 0
M  V30 6479 H 645.423 -0.528999 0.412797 0
M  V30 6480 H 647.967 -1.13803 1.69909 0
M  V30 6481 H 646.122 -3.6053 1.41762 0
M  V30 6482 H 646.536 -3.79223 3.6234 0
M  V30 6483 H 648.01 -4.97613 2.38925 0
M  V30 6484 H 648.487 -4.31327 0.827893 0
M  V30 6485 H 649.093 -3.56298 2.32233 0
M  V30 6486 N 647.408 -1.11026 -1.11852 0
M  V30 6487 C 648.685 -0.768347 -1.79877 0
M  V30 6488 C 649.065 0.744261 -1.97545 0
M  V30 6489 O 648.413 1.67271 -1.55669 0
M  V30 6490 C 648.623 -1.52648 -3.13846 0
M  V30 6491 C 649.971 -1.70297 -3.88953 0
M  V30 6492 O 650.995 -1.49037 -3.23522 0
M  V30 6493 O 649.854 -2.05593 -5.06353 0
M  V30 6494 H 646.948 -0.277891 -0.778913 0
M  V30 6495 H 649.494 -1.21343 -1.18633 0
M  V30 6496 H 648.266 -2.55564 -2.96315 0
M  V30 6497 H 647.889 -1.07466 -3.82801 0
M  V30 6498 N 648.886 1.2938 -0.899927 0
M  V30 6499 C 649.833 2.27713 -0.376243 0
M  V30 6500 C 650.803 1.57016 0.541774 0
M  V30 6501 O 651.988 1.84997 0.466966 0
M  V30 6502 C 649.128 3.42889 0.39 0
M  V30 6503 C 648.241 4.28369 -0.558938 0
M  V30 6504 C 647.376 5.30726 0.224379 0
M  V30 6505 C 646.415 6.07862 -0.719068 0
M  V30 6506 N 645.552 7.02094 0.0298569 0
M  V30 6507 H 650.392 2.71888 -1.21988 0
M  V30 6508 H 647.929 1.33724 -0.612879 0
M  V30 6509 H 649.887 4.08443 0.850314 0
M  V30 6510 H 648.517 2.99743 1.19809 0
M  V30 6511 H 647.569 3.62986 -1.13777 0
M  V30 6512 H 648.881 4.82068 -1.2811 0
M  V30 6513 H 648.035 6.02098 0.745881 0
M  V30 6514 H 646.774 4.77759 0.979674 0
M  V30 6515 H 645.779 5.35353 -1.25207 0
M  V30 6516 H 647.004 6.62917 -1.4737 0
M  V30 6517 H 644.95 6.51496 0.767415 0
M  V30 6518 H 644.867 7.5335 -0.632391 0
M  V30 6519 H 646.135 7.77685 0.531615 0
M  V30 6520 N 650.364 0.662433 1.43002 0
M  V30 6521 C 651.296 -0.062326 2.29115 0
M  V30 6522 C 652.309 -0.777926 1.43011 0
M  V30 6523 O 653.498 -0.634146 1.66856 0
M  V30 6524 C 650.598 -1.11163 3.2015 0
M  V30 6525 C 649.771 -0.472327 4.34842 0
M  V30 6526 C 648.83 -1.41974 5.06685 0
M  V30 6527 O 647.856 -0.924795 5.61637 0
M  V30 6528 N 649.058 -2.75345 5.11043 0
M  V30 6529 H 651.823 0.676838 2.91957 0
M  V30 6530 H 649.384 0.505907 1.53793 0
M  V30 6531 H 651.376 -1.74643 3.65078 0
M  V30 6532 H 649.946 -1.75266 2.58845 0
M  V30 6533 H 649.166 0.341751 3.92716 0
M  V30 6534 H 650.454 -0.0264381 5.08793 0
M  V30 6535 H 649.852 -3.18108 4.67786 0
M  V30 6536 H 648.409 -3.34105 5.59658 0
M  V30 6537 N 651.842 -1.52309 0.404946 0
M  V30 6538 C 653.07 -2.06185 -0.171818 0
M  V30 6539 C 653.485 -1.27536 -1.39212 0
M  V30 6540 O 652.842 -0.326112 -1.79563 0
M  V30 6541 C 652.893 -3.57647 -0.526417 0
M  V30 6542 O 652.614 -4.3332 0.645417 0
M  V30 6543 C 654.115 -4.27925 -1.15736 0
M  V30 6544 H 651.335 -0.670632 -0.0222328 0
M  V30 6545 H 653.879 -1.96259 0.574692 0
M  V30 6546 H 652.034 -3.67595 -1.22282 0
M  V30 6547 H 652.448 -5.23328 0.35042 0
M  V30 6548 H 653.922 -5.35093 -1.35572 0
M  V30 6549 H 654.399 -3.84134 -2.12926 0
M  V30 6550 H 655.005 -4.22335 -0.501281 0
M  V30 6551 N 653.32 -0.135238 -1.57019 0
M  V30 6552 C 654.56 0.521686 -1.9763 0
M  V30 6553 C 654.924 1.62804 -1.01778 0
M  V30 6554 O 656.125 2.345 -1.31389 0
M  V30 6555 C 654.396 1.0257 -3.42365 0
M  V30 6556 S 655.955 1.68888 -4.04997 0
M  V30 6557 H 652.773 0.169064 -0.690607 0
M  V30 6558 H 655.375 -0.224168 -1.94211 0
M  V30 6559 H 654.079 0.209556 -4.09865 0
M  V30 6560 H 653.61 1.80645 -3.49472 0
M  V30 6561 H 655.625 2.97554 -3.97084 0
M  V30 6562 N 654.798 1.5699 0.138552 0
M  V30 6563 C 655.728 2.01933 1.17241 0
M  V30 6564 C 656.709 0.90033 1.44319 0
M  V30 6565 O 657.894 1.16872 1.55095 0
M  V30 6566 C 655.024 2.40711 2.50351 0
M  V30 6567 C 653.978 3.55874 2.37776 0
M  V30 6568 C 653.304 3.80491 3.75674 0
M  V30 6569 C 654.604 4.8826 1.85472 0
M  V30 6570 H 656.298 2.88551 0.798672 0
M  V30 6571 H 653.844 1.3882 0.382743 0
M  V30 6572 H 655.797 2.70754 3.22909 0
M  V30 6573 H 654.521 1.5104 2.89576 0
M  V30 6574 H 653.18 3.2601 1.67669 0
M  V30 6575 H 652.828 2.88057 4.12349 0
M  V30 6576 H 652.528 4.57998 3.68119 0
M  V30 6577 H 654.052 4.12967 4.49767 0
M  V30 6578 H 655.466 5.16965 2.4783 0
M  V30 6579 H 653.863 5.69631 1.88787 0
M  V30 6580 H 654.933 4.78071 0.810935 0
M  V30 6581 N 656.276 -0.40816 1.52223 0
M  V30 6582 C 657.223 -1.49737 1.75635 0
M  V30 6583 C 658.193 -1.5493 0.598824 0
M  V30 6584 O 659.378 -1.71487 0.83648 0
M  V30 6585 C 656.518 -2.87174 1.91376 0
M  V30 6586 C 655.631 -2.91283 3.19027 0
M  V30 6587 C 654.766 -4.20026 3.25195 0
M  V30 6588 C 653.805 -4.18113 4.47044 0
M  V30 6589 N 652.942 -5.38429 4.50598 0
M  V30 6590 H 657.782 -1.29075 2.68596 0
M  V30 6591 H 655.319 -0.626518 1.33091 0
M  V30 6592 H 657.277 -3.66959 1.98486 0
M  V30 6593 H 655.907 -3.06329 1.01795 0
M  V30 6594 H 654.959 -2.03984 3.21084 0
M  V30 6595 H 656.271 -2.85734 4.08849 0
M  V30 6596 H 655.425 -5.08204 3.31382 0
M  V30 6597 H 654.164 -4.28271 2.33313 0
M  V30 6598 H 653.169 -3.28325 4.41002 0
M  V30 6599 H 654.394 -4.11507 5.40221 0
M  V30 6600 H 652.34 -5.4734 3.616 0
M  V30 6601 H 652.257 -5.34879 5.34266 0
M  V30 6602 H 653.525 -6.28557 4.61016 0
M  V30 6603 N 657.755 -1.42862 -0.66545 0
M  V30 6604 C 658.983 -1.47246 -1.45349 0
M  V30 6605 C 659.398 -0.0865944 -1.88601 0
M  V30 6606 O 658.755 0.900652 -1.58728 0
M  V30 6607 C 658.806 -2.40772 -2.6965 0
M  V30 6608 O 658.527 -3.73968 -2.2821 0
M  V30 6609 C 660.028 -2.54272 -3.63126 0
M  V30 6610 H 657.248 -0.500497 -0.446927 0
M  V30 6611 H 659.792 -1.87477 -0.816871 0
M  V30 6612 H 657.947 -2.0377 -3.29479 0
M  V30 6613 H 658.361 -4.24146 -3.08546 0
M  V30 6614 H 659.835 -3.23815 -4.47043 0
M  V30 6615 H 660.312 -1.58364 -4.09656 0
M  V30 6616 H 660.918 -2.92036 -3.09185 0
M  V30 6617 N 659.233 0.902656 -1.29189 0
M  V30 6618 C 660.479 1.65532 -1.17163 0
M  V30 6619 C 660.812 1.92216 0.276879 0
M  V30 6620 O 660.087 1.53048 1.20027 0
M  V30 6621 C 660.37 3.00629 -1.98228 0
M  V30 6622 C 660.223 2.81029 -3.51202 0
M  V30 6623 C 661.542 4.01321 -1.80635 0
M  V30 6624 H 658.661 0.60071 -0.426985 0
M  V30 6625 H 661.303 1.04578 -1.5863 0
M  V30 6626 H 659.453 3.52656 -1.62991 0
M  V30 6627 H 661.125 2.35927 -3.96404 0
M  V30 6628 H 659.368 2.1587 -3.76275 0
M  V30 6629 H 660.039 3.77014 -4.03192 0
M  V30 6630 H 662.515 3.58394 -2.11406 0
M  V30 6631 H 661.391 4.93792 -2.3971 0
M  V30 6632 H 661.652 4.35505 -0.760754 0
M  V30 6633 N 660.711 1.11618 1.11262 0
M  V30 6634 C 661.957 0.867463 1.83311 0
M  V30 6635 C 662.29 -0.605366 1.84524 0
M  V30 6636 O 661.565 -1.44704 1.29965 0
M  V30 6637 C 661.848 1.43207 3.30399 0
M  V30 6638 C 661.701 2.97265 3.3757 0
M  V30 6639 C 663.02 1.08454 4.26528 0
M  V30 6640 H 660.139 0.316578 0.665543 0
M  V30 6641 H 662.781 1.38137 1.30454 0
M  V30 6642 H 660.931 0.994982 3.75543 0
M  V30 6643 H 662.603 3.49591 3.00971 0
M  V30 6644 H 660.846 3.33237 2.77733 0
M  V30 6645 H 661.517 3.31859 4.41105 0
M  V30 6646 H 663.993 1.4619 3.89574 0
M  V30 6647 H 662.869 1.50633 5.27826 0
M  V30 6648 H 663.13 -0.00444568 4.421 0
M  V30 6649 N 662.189 -1.289 0.906776 0
M  V30 6650 C 663.119 -2.29932 0.406659 0
M  V30 6651 C 664.1 -1.6189 -0.522061 0
M  V30 6652 O 665.285 -1.8935 -0.431283 0
M  V30 6653 C 662.415 -3.45425 -0.360366 0
M  V30 6654 C 661.369 -4.25316 0.478574 0
M  V30 6655 C 660.695 -5.33076 -0.416373 0
M  V30 6656 C 661.995 -4.92739 1.7322 0
M  V30 6657 H 663.689 -2.72013 1.25097 0
M  V30 6658 H 661.235 -1.30768 0.602977 0
M  V30 6659 H 663.188 -4.15186 -0.721029 0
M  V30 6660 H 661.912 -3.02206 -1.23852 0
M  V30 6661 H 660.571 -3.57273 0.821662 0
M  V30 6662 H 660.219 -4.86101 -1.29287 0
M  V30 6663 H 659.919 -5.8743 0.141309 0
M  V30 6664 H 661.443 -6.05686 -0.773072 0
M  V30 6665 H 662.857 -5.54898 1.44086 0
M  V30 6666 H 661.254 -5.57057 2.23175 0
M  V30 6667 H 662.324 -4.17625 2.46408 0
M  V30 6668 N 663.667 -0.670007 -1.42649 0
M  V30 6669 C 664.597 -0.00258501 -2.335 0
M  V30 6670 C 665.578 0.794364 -1.50412 0
M  V30 6671 O 666.763 0.75248 -1.79029 0
M  V30 6672 C 663.893 0.952748 -3.33976 0
M  V30 6673 C 662.847 0.264733 -4.2718 0
M  V30 6674 C 662.173 1.33267 -5.17826 0
M  V30 6675 C 663.473 -0.853289 -5.15283 0
M  V30 6676 H 665.167 -0.761326 -2.89559 0
M  V30 6677 H 662.713 -0.367561 -1.3923 0
M  V30 6678 H 664.666 1.4287 -3.96442 0
M  V30 6679 H 663.39 1.74285 -2.7621 0
M  V30 6680 H 662.049 -0.190938 -3.66102 0
M  V30 6681 H 661.697 2.11464 -4.5639 0
M  V30 6682 H 661.397 0.877476 -5.81011 0
M  V30 6683 H 662.921 1.80965 -5.83167 0
M  V30 6684 H 664.335 -0.458763 -5.71462 0
M  V30 6685 H 662.732 -1.23398 -5.87276 0
M  V30 6686 H 663.802 -1.70412 -4.53969 0
M  V30 6687 N 665.145 1.52092 -0.413018 0
M  V30 6688 C 666.108 2.25706 0.398687 0
M  V30 6689 C 667.108 1.28221 0.970368 0
M  V30 6690 O 668.298 1.52131 0.848635 0
M  V30 6691 C 665.43 3.03029 1.5616 0
M  V30 6692 H 666.623 2.98888 -0.246131 0
M  V30 6693 H 664.176 1.5542 -0.165622 0
M  V30 6694 H 664.911 2.34205 2.24317 0
M  V30 6695 H 664.696 3.74606 1.15812 0
M  V30 6696 H 666.186 3.58857 2.13569 0
M  V30 6697 N 666.623 0.143563 1.56945 0
M  V30 6698 C 667.9 -0.553285 1.87612 0
M  V30 6699 C 668.28 -1.83195 1.04894 0
M  V30 6700 O 667.628 -2.28102 0.134773 0
M  V30 6701 C 667.838 -0.822055 3.3918 0
M  V30 6702 C 669.186 -1.16435 4.08324 0
M  V30 6703 O 670.21 -0.911522 3.4434 0
M  V30 6704 O 669.069 -1.63996 5.21313 0
M  V30 6705 H 666.163 -0.281851 0.777489 0
M  V30 6706 H 668.709 0.179916 1.68744 0
M  V30 6707 H 667.481 0.0830265 3.91212 0
M  V30 6708 H 667.104 -1.60956 3.63564 0
M  V30 6709 N 668.101 -1.57061 -0.130224 0
M  V30 6710 C 669.048 -1.99517 -1.16024 0
M  V30 6711 C 670.018 -0.865452 -1.41771 0
M  V30 6712 O 671.203 -1.12882 -1.53826 0
M  V30 6713 C 668.343 -2.3951 -2.48453 0
M  V30 6714 C 667.456 -3.65848 -2.29737 0
M  V30 6715 C 666.591 -3.9487 -3.55318 0
M  V30 6716 C 665.63 -5.14426 -3.31711 0
M  V30 6717 N 664.767 -5.39375 -4.49466 0
M  V30 6718 H 669.607 -2.87305 -0.791194 0
M  V30 6719 H 667.144 -1.42129 -0.379195 0
M  V30 6720 H 669.102 -2.60731 -3.25692 0
M  V30 6721 H 667.732 -1.54779 -2.83272 0
M  V30 6722 H 666.784 -3.52307 -1.4347 0
M  V30 6723 H 668.096 -4.53241 -2.08263 0
M  V30 6724 H 667.25 -4.16679 -4.4098 0
M  V30 6725 H 665.989 -3.05931 -3.79813 0
M  V30 6726 H 664.994 -4.92473 -2.44439 0
M  V30 6727 H 666.219 -6.04933 -3.08598 0
M  V30 6728 H 664.165 -4.53391 -4.74102 0
M  V30 6729 H 664.082 -6.21069 -4.31055 0
M  V30 6730 H 665.35 -5.65694 -5.36293 0
M  V30 6731 N 669.579 0.400081 -1.52437 0
M  V30 6732 C 670.526 1.48803 -1.76426 0
M  V30 6733 C 671.496 1.5461 -0.607032 0
M  V30 6734 O 672.681 1.71041 -0.845563 0
M  V30 6735 C 669.821 2.86156 -1.92896 0
M  V30 6736 C 668.934 2.89587 -3.20567 0
M  V30 6737 C 668.069 4.18296 -3.27417 0
M  V30 6738 C 667.108 4.15736 -4.49255 0
M  V30 6739 N 666.245 5.36032 -4.53447 0
M  V30 6740 H 671.085 1.27649 -2.69276 0
M  V30 6741 H 668.622 0.619451 -1.33421 0
M  V30 6742 H 670.58 3.65901 -2.00429 0
M  V30 6743 H 669.21 3.05785 -1.03418 0
M  V30 6744 H 668.262 2.02278 -3.22161 0
M  V30 6745 H 669.574 2.83562 -4.10358 0
M  V30 6746 H 668.728 5.06439 -3.34072 0
M  V30 6747 H 667.467 4.27028 -2.35581 0
M  V30 6748 H 666.472 3.25982 -4.42737 0
M  V30 6749 H 667.697 4.08636 -5.42396 0
M  V30 6750 H 665.643 5.45415 -3.64498 0
M  V30 6751 H 665.56 5.32038 -5.37096 0
M  V30 6752 H 666.828 6.26104 -4.64343 0
M  V30 6753 N 671.057 1.43213 0.657864 0
M  V30 6754 C 672.004 1.48011 1.77092 0
M  V30 6755 C 672.974 0.330291 1.62783 0
M  V30 6756 O 674.159 0.536787 1.83094 0
M  V30 6757 C 671.299 1.40461 3.15222 0
M  V30 6758 C 670.412 2.65612 3.40697 0
M  V30 6759 C 669.547 2.50083 4.68649 0
M  V30 6760 C 668.586 3.70525 4.87214 0
M  V30 6761 N 667.723 3.53835 6.0642 0
M  V30 6762 H 672.563 2.43121 1.72326 0
M  V30 6763 H 670.1 1.20687 0.841013 0
M  V30 6764 H 672.058 1.34079 3.95068 0
M  V30 6765 H 670.688 0.489359 3.19069 0
M  V30 6766 H 669.74 2.82292 2.54982 0
M  V30 6767 H 671.052 3.5509 3.50303 0
M  V30 6768 H 670.206 2.41383 5.56614 0
M  V30 6769 H 668.945 1.58121 4.61356 0
M  V30 6770 H 667.95 3.79639 3.97686 0
M  V30 6771 H 669.175 4.63489 4.96341 0
M  V30 6772 H 667.121 2.64604 6.00267 0
M  V30 6773 H 667.038 4.36912 6.16963 0
M  V30 6774 H 668.306 3.48978 6.97019 0
M  V30 6775 N 672.536 -0.895792 1.29666 0
M  V30 6776 C 673.484 -2.02173 1.15017 0
M  V30 6777 C 674.478 -1.69276 0.0647651 0
M  V30 6778 O 675.684 -1.7859 0.224846 0
M  V30 6779 H 672.059 -0.662719 0.355397 0
M  V30 6780 H 674.03 -2.11666 2.10334 0
M  V30 6781 C 672.779 -3.37212 0.847555 0
M  V30 6782 H 672.102 -3.6303 1.67479 0
M  V30 6783 H 673.542 -4.16668 0.785106 0
M  V30 6784 C 672.001 -3.33891 -0.44929 0
M  V30 6785 O 672.531 -3.73673 -1.47415 0
M  V30 6786 N 670.737 -2.86991 -0.456547 0
M  V30 6787 H 670.284 -2.54813 0.377925 0
M  V30 6788 H 670.242 -2.85152 -1.32423 0
M  V30 6789 N 674.014 -1.12206 -1.10668 0
M  V30 6790 C 674.977 -0.790867 -2.15123 0
M  V30 6791 C 675.977 0.193618 -1.5963 0
M  V30 6792 O 677.167 -0.0318728 -1.74171 0
M  V30 6793 C 674.299 -0.174797 -3.40452 0
M  V30 6794 H 675.492 -1.7163 -2.45933 0
M  V30 6795 H 673.045 -0.924993 -1.2599 0
M  V30 6796 H 673.78 0.760478 -3.15257 0
M  V30 6797 H 673.565 -0.88358 -3.82015 0
M  V30 6798 H 675.055 0.0405162 -4.1758 0
M  V30 6799 N 675.492 1.28418 -0.913599 0
M  V30 6800 C 676.738 1.9527 -0.547484 0
M  V30 6801 C 677.071 1.71745 0.906486 0
M  V30 6802 O 676.346 1.03834 1.64465 0
M  V30 6803 C 676.629 3.49748 -0.857205 0
M  V30 6804 C 676.482 3.82675 -2.3639 0
M  V30 6805 C 677.801 4.3868 -0.353258 0
M  V30 6806 H 674.92 0.709236 -0.200381 0
M  V30 6807 H 677.562 1.51789 -1.14281 0
M  V30 6808 H 675.712 3.86915 -0.350548 0
M  V30 6809 H 677.384 3.55378 -2.94116 0
M  V30 6810 H 675.627 3.29724 -2.81894 0
M  V30 6811 H 676.298 4.90547 -2.53115 0
M  V30 6812 H 678.774 4.08584 -0.787288 0
M  V30 6813 H 677.65 5.45621 -0.599049 0
M  V30 6814 H 677.911 4.35753 0.746413 0
M  V30 6815 N 676.97 0.677563 1.42291 0
M  V30 6816 C 678.216 0.201272 2.01799 0
M  V30 6817 C 678.549 -1.19004 1.53465 0
M  V30 6818 O 677.824 -1.79953 0.738039 0
M  V30 6819 C 678.107 0.238968 3.59306 0
M  V30 6820 C 677.96 1.66594 4.17812 0
M  V30 6821 C 679.279 -0.411287 4.38174 0
M  V30 6822 H 676.398 0.0746114 0.733214 0
M  V30 6823 H 679.04 0.862872 1.69276 0
M  V30 6824 H 677.19 -0.324368 3.87144 0
M  V30 6825 H 678.862 2.28173 4.00917 0
M  V30 6826 H 677.105 2.20576 3.73536 0
M  V30 6827 H 677.776 1.64398 5.26951 0
M  V30 6828 H 680.252 0.0682804 4.16044 0
M  V30 6829 H 679.128 -0.354286 5.47755 0
M  V30 6830 H 679.389 -1.4893 4.1626 0
M  V30 6831 N 678.448 -1.51871 0.421078 0
M  V30 6832 C 679.695 -2.01938 -0.15079 0
M  V30 6833 C 680.023 -1.30611 -1.44121 0
M  V30 6834 O 679.278 -0.404631 -1.91471 0
M  V30 6835 C 679.577 -3.54764 -0.433292 0
M  V30 6836 C 679.243 -4.44288 0.76936 0
M  V30 6837 C 677.905 -4.68477 1.09921 0
M  V30 6838 C 680.257 -4.96915 1.57242 0
M  V30 6839 C 677.585 -5.4254 2.2331 0
M  V30 6840 C 679.937 -5.7222 2.69716 0
M  V30 6841 C 678.601 -5.94678 3.03174 0
M  V30 6842 H 677.871 -0.738943 -0.0551781 0
M  V30 6843 H 680.518 -1.82977 0.564945 0
M  V30 6844 H 678.823 -3.71968 -1.23074 0
M  V30 6845 H 680.52 -3.91023 -0.888922 0
M  V30 6846 H 677.11 -4.25646 0.502305 0
M  V30 6847 H 681.294 -4.78125 1.3308 0
M  V30 6848 H 676.55 -5.58146 2.49565 0
M  V30 6849 H 680.724 -6.11992 3.32323 0
M  V30 6850 H 678.351 -6.51848 3.9115 0
M  V30 6851 N 679.926 -0.151884 -1.56866 0
M  V30 6852 C 680.873 0.785936 -2.17006 0
M  V30 6853 C 681.843 1.2407 -1.10435 0
M  V30 6854 O 683.028 1.31235 -1.38499 0
M  V30 6855 C 680.168 2.01771 -2.79969 0
M  V30 6856 C 679.281 1.6083 -4.00946 0
M  V30 6857 C 678.416 2.79224 -4.51893 0
M  V30 6858 C 677.455 2.3468 -5.65324 0
M  V30 6859 N 676.592 3.461 -6.10867 0
M  V30 6860 H 681.432 0.266286 -2.96808 0
M  V30 6861 H 678.969 0.11972 -1.46612 0
M  V30 6862 H 680.927 2.73989 -3.14621 0
M  V30 6863 H 679.557 2.51139 -2.02803 0
M  V30 6864 H 678.609 0.783592 -3.72242 0
M  V30 6865 H 679.921 1.24119 -4.83111 0
M  V30 6866 H 679.075 3.59625 -4.88625 0
M  V30 6867 H 677.814 3.19183 -3.68746 0
M  V30 6868 H 676.819 1.52721 -5.28163 0
M  V30 6869 H 678.044 1.95801 -6.5026 0
M  V30 6870 H 675.99 3.85671 -5.30654 0
M  V30 6871 H 675.907 3.1342 -6.87971 0
M  V30 6872 H 677.175 4.26844 -6.52246 0
M  V30 6873 N 681.404 1.57128 0.121893 0
M  V30 6874 C 682.629 1.89254 0.848385 0
M  V30 6875 C 683.054 0.743527 1.72781 0
M  V30 6876 O 682.412 -0.306056 1.78698 0
M  V30 6877 C 682.46 3.20113 1.66012 0
M  V30 6878 O 681.564 3.05815 2.76679 0
M  V30 6879 H 680.905 0.621103 0.234793 0
M  V30 6880 H 683.435 2.0433 0.10516 0
M  V30 6881 H 683.445 3.52761 2.04996 0
M  V30 6882 H 682.12 4.03336 1.01452 0
M  V30 6883 H 680.697 2.84627 2.40918 0
M  V30 6884 N 682.882 -0.391992 1.52647 0
M  V30 6885 C 684.159 -1.15136 1.58123 0
M  V30 6886 C 684.539 -2.07786 0.372597 0
M  V30 6887 O 683.887 -2.19374 -0.639304 0
M  V30 6888 C 684.097 -1.91367 2.91856 0
M  V30 6889 C 685.445 -2.46833 3.45483 0
M  V30 6890 O 686.469 -2.01527 2.9371 0
M  V30 6891 O 685.328 -3.29587 4.3593 0
M  V30 6892 H 682.422 -0.526649 0.637629 0
M  V30 6893 H 684.968 -0.397386 1.64982 0
M  V30 6894 H 683.74 -1.23597 3.71268 0
M  V30 6895 H 683.363 -2.73732 2.88369 0
M  V30 6896 N 684.36 -1.4356 -0.65026 0
M  V30 6897 C 685.608 -1.45046 -1.40734 0
M  V30 6898 C 685.929 -0.0769822 -1.94848 0
M  V30 6899 O 685.199 0.888098 -1.74613 0
M  V30 6900 H 683.779 -0.534034 -0.522318 0
M  V30 6901 H 686.441 -1.79186 -0.766703 0
M  V30 6902 H 685.537 -2.16476 -2.24822 0
M  V30 6903 N 685.838 0.888903 -1.30139 0
M  V30 6904 C 687.063 1.67884 -1.21777 0
M  V30 6905 C 687.488 1.86848 0.216689 0
M  V30 6906 O 686.846 1.39659 1.15608 0
M  V30 6907 C 686.894 3.03483 -1.94757 0
M  V30 6908 O 685.998 3.92294 -1.27198 0
M  V30 6909 H 685.339 0.513144 -0.421402 0
M  V30 6910 H 687.869 1.10968 -1.71893 0
M  V30 6911 H 687.879 3.53553 -2.03627 0
M  V30 6912 H 686.554 2.89 -2.99085 0
M  V30 6913 H 685.131 3.50732 -1.26655 0
M  V30 6914 N 687.317 1.12792 1.10072 0
M  V30 6915 C 688.563 0.886857 1.82381 0
M  V30 6916 C 688.896 -0.58576 1.85155 0
M  V30 6917 O 688.171 -1.43317 1.31493 0
M  V30 6918 C 688.454 1.46703 3.28862 0
M  V30 6919 C 688.307 3.00829 3.34398 0
M  V30 6920 C 689.626 1.12971 4.25353 0
M  V30 6921 H 686.745 0.32362 0.662148 0
M  V30 6922 H 689.387 1.39513 1.28982 0
M  V30 6923 H 687.537 1.03476 3.74466 0
M  V30 6924 H 689.209 3.52764 2.97247 0
M  V30 6925 H 687.452 3.36164 2.74183 0
M  V30 6926 H 688.123 3.36519 4.3756 0
M  V30 6927 H 690.599 1.50313 3.88001 0
M  V30 6928 H 689.475 1.56223 5.26199 0
M  V30 6929 H 689.736 0.0424452 4.4208 0
M  V30 6930 N 688.795 -1.27931 0.920396 0
M  V30 6931 C 689.725 -2.29487 0.431024 0
M  V30 6932 C 690.706 -1.62435 -0.504861 0
M  V30 6933 O 691.891 -1.89797 -0.411176 0
M  V30 6934 C 689.021 -3.45788 -0.323709 0
M  V30 6935 C 687.975 -4.24784 0.523658 0
M  V30 6936 C 687.301 -5.33488 -0.359809 0
M  V30 6937 C 688.601 -4.90874 1.78437 0
M  V30 6938 H 690.295 -2.70671 1.27975 0
M  V30 6939 H 687.841 -1.30121 0.616813 0
M  V30 6940 H 689.794 -4.15927 -0.676952 0
M  V30 6941 H 688.518 -3.03502 -1.2064 0
M  V30 6942 H 687.177 -3.56382 0.85951 0
M  V30 6943 H 686.825 -4.87445 -1.24124 0
M  V30 6944 H 686.525 -5.87247 0.203605 0
M  V30 6945 H 688.049 -6.06472 -0.708787 0
M  V30 6946 H 689.463 -5.53339 1.49963 0
M  V30 6947 H 687.86 -5.54659 2.29071 0
M  V30 6948 H 688.93 -4.14988 2.50824 0
M  V30 6949 N 690.273 -0.685099 -1.4193 0
M  V30 6950 C 691.203 -0.0273506 -2.33484 0
M  V30 6951 C 692.184 0.778366 -1.51246 0
M  V30 6952 O 693.369 0.733449 -1.79817 0
M  V30 6953 C 690.499 0.917272 -3.34968 0
M  V30 6954 C 689.453 0.21941 -4.27437 0
M  V30 6955 C 688.779 1.27768 -5.1921 0
M  V30 6956 C 690.079 -0.907894 -5.14349 0
M  V30 6957 H 691.773 -0.791994 -2.88735 0
M  V30 6958 H 689.319 -0.382308 -1.38832 0
M  V30 6959 H 691.272 1.38657 -3.97935 0
M  V30 6960 H 689.996 1.71346 -2.78043 0
M  V30 6961 H 688.655 -0.229757 -3.65879 0
M  V30 6962 H 688.303 2.06612 -4.58607 0
M  V30 6963 H 688.003 0.815803 -5.81909 0
M  V30 6964 H 689.527 1.7477 -5.85054 0
M  V30 6965 H 690.941 -0.519348 -5.70943 0
M  V30 6966 H 689.338 -1.2962 -5.85934 0
M  V30 6967 H 690.408 -1.75218 -4.52136 0
M  V30 6968 N 691.751 1.51645 -0.429126 0
M  V30 6969 C 692.699 2.29119 0.400921 0
M  V30 6970 C 693.693 1.34628 1.02819 0
M  V30 6971 O 694.899 1.52004 0.964098 0
M  V30 6972 H 691.274 0.737273 0.148095 0
M  V30 6973 H 693.245 2.97144 -0.273457 0
M  V30 6974 C 691.994 3.13953 1.49429 0
M  V30 6975 H 691.317 3.86544 1.02097 0
M  V30 6976 H 692.757 3.71232 2.04849 0
M  V30 6977 C 691.216 2.28796 2.47293 0
M  V30 6978 O 691.746 1.94193 3.51642 0
M  V30 6979 N 689.952 1.92177 2.17982 0
M  V30 6980 H 689.499 2.20517 1.33154 0
M  V30 6981 H 689.457 1.35497 2.83704 0
M  V30 6982 N 693.229 0.160201 1.56784 0
M  V30 6983 C 694.161 -0.80564 2.14574 0
M  V30 6984 C 695.174 -1.20154 1.09849 0
M  V30 6985 O 696.363 -1.14333 1.37078 0
M  V30 6986 C 693.463 -2.09434 2.6644 0
M  V30 6987 C 692.636 -1.86375 3.95706 0
M  V30 6988 C 691.695 -2.99358 4.32749 0
M  V30 6989 O 690.721 -2.70475 5.00831 0
M  V30 6990 N 691.923 -4.26867 3.93402 0
M  V30 6991 H 694.688 -0.311644 2.98075 0
M  V30 6992 H 692.249 -0.0229465 1.61884 0
M  V30 6993 H 694.241 -2.84091 2.88226 0
M  V30 6994 H 692.811 -2.50057 1.8759 0
M  V30 6995 H 692.031 -0.956821 3.82412 0
M  V30 6996 H 693.319 -1.68322 4.80151 0
M  V30 6997 H 692.717 -4.53197 3.38569 0
M  V30 6998 H 691.274 -4.98263 4.20211 0
M  V30 6999 N 694.707 -1.5719 -0.113559 0
M  V30 7000 C 695.637 -2.03772 -1.14013 0
M  V30 7001 C 696.618 -0.923176 -1.42869 0
M  V30 7002 O 697.803 -1.19325 -1.53216 0
M  V30 7003 C 694.933 -2.44663 -2.4649 0
M  V30 7004 C 693.887 -3.59612 -2.32085 0
M  V30 7005 C 693.213 -3.8642 -3.69573 0
M  V30 7006 C 694.513 -4.91149 -1.7768 0
M  V30 7007 H 696.207 -2.89785 -0.752665 0
M  V30 7008 H 693.753 -1.39412 -0.360609 0
M  V30 7009 H 695.706 -2.75857 -3.18561 0
M  V30 7010 H 694.43 -1.55628 -2.87137 0
M  V30 7011 H 693.089 -3.28636 -1.62461 0
M  V30 7012 H 692.737 -2.94581 -4.07715 0
M  V30 7013 H 692.437 -4.63797 -3.60786 0
M  V30 7014 H 693.961 -4.2007 -4.4314 0
M  V30 7015 H 695.375 -5.20843 -2.39574 0
M  V30 7016 H 693.772 -5.72562 -1.79701 0
M  V30 7017 H 694.842 -4.79301 -0.734776 0
M  V30 7018 N 696.185 0.383891 -1.52853 0
M  V30 7019 C 697.117 1.48889 -1.74255 0
M  V30 7020 C 698.13 1.50405 -0.623063 0
M  V30 7021 O 699.319 1.54215 -0.898887 0
M  V30 7022 C 696.419 2.87721 -1.79081 0
M  V30 7023 C 695.592 3.10111 -3.08464 0
M  V30 7024 C 694.651 4.28954 -3.0477 0
M  V30 7025 O 693.677 4.25012 -3.78621 0
M  V30 7026 N 694.879 5.35411 -2.24311 0
M  V30 7027 H 697.644 1.30915 -2.69595 0
M  V30 7028 H 695.205 0.573454 -1.51404 0
M  V30 7029 H 697.197 3.65333 -1.7411 0
M  V30 7030 H 695.767 2.99029 -0.911052 0
M  V30 7031 H 694.987 2.20319 -3.26884 0
M  V30 7032 H 696.275 3.21928 -3.94005 0
M  V30 7033 H 695.673 5.41471 -1.63787 0
M  V30 7034 H 694.23 6.1167 -2.25175 0
M  V30 7035 N 697.663 1.43903 0.642637 0
M  V30 7036 C 698.909 1.46296 1.40447 0
M  V30 7037 C 699.242 0.0908361 1.93987 0
M  V30 7038 O 698.517 -0.889884 1.72949 0
M  V30 7039 C 698.8 2.51399 2.57819 0
M  V30 7040 C 698.653 3.97926 2.09702 0
M  V30 7041 C 699.972 2.53125 3.60022 0
M  V30 7042 H 697.091 0.532676 0.509338 0
M  V30 7043 H 699.733 1.75515 0.727635 0
M  V30 7044 H 697.883 2.26614 3.1556 0
M  V30 7045 H 699.555 4.33804 1.5688 0
M  V30 7046 H 697.798 4.10252 1.40982 0
M  V30 7047 H 698.469 4.67096 2.94152 0
M  V30 7048 H 700.945 2.75242 3.12059 0
M  V30 7049 H 699.821 3.28589 4.39682 0
M  V30 7050 H 700.082 1.56895 4.13324 0
M  V30 7051 N 699.141 -0.881989 1.30609 0
M  V30 7052 C 700.089 -2.00942 1.17155 0
M  V30 7053 C 701.083 -1.69198 0.0827154 0
M  V30 7054 O 702.289 -1.78342 0.243775 0
M  V30 7055 H 698.664 -0.658913 0.362406 0
M  V30 7056 H 700.635 -2.09423 2.12567 0
M  V30 7057 C 699.384 -3.36294 0.883273 0
M  V30 7058 H 698.707 -3.61233 1.7132 0
M  V30 7059 H 700.147 -4.15812 0.829255 0
M  V30 7060 C 698.606 -3.34348 -0.413851 0
M  V30 7061 O 699.136 -3.75216 -1.43444 0
M  V30 7062 N 697.342 -2.87459 -0.426082 0
M  V30 7063 H 696.889 -2.54397 0.40493 0
M  V30 7064 H 696.847 -2.8654 -1.29391 0
M  V30 7065 N 700.619 -1.13374 -1.09472 0
M  V30 7066 C 701.549 -0.833268 -2.18126 0
M  V30 7067 C 702.53 0.207169 -1.68834 0
M  V30 7068 O 703.715 0.0662012 -1.94087 0
M  V30 7069 C 700.845 -0.297979 -3.46019 0
M  V30 7070 C 699.799 -1.27261 -4.08642 0
M  V30 7071 C 699.125 -0.597104 -5.31356 0
M  V30 7072 C 700.425 -2.63095 -4.51197 0
M  V30 7073 H 702.119 -1.74182 -2.43518 0
M  V30 7074 H 699.665 -0.838921 -1.17039 0
M  V30 7075 H 701.618 -0.0754444 -4.21332 0
M  V30 7076 H 700.342 0.645959 -3.20148 0
M  V30 7077 H 699.001 -1.48113 -3.35348 0
M  V30 7078 H 698.649 0.352293 -5.01765 0
M  V30 7079 H 698.349 -1.24734 -5.74208 0
M  V30 7080 H 699.873 -0.38384 -6.09392 0
M  V30 7081 H 701.287 -2.46214 -5.17737 0
M  V30 7082 H 699.684 -3.2429 -5.04932 0
M  V30 7083 H 700.754 -3.20793 -3.6362 0
M  V30 7084 N 702.098 1.27442 -0.927168 0
M  V30 7085 C 703.509 1.76385 -0.611979 0
M  V30 7086 C 703.86 1.75715 0.872853 0
M  V30 7087 O 702.985 1.3603 1.683 0
M  V30 7088 C 703.58 3.20303 -1.10414 0
M  V30 7089 C 702.139 3.66916 -0.839628 0
M  V30 7090 C 701.286 2.46859 -1.26317 0
M  V30 7091 H 704.237 1.13716 -1.107 0
M  V30 7092 H 704.258 3.77811 -0.451578 0
M  V30 7093 H 703.77 3.20759 -2.18484 0
M  V30 7094 H 701.871 3.71906 0.227292 0
M  V30 7095 H 701.984 4.56415 -1.45679 0
M  V30 7096 H 700.348 2.45407 -0.681723 0
M  V30 7097 H 701.131 2.50025 -2.3525 0
M  V30 7098 N 703.576 0.692616 1.41565 0
M  V30 7099 C 704.526 0.00231847 2.28 0
M  V30 7100 C 705.51 -0.755793 1.42044 0
M  V30 7101 O 706.702 -0.631772 1.65341 0
M  V30 7102 C 703.831 -0.935468 3.30309 0
M  V30 7103 C 702.917 -0.173761 4.23744 0
M  V30 7104 N 703.308 0.830872 4.98929 0
M  V30 7105 C 701.606 -0.409666 4.44115 0
M  V30 7106 C 702.307 1.28656 5.67294 0
M  V30 7107 N 701.283 0.613053 5.40132 0
M  V30 7108 H 705.085 0.772635 2.83562 0
M  V30 7109 H 702.599 0.523198 1.53741 0
M  V30 7110 H 704.596 -1.44513 3.91052 0
M  V30 7111 H 703.256 -1.70542 2.76307 0
M  V30 7112 H 704.267 1.21101 5.03542 0
M  V30 7113 H 700.944 -1.15773 4.01127 0
M  V30 7114 H 702.334 2.12006 6.37576 0
M  V30 7115 N 705.054 -1.51416 0.437162 0
M  V30 7116 C 706.3 -2.02386 -0.129555 0
M  V30 7117 C 706.633 -1.32071 -1.42376 0
M  V30 7118 O 705.908 -0.43559 -1.8956 0
M  V30 7119 C 706.191 -3.5841 -0.348487 0
M  V30 7120 C 706.044 -4.39341 0.964352 0
M  V30 7121 C 707.363 -4.25654 -1.11834 0
M  V30 7122 H 704.482 -0.735587 -0.0456109 0
M  V30 7123 H 707.124 -1.81055 0.576124 0
M  V30 7124 H 705.274 -3.76716 -0.949592 0
M  V30 7125 H 706.946 -4.32685 1.59942 0
M  V30 7126 H 705.189 -4.04432 1.56898 0
M  V30 7127 H 705.86 -5.4667 0.765212 0
M  V30 7128 H 708.336 -4.11617 -0.609165 0
M  V30 7129 H 707.212 -5.34704 -1.24029 0
M  V30 7130 H 707.473 -3.86502 -2.14636 0
M  V30 7131 N 706.532 -0.168513 -1.56696 0
M  V30 7132 C 707.76 0.483503 -2.01171 0
M  V30 7133 C 708.175 1.56994 -1.04872 0
M  V30 7134 O 707.532 1.82434 -0.0491337 0
M  V30 7135 C 707.583 1.0644 -3.45475 0
M  V30 7136 O 707.304 0.0213375 -4.38095 0
M  V30 7137 C 708.805 1.79493 -4.05336 0
M  V30 7138 H 706.025 0.124002 -0.659443 0
M  V30 7139 H 708.569 -0.269419 -2.02717 0
M  V30 7140 H 706.724 1.76784 -3.44712 0
M  V30 7141 H 707.138 0.449837 -5.22567 0
M  V30 7142 H 708.612 2.15401 -5.08238 0
M  V30 7143 H 709.089 2.68889 -3.47269 0
M  V30 7144 H 709.695 1.13798 -4.09793 0
M  V30 7145 N 708.01 1.57248 0.105221 0
M  V30 7146 C 708.973 2.00388 1.11252 0
M  V30 7147 C 709.973 0.89594 1.33527 0
M  V30 7148 O 711.163 1.16166 1.29811 0
M  V30 7149 C 708.295 2.35589 2.46395 0
M  V30 7150 H 709.488 2.90591 0.741424 0
M  V30 7151 H 707.041 1.52332 0.349956 0
M  V30 7152 H 707.776 1.4831 2.884 0
M  V30 7153 H 707.561 3.16408 2.31578 0
M  V30 7154 H 709.051 2.69658 3.18864 0
M  V30 7155 N 709.488 -0.375779 1.53054 0
M  V30 7156 C 710.713 -1.14484 1.7294 0
M  V30 7157 C 711.138 -1.82572 0.452668 0
M  V30 7158 O 710.496 -1.71343 -0.592567 0
M  V30 7159 C 710.544 -2.15857 2.88857 0
M  V30 7160 O 709.648 -3.22725 2.56753 0
M  V30 7161 H 708.989 -0.332666 0.574656 0
M  V30 7162 H 711.519 -0.436025 1.999 0
M  V30 7163 H 711.529 -2.59631 3.14731 0
M  V30 7164 H 710.204 -1.65689 3.81471 0
M  V30 7165 H 708.781 -2.83996 2.41663 0
M  V30 7166 N 710.966 -1.44241 -0.634997 0
M  V30 7167 C 712.213 -1.46821 -1.39463 0
M  V30 7168 C 712.541 -0.0993362 -1.94246 0
M  V30 7169 O 711.796 0.898325 -1.73864 0
M  V30 7170 C 712.095 -2.47279 -2.58046 0
M  V30 7171 C 711.761 -3.92703 -2.21574 0
M  V30 7172 C 710.423 -4.32306 -2.1134 0
M  V30 7173 C 712.775 -4.84271 -1.92695 0
M  V30 7174 C 710.103 -5.61407 -1.70409 0
M  V30 7175 C 712.455 -6.13755 -1.53258 0
M  V30 7176 C 711.119 -6.52316 -1.41562 0
M  V30 7177 H 710.389 -0.537256 -0.51033 0
M  V30 7178 H 713.036 -1.77431 -0.720441 0
M  V30 7179 H 711.341 -2.10138 -3.3068 0
M  V30 7180 H 713.038 -2.46523 -3.16271 0
M  V30 7181 H 709.628 -3.61369 -2.30456 0
M  V30 7182 H 713.812 -4.54432 -1.99513 0
M  V30 7183 H 709.068 -5.90105 -1.59955 0
M  V30 7184 H 713.242 -6.84168 -1.29949 0
M  V30 7185 H 710.869 -7.52255 -1.09619 0
M  V30 7186 N 712.444 0.87505 -1.31075 0
M  V30 7187 C 713.669 1.66583 -1.23551 0
M  V30 7188 C 714.094 1.87067 0.19686 0
M  V30 7189 O 713.452 1.40877 1.1412 0
M  V30 7190 C 713.5 3.01401 -1.97965 0
M  V30 7191 O 712.604 3.90923 -1.31351 0
M  V30 7192 H 711.945 0.508645 -0.426821 0
M  V30 7193 H 714.475 1.09139 -1.7306 0
M  V30 7194 H 714.485 3.51374 -2.07366 0
M  V30 7195 H 713.16 2.85812 -3.02133 0
M  V30 7196 H 711.737 3.49369 -1.30368 0
M  V30 7197 N 713.922 1.13953 1.08869 0
M  V30 7198 C 715.168 0.906151 1.8143 0
M  V30 7199 C 715.501 -0.566089 1.85766 0
M  V30 7200 O 714.776 -1.41915 1.33006 0
M  V30 7201 C 715.059 1.50183 3.27287 0
M  V30 7202 C 714.912 3.04359 3.31189 0
M  V30 7203 C 716.231 1.17477 4.24131 0
M  V30 7204 H 713.35 0.330624 0.658678 0
M  V30 7205 H 715.992 1.40873 1.27495 0
M  V30 7206 H 714.142 1.07442 3.73348 0
M  V30 7207 H 715.814 3.55896 2.93488 0
M  V30 7208 H 714.057 3.39053 2.70602 0
M  V30 7209 H 714.728 3.41141 4.33966 0
M  V30 7210 H 717.204 1.5442 3.86385 0
M  V30 7211 H 716.08 1.61795 5.24513 0
M  V30 7212 H 716.341 0.0893312 4.4201 0
M  V30 7213 N 715.4 -1.26948 0.933913 0
M  V30 7214 C 716.647 -1.94087 0.577625 0
M  V30 7215 C 716.975 -1.73345 -0.88214 0
M  V30 7216 O 716.23 -1.05945 -1.64542 0
M  V30 7217 C 716.529 -3.46963 0.857406 0
M  V30 7218 C 716.195 -3.87834 2.2999 0
M  V30 7219 C 714.857 -3.98704 2.69423 0
M  V30 7220 C 717.209 -4.08442 3.23766 0
M  V30 7221 C 714.537 -4.27573 4.01744 0
M  V30 7222 C 716.889 -4.38798 4.55675 0
M  V30 7223 C 715.553 -4.47881 4.94934 0
M  V30 7224 H 714.823 -0.710215 0.211368 0
M  V30 7225 H 717.47 -1.50899 1.17905 0
M  V30 7226 H 715.775 -3.91416 0.173369 0
M  V30 7227 H 717.472 -3.97062 0.560615 0
M  V30 7228 H 714.062 -3.79916 1.98399 0
M  V30 7229 H 718.246 -3.99479 2.94499 0
M  V30 7230 H 713.502 -4.32815 4.31834 0
M  V30 7231 H 717.676 -4.5369 5.28335 0
M  V30 7232 H 715.303 -4.70005 5.97495 0
M  V30 7233 N 716.879 -0.700114 -1.41195 0
M  V30 7234 C 718.295 -0.372114 -1.55201 0
M  V30 7235 C 718.495 1.12053 -1.6747 0
M  V30 7236 O 717.551 1.90642 -1.65566 0
M  V30 7237 C 718.864 -1.12462 -2.78878 0
M  V30 7238 C 720.412 -1.10941 -2.92679 0
M  V30 7239 C 720.887 -1.84376 -4.19249 0
M  V30 7240 N 722.378 -1.81368 -4.26216 0
M  V30 7241 C 723.113 -2.35024 -5.23021 0
M  V30 7242 N 722.609 -2.9717 -6.25829 0
M  V30 7243 N 724.402 -2.25254 -5.14992 0
M  V30 7244 H 716.553 -1.66816 -1.31477 0
M  V30 7245 H 718.816 -0.704223 -0.634644 0
M  V30 7246 H 718.522 -2.17937 -2.76037 0
M  V30 7247 H 718.396 -0.706152 -3.70531 0
M  V30 7248 H 720.783 -0.062911 -2.95033 0
M  V30 7249 H 720.864 -1.56698 -2.02187 0
M  V30 7250 H 720.508 -2.89008 -4.17656 0
M  V30 7251 H 720.438 -1.3605 -5.08722 0
M  V30 7252 H 722.929 -1.36062 -3.52556 0
M  V30 7253 H 723.242 -3.35668 -6.96094 0
M  V30 7254 H 721.587 -3.01249 -6.26318 0
M  V30 7255 H 724.778 -1.76372 -4.33602 0
M  V30 7256 H 724.951 -2.67373 -5.90268 0
M  V30 7257 N 718.357 1.51182 -0.445186 0
M  V30 7258 C 719.768 1.86693 0.0160999 0
M  V30 7259 C 720.119 1.36183 1.4124 0
M  V30 7260 O 719.244 0.715895 2.04215 0
M  V30 7261 C 719.839 3.38781 0.0359918 0
M  V30 7262 C 718.398 3.73799 0.441715 0
M  V30 7263 C 717.545 2.74947 -0.360511 0
M  V30 7264 H 720.496 1.44294 -0.660674 0
M  V30 7265 H 720.517 3.71026 0.843813 0
M  V30 7266 H 720.029 3.75513 -0.980378 0
M  V30 7267 H 718.13 3.42659 1.4634 0
M  V30 7268 H 718.243 4.78829 0.16106 0
M  V30 7269 H 716.607 2.54047 0.182269 0
M  V30 7270 H 717.39 3.14521 -1.3759 0
M  V30 7271 N 719.835 0.176821 1.56605 0
M  V30 7272 C 721.06 -0.47599 2.01864 0
M  V30 7273 C 721.485 -1.55645 1.05623 0
M  V30 7274 O 720.843 -1.81263 0.0366729 0
M  V30 7275 C 720.891 -1.02619 3.4569 0
M  V30 7276 O 719.995 -2.13996 3.52533 0
M  V30 7277 H 719.336 -0.113363 0.654251 0
M  V30 7278 H 721.866 0.28233 2.02643 0
M  V30 7279 H 721.876 -1.34742 3.85109 0
M  V30 7280 H 720.551 -0.235138 4.15235 0
M  V30 7281 H 719.128 -1.82876 3.24978 0
M  V30 7282 N 721.313 -1.57302 -0.09688 0
M  V30 7283 C 722.538 -1.9058 -0.818169 0
M  V30 7284 C 722.963 -0.770921 -1.71576 0
M  V30 7285 O 722.321 0.277588 -1.79162 0
M  V30 7286 C 722.369 -3.22714 -1.60898 0
M  V30 7287 O 721.473 -3.10178 -2.71779 0
M  V30 7288 H 720.814 -0.624759 -0.224882 0
M  V30 7289 H 723.344 -2.04471 -0.07264 0
M  V30 7290 H 723.354 -3.55978 -1.99358 0
M  V30 7291 H 722.029 -4.04899 -0.950227 0
M  V30 7292 H 720.606 -2.88424 -2.3636 0
M  V30 7293 N 722.791 0.367657 -1.53252 0
M  V30 7294 C 724.021 1.12955 -1.72988 0
M  V30 7295 C 724.429 1.8358 -0.457708 0
M  V30 7296 O 723.772 1.74336 0.579006 0
M  V30 7297 C 723.834 2.20545 -2.83902 0
M  V30 7298 C 723.498 1.69704 -4.24323 0
M  V30 7299 C 724.495 1.16223 -5.06743 0
M  V30 7300 C 722.18 1.7528 -4.70725 0
M  V30 7301 C 724.174 0.689935 -6.33655 0
M  V30 7302 C 721.861 1.27662 -5.97617 0
M  V30 7303 C 722.859 0.746083 -6.78913 0
M  V30 7304 O 722.547 0.276925 -8.03423 0
M  V30 7305 H 722.279 0.343753 -0.582074 0
M  V30 7306 H 724.833 0.433106 -2.00782 0
M  V30 7307 H 723.063 2.93676 -2.51577 0
M  V30 7308 H 724.752 2.82111 -2.91836 0
M  V30 7309 H 725.518 1.11256 -4.72067 0
M  V30 7310 H 721.397 2.15515 -4.07522 0
M  V30 7311 H 724.941 0.275164 -6.97057 0
M  V30 7312 H 720.838 1.32322 -6.31792 0
M  V30 7313 H 721.606 0.396445 -8.17539 0
M  V30 7314 N 724.269 1.44576 0.627338 0
M  V30 7315 C 725.219 1.48168 1.73293 0
M  V30 7316 C 726.203 0.347045 1.57113 0
M  V30 7317 O 727.395 0.592605 1.66785 0
M  V30 7318 C 724.524 1.43236 3.11991 0
M  V30 7319 C 723.61 2.61828 3.33627 0
M  V30 7320 N 724.001 3.87053 3.25612 0
M  V30 7321 C 722.299 2.57104 3.64436 0
M  V30 7322 C 723 4.66093 3.48041 0
M  V30 7323 N 721.976 3.97228 3.71095 0
M  V30 7324 H 725.778 2.42832 1.6556 0
M  V30 7325 H 723.292 1.39592 0.829934 0
M  V30 7326 H 725.289 1.43893 3.91281 0
M  V30 7327 H 723.949 0.496133 3.20887 0
M  V30 7328 H 724.96 4.18966 3.04447 0
M  V30 7329 H 721.637 1.72295 3.8029 0
M  V30 7330 H 723.027 5.75117 3.47404 0
M  V30 7331 N 725.747 -0.868086 1.31537 0
M  V30 7332 C 726.996 -1.61607 1.20689 0
M  V30 7333 C 727.309 -1.94204 -0.233275 0
M  V30 7334 O 728.515 -2.67515 -0.463465 0
M  V30 7335 C 726.971 -2.91348 2.11292 0
M  V30 7336 C 726.579 -2.66227 3.60315 0
M  V30 7337 C 728.323 -3.69344 2.09249 0
M  V30 7338 C 726.23 -3.91887 4.42921 0
M  V30 7339 H 725.16 -0.606373 0.448138 0
M  V30 7340 H 727.811 -0.959666 1.56405 0
M  V30 7341 H 726.193 -3.58374 1.68477 0
M  V30 7342 H 727.367 -2.07597 4.11388 0
M  V30 7343 H 725.682 -2.01582 3.64354 0
M  V30 7344 H 728.279 -4.62567 2.68209 0
M  V30 7345 H 728.622 -4.02044 1.0801 0
M  V30 7346 H 729.155 -3.09205 2.50274 0
M  V30 7347 H 725.894 -3.64336 5.44922 0
M  V30 7348 H 725.414 -4.49961 3.96605 0
M  V30 7349 H 727.093 -4.59754 4.55231 0
M  V30 7350 N 727.225 -1.14528 -1.08264 0
M  V30 7351 C 728.158 -0.777154 -2.14559 0
M  V30 7352 C 729.136 0.242165 -1.60787 0
M  V30 7353 O 730.32 0.130882 -1.88045 0
M  V30 7354 C 727.447 -0.154092 -3.38349 0
M  V30 7355 C 726.493 -1.14382 -4.10876 0
M  V30 7356 S 727.326 -2.68173 -4.63512 0
M  V30 7357 C 728.482 -2.0726 -5.90588 0
M  V30 7358 H 728.715 -1.67748 -2.45454 0
M  V30 7359 H 726.248 -0.966661 -1.20395 0
M  V30 7360 H 728.206 0.19897 -4.10018 0
M  V30 7361 H 726.867 0.723688 -3.05649 0
M  V30 7362 H 726.06 -0.655908 -4.99714 0
M  V30 7363 H 725.662 -1.44095 -3.45127 0
M  V30 7364 H 727.954 -1.42895 -6.62259 0
M  V30 7365 H 728.897 -2.94227 -6.44078 0
M  V30 7366 H 729.305 -1.51935 -5.43669 0
M  V30 7367 N 728.703 1.26451 -0.940633 0
M  V30 7368 C 729.949 1.94065 -0.58878 0
M  V30 7369 C 730.282 1.7363 0.869853 0
M  V30 7370 O 729.557 1.073 1.62225 0
M  V30 7371 C 729.84 3.47852 -0.931199 0
M  V30 7372 C 729.693 3.77575 -2.44453 0
M  V30 7373 C 731.012 4.37832 -0.446229 0
M  V30 7374 H 728.131 0.704827 -0.21538 0
M  V30 7375 H 730.773 1.4933 -1.17475 0
M  V30 7376 H 728.923 3.86085 -0.432539 0
M  V30 7377 H 730.595 3.49059 -3.01588 0
M  V30 7378 H 728.838 3.23671 -2.88825 0
M  V30 7379 H 729.509 4.85068 -2.63464 0
M  V30 7380 H 731.985 4.06822 -0.873778 0
M  V30 7381 H 730.861 5.44228 -0.714648 0
M  V30 7382 H 731.122 4.37239 0.653815 0
M  V30 7383 N 730.181 0.707592 1.40822 0
M  V30 7384 C 731.406 0.251626 2.05868 0
M  V30 7385 C 731.831 -1.09503 1.5294 0
M  V30 7386 O 731.189 -1.68806 0.661385 0
M  V30 7387 C 731.237 0.23287 3.59847 0
M  V30 7388 O 730.341 -0.788477 4.04792 0
M  V30 7389 H 729.682 0.119936 0.653078 0
M  V30 7390 H 732.212 0.96583 1.80369 0
M  V30 7391 H 732.222 0.0678204 4.07944 0
M  V30 7392 H 730.897 1.21565 3.97737 0
M  V30 7393 H 729.474 -0.591802 3.68174 0
M  V30 7394 N 731.66 -1.50943 0.453197 0
M  V30 7395 C 732.593 -2.24742 -0.395787 0
M  V30 7396 C 733.571 -1.27316 -1.01141 0
M  V30 7397 O 734.755 -1.56494 -1.05081 0
M  V30 7398 C 731.882 -3.00999 -1.55298 0
M  V30 7399 C 730.928 -4.13207 -1.0565 0
M  V30 7400 S 731.761 -5.35498 0.01435 0
M  V30 7401 C 732.917 -6.15298 -1.14714 0
M  V30 7402 H 733.15 -2.96403 0.23071 0
M  V30 7403 H 730.683 -1.52557 0.237874 0
M  V30 7404 H 732.641 -3.45529 -2.2163 0
M  V30 7405 H 731.302 -2.28896 -2.15094 0
M  V30 7406 H 730.495 -4.65901 -1.9223 0
M  V30 7407 H 730.097 -3.7102 -0.471182 0
M  V30 7408 H 732.389 -6.45346 -2.06239 0
M  V30 7409 H 733.332 -7.05019 -0.659842 0
M  V30 7410 H 733.74 -5.47046 -1.39288 0
M  V30 7411 N 733.138 -0.185124 -1.56509 0
M  V30 7412 C 734.101 0.72591 -2.17401 0
M  V30 7413 C 735.101 1.14819 -1.12575 0
M  V30 7414 O 736.291 1.0629 -1.38015 0
M  V30 7415 C 733.423 1.98979 -2.76803 0
M  V30 7416 H 734.616 0.195588 -2.99262 0
M  V30 7417 H 732.169 0.0644772 -1.56167 0
M  V30 7418 H 732.904 2.56287 -1.98714 0
M  V30 7419 H 732.689 1.69583 -3.53531 0
M  V30 7420 H 734.179 2.63966 -3.23592 0
M  V30 7421 N 734.616 1.57351 0.0885366 0
M  V30 7422 C 735.865 1.85604 0.789556 0
M  V30 7423 C 736.178 0.775352 1.79576 0
M  V30 7424 O 737.384 0.945206 2.54515 0
M  V30 7425 C 735.84 3.29175 1.45506 0
M  V30 7426 C 735.448 4.45331 0.488278 0
M  V30 7427 C 737.192 3.66646 2.13942 0
M  V30 7428 C 735.099 5.79937 1.15874 0
M  V30 7429 H 734.029 0.692346 0.298619 0
M  V30 7430 H 736.68 1.83451 0.0425821 0
M  V30 7431 H 735.062 3.25889 2.24972 0
M  V30 7432 H 736.236 4.59977 -0.275359 0
M  V30 7433 H 734.551 4.16301 -0.0907363 0
M  V30 7434 H 737.148 4.64498 2.6485 0
M  V30 7435 H 737.491 2.956 2.93132 0
M  V30 7436 H 738.024 3.71848 1.41328 0
M  V30 7437 H 734.763 6.54232 0.407508 0
M  V30 7438 H 734.283 5.69123 1.89364 0
M  V30 7439 H 735.962 6.24718 1.68336 0
M  V30 7440 N 736.094 -0.359525 1.53444 0
M  V30 7441 C 737.342 -1.09935 1.69584 0
M  V30 7442 C 737.663 -1.89656 0.453371 0
M  V30 7443 O 736.933 -1.8852 -0.53263 0
M  V30 7444 H 735.513 -0.408843 0.625185 0
M  V30 7445 H 738.175 -0.40467 1.90653 0
M  V30 7446 H 737.271 -1.78575 2.55964 0
M  V30 7447 N 737.572 -1.44907 -0.619662 0
M  V30 7448 C 738.818 -1.48512 -1.38102 0
M  V30 7449 C 739.151 -0.121686 -1.93818 0
M  V30 7450 O 738.426 0.862256 -1.74343 0
M  V30 7451 C 738.709 -2.55469 -2.53787 0
M  V30 7452 C 738.562 -4.01212 -2.03345 0
M  V30 7453 C 739.881 -2.58821 -3.55949 0
M  V30 7454 H 737 -0.540712 -0.500799 0
M  V30 7455 H 739.642 -1.7665 -0.69962 0
M  V30 7456 H 737.792 -2.31606 -3.11915 0
M  V30 7457 H 739.464 -4.36245 -1.49959 0
M  V30 7458 H 737.707 -4.12443 -1.34438 0
M  V30 7459 H 738.378 -4.71717 -2.86683 0
M  V30 7460 H 740.854 -2.80172 -3.07641 0
M  V30 7461 H 739.73 -3.35542 -4.34399 0
M  V30 7462 H 739.991 -1.63451 -4.10775 0
M  V30 7463 N 739.05 0.861098 -1.31996 0
M  V30 7464 C 740.466 1.14827 -1.10846 0
M  V30 7465 C 740.666 2.0117 0.11528 0
M  V30 7466 O 739.722 2.39423 0.802048 0
M  V30 7467 C 741.035 1.83183 -2.38462 0
M  V30 7468 C 742.583 1.95847 -2.44158 0
M  V30 7469 C 743.058 2.67617 -3.71679 0
M  V30 7470 N 744.549 2.75147 -3.72624 0
M  V30 7471 C 745.284 3.31314 -4.67994 0
M  V30 7472 N 744.78 3.88343 -5.73726 0
M  V30 7473 N 746.573 3.29356 -4.55501 0
M  V30 7474 H 738.724 0.285951 -2.10466 0
M  V30 7475 H 740.987 0.189303 -0.928907 0
M  V30 7476 H 740.693 1.27193 -3.27895 0
M  V30 7477 H 740.567 2.83393 -2.48935 0
M  V30 7478 H 742.954 2.50999 -1.55189 0
M  V30 7479 H 743.035 0.94653 -2.37644 0
M  V30 7480 H 742.679 2.13131 -4.61018 0
M  V30 7481 H 742.609 3.69237 -3.75462 0
M  V30 7482 H 745.1 2.34682 -2.96197 0
M  V30 7483 H 745.413 4.29338 -6.42564 0
M  V30 7484 H 743.758 3.86693 -5.77489 0
M  V30 7485 H 746.949 2.84047 -3.72069 0
M  V30 7486 H 747.122 3.7283 -5.30001 0
M  V30 7487 N 740.528 1.15101 1.07655 0
M  V30 7488 C 741.458 0.867864 2.16773 0
M  V30 7489 C 742.439 -0.180283 1.69142 0
M  V30 7490 O 743.624 -0.0353152 1.94168 0
M  V30 7491 C 740.754 0.35299 3.45501 0
M  V30 7492 C 739.708 1.33746 4.06566 0
M  V30 7493 C 739.034 0.681562 5.30338 0
M  V30 7494 C 740.334 2.7024 4.46954 0
M  V30 7495 H 742.028 1.78034 2.40716 0
M  V30 7496 H 739.574 0.857435 1.15689 0
M  V30 7497 H 741.527 0.142465 4.21159 0
M  V30 7498 H 740.251 -0.594945 3.21135 0
M  V30 7499 H 738.91 1.53429 3.32949 0
M  V30 7500 H 738.558 -0.272422 5.02262 0
M  V30 7501 H 738.258 1.33853 5.72151 0
M  V30 7502 H 739.782 0.48074 6.08705 0
M  V30 7503 H 741.196 2.5442 5.13754 0
M  V30 7504 H 739.593 3.32282 4.99709 0
M  V30 7505 H 740.663 3.26537 3.58471 0
M  V30 7506 N 742.006 -1.2595 0.947325 0
M  V30 7507 C 742.938 -2.25336 0.41906 0
M  V30 7508 C 743.951 -1.56135 -0.461051 0
M  V30 7509 O 745.14 -1.76438 -0.270505 0
M  V30 7510 C 742.24 -3.36334 -0.416233 0
M  V30 7511 C 741.413 -4.35088 0.449162 0
M  V30 7512 C 740.472 -5.25185 -0.326716 0
M  V30 7513 O 739.498 -5.68548 0.272374 0
M  V30 7514 N 740.7 -5.57388 -1.6217 0
M  V30 7515 H 743.465 -2.71298 1.27348 0
M  V30 7516 H 741.026 -1.39781 0.81688 0
M  V30 7517 H 743.018 -3.93564 -0.942826 0
M  V30 7518 H 741.588 -2.89819 -1.17148 0
M  V30 7519 H 740.808 -3.76841 1.15692 0
M  V30 7520 H 742.096 -4.98056 1.04008 0
M  V30 7521 H 741.494 -5.2405 -2.13046 0
M  V30 7522 H 740.051 -6.17234 -2.0944 0
M  V30 7523 N 743.484 -0.715051 -1.40445 0
M  V30 7524 C 744.73 -0.254705 -2.01194 0
M  V30 7525 C 745.063 1.14894 -1.56567 0
M  V30 7526 O 744.338 1.77933 -0.785491 0
M  V30 7527 C 744.621 -0.334148 -3.58546 0
M  V30 7528 C 744.474 -1.77613 -4.13248 0
M  V30 7529 C 745.793 0.294968 -4.3911 0
M  V30 7530 H 742.912 -0.094025 -0.730978 0
M  V30 7531 H 745.554 -0.907449 -1.66929 0
M  V30 7532 H 743.704 0.221609 -3.87867 0
M  V30 7533 H 745.376 -2.38723 -3.94727 0
M  V30 7534 H 743.619 -2.30402 -3.67556 0
M  V30 7535 H 744.29 -1.78311 -5.22407 0
M  V30 7536 H 746.766 -0.178563 -4.15717 0
M  V30 7537 H 745.642 0.208934 -5.48502 0
M  V30 7538 H 745.903 1.37841 -4.20062 0
M  V30 7539 N 744.962 1.50701 -0.461195 0
M  V30 7540 C 745.894 2.26124 0.374244 0
M  V30 7541 C 746.907 1.31064 0.965715 0
M  V30 7542 O 748.096 1.56647 0.855801 0
M  V30 7543 C 745.196 3.01996 1.5379 0
M  V30 7544 C 744.369 4.24336 1.06101 0
M  V30 7545 C 743.428 4.82585 2.09756 0
M  V30 7546 O 742.454 5.43775 1.68219 0
M  V30 7547 N 743.656 4.68712 3.42475 0
M  V30 7548 H 746.421 2.9846 -0.2723 0
M  V30 7549 H 743.982 1.59256 -0.291415 0
M  V30 7550 H 745.974 3.37846 2.22806 0
M  V30 7551 H 744.544 2.32521 2.08933 0
M  V30 7552 H 743.764 3.93707 0.197085 0
M  V30 7553 H 745.052 5.03678 0.720156 0
M  V30 7554 H 744.45 4.20026 3.78938 0
M  V30 7555 H 743.007 5.08858 4.07317 0
M  V30 7556 N 746.441 0.193421 1.56409 0
M  V30 7557 C 747.371 -0.723334 2.22014 0
M  V30 7558 C 748.352 -1.22254 1.1827 0
M  V30 7559 O 749.537 -1.27168 1.46771 0
M  V30 7560 C 746.667 -1.94366 2.87818 0
M  V30 7561 C 745.621 -1.57943 3.97791 0
M  V30 7562 C 744.947 -2.87623 4.50752 0
M  V30 7563 C 746.247 -0.790639 5.16281 0
M  V30 7564 H 747.941 -0.176426 2.9888 0
M  V30 7565 H 745.487 -0.0834166 1.43758 0
M  V30 7566 H 747.44 -2.5902 3.32396 0
M  V30 7567 H 746.164 -2.51507 2.08355 0
M  V30 7568 H 744.823 -0.956482 3.53903 0
M  V30 7569 H 744.471 -3.4285 3.68053 0
M  V30 7570 H 744.171 -2.63998 5.24956 0
M  V30 7571 H 745.695 -3.53268 4.9803 0
M  V30 7572 H 747.109 -1.34024 5.57414 0
M  V30 7573 H 745.506 -0.65258 5.96541 0
M  V30 7574 H 746.576 0.208633 4.84451 0
M  V30 7575 N 747.919 -1.57396 -0.0801906 0
M  V30 7576 C 748.882 -2.02133 -1.0805 0
M  V30 7577 C 749.882 -0.91707 -1.32085 0
M  V30 7578 O 751.072 -1.18217 -1.27947 0
M  V30 7579 C 748.204 -2.39479 -2.42616 0
M  V30 7580 H 749.397 -2.91733 -0.6951 0
M  V30 7581 H 746.95 -1.52869 -0.325677 0
M  V30 7582 H 747.685 -1.52879 -2.86004 0
M  V30 7583 H 747.47 -3.20052 -2.26515 0
M  V30 7584 H 748.96 -2.74697 -3.14534 0
M  V30 7585 N 749.397 0.351382 -1.53633 0
M  V30 7586 C 750.808 0.927429 -1.62036 0
M  V30 7587 C 751.159 1.89809 -0.496706 0
M  V30 7588 O 750.284 2.1313 0.374749 0
M  V30 7589 C 750.879 1.68886 -2.93706 0
M  V30 7590 C 749.438 2.21404 -3.04397 0
M  V30 7591 C 748.585 1.03075 -2.57431 0
M  V30 7592 H 751.536 0.129748 -1.58169 0
M  V30 7593 H 751.557 2.55116 -2.82305 0
M  V30 7594 H 751.069 0.982149 -3.75467 0
M  V30 7595 H 749.17 2.95274 -2.27253 0
M  V30 7596 H 749.283 2.48312 -4.09729 0
M  V30 7597 H 747.647 1.40188 -2.12649 0
M  V30 7598 H 748.43 0.338793 -3.41624 0
M  V30 7599 N 750.875 1.45233 0.611969 0
M  V30 7600 C 752.121 1.49242 1.37312 0
M  V30 7601 C 752.454 0.131963 1.93751 0
M  V30 7602 O 751.729 -0.852999 1.74798 0
M  V30 7603 C 752.012 2.56811 2.52428 0
M  V30 7604 C 751.865 4.02284 2.01215 0
M  V30 7605 C 753.184 2.60705 3.54572 0
M  V30 7606 H 750.303 0.54336 0.497925 0
M  V30 7607 H 752.945 1.77019 0.690242 0
M  V30 7608 H 751.095 2.33256 3.10683 0
M  V30 7609 H 752.767 4.37035 1.47643 0
M  V30 7610 H 751.01 4.1315 1.32248 0
M  V30 7611 H 751.681 4.7323 2.84178 0
M  V30 7612 H 754.157 2.81799 3.06151 0
M  V30 7613 H 753.033 3.37841 4.32614 0
M  V30 7614 H 753.294 1.65627 4.09903 0
M  V30 7615 N 752.353 -0.854086 1.3245 0
M  V30 7616 C 753.286 -1.96654 1.15768 0
M  V30 7617 C 754.264 -1.625 0.0569975 0
M  V30 7618 O 755.448 -1.87254 0.216412 0
M  V30 7619 C 752.575 -3.29776 0.772361 0
M  V30 7620 C 751.621 -3.82909 1.87837 0
M  V30 7621 S 752.454 -4.0643 3.48675 0
M  V30 7622 C 753.61 -5.42526 3.12116 0
M  V30 7623 H 753.843 -2.10504 2.09942 0
M  V30 7624 H 751.376 -1.00612 1.17118 0
M  V30 7625 H 753.334 -4.06706 0.556809 0
M  V30 7626 H 751.995 -3.13739 -0.150519 0
M  V30 7627 H 751.188 -4.79192 1.56177 0
M  V30 7628 H 750.79 -3.12825 2.0498 0
M  V30 7629 H 753.082 -6.24792 2.61996 0
M  V30 7630 H 754.025 -5.79148 4.07422 0
M  V30 7631 H 754.433 -5.06556 2.49121 0
M  V30 7632 N 753.831 -1.1567 -1.07043 0
M  V30 7633 C 754.763 -0.814095 -2.14255 0
M  V30 7634 C 755.776 0.175293 -1.61854 0
M  V30 7635 O 756.965 -0.0483984 -1.78434 0
M  V30 7636 C 754.065 -0.190082 -3.38367 0
M  V30 7637 C 753.238 -1.21768 -4.20109 0
M  V30 7638 C 752.297 -0.614863 -5.22595 0
M  V30 7639 O 751.323 -1.28167 -5.54583 0
M  V30 7640 N 752.525 0.601955 -5.77371 0
M  V30 7641 H 755.29 -1.73677 -2.44247 0
M  V30 7642 H 752.851 -1.05301 -1.22977 0
M  V30 7643 H 754.843 0.22604 -4.04068 0
M  V30 7644 H 753.413 0.635992 -3.06062 0
M  V30 7645 H 752.633 -1.81025 -3.50177 0
M  V30 7646 H 753.921 -1.9114 -4.71533 0
M  V30 7647 H 753.319 1.162 -5.53637 0
M  V30 7648 H 751.876 0.96039 -6.44686 0
M  V30 7649 N 755.309 1.25446 -0.953992 0
M  V30 7650 C 756.239 2.28264 -0.491717 0
M  V30 7651 C 757.22 1.63717 0.461617 0
M  V30 7652 O 758.405 1.90821 0.36071 0
M  V30 7653 C 755.535 3.46525 0.231915 0
M  V30 7654 C 754.489 4.23247 -0.636098 0
M  V30 7655 C 753.815 5.34254 0.218238 0
M  V30 7656 C 755.115 4.85971 -1.91389 0
M  V30 7657 H 756.809 2.67183 -1.35106 0
M  V30 7658 H 754.355 1.2844 -0.651095 0
M  V30 7659 H 756.308 4.17576 0.566439 0
M  V30 7660 H 755.032 3.06594 1.12551 0
M  V30 7661 H 753.691 3.53978 -0.953696 0
M  V30 7662 H 753.339 4.90564 1.11156 0
M  V30 7663 H 753.039 5.86501 -0.359232 0
M  V30 7664 H 754.563 6.08138 0.547743 0
M  V30 7665 H 755.977 5.49168 -1.64581 0
M  V30 7666 H 754.374 5.48391 -2.43696 0
M  V30 7667 H 755.444 4.08192 -2.61738 0
M  V30 7668 N 756.787 0.722489 1.40064 0
M  V30 7669 C 758.034 0.264979 2.00759 0
M  V30 7670 C 758.362 -1.14395 1.57302 0
M  V30 7671 O 757.617 -1.79165 0.787298 0
M  V30 7672 C 757.916 0.300682 3.56133 0
M  V30 7673 C 757.582 1.66087 4.19197 0
M  V30 7674 C 756.244 2.03319 4.36136 0
M  V30 7675 C 758.596 2.55452 4.54306 0
M  V30 7676 C 755.924 3.29448 4.8547 0
M  V30 7677 C 758.276 3.8094 5.05042 0
M  V30 7678 C 756.94 4.1828 5.2019 0
M  V30 7679 H 756.21 0.0969625 0.734629 0
M  V30 7680 H 758.857 0.926877 1.67575 0
M  V30 7681 H 757.162 -0.44479 3.89267 0
M  V30 7682 H 758.859 -0.0712542 4.00937 0
M  V30 7683 H 755.449 1.36137 4.06405 0
M  V30 7684 H 759.633 2.27961 4.40849 0
M  V30 7685 H 754.889 3.58338 4.95382 0
M  V30 7686 H 759.063 4.50351 5.31184 0
M  V30 7687 H 756.69 5.16081 5.58179 0
M  V30 7688 N 758.265 -1.50454 0.469181 0
M  V30 7689 C 759.511 -2.02615 -0.0865971 0
M  V30 7690 C 759.844 -1.35062 -1.39542 0
M  V30 7691 O 759.119 -0.475701 -1.88593 0
M  V30 7692 C 759.402 -3.59068 -0.272385 0
M  V30 7693 C 759.255 -4.37196 1.05733 0
M  V30 7694 C 760.574 -4.2793 -1.0278 0
M  V30 7695 H 757.693 -0.736389 -0.0299977 0
M  V30 7696 H 760.335 -1.79792 0.614399 0
M  V30 7697 H 758.485 -3.78646 -0.869471 0
M  V30 7698 H 760.157 -4.29195 1.69084 0
M  V30 7699 H 758.4 -4.01013 1.65442 0
M  V30 7700 H 759.071 -5.44924 0.880997 0
M  V30 7701 H 761.547 -4.12816 -0.521718 0
M  V30 7702 H 760.423 -5.37214 -1.12659 0
M  V30 7703 H 760.684 -3.90968 -2.0639 0
M  V30 7704 N 759.743 -0.201713 -1.56304 0
M  V30 7705 C 760.971 0.440723 -2.02152 0
M  V30 7706 C 761.386 1.54735 -1.08179 0
M  V30 7707 O 760.743 1.82289 -0.0878196 0
M  V30 7708 C 760.794 0.990884 -3.47655 0
M  V30 7709 O 760.515 -0.0715937 -4.38041 0
M  V30 7710 C 762.016 1.70854 -4.09052 0
M  V30 7711 H 759.236 0.109987 -0.661924 0
M  V30 7712 H 761.78 -0.312358 -2.021 0
M  V30 7713 H 759.935 1.69432 -3.48384 0
M  V30 7714 H 760.349 0.338892 -5.23404 0
M  V30 7715 H 761.823 2.04572 -5.12693 0
M  V30 7716 H 762.3 2.61462 -3.52894 0
M  V30 7717 H 762.906 1.0508 -4.12114 0
M  V30 7718 N 761.222 1.57436 0.0718424 0
M  V30 7719 C 762.152 2.06724 1.08571 0
M  V30 7720 C 763.133 0.960731 1.40371 0
M  V30 7721 O 764.318 1.23345 1.49999 0
M  V30 7722 C 761.448 2.51112 2.39916 0
M  V30 7723 C 760.402 3.65639 2.22469 0
M  V30 7724 C 759.728 3.96082 3.59198 0
M  V30 7725 C 761.028 4.95687 1.64596 0
M  V30 7726 H 762.722 2.91679 0.675569 0
M  V30 7727 H 760.268 1.40319 0.32352 0
M  V30 7728 H 762.221 2.84206 3.11135 0
M  V30 7729 H 760.945 1.63186 2.8291 0
M  V30 7730 H 759.604 3.32828 1.53691 0
M  V30 7731 H 759.252 3.05287 3.99761 0
M  V30 7732 H 758.952 4.73199 3.48362 0
M  V30 7733 H 760.476 4.31672 4.31847 0
M  V30 7734 H 761.89 5.27011 2.25681 0
M  V30 7735 H 760.287 5.77126 1.64457 0
M  V30 7736 H 761.357 4.8108 0.60744 0
M  V30 7737 N 762.7 -0.34323 1.53817 0
M  V30 7738 C 763.977 -1.10047 1.61706 0
M  V30 7739 C 764.357 -2.06495 0.438514 0
M  V30 7740 O 763.705 -2.21297 -0.569188 0
M  V30 7741 C 763.915 -1.81985 2.97796 0
M  V30 7742 C 765.263 -2.35717 3.53161 0
M  V30 7743 O 766.287 -1.9208 2.99973 0
M  V30 7744 O 765.146 -3.15551 4.46195 0
M  V30 7745 H 762.24 -0.506096 0.654061 0
M  V30 7746 H 764.786 -0.344697 1.66162 0
M  V30 7747 H 763.558 -1.11722 3.75012 0
M  V30 7748 H 763.181 -2.64419 2.96931 0
M  V30 7749 N 764.178 -1.45556 -0.604258 0
M  V30 7750 C 765.11 -1.50494 -1.72871 0
M  V30 7751 C 766.123 -0.395368 -1.57926 0
M  V30 7752 O 767.312 -0.662603 -1.65746 0
M  V30 7753 C 764.412 -1.34874 -3.10906 0
M  V30 7754 C 763.585 -2.59564 -3.52058 0
M  V30 7755 C 762.644 -2.38453 -4.6907 0
M  V30 7756 O 761.67 -3.12082 -4.76018 0
M  V30 7757 N 762.872 -1.43229 -5.62553 0
M  V30 7758 H 765.637 -2.4744 -1.69097 0
M  V30 7759 H 763.198 -1.41338 -0.789636 0
M  V30 7760 H 765.19 -1.18556 -3.86945 0
M  V30 7761 H 763.76 -0.461913 -3.09168 0
M  V30 7762 H 762.98 -2.90974 -2.65946 0
M  V30 7763 H 764.268 -3.42441 -3.76313 0
M  V30 7764 H 763.666 -0.824714 -5.59656 0
M  V30 7765 H 762.223 -1.32882 -6.38111 0
M  V30 7766 N 765.656 0.84705 -1.32902 0
M  V30 7767 C 766.619 1.9378 -1.224 0
M  V30 7768 C 767.619 1.60144 -0.145108 0
M  V30 7769 O 768.809 1.69638 -0.396058 0
M  V30 7770 C 765.941 3.29234 -0.884174 0
M  V30 7771 H 767.134 2.04518 -2.19345 0
M  V30 7772 H 764.687 1.03816 -1.16842 0
M  V30 7773 H 765.422 3.24193 0.0831277 0
M  V30 7774 H 765.207 3.55026 -1.6643 0
M  V30 7775 H 766.697 4.09162 -0.835226 0
M  V30 7776 N 767.134 1.16236 1.06428 0
M  V30 7777 C 768.359 0.967688 1.83441 0
M  V30 7778 C 768.784 -0.479167 1.81894 0
M  V30 7779 O 768.142 -1.34224 1.21875 0
M  V30 7780 C 768.19 1.49806 3.2801 0
M  V30 7781 O 767.294 0.703481 4.06356 0
M  V30 7782 H 766.635 0.344468 0.56766 0
M  V30 7783 H 769.165 1.54442 1.34197 0
M  V30 7784 H 769.175 1.51495 3.78831 0
M  V30 7785 H 767.85 2.55133 3.2845 0
M  V30 7786 H 766.427 0.756986 3.65136 0
M  V30 7787 N 768.612 -1.24939 0.960631 0
M  V30 7788 C 769.544 -2.24879 0.442937 0
M  V30 7789 C 770.557 -1.56615 -0.444464 0
M  V30 7790 O 771.746 -1.76715 -0.251776 0
M  V30 7791 C 768.846 -3.36757 -0.380537 0
M  V30 7792 C 768.019 -4.34587 0.495283 0
M  V30 7793 C 767.078 -5.25502 -0.270995 0
M  V30 7794 O 766.104 -5.68227 0.332661 0
M  V30 7795 N 767.306 -5.59077 -1.56249 0
M  V30 7796 H 770.071 -2.69932 1.30218 0
M  V30 7797 H 767.632 -1.38907 0.83166 0
M  V30 7798 H 769.624 -3.94542 -0.90103 0
M  V30 7799 H 768.194 -2.91045 -1.14067 0
M  V30 7800 H 767.414 -3.75593 1.19682 0
M  V30 7801 H 768.702 -4.96925 1.09285 0
M  V30 7802 H 768.1 -5.2628 -2.07476 0
M  V30 7803 H 766.657 -6.19421 -2.02882 0
M  V30 7804 N 770.09 -0.729906 -1.39679 0
M  V30 7805 C 771.338 -0.275077 -2.00219 0
M  V30 7806 C 771.659 1.1401 -1.58199 0
M  V30 7807 O 770.929 1.77546 -0.827904 0
M  V30 7808 H 769.509 -0.0987127 -0.740449 0
M  V30 7809 H 772.171 -0.93873 -1.70804 0
M  V30 7810 H 771.267 -0.319446 -3.10461 0
M  V30 7811 N 771.568 1.50203 -0.477153 0
M  V30 7812 C 772.5 2.26508 0.350239 0
M  V30 7813 C 773.513 1.32081 0.95176 0
M  V30 7814 O 774.702 1.57546 0.839139 0
M  V30 7815 C 771.802 3.0361 1.50579 0
M  V30 7816 C 770.975 4.25438 1.01595 0
M  V30 7817 C 770.034 4.84783 2.04626 0
M  V30 7818 O 769.06 5.45528 1.62442 0
M  V30 7819 N 770.262 4.72318 3.37485 0
M  V30 7820 H 773.027 2.98155 -0.30394 0
M  V30 7821 H 770.588 1.58938 -0.308289 0
M  V30 7822 H 772.58 3.4019 2.1921 0
M  V30 7823 H 771.15 2.34724 2.06455 0
M  V30 7824 H 770.37 3.93894 0.155316 0
M  V30 7825 H 771.658 5.04413 0.666694 0
M  V30 7826 H 771.056 4.24022 3.74462 0
M  V30 7827 H 769.613 5.13149 4.01897 0
M  V30 7828 N 773.046 0.209999 1.56195 0
M  V30 7829 C 774.292 -0.425442 1.98287 0
M  V30 7830 C 774.625 -1.60232 1.09724 0
M  V30 7831 O 773.9 -1.93902 0.152414 0
M  V30 7832 C 774.183 -0.871189 3.49403 0
M  V30 7833 C 774.036 0.308527 4.48741 0
M  V30 7834 C 775.355 -1.73146 4.04609 0
M  V30 7835 H 772.474 -0.153169 0.720908 0
M  V30 7836 H 775.116 0.303916 1.87554 0
M  V30 7837 H 773.266 -1.49266 3.58681 0
M  V30 7838 H 774.938 0.946487 4.51486 0
M  V30 7839 H 773.181 0.957878 4.23092 0
M  V30 7840 H 773.852 -0.0461143 5.51981 0
M  V30 7841 H 776.328 -1.2072 3.98203 0
M  V30 7842 H 775.204 -2.01228 5.10684 0
M  V30 7843 H 775.465 -2.69083 3.5078 0
M  V30 7844 N 774.524 -1.57472 -0.0634922 0
M  V30 7845 C 775.456 -2.00999 -1.10145 0
M  V30 7846 C 776.469 -0.917219 -1.34503 0
M  V30 7847 O 777.658 -1.19501 -1.32596 0
M  V30 7848 C 774.758 -2.34089 -2.45063 0
M  V30 7849 C 773.931 -3.65317 -2.40546 0
M  V30 7850 C 772.99 -3.85982 -3.57637 0
M  V30 7851 O 772.016 -4.5747 -3.38689 0
M  V30 7852 N 773.218 -3.28971 -4.78287 0
M  V30 7853 H 775.983 -2.90656 -0.730714 0
M  V30 7854 H 773.544 -1.59926 -0.252017 0
M  V30 7855 H 775.536 -2.4508 -3.22053 0
M  V30 7856 H 774.106 -1.50279 -2.74107 0
M  V30 7857 H 773.326 -3.65003 -1.48885 0
M  V30 7858 H 774.614 -4.51468 -2.34636 0
M  V30 7859 H 774.012 -2.70962 -4.96584 0
M  V30 7860 H 772.569 -3.45398 -5.5276 0
M  V30 7861 N 776.003 0.335068 -1.53997 0
M  V30 7862 C 777.251 1.07223 -1.71312 0
M  V30 7863 C 777.572 1.88911 -0.483486 0
M  V30 7864 O 776.842 1.89344 0.50257 0
M  V30 7865 H 775.422 0.398846 -0.63161 0
M  V30 7866 H 778.084 0.374288 -1.91272 0
M  V30 7867 H 777.18 1.7448 -2.58772 0
M  V30 7868 N 777.481 1.45874 0.596531 0
M  V30 7869 C 778.411 1.5824 1.71705 0
M  V30 7870 C 779.392 0.433366 1.64487 0
M  V30 7871 O 780.577 0.657895 1.82717 0
M  V30 7872 C 777.707 1.55927 3.10329 0
M  V30 7873 C 776.661 2.69659 3.32367 0
M  V30 7874 C 775.987 2.52403 4.71377 0
M  V30 7875 C 777.287 4.11591 3.21544 0
M  V30 7876 H 778.981 2.52035 1.61613 0
M  V30 7877 H 776.527 1.21297 0.776082 0
M  V30 7878 H 778.48 1.63173 3.88526 0
M  V30 7879 H 777.204 0.586674 3.21288 0
M  V30 7880 H 775.863 2.61859 2.56564 0
M  V30 7881 H 775.511 1.53258 4.79083 0
M  V30 7882 H 775.211 3.28679 4.87077 0
M  V30 7883 H 776.735 2.6152 5.5176 0
M  V30 7884 H 778.149 4.20576 3.89601 0
M  V30 7885 H 776.546 4.88344 3.4877 0
M  V30 7886 H 777.616 4.32719 2.1882 0
M  V30 7887 N 778.959 -0.83999 1.33349 0
M  V30 7888 C 780.199 -1.60888 1.26073 0
M  V30 7889 C 780.563 -1.91234 -0.17129 0
M  V30 7890 O 781.764 -2.66269 -0.36799 0
M  V30 7891 C 780.035 -2.88438 2.11042 0
M  V30 7892 S 781.594 -3.79116 2.20944 0
M  V30 7893 H 778.412 -0.55166 0.448545 0
M  V30 7894 H 781.014 -0.99359 1.68369 0
M  V30 7895 H 779.718 -2.64113 3.14121 0
M  V30 7896 H 779.249 -3.54974 1.69579 0
M  V30 7897 H 781.264 -4.76921 1.36969 0
M  V30 7898 N 780.437 -1.16799 -1.0581 0
M  V30 7899 C 781.685 -0.950642 -1.78346 0
M  V30 7900 C 782.006 0.522524 -1.87869 0
M  V30 7901 O 781.276 1.3795 -1.39092 0
M  V30 7902 H 779.856 -0.348736 -0.6606 0
M  V30 7903 H 782.518 -1.47158 -1.27791 0
M  V30 7904 H 781.614 -1.37359 -2.80248 0
M  V30 7905 N 781.915 1.24427 -0.967243 0
M  V30 7906 C 782.863 2.27403 -0.488927 0
M  V30 7907 C 783.857 1.63388 0.447302 0
M  V30 7908 O 785.063 1.77085 0.322643 0
M  V30 7909 H 781.438 0.738921 -0.139643 0
M  V30 7910 H 783.409 2.65122 -1.36942 0
M  V30 7911 C 782.158 3.4709 0.205787 0
M  V30 7912 H 781.481 3.96591 -0.50551 0
M  V30 7913 H 782.921 4.2099 0.504296 0
M  V30 7914 C 781.38 3.04923 1.43261 0
M  V30 7915 O 781.91 3.12043 2.52967 0
M  V30 7916 N 780.116 2.59976 1.29849 0
M  V30 7917 H 779.663 2.54382 0.405876 0
M  V30 7918 H 779.621 2.32128 2.12047 0
M  V30 7919 N 783.393 0.737304 1.3929 0
M  V30 7920 C 784.64 0.286257 2.00467 0
M  V30 7921 C 784.968 -1.1272 1.58507 0
M  V30 7922 O 784.223 -1.7832 0.806257 0
M  V30 7923 C 784.522 0.338438 3.55794 0
M  V30 7924 C 784.188 1.70524 4.17411 0
M  V30 7925 C 782.85 2.07934 4.33955 0
M  V30 7926 C 785.202 2.60256 4.51571 0
M  V30 7927 C 782.53 3.34578 4.81948 0
M  V30 7928 C 784.882 3.86275 5.00974 0
M  V30 7929 C 783.546 4.23774 5.15725 0
M  V30 7930 H 782.816 0.104749 0.733559 0
M  V30 7931 H 785.463 0.944598 1.66582 0
M  V30 7932 H 783.768 -0.403478 3.89717 0
M  V30 7933 H 785.465 -0.0287255 4.0099 0
M  V30 7934 H 782.055 1.40439 4.04938 0
M  V30 7935 H 786.239 2.32624 4.38406 0
M  V30 7936 H 781.495 3.63572 4.91554 0
M  V30 7937 H 785.669 4.5596 5.26378 0
M  V30 7938 H 783.296 5.21972 5.52674 0
M  V30 7939 N 784.871 -1.49948 0.485112 0
M  V30 7940 C 785.819 -2.30449 -0.315609 0
M  V30 7941 C 786.813 -1.38351 -0.977516 0
M  V30 7942 O 788.019 -1.55477 -0.907019 0
M  V30 7943 H 784.394 -0.742262 -0.120629 0
M  V30 7944 H 786.365 -2.95925 0.383552 0
M  V30 7945 C 785.114 -3.19283 -1.37673 0
M  V30 7946 H 784.437 -3.90067 -0.876801 0
M  V30 7947 H 785.877 -3.78579 -1.90929 0
M  V30 7948 C 784.336 -2.37817 -2.38631 0
M  V30 7949 O 784.866 -2.0711 -3.44192 0
M  V30 7950 N 783.072 -2.00135 -2.107 0
M  V30 7951 H 782.619 -2.25307 -1.24878 0
M  V30 7952 H 782.577 -1.45933 -2.7848 0
M  V30 7953 N 786.349 -0.21828 -1.56081 0
M  V30 7954 C 787.597 0.413488 -1.97825 0
M  V30 7955 C 787.918 1.60527 -1.10707 0
M  V30 7956 O 787.188 1.9504 -0.183378 0
M  V30 7957 H 785.768 0.155757 -0.730581 0
M  V30 7958 H 788.43 -0.310413 -1.92412 0
M  V30 7959 H 787.526 0.742024 -3.03151 0
M  V30 7960 N 787.827 1.57504 0.0551401 0
M  V30 7961 C 788.757 2.07864 1.06372 0
M  V30 7962 C 789.738 0.975565 1.39344 0
M  V30 7963 O 790.923 1.24929 1.48682 0
M  V30 7964 C 788.053 2.53643 2.3724 0
M  V30 7965 C 787.007 3.67978 2.18578 0
M  V30 7966 C 786.333 3.9987 3.54976 0
M  V30 7967 C 787.633 4.97405 1.59329 0
M  V30 7968 H 789.327 2.92379 0.644595 0
M  V30 7969 H 786.873 1.40654 0.308619 0
M  V30 7970 H 788.826 2.8749 3.08103 0
M  V30 7971 H 787.55 1.66177 2.81163 0
M  V30 7972 H 786.209 3.3444 1.50152 0
M  V30 7973 H 785.857 3.0951 3.965 0
M  V30 7974 H 785.557 4.76867 3.43324 0
M  V30 7975 H 787.081 4.36228 4.27244 0
M  V30 7976 H 788.495 5.29375 2.20078 0
M  V30 7977 H 786.892 5.78837 1.58327 0
M  V30 7978 H 787.962 4.81697 0.55638 0
M  V30 7979 N 789.305 -0.326896 1.54172 0
M  V30 7980 C 790.215 -1.42525 1.86343 0
M  V30 7981 C 791.231 -1.56764 0.75505 0
M  V30 7982 O 792.407 -1.71924 1.04901 0
M  V30 7983 C 789.472 -2.77286 2.08119 0
M  V30 7984 C 788.533 -2.7225 3.31931 0
M  V30 7985 C 787.766 -4.00584 3.52659 0
M  V30 7986 O 787.989 -4.98686 2.76891 0
M  V30 7987 O 786.923 -4.04045 4.46129 0
M  V30 7988 H 790.749 -1.18249 2.79734 0
M  V30 7989 H 788.334 -0.520614 1.40036 0
M  V30 7990 H 790.216 -3.57065 2.23791 0
M  V30 7991 H 788.891 -3.01459 1.17917 0
M  V30 7992 H 787.798 -1.91033 3.21647 0
M  V30 7993 H 789.131 -2.53032 4.2218 0
M  V30 7994 N 790.784 -1.46188 -0.588786 0
M  V30 7995 C 792.032 -1.50885 -1.34455 0
M  V30 7996 C 792.353 -0.159555 -1.94346 0
M  V30 7997 O 791.623 0.813239 -1.78222 0
M  V30 7998 H 790.203 -0.555707 -0.499198 0
M  V30 7999 H 792.865 -1.82277 -0.690014 0
M  V30 8000 H 791.961 -2.25816 -2.15438 0
M  V30 8001 N 792.262 0.832906 -1.33792 0
M  V30 8002 C 793.539 1.57359 -1.16178 0
M  V30 8003 C 793.919 2.09372 0.269532 0
M  V30 8004 O 793.267 1.89993 1.26944 0
M  V30 8005 C 793.477 2.70279 -2.20795 0
M  V30 8006 C 794.825 3.39305 -2.55259 0
M  V30 8007 O 795.849 2.80526 -2.19508 0
M  V30 8008 O 794.708 4.45428 -3.16632 0
M  V30 8009 H 791.802 0.694025 -0.449731 0
M  V30 8010 H 794.348 0.875144 -1.45394 0
M  V30 8011 H 793.12 2.29527 -3.16911 0
M  V30 8012 H 792.743 3.47782 -1.927 0
M  V30 8013 N 793.74 1.17359 1.05189 0
M  V30 8014 C 795.017 0.871914 1.75091 0
M  V30 8015 C 795.397 -0.627821 2.01548 0
M  V30 8016 O 794.745 -1.5791 1.65156 0
M  V30 8017 C 794.955 1.70687 3.04413 0
M  V30 8018 C 796.303 1.92684 3.78362 0
M  V30 8019 O 797.327 1.67645 3.14282 0
M  V30 8020 O 796.186 2.34765 4.93505 0
M  V30 8021 H 793.28 0.322831 0.761386 0
M  V30 8022 H 795.826 1.28054 1.11357 0
M  V30 8023 H 794.598 2.72405 2.80911 0
M  V30 8024 H 794.221 1.29602 3.75884 0
M  V30 8025 N 795.218 -1.23913 0.973828 0
M  V30 8026 C 796.465 -1.92151 0.639079 0
M  V30 8027 C 796.793 -1.76064 -0.826545 0
M  V30 8028 O 796.048 -1.11126 -1.61088 0
M  V30 8029 C 796.347 -3.4406 0.967356 0
M  V30 8030 C 796.013 -3.80321 2.42212 0
M  V30 8031 C 794.675 -3.8993 2.81971 0
M  V30 8032 C 797.027 -3.97935 3.36596 0
M  V30 8033 C 794.355 -4.14575 4.15144 0
M  V30 8034 C 796.707 -4.24079 4.69404 0
M  V30 8035 C 795.371 -4.31908 5.08932 0
M  V30 8036 H 794.641 -0.70313 0.233856 0
M  V30 8037 H 797.288 -1.47072 1.22646 0
M  V30 8038 H 795.593 -3.90667 0.297807 0
M  V30 8039 H 797.29 -3.95077 0.686654 0
M  V30 8040 H 793.88 -3.73411 2.10385 0
M  V30 8041 H 798.064 -3.89908 3.07059 0
M  V30 8042 H 793.32 -4.18858 4.45385 0
M  V30 8043 H 797.494 -4.36652 5.42502 0
M  V30 8044 H 795.121 -4.50758 6.12145 0
M  V30 8045 N 796.696 -0.74468 -1.38897 0
M  V30 8046 C 797.643 -0.111064 -2.30533 0
M  V30 8047 C 798.613 0.719276 -1.49719 0
M  V30 8048 O 799.798 0.677244 -1.78376 0
M  V30 8049 C 796.938 0.78292 -3.36102 0
M  V30 8050 C 796.051 -0.0610817 -4.31957 0
M  V30 8051 C 795.186 0.835075 -5.24595 0
M  V30 8052 C 794.225 -0.0130974 -6.12099 0
M  V30 8053 N 793.362 0.839525 -6.97063 0
M  V30 8054 H 798.202 -0.898113 -2.84144 0
M  V30 8055 H 795.739 -0.454537 -1.39901 0
M  V30 8056 H 797.697 1.31578 -3.95908 0
M  V30 8057 H 796.327 1.53585 -2.83922 0
M  V30 8058 H 795.379 -0.711469 -3.73687 0
M  V30 8059 H 796.691 -0.716482 -4.93627 0
M  V30 8060 H 795.845 1.43542 -5.89475 0
M  V30 8061 H 794.584 1.52423 -4.63269 0
M  V30 8062 H 793.589 -0.626179 -5.46223 0
M  V30 8063 H 794.814 -0.699181 -6.75491 0
M  V30 8064 H 792.76 1.5138 -6.38295 0
M  V30 8065 H 792.677 0.240823 -7.55616 0
M  V30 8066 H 793.945 1.42513 -7.66362 0
M  V30 8067 N 798.174 1.49689 -0.493057 0
M  V30 8068 C 799.402 2.06836 0.0513141 0
M  V30 8069 C 799.817 1.35436 1.31539 0
M  V30 8070 O 799.174 0.430248 1.77356 0
M  V30 8071 C 799.225 3.60107 0.317003 0
M  V30 8072 O 798.946 4.2882 -0.896957 0
M  V30 8073 C 800.447 4.33945 0.905902 0
M  V30 8074 H 797.667 0.670787 -0.0169048 0
M  V30 8075 H 800.211 1.92574 -0.688139 0
M  V30 8076 H 798.366 3.74099 1.00642 0
M  V30 8077 H 798.78 5.20395 -0.654939 0
M  V30 8078 H 800.254 5.42087 1.04144 0
M  V30 8079 H 800.731 3.95895 1.90168 0
M  V30 8080 H 801.337 4.2454 0.254195 0
M  V30 8081 N 799.652 0.226554 1.55963 0
M  V30 8082 C 800.615 -0.668015 2.19249 0
M  V30 8083 C 801.615 -1.11794 1.1558 0
M  V30 8084 O 802.805 -1.02593 1.40784 0
M  V30 8085 C 799.937 -1.91571 2.81981 0
M  V30 8086 H 801.13 -0.116175 2.99675 0
M  V30 8087 H 798.683 -0.0230497 1.56283 0
M  V30 8088 H 799.418 -2.50929 2.05439 0
M  V30 8089 H 799.203 -1.6015 3.57903 0
M  V30 8090 H 800.693 -2.55294 3.30477 0
M  V30 8091 N 801.13 -1.57531 -0.0467866 0
M  V30 8092 C 802.355 -1.93087 -0.757123 0
M  V30 8093 C 802.78 -0.825116 -1.69037 0
M  V30 8094 O 802.138 0.220449 -1.79955 0
M  V30 8095 C 802.186 -3.27669 -1.5055 0
M  V30 8096 O 801.29 -3.18667 -2.61773 0
M  V30 8097 H 800.631 -0.631597 -0.204892 0
M  V30 8098 H 803.161 -2.04599 -0.00755232 0
M  V30 8099 H 803.171 -3.6214 -1.87932 0
M  V30 8100 H 801.846 -4.07717 -0.820931 0
M  V30 8101 H 800.423 -2.95798 -2.27064 0
M  V30 8102 N 802.608 0.318715 -1.54344 0
M  V30 8103 C 803.856 1.054 -1.72439 0
M  V30 8104 C 804.177 1.88388 -0.503495 0
M  V30 8105 O 803.447 1.89866 0.48246 0
M  V30 8106 H 802.027 0.392124 -0.635805 0
M  V30 8107 H 804.689 0.35398 -1.91659 0
M  V30 8108 H 803.785 1.71726 -2.60608 0
M  V30 8109 N 804.086 1.46499 0.581025 0
M  V30 8110 C 805.016 1.60052 1.70017 0
M  V30 8111 C 805.997 0.450788 1.64018 0
M  V30 8112 O 807.182 0.677237 1.82009 0
M  V30 8113 C 804.312 1.5921 3.08658 0
M  V30 8114 C 803.266 2.73169 3.29488 0
M  V30 8115 C 802.592 2.57389 4.68674 0
M  V30 8116 C 803.892 4.14978 3.1716 0
M  V30 8117 H 805.586 2.53735 1.5893 0
M  V30 8118 H 803.132 1.22113 0.763173 0
M  V30 8119 H 805.085 1.67285 3.86773 0
M  V30 8120 H 803.809 0.620718 3.20647 0
M  V30 8121 H 802.468 2.64566 2.53773 0
M  V30 8122 H 802.116 1.58331 4.77431 0
M  V30 8123 H 801.816 3.33826 4.83564 0
M  V30 8124 H 803.34 2.67358 5.48956 0
M  V30 8125 H 804.754 4.24684 3.85119 0
M  V30 8126 H 803.151 4.92016 3.4357 0
M  V30 8127 H 804.221 4.35016 2.14218 0
M  V30 8128 N 805.565 -0.825799 1.34232 0
M  V30 8129 C 806.811 -1.58419 1.26614 0
M  V30 8130 C 807.144 -1.93503 -0.164341 0
M  V30 8131 O 806.419 -1.59785 -1.109 0
M  V30 8132 C 806.702 -2.8856 2.15418 0
M  V30 8133 C 806.555 -2.60075 3.66989 0
M  V30 8134 C 807.874 -3.90107 2.03726 0
M  V30 8135 H 804.993 -0.574794 0.461282 0
M  V30 8136 H 807.635 -0.951519 1.64457 0
M  V30 8137 H 805.785 -3.42553 1.83275 0
M  V30 8138 H 807.457 -2.12414 4.09485 0
M  V30 8139 H 805.7 -1.93565 3.88221 0
M  V30 8140 H 806.371 -3.52866 4.24488 0
M  V30 8141 H 808.847 -3.45459 2.31942 0
M  V30 8142 H 807.723 -4.78976 2.68092 0
M  V30 8143 H 807.984 -4.30329 1.01337 0
M  V30 8144 N 807.043 -1.17915 -1.04565 0
M  V30 8145 C 807.953 -0.916449 -2.15959 0
M  V30 8146 C 808.969 0.117655 -1.73602 0
M  V30 8147 O 810.145 -0.063089 -2.01301 0
M  V30 8148 C 807.21 -0.440262 -3.43893 0
M  V30 8149 C 806.271 -1.54172 -4.00661 0
M  V30 8150 C 805.504 -1.08816 -5.22489 0
M  V30 8151 O 805.727 0.0551547 -5.70373 0
M  V30 8152 O 804.661 -1.88383 -5.7166 0
M  V30 8153 H 808.487 -1.8484 -2.40972 0
M  V30 8154 H 806.072 -0.960552 -1.14428 0
M  V30 8155 H 807.954 -0.182537 -4.21004 0
M  V30 8156 H 806.629 0.46346 -3.20365 0
M  V30 8157 H 805.536 -1.85341 -3.24961 0
M  V30 8158 H 806.869 -2.42139 -4.2852 0
M  V30 8159 N 808.521 1.23394 -0.980386 0
M  V30 8160 C 809.484 2.23092 -0.525619 0
M  V30 8161 C 810.484 1.56129 0.384745 0
M  V30 8162 O 811.674 1.73284 0.178439 0
M  V30 8163 C 808.806 3.40074 0.23712 0
M  V30 8164 H 809.999 2.64839 -1.40714 0
M  V30 8165 H 807.552 1.36227 -0.766275 0
M  V30 8166 H 808.287 3.03783 1.13518 0
M  V30 8167 H 808.072 3.89883 -0.416356 0
M  V30 8168 H 809.562 4.14043 0.543892 0
M  V30 8169 N 809.999 0.752036 1.385 0
M  V30 8170 C 811.227 0.318274 2.04437 0
M  V30 8171 C 811.642 -1.05285 1.56718 0
M  V30 8172 O 810.999 -1.66844 0.73956 0
M  V30 8173 C 811.05 0.330106 3.5999 0
M  V30 8174 O 810.771 1.64712 4.05957 0
M  V30 8175 C 812.272 -0.117713 4.43144 0
M  V30 8176 H 809.492 0.136228 0.657026 0
M  V30 8177 H 812.036 1.02045 1.7722 0
M  V30 8178 H 810.191 -0.323323 3.86048 0
M  V30 8179 H 810.605 1.57225 5.0038 0
M  V30 8180 H 812.079 -0.0582735 5.51969 0
M  V30 8181 H 812.556 -1.16538 4.23457 0
M  V30 8182 H 813.162 0.506784 4.2227 0
M  V30 8183 N 811.477 -1.49425 0.500989 0
M  V30 8184 C 812.725 -2.02053 -0.0434495 0
M  V30 8185 C 813.046 -1.38285 -1.37486 0
M  V30 8186 O 812.316 -0.538171 -1.88363 0
M  V30 8187 H 810.896 -0.746757 -0.0190469 0
M  V30 8188 H 813.558 -1.83449 0.658227 0
M  V30 8189 H 812.654 -3.11619 -0.173129 0
M  V30 8190 N 812.955 -0.234822 -1.55841 0
M  V30 8191 C 813.918 0.656378 -2.196 0
M  V30 8192 C 814.918 1.11179 -1.16171 0
M  V30 8193 O 816.108 1.01845 -1.41326 0
M  V30 8194 C 813.24 1.90072 -2.82993 0
M  V30 8195 H 814.433 0.100281 -2.99732 0
M  V30 8196 H 811.986 0.0147613 -1.56293 0
M  V30 8197 H 812.721 2.49836 -2.06767 0
M  V30 8198 H 812.506 1.5825 -3.58747 0
M  V30 8199 H 813.996 2.53538 -3.31826 0
M  V30 8200 N 814.433 1.57553 0.0384317 0
M  V30 8201 C 815.681 1.88468 0.729672 0
M  V30 8202 C 816.002 0.831302 1.76393 0
M  V30 8203 O 815.272 -0.13622 1.95426 0
M  V30 8204 H 813.852 0.695529 0.272485 0
M  V30 8205 H 816.514 1.94899 0.0066032 0
M  V30 8206 H 815.61 2.8705 1.22511 0
M  V30 8207 N 815.911 -0.310526 1.54511 0
M  V30 8208 C 817.158 -1.04691 1.73338 0
M  V30 8209 C 817.486 -1.87584 0.514038 0
M  V30 8210 O 816.741 -1.89096 -0.504119 0
M  V30 8211 C 817.04 -1.98942 2.96912 0
M  V30 8212 C 816.706 -1.321 4.31115 0
M  V30 8213 C 815.368 -1.13603 4.67598 0
M  V30 8214 C 817.72 -0.842362 5.14348 0
M  V30 8215 C 815.048 -0.459102 5.84901 0
M  V30 8216 C 817.4 -0.179202 6.32346 0
M  V30 8217 C 816.064 0.0178111 6.67498 0
M  V30 8218 H 815.334 -0.38309 0.634289 0
M  V30 8219 H 817.981 -0.322723 1.88761 0
M  V30 8220 H 816.286 -2.77856 2.76231 0
M  V30 8221 H 817.983 -2.55972 3.08674 0
M  V30 8222 H 814.573 -1.47502 4.02419 0
M  V30 8223 H 818.757 -0.973013 4.86668 0
M  V30 8224 H 814.013 -0.295385 6.10686 0
M  V30 8225 H 818.187 0.199619 6.96114 0
M  V30 8226 H 815.814 0.544356 7.58249 0
M  V30 8227 N 817.389 -1.46805 -0.573248 0
M  V30 8228 C 818.352 -1.57655 -1.66366 0
M  V30 8229 C 819.352 -0.452905 -1.5429 0
M  V30 8230 O 820.542 -0.717502 -1.58737 0
M  V30 8231 C 817.674 -1.50584 -3.05839 0
M  V30 8232 H 818.867 -2.54842 -1.581 0
M  V30 8233 H 816.42 -1.34756 -0.791868 0
M  V30 8234 H 817.155 -0.547127 -3.19651 0
M  V30 8235 H 816.94 -2.32118 -3.16012 0
M  V30 8236 H 818.43 -1.61282 -3.85199 0
M  V30 8237 N 818.867 0.818669 -1.34668 0
M  V30 8238 C 819.815 1.95123 -1.26609 0
M  V30 8239 C 820.809 1.68611 -0.163348 0
M  V30 8240 O 822.015 1.76975 -0.328586 0
M  V30 8241 H 818.39 0.640871 -0.393431 0
M  V30 8242 H 820.361 1.99043 -2.22316 0
M  V30 8243 C 819.11 3.31697 -1.04272 0
M  V30 8244 H 818.433 3.52648 -1.8836 0
M  V30 8245 H 819.873 4.11382 -1.0267 0
M  V30 8246 C 818.332 3.35942 0.253858 0
M  V30 8247 O 818.862 3.81632 1.25378 0
M  V30 8248 N 817.068 2.89165 0.288447 0
M  V30 8249 H 816.615 2.52176 -0.525845 0
M  V30 8250 H 816.573 2.92387 1.15572 0
M  V30 8251 N 820.346 1.18468 1.03938 0
M  V30 8252 C 821.574 1.00576 1.80809 0
M  V30 8253 C 821.989 -0.445786 1.83462 0
M  V30 8254 O 821.346 -1.30964 1.27101 0
M  V30 8255 C 821.397 1.55491 3.26351 0
M  V30 8256 O 821.118 2.94963 3.23926 0
M  V30 8257 C 822.619 1.42236 4.19862 0
M  V30 8258 H 819.839 0.35508 0.56935 0
M  V30 8259 H 822.383 1.57046 1.30984 0
M  V30 8260 H 820.538 1.03195 3.73403 0
M  V30 8261 H 820.952 3.20598 4.15111 0
M  V30 8262 H 822.426 1.85455 5.19914 0
M  V30 8263 H 822.903 0.371267 4.37628 0
M  V30 8264 H 823.509 1.9361 3.78675 0
M  V30 8265 N 821.824 -1.22873 0.986916 0
M  V30 8266 C 823.07 -1.92047 0.670042 0
M  V30 8267 C 823.425 -1.75497 -0.788587 0
M  V30 8268 O 822.718 -1.10934 -1.56218 0
M  V30 8269 C 822.912 -3.43014 1.00379 0
M  V30 8270 C 822.741 -3.74251 2.49332 0
M  V30 8271 C 821.511 -3.94589 3.15638 0
M  V30 8272 C 823.709 -3.79208 3.47428 0
M  V30 8273 N 821.691 -4.13086 4.54129 0
M  V30 8274 C 823.062 -4.02775 4.71352 0
M  V30 8275 C 825.117 -3.62029 3.41818 0
M  V30 8276 C 823.82 -4.10946 5.90352 0
M  V30 8277 C 825.846 -3.71457 4.60189 0
M  V30 8278 C 825.208 -3.95468 5.82911 0
M  V30 8279 H 821.307 -0.723668 0.29636 0
M  V30 8280 H 823.891 -1.47946 1.26571 0
M  V30 8281 H 822.062 -3.85936 0.436762 0
M  V30 8282 H 823.794 -3.99551 0.643522 0
M  V30 8283 H 820.549 -3.91762 2.66119 0
M  V30 8284 H 820.973 -4.26275 5.25945 0
M  V30 8285 H 825.615 -3.42457 2.47958 0
M  V30 8286 H 823.333 -4.29324 6.84621 0
M  V30 8287 H 826.919 -3.59511 4.57431 0
M  V30 8288 H 825.799 -4.02584 6.72975 0
M  V30 8289 N 823.302 -0.75937 -1.38099 0
M  V30 8290 C 824.249 -0.135508 -2.30402 0
M  V30 8291 C 825.219 0.703356 -1.50473 0
M  V30 8292 O 826.404 0.658287 -1.79084 0
M  V30 8293 C 823.544 0.747228 -3.36913 0
M  V30 8294 C 822.657 -0.106893 -4.31868 0
M  V30 8295 C 821.792 0.779388 -5.25451 0
M  V30 8296 C 820.831 -0.0780179 -6.1205 0
M  V30 8297 N 819.968 0.765545 -6.97914 0
M  V30 8298 H 824.808 -0.9282 -2.83176 0
M  V30 8299 H 822.345 -0.46935 -1.39411 0
M  V30 8300 H 824.303 1.27371 -3.97281 0
M  V30 8301 H 822.933 1.50565 -2.85535 0
M  V30 8302 H 821.985 -0.751063 -3.72912 0
M  V30 8303 H 823.297 -0.768798 -4.9284 0
M  V30 8304 H 822.451 1.37282 -5.90964 0
M  V30 8305 H 821.19 1.47501 -4.6486 0
M  V30 8306 H 820.195 -0.684078 -5.45528 0
M  V30 8307 H 821.42 -0.770786 -6.74712 0
M  V30 8308 H 819.366 1.44601 -6.39864 0
M  V30 8309 H 819.283 0.160666 -7.55829 0
M  V30 8310 H 820.551 1.34377 -7.6783 0
M  V30 8311 N 824.78 1.49157 -0.508906 0
M  V30 8312 C 825.743 2.27784 0.25434 0
M  V30 8313 C 826.743 1.34132 0.88686 0
M  V30 8314 O 827.933 1.5722 0.750168 0
M  V30 8315 C 825.065 3.12347 1.36573 0
M  V30 8316 H 826.258 2.96718 -0.435714 0
M  V30 8317 H 823.811 1.54052 -0.264128 0
M  V30 8318 H 824.546 2.47997 2.08969 0
M  V30 8319 H 824.331 3.81213 0.917543 0
M  V30 8320 H 825.821 3.71712 1.90315 0
M  V30 8321 N 826.258 0.243083 1.55714 0
M  V30 8322 C 827.19 -0.690766 2.18543 0
M  V30 8323 C 828.203 -1.14163 1.16064 0
M  V30 8324 O 829.392 -1.06906 1.42946 0
M  V30 8325 C 826.492 -1.95016 2.77168 0
M  V30 8326 C 825.665 -1.65137 4.05029 0
M  V30 8327 C 824.724 -2.75998 4.48009 0
M  V30 8328 O 823.75 -2.43547 5.14464 0
M  V30 8329 N 824.952 -4.05414 4.15476 0
M  V30 8330 H 827.717 -0.153203 2.99308 0
M  V30 8331 H 825.278 0.0628968 1.61778 0
M  V30 8332 H 827.27 -2.68414 3.0288 0
M  V30 8333 H 825.84 -2.39762 2.00582 0
M  V30 8334 H 825.06 -0.752768 3.86946 0
M  V30 8335 H 826.348 -1.42633 4.88399 0
M  V30 8336 H 825.746 -4.34613 3.62116 0
M  V30 8337 H 824.303 -4.75288 4.46032 0
M  V30 8338 N 827.736 -1.57571 -0.0300757 0
M  V30 8339 C 828.961 -1.93879 -0.736601 0
M  V30 8340 C 829.386 -0.842998 -1.68152 0
M  V30 8341 O 828.744 0.20135 -1.80178 0
M  V30 8342 C 828.792 -3.29247 -1.47066 0
M  V30 8343 O 827.896 -3.21426 -2.58378 0
M  V30 8344 H 827.237 -0.633735 -0.198181 0
M  V30 8345 H 829.767 -2.04595 0.0141485 0
M  V30 8346 H 829.777 -3.64113 -1.84081 0
M  V30 8347 H 828.452 -4.08565 -0.77764 0
M  V30 8348 H 827.029 -2.98189 -2.23914 0
M  V30 8349 N 829.214 0.302327 -1.54673 0
M  V30 8350 C 830.442 1.05669 -1.77881 0
M  V30 8351 C 830.857 1.80983 -0.537648 0
M  V30 8352 O 830.214 1.7573 0.492467 0
M  V30 8353 C 830.265 2.03828 -2.98557 0
M  V30 8354 O 829.986 1.3157 -4.17877 0
M  V30 8355 C 831.487 2.91314 -3.34143 0
M  V30 8356 H 828.707 0.313436 -0.593295 0
M  V30 8357 H 831.251 0.342003 -2.0162 0
M  V30 8358 H 829.406 2.70801 -2.7703 0
M  V30 8359 H 829.82 1.97481 -4.85903 0
M  V30 8360 H 831.294 3.56042 -4.21827 0
M  V30 8361 H 831.771 3.59544 -2.52239 0
M  V30 8362 H 832.377 2.29874 -3.57824 0
M  V30 8363 N 830.692 1.47107 0.565454 0
M  V30 8364 C 831.932 1.5488 1.33385 0
M  V30 8365 C 832.296 0.202804 1.90926 0
M  V30 8366 O 833.497 0.155345 2.68351 0
M  V30 8367 C 831.768 2.62969 2.42037 0
M  V30 8368 S 833.327 2.90269 3.29074 0
M  V30 8369 H 830.145 0.547008 0.454206 0
M  V30 8370 H 832.747 1.8444 0.648228 0
M  V30 8371 H 831.451 3.59376 1.98185 0
M  V30 8372 H 830.982 2.35197 3.15351 0
M  V30 8373 H 832.997 2.26854 4.41307 0
M  V30 8374 N 832.17 -0.811516 1.35101 0
M  V30 8375 C 833.12 -1.91227 1.24163 0
M  V30 8376 C 834.104 -1.60307 0.138012 0
M  V30 8377 O 835.296 -1.73116 0.368767 0
M  V30 8378 C 832.425 -3.2808 1.01085 0
M  V30 8379 C 831.511 -3.65082 2.15815 0
M  V30 8380 N 831.902 -3.73558 3.4101 0
M  V30 8381 C 830.2 -3.95005 2.07092 0
M  V30 8382 C 830.901 -4.06158 4.16426 0
M  V30 8383 N 829.877 -4.19982 3.45132 0
M  V30 8384 H 833.679 -1.95975 2.19023 0
M  V30 8385 H 831.193 -1.00583 1.27503 0
M  V30 8386 H 833.19 -4.06771 0.913382 0
M  V30 8387 H 831.85 -3.24622 0.0710406 0
M  V30 8388 H 832.861 -3.56761 3.75423 0
M  V30 8389 H 829.538 -3.99601 1.20937 0
M  V30 8390 H 830.928 -4.19824 5.24592 0
M  V30 8391 N 833.648 -1.19017 -1.03309 0
M  V30 8392 C 834.925 -0.899659 -1.73682 0
M  V30 8393 C 835.305 0.595677 -2.02521 0
M  V30 8394 O 834.653 1.55263 -1.67648 0
M  V30 8395 C 834.863 -1.75508 -3.01659 0
M  V30 8396 C 836.211 -1.98679 -3.75249 0
M  V30 8397 O 837.235 -1.72624 -3.11576 0
M  V30 8398 O 836.094 -2.42587 -4.89708 0
M  V30 8399 H 833.188 -0.334903 -0.756154 0
M  V30 8400 H 835.734 -1.29809 -1.09305 0
M  V30 8401 H 834.506 -2.7684 -2.76542 0
M  V30 8402 H 834.129 -1.35565 -3.73775 0
M  V30 8403 N 835.127 1.22348 -0.993418 0
M  V30 8404 C 836.074 2.24294 -0.544118 0
M  V30 8405 C 837.044 1.60602 0.42381 0
M  V30 8406 O 838.229 1.87952 0.328453 0
M  V30 8407 C 835.369 3.44837 0.134578 0
M  V30 8408 C 834.482 4.23043 -0.875151 0
M  V30 8409 C 833.617 5.30928 -0.169919 0
M  V30 8410 C 832.656 6.00853 -1.16798 0
M  V30 8411 N 831.793 7.00381 -0.491021 0
M  V30 8412 H 836.633 2.6209 -1.4182 0
M  V30 8413 H 834.17 1.2881 -0.710384 0
M  V30 8414 H 836.128 4.13625 0.544998 0
M  V30 8415 H 834.758 3.07804 0.972446 0
M  V30 8416 H 833.81 3.53546 -1.40389 0
M  V30 8417 H 835.122 4.71237 -1.63516 0
M  V30 8418 H 834.276 6.05972 0.297205 0
M  V30 8419 H 833.015 4.8371 0.622586 0
M  V30 8420 H 832.02 5.24591 -1.64573 0
M  V30 8421 H 833.245 6.50159 -1.96137 0
M  V30 8422 H 831.191 6.55393 0.282037 0
M  V30 8423 H 831.108 7.46584 -1.18947 0
M  V30 8424 H 832.376 7.79486 -0.0467169 0
M  V30 8425 N 836.605 0.766683 1.37694 0
M  V30 8426 C 837.535 0.163432 2.32927 0
M  V30 8427 C 838.516 -0.688861 1.55527 0
M  V30 8428 O 839.701 -0.627363 1.83787 0
M  V30 8429 C 836.831 -0.720416 3.39746 0
M  V30 8430 C 835.785 0.0301718 4.27989 0
M  V30 8431 C 835.111 -0.972788 5.25776 0
M  V30 8432 C 836.411 1.20623 5.0818 0
M  V30 8433 H 838.105 0.958988 2.83626 0
M  V30 8434 H 835.651 0.462601 1.36367 0
M  V30 8435 H 837.604 -1.15221 4.05342 0
M  V30 8436 H 836.328 -1.54844 2.8756 0
M  V30 8437 H 834.987 0.442685 3.63917 0
M  V30 8438 H 834.635 -1.79522 4.69873 0
M  V30 8439 H 834.335 -0.475145 5.85676 0
M  V30 8440 H 835.859 -1.40362 5.94248 0
M  V30 8441 H 837.273 0.851341 5.66944 0
M  V30 8442 H 835.67 1.63561 5.7738 0
M  V30 8443 H 836.74 2.01281 4.41151 0
M  V30 8444 N 838.083 -1.48885 0.516809 0
M  V30 8445 C 839.36 -1.95412 -0.0858293 0
M  V30 8446 C 839.74 -1.45875 -1.5259 0
M  V30 8447 O 839.088 -0.679415 -2.18166 0
M  V30 8448 C 839.298 -3.48995 0.0178194 0
M  V30 8449 C 840.646 -4.24342 -0.14813 0
M  V30 8450 O 841.67 -3.56155 -0.0566125 0
M  V30 8451 O 840.529 -5.45454 -0.338035 0
M  V30 8452 H 837.623 -0.822455 -0.0865884 0
M  V30 8453 H 840.169 -1.59464 0.580472 0
M  V30 8454 H 838.941 -3.77732 1.02147 0
M  V30 8455 H 838.564 -3.91604 -0.687924 0
M  V30 8456 N 839.561 -0.251338 -1.55583 0
M  V30 8457 C 840.807 0.365823 -2.00083 0
M  V30 8458 C 841.162 1.55242 -1.13656 0
M  V30 8459 O 840.455 1.90624 -0.193108 0
M  V30 8460 C 840.649 0.821186 -3.47838 0
M  V30 8461 C 840.478 -0.319746 -4.48562 0
M  V30 8462 C 839.248 -0.795866 -4.98993 0
M  V30 8463 C 841.446 -1.14825 -5.01318 0
M  V30 8464 N 839.428 -1.90875 -5.83472 0
M  V30 8465 C 840.799 -2.10943 -5.83012 0
M  V30 8466 C 842.854 -1.18431 -4.8361 0
M  V30 8467 C 841.557 -3.10383 -6.48888 0
M  V30 8468 C 843.583 -2.16703 -5.50267 0
M  V30 8469 C 842.945 -3.11557 -6.31753 0
M  V30 8470 H 839.044 0.0996971 -0.775619 0
M  V30 8471 H 841.628 -0.36993 -1.91153 0
M  V30 8472 H 839.799 1.52622 -3.57157 0
M  V30 8473 H 841.531 1.41367 -3.79206 0
M  V30 8474 H 838.286 -0.379242 -4.72079 0
M  V30 8475 H 838.71 -2.46808 -6.30408 0
M  V30 8476 H 843.352 -0.464824 -4.20237 0
M  V30 8477 H 841.07 -3.83277 -7.11424 0
M  V30 8478 H 844.656 -2.20204 -5.38518 0
M  V30 8479 H 843.536 -3.86357 -6.82421 0
M  V30 8480 N 841.039 1.57585 0.0217189 0
M  V30 8481 C 841.969 2.10073 1.01939 0
M  V30 8482 C 842.95 1.0049 1.37243 0
M  V30 8483 O 844.135 1.28055 1.45999 0
M  V30 8484 C 841.265 2.58618 2.31806 0
M  V30 8485 C 840.219 3.72531 2.10724 0
M  V30 8486 C 839.545 4.07309 3.46415 0
M  V30 8487 C 840.845 5.00672 1.48743 0
M  V30 8488 H 842.539 2.9368 0.582432 0
M  V30 8489 H 840.085 1.41277 0.278715 0
M  V30 8490 H 842.038 2.9396 3.01936 0
M  V30 8491 H 840.762 1.72104 2.77575 0
M  V30 8492 H 839.421 3.37549 1.43025 0
M  V30 8493 H 839.069 3.17851 3.89846 0
M  V30 8494 H 838.769 4.84042 3.33132 0
M  V30 8495 H 840.293 4.45192 4.17895 0
M  V30 8496 H 841.707 5.33925 2.088 0
M  V30 8497 H 840.104 5.82065 1.46013 0
M  V30 8498 H 841.174 4.82769 0.45408 0
M  V30 8499 N 842.517 -0.29412 1.54831 0
M  V30 8500 C 843.794 -1.04847 1.65126 0
M  V30 8501 C 844.174 -2.04996 0.503986 0
M  V30 8502 O 843.522 -2.22996 -0.498496 0
M  V30 8503 C 843.732 -1.72418 3.03435 0
M  V30 8504 C 845.08 -2.24362 3.60481 0
M  V30 8505 O 846.104 -1.8244 3.05932 0
M  V30 8506 O 844.963 -3.01196 4.56008 0
M  V30 8507 H 842.057 -0.485032 0.669831 0
M  V30 8508 H 844.603 -0.291659 1.67175 0
M  V30 8509 H 843.375 -0.997351 3.78376 0
M  V30 8510 H 842.998 -2.54839 3.05193 0
M  V30 8511 N 843.995 -1.47404 -0.557645 0
M  V30 8512 C 845.272 -1.44488 -1.31843 0
M  V30 8513 C 845.652 -0.1416 -2.10625 0
M  V30 8514 O 845 0.876908 -2.11004 0
M  V30 8515 C 845.21 -2.69016 -2.22331 0
M  V30 8516 C 846.558 -3.16212 -2.83364 0
M  V30 8517 O 847.582 -2.69741 -2.32634 0
M  V30 8518 O 846.441 -3.96999 -3.75571 0
M  V30 8519 H 843.535 -0.57578 -0.593639 0
M  V30 8520 H 846.081 -1.59605 -0.576584 0
M  V30 8521 H 844.853 -3.55406 -1.63715 0
M  V30 8522 H 844.476 -2.56484 -3.03812 0
M  V30 8523 N 845.473 0.80434 -1.35529 0
M  V30 8524 C 846.884 1.37849 -1.25915 0
M  V30 8525 C 847.235 1.95905 0.107495 0
M  V30 8526 O 846.36 1.91462 1.00852 0
M  V30 8527 C 846.955 2.50608 -2.27994 0
M  V30 8528 C 845.514 3.03879 -2.22114 0
M  V30 8529 C 844.661 1.76856 -2.13582 0
M  V30 8530 H 847.612 0.607192 -1.46625 0
M  V30 8531 H 847.633 3.29221 -1.90772 0
M  V30 8532 H 847.145 2.08323 -3.27449 0
M  V30 8533 H 845.246 3.50622 -1.26077 0
M  V30 8534 H 845.359 3.61707 -3.14173 0
M  V30 8535 H 843.723 1.98498 -1.59595 0
M  V30 8536 H 844.506 1.36721 -3.14901 0
M  V30 8537 N 846.951 1.19563 1.02676 0
M  V30 8538 C 848.191 1.01072 1.77662 0
M  V30 8539 C 848.555 -0.450344 1.86644 0
M  V30 8540 O 849.756 -0.755132 2.57975 0
M  V30 8541 C 848.027 1.66383 3.16309 0
M  V30 8542 S 849.586 1.62858 4.07459 0
M  V30 8543 H 846.404 0.362644 0.611564 0
M  V30 8544 H 849.006 1.51947 1.23014 0
M  V30 8545 H 847.71 2.71917 3.07391 0
M  V30 8546 H 847.241 1.15596 3.76033 0
M  V30 8547 H 849.256 0.654265 4.91868 0
M  V30 8548 N 848.429 -1.21819 0.999893 0
M  V30 8549 C 849.654 -1.95298 0.698094 0
M  V30 8550 C 850.079 -1.73273 -0.731982 0
M  V30 8551 O 849.437 -1.01634 -1.50134 0
M  V30 8552 C 849.485 -3.45922 1.01834 0
M  V30 8553 O 848.589 -4.12223 0.120801 0
M  V30 8554 H 847.93 -0.610729 0.260588 0
M  V30 8555 H 850.46 -1.5472 1.33876 0
M  V30 8556 H 850.47 -3.96471 0.963074 0
M  V30 8557 H 849.145 -3.61278 2.06037 0
M  V30 8558 H 847.722 -3.72177 0.232153 0
M  V30 8559 N 849.908 -0.773975 -1.37286 0
M  V30 8560 C 850.838 -0.175782 -2.32837 0
M  V30 8561 C 851.819 0.680603 -1.5589 0
M  V30 8562 O 853.004 0.617607 -1.84117 0
M  V30 8563 C 850.134 0.702388 -3.40123 0
M  V30 8564 C 849.088 -0.0528687 -4.27967 0
M  V30 8565 C 848.414 0.944891 -5.26285 0
M  V30 8566 C 849.714 -1.23316 -5.07534 0
M  V30 8567 H 851.408 -0.974016 -2.83114 0
M  V30 8568 H 848.954 -0.469826 -1.3612 0
M  V30 8569 H 850.907 1.13069 -4.05947 0
M  V30 8570 H 849.631 1.53316 -2.88378 0
M  V30 8571 H 848.29 -0.461978 -3.63678 0
M  V30 8572 H 847.938 1.77028 -4.70819 0
M  V30 8573 H 847.638 0.444079 -5.8592 0
M  V30 8574 H 849.162 1.37209 -5.94984 0
M  V30 8575 H 850.576 -0.881395 -5.66484 0
M  V30 8576 H 848.973 -1.66621 -5.76504 0
M  V30 8577 H 850.043 -2.03617 -4.40077 0
M  V30 8578 N 851.386 1.48609 -0.524698 0
M  V30 8579 C 852.334 2.31205 0.254398 0
M  V30 8580 C 853.328 1.40894 0.940491 0
M  V30 8581 O 854.534 1.57827 0.865478 0
M  V30 8582 H 850.909 0.745199 0.100907 0
M  V30 8583 H 852.88 2.94804 -0.461876 0
M  V30 8584 C 851.629 3.2282 1.2916 0
M  V30 8585 H 850.952 3.92255 0.773074 0
M  V30 8586 H 852.392 3.83508 1.80825 0
M  V30 8587 C 850.851 2.4406 2.32242 0
M  V30 8588 O 851.381 2.16163 3.3858 0
M  V30 8589 N 849.587 2.05651 2.05319 0
M  V30 8590 H 849.134 2.28539 1.18861 0
M  V30 8591 H 849.092 1.53265 2.74513 0
M  V30 8592 N 852.864 0.259585 1.55447 0
M  V30 8593 C 854.113 -0.362163 1.98422 0
M  V30 8594 C 854.426 -1.58135 1.1512 0
M  V30 8595 O 855.632 -2.27506 1.48166 0
M  V30 8596 C 854.088 -0.695722 3.53111 0
M  V30 8597 C 853.696 0.502784 4.4517 0
M  V30 8598 C 855.44 -1.28096 4.04712 0
M  V30 8599 C 853.347 0.144674 5.91223 0
M  V30 8600 H 852.277 -0.139092 0.74106 0
M  V30 8601 H 854.928 0.361798 1.79898 0
M  V30 8602 H 853.31 -1.47816 3.67378 0
M  V30 8603 H 854.484 1.27994 4.42667 0
M  V30 8604 H 852.799 1.0038 4.0412 0
M  V30 8605 H 855.396 -1.56243 5.11363 0
M  V30 8606 H 855.739 -2.20969 3.52815 0
M  V30 8607 H 856.272 -0.561146 3.93822 0
M  V30 8608 H 853.011 1.04087 6.47183 0
M  V30 8609 H 852.531 -0.596023 5.96831 0
M  V30 8610 H 854.21 -0.268651 6.46442 0
M  V30 8611 N 854.342 -1.57594 -0.0133615 0
M  V30 8612 C 855.252 -2.10991 -1.02566 0
M  V30 8613 C 856.268 -1.05208 -1.3859 0
M  V30 8614 O 857.444 -1.37034 -1.47593 0
M  V30 8615 C 854.509 -2.59165 -2.30292 0
M  V30 8616 C 853.57 -3.79495 -2.00704 0
M  V30 8617 C 852.803 -4.25361 -3.22341 0
M  V30 8618 O 853.026 -3.70645 -4.33565 0
M  V30 8619 O 851.96 -5.17649 -3.07121 0
M  V30 8620 H 855.786 -2.97678 -0.601806 0
M  V30 8621 H 853.371 -1.47598 -0.23135 0
M  V30 8622 H 855.253 -2.90409 -3.05354 0
M  V30 8623 H 853.928 -1.75582 -2.71942 0
M  V30 8624 H 852.835 -3.53245 -1.23161 0
M  V30 8625 H 854.168 -4.64109 -1.639 0
M  V30 8626 N 855.82 0.285905 -1.54985 0
M  V30 8627 C 857.045 1.04207 -1.7932 0
M  V30 8628 C 857.47 1.79622 -0.558343 0
M  V30 8629 O 856.828 1.74506 0.491661 0
M  V30 8630 C 856.876 1.98648 -3.0095 0
M  V30 8631 O 855.98 3.07207 -2.75132 0
M  V30 8632 H 855.321 0.298596 -0.593074 0
M  V30 8633 H 857.851 0.318736 -2.02102 0
M  V30 8634 H 857.861 2.4084 -3.29333 0
M  V30 8635 H 856.536 1.43167 -3.90482 0
M  V30 8636 H 855.113 2.69423 -2.57809 0
M  V30 8637 N 857.298 1.47698 0.54982 0
M  V30 8638 C 858.261 1.60282 1.63837 0
M  V30 8639 C 859.261 0.477394 1.5355 0
M  V30 8640 O 860.451 0.742665 1.57576 0
M  V30 8641 C 857.583 1.55431 3.03404 0
M  V30 8642 H 858.776 2.57325 1.54026 0
M  V30 8643 H 856.329 1.35999 0.770329 0
M  V30 8644 H 857.064 0.597912 3.1874 0
M  V30 8645 H 856.849 2.37116 3.12279 0
M  V30 8646 H 858.339 1.6739 3.82584 0
M  V30 8647 N 858.776 -0.797141 1.35954 0
M  V30 8648 C 859.724 -1.93084 1.29697 0
M  V30 8649 C 860.718 -1.68329 0.190152 0
M  V30 8650 O 861.924 -1.7643 0.3567 0
M  V30 8651 H 858.299 -0.634531 0.403577 0
M  V30 8652 H 860.27 -1.95481 2.25455 0
M  V30 8653 C 859.019 -3.29996 1.09536 0
M  V30 8654 H 858.342 -3.49607 1.93946 0
M  V30 8655 H 859.782 -4.09696 1.09202 0
M  V30 8656 C 858.241 -3.36304 -0.200381 0
M  V30 8657 O 858.771 -3.83579 -1.19291 0
M  V30 8658 N 856.977 -2.89587 -0.242406 0
M  V30 8659 H 856.524 -2.51307 0.565897 0
M  V30 8660 H 856.482 -2.94189 -1.10906 0
M  V30 8661 N 860.254 -1.20106 -1.0204 0
M  V30 8662 C 861.484 -1.0329 -1.78927 0
M  V30 8663 C 861.892 0.421115 -1.84454 0
M  V30 8664 O 861.235 1.30422 -1.29367 0
M  V30 8665 C 861.297 -1.53627 -3.25021 0
M  V30 8666 C 860.961 -3.01869 -3.4311 0
M  V30 8667 C 861.958 -3.9956 -3.32638 0
M  V30 8668 C 859.643 -3.40746 -3.6905 0
M  V30 8669 C 861.637 -5.34119 -3.47844 0
M  V30 8670 C 859.324 -4.75462 -3.839 0
M  V30 8671 C 860.322 -5.71957 -3.73302 0
M  V30 8672 O 860.01 -7.04231 -3.87703 0
M  V30 8673 H 859.742 -0.363962 -0.569656 0
M  V30 8674 H 862.296 -1.59551 -1.29354 0
M  V30 8675 H 860.526 -0.917481 -3.75658 0
M  V30 8676 H 862.215 -1.32889 -3.8353 0
M  V30 8677 H 862.981 -3.70869 -3.12539 0
M  V30 8678 H 858.86 -2.66182 -3.76388 0
M  V30 8679 H 862.404 -6.09421 -3.39488 0
M  V30 8680 H 858.301 -5.03844 -4.03499 0
M  V30 8681 H 859.069 -7.11425 -4.04744 0
M  V30 8682 N 861.732 1.21287 -1.00634 0
M  V30 8683 C 862.695 2.21927 -0.572821 0
M  V30 8684 C 863.695 1.5691 0.351541 0
M  V30 8685 O 864.885 1.73623 0.141643 0
M  V30 8686 C 862.017 3.40501 0.164932 0
M  V30 8687 H 863.21 2.61795 -1.463 0
M  V30 8688 H 860.763 1.34571 -0.794998 0
M  V30 8689 H 861.498 3.06123 1.07049 0
M  V30 8690 H 861.283 3.88912 -0.498962 0
M  V30 8691 H 862.773 4.15103 0.455945 0
M  V30 8692 N 863.21 0.781244 1.36873 0
M  V30 8693 C 864.12 0.174981 2.33947 0
M  V30 8694 C 865.136 -0.668512 1.60645 0
M  V30 8695 O 866.312 -0.586213 1.9268 0
M  V30 8696 C 863.377 -0.686557 3.39834 0
M  V30 8697 C 862.438 0.174489 4.28945 0
M  V30 8698 C 861.671 -0.646024 5.29776 0
M  V30 8699 O 861.894 -1.88254 5.38439 0
M  V30 8700 O 860.828 -0.0502214 6.01879 0
M  V30 8701 H 864.654 0.977382 2.87543 0
M  V30 8702 H 862.239 0.542559 1.392 0
M  V30 8703 H 864.121 -1.1781 4.04597 0
M  V30 8704 H 862.796 -1.46699 2.8855 0
M  V30 8705 H 861.703 0.712604 3.6725 0
M  V30 8706 H 863.036 0.918232 4.83559 0
M  V30 8707 N 864.689 -1.48329 0.532571 0
M  V30 8708 C 865.639 -2.2664 -0.24868 0
M  V30 8709 C 866.623 -1.32861 -0.907563 0
M  V30 8710 O 867.815 -1.57382 -0.809942 0
M  V30 8711 C 864.944 -3.18004 -1.29339 0
M  V30 8712 C 864.03 -4.19256 -0.639166 0
M  V30 8713 N 864.421 -5.05043 0.276597 0
M  V30 8714 C 862.719 -4.36906 -0.896062 0
M  V30 8715 C 863.42 -5.78009 0.654261 0
M  V30 8716 N 862.396 -5.43598 0.0147447 0
M  V30 8717 H 866.198 -2.90344 0.455792 0
M  V30 8718 H 863.712 -1.58566 0.350778 0
M  V30 8719 H 865.709 -3.72767 -1.86682 0
M  V30 8720 H 864.369 -2.55855 -1.99921 0
M  V30 8721 H 865.38 -5.13813 0.649351 0
M  V30 8722 H 862.057 -3.85945 -1.59226 0
M  V30 8723 H 863.447 -6.57039 1.40532 0
M  V30 8724 N 866.167 -0.267825 -1.55308 0
M  V30 8725 C 867.413 0.34458 -2.0046 0
M  V30 8726 C 867.768 1.54028 -1.15296 0
M  V30 8727 O 867.061 1.90409 -0.213316 0
M  V30 8728 C 867.255 0.784247 -3.48689 0
M  V30 8729 C 867.084 -0.367304 -4.48197 0
M  V30 8730 C 865.854 -0.848746 -4.98121 0
M  V30 8731 C 868.052 -1.20136 -5.00072 0
M  V30 8732 N 866.034 -1.97052 -5.81415 0
M  V30 8733 C 867.405 -2.17115 -5.80742 0
M  V30 8734 C 869.46 -1.23553 -4.82327 0
M  V30 8735 C 868.163 -3.17248 -6.45559 0
M  V30 8736 C 870.189 -2.22527 -5.47938 0
M  V30 8737 C 869.551 -3.1824 -6.28413 0
M  V30 8738 H 865.65 0.091465 -0.776633 0
M  V30 8739 H 868.234 -0.390184 -1.9075 0
M  V30 8740 H 866.405 1.48825 -3.58756 0
M  V30 8741 H 868.137 1.37337 -3.80684 0
M  V30 8742 H 864.892 -0.429291 -4.7165 0
M  V30 8743 H 865.316 -2.53481 -6.27755 0
M  V30 8744 H 869.958 -0.50937 -4.1972 0
M  V30 8745 H 867.676 -3.90801 -7.07319 0
M  V30 8746 H 871.262 -2.25904 -5.36152 0
M  V30 8747 H 870.142 -3.93573 -6.78285 0
M  V30 8748 N 867.645 1.57599 0.00500368 0
M  V30 8749 C 868.885 1.92205 0.695456 0
M  V30 8750 C 869.249 0.868894 1.71214 0
M  V30 8751 O 870.45 1.10004 2.4526 0
M  V30 8752 C 868.721 3.31882 1.32625 0
M  V30 8753 S 870.28 3.88364 2.04252 0
M  V30 8754 H 867.098 0.672826 0.22984 0
M  V30 8755 H 869.7 1.95435 -0.0504824 0
M  V30 8756 H 868.404 4.06375 0.573396 0
M  V30 8757 H 867.935 3.32013 2.11023 0
M  V30 8758 H 869.95 3.69035 3.31704 0
M  V30 8759 N 869.123 -0.277682 1.55134 0
M  V30 8760 C 870.348 -1.03254 1.7987 0
M  V30 8761 C 870.773 -1.79324 0.567861 0
M  V30 8762 O 870.131 -1.74764 -0.4824 0
M  V30 8763 C 870.179 -1.9705 3.02 0
M  V30 8764 O 869.283 -3.05744 2.76757 0
M  V30 8765 H 868.624 -0.295447 0.594649 0
M  V30 8766 H 871.154 -0.308013 2.02268 0
M  V30 8767 H 871.164 -2.3909 3.30606 0
M  V30 8768 H 869.839 -1.41094 3.91236 0
M  V30 8769 H 868.416 -2.68052 2.59235 0
M  V30 8770 N 870.601 -1.47988 -0.541979 0
M  V30 8771 C 871.531 -1.64503 -1.65713 0
M  V30 8772 C 872.512 -0.494116 -1.62765 0
M  V30 8773 O 873.697 -0.725256 -1.80149 0
M  V30 8774 C 870.827 -1.67337 -3.04328 0
M  V30 8775 C 869.781 -2.81809 -3.2213 0
M  V30 8776 C 869.107 -2.69724 -4.61685 0
M  V30 8777 C 870.407 -4.23241 -3.06046 0
M  V30 8778 H 872.101 -2.5786 -1.52147 0
M  V30 8779 H 869.647 -1.24094 -0.730529 0
M  V30 8780 H 871.6 -1.77481 -3.82202 0
M  V30 8781 H 870.324 -0.705514 -3.18889 0
M  V30 8782 H 868.983 -2.71201 -2.46669 0
M  V30 8783 H 868.631 -1.70934 -4.73065 0
M  V30 8784 H 868.331 -3.4653 -4.74543 0
M  V30 8785 H 869.855 -2.81818 -5.41674 0
M  V30 8786 H 871.269 -4.34746 -3.73723 0
M  V30 8787 H 869.666 -5.00952 -3.30405 0
M  V30 8788 H 870.736 -4.40543 -2.02609 0
M  V30 8789 N 872.079 0.78992 -1.36375 0
M  V30 8790 C 873.009 1.91683 -1.33341 0
M  V30 8791 C 873.99 1.68861 -0.204965 0
M  V30 8792 O 875.175 1.89982 -0.402531 0
M  V30 8793 C 872.305 3.28696 -1.12143 0
M  V30 8794 C 871.259 3.66041 -2.21806 0
M  V30 8795 C 870.585 5.01399 -1.85751 0
M  V30 8796 C 871.885 3.74677 -3.63888 0
M  V30 8797 H 873.579 1.94478 -2.27637 0
M  V30 8798 H 871.125 0.934271 -1.09578 0
M  V30 8799 H 873.078 4.07151 -1.08656 0
M  V30 8800 H 871.802 3.26287 -0.142974 0
M  V30 8801 H 870.461 2.89883 -2.24418 0
M  V30 8802 H 870.109 4.9551 -0.864817 0
M  V30 8803 H 869.809 5.27355 -2.59173 0
M  V30 8804 H 871.333 5.82274 -1.83819 0
M  V30 8805 H 872.747 4.43324 -3.63506 0
M  V30 8806 H 871.144 4.12118 -4.3621 0
M  V30 8807 H 872.214 2.75795 -3.9883 0
M  V30 8808 N 873.557 1.20646 1.01402 0
M  V30 8809 C 874.504 0.957618 2.09996 0
M  V30 8810 C 875.474 -0.113115 1.65714 0
M  V30 8811 O 876.659 0.032142 1.90773 0
M  V30 8812 C 873.799 0.5186 3.41181 0
M  V30 8813 C 872.912 1.65777 3.98926 0
M  V30 8814 C 872.047 1.16881 5.18182 0
M  V30 8815 C 871.086 2.2809 5.68015 0
M  V30 8816 N 870.223 1.80392 6.7853 0
M  V30 8817 H 875.063 1.88732 2.30617 0
M  V30 8818 H 872.6 0.940703 1.13089 0
M  V30 8819 H 874.558 0.245367 4.16478 0
M  V30 8820 H 873.188 -0.3741 3.20625 0
M  V30 8821 H 872.24 2.04586 3.207 0
M  V30 8822 H 873.552 2.49507 4.31912 0
M  V30 8823 H 872.706 0.851694 6.00692 0
M  V30 8824 H 871.445 0.301434 4.86768 0
M  V30 8825 H 870.45 2.60614 4.84108 0
M  V30 8826 H 871.675 3.15308 6.01463 0
M  V30 8827 H 869.621 0.959856 6.4894 0
M  V30 8828 H 869.538 2.57701 7.10722 0
M  V30 8829 H 870.806 1.51688 7.64598 0
M  V30 8830 N 875.035 -1.20752 1.01276 0
M  V30 8831 C 875.982 -2.234 0.579732 0
M  V30 8832 C 876.952 -1.61256 -0.398206 0
M  V30 8833 O 878.137 -1.8845 -0.29851 0
M  V30 8834 C 875.277 -3.45008 -0.0797006 0
M  V30 8835 C 874.39 -4.21597 0.942343 0
M  V30 8836 C 873.525 -5.30591 0.254364 0
M  V30 8837 C 872.564 -5.98919 1.26343 0
M  V30 8838 N 871.701 -6.99511 0.602384 0
M  V30 8839 H 876.541 -2.59801 1.45971 0
M  V30 8840 H 874.078 -1.27663 0.730787 0
M  V30 8841 H 876.036 -4.1444 -0.479125 0
M  V30 8842 H 874.666 -3.09312 -0.923354 0
M  V30 8843 H 873.718 -3.51268 1.45996 0
M  V30 8844 H 875.03 -4.68576 1.70992 0
M  V30 8845 H 874.184 -6.06368 -0.200763 0
M  V30 8846 H 872.923 -4.84639 -0.545553 0
M  V30 8847 H 871.928 -5.21906 1.72898 0
M  V30 8848 H 873.153 -6.46957 2.06456 0
M  V30 8849 H 871.099 -6.55759 -0.177734 0
M  V30 8850 H 871.016 -7.44597 1.30809 0
M  V30 8851 H 872.284 -7.79313 0.17072 0
M  V30 8852 N 876.513 -0.788492 -1.36457 0
M  V30 8853 C 877.741 -0.372365 -2.03522 0
M  V30 8854 C 878.156 1.01093 -1.59454 0
M  V30 8855 O 877.513 1.64824 -0.783535 0
M  V30 8856 C 877.564 -0.425435 -3.58988 0
M  V30 8857 O 877.285 -1.75418 -4.01448 0
M  V30 8858 C 878.786 0.000180167 -4.433 0
M  V30 8859 H 876.006 -0.1536 -0.653183 0
M  V30 8860 H 878.55 -1.06708 -1.74452 0
M  V30 8861 H 876.705 0.220856 -3.8677 0
M  V30 8862 H 877.119 -1.70437 -4.96036 0
M  V30 8863 H 878.593 -0.0880919 -5.5193 0
M  V30 8864 H 879.07 1.05269 -4.26398 0
M  V30 8865 H 879.676 -0.618563 -4.20778 0
M  V30 8866 N 877.991 1.48044 -0.54043 0
M  V30 8867 C 878.901 2.33565 0.220163 0
M  V30 8868 C 879.917 1.47146 0.928659 0
M  V30 8869 O 881.093 1.80107 0.901295 0
M  V30 8870 C 878.158 3.2349 1.2472 0
M  V30 8871 C 877.219 4.25789 0.547938 0
M  V30 8872 C 876.452 5.11417 1.52605 0
M  V30 8873 O 876.675 4.99204 2.75956 0
M  V30 8874 O 875.609 5.92498 1.05972 0
M  V30 8875 H 879.435 2.99868 -0.480898 0
M  V30 8876 H 877.02 1.46332 -0.301226 0
M  V30 8877 H 878.902 3.79084 1.84047 0
M  V30 8878 H 877.577 2.59835 1.93048 0
M  V30 8879 H 876.484 3.74001 -0.0860941 0
M  V30 8880 H 877.817 4.92111 -0.0935896 0
M  V30 8881 N 879.47 0.276058 1.55163 0
M  V30 8882 C 880.698 -0.343772 2.04024 0
M  V30 8883 C 881.113 -1.49397 1.15438 0
M  V30 8884 O 880.47 -1.81662 0.174692 0
M  V30 8885 C 880.521 -0.823885 3.51986 0
M  V30 8886 O 880.242 0.280507 4.37201 0
M  V30 8887 C 881.743 -1.51143 4.16738 0
M  V30 8888 H 878.963 -0.07828 0.666418 0
M  V30 8889 H 881.507 0.408427 2.0038 0
M  V30 8890 H 879.662 -1.52617 3.56071 0
M  V30 8891 H 880.076 -0.0887831 5.24425 0
M  V30 8892 H 881.55 -1.79878 5.2187 0
M  V30 8893 H 882.027 -2.44327 3.64967 0
M  V30 8894 H 882.633 -0.852975 4.16659 0
M  V30 8895 N 880.948 -1.576 0.00335426 0
M  V30 8896 C 882.359 -1.7875 -0.539008 0
M  V30 8897 C 882.71 -0.911097 -1.73763 0
M  V30 8898 O 881.835 -0.114476 -2.16097 0
M  V30 8899 C 882.43 -3.24177 -0.984611 0
M  V30 8900 C 880.989 -3.46412 -1.47226 0
M  V30 8901 C 880.136 -2.74024 -0.425004 0
M  V30 8902 H 883.087 -1.57032 0.229511 0
M  V30 8903 H 883.108 -3.32474 -1.85044 0
M  V30 8904 H 882.62 -3.87938 -0.112035 0
M  V30 8905 H 880.721 -2.8787 -2.36562 0
M  V30 8906 H 880.834 -4.55098 -1.49741 0
M  V30 8907 H 879.198 -2.38741 -0.887394 0
M  V30 8908 H 879.981 -3.40486 0.438662 0
M  V30 8909 N 882.426 0.269451 -1.5528 0
M  V30 8910 C 883.673 1.00058 -1.76053 0
M  V30 8911 C 884.001 1.86156 -0.563592 0
M  V30 8912 O 883.256 1.90366 0.453806 0
M  V30 8913 C 883.555 1.91 -3.02082 0
M  V30 8914 C 883.221 1.20623 -4.34466 0
M  V30 8915 C 881.883 1.01165 -4.70446 0
M  V30 8916 C 884.235 0.705695 -5.164 0
M  V30 8917 C 881.563 0.303865 -5.85913 0
M  V30 8918 C 883.915 0.0114838 -6.32599 0
M  V30 8919 C 882.579 -0.19478 -6.67216 0
M  V30 8920 H 881.849 0.366138 -0.644223 0
M  V30 8921 H 884.496 0.272563 -1.8955 0
M  V30 8922 H 882.801 2.70435 -2.835 0
M  V30 8923 H 884.498 2.47698 -3.15352 0
M  V30 8924 H 881.088 1.36781 -4.06188 0
M  V30 8925 H 885.272 0.84364 -4.89077 0
M  V30 8926 H 880.528 0.133368 -6.11255 0
M  V30 8927 H 884.702 -0.384111 -6.9534 0
M  V30 8928 H 882.329 -0.745201 -7.56539 0
M  V30 8929 N 883.904 1.48273 0.534124 0
M  V30 8930 C 885.152 1.55771 1.28762 0
M  V30 8931 C 885.473 0.231575 1.9362 0
M  V30 8932 O 884.743 -0.746533 1.81118 0
M  V30 8933 H 883.323 0.573851 0.47823 0
M  V30 8934 H 885.985 1.84712 0.621888 0
M  V30 8935 H 885.081 2.33657 2.06908 0
M  V30 8936 N 885.382 -0.782676 1.36792 0
M  V30 8937 C 886.798 -1.08169 1.17352 0
M  V30 8938 C 886.998 -2.015 0.0022037 0
M  V30 8939 O 886.054 -2.43692 -0.661093 0
M  V30 8940 C 887.367 -1.68969 2.48737 0
M  V30 8941 C 888.915 -1.81278 2.55161 0
M  V30 8942 C 889.39 -2.45492 3.86649 0
M  V30 8943 N 890.881 -2.52954 3.88032 0
M  V30 8944 C 891.616 -3.03465 4.86515 0
M  V30 8945 N 891.112 -3.54232 5.95392 0
M  V30 8946 N 892.905 -3.02239 4.73928 0
M  V30 8947 H 885.056 -0.162757 2.11775 0
M  V30 8948 H 887.319 -0.134823 0.938364 0
M  V30 8949 H 887.025 -1.07859 3.34753 0
M  V30 8950 H 886.899 -2.68397 2.65034 0
M  V30 8951 H 889.286 -2.41524 1.69559 0
M  V30 8952 H 889.367 -0.806367 2.42758 0
M  V30 8953 H 889.011 -1.85889 4.7266 0
M  V30 8954 H 888.941 -3.46718 3.96351 0
M  V30 8955 H 891.432 -2.17014 3.09376 0
M  V30 8956 H 891.745 -3.91145 6.66503 0
M  V30 8957 H 890.09 -3.52366 5.99052 0
M  V30 8958 H 893.281 -2.61871 3.87996 0
M  V30 8959 H 893.454 -3.41295 5.50837 0
M  V30 8960 N 886.86 -1.21182 -1.00761 0
M  V30 8961 C 888.1 -1.03886 -1.76031 0
M  V30 8962 C 888.464 0.420593 -1.87337 0
M  V30 8963 O 889.665 0.713994 -2.59144 0
M  V30 8964 C 887.936 -1.71394 -3.13622 0
M  V30 8965 S 889.495 -1.69319 -4.04816 0
M  V30 8966 H 886.313 -0.372327 -0.605717 0
M  V30 8967 H 888.915 -1.53885 -1.20581 0
M  V30 8968 H 887.619 -2.76773 -3.03026 0
M  V30 8969 H 887.15 -1.21564 -3.74147 0
M  V30 8970 H 889.165 -0.732434 -4.90765 0
M  V30 8971 N 888.338 1.20213 -1.01915 0
M  V30 8972 C 889.288 2.20957 -0.562327 0
M  V30 8973 C 890.272 1.56258 0.383704 0
M  V30 8974 O 891.464 1.75794 0.206255 0
M  V30 8975 C 888.593 3.43167 0.0954035 0
M  V30 8976 C 887.679 4.15028 -0.872487 0
M  V30 8977 N 888.07 4.63231 -2.03103 0
M  V30 8978 C 886.368 4.4057 -0.69385 0
M  V30 8979 C 887.069 5.18307 -2.64069 0
M  V30 8980 N 886.045 5.08522 -1.9211 0
M  V30 8981 H 889.847 2.55894 -1.44553 0
M  V30 8982 H 887.361 1.36178 -0.884831 0
M  V30 8983 H 889.358 4.14569 0.440232 0
M  V30 8984 H 888.018 3.09734 0.974413 0
M  V30 8985 H 889.029 4.58365 -2.41086 0
M  V30 8986 H 885.706 4.17276 0.136889 0
M  V30 8987 H 887.096 5.65961 -3.6213 0
M  V30 8988 N 889.816 0.795718 1.36037 0
M  V30 8989 C 891.041 0.38204 2.03851 0
M  V30 8990 C 891.466 -0.995553 1.59594 0
M  V30 8991 O 890.824 -1.64258 0.767401 0
M  V30 8992 C 890.872 0.461248 3.57638 0
M  V30 8993 O 889.976 -0.529448 4.08987 0
M  V30 8994 H 889.317 0.161227 0.644129 0
M  V30 8995 H 891.847 1.07858 1.73861 0
M  V30 8996 H 891.857 0.32712 4.06687 0
M  V30 8997 H 890.532 1.46613 3.89201 0
M  V30 8998 H 889.109 -0.35646 3.71192 0
M  V30 8999 N 891.294 -1.47756 0.548274 0
M  V30 9000 C 892.257 -2.28379 -0.193857 0
M  V30 9001 C 893.257 -1.36436 -0.850986 0
M  V30 9002 O 894.447 -1.59154 -0.70822 0
M  V30 9003 C 891.579 -3.15858 -1.28243 0
M  V30 9004 H 892.772 -2.95458 0.514231 0
M  V30 9005 H 890.325 -1.53298 0.304879 0
M  V30 9006 H 891.06 -2.5345 -2.0232 0
M  V30 9007 H 890.845 -3.83512 -0.816148 0
M  V30 9008 H 892.335 -3.76627 -1.80393 0
M  V30 9009 N 892.772 -0.284283 -1.55015 0
M  V30 9010 C 894.018 0.330352 -2.00091 0
M  V30 9011 C 894.351 1.54814 -1.17244 0
M  V30 9012 O 893.626 1.92954 -0.244753 0
M  V30 9013 C 893.909 0.703492 -3.53161 0
M  V30 9014 C 893.762 -0.522275 -4.46758 0
M  V30 9015 C 895.081 1.53645 -4.12409 0
M  V30 9016 H 892.2 0.118599 -0.727395 0
M  V30 9017 H 894.842 -0.393054 -1.8589 0
M  V30 9018 H 892.992 1.31983 -3.65394 0
M  V30 9019 H 894.664 -1.16082 -4.46456 0
M  V30 9020 H 892.907 -1.15865 -4.1804 0
M  V30 9021 H 893.578 -0.217295 -5.51572 0
M  V30 9022 H 896.054 1.01583 -4.0351 0
M  V30 9023 H 894.93 1.76633 -5.19704 0
M  V30 9024 H 895.191 2.5204 -3.63219 0
M  V30 9025 N 894.251 1.57596 -0.0117121 0
M  V30 9026 C 895.528 1.82323 0.708356 0
M  V30 9027 C 895.908 0.891947 1.91331 0
M  V30 9028 O 895.256 -0.0565984 2.2843 0
M  V30 9029 C 895.466 3.31111 1.10303 0
M  V30 9030 C 896.814 3.97147 1.50199 0
M  V30 9031 O 897.838 3.35503 1.1965 0
M  V30 9032 O 896.697 5.0576 2.07049 0
M  V30 9033 H 893.791 0.751173 0.345931 0
M  V30 9034 H 896.337 1.69657 -0.0380632 0
M  V30 9035 H 895.109 3.90534 0.24467 0
M  V30 9036 H 894.732 3.48818 1.90818 0
M  V30 9037 N 895.729 -0.261212 1.5542 0
M  V30 9038 C 897.14 -0.83138 1.67167 0
M  V30 9039 C 897.491 -1.8659 0.606525 0
M  V30 9040 O 896.616 -2.14953 -0.24985 0
M  V30 9041 C 897.211 -1.51475 3.03052 0
M  V30 9042 C 895.77 -2.0328 3.16787 0
M  V30 9043 C 894.917 -0.878903 2.63003 0
M  V30 9044 H 897.868 -0.0373102 1.58656 0
M  V30 9045 H 897.889 -2.38222 2.96699 0
M  V30 9046 H 897.401 -0.76157 3.80554 0
M  V30 9047 H 895.502 -2.81523 2.44082 0
M  V30 9048 H 895.615 -2.24001 4.2351 0
M  V30 9049 H 893.979 -1.27551 2.2046 0
M  V30 9050 H 894.762 -0.13904 3.43018 0
M  V30 9051 N 897.207 -1.48554 -0.526253 0
M  V30 9052 C 898.17 -1.62868 -1.61266 0
M  V30 9053 C 899.17 -0.501762 -1.52771 0
M  V30 9054 O 900.36 -0.76764 -1.56374 0
M  V30 9055 C 897.492 -1.60238 -3.00893 0
M  V30 9056 H 898.685 -2.59742 -1.49913 0
M  V30 9057 H 896.238 -1.37207 -0.748595 0
M  V30 9058 H 896.973 -0.648545 -3.17749 0
M  V30 9059 H 896.758 -2.42054 -3.08468 0
M  V30 9060 H 898.248 -1.73455 -3.79872 0
M  V30 9061 N 898.685 0.775411 -1.37205 0
M  V30 9062 C 899.595 1.91967 -1.34855 0
M  V30 9063 C 900.611 1.72214 -0.248656 0
M  V30 9064 O 901.787 1.95512 -0.483421 0
M  V30 9065 C 898.852 3.27038 -1.15096 0
M  V30 9066 C 897.913 3.5947 -2.34691 0
M  V30 9067 C 897.146 4.88097 -2.15865 0
M  V30 9068 O 897.369 5.58871 -1.14102 0
M  V30 9069 O 896.303 5.19507 -3.03967 0
M  V30 9070 H 900.129 1.969 -2.31223 0
M  V30 9071 H 897.714 0.917647 -1.17897 0
M  V30 9072 H 899.596 4.07837 -1.0605 0
M  V30 9073 H 898.271 3.22965 -0.217999 0
M  V30 9074 H 897.178 2.7892 -2.49308 0
M  V30 9075 H 898.511 3.68282 -3.26541 0
M  V30 9076 N 900.163 1.21714 1.00117 0
M  V30 9077 C 901.393 1.06124 1.77261 0
M  V30 9078 C 901.801 -0.391717 1.85101 0
M  V30 9079 O 901.144 -1.28347 1.31426 0
M  V30 9080 C 901.206 1.58778 3.22536 0
M  V30 9081 C 900.87 3.07289 3.38264 0
M  V30 9082 C 901.867 4.04801 3.26239 0
M  V30 9083 C 899.552 3.46574 3.63582 0
M  V30 9084 C 901.546 5.39585 3.39303 0
M  V30 9085 C 899.233 4.81509 3.76288 0
M  V30 9086 C 900.231 5.77824 3.64155 0
M  V30 9087 O 899.919 7.1031 3.7645 0
M  V30 9088 H 899.651 0.372979 0.563793 0
M  V30 9089 H 902.205 1.61589 1.26799 0
M  V30 9090 H 900.435 0.977129 3.74151 0
M  V30 9091 H 902.124 1.38974 3.81367 0
M  V30 9092 H 902.89 3.75795 3.066 0
M  V30 9093 H 898.769 2.72137 3.72106 0
M  V30 9094 H 902.313 6.14744 3.2975 0
M  V30 9095 H 898.21 5.102 3.95432 0
M  V30 9096 H 898.978 7.17774 3.93374 0
M  V30 9097 N 901.641 -1.19671 1.02551 0
M  V30 9098 C 902.871 -1.92952 0.738441 0
M  V30 9099 C 903.279 -1.75528 -0.706155 0
M  V30 9100 O 902.622 -1.0723 -1.49156 0
M  V30 9101 C 902.684 -3.45149 1.00562 0
M  V30 9102 C 902.348 -3.86341 2.44109 0
M  V30 9103 C 903.345 -3.91374 3.42231 0
M  V30 9104 C 901.03 -4.18076 2.7842 0
M  V30 9105 C 903.024 -4.27568 4.7272 0
M  V30 9106 C 900.711 -4.53943 4.0912 0
M  V30 9107 C 901.709 -4.58663 5.06081 0
M  V30 9108 O 901.397 -4.93701 6.3444 0
M  V30 9109 H 901.129 -0.619836 0.269776 0
M  V30 9110 H 903.683 -1.52852 1.37206 0
M  V30 9111 H 901.913 -3.85416 0.314849 0
M  V30 9112 H 903.602 -3.99664 0.708742 0
M  V30 9113 H 904.368 -3.67011 3.17061 0
M  V30 9114 H 900.247 -4.13589 2.03631 0
M  V30 9115 H 903.791 -4.31166 5.48399 0
M  V30 9116 H 899.688 -4.77764 4.34064 0
M  V30 9117 H 900.456 -5.11662 6.38862 0
M  V30 9118 N 903.119 -0.802921 -1.35613 0
M  V30 9119 C 904.066 -0.20874 -2.29854 0
M  V30 9120 C 905.036 0.655128 -1.52634 0
M  V30 9121 O 906.221 0.600979 -1.81088 0
M  V30 9122 C 903.361 0.639663 -3.3912 0
M  V30 9123 C 902.474 -0.244234 -4.31309 0
M  V30 9124 C 901.609 0.611825 -5.27665 0
M  V30 9125 C 900.648 -0.272698 -6.11492 0
M  V30 9126 N 899.785 0.543122 -6.99996 0
M  V30 9127 H 904.625 -1.01782 -2.80079 0
M  V30 9128 H 902.162 -0.513465 -1.37848 0
M  V30 9129 H 904.12 1.14668 -4.01132 0
M  V30 9130 H 902.75 1.41404 -2.9018 0
M  V30 9131 H 901.802 -0.869322 -3.70334 0
M  V30 9132 H 903.114 -0.925202 -4.90144 0
M  V30 9133 H 902.268 1.18412 -5.95032 0
M  V30 9134 H 901.007 1.32637 -4.69317 0
M  V30 9135 H 900.012 -0.857287 -5.43075 0
M  V30 9136 H 901.237 -0.985051 -6.71918 0
M  V30 9137 H 899.183 1.24171 -6.44141 0
M  V30 9138 H 899.1 -0.0798767 -7.55958 0
M  V30 9139 H 900.368 1.09881 -7.71717 0
M  V30 9140 N 904.597 1.47463 -0.556102 0
M  V30 9141 C 906.013 1.58134 -0.21579 0
M  V30 9142 C 906.213 1.55486 1.28166 0
M  V30 9143 O 905.269 1.45768 2.06174 0
M  V30 9144 C 906.582 2.88686 -0.841464 0
M  V30 9145 C 908.13 3.02268 -0.812591 0
M  V30 9146 C 908.605 4.35518 -1.41731 0
M  V30 9147 N 910.096 4.42151 -1.38045 0
M  V30 9148 C 910.831 5.43817 -1.81799 0
M  V30 9149 N 910.327 6.52299 -2.33404 0
M  V30 9150 N 912.12 5.34855 -1.72877 0
M  V30 9151 H 904.271 1.47428 -1.52901 0
M  V30 9152 H 906.534 0.701586 -0.637559 0
M  V30 9153 H 906.24 2.96358 -1.8938 0
M  V30 9154 H 906.114 3.7572 -0.333846 0
M  V30 9155 H 908.501 2.94194 0.231056 0
M  V30 9156 H 908.582 2.16779 -1.35796 0
M  V30 9157 H 908.226 4.44348 -2.46002 0
M  V30 9158 H 908.156 5.19737 -0.847402 0
M  V30 9159 H 910.647 3.64348 -1.00296 0
M  V30 9160 H 910.96 7.26047 -2.64717 0
M  V30 9161 H 909.305 6.53192 -2.37414 0
M  V30 9162 H 912.496 4.49004 -1.32338 0
M  V30 9163 H 912.669 6.13949 -2.07294 0
M  V30 9164 N 906.075 0.2925 1.54862 0
M  V30 9165 C 907.315 -0.32024 2.01876 0
M  V30 9166 C 907.679 -1.5174 1.17639 0
M  V30 9167 O 908.88 -2.20094 1.54312 0
M  V30 9168 C 907.151 -0.67611 3.50947 0
M  V30 9169 S 908.71 -1.27292 4.19931 0
M  V30 9170 H 905.528 -0.0987374 0.704111 0
M  V30 9171 H 908.13 0.41839 1.90971 0
M  V30 9172 H 906.834 0.203797 4.09894 0
M  V30 9173 H 906.365 -1.44575 3.65871 0
M  V30 9174 H 908.38 -2.56102 4.25002 0
M  V30 9175 N 907.553 -1.57587 0.0200696 0
M  V30 9176 C 908.5 -2.09667 -0.964791 0
M  V30 9177 C 909.47 -0.99664 -1.32877 0
M  V30 9178 O 910.655 -1.2703 -1.42366 0
M  V30 9179 C 907.795 -2.62101 -2.24493 0
M  V30 9180 C 906.908 -3.8608 -1.93821 0
M  V30 9181 C 906.043 -4.26939 -3.16064 0
M  V30 9182 C 905.082 -5.43701 -2.81169 0
M  V30 9183 N 904.219 -5.79759 -3.9601 0
M  V30 9184 H 909.059 -2.93538 -0.513751 0
M  V30 9185 H 906.596 -1.45096 -0.242 0
M  V30 9186 H 908.554 -2.90587 -2.99358 0
M  V30 9187 H 907.184 -1.81074 -2.6723 0
M  V30 9188 H 906.236 -3.64378 -1.09237 0
M  V30 9189 H 907.548 -4.71028 -1.64115 0
M  V30 9190 H 906.702 -4.56814 -3.99257 0
M  V30 9191 H 905.441 -3.40739 -3.48924 0
M  V30 9192 H 904.446 -5.13529 -1.96387 0
M  V30 9193 H 905.671 -6.31593 -2.49535 0
M  V30 9194 H 903.617 -4.96516 -4.28729 0
M  V30 9195 H 903.534 -6.59327 -3.69896 0
M  V30 9196 H 904.802 -6.14235 -4.79933 0
M  V30 9197 N 909.032 0.252966 -1.55557 0
M  V30 9198 C 910.262 0.998115 -1.8089 0
M  V30 9199 C 910.67 1.79679 -0.592623 0
M  V30 9200 O 910.013 1.78151 0.448093 0
M  V30 9201 C 910.075 1.98878 -2.99479 0
M  V30 9202 C 909.739 1.37761 -4.35742 0
M  V30 9203 C 910.736 0.783142 -5.13968 0
M  V30 9204 C 908.421 1.39879 -4.8243 0
M  V30 9205 C 910.415 0.218004 -6.37027 0
M  V30 9206 C 908.102 0.829801 -6.0544 0
M  V30 9207 C 909.1 0.240426 -6.82577 0
M  V30 9208 O 908.788 -0.319797 -8.03264 0
M  V30 9209 H 908.52 0.29963 -0.605969 0
M  V30 9210 H 911.074 0.282978 -2.03441 0
M  V30 9211 H 909.304 2.74206 -2.72669 0
M  V30 9212 H 910.993 2.59686 -3.11959 0
M  V30 9213 H 911.759 0.759326 -4.79019 0
M  V30 9214 H 907.638 1.84692 -4.22386 0
M  V30 9215 H 911.182 -0.242654 -6.97178 0
M  V30 9216 H 907.079 0.850924 -6.39867 0
M  V30 9217 H 907.847 -0.211078 -8.18228 0
M  V30 9218 N 910.51 1.48831 0.518367 0
M  V30 9219 C 911.787 1.47933 1.27966 0
M  V30 9220 C 912.167 0.197393 2.10175 0
M  V30 9221 O 911.515 -0.820656 2.13255 0
M  V30 9222 C 911.725 2.74816 2.15121 0
M  V30 9223 C 913.073 3.23613 2.74881 0
M  V30 9224 O 914.097 2.75814 2.254 0
M  V30 9225 O 912.956 4.06818 3.64913 0
M  V30 9226 H 910.05 0.591316 0.578164 0
M  V30 9227 H 912.596 1.61077 0.534065 0
M  V30 9228 H 911.368 3.59621 1.54234 0
M  V30 9229 H 910.991 2.64449 2.96905 0
M  V30 9230 N 911.988 -0.768124 1.37614 0
M  V30 9231 C 913.216 -1.55726 1.36224 0
M  V30 9232 C 913.631 -1.8873 -0.0515357 0
M  V30 9233 O 912.988 -1.51718 -1.0143 0
M  V30 9234 C 913.039 -2.86533 2.20412 0
M  V30 9235 O 912.76 -2.54942 3.56281 0
M  V30 9236 C 914.261 -3.80745 2.27041 0
M  V30 9237 H 911.481 -0.482325 0.46648 0
M  V30 9238 H 914.025 -0.95176 1.81002 0
M  V30 9239 H 912.18 -3.43496 1.79134 0
M  V30 9240 H 912.594 -3.38732 4.00451 0
M  V30 9241 H 914.068 -4.69523 2.90263 0
M  V30 9242 H 914.545 -4.20138 1.27987 0
M  V30 9243 H 915.151 -3.2971 2.68647 0
M  V30 9244 N 913.466 -1.22244 -0.994698 0
M  V30 9245 C 914.706 -1.05747 -1.7492 0
M  V30 9246 C 915.07 0.4007 -1.87772 0
M  V30 9247 O 916.271 0.686469 -2.59887 0
M  V30 9248 C 914.542 -1.7471 -3.11787 0
M  V30 9249 S 916.101 -1.73604 -4.02998 0
M  V30 9250 H 912.919 -0.378731 -0.601734 0
M  V30 9251 H 915.521 -1.55155 -1.18942 0
M  V30 9252 H 914.225 -2.79972 -3.00073 0
M  V30 9253 H 913.756 -1.25525 -3.72836 0
M  V30 9254 H 915.771 -0.784445 -4.8996 0
M  V30 9255 N 914.944 1.19125 -1.03184 0
M  V30 9256 C 915.892 2.24492 -0.608781 0
M  V30 9257 C 916.886 1.65529 0.360065 0
M  V30 9258 O 918.092 1.78546 0.22832 0
M  V30 9259 H 914.467 0.73048 -0.178616 0
M  V30 9260 H 916.438 2.5749 -1.50803 0
M  V30 9261 C 915.187 3.47693 0.0215126 0
M  V30 9262 H 914.51 3.93354 -0.715024 0
M  V30 9263 H 915.95 4.23072 0.280429 0
M  V30 9264 C 914.409 3.12088 1.26896 0
M  V30 9265 O 914.939 3.25013 2.36071 0
M  V30 9266 N 913.145 2.66494 1.15886 0
M  V30 9267 H 912.692 2.56176 0.270463 0
M  V30 9268 H 912.65 2.43042 1.99444 0
M  V30 9269 N 916.422 0.810101 1.35185 0
M  V30 9270 C 917.662 0.397802 2.00492 0
M  V30 9271 C 918.026 -1.01684 1.62863 0
M  V30 9272 O 919.227 -1.53133 2.20916 0
M  V30 9273 C 917.498 0.579524 3.5267 0
M  V30 9274 S 919.057 0.258169 4.3804 0
M  V30 9275 H 915.875 0.150904 0.694801 0
M  V30 9276 H 918.477 1.05312 1.64711 0
M  V30 9277 H 917.181 1.60901 3.77543 0
M  V30 9278 H 916.712 -0.0909886 3.93295 0
M  V30 9279 H 918.727 -0.932882 4.87352 0
M  V30 9280 N 917.9 -1.47166 0.563914 0
M  V30 9281 C 918.832 -2.28165 -0.217583 0
M  V30 9282 C 919.845 -1.37405 -0.873134 0
M  V30 9283 O 921.034 -1.6217 -0.745857 0
M  V30 9284 C 918.134 -3.11873 -1.32621 0
M  V30 9285 C 917.307 -4.30637 -0.766177 0
M  V30 9286 C 916.366 -4.95889 -1.76014 0
M  V30 9287 O 915.392 -5.54071 -1.3036 0
M  V30 9288 N 916.594 -4.91191 -3.09373 0
M  V30 9289 H 919.359 -2.95876 0.477256 0
M  V30 9290 H 916.92 -1.5687 0.40043 0
M  V30 9291 H 918.912 -3.52392 -1.99003 0
M  V30 9292 H 917.482 -2.46361 -1.92419 0
M  V30 9293 H 916.702 -3.94129 0.0745998 0
M  V30 9294 H 917.99 -5.07442 -0.371472 0
M  V30 9295 H 917.388 -4.45133 -3.49104 0
M  V30 9296 H 915.945 -5.35708 -3.71295 0
M  V30 9297 N 919.378 -0.300708 -1.54705 0
M  V30 9298 C 920.326 0.591264 -2.2496 0
M  V30 9299 C 921.32 1.13725 -1.2555 0
M  V30 9300 O 922.526 1.08793 -1.43402 0
M  V30 9301 H 918.901 0.209278 -0.722293 0
M  V30 9302 H 920.872 -0.0238175 -2.9839 0
M  V30 9303 C 919.621 1.75179 -3.00346 0
M  V30 9304 H 918.944 1.34089 -3.76643 0
M  V30 9305 H 920.384 2.35198 -3.52786 0
M  V30 9306 C 918.843 2.65574 -2.07298 0
M  V30 9307 O 919.373 3.6666 -1.64083 0
M  V30 9308 N 917.579 2.33301 -1.7326 0
M  V30 9309 H 917.126 1.51142 -2.08599 0
M  V30 9310 H 917.084 2.94049 -1.11278 0
M  V30 9311 N 920.856 1.57574 -0.0284266 0
M  V30 9312 C 921.804 2.11332 0.971675 0
M  V30 9313 C 922.798 1.03974 1.33738 0
M  V30 9314 O 924.004 1.22409 1.31969 0
M  V30 9315 H 920.379 0.675174 0.331125 0
M  V30 9316 H 922.35 2.943 0.49296 0
M  V30 9317 C 921.099 2.65496 2.24516 0
M  V30 9318 H 920.422 3.47753 1.9725 0
M  V30 9319 H 921.862 3.06757 2.92705 0
M  V30 9320 C 920.321 1.58207 2.97443 0
M  V30 9321 O 920.851 0.981496 3.89525 0
M  V30 9322 N 919.057 1.30269 2.59766 0
M  V30 9323 H 918.604 1.79294 1.84963 0
M  V30 9324 H 918.562 0.587085 3.0887 0
M  V30 9325 N 922.334 -0.244713 1.55689 0
M  V30 9326 C 923.244 -1.32447 1.93636 0
M  V30 9327 C 924.26 -1.52541 0.837086 0
M  V30 9328 O 925.436 -1.66121 1.13867 0
M  V30 9329 C 922.501 -2.65864 2.22525 0
M  V30 9330 C 921.562 -2.54273 3.45896 0
M  V30 9331 C 920.795 -3.81327 3.73397 0
M  V30 9332 O 921.018 -4.83307 3.02936 0
M  V30 9333 O 919.952 -3.79829 4.66919 0
M  V30 9334 H 923.778 -1.03255 2.85608 0
M  V30 9335 H 921.363 -0.445652 1.42598 0
M  V30 9336 H 923.245 -3.447 2.42404 0
M  V30 9337 H 921.92 -2.94784 1.33731 0
M  V30 9338 H 920.827 -1.73715 3.31321 0
M  V30 9339 H 922.16 -2.30297 4.34999 0
M  V30 9340 N 923.813 -1.49104 -0.510467 0
M  V30 9341 C 925.09 -1.48609 -1.27179 0
M  V30 9342 C 925.47 -0.208537 -2.10067 0
M  V30 9343 O 924.818 0.809335 -2.13687 0
M  V30 9344 C 925.028 -2.75953 -2.1366 0
M  V30 9345 C 926.376 -3.25067 -2.73161 0
M  V30 9346 O 927.4 -2.77005 -2.23934 0
M  V30 9347 O 926.259 -4.08747 -3.62751 0
M  V30 9348 H 923.353 -0.594374 -0.57502 0
M  V30 9349 H 925.899 -1.61358 -0.525515 0
M  V30 9350 H 924.671 -3.60434 -1.52325 0
M  V30 9351 H 924.294 -2.66019 -2.95499 0
M  V30 9352 N 925.291 0.760815 -1.38019 0
M  V30 9353 C 926.531 1.53264 -1.35239 0
M  V30 9354 C 926.895 1.91908 0.0595038 0
M  V30 9355 O 928.096 2.67962 0.212122 0
M  V30 9356 C 926.367 2.75643 -2.27499 0
M  V30 9357 S 927.926 3.6559 -2.42672 0
M  V30 9358 H 924.744 0.52457 -0.479945 0
M  V30 9359 H 927.346 0.893737 -1.73875 0
M  V30 9360 H 926.05 2.4535 -3.28986 0
M  V30 9361 H 925.581 3.44483 -1.89987 0
M  V30 9362 H 927.596 4.68124 -1.64542 0
M  V30 9363 N 926.769 1.22769 0.988202 0
M  V30 9364 C 927.699 1.02627 2.09738 0
M  V30 9365 C 928.68 -0.0543211 1.70013 0
M  V30 9366 O 929.865 0.108811 1.93895 0
M  V30 9367 C 926.995 0.608302 3.41931 0
M  V30 9368 C 925.949 1.63536 3.95525 0
M  V30 9369 C 925.275 1.07308 5.23822 0
M  V30 9370 C 926.575 3.02649 4.25677 0
M  V30 9371 H 928.269 1.954 2.26847 0
M  V30 9372 H 925.815 0.940888 1.09011 0
M  V30 9373 H 927.768 0.454478 4.18942 0
M  V30 9374 H 926.492 -0.355095 3.24664 0
M  V30 9375 H 925.151 1.77704 3.20651 0
M  V30 9376 H 924.799 0.100894 5.02899 0
M  V30 9377 H 924.499 1.75925 5.60646 0
M  V30 9378 H 926.023 0.930938 6.03462 0
M  V30 9379 H 927.437 2.91828 4.93467 0
M  V30 9380 H 925.834 3.68434 4.73684 0
M  V30 9381 H 926.904 3.52228 3.33262 0
M  V30 9382 N 928.247 -1.18576 1.03814 0
M  V30 9383 C 929.487 -1.90187 0.748882 0
M  V30 9384 C 929.851 -1.78383 -0.710177 0
M  V30 9385 O 931.052 -2.44678 -1.11293 0
M  V30 9386 C 929.323 -3.36688 1.19901 0
M  V30 9387 S 930.882 -4.26419 1.03501 0
M  V30 9388 H 927.7 -0.656765 0.272362 0
M  V30 9389 H 930.302 -1.43296 1.32991 0
M  V30 9390 H 929.006 -3.42808 2.25635 0
M  V30 9391 H 928.537 -3.88616 0.611669 0
M  V30 9392 H 930.552 -4.96176 -0.0490431 0
M  V30 9393 N 929.725 -0.817259 -1.34754 0
M  V30 9394 C 930.688 -0.240611 -2.27934 0
M  V30 9395 C 931.688 0.578219 -1.50044 0
M  V30 9396 O 932.878 0.395148 -1.69659 0
M  V30 9397 C 930.01 0.663318 -3.34384 0
M  V30 9398 H 931.203 -1.06257 -2.80445 0
M  V30 9399 H 928.756 -0.588697 -1.4479 0
M  V30 9400 H 929.491 1.50855 -2.87077 0
M  V30 9401 H 929.276 0.0777388 -3.92023 0
M  V30 9402 H 930.766 1.06076 -4.03903 0
M  V30 9403 N 931.203 1.46865 -0.571711 0
M  V30 9404 C 932.166 2.28658 0.157499 0
M  V30 9405 C 933.166 1.37773 0.829172 0
M  V30 9406 O 934.356 1.6026 0.682811 0
M  V30 9407 C 931.488 3.17859 1.23202 0
M  V30 9408 H 932.681 2.94603 -0.561171 0
M  V30 9409 H 930.234 1.52793 -0.329229 0
M  V30 9410 H 930.969 2.56637 1.98262 0
M  V30 9411 H 930.754 3.84762 0.755031 0
M  V30 9412 H 932.244 3.7945 1.74378 0
M  V30 9413 N 932.681 0.308908 1.54543 0
M  V30 9414 C 933.611 -0.556657 2.26768 0
M  V30 9415 C 934.592 -1.13145 1.27013 0
M  V30 9416 O 935.777 -1.15931 1.558 0
M  V30 9417 C 932.907 -1.72481 3.01443 0
M  V30 9418 C 931.861 -1.28001 4.08411 0
M  V30 9419 C 931.187 -2.53395 4.70845 0
M  V30 9420 C 932.487 -0.405497 5.20724 0
M  V30 9421 H 934.181 0.0457618 2.99365 0
M  V30 9422 H 931.727 0.0234495 1.43981 0
M  V30 9423 H 933.68 -2.3365 3.50693 0
M  V30 9424 H 932.404 -2.35359 2.26437 0
M  V30 9425 H 931.063 -0.69133 3.60022 0
M  V30 9426 H 930.711 -3.14604 3.92471 0
M  V30 9427 H 930.411 -2.2433 5.43093 0
M  V30 9428 H 931.935 -3.15352 5.22863 0
M  V30 9429 H 933.349 -0.923076 5.6582 0
M  V30 9430 H 931.746 -0.208282 5.99738 0
M  V30 9431 H 932.816 0.567412 4.81569 0
M  V30 9432 N 934.159 -1.57557 0.0367827 0
M  V30 9433 C 935.384 -1.96828 -0.653707 0
M  V30 9434 C 935.809 -0.913559 -1.64425 0
M  V30 9435 O 935.167 0.124749 -1.8087 0
M  V30 9436 C 935.215 -3.35189 -1.32969 0
M  V30 9437 O 934.319 -3.32095 -2.44513 0
M  V30 9438 H 933.66 -0.64157 -0.171124 0
M  V30 9439 H 936.19 -2.04351 0.100912 0
M  V30 9440 H 936.2 -3.71593 -1.68472 0
M  V30 9441 H 934.875 -4.11496 -0.603654 0
M  V30 9442 H 933.452 -3.07418 -2.11065 0
M  V30 9443 N 935.637 0.236453 -1.55816 0
M  V30 9444 C 936.862 0.98449 -1.82545 0
M  V30 9445 C 937.287 1.77755 -0.615206 0
M  V30 9446 O 936.645 1.75982 0.435895 0
M  V30 9447 C 936.693 1.88973 -3.07118 0
M  V30 9448 O 935.797 2.98298 -2.84766 0
M  V30 9449 H 935.138 0.279577 -0.602273 0
M  V30 9450 H 937.668 0.254277 -2.03014 0
M  V30 9451 H 937.678 2.3024 -3.36829 0
M  V30 9452 H 936.353 1.30671 -3.94839 0
M  V30 9453 H 934.93 2.61085 -2.6625 0
M  V30 9454 N 937.115 1.49373 0.502552 0
M  V30 9455 C 938.345 1.62252 1.27898 0
M  V30 9456 C 938.753 0.292555 1.86924 0
M  V30 9457 O 938.096 -0.731823 1.68493 0
M  V30 9458 C 938.158 2.63153 2.4493 0
M  V30 9459 C 937.822 4.07541 2.06784 0
M  V30 9460 C 938.819 4.94392 1.60849 0
M  V30 9461 C 936.504 4.53263 2.16466 0
M  V30 9462 C 938.498 6.25003 1.25098 0
M  V30 9463 C 936.185 5.83888 1.80327 0
M  V30 9464 C 937.183 6.69582 1.34718 0
M  V30 9465 O 936.871 7.97773 0.990661 0
M  V30 9466 H 936.603 0.54918 0.394179 0
M  V30 9467 H 939.157 1.96132 0.610031 0
M  V30 9468 H 937.387 2.2445 3.14895 0
M  V30 9469 H 939.076 2.65578 3.06957 0
M  V30 9470 H 939.842 4.60296 1.52816 0
M  V30 9471 H 935.721 3.86731 2.50919 0
M  V30 9472 H 939.265 6.91844 0.894269 0
M  V30 9473 H 935.162 6.17513 1.8801 0
M  V30 9474 H 935.93 8.1077 1.12227 0
M  V30 9475 N 938.594 -0.753485 1.38421 0
M  V30 9476 C 939.557 -1.84888 1.35459 0
M  V30 9477 C 940.557 -1.58764 0.255083 0
M  V30 9478 O 941.747 -1.66507 0.511978 0
M  V30 9479 C 938.879 -3.22361 1.10888 0
M  V30 9480 H 940.072 -1.88922 2.32913 0
M  V30 9481 H 937.625 -0.955199 1.23716 0
M  V30 9482 H 938.36 -3.23996 0.1404 0
M  V30 9483 H 938.145 -3.42717 1.90492 0
M  V30 9484 H 939.635 -4.02437 1.1151 0
M  V30 9485 N 940.072 -1.23292 -0.981677 0
M  V30 9486 C 941.488 -0.995295 -1.24764 0
M  V30 9487 C 941.688 0.304379 -1.99188 0
M  V30 9488 O 940.744 1.02414 -2.30798 0
M  V30 9489 C 942.057 -2.20135 -2.04844 0
M  V30 9490 C 943.605 -2.24612 -2.17988 0
M  V30 9491 C 944.08 -3.448 -3.01458 0
M  V30 9492 N 945.571 -3.45031 -3.09044 0
M  V30 9493 C 946.306 -4.34683 -3.7395 0
M  V30 9494 N 945.802 -5.34569 -4.4069 0
M  V30 9495 N 947.595 -4.22429 -3.70823 0
M  V30 9496 H 939.746 -2.06834 -0.483052 0
M  V30 9497 H 942.009 -0.906929 -0.276014 0
M  V30 9498 H 941.715 -3.14446 -1.57532 0
M  V30 9499 H 941.589 -2.21115 -3.05594 0
M  V30 9500 H 943.976 -1.30841 -2.64508 0
M  V30 9501 H 944.057 -2.27664 -1.16631 0
M  V30 9502 H 943.701 -4.38877 -2.55635 0
M  V30 9503 H 943.631 -3.38988 -4.02982 0
M  V30 9504 H 946.122 -2.72759 -2.61555 0
M  V30 9505 H 946.435 -5.99236 -4.87991 0
M  V30 9506 H 944.78 -5.3847 -4.39403 0
M  V30 9507 H 947.971 -3.43639 -3.17851 0
M  V30 9508 H 948.144 -4.92501 -4.21126 0
M  V30 9509 N 941.55 1.18024 -1.04442 0
M  V30 9510 C 942.513 2.19992 -0.643136 0
M  V30 9511 C 943.513 1.57949 0.301444 0
M  V30 9512 O 944.703 1.73986 0.0863341 0
M  V30 9513 C 941.835 3.40853 0.0565208 0
M  V30 9514 H 943.028 2.57008 -1.54554 0
M  V30 9515 H 940.581 1.31974 -0.837408 0
M  V30 9516 H 941.316 3.09373 0.972553 0
M  V30 9517 H 941.101 3.87128 -0.622439 0
M  V30 9518 H 942.591 4.16344 0.323652 0
M  V30 9519 N 943.028 0.824394 1.34319 0
M  V30 9520 C 944.268 0.419044 2.00058 0
M  V30 9521 C 944.632 -0.999504 1.63933 0
M  V30 9522 O 945.833 -1.50781 2.22527 0
M  V30 9523 C 944.104 0.616897 3.52036 0
M  V30 9524 S 945.663 0.304614 4.37741 0
M  V30 9525 H 942.481 0.158265 0.693162 0
M  V30 9526 H 945.083 1.07053 1.63585 0
M  V30 9527 H 943.787 1.64896 3.75816 0
M  V30 9528 H 943.318 -0.0492693 3.93369 0
M  V30 9529 H 945.333 -0.88114 4.88314 0
M  V30 9530 N 944.506 -1.46559 0.579492 0
M  V30 9531 C 945.734 -2.06784 0.0693648 0
M  V30 9532 C 946.149 -1.42875 -1.23419 0
M  V30 9533 O 945.506 -0.532919 -1.74546 0
M  V30 9534 C 945.557 -3.61343 -0.106511 0
M  V30 9535 O 945.278 -4.22861 1.14545 0
M  V30 9536 C 946.779 -4.38489 -0.651359 0
M  V30 9537 H 943.999 -0.66866 0.0559848 0
M  V30 9538 H 946.543 -1.88235 0.799245 0
M  V30 9539 H 944.698 -3.7933 -0.786601 0
M  V30 9540 H 945.112 -5.15691 0.95723 0
M  V30 9541 H 946.586 -5.47237 -0.723615 0
M  V30 9542 H 947.063 -4.06309 -1.66763 0
M  V30 9543 H 947.669 -4.253 -0.0062433 0
M  V30 9544 N 945.984 -0.3171 -1.54377 0
M  V30 9545 C 946.947 0.53905 -2.22771 0
M  V30 9546 C 947.947 1.04865 -1.21901 0
M  V30 9547 O 949.137 0.942108 -1.46526 0
M  V30 9548 C 946.269 1.74804 -2.92671 0
M  V30 9549 H 947.462 -0.0587417 -2.99842 0
M  V30 9550 H 945.015 -0.068107 -1.56152 0
M  V30 9551 H 945.75 2.38524 -2.1972 0
M  V30 9552 H 945.535 1.39011 -3.66631 0
M  V30 9553 H 947.025 2.35592 -3.44799 0
M  V30 9554 N 947.462 1.57535 -0.0451378 0
M  V30 9555 C 948.409 2.11176 0.931313 0
M  V30 9556 C 949.379 1.01765 1.31275 0
M  V30 9557 O 950.564 1.29279 1.40327 0
M  V30 9558 C 947.704 2.65639 2.20295 0
M  V30 9559 C 946.817 3.89114 1.87654 0
M  V30 9560 C 945.952 4.31914 3.09232 0
M  V30 9561 C 944.991 5.48105 2.72484 0
M  V30 9562 N 944.128 5.85986 3.86736 0
M  V30 9563 H 948.968 2.94318 0.466986 0
M  V30 9564 H 946.505 1.45462 0.218886 0
M  V30 9565 H 948.463 2.95312 2.94697 0
M  V30 9566 H 947.093 1.85303 2.64316 0
M  V30 9567 H 946.145 3.6607 1.03427 0
M  V30 9568 H 947.457 4.7358 1.56601 0
M  V30 9569 H 946.611 4.63108 3.91939 0
M  V30 9570 H 945.35 3.46247 3.43459 0
M  V30 9571 H 944.355 5.16589 1.88192 0
M  V30 9572 H 945.58 6.35482 2.39455 0
M  V30 9573 H 943.526 5.03273 4.20775 0
M  V30 9574 H 943.443 6.65129 3.5936 0
M  V30 9575 H 944.711 6.21793 4.701 0
M  V30 9576 N 948.94 -0.228186 1.55939 0
M  V30 9577 C 950.188 -0.951668 1.78291 0
M  V30 9578 C 950.509 -1.85132 0.612474 0
M  V30 9579 O 949.779 -1.92356 -0.370942 0
M  V30 9580 H 948.359 -0.354388 0.657585 0
M  V30 9581 H 951.021 -0.241635 1.93396 0
M  V30 9582 H 950.117 -1.56239 2.70177 0
M  V30 9583 N 950.418 -1.49637 -0.494624 0
M  V30 9584 C 951.664 -1.59681 -1.25019 0
M  V30 9585 C 951.997 -0.285511 -1.9209 0
M  V30 9586 O 951.272 0.711398 -1.81023 0
M  V30 9587 C 951.555 -2.76058 -2.31222 0
M  V30 9588 C 951.408 -4.17002 -1.68611 0
M  V30 9589 C 952.727 -2.88056 -3.32734 0
M  V30 9590 H 949.846 -0.581209 -0.453172 0
M  V30 9591 H 952.488 -1.81944 -0.547391 0
M  V30 9592 H 950.638 -2.57207 -2.91164 0
M  V30 9593 H 952.31 -4.47385 -1.12447 0
M  V30 9594 H 950.553 -4.22352 -0.989991 0
M  V30 9595 H 951.224 -4.94316 -2.45674 0
M  V30 9596 H 953.7 -3.05237 -2.82789 0
M  V30 9597 H 952.576 -3.71151 -4.04399 0
M  V30 9598 H 952.837 -1.97676 -3.95445 0
M  V30 9599 N 951.896 0.746133 -1.38819 0
M  V30 9600 C 952.829 1.86833 -1.31029 0
M  V30 9601 C 953.807 1.61533 -0.185948 0
M  V30 9602 O 954.991 1.84942 -0.364529 0
M  V30 9603 C 952.118 3.22596 -1.03198 0
M  V30 9604 C 951.164 3.66772 -2.17671 0
M  V30 9605 S 951.997 3.77438 -3.7987 0
M  V30 9606 C 953.153 5.16008 -3.54241 0
M  V30 9607 H 953.386 1.93155 -2.26005 0
M  V30 9608 H 950.919 0.909872 -1.24742 0
M  V30 9609 H 952.877 4.00995 -0.878237 0
M  V30 9610 H 951.538 3.13943 -0.0992704 0
M  V30 9611 H 950.731 4.65266 -1.93762 0
M  V30 9612 H 950.333 2.95547 -2.2919 0
M  V30 9613 H 952.625 6.01996 -3.10816 0
M  V30 9614 H 953.568 5.44941 -4.52156 0
M  V30 9615 H 953.976 4.85158 -2.88587 0
M  V30 9616 N 953.375 1.23811 0.975125 0
M  V30 9617 C 954.305 1.04846 2.08638 0
M  V30 9618 C 955.286 -0.0362859 1.70061 0
M  V30 9619 O 956.471 0.12937 1.93769 0
M  V30 9620 C 953.601 0.644534 3.41267 0
M  V30 9621 C 952.555 1.67722 3.93768 0
M  V30 9622 C 951.881 1.12857 5.22654 0
M  V30 9623 C 953.181 3.07147 4.22443 0
M  V30 9624 H 954.875 1.97795 2.24761 0
M  V30 9625 H 952.421 0.952397 1.08006 0
M  V30 9626 H 954.374 0.498887 4.18436 0
M  V30 9627 H 953.098 -0.320641 3.25022 0
M  V30 9628 H 951.757 1.81095 3.18748 0
M  V30 9629 H 951.405 0.154227 5.02764 0
M  V30 9630 H 951.105 1.81862 5.58749 0
M  V30 9631 H 952.629 0.994891 6.0244 0
M  V30 9632 H 954.043 2.97045 4.90344 0
M  V30 9633 H 952.44 3.73437 4.6975 0
M  V30 9634 H 953.51 3.55743 3.29507 0
M  V30 9635 N 954.853 -1.17469 1.05066 0
M  V30 9636 C 956.099 -1.88225 0.7709 0
M  V30 9637 C 956.454 -1.7943 -0.694452 0
M  V30 9638 O 955.747 -1.19059 -1.50118 0
M  V30 9639 C 955.941 -3.37211 1.18421 0
M  V30 9640 C 955.77 -3.60508 2.68819 0
M  V30 9641 C 954.54 -3.77303 3.36111 0
M  V30 9642 C 956.738 -3.60258 3.6704 0
M  V30 9643 N 954.72 -3.88433 4.75387 0
M  V30 9644 C 956.091 -3.77223 4.92039 0
M  V30 9645 C 958.146 -3.43401 3.60527 0
M  V30 9646 C 956.849 -3.79075 6.11305 0
M  V30 9647 C 958.875 -3.46541 4.79232 0
M  V30 9648 C 958.237 -3.64013 6.03054 0
M  V30 9649 H 954.336 -0.706941 0.334303 0
M  V30 9650 H 956.92 -1.41029 1.34235 0
M  V30 9651 H 955.091 -3.83079 0.640724 0
M  V30 9652 H 956.823 -3.95578 0.854411 0
M  V30 9653 H 953.578 -3.77105 2.86512 0
M  V30 9654 H 954.002 -3.97797 5.47802 0
M  V30 9655 H 958.644 -3.28831 2.65762 0
M  V30 9656 H 956.362 -3.92431 7.06416 0
M  V30 9657 H 959.948 -3.34758 4.75845 0
M  V30 9658 H 958.828 -3.66345 6.93369 0
M  V30 9659 N 956.331 -0.831506 -1.3388 0
M  V30 9660 C 957.579 -0.422837 -1.97627 0
M  V30 9661 C 957.9 1.01961 -1.6622 0
M  V30 9662 O 957.17 1.70916 -0.957323 0
M  V30 9663 H 955.75 -0.153365 -0.731087 0
M  V30 9664 H 958.412 -1.06284 -1.6337 0
M  V30 9665 H 957.508 -0.548858 -3.07236 0
M  V30 9666 N 957.809 1.4625 -0.587256 0
M  V30 9667 C 959.055 2.0323 -0.0830359 0
M  V30 9668 C 959.41 1.45007 1.26455 0
M  V30 9669 O 958.703 0.607494 1.81714 0
M  V30 9670 C 958.897 3.57382 0.036328 0
M  V30 9671 C 958.726 4.30556 -1.29814 0
M  V30 9672 C 957.496 4.69285 -1.87349 0
M  V30 9673 C 959.694 4.63806 -2.22236 0
M  V30 9674 N 957.676 5.27229 -3.14488 0
M  V30 9675 C 959.047 5.22368 -3.33964 0
M  V30 9676 C 961.102 4.45738 -2.2186 0
M  V30 9677 C 959.805 5.64769 -4.45454 0
M  V30 9678 C 961.831 4.89158 -3.32383 0
M  V30 9679 C 961.193 5.47795 -4.42832 0
M  V30 9680 H 957.292 0.77856 -0.0732716 0
M  V30 9681 H 959.876 1.78343 -0.781152 0
M  V30 9682 H 958.047 3.81973 0.703621 0
M  V30 9683 H 959.779 4.01009 0.545347 0
M  V30 9684 H 956.534 4.5219 -1.40789 0
M  V30 9685 H 956.958 5.60719 -3.79372 0
M  V30 9686 H 961.6 3.99735 -1.37739 0
M  V30 9687 H 959.318 6.09748 -5.30314 0
M  V30 9688 H 962.904 4.76926 -3.33216 0
M  V30 9689 H 961.784 5.80778 -5.26941 0
M  V30 9690 N 959.287 0.325282 1.54207 0
M  V30 9691 C 960.703 -0.0273036 1.59577 0
M  V30 9692 C 960.903 -1.50329 1.34177 0
M  V30 9693 O 959.959 -2.25951 1.12705 0
M  V30 9694 C 961.272 0.392468 2.98128 0
M  V30 9695 C 962.82 0.343269 3.11112 0
M  V30 9696 C 963.295 0.738229 4.52011 0
M  V30 9697 N 964.786 0.691701 4.58006 0
M  V30 9698 C 965.521 0.969479 5.65145 0
M  V30 9699 N 965.017 1.31448 6.80216 0
M  V30 9700 N 966.81 0.894926 5.5493 0
M  V30 9701 H 958.961 1.28692 1.68974 0
M  V30 9702 H 961.224 0.523399 0.790416 0
M  V30 9703 H 960.93 1.42089 3.2172 0
M  V30 9704 H 960.804 -0.241651 3.76425 0
M  V30 9705 H 963.191 -0.675946 2.87254 0
M  V30 9706 H 963.272 1.01235 2.34915 0
M  V30 9707 H 962.916 1.75537 4.76602 0
M  V30 9708 H 962.846 0.0468226 5.26579 0
M  V30 9709 H 965.337 0.436975 3.75365 0
M  V30 9710 H 965.65 1.51177 7.57869 0
M  V30 9711 H 963.995 1.35276 6.81708 0
M  V30 9712 H 967.186 0.624876 4.6391 0
M  V30 9713 H 967.359 1.11476 6.38339 0
M  V30 9714 N 960.765 -1.57509 0.0534917 0
M  V30 9715 C 961.675 -2.15152 -0.935249 0
M  V30 9716 C 962.691 -1.10991 -1.34003 0
M  V30 9717 O 963.867 -1.43171 -1.41648 0
M  V30 9718 C 960.932 -2.68699 -2.19093 0
M  V30 9719 C 959.993 -3.87666 -1.84428 0
M  V30 9720 C 959.226 -4.3865 -3.0401 0
M  V30 9721 O 959.449 -3.887 -4.17455 0
M  V30 9722 O 958.383 -5.30209 -2.84889 0
M  V30 9723 H 962.209 -2.99962 -0.475009 0
M  V30 9724 H 959.794 -1.48446 -0.16854 0
M  V30 9725 H 961.676 -3.03098 -2.92762 0
M  V30 9726 H 960.351 -1.86958 -2.6425 0
M  V30 9727 H 959.258 -3.58151 -1.08068 0
M  V30 9728 H 960.591 -4.70643 -1.44068 0
M  V30 9729 N 962.243 0.219913 -1.56058 0
M  V30 9730 C 963.193 1.27606 -1.88946 0
M  V30 9731 C 964.177 1.42209 -0.752691 0
M  V30 9732 O 965.369 1.44996 -1.01514 0
M  V30 9733 C 962.498 2.62614 -2.21108 0
M  V30 9734 C 961.584 2.51906 -3.4118 0
M  V30 9735 N 961.975 2.10851 -4.59756 0
M  V30 9736 C 960.273 2.82861 -3.44827 0
M  V30 9737 C 960.974 2.11434 -5.41914 0
M  V30 9738 N 959.95 2.51985 -4.81669 0
M  V30 9739 H 963.752 0.94957 -2.78137 0
M  V30 9740 H 961.266 0.428468 -1.56646 0
M  V30 9741 H 963.263 3.38869 -2.42844 0
M  V30 9742 H 961.923 2.96108 -1.3323 0
M  V30 9743 H 962.934 1.81956 -4.84884 0
M  V30 9744 H 959.611 3.20716 -2.67297 0
M  V30 9745 H 961.001 1.81803 -6.46836 0
M  V30 9746 N 963.721 1.49897 0.486681 0
M  V30 9747 C 964.967 1.60342 1.2417 0
M  V30 9748 C 965.3 0.295694 1.91936 0
M  V30 9749 O 964.575 -0.701788 1.81398 0
M  V30 9750 C 964.858 2.77281 2.29755 0
M  V30 9751 C 964.711 4.1789 1.66397 0
M  V30 9752 C 966.03 2.89817 3.31201 0
M  V30 9753 H 963.149 0.583605 0.450083 0
M  V30 9754 H 965.791 1.82232 0.537734 0
M  V30 9755 H 963.941 2.58748 2.89796 0
M  V30 9756 H 965.613 4.47975 1.10073 0
M  V30 9757 H 963.856 4.22872 0.967579 0
M  V30 9758 H 964.527 4.95612 2.43049 0
M  V30 9759 H 967.003 3.06732 2.81167 0
M  V30 9760 H 965.879 3.7329 4.02425 0
M  V30 9761 H 966.14 1.9977 3.94391 0
M  V30 9762 N 965.199 -0.738761 1.39212 0
M  V30 9763 C 966.439 -1.51093 1.3766 0
M  V30 9764 C 966.803 -1.91978 -0.0289655 0
M  V30 9765 O 968.004 -2.68265 -0.169465 0
M  V30 9766 C 966.275 -2.71988 2.31856 0
M  V30 9767 S 967.834 -3.61683 2.48458 0
M  V30 9768 H 964.652 -0.516868 0.48823 0
M  V30 9769 H 967.254 -0.865961 1.75275 0
M  V30 9770 H 965.958 -2.40085 3.32847 0
M  V30 9771 H 965.489 -3.41417 1.95443 0
M  V30 9772 H 967.504 -4.65447 1.71969 0
M  V30 9773 N 966.677 -1.24326 -0.968545 0
M  V30 9774 C 967.625 -1.03256 -2.08425 0
M  V30 9775 C 968.619 0.0322356 -1.69369 0
M  V30 9776 O 969.825 -0.122251 -1.79584 0
M  V30 9777 H 966.2 -0.31688 -0.681976 0
M  V30 9778 H 968.171 -1.97873 -2.23358 0
M  V30 9779 C 966.92 -0.653144 -3.4151 0
M  V30 9780 H 966.243 -1.46424 -3.72021 0
M  V30 9781 H 967.683 -0.545316 -4.20479 0
M  V30 9782 C 966.142 0.639674 -3.30771 0
M  V30 9783 O 966.672 1.68563 -3.64622 0
M  V30 9784 N 964.878 0.620074 -2.83907 0
M  V30 9785 H 964.425 -0.231449 -2.56558 0
M  V30 9786 H 964.383 1.48528 -2.77104 0
M  V30 9787 N 968.156 1.1691 -1.05688 0
M  V30 9788 C 969.103 2.21095 -0.662246 0
M  V30 9789 C 970.073 1.62623 0.338083 0
M  V30 9790 O 971.258 1.89428 0.228362 0
M  V30 9791 C 968.398 3.45066 -0.0484018 0
M  V30 9792 C 967.511 4.17809 -1.09817 0
M  V30 9793 C 966.646 5.29281 -0.451114 0
M  V30 9794 C 965.685 5.93817 -1.48484 0
M  V30 9795 N 964.822 6.96793 -0.861588 0
M  V30 9796 H 969.662 2.54204 -1.55513 0
M  V30 9797 H 967.199 1.24863 -0.777665 0
M  V30 9798 H 969.157 4.15932 0.324978 0
M  V30 9799 H 967.787 3.12526 0.807918 0
M  V30 9800 H 966.839 3.45608 -1.58932 0
M  V30 9801 H 968.151 4.61907 -1.88265 0
M  V30 9802 H 967.305 6.06695 -0.0244251 0
M  V30 9803 H 966.044 4.8633 0.365306 0
M  V30 9804 H 965.049 5.1513 -1.92149 0
M  V30 9805 H 966.274 6.38848 -2.30325 0
M  V30 9806 H 964.22 6.55967 -0.0657688 0
M  V30 9807 H 964.137 7.39229 -1.58354 0
M  V30 9808 H 965.405 7.78142 -0.45984 0
M  V30 9809 N 969.634 0.838594 1.33437 0
M  V30 9810 C 970.911 0.356112 1.92331 0
M  V30 9811 C 971.291 -1.1585 1.76471 0
M  V30 9812 O 970.639 -1.97281 1.15293 0
M  V30 9813 C 970.849 0.802715 3.39643 0
M  V30 9814 C 972.197 0.810575 4.16791 0
M  V30 9815 O 973.221 0.746304 3.48294 0
M  V30 9816 O 972.08 0.898082 5.3907 0
M  V30 9817 H 969.174 0.100711 0.820845 0
M  V30 9818 H 971.72 0.924428 1.42311 0
M  V30 9819 H 970.492 1.84529 3.45057 0
M  V30 9820 H 970.115 0.210956 3.9704 0
M  V30 9821 N 971.112 -1.45937 0.595003 0
M  V30 9822 C 972.358 -2.0262 0.0854317 0
M  V30 9823 C 972.691 -1.46402 -1.27594 0
M  V30 9824 O 971.966 -0.633823 -1.83883 0
M  V30 9825 C 972.249 -3.60085 0.0329075 0
M  V30 9826 C 972.102 -4.26663 1.42405 0
M  V30 9827 C 973.421 -4.35101 -0.661426 0
M  V30 9828 H 970.54 -0.736282 0.0325196 0
M  V30 9829 H 973.182 -1.73938 0.764563 0
M  V30 9830 H 971.332 -3.84652 -0.545439 0
M  V30 9831 H 973.004 -4.13321 2.04851 0
M  V30 9832 H 971.247 -3.85549 1.98833 0
M  V30 9833 H 971.918 -5.35497 1.33965 0
M  V30 9834 H 974.394 -4.15753 -0.169977 0
M  V30 9835 H 973.27 -5.44829 -0.667243 0
M  V30 9836 H 973.531 -4.07053 -1.72513 0
M  V30 9837 N 972.59 -0.333456 -1.54032 0
M  V30 9838 C 973.838 0.265608 -2.00347 0
M  V30 9839 C 974.159 1.51873 -1.2231 0
M  V30 9840 O 973.429 1.93142 -0.327549 0
M  V30 9841 H 972.009 0.101135 -0.740122 0
M  V30 9842 H 974.671 -0.452285 -1.8958 0
M  V30 9843 H 973.767 0.51511 -3.0782 0
M  V30 9844 N 974.068 1.57479 -0.061844 0
M  V30 9845 C 975.293 1.97843 0.622311 0
M  V30 9846 C 975.718 0.939602 1.62951 0
M  V30 9847 O 975.076 -0.095958 1.81046 0
M  V30 9848 C 975.124 3.37262 1.2762 0
M  V30 9849 O 974.228 3.35943 2.39199 0
M  V30 9850 H 973.569 0.644212 0.160896 0
M  V30 9851 H 976.099 2.04165 -0.133409 0
M  V30 9852 H 976.109 3.74226 1.62539 0
M  V30 9853 H 974.784 4.12404 0.538112 0
M  V30 9854 H 973.361 3.10737 2.06148 0
M  V30 9855 N 975.546 -0.211634 1.56173 0
M  V30 9856 C 976.786 -0.941505 1.81425 0
M  V30 9857 C 977.15 -1.8113 0.636862 0
M  V30 9858 O 978.351 -2.57568 0.768907 0
M  V30 9859 C 976.622 -1.75002 3.11623 0
M  V30 9860 S 978.181 -2.53418 3.58225 0
M  V30 9861 H 974.999 -0.316088 0.636875 0
M  V30 9862 H 977.601 -0.206244 1.94409 0
M  V30 9863 H 976.305 -1.10136 3.95346 0
M  V30 9864 H 975.836 -2.5274 3.01473 0
M  V30 9865 H 977.851 -3.77234 3.22349 0
M  V30 9866 N 977.024 -1.50153 -0.478725 0
M  V30 9867 C 978.435 -1.53706 -1.05978 0
M  V30 9868 C 978.786 -0.336112 -1.933 0
M  V30 9869 O 977.911 0.551803 -2.09246 0
M  V30 9870 C 978.506 -2.78541 -1.92874 0
M  V30 9871 C 977.065 -2.848 -2.46102 0
M  V30 9872 C 976.212 -2.47902 -1.24257 0
M  V30 9873 H 979.163 -1.56528 -0.261664 0
M  V30 9874 H 979.184 -2.59964 -2.77847 0
M  V30 9875 H 978.696 -3.6593 -1.29293 0
M  V30 9876 H 976.797 -2.01744 -3.13257 0
M  V30 9877 H 976.91 -3.87511 -2.81731 0
M  V30 9878 H 975.274 -2.0017 -1.57493 0
M  V30 9879 H 976.057 -3.3759 -0.62351 0
M  V30 9880 N 978.502 0.731368 -1.39602 0
M  V30 9881 C 979.45 1.86676 -1.38761 0
M  V30 9882 C 980.444 1.6723 -0.270247 0
M  V30 9883 O 981.65 1.74528 -0.440471 0
M  V30 9884 H 978.025 0.614553 -0.433391 0
M  V30 9885 H 979.996 1.84501 -2.34525 0
M  V30 9886 C 978.745 3.24394 -1.25155 0
M  V30 9887 H 978.068 3.39955 -2.10406 0
M  V30 9888 H 979.508 4.04019 -1.28625 0
M  V30 9889 C 977.967 3.36877 0.0396976 0
M  V30 9890 O 978.497 3.88833 1.00854 0
M  V30 9891 N 976.703 2.90414 0.103965 0
M  V30 9892 H 976.25 2.48321 -0.685155 0
M  V30 9893 H 976.208 2.99146 0.967435 0
M  V30 9894 N 979.98 1.24838 0.961938 0
M  V30 9895 C 981.205 1.11967 1.7458 0
M  V30 9896 C 981.63 -0.323287 1.85301 0
M  V30 9897 O 980.988 -1.23412 1.32812 0
M  V30 9898 C 981.036 1.77066 3.14134 0
M  V30 9899 O 980.14 1.04534 3.98932 0
M  V30 9900 H 979.481 0.391338 0.536424 0
M  V30 9901 H 982.011 1.65259 1.20626 0
M  V30 9902 H 982.021 1.83056 3.64629 0
M  V30 9903 H 980.696 2.82052 3.05646 0
M  V30 9904 H 979.273 1.06372 3.57407 0
M  V30 9905 N 981.458 -1.16348 1.06306 0
M  V30 9906 C 982.39 -2.20316 0.631929 0
M  V30 9907 C 983.403 -1.59819 -0.310133 0
M  V30 9908 O 984.592 -1.78213 -0.101103 0
M  V30 9909 C 981.692 -3.3877 -0.0937645 0
M  V30 9910 C 980.865 -4.28826 0.861816 0
M  V30 9911 C 979.924 -5.25908 0.175346 0
M  V30 9912 O 978.95 -5.63363 0.813039 0
M  V30 9913 N 980.152 -5.70307 -1.08305 0
M  V30 9914 H 982.917 -2.57925 1.52626 0
M  V30 9915 H 980.478 -1.31358 0.946392 0
M  V30 9916 H 982.47 -4.00759 -0.563412 0
M  V30 9917 H 981.04 -2.99666 -0.889904 0
M  V30 9918 H 980.26 -3.64098 1.51083 0
M  V30 9919 H 981.548 -4.85875 1.51007 0
M  V30 9920 H 980.946 -5.4197 -1.62127 0
M  V30 9921 H 979.503 -6.34387 -1.49656 0
M  V30 9922 N 982.937 -0.845659 -1.3299 0
M  V30 9923 C 984.183 -0.445311 -1.9785 0
M  V30 9924 C 984.516 0.994476 -1.66805 0
M  V30 9925 O 983.791 1.69636 -0.95151 0
M  V30 9926 C 984.074 -0.674371 -3.53729 0
M  V30 9927 C 983.927 -2.16192 -3.94437 0
M  V30 9928 C 985.246 -0.124908 -4.39923 0
M  V30 9929 H 982.365 -0.163269 -0.718688 0
M  V30 9930 H 985.007 -1.06242 -1.5752 0
M  V30 9931 H 983.157 -0.149091 -3.88214 0
M  V30 9932 H 984.829 -2.75259 -3.70176 0
M  V30 9933 H 983.072 -2.64386 -3.43922 0
M  V30 9934 H 983.743 -2.27292 -5.03033 0
M  V30 9935 H 986.219 -0.573986 -4.12122 0
M  V30 9936 H 985.095 -0.314816 -5.47996 0
M  V30 9937 H 985.356 0.971758 -4.31288 0
M  V30 9938 N 984.415 1.45619 -0.602734 0
M  V30 9939 C 985.662 2.02272 -0.0960337 0
M  V30 9940 C 985.99 1.47177 1.27159 0
M  V30 9941 O 985.245 0.634593 1.85125 0
M  V30 9942 C 985.544 3.574 -0.00157909 0
M  V30 9943 C 985.21 4.31626 -1.30422 0
M  V30 9944 C 983.872 4.51622 -1.66106 0
M  V30 9945 C 986.224 4.74091 -2.16535 0
M  V30 9946 C 983.552 5.11338 -2.87663 0
M  V30 9947 C 985.904 5.35151 -3.37336 0
M  V30 9948 C 984.568 5.53371 -3.73278 0
M  V30 9949 H 983.838 0.740166 -0.0351412 0
M  V30 9950 H 986.485 1.74744 -0.783382 0
M  V30 9951 H 984.79 3.84179 0.769008 0
M  V30 9952 H 986.487 3.98934 0.406549 0
M  V30 9953 H 983.077 4.16372 -1.01647 0
M  V30 9954 H 987.261 4.5838 -1.90266 0
M  V30 9955 H 982.517 5.23634 -3.15622 0
M  V30 9956 H 986.691 5.67011 -4.04316 0
M  V30 9957 H 984.318 5.99412 -4.67556 0
M  V30 9958 N 985.893 0.34162 1.53853 0
M  V30 9959 C 986.823 -0.508431 2.27897 0
M  V30 9960 C 987.804 -1.10425 1.29384 0
M  V30 9961 O 988.989 -1.126 1.58224 0
M  V30 9962 C 986.119 -1.66048 3.05034 0
M  V30 9963 C 985.073 -1.19309 4.11035 0
M  V30 9964 C 984.399 -2.4335 4.76114 0
M  V30 9965 C 985.699 -0.294952 5.21467 0
M  V30 9966 H 987.393 0.109251 2.99201 0
M  V30 9967 H 984.939 0.0539847 1.43899 0
M  V30 9968 H 986.892 -2.26158 3.5557 0
M  V30 9969 H 985.616 -2.30503 2.31379 0
M  V30 9970 H 984.275 -0.614809 3.61408 0
M  V30 9971 H 983.923 -3.06208 3.99056 0
M  V30 9972 H 983.623 -2.1276 5.47729 0
M  V30 9973 H 985.147 -3.0419 5.29434 0
M  V30 9974 H 986.561 -0.80285 5.67651 0
M  V30 9975 H 984.958 -0.0810221 6.00045 0
M  V30 9976 H 986.028 0.669433 4.80257 0
M  V30 9977 N 987.371 -1.57444 0.0701946 0
M  V30 9978 C 988.601 -1.97467 -0.607476 0
M  V30 9979 C 989.009 -0.947232 -1.63781 0
M  V30 9980 O 988.352 0.074652 -1.83548 0
M  V30 9981 C 988.414 -3.33795 -1.33495 0
M  V30 9982 C 988.078 -4.54697 -0.458265 0
M  V30 9983 C 989.075 -5.19127 0.283488 0
M  V30 9984 C 986.76 -5.00833 -0.383612 0
M  V30 9985 C 988.754 -6.28043 1.08813 0
M  V30 9986 C 986.441 -6.09622 0.424705 0
M  V30 9987 C 987.439 -6.7309 1.15925 0
M  V30 9988 O 987.127 -7.79785 1.95423 0
M  V30 9989 H 986.859 -0.654405 -0.169501 0
M  V30 9990 H 989.413 -2.04931 0.138651 0
M  V30 9991 H 987.643 -3.22941 -2.12711 0
M  V30 9992 H 989.332 -3.58435 -1.9047 0
M  V30 9993 H 990.098 -4.84428 0.235397 0
M  V30 9994 H 985.977 -4.51211 -0.944968 0
M  V30 9995 H 989.521 -6.77513 1.66197 0
M  V30 9996 H 985.418 -6.43755 0.474366 0
M  V30 9997 H 986.186 -7.96655 1.87838 0
M  V30 9998 N 988.849 0.203349 -1.56283 0
M  V30 9999 C 989.797 1.27157 -1.94766 0
M  V30 10000 C 990.791 1.4756 -0.832005 0
M  V30 10001 O 991.997 1.48519 -1.01696 0
M  V30 10002 H 988.372 0.426712 -0.61921 0
M  V30 10003 H 990.343 0.919921 -2.83866 0
M  V30 10004 C 989.092 2.6108 -2.29636 0
M  V30 10005 H 988.415 2.46193 -3.15006 0
M  V30 10006 H 989.855 3.34591 -2.60433 0
M  V30 10007 C 988.314 3.17456 -1.12799 0
M  V30 10008 O 988.844 3.99717 -0.398661 0
M  V30 10009 N 987.05 2.76084 -0.906975 0
M  V30 10010 H 986.597 2.09294 -1.50179 0
M  V30 10011 H 986.555 3.14143 -0.127005 0
M  V30 10012 N 990.327 1.50405 0.470755 0
M  V30 10013 C 991.257 1.72222 1.57676 0
M  V30 10014 C 992.238 0.57121 1.60222 0
M  V30 10015 O 993.423 0.810381 1.76484 0
M  V30 10016 C 990.553 1.81666 2.95998 0
M  V30 10017 C 989.507 2.96857 3.08318 0
M  V30 10018 C 988.833 2.91445 4.4829 0
M  V30 10019 C 990.133 4.37361 2.85504 0
M  V30 10020 H 991.827 2.64825 1.39671 0
M  V30 10021 H 989.373 1.27438 0.67049 0
M  V30 10022 H 991.326 1.95514 3.73299 0
M  V30 10023 H 990.05 0.856856 3.1516 0
M  V30 10024 H 988.709 2.82661 2.33449 0
M  V30 10025 H 988.357 1.93309 4.64371 0
M  V30 10026 H 988.057 3.68776 4.57469 0
M  V30 10027 H 989.581 3.07341 5.27611 0
M  V30 10028 H 990.995 4.52081 3.52555 0
M  V30 10029 H 989.392 5.16145 3.06127 0
M  V30 10030 H 990.462 4.49708 1.81359 0
M  V30 10031 N 991.805 -0.723954 1.39988 0
M  V30 10032 C 993.033 -1.51313 1.4111 0
M  V30 10033 C 993.448 -1.88798 0.00853333 0
M  V30 10034 O 992.805 -1.54868 -0.965516 0
M  V30 10035 C 992.856 -2.79375 2.29416 0
M  V30 10036 O 992.577 -2.43478 3.64211 0
M  V30 10037 C 994.078 -3.7333 2.3904 0
M  V30 10038 H 991.298 -0.46724 0.481589 0
M  V30 10039 H 993.842 -0.893694 1.83938 0
M  V30 10040 H 991.997 -3.37624 1.89971 0
M  V30 10041 H 992.411 -3.25821 4.11024 0
M  V30 10042 H 993.885 -4.60051 3.05053 0
M  V30 10043 H 994.362 -4.15854 1.41289 0
M  V30 10044 H 994.968 -3.20996 2.79001 0
M  V30 10045 N 993.283 -1.25346 -0.955304 0
M  V30 10046 C 994.511 -1.12793 -1.73451 0
M  V30 10047 C 994.926 0.318344 -1.86097 0
M  V30 10048 O 994.283 1.21897 -1.35821 0
M  V30 10049 C 994.334 -1.77603 -3.14864 0
M  V30 10050 O 994.055 -3.16577 -3.02837 0
M  V30 10051 C 995.556 -1.70821 -4.09066 0
M  V30 10052 H 992.776 -0.393457 -0.543537 0
M  V30 10053 H 995.32 -1.65696 -1.19855 0
M  V30 10054 H 993.475 -1.28673 -3.65407 0
M  V30 10055 H 993.889 -3.48433 -3.92039 0
M  V30 10056 H 995.363 -2.2083 -5.05903 0
M  V30 10057 H 995.84 -0.671858 -4.34031 0
M  V30 10058 H 996.446 -2.19237 -3.64438 0
M  V30 10059 N 994.761 1.15782 -1.06922 0
M  V30 10060 C 996.001 1.88135 -0.799043 0
M  V30 10061 C 996.365 1.80203 0.662632 0
M  V30 10062 O 997.566 2.47543 1.04767 0
M  V30 10063 C 995.837 3.3339 -1.28786 0
M  V30 10064 S 997.396 4.23525 -1.1477 0
M  V30 10065 H 994.214 0.649313 -0.289679 0
M  V30 10066 H 996.816 1.3972 -1.36743 0
M  V30 10067 H 995.52 3.36705 -2.34645 0
M  V30 10068 H 995.051 3.86857 -0.714489 0
M  V30 10069 H 997.066 4.96131 -0.0825264 0
M  V30 10070 N 996.239 0.8527 1.3254 0
M  V30 10071 C 997.171 0.253181 2.27797 0
M  V30 10072 C 998.184 -0.573977 1.52346 0
M  V30 10073 O 999.373 -0.398786 1.73988 0
M  V30 10074 C 996.473 -0.661034 3.32391 0
M  V30 10075 C 995.646 0.12984 4.37207 0
M  V30 10076 C 994.705 -0.709837 5.2139 0
M  V30 10077 O 993.731 -0.144056 5.69018 0
M  V30 10078 N 994.933 -2.0249 5.44039 0
M  V30 10079 H 997.698 1.07171 2.79883 0
M  V30 10080 H 995.259 0.712491 1.45379 0
M  V30 10081 H 997.251 -1.22806 3.85617 0
M  V30 10082 H 995.821 -1.38025 2.80478 0
M  V30 10083 H 995.041 0.878289 3.84291 0
M  V30 10084 H 996.329 0.673141 5.04328 0
M  V30 10085 H 995.727 -2.50792 5.0707 0
M  V30 10086 H 994.284 -2.5401 6.00269 0
M  V30 10087 N 997.718 -1.45297 0.610449 0
M  V30 10088 C 998.65 -2.28742 -0.144884 0
M  V30 10089 C 999.663 -1.40114 -0.828977 0
M  V30 10090 O 1000.85 -1.64461 -0.693887 0
M  V30 10091 C 997.952 -3.15934 -1.22632 0
M  V30 10092 C 997.125 -4.32857 -0.628785 0
M  V30 10093 C 996.184 -5.01237 -1.60148 0
M  V30 10094 O 995.21 -5.57938 -1.12667 0
M  V30 10095 N 996.412 -5.00785 -2.9359 0
M  V30 10096 H 999.177 -2.94207 0.571145 0
M  V30 10097 H 996.738 -1.55517 0.450134 0
M  V30 10098 H 998.73 -3.58545 -1.87691 0
M  V30 10099 H 997.3 -2.52358 -1.84483 0
M  V30 10100 H 996.52 -3.93693 0.199951 0
M  V30 10101 H 997.808 -5.08367 -0.209845 0
M  V30 10102 H 997.206 -4.56014 -3.34765 0
M  V30 10103 H 995.763 -5.4725 -3.54064 0
M  V30 10104 N 999.196 -0.349774 -1.5367 0
M  V30 10105 C 1000.42 0.246038 -2.05432 0
M  V30 10106 C 1000.84 1.43719 -1.22435 0
M  V30 10107 O 1000.2 1.80622 -0.261166 0
M  V30 10108 C 1000.25 0.65501 -3.55516 0
M  V30 10109 O 999.968 -0.488782 -4.35365 0
M  V30 10110 C 1001.47 1.31088 -4.23475 0
M  V30 10111 H 998.689 0.0463952 -0.669394 0
M  V30 10112 H 1001.23 -0.503566 -1.98203 0
M  V30 10113 H 999.388 1.35455 -3.62947 0
M  V30 10114 H 999.802 -0.161528 -5.24251 0
M  V30 10115 H 1001.28 1.54774 -5.29857 0
M  V30 10116 H 1001.75 2.26636 -3.76208 0
M  V30 10117 H 1002.36 0.653211 -4.20254 0
M  V30 10118 N 1000.67 1.57404 -0.0785433 0
M  V30 10119 C 1001.91 1.95621 0.592595 0
M  V30 10120 C 1002.28 0.958429 1.66367 0
M  V30 10121 O 1003.48 1.2285 2.39084 0
M  V30 10122 C 1001.75 3.38445 1.14846 0
M  V30 10123 S 1003.31 3.98645 1.83378 0
M  V30 10124 H 1000.13 0.684063 0.193851 0
M  V30 10125 H 1002.73 1.94892 -0.154007 0
M  V30 10126 H 1001.43 4.08843 0.357179 0
M  V30 10127 H 1000.96 3.42733 1.93127 0
M  V30 10128 H 1002.98 3.86099 3.11676 0
M  V30 10129 N 1002.15 -0.195058 1.56388 0
M  V30 10130 C 1003.57 -0.545894 1.49974 0
M  V30 10131 C 1003.77 -1.85851 0.778568 0
M  V30 10132 O 1002.82 -2.50346 0.329105 0
M  V30 10133 C 1004.14 -0.600599 2.94641 0
M  V30 10134 C 1005.68 -0.689429 3.05313 0
M  V30 10135 C 1006.16 -0.775243 4.51391 0
M  V30 10136 N 1007.65 -0.838769 4.55542 0
M  V30 10137 C 1008.39 -0.925337 5.65884 0
M  V30 10138 N 1007.88 -0.974204 6.85916 0
M  V30 10139 N 1009.67 -0.962528 5.53798 0
M  V30 10140 H 1001.83 0.66595 2.0169 0
M  V30 10141 H 1004.09 0.237215 0.917842 0
M  V30 10142 H 1003.79 0.29478 3.50462 0
M  V30 10143 H 1003.67 -1.45528 3.47996 0
M  V30 10144 H 1006.06 -1.57524 2.4954 0
M  V30 10145 H 1006.14 0.191451 2.55083 0
M  V30 10146 H 1005.78 0.106215 5.07789 0
M  V30 10147 H 1005.71 -1.67193 4.99354 0
M  V30 10148 H 1008.2 -0.810249 3.69112 0
M  V30 10149 H 1008.51 -1.04077 7.6576 0
M  V30 10150 H 1006.86 -0.942881 6.88574 0
M  V30 10151 H 1010.05 -0.921188 4.58946 0
M  V30 10152 H 1010.22 -1.02653 6.39817 0
M  V30 10153 N 1003.63 -1.50653 -0.462772 0
M  V30 10154 C 1004.85 -1.66103 -1.24196 0
M  V30 10155 C 1005.28 -0.347421 -1.84864 0
M  V30 10156 O 1004.64 0.689673 -1.6767 0
M  V30 10157 C 1004.69 -2.76027 -2.32037 0
M  V30 10158 O 1003.79 -2.37859 -3.36893 0
M  V30 10159 H 1003.13 -0.554672 -0.365014 0
M  V30 10160 H 1005.66 -1.97076 -0.549734 0
M  V30 10161 H 1005.67 -2.99354 -2.77221 0
M  V30 10162 H 1004.35 -3.71361 -1.87253 0
M  V30 10163 H 1002.92 -2.2501 -2.97363 0
M  V30 10164 N 1005.11 0.71652 -1.4037 0
M  V30 10165 C 1006.04 1.84345 -1.43315 0
M  V30 10166 C 1007.02 1.67537 -0.294186 0
M  V30 10167 O 1008.2 1.87582 -0.502671 0
M  V30 10168 C 1005.33 3.2229 -1.29408 0
M  V30 10169 C 1004.29 3.53769 -2.40897 0
M  V30 10170 C 1003.61 4.90847 -2.12068 0
M  V30 10171 C 1004.91 3.54862 -3.83237 0
M  V30 10172 H 1006.61 1.82138 -2.37626 0
M  V30 10173 H 1004.15 0.874873 -1.14376 0
M  V30 10174 H 1006.11 4.00819 -1.30085 0
M  V30 10175 H 1004.83 3.2507 -0.31573 0
M  V30 10176 H 1003.49 2.77579 -2.39469 0
M  V30 10177 H 1003.14 4.90229 -1.12626 0
M  V30 10178 H 1002.84 5.12875 -2.86762 0
M  V30 10179 H 1004.36 5.71711 -2.14426 0
M  V30 10180 H 1005.78 4.23432 -3.86494 0
M  V30 10181 H 1004.17 3.88416 -4.57442 0
M  V30 10182 H 1005.24 2.54266 -4.12888 0
M  V30 10183 N 1006.59 1.25851 0.948643 0
M  V30 10184 C 1007.81 1.13813 1.73382 0
M  V30 10185 C 1008.24 -0.303615 1.85633 0
M  V30 10186 O 1007.59 -1.21997 1.34114 0
M  V30 10187 C 1007.64 1.80388 3.12238 0
M  V30 10188 O 1006.75 1.08759 3.978 0
M  V30 10189 H 1006.09 0.397006 0.532243 0
M  V30 10190 H 1008.62 1.66529 1.18866 0
M  V30 10191 H 1008.63 1.86913 3.62667 0
M  V30 10192 H 1007.3 2.85278 3.02637 0
M  V30 10193 H 1005.88 1.10157 3.56258 0
M  V30 10194 N 1008.06 -1.15214 1.07534 0
M  V30 10195 C 1008.97 -2.23636 0.708818 0
M  V30 10196 C 1009.99 -1.7172 -0.280759 0
M  V30 10197 O 1011.17 -2.01 -0.126927 0
M  V30 10198 C 1008.23 -3.46512 0.114167 0
M  V30 10199 C 1007.29 -4.13409 1.15722 0
M  V30 10200 C 1006.53 -5.30419 0.59085 0
M  V30 10201 O 1006.75 -5.67314 -0.592512 0
M  V30 10202 O 1005.68 -5.86871 1.33663 0
M  V30 10203 H 1009.51 -2.57322 1.61305 0
M  V30 10204 H 1007.09 -1.22972 0.848422 0
M  V30 10205 H 1008.98 -4.20851 -0.215091 0
M  V30 10206 H 1007.65 -3.1457 -0.763356 0
M  V30 10207 H 1006.56 -3.40984 1.53886 0
M  V30 10208 H 1007.89 -4.49435 2.00671 0
M  V30 10209 N 1009.54 -0.859717 -1.32086 0
M  V30 10210 C 1010.51 -0.313005 -2.27053 0
M  V30 10211 C 1011.51 0.530191 -1.51808 0
M  V30 10212 O 1012.7 0.340972 -1.7083 0
M  V30 10213 C 1009.83 0.5566 -3.36325 0
M  V30 10214 H 1011.02 -1.15125 -2.76923 0
M  V30 10215 H 1008.57 -0.634463 -1.42843 0
M  V30 10216 H 1009.31 1.41645 -2.91731 0
M  V30 10217 H 1009.09 -0.0470197 -3.92072 0
M  V30 10218 H 1010.58 0.931725 -4.07073 0
M  V30 10219 N 1011.02 1.44971 -0.618145 0
M  V30 10220 C 1012.3 1.95539 -0.0489895 0
M  V30 10221 C 1012.68 1.5604 1.42179 0
M  V30 10222 O 1012.03 0.82809 2.12967 0
M  V30 10223 C 1012.24 3.48044 -0.258193 0
M  V30 10224 C 1013.58 4.24354 -0.144541 0
M  V30 10225 O 1014.61 3.55699 -0.18887 0
M  V30 10226 O 1013.47 5.46486 -0.038519 0
M  V30 10227 H 1010.56 0.826466 0.0297256 0
M  V30 10228 H 1013.11 1.55086 -0.688944 0
M  V30 10229 H 1011.88 3.69798 -1.27926 0
M  V30 10230 H 1011.5 3.95412 0.416522 0
M  V30 10231 N 1012.5 0.357919 1.53482 0
M  V30 10232 C 1013.72 -0.237769 2.06033 0
M  V30 10233 C 1014.15 -1.42292 1.23023 0
M  V30 10234 O 1013.51 -1.79604 0.247427 0
M  V30 10235 C 1013.55 -0.616806 3.55286 0
M  V30 10236 O 1012.66 -1.71503 3.75047 0
M  V30 10237 H 1012 -0.0364322 0.663 0
M  V30 10238 H 1014.53 0.516301 1.97979 0
M  V30 10239 H 1014.54 -0.88996 3.98175 0
M  V30 10240 H 1013.21 0.249825 4.15149 0
M  V30 10241 H 1011.79 -1.43803 3.44057 0
M  V30 10242 N 1013.98 -1.5736 0.0868897 0
M  V30 10243 C 1014.93 -2.10105 -0.885435 0
M  V30 10244 C 1015.91 -1.01417 -1.24913 0
M  V30 10245 O 1017.1 -1.27704 -1.22558 0
M  V30 10246 C 1014.23 -2.67837 -2.14752 0
M  V30 10247 C 1013.32 -3.83553 -1.80963 0
M  V30 10248 N 1013.71 -4.91917 -1.17693 0
M  V30 10249 C 1012.01 -3.93134 -2.10622 0
M  V30 10250 C 1012.71 -5.72628 -1.02332 0
M  V30 10251 N 1011.68 -5.2139 -1.53796 0
M  V30 10252 H 1015.49 -2.91272 -0.392179 0
M  V30 10253 H 1013 -1.61981 -0.116566 0
M  V30 10254 H 1015 -3.03948 -2.85344 0
M  V30 10255 H 1013.66 -1.88122 -2.64651 0
M  V30 10256 H 1014.67 -5.10964 -0.844731 0
M  V30 10257 H 1011.34 -3.24416 -2.62793 0
M  V30 10258 H 1012.73 -6.69813 -0.529171 0
M  V30 10259 N 1015.45 0.186762 -1.56489 0
M  V30 10260 C 1016.69 0.912523 -1.829 0
M  V30 10261 C 1017.06 1.80094 -0.665598 0
M  V30 10262 O 1018.26 2.56312 -0.809787 0
M  V30 10263 C 1016.53 1.70022 -3.14368 0
M  V30 10264 S 1018.09 2.47686 -3.62211 0
M  V30 10265 H 1014.91 0.305916 -0.641823 0
M  V30 10266 H 1017.51 0.175289 -1.94713 0
M  V30 10267 H 1016.21 1.03832 -3.97048 0
M  V30 10268 H 1015.74 2.47912 -3.05456 0
M  V30 10269 H 1017.76 3.72058 -3.28309 0
M  V30 10270 N 1016.93 1.50896 0.454776 0
M  V30 10271 C 1017.86 1.73885 1.5584 0
M  V30 10272 C 1018.84 0.588172 1.59607 0
M  V30 10273 O 1020.03 0.829054 1.75614 0
M  V30 10274 C 1017.16 1.84796 2.94054 0
M  V30 10275 C 1016.11 3.00111 3.05152 0
M  V30 10276 C 1015.44 2.96183 4.45174 0
M  V30 10277 C 1016.74 4.40365 2.80849 0
M  V30 10278 H 1018.43 2.66292 1.36854 0
M  V30 10279 H 1015.98 1.28142 0.656936 0
M  V30 10280 H 1017.93 1.99462 3.71204 0
M  V30 10281 H 1016.66 0.890235 3.14233 0
M  V30 10282 H 1015.31 2.85121 2.30438 0
M  V30 10283 H 1014.96 1.98224 4.62295 0
M  V30 10284 H 1014.66 3.73608 4.53532 0
M  V30 10285 H 1016.19 3.1292 5.24322 0
M  V30 10286 H 1017.6 4.55795 3.47741 0
M  V30 10287 H 1016 5.19363 3.00636 0
M  V30 10288 H 1017.07 4.51606 1.76579 0
M  V30 10289 N 1018.41 -0.709066 1.40748 0
M  V30 10290 C 1019.32 -1.85314 1.43861 0
M  V30 10291 C 1020.34 -1.70832 0.330539 0
M  V30 10292 O 1021.51 -1.92983 0.576152 0
M  V30 10293 C 1018.58 -3.21174 1.30568 0
M  V30 10294 C 1017.64 -3.47863 2.51574 0
M  V30 10295 C 1016.87 -4.77241 2.38906 0
M  V30 10296 O 1017.09 -5.52791 1.40636 0
M  V30 10297 O 1016.03 -5.04413 3.28407 0
M  V30 10298 H 1019.85 -1.85644 2.40354 0
M  V30 10299 H 1017.44 -0.860352 1.2214 0
M  V30 10300 H 1019.32 -4.02313 1.25388 0
M  V30 10301 H 1018 -3.21557 0.371841 0
M  V30 10302 H 1016.9 -2.66708 2.62331 0
M  V30 10303 H 1018.24 -3.52283 3.43741 0
M  V30 10304 N 1019.89 -1.26353 -0.941956 0
M  V30 10305 C 1021.14 -1.1163 -1.68473 0
M  V30 10306 C 1021.46 0.34108 -1.91994 0
M  V30 10307 O 1020.73 1.24065 -1.51607 0
M  V30 10308 H 1019.31 -0.410113 -0.624353 0
M  V30 10309 H 1021.97 -1.58669 -1.13182 0
M  V30 10310 H 1021.07 -1.63445 -2.6588 0
M  V30 10311 N 1021.37 1.14642 -1.08144 0
M  V30 10312 C 1022.61 1.85617 -0.809484 0
M  V30 10313 C 1022.94 1.8279 0.664672 0
M  V30 10314 O 1022.2 1.25178 1.50429 0
M  V30 10315 C 1022.5 3.33953 -1.2732 0
M  V30 10316 C 1022.16 3.56969 -2.7547 0
M  V30 10317 C 1020.82 3.6296 -3.15933 0
M  V30 10318 C 1023.18 3.66014 -3.71057 0
M  V30 10319 C 1020.5 3.75515 -4.50783 0
M  V30 10320 C 1022.86 3.80094 -5.05679 0
M  V30 10321 C 1021.52 3.84333 -5.45751 0
M  V30 10322 H 1020.79 0.67922 -0.296211 0
M  V30 10323 H 1023.44 1.35433 -1.35389 0
M  V30 10324 H 1021.74 3.86399 -0.648329 0
M  V30 10325 H 1023.44 3.87291 -1.03957 0
M  V30 10326 H 1020.03 3.52953 -2.4315 0
M  V30 10327 H 1024.21 3.60679 -3.40917 0
M  V30 10328 H 1019.47 3.77057 -4.81288 0
M  V30 10329 H 1023.64 3.86035 -5.79612 0
M  V30 10330 H 1021.27 3.93814 -6.50242 0
M  V30 10331 N 1022.85 0.866709 1.31628 0
M  V30 10332 C 1023.81 0.325041 2.26883 0
M  V30 10333 C 1024.81 -0.522133 1.52087 0
M  V30 10334 O 1026 -0.331908 1.71009 0
M  V30 10335 C 1023.13 -0.538756 3.36616 0
M  V30 10336 H 1024.32 1.16592 2.76308 0
M  V30 10337 H 1021.88 0.642029 1.42505 0
M  V30 10338 H 1022.61 -1.40096 2.92478 0
M  V30 10339 H 1022.4 0.0678115 3.92041 0
M  V30 10340 H 1023.89 -0.910123 4.07562 0
M  V30 10341 N 1024.32 -1.44642 0.625825 0
M  V30 10342 C 1025.73 -1.85502 0.211175 0
M  V30 10343 C 1026.09 -1.52356 -1.2362 0
M  V30 10344 O 1025.21 -0.959051 -1.93988 0
M  V30 10345 C 1025.81 -3.36702 0.37648 0
M  V30 10346 C 1024.36 -3.76396 0.0163795 0
M  V30 10347 C 1023.51 -2.68517 0.692368 0
M  V30 10348 H 1026.46 -1.35183 0.831333 0
M  V30 10349 H 1026.48 -3.78536 -0.386106 0
M  V30 10350 H 1026 -3.60795 1.42999 0
M  V30 10351 H 1024.1 -3.57919 -1.0356 0
M  V30 10352 H 1024.21 -4.77231 0.422742 0
M  V30 10353 H 1022.57 -2.54377 0.128191 0
M  V30 10354 H 1023.36 -2.95444 1.74837 0
M  V30 10355 N 1025.8 -0.366053 -1.5329 0
M  V30 10356 C 1027.05 0.223824 -2.01561 0
M  V30 10357 C 1027.38 1.48382 -1.25286 0
M  V30 10358 O 1026.66 1.91385 -0.34669 0
M  V30 10359 C 1026.94 0.5153 -3.56394 0
M  V30 10360 C 1026.79 -0.758357 -4.43361 0
M  V30 10361 C 1028.11 1.31568 -4.19974 0
M  V30 10362 H 1025.23 0.0798751 -0.732659 0
M  V30 10363 H 1027.87 -0.491038 -1.83545 0
M  V30 10364 H 1026.02 1.12429 -3.71876 0
M  V30 10365 H 1027.69 -1.39584 -4.39675 0
M  V30 10366 H 1025.94 -1.37862 -4.11311 0
M  V30 10367 H 1026.61 -0.509366 -5.49645 0
M  V30 10368 H 1029.08 0.800514 -4.08327 0
M  V30 10369 H 1027.96 1.48837 -5.28336 0
M  V30 10370 H 1028.22 2.32432 -3.76069 0
M  V30 10371 N 1027.28 1.57312 -0.0952337 0
M  V30 10372 C 1028.56 1.85822 0.610715 0
M  V30 10373 C 1028.94 0.992114 1.86334 0
M  V30 10374 O 1028.28 0.0645669 2.28409 0
M  V30 10375 C 1028.49 3.36492 0.925967 0
M  V30 10376 C 1029.84 4.0455 1.28936 0
M  V30 10377 O 1030.87 3.41374 1.01698 0
M  V30 10378 O 1029.73 5.16024 1.79949 0
M  V30 10379 H 1026.82 0.768454 0.305626 0
M  V30 10380 H 1029.37 1.69217 -0.127941 0
M  V30 10381 H 1028.14 3.91282 0.0373127 0
M  V30 10382 H 1027.76 3.58443 1.7206 0
M  V30 10383 N 1028.76 -0.17846 1.56586 0
M  V30 10384 C 1030.01 -0.894464 1.81228 0
M  V30 10385 C 1030.33 -1.83089 0.671062 0
M  V30 10386 O 1029.6 -1.93439 -0.309557 0
M  V30 10387 H 1028.18 -0.333288 0.668527 0
M  V30 10388 H 1030.84 -0.179986 1.94067 0
M  V30 10389 H 1029.93 -1.47565 2.75011 0
M  V30 10390 N 1030.24 -1.51135 -0.446768 0
M  V30 10391 C 1031.48 -1.64989 -1.20656 0
M  V30 10392 C 1031.84 -0.353882 -1.88711 0
M  V30 10393 O 1033.04 -0.368099 -2.66268 0
M  V30 10394 C 1031.31 -2.81371 -2.20375 0
M  V30 10395 S 1032.87 -3.15501 -3.04967 0
M  V30 10396 H 1029.69 -0.581372 -0.409301 0
M  V30 10397 H 1032.29 -1.89008 -0.499613 0
M  V30 10398 H 1030.99 -3.73988 -1.69001 0
M  V30 10399 H 1030.53 -2.59512 -2.95664 0
M  V30 10400 H 1032.54 -2.61205 -4.21884 0
M  V30 10401 N 1031.71 0.701592 -1.41122 0
M  V30 10402 C 1032.96 1.45871 -1.39879 0
M  V30 10403 C 1033.28 1.94999 -0.00668769 0
M  V30 10404 O 1032.55 1.71298 0.95047 0
M  V30 10405 H 1031.13 0.541231 -0.514857 0
M  V30 10406 H 1033.79 0.830803 -1.76306 0
M  V30 10407 H 1032.89 2.32479 -2.0823 0
M  V30 10408 N 1033.19 1.2685 0.935242 0
M  V30 10409 C 1034.43 1.13972 1.69675 0
M  V30 10410 C 1034.8 -0.310655 1.8947 0
M  V30 10411 O 1036 -0.561692 2.62866 0
M  V30 10412 C 1034.27 1.89387 3.03096 0
M  V30 10413 S 1035.83 1.92633 3.94256 0
M  V30 10414 H 1032.64 0.407009 0.582979 0
M  V30 10415 H 1035.25 1.60653 1.11404 0
M  V30 10416 H 1033.95 2.9397 2.86374 0
M  V30 10417 H 1033.48 1.43171 3.66423 0
M  V30 10418 H 1035.5 1.01732 4.85659 0
M  V30 10419 N 1034.67 -1.14067 1.0875 0
M  V30 10420 C 1036.08 -1.66747 0.839778 0
M  V30 10421 C 1036.43 -1.85711 -0.632909 0
M  V30 10422 O 1035.56 -1.57084 -1.48841 0
M  V30 10423 C 1036.15 -3.02896 1.51787 0
M  V30 10424 C 1034.71 -3.52596 1.3173 0
M  V30 10425 C 1033.86 -2.27994 1.57841 0
M  V30 10426 H 1036.81 -0.980838 1.24761 0
M  V30 10427 H 1036.83 -3.68526 0.947057 0
M  V30 10428 H 1036.34 -2.89062 2.58969 0
M  V30 10429 H 1034.44 -3.71647 0.266339 0
M  V30 10430 H 1034.56 -4.33151 2.04736 0
M  V30 10431 H 1032.92 -2.34241 1.00015 0
M  V30 10432 H 1033.7 -2.16732 2.66237 0
M  V30 10433 N 1036.15 -0.873678 -1.31166 0
M  V30 10434 C 1037.43 -0.40698 -1.91319 0
M  V30 10435 C 1037.81 1.1113 -1.79481 0
M  V30 10436 O 1037.15 1.94155 -1.20483 0
M  V30 10437 C 1037.36 -0.892484 -3.37396 0
M  V30 10438 C 1038.71 -0.920795 -4.14496 0
M  V30 10439 O 1039.74 -0.838386 -3.46193 0
M  V30 10440 O 1038.59 -1.04069 -5.365 0
M  V30 10441 H 1035.69 -0.122439 -0.817886 0
M  V30 10442 H 1038.23 -0.961835 -1.3981 0
M  V30 10443 H 1037.01 -1.93613 -3.40044 0
M  V30 10444 H 1036.63 -0.31615 -3.96341 0
M  V30 10445 N 1037.63 1.44308 -0.633487 0
M  V30 10446 C 1038.58 2.27814 0.0919619 0
M  V30 10447 C 1039.56 1.38798 0.813882 0
M  V30 10448 O 1040.75 1.62587 0.699601 0
M  V30 10449 C 1037.88 3.26158 1.07125 0
M  V30 10450 C 1036.97 4.22663 0.348831 0
M  V30 10451 N 1037.36 5.01938 -0.623854 0
M  V30 10452 C 1035.66 4.42041 0.592958 0
M  V30 10453 C 1036.36 5.72129 -1.05088 0
M  V30 10454 N 1035.33 5.42205 -0.389183 0
M  V30 10455 H 1039.14 2.86515 -0.654721 0
M  V30 10456 H 1036.65 1.55773 -0.459178 0
M  V30 10457 H 1038.65 3.84742 1.60559 0
M  V30 10458 H 1037.31 2.69019 1.81821 0
M  V30 10459 H 1038.32 5.08119 -1.00176 0
M  V30 10460 H 1034.99 3.95997 1.32261 0
M  V30 10461 H 1036.38 6.45797 -1.85461 0
M  V30 10462 N 1039.1 0.374177 1.53094 0
M  V30 10463 C 1040.33 -0.213325 2.05797 0
M  V30 10464 C 1040.75 -1.41753 1.24706 0
M  V30 10465 O 1040.1 -1.80183 0.289868 0
M  V30 10466 C 1040.16 -0.598367 3.56513 0
M  V30 10467 O 1039.88 0.557983 4.34532 0
M  V30 10468 C 1041.38 -1.24334 4.25507 0
M  V30 10469 H 1038.6 -0.0357398 0.670048 0
M  V30 10470 H 1041.14 0.535035 1.97377 0
M  V30 10471 H 1039.3 -1.29663 3.65056 0
M  V30 10472 H 1039.71 0.244911 5.23928 0
M  V30 10473 H 1041.18 -1.46325 5.32253 0
M  V30 10474 H 1041.66 -2.20622 3.79766 0
M  V30 10475 H 1042.27 -0.586269 4.2124 0
M  V30 10476 N 1040.58 -1.57259 0.103575 0
M  V30 10477 C 1041.83 -1.94657 -0.558126 0
M  V30 10478 C 1042.16 -0.985886 -1.67662 0
M  V30 10479 O 1041.41 -0.0069745 -1.95699 0
M  V30 10480 C 1041.71 -3.38549 -1.14538 0
M  V30 10481 C 1041.38 -4.50651 -0.149818 0
M  V30 10482 C 1040.04 -4.8104 0.12398 0
M  V30 10483 C 1042.39 -5.18503 0.529497 0
M  V30 10484 C 1039.72 -5.76606 1.08364 0
M  V30 10485 C 1042.07 -6.15099 1.47769 0
M  V30 10486 C 1040.74 -6.43889 1.75963 0
M  V30 10487 H 1040.01 -0.712299 -0.204233 0
M  V30 10488 H 1042.65 -1.90641 0.181208 0
M  V30 10489 H 1040.96 -3.39185 -1.96115 0
M  V30 10490 H 1042.65 -3.6479 -1.66521 0
M  V30 10491 H 1039.24 -4.2697 -0.373404 0
M  V30 10492 H 1043.43 -4.95194 0.331121 0
M  V30 10493 H 1038.68 -5.97223 1.30899 0
M  V30 10494 H 1042.86 -6.66767 2.00983 0
M  V30 10495 H 1040.49 -7.17749 2.50481 0
M  V30 10496 N 1042.06 0.170153 -1.56679 0
M  V30 10497 C 1042.99 1.21285 -1.9953 0
M  V30 10498 C 1043.97 1.46104 -0.871071 0
M  V30 10499 O 1045.16 1.57419 -1.13724 0
M  V30 10500 C 1042.29 2.5515 -2.35618 0
M  V30 10501 C 1041.24 2.44898 -3.51011 0
M  V30 10502 C 1040.57 3.83263 -3.72845 0
M  V30 10503 C 1041.87 1.95271 -4.84424 0
M  V30 10504 H 1043.56 0.856646 -2.86883 0
M  V30 10505 H 1041.11 0.410634 -1.38021 0
M  V30 10506 H 1043.06 3.28299 -2.64193 0
M  V30 10507 H 1041.78 2.92561 -1.45175 0
M  V30 10508 H 1040.44 1.74203 -3.22566 0
M  V30 10509 H 1040.09 4.18069 -2.79691 0
M  V30 10510 H 1039.79 3.77272 -4.50488 0
M  V30 10511 H 1041.31 4.57996 -4.03822 0
M  V30 10512 H 1042.73 2.58195 -5.11867 0
M  V30 10513 H 1041.13 2.00225 -5.65712 0
M  V30 10514 H 1042.2 0.90709 -4.7634 0
M  V30 10515 N 1043.54 1.5137 0.438746 0
M  V30 10516 C 1044.82 1.54508 1.19944 0
M  V30 10517 C 1045.2 0.308525 2.08833 0
M  V30 10518 O 1044.54 -0.706461 2.17305 0
M  V30 10519 C 1044.75 2.85833 2.00251 0
M  V30 10520 C 1046.1 3.37729 2.5734 0
M  V30 10521 O 1047.13 2.87374 2.10463 0
M  V30 10522 O 1045.98 4.25589 3.42836 0
M  V30 10523 H 1043.08 0.621132 0.546007 0
M  V30 10524 H 1045.62 1.63682 0.447931 0
M  V30 10525 H 1044.4 3.67291 1.34955 0
M  V30 10526 H 1044.02 2.79815 2.8247 0
M  V30 10527 N 1045.02 -0.694098 1.41492 0
M  V30 10528 C 1045.93 -1.83778 1.45818 0
M  V30 10529 C 1046.94 -1.70471 0.348639 0
M  V30 10530 O 1048.12 -1.92361 0.596588 0
M  V30 10531 C 1045.18 -3.19771 1.33967 0
M  V30 10532 C 1044.24 -3.45175 2.5525 0
M  V30 10533 C 1043.48 -4.74681 2.43955 0
M  V30 10534 O 1043.7 -5.51268 1.46491 0
M  V30 10535 O 1042.63 -5.00901 3.33739 0
M  V30 10536 H 1046.46 -1.83084 2.42309 0
M  V30 10537 H 1044.05 -0.847349 1.23046 0
M  V30 10538 H 1045.93 -4.00961 1.29648 0
M  V30 10539 H 1044.6 -3.21145 0.405926 0
M  V30 10540 H 1043.51 -2.6391 2.65146 0
M  V30 10541 H 1044.84 -3.48617 3.47458 0
M  V30 10542 N 1046.49 -1.27344 -0.928501 0
M  V30 10543 C 1047.44 -1.10001 -2.029 0
M  V30 10544 C 1048.41 -0.00131084 -1.661 0
M  V30 10545 O 1049.6 -0.163485 -1.90098 0
M  V30 10546 C 1046.74 -0.7524 -3.36798 0
M  V30 10547 C 1045.85 -1.92865 -3.86558 0
M  V30 10548 C 1044.98 -1.52299 -5.08899 0
M  V30 10549 C 1044.02 -2.66677 -5.50953 0
M  V30 10550 N 1043.16 -2.26706 -6.64491 0
M  V30 10551 H 1048 -2.0417 -2.17068 0
M  V30 10552 H 1045.54 -1.01637 -1.0634 0
M  V30 10553 H 1047.5 -0.531687 -4.13798 0
M  V30 10554 H 1046.13 0.15234 -3.2244 0
M  V30 10555 H 1045.18 -2.26192 -3.05845 0
M  V30 10556 H 1046.49 -2.78668 -4.13698 0
M  V30 10557 H 1045.64 -1.26348 -5.93398 0
M  V30 10558 H 1044.38 -0.636042 -4.83535 0
M  V30 10559 H 1043.39 -2.93344 -4.65004 0
M  V30 10560 H 1044.61 -3.55992 -5.78313 0
M  V30 10561 H 1042.56 -1.40462 -6.40786 0
M  V30 10562 H 1042.48 -3.06049 -6.91281 0
M  V30 10563 H 1043.74 -2.04 -7.52333 0
M  V30 10564 N 1047.97 1.13488 -1.09353 0
M  V30 10565 C 1049.22 1.84383 -0.827488 0
M  V30 10566 C 1049.54 1.83892 0.648745 0
M  V30 10567 O 1048.81 1.29415 1.47066 0
M  V30 10568 H 1047.39 0.682732 -0.303127 0
M  V30 10569 H 1050.05 1.37477 -1.38152 0
M  V30 10570 H 1049.15 2.88919 -1.18035 0
M  V30 10571 N 1049.45 0.880621 1.30701 0
M  V30 10572 C 1050.87 0.574015 1.4892 0
M  V30 10573 C 1051.07 -0.889312 1.80813 0
M  V30 10574 O 1050.12 -1.67082 1.89314 0
M  V30 10575 C 1051.44 1.48341 2.61563 0
M  V30 10576 C 1052.98 1.48658 2.75445 0
M  V30 10577 C 1053.46 2.3818 3.91196 0
M  V30 10578 N 1054.95 2.36119 3.985 0
M  V30 10579 C 1055.69 3.02101 4.87363 0
M  V30 10580 N 1055.18 3.77293 5.81052 0
M  V30 10581 N 1056.97 2.91356 4.80696 0
M  V30 10582 H 1049.13 1.82732 1.08271 0
M  V30 10583 H 1051.39 0.781939 0.535981 0
M  V30 10584 H 1051.09 2.52515 2.44804 0
M  V30 10585 H 1050.97 1.18977 3.57944 0
M  V30 10586 H 1053.36 0.452374 2.91612 0
M  V30 10587 H 1053.44 1.8205 1.79698 0
M  V30 10588 H 1053.08 3.41683 3.75786 0
M  V30 10589 H 1053.01 2.02106 4.86272 0
M  V30 10590 H 1055.5 1.81474 3.31475 0
M  V30 10591 H 1055.81 4.24742 6.45612 0
M  V30 10592 H 1054.16 3.81401 5.80998 0
M  V30 10593 H 1057.35 2.32143 4.06481 0
M  V30 10594 H 1057.52 3.43056 5.49742 0
M  V30 10595 N 1050.93 -1.4397 0.641131 0
M  V30 10596 C 1052.17 -2.03826 0.153071 0
M  V30 10597 C 1052.53 -1.4941 -1.20585 0
M  V30 10598 O 1053.73 -2.00832 -1.78661 0
M  V30 10599 C 1052.01 -3.57085 0.149914 0
M  V30 10600 S 1053.56 -4.37956 -0.272065 0
M  V30 10601 H 1050.38 -0.70793 0.0659981 0
M  V30 10602 H 1052.98 -1.76211 0.846761 0
M  V30 10603 H 1051.69 -3.94194 1.14188 0
M  V30 10604 H 1051.22 -3.89326 -0.564703 0
M  V30 10605 H 1053.23 -4.72542 -1.5139 0
M  V30 10606 N 1052.41 -0.382291 -1.52893 0
M  V30 10607 C 1053.65 0.202433 -2.01787 0
M  V30 10608 C 1053.99 1.47044 -1.26853 0
M  V30 10609 O 1053.26 1.91007 -0.366969 0
M  V30 10610 C 1053.54 0.477471 -3.5692 0
M  V30 10611 C 1053.4 -0.805339 -4.42532 0
M  V30 10612 C 1054.72 1.27106 -4.21346 0
M  V30 10613 H 1051.84 0.0720998 -0.733465 0
M  V30 10614 H 1054.48 -0.510478 -1.83014 0
M  V30 10615 H 1052.63 1.08478 -3.73048 0
M  V30 10616 H 1054.3 -1.4424 -4.3817 0
M  V30 10617 H 1052.54 -1.42216 -4.09826 0
M  V30 10618 H 1053.21 -0.567635 -5.49074 0
M  V30 10619 H 1055.69 0.757161 -4.09153 0
M  V30 10620 H 1054.57 1.43225 -5.29885 0
M  V30 10621 H 1054.83 2.28431 -3.78513 0
M  V30 10622 N 1053.89 1.57202 -0.111913 0
M  V30 10623 C 1055.3 1.82039 0.414591 0
M  V30 10624 C 1055.65 1.02863 1.67074 0
M  V30 10625 O 1054.77 0.263068 2.14795 0
M  V30 10626 C 1055.37 3.3019 0.758953 0
M  V30 10627 C 1053.93 3.55732 1.23012 0
M  V30 10628 C 1053.07 2.76301 0.235226 0
M  V30 10629 H 1056.02 1.55078 -0.337142 0
M  V30 10630 H 1056.05 3.44431 1.61701 0
M  V30 10631 H 1055.56 3.87788 -0.155473 0
M  V30 10632 H 1053.66 3.03483 2.16169 0
M  V30 10633 H 1053.77 4.64333 1.18034 0
M  V30 10634 H 1052.14 2.44287 0.720822 0
M  V30 10635 H 1052.92 3.36655 -0.672173 0
M  V30 10636 N 1055.36 -0.161842 1.56767 0
M  V30 10637 C 1056.29 -1.20226 2.0017 0
M  V30 10638 C 1057.27 -1.4564 0.878807 0
M  V30 10639 O 1058.46 -1.56813 1.14557 0
M  V30 10640 C 1055.59 -2.53897 2.36968 0
M  V30 10641 C 1054.54 -2.43033 3.52305 0
M  V30 10642 C 1053.87 -3.81281 3.74872 0
M  V30 10643 C 1055.17 -1.927 4.85453 0
M  V30 10644 H 1056.86 -0.84142 2.87333 0
M  V30 10645 H 1054.41 -0.403309 1.38237 0
M  V30 10646 H 1056.36 -3.26893 2.6593 0
M  V30 10647 H 1055.09 -2.91787 1.46724 0
M  V30 10648 H 1053.75 -1.7249 3.23485 0
M  V30 10649 H 1053.39 -4.1658 2.81904 0
M  V30 10650 H 1053.09 -3.74877 4.52483 0
M  V30 10651 H 1054.62 -4.55848 4.06245 0
M  V30 10652 H 1056.03 -2.55477 5.13229 0
M  V30 10653 H 1054.43 -1.97222 5.66766 0
M  V30 10654 H 1055.5 -0.881816 4.76814 0
M  V30 10655 N 1056.84 -1.516 -0.430713 0
M  V30 10656 C 1057.8 -1.72794 -1.50582 0
M  V30 10657 C 1058.8 -0.597903 -1.49271 0
M  V30 10658 O 1059.99 -0.865535 -1.51176 0
M  V30 10659 C 1057.13 -1.79049 -2.90093 0
M  V30 10660 H 1058.32 -2.68751 -1.33091 0
M  V30 10661 H 1055.87 -1.4169 -0.659822 0
M  V30 10662 H 1056.61 -0.849309 -3.12981 0
M  V30 10663 H 1056.39 -2.61181 -2.92449 0
M  V30 10664 H 1057.88 -1.97262 -3.68072 0
M  V30 10665 N 1058.32 0.686584 -1.41858 0
M  V30 10666 C 1059.27 1.80038 -1.44413 0
M  V30 10667 C 1060.24 1.63415 -0.297427 0
M  V30 10668 O 1061.42 1.84138 -0.499789 0
M  V30 10669 C 1058.56 3.17988 -1.34082 0
M  V30 10670 C 1057.67 3.45979 -2.58693 0
M  V30 10671 C 1056.81 4.73592 -2.4059 0
M  V30 10672 C 1055.85 4.94581 -3.60633 0
M  V30 10673 N 1054.99 6.13426 -3.41545 0
M  V30 10674 H 1059.83 1.77189 -2.396 0
M  V30 10675 H 1057.36 0.865158 -1.18968 0
M  V30 10676 H 1059.32 3.97689 -1.26092 0
M  V30 10677 H 1057.95 3.1999 -0.424975 0
M  V30 10678 H 1057 2.60617 -2.77097 0
M  V30 10679 H 1058.31 3.57386 -3.47961 0
M  V30 10680 H 1057.47 5.61364 -2.30119 0
M  V30 10681 H 1056.21 4.64448 -1.48794 0
M  V30 10682 H 1055.21 4.05254 -3.71549 0
M  V30 10683 H 1056.44 5.05578 -4.53395 0
M  V30 10684 H 1054.38 6.05477 -2.52456 0
M  V30 10685 H 1054.3 6.25641 -4.24393 0
M  V30 10686 H 1055.57 7.03908 -3.34864 0
M  V30 10687 N 1059.8 1.27835 0.921735 0
M  V30 10688 C 1061.04 1.15766 1.68457 0
M  V30 10689 C 1061.4 -0.290542 1.89789 0
M  V30 10690 O 1062.6 -0.53378 2.63447 0
M  V30 10691 C 1060.87 1.92591 3.0107 0
M  V30 10692 S 1062.43 1.96804 3.92191 0
M  V30 10693 H 1059.25 0.413169 0.578629 0
M  V30 10694 H 1061.85 1.61826 1.09693 0
M  V30 10695 H 1060.56 2.96991 2.8324 0
M  V30 10696 H 1060.09 1.47049 3.64884 0
M  V30 10697 H 1062.1 1.06877 4.84553 0
M  V30 10698 N 1061.28 -1.12907 1.09954 0
M  V30 10699 C 1062.5 -1.88679 0.861099 0
M  V30 10700 C 1062.93 -1.78853 -0.582499 0
M  V30 10701 O 1062.28 -1.13992 -1.4098 0
M  V30 10702 C 1062.33 -3.36047 1.30785 0
M  V30 10703 O 1061.44 -4.09716 0.469728 0
M  V30 10704 H 1060.78 -0.586447 0.31141 0
M  V30 10705 H 1063.31 -1.42818 1.46507 0
M  V30 10706 H 1063.32 -3.86882 1.29562 0
M  V30 10707 H 1061.99 -3.42516 2.35914 0
M  V30 10708 H 1060.57 -3.6887 0.54674 0
M  V30 10709 N 1062.75 -0.88754 -1.30232 0
M  V30 10710 C 1063.99 -0.514017 -1.97831 0
M  V30 10711 C 1064.36 0.920151 -1.68515 0
M  V30 10712 O 1065.56 1.39993 -2.29468 0
M  V30 10713 C 1063.83 -0.784155 -3.48692 0
M  V30 10714 S 1065.39 -0.513119 -4.3579 0
M  V30 10715 H 1062.21 -0.191157 -0.684821 0
M  V30 10716 H 1064.81 -1.14736 -1.58291 0
M  V30 10717 H 1063.51 -1.82639 -3.6752 0
M  V30 10718 H 1063.04 -0.138468 -3.93156 0
M  V30 10719 H 1065.06 0.647155 -4.91962 0
M  V30 10720 N 1064.23 1.43628 -0.648757 0
M  V30 10721 C 1065.46 2.05918 -0.167701 0
M  V30 10722 C 1065.87 1.48681 1.17006 0
M  V30 10723 O 1065.21 0.610984 1.73242 0
M  V30 10724 C 1065.28 3.595 0.00265514 0
M  V30 10725 C 1064.94 4.39295 -1.2597 0
M  V30 10726 C 1065.94 4.71643 -2.18743 0
M  V30 10727 C 1063.62 4.79379 -1.50004 0
M  V30 10728 C 1065.62 5.42978 -3.33846 0
M  V30 10729 C 1063.3 5.50459 -2.65401 0
M  V30 10730 C 1064.3 5.82181 -3.57148 0
M  V30 10731 O 1063.99 6.5181 -4.7053 0
M  V30 10732 H 1063.72 0.670619 -0.0851261 0
M  V30 10733 H 1066.27 1.85196 -0.888351 0
M  V30 10734 H 1064.5 3.7878 0.77863 0
M  V30 10735 H 1066.19 4.03503 0.440501 0
M  V30 10736 H 1066.96 4.41199 -2.01416 0
M  V30 10737 H 1062.84 4.54098 -0.794745 0
M  V30 10738 H 1066.38 5.67656 -4.05479 0
M  V30 10739 H 1062.28 5.8032 -2.82664 0
M  V30 10740 H 1063.05 6.7029 -4.69738 0
M  V30 10741 N 1065.71 0.390394 1.52688 0
M  V30 10742 C 1066.66 -0.461191 2.23287 0
M  V30 10743 C 1067.64 -1.02875 1.23716 0
M  V30 10744 O 1068.84 -0.954675 1.49047 0
M  V30 10745 C 1065.97 -1.58736 3.04397 0
M  V30 10746 C 1065.05 -1.03149 4.11365 0
M  V30 10747 N 1065.44 -0.20066 5.05402 0
M  V30 10748 C 1063.74 -1.30388 4.26515 0
M  V30 10749 C 1064.44 0.106548 5.81602 0
M  V30 10750 N 1063.42 -0.497687 5.41317 0
M  V30 10751 H 1067.22 0.1801 2.93348 0
M  V30 10752 H 1064.73 0.199761 1.61167 0
M  V30 10753 H 1066.73 -2.20986 3.53512 0
M  V30 10754 H 1065.39 -2.23147 2.35872 0
M  V30 10755 H 1066.4 0.162168 5.17646 0
M  V30 10756 H 1063.08 -1.94894 3.69219 0
M  V30 10757 H 1064.47 0.779778 6.6736 0
M  V30 10758 N 1067.19 -1.57141 0.120249 0
M  V30 10759 C 1068.6 -1.5784 -0.236335 0
M  V30 10760 C 1068.8 -1.13304 -1.66626 0
M  V30 10761 O 1067.86 -0.821004 -2.3878 0
M  V30 10762 C 1069.17 -3.007 -0.00188211 0
M  V30 10763 C 1070.72 -3.12927 -0.0676838 0
M  V30 10764 C 1071.2 -4.57789 0.139092 0
M  V30 10765 N 1072.69 -4.63122 0.085104 0
M  V30 10766 C 1073.42 -5.72978 0.219983 0
M  V30 10767 N 1072.92 -6.91579 0.411102 0
M  V30 10768 N 1074.71 -5.61874 0.159469 0
M  V30 10769 H 1066.86 -1.84391 1.05422 0
M  V30 10770 H 1069.13 -0.852228 0.415225 0
M  V30 10771 H 1068.83 -3.37575 0.986718 0
M  V30 10772 H 1068.71 -3.70005 -0.733203 0
M  V30 10773 H 1071.09 -2.75909 -1.04681 0
M  V30 10774 H 1071.17 -2.46162 0.695538 0
M  V30 10775 H 1070.82 -4.95506 1.1152 0
M  V30 10776 H 1070.75 -5.22646 -0.644131 0
M  V30 10777 H 1073.24 -3.77854 -0.0590479 0
M  V30 10778 H 1073.55 -7.71149 0.504851 0
M  V30 10779 H 1071.9 -6.9356 0.447091 0
M  V30 10780 H 1075.09 -4.68099 0.0111131 0
M  V30 10781 H 1075.26 -6.47445 0.268028 0
M  V30 10782 N 1068.67 0.153526 -1.5685 0
M  V30 10783 C 1069.91 0.865519 -1.82629 0
M  V30 10784 C 1070.24 1.81999 -0.700105 0
M  V30 10785 O 1069.51 1.93907 0.278744 0
M  V30 10786 H 1068.09 0.32261 -0.673745 0
M  V30 10787 H 1070.75 0.149088 -1.94329 0
M  V30 10788 H 1069.84 1.43171 -2.77324 0
M  V30 10789 N 1070.14 1.51827 0.422667 0
M  V30 10790 C 1071.07 1.77152 1.52117 0
M  V30 10791 C 1072.06 0.621895 1.58324 0
M  V30 10792 O 1073.24 0.866118 1.73816 0
M  V30 10793 C 1070.37 1.90991 2.90068 0
M  V30 10794 C 1069.32 3.06516 2.98717 0
M  V30 10795 C 1068.65 3.05559 4.38791 0
M  V30 10796 C 1069.95 4.46223 2.71445 0
M  V30 10797 H 1071.64 2.69135 1.31175 0
M  V30 10798 H 1069.19 1.29507 0.629607 0
M  V30 10799 H 1071.14 2.07291 3.6689 0
M  V30 10800 H 1069.87 0.956688 3.12274 0
M  V30 10801 H 1068.53 2.89945 2.24338 0
M  V30 10802 H 1068.17 2.07985 4.57986 0
M  V30 10803 H 1067.87 3.83144 4.45505 0
M  V30 10804 H 1069.4 3.23971 5.17566 0
M  V30 10805 H 1070.81 4.63069 3.37994 0
M  V30 10806 H 1069.21 5.25623 2.89552 0
M  V30 10807 H 1070.28 4.5525 1.6696 0
M  V30 10808 N 1071.62 -0.679052 1.4222 0
M  V30 10809 C 1072.85 -1.46534 1.45641 0
M  V30 10810 C 1073.26 -1.89088 0.0649574 0
M  V30 10811 O 1072.6 -1.58436 -0.929712 0
M  V30 10812 C 1072.67 -2.74882 2.3169 0
M  V30 10813 C 1072.33 -2.5443 3.79624 0
M  V30 10814 C 1073.33 -2.19307 4.71382 0
M  V30 10815 C 1071.01 -2.69557 4.23845 0
M  V30 10816 C 1073.01 -1.99571 6.05351 0
M  V30 10817 C 1070.69 -2.49437 5.57875 0
M  V30 10818 C 1071.69 -2.14497 6.48444 0
M  V30 10819 O 1071.38 -1.94567 7.79999 0
M  V30 10820 H 1071.11 -0.457542 0.497626 0
M  V30 10821 H 1073.66 -0.842145 1.87342 0
M  V30 10822 H 1071.89 -3.39669 1.8483 0
M  V30 10823 H 1073.58 -3.3675 2.26615 0
M  V30 10824 H 1074.35 -2.0722 4.38503 0
M  V30 10825 H 1070.23 -2.95733 3.53642 0
M  V30 10826 H 1073.77 -1.72222 6.76007 0
M  V30 10827 H 1069.67 -2.61119 5.90328 0
M  V30 10828 H 1070.44 -2.092 7.91314 0
M  V30 10829 N 1073.1 -1.28322 -0.914942 0
M  V30 10830 C 1074.03 -1.14681 -2.03398 0
M  V30 10831 C 1075.01 -0.0448939 -1.70041 0
M  V30 10832 O 1076.2 -0.221672 -1.92931 0
M  V30 10833 C 1073.33 -0.806623 -3.37803 0
M  V30 10834 C 1072.28 -1.86318 -3.85318 0
M  V30 10835 C 1071.61 -1.37665 -5.16674 0
M  V30 10836 C 1072.91 -3.26953 -4.07307 0
M  V30 10837 H 1074.6 -2.08293 -2.15068 0
M  V30 10838 H 1072.15 -1.00284 -1.03339 0
M  V30 10839 H 1074.1 -0.69796 -4.1558 0
M  V30 10840 H 1072.82 0.165203 -3.26182 0
M  V30 10841 H 1071.48 -1.96096 -3.09745 0
M  V30 10842 H 1071.13 -0.393927 -5.01455 0
M  V30 10843 H 1070.83 -2.08313 -5.49435 0
M  V30 10844 H 1072.35 -1.28119 -5.97007 0
M  V30 10845 H 1073.77 -3.20102 -4.75613 0
M  V30 10846 H 1072.17 -3.95424 -4.51398 0
M  V30 10847 H 1073.24 -3.71059 -3.12159 0
M  V30 10848 N 1074.58 1.12322 -1.10551 0
M  V30 10849 C 1075.49 2.21678 -0.767862 0
M  V30 10850 C 1076.5 1.72404 0.235132 0
M  V30 10851 O 1077.68 2.01266 0.0735912 0
M  V30 10852 C 1074.75 3.46087 -0.205999 0
M  V30 10853 C 1073.81 4.10195 -1.26642 0
M  V30 10854 C 1073.04 5.28666 -0.731274 0
M  V30 10855 O 1073.26 5.68686 0.44189 0
M  V30 10856 O 1072.2 5.83121 -1.49176 0
M  V30 10857 H 1076.02 2.52955 -1.6807 0
M  V30 10858 H 1073.61 1.2068 -0.880728 0
M  V30 10859 H 1075.49 4.21273 0.103435 0
M  V30 10860 H 1074.16 3.16484 0.679685 0
M  V30 10861 H 1073.07 3.36784 -1.62873 0
M  V30 10862 H 1074.4 4.43957 -2.12516 0
M  V30 10863 N 1076.06 0.894434 1.2976 0
M  V30 10864 C 1077.02 0.373094 2.26143 0
M  V30 10865 C 1078.02 -0.489756 1.5316 0
M  V30 10866 O 1079.21 -0.29556 1.71674 0
M  V30 10867 C 1076.34 -0.467234 3.37683 0
M  V30 10868 H 1077.53 1.22427 2.73773 0
M  V30 10869 H 1075.09 0.672112 1.41111 0
M  V30 10870 H 1075.82 -1.33861 2.95384 0
M  V30 10871 H 1075.61 0.150954 3.91809 0
M  V30 10872 H 1077.1 -0.823469 4.094 0
M  V30 10873 N 1077.53 -1.43282 0.656365 0
M  V30 10874 C 1078.78 -2.01378 0.170702 0
M  V30 10875 C 1079.1 -1.52063 -1.22073 0
M  V30 10876 O 1078.37 -0.73456 -1.81607 0
M  V30 10877 H 1076.95 -0.744577 0.0601168 0
M  V30 10878 H 1079.62 -1.75449 0.848739 0
M  V30 10879 H 1078.71 -3.11701 0.157745 0
M  V30 10880 N 1079.01 -0.398486 -1.52479 0
M  V30 10881 C 1080.29 0.238776 -1.94137 0
M  V30 10882 C 1080.67 1.63558 -1.33462 0
M  V30 10883 O 1080.02 2.22821 -0.506272 0
M  V30 10884 C 1080.23 0.255863 -3.48061 0
M  V30 10885 C 1081.58 0.480376 -4.21874 0
M  V30 10886 O 1082.6 0.335679 -3.54615 0
M  V30 10887 O 1081.46 0.764654 -5.41124 0
M  V30 10888 H 1078.55 0.150806 -0.813134 0
M  V30 10889 H 1081.1 -0.453659 -1.63524 0
M  V30 10890 H 1079.87 -0.722171 -3.84578 0
M  V30 10891 H 1079.49 0.99284 -3.85004 0
M  V30 10892 N 1080.49 1.57075 -0.12858 0
M  V30 10893 C 1081.74 1.9581 0.527868 0
M  V30 10894 C 1082.07 1.01253 1.65715 0
M  V30 10895 O 1081.35 0.0514853 1.94432 0
M  V30 10896 C 1081.63 3.44406 1.05151 0
M  V30 10897 C 1081.48 4.49737 -0.0750113 0
M  V30 10898 C 1082.8 3.95069 1.9393 0
M  V30 10899 H 1079.92 0.711978 0.19041 0
M  V30 10900 H 1082.56 1.88879 -0.206081 0
M  V30 10901 H 1080.71 3.50443 1.67697 0
M  V30 10902 H 1082.38 4.55793 -0.710685 0
M  V30 10903 H 1080.63 4.27497 -0.736809 0
M  V30 10904 H 1081.3 5.50996 0.332779 0
M  V30 10905 H 1083.77 3.91395 1.41241 0
M  V30 10906 H 1082.65 4.99542 2.27484 0
M  V30 10907 H 1082.91 3.36329 2.86941 0
M  V30 10908 N 1081.97 -0.145205 1.5693 0
M  V30 10909 C 1083.22 -0.858786 1.83719 0
M  V30 10910 C 1083.55 -1.80738 0.710452 0
M  V30 10911 O 1082.82 -1.92389 -0.285791 0
M  V30 10912 C 1083.11 -1.6317 3.2101 0
M  V30 10913 C 1082.96 -0.704472 4.44249 0
M  V30 10914 C 1084.28 -2.59377 3.55544 0
M  V30 10915 H 1081.4 -0.310757 0.66828 0
M  V30 10916 H 1084.04 -0.123918 1.89595 0
M  V30 10917 H 1082.19 -2.25816 3.16132 0
M  V30 10918 H 1083.86 -0.08887 4.61214 0
M  V30 10919 H 1082.1 -0.0141693 4.33798 0
M  V30 10920 H 1082.78 -1.28135 5.36922 0
M  V30 10921 H 1085.25 -2.06848 3.61044 0
M  V30 10922 H 1084.13 -3.10506 4.52634 0
M  V30 10923 H 1084.39 -3.40819 2.81594 0
M  V30 10924 N 1083.45 -1.52049 -0.414609 0
M  V30 10925 C 1084.69 -1.66084 -1.16379 0
M  V30 10926 C 1085.03 -0.386932 -1.90306 0
M  V30 10927 O 1084.3 0.614441 -1.8454 0
M  V30 10928 C 1084.58 -2.87927 -2.16264 0
M  V30 10929 C 1084.44 -4.25353 -1.46269 0
M  V30 10930 C 1085.76 -3.05289 -3.16996 0
M  V30 10931 H 1082.88 -0.604414 -0.421726 0
M  V30 10932 H 1085.52 -1.8459 -0.450177 0
M  V30 10933 H 1083.67 -2.7228 -2.77121 0
M  V30 10934 H 1085.34 -4.52717 -0.885743 0
M  V30 10935 H 1083.58 -4.27006 -0.76472 0
M  V30 10936 H 1084.25 -5.06644 -2.19126 0
M  V30 10937 H 1086.73 -3.19798 -2.66212 0
M  V30 10938 H 1085.61 -3.92065 -3.84156 0
M  V30 10939 H 1085.87 -2.1836 -3.84411 0
M  V30 10940 N 1084.93 0.6715 -1.42579 0
M  V30 10941 C 1086.34 0.985019 -1.25577 0
M  V30 10942 C 1086.54 2.00845 -0.162319 0
M  V30 10943 O 1085.6 2.48175 0.465352 0
M  V30 10944 C 1086.91 1.48668 -2.61377 0
M  V30 10945 C 1088.46 1.60429 -2.68759 0
M  V30 10946 C 1088.93 2.13991 -4.04935 0
M  V30 10947 N 1090.42 2.21319 -4.06906 0
M  V30 10948 C 1091.16 2.63845 -5.09091 0
M  V30 10949 N 1090.66 3.05799 -6.21658 0
M  V30 10950 N 1092.45 2.63623 -4.96447 0
M  V30 10951 H 1084.6 -0.00604561 -2.12399 0
M  V30 10952 H 1086.86 0.0598299 -0.94611 0
M  V30 10953 H 1086.57 0.80917 -3.42265 0
M  V30 10954 H 1086.44 2.46487 -2.85524 0
M  V30 10955 H 1088.83 2.27286 -1.88216 0
M  V30 10956 H 1088.91 0.610909 -2.48398 0
M  V30 10957 H 1088.55 1.47741 -4.85937 0
M  V30 10958 H 1088.48 3.14126 -4.2265 0
M  V30 10959 H 1090.98 1.91743 -3.25643 0
M  V30 10960 H 1091.29 3.36944 -6.95477 0
M  V30 10961 H 1089.63 3.03648 -6.25158 0
M  V30 10962 H 1092.82 2.30211 -4.07579 0
M  V30 10963 H 1093 2.96444 -5.76216 0
M  V30 10964 N 1086.4 1.28806 0.908124 0
M  V30 10965 C 1087.34 1.09018 2.01613 0
M  V30 10966 C 1088.35 0.0402059 1.6275 0
M  V30 10967 O 1089.54 0.283853 1.76229 0
M  V30 10968 C 1086.64 0.635712 3.32884 0
M  V30 10969 C 1085.81 1.76235 4.00325 0
M  V30 10970 C 1084.87 1.3003 5.09881 0
M  V30 10971 O 1083.9 2.00354 5.32773 0
M  V30 10972 N 1085.1 0.166575 5.80261 0
M  V30 10973 H 1087.86 2.0444 2.19144 0
M  V30 10974 H 1085.42 1.20633 1.07978 0
M  V30 10975 H 1087.42 0.310097 4.0351 0
M  V30 10976 H 1085.99 -0.225816 3.11783 0
M  V30 10977 H 1085.21 2.25727 3.23173 0
M  V30 10978 H 1086.49 2.51796 4.42127 0
M  V30 10979 H 1085.89 -0.419934 5.64139 0
M  V30 10980 H 1084.45 -0.0997281 6.51724 0
M  V30 10981 N 1087.88 -1.11734 1.11145 0
M  V30 10982 C 1088.79 -2.21267 0.779607 0
M  V30 10983 C 1089.81 -1.72526 -0.225986 0
M  V30 10984 O 1090.98 -2.01302 -0.0629166 0
M  V30 10985 C 1088.05 -3.45973 0.22435 0
M  V30 10986 C 1087.11 -4.09518 1.28816 0
M  V30 10987 C 1086.34 -5.28271 0.7593 0
M  V30 10988 O 1086.57 -5.68912 -0.411725 0
M  V30 10989 O 1085.5 -5.82322 1.52266 0
M  V30 10990 H 1089.33 -2.5206 1.6941 0
M  V30 10991 H 1086.91 -1.20211 0.887115 0
M  V30 10992 H 1088.79 -4.21322 -0.0810921 0
M  V30 10993 H 1087.47 -3.1684 -0.662891 0
M  V30 10994 H 1086.37 -3.35915 1.64657 0
M  V30 10995 H 1087.71 -4.42824 2.14868 0
M  V30 10996 N 1089.36 -0.901303 -1.29284 0
M  V30 10997 C 1090.27 -0.3849 -2.31421 0
M  V30 10998 C 1091.29 0.521163 -1.66012 0
M  V30 10999 O 1092.46 0.410356 -1.97175 0
M  V30 11000 C 1089.53 0.377804 -3.44635 0
M  V30 11001 C 1088.59 -0.559974 -4.25632 0
M  V30 11002 C 1087.82 0.166425 -5.3344 0
M  V30 11003 O 1088.04 1.39012 -5.53202 0
M  V30 11004 O 1086.98 -0.491875 -5.99887 0
M  V30 11005 H 1090.8 -1.2323 -2.77575 0
M  V30 11006 H 1088.39 -0.665683 -1.3375 0
M  V30 11007 H 1090.27 0.809041 -4.13561 0
M  V30 11008 H 1088.95 1.20124 -3.00586 0
M  V30 11009 H 1087.85 -1.04036 -3.59343 0
M  V30 11010 H 1089.19 -1.34987 -4.73328 0
M  V30 11011 N 1090.84 1.42931 -0.663954 0
M  V30 11012 C 1092.25 1.56098 -0.332496 0
M  V30 11013 C 1092.45 1.64564 1.16279 0
M  V30 11014 O 1091.51 1.6066 1.94794 0
M  V30 11015 C 1092.82 2.81649 -1.05329 0
M  V30 11016 C 1094.37 2.95408 -1.03457 0
M  V30 11017 C 1094.85 4.23805 -1.73647 0
M  V30 11018 N 1096.34 4.30693 -1.70462 0
M  V30 11019 C 1097.07 5.28833 -2.21637 0
M  V30 11020 N 1096.57 6.33189 -2.81147 0
M  V30 11021 N 1098.36 5.20558 -2.12075 0
M  V30 11022 H 1090.51 1.3568 -1.63416 0
M  V30 11023 H 1092.77 0.652361 -0.687844 0
M  V30 11024 H 1092.48 2.81494 -2.10842 0
M  V30 11025 H 1092.35 3.72208 -0.611626 0
M  V30 11026 H 1094.74 2.95097 0.0121936 0
M  V30 11027 H 1094.82 2.06109 -1.51502 0
M  V30 11028 H 1094.47 4.24876 -2.78285 0
M  V30 11029 H 1094.4 5.12019 -1.2306 0
M  V30 11030 H 1096.89 3.55904 -1.27046 0
M  V30 11031 H 1097.2 7.04411 -3.17844 0
M  V30 11032 H 1095.55 6.33781 -2.85212 0
M  V30 11033 H 1098.74 4.3795 -1.6528 0
M  V30 11034 H 1098.91 5.96881 -2.52264 0
M  V30 11035 N 1092.32 0.406567 1.52266 0
M  V30 11036 C 1093.56 -0.169611 2.03695 0
M  V30 11037 C 1093.92 -1.42596 1.2857 0
M  V30 11038 O 1095.12 -2.08041 1.70212 0
M  V30 11039 C 1093.39 -0.413924 3.54995 0
M  V30 11040 S 1094.95 -0.957916 4.28217 0
M  V30 11041 H 1091.77 -0.0462362 0.709495 0
M  V30 11042 H 1094.37 0.558895 1.87341 0
M  V30 11043 H 1093.07 0.507285 4.07253 0
M  V30 11044 H 1092.61 -1.17038 3.75587 0
M  V30 11045 H 1094.62 -2.2387 4.42828 0
M  V30 11046 N 1093.79 -1.57004 0.136909 0
M  V30 11047 C 1095.04 -1.96087 -0.517477 0
M  V30 11048 C 1095.37 -1.0213 -1.65176 0
M  V30 11049 O 1094.65 -0.0617958 -1.94402 0
M  V30 11050 C 1094.93 -3.44958 -1.03323 0
M  V30 11051 C 1094.78 -4.49691 0.0988609 0
M  V30 11052 C 1096.1 -3.96091 -1.91832 0
M  V30 11053 H 1093.22 -0.712978 -0.186632 0
M  V30 11054 H 1095.86 -1.88767 0.216095 0
M  V30 11055 H 1094.01 -3.51327 -1.65836 0
M  V30 11056 H 1095.69 -4.55409 0.734847 0
M  V30 11057 H 1093.93 -4.271 0.75947 0
M  V30 11058 H 1094.6 -5.51165 -0.303554 0
M  V30 11059 H 1097.08 -3.92139 -1.39164 0
M  V30 11060 H 1095.95 -5.00742 -2.24831 0
M  V30 11061 H 1096.21 -3.37846 -2.85153 0
M  V30 11062 N 1095.27 0.136881 -1.57004 0
M  V30 11063 C 1096.51 0.853873 -1.8571 0
M  V30 11064 C 1096.88 1.77885 -0.722556 0
M  V30 11065 O 1098.08 2.53606 -0.89092 0
M  V30 11066 C 1096.35 1.59935 -3.19618 0
M  V30 11067 S 1097.91 2.36038 -3.69908 0
M  V30 11068 H 1094.73 0.285342 -0.65123 0
M  V30 11069 H 1097.33 0.113254 -1.95172 0
M  V30 11070 H 1096.03 0.91148 -4.0015 0
M  V30 11071 H 1095.56 2.38069 -3.13188 0
M  V30 11072 H 1097.58 3.61425 -3.3998 0
M  V30 11073 N 1096.75 1.52266 0.40654 0
M  V30 11074 C 1098.17 1.41127 0.745348 0
M  V30 11075 C 1098.37 0.517802 1.94733 0
M  V30 11076 O 1097.42 -0.0154286 2.52495 0
M  V30 11077 C 1098.74 2.83696 0.996859 0
M  V30 11078 C 1100.28 2.93056 1.09942 0
M  V30 11079 C 1100.76 4.36599 1.38367 0
M  V30 11080 N 1102.25 4.39845 1.45226 0
M  V30 11081 C 1102.98 5.47975 1.68852 0
M  V30 11082 N 1102.48 6.66219 1.90065 0
M  V30 11083 N 1104.27 5.35494 1.70888 0
M  V30 11084 H 1096.42 2.08888 -0.384632 0
M  V30 11085 H 1098.69 0.941619 -0.109809 0
M  V30 11086 H 1098.39 3.51208 0.185986 0
M  V30 11087 H 1098.27 3.24895 1.91632 0
M  V30 11088 H 1100.65 2.25723 1.90088 0
M  V30 11089 H 1100.74 2.5531 0.158256 0
M  V30 11090 H 1100.38 5.04492 0.587373 0
M  V30 11091 H 1100.31 4.71883 2.33739 0
M  V30 11092 H 1102.8 3.54611 1.30612 0
M  V30 11093 H 1103.11 7.44408 2.0755 0
M  V30 11094 H 1101.46 6.69279 1.87325 0
M  V30 11095 H 1104.65 4.42093 1.53856 0
M  V30 11096 H 1104.82 6.19837 1.88962 0
M  V30 11097 N 1098.23 -0.663929 1.42933 0
M  V30 11098 C 1099.51 -1.42054 1.34462 0
M  V30 11099 C 1099.89 -2.11096 -0.0127801 0
M  V30 11100 O 1099.23 -2.04027 -1.02884 0
M  V30 11101 C 1099.44 -2.41406 2.5204 0
M  V30 11102 C 1100.79 -3.05726 2.94647 0
M  V30 11103 O 1101.82 -2.51733 2.52009 0
M  V30 11104 O 1100.67 -4.03593 3.68477 0
M  V30 11105 H 1097.77 -0.634149 0.530834 0
M  V30 11106 H 1100.31 -0.691738 1.54962 0
M  V30 11107 H 1099.09 -1.89263 3.42484 0
M  V30 11108 H 1098.71 -3.21752 2.33584 0
M  V30 11109 N 1099.71 -1.29285 -0.901281 0
M  V30 11110 C 1100.95 -1.16934 -1.64836 0
M  V30 11111 C 1101.28 0.279826 -1.92982 0
M  V30 11112 O 1100.55 1.19179 -1.55478 0
M  V30 11113 H 1099.13 -0.429768 -0.61099 0
M  V30 11114 H 1101.79 -1.62189 -1.08077 0
M  V30 11115 H 1100.88 -1.71821 -2.60545 0
M  V30 11116 N 1101.18 1.11143 -1.11736 0
M  V30 11117 C 1102.6 1.34962 -0.851905 0
M  V30 11118 C 1102.8 1.94627 0.521797 0
M  V30 11119 O 1101.86 2.18121 1.27198 0
M  V30 11120 C 1103.17 2.27832 -1.96248 0
M  V30 11121 C 1104.72 2.41388 -1.9925 0
M  V30 11122 C 1105.19 3.37582 -3.09519 0
M  V30 11123 N 1106.68 3.45147 -3.08914 0
M  V30 11124 C 1107.42 4.19527 -3.90876 0
M  V30 11125 N 1106.91 4.96858 -4.82809 0
M  V30 11126 N 1108.71 4.15071 -3.79042 0
M  V30 11127 H 1100.86 0.707801 -2.0026 0
M  V30 11128 H 1103.12 0.374172 -0.871033 0
M  V30 11129 H 1102.83 1.91189 -2.95194 0
M  V30 11130 H 1102.7 3.28078 -1.86132 0
M  V30 11131 H 1105.09 2.77304 -1.00928 0
M  V30 11132 H 1105.17 1.40983 -2.13442 0
M  V30 11133 H 1104.81 3.02393 -4.0807 0
M  V30 11134 H 1104.74 4.37849 -2.92568 0
M  V30 11135 H 1107.23 2.89991 -2.42309 0
M  V30 11136 H 1107.55 5.5099 -5.41876 0
M  V30 11137 H 1105.89 4.96008 -4.86828 0
M  V30 11138 H 1109.08 3.53748 -3.06562 0
M  V30 11139 H 1109.26 4.72781 -4.4315 0
M  V30 11140 N 1102.66 0.908147 1.28804 0
M  V30 11141 C 1103.59 0.409106 2.29888 0
M  V30 11142 C 1104.57 -0.520338 1.61946 0
M  V30 11143 O 1105.76 -0.429268 1.89396 0
M  V30 11144 C 1102.89 -0.35669 3.45463 0
M  V30 11145 C 1101.84 0.4831 4.25265 0
M  V30 11146 C 1101.17 -0.4107 5.3312 0
M  V30 11147 C 1102.47 1.73744 4.92555 0
M  V30 11148 H 1104.16 1.25386 2.7188 0
M  V30 11149 H 1101.71 0.604368 1.30703 0
M  V30 11150 H 1103.66 -0.71661 4.15262 0
M  V30 11151 H 1102.39 -1.2353 3.02337 0
M  V30 11152 H 1101.04 0.825464 3.57186 0
M  V30 11153 H 1100.69 -1.28769 4.86238 0
M  V30 11154 H 1100.39 0.14756 5.87415 0
M  V30 11155 H 1101.92 -0.766626 6.05768 0
M  V30 11156 H 1103.33 1.44676 5.54745 0
M  V30 11157 H 1101.73 2.23767 5.5682 0
M  V30 11158 H 1102.8 2.46853 4.17363 0
M  V30 11159 N 1104.14 -1.42577 0.671525 0
M  V30 11160 C 1105.09 -2.27978 -0.0315286 0
M  V30 11161 C 1106.07 -1.40907 -0.776796 0
M  V30 11162 O 1107.27 -1.64385 -0.656248 0
M  V30 11163 C 1104.4 -3.28884 -0.9844 0
M  V30 11164 C 1103.48 -4.23439 -0.236647 0
M  V30 11165 N 1103.87 -5.00107 0.756714 0
M  V30 11166 C 1102.17 -4.43457 -0.475551 0
M  V30 11167 C 1102.87 -5.69141 1.20221 0
M  V30 11168 N 1101.85 -5.40983 0.532802 0
M  V30 11169 H 1105.65 -2.84678 0.730455 0
M  V30 11170 H 1103.16 -1.54501 0.500317 0
M  V30 11171 H 1105.16 -3.88864 -1.50302 0
M  V30 11172 H 1103.82 -2.73745 -1.74625 0
M  V30 11173 H 1104.83 -5.05285 1.13613 0
M  V30 11174 H 1101.51 -3.99364 -1.21715 0
M  V30 11175 H 1102.9 -6.40653 2.02517 0
M  V30 11176 N 1105.62 -0.414636 -1.52048 0
M  V30 11177 C 1106.86 0.158807 -2.03782 0
M  V30 11178 C 1107.22 1.41912 -1.29325 0
M  V30 11179 O 1108.42 2.07136 -1.71313 0
M  V30 11180 C 1106.69 0.395092 -3.55209 0
M  V30 11181 S 1108.25 0.935193 -4.28719 0
M  V30 11182 H 1105.07 0.0424729 -0.70973 0
M  V30 11183 H 1107.67 -0.568822 -1.87042 0
M  V30 11184 H 1106.38 -0.528875 -4.06978 0
M  V30 11185 H 1105.91 1.15044 -3.76203 0
M  V30 11186 H 1107.92 2.21519 -4.44009 0
M  V30 11187 N 1107.1 1.56929 -0.145233 0
M  V30 11188 C 1108.51 1.58196 0.211194 0
M  V30 11189 C 1108.71 1.15941 1.64803 0
M  V30 11190 O 1107.77 0.858888 2.37443 0
M  V30 11191 C 1109.08 3.00665 -0.0459569 0
M  V30 11192 C 1110.63 3.12995 0.0178913 0
M  V30 11193 C 1111.1 4.5751 -0.211905 0
M  V30 11194 N 1112.6 4.62928 -0.158772 0
M  V30 11195 C 1113.33 5.72555 -0.311111 0
M  V30 11196 N 1112.83 6.90838 -0.521074 0
M  V30 11197 N 1114.62 5.61549 -0.248838 0
M  V30 11198 H 1106.77 1.8269 -1.08342 0
M  V30 11199 H 1109.03 0.845514 -0.428731 0
M  V30 11200 H 1108.74 3.35962 -1.0403 0
M  V30 11201 H 1108.61 3.71125 0.674246 0
M  V30 11202 H 1111 2.7754 1.00278 0
M  V30 11203 H 1111.08 2.45025 -0.734612 0
M  V30 11204 H 1110.73 4.93669 -1.19389 0
M  V30 11205 H 1110.66 5.23604 0.560901 0
M  V30 11206 H 1113.15 3.779 -0.00107283 0
M  V30 11207 H 1113.46 7.70248 -0.62747 0
M  V30 11208 H 1111.8 6.92761 -0.557374 0
M  V30 11209 H 1115 4.68022 -0.0855821 0
M  V30 11210 H 1115.17 6.46937 -0.370997 0
M  V30 11211 N 1108.58 -0.128553 1.57075 0
M  V30 11212 C 1109.51 -1.18362 1.96273 0
M  V30 11213 C 1110.52 -1.3818 0.860818 0
M  V30 11214 O 1111.71 -1.37424 1.13916 0
M  V30 11215 C 1108.81 -2.54533 2.23755 0
M  V30 11216 C 1107.98 -2.55446 3.55058 0
M  V30 11217 C 1107.04 -3.73291 3.70864 0
M  V30 11218 O 1106.07 -3.57315 4.43074 0
M  V30 11219 N 1107.27 -4.91481 3.08912 0
M  V30 11220 H 1110.03 -0.850276 2.87385 0
M  V30 11221 H 1107.6 -0.317931 1.58748 0
M  V30 11222 H 1109.59 -3.31912 2.31553 0
M  V30 11223 H 1108.16 -2.80087 1.38816 0
M  V30 11224 H 1107.38 -1.6385 3.58534 0
M  V30 11225 H 1108.67 -2.53104 4.4138 0
M  V30 11226 H 1108.06 -5.07364 2.50196 0
M  V30 11227 H 1106.62 -5.6657 3.22245 0
M  V30 11228 N 1110.05 -1.5248 -0.398459 0
M  V30 11229 C 1111.3 -1.66287 -1.14155 0
M  V30 11230 C 1111.62 -0.40429 -1.91376 0
M  V30 11231 O 1112.82 -0.422341 -2.68195 0
M  V30 11232 C 1111.28 -2.93831 -2.07825 0
M  V30 11233 C 1110.89 -4.26836 -1.3607 0
M  V30 11234 C 1112.63 -3.17004 -2.82327 0
M  V30 11235 C 1110.54 -5.45495 -2.28451 0
M  V30 11236 H 1109.47 -0.619478 -0.42984 0
M  V30 11237 H 1112.12 -1.78972 -0.405112 0
M  V30 11238 H 1110.5 -2.7487 -2.85065 0
M  V30 11239 H 1111.67 -4.56317 -0.641205 0
M  V30 11240 H 1109.99 -4.0985 -0.735659 0
M  V30 11241 H 1112.59 -4.02834 -3.51609 0
M  V30 11242 H 1112.93 -2.3168 -3.45876 0
M  V30 11243 H 1113.46 -3.36487 -2.12183 0
M  V30 11244 H 1110.2 -6.33198 -1.69532 0
M  V30 11245 H 1109.72 -5.20338 -2.98343 0
M  V30 11246 H 1111.4 -5.78996 -2.88743 0
M  V30 11247 N 1111.53 0.65634 -1.43283 0
M  V30 11248 C 1112.95 0.971645 -1.26614 0
M  V30 11249 C 1113.15 2.00662 -0.183612 0
M  V30 11250 O 1112.2 2.48654 0.439003 0
M  V30 11251 C 1113.52 1.45888 -2.6294 0
M  V30 11252 C 1115.06 1.57569 -2.70446 0
M  V30 11253 C 1115.54 2.09684 -4.07181 0
M  V30 11254 N 1117.03 2.16991 -4.0923 0
M  V30 11255 C 1117.77 2.5843 -5.11861 0
M  V30 11256 N 1117.26 2.99188 -6.24867 0
M  V30 11257 N 1119.05 2.58342 -4.99215 0
M  V30 11258 H 1111.21 -0.028573 -2.12381 0
M  V30 11259 H 1113.47 0.0497918 -0.946691 0
M  V30 11260 H 1113.17 0.772823 -3.43104 0
M  V30 11261 H 1113.05 2.43445 -2.88122 0
M  V30 11262 H 1115.44 2.25277 -1.90616 0
M  V30 11263 H 1115.52 0.584529 -2.49032 0
M  V30 11264 H 1115.16 1.42579 -4.87477 0
M  V30 11265 H 1115.09 3.09625 -4.25958 0
M  V30 11266 H 1117.58 1.88278 -3.27658 0
M  V30 11267 H 1117.89 3.29549 -6.99012 0
M  V30 11268 H 1116.24 2.97 -6.28344 0
M  V30 11269 H 1119.43 2.25875 -4.09998 0
M  V30 11270 H 1119.6 2.90316 -5.79328 0
M  V30 11271 N 1113.01 1.29761 0.894412 0
M  V30 11272 C 1113.94 1.17902 2.01547 0
M  V30 11273 C 1114.92 0.0719402 1.69948 0
M  V30 11274 O 1116.11 0.252338 1.92554 0
M  V30 11275 C 1113.24 0.860262 3.36477 0
M  V30 11276 C 1112.19 1.92424 3.82305 0
M  V30 11277 C 1111.52 1.45868 5.14419 0
M  V30 11278 C 1112.82 3.33391 4.02054 0
M  V30 11279 H 1114.51 2.11688 2.11727 0
M  V30 11280 H 1112.06 1.01916 1.01731 0
M  V30 11281 H 1114.01 0.763987 4.14417 0
M  V30 11282 H 1112.73 -0.113289 3.26403 0
M  V30 11283 H 1111.39 2.00999 3.06586 0
M  V30 11284 H 1111.04 0.473654 5.00765 0
M  V30 11285 H 1110.74 2.17028 5.46052 0
M  V30 11286 H 1112.26 1.37601 5.94894 0
M  V30 11287 H 1113.68 3.27628 4.7046 0
M  V30 11288 H 1112.07 4.02555 4.4505 0
M  V30 11289 H 1113.14 3.75978 3.06216 0
M  V30 11290 N 1114.49 -1.10549 1.12324 0
M  V30 11291 C 1115.74 -1.81851 0.872531 0
M  V30 11292 C 1116.05 -1.86058 -0.603468 0
M  V30 11293 O 1117.26 -2.53553 -0.970736 0
M  V30 11294 C 1115.71 -3.26631 1.51131 0
M  V30 11295 C 1115.32 -3.30725 3.02201 0
M  V30 11296 C 1117.06 -4.02768 1.34082 0
M  V30 11297 C 1114.97 -4.69957 3.59018 0
M  V30 11298 H 1113.9 -0.681422 0.322769 0
M  V30 11299 H 1116.55 -1.24332 1.34959 0
M  V30 11300 H 1114.93 -3.8414 0.961913 0
M  V30 11301 H 1116.11 -2.83046 3.63623 0
M  V30 11302 H 1114.42 -2.68072 3.18632 0
M  V30 11303 H 1117.02 -5.05612 1.73955 0
M  V30 11304 H 1117.36 -4.15328 0.284369 0
M  V30 11305 H 1117.9 -3.51671 1.85937 0
M  V30 11306 H 1114.63 -4.62597 4.64418 0
M  V30 11307 H 1114.15 -5.18008 3.02371 0
M  V30 11308 H 1115.83 -5.38925 3.58007 0
M  V30 11309 N 1115.97 -0.914965 -1.28321 0
M  V30 11310 C 1117.21 -0.547665 -1.94538 0
M  V30 11311 C 1117.53 0.911834 -1.72368 0
M  V30 11312 O 1116.8 1.64481 -1.06408 0
M  V30 11313 H 1115.38 -0.199549 -0.719853 0
M  V30 11314 H 1118.05 -1.16459 -1.5628 0
M  V30 11315 H 1117.14 -0.743138 -3.03124 0
M  V30 11316 N 1117.44 1.42219 -0.679077 0
M  V30 11317 C 1118.38 2.29172 0.035583 0
M  V30 11318 C 1119.39 1.43909 0.761183 0
M  V30 11319 O 1120.58 1.67584 0.61463 0
M  V30 11320 C 1117.68 3.21426 1.07419 0
M  V30 11321 C 1116.85 4.35364 0.421547 0
M  V30 11322 C 1115.91 5.08307 1.36051 0
M  V30 11323 O 1114.94 5.62678 0.859186 0
M  V30 11324 N 1116.14 5.14222 2.69362 0
M  V30 11325 H 1118.9 2.91147 -0.710865 0
M  V30 11326 H 1116.46 1.53192 -0.523821 0
M  V30 11327 H 1118.46 3.67091 1.70371 0
M  V30 11328 H 1117.03 2.60873 1.72233 0
M  V30 11329 H 1116.25 3.9229 -0.387559 0
M  V30 11330 H 1117.53 5.08789 -0.0329421 0
M  V30 11331 H 1116.93 4.71467 3.12627 0
M  V30 11332 H 1115.49 5.63519 3.27551 0
M  V30 11333 N 1118.92 0.422693 1.51826 0
M  V30 11334 C 1120.15 -0.15017 2.06856 0
M  V30 11335 C 1120.57 -1.36946 1.28948 0
M  V30 11336 O 1119.93 -1.78393 0.32338 0
M  V30 11337 C 1119.98 -0.465563 3.57582 0
M  V30 11338 O 1119.08 -1.55442 3.81984 0
M  V30 11339 H 1118.42 -0.00827931 0.663948 0
M  V30 11340 H 1120.95 0.599806 1.95611 0
M  V30 11341 H 1120.96 -0.720279 4.01592 0
M  V30 11342 H 1119.64 0.425679 4.13716 0
M  V30 11343 H 1118.21 -1.29081 3.49846 0
M  V30 11344 N 1120.4 -1.5685 0.153553 0
M  V30 11345 C 1121.64 -1.98226 -0.498586 0
M  V30 11346 C 1122 -1.03671 -1.61605 0
M  V30 11347 O 1123.2 -1.34117 -2.32951 0
M  V30 11348 C 1121.48 -3.43539 -0.985678 0
M  V30 11349 S 1123.03 -4.0694 -1.6415 0
M  V30 11350 H 1119.85 -0.692533 -0.160993 0
M  V30 11351 H 1122.45 -1.93936 0.246817 0
M  V30 11352 H 1121.16 -4.10081 -0.161708 0
M  V30 11353 H 1120.69 -3.51557 -1.76555 0
M  V30 11354 H 1122.7 -4.0053 -2.929 0
M  V30 11355 N 1121.88 0.120221 -1.57141 0
M  V30 11356 C 1123.11 0.842441 -1.88972 0
M  V30 11357 C 1123.52 1.73494 -0.744671 0
M  V30 11358 O 1122.88 1.80268 0.284557 0
M  V30 11359 C 1122.93 1.67688 -3.20254 0
M  V30 11360 O 1122.65 0.820319 -4.30351 0
M  V30 11361 C 1124.15 2.50436 -3.65782 0
M  V30 11362 H 1121.37 0.242241 -0.625748 0
M  V30 11363 H 1123.91 0.104978 -2.0423 0
M  V30 11364 H 1122.07 2.36712 -3.0667 0
M  V30 11365 H 1122.48 1.39575 -5.05588 0
M  V30 11366 H 1123.96 3.04518 -4.60405 0
M  V30 11367 H 1124.43 3.27737 -2.92378 0
M  V30 11368 H 1125.04 1.86657 -3.82151 0
M  V30 11369 N 1123.36 1.52689 0.390367 0
M  V30 11370 C 1124.32 1.76726 1.45947 0
M  V30 11371 C 1125.32 0.637269 1.47633 0
M  V30 11372 O 1126.51 0.905312 1.48828 0
M  V30 11373 C 1123.64 1.86678 2.85244 0
M  V30 11374 H 1124.83 2.72185 1.25918 0
M  V30 11375 H 1122.39 1.4339 0.622023 0
M  V30 11376 H 1123.12 0.931991 3.10619 0
M  V30 11377 H 1122.91 2.68843 2.85422 0
M  V30 11378 H 1124.4 2.06952 3.62713 0
M  V30 11379 N 1124.83 -0.648732 1.43629 0
M  V30 11380 C 1126.25 -1.23001 1.40455 0
M  V30 11381 C 1126.6 -1.95886 0.110897 0
M  V30 11382 O 1125.72 -2.01485 -0.789487 0
M  V30 11383 C 1126.32 -2.23716 2.54434 0
M  V30 11384 C 1124.88 -2.77311 2.54511 0
M  V30 11385 C 1124.02 -1.52024 2.31914 0
M  V30 11386 H 1126.97 -0.440473 1.52465 0
M  V30 11387 H 1126.99 -3.05979 2.26179 0
M  V30 11388 H 1126.51 -1.7064 3.48574 0
M  V30 11389 H 1124.61 -3.34437 1.64263 0
M  V30 11390 H 1124.72 -3.2455 3.52426 0
M  V30 11391 H 1123.08 -1.79531 1.80667 0
M  V30 11392 H 1123.87 -1.00876 3.28145 0
M  V30 11393 N 1126.31 -1.30234 -0.887518 0
M  V30 11394 C 1127.26 -1.164 -1.99298 0
M  V30 11395 C 1128.23 -0.0541536 -1.66012 0
M  V30 11396 O 1129.41 -0.223881 -1.89482 0
M  V30 11397 C 1126.55 -0.859169 -3.34234 0
M  V30 11398 C 1125.67 -2.05065 -3.80227 0
M  V30 11399 C 1124.8 -1.68413 -5.03796 0
M  V30 11400 C 1123.84 -2.8407 -5.4219 0
M  V30 11401 N 1122.98 -2.47732 -6.56942 0
M  V30 11402 H 1127.82 -2.10973 -2.10463 0
M  V30 11403 H 1125.36 -1.04969 -1.03053 0
M  V30 11404 H 1127.31 -0.663064 -4.11897 0
M  V30 11405 H 1125.94 0.0496808 -3.22762 0
M  V30 11406 H 1125 -2.35808 -2.98494 0
M  V30 11407 H 1126.31 -2.91688 -4.04623 0
M  V30 11408 H 1125.46 -1.45162 -5.89078 0
M  V30 11409 H 1124.2 -0.789553 -4.81266 0
M  V30 11410 H 1123.21 -3.0799 -4.55437 0
M  V30 11411 H 1124.43 -3.74211 -5.66695 0
M  V30 11412 H 1122.38 -1.60777 -6.35993 0
M  V30 11413 H 1122.29 -3.27887 -6.81195 0
M  V30 11414 H 1123.56 -2.27831 -7.45462 0
M  V30 11415 N 1127.79 1.09952 -1.12909 0
M  V30 11416 C 1129.04 1.81386 -0.882163 0
M  V30 11417 C 1129.35 1.86376 0.593592 0
M  V30 11418 O 1130.56 2.54064 0.957275 0
M  V30 11419 C 1129.01 3.25824 -1.52861 0
M  V30 11420 C 1128.62 3.29117 -3.0395 0
M  V30 11421 C 1130.37 4.02051 -1.36216 0
M  V30 11422 C 1128.27 4.68047 -3.61505 0
M  V30 11423 H 1127.2 0.679701 -0.326378 0
M  V30 11424 H 1129.85 1.23614 -1.35616 0
M  V30 11425 H 1128.24 3.83624 -0.982271 0
M  V30 11426 H 1129.41 2.81114 -3.65119 0
M  V30 11427 H 1127.73 2.66379 -3.20049 0
M  V30 11428 H 1130.32 5.04683 -1.76633 0
M  V30 11429 H 1130.67 4.15171 -0.306391 0
M  V30 11430 H 1131.2 3.5068 -1.87799 0
M  V30 11431 H 1127.94 4.60128 -4.66865 0
M  V30 11432 H 1127.46 5.16397 -3.05114 0
M  V30 11433 H 1129.14 5.37018 -3.6086 0
M  V30 11434 N 1129.27 0.921757 1.27833 0
M  V30 11435 C 1130.22 0.387357 2.24685 0
M  V30 11436 C 1131.2 -0.505036 1.52768 0
M  V30 11437 O 1132.39 -0.34345 1.73636 0
M  V30 11438 C 1129.52 -0.364168 3.41363 0
M  V30 11439 C 1128.61 0.544401 4.20591 0
M  V30 11440 N 1129 1.66158 4.77729 0
M  V30 11441 C 1127.3 0.346289 4.44654 0
M  V30 11442 C 1128 2.22619 5.37416 0
M  V30 11443 N 1126.98 1.51648 5.22019 0
M  V30 11444 H 1130.78 1.24045 2.6644 0
M  V30 11445 H 1128.29 0.775338 1.42696 0
M  V30 11446 H 1130.29 -0.763917 4.09841 0
M  V30 11447 H 1128.95 -1.21426 3.01141 0
M  V30 11448 H 1129.96 2.04406 4.75856 0
M  V30 11449 H 1126.64 -0.46363 4.14918 0
M  V30 11450 H 1128.03 3.16641 5.92611 0
M  V30 11451 N 1130.75 -1.41857 0.686609 0
M  V30 11452 C 1131.68 -2.28174 -0.0347358 0
M  V30 11453 C 1132.66 -1.41732 -0.796928 0
M  V30 11454 O 1133.84 -1.71165 -0.789607 0
M  V30 11455 C 1130.97 -3.21801 -1.0565 0
M  V30 11456 C 1130.01 -4.24727 -0.388523 0
M  V30 11457 S 1130.85 -5.28508 0.862546 0
M  V30 11458 C 1132 -6.25701 -0.157849 0
M  V30 11459 H 1132.24 -2.89005 0.697381 0
M  V30 11460 H 1129.77 -1.46861 0.476562 0
M  V30 11461 H 1131.73 -3.76278 -1.64089 0
M  V30 11462 H 1130.39 -2.60082 -1.76114 0
M  V30 11463 H 1129.58 -4.90471 -1.15991 0
M  V30 11464 H 1129.18 -3.73799 0.122567 0
M  V30 11465 H 1131.48 -6.6987 -1.01393 0
M  V30 11466 H 1132.42 -7.06569 0.465437 0
M  V30 11467 H 1132.83 -5.62204 -0.508614 0
M  V30 11468 N 1132.22 -0.430739 -1.51599 0
M  V30 11469 C 1133.5 0.197543 -1.946 0
M  V30 11470 C 1133.88 1.6069 -1.36901 0
M  V30 11471 O 1133.23 2.21697 -0.553422 0
M  V30 11472 C 1133.44 0.181976 -3.48525 0
M  V30 11473 C 1134.79 0.390783 -4.22798 0
M  V30 11474 O 1135.81 0.260384 -3.55247 0
M  V30 11475 O 1134.67 0.649701 -5.42624 0
M  V30 11476 H 1131.76 0.133524 -0.81615 0
M  V30 11477 H 1134.31 -0.488243 -1.62525 0
M  V30 11478 H 1133.08 -0.803584 -3.8296 0
M  V30 11479 H 1132.71 0.910952 -3.87024 0
M  V30 11480 N 1133.7 1.56767 -0.161869 0
M  V30 11481 C 1134.94 1.98487 0.488067 0
M  V30 11482 C 1135.31 1.04527 1.61053 0
M  V30 11483 O 1136.51 1.35351 2.32236 0
M  V30 11484 C 1134.78 3.44057 0.967446 0
M  V30 11485 S 1136.34 4.07805 1.61989 0
M  V30 11486 H 1133.16 0.693377 0.157318 0
M  V30 11487 H 1135.76 1.93802 -0.257099 0
M  V30 11488 H 1134.46 4.10161 0.139959 0
M  V30 11489 H 1133.99 3.52488 1.74688 0
M  V30 11490 H 1136.01 4.02078 2.90772 0
M  V30 11491 N 1135.18 -0.111886 1.57202 0
M  V30 11492 C 1136.41 -0.836317 1.89791 0
M  V30 11493 C 1136.83 -1.72304 0.754513 0
M  V30 11494 O 1136.19 -1.78889 -0.294672 0
M  V30 11495 C 1136.24 -1.63971 3.21164 0
M  V30 11496 O 1135.34 -2.74726 3.0757 0
M  V30 11497 H 1134.68 -0.230833 0.622585 0
M  V30 11498 H 1137.21 -0.0921478 2.04392 0
M  V30 11499 H 1137.22 -2.02746 3.54059 0
M  V30 11500 H 1135.9 -0.98882 4.03974 0
M  V30 11501 H 1134.47 -2.39101 2.86156 0
M  V30 11502 N 1136.66 -1.52894 -0.382264 0
M  V30 11503 C 1137.61 -1.78799 -1.48774 0
M  V30 11504 C 1138.6 -0.65624 -1.56173 0
M  V30 11505 O 1139.81 -0.838856 -1.59258 0
M  V30 11506 H 1136.18 -0.565855 -0.49529 0
M  V30 11507 H 1138.15 -2.7136 -1.24122 0
M  V30 11508 C 1136.9 -1.97987 -2.85826 0
M  V30 11509 H 1136.22 -2.84505 -2.80886 0
M  V30 11510 H 1137.66 -2.20099 -3.62398 0
M  V30 11511 C 1136.12 -0.75427 -3.28348 0
M  V30 11512 O 1136.65 0.0650749 -4.01647 0
M  V30 11513 N 1134.86 -0.582457 -2.84703 0
M  V30 11514 H 1134.41 -1.25034 -2.2522 0
M  V30 11515 H 1134.36 0.236208 -3.13511 0
M  V30 11516 N 1138.14 0.641106 -1.43971 0
M  V30 11517 C 1139.07 1.76489 -1.52885 0
M  V30 11518 C 1140.05 1.65742 -0.38258 0
M  V30 11519 O 1141.23 1.84653 -0.601397 0
M  V30 11520 C 1138.36 3.14977 -1.4631 0
M  V30 11521 C 1137.32 3.40502 -2.59311 0
M  V30 11522 C 1136.64 4.78916 -2.37789 0
M  V30 11523 C 1137.94 3.34048 -4.01509 0
M  V30 11524 H 1139.64 1.69286 -2.46946 0
M  V30 11525 H 1137.18 0.813015 -1.18853 0
M  V30 11526 H 1139.14 3.9336 -1.51149 0
M  V30 11527 H 1137.86 3.2294 -0.487599 0
M  V30 11528 H 1136.52 2.64495 -2.53846 0
M  V30 11529 H 1136.17 4.8357 -1.38454 0
M  V30 11530 H 1135.87 4.96954 -3.13545 0
M  V30 11531 H 1137.39 5.59541 -2.4443 0
M  V30 11532 H 1138.81 4.0235 -4.08396 0
M  V30 11533 H 1137.2 3.63622 -4.77388 0
M  V30 11534 H 1138.27 2.32022 -4.25786 0
M  V30 11535 N 1139.62 1.30703 0.880598 0
M  V30 11536 C 1140.84 1.22714 1.6658 0
M  V30 11537 C 1141.26 -0.209303 1.87636 0
M  V30 11538 O 1140.62 -1.13771 1.42697 0
M  V30 11539 C 1140.67 1.95659 3.03974 0
M  V30 11540 O 1140.39 3.33695 2.83865 0
M  V30 11541 C 1141.89 1.9438 3.98411 0
M  V30 11542 H 1139.11 0.424478 0.519673 0
M  V30 11543 H 1141.65 1.72402 1.0999 0
M  V30 11544 H 1139.81 1.49758 3.57283 0
M  V30 11545 H 1140.22 3.70697 3.71058 0
M  V30 11546 H 1141.7 2.4995 4.92168 0
M  V30 11547 H 1142.17 0.923767 4.29375 0
M  V30 11548 H 1142.78 2.40112 3.51036 0
M  V30 11549 N 1141.09 -1.09351 1.1349 0
M  V30 11550 C 1142.06 -2.14185 0.815919 0
M  V30 11551 C 1143.06 -1.59845 -0.174976 0
M  V30 11552 O 1144.25 -1.74122 0.0521971 0
M  V30 11553 C 1141.38 -3.40224 0.214517 0
M  V30 11554 H 1142.57 -2.43913 1.74489 0
M  V30 11555 H 1140.12 -1.24902 0.939634 0
M  V30 11556 H 1140.86 -3.16123 -0.723634 0
M  V30 11557 H 1140.64 -3.80958 0.928102 0
M  V30 11558 H 1142.13 -4.17599 0.00821999 0
M  V30 11559 N 1142.57 -0.928524 -1.27343 0
M  V30 11560 C 1143.5 -0.445627 -2.29208 0
M  V30 11561 C 1144.48 0.494508 -1.62753 0
M  V30 11562 O 1145.67 0.399082 -1.90055 0
M  V30 11563 C 1142.8 0.301684 -3.45987 0
M  V30 11564 C 1141.75 -0.550695 -4.24442 0
M  V30 11565 C 1141.08 0.325833 -5.33706 0
M  V30 11566 C 1142.38 -1.81559 -4.89728 0
M  V30 11567 H 1144.07 -1.29696 -2.69851 0
M  V30 11568 H 1141.62 -0.625085 -1.29725 0
M  V30 11569 H 1143.57 0.650455 -4.1635 0
M  V30 11570 H 1142.29 1.18705 -3.04264 0
M  V30 11571 H 1140.95 -0.882185 -3.55827 0
M  V30 11572 H 1140.6 1.21018 -4.88225 0
M  V30 11573 H 1140.3 -0.240994 -5.87106 0
M  V30 11574 H 1141.83 0.670156 -6.06911 0
M  V30 11575 H 1143.24 -1.53483 -5.52373 0
M  V30 11576 H 1141.64 -2.32598 -5.53189 0
M  V30 11577 H 1142.71 -2.53461 -4.13383 0
M  V30 11578 N 1144.05 1.41491 -0.694123 0
M  V30 11579 C 1145.01 2.2917 -0.0368562 0
M  V30 11580 C 1146.01 1.44305 0.709426 0
M  V30 11581 O 1147.2 1.6547 0.544533 0
M  V30 11582 C 1144.33 3.27156 0.958201 0
M  V30 11583 H 1145.53 2.88787 -0.808829 0
M  V30 11584 H 1143.08 1.49453 -0.457538 0
M  V30 11585 H 1143.82 2.72516 1.75799 0
M  V30 11586 H 1143.6 3.89776 0.426227 0
M  V30 11587 H 1145.09 3.92863 1.41592 0
M  V30 11588 N 1145.53 0.438773 1.51369 0
M  V30 11589 C 1146.76 -0.125847 2.06517 0
M  V30 11590 C 1147.17 -1.36336 1.30606 0
M  V30 11591 O 1146.53 -1.78792 0.36603 0
M  V30 11592 C 1146.58 -0.446619 3.5873 0
M  V30 11593 O 1146.3 0.741781 4.31775 0
M  V30 11594 C 1147.8 -1.06175 4.30397 0
M  V30 11595 H 1145.02 -0.00728868 0.67096 0
M  V30 11596 H 1147.56 0.618267 1.9493 0
M  V30 11597 H 1145.72 -1.14064 3.70227 0
M  V30 11598 H 1146.13 0.466907 5.22418 0
M  V30 11599 H 1147.61 -1.23619 5.3798 0
M  V30 11600 H 1148.08 -2.04317 3.88782 0
M  V30 11601 H 1148.69 -0.40708 4.23347 0
M  V30 11602 N 1147.01 -1.56678 0.170181 0
M  V30 11603 C 1148.23 -2.0166 -0.484543 0
M  V30 11604 C 1148.66 -1.04962 -1.56091 0
M  V30 11605 O 1148.01 -0.0289887 -1.81277 0
M  V30 11606 C 1148.06 -3.45252 -1.04084 0
M  V30 11607 O 1147.17 -3.51623 -2.15488 0
M  V30 11608 H 1146.51 -0.653765 -0.116135 0
M  V30 11609 H 1149.04 -2.02761 0.273737 0
M  V30 11610 H 1149.05 -3.84534 -1.36373 0
M  V30 11611 H 1147.72 -4.15131 -0.252738 0
M  V30 11612 H 1146.3 -3.242 -1.84252 0
M  V30 11613 N 1148.48 0.103547 -1.57259 0
M  V30 11614 C 1149.43 1.12621 -2.01458 0
M  V30 11615 C 1150.4 1.40282 -0.889391 0
M  V30 11616 O 1151.59 1.51887 -1.15477 0
M  V30 11617 C 1148.73 2.44352 -2.43692 0
M  V30 11618 C 1147.84 2.23495 -3.69695 0
M  V30 11619 C 1146.97 3.48565 -4.00844 0
M  V30 11620 C 1146.01 3.22932 -5.19982 0
M  V30 11621 N 1145.15 4.40246 -5.46926 0
M  V30 11622 H 1149.99 0.742315 -2.88606 0
M  V30 11623 H 1147.53 0.355016 -1.42752 0
M  V30 11624 H 1149.48 3.2122 -2.66221 0
M  V30 11625 H 1148.11 2.80605 -1.59565 0
M  V30 11626 H 1147.17 1.3747 -3.54692 0
M  V30 11627 H 1148.48 2.0054 -4.56711 0
M  V30 11628 H 1147.63 4.33844 -4.24104 0
M  V30 11629 H 1146.37 3.74565 -3.12333 0
M  V30 11630 H 1145.38 2.36045 -4.96551 0
M  V30 11631 H 1146.6 2.98286 -6.10084 0
M  V30 11632 H 1144.55 4.66338 -4.61373 0
M  V30 11633 H 1144.46 4.20452 -6.28296 0
M  V30 11634 H 1145.73 5.26614 -5.74716 0
M  V30 11635 N 1149.96 1.53094 0.37415 0
M  V30 11636 C 1151.37 1.60641 0.951381 0
M  V30 11637 C 1151.72 0.468474 1.90525 0
M  V30 11638 O 1150.85 -0.406347 2.12551 0
M  V30 11639 C 1151.44 2.91166 1.73228 0
M  V30 11640 C 1150 3.01077 2.25898 0
M  V30 11641 C 1149.15 2.55873 1.06885 0
M  V30 11642 H 1152.1 1.57959 0.153214 0
M  V30 11643 H 1152.12 2.78487 2.59278 0
M  V30 11644 H 1151.63 3.73968 1.03778 0
M  V30 11645 H 1149.73 2.22844 2.98615 0
M  V30 11646 H 1149.85 4.05998 2.54367 0
M  V30 11647 H 1148.21 2.10544 1.43329 0
M  V30 11648 H 1148.99 3.41084 0.38947 0
M  V30 11649 N 1151.44 -0.633461 1.44309 0
M  V30 11650 C 1152.86 -0.951379 1.28144 0
M  V30 11651 C 1153.06 -2.00344 0.215512 0
M  V30 11652 O 1152.11 -2.49321 -0.399389 0
M  V30 11653 C 1153.42 -1.41686 2.65227 0
M  V30 11654 C 1154.97 -1.53247 2.72918 0
M  V30 11655 C 1155.45 -2.03179 4.10466 0
M  V30 11656 N 1156.94 -2.10453 4.1263 0
M  V30 11657 C 1157.67 -2.50254 5.15907 0
M  V30 11658 N 1157.17 -2.89209 6.29547 0
M  V30 11659 N 1158.96 -2.50368 5.03262 0
M  V30 11660 H 1151.11 0.0623574 2.12308 0
M  V30 11661 H 1153.38 -0.0347244 0.947364 0
M  V30 11662 H 1153.08 -0.71814 3.4429 0
M  V30 11663 H 1152.96 -2.3883 2.91959 0
M  V30 11664 H 1155.34 -2.22216 1.94176 0
M  V30 11665 H 1155.42 -0.544836 2.4993 0
M  V30 11666 H 1155.07 -1.34806 4.89683 0
M  V30 11667 H 1155 -3.02809 4.3083 0
M  V30 11668 H 1157.49 -1.83042 3.30612 0
M  V30 11669 H 1157.8 -3.18386 7.04166 0
M  V30 11670 H 1156.15 -2.86966 6.32989 0
M  V30 11671 H 1159.34 -2.19324 4.13539 0
M  V30 11672 H 1159.51 -2.81062 5.83873 0
M  V30 11673 N 1152.92 -1.31168 -0.873655 0
M  V30 11674 C 1153.88 -1.18471 -1.96207 0
M  V30 11675 C 1154.88 -0.112814 -1.60404 0
M  V30 11676 O 1156.07 -0.3618 -1.70401 0
M  V30 11677 C 1153.2 -0.817662 -3.30949 0
M  V30 11678 H 1154.4 -2.1518 -2.08896 0
M  V30 11679 H 1151.95 -1.14727 -1.06149 0
M  V30 11680 H 1152.68 0.148428 -3.2396 0
M  V30 11681 H 1152.47 -1.59244 -3.58307 0
M  V30 11682 H 1153.96 -0.75262 -4.10762 0
M  V30 11683 N 1154.4 1.08748 -1.14068 0
M  V30 11684 C 1155.33 2.17591 -0.84714 0
M  V30 11685 C 1156.31 1.68962 0.196415 0
M  V30 11686 O 1157.49 1.94125 0.0538415 0
M  V30 11687 C 1154.62 3.45823 -0.320005 0
M  V30 11688 C 1153.58 4.07824 -1.2986 0
M  V30 11689 C 1152.9 5.30965 -0.630925 0
M  V30 11690 C 1154.2 4.49512 -2.65963 0
M  V30 11691 H 1155.9 2.42404 -1.75729 0
M  V30 11692 H 1153.44 1.16502 -0.846356 0
M  V30 11693 H 1155.4 4.21276 -0.102271 0
M  V30 11694 H 1154.12 3.20553 0.625561 0
M  V30 11695 H 1152.78 3.34398 -1.50245 0
M  V30 11696 H 1152.43 5.01979 0.320337 0
M  V30 11697 H 1152.13 5.73402 -1.28388 0
M  V30 11698 H 1153.65 6.09136 -0.422635 0
M  V30 11699 H 1155.06 5.16159 -2.49506 0
M  V30 11700 H 1153.46 5.02857 -3.27498 0
M  V30 11701 H 1154.53 3.6157 -3.23102 0
M  V30 11702 N 1155.87 0.935264 1.26849 0
M  V30 11703 C 1157.1 0.595704 1.98661 0
M  V30 11704 C 1157.52 -0.821001 1.69237 0
M  V30 11705 O 1156.88 -1.55211 0.936982 0
M  V30 11706 C 1156.93 0.837275 3.50745 0
M  V30 11707 O 1156.03 -0.0934914 4.12294 0
M  V30 11708 H 1155.38 0.228512 0.623441 0
M  V30 11709 H 1157.91 1.25658 1.61466 0
M  V30 11710 H 1157.92 0.755827 4.00938 0
M  V30 11711 H 1156.59 1.86993 3.71492 0
M  V30 11712 H 1155.17 0.0385124 3.7288 0
M  V30 11713 N 1157.35 -1.41121 0.701616 0
M  V30 11714 C 1158.59 -2.02993 0.239383 0
M  V30 11715 C 1158.96 -1.5439 -1.1414 0
M  V30 11716 O 1160.16 -2.08229 -1.69982 0
M  V30 11717 C 1158.43 -3.56128 0.301232 0
M  V30 11718 S 1159.99 -4.38716 -0.0860681 0
M  V30 11719 H 1156.81 -0.704494 0.0959645 0
M  V30 11720 H 1159.41 -1.72461 0.920736 0
M  V30 11721 H 1158.11 -3.88996 1.30805 0
M  V30 11722 H 1157.64 -3.91371 -0.399069 0
M  V30 11723 H 1159.66 -4.78537 -1.31212 0
M  V30 11724 N 1158.83 -0.446794 -1.51134 0
M  V30 11725 C 1159.76 0.395804 -2.25757 0
M  V30 11726 C 1160.78 0.978178 -1.30137 0
M  V30 11727 O 1161.96 0.87071 -1.55823 0
M  V30 11728 C 1159.06 1.56665 -3.00515 0
M  V30 11729 C 1158.24 1.10146 -4.23305 0
M  V30 11730 C 1157.3 2.14352 -4.80562 0
M  V30 11731 O 1156.32 1.73401 -5.42145 0
M  V30 11732 N 1157.52 3.46932 -4.65423 0
M  V30 11733 H 1160.29 -0.243808 -2.98707 0
M  V30 11734 H 1157.85 -0.276205 -1.59527 0
M  V30 11735 H 1159.84 2.26019 -3.35704 0
M  V30 11736 H 1158.41 2.11142 -2.30516 0
M  V30 11737 H 1157.63 0.234644 -3.93501 0
M  V30 11738 H 1158.92 0.768185 -5.02968 0
M  V30 11739 H 1158.32 3.82929 -4.16391 0
M  V30 11740 H 1156.88 4.12154 -5.04948 0
M  V30 11741 N 1160.31 1.56586 -0.178487 0
M  V30 11742 C 1161.54 2.01475 0.470684 0
M  V30 11743 C 1161.95 1.0587 1.56323 0
M  V30 11744 O 1161.31 0.060749 1.82399 0
M  V30 11745 C 1161.36 3.46145 1.04238 0
M  V30 11746 O 1161.08 4.381 -0.0065582 0
M  V30 11747 C 1162.58 4.06471 1.76908 0
M  V30 11748 H 1159.8 0.660219 0.119801 0
M  V30 11749 H 1162.35 2.02542 -0.282322 0
M  V30 11750 H 1160.5 3.45831 1.74585 0
M  V30 11751 H 1160.91 5.22843 0.416554 0
M  V30 11752 H 1162.39 5.096 2.12161 0
M  V30 11753 H 1162.87 3.48974 2.66672 0
M  V30 11754 H 1163.47 4.10509 1.11186 0
M  V30 11755 N 1161.79 -0.095206 1.57312 0
M  V30 11756 C 1162.72 -1.11627 2.05089 0
M  V30 11757 C 1163.7 -1.41782 0.939787 0
M  V30 11758 O 1164.88 -1.51813 1.21105 0
M  V30 11759 C 1162.01 -2.43618 2.47523 0
M  V30 11760 C 1160.97 -2.27872 3.62296 0
M  V30 11761 C 1160.29 -3.65038 3.90706 0
M  V30 11762 C 1161.59 -1.71936 4.93189 0
M  V30 11763 H 1163.29 -0.718795 2.90644 0
M  V30 11764 H 1160.83 -0.344315 1.39823 0
M  V30 11765 H 1162.79 -3.1532 2.79556 0
M  V30 11766 H 1161.51 -2.85301 1.58968 0
M  V30 11767 H 1160.17 -1.58615 3.3051 0
M  V30 11768 H 1159.82 -4.04249 2.99319 0
M  V30 11769 H 1159.52 -3.55349 4.67976 0
M  V30 11770 H 1161.04 -4.38208 4.25213 0
M  V30 11771 H 1162.45 -2.33479 5.23603 0
M  V30 11772 H 1160.85 -1.73006 5.74621 0
M  V30 11773 H 1161.92 -0.678789 4.80125 0
M  V30 11774 N 1163.26 -1.53291 -0.366026 0
M  V30 11775 C 1164.23 -1.79025 -1.43117 0
M  V30 11776 C 1165.23 -0.660676 -1.46601 0
M  V30 11777 O 1166.42 -0.928875 -1.47369 0
M  V30 11778 C 1163.55 -1.91192 -2.82238 0
M  V30 11779 H 1164.74 -2.74154 -1.21572 0
M  V30 11780 H 1162.3 -1.44361 -0.599132 0
M  V30 11781 H 1163.03 -0.98129 -3.09097 0
M  V30 11782 H 1162.82 -2.7335 -2.81109 0
M  V30 11783 H 1164.31 -2.12696 -3.59375 0
M  V30 11784 N 1164.74 0.6258 -1.44643 0
M  V30 11785 C 1165.71 1.71941 -1.51555 0
M  V30 11786 C 1166.71 1.55822 -0.396988 0
M  V30 11787 O 1167.9 1.61221 -0.65981 0
M  V30 11788 C 1165.03 3.11068 -1.39461 0
M  V30 11789 H 1166.22 1.67185 -2.48976 0
M  V30 11790 H 1163.77 0.839934 -1.31814 0
M  V30 11791 H 1164.51 3.21416 -0.431534 0
M  V30 11792 H 1164.29 3.24175 -2.20574 0
M  V30 11793 H 1165.78 3.90762 -1.4729 0
M  V30 11794 N 1166.22 1.31629 0.866686 0
M  V30 11795 C 1167.47 1.21263 1.61678 0
M  V30 11796 C 1167.79 -0.228562 1.93656 0
M  V30 11797 O 1167.06 -1.15014 1.58583 0
M  V30 11798 H 1165.64 0.445817 0.59938 0
M  V30 11799 H 1168.3 1.64998 1.03739 0
M  V30 11800 H 1167.4 1.78669 2.55898 0
M  V30 11801 N 1167.7 -1.08142 1.14644 0
M  V30 11802 C 1168.93 -1.8405 0.938563 0
M  V30 11803 C 1169.34 -1.82017 -0.516361 0
M  V30 11804 O 1168.68 -1.22418 -1.36966 0
M  V30 11805 C 1168.74 -3.32563 1.36536 0
M  V30 11806 C 1168.41 -3.58327 2.83638 0
M  V30 11807 C 1169.4 -3.52944 3.81741 0
M  V30 11808 C 1167.09 -3.86251 3.21115 0
M  V30 11809 C 1169.08 -3.7512 5.15329 0
M  V30 11810 C 1166.77 -4.0808 4.54878 0
M  V30 11811 C 1167.77 -4.02508 5.51794 0
M  V30 11812 O 1167.46 -4.23761 6.83141 0
M  V30 11813 H 1167.19 -0.587793 0.33388 0
M  V30 11814 H 1169.74 -1.37467 1.52617 0
M  V30 11815 H 1167.97 -3.79917 0.721106 0
M  V30 11816 H 1169.66 -3.89915 1.12787 0
M  V30 11817 H 1170.43 -3.31382 3.54134 0
M  V30 11818 H 1166.31 -3.89707 2.46272 0
M  V30 11819 H 1169.85 -3.70686 5.90963 0
M  V30 11820 H 1165.75 -4.29126 4.82204 0
M  V30 11821 H 1166.51 -4.41152 6.8944 0
M  V30 11822 N 1169.18 -0.941978 -1.26351 0
M  V30 11823 C 1170.41 -0.605868 -1.97517 0
M  V30 11824 C 1170.82 0.823583 -1.70334 0
M  V30 11825 O 1170.16 1.56085 -0.968662 0
M  V30 11826 C 1170.22 -0.769201 -3.51175 0
M  V30 11827 C 1169.88 -2.17343 -4.02009 0
M  V30 11828 C 1170.88 -3.14898 -4.13685 0
M  V30 11829 C 1168.57 -2.49422 -4.35998 0
M  V30 11830 C 1170.56 -4.42631 -4.58646 0
M  V30 11831 C 1168.25 -3.77388 -4.80647 0
M  V30 11832 C 1169.25 -4.73806 -4.91932 0
M  V30 11833 O 1168.93 -5.99493 -5.35596 0
M  V30 11834 H 1168.67 -0.227113 -0.636707 0
M  V30 11835 H 1171.22 -1.26523 -1.61806 0
M  V30 11836 H 1169.45 -0.0527104 -3.86664 0
M  V30 11837 H 1171.14 -0.436032 -4.03551 0
M  V30 11838 H 1171.9 -2.91438 -3.87671 0
M  V30 11839 H 1167.78 -1.7511 -4.26448 0
M  V30 11840 H 1171.33 -5.17892 -4.67369 0
M  V30 11841 H 1167.22 -4.0066 -5.06105 0
M  V30 11842 H 1167.99 -6.02687 -5.53815 0
M  V30 11843 N 1170.66 1.40747 -0.709091 0
M  V30 11844 C 1171.61 2.27982 -0.0289269 0
M  V30 11845 C 1172.59 1.42917 0.739164 0
M  V30 11846 O 1173.78 1.66067 0.612433 0
M  V30 11847 C 1170.91 3.31378 0.896856 0
M  V30 11848 C 1170 4.23918 0.124296 0
M  V30 11849 N 1170.39 4.97925 -0.889043 0
M  V30 11850 C 1168.69 4.44562 0.357808 0
M  V30 11851 C 1169.39 5.65754 -1.35268 0
M  V30 11852 N 1168.36 5.3938 -0.676047 0
M  V30 11853 H 1172.16 2.82641 -0.805676 0
M  V30 11854 H 1169.68 1.5312 -0.541105 0
M  V30 11855 H 1171.68 3.92712 1.39939 0
M  V30 11856 H 1170.34 2.78279 1.67305 0
M  V30 11857 H 1171.35 5.02095 -1.2697 0
M  V30 11858 H 1168.02 4.02451 1.11084 0
M  V30 11859 H 1169.41 6.35058 -2.19432 0
M  V30 11860 N 1172.13 0.454803 1.50895 0
M  V30 11861 C 1173.36 -0.103936 2.06639 0
M  V30 11862 C 1173.78 -1.34943 1.32044 0
M  V30 11863 O 1173.13 -1.78393 0.384972 0
M  V30 11864 C 1173.18 -0.408546 3.59184 0
M  V30 11865 O 1172.91 0.787535 4.30963 0
M  V30 11866 C 1174.41 -1.01605 4.31499 0
M  V30 11867 H 1171.63 -0.000171839 0.671 0
M  V30 11868 H 1174.17 0.638907 1.94263 0
M  V30 11869 H 1172.33 -1.1013 3.71416 0
M  V30 11870 H 1172.74 0.52229 5.21893 0
M  V30 11871 H 1174.21 -1.17906 5.39261 0
M  V30 11872 H 1174.69 -2.00182 3.90927 0
M  V30 11873 H 1175.3 -0.362155 4.23755 0
M  V30 11874 N 1173.61 -1.56489 0.186789 0
M  V30 11875 C 1174.52 -2.22304 -0.749543 0
M  V30 11876 C 1175.54 -1.21949 -1.24115 0
M  V30 11877 O 1176.71 -1.5466 -1.29005 0
M  V30 11878 C 1173.78 -2.863 -1.95533 0
M  V30 11879 C 1172.84 -4.01901 -1.5091 0
M  V30 11880 C 1172.07 -4.62837 -2.6574 0
M  V30 11881 O 1172.3 -4.22681 -3.8301 0
M  V30 11882 O 1171.23 -5.52446 -2.38929 0
M  V30 11883 H 1175.06 -3.02909 -0.21908 0
M  V30 11884 H 1172.64 -1.49341 -0.0421249 0
M  V30 11885 H 1174.52 -3.2682 -2.6602 0
M  V30 11886 H 1173.2 -2.08681 -2.47455 0
M  V30 11887 H 1172.1 -3.66021 -0.773261 0
M  V30 11888 H 1173.44 -4.8116 -1.03663 0
M  V30 11889 N 1175.09 0.086862 -1.5736 0
M  V30 11890 C 1176.33 0.794358 -1.88333 0
M  V30 11891 C 1176.69 1.75496 -0.778783 0
M  V30 11892 O 1177.89 2.50643 -0.971152 0
M  V30 11893 C 1176.17 1.49686 -3.24544 0
M  V30 11894 S 1177.72 2.2415 -3.7723 0
M  V30 11895 H 1174.54 0.264479 -0.659979 0
M  V30 11896 H 1177.14 0.0511046 -1.95433 0
M  V30 11897 H 1175.85 0.783713 -4.02847 0
M  V30 11898 H 1175.38 2.27984 -3.20604 0
M  V30 11899 H 1177.39 3.50426 -3.51306 0
M  V30 11900 N 1176.57 1.53483 0.357892 0
M  V30 11901 C 1177.81 1.70289 1.10134 0
M  V30 11902 C 1178.15 0.457296 1.88739 0
M  V30 11903 O 1177.42 -0.545527 1.86693 0
M  V30 11904 C 1177.7 2.95755 2.05429 0
M  V30 11905 C 1177.56 4.30489 1.30382 0
M  V30 11906 C 1178.88 3.16844 3.05447 0
M  V30 11907 H 1176 0.61965 0.399003 0
M  V30 11908 H 1178.64 1.86133 0.381357 0
M  V30 11909 H 1176.79 2.82377 2.66825 0
M  V30 11910 H 1178.46 4.55692 0.71711 0
M  V30 11911 H 1176.7 4.2955 0.605712 0
M  V30 11912 H 1177.37 5.14427 2.00171 0
M  V30 11913 H 1179.85 3.29458 2.54159 0
M  V30 11914 H 1178.73 4.06053 3.69341 0
M  V30 11915 H 1178.99 2.32476 3.76041 0
M  V30 11916 N 1178.05 -0.61812 1.44973 0
M  V30 11917 C 1179.27 -1.40921 1.52171 0
M  V30 11918 C 1179.7 -1.87487 0.151755 0
M  V30 11919 O 1179.05 -1.59518 -0.861606 0
M  V30 11920 C 1179.1 -2.59689 2.50188 0
M  V30 11921 O 1178.21 -3.59967 2.0124 0
M  V30 11922 H 1177.55 -0.421138 0.51336 0
M  V30 11923 H 1180.08 -0.753258 1.90229 0
M  V30 11924 H 1180.09 -3.07069 2.6865 0
M  V30 11925 H 1178.76 -2.25144 3.4969 0
M  V30 11926 H 1177.34 -3.19308 1.92605 0
M  V30 11927 N 1179.52 -1.32087 -0.859693 0
M  V30 11928 C 1180.77 -1.22119 -1.61033 0
M  V30 11929 C 1181.09 0.218289 -1.93774 0
M  V30 11930 O 1180.36 1.14172 -1.5919 0
M  V30 11931 H 1178.94 -0.448989 -0.597008 0
M  V30 11932 H 1181.6 -1.65545 -1.02863 0
M  V30 11933 H 1180.7 -1.80023 -2.54947 0
M  V30 11934 N 1181 1.07532 -1.15215 0
M  V30 11935 C 1182.24 1.81689 -0.936396 0
M  V30 11936 C 1182.61 1.84622 0.527136 0
M  V30 11937 O 1183.81 2.54632 0.861159 0
M  V30 11938 C 1182.08 3.22919 -1.53161 0
M  V30 11939 S 1183.64 4.13845 -1.4587 0
M  V30 11940 H 1180.45 0.626036 -0.337045 0
M  V30 11941 H 1183.06 1.29191 -1.4673 0
M  V30 11942 H 1181.76 3.18372 -2.58974 0
M  V30 11943 H 1181.29 3.80492 -0.999482 0
M  V30 11944 H 1183.31 4.94152 -0.450317 0
M  V30 11945 N 1182.48 0.948665 1.2585 0
M  V30 11946 C 1183.73 0.601125 1.93686 0
M  V30 11947 C 1184.06 -0.858779 1.7418 0
M  V30 11948 O 1183.33 -1.61539 1.0833 0
M  V30 11949 C 1183.62 0.95333 3.47252 0
M  V30 11950 C 1183.47 2.46853 3.7601 0
M  V30 11951 C 1184.79 0.474098 4.37539 0
M  V30 11952 H 1181.91 0.219864 0.703441 0
M  V30 11953 H 1184.55 1.18424 1.48579 0
M  V30 11954 H 1182.7 0.457114 3.85801 0
M  V30 11955 H 1184.37 3.03804 3.47132 0
M  V30 11956 H 1182.62 2.9088 3.21825 0
M  V30 11957 H 1183.29 2.66547 4.83381 0
M  V30 11958 H 1185.76 0.899664 4.06258 0
M  V30 11959 H 1184.64 0.749287 5.43762 0
M  V30 11960 H 1184.9 -0.625961 4.37646 0
M  V30 11961 N 1183.96 -1.40369 0.716545 0
M  V30 11962 C 1185.2 -2.02728 0.2609 0
M  V30 11963 C 1185.56 -1.55591 -1.12496 0
M  V30 11964 O 1186.76 -2.1002 -1.67764 0
M  V30 11965 C 1185.03 -3.55789 0.338987 0
M  V30 11966 S 1186.59 -4.38782 -0.0395316 0
M  V30 11967 H 1183.41 -0.703437 0.103431 0
M  V30 11968 H 1186.01 -1.71474 0.938976 0
M  V30 11969 H 1184.72 -3.87587 1.34923 0
M  V30 11970 H 1184.25 -3.91772 -0.357536 0
M  V30 11971 H 1186.26 -4.79902 -1.26129 0
M  V30 11972 N 1185.44 -0.462799 -1.50652 0
M  V30 11973 C 1186.85 -0.00568907 -1.86699 0
M  V30 11974 C 1187.2 1.39641 -1.37822 0
M  V30 11975 O 1186.32 2.03366 -0.739679 0
M  V30 11976 C 1186.92 -0.00354783 -3.388 0
M  V30 11977 C 1185.48 0.398061 -3.74289 0
M  V30 11978 C 1184.62 -0.392574 -2.74507 0
M  V30 11979 H 1187.58 -0.677469 -1.43513 0
M  V30 11980 H 1187.6 0.800456 -3.71985 0
M  V30 11981 H 1187.11 -1.02414 -3.74344 0
M  V30 11982 H 1185.21 1.42331 -3.44344 0
M  V30 11983 H 1185.32 0.105168 -4.78985 0
M  V30 11984 H 1183.69 0.152608 -2.54242 0
M  V30 11985 H 1184.47 -1.41252 -3.12894 0
M  V30 11986 N 1186.91 1.56388 -0.195085 0
M  V30 11987 C 1188.19 1.89329 0.491303 0
M  V30 11988 C 1188.57 1.10861 1.79647 0
M  V30 11989 O 1187.92 0.209696 2.27536 0
M  V30 11990 C 1188.13 3.417 0.710096 0
M  V30 11991 C 1189.48 4.11931 1.02947 0
M  V30 11992 O 1190.5 3.4715 0.797817 0
M  V30 11993 O 1189.36 5.26423 1.46767 0
M  V30 11994 H 1186.45 0.786335 0.256137 0
M  V30 11995 H 1189 1.68061 -0.235298 0
M  V30 11996 H 1187.77 3.90727 -0.211604 0
M  V30 11997 H 1187.4 3.6866 1.48916 0
M  V30 11998 N 1188.39 -0.0785156 1.57404 0
M  V30 11999 C 1189.64 -0.777399 1.8655 0
M  V30 12000 C 1189.96 -1.78451 0.786142 0
M  V30 12001 O 1189.23 -1.95016 -0.185911 0
M  V30 12002 H 1187.81 -0.290097 0.688369 0
M  V30 12003 H 1190.47 -0.0562017 1.94819 0
M  V30 12004 H 1189.57 -1.29776 2.83839 0
M  V30 12005 N 1189.87 -1.5367 -0.349747 0
M  V30 12006 C 1190.8 -1.84208 -1.43492 0
M  V30 12007 C 1191.78 -0.696725 -1.55177 0
M  V30 12008 O 1192.97 -0.948061 -1.69486 0
M  V30 12009 C 1190.1 -2.04613 -2.80625 0
M  V30 12010 C 1189.05 -3.20419 -2.83753 0
M  V30 12011 C 1188.38 -3.26147 -4.23713 0
M  V30 12012 C 1189.68 -4.58666 -2.49846 0
M  V30 12013 H 1191.37 -2.75087 -1.18185 0
M  V30 12014 H 1188.92 -1.32363 -0.567101 0
M  V30 12015 H 1190.87 -2.2456 -3.56582 0
M  V30 12016 H 1189.59 -1.10459 -3.07354 0
M  V30 12017 H 1188.25 -3.00318 -2.10249 0
M  V30 12018 H 1187.9 -2.29599 -4.47541 0
M  V30 12019 H 1187.6 -4.03963 -4.26717 0
M  V30 12020 H 1189.12 -3.48296 -5.0152 0
M  V30 12021 H 1190.54 -4.78668 -3.15516 0
M  V30 12022 H 1188.94 -5.3884 -2.64144 0
M  V30 12023 H 1190.01 -4.62697 -1.4505 0
M  V30 12024 N 1191.35 0.610423 -1.45298 0
M  V30 12025 C 1192.28 1.73493 -1.48241 0
M  V30 12026 C 1193.26 1.59025 -0.339065 0
M  V30 12027 O 1194.44 1.80625 -0.539144 0
M  V30 12028 C 1191.57 3.11291 -1.33476 0
M  V30 12029 C 1190.62 3.44355 -2.51638 0
M  V30 12030 S 1191.45 3.39512 -4.14116 0
M  V30 12031 C 1192.61 4.79895 -4.01811 0
M  V30 12032 H 1192.84 1.70734 -2.43387 0
M  V30 12033 H 1190.37 0.786833 -1.32847 0
M  V30 12034 H 1192.33 3.90799 -1.25644 0
M  V30 12035 H 1190.99 3.11568 -0.39805 0
M  V30 12036 H 1190.18 4.44679 -2.37226 0
M  V30 12037 H 1189.79 2.72356 -2.56317 0
M  V30 12038 H 1192.08 5.6963 -3.6678 0
M  V30 12039 H 1193.02 4.99363 -5.02038 0
M  V30 12040 H 1193.43 4.55443 -3.33515 0
M  V30 12041 N 1192.83 1.32541 0.852676 0
M  V30 12042 C 1194.1 1.1383 1.59067 0
M  V30 12043 C 1194.48 -0.300584 2.08949 0
M  V30 12044 O 1193.83 -1.29751 1.88088 0
M  V30 12045 C 1194.04 2.16758 2.73527 0
M  V30 12046 C 1195.39 2.50194 3.43057 0
M  V30 12047 O 1196.41 2.15319 2.83754 0
M  V30 12048 O 1195.27 3.09985 4.50079 0
M  V30 12049 H 1192.37 0.439379 0.700625 0
M  V30 12050 H 1194.91 1.44078 0.896632 0
M  V30 12051 H 1193.68 3.13469 2.34207 0
M  V30 12052 H 1193.31 1.87515 3.50605 0
M  V30 12053 N 1194.3 -1.0692 1.15784 0
M  V30 12054 C 1195.58 -1.76367 0.845825 0
M  V30 12055 C 1195.96 -2.00594 -0.657672 0
M  V30 12056 O 1195.31 -1.62794 -1.60345 0
M  V30 12057 C 1195.52 -3.06913 1.66149 0
M  V30 12058 C 1196.87 -3.81181 1.87046 0
M  V30 12059 O 1197.89 -3.16737 1.62961 0
M  V30 12060 O 1196.75 -4.96936 2.27413 0
M  V30 12061 H 1193.84 -0.766095 0.311493 0
M  V30 12062 H 1196.39 -1.13246 1.26386 0
M  V30 12063 H 1195.16 -2.84924 2.68205 0
M  V30 12064 H 1194.79 -3.77767 1.24007 0
M  V30 12065 N 1195.78 -0.955326 -1.25345 0
M  V30 12066 C 1197.03 -0.609278 -1.92697 0
M  V30 12067 C 1197.35 0.856535 -1.75181 0
M  V30 12068 O 1196.62 1.61013 -1.11587 0
M  V30 12069 H 1195.2 -0.22235 -0.713141 0
M  V30 12070 H 1197.86 -1.21372 -1.52496 0
M  V30 12071 H 1196.96 -0.839198 -3.00606 0
M  V30 12072 N 1197.26 1.39987 -0.723979 0
M  V30 12073 C 1198.68 1.54547 -0.398403 0
M  V30 12074 C 1198.88 1.69348 1.09194 0
M  V30 12075 O 1197.93 1.68778 1.87804 0
M  V30 12076 C 1199.25 2.76929 -1.1718 0
M  V30 12077 C 1200.79 2.90754 -1.15893 0
M  V30 12078 C 1201.27 4.16059 -1.91465 0
M  V30 12079 N 1202.76 4.23076 -1.88576 0
M  V30 12080 C 1203.5 5.18957 -2.43867 0
M  V30 12081 N 1202.99 6.20695 -3.0775 0
M  V30 12082 N 1204.78 5.11095 -2.33962 0
M  V30 12083 H 1196.94 1.28626 -1.69024 0
M  V30 12084 H 1199.2 0.6226 -0.714894 0
M  V30 12085 H 1198.9 2.72298 -2.22591 0
M  V30 12086 H 1198.78 3.69279 -0.768941 0
M  V30 12087 H 1201.17 2.94884 -0.112978 0
M  V30 12088 H 1201.25 1.99498 -1.60107 0
M  V30 12089 H 1200.89 4.12691 -2.96055 0
M  V30 12090 H 1200.82 5.06339 -1.44665 0
M  V30 12091 H 1203.31 3.50195 -1.42027 0
M  V30 12092 H 1203.62 6.90296 -3.47435 0
M  V30 12093 H 1201.97 6.21114 -3.11837 0
M  V30 12094 H 1205.16 4.30546 -1.83706 0
M  V30 12095 H 1205.33 5.85644 -2.77353 0
M  V30 12096 N 1198.74 0.470782 1.50404 0
M  V30 12097 C 1199.99 -0.0841494 2.01925 0
M  V30 12098 C 1200.31 -1.40244 1.35487 0
M  V30 12099 O 1199.58 -1.89409 0.500111 0
M  V30 12100 H 1198.16 -0.0340884 0.746222 0
M  V30 12101 H 1200.82 0.621133 1.84738 0
M  V30 12102 H 1199.92 -0.235877 3.11207 0
M  V30 12103 N 1200.22 -1.56282 0.203376 0
M  V30 12104 C 1201.47 -1.97421 -0.432346 0
M  V30 12105 C 1201.79 -1.0917 -1.61576 0
M  V30 12106 O 1201.06 -0.164759 -1.95206 0
M  V30 12107 H 1199.64 -0.729062 -0.162721 0
M  V30 12108 H 1202.3 -1.927 0.292039 0
M  V30 12109 H 1201.39 -3.02429 -0.770918 0
M  V30 12110 N 1201.7 0.070167 -1.57444 0
M  V30 12111 C 1202.94 0.774338 -1.89165 0
M  V30 12112 C 1203.3 1.7466 -0.797353 0
M  V30 12113 O 1204.5 2.49599 -0.997682 0
M  V30 12114 C 1202.77 1.46235 -3.26114 0
M  V30 12115 S 1204.33 2.20136 -3.79586 0
M  V30 12116 H 1201.15 0.257464 -0.662747 0
M  V30 12117 H 1203.75 0.0303734 -1.95476 0
M  V30 12118 H 1202.45 0.740942 -4.03656 0
M  V30 12119 H 1201.99 2.24571 -3.23004 0
M  V30 12120 H 1204 3.4668 -3.55003 0
M  V30 12121 N 1203.17 1.53854 0.341593 0
M  V30 12122 C 1204.42 1.71447 1.08322 0
M  V30 12123 C 1204.75 0.477289 1.88243 0
M  V30 12124 O 1204.03 -0.525695 1.87261 0
M  V30 12125 C 1204.31 2.97917 2.02281 0
M  V30 12126 C 1204.16 4.31847 1.25809 0
M  V30 12127 C 1205.48 3.20065 3.0207 0
M  V30 12128 H 1202.6 0.623847 0.392408 0
M  V30 12129 H 1205.24 1.86527 0.361594 0
M  V30 12130 H 1203.39 2.85191 2.63815 0
M  V30 12131 H 1205.07 4.56427 0.668737 0
M  V30 12132 H 1203.31 4.30169 0.560119 0
M  V30 12133 H 1203.98 5.16522 1.94704 0
M  V30 12134 H 1206.46 3.32135 2.50651 0
M  V30 12135 H 1205.33 4.09947 3.65013 0
M  V30 12136 H 1205.59 2.36452 3.73554 0
M  V30 12137 N 1204.65 -0.602709 1.4562 0
M  V30 12138 C 1205.9 -1.36359 1.50113 0
M  V30 12139 C 1206.23 -1.93663 0.144297 0
M  V30 12140 O 1205.51 -1.75337 -0.841851 0
M  V30 12141 C 1205.79 -2.50788 2.58413 0
M  V30 12142 C 1205.64 -1.98649 4.03557 0
M  V30 12143 C 1206.96 -3.52905 2.62957 0
M  V30 12144 H 1204.08 -0.494455 0.54652 0
M  V30 12145 H 1206.72 -0.678957 1.77455 0
M  V30 12146 H 1204.87 -3.09191 2.3523 0
M  V30 12147 H 1206.54 -1.44857 4.37966 0
M  V30 12148 H 1204.79 -1.29615 4.13984 0
M  V30 12149 H 1205.46 -2.81159 4.7503 0
M  V30 12150 H 1207.93 -3.0435 2.83743 0
M  V30 12151 H 1206.81 -4.30454 3.40589 0
M  V30 12152 H 1207.07 -4.0884 1.68233 0
M  V30 12153 N 1206.13 -1.32992 -0.845635 0
M  V30 12154 C 1207.04 -1.24701 -1.98713 0
M  V30 12155 C 1208.06 -0.158864 -1.73273 0
M  V30 12156 O 1209.23 -0.381209 -1.97759 0
M  V30 12157 C 1206.3 -0.979524 -3.32575 0
M  V30 12158 C 1205.36 -2.15701 -3.71176 0
M  V30 12159 C 1204.59 -1.90219 -4.98651 0
M  V30 12160 O 1204.81 -0.849171 -5.64044 0
M  V30 12161 O 1203.75 -2.76571 -5.34595 0
M  V30 12162 H 1207.57 -2.20683 -2.08645 0
M  V30 12163 H 1205.16 -1.12971 -0.97765 0
M  V30 12164 H 1207.04 -0.847219 -4.12796 0
M  V30 12165 H 1205.72 -0.0499398 -3.23661 0
M  V30 12166 H 1204.62 -2.34483 -2.91494 0
M  V30 12167 H 1205.96 -3.0697 -3.84747 0
M  V30 12168 N 1207.61 1.06304 -1.1635 0
M  V30 12169 C 1208.55 2.13776 -0.869965 0
M  V30 12170 C 1209.52 1.65105 0.181541 0
M  V30 12171 O 1210.71 1.90743 0.0467705 0
M  V30 12172 C 1207.85 3.43034 -0.377077 0
M  V30 12173 C 1206.96 4.0544 -1.4914 0
M  V30 12174 C 1206.1 5.22572 -0.953538 0
M  V30 12175 C 1205.14 5.76961 -2.04407 0
M  V30 12176 N 1204.27 6.85409 -1.52181 0
M  V30 12177 H 1209.11 2.38224 -1.79034 0
M  V30 12178 H 1206.65 1.16882 -0.893136 0
M  V30 12179 H 1208.61 4.17136 -0.0729426 0
M  V30 12180 H 1207.24 3.18804 0.506359 0
M  V30 12181 H 1206.29 3.28886 -1.9115 0
M  V30 12182 H 1207.6 4.41859 -2.31434 0
M  V30 12183 H 1206.76 6.037 -0.602579 0
M  V30 12184 H 1205.5 4.87598 -0.099897 0
M  V30 12185 H 1204.5 4.9447 -2.40373 0
M  V30 12186 H 1205.73 6.13987 -2.90167 0
M  V30 12187 H 1203.67 6.52354 -0.690697 0
M  V30 12188 H 1203.59 7.2077 -2.28092 0
M  V30 12189 H 1204.86 7.70217 -1.19942 0
M  V30 12190 N 1209.09 0.96196 1.24836 0
M  V30 12191 C 1210 0.494876 2.29321 0
M  V30 12192 C 1211.01 -0.441363 1.68309 0
M  V30 12193 O 1212.19 -0.315814 1.98908 0
M  V30 12194 C 1209.25 -0.212944 3.46045 0
M  V30 12195 C 1208.31 0.762411 4.22476 0
M  V30 12196 C 1207.55 0.0882756 5.33627 0
M  V30 12197 O 1207.77 -1.12459 5.59204 0
M  V30 12198 O 1206.7 0.777529 5.96857 0
M  V30 12199 H 1210.53 1.36333 2.7138 0
M  V30 12200 H 1208.11 0.728738 1.30421 0
M  V30 12201 H 1210 -0.610805 4.1695 0
M  V30 12202 H 1208.67 -1.05645 3.05975 0
M  V30 12203 H 1207.58 1.21062 3.5397 0
M  V30 12204 H 1208.91 1.57416 4.66349 0
M  V30 12205 N 1210.56 -1.39601 0.731392 0
M  V30 12206 C 1211.8 -2.0244 0.282387 0
M  V30 12207 C 1212.17 -1.56776 -1.10839 0
M  V30 12208 O 1213.37 -2.11788 -1.65527 0
M  V30 12209 C 1211.64 -3.55409 0.376704 0
M  V30 12210 S 1213.2 -4.38799 0.00700932 0
M  V30 12211 H 1210.02 -0.7023 0.110886 0
M  V30 12212 H 1212.62 -1.70469 0.957111 0
M  V30 12213 H 1211.32 -3.86134 1.39027 0
M  V30 12214 H 1210.85 -3.92129 -0.315963 0
M  V30 12215 H 1212.87 -4.81213 -1.21032 0
M  V30 12216 N 1212.04 -0.478751 -1.50152 0
M  V30 12217 C 1213.45 -0.0254907 -1.86683 0
M  V30 12218 C 1213.8 1.38171 -1.39295 0
M  V30 12219 O 1212.93 2.0257 -0.761207 0
M  V30 12220 C 1213.52 -0.0394819 -3.38777 0
M  V30 12221 C 1212.08 0.35834 -3.7469 0
M  V30 12222 C 1211.23 -0.421667 -2.74075 0
M  V30 12223 H 1214.18 -0.692653 -1.42787 0
M  V30 12224 H 1214.2 0.760957 -3.72813 0
M  V30 12225 H 1213.71 -1.06378 -3.73236 0
M  V30 12226 H 1211.82 1.38671 -3.45834 0
M  V30 12227 H 1211.93 0.0543589 -4.79069 0
M  V30 12228 H 1210.29 0.125634 -2.5439 0
M  V30 12229 H 1211.08 -1.44562 -3.11379 0
M  V30 12230 N 1213.52 1.56172 -0.211661 0
M  V30 12231 C 1214.76 1.9994 0.424672 0
M  V30 12232 C 1215.12 1.09598 1.57646 0
M  V30 12233 O 1216.33 1.4267 2.27813 0
M  V30 12234 C 1214.6 3.46961 0.857497 0
M  V30 12235 S 1216.16 4.12752 1.48933 0
M  V30 12236 H 1212.97 0.698031 0.135179 0
M  V30 12237 H 1215.58 1.92886 -0.318625 0
M  V30 12238 H 1214.28 4.10399 0.009398 0
M  V30 12239 H 1213.81 3.57867 1.63385 0
M  V30 12240 H 1215.83 4.11125 2.77833 0
M  V30 12241 N 1215 -0.0618163 1.57479 0
M  V30 12242 C 1216.24 -0.760193 1.88013 0
M  V30 12243 C 1216.58 -1.76718 0.805258 0
M  V30 12244 O 1215.85 -1.93633 -0.183408 0
M  V30 12245 C 1216.14 -1.45924 3.29208 0
M  V30 12246 C 1215.99 -0.467994 4.47359 0
M  V30 12247 C 1217.31 -2.40166 3.68793 0
M  V30 12248 H 1214.43 -0.274896 0.683814 0
M  V30 12249 H 1217.07 -0.0232433 1.89986 0
M  V30 12250 H 1215.22 -2.08741 3.27657 0
M  V30 12251 H 1216.89 0.155735 4.61037 0
M  V30 12252 H 1215.13 0.215797 4.33263 0
M  V30 12253 H 1215.8 -0.994942 5.42959 0
M  V30 12254 H 1218.28 -1.87419 3.71501 0
M  V30 12255 H 1217.16 -2.86076 4.68457 0
M  V30 12256 H 1217.42 -3.25413 2.99264 0
M  V30 12257 N 1216.48 -1.54033 -0.333429 0
M  V30 12258 C 1217.43 -1.7911 -1.4108 0
M  V30 12259 C 1218.41 -0.646699 -1.47332 0
M  V30 12260 O 1219.6 -0.906403 -1.52031 0
M  V30 12261 C 1216.73 -2.01314 -2.78078 0
M  V30 12262 C 1215.82 -3.21849 -2.76178 0
M  V30 12263 N 1216.21 -4.43109 -2.43903 0
M  V30 12264 C 1214.51 -3.23222 -3.07316 0
M  V30 12265 C 1215.21 -5.25004 -2.5049 0
M  V30 12266 N 1214.18 -4.61955 -2.86528 0
M  V30 12267 H 1217.99 -2.7045 -1.15039 0
M  V30 12268 H 1215.5 -1.53094 -0.541854 0
M  V30 12269 H 1217.5 -2.17417 -3.55718 0
M  V30 12270 H 1216.16 -1.11223 -3.05057 0
M  V30 12271 H 1217.17 -4.70282 -2.16922 0
M  V30 12272 H 1213.84 -2.43132 -3.39401 0
M  V30 12273 H 1215.23 -6.31812 -2.28611 0
M  V30 12274 N 1217.95 0.594978 -1.45938 0
M  V30 12275 C 1218.9 1.726 -1.55923 0
M  V30 12276 C 1219.9 1.63893 -0.428411 0
M  V30 12277 O 1221.1 1.69535 -0.604815 0
M  V30 12278 H 1217.48 0.570447 -0.489994 0
M  V30 12279 H 1219.45 1.61308 -2.51043 0
M  V30 12280 C 1218.2 3.10988 -1.55505 0
M  V30 12281 H 1217.52 3.18353 -2.4185 0
M  V30 12282 H 1218.96 3.8992 -1.66548 0
M  V30 12283 C 1217.42 3.35721 -0.281573 0
M  V30 12284 O 1217.95 3.96676 0.633336 0
M  V30 12285 N 1216.16 2.90083 -0.173314 0
M  V30 12286 H 1215.7 2.4066 -0.91872 0
M  V30 12287 H 1215.66 3.07005 0.677903 0
M  V30 12288 N 1219.43 1.33438 0.838571 0
M  V30 12289 C 1220.38 1.23698 1.96981 0
M  V30 12290 C 1221.37 0.138299 1.68835 0
M  V30 12291 O 1222.58 0.302278 1.77444 0
M  V30 12292 H 1218.96 0.383874 0.646641 0
M  V30 12293 H 1220.93 2.19337 2.02321 0
M  V30 12294 C 1219.68 0.993362 3.33208 0
M  V30 12295 H 1219 1.83104 3.55405 0
M  V30 12296 H 1220.44 0.965517 4.1286 0
M  V30 12297 C 1218.9 -0.303701 3.35528 0
M  V30 12298 O 1219.43 -1.3103 3.79729 0
M  V30 12299 N 1217.63 -0.331342 2.88705 0
M  V30 12300 H 1217.18 0.488351 2.52929 0
M  V30 12301 H 1217.14 -1.199 2.9064 0
M  V30 12302 N 1220.91 -1.05686 1.16912 0
M  V30 12303 C 1222.19 -1.7546 0.864483 0
M  V30 12304 C 1222.57 -2.0128 -0.636359 0
M  V30 12305 O 1221.92 -1.64485 -1.58609 0
M  V30 12306 C 1222.13 -3.05134 1.69395 0
M  V30 12307 C 1223.47 -3.79176 1.91079 0
M  V30 12308 O 1224.5 -3.1499 1.66312 0
M  V30 12309 O 1223.36 -4.94496 2.32671 0
M  V30 12310 H 1220.45 -0.762748 0.319601 0
M  V30 12311 H 1223 -1.11899 1.27581 0
M  V30 12312 H 1221.77 -2.82063 2.71212 0
M  V30 12313 H 1221.39 -3.76431 1.28007 0
M  V30 12314 N 1222.39 -0.968567 -1.24324 0
M  V30 12315 C 1223.32 -0.518323 -2.27674 0
M  V30 12316 C 1224.3 0.442479 -1.64244 0
M  V30 12317 O 1225.48 0.338416 -1.91229 0
M  V30 12318 C 1222.61 0.191459 -3.46772 0
M  V30 12319 C 1221.57 -0.685449 -4.22476 0
M  V30 12320 C 1220.89 0.155873 -5.34473 0
M  V30 12321 C 1222.19 -1.97047 -4.83704 0
M  V30 12322 H 1223.89 -1.38215 -2.65588 0
M  V30 12323 H 1221.43 -0.66604 -1.27671 0
M  V30 12324 H 1223.39 0.517667 -4.18208 0
M  V30 12325 H 1222.11 1.08965 -3.07887 0
M  V30 12326 H 1220.77 -0.994942 -3.52841 0
M  V30 12327 H 1220.42 1.05424 -4.91828 0
M  V30 12328 H 1220.12 -0.427655 -5.86042 0
M  V30 12329 H 1221.64 0.476733 -6.08736 0
M  V30 12330 H 1223.06 -1.70979 -5.4721 0
M  V30 12331 H 1221.45 -2.50079 -5.45509 0
M  V30 12332 H 1222.52 -2.66484 -4.0511 0
M  V30 12333 N 1223.87 1.39211 -0.738786 0
M  V30 12334 C 1225.1 2.04435 -0.298318 0
M  V30 12335 C 1225.5 1.55822 1.07314 0
M  V30 12336 O 1224.85 0.719922 1.69005 0
M  V30 12337 C 1224.91 3.58789 -0.225979 0
M  V30 12338 C 1224.57 4.30395 -1.53653 0
M  V30 12339 C 1225.57 4.56777 -2.48295 0
M  V30 12340 C 1223.26 4.68869 -1.80187 0
M  V30 12341 C 1225.25 5.20648 -3.67702 0
M  V30 12342 C 1222.94 5.32467 -2.99871 0
M  V30 12343 C 1223.93 5.58289 -3.93449 0
M  V30 12344 O 1223.62 6.20567 -5.1103 0
M  V30 12345 H 1223.35 0.663848 -0.127603 0
M  V30 12346 H 1225.91 1.79171 -1.00433 0
M  V30 12347 H 1224.14 3.82965 0.536164 0
M  V30 12348 H 1225.83 4.05487 0.182996 0
M  V30 12349 H 1226.59 4.27497 -2.29066 0
M  V30 12350 H 1222.47 4.48124 -1.08193 0
M  V30 12351 H 1226.02 5.4072 -4.40759 0
M  V30 12352 H 1221.91 5.61169 -3.18998 0
M  V30 12353 H 1222.68 6.39059 -5.11415 0
M  V30 12354 N 1225.34 0.486708 1.49896 0
M  V30 12355 C 1226.57 -0.0622999 2.07306 0
M  V30 12356 C 1226.99 -1.31353 1.3464 0
M  V30 12357 O 1226.35 -1.76861 0.398752 0
M  V30 12358 C 1226.4 -0.313481 3.59235 0
M  V30 12359 O 1225.5 -1.39101 3.88233 0
M  V30 12360 H 1224.85 0.0198885 0.663702 0
M  V30 12361 H 1227.38 0.682232 1.92891 0
M  V30 12362 H 1227.39 -0.549302 4.04285 0
M  V30 12363 H 1226.06 0.600767 4.11538 0
M  V30 12364 H 1224.64 -1.14127 3.55006 0
M  V30 12365 N 1226.82 -1.56058 0.219941 0
M  V30 12366 C 1228.05 -2.031 -0.42014 0
M  V30 12367 C 1228.47 -1.09875 -1.52673 0
M  V30 12368 O 1227.83 -0.0866458 -1.81093 0
M  V30 12369 C 1227.88 -3.48389 -0.93047 0
M  V30 12370 O 1226.98 -3.583 -2.04192 0
M  V30 12371 H 1226.32 -0.657129 -0.0952772 0
M  V30 12372 H 1228.85 -2.01787 0.338105 0
M  V30 12373 H 1228.86 -3.88678 -1.2407 0
M  V30 12374 H 1227.54 -4.15725 -0.120539 0
M  V30 12375 H 1226.12 -3.29898 -1.73845 0
M  V30 12376 N 1228.3 0.053464 -1.57509 0
M  V30 12377 C 1229.55 0.747622 -1.87763 0
M  V30 12378 C 1229.87 1.77178 -0.814433 0
M  V30 12379 O 1229.14 1.95287 0.154862 0
M  V30 12380 H 1227.72 0.279109 -0.692898 0
M  V30 12381 H 1230.38 0.0252006 -1.94884 0
M  V30 12382 H 1229.48 1.25244 -2.85868 0
M  V30 12383 N 1229.78 1.54207 0.325255 0
M  V30 12384 C 1230.74 1.82757 1.38321 0
M  V30 12385 C 1231.74 0.699312 1.44797 0
M  V30 12386 O 1232.93 0.96762 1.44854 0
M  V30 12387 C 1230.06 1.98608 2.7707 0
M  V30 12388 H 1231.26 2.7728 1.14261 0
M  V30 12389 H 1228.81 1.45899 0.560647 0
M  V30 12390 H 1229.55 1.0629 3.06387 0
M  V30 12391 H 1229.33 2.80707 2.73763 0
M  V30 12392 H 1230.82 2.2215 3.53609 0
M  V30 12393 N 1231.26 -0.58723 1.46251 0
M  V30 12394 C 1232.2 -1.69662 1.56472 0
M  V30 12395 C 1233.17 -1.60978 0.409294 0
M  V30 12396 O 1234.36 -1.80257 0.625451 0
M  V30 12397 C 1231.5 -3.07996 1.55669 0
M  V30 12398 C 1230.61 -3.27337 2.81913 0
M  V30 12399 C 1229.75 -4.55894 2.72644 0
M  V30 12400 C 1228.79 -4.68562 3.93847 0
M  V30 12401 N 1227.92 -5.8844 3.82991 0
M  V30 12402 H 1232.76 -1.60262 2.51237 0
M  V30 12403 H 1230.3 -0.781148 1.24645 0
M  V30 12404 H 1232.26 -3.88058 1.53189 0
M  V30 12405 H 1230.89 -3.16303 0.6444 0
M  V30 12406 H 1229.94 -2.4091 2.94392 0
M  V30 12407 H 1231.25 -3.32567 3.71754 0
M  V30 12408 H 1230.41 -5.44178 2.68244 0
M  V30 12409 H 1229.15 -4.53094 1.80435 0
M  V30 12410 H 1228.15 -3.78696 3.98584 0
M  V30 12411 H 1229.38 -4.73144 4.87146 0
M  V30 12412 H 1227.32 -5.86647 2.93566 0
M  V30 12413 H 1227.24 -5.94919 4.66484 0
M  V30 12414 H 1228.51 -6.79168 3.82559 0
M  V30 12415 N 1232.74 -1.33881 -0.831482 0
M  V30 12416 C 1233.98 -1.251 -1.58218 0
M  V30 12417 C 1234.3 0.17963 -1.94773 0
M  V30 12418 O 1235.5 0.389516 -2.68691 0
M  V30 12419 C 1233.96 -2.19246 -2.8541 0
M  V30 12420 C 1233.57 -3.6752 -2.5619 0
M  V30 12421 C 1235.31 -2.19355 -3.63433 0
M  V30 12422 C 1233.22 -4.53559 -3.79523 0
M  V30 12423 H 1232.15 -0.46469 -0.593784 0
M  V30 12424 H 1234.8 -1.58992 -0.916169 0
M  V30 12425 H 1233.18 -1.78295 -3.53591 0
M  V30 12426 H 1234.36 -4.16956 -1.96173 0
M  V30 12427 H 1232.67 -3.69774 -1.91458 0
M  V30 12428 H 1235.27 -2.80863 -4.54995 0
M  V30 12429 H 1235.61 -1.19056 -3.98913 0
M  V30 12430 H 1236.14 -2.58706 -3.02185 0
M  V30 12431 H 1232.88 -5.54762 -3.4917 0
M  V30 12432 H 1232.4 -4.08862 -4.38853 0
M  V30 12433 H 1234.08 -4.67736 -4.47025 0
M  V30 12434 N 1234.21 1.05064 -1.1747 0
M  V30 12435 C 1235.16 2.12841 -0.89259 0
M  V30 12436 C 1236.13 1.65288 0.16402 0
M  V30 12437 O 1237.32 1.90782 0.026537 0
M  V30 12438 C 1234.46 3.42614 -0.41344 0
M  V30 12439 C 1233.57 4.03835 -1.53432 0
M  V30 12440 C 1232.7 5.21531 -1.00891 0
M  V30 12441 C 1231.74 5.74761 -2.10515 0
M  V30 12442 N 1230.88 6.83756 -1.59442 0
M  V30 12443 H 1235.72 2.36312 -1.81551 0
M  V30 12444 H 1233.26 1.15929 -0.905483 0
M  V30 12445 H 1235.21 4.17035 -0.117181 0
M  V30 12446 H 1233.84 3.19323 0.472517 0
M  V30 12447 H 1232.9 3.2684 -1.94627 0
M  V30 12448 H 1234.21 4.3938 -2.36108 0
M  V30 12449 H 1233.36 6.03027 -0.666575 0
M  V30 12450 H 1232.1 4.87464 -0.151608 0
M  V30 12451 H 1231.11 4.91893 -2.45604 0
M  V30 12452 H 1232.33 6.10875 -2.96663 0
M  V30 12453 H 1230.28 6.51584 -0.759849 0
M  V30 12454 H 1230.19 7.18311 -2.35724 0
M  V30 12455 H 1231.46 7.68901 -1.28105 0
M  V30 12456 N 1235.69 0.975146 1.23809 0
M  V30 12457 C 1236.94 0.642074 1.92367 0
M  V30 12458 C 1237.27 -0.82164 1.75962 0
M  V30 12459 O 1236.55 -1.59205 1.11732 0
M  V30 12460 C 1236.83 1.02677 3.45151 0
M  V30 12461 C 1236.68 2.54773 3.7069 0
M  V30 12462 C 1238 0.5668 4.36435 0
M  V30 12463 H 1235.12 0.234735 0.698619 0
M  V30 12464 H 1237.76 1.21549 1.46034 0
M  V30 12465 H 1235.91 0.538846 3.84745 0
M  V30 12466 H 1237.58 3.11099 3.4061 0
M  V30 12467 H 1235.83 2.97641 3.15583 0
M  V30 12468 H 1236.5 2.7674 4.77618 0
M  V30 12469 H 1238.97 0.985635 4.04258 0
M  V30 12470 H 1237.85 0.864458 5.4205 0
M  V30 12471 H 1238.11 -0.532989 4.38875 0
M  V30 12472 N 1237.17 -1.38817 0.746158 0
M  V30 12473 C 1238.45 -1.94303 0.224841 0
M  V30 12474 C 1238.83 -1.68207 -1.27552 0
M  V30 12475 O 1238.17 -1.01647 -2.04646 0
M  V30 12476 C 1238.38 -3.44306 0.5705 0
M  V30 12477 C 1239.73 -4.21329 0.526015 0
M  V30 12478 O 1240.76 -3.52554 0.508351 0
M  V30 12479 O 1239.62 -5.4392 0.530383 0
M  V30 12480 H 1236.71 -0.825785 0.0448047 0
M  V30 12481 H 1239.26 -1.48253 0.825775 0
M  V30 12482 H 1238.03 -3.56779 1.60701 0
M  V30 12483 H 1237.65 -3.97556 -0.0588271 0
M  V30 12484 N 1238.65 -0.49465 -1.49636 0
M  V30 12485 C 1239.89 0.0505629 -2.04337 0
M  V30 12486 C 1240.25 1.34858 -1.36665 0
M  V30 12487 O 1241.45 1.97763 -1.82052 0
M  V30 12488 C 1239.72 0.206247 -3.56804 0
M  V30 12489 S 1241.28 0.706624 -4.33073 0
M  V30 12490 H 1238.1 0.00479193 -0.710984 0
M  V30 12491 H 1240.7 -0.667169 -1.83764 0
M  V30 12492 H 1239.41 -0.743862 -4.03602 0
M  V30 12493 H 1238.94 0.949406 -3.81772 0
M  V30 12494 H 1240.95 1.97672 -4.55127 0
M  V30 12495 N 1240.13 1.55939 -0.228214 0
M  V30 12496 C 1241.07 2.21957 0.69556 0
M  V30 12497 C 1242.07 1.20109 1.19458 0
M  V30 12498 O 1243.27 1.38171 1.15364 0
M  V30 12499 H 1239.65 0.711744 0.242744 0
M  V30 12500 H 1241.62 2.98177 0.115403 0
M  V30 12501 C 1240.37 2.91847 1.88999 0
M  V30 12502 H 1239.69 3.69978 1.51512 0
M  V30 12503 H 1241.13 3.4143 2.51399 0
M  V30 12504 C 1239.59 1.94683 2.74954 0
M  V30 12505 O 1240.12 1.468 3.73915 0
M  V30 12506 N 1238.33 1.62188 2.41129 0
M  V30 12507 H 1237.87 2.01322 1.60709 0
M  V30 12508 H 1237.83 0.9744 2.98919 0
M  V30 12509 N 1241.6 -0.0451101 1.57535 0
M  V30 12510 C 1242.83 -0.75132 1.92777 0
M  V30 12511 C 1243.25 -1.69743 0.826599 0
M  V30 12512 O 1242.6 -1.8142 -0.198224 0
M  V30 12513 C 1242.66 -1.52218 3.2789 0
M  V30 12514 O 1242.38 -0.614059 4.33775 0
M  V30 12515 C 1243.88 -2.32699 3.77314 0
M  V30 12516 H 1241.1 -0.21211 0.636593 0
M  V30 12517 H 1243.64 -0.0074174 2.04499 0
M  V30 12518 H 1241.8 -2.2181 3.17614 0
M  V30 12519 H 1242.21 -1.15294 5.11671 0
M  V30 12520 H 1243.68 -2.82205 4.7441 0
M  V30 12521 H 1244.16 -3.13414 3.07682 0
M  V30 12522 H 1244.77 -1.68212 3.90621 0
M  V30 12523 N 1243.08 -1.54377 -0.317073 0
M  V30 12524 C 1244.32 -1.74621 -1.06239 0
M  V30 12525 C 1244.69 -0.512542 -1.85032 0
M  V30 12526 O 1245.89 -0.592438 -2.6219 0
M  V30 12527 C 1244.16 -2.99036 -1.95735 0
M  V30 12528 S 1245.72 -3.40212 -2.77131 0
M  V30 12529 H 1242.54 -0.613969 -0.358557 0
M  V30 12530 H 1245.14 -1.92562 -0.33763 0
M  V30 12531 H 1243.84 -3.86965 -1.36697 0
M  V30 12532 H 1243.37 -2.83636 -2.72606 0
M  V30 12533 H 1245.39 -2.9602 -3.98229 0
M  V30 12534 N 1244.56 0.579466 -1.4656 0
M  V30 12535 C 1245.79 1.36351 -1.55615 0
M  V30 12536 C 1246.2 1.87755 -0.198405 0
M  V30 12537 O 1245.56 1.63795 0.804834 0
M  V30 12538 C 1245.61 2.54881 -2.56355 0
M  V30 12539 O 1245.33 2.05607 -3.86856 0
M  V30 12540 C 1246.83 3.47391 -2.75381 0
M  V30 12541 H 1244.05 0.416426 -0.526147 0
M  V30 12542 H 1246.6 0.704134 -1.91995 0
M  V30 12543 H 1244.75 3.16802 -2.2297 0
M  V30 12544 H 1245.17 2.82823 -4.41714 0
M  V30 12545 H 1246.64 4.27031 -3.49783 0
M  V30 12546 H 1247.12 3.99532 -1.82403 0
M  V30 12547 H 1247.72 2.91303 -3.09875 0
M  V30 12548 N 1246.04 1.3432 0.824371 0
M  V30 12549 C 1247.28 1.27942 1.59405 0
M  V30 12550 C 1247.64 -0.148961 1.91421 0
M  V30 12551 O 1248.84 -0.336891 2.6668 0
M  V30 12552 C 1247.11 2.14393 2.85955 0
M  V30 12553 S 1248.67 2.25354 3.76512 0
M  V30 12554 H 1245.49 0.454953 0.546387 0
M  V30 12555 H 1248.09 1.69517 0.973873 0
M  V30 12556 H 1246.8 3.17182 2.60429 0
M  V30 12557 H 1246.33 1.7371 3.52971 0
M  V30 12558 H 1248.34 1.42526 4.7529 0
M  V30 12559 N 1247.52 -1.0444 1.18026 0
M  V30 12560 C 1248.46 -2.12365 0.903865 0
M  V30 12561 C 1249.43 -1.65373 -0.155252 0
M  V30 12562 O 1250.62 -1.90793 -0.016419 0
M  V30 12563 C 1247.76 -3.4239 0.431603 0
M  V30 12564 C 1246.87 -4.03016 1.55571 0
M  V30 12565 C 1246.01 -5.20988 1.03655 0
M  V30 12566 C 1245.05 -5.73636 2.1356 0
M  V30 12567 N 1244.18 -6.82901 1.63066 0
M  V30 12568 H 1249.02 -2.35346 1.82802 0
M  V30 12569 H 1246.56 -1.15447 0.911618 0
M  V30 12570 H 1248.52 -4.16967 0.139296 0
M  V30 12571 H 1247.15 -3.19569 -0.455576 0
M  V30 12572 H 1246.2 -3.25803 1.96358 0
M  V30 12573 H 1247.51 -4.38122 2.38434 0
M  V30 12574 H 1246.67 -6.02665 0.698546 0
M  V30 12575 H 1245.4 -4.87377 0.177457 0
M  V30 12576 H 1244.41 -4.90583 2.4821 0
M  V30 12577 H 1245.63 -6.09293 2.99899 0
M  V30 12578 H 1243.58 -6.51172 0.794394 0
M  V30 12579 H 1243.5 -7.1705 2.3953 0
M  V30 12580 H 1244.77 -7.68211 1.32181 0
M  V30 12581 N 1248.99 -0.981699 -1.2329 0
M  V30 12582 C 1250.41 -0.690539 -1.43888 0
M  V30 12583 C 1250.61 0.742816 -1.87309 0
M  V30 12584 O 1249.67 1.5151 -2.01993 0
M  V30 12585 C 1250.98 -1.68657 -2.48948 0
M  V30 12586 C 1252.53 -1.70076 -2.62761 0
M  V30 12587 C 1253 -2.68513 -3.71032 0
M  V30 12588 N 1254.49 -2.67039 -3.78476 0
M  V30 12589 C 1255.23 -3.39874 -4.61815 0
M  V30 12590 N 1254.72 -4.22273 -5.49233 0
M  V30 12591 N 1256.52 -3.28633 -4.56023 0
M  V30 12592 H 1248.67 -1.90758 -0.934077 0
M  V30 12593 H 1250.93 -0.822058 -0.472149 0
M  V30 12594 H 1250.64 -2.7117 -2.23964 0
M  V30 12595 H 1250.51 -1.47045 -3.47358 0
M  V30 12596 H 1252.9 -0.682673 -2.87095 0
M  V30 12597 H 1252.98 -1.95754 -1.64663 0
M  V30 12598 H 1252.62 -3.70464 -3.47446 0
M  V30 12599 H 1252.55 -2.40109 -4.68674 0
M  V30 12600 H 1255.04 -2.07241 -3.16006 0
M  V30 12601 H 1255.36 -4.74702 -6.09818 0
M  V30 12602 H 1253.7 -4.26364 -5.48852 0
M  V30 12603 H 1256.89 -2.6371 -3.86749 0
M  V30 12604 H 1257.07 -3.85656 -5.20743 0
M  V30 12605 N 1250.47 1.3842 -0.753509 0
M  V30 12606 C 1251.72 1.99723 -0.309021 0
M  V30 12607 C 1252.04 1.60111 1.11308 0
M  V30 12608 O 1251.31 0.85792 1.76115 0
M  V30 12609 H 1249.89 0.738667 -0.111266 0
M  V30 12610 H 1252.55 1.69186 -0.967586 0
M  V30 12611 H 1251.65 3.09874 -0.372095 0
M  V30 12612 N 1251.95 0.502579 1.49372 0
M  V30 12613 C 1253.37 0.158641 1.5881 0
M  V30 12614 C 1253.57 -1.33688 1.50764 0
M  V30 12615 O 1252.62 -2.11295 1.38241 0
M  V30 12616 C 1253.94 0.736843 2.91532 0
M  V30 12617 C 1255.48 0.703093 3.05001 0
M  V30 12618 C 1255.96 1.25938 4.40345 0
M  V30 12619 N 1257.45 1.22015 4.46841 0
M  V30 12620 C 1258.18 1.62076 5.50017 0
M  V30 12621 N 1257.68 2.09736 6.6029 0
M  V30 12622 N 1259.47 1.53482 5.4074 0
M  V30 12623 H 1251.62 1.47487 1.52844 0
M  V30 12624 H 1253.89 0.611851 0.724115 0
M  V30 12625 H 1253.59 1.78573 3.02992 0
M  V30 12626 H 1253.47 0.198178 3.76679 0
M  V30 12627 H 1255.85 -0.336965 2.9317 0
M  V30 12628 H 1255.94 1.27892 2.21534 0
M  V30 12629 H 1255.58 2.29823 4.52928 0
M  V30 12630 H 1255.51 0.659481 5.22454 0
M  V30 12631 H 1258 0.870957 3.67726 0
M  V30 12632 H 1258.31 2.3837 7.35119 0
M  V30 12633 H 1256.66 2.13712 6.61326 0
M  V30 12634 H 1259.85 1.16065 4.53483 0
M  V30 12635 H 1260.02 1.85026 6.21023 0
M  V30 12636 N 1253.43 -1.55816 0.23648 0
M  V30 12637 C 1254.67 -1.99725 -0.384898 0
M  V30 12638 C 1255.03 -1.12169 -1.5632 0
M  V30 12639 O 1254.32 -0.17491 -1.908 0
M  V30 12640 C 1254.52 -3.47039 -0.85434 0
M  V30 12641 C 1254.35 -4.48847 0.276929 0
M  V30 12642 C 1253.12 -4.9973 0.748215 0
M  V30 12643 C 1255.31 -5.02391 1.10036 0
M  V30 12644 N 1253.3 -5.85267 1.85298 0
M  V30 12645 C 1254.67 -5.84998 2.0537 0
M  V30 12646 C 1256.72 -4.84718 1.1381 0
M  V30 12647 C 1255.42 -6.5182 3.04177 0
M  V30 12648 C 1257.45 -5.5231 2.11442 0
M  V30 12649 C 1256.81 -6.34697 3.05514 0
M  V30 12650 H 1252.91 -0.774632 -0.107094 0
M  V30 12651 H 1255.5 -1.91498 0.351673 0
M  V30 12652 H 1253.67 -3.55684 -1.56023 0
M  V30 12653 H 1255.4 -3.7784 -1.44979 0
M  V30 12654 H 1252.15 -4.7242 0.334178 0
M  V30 12655 H 1252.58 -6.32735 2.40782 0
M  V30 12656 H 1257.22 -4.20662 0.424703 0
M  V30 12657 H 1254.94 -7.15049 3.76471 0
M  V30 12658 H 1258.52 -5.40594 2.15056 0
M  V30 12659 H 1257.4 -6.86077 3.79827 0
M  V30 12660 N 1254.91 0.036755 -1.57557 0
M  V30 12661 C 1256.15 0.730186 -1.89199 0
M  V30 12662 C 1256.49 1.75414 -0.833271 0
M  V30 12663 O 1255.76 1.93901 0.152579 0
M  V30 12664 C 1256.04 1.40669 -3.31488 0
M  V30 12665 C 1255.9 0.396764 -4.48047 0
M  V30 12666 C 1257.22 2.34268 -3.72567 0
M  V30 12667 H 1254.33 0.263983 -0.6881 0
M  V30 12668 H 1256.98 -0.0069847 -1.89999 0
M  V30 12669 H 1255.13 2.03502 -3.30937 0
M  V30 12670 H 1256.8 -0.229062 -4.60731 0
M  V30 12671 H 1255.04 -0.284698 -4.32865 0
M  V30 12672 H 1255.71 0.908436 -5.44474 0
M  V30 12673 H 1258.19 1.81485 -3.74436 0
M  V30 12674 H 1257.06 2.78587 -4.72949 0
M  V30 12675 H 1257.33 3.20611 -3.04403 0
M  V30 12676 N 1256.39 1.54543 0.308881 0
M  V30 12677 C 1257.63 1.75182 1.05312 0
M  V30 12678 C 1257.99 0.522347 1.84758 0
M  V30 12679 O 1259.19 0.606334 2.61872 0
M  V30 12680 C 1257.46 3.0007 1.94147 0
M  V30 12681 S 1259.02 3.41676 2.75323 0
M  V30 12682 H 1255.84 0.615862 0.355296 0
M  V30 12683 H 1258.44 1.92739 0.327413 0
M  V30 12684 H 1257.14 3.87685 1.34643 0
M  V30 12685 H 1256.68 2.85078 2.71098 0
M  V30 12686 H 1258.69 2.98128 3.96654 0
M  V30 12687 N 1257.86 -0.571685 1.46866 0
M  V30 12688 C 1259.09 -1.35524 1.56336 0
M  V30 12689 C 1259.51 -1.87647 0.208359 0
M  V30 12690 O 1258.86 -1.64219 -0.796136 0
M  V30 12691 C 1258.91 -2.53518 2.57703 0
M  V30 12692 O 1258.64 -2.03552 3.87941 0
M  V30 12693 C 1260.14 -3.45925 2.77219 0
M  V30 12694 H 1257.36 -0.41363 0.528348 0
M  V30 12695 H 1259.9 -0.693943 1.92366 0
M  V30 12696 H 1258.06 -3.15615 2.24647 0
M  V30 12697 H 1258.47 -2.80476 4.43208 0
M  V30 12698 H 1259.94 -4.2517 3.52043 0
M  V30 12699 H 1260.42 -3.98559 1.8452 0
M  V30 12700 H 1261.03 -2.89655 3.11416 0
M  V30 12701 N 1259.34 -1.34755 -0.817236 0
M  V30 12702 C 1260.27 -1.22648 -1.93624 0
M  V30 12703 C 1261.29 -0.152226 -1.62087 0
M  V30 12704 O 1262.48 -0.404578 -1.73855 0
M  V30 12705 C 1259.58 -0.863519 -3.27714 0
M  V30 12706 C 1258.75 -2.03394 -3.87233 0
M  V30 12707 C 1257.81 -1.64846 -4.99712 0
M  V30 12708 O 1256.83 -2.3658 -5.17705 0
M  V30 12709 N 1258.04 -0.565909 -5.77735 0
M  V30 12710 H 1260.8 -2.19051 -2.0454 0
M  V30 12711 H 1258.36 -1.27785 -0.994113 0
M  V30 12712 H 1260.35 -0.58733 -4.00415 0
M  V30 12713 H 1258.92 0.0104987 -3.12598 0
M  V30 12714 H 1258.14 -2.47454 -3.06856 0
M  V30 12715 H 1259.43 -2.81655 -4.23731 0
M  V30 12716 H 1258.83 0.030313 -5.65692 0
M  V30 12717 H 1257.39 -0.349467 -6.50862 0
M  V30 12718 N 1260.82 1.03812 -1.18578 0
M  V30 12719 C 1261.78 2.10049 -0.91718 0
M  V30 12720 C 1262.78 1.60498 0.0985122 0
M  V30 12721 O 1263.97 1.73674 -0.135213 0
M  V30 12722 C 1261.1 3.38813 -0.376599 0
M  V30 12723 H 1262.3 2.3531 -1.85927 0
M  V30 12724 H 1259.85 1.20277 -0.998156 0
M  V30 12725 H 1260.59 3.19216 0.571983 0
M  V30 12726 H 1260.37 3.76096 -1.10881 0
M  V30 12727 H 1261.86 4.17084 -0.207453 0
M  V30 12728 N 1262.3 0.988223 1.22768 0
M  V30 12729 C 1263.54 0.662441 1.91676 0
M  V30 12730 C 1263.88 -0.802931 1.76824 0
M  V30 12731 O 1263.15 -1.58011 1.13415 0
M  V30 12732 C 1263.43 1.06332 3.44043 0
M  V30 12733 C 1263.29 2.5869 3.67967 0
M  V30 12734 C 1264.61 0.613058 4.35809 0
M  V30 12735 H 1261.73 0.242132 0.69609 0
M  V30 12736 H 1264.37 1.23091 1.44736 0
M  V30 12737 H 1262.52 0.579623 3.84152 0
M  V30 12738 H 1264.19 3.14694 3.37291 0
M  V30 12739 H 1262.43 3.00971 3.12408 0
M  V30 12740 H 1263.1 2.8179 4.74656 0
M  V30 12741 H 1265.58 1.02846 4.0319 0
M  V30 12742 H 1264.46 0.921901 5.41103 0
M  V30 12743 H 1264.72 -0.48641 4.39416 0
M  V30 12744 N 1263.78 -1.38018 0.760839 0
M  V30 12745 C 1265.02 -2.01795 0.325264 0
M  V30 12746 C 1265.38 -1.59092 -1.07489 0
M  V30 12747 O 1266.58 -2.15251 -1.60998 0
M  V30 12748 C 1264.85 -3.5453 0.452007 0
M  V30 12749 S 1266.41 -4.38686 0.100084 0
M  V30 12750 H 1263.23 -0.69979 0.125758 0
M  V30 12751 H 1265.83 -1.684 0.993054 0
M  V30 12752 H 1264.53 -3.83099 1.47186 0
M  V30 12753 H 1264.07 -3.92711 -0.232716 0
M  V30 12754 H 1266.08 -4.83672 -1.10797 0
M  V30 12755 N 1265.25 -0.510493 -1.49103 0
M  V30 12756 C 1266.2 0.282297 -2.26246 0
M  V30 12757 C 1267.19 0.927187 -1.31499 0
M  V30 12758 O 1268.38 0.833216 -1.56162 0
M  V30 12759 C 1265.51 1.34046 -3.16049 0
M  V30 12760 C 1264.59 0.701334 -4.18261 0
M  V30 12761 N 1264.99 -0.201593 -5.05398 0
M  V30 12762 C 1263.28 0.960822 -4.35527 0
M  V30 12763 C 1263.98 -0.568383 -5.78916 0
M  V30 12764 N 1262.96 0.0659546 -5.4356 0
M  V30 12765 H 1266.76 -0.41264 -2.90989 0
M  V30 12766 H 1264.28 -0.327201 -1.5907 0
M  V30 12767 H 1266.27 1.92195 -3.69955 0
M  V30 12768 H 1264.93 2.03697 -2.52859 0
M  V30 12769 H 1265.94 -0.573004 -5.1472 0
M  V30 12770 H 1262.62 1.64938 -3.83539 0
M  V30 12771 H 1264.01 -1.30763 -6.59053 0
M  V30 12772 N 1266.73 1.55688 -0.24474 0
M  V30 12773 C 1267.98 1.98498 0.379852 0
M  V30 12774 C 1268.3 1.13416 1.58625 0
M  V30 12775 O 1267.57 0.216456 1.947 0
M  V30 12776 H 1266.15 0.73312 0.143334 0
M  V30 12777 H 1268.81 1.91858 -0.343027 0
M  V30 12778 H 1267.91 3.04367 0.690463 0
M  V30 12779 N 1268.21 -0.0283989 1.57574 0
M  V30 12780 C 1269.44 -0.730831 1.93563 0
M  V30 12781 C 1269.85 -1.68857 0.844556 0
M  V30 12782 O 1269.21 -1.8162 -0.178971 0
M  V30 12783 C 1269.26 -1.48731 3.29486 0
M  V30 12784 O 1268.98 -0.568017 4.34402 0
M  V30 12785 C 1270.48 -2.28684 3.79761 0
M  V30 12786 H 1267.7 -0.205346 0.638807 0
M  V30 12787 H 1270.25 0.0142728 2.04495 0
M  V30 12788 H 1268.4 -2.18429 3.19949 0
M  V30 12789 H 1268.82 -1.09861 5.12865 0
M  V30 12790 H 1270.29 -2.77157 4.77376 0
M  V30 12791 H 1270.77 -3.10133 3.10989 0
M  V30 12792 H 1271.37 -1.64059 3.92383 0
M  V30 12793 N 1269.69 -1.54705 -0.300681 0
M  V30 12794 C 1270.93 -1.75738 -1.04381 0
M  V30 12795 C 1271.29 -0.532138 -1.84478 0
M  V30 12796 O 1272.49 -0.620213 -2.61547 0
M  V30 12797 C 1270.76 -3.01095 -1.92553 0
M  V30 12798 S 1272.32 -3.43132 -2.73507 0
M  V30 12799 H 1269.14 -0.617737 -0.352025 0
M  V30 12800 H 1271.74 -1.9291 -0.317187 0
M  V30 12801 H 1270.45 -3.88393 -1.32585 0
M  V30 12802 H 1269.98 -2.86512 -2.69582 0
M  V30 12803 H 1271.99 -3.00227 -3.95067 0
M  V30 12804 N 1271.17 0.563888 -1.47167 0
M  V30 12805 C 1272.39 1.35176 -1.57297 0
M  V30 12806 C 1272.82 1.86794 -0.221235 0
M  V30 12807 O 1272.17 1.62606 0.801809 0
M  V30 12808 C 1272.22 2.50225 -2.59654 0
M  V30 12809 O 1271.33 3.5225 -2.14461 0
M  V30 12810 H 1270.67 0.401795 -0.528637 0
M  V30 12811 H 1273.2 0.682137 -1.92894 0
M  V30 12812 H 1273.21 2.96886 -2.79862 0
M  V30 12813 H 1271.88 2.1201 -3.57805 0
M  V30 12814 H 1270.46 3.1194 -2.04323 0
M  V30 12815 N 1272.64 1.35187 0.810078 0
M  V30 12816 C 1273.89 1.27602 1.56207 0
M  V30 12817 C 1274.21 -0.148621 1.95035 0
M  V30 12818 O 1275.41 -0.346721 2.69277 0
M  V30 12819 C 1273.87 2.23759 2.81886 0
M  V30 12820 C 1273.48 3.71549 2.5031 0
M  V30 12821 C 1275.22 2.25109 3.59898 0
M  V30 12822 C 1273.13 4.5954 3.7226 0
M  V30 12823 H 1272.06 0.474078 0.586316 0
M  V30 12824 H 1274.71 1.6043 0.890759 0
M  V30 12825 H 1273.09 1.83898 3.5071 0
M  V30 12826 H 1274.26 4.20025 1.89515 0
M  V30 12827 H 1272.58 3.72773 1.85551 0
M  V30 12828 H 1275.18 2.88066 4.50469 0
M  V30 12829 H 1275.52 1.25387 3.96968 0
M  V30 12830 H 1276.05 2.63481 2.98031 0
M  V30 12831 H 1272.79 5.60246 3.403 0
M  V30 12832 H 1272.31 4.15792 4.32293 0
M  V30 12833 H 1273.99 4.74789 4.39528 0
M  V30 12834 N 1274.12 -1.03182 1.19127 0
M  V30 12835 C 1275.35 -1.79904 1.01578 0
M  V30 12836 C 1275.76 -1.84044 -0.438697 0
M  V30 12837 O 1275.1 -1.28117 -1.3165 0
M  V30 12838 C 1275.17 -3.26473 1.50519 0
M  V30 12839 C 1274.83 -3.45975 2.98581 0
M  V30 12840 C 1275.83 -3.36436 3.96367 0
M  V30 12841 C 1273.51 -3.72284 3.37209 0
M  V30 12842 C 1275.51 -3.52925 5.30775 0
M  V30 12843 C 1273.19 -3.8842 4.71777 0
M  V30 12844 C 1274.19 -3.78742 5.68369 0
M  V30 12845 O 1273.88 -3.94405 7.005 0
M  V30 12846 H 1273.61 -0.573103 0.35851 0
M  V30 12847 H 1276.16 -1.30871 1.5831 0
M  V30 12848 H 1274.39 -3.76517 0.881593 0
M  V30 12849 H 1276.08 -3.84781 1.29223 0
M  V30 12850 H 1276.85 -3.16064 3.6787 0
M  V30 12851 H 1272.73 -3.78911 2.62579 0
M  V30 12852 H 1276.27 -3.45288 6.06153 0
M  V30 12853 H 1272.17 -4.08288 4.99971 0
M  V30 12854 H 1272.94 -4.11514 7.0753 0
M  V30 12855 N 1275.6 -0.99472 -1.22242 0
M  V30 12856 C 1276.85 -0.670275 -1.90661 0
M  V30 12857 C 1277.17 0.800369 -1.77818 0
M  V30 12858 O 1276.44 1.57381 -1.16653 0
M  V30 12859 H 1275.02 -0.244925 -0.705706 0
M  V30 12860 H 1277.68 -1.26162 -1.48557 0
M  V30 12861 H 1276.78 -0.934408 -2.97784 0
M  V30 12862 N 1277.08 1.37613 -0.768148 0
M  V30 12863 C 1278.3 2.04579 -0.340892 0
M  V30 12864 C 1278.73 1.57556 1.02751 0
M  V30 12865 O 1278.09 0.734151 1.65771 0
M  V30 12866 C 1278.13 3.58495 -0.389099 0
M  V30 12867 O 1277.24 4.07838 0.611741 0
M  V30 12868 H 1276.58 0.647246 -0.148216 0
M  V30 12869 H 1279.11 1.75999 -1.04333 0
M  V30 12870 H 1279.12 4.07263 -0.245116 0
M  V30 12871 H 1277.79 3.92076 -1.38742 0
M  V30 12872 H 1276.37 3.70399 0.431173 0
M  V30 12873 N 1278.56 0.518393 1.4883 0
M  V30 12874 C 1279.8 -0.019866 2.0209 0
M  V30 12875 C 1280.13 -1.35863 1.3988 0
M  V30 12876 O 1279.4 -1.87722 0.560117 0
M  V30 12877 H 1277.98 -0.0103306 0.746929 0
M  V30 12878 H 1280.64 0.679591 1.82668 0
M  V30 12879 H 1279.73 -0.136749 3.118 0
M  V30 12880 N 1280.03 -1.55556 0.252993 0
M  V30 12881 C 1280.98 -2.18298 -0.658028 0
M  V30 12882 C 1281.97 -1.14072 -1.13474 0
M  V30 12883 O 1283.16 -1.39962 -1.0835 0
M  V30 12884 C 1280.29 -2.89067 -1.8519 0
M  V30 12885 C 1279.38 -4.00556 -1.3934 0
M  V30 12886 N 1279.77 -5.01612 -0.649538 0
M  V30 12887 C 1278.06 -4.13222 -1.67819 0
M  V30 12888 C 1278.77 -5.80244 -0.411347 0
M  V30 12889 N 1277.74 -5.34742 -0.977342 0
M  V30 12890 H 1281.54 -2.93787 -0.0816162 0
M  V30 12891 H 1279.06 -1.62305 0.0555728 0
M  V30 12892 H 1281.05 -3.32448 -2.51563 0
M  V30 12893 H 1279.71 -2.15082 -2.43248 0
M  V30 12894 H 1280.73 -5.17036 -0.299043 0
M  V30 12895 H 1277.4 -3.50414 -2.26972 0
M  V30 12896 H 1278.79 -6.71651 0.182911 0
M  V30 12897 N 1281.51 0.0200419 -1.57587 0
M  V30 12898 C 1282.74 0.719511 -1.93666 0
M  V30 12899 C 1283.15 1.68934 -0.85193 0
M  V30 12900 O 1282.49 1.8282 0.179593 0
M  V30 12901 C 1282.56 1.52382 -3.25607 0
M  V30 12902 C 1282.22 0.717784 -4.51328 0
M  V30 12903 C 1283.22 0.0141272 -5.19898 0
M  V30 12904 C 1280.9 0.669662 -4.97816 0
M  V30 12905 C 1282.9 -0.726853 -6.33242 0
M  V30 12906 C 1280.58 -0.0750577 -6.11054 0
M  V30 12907 C 1281.58 -0.772067 -6.78622 0
M  V30 12908 O 1281.27 -1.50468 -7.89693 0
M  V30 12909 H 1281 0.206681 -0.643629 0
M  V30 12910 H 1283.55 -0.0211203 -2.05389 0
M  V30 12911 H 1281.78 2.30848 -3.10236 0
M  V30 12912 H 1283.47 2.10675 -3.46945 0
M  V30 12913 H 1284.24 0.0422784 -4.84982 0
M  V30 12914 H 1280.12 1.20169 -4.45062 0
M  V30 12915 H 1283.66 -1.27143 -6.85916 0
M  V30 12916 H 1279.56 -0.1051 -6.45414 0
M  V30 12917 H 1280.33 -1.41929 -8.06101 0
M  V30 12918 N 1282.99 1.54862 0.292472 0
M  V30 12919 C 1284.24 1.73756 1.02429 0
M  V30 12920 C 1284.55 0.535164 1.88137 0
M  V30 12921 O 1285.76 0.606092 2.64648 0
M  V30 12922 C 1284.21 3.0745 1.8709 0
M  V30 12923 C 1283.82 4.35195 1.06343 0
M  V30 12924 C 1285.57 3.357 2.59819 0
M  V30 12925 C 1283.47 5.59936 1.9033 0
M  V30 12926 H 1282.4 0.647617 0.386145 0
M  V30 12927 H 1285.05 1.81338 0.28086 0
M  V30 12928 H 1283.44 2.93855 2.65453 0
M  V30 12929 H 1284.61 4.5965 0.325335 0
M  V30 12930 H 1282.93 4.13944 0.451574 0
M  V30 12931 H 1285.52 4.26099 3.23023 0
M  V30 12932 H 1285.87 2.54956 3.29094 0
M  V30 12933 H 1286.4 3.50304 1.88499 0
M  V30 12934 H 1283.14 6.43372 1.25509 0
M  V30 12935 H 1282.66 5.39654 2.61789 0
M  V30 12936 H 1284.34 5.97512 2.48171 0
M  V30 12937 N 1284.47 -0.556076 1.47464 0
M  V30 12938 C 1285.7 -1.33858 1.57764 0
M  V30 12939 C 1286.11 -1.87415 0.22825 0
M  V30 12940 O 1285.47 -1.65054 -0.778674 0
M  V30 12941 C 1285.52 -2.5077 2.60378 0
M  V30 12942 O 1285.24 -1.99426 3.90078 0
M  V30 12943 C 1286.74 -3.42965 2.80873 0
M  V30 12944 H 1283.96 -0.408003 0.532705 0
M  V30 12945 H 1286.51 -0.673501 1.93091 0
M  V30 12946 H 1284.66 -3.13214 2.27982 0
M  V30 12947 H 1285.07 -2.75759 4.46158 0
M  V30 12948 H 1286.55 -4.21412 3.56533 0
M  V30 12949 H 1287.03 -3.96579 1.88737 0
M  V30 12950 H 1287.63 -2.86336 3.14471 0
M  V30 12951 N 1285.95 -1.35615 -0.802897 0
M  V30 12952 C 1287.19 -1.29094 -1.56016 0
M  V30 12953 C 1287.52 0.133617 -1.9404 0
M  V30 12954 O 1286.78 1.09975 -1.61876 0
M  V30 12955 C 1287.08 -2.14653 -2.8576 0
M  V30 12956 C 1286.74 -3.63395 -2.66936 0
M  V30 12957 C 1285.4 -4.03937 -2.61511 0
M  V30 12958 C 1287.76 -4.57758 -2.49212 0
M  V30 12959 C 1285.08 -5.37006 -2.36309 0
M  V30 12960 C 1287.44 -5.91029 -2.25539 0
M  V30 12961 C 1286.1 -6.30712 -2.18538 0
M  V30 12962 H 1285.37 -0.472387 -0.570904 0
M  V30 12963 H 1288.02 -1.67545 -0.92741 0
M  V30 12964 H 1286.32 -1.69095 -3.53432 0
M  V30 12965 H 1288.02 -2.06941 -3.43477 0
M  V30 12966 H 1284.61 -3.31224 -2.72009 0
M  V30 12967 H 1288.79 -4.27318 -2.52414 0
M  V30 12968 H 1284.05 -5.66748 -2.29361 0
M  V30 12969 H 1288.22 -6.63724 -2.10816 0
M  V30 12970 H 1285.85 -7.33753 -1.98772 0
M  V30 12971 N 1287.43 1.02549 -1.19673 0
M  V30 12972 C 1288.7 1.73106 -0.9107 0
M  V30 12973 C 1289.08 2.02897 0.582769 0
M  V30 12974 O 1288.43 1.68633 1.54192 0
M  V30 12975 C 1288.64 3.00535 -1.77425 0
M  V30 12976 C 1289.99 3.73976 -2.01065 0
M  V30 12977 O 1291.01 3.1047 -1.74605 0
M  V30 12978 O 1289.87 4.88153 -2.457 0
M  V30 12979 H 1286.97 0.754006 -0.339711 0
M  V30 12980 H 1289.51 1.08477 -1.30502 0
M  V30 12981 H 1288.28 2.74773 -2.78595 0
M  V30 12982 H 1287.91 3.72904 -1.37943 0
M  V30 12983 N 1288.9 1.00119 1.21713 0
M  V30 12984 C 1290.15 0.680377 1.90303 0
M  V30 12985 C 1290.47 -0.790927 1.7824 0
M  V30 12986 O 1289.74 -1.5676 1.17486 0
M  V30 12987 H 1288.32 0.248665 0.704397 0
M  V30 12988 H 1290.98 1.26948 1.47886 0
M  V30 12989 H 1290.08 0.950188 2.97284 0
M  V30 12990 N 1290.38 -1.37203 0.775435 0
M  V30 12991 C 1291.33 -2.30228 0.162388 0
M  V30 12992 C 1292.3 -1.51284 -0.685747 0
M  V30 12993 O 1293.48 -1.7984 -0.637342 0
M  V30 12994 C 1290.62 -3.37762 -0.707858 0
M  V30 12995 C 1289.74 -4.31714 0.157287 0
M  V30 12996 C 1288.87 -5.26325 -0.718012 0
M  V30 12997 C 1287.91 -6.11918 0.149442 0
M  V30 12998 N 1287.05 -6.9876 -0.684043 0
M  V30 12999 H 1291.89 -2.82073 0.961184 0
M  V30 13000 H 1289.42 -1.38854 0.485587 0
M  V30 13001 H 1291.38 -3.98741 -1.22726 0
M  V30 13002 H 1290.01 -2.87273 -1.47222 0
M  V30 13003 H 1289.06 -3.7201 0.794533 0
M  V30 13004 H 1290.38 -4.91909 0.826262 0
M  V30 13005 H 1289.53 -5.92526 -1.30376 0
M  V30 13006 H 1288.27 -4.6655 -1.42066 0
M  V30 13007 H 1287.27 -5.44692 0.747697 0
M  V30 13008 H 1288.5 -6.73766 0.849476 0
M  V30 13009 H 1286.45 -6.41508 -1.37124 0
M  V30 13010 H 1286.36 -7.55965 -0.0724464 0
M  V30 13011 H 1287.63 -7.69346 -1.25407 0
M  V30 13012 N 1291.86 -0.526279 -1.48553 0
M  V30 13013 C 1293.09 0.00522012 -2.06599 0
M  V30 13014 C 1293.5 1.29039 -1.38368 0
M  V30 13015 O 1292.84 1.77747 -0.463854 0
M  V30 13016 C 1292.9 0.303512 -3.58216 0
M  V30 13017 C 1292.57 -0.887635 -4.48297 0
M  V30 13018 C 1293.56 -1.78504 -4.88295 0
M  V30 13019 C 1291.25 -1.09359 -4.90251 0
M  V30 13020 C 1293.24 -2.87233 -5.69013 0
M  V30 13021 C 1290.93 -2.18402 -5.7074 0
M  V30 13022 C 1291.93 -3.07172 -6.10028 0
M  V30 13023 O 1291.62 -4.14329 -6.88902 0
M  V30 13024 H 1291.35 -0.0287033 -0.67539 0
M  V30 13025 H 1293.9 -0.730244 -1.91981 0
M  V30 13026 H 1292.13 1.0929 -3.70935 0
M  V30 13027 H 1293.82 0.776647 -3.98401 0
M  V30 13028 H 1294.59 -1.63785 -4.56508 0
M  V30 13029 H 1290.47 -0.411922 -4.59156 0
M  V30 13030 H 1294.01 -3.56549 -5.99599 0
M  V30 13031 H 1289.91 -2.33106 -6.0194 0
M  V30 13032 H 1290.67 -4.11993 -7.07251 0
M  V30 13033 N 1293.34 1.5542 -0.261239 0
M  V30 13034 C 1294.57 2.03391 0.362698 0
M  V30 13035 C 1294.98 1.13947 1.51039 0
M  V30 13036 O 1294.32 0.149231 1.83093 0
M  V30 13037 C 1294.38 3.47558 0.918889 0
M  V30 13038 C 1294.04 4.56894 -0.0983829 0
M  V30 13039 C 1295.04 5.1182 -0.913018 0
M  V30 13040 C 1292.73 5.01779 -0.228616 0
M  V30 13041 C 1294.72 6.10138 -1.84421 0
M  V30 13042 C 1292.41 5.99926 -1.16329 0
M  V30 13043 C 1293.41 6.53984 -1.9696 0
M  V30 13044 O 1293.09 7.50214 -2.8885 0
M  V30 13045 H 1292.83 0.670166 0.0886182 0
M  V30 13046 H 1295.38 2.01722 -0.386967 0
M  V30 13047 H 1293.61 3.46423 1.71838 0
M  V30 13048 H 1295.3 3.78947 1.45443 0
M  V30 13049 H 1296.06 4.77965 -0.823066 0
M  V30 13050 H 1291.94 4.59356 0.388945 0
M  V30 13051 H 1295.49 6.52258 -2.47397 0
M  V30 13052 H 1291.38 6.332 -1.25412 0
M  V30 13053 H 1292.15 7.67881 -2.83374 0
M  V30 13054 N 1294.82 -0.0116844 1.57596 0
M  V30 13055 C 1296.09 -0.735344 1.81251 0
M  V30 13056 C 1296.47 -1.92634 0.863446 0
M  V30 13057 O 1295.82 -2.28321 -0.0905028 0
M  V30 13058 C 1296.03 -1.15206 3.29437 0
M  V30 13059 C 1297.38 -1.56078 3.94873 0
M  V30 13060 O 1298.4 -1.24618 3.3369 0
M  V30 13061 O 1297.26 -2.14534 5.0263 0
M  V30 13062 H 1294.36 -0.357044 0.745955 0
M  V30 13063 H 1296.9 0.0128733 1.69695 0
M  V30 13064 H 1295.67 -0.302619 3.90128 0
M  V30 13065 H 1295.3 -1.95975 3.45947 0
M  V30 13066 N 1296.29 -1.55015 -0.284256 0
M  V30 13067 C 1297.54 -1.7509 -1.01733 0
M  V30 13068 C 1297.87 -0.545803 -1.86685 0
M  V30 13069 O 1297.12 0.471951 -1.89924 0
M  V30 13070 C 1297.42 -3.00246 -1.93874 0
M  V30 13071 C 1297.09 -4.33295 -1.24764 0
M  V30 13072 C 1295.75 -4.69459 -1.0565 0
M  V30 13073 C 1298.1 -5.15704 -0.754939 0
M  V30 13074 C 1295.43 -5.85596 -0.35976 0
M  V30 13075 C 1297.78 -6.32559 -0.0718473 0
M  V30 13076 C 1296.45 -6.67371 0.131104 0
M  V30 13077 H 1295.72 -0.6407 -0.372269 0
M  V30 13078 H 1298.36 -1.89282 -0.290638 0
M  V30 13079 H 1296.67 -2.80907 -2.73127 0
M  V30 13080 H 1298.37 -3.12974 -2.50696 0
M  V30 13081 H 1294.96 -4.04865 -1.4065 0
M  V30 13082 H 1299.14 -4.8825 -0.89027 0
M  V30 13083 H 1294.4 -6.11099 -0.19169 0
M  V30 13084 H 1298.57 -6.95675 0.317743 0
M  V30 13085 H 1296.2 -7.57215 0.672977 0
M  V30 13086 N 1297.77 0.548248 -1.47757 0
M  V30 13087 C 1299.05 1.3092 -1.45325 0
M  V30 13088 C 1299.43 2.1053 -0.155008 0
M  V30 13089 O 1298.78 2.11558 0.863455 0
M  V30 13090 C 1298.99 2.20614 -2.70426 0
M  V30 13091 C 1300.33 2.81345 -3.18009 0
M  V30 13092 O 1301.36 2.30911 -2.71216 0
M  V30 13093 O 1300.22 3.73036 -3.99383 0
M  V30 13094 H 1297.31 0.58996 -0.579548 0
M  V30 13095 H 1299.86 0.56641 -1.59968 0
M  V30 13096 H 1298.63 1.61449 -3.56441 0
M  V30 13097 H 1298.25 3.02173 -2.58413 0
M  V30 13098 N 1299.25 1.36039 0.795694 0
M  V30 13099 C 1300.5 1.29663 1.55023 0
M  V30 13100 C 1300.82 -0.125588 1.94595 0
M  V30 13101 O 1300.09 -1.06447 1.64456 0
M  V30 13102 H 1298.67 0.476962 0.574906 0
M  V30 13103 H 1301.33 1.70265 0.948471 0
M  V30 13104 H 1300.43 1.91982 2.46068 0
M  V30 13105 N 1300.73 -1.01913 1.20215 0
M  V30 13106 C 1301.68 -2.08774 0.916367 0
M  V30 13107 C 1302.66 -1.60431 -0.122796 0
M  V30 13108 O 1303.85 -1.76799 0.0842336 0
M  V30 13109 C 1300.98 -3.40102 0.467517 0
M  V30 13110 C 1300.07 -3.95153 1.53997 0
M  V30 13111 N 1300.46 -4.23745 2.76178 0
M  V30 13112 C 1298.76 -4.23274 1.40554 0
M  V30 13113 C 1299.46 -4.681 3.45336 0
M  V30 13114 N 1298.44 -4.70224 2.72745 0
M  V30 13115 H 1302.24 -2.28786 1.84484 0
M  V30 13116 H 1299.75 -1.19861 1.09577 0
M  V30 13117 H 1301.75 -4.16184 0.244195 0
M  V30 13118 H 1300.41 -3.21505 -0.454358 0
M  V30 13119 H 1301.42 -4.12728 3.12852 0
M  V30 13120 H 1298.1 -4.1389 0.547877 0
M  V30 13121 H 1299.49 -4.99063 4.49873 0
M  V30 13122 N 1302.21 -1.00763 -1.2118 0
M  V30 13123 C 1303.45 -0.700238 -1.92031 0
M  V30 13124 C 1303.81 0.755344 -1.76518 0
M  V30 13125 O 1305.01 1.17484 -2.41766 0
M  V30 13126 C 1303.28 -1.11294 -3.3963 0
M  V30 13127 S 1304.84 -0.926151 -4.28915 0
M  V30 13128 H 1301.66 -0.255559 -0.663484 0
M  V30 13129 H 1304.26 -1.29301 -1.46634 0
M  V30 13130 H 1302.97 -2.16838 -3.48439 0
M  V30 13131 H 1302.5 -0.51257 -3.90047 0
M  V30 13132 H 1304.51 0.175301 -4.9589 0
M  V30 13133 N 1303.68 1.3679 -0.7827 0
M  V30 13134 C 1304.91 2.04206 -0.362571 0
M  V30 13135 C 1305.33 1.58637 1.01074 0
M  V30 13136 O 1304.69 0.751692 1.64983 0
M  V30 13137 C 1304.74 3.58062 -0.4271 0
M  V30 13138 O 1303.84 4.08463 0.56845 0
M  V30 13139 H 1303.19 0.645638 -0.155073 0
M  V30 13140 H 1305.72 1.74883 -1.06194 0
M  V30 13141 H 1305.73 4.0698 -0.288298 0
M  V30 13142 H 1304.4 3.90582 -1.42893 0
M  V30 13143 H 1302.98 3.70835 0.391863 0
M  V30 13144 N 1305.16 0.53415 1.48272 0
M  V30 13145 C 1306.39 0.00573642 2.06599 0
M  V30 13146 C 1306.8 -1.28303 1.3905 0
M  V30 13147 O 1306.14 -1.77499 0.473274 0
M  V30 13148 C 1306.21 -0.28451 3.58372 0
M  V30 13149 C 1305.87 0.911397 4.4782 0
M  V30 13150 C 1306.87 1.81091 4.87342 0
M  V30 13151 C 1304.55 1.11957 4.89664 0
M  V30 13152 C 1306.55 2.90246 5.67482 0
M  V30 13153 C 1304.23 2.21426 5.69573 0
M  V30 13154 C 1305.23 3.10403 6.08391 0
M  V30 13155 O 1304.92 4.17977 6.86695 0
M  V30 13156 H 1304.65 0.0322847 0.675229 0
M  V30 13157 H 1307.2 0.740415 1.91591 0
M  V30 13158 H 1305.43 -1.07321 3.71509 0
M  V30 13159 H 1307.12 -0.755508 3.98807 0
M  V30 13160 H 1307.89 1.66204 4.55633 0
M  V30 13161 H 1303.77 0.436266 4.58931 0
M  V30 13162 H 1307.31 3.59724 5.97699 0
M  V30 13163 H 1303.21 2.36295 6.00695 0
M  V30 13164 H 1303.98 4.15738 7.05056 0
M  V30 13165 N 1306.64 -1.55279 0.269478 0
M  V30 13166 C 1307.89 -1.99767 -0.34943 0
M  V30 13167 C 1308.22 -1.15762 -1.55926 0
M  V30 13168 O 1307.49 -0.22633 -1.93179 0
M  V30 13169 C 1307.78 -3.52474 -0.73716 0
M  V30 13170 C 1307.63 -4.47236 0.479621 0
M  V30 13171 C 1308.95 -4.10924 -1.57573 0
M  V30 13172 H 1306.07 -0.72623 -0.125535 0
M  V30 13173 H 1308.71 -1.86257 0.375298 0
M  V30 13174 H 1306.86 -3.64118 -1.35464 0
M  V30 13175 H 1308.53 -4.47543 1.11816 0
M  V30 13176 H 1306.78 -4.19127 1.11871 0
M  V30 13177 H 1307.45 -5.51754 0.164653 0
M  V30 13178 H 1309.92 -4.02522 -1.05429 0
M  V30 13179 H 1308.8 -5.17995 -1.81584 0
M  V30 13180 H 1309.06 -3.60798 -2.55495 0
M  V30 13181 N 1308.12 0.00332656 -1.576 0
M  V30 13182 C 1309.08 0.980628 -2.07163 0
M  V30 13183 C 1310.08 1.27455 -0.980402 0
M  V30 13184 O 1311.27 1.22029 -1.24317 0
M  V30 13185 C 1308.4 2.30647 -2.51028 0
M  V30 13186 H 1309.6 0.551982 -2.94776 0
M  V30 13187 H 1307.15 0.250728 -1.54276 0
M  V30 13188 H 1307.88 2.78207 -1.66647 0
M  V30 13189 H 1307.67 2.10635 -3.30719 0
M  V30 13190 H 1309.16 3.00761 -2.89711 0
M  V30 13191 N 1309.6 1.55164 0.276031 0
M  V30 13192 C 1310.84 1.75887 1.00953 0
M  V30 13193 C 1311.18 0.5567 1.8605 0
M  V30 13194 O 1310.45 -0.445799 1.89322 0
M  V30 13195 C 1310.73 3.06228 1.89463 0
M  V30 13196 C 1310.59 4.36795 1.07379 0
M  V30 13197 C 1311.91 3.32589 2.88223 0
M  V30 13198 H 1309.02 0.639929 0.365596 0
M  V30 13199 H 1311.67 1.87893 0.282156 0
M  V30 13200 H 1309.82 2.96124 2.51481 0
M  V30 13201 H 1311.49 4.58853 0.474549 0
M  V30 13202 H 1309.73 4.32157 0.377165 0
M  V30 13203 H 1310.4 5.24315 1.72621 0
M  V30 13204 H 1312.88 3.42467 2.36338 0
M  V30 13205 H 1311.75 4.2506 3.47297 0
M  V30 13206 H 1312.02 2.52083 3.6319 0
M  V30 13207 N 1311.07 -0.540404 1.48045 0
M  V30 13208 C 1312.01 -1.66164 1.57867 0
M  V30 13209 C 1313.02 -1.56058 0.463655 0
M  V30 13210 O 1314.21 -1.62709 0.734038 0
M  V30 13211 C 1311.31 -3.04748 1.48263 0
M  V30 13212 C 1310.48 -3.40441 2.74625 0
M  V30 13213 C 1309.54 -4.58259 2.58621 0
M  V30 13214 O 1308.57 -4.62 3.32482 0
M  V30 13215 N 1309.77 -5.55794 1.67551 0
M  V30 13216 H 1312.53 -1.58179 2.54557 0
M  V30 13217 H 1310.09 -0.727441 1.44637 0
M  V30 13218 H 1312.09 -3.81425 1.35267 0
M  V30 13219 H 1310.66 -3.06868 0.595892 0
M  V30 13220 H 1309.88 -2.53044 3.02262 0
M  V30 13221 H 1311.16 -3.61069 3.58478 0
M  V30 13222 H 1310.56 -5.55541 1.06725 0
M  V30 13223 H 1309.12 -6.3173 1.60499 0
M  V30 13224 N 1312.55 -1.36459 -0.788468 0
M  V30 13225 C 1313.83 -1.21289 -1.53455 0
M  V30 13226 C 1314.21 0.200549 -2.10145 0
M  V30 13227 O 1313.56 1.20629 -1.94064 0
M  V30 13228 C 1313.77 -2.29562 -2.62873 0
M  V30 13229 C 1315.12 -2.66277 -3.30729 0
M  V30 13230 O 1316.14 -2.28612 -2.73157 0
M  V30 13231 O 1315 -3.31106 -4.34777 0
M  V30 13232 H 1312.09 -0.472306 -0.678864 0
M  V30 13233 H 1314.64 -1.48192 -0.826869 0
M  V30 13234 H 1313.41 -3.24286 -2.18984 0
M  V30 13235 H 1313.03 -2.0403 -3.41259 0
M  V30 13236 N 1314.03 1.01274 -1.20754 0
M  V30 13237 C 1315.26 1.78265 -1.04427 0
M  V30 13238 C 1315.67 1.84718 0.409361 0
M  V30 13239 O 1315.01 1.30195 1.29595 0
M  V30 13240 C 1315.07 3.24037 -1.55693 0
M  V30 13241 C 1314.74 3.41181 -3.04047 0
M  V30 13242 C 1315.73 3.30087 -4.0167 0
M  V30 13243 C 1313.42 3.66872 -3.43089 0
M  V30 13244 C 1315.41 3.44436 -5.36323 0
M  V30 13245 C 1313.1 3.80865 -4.77896 0
M  V30 13246 C 1314.1 3.69652 -5.74322 0
M  V30 13247 O 1313.79 3.83211 -7.06686 0
M  V30 13248 H 1313.52 0.567327 -0.367582 0
M  V30 13249 H 1316.07 1.28336 -1.60372 0
M  V30 13250 H 1314.3 3.75067 -0.941382 0
M  V30 13251 H 1315.99 3.82676 -1.35328 0
M  V30 13252 H 1316.76 3.10172 -3.72852 0
M  V30 13253 H 1312.64 3.74685 -2.68574 0
M  V30 13254 H 1316.18 3.35601 -6.1157 0
M  V30 13255 H 1312.08 4.00282 -5.06403 0
M  V30 13256 H 1312.85 4.00205 -7.13987 0
M  V30 13257 N 1315.51 1.01404 1.20644 0
M  V30 13258 C 1316.75 0.710412 1.91657 0
M  V30 13259 C 1317.11 -0.745972 1.76916 0
M  V30 13260 O 1318.31 -1.162 2.42386 0
M  V30 13261 C 1316.59 1.13093 3.39035 0
M  V30 13262 S 1318.14 0.948885 4.28418 0
M  V30 13263 H 1314.96 0.259074 0.662119 0
M  V30 13264 H 1317.56 1.30077 1.45946 0
M  V30 13265 H 1316.27 2.18682 3.47284 0
M  V30 13266 H 1315.8 0.533248 3.89769 0
M  V30 13267 H 1317.81 -0.149 4.95976 0
M  V30 13268 N 1316.99 -1.36373 0.789944 0
M  V30 13269 C 1318.24 -1.98834 0.361866 0
M  V30 13270 C 1318.56 -1.63006 -1.07024 0
M  V30 13271 O 1317.83 -0.904312 -1.73779 0
M  V30 13272 H 1316.41 -0.735457 0.130812 0
M  V30 13273 H 1319.07 -1.66561 1.0121 0
M  V30 13274 H 1318.16 -3.08778 0.454122 0
M  V30 13275 N 1318.47 -0.542005 -1.47987 0
M  V30 13276 C 1319.4 0.25143 -2.27817 0
M  V30 13277 C 1320.41 0.893436 -1.36094 0
M  V30 13278 O 1321.6 0.769849 -1.61045 0
M  V30 13279 C 1318.7 1.37236 -3.0987 0
M  V30 13280 C 1317.87 0.830021 -4.29452 0
M  V30 13281 C 1316.93 1.83356 -4.93221 0
M  V30 13282 O 1315.96 1.38571 -5.52075 0
M  V30 13283 N 1317.16 3.16631 -4.86544 0
M  V30 13284 H 1319.92 -0.433281 -2.96551 0
M  V30 13285 H 1317.49 -0.377099 -1.57447 0
M  V30 13286 H 1319.48 2.04212 -3.49399 0
M  V30 13287 H 1318.05 1.96055 -2.43478 0
M  V30 13288 H 1317.27 -0.0160827 -3.94197 0
M  V30 13289 H 1318.56 0.446762 -5.06835 0
M  V30 13290 H 1317.95 3.55673 -4.39901 0
M  V30 13291 H 1316.51 3.79207 -5.30137 0
M  V30 13292 N 1319.94 1.55134 -0.277709 0
M  V30 13293 C 1320.89 2.24057 0.624594 0
M  V30 13294 C 1321.89 1.23848 1.15577 0
M  V30 13295 O 1323.09 1.41771 1.1091 0
M  V30 13296 H 1319.47 0.719106 0.219977 0
M  V30 13297 H 1321.44 2.98393 0.0204815 0
M  V30 13298 C 1320.19 2.97712 1.79618 0
M  V30 13299 H 1319.51 3.74611 1.39665 0
M  V30 13300 H 1320.95 3.49255 2.4041 0
M  V30 13301 C 1319.41 2.03332 2.68622 0
M  V30 13302 O 1319.94 1.58622 3.69056 0
M  V30 13303 N 1318.14 1.69778 2.35847 0
M  V30 13304 H 1317.69 2.06333 1.54222 0
M  V30 13305 H 1317.65 1.06901 2.95668 0
M  V30 13306 N 1321.42 0.00503138 1.57599 0
M  V30 13307 C 1322.65 -0.693231 1.95471 0
M  V30 13308 C 1323.07 -1.66233 0.880246 0
M  V30 13309 O 1322.43 -1.80582 -0.161164 0
M  V30 13310 C 1322.48 -1.39696 3.32442 0
M  V30 13311 O 1321.58 -2.51154 3.27101 0
M  V30 13312 H 1320.92 -0.184015 0.637992 0
M  V30 13313 H 1323.45 0.0597194 2.04513 0
M  V30 13314 H 1323.46 -1.75924 3.68123 0
M  V30 13315 H 1322.14 -0.686438 4.10196 0
M  V30 13316 H 1320.71 -2.17216 3.03103 0
M  V30 13317 N 1322.9 -1.55308 -0.267798 0
M  V30 13318 C 1324.12 -1.80524 -1.02107 0
M  V30 13319 C 1324.55 -0.579268 -1.78958 0
M  V30 13320 O 1323.91 0.471262 -1.75068 0
M  V30 13321 C 1323.96 -3.03248 -1.95123 0
M  V30 13322 O 1323.06 -2.78699 -3.03975 0
M  V30 13323 H 1322.4 -0.596518 -0.291655 0
M  V30 13324 H 1324.93 -2.0246 -0.295128 0
M  V30 13325 H 1324.94 -3.32121 -2.3698 0
M  V30 13326 H 1323.62 -3.92126 -1.386 0
M  V30 13327 H 1322.19 -2.60936 -2.66396 0
M  V30 13328 N 1324.38 0.532545 -1.4833 0
M  V30 13329 C 1325.31 1.64662 -1.65555 0
M  V30 13330 C 1326.29 1.62447 -0.50447 0
M  V30 13331 O 1327.47 1.79684 -0.736712 0
M  V30 13332 C 1324.6 3.03256 -1.69272 0
M  V30 13333 C 1323.56 3.20329 -2.83854 0
M  V30 13334 C 1322.88 4.59958 -2.72659 0
M  V30 13335 C 1324.18 3.03345 -4.25181 0
M  V30 13336 H 1325.88 1.50502 -2.58823 0
M  V30 13337 H 1323.42 0.722612 -1.24556 0
M  V30 13338 H 1325.38 3.81064 -1.79911 0
M  V30 13339 H 1324.1 3.18433 -0.725805 0
M  V30 13340 H 1322.76 2.44937 -2.72766 0
M  V30 13341 H 1322.41 4.71967 -1.73942 0
M  V30 13342 H 1322.11 4.72327 -3.49544 0
M  V30 13343 H 1323.63 5.39869 -2.85262 0
M  V30 13344 H 1325.05 3.70948 -4.37116 0
M  V30 13345 H 1323.44 3.27208 -5.03045 0
M  V30 13346 H 1324.51 1.998 -4.41824 0
M  V30 13347 N 1325.86 1.36875 0.78122 0
M  V30 13348 C 1327.1 1.31299 1.53639 0
M  V30 13349 C 1327.42 -0.104942 1.94717 0
M  V30 13350 O 1326.69 -1.04696 1.65576 0
M  V30 13351 H 1325.27 0.483032 0.569815 0
M  V30 13352 H 1327.94 1.71261 0.930359 0
M  V30 13353 H 1327.03 1.94581 2.44018 0
M  V30 13354 N 1327.33 -1.00632 1.21289 0
M  V30 13355 C 1328.56 -1.78503 1.05601 0
M  V30 13356 C 1328.98 -1.84015 -0.389879 0
M  V30 13357 O 1328.34 -1.28277 -1.2812 0
M  V30 13358 C 1328.39 -3.20313 1.65626 0
M  V30 13359 O 1327.49 -4.02441 0.900841 0
M  V30 13360 H 1326.83 -0.550183 0.371746 0
M  V30 13361 H 1329.36 -1.26505 1.60803 0
M  V30 13362 H 1329.37 -3.70992 1.69792 0
M  V30 13363 H 1328.05 -3.15616 2.7085 0
M  V30 13364 H 1326.63 -3.61009 0.934178 0
M  V30 13365 N 1328.81 -1.02043 -1.20104 0
M  V30 13366 C 1330.06 -0.711973 -1.89571 0
M  V30 13367 C 1330.39 0.758725 -1.79091 0
M  V30 13368 O 1329.64 1.56728 -1.17195 0
M  V30 13369 C 1329.94 -1.098 -3.40116 0
M  V30 13370 C 1329.61 -2.56555 -3.70797 0
M  V30 13371 C 1328.27 -2.96653 -3.78881 0
M  V30 13372 C 1330.62 -3.51543 -3.84795 0
M  V30 13373 C 1327.95 -4.30669 -3.98424 0
M  V30 13374 C 1330.3 -4.85252 -4.05849 0
M  V30 13375 C 1328.96 -5.2505 -4.12163 0
M  V30 13376 H 1328.23 -0.260529 -0.69369 0
M  V30 13377 H 1330.88 -1.28172 -1.42282 0
M  V30 13378 H 1329.19 -0.446738 -3.89245 0
M  V30 13379 H 1330.88 -0.836985 -3.92168 0
M  V30 13380 H 1327.47 -2.24488 -3.65107 0
M  V30 13381 H 1331.66 -3.21721 -3.77901 0
M  V30 13382 H 1326.91 -4.61052 -4.01548 0
M  V30 13383 H 1331.09 -5.58777 -4.15622 0
M  V30 13384 H 1328.71 -6.28908 -4.27059 0
M  V30 13385 N 1330.29 1.35952 -0.797165 0
M  V30 13386 C 1331.52 2.0381 -0.38421 0
M  V30 13387 C 1331.94 1.597 0.993854 0
M  V30 13388 O 1331.3 0.769148 1.64176 0
M  V30 13389 C 1331.35 3.57589 -0.465054 0
M  V30 13390 O 1330.45 4.09043 0.525095 0
M  V30 13391 H 1329.79 0.643957 -0.161912 0
M  V30 13392 H 1332.32 1.73746 -1.08043 0
M  V30 13393 H 1332.33 4.06651 -0.331448 0
M  V30 13394 H 1331.01 3.89045 -1.47027 0
M  V30 13395 H 1329.58 3.7123 0.352509 0
M  V30 13396 N 1331.77 0.549846 1.47697 0
M  V30 13397 C 1333.02 0.0209424 2.01689 0
M  V30 13398 C 1333.33 -1.33417 1.43036 0
M  V30 13399 O 1334.54 -1.95257 1.88646 0
M  V30 13400 C 1332.99 -0.0130171 3.59898 0
M  V30 13401 C 1332.6 1.3384 4.2754 0
M  V30 13402 C 1334.34 -0.489701 4.21666 0
M  V30 13403 C 1332.25 1.26395 5.77735 0
M  V30 13404 H 1331.18 0.00405885 0.753989 0
M  V30 13405 H 1333.83 0.696599 1.69764 0
M  V30 13406 H 1332.21 -0.754168 3.88752 0
M  V30 13407 H 1333.39 2.09668 4.10336 0
M  V30 13408 H 1331.7 1.75242 3.77729 0
M  V30 13409 H 1334.3 -0.563684 5.31721 0
M  V30 13410 H 1334.64 -1.50004 3.88336 0
M  V30 13411 H 1335.18 0.196366 3.97315 0
M  V30 13412 H 1331.92 2.25005 6.15673 0
M  V30 13413 H 1331.44 0.547353 5.97297 0
M  V30 13414 H 1333.11 0.962918 6.39794 0
M  V30 13415 N 1333.25 -1.54984 0.285932 0
M  V30 13416 C 1334.5 -1.99008 -0.328433 0
M  V30 13417 C 1334.81 -1.17787 -1.56158 0
M  V30 13418 O 1336.01 -1.52006 -2.24959 0
M  V30 13419 C 1334.47 -3.54241 -0.635688 0
M  V30 13420 C 1334.08 -4.44252 0.578271 0
M  V30 13421 C 1335.82 -4.06828 -1.21208 0
M  V30 13422 C 1333.73 -5.90892 0.245003 0
M  V30 13423 H 1332.66 -0.743314 -0.126494 0
M  V30 13424 H 1335.31 -1.79258 0.39228 0
M  V30 13425 H 1333.69 -3.69834 -1.41559 0
M  V30 13426 H 1334.87 -4.40431 1.35489 0
M  V30 13427 H 1333.18 -4.02358 1.07225 0
M  V30 13428 H 1335.78 -5.13941 -1.47542 0
M  V30 13429 H 1336.12 -3.56515 -2.14948 0
M  V30 13430 H 1336.65 -3.94718 -0.494222 0
M  V30 13431 H 1333.39 -6.45323 1.15057 0
M  V30 13432 H 1332.91 -5.97757 -0.494636 0
M  V30 13433 H 1334.59 -6.46805 -0.158891 0
M  V30 13434 N 1334.72 -0.0133892 -1.57594 0
M  V30 13435 C 1335.95 0.679255 -1.95432 0
M  V30 13436 C 1336.37 1.66558 -0.889028 0
M  V30 13437 O 1335.72 1.82031 0.130755 0
M  V30 13438 C 1335.78 1.39943 -3.33314 0
M  V30 13439 O 1335.5 0.452643 -4.35755 0
M  V30 13440 C 1337 2.18535 -3.85691 0
M  V30 13441 H 1334.22 0.188337 -0.644026 0
M  V30 13442 H 1336.76 -0.0684861 -2.04385 0
M  V30 13443 H 1334.92 2.0987 -3.25628 0
M  V30 13444 H 1335.33 0.962243 -5.15598 0
M  V30 13445 H 1336.8 2.64403 -4.84557 0
M  V30 13446 H 1337.28 3.01779 -3.19102 0
M  V30 13447 H 1337.89 1.53598 -3.96595 0
M  V30 13448 N 1336.2 1.55448 0.259558 0
M  V30 13449 C 1337.11 1.92364 1.34289 0
M  V30 13450 C 1338.13 0.822492 1.53333 0
M  V30 13451 O 1339.3 1.12277 1.672 0
M  V30 13452 C 1336.37 2.19978 2.67975 0
M  V30 13453 C 1335.43 3.43454 2.57562 0
M  V30 13454 C 1334.66 3.69741 3.84873 0
M  V30 13455 O 1334.89 2.9831 4.86176 0
M  V30 13456 O 1333.82 4.63274 3.84267 0
M  V30 13457 H 1337.65 2.8461 1.05975 0
M  V30 13458 H 1335.23 1.42167 0.459239 0
M  V30 13459 H 1337.11 2.39104 3.46998 0
M  V30 13460 H 1335.79 1.30912 2.96047 0
M  V30 13461 H 1334.7 3.29649 1.76869 0
M  V30 13462 H 1336.03 4.32782 2.34437 0
M  V30 13463 N 1337.68 -0.524672 1.4861 0
M  V30 13464 C 1338.63 -1.64965 1.6398 0
M  V30 13465 C 1339.62 -1.61663 0.506118 0
M  V30 13466 O 1340.83 -1.66456 0.685013 0
M  V30 13467 H 1337.2 -0.546419 0.516653 0
M  V30 13468 H 1339.17 -1.49146 2.58453 0
M  V30 13469 C 1337.92 -3.03215 1.70165 0
M  V30 13470 H 1337.25 -3.06451 2.56764 0
M  V30 13471 H 1338.69 -3.8153 1.84962 0
M  V30 13472 C 1337.15 -3.33996 0.44143 0
M  V30 13473 O 1337.68 -3.99246 -0.443356 0
M  V30 13474 N 1335.88 -2.88925 0.311518 0
M  V30 13475 H 1335.43 -2.36003 1.0325 0
M  V30 13476 H 1335.39 -3.09889 -0.530655 0
M  V30 13477 N 1339.16 -1.37287 -0.77395 0
M  V30 13478 C 1340.4 -1.3257 -1.5347 0
M  V30 13479 C 1340.74 0.090346 -1.9399 0
M  V30 13480 O 1340.01 1.04719 -1.63903 0
M  V30 13481 C 1340.3 -2.26277 -2.80126 0
M  V30 13482 C 1340.15 -3.76651 -2.45874 0
M  V30 13483 C 1341.47 -2.18471 -3.82045 0
M  V30 13484 H 1338.59 -0.48289 -0.556764 0
M  V30 13485 H 1341.23 -1.6797 -0.888039 0
M  V30 13486 H 1339.38 -1.96219 -3.35306 0
M  V30 13487 H 1341.05 -4.17296 -1.96626 0
M  V30 13488 H 1339.29 -3.95327 -1.78602 0
M  V30 13489 H 1339.96 -4.3765 -3.36403 0
M  V30 13490 H 1342.44 -2.44962 -3.36352 0
M  V30 13491 H 1341.32 -2.86183 -4.68392 0
M  V30 13492 H 1341.58 -1.17692 -4.26147 0
M  V30 13493 N 1340.64 0.999871 -1.21821 0
M  V30 13494 C 1342.05 1.5529 -1.03642 0
M  V30 13495 C 1342.4 1.92032 0.402246 0
M  V30 13496 O 1341.52 1.74027 1.28622 0
M  V30 13497 C 1342.12 2.82177 -1.87514 0
M  V30 13498 C 1340.68 3.33949 -1.73653 0
M  V30 13499 C 1339.82 2.07095 -1.84409 0
M  V30 13500 H 1342.78 0.821751 -1.35768 0
M  V30 13501 H 1342.8 3.54264 -1.38842 0
M  V30 13502 H 1342.31 2.55405 -2.92216 0
M  V30 13503 H 1340.41 3.65645 -0.716554 0
M  V30 13504 H 1340.52 4.05022 -2.55918 0
M  V30 13505 H 1338.89 2.20332 -1.27773 0
M  V30 13506 H 1339.67 1.82728 -2.90629 0
M  V30 13507 N 1342.11 1.02678 1.19562 0
M  V30 13508 C 1343.35 0.7307 1.90893 0
M  V30 13509 C 1343.72 -0.727166 1.77697 0
M  V30 13510 O 1344.92 -1.13623 2.43605 0
M  V30 13511 C 1343.19 1.16683 3.37816 0
M  V30 13512 S 1344.75 0.994271 4.27387 0
M  V30 13513 H 1341.57 0.266082 0.659334 0
M  V30 13514 H 1344.17 1.31617 1.44558 0
M  V30 13515 H 1342.87 2.22354 3.44945 0
M  V30 13516 H 1342.4 0.574559 3.89182 0
M  V30 13517 H 1344.42 -0.0963871 4.96106 0
M  V30 13518 N 1343.59 -1.35528 0.804364 0
M  V30 13519 C 1344.84 -1.98439 0.382934 0
M  V30 13520 C 1345.16 -1.64132 -1.05289 0
M  V30 13521 O 1344.43 -0.922693 -1.7281 0
M  V30 13522 H 1343.01 -0.734028 0.138605 0
M  V30 13523 H 1345.67 -1.65478 1.02971 0
M  V30 13524 H 1344.77 -3.08279 0.486846 0
M  V30 13525 N 1345.07 -0.557671 -1.47404 0
M  V30 13526 C 1346.3 -0.0386599 -2.06864 0
M  V30 13527 C 1346.71 1.25527 -1.41027 0
M  V30 13528 O 1346.07 1.75318 -0.506949 0
M  V30 13529 C 1346.12 0.160141 -3.61145 0
M  V30 13530 O 1345.84 -1.08255 -4.24515 0
M  V30 13531 C 1347.34 0.716381 -4.37473 0
M  V30 13532 H 1344.56 -0.0460523 -0.669418 0
M  V30 13533 H 1347.11 -0.771214 -1.894 0
M  V30 13534 H 1345.26 0.842826 -3.78121 0
M  V30 13535 H 1345.68 -0.88057 -5.17055 0
M  V30 13536 H 1347.15 0.804773 -5.46102 0
M  V30 13537 H 1347.63 1.72776 -4.03788 0
M  V30 13538 H 1348.23 0.0693787 -4.25243 0
M  V30 13539 N 1346.55 1.54831 -0.294147 0
M  V30 13540 C 1347.78 2.04411 0.319938 0
M  V30 13541 C 1348.19 1.17174 1.4804 0
M  V30 13542 O 1347.55 0.195881 1.81446 0
M  V30 13543 C 1347.6 3.52924 0.782751 0
M  V30 13544 O 1347.32 4.36844 -0.331512 0
M  V30 13545 C 1348.82 4.18474 1.4627 0
M  V30 13546 H 1346.04 0.667286 0.0704973 0
M  V30 13547 H 1348.59 1.9989 -0.431785 0
M  V30 13548 H 1346.74 3.57828 1.48451 0
M  V30 13549 H 1347.16 5.24493 0.0275743 0
M  V30 13550 H 1348.63 5.23933 1.73776 0
M  V30 13551 H 1349.11 3.67793 2.40052 0
M  V30 13552 H 1349.71 4.17626 0.804291 0
M  V30 13553 N 1348.03 0.0217466 1.57585 0
M  V30 13554 C 1349.28 -0.657187 1.91116 0
M  V30 13555 C 1349.6 -1.7309 0.898039 0
M  V30 13556 O 1348.87 -1.95803 -0.0615116 0
M  V30 13557 H 1347.45 -0.245732 0.705425 0
M  V30 13558 H 1350.11 0.0678096 1.94782 0
M  V30 13559 H 1349.2 -1.11462 2.91518 0
M  V30 13560 N 1349.51 -1.55583 -0.251311 0
M  V30 13561 C 1350.75 -1.77471 -0.981418 0
M  V30 13562 C 1351.08 -0.586228 -1.85141 0
M  V30 13563 O 1350.36 0.415623 -1.90007 0
M  V30 13564 C 1350.64 -3.09204 -1.84567 0
M  V30 13565 C 1350.5 -4.38448 -1.00417 0
M  V30 13566 C 1351.81 -3.37133 -2.82895 0
M  V30 13567 H 1348.93 -0.645664 -0.355369 0
M  V30 13568 H 1351.58 -1.88318 -0.252228 0
M  V30 13569 H 1349.73 -3.00087 -2.46738 0
M  V30 13570 H 1351.4 -4.5955 -0.40149 0
M  V30 13571 H 1349.64 -4.32703 -0.308365 0
M  V30 13572 H 1350.31 -5.26995 -1.64258 0
M  V30 13573 H 1352.79 -3.46183 -2.3086 0
M  V30 13574 H 1351.66 -4.30531 -3.40491 0
M  V30 13575 H 1351.92 -2.57829 -3.59133 0
M  V30 13576 N 1350.98 0.516783 -1.48886 0
M  V30 13577 C 1352.21 1.29628 -1.61258 0
M  V30 13578 C 1352.63 1.86744 -0.27786 0
M  V30 13579 O 1351.98 1.67061 0.734639 0
M  V30 13580 C 1352.03 2.43779 -2.66935 0
M  V30 13581 O 1351.76 1.89014 -3.95228 0
M  V30 13582 C 1353.26 3.35398 -2.89867 0
M  V30 13583 H 1350.48 0.393736 -0.543335 0
M  V30 13584 H 1353.02 0.622069 -1.94809 0
M  V30 13585 H 1351.18 3.0706 -2.36206 0
M  V30 13586 H 1351.59 2.63833 -4.53312 0
M  V30 13587 H 1353.06 4.11812 -3.6758 0
M  V30 13588 H 1353.54 3.91436 -1.99185 0
M  V30 13589 H 1354.15 2.77898 -3.21952 0
M  V30 13590 N 1352.46 1.37696 0.766659 0
M  V30 13591 C 1353.7 1.34588 1.53836 0
M  V30 13592 C 1354.07 -0.0676384 1.91881 0
M  V30 13593 O 1355.27 -0.223479 2.67869 0
M  V30 13594 C 1353.54 2.26329 2.76604 0
M  V30 13595 S 1355.1 2.4112 3.66615 0
M  V30 13596 H 1351.91 0.477717 0.5266 0
M  V30 13597 H 1354.52 1.73495 0.901099 0
M  V30 13598 H 1353.22 3.27943 2.46742 0
M  V30 13599 H 1352.75 1.88525 3.45285 0
M  V30 13600 H 1354.77 1.62556 4.68818 0
M  V30 13601 N 1353.94 -0.993397 1.22349 0
M  V30 13602 C 1355.16 -1.77373 1.07488 0
M  V30 13603 C 1355.59 -1.84418 -0.37034 0
M  V30 13604 O 1354.95 -1.29629 -1.26752 0
M  V30 13605 C 1355 -3.18538 1.69014 0
M  V30 13606 O 1354.1 -4.01463 0.943474 0
M  V30 13607 H 1353.44 -0.546209 0.37756 0
M  V30 13608 H 1355.97 -1.24792 1.62136 0
M  V30 13609 H 1355.98 -3.6917 1.73717 0
M  V30 13610 H 1354.66 -3.12725 2.74182 0
M  V30 13611 H 1353.23 -3.59998 0.972415 0
M  V30 13612 N 1355.42 -1.03311 -1.19015 0
M  V30 13613 C 1356.36 -0.617567 -2.22384 0
M  V30 13614 C 1357.33 0.370779 -1.61909 0
M  V30 13615 O 1358.52 0.266481 -1.8893 0
M  V30 13616 C 1355.66 0.0211303 -3.45094 0
M  V30 13617 C 1354.77 -1.01377 -4.19937 0
M  V30 13618 C 1353.91 -0.344385 -5.30082 0
M  V30 13619 C 1352.95 -1.3649 -5.96688 0
M  V30 13620 N 1352.08 -0.721026 -6.98388 0
M  V30 13621 H 1356.92 -1.5036 -2.57286 0
M  V30 13622 H 1354.46 -0.75235 -1.26405 0
M  V30 13623 H 1356.42 0.408713 -4.15193 0
M  V30 13624 H 1355.05 0.870721 -3.10835 0
M  V30 13625 H 1354.1 -1.51937 -3.4874 0
M  V30 13626 H 1355.41 -1.78921 -4.65606 0
M  V30 13627 H 1354.57 0.097814 -6.06621 0
M  V30 13628 H 1353.31 0.463216 -4.85495 0
M  V30 13629 H 1352.31 -1.81732 -5.18897 0
M  V30 13630 H 1353.54 -2.17407 -6.43359 0
M  V30 13631 H 1351.48 0.0664057 -6.55966 0
M  V30 13632 H 1351.4 -1.43428 -7.4227 0
M  V30 13633 H 1352.67 -0.30297 -7.78911 0
M  V30 13634 N 1356.9 1.35099 -0.81154 0
M  V30 13635 C 1357.86 2.28033 -0.230947 0
M  V30 13636 C 1358.86 1.49798 0.584575 0
M  V30 13637 O 1360.05 1.6949 0.402336 0
M  V30 13638 C 1357.18 3.341 0.677486 0
M  V30 13639 H 1358.37 2.80893 -1.05067 0
M  V30 13640 H 1355.93 1.45038 -0.582554 0
M  V30 13641 H 1356.66 2.86435 1.5207 0
M  V30 13642 H 1356.45 3.91986 0.0943563 0
M  V30 13643 H 1357.94 4.0345 1.07787 0
M  V30 13644 N 1358.37 0.56548 1.47106 0
M  V30 13645 C 1359.62 0.042333 2.01656 0
M  V30 13646 C 1359.94 -1.31892 1.44443 0
M  V30 13647 O 1361.14 -1.93245 1.90706 0
M  V30 13648 C 1359.6 0.0251556 3.59891 0
M  V30 13649 C 1359.21 1.38367 4.26097 0
M  V30 13650 C 1360.95 -0.44495 4.22162 0
M  V30 13651 C 1358.86 1.32516 5.76362 0
M  V30 13652 H 1357.79 0.0120557 0.753904 0
M  V30 13653 H 1360.44 0.714565 1.69015 0
M  V30 13654 H 1358.82 -0.712893 3.8953 0
M  V30 13655 H 1359.99 2.14009 4.08089 0
M  V30 13656 H 1358.31 1.79239 3.75849 0
M  V30 13657 H 1360.91 -0.507256 5.32288 0
M  V30 13658 H 1361.25 -1.45876 3.89905 0
M  V30 13659 H 1361.78 0.238496 3.97084 0
M  V30 13660 H 1358.52 2.31523 6.13252 0
M  V30 13661 H 1358.04 0.610674 5.96683 0
M  V30 13662 H 1359.72 1.03072 6.38737 0
M  V30 13663 N 1359.85 -1.54672 0.302354 0
M  V30 13664 C 1360.8 -2.2357 -0.573141 0
M  V30 13665 C 1361.77 -1.21878 -1.12849 0
M  V30 13666 O 1362.95 -1.50502 -1.17277 0
M  V30 13667 C 1360.09 -2.98111 -1.7385 0
M  V30 13668 C 1359.21 -4.14579 -1.21441 0
M  V30 13669 C 1358.34 -4.76699 -2.34374 0
M  V30 13670 C 1357.38 -5.8531 -1.79106 0
M  V30 13671 N 1356.52 -6.41379 -2.85618 0
M  V30 13672 H 1361.36 -2.97993 0.0209969 0
M  V30 13673 H 1358.9 -1.47083 0.0221318 0
M  V30 13674 H 1360.85 -3.39561 -2.42392 0
M  V30 13675 H 1359.48 -2.26063 -2.30425 0
M  V30 13676 H 1358.54 -3.78061 -0.421204 0
M  V30 13677 H 1359.85 -4.92824 -0.769821 0
M  V30 13678 H 1359 -5.21009 -3.10861 0
M  V30 13679 H 1357.74 -3.9779 -2.8216 0
M  V30 13680 H 1356.75 -5.40423 -1.01109 0
M  V30 13681 H 1357.97 -6.66104 -1.32222 0
M  V30 13682 H 1355.92 -5.65352 -3.32735 0
M  V30 13683 H 1355.83 -7.14974 -2.45659 0
M  V30 13684 H 1357.1 -6.90346 -3.61998 0
M  V30 13685 N 1361.33 -0.0301034 -1.57571 0
M  V30 13686 C 1362.58 0.647672 -1.91019 0
M  V30 13687 C 1362.89 1.73234 -0.908265 0
M  V30 13688 O 1364.1 2.46682 -1.13402 0
M  V30 13689 C 1362.55 1.20327 -3.3919 0
M  V30 13690 C 1362.16 0.151833 -4.47743 0
M  V30 13691 C 1363.91 1.8575 -3.81703 0
M  V30 13692 C 1361.81 0.719119 -5.87012 0
M  V30 13693 H 1360.74 0.245682 -0.712851 0
M  V30 13694 H 1363.39 -0.0955645 -1.83251 0
M  V30 13695 H 1361.78 1.99814 -3.41892 0
M  V30 13696 H 1362.95 -0.620659 -4.56601 0
M  V30 13697 H 1361.27 -0.403699 -4.14438 0
M  V30 13698 H 1363.86 2.29151 -4.83109 0
M  V30 13699 H 1364.21 2.70061 -3.16817 0
M  V30 13700 H 1364.74 1.1295 -3.81428 0
M  V30 13701 H 1361.48 -0.0858832 -6.55444 0
M  V30 13702 H 1361 1.46008 -5.81758 0
M  V30 13703 H 1362.68 1.20856 -6.35612 0
M  V30 13704 N 1362.81 1.55714 0.243056 0
M  V30 13705 C 1364.06 1.77726 0.970555 0
M  V30 13706 C 1364.38 0.595108 1.85172 0
M  V30 13707 O 1363.64 -0.42143 1.91108 0
M  V30 13708 C 1363.94 3.05281 1.85845 0
M  V30 13709 C 1363.6 4.36451 1.13232 0
M  V30 13710 C 1362.27 4.72095 0.931656 0
M  V30 13711 C 1364.62 5.17524 0.617944 0
M  V30 13712 C 1361.95 5.86344 0.204373 0
M  V30 13713 C 1364.3 6.32527 -0.0958899 0
M  V30 13714 C 1362.96 6.66789 -0.308 0
M  V30 13715 H 1362.23 0.650345 0.355151 0
M  V30 13716 H 1364.88 1.89986 0.240351 0
M  V30 13717 H 1363.18 2.8805 2.65584 0
M  V30 13718 H 1364.88 3.19511 2.4231 0
M  V30 13719 H 1361.47 4.08451 1.29867 0
M  V30 13720 H 1365.65 4.90439 0.760507 0
M  V30 13721 H 1360.91 6.11393 0.0296 0
M  V30 13722 H 1365.08 6.94588 -0.502077 0
M  V30 13723 H 1362.71 7.55165 -0.873502 0
M  V30 13724 N 1364.29 -0.50888 1.49158 0
M  V30 13725 C 1365.22 -1.62869 1.5984 0
M  V30 13726 C 1366.2 -1.56312 0.447809 0
M  V30 13727 O 1367.38 -1.76482 0.662292 0
M  V30 13728 C 1364.51 -3.01356 1.54603 0
M  V30 13729 C 1363.55 -3.26202 2.74763 0
M  V30 13730 S 1364.39 -3.10178 4.3652 0
M  V30 13731 C 1365.54 -4.51075 4.33915 0
M  V30 13732 H 1365.78 -1.53562 2.5457 0
M  V30 13733 H 1363.31 -0.693448 1.37952 0
M  V30 13734 H 1365.27 -3.81215 1.52267 0
M  V30 13735 H 1363.93 -3.08085 0.611737 0
M  V30 13736 H 1363.12 -4.27281 2.67296 0
M  V30 13737 H 1362.72 -2.54052 2.7447 0
M  V30 13738 H 1365.02 -5.4301 4.05149 0
M  V30 13739 H 1365.96 -4.63593 5.35245 0
M  V30 13740 H 1366.37 -4.31385 3.64097 0
M  V30 13741 N 1365.76 -1.381 -0.759346 0
M  V30 13742 C 1367.01 -1.33727 -1.5153 0
M  V30 13743 C 1367.33 0.0739504 -1.9486 0
M  V30 13744 O 1366.6 1.02049 -1.67221 0
M  V30 13745 H 1365.18 -0.492037 -0.562058 0
M  V30 13746 H 1367.85 -1.72719 -0.902995 0
M  V30 13747 H 1366.94 -1.98439 -2.40891 0
M  V30 13748 N 1367.24 0.986894 -1.22875 0
M  V30 13749 C 1368.66 1.25185 -0.989997 0
M  V30 13750 C 1368.86 1.99057 0.31282 0
M  V30 13751 O 1367.91 2.30361 1.03392 0
M  V30 13752 C 1369.23 2.05775 -2.19265 0
M  V30 13753 C 1370.78 2.18938 -2.23686 0
M  V30 13754 C 1371.25 3.02917 -3.43519 0
M  V30 13755 N 1372.74 3.10503 -3.43718 0
M  V30 13756 C 1373.48 3.75789 -4.33094 0
M  V30 13757 N 1372.97 4.42952 -5.32696 0
M  V30 13758 N 1374.77 3.72611 -4.20854 0
M  V30 13759 H 1366.92 0.491816 -2.06628 0
M  V30 13760 H 1369.18 0.279856 -0.905751 0
M  V30 13761 H 1368.89 1.58864 -3.13776 0
M  V30 13762 H 1368.76 3.06529 -2.19818 0
M  V30 13763 H 1371.15 2.65061 -1.29718 0
M  V30 13764 H 1371.23 1.17595 -2.27168 0
M  V30 13765 H 1370.87 2.57493 -4.3779 0
M  V30 13766 H 1370.8 4.04415 -3.37277 0
M  V30 13767 H 1373.29 2.62709 -2.71647 0
M  V30 13768 H 1373.61 4.90527 -5.97162 0
M  V30 13769 H 1371.95 4.41681 -5.36603 0
M  V30 13770 H 1375.14 3.19305 -3.42289 0
M  V30 13771 H 1375.31 4.2321 -4.90711 0
M  V30 13772 N 1368.72 1.0394 1.18466 0
M  V30 13773 C 1369.95 0.762014 1.92356 0
M  V30 13774 C 1370.36 -0.680652 1.76104 0
M  V30 13775 O 1369.72 -1.46385 1.08985 0
M  V30 13776 C 1369.77 1.11717 3.43805 0
M  V30 13777 O 1369.49 2.50319 3.59544 0
M  V30 13778 C 1370.99 0.864099 4.34797 0
M  V30 13779 H 1368.21 0.277999 0.610702 0
M  V30 13780 H 1370.76 1.38672 1.503 0
M  V30 13781 H 1368.91 0.537445 3.83654 0
M  V30 13782 H 1369.33 2.63875 4.53288 0
M  V30 13783 H 1370.8 1.16247 5.39621 0
M  V30 13784 H 1371.28 -0.20117 4.38739 0
M  V30 13785 H 1371.88 1.42706 4.00643 0
M  V30 13786 N 1370.2 -1.34667 0.818693 0
M  V30 13787 C 1371.11 -2.33375 0.239429 0
M  V30 13788 C 1372.12 -1.62428 -0.623957 0
M  V30 13789 O 1373.3 -1.94223 -0.532854 0
M  V30 13790 C 1370.37 -3.41598 -0.59258 0
M  V30 13791 C 1369.43 -4.28301 0.292712 0
M  V30 13792 C 1368.66 -5.31356 -0.499682 0
M  V30 13793 O 1368.88 -5.43426 -1.73334 0
M  V30 13794 O 1367.82 -6.01789 0.115778 0
M  V30 13795 H 1371.64 -2.84738 1.05631 0
M  V30 13796 H 1369.23 -1.37651 0.58074 0
M  V30 13797 H 1371.11 -4.07692 -1.06607 0
M  V30 13798 H 1369.78 -2.92486 -1.38685 0
M  V30 13799 H 1368.69 -3.65145 0.81361 0
M  V30 13800 H 1370.02 -4.80843 1.05123 0
M  V30 13801 N 1371.68 -0.573274 -1.46804 0
M  V30 13802 C 1372.61 0.153316 -2.32996 0
M  V30 13803 C 1373.59 0.893013 -1.44773 0
M  V30 13804 O 1374.77 0.870329 -1.73606 0
M  V30 13805 C 1371.9 1.1736 -3.2687 0
M  V30 13806 C 1370.86 0.549347 -4.2446 0
M  V30 13807 C 1370.18 1.67542 -5.07773 0
M  V30 13808 C 1371.48 -0.50736 -5.1983 0
M  V30 13809 H 1373.18 -0.566305 -2.93995 0
M  V30 13810 H 1370.72 -0.273785 -1.41373 0
M  V30 13811 H 1372.68 1.6902 -3.86019 0
M  V30 13812 H 1371.4 1.92337 -2.63958 0
M  V30 13813 H 1370.06 0.0539142 -3.6656 0
M  V30 13814 H 1369.71 2.41463 -4.41253 0
M  V30 13815 H 1369.41 1.26343 -5.73856 0
M  V30 13816 H 1370.93 2.19496 -5.69784 0
M  V30 13817 H 1372.34 -0.0762061 -5.73249 0
M  V30 13818 H 1370.74 -0.839139 -5.94204 0
M  V30 13819 H 1371.81 -1.39723 -4.64333 0
M  V30 13820 N 1373.15 1.5451 -0.310553 0
M  V30 13821 C 1374.1 2.23871 0.561277 0
M  V30 13822 C 1375.07 1.22475 1.12202 0
M  V30 13823 O 1376.26 1.51121 1.16477 0
M  V30 13824 C 1373.4 2.99029 1.72267 0
M  V30 13825 C 1372.51 4.15218 1.19241 0
M  V30 13826 C 1371.64 4.77935 2.31843 0
M  V30 13827 C 1370.68 5.86251 1.75999 0
M  V30 13828 N 1369.82 6.42885 2.82212 0
M  V30 13829 H 1374.66 2.97977 -0.0367998 0
M  V30 13830 H 1372.2 1.4707 -0.0299317 0
M  V30 13831 H 1374.16 3.40842 2.40588 0
M  V30 13832 H 1372.79 2.27281 2.29223 0
M  V30 13833 H 1371.84 3.78279 0.401148 0
M  V30 13834 H 1373.15 4.93225 0.743675 0
M  V30 13835 H 1372.3 5.2265 3.08094 0
M  V30 13836 H 1371.04 3.99281 2.80047 0
M  V30 13837 H 1370.05 5.40952 0.982415 0
M  V30 13838 H 1371.27 6.66795 1.28688 0
M  V30 13839 H 1369.22 5.67109 3.29732 0
M  V30 13840 H 1369.14 7.16267 2.41864 0
M  V30 13841 H 1370.4 6.92256 3.58332 0
M  V30 13842 N 1374.63 0.0384594 1.57553 0
M  V30 13843 C 1375.56 -0.938444 2.13812 0
M  V30 13844 C 1376.54 -1.33307 1.05657 0
M  V30 13845 O 1377.73 -1.41003 1.33535 0
M  V30 13846 C 1374.86 -2.21764 2.67279 0
M  V30 13847 C 1373.81 -1.96347 3.80305 0
M  V30 13848 C 1373.14 -3.30612 4.20238 0
M  V30 13849 C 1374.44 -1.2952 5.05986 0
M  V30 13850 H 1376.13 -0.469887 2.9569 0
M  V30 13851 H 1373.68 -0.224576 1.42238 0
M  V30 13852 H 1375.63 -2.90493 3.05273 0
M  V30 13853 H 1374.36 -2.70802 1.82576 0
M  V30 13854 H 1373.02 -1.30033 3.42764 0
M  V30 13855 H 1372.66 -3.77427 3.32502 0
M  V30 13856 H 1372.36 -3.14409 4.96408 0
M  V30 13857 H 1373.89 -4.00594 4.60822 0
M  V30 13858 H 1375.3 -1.88264 5.41507 0
M  V30 13859 H 1373.7 -1.23685 5.87216 0
M  V30 13860 H 1374.77 -0.269439 4.84151 0
M  V30 13861 N 1376.11 -1.55841 -0.234795 0
M  V30 13862 C 1377.02 -1.94476 -1.31211 0
M  V30 13863 C 1378.04 -0.846782 -1.52005 0
M  V30 13864 O 1379.21 -1.14922 -1.65393 0
M  V30 13865 C 1376.28 -2.24213 -2.64442 0
M  V30 13866 C 1375.34 -3.47508 -2.52065 0
M  V30 13867 C 1374.57 -3.75817 -3.78942 0
M  V30 13868 O 1374.8 -3.06007 -4.81369 0
M  V30 13869 O 1373.73 -4.69328 -3.76848 0
M  V30 13870 H 1377.56 -2.8626 -1.01434 0
M  V30 13871 H 1375.14 -1.42879 -0.436563 0
M  V30 13872 H 1377.02 -2.44594 -3.4315 0
M  V30 13873 H 1375.7 -1.35605 -2.93927 0
M  V30 13874 H 1374.6 -3.32421 -1.71602 0
M  V30 13875 H 1375.94 -4.36457 -2.27523 0
M  V30 13876 N 1377.59 0.500963 -1.49426 0
M  V30 13877 C 1378.87 1.26231 -1.49416 0
M  V30 13878 C 1379.25 2.0993 -0.221908 0
M  V30 13879 O 1378.59 2.14198 0.795712 0
M  V30 13880 C 1378.8 2.11899 -2.77308 0
M  V30 13881 C 1380.15 2.71086 -3.26799 0
M  V30 13882 O 1381.18 2.22166 -2.78425 0
M  V30 13883 O 1380.04 3.60141 -4.11049 0
M  V30 13884 H 1377.13 0.571224 -0.598024 0
M  V30 13885 H 1379.68 0.51523 -1.61689 0
M  V30 13886 H 1378.45 1.50027 -3.61397 0
M  V30 13887 H 1378.07 2.93799 -2.67896 0
M  V30 13888 N 1379.07 1.38501 0.752011 0
M  V30 13889 C 1380.01 1.35857 1.86578 0
M  V30 13890 C 1380.98 0.220873 1.64625 0
M  V30 13891 O 1382.17 0.413348 1.86269 0
M  V30 13892 C 1379.31 1.19102 3.23896 0
M  V30 13893 C 1378.42 2.42272 3.5767 0
M  V30 13894 C 1377.56 2.18236 4.843 0
M  V30 13895 C 1376.6 3.37169 5.10865 0
M  V30 13896 N 1375.73 3.12558 6.28691 0
M  V30 13897 H 1380.57 2.31073 1.88173 0
M  V30 13898 H 1378.11 1.14803 0.919712 0
M  V30 13899 H 1380.07 1.07404 4.03138 0
M  V30 13900 H 1378.7 0.275243 3.21624 0
M  V30 13901 H 1377.75 2.64638 2.7326 0
M  V30 13902 H 1379.06 3.3091 3.73229 0
M  V30 13903 H 1378.22 2.03682 5.71488 0
M  V30 13904 H 1376.96 1.26966 4.70883 0
M  V30 13905 H 1375.96 3.52241 4.22145 0
M  V30 13906 H 1377.19 4.29317 5.26178 0
M  V30 13907 H 1375.13 2.23937 6.16594 0
M  V30 13908 H 1375.05 3.94746 6.44757 0
M  V30 13909 H 1376.32 3.01663 7.18763 0
M  V30 13910 N 1380.55 -0.980364 1.23396 0
M  V30 13911 C 1381.5 -2.05753 0.982323 0
M  V30 13912 C 1382.48 -1.6074 -0.0716939 0
M  V30 13913 O 1383.67 -1.76442 0.140438 0
M  V30 13914 C 1380.8 -3.38442 0.575481 0
M  V30 13915 C 1379.89 -3.90054 1.6649 0
M  V30 13916 N 1380.28 -4.14744 2.89519 0
M  V30 13917 C 1378.58 -4.18588 1.53949 0
M  V30 13918 C 1379.28 -4.56877 3.60053 0
M  V30 13919 N 1378.25 -4.61309 2.87567 0
M  V30 13920 H 1382.05 -2.22801 1.91669 0
M  V30 13921 H 1379.57 -1.16314 1.13335 0
M  V30 13922 H 1381.57 -4.15197 0.376477 0
M  V30 13923 H 1380.23 -3.22788 -0.351844 0
M  V30 13924 H 1381.24 -4.02566 3.25824 0
M  V30 13925 H 1377.91 -4.11937 0.679275 0
M  V30 13926 H 1379.3 -4.84498 4.65523 0
M  V30 13927 N 1382.02 -1.04567 -1.17913 0
M  V30 13928 C 1383.44 -0.76584 -1.40025 0
M  V30 13929 C 1383.64 0.642484 -1.90983 0
M  V30 13930 O 1382.7 1.40589 -2.0974 0
M  V30 13931 C 1384.01 -1.81616 -2.39658 0
M  V30 13932 C 1385.56 -1.83765 -2.53376 0
M  V30 13933 C 1386.03 -2.87803 -3.56277 0
M  V30 13934 N 1387.52 -2.86726 -3.63789 0
M  V30 13935 C 1388.26 -3.63876 -4.4315 0
M  V30 13936 N 1387.75 -4.50793 -5.26077 0
M  V30 13937 N 1389.55 -3.52344 -4.37962 0
M  V30 13938 H 1381.7 -1.95442 -0.831647 0
M  V30 13939 H 1383.96 -0.84593 -0.42791 0
M  V30 13940 H 1383.67 -2.8266 -2.09275 0
M  V30 13941 H 1383.54 -1.65251 -3.39075 0
M  V30 13942 H 1385.93 -0.833896 -2.83073 0
M  V30 13943 H 1386.01 -2.04208 -1.54055 0
M  V30 13944 H 1385.65 -3.88361 -3.2732 0
M  V30 13945 H 1385.58 -2.64614 -4.55288 0
M  V30 13946 H 1388.07 -2.237 -3.04576 0
M  V30 13947 H 1388.39 -5.0636 -5.83798 0
M  V30 13948 H 1386.73 -4.54858 -5.2548 0
M  V30 13949 H 1389.92 -2.8384 -3.72226 0
M  V30 13950 H 1390.1 -4.12718 -4.99568 0
M  V30 13951 N 1383.5 1.34231 -0.825823 0
M  V30 13952 C 1384.75 1.9849 -0.415891 0
M  V30 13953 C 1385.08 1.6531 1.01913 0
M  V30 13954 O 1384.36 0.926223 1.7103 0
M  V30 13955 C 1384.64 3.54691 -0.621785 0
M  V30 13956 C 1384.49 3.97603 -2.10313 0
M  V30 13957 C 1385.81 4.4006 -0.0595871 0
M  V30 13958 H 1382.93 0.721032 -0.152582 0
M  V30 13959 H 1385.57 1.5908 -1.03892 0
M  V30 13960 H 1383.72 3.88392 -0.0914439 0
M  V30 13961 H 1385.39 3.74221 -2.69733 0
M  V30 13962 H 1383.64 3.47809 -2.59251 0
M  V30 13963 H 1384.31 5.06352 -2.19799 0
M  V30 13964 H 1386.78 4.12929 -0.512743 0
M  V30 13965 H 1385.66 5.48403 -0.233431 0
M  V30 13966 H 1385.92 4.29798 1.03568 0
M  V30 13967 N 1384.98 0.581051 1.46498 0
M  V30 13968 C 1386.23 0.0660934 2.02692 0
M  V30 13969 C 1386.56 -1.28985 1.45178 0
M  V30 13970 O 1385.83 -1.84479 0.616247 0
M  V30 13971 C 1386.12 -0.00145411 3.601 0
M  V30 13972 C 1385.97 1.38327 4.28002 0
M  V30 13973 C 1387.29 -0.702914 4.3445 0
M  V30 13974 H 1384.41 0.0254923 0.736559 0
M  V30 13975 H 1387.05 0.74793 1.7466 0
M  V30 13976 H 1385.2 -0.582118 3.84114 0
M  V30 13977 H 1386.87 2.00897 4.15257 0
M  V30 13978 H 1385.11 1.95144 3.87429 0
M  V30 13979 H 1385.79 1.28849 5.36751 0
M  V30 13980 H 1388.26 -0.209641 4.15572 0
M  V30 13981 H 1387.14 -0.719202 5.44168 0
M  V30 13982 H 1387.4 -1.76389 4.05388 0
M  V30 13983 N 1386.46 -1.54343 0.318742 0
M  V30 13984 C 1387.71 -1.9966 -0.286146 0
M  V30 13985 C 1388.02 -1.21073 -1.53625 0
M  V30 13986 O 1389.23 -1.56744 -2.21684 0
M  V30 13987 C 1387.68 -3.5551 -0.560405 0
M  V30 13988 C 1387.29 -4.42926 0.672373 0
M  V30 13989 C 1389.03 -4.09307 -1.12551 0
M  V30 13990 C 1386.94 -5.9024 0.370285 0
M  V30 13991 H 1385.87 -0.74583 -0.110698 0
M  V30 13992 H 1388.52 -1.78386 0.430215 0
M  V30 13993 H 1386.9 -3.72753 -1.33683 0
M  V30 13994 H 1388.08 -4.37458 1.448 0
M  V30 13995 H 1386.39 -3.99993 1.15736 0
M  V30 13996 H 1388.99 -5.16955 -1.36607 0
M  V30 13997 H 1389.33 -3.60994 -2.07338 0
M  V30 13998 H 1389.87 -3.95677 -0.410385 0
M  V30 13999 H 1386.6 -6.42738 1.28719 0
M  V30 14000 H 1386.12 -5.98672 -0.367731 0
M  V30 14001 H 1387.8 -6.46996 -0.0216582 0
M  V30 14002 N 1387.94 -0.0468143 -1.5753 0
M  V30 14003 C 1388.87 0.958157 -2.08211 0
M  V30 14004 C 1389.88 1.27757 -1.00906 0
M  V30 14005 O 1391.07 1.23913 -1.28483 0
M  V30 14006 C 1388.17 2.28088 -2.50657 0
M  V30 14007 C 1387.34 2.14403 -3.81248 0
M  V30 14008 C 1386.4 3.29761 -4.10054 0
M  V30 14009 O 1385.43 3.05859 -4.8004 0
M  V30 14010 N 1386.63 4.54104 -3.61621 0
M  V30 14011 H 1389.39 0.525612 -2.95055 0
M  V30 14012 H 1386.96 0.139532 -1.61298 0
M  V30 14013 H 1388.95 3.04121 -2.67007 0
M  V30 14014 H 1387.52 2.62924 -1.69085 0
M  V30 14015 H 1386.74 1.22988 -3.74523 0
M  V30 14016 H 1388.03 2.02482 -4.66775 0
M  V30 14017 H 1387.42 4.76414 -3.05034 0
M  V30 14018 H 1385.98 5.27246 -3.83217 0
M  V30 14019 N 1389.41 1.55964 0.226527 0
M  V30 14020 C 1390.83 1.48844 0.575999 0
M  V30 14021 C 1391.03 0.740966 1.87382 0
M  V30 14022 O 1390.09 0.278599 2.50958 0
M  V30 14023 C 1391.4 2.93371 0.65984 0
M  V30 14024 C 1392.95 3.03862 0.750802 0
M  V30 14025 C 1393.42 4.49738 0.86603 0
M  V30 14026 N 1394.91 4.5376 0.930379 0
M  V30 14027 C 1395.65 5.63905 1.03916 0
M  V30 14028 N 1395.14 6.83814 1.1122 0
M  V30 14029 N 1396.94 5.51746 1.07391 0
M  V30 14030 H 1389.09 2.02991 -0.625179 0
M  V30 14031 H 1391.35 0.922435 -0.218674 0
M  V30 14032 H 1391.06 3.50985 -0.22411 0
M  V30 14033 H 1390.93 3.44994 1.52509 0
M  V30 14034 H 1393.32 2.46316 1.6252 0
M  V30 14035 H 1393.4 2.55416 -0.140019 0
M  V30 14036 H 1393.04 5.079 -0.00388632 0
M  V30 14037 H 1392.97 4.95884 1.77219 0
M  V30 14038 H 1395.46 3.67404 0.884451 0
M  V30 14039 H 1395.78 7.63507 1.19484 0
M  V30 14040 H 1394.12 6.86535 1.08142 0
M  V30 14041 H 1397.31 4.56997 1.01347 0
M  V30 14042 H 1397.49 6.37619 1.15523 0
M  V30 14043 N 1390.89 -0.493031 1.4969 0
M  V30 14044 C 1392.17 -1.25436 1.50084 0
M  V30 14045 C 1392.55 -2.0981 0.233038 0
M  V30 14046 O 1391.9 -2.14617 -0.784342 0
M  V30 14047 C 1392.11 -2.10425 2.78428 0
M  V30 14048 C 1393.46 -2.69349 3.28232 0
M  V30 14049 O 1394.48 -2.20686 2.796 0
M  V30 14050 O 1393.34 -3.57956 4.12953 0
M  V30 14051 H 1390.43 -0.568044 0.601045 0
M  V30 14052 H 1392.98 -0.506648 1.6196 0
M  V30 14053 H 1391.75 -1.48108 3.62187 0
M  V30 14054 H 1391.37 -2.92374 2.6945 0
M  V30 14055 N 1392.37 -1.38898 -0.744656 0
M  V30 14056 C 1393.28 -1.39098 -1.88915 0
M  V30 14057 C 1394.3 -0.286956 -1.71617 0
M  V30 14058 O 1395.47 -0.526852 -1.94387 0
M  V30 14059 C 1392.54 -1.22352 -3.24393 0
M  V30 14060 C 1391.6 -2.4264 -3.54153 0
M  V30 14061 C 1390.83 -2.26683 -4.83167 0
M  V30 14062 O 1391.05 -1.26523 -5.56191 0
M  V30 14063 O 1389.99 -3.15464 -5.12607 0
M  V30 14064 H 1393.81 -2.35551 -1.91701 0
M  V30 14065 H 1391.4 -1.19911 -0.891158 0
M  V30 14066 H 1393.28 -1.15109 -4.05374 0
M  V30 14067 H 1391.96 -0.289886 -3.22399 0
M  V30 14068 H 1390.86 -2.55459 -2.73298 0
M  V30 14069 H 1392.2 -3.34664 -3.60917 0
M  V30 14070 N 1393.85 0.973806 -1.23914 0
M  V30 14071 C 1395.1 1.71259 -1.07307 0
M  V30 14072 C 1395.42 1.91064 0.389831 0
M  V30 14073 O 1394.69 1.48401 1.27883 0
M  V30 14074 H 1393.27 0.634588 -0.39409 0
M  V30 14075 H 1395.93 1.17184 -1.55737 0
M  V30 14076 H 1395.03 2.69953 -1.56626 0
M  V30 14077 N 1395.33 1.05191 1.17357 0
M  V30 14078 C 1396.28 0.623047 2.19322 0
M  V30 14079 C 1397.26 -0.340467 1.57257 0
M  V30 14080 O 1398.45 -0.157698 1.76296 0
M  V30 14081 C 1395.58 -0.000731889 3.433 0
M  V30 14082 C 1394.67 0.986608 4.12464 0
M  V30 14083 N 1395.06 2.158 4.57454 0
M  V30 14084 C 1393.36 0.815082 4.38489 0
M  V30 14085 C 1394.06 2.78262 5.10828 0
M  V30 14086 N 1393.03 2.0606 5.03031 0
M  V30 14087 H 1396.84 1.51555 2.5181 0
M  V30 14088 H 1394.35 0.922048 1.33686 0
M  V30 14089 H 1396.35 -0.325738 4.15625 0
M  V30 14090 H 1395.01 -0.888627 3.12304 0
M  V30 14091 H 1396.02 2.53634 4.51542 0
M  V30 14092 H 1392.69 -0.021765 4.17494 0
M  V30 14093 H 1394.08 3.77599 5.55759 0
M  V30 14094 N 1396.8 -1.33791 0.83293 0
M  V30 14095 C 1397.75 -2.26795 0.234069 0
M  V30 14096 C 1398.74 -1.48991 -0.60749 0
M  V30 14097 O 1399.93 -1.70907 -0.46043 0
M  V30 14098 C 1397.06 -3.38107 -0.594863 0
M  V30 14099 C 1396.15 -4.23315 0.257877 0
M  V30 14100 N 1396.54 -4.87899 1.33373 0
M  V30 14101 C 1394.83 -4.45978 0.0438997 0
M  V30 14102 C 1395.54 -5.51278 1.85655 0
M  V30 14103 N 1394.51 -5.31103 1.15892 0
M  V30 14104 H 1398.31 -2.7424 1.05688 0
M  V30 14105 H 1395.83 -1.47627 0.676767 0
M  V30 14106 H 1397.82 -4.03716 -1.04014 0
M  V30 14107 H 1396.48 -2.92212 -1.41571 0
M  V30 14108 H 1397.5 -4.88624 1.71659 0
M  V30 14109 H 1394.17 -4.10818 -0.743985 0
M  V30 14110 H 1395.56 -6.12723 2.75717 0
M  V30 14111 N 1398.28 -0.588812 -1.46187 0
M  V30 14112 C 1399.53 -0.0768417 -2.02654 0
M  V30 14113 C 1399.86 1.28213 -1.4586 0
M  V30 14114 O 1399.14 1.8415 -0.626022 0
M  V30 14115 C 1399.42 -0.0176429 -3.60096 0
M  V30 14116 C 1399.27 -1.40595 -4.27262 0
M  V30 14117 C 1400.59 0.679864 -4.34817 0
M  V30 14118 H 1397.71 -0.0293981 -0.736413 0
M  V30 14119 H 1400.35 -0.757183 -1.74261 0
M  V30 14120 H 1398.5 0.56174 -3.84417 0
M  V30 14121 H 1400.17 -2.03097 -4.14185 0
M  V30 14122 H 1398.42 -1.97196 -3.86388 0
M  V30 14123 H 1399.09 -1.31694 -5.3606 0
M  V30 14124 H 1401.56 0.1876 -4.15677 0
M  V30 14125 H 1400.44 0.690333 -5.44542 0
M  V30 14126 H 1400.7 1.74237 -4.06318 0
M  V30 14127 N 1399.76 1.54172 -0.326923 0
M  V30 14128 C 1400.72 2.2311 0.524855 0
M  V30 14129 C 1401.72 1.22567 1.04087 0
M  V30 14130 O 1402.91 1.47123 0.932759 0
M  V30 14131 C 1400.05 2.93778 1.72937 0
M  V30 14132 H 1401.24 2.99799 -0.0778327 0
M  V30 14133 H 1398.79 1.56105 -0.0780484 0
M  V30 14134 H 1399.53 2.21234 2.3712 0
M  V30 14135 H 1399.31 3.67509 1.36674 0
M  V30 14136 H 1400.8 3.46292 2.33392 0
M  V30 14137 N 1401.24 0.0551678 1.57503 0
M  V30 14138 C 1402.47 -0.626291 1.96879 0
M  V30 14139 C 1402.88 -1.64677 0.93156 0
M  V30 14140 O 1402.22 -1.83469 -0.0921632 0
M  V30 14141 C 1402.28 -1.36674 3.32506 0
M  V30 14142 C 1401.95 -0.501632 4.54239 0
M  V30 14143 C 1402.94 0.233939 5.19373 0
M  V30 14144 C 1400.63 -0.431385 5.00444 0
M  V30 14145 C 1402.62 1.02815 6.29053 0
M  V30 14146 C 1400.31 0.366514 6.1 0
M  V30 14147 C 1401.31 1.09497 6.74166 0
M  V30 14148 O 1400.99 1.87974 7.81614 0
M  V30 14149 H 1400.73 -0.175738 0.652757 0
M  V30 14150 H 1403.28 0.11909 2.05054 0
M  V30 14151 H 1401.51 -2.15783 3.20896 0
M  V30 14152 H 1403.2 -1.93882 3.56602 0
M  V30 14153 H 1403.97 0.189161 4.84631 0
M  V30 14154 H 1399.84 -0.98798 4.50289 0
M  V30 14155 H 1403.39 1.59724 6.79068 0
M  V30 14156 H 1399.29 0.412916 6.44178 0
M  V30 14157 H 1400.05 1.80228 7.98411 0
M  V30 14158 N 1402.72 -1.56081 -0.218252 0
M  V30 14159 C 1403.94 -1.83334 -0.958964 0
M  V30 14160 C 1404.36 -0.63472 -1.77811 0
M  V30 14161 O 1403.72 0.396729 -1.78136 0
M  V30 14162 C 1403.77 -3.09141 -1.87387 0
M  V30 14163 O 1403.49 -4.24379 -1.08783 0
M  V30 14164 C 1404.99 -3.49405 -2.7282 0
M  V30 14165 H 1402.21 -0.609375 -0.280898 0
M  V30 14166 H 1404.75 -2.03174 -0.232486 0
M  V30 14167 H 1402.91 -2.91267 -2.55426 0
M  V30 14168 H 1403.32 -4.9587 -1.70919 0
M  V30 14169 H 1404.8 -4.40461 -3.32713 0
M  V30 14170 H 1405.27 -2.71311 -3.45379 0
M  V30 14171 H 1405.88 -3.6973 -2.1019 0
M  V30 14172 N 1404.2 0.485086 -1.49949 0
M  V30 14173 C 1405.42 1.26179 -1.63971 0
M  V30 14174 C 1405.84 1.86113 -0.317408 0
M  V30 14175 O 1405.2 1.68581 0.699038 0
M  V30 14176 C 1405.25 2.38062 -2.72046 0
M  V30 14177 O 1404.97 1.80588 -3.99149 0
M  V30 14178 C 1406.47 3.29174 -2.96916 0
M  V30 14179 H 1403.69 0.382122 -0.551565 0
M  V30 14180 H 1406.23 0.580607 -1.96085 0
M  V30 14181 H 1404.39 3.0198 -2.42666 0
M  V30 14182 H 1404.8 2.54159 -4.58807 0
M  V30 14183 H 1406.28 4.03922 -3.76233 0
M  V30 14184 H 1406.75 3.87123 -2.07443 0
M  V30 14185 H 1407.36 2.71006 -3.27774 0
M  V30 14186 N 1405.67 1.39291 0.737279 0
M  V30 14187 C 1407.09 1.20845 1.04253 0
M  V30 14188 C 1407.29 0.0684513 2.01384 0
M  V30 14189 O 1406.35 -0.580615 2.45734 0
M  V30 14190 C 1407.66 2.54158 1.60699 0
M  V30 14191 C 1409.21 2.60983 1.72791 0
M  V30 14192 C 1409.68 3.94511 2.32647 0
M  V30 14193 N 1411.17 3.96138 2.4006 0
M  V30 14194 C 1411.91 4.96229 2.87306 0
M  V30 14195 N 1411.4 6.06716 3.34465 0
M  V30 14196 N 1413.2 4.83609 2.86494 0
M  V30 14197 H 1405.35 2.12196 0.0930416 0
M  V30 14198 H 1407.61 0.942289 0.103899 0
M  V30 14199 H 1407.32 3.38118 0.96795 0
M  V30 14200 H 1407.19 2.73715 2.59538 0
M  V30 14201 H 1409.58 1.77408 2.35818 0
M  V30 14202 H 1409.66 2.45278 0.726118 0
M  V30 14203 H 1409.3 4.78516 1.70249 0
M  V30 14204 H 1409.23 4.07536 3.33499 0
M  V30 14205 H 1411.72 3.16344 2.06725 0
M  V30 14206 H 1412.04 6.79002 3.6902 0
M  V30 14207 H 1410.38 6.10313 3.3248 0
M  V30 14208 H 1413.57 3.96396 2.48973 0
M  V30 14209 H 1413.75 5.6176 3.23001 0
M  V30 14210 N 1407.15 -0.967221 1.24429 0
M  V30 14211 C 1408.06 -2.09582 1.05417 0
M  V30 14212 C 1409.08 -1.73999 -0.00516127 0
M  V30 14213 O 1410.25 -2.00472 0.193115 0
M  V30 14214 C 1407.32 -3.40327 0.661697 0
M  V30 14215 C 1406.38 -3.89854 1.79756 0
M  V30 14216 C 1405.61 -5.1436 1.42372 0
M  V30 14217 O 1405.84 -5.69536 0.313754 0
M  V30 14218 O 1404.77 -5.58283 2.24952 0
M  V30 14219 H 1408.6 -2.28517 2.00034 0
M  V30 14220 H 1406.18 -1.07978 1.03253 0
M  V30 14221 H 1408.06 -4.18943 0.454369 0
M  V30 14222 H 1406.74 -3.22691 -0.255348 0
M  V30 14223 H 1405.64 -3.12297 2.05964 0
M  V30 14224 H 1406.98 -4.11967 2.69339 0
M  V30 14225 N 1408.63 -1.05812 -1.16797 0
M  V30 14226 C 1409.88 -0.773066 -1.87487 0
M  V30 14227 C 1410.21 0.698471 -1.81204 0
M  V30 14228 O 1409.48 1.51129 -1.22434 0
M  V30 14229 C 1409.77 -1.2621 -3.37258 0
M  V30 14230 C 1409.62 -2.79704 -3.52258 0
M  V30 14231 C 1410.94 -0.866104 -4.31494 0
M  V30 14232 H 1408.06 -0.282304 -0.680789 0
M  V30 14233 H 1410.7 -1.3132 -1.37314 0
M  V30 14234 H 1408.85 -0.802608 -3.80119 0
M  V30 14235 H 1410.52 -3.33824 -3.1837 0
M  V30 14236 H 1408.76 -3.18673 -2.94329 0
M  V30 14237 H 1409.44 -3.08985 -4.57419 0
M  V30 14238 H 1411.91 -1.26178 -3.96508 0
M  V30 14239 H 1410.79 -1.23581 -5.34807 0
M  V30 14240 H 1411.05 0.229391 -4.41504 0
M  V30 14241 N 1410.11 1.33347 -0.840014 0
M  V30 14242 C 1411.36 1.97354 -0.435412 0
M  V30 14243 C 1411.68 1.66866 1.009 0
M  V30 14244 O 1410.95 0.968186 1.70303 0
M  V30 14245 H 1409.53 0.730096 -0.158017 0
M  V30 14246 H 1412.19 1.6269 -1.07322 0
M  V30 14247 H 1411.28 3.0688 -0.56841 0
M  V30 14248 N 1411.59 0.596556 1.45873 0
M  V30 14249 C 1412.52 -0.166704 2.28593 0
M  V30 14250 C 1413.53 -0.84231 1.39316 0
M  V30 14251 O 1414.72 -0.709548 1.63792 0
M  V30 14252 C 1411.82 -1.25641 3.1475 0
M  V30 14253 C 1410.99 -0.67006 4.32237 0
M  V30 14254 C 1410.05 -1.64924 4.99686 0
M  V30 14255 O 1409.08 -1.17986 5.56838 0
M  V30 14256 N 1410.28 -2.98355 4.9796 0
M  V30 14257 H 1413.04 0.543045 2.94739 0
M  V30 14258 H 1410.61 0.435274 1.55939 0
M  V30 14259 H 1412.6 -1.91104 3.56737 0
M  V30 14260 H 1411.17 -1.86883 2.50586 0
M  V30 14261 H 1410.39 0.162375 3.93865 0
M  V30 14262 H 1411.68 -0.258345 5.08144 0
M  V30 14263 H 1411.07 -3.39101 4.52799 0
M  V30 14264 H 1409.63 -3.5927 5.43846 0
M  V30 14265 N 1413.06 -1.53996 0.335095 0
M  V30 14266 C 1414.29 -2.0489 -0.265245 0
M  V30 14267 C 1414.7 -1.21024 -1.4543 0
M  V30 14268 O 1414.04 -0.236417 -1.82172 0
M  V30 14269 C 1414.11 -3.51546 -0.752018 0
M  V30 14270 C 1413.77 -4.55904 0.316261 0
M  V30 14271 C 1414.77 -5.06881 1.15617 0
M  V30 14272 C 1412.45 -5.00117 0.467762 0
M  V30 14273 C 1414.45 -6.00644 2.13321 0
M  V30 14274 C 1412.13 -5.93692 1.4482 0
M  V30 14275 C 1413.13 -6.43842 2.27938 0
M  V30 14276 O 1412.82 -7.35578 3.24315 0
M  V30 14277 H 1412.55 -0.673631 -0.0565427 0
M  V30 14278 H 1415.11 -1.99646 0.482771 0
M  V30 14279 H 1413.34 -3.54227 -1.55114 0
M  V30 14280 H 1415.02 -3.85455 -1.27197 0
M  V30 14281 H 1415.79 -4.73494 1.05017 0
M  V30 14282 H 1411.67 -4.60689 -0.169338 0
M  V30 14283 H 1415.21 -6.39711 2.78236 0
M  V30 14284 H 1411.11 -6.26495 1.5548 0
M  V30 14285 H 1411.88 -7.53487 3.19688 0
M  V30 14286 N 1414.54 -0.0635198 -1.57472 0
M  V30 14287 C 1415.47 0.90431 -2.15278 0
M  V30 14288 C 1416.45 1.31609 -1.07764 0
M  V30 14289 O 1417.64 1.38861 -1.35762 0
M  V30 14290 C 1414.77 2.17483 -2.70774 0
M  V30 14291 C 1413.72 1.90272 -3.8338 0
M  V30 14292 C 1413.05 3.23885 -4.25444 0
M  V30 14293 C 1414.35 1.21454 -5.07983 0
M  V30 14294 H 1416.04 0.422786 -2.964 0
M  V30 14295 H 1413.59 0.201918 -1.42577 0
M  V30 14296 H 1415.54 2.856 -3.09856 0
M  V30 14297 H 1414.26 2.67863 -1.86861 0
M  V30 14298 H 1412.92 1.24564 -3.44789 0
M  V30 14299 H 1412.57 3.72089 -3.38465 0
M  V30 14300 H 1412.27 3.06472 -5.01347 0
M  V30 14301 H 1413.8 3.93212 -4.67137 0
M  V30 14302 H 1415.21 1.79625 -5.44433 0
M  V30 14303 H 1413.61 1.14327 -5.89109 0
M  V30 14304 H 1414.68 0.19238 -4.84518 0
M  V30 14305 N 1416.02 1.56195 0.209972 0
M  V30 14306 C 1417.27 1.80011 0.93402 0
M  V30 14307 C 1417.6 0.635109 1.83521 0
M  V30 14308 O 1416.87 -0.365099 1.91043 0
M  V30 14309 C 1417.16 3.13989 1.76304 0
M  V30 14310 C 1417.01 4.40956 0.887567 0
M  V30 14311 C 1418.33 3.44514 2.73857 0
M  V30 14312 H 1415.45 0.654859 0.338125 0
M  V30 14313 H 1418.09 1.88921 0.20221 0
M  V30 14314 H 1416.24 3.06524 2.38695 0
M  V30 14315 H 1417.91 4.60452 0.279507 0
M  V30 14316 H 1416.15 4.33368 0.193533 0
M  V30 14317 H 1416.83 5.31164 1.50228 0
M  V30 14318 H 1419.3 3.52182 2.216 0
M  V30 14319 H 1418.18 4.39407 3.28957 0
M  V30 14320 H 1418.44 2.6726 3.52171 0
M  V30 14321 N 1417.5 -0.477127 1.50204 0
M  V30 14322 C 1418.74 -1.23147 1.6113 0
M  V30 14323 C 1419.08 -1.91743 0.307909 0
M  V30 14324 O 1418.35 -1.81841 -0.690223 0
M  V30 14325 C 1418.63 -2.27985 2.78738 0
M  V30 14326 C 1418.49 -1.63733 4.18941 0
M  V30 14327 C 1419.81 -3.29349 2.9192 0
M  V30 14328 H 1416.93 -0.446358 0.586459 0
M  V30 14329 H 1419.57 -0.52612 1.8257 0
M  V30 14330 H 1417.72 -2.88143 2.60588 0
M  V30 14331 H 1419.39 -1.07218 4.48667 0
M  V30 14332 H 1417.63 -0.940634 4.23479 0
M  V30 14333 H 1418.3 -2.39888 4.9715 0
M  V30 14334 H 1420.78 -2.79208 3.08516 0
M  V30 14335 H 1419.66 -4.0004 3.75845 0
M  V30 14336 H 1419.92 -3.93111 2.02278 0
M  V30 14337 N 1418.98 -1.3968 -0.729882 0
M  V30 14338 C 1419.89 -1.41094 -1.87429 0
M  V30 14339 C 1420.9 -0.305142 -1.71303 0
M  V30 14340 O 1422.08 -0.54744 -1.93817 0
M  V30 14341 C 1419.14 -1.25786 -3.23077 0
M  V30 14342 C 1418.2 -2.46382 -3.5156 0
M  V30 14343 C 1417.44 -2.31795 -4.80735 0
M  V30 14344 O 1417.66 -1.32415 -5.54818 0
M  V30 14345 O 1416.59 -3.20883 -5.09232 0
M  V30 14346 H 1420.42 -2.37571 -1.89192 0
M  V30 14347 H 1418.01 -1.2085 -0.878389 0
M  V30 14348 H 1419.89 -1.19402 -4.0413 0
M  V30 14349 H 1418.56 -0.324065 -3.22074 0
M  V30 14350 H 1417.47 -2.58343 -2.70573 0
M  V30 14351 H 1418.8 -3.38473 -3.57347 0
M  V30 14352 N 1420.45 0.960609 -1.2494 0
M  V30 14353 C 1421.68 1.7446 -1.12153 0
M  V30 14354 C 1422.1 1.85335 0.321315 0
M  V30 14355 O 1421.46 1.32944 1.23271 0
M  V30 14356 C 1421.51 3.13945 -1.774 0
M  V30 14357 O 1420.61 3.9882 -1.04958 0
M  V30 14358 H 1419.96 0.536007 -0.391909 0
M  V30 14359 H 1422.49 1.2045 -1.65388 0
M  V30 14360 H 1422.5 3.64434 -1.83444 0
M  V30 14361 H 1421.17 3.05346 -2.82377 0
M  V30 14362 H 1419.75 3.57293 -1.06752 0
M  V30 14363 N 1421.93 1.0643 1.16234 0
M  V30 14364 C 1423.16 0.802671 1.91238 0
M  V30 14365 C 1423.58 -0.637222 1.76978 0
M  V30 14366 O 1422.94 -1.44419 1.09603 0
M  V30 14367 C 1422.99 1.20389 3.3991 0
M  V30 14368 O 1422.09 0.343516 4.10967 0
M  V30 14369 H 1421.43 0.29323 0.595745 0
M  V30 14370 H 1423.96 1.42046 1.47255 0
M  V30 14371 H 1423.97 1.17604 3.90683 0
M  V30 14372 H 1422.65 2.2527 3.49608 0
M  V30 14373 H 1421.23 0.433051 3.70377 0
M  V30 14374 N 1423.41 -1.329 0.847073 0
M  V30 14375 C 1424.64 -2.0171 0.460497 0
M  V30 14376 C 1425.05 -1.63699 -0.940649 0
M  V30 14377 O 1424.41 -0.854454 -1.61262 0
M  V30 14378 C 1424.46 -3.56799 0.581108 0
M  V30 14379 O 1424.18 -3.93442 1.92705 0
M  V30 14380 C 1425.68 -4.42882 0.192552 0
M  V30 14381 H 1422.9 -0.645887 0.181853 0
M  V30 14382 H 1425.45 -1.69648 1.14192 0
M  V30 14383 H 1423.6 -3.87364 -0.0524924 0
M  V30 14384 H 1424.02 -4.88157 1.91841 0
M  V30 14385 H 1425.49 -5.51025 0.327969 0
M  V30 14386 H 1425.97 -4.30571 -0.866315 0
M  V30 14387 H 1426.57 -4.17691 0.800918 0
M  V30 14388 N 1424.89 -0.604284 -1.45555 0
M  V30 14389 C 1426.14 -0.0979922 -2.01862 0
M  V30 14390 C 1426.46 1.27476 -1.47563 0
M  V30 14391 O 1425.73 1.84137 -0.668612 0
M  V30 14392 H 1424.31 -0.033235 -0.74626 0
M  V30 14393 H 1426.97 -0.784936 -1.78395 0
M  V30 14394 H 1426.07 -0.0452716 -3.12067 0
M  V30 14395 N 1426.37 1.53816 -0.343257 0
M  V30 14396 C 1427.62 2.0009 0.254346 0
M  V30 14397 C 1427.93 1.23502 1.51679 0
M  V30 14398 O 1429.13 1.60251 2.19162 0
M  V30 14399 C 1427.59 3.56357 0.503775 0
M  V30 14400 C 1427.2 4.418 -0.742754 0
M  V30 14401 C 1428.94 4.11046 1.06025 0
M  V30 14402 C 1426.85 5.89576 -0.46414 0
M  V30 14403 H 1425.78 0.747496 0.0988189 0
M  V30 14404 H 1428.43 1.77679 -0.45854 0
M  V30 14405 H 1426.81 3.74833 1.27736 0
M  V30 14406 H 1427.99 4.35099 -1.51742 0
M  V30 14407 H 1426.3 3.98101 -1.22085 0
M  V30 14408 H 1428.9 5.19063 1.28365 0
M  V30 14409 H 1429.24 3.64247 2.01568 0
M  V30 14410 H 1429.77 3.9628 0.347384 0
M  V30 14411 H 1426.51 6.40608 -1.38928 0
M  V30 14412 H 1426.03 5.99181 0.272441 0
M  V30 14413 H 1427.71 6.46949 -0.0812761 0
M  V30 14414 N 1427.84 0.0718701 1.57436 0
M  V30 14415 C 1429.09 -0.596799 1.92669 0
M  V30 14416 C 1429.41 -1.70765 0.953876 0
M  V30 14417 O 1430.61 -2.43589 1.19903 0
M  V30 14418 C 1429.07 -1.11291 3.42261 0
M  V30 14419 C 1428.68 -0.0330681 4.47988 0
M  V30 14420 C 1430.42 -1.75564 3.86494 0
M  V30 14421 C 1428.33 -0.56323 5.88712 0
M  V30 14422 H 1427.26 -0.226695 0.719114 0
M  V30 14423 H 1429.91 0.144117 1.82933 0
M  V30 14424 H 1428.29 -1.9068 3.4707 0
M  V30 14425 H 1429.46 0.741501 4.54795 0
M  V30 14426 H 1427.78 0.513438 4.13222 0
M  V30 14427 H 1430.38 -2.16261 4.89014 0
M  V30 14428 H 1430.72 -2.61566 3.23865 0
M  V30 14429 H 1431.25 -1.02798 3.84288 0
M  V30 14430 H 1427.99 0.259632 6.54986 0
M  V30 14431 H 1427.51 -1.30532 5.85424 0
M  V30 14432 H 1429.19 -1.03961 6.38593 0
M  V30 14433 N 1429.32 -1.56304 -0.201686 0
M  V30 14434 C 1430.57 -1.80504 -0.92446 0
M  V30 14435 C 1430.9 -0.644832 -1.83182 0
M  V30 14436 O 1430.18 0.354963 -1.91234 0
M  V30 14437 C 1430.46 -3.14919 -1.74636 0
M  V30 14438 C 1430.31 -4.41421 -0.864169 0
M  V30 14439 C 1431.63 -3.45962 -2.72026 0
M  V30 14440 H 1428.75 -0.656643 -0.334648 0
M  V30 14441 H 1431.39 -1.89025 -0.192188 0
M  V30 14442 H 1429.54 -3.07785 -2.37066 0
M  V30 14443 H 1431.21 -4.60594 -0.255084 0
M  V30 14444 H 1429.46 -4.33465 -0.170548 0
M  V30 14445 H 1430.13 -5.31954 -1.47409 0
M  V30 14446 H 1432.6 -3.53353 -2.1973 0
M  V30 14447 H 1431.48 -4.41146 -3.26622 0
M  V30 14448 H 1431.74 -2.69124 -3.50749 0
M  V30 14449 N 1430.8 0.469154 -1.50455 0
M  V30 14450 C 1432.05 1.21788 -1.60781 0
M  V30 14451 C 1432.36 1.93054 -0.314576 0
M  V30 14452 O 1433.57 2.69873 -0.296773 0
M  V30 14453 C 1432.02 2.21305 -2.83817 0
M  V30 14454 C 1431.63 1.55833 -4.20024 0
M  V30 14455 C 1433.38 2.96808 -3.03489 0
M  V30 14456 C 1431.28 2.53648 -5.34244 0
M  V30 14457 H 1430.21 0.45827 -0.598752 0
M  V30 14458 H 1432.86 0.488159 -1.76888 0
M  V30 14459 H 1431.25 2.97577 -2.61273 0
M  V30 14460 H 1432.42 0.853371 -4.52829 0
M  V30 14461 H 1430.74 0.926046 -4.05972 0
M  V30 14462 H 1433.33 3.70017 -3.85994 0
M  V30 14463 H 1433.68 3.56307 -2.15293 0
M  V30 14464 H 1434.21 2.27648 -3.26223 0
M  V30 14465 H 1430.95 1.98885 -6.246 0
M  V30 14466 H 1430.47 3.22291 -5.05854 0
M  V30 14467 H 1432.15 3.15438 -5.64897 0
M  V30 14468 N 1432.28 1.40065 0.722464 0
M  V30 14469 C 1433.52 1.39178 1.48328 0
M  V30 14470 C 1433.88 -0.00849644 1.92398 0
M  V30 14471 O 1433.17 -0.977541 1.64787 0
M  V30 14472 C 1433.37 2.30949 2.72759 0
M  V30 14473 C 1433.2 3.7976 2.40857 0
M  V30 14474 C 1431.97 4.48615 2.32535 0
M  V30 14475 C 1434.16 4.71426 2.05576 0
M  V30 14476 N 1432.15 5.82695 1.93236 0
M  V30 14477 C 1433.52 5.94251 1.76822 0
M  V30 14478 C 1435.57 4.59327 1.92153 0
M  V30 14479 C 1434.27 7.06327 1.35996 0
M  V30 14480 C 1436.3 5.71338 1.5273 0
M  V30 14481 C 1435.66 6.93244 1.24869 0
M  V30 14482 H 1431.76 0.564547 0.541119 0
M  V30 14483 H 1434.35 1.7572 0.838475 0
M  V30 14484 H 1432.52 1.96545 3.35 0
M  V30 14485 H 1434.25 2.20967 3.39051 0
M  V30 14486 H 1431 4.0221 2.50048 0
M  V30 14487 H 1431.43 6.53684 1.76144 0
M  V30 14488 H 1436.07 3.65602 2.12356 0
M  V30 14489 H 1433.79 7.99942 1.14535 0
M  V30 14490 H 1437.37 5.6397 1.42932 0
M  V30 14491 H 1436.25 7.78446 0.948221 0
M  V30 14492 N 1433.76 -0.95397 1.25448 0
M  V30 14493 C 1435.03 -1.67502 1.01008 0
M  V30 14494 C 1435.41 -2.05949 -0.463483 0
M  V30 14495 O 1434.76 -1.77336 -1.44098 0
M  V30 14496 C 1434.97 -2.89679 1.94645 0
M  V30 14497 C 1436.32 -3.61617 2.22526 0
M  V30 14498 O 1437.34 -2.99762 1.92409 0
M  V30 14499 O 1436.2 -4.72998 2.73743 0
M  V30 14500 H 1433.3 -0.732917 0.383094 0
M  V30 14501 H 1435.84 -1.00684 1.36605 0
M  V30 14502 H 1434.62 -2.58063 2.94141 0
M  V30 14503 H 1434.24 -3.64228 1.59449 0
M  V30 14504 N 1435.24 -1.07045 -1.15668 0
M  V30 14505 C 1436.18 -0.688004 -2.20307 0
M  V30 14506 C 1437.15 0.319081 -1.63006 0
M  V30 14507 O 1438.34 0.206239 -1.89682 0
M  V30 14508 C 1435.48 -0.0886692 -3.44986 0
M  V30 14509 C 1434.59 -1.14685 -4.16499 0
M  V30 14510 C 1433.73 -0.512852 -5.28719 0
M  V30 14511 C 1432.76 -1.55404 -5.92044 0
M  V30 14512 N 1431.9 -0.942848 -6.9574 0
M  V30 14513 H 1436.74 -1.58469 -2.52372 0
M  V30 14514 H 1434.28 -0.792184 -1.23947 0
M  V30 14515 H 1436.24 0.276415 -4.16283 0
M  V30 14516 H 1434.87 0.77139 -3.13448 0
M  V30 14517 H 1433.92 -1.62955 -3.43729 0
M  V30 14518 H 1435.23 -1.93643 -4.59678 0
M  V30 14519 H 1434.38 -0.0952274 -6.06625 0
M  V30 14520 H 1433.12 0.308524 -4.86723 0
M  V30 14521 H 1432.13 -1.98148 -5.12852 0
M  V30 14522 H 1433.35 -2.37765 -6.36117 0
M  V30 14523 H 1431.3 -0.142319 -6.55846 0
M  V30 14524 H 1431.22 -1.6697 -7.37331 0
M  V30 14525 H 1432.48 -0.550621 -7.77553 0
M  V30 14526 N 1436.71 1.32449 -0.85411 0
M  V30 14527 C 1438.13 1.50046 -0.543895 0
M  V30 14528 C 1438.33 1.78985 0.925561 0
M  V30 14529 O 1437.39 1.85909 1.70862 0
M  V30 14530 C 1438.7 2.64499 -1.43041 0
M  V30 14531 C 1440.25 2.78384 -1.43078 0
M  V30 14532 C 1440.72 3.95915 -2.3025 0
M  V30 14533 N 1442.21 4.03176 -2.28043 0
M  V30 14534 C 1442.95 4.9335 -2.92221 0
M  V30 14535 N 1442.44 5.88536 -3.6551 0
M  V30 14536 N 1444.24 4.86468 -2.81612 0
M  V30 14537 H 1436.39 1.11931 -1.80514 0
M  V30 14538 H 1438.65 0.551626 -0.770982 0
M  V30 14539 H 1438.36 2.49842 -2.47532 0
M  V30 14540 H 1438.23 3.60269 -1.11742 0
M  V30 14541 H 1440.62 2.92464 -0.393529 0
M  V30 14542 H 1440.7 1.83329 -1.78393 0
M  V30 14543 H 1440.34 3.82594 -3.34043 0
M  V30 14544 H 1440.27 4.90245 -1.92268 0
M  V30 14545 H 1442.76 3.35064 -1.74759 0
M  V30 14546 H 1443.08 6.54038 -4.11648 0
M  V30 14547 H 1441.42 5.88564 -3.69618 0
M  V30 14548 H 1444.61 4.11076 -2.23907 0
M  V30 14549 H 1444.79 5.56542 -3.3191 0
M  V30 14550 N 1438.19 0.611994 1.45232 0
M  V30 14551 C 1439.42 0.115409 2.06578 0
M  V30 14552 C 1439.83 -1.20206 1.45588 0
M  V30 14553 O 1439.19 -1.73315 0.571668 0
M  V30 14554 C 1439.24 -0.0259943 3.61491 0
M  V30 14555 O 1438.96 1.23936 4.20204 0
M  V30 14556 C 1440.46 -0.553522 4.39831 0
M  V30 14557 H 1437.68 0.0708656 0.667247 0
M  V30 14558 H 1440.23 0.840977 1.86408 0
M  V30 14559 H 1438.38 -0.701909 3.80988 0
M  V30 14560 H 1438.8 1.07187 5.13431 0
M  V30 14561 H 1440.27 -0.601536 5.48713 0
M  V30 14562 H 1440.75 -1.57671 4.09923 0
M  V30 14563 H 1441.35 0.0884954 4.25208 0
M  V30 14564 N 1439.67 -1.53632 0.351409 0
M  V30 14565 C 1440.9 -2.05458 -0.243852 0
M  V30 14566 C 1441.31 -1.22588 -1.43589 0
M  V30 14567 O 1440.67 -0.263088 -1.80594 0
M  V30 14568 C 1440.72 -3.55586 -0.651226 0
M  V30 14569 O 1440.44 -4.35313 0.493415 0
M  V30 14570 C 1441.94 -4.23614 -1.30637 0
M  V30 14571 H 1439.16 -0.669443 -0.0456828 0
M  V30 14572 H 1441.71 -1.98149 0.505675 0
M  V30 14573 H 1439.86 -3.63091 -1.35068 0
M  V30 14574 H 1440.28 -5.24234 0.167107 0
M  V30 14575 H 1441.75 -5.30022 -1.5421 0
M  V30 14576 H 1442.23 -3.76449 -2.26236 0
M  V30 14577 H 1442.83 -4.20323 -0.648738 0
M  V30 14578 N 1441.15 -0.0802183 -1.57396 0
M  V30 14579 C 1442.39 0.587831 -1.94094 0
M  V30 14580 C 1442.73 1.6875 -0.961093 0
M  V30 14581 O 1442 1.94498 0.00832799 0
M  V30 14582 C 1442.28 1.15692 -3.41009 0
M  V30 14583 C 1442.14 0.0633211 -4.49755 0
M  V30 14584 C 1443.46 2.05987 -3.88918 0
M  V30 14585 H 1440.58 0.212214 -0.705786 0
M  V30 14586 H 1443.22 -0.147902 -1.89423 0
M  V30 14587 H 1441.37 1.78394 -3.4512 0
M  V30 14588 H 1443.04 -0.57019 -4.57763 0
M  V30 14589 H 1441.28 -0.605003 -4.2956 0
M  V30 14590 H 1441.95 0.502056 -5.49712 0
M  V30 14591 H 1444.43 1.5321 -3.86867 0
M  V30 14592 H 1443.31 2.42737 -4.92311 0
M  V30 14593 H 1443.57 2.97147 -3.27347 0
M  V30 14594 N 1442.63 1.56409 0.193394 0
M  V30 14595 C 1443.87 1.80724 0.913521 0
M  V30 14596 C 1444.2 0.653718 1.83185 0
M  V30 14597 O 1443.46 -0.360417 1.92353 0
M  V30 14598 C 1443.75 3.11039 1.76039 0
M  V30 14599 C 1443.42 4.39832 0.992892 0
M  V30 14600 C 1442.08 4.7482 0.780991 0
M  V30 14601 C 1444.43 5.19228 0.452985 0
M  V30 14602 C 1441.76 5.86697 0.0177286 0
M  V30 14603 C 1444.11 6.31902 -0.297075 0
M  V30 14604 C 1442.78 6.65472 -0.519977 0
M  V30 14605 H 1442.05 0.661315 0.334281 0
M  V30 14606 H 1444.7 1.90654 0.179786 0
M  V30 14607 H 1443 2.96353 2.56285 0
M  V30 14608 H 1444.7 3.27058 2.32022 0
M  V30 14609 H 1441.29 4.12376 1.16806 0
M  V30 14610 H 1445.47 4.9261 0.604092 0
M  V30 14611 H 1440.73 6.11178 -0.164925 0
M  V30 14612 H 1444.9 6.92639 -0.7228 0
M  V30 14613 H 1442.53 7.52004 -1.11331 0
M  V30 14614 N 1444.1 -0.461169 1.50702 0
M  V30 14615 C 1445.35 -1.20934 1.61425 0
M  V30 14616 C 1445.67 -1.92884 0.32481 0
M  V30 14617 O 1446.87 -2.69712 0.311081 0
M  V30 14618 C 1445.33 -2.19797 2.84987 0
M  V30 14619 C 1444.94 -1.53604 4.20844 0
M  V30 14620 C 1446.68 -2.95194 3.05059 0
M  V30 14621 C 1444.59 -2.50811 5.35582 0
M  V30 14622 H 1443.52 -0.455088 0.601174 0
M  V30 14623 H 1446.17 -0.478771 1.77144 0
M  V30 14624 H 1444.55 -2.96187 2.62848 0
M  V30 14625 H 1445.72 -0.829345 4.53275 0
M  V30 14626 H 1444.04 -0.904504 4.06457 0
M  V30 14627 H 1446.64 -3.67965 3.87951 0
M  V30 14628 H 1446.98 -3.5516 2.1718 0
M  V30 14629 H 1447.51 -2.25915 3.27425 0
M  V30 14630 H 1444.25 -1.9557 6.25646 0
M  V30 14631 H 1443.77 -3.19604 5.07556 0
M  V30 14632 H 1445.45 -3.12437 5.66561 0
M  V30 14633 N 1445.58 -1.40446 -0.715026 0
M  V30 14634 C 1446.53 -1.40756 -1.82911 0
M  V30 14635 C 1447.5 -0.264443 -1.63981 0
M  V30 14636 O 1448.68 -0.462589 -1.85107 0
M  V30 14637 C 1445.82 -1.27648 -3.20624 0
M  V30 14638 C 1444.94 -2.5167 -3.51121 0
M  V30 14639 C 1444.07 -2.31 -4.78344 0
M  V30 14640 C 1443.11 -3.50596 -5.01746 0
M  V30 14641 N 1442.25 -3.29117 -6.20183 0
M  V30 14642 H 1447.09 -2.35981 -1.8198 0
M  V30 14643 H 1444.62 -1.17201 -0.888951 0
M  V30 14644 H 1446.58 -1.18054 -4.00149 0
M  V30 14645 H 1445.21 -0.360419 -3.20782 0
M  V30 14646 H 1444.26 -2.7179 -2.66147 0
M  V30 14647 H 1445.58 -3.4069 -3.64324 0
M  V30 14648 H 1444.73 -2.18763 -5.65887 0
M  V30 14649 H 1443.47 -1.39406 -4.67351 0
M  V30 14650 H 1442.47 -3.63309 -4.12658 0
M  V30 14651 H 1443.7 -4.43117 -5.14611 0
M  V30 14652 H 1441.65 -2.40206 -6.1044 0
M  V30 14653 H 1441.56 -4.11702 -6.34064 0
M  V30 14654 H 1442.83 -3.20614 -7.10512 0
M  V30 14655 N 1447.06 0.947303 -1.25952 0
M  V30 14656 C 1447.99 2.0625 -1.09467 0
M  V30 14657 C 1448.97 1.701 -0.00160498 0
M  V30 14658 O 1450.16 1.93432 -0.172501 0
M  V30 14659 C 1447.29 3.39746 -0.720392 0
M  V30 14660 C 1446.24 3.89935 -1.76451 0
M  V30 14661 C 1445.57 5.2001 -1.24472 0
M  V30 14662 C 1446.87 4.15496 -3.16481 0
M  V30 14663 H 1448.56 2.203 -2.02752 0
M  V30 14664 H 1446.11 1.05858 -0.97622 0
M  V30 14665 H 1448.06 4.17221 -0.591972 0
M  V30 14666 H 1446.78 3.25656 0.248161 0
M  V30 14667 H 1445.44 3.14635 -1.8815 0
M  V30 14668 H 1445.09 5.02295 -0.266182 0
M  V30 14669 H 1444.79 5.54559 -1.94263 0
M  V30 14670 H 1446.31 6.00075 -1.12884 0
M  V30 14671 H 1447.73 4.83605 -3.07894 0
M  V30 14672 H 1446.12 4.61315 -3.83808 0
M  V30 14673 H 1447.19 3.21501 -3.62995 0
M  V30 14674 N 1448.54 1.07657 1.15099 0
M  V30 14675 C 1449.5 0.703558 2.18135 0
M  V30 14676 C 1450.5 -0.257771 1.5872 0
M  V30 14677 O 1451.69 -0.0383211 1.74158 0
M  V30 14678 C 1448.82 0.0374978 3.40879 0
M  V30 14679 H 1450.02 1.61583 2.52648 0
M  V30 14680 H 1447.57 0.873484 1.29615 0
M  V30 14681 H 1448.3 -0.886868 3.11938 0
M  V30 14682 H 1448.09 0.728961 3.85264 0
M  V30 14683 H 1449.58 -0.208714 4.17078 0
M  V30 14684 N 1450.02 -1.31994 0.861122 0
M  V30 14685 C 1451.43 -1.79271 0.521437 0
M  V30 14686 C 1451.78 -1.71046 -0.96113 0
M  V30 14687 O 1450.9 -1.2729 -1.75003 0
M  V30 14688 C 1451.5 -3.25507 0.939731 0
M  V30 14689 C 1450.06 -3.70713 0.651845 0
M  V30 14690 C 1449.2 -2.52967 1.13592 0
M  V30 14691 H 1452.16 -1.19201 1.0477 0
M  V30 14692 H 1452.18 -3.79619 0.258754 0
M  V30 14693 H 1451.69 -3.3146 2.0188 0
M  V30 14694 H 1449.79 -3.70268 -0.416232 0
M  V30 14695 H 1449.9 -4.63236 1.22267 0
M  V30 14696 H 1448.27 -2.48558 0.555971 0
M  V30 14697 H 1449.05 -2.61671 2.22223 0
M  V30 14698 N 1451.49 -0.619688 -1.44906 0
M  V30 14699 C 1452.72 -0.124598 -2.07025 0
M  V30 14700 C 1453.14 1.18698 -1.45919 0
M  V30 14701 O 1452.5 1.72552 -0.556366 0
M  V30 14702 C 1452.55 -0.0112238 -3.60598 0
M  V30 14703 O 1451.65 1.03582 -3.9918 0
M  V30 14704 H 1451 -0.0795631 -0.659216 0
M  V30 14705 H 1453.53 -0.853127 -1.85965 0
M  V30 14706 H 1453.54 0.183079 -4.07589 0
M  V30 14707 H 1452.21 -0.968849 -4.04458 0
M  V30 14708 H 1450.79 0.817008 -3.6384 0
M  V30 14709 N 1452.97 1.53444 -0.359552 0
M  V30 14710 C 1454.2 2.05286 0.232615 0
M  V30 14711 C 1454.61 1.23322 1.43486 0
M  V30 14712 O 1453.95 0.265369 1.81773 0
M  V30 14713 C 1454.02 3.52698 0.695995 0
M  V30 14714 C 1453.68 4.55344 -0.388751 0
M  V30 14715 C 1454.68 5.04978 -1.23667 0
M  V30 14716 C 1452.36 4.9931 -0.547267 0
M  V30 14717 C 1454.36 5.97174 -2.2285 0
M  V30 14718 C 1452.04 5.91313 -1.54247 0
M  V30 14719 C 1453.04 6.40135 -2.38153 0
M  V30 14720 O 1452.73 7.30325 -3.35976 0
M  V30 14721 H 1452.46 0.674445 0.0458187 0
M  V30 14722 H 1455.01 1.98853 -0.514472 0
M  V30 14723 H 1453.24 3.5665 1.49459 0
M  V30 14724 H 1454.93 3.8743 1.21049 0
M  V30 14725 H 1455.7 4.71763 -1.12537 0
M  V30 14726 H 1451.58 4.609 0.0960246 0
M  V30 14727 H 1455.12 6.35204 -2.88378 0
M  V30 14728 H 1451.02 6.23942 -1.65427 0
M  V30 14729 H 1451.79 7.48305 -3.31635 0
M  V30 14730 N 1454.45 0.0885642 1.57351 0
M  V30 14731 C 1455.4 -0.872723 2.13664 0
M  V30 14732 C 1456.37 -1.28418 1.05347 0
M  V30 14733 O 1457.55 -1.36709 1.33099 0
M  V30 14734 C 1454.69 -2.12886 2.71613 0
M  V30 14735 C 1453.81 -1.76852 3.94141 0
M  V30 14736 C 1452.94 -2.97203 4.40277 0
M  V30 14737 C 1451.98 -2.57265 5.55411 0
M  V30 14738 N 1451.12 -3.70429 5.96428 0
M  V30 14739 H 1455.96 -0.385644 2.95494 0
M  V30 14740 H 1453.49 -0.178688 1.46011 0
M  V30 14741 H 1455.45 -2.86441 3.03327 0
M  V30 14742 H 1454.08 -2.59105 1.92521 0
M  V30 14743 H 1453.13 -0.932921 3.68783 0
M  V30 14744 H 1454.45 -1.43481 4.77718 0
M  V30 14745 H 1453.6 -3.79019 4.7374 0
M  V30 14746 H 1452.34 -3.3378 3.55587 0
M  V30 14747 H 1451.34 -1.73875 5.21582 0
M  V30 14748 H 1452.57 -2.21839 6.41844 0
M  V30 14749 H 1450.51 -4.06737 5.14686 0
M  V30 14750 H 1450.43 -3.40881 6.74786 0
M  V30 14751 H 1451.7 -4.52774 6.3452 0
M  V30 14752 N 1455.93 -1.56509 -0.185096 0
M  V30 14753 C 1457.18 -1.80848 -0.902139 0
M  V30 14754 C 1457.5 -0.663295 -1.83372 0
M  V30 14755 O 1456.77 0.317754 -1.93306 0
M  V30 14756 H 1455.35 -0.667108 -0.336119 0
M  V30 14757 H 1458.01 -1.93989 -0.188211 0
M  V30 14758 H 1457.11 -2.74383 -1.48729 0
M  V30 14759 N 1457.41 0.45317 -1.50944 0
M  V30 14760 C 1458.63 1.22672 -1.66611 0
M  V30 14761 C 1459.05 1.85398 -0.356814 0
M  V30 14762 O 1458.41 1.70026 0.663122 0
M  V30 14763 C 1458.46 2.32238 -2.77034 0
M  V30 14764 O 1458.18 1.72081 -4.02889 0
M  V30 14765 C 1459.68 3.22802 -3.03832 0
M  V30 14766 H 1456.9 0.370337 -0.559546 0
M  V30 14767 H 1459.44 0.538884 -1.97272 0
M  V30 14768 H 1457.6 2.96765 -2.49017 0
M  V30 14769 H 1458.01 2.4437 -4.64095 0
M  V30 14770 H 1459.49 3.95851 -3.84716 0
M  V30 14771 H 1459.96 3.82636 -2.15608 0
M  V30 14772 H 1460.57 2.63993 -3.33449 0
M  V30 14773 N 1458.88 1.40823 0.707568 0
M  V30 14774 C 1460.13 1.39741 1.4697 0
M  V30 14775 C 1460.46 0.00231194 1.942 0
M  V30 14776 O 1459.74 -0.967798 1.68713 0
M  V30 14777 C 1460.02 2.39385 2.69011 0
M  V30 14778 C 1459.87 3.87953 2.27624 0
M  V30 14779 C 1461.19 2.3645 3.71186 0
M  V30 14780 H 1458.31 0.508904 0.533091 0
M  V30 14781 H 1460.95 1.72015 0.806888 0
M  V30 14782 H 1459.1 2.11993 3.25563 0
M  V30 14783 H 1460.78 4.26202 1.76492 0
M  V30 14784 H 1459.02 4.03399 1.59537 0
M  V30 14785 H 1459.69 4.53201 3.15139 0
M  V30 14786 H 1462.17 2.60731 3.24282 0
M  V30 14787 H 1461.04 3.08204 4.54204 0
M  V30 14788 H 1461.3 1.3789 4.20046 0
M  V30 14789 N 1460.36 -0.94061 1.26453 0
M  V30 14790 C 1461.6 -1.70157 1.13252 0
M  V30 14791 C 1461.97 -1.89337 -0.318684 0
M  V30 14792 O 1463.17 -2.62625 -0.57283 0
M  V30 14793 C 1461.44 -3.03896 1.88101 0
M  V30 14794 S 1463 -3.95069 1.9096 0
M  V30 14795 H 1459.82 -0.584699 0.404534 0
M  V30 14796 H 1462.42 -1.12084 1.6018 0
M  V30 14797 H 1461.12 -2.87617 2.92753 0
M  V30 14798 H 1460.65 -3.67026 1.41616 0
M  V30 14799 H 1462.67 -4.86086 0.996721 0
M  V30 14800 N 1461.84 -1.08266 -1.14527 0
M  V30 14801 C 1463.09 -0.809856 -1.85164 0
M  V30 14802 C 1463.41 0.666263 -1.83265 0
M  V30 14803 O 1462.68 1.48295 -1.28006 0
M  V30 14804 H 1461.26 -0.296598 -0.685594 0
M  V30 14805 H 1463.92 -1.36834 -1.38789 0
M  V30 14806 H 1463.02 -1.15272 -2.90032 0
M  V30 14807 N 1463.32 1.31536 -0.86811 0
M  V30 14808 C 1464.25 2.31037 -0.33822 0
M  V30 14809 C 1465.23 1.60269 0.569892 0
M  V30 14810 O 1466.42 1.87987 0.487305 0
M  V30 14811 C 1463.55 3.44203 0.462753 0
M  V30 14812 C 1462.5 4.26549 -0.3521 0
M  V30 14813 C 1461.83 5.31605 0.574443 0
M  V30 14814 C 1463.13 4.97665 -1.58516 0
M  V30 14815 H 1464.82 2.75607 -1.16967 0
M  V30 14816 H 1462.37 1.325 -0.56389 0
M  V30 14817 H 1464.32 4.12862 0.843967 0
M  V30 14818 H 1463.04 2.98396 1.32769 0
M  V30 14819 H 1461.7 3.59555 -0.715237 0
M  V30 14820 H 1461.35 4.82048 1.43661 0
M  V30 14821 H 1461.05 5.87591 0.0331436 0
M  V30 14822 H 1462.57 6.03124 0.952541 0
M  V30 14823 H 1463.99 5.58931 -1.27549 0
M  V30 14824 H 1462.38 5.63437 -2.06539 0
M  V30 14825 H 1463.45 4.24756 -2.33902 0
M  V30 14826 N 1464.8 0.627364 1.44575 0
M  V30 14827 C 1466.04 0.133615 2.03963 0
M  V30 14828 C 1466.4 -1.22005 1.48252 0
M  V30 14829 O 1467.6 -1.80569 1.99118 0
M  V30 14830 C 1465.87 0.115834 3.57212 0
M  V30 14831 S 1467.43 -0.313843 4.37676 0
M  V30 14832 H 1464.25 0.0592399 0.708528 0
M  V30 14833 H 1466.85 0.829908 1.77011 0
M  V30 14834 H 1465.56 1.10422 3.95266 0
M  V30 14835 H 1465.09 -0.601828 3.88769 0
M  V30 14836 H 1467.1 -1.55892 4.71075 0
M  V30 14837 N 1466.28 -1.53251 0.367684 0
M  V30 14838 C 1467.52 -2.00889 -0.220914 0
M  V30 14839 C 1467.84 -1.25662 -1.4911 0
M  V30 14840 O 1467.11 -0.370491 -1.92365 0
M  V30 14841 H 1465.69 -0.742191 -0.0846233 0
M  V30 14842 H 1468.36 -1.88525 0.494402 0
M  V30 14843 H 1467.45 -3.08891 -0.446414 0
M  V30 14844 N 1467.75 -0.0969077 -1.57302 0
M  V30 14845 C 1468.7 0.878876 -2.15357 0
M  V30 14846 C 1469.7 1.29091 -1.0969 0
M  V30 14847 O 1470.9 1.26523 -1.28031 0
M  V30 14848 H 1467.28 0.301458 -0.688932 0
M  V30 14849 H 1469.25 0.364542 -2.96165 0
M  V30 14850 C 1468 2.12761 -2.75006 0
M  V30 14851 H 1467.32 1.81944 -3.56 0
M  V30 14852 H 1468.76 2.79092 -3.19193 0
M  V30 14853 C 1467.22 2.90283 -1.70989 0
M  V30 14854 O 1467.75 3.84889 -1.14992 0
M  V30 14855 N 1465.95 2.53857 -1.41439 0
M  V30 14856 H 1465.5 1.76993 -1.87166 0
M  V30 14857 H 1465.46 3.06025 -0.720816 0
M  V30 14858 N 1469.23 1.56605 0.176793 0
M  V30 14859 C 1470.48 1.81682 0.894302 0
M  V30 14860 C 1470.81 0.67311 1.82481 0
M  V30 14861 O 1470.06 -0.339995 1.92724 0
M  V30 14862 C 1470.36 3.12888 1.7273 0
M  V30 14863 C 1470.03 4.40861 0.946186 0
M  V30 14864 C 1468.69 4.75622 0.730586 0
M  V30 14865 C 1471.04 5.19679 0.397889 0
M  V30 14866 C 1468.37 5.86683 -0.0444995 0
M  V30 14867 C 1470.72 6.31551 -0.36408 0
M  V30 14868 C 1469.38 6.64883 -0.59053 0
M  V30 14869 H 1468.65 0.664823 0.327248 0
M  V30 14870 H 1471.3 1.90834 0.159555 0
M  V30 14871 H 1469.61 2.99055 2.53128 0
M  V30 14872 H 1471.3 3.295 2.2854 0
M  V30 14873 H 1467.89 4.13592 1.12426 0
M  V30 14874 H 1472.08 4.93223 0.55181 0
M  V30 14875 H 1467.33 6.10968 -0.229739 0
M  V30 14876 H 1471.51 6.91833 -0.796223 0
M  V30 14877 H 1469.13 7.50781 -1.19301 0
M  V30 14878 N 1470.71 -0.445159 1.51182 0
M  V30 14879 C 1471.99 -1.20598 1.53998 0
M  V30 14880 C 1472.37 -2.08962 0.29967 0
M  V30 14881 O 1471.71 -2.17003 -0.715666 0
M  V30 14882 C 1471.92 -2.01461 2.84982 0
M  V30 14883 C 1473.27 -2.5877 3.36635 0
M  V30 14884 O 1474.3 -2.11679 2.86479 0
M  V30 14885 O 1473.16 -3.44637 4.24132 0
M  V30 14886 H 1470.25 -0.548635 0.618812 0
M  V30 14887 H 1472.8 -0.454865 1.6349 0
M  V30 14888 H 1471.57 -1.36511 3.66716 0
M  V30 14889 H 1471.19 -2.83654 2.78615 0
M  V30 14890 N 1472.19 -1.41197 -0.700089 0
M  V30 14891 C 1473.14 -1.39158 -1.80607 0
M  V30 14892 C 1474.12 -0.266653 -1.58675 0
M  V30 14893 O 1475.31 -0.506973 -1.69584 0
M  V30 14894 C 1472.44 -1.27176 -3.18875 0
M  V30 14895 C 1471.53 -2.44513 -3.46517 0
M  V30 14896 N 1471.92 -3.69984 -3.44885 0
M  V30 14897 C 1470.22 -2.38228 -3.77046 0
M  V30 14898 C 1470.92 -4.4778 -3.71306 0
M  V30 14899 N 1469.89 -3.77831 -3.90826 0
M  V30 14900 H 1473.7 -2.34093 -1.77701 0
M  V30 14901 H 1471.21 -1.35188 -0.899887 0
M  V30 14902 H 1473.21 -1.23797 -3.98095 0
M  V30 14903 H 1471.87 -0.332215 -3.22996 0
M  V30 14904 H 1472.88 -4.02932 -3.25371 0
M  V30 14905 H 1469.56 -1.52722 -3.88564 0
M  V30 14906 H 1470.95 -5.56695 -3.76218 0
M  V30 14907 N 1473.67 0.933891 -1.2695 0
M  V30 14908 C 1475.08 1.20873 -1.0422 0
M  V30 14909 C 1475.28 2.00205 0.228112 0
M  V30 14910 O 1474.34 2.34539 0.935284 0
M  V30 14911 C 1475.65 1.9629 -2.27795 0
M  V30 14912 C 1477.2 2.09254 -2.3277 0
M  V30 14913 C 1477.67 2.88075 -3.56057 0
M  V30 14914 N 1479.16 2.95646 -3.56578 0
M  V30 14915 C 1479.9 3.57082 -4.48642 0
M  V30 14916 N 1479.4 4.1996 -5.51004 0
M  V30 14917 N 1481.19 3.54425 -4.36279 0
M  V30 14918 H 1473.34 0.403735 -2.08528 0
M  V30 14919 H 1475.6 0.241189 -0.916805 0
M  V30 14920 H 1475.31 1.45412 -3.20231 0
M  V30 14921 H 1475.18 2.9693 -2.32621 0
M  V30 14922 H 1477.57 2.5932 -1.40844 0
M  V30 14923 H 1477.65 1.07854 -2.31951 0
M  V30 14924 H 1477.29 2.38693 -4.48317 0
M  V30 14925 H 1477.22 3.89746 -3.54126 0
M  V30 14926 H 1479.72 2.50951 -2.82545 0
M  V30 14927 H 1480.03 4.64758 -6.1743 0
M  V30 14928 H 1478.37 4.18525 -5.54853 0
M  V30 14929 H 1481.56 3.045 -3.55524 0
M  V30 14930 H 1481.74 4.02016 -5.0822 0
M  V30 14931 N 1475.14 1.08871 1.13951 0
M  V30 14932 C 1476.37 0.843055 1.89492 0
M  V30 14933 C 1476.79 -0.599539 1.78289 0
M  V30 14934 O 1476.15 -1.42062 1.12642 0
M  V30 14935 C 1476.2 1.27572 3.3728 0
M  V30 14936 O 1475.3 0.430611 4.10146 0
M  V30 14937 H 1474.64 0.3058 0.589391 0
M  V30 14938 H 1477.17 1.45137 1.44209 0
M  V30 14939 H 1477.18 1.25864 3.88101 0
M  V30 14940 H 1475.86 2.32635 3.44751 0
M  V30 14941 H 1474.44 0.511516 3.69375 0
M  V30 14942 N 1476.62 -1.31073 0.875073 0
M  V30 14943 C 1477.57 -2.30335 0.3238 0
M  V30 14944 C 1478.56 -1.5974 -0.563869 0
M  V30 14945 O 1479.77 -1.743 -0.449402 0
M  V30 14946 H 1476.14 -0.747062 0.0860376 0
M  V30 14947 H 1478.12 -2.743 1.17483 0
M  V30 14948 C 1476.86 -3.44705 -0.455348 0
M  V30 14949 H 1476.19 -3.99203 0.218433 0
M  V30 14950 H 1477.63 -4.16262 -0.806329 0
M  V30 14951 C 1476.09 -2.93807 -1.6486 0
M  V30 14952 O 1476.62 -2.93004 -2.74794 0
M  V30 14953 N 1474.82 -2.49944 -1.48244 0
M  V30 14954 H 1474.37 -2.50797 -0.588116 0
M  V30 14955 H 1474.33 -2.16245 -2.28222 0
M  V30 14956 N 1478.1 -0.635022 -1.4424 0
M  V30 14957 C 1479.05 0.0797218 -2.32463 0
M  V30 14958 C 1480.04 0.831818 -1.47571 0
M  V30 14959 O 1481.25 0.744277 -1.63892 0
M  V30 14960 H 1477.62 0.0445532 -0.750679 0
M  V30 14961 H 1479.59 -0.682374 -2.90493 0
M  V30 14962 C 1478.34 1.04505 -3.31623 0
M  V30 14963 H 1477.67 0.475755 -3.96959 0
M  V30 14964 H 1479.11 1.51458 -3.96026 0
M  V30 14965 C 1477.57 2.13221 -2.60842 0
M  V30 14966 O 1478.1 3.21357 -2.41025 0
M  V30 14967 N 1476.3 1.89264 -2.20516 0
M  V30 14968 H 1475.85 1.01329 -2.36834 0
M  V30 14969 H 1475.81 2.62203 -1.73484 0
M  V30 14970 N 1479.58 1.53054 -0.375806 0
M  V30 14971 C 1480.86 1.93761 0.26757 0
M  V30 14972 C 1481.24 1.31019 1.65521 0
M  V30 14973 O 1480.58 0.473138 2.23548 0
M  V30 14974 C 1480.79 3.47643 0.307505 0
M  V30 14975 C 1482.14 4.21114 0.542951 0
M  V30 14976 O 1483.17 3.54077 0.388285 0
M  V30 14977 O 1482.02 5.39929 0.8449 0
M  V30 14978 H 1479.12 0.810805 0.16286 0
M  V30 14979 H 1481.66 1.64179 -0.429334 0
M  V30 14980 H 1480.44 3.85608 -0.665001 0
M  V30 14981 H 1480.06 3.83488 1.04988 0
M  V30 14982 N 1481.06 0.105248 1.57248 0
M  V30 14983 C 1482.3 -0.556054 1.94716 0
M  V30 14984 C 1482.63 -1.67557 0.987669 0
M  V30 14985 O 1481.89 -1.95698 0.00905706 0
M  V30 14986 C 1482.19 -1.14178 3.38671 0
M  V30 14987 C 1481.85 -0.145022 4.50667 0
M  V30 14988 C 1480.51 0.129099 4.81027 0
M  V30 14989 C 1482.87 0.535015 5.18447 0
M  V30 14990 C 1480.19 1.08978 5.7649 0
M  V30 14991 C 1482.55 1.48423 6.14942 0
M  V30 14992 C 1481.21 1.76648 6.43702 0
M  V30 14993 H 1480.48 -0.203475 0.712516 0
M  V30 14994 H 1483.13 0.183237 1.90621 0
M  V30 14995 H 1481.43 -1.95754 3.39393 0
M  V30 14996 H 1483.13 -1.66132 3.64967 0
M  V30 14997 H 1479.72 -0.36886 4.2701 0
M  V30 14998 H 1483.9 0.336391 4.95159 0
M  V30 14999 H 1479.16 1.31535 5.97083 0
M  V30 15000 H 1483.33 2.01693 6.66553 0
M  V30 15001 H 1480.96 2.51245 7.17482 0
M  V30 15002 N 1482.53 -1.56697 -0.168486 0
M  V30 15003 C 1483.76 -1.86292 -0.900152 0
M  V30 15004 C 1484.18 -0.690968 -1.75702 0
M  V30 15005 O 1483.53 0.339855 -1.79308 0
M  V30 15006 C 1483.59 -3.14946 -1.77457 0
M  V30 15007 O 1483.31 -4.27625 -0.952267 0
M  V30 15008 C 1484.81 -3.57908 -2.61566 0
M  V30 15009 H 1482.03 -0.618003 -0.261369 0
M  V30 15010 H 1484.57 -2.03811 -0.16773 0
M  V30 15011 H 1482.73 -2.99246 -2.4603 0
M  V30 15012 H 1483.14 -5.01057 -1.55056 0
M  V30 15013 H 1484.61 -4.50823 -3.18532 0
M  V30 15014 H 1485.09 -2.82162 -3.36573 0
M  V30 15015 H 1485.7 -3.7623 -1.98321 0
M  V30 15016 N 1484.01 0.437135 -1.51416 0
M  V30 15017 C 1485.24 1.20898 -1.67903 0
M  V30 15018 C 1485.66 1.85009 -0.376458 0
M  V30 15019 O 1485.01 1.7072 0.645051 0
M  V30 15020 C 1485.06 2.29286 -2.79482 0
M  V30 15021 O 1484.78 1.67798 -4.04692 0
M  V30 15022 C 1486.29 3.19561 -3.07238 0
M  V30 15023 H 1483.51 0.364381 -0.563442 0
M  V30 15024 H 1486.05 0.517931 -1.97833 0
M  V30 15025 H 1484.2 2.94107 -2.5215 0
M  V30 15026 H 1484.62 2.39433 -4.6666 0
M  V30 15027 H 1486.09 3.91748 -3.88893 0
M  V30 15028 H 1486.57 3.80327 -2.19654 0
M  V30 15029 H 1487.18 2.60441 -3.3623 0
M  V30 15030 N 1485.49 1.41566 0.692592 0
M  V30 15031 C 1486.91 1.24101 1.00355 0
M  V30 15032 C 1487.11 0.132485 2.01064 0
M  V30 15033 O 1486.16 -0.502142 2.47457 0
M  V30 15034 C 1487.48 2.59142 1.52532 0
M  V30 15035 C 1489.02 2.66348 1.64401 0
M  V30 15036 C 1489.5 4.01713 2.19978 0
M  V30 15037 N 1490.99 4.03575 2.27335 0
M  V30 15038 C 1491.72 5.05118 2.71373 0
M  V30 15039 N 1491.22 6.1705 3.14994 0
M  V30 15040 N 1493.01 4.92479 2.70963 0
M  V30 15041 H 1485.16 2.12385 0.0254859 0
M  V30 15042 H 1487.43 0.945118 0.0738684 0
M  V30 15043 H 1487.13 3.41026 0.85989 0
M  V30 15044 H 1487.01 2.81833 2.50699 0
M  V30 15045 H 1489.39 1.84821 2.30055 0
M  V30 15046 H 1489.48 2.47464 0.647717 0
M  V30 15047 H 1489.12 4.8369 1.54939 0
M  V30 15048 H 1489.05 4.1794 3.20365 0
M  V30 15049 H 1491.54 3.2276 1.96556 0
M  V30 15050 H 1491.85 6.90399 3.47231 0
M  V30 15051 H 1490.2 6.20582 3.12895 0
M  V30 15052 H 1493.39 4.04117 2.36236 0
M  V30 15053 H 1493.56 5.71752 3.04965 0
M  V30 15054 N 1486.97 -0.927146 1.27443 0
M  V30 15055 C 1488.25 -1.65322 1.04538 0
M  V30 15056 C 1488.63 -2.06886 -0.419694 0
M  V30 15057 O 1487.97 -1.80352 -1.40304 0
M  V30 15058 C 1488.18 -2.85486 2.00746 0
M  V30 15059 C 1489.53 -3.56816 2.30147 0
M  V30 15060 O 1490.56 -2.95613 1.98724 0
M  V30 15061 O 1489.41 -4.67085 2.83714 0
M  V30 15062 H 1486.51 -0.724627 0.398554 0
M  V30 15063 H 1489.05 -0.977633 1.3871 0
M  V30 15064 H 1487.83 -2.51766 2.99549 0
M  V30 15065 H 1487.45 -3.60763 1.67139 0
M  V30 15066 N 1488.45 -1.09474 -1.13372 0
M  V30 15067 C 1489.4 -0.704018 -2.16858 0
M  V30 15068 C 1490.38 0.281867 -1.58412 0
M  V30 15069 O 1491.57 0.0921582 -1.7676 0
M  V30 15070 C 1488.7 -0.126682 -3.43066 0
M  V30 15071 C 1487.79 -1.13901 -4.08518 0
M  V30 15072 N 1488.18 -2.3263 -4.49129 0
M  V30 15073 C 1486.48 -0.977263 -4.35162 0
M  V30 15074 C 1487.18 -2.9703 -5.00148 0
M  V30 15075 N 1486.15 -2.24588 -4.95037 0
M  V30 15076 H 1489.96 -1.60796 -2.46012 0
M  V30 15077 H 1487.47 -0.97103 -1.30172 0
M  V30 15078 H 1489.47 0.171257 -4.16548 0
M  V30 15079 H 1488.13 0.772105 -3.15386 0
M  V30 15080 H 1489.14 -2.70218 -4.41817 0
M  V30 15081 H 1485.81 -0.1332 -4.17287 0
M  V30 15082 H 1487.2 -3.97966 -5.41362 0
M  V30 15083 N 1489.92 1.30607 -0.882012 0
M  V30 15084 C 1490.86 2.26334 -0.291222 0
M  V30 15085 C 1491.84 1.51653 0.586522 0
M  V30 15086 O 1493.02 1.80681 0.537275 0
M  V30 15087 C 1490.15 3.33584 0.586482 0
M  V30 15088 C 1489.19 4.25924 -0.221535 0
M  V30 15089 S 1490.03 5.10791 -1.6079 0
M  V30 15090 C 1491.18 6.2155 -0.736638 0
M  V30 15091 H 1491.41 2.76096 -1.10265 0
M  V30 15092 H 1488.95 1.38558 -0.681255 0
M  V30 15093 H 1490.91 3.95842 1.08715 0
M  V30 15094 H 1489.57 2.82552 1.37198 0
M  V30 15095 H 1488.76 5.02004 0.448139 0
M  V30 15096 H 1488.36 3.68225 -0.654722 0
M  V30 15097 H 1490.65 6.77483 0.0476549 0
M  V30 15098 H 1491.6 6.92696 -1.46894 0
M  V30 15099 H 1492 5.63708 -0.298853 0
M  V30 15100 N 1491.4 0.642663 1.43901 0
M  V30 15101 C 1492.65 0.152003 2.0223 0
M  V30 15102 C 1492.98 -1.22711 1.50518 0
M  V30 15103 O 1492.26 -1.817 0.693937 0
M  V30 15104 C 1492.54 0.151278 3.59782 0
M  V30 15105 C 1492.39 1.56356 4.2175 0
M  V30 15106 C 1493.71 -0.518016 4.37041 0
M  V30 15107 H 1490.83 0.0567094 0.734815 0
M  V30 15108 H 1493.47 0.821337 1.7133 0
M  V30 15109 H 1491.62 -0.418679 3.86237 0
M  V30 15110 H 1493.29 2.18329 4.06362 0
M  V30 15111 H 1491.54 2.11401 3.78803 0
M  V30 15112 H 1492.21 1.51499 5.30803 0
M  V30 15113 H 1494.68 -0.0331947 4.16087 0
M  V30 15114 H 1493.56 -0.487754 5.46729 0
M  V30 15115 H 1493.82 -1.59036 4.12504 0
M  V30 15116 N 1492.88 -1.52852 0.383918 0
M  V30 15117 C 1494.13 -2.01809 -0.200285 0
M  V30 15118 C 1494.46 -1.27009 -1.46909 0
M  V30 15119 O 1493.74 -0.369002 -1.90968 0
M  V30 15120 C 1494.02 -3.56971 -0.473672 0
M  V30 15121 C 1493.87 -4.42446 0.810048 0
M  V30 15122 C 1495.19 -4.21481 -1.26658 0
M  V30 15123 H 1492.31 -0.733541 -0.0713192 0
M  V30 15124 H 1494.95 -1.8296 0.512425 0
M  V30 15125 H 1493.1 -3.73163 -1.08081 0
M  V30 15126 H 1494.77 -4.38016 1.44706 0
M  V30 15127 H 1493.02 -4.09674 1.42652 0
M  V30 15128 H 1493.69 -5.49013 0.573478 0
M  V30 15129 H 1496.16 -4.09233 -0.752806 0
M  V30 15130 H 1495.04 -5.30037 -1.42661 0
M  V30 15131 H 1495.3 -3.78756 -2.28028 0
M  V30 15132 N 1494.36 -0.113586 -1.5719 0
M  V30 15133 C 1495.58 0.556928 -1.99783 0
M  V30 15134 C 1496.01 1.59774 -0.992669 0
M  V30 15135 O 1495.37 1.81263 0.0363821 0
M  V30 15136 C 1495.42 1.16463 -3.41275 0
M  V30 15137 O 1494.52 2.28024 -3.43626 0
M  V30 15138 H 1493.86 0.139628 -0.649153 0
M  V30 15139 H 1496.39 -0.200462 -2.03616 0
M  V30 15140 H 1496.4 1.50147 -3.79368 0
M  V30 15141 H 1495.08 0.402232 -4.1395 0
M  V30 15142 H 1493.65 1.9582 -3.17347 0
M  V30 15143 N 1495.84 1.56784 0.160173 0
M  V30 15144 C 1497.06 1.87129 0.894283 0
M  V30 15145 C 1497.49 0.701172 1.74543 0
M  V30 15146 O 1496.85 -0.349542 1.77899 0
M  V30 15147 C 1496.89 3.15969 1.73769 0
M  V30 15148 O 1496 2.98977 2.84054 0
M  V30 15149 H 1495.34 0.615192 0.249869 0
M  V30 15150 H 1497.87 2.04012 0.154956 0
M  V30 15151 H 1497.88 3.47657 2.13538 0
M  V30 15152 H 1496.55 4.00742 1.11258 0
M  V30 15153 H 1495.13 2.78668 2.47788 0
M  V30 15154 N 1497.32 -0.429099 1.51646 0
M  V30 15155 C 1498.23 -1.54648 1.76412 0
M  V30 15156 C 1499.24 -1.61455 0.648703 0
M  V30 15157 O 1500.42 -1.78544 0.931888 0
M  V30 15158 C 1497.48 -2.90562 1.89142 0
M  V30 15159 C 1496.54 -2.93804 3.13014 0
M  V30 15160 C 1495.78 -4.23235 3.25127 0
M  V30 15161 O 1496 -5.1606 2.42979 0
M  V30 15162 O 1494.93 -4.32929 4.18158 0
M  V30 15163 H 1498.76 -1.36661 2.71215 0
M  V30 15164 H 1496.34 -0.612946 1.36247 0
M  V30 15165 H 1498.23 -3.7121 1.99453 0
M  V30 15166 H 1496.9 -3.08659 0.975272 0
M  V30 15167 H 1495.81 -2.12082 3.08175 0
M  V30 15168 H 1497.14 -2.80654 4.04344 0
M  V30 15169 N 1498.79 -1.41931 -0.685074 0
M  V30 15170 C 1499.72 -1.47385 -1.81107 0
M  V30 15171 C 1500.7 -0.331433 -1.6684 0
M  V30 15172 O 1501.89 -0.544331 -1.86415 0
M  V30 15173 C 1499.02 -1.36555 -3.19327 0
M  V30 15174 C 1497.97 -2.48718 -3.48315 0
M  V30 15175 C 1497.3 -2.2295 -4.86002 0
M  V30 15176 C 1498.6 -3.91047 -3.46237 0
M  V30 15177 H 1500.29 -2.41624 -1.768 0
M  V30 15178 H 1497.84 -1.16297 -0.849178 0
M  V30 15179 H 1499.79 -1.38981 -3.97822 0
M  V30 15180 H 1498.52 -0.388063 -3.24286 0
M  V30 15181 H 1497.18 -2.45592 -2.72176 0
M  V30 15182 H 1496.82 -1.23518 -4.87598 0
M  V30 15183 H 1496.52 -2.98116 -5.0636 0
M  V30 15184 H 1498.05 -2.27108 -5.66793 0
M  V30 15185 H 1499.46 -3.95831 -4.14718 0
M  V30 15186 H 1497.86 -4.65981 -3.7813 0
M  V30 15187 H 1498.93 -4.1845 -2.45006 0
M  V30 15188 N 1500.27 0.920374 -1.27933 0
M  V30 15189 C 1501.55 1.64765 -1.05413 0
M  V30 15190 C 1501.93 2.07106 0.408717 0
M  V30 15191 O 1501.28 1.81094 1.39346 0
M  V30 15192 C 1501.49 2.84417 -2.02257 0
M  V30 15193 C 1502.83 3.5559 -2.32036 0
M  V30 15194 O 1503.86 2.94555 -2.00289 0
M  V30 15195 O 1502.72 4.65574 -2.86187 0
M  V30 15196 H 1499.81 0.722503 -0.402391 0
M  V30 15197 H 1502.36 0.970263 -1.39226 0
M  V30 15198 H 1501.13 2.50174 -3.0088 0
M  V30 15199 H 1500.75 3.59872 -1.6905 0
M  V30 15200 N 1501.75 1.10074 1.1279 0
M  V30 15201 C 1503 0.840873 1.84216 0
M  V30 15202 C 1503.32 -0.633551 1.83892 0
M  V30 15203 O 1502.58 -1.48283 1.27714 0
M  V30 15204 C 1502.88 1.32969 3.31744 0
M  V30 15205 C 1502.54 2.81489 3.52242 0
M  V30 15206 C 1501.21 3.22048 3.57545 0
M  V30 15207 C 1503.56 3.77216 3.59664 0
M  V30 15208 C 1500.89 4.57092 3.67809 0
M  V30 15209 C 1503.24 5.12057 3.71457 0
M  V30 15210 C 1501.9 5.52196 3.75014 0
M  V30 15211 H 1501.17 0.307697 0.674095 0
M  V30 15212 H 1503.82 1.37669 1.33115 0
M  V30 15213 H 1502.12 0.713819 3.85243 0
M  V30 15214 H 1503.82 1.10515 3.8547 0
M  V30 15215 H 1500.41 2.49106 3.48775 0
M  V30 15216 H 1504.6 3.4699 3.5484 0
M  V30 15217 H 1499.85 4.87618 3.68834 0
M  V30 15218 H 1504.03 5.86081 3.76142 0
M  V30 15219 H 1501.65 6.56833 3.8272 0
M  V30 15220 N 1503.23 -1.30138 0.888926 0
M  V30 15221 C 1504.48 -1.95602 0.508359 0
M  V30 15222 C 1504.8 -1.70495 -0.946377 0
M  V30 15223 O 1504.07 -1.03073 -1.66592 0
M  V30 15224 H 1502.65 -0.723728 0.185006 0
M  V30 15225 H 1505.31 -1.58594 1.13286 0
M  V30 15226 H 1504.4 -3.04559 0.681915 0
M  V30 15227 N 1504.71 -0.650285 -1.43559 0
M  V30 15228 C 1505.65 0.0550615 -2.32535 0
M  V30 15229 C 1506.65 0.81612 -1.48445 0
M  V30 15230 O 1507.85 0.726853 -1.64672 0
M  V30 15231 H 1504.23 0.0365887 -0.751109 0
M  V30 15232 H 1506.2 -0.713146 -2.89753 0
M  V30 15233 C 1504.95 1.00982 -3.32713 0
M  V30 15234 H 1504.27 0.433626 -3.97441 0
M  V30 15235 H 1505.71 1.47249 -3.9761 0
M  V30 15236 C 1504.17 2.10442 -2.63089 0
M  V30 15237 O 1504.7 3.18782 -2.44419 0
M  V30 15238 N 1502.91 1.86915 -2.22511 0
M  V30 15239 H 1502.45 0.988113 -2.37895 0
M  V30 15240 H 1502.41 2.60348 -1.76256 0
M  V30 15241 N 1506.18 1.52647 -0.392018 0
M  V30 15242 C 1507.41 2.06511 0.191815 0
M  V30 15243 C 1507.83 1.26162 1.39516 0
M  V30 15244 O 1507.19 0.287373 1.79008 0
M  V30 15245 C 1507.24 3.56571 0.537512 0
M  V30 15246 O 1506.34 3.78774 1.63106 0
M  V30 15247 H 1505.68 0.663647 0.0216546 0
M  V30 15248 H 1508.21 1.96779 -0.560274 0
M  V30 15249 H 1508.22 4.00059 0.801044 0
M  V30 15250 H 1506.9 4.14489 -0.342239 0
M  V30 15251 H 1505.48 3.47175 1.36103 0
M  V30 15252 N 1507.66 0.121921 1.57128 0
M  V30 15253 C 1508.91 -0.5299 1.96376 0
M  V30 15254 C 1509.26 -1.64103 1.00439 0
M  V30 15255 O 1508.56 -1.91568 0.0349355 0
M  V30 15256 C 1508.75 -1.10579 3.39863 0
M  V30 15257 C 1508.58 -0.051992 4.4967 0
M  V30 15258 C 1507.35 0.380828 5.03863 0
M  V30 15259 C 1509.55 0.730085 5.09092 0
M  V30 15260 N 1507.53 1.4201 5.97249 0
M  V30 15261 C 1508.9 1.62048 5.98448 0
M  V30 15262 C 1510.96 0.780651 4.91742 0
M  V30 15263 C 1509.66 2.55704 6.72315 0
M  V30 15264 C 1511.68 1.70493 5.66291 0
M  V30 15265 C 1511.05 2.5829 6.55336 0
M  V30 15266 H 1507.15 -0.163445 0.764728 0
M  V30 15267 H 1509.73 0.210716 1.93556 0
M  V30 15268 H 1507.9 -1.81612 3.43325 0
M  V30 15269 H 1509.63 -1.72217 3.66229 0
M  V30 15270 H 1506.39 -0.0121324 4.73598 0
M  V30 15271 H 1506.81 1.93874 6.48646 0
M  V30 15272 H 1511.45 0.115994 4.22641 0
M  V30 15273 H 1509.17 3.23182 7.40661 0
M  V30 15274 H 1512.76 1.74954 5.54872 0
M  V30 15275 H 1511.64 3.28647 7.12012 0
M  V30 15276 N 1509.14 -1.56867 -0.151857 0
M  V30 15277 C 1510.09 -1.97899 -1.18763 0
M  V30 15278 C 1511.06 -0.845833 -1.42951 0
M  V30 15279 O 1512.24 -1.10751 -1.55367 0
M  V30 15280 C 1509.38 -2.36063 -2.5173 0
M  V30 15281 C 1508.5 -3.62647 -2.34757 0
M  V30 15282 C 1507.63 -3.89936 -3.60726 0
M  V30 15283 C 1506.67 -5.09806 -3.38769 0
M  V30 15284 N 1505.81 -5.33129 -4.56856 0
M  V30 15285 H 1510.65 -2.86187 -0.830713 0
M  V30 15286 H 1508.18 -1.41592 -0.398745 0
M  V30 15287 H 1510.14 -2.56218 -3.29254 0
M  V30 15288 H 1508.77 -1.50861 -2.85379 0
M  V30 15289 H 1507.82 -3.50297 -1.48312 0
M  V30 15290 H 1509.14 -4.50328 -2.1449 0
M  V30 15291 H 1508.29 -4.10563 -4.4668 0
M  V30 15292 H 1507.03 -3.00668 -3.83993 0
M  V30 15293 H 1506.03 -4.89057 -2.51203 0
M  V30 15294 H 1507.26 -6.00623 -3.16906 0
M  V30 15295 H 1505.2 -4.46815 -4.80305 0
M  V30 15296 H 1505.12 -6.1507 -4.39574 0
M  V30 15297 H 1506.39 -5.5825 -5.44038 0
M  V30 15298 N 1510.62 0.421051 -1.51871 0
M  V30 15299 C 1511.53 1.5371 -1.7723 0
M  V30 15300 C 1512.54 1.61109 -0.657256 0
M  V30 15301 O 1513.72 1.78047 -0.941343 0
M  V30 15302 C 1510.79 2.89555 -1.9068 0
M  V30 15303 C 1509.85 2.9214 -3.14567 0
M  V30 15304 C 1509.08 4.21505 -3.27367 0
M  V30 15305 O 1509.3 5.14764 -2.45712 0
M  V30 15306 O 1508.24 4.30706 -4.20448 0
M  V30 15307 H 1512.06 1.35221 -2.71935 0
M  V30 15308 H 1509.65 0.605712 -1.3657 0
M  V30 15309 H 1511.53 3.70147 -2.01418 0
M  V30 15310 H 1510.2 3.08137 -0.991627 0
M  V30 15311 H 1509.11 2.10444 -3.09296 0
M  V30 15312 H 1510.44 2.78505 -4.05827 0
M  V30 15313 N 1512.1 1.42293 0.677538 0
M  V30 15314 C 1513.06 1.45258 1.77293 0
M  V30 15315 C 1514.06 0.340554 1.57152 0
M  V30 15316 O 1515.25 0.601259 1.63495 0
M  V30 15317 C 1512.38 1.28156 3.15894 0
M  V30 15318 H 1513.57 2.42787 1.76052 0
M  V30 15319 H 1511.13 1.287 0.886908 0
M  V30 15320 H 1511.86 0.315381 3.22763 0
M  V30 15321 H 1511.65 2.08744 3.31916 0
M  V30 15322 H 1513.14 1.33107 3.95818 0
M  V30 15323 N 1513.57 -0.913576 1.28419 0
M  V30 15324 C 1514.99 -1.47782 1.14094 0
M  V30 15325 C 1515.34 -1.94347 -0.269004 0
M  V30 15326 O 1514.46 -1.82474 -1.16328 0
M  V30 15327 C 1515.06 -2.6859 2.06507 0
M  V30 15328 C 1513.62 -3.21193 1.96245 0
M  V30 15329 C 1512.76 -1.939 1.98238 0
M  V30 15330 H 1515.71 -0.726271 1.41106 0
M  V30 15331 H 1515.73 -3.43858 1.62916 0
M  V30 15332 H 1515.25 -2.34668 3.09116 0
M  V30 15333 H 1513.35 -3.5984 0.966737 0
M  V30 15334 H 1513.46 -3.8643 2.83211 0
M  V30 15335 H 1511.82 -2.11006 1.42648 0
M  V30 15336 H 1512.61 -1.62273 3.02527 0
M  V30 15337 N 1515.05 -1.1067 -1.12204 0
M  V30 15338 C 1516.28 -0.872867 -1.87586 0
M  V30 15339 C 1516.7 0.57682 -1.79773 0
M  V30 15340 O 1516.05 1.39782 -1.17334 0
M  V30 15341 C 1516.1 -1.31572 -3.36706 0
M  V30 15342 O 1515.82 -2.70856 -3.44338 0
M  V30 15343 C 1517.33 -1.11613 -4.29019 0
M  V30 15344 H 1514.55 -0.313132 -0.593455 0
M  V30 15345 H 1517.09 -1.47199 -1.4196 0
M  V30 15346 H 1515.24 -0.760212 -3.79868 0
M  V30 15347 H 1515.66 -2.89854 -4.37132 0
M  V30 15348 H 1517.13 -1.4751 -5.31925 0
M  V30 15349 H 1517.61 -0.0549698 -4.39166 0
M  V30 15350 H 1518.22 -1.65822 -3.91642 0
M  V30 15351 N 1516.53 1.29665 -0.895815 0
M  V30 15352 C 1517.77 1.975 -0.526604 0
M  V30 15353 C 1518.13 1.69097 0.909403 0
M  V30 15354 O 1519.34 2.30355 1.38529 0
M  V30 15355 C 1517.61 3.48185 -0.806342 0
M  V30 15356 S 1519.17 4.35454 -0.540857 0
M  V30 15357 H 1515.98 0.68359 -0.195513 0
M  V30 15358 H 1518.59 1.57557 -1.15741 0
M  V30 15359 H 1517.29 3.6635 -1.84976 0
M  V30 15360 H 1516.82 3.9306 -0.163499 0
M  V30 15361 H 1518.84 4.92364 0.615817 0
M  V30 15362 N 1518.01 0.657889 1.43212 0
M  V30 15363 C 1519.42 0.252443 1.84985 0
M  V30 15364 C 1519.77 -1.20196 1.55072 0
M  V30 15365 O 1518.9 -1.91803 1.00202 0
M  V30 15366 C 1519.49 0.451388 3.3578 0
M  V30 15367 C 1518.05 0.100219 3.76267 0
M  V30 15368 C 1517.2 0.752009 2.66908 0
M  V30 15369 H 1520.15 0.861239 1.33298 0
M  V30 15370 H 1520.17 -0.30169 3.79302 0
M  V30 15371 H 1519.68 1.51001 3.5752 0
M  V30 15372 H 1517.78 -0.955618 3.60137 0
M  V30 15373 H 1517.89 0.528942 4.76171 0
M  V30 15374 H 1516.26 0.184823 2.54029 0
M  V30 15375 H 1517.04 1.81375 2.91476 0
M  V30 15376 N 1519.49 -1.52437 0.400108 0
M  V30 15377 C 1520.76 -1.94162 -0.23671 0
M  V30 15378 C 1521.14 -1.33636 -1.63416 0
M  V30 15379 O 1520.49 -0.508643 -2.22767 0
M  V30 15380 C 1520.7 -3.48088 -0.252159 0
M  V30 15381 C 1522.05 -4.21925 -0.475887 0
M  V30 15382 O 1523.07 -3.5465 -0.331905 0
M  V30 15383 O 1521.93 -5.41205 -0.758895 0
M  V30 15384 H 1519.03 -0.813294 -0.14994 0
M  V30 15385 H 1521.57 -1.63475 0.455399 0
M  V30 15386 H 1520.34 -3.84501 0.726263 0
M  V30 15387 H 1519.97 -3.8511 -0.988742 0
M  V30 15388 N 1520.96 -0.130252 -1.57061 0
M  V30 15389 C 1522.21 0.525784 -1.95866 0
M  V30 15390 C 1522.54 1.65607 -1.01429 0
M  V30 15391 O 1521.82 1.94426 -0.0535544 0
M  V30 15392 C 1522.1 1.04784 -3.44517 0
M  V30 15393 C 1521.95 -0.0797972 -4.49729 0
M  V30 15394 C 1523.27 1.9351 -3.95275 0
M  V30 15395 H 1520.39 0.189652 -0.71218 0
M  V30 15396 H 1523.03 -0.208091 -1.88857 0
M  V30 15397 H 1521.18 1.67324 -3.50621 0
M  V30 15398 H 1522.86 -0.715535 -4.55717 0
M  V30 15399 H 1521.1 -0.741358 -4.27418 0
M  V30 15400 H 1521.77 0.326915 -5.51031 0
M  V30 15401 H 1524.25 1.40825 -3.91545 0
M  V30 15402 H 1523.12 2.26952 -4.99784 0
M  V30 15403 H 1523.38 2.86583 -3.36634 0
M  V30 15404 N 1522.44 1.56945 0.143535 0
M  V30 15405 C 1523.67 1.88067 0.874385 0
M  V30 15406 C 1524.09 0.719645 1.73789 0
M  V30 15407 O 1523.45 -0.330654 1.78259 0
M  V30 15408 C 1523.5 3.17795 1.70408 0
M  V30 15409 O 1522.6 3.01973 2.80867 0
M  V30 15410 H 1521.94 0.617808 0.24333 0
M  V30 15411 H 1524.47 2.04165 0.133309 0
M  V30 15412 H 1524.48 3.49903 2.09838 0
M  V30 15413 H 1523.16 4.019 1.07001 0
M  V30 15414 H 1521.74 2.8128 2.44818 0
M  V30 15415 N 1523.92 -0.412991 1.52093 0
M  V30 15416 C 1525.15 -1.18212 1.69805 0
M  V30 15417 C 1525.56 -1.84386 0.405844 0
M  V30 15418 O 1524.92 -1.71725 -0.617809 0
M  V30 15419 C 1524.97 -2.24811 2.83094 0
M  V30 15420 O 1524.69 -1.61338 4.0731 0
M  V30 15421 C 1526.19 -3.14633 3.12283 0
M  V30 15422 H 1523.41 -0.355371 0.569168 0
M  V30 15423 H 1525.96 -0.486392 1.98632 0
M  V30 15424 H 1524.11 -2.90058 2.56797 0
M  V30 15425 H 1524.53 -2.31979 4.7041 0
M  V30 15426 H 1526 -3.85511 3.95076 0
M  V30 15427 H 1526.48 -3.76785 2.25677 0
M  V30 15428 H 1527.08 -2.55059 3.40331 0
M  V30 15429 N 1525.4 -1.4265 -0.669982 0
M  V30 15430 C 1526.35 -1.46746 -1.80467 0
M  V30 15431 C 1527.34 -0.342698 -1.65897 0
M  V30 15432 O 1528.55 -0.515933 -1.72447 0
M  V30 15433 H 1524.92 -0.4597 -0.59513 0
M  V30 15434 H 1526.89 -2.42325 -1.7413 0
M  V30 15435 C 1525.64 -1.39141 -3.18646 0
M  V30 15436 H 1524.97 -2.24987 -3.30486 0
M  V30 15437 H 1526.41 -1.46068 -3.98045 0
M  V30 15438 C 1524.86 -0.106802 -3.36731 0
M  V30 15439 O 1525.39 0.838535 -3.9285 0
M  V30 15440 N 1523.6 -0.0223958 -2.90591 0
M  V30 15441 H 1523.15 -0.792469 -2.45108 0
M  V30 15442 H 1523.11 0.836462 -3.03069 0
M  V30 15443 N 1526.88 0.906753 -1.28902 0
M  V30 15444 C 1528.29 1.47175 -1.14876 0
M  V30 15445 C 1528.64 1.94487 0.258693 0
M  V30 15446 O 1527.76 1.83088 1.15359 0
M  V30 15447 C 1528.36 2.67491 -2.07928 0
M  V30 15448 C 1526.92 3.20148 -1.97946 0
M  V30 15449 C 1526.07 1.92846 -1.99263 0
M  V30 15450 H 1529.02 0.718777 -1.4149 0
M  V30 15451 H 1529.04 3.42989 -1.64738 0
M  V30 15452 H 1528.55 2.33025 -3.10356 0
M  V30 15453 H 1526.65 3.59322 -0.985806 0
M  V30 15454 H 1526.76 3.84923 -2.85256 0
M  V30 15455 H 1525.13 2.10247 -1.43765 0
M  V30 15456 H 1525.91 1.60666 -3.03383 0
M  V30 15457 N 1528.36 1.11264 1.11616 0
M  V30 15458 C 1529.27 0.781961 2.21184 0
M  V30 15459 C 1530.28 -0.224149 1.7255 0
M  V30 15460 O 1531.46 -0.0607743 2.01308 0
M  V30 15461 C 1528.52 0.228031 3.45949 0
M  V30 15462 C 1527.58 1.29251 4.09381 0
M  V30 15463 C 1526.82 0.764921 5.2819 0
M  V30 15464 O 1527.04 -0.405671 5.68956 0
M  V30 15465 O 1525.97 1.52886 5.82159 0
M  V30 15466 H 1529.8 1.69678 2.51879 0
M  V30 15467 H 1527.38 0.888394 1.20116 0
M  V30 15468 H 1529.27 -0.0766085 4.2133 0
M  V30 15469 H 1527.94 -0.659519 3.1691 0
M  V30 15470 H 1526.85 1.65014 3.3574 0
M  V30 15471 H 1528.18 2.15339 4.42595 0
M  V30 15472 N 1529.83 -1.29188 0.902679 0
M  V30 15473 C 1531.24 -1.77521 0.578207 0
M  V30 15474 C 1531.6 -1.74017 -0.906227 0
M  V30 15475 O 1530.72 -1.32793 -1.70865 0
M  V30 15476 C 1531.32 -3.22352 1.04281 0
M  V30 15477 C 1529.87 -3.68451 0.769454 0
M  V30 15478 C 1529.02 -2.49225 1.21583 0
M  V30 15479 H 1531.97 -1.15807 1.0851 0
M  V30 15480 H 1531.99 -3.78604 0.379396 0
M  V30 15481 H 1531.51 -3.2487 2.12323 0
M  V30 15482 H 1529.61 -3.71405 -0.298223 0
M  V30 15483 H 1529.72 -4.59112 1.36943 0
M  V30 15484 H 1528.08 -2.46663 0.634766 0
M  V30 15485 H 1528.87 -2.54469 2.30436 0
M  V30 15486 N 1531.31 -0.665475 -1.42861 0
M  V30 15487 C 1532.55 -0.187645 -2.03537 0
M  V30 15488 C 1532.92 1.18032 -1.51435 0
M  V30 15489 O 1534.12 1.75227 -2.03836 0
M  V30 15490 C 1532.39 -0.210502 -3.5678 0
M  V30 15491 S 1533.95 0.197691 -4.38354 0
M  V30 15492 H 1530.76 -0.0780044 -0.706708 0
M  V30 15493 H 1533.37 -0.876548 -1.74748 0
M  V30 15494 H 1532.07 -1.20863 -3.92199 0
M  V30 15495 H 1531.6 0.498541 -3.90228 0
M  V30 15496 H 1533.62 1.43348 -4.75043 0
M  V30 15497 N 1532.79 1.52222 -0.408187 0
M  V30 15498 C 1534.01 2.06703 0.169901 0
M  V30 15499 C 1534.44 1.27635 1.3817 0
M  V30 15500 O 1533.8 0.306343 1.78693 0
M  V30 15501 C 1533.85 3.57121 0.499663 0
M  V30 15502 O 1532.95 3.80483 1.5908 0
M  V30 15503 H 1532.29 0.663839 0.0146145 0
M  V30 15504 H 1534.82 1.96174 -0.581113 0
M  V30 15505 H 1534.83 4.00886 0.758567 0
M  V30 15506 H 1533.51 4.14103 -0.386182 0
M  V30 15507 H 1532.08 3.48599 1.32413 0
M  V30 15508 N 1534.27 0.138579 1.5699 0
M  V30 15509 C 1535.2 -0.800568 2.19347 0
M  V30 15510 C 1536.18 -1.26318 1.13921 0
M  V30 15511 O 1537.36 -1.32226 1.42232 0
M  V30 15512 C 1534.49 -2.04317 2.80842 0
M  V30 15513 C 1533.45 -1.71764 3.92022 0
M  V30 15514 C 1532.77 -3.03217 4.40413 0
M  V30 15515 C 1534.07 -0.970789 5.13199 0
M  V30 15516 H 1535.77 -0.280888 2.98079 0
M  V30 15517 H 1533.31 -0.133663 1.43378 0
M  V30 15518 H 1535.27 -2.70491 3.2313 0
M  V30 15519 H 1533.99 -2.58643 1.99428 0
M  V30 15520 H 1532.65 -1.07972 3.50339 0
M  V30 15521 H 1532.3 -3.55517 3.55832 0
M  V30 15522 H 1532 -2.82203 5.15398 0
M  V30 15523 H 1533.52 -3.70477 4.85365 0
M  V30 15524 H 1534.94 -1.53445 5.52384 0
M  V30 15525 H 1533.33 -0.860895 5.93893 0
M  V30 15526 H 1534.4 0.0390088 4.84884 0
M  V30 15527 N 1535.75 -1.57019 -0.13521 0
M  V30 15528 C 1536.69 -2.0011 -1.18569 0
M  V30 15529 C 1537.69 -0.895372 -1.43804 0
M  V30 15530 O 1538.89 -1.08057 -1.43957 0
M  V30 15531 H 1535.27 -0.637176 -0.399388 0
M  V30 15532 H 1537.24 -2.87597 -0.795636 0
M  V30 15533 C 1535.99 -2.40769 -2.50849 0
M  V30 15534 H 1535.31 -3.25412 -2.32265 0
M  V30 15535 H 1536.75 -2.74733 -3.22951 0
M  V30 15536 C 1535.21 -1.26494 -3.12251 0
M  V30 15537 O 1535.74 -0.572067 -3.97606 0
M  V30 15538 N 1533.95 -1.02615 -2.7188 0
M  V30 15539 H 1533.49 -1.59136 -2.02567 0
M  V30 15540 H 1533.45 -0.263464 -3.13294 0
M  V30 15541 N 1537.22 0.404919 -1.52309 0
M  V30 15542 C 1538.64 0.983553 -1.58692 0
M  V30 15543 C 1538.99 1.9143 -0.429993 0
M  V30 15544 O 1538.11 2.11689 0.449088 0
M  V30 15545 C 1538.71 1.79059 -2.87617 0
M  V30 15546 C 1537.27 2.31918 -2.96464 0
M  V30 15547 C 1536.41 1.12018 -2.53667 0
M  V30 15548 H 1539.36 0.185007 -1.57618 0
M  V30 15549 H 1539.38 2.64836 -2.73207 0
M  V30 15550 H 1538.9 1.11291 -3.71801 0
M  V30 15551 H 1537 3.03044 -2.16783 0
M  V30 15552 H 1537.11 2.62495 -4.00791 0
M  V30 15553 H 1535.47 1.47542 -2.07614 0
M  V30 15554 H 1536.26 0.458111 -3.4023 0
M  V30 15555 N 1538.7 1.43003 0.662408 0
M  V30 15556 C 1539.65 1.43898 1.76854 0
M  V30 15557 C 1540.64 0.308629 1.57912 0
M  V30 15558 O 1541.83 0.551757 1.6818 0
M  V30 15559 C 1538.96 1.35585 3.15391 0
M  V30 15560 C 1538.04 2.53614 3.39913 0
M  V30 15561 N 1538.43 3.78998 3.34954 0
M  V30 15562 C 1536.73 2.48141 3.70597 0
M  V30 15563 C 1537.43 4.57467 3.59303 0
M  V30 15564 N 1536.41 3.8806 3.80671 0
M  V30 15565 H 1540.21 2.38722 1.71432 0
M  V30 15566 H 1537.73 1.37526 0.863728 0
M  V30 15567 H 1539.72 1.34308 3.94673 0
M  V30 15568 H 1538.38 0.417735 3.22002 0
M  V30 15569 H 1539.39 4.11417 3.14574 0
M  V30 15570 H 1536.07 1.62971 3.84379 0
M  V30 15571 H 1537.46 5.66475 3.61326 0
M  V30 15572 N 1540.18 -0.899904 1.29381 0
M  V30 15573 C 1541.6 -1.18067 1.07388 0
M  V30 15574 C 1541.8 -2.00739 -0.174951 0
M  V30 15575 O 1540.85 -2.36937 -0.872771 0
M  V30 15576 C 1542.17 -1.90182 2.32919 0
M  V30 15577 C 1543.71 -2.03009 2.38236 0
M  V30 15578 C 1544.19 -2.78533 3.6357 0
M  V30 15579 N 1545.68 -2.86088 3.64291 0
M  V30 15580 C 1546.41 -3.45062 4.57952 0
M  V30 15581 N 1545.91 -4.05204 5.61945 0
M  V30 15582 N 1547.7 -3.42734 4.45522 0
M  V30 15583 H 1539.85 -0.348306 2.09525 0
M  V30 15584 H 1542.12 -0.216796 0.922878 0
M  V30 15585 H 1541.82 -1.36871 3.23974 0
M  V30 15586 H 1541.7 -2.90658 2.40412 0
M  V30 15587 H 1544.08 -2.55495 1.47669 0
M  V30 15588 H 1544.17 -1.01666 2.34729 0
M  V30 15589 H 1543.81 -2.26723 4.54488 0
M  V30 15590 H 1543.74 -3.8022 3.64335 0
M  V30 15591 H 1546.23 -2.43372 2.891 0
M  V30 15592 H 1546.54 -4.48225 6.29535 0
M  V30 15593 H 1544.89 -4.03667 5.65755 0
M  V30 15594 H 1548.08 -2.94967 3.63472 0
M  V30 15595 H 1548.25 -3.884 5.187 0
M  V30 15596 N 1541.66 -1.11854 -1.11024 0
M  V30 15597 C 1543.07 -0.853341 -1.34871 0
M  V30 15598 C 1543.27 0.519725 -1.94682 0
M  V30 15599 O 1542.33 1.26966 -2.18256 0
M  V30 15600 C 1543.64 -1.9649 -2.27623 0
M  V30 15601 C 1545.19 -1.99507 -2.41176 0
M  V30 15602 C 1545.67 -3.09879 -3.37253 0
M  V30 15603 N 1547.16 -3.09281 -3.44818 0
M  V30 15604 C 1547.89 -3.91322 -4.19111 0
M  V30 15605 N 1547.39 -4.83337 -4.96344 0
M  V30 15606 N 1549.18 -3.79483 -4.14667 0
M  V30 15607 H 1541.33 -2.00335 -0.70567 0
M  V30 15608 H 1543.6 -0.871431 -0.373245 0
M  V30 15609 H 1543.3 -2.95397 -1.90875 0
M  V30 15610 H 1543.18 -1.86481 -3.27879 0
M  V30 15611 H 1545.56 -1.01223 -2.77196 0
M  V30 15612 H 1545.64 -2.13592 -1.40756 0
M  V30 15613 H 1545.29 -4.08391 -3.01959 0
M  V30 15614 H 1545.22 -2.93033 -4.37537 0
M  V30 15615 H 1547.71 -2.42617 -2.89733 0
M  V30 15616 H 1548.02 -5.42462 -5.50413 0
M  V30 15617 H 1546.37 -4.87356 -4.95489 0
M  V30 15618 H 1549.56 -3.06938 -3.53421 0
M  V30 15619 H 1549.73 -4.43653 -4.72309 0
M  V30 15620 N 1543.14 1.28707 -0.909517 0
M  V30 15621 C 1544.36 1.99821 -0.555557 0
M  V30 15622 C 1544.79 1.67549 0.854931 0
M  V30 15623 O 1544.14 0.905521 1.57067 0
M  V30 15624 C 1544.19 3.52361 -0.766438 0
M  V30 15625 O 1543.3 4.12022 0.17654 0
M  V30 15626 H 1542.64 0.627918 -0.215905 0
M  V30 15627 H 1545.17 1.63965 -1.2238 0
M  V30 15628 H 1545.18 4.02379 -0.674894 0
M  V30 15629 H 1543.85 3.75184 -1.7947 0
M  V30 15630 H 1542.43 3.72882 0.0366216 0
M  V30 15631 N 1544.61 0.673042 1.42506 0
M  V30 15632 C 1545.86 0.203538 2.02379 0
M  V30 15633 C 1546.22 -1.17624 1.52258 0
M  V30 15634 O 1545.51 -1.77787 0.714297 0
M  V30 15635 C 1545.7 0.175896 3.56967 0
M  V30 15636 C 1545.53 1.55145 4.2209 0
M  V30 15637 C 1544.3 2.14878 4.57335 0
M  V30 15638 C 1546.5 2.49378 4.49794 0
M  V30 15639 N 1544.48 3.45232 5.0763 0
M  V30 15640 C 1545.85 3.64385 5.01621 0
M  V30 15641 C 1547.91 2.4793 4.31781 0
M  V30 15642 C 1546.61 4.78196 5.37328 0
M  V30 15643 C 1548.64 3.60836 4.68563 0
M  V30 15644 C 1548 4.74571 5.2054 0
M  V30 15645 H 1544.1 0.119362 0.772837 0
M  V30 15646 H 1546.68 0.885648 1.73391 0
M  V30 15647 H 1544.85 -0.475621 3.85477 0
M  V30 15648 H 1546.58 -0.306326 4.03539 0
M  V30 15649 H 1543.34 1.67385 4.43034 0
M  V30 15650 H 1543.76 4.1199 5.37209 0
M  V30 15651 H 1548.41 1.61227 3.90853 0
M  V30 15652 H 1546.12 5.65576 5.77191 0
M  V30 15653 H 1549.71 3.60941 4.56304 0
M  V30 15654 H 1548.59 5.6049 5.48471 0
M  V30 15655 N 1546.09 -1.52004 0.416254 0
M  V30 15656 C 1547.06 -2.2579 -0.393882 0
M  V30 15657 C 1548.06 -1.28427 -0.967637 0
M  V30 15658 O 1549.25 -1.52311 -0.845396 0
M  V30 15659 C 1546.38 -3.03361 -1.55515 0
M  V30 15660 H 1547.57 -2.98835 0.252492 0
M  V30 15661 H 1545.12 -1.55384 0.168929 0
M  V30 15662 H 1545.86 -2.34682 -2.23818 0
M  V30 15663 H 1545.64 -3.74852 -1.15015 0
M  V30 15664 H 1547.13 -3.5931 -2.12805 0
M  V30 15665 N 1547.57 -0.146903 -1.56914 0
M  V30 15666 C 1548.48 0.805875 -2.20324 0
M  V30 15667 C 1549.5 1.27178 -1.18751 0
M  V30 15668 O 1550.67 1.32899 -1.51327 0
M  V30 15669 C 1547.74 2.02755 -2.81232 0
M  V30 15670 C 1546.8 1.61089 -3.97931 0
M  V30 15671 C 1546.03 2.77433 -4.55924 0
M  V30 15672 O 1546.25 3.93643 -4.12797 0
M  V30 15673 O 1545.19 2.52911 -5.46187 0
M  V30 15674 H 1549.01 0.296098 -3.02253 0
M  V30 15675 H 1546.6 0.0801175 -1.49185 0
M  V30 15676 H 1548.48 2.74252 -3.19944 0
M  V30 15677 H 1547.16 2.52686 -2.02316 0
M  V30 15678 H 1546.06 0.86616 -3.63935 0
M  V30 15679 H 1547.4 1.15874 -4.78366 0
M  V30 15680 N 1549.05 1.57088 0.126881 0
M  V30 15681 C 1550 1.99764 1.15599 0
M  V30 15682 C 1550.97 0.868468 1.41587 0
M  V30 15683 O 1552.15 1.13209 1.53585 0
M  V30 15684 C 1549.29 2.40038 2.47943 0
M  V30 15685 C 1548.4 3.66336 2.28958 0
M  V30 15686 C 1547.54 3.95626 3.54477 0
M  V30 15687 C 1546.58 5.15131 3.30616 0
M  V30 15688 N 1545.71 5.4033 4.48317 0
M  V30 15689 H 1550.55 2.87473 0.785078 0
M  V30 15690 H 1548.09 1.42209 0.376169 0
M  V30 15691 H 1550.05 2.61423 3.25136 0
M  V30 15692 H 1548.68 1.55382 2.82942 0
M  V30 15693 H 1547.73 3.52612 1.4272 0
M  V30 15694 H 1549.04 4.53684 2.07298 0
M  V30 15695 H 1548.2 4.17617 4.40092 0
M  V30 15696 H 1546.94 3.06738 3.79161 0
M  V30 15697 H 1545.94 4.92992 2.43391 0
M  V30 15698 H 1547.17 6.05588 3.0731 0
M  V30 15699 H 1545.11 4.54399 4.73136 0
M  V30 15700 H 1545.03 6.21985 4.29733 0
M  V30 15701 H 1546.3 5.66835 5.35088 0
M  V30 15702 N 1550.53 -0.396836 1.52522 0
M  V30 15703 C 1551.46 -1.50361 1.72986 0
M  V30 15704 C 1552.47 -1.50928 0.610289 0
M  V30 15705 O 1553.66 -1.54972 0.88578 0
M  V30 15706 C 1550.76 -2.89229 1.76635 0
M  V30 15707 C 1549.93 -3.12715 3.05824 0
M  V30 15708 C 1548.99 -4.31523 3.01122 0
M  V30 15709 O 1548.02 -4.28207 3.75004 0
M  V30 15710 N 1549.22 -5.37294 2.19763 0
M  V30 15711 H 1551.99 -1.33196 2.68475 0
M  V30 15712 H 1549.55 -0.586269 1.50912 0
M  V30 15713 H 1551.54 -3.66796 1.71006 0
M  V30 15714 H 1550.11 -2.99791 0.885667 0
M  V30 15715 H 1549.33 -2.23083 3.25004 0
M  V30 15716 H 1550.62 -3.25257 3.91261 0
M  V30 15717 H 1550.01 -5.4284 1.5919 0
M  V30 15718 H 1548.57 -6.13557 2.19981 0
M  V30 15719 N 1552.01 -1.43353 -0.654814 0
M  V30 15720 C 1553.25 -1.46387 -1.42654 0
M  V30 15721 C 1553.61 -0.0850538 -1.91812 0
M  V30 15722 O 1554.81 0.00990964 -2.68798 0
M  V30 15723 C 1553.08 -2.47594 -2.57744 0
M  V30 15724 S 1554.64 -2.69491 -3.46295 0
M  V30 15725 H 1551.46 -0.518053 -0.486972 0
M  V30 15726 H 1554.06 -1.80107 -0.760382 0
M  V30 15727 H 1552.76 -3.46513 -2.19902 0
M  V30 15728 H 1552.3 -2.15367 -3.29212 0
M  V30 15729 H 1554.31 -1.99297 -4.54418 0
M  V30 15730 N 1553.48 0.89303 -1.29857 0
M  V30 15731 C 1554.71 1.6827 -1.21243 0
M  V30 15732 C 1555.13 1.86778 0.222621 0
M  V30 15733 O 1554.49 1.39291 1.1605 0
M  V30 15734 C 1554.54 3.041 -1.93792 0
M  V30 15735 O 1553.64 3.92696 -1.25951 0
M  V30 15736 H 1552.98 0.514479 -0.419771 0
M  V30 15737 H 1555.51 1.11513 -1.7154 0
M  V30 15738 H 1555.52 3.54198 -2.02504 0
M  V30 15739 H 1554.2 2.89948 -2.98166 0
M  V30 15740 H 1552.78 3.51132 -1.25541 0
M  V30 15741 N 1554.96 1.12442 1.10429 0
M  V30 15742 C 1556.21 0.874466 1.81758 0
M  V30 15743 C 1556.52 -0.601487 1.86122 0
M  V30 15744 O 1557.73 -0.968037 2.53656 0
M  V30 15745 C 1556.19 1.51478 3.2647 0
M  V30 15746 C 1555.79 3.02552 3.30403 0
M  V30 15747 C 1557.54 1.34511 4.02625 0
M  V30 15748 C 1555.44 3.59518 4.69575 0
M  V30 15749 H 1554.37 0.323494 0.681078 0
M  V30 15750 H 1557.03 1.35091 1.24188 0
M  V30 15751 H 1555.41 0.966 3.84037 0
M  V30 15752 H 1556.58 3.63924 2.82659 0
M  V30 15753 H 1554.9 3.18917 2.67733 0
M  V30 15754 H 1557.49 1.74492 5.05427 0
M  V30 15755 H 1557.84 0.288788 4.15297 0
M  V30 15756 H 1558.37 1.86311 3.51473 0
M  V30 15757 H 1555.11 4.6491 4.62103 0
M  V30 15758 H 1554.63 3.02922 5.17686 0
M  V30 15759 H 1556.31 3.58581 5.38543 0
M  V30 15760 N 1556.44 -1.28223 0.91633 0
M  V30 15761 C 1557.37 -2.29623 0.423735 0
M  V30 15762 C 1558.35 -1.62274 -0.510016 0
M  V30 15763 O 1559.54 -1.89666 -0.4172 0
M  V30 15764 C 1556.67 -3.45684 -0.334686 0
M  V30 15765 C 1555.62 -4.24949 0.510169 0
M  V30 15766 C 1554.95 -5.33371 -0.376745 0
M  V30 15767 C 1556.25 -4.91438 1.76877 0
M  V30 15768 H 1557.94 -2.71076 1.27115 0
M  V30 15769 H 1555.49 -1.30316 0.612678 0
M  V30 15770 H 1557.44 -4.1571 -0.690154 0
M  V30 15771 H 1556.16 -3.03118 -1.21603 0
M  V30 15772 H 1554.82 -3.56653 0.848191 0
M  V30 15773 H 1554.47 -4.87048 -1.25671 0
M  V30 15774 H 1554.17 -5.87309 0.18496 0
M  V30 15775 H 1555.69 -6.06244 -0.728039 0
M  V30 15776 H 1557.11 -5.53812 1.48205 0
M  V30 15777 H 1555.5 -5.55384 2.27308 0
M  V30 15778 H 1556.57 -4.15783 2.49505 0
M  V30 15779 N 1557.92 -0.68059 -1.42147 0
M  V30 15780 C 1558.86 -0.00585926 -2.30799 0
M  V30 15781 C 1559.83 0.786778 -1.46284 0
M  V30 15782 O 1561.02 0.757853 -1.75103 0
M  V30 15783 C 1558.16 0.935319 -3.32183 0
M  V30 15784 C 1557.27 0.13589 -4.31786 0
M  V30 15785 C 1556.41 1.07335 -5.20243 0
M  V30 15786 C 1555.45 0.265943 -6.11522 0
M  V30 15787 N 1554.58 1.15641 -6.92511 0
M  V30 15788 H 1559.42 -0.767651 -2.87943 0
M  V30 15789 H 1556.96 -0.39029 -1.41828 0
M  V30 15790 H 1558.92 1.49489 -3.89498 0
M  V30 15791 H 1557.55 1.66368 -2.76626 0
M  V30 15792 H 1556.6 -0.540383 -3.76542 0
M  V30 15793 H 1557.91 -0.490716 -4.9638 0
M  V30 15794 H 1557.07 1.70265 -5.82319 0
M  V30 15795 H 1555.81 1.73383 -4.55839 0
M  V30 15796 H 1554.81 -0.376531 -5.48509 0
M  V30 15797 H 1556.04 -0.39053 -6.77976 0
M  V30 15798 H 1553.98 1.80319 -6.30731 0
M  V30 15799 H 1553.9 0.585022 -7.53733 0
M  V30 15800 H 1555.17 1.773 -7.59069 0
M  V30 15801 N 1559.4 1.51781 -0.424309 0
M  V30 15802 C 1560.62 2.06871 0.147968 0
M  V30 15803 C 1561.05 1.29093 1.36808 0
M  V30 15804 O 1560.4 0.325279 1.78358 0
M  V30 15805 C 1560.45 3.57631 0.461757 0
M  V30 15806 O 1559.56 3.82149 1.55035 0
M  V30 15807 H 1558.9 0.663957 0.00757275 0
M  V30 15808 H 1561.43 1.95547 -0.601888 0
M  V30 15809 H 1561.44 4.01668 0.716005 0
M  V30 15810 H 1560.11 4.1367 -0.430081 0
M  V30 15811 H 1558.69 3.49984 1.28709 0
M  V30 15812 N 1560.87 0.155222 1.56834 0
M  V30 15813 C 1562.1 -0.503763 2.01189 0
M  V30 15814 C 1562.52 -1.57086 1.03468 0
M  V30 15815 O 1561.88 -1.81296 0.0116895 0
M  V30 15816 C 1561.93 -1.07373 3.44243 0
M  V30 15817 O 1561.03 -2.18834 3.49551 0
M  V30 15818 H 1560.37 -0.122368 0.652627 0
M  V30 15819 H 1562.9 0.254377 2.03013 0
M  V30 15820 H 1562.91 -1.40036 3.83215 0
M  V30 15821 H 1561.59 -0.292339 4.14871 0
M  V30 15822 H 1560.17 -1.87337 3.22427 0
M  V30 15823 N 1562.35 -1.57153 -0.118549 0
M  V30 15824 C 1563.6 -1.8515 -0.82748 0
M  V30 15825 C 1563.93 -0.741026 -1.79506 0
M  V30 15826 O 1563.21 0.253095 -1.92846 0
M  V30 15827 C 1563.49 -3.23734 -1.57698 0
M  V30 15828 C 1563.34 -4.45381 -0.628967 0
M  V30 15829 C 1564.66 -3.59895 -2.53305 0
M  V30 15830 H 1561.78 -0.673459 -0.29937 0
M  V30 15831 H 1564.42 -1.89778 -0.0917198 0
M  V30 15832 H 1562.57 -3.19919 -2.20418 0
M  V30 15833 H 1564.24 -4.61299 -0.0105746 0
M  V30 15834 H 1562.49 -4.33759 0.059462 0
M  V30 15835 H 1563.16 -5.3902 -1.19004 0
M  V30 15836 H 1565.63 -3.64503 -2.0069 0
M  V30 15837 H 1564.51 -4.57839 -3.02778 0
M  V30 15838 H 1564.77 -2.87338 -3.3599 0
M  V30 15839 N 1563.83 0.388742 -1.5273 0
M  V30 15840 C 1565.08 1.13375 -1.67787 0
M  V30 15841 C 1565.4 1.89957 -0.417925 0
M  V30 15842 O 1564.66 1.86286 0.599682 0
M  V30 15843 C 1564.96 2.13792 -2.86405 0
M  V30 15844 C 1564.62 1.53865 -4.23835 0
M  V30 15845 C 1563.29 1.37248 -4.61212 0
M  V30 15846 C 1565.64 1.10298 -5.09395 0
M  V30 15847 C 1562.97 0.756119 -5.81807 0
M  V30 15848 C 1565.32 0.500723 -6.30615 0
M  V30 15849 C 1563.98 0.321851 -6.66724 0
M  V30 15850 H 1563.25 0.414868 -0.613975 0
M  V30 15851 H 1565.9 0.418351 -1.86874 0
M  V30 15852 H 1564.2 2.91551 -2.61735 0
M  V30 15853 H 1565.9 2.71346 -2.95249 0
M  V30 15854 H 1562.49 1.67787 -3.94393 0
M  V30 15855 H 1566.68 1.21938 -4.81087 0
M  V30 15856 H 1561.93 0.605734 -6.08392 0
M  V30 15857 H 1566.11 0.154839 -6.96228 0
M  V30 15858 H 1563.73 -0.157836 -7.60036 0
M  V30 15859 N 1565.31 1.43698 0.647203 0
M  V30 15860 C 1566.53 1.49301 1.43958 0
M  V30 15861 C 1566.96 0.11395 1.87755 0
M  V30 15862 O 1566.32 -0.893571 1.5775 0
M  V30 15863 C 1566.36 2.44905 2.64677 0
M  V30 15864 O 1565.47 1.93947 3.63948 0
M  V30 15865 H 1564.81 0.504771 0.431396 0
M  V30 15866 H 1567.34 1.88673 0.791432 0
M  V30 15867 H 1567.35 2.62409 3.12419 0
M  V30 15868 H 1566.02 3.45083 2.32143 0
M  V30 15869 H 1564.6 1.86133 3.23124 0
M  V30 15870 N 1566.79 -0.886131 1.30328 0
M  V30 15871 C 1568.04 -1.63255 1.18451 0
M  V30 15872 C 1568.35 -1.93864 -0.260016 0
M  V30 15873 O 1569.55 -2.66851 -0.500288 0
M  V30 15874 C 1568.01 -2.94232 2.07257 0
M  V30 15875 C 1567.62 -2.71168 3.56612 0
M  V30 15876 C 1569.36 -3.72193 2.04139 0
M  V30 15877 C 1567.27 -3.97954 4.37478 0
M  V30 15878 H 1566.2 -0.612491 0.439739 0
M  V30 15879 H 1568.85 -0.981129 1.55068 0
M  V30 15880 H 1567.23 -3.60661 1.63522 0
M  V30 15881 H 1568.41 -2.13247 4.08488 0
M  V30 15882 H 1566.72 -2.06584 3.61541 0
M  V30 15883 H 1569.32 -4.66219 2.61809 0
M  V30 15884 H 1569.66 -4.03495 1.02459 0
M  V30 15885 H 1570.19 -3.12624 2.45989 0
M  V30 15886 H 1566.93 -3.71811 5.39849 0
M  V30 15887 H 1566.45 -4.55384 3.90366 0
M  V30 15888 H 1568.13 -4.65984 4.48852 0
M  V30 15889 N 1568.26 -1.13026 -1.09832 0
M  V30 15890 C 1569.5 -0.8996 -1.83539 0
M  V30 15891 C 1569.87 0.564226 -1.83522 0
M  V30 15892 O 1571.07 0.912286 -2.52845 0
M  V30 15893 C 1569.34 -1.46624 -3.25939 0
M  V30 15894 S 1570.9 -1.37502 -4.167 0
M  V30 15895 H 1567.72 -0.324364 -0.6327 0
M  V30 15896 H 1570.32 -1.44098 -1.32121 0
M  V30 15897 H 1569.02 -2.52507 -3.23525 0
M  V30 15898 H 1568.55 -0.922619 -3.82428 0
M  V30 15899 H 1570.57 -0.350666 -4.94959 0
M  V30 15900 N 1569.74 1.27735 -0.923117 0
M  V30 15901 C 1570.69 2.24644 -0.389748 0
M  V30 15902 C 1571.68 1.52822 0.50341 0
M  V30 15903 O 1572.87 1.73672 0.341602 0
M  V30 15904 C 1570 3.41402 0.360535 0
M  V30 15905 C 1569.08 4.20533 -0.548877 0
M  V30 15906 N 1569.47 4.77552 -1.66667 0
M  V30 15907 C 1567.77 4.44617 -0.35102 0
M  V30 15908 C 1568.47 5.37179 -2.23191 0
M  V30 15909 N 1567.45 5.21857 -1.52204 0
M  V30 15910 H 1571.25 2.66308 -1.24328 0
M  V30 15911 H 1568.77 1.42614 -0.776856 0
M  V30 15912 H 1570.76 4.09922 0.759555 0
M  V30 15913 H 1569.42 3.0127 1.21105 0
M  V30 15914 H 1570.43 4.75638 -2.04912 0
M  V30 15915 H 1567.11 4.14967 0.459214 0
M  V30 15916 H 1568.5 5.92274 -3.17272 0
M  V30 15917 N 1571.22 0.688118 1.41784 0
M  V30 15918 C 1572.45 0.223231 2.06195 0
M  V30 15919 C 1572.87 -1.11601 1.51416 0
M  V30 15920 O 1572.23 -1.69701 0.638059 0
M  V30 15921 C 1572.28 0.183257 3.60134 0
M  V30 15922 O 1571.38 -0.844186 4.03667 0
M  V30 15923 H 1570.72 0.110925 0.654669 0
M  V30 15924 H 1573.25 0.940882 1.81683 0
M  V30 15925 H 1573.26 0.0115951 4.07998 0
M  V30 15926 H 1571.94 1.16072 3.99375 0
M  V30 15927 H 1570.51 -0.642484 3.67323 0
M  V30 15928 N 1572.7 -1.51554 0.432352 0
M  V30 15929 C 1573.65 -2.27623 -0.381602 0
M  V30 15930 C 1574.62 -1.31003 -1.02114 0
M  V30 15931 O 1575.8 -1.59899 -1.041 0
M  V30 15932 C 1572.94 -3.11772 -1.47959 0
M  V30 15933 C 1572.05 -4.2338 -0.858682 0
M  V30 15934 C 1571.19 -4.94847 -1.93131 0
M  V30 15935 C 1570.23 -5.98383 -1.28856 0
M  V30 15936 N 1569.36 -6.63278 -2.30233 0
M  V30 15937 H 1574.2 -2.96743 0.273472 0
M  V30 15938 H 1571.74 -1.46367 0.146706 0
M  V30 15939 H 1573.7 -3.58882 -2.12742 0
M  V30 15940 H 1572.33 -2.44778 -2.10437 0
M  V30 15941 H 1571.38 -3.8027 -0.0992797 0
M  V30 15942 H 1572.69 -4.97575 -0.349381 0
M  V30 15943 H 1571.85 -5.4548 -2.65587 0
M  V30 15944 H 1570.59 -4.20272 -2.47432 0
M  V30 15945 H 1569.59 -5.47048 -0.549441 0
M  V30 15946 H 1570.82 -6.74913 -0.752941 0
M  V30 15947 H 1568.76 -5.91518 -2.83624 0
M  V30 15948 H 1568.68 -7.33221 -1.84181 0
M  V30 15949 H 1569.95 -7.18542 -3.02188 0
M  V30 15950 N 1574.18 -0.163538 -1.56749 0
M  V30 15951 C 1575.42 0.48412 -1.96937 0
M  V30 15952 C 1575.76 1.63418 -1.04919 0
M  V30 15953 O 1575.03 1.94269 -0.094783 0
M  V30 15954 C 1575.31 0.974532 -3.46663 0
M  V30 15955 C 1575.17 -0.175173 -4.49459 0
M  V30 15956 C 1576.49 1.85082 -3.9929 0
M  V30 15957 H 1573.6 0.174503 -0.716043 0
M  V30 15958 H 1576.25 -0.248103 -1.88373 0
M  V30 15959 H 1574.4 1.59849 -3.54091 0
M  V30 15960 H 1576.07 -0.812038 -4.54096 0
M  V30 15961 H 1574.31 -0.831853 -4.2575 0
M  V30 15962 H 1574.98 0.20996 -5.51601 0
M  V30 15963 H 1577.46 1.32488 -3.94444 0
M  V30 15964 H 1576.33 2.163 -5.04485 0
M  V30 15965 H 1576.6 2.79378 -3.42638 0
M  V30 15966 N 1575.65 1.57214 0.110213 0
M  V30 15967 C 1576.93 1.76298 0.847249 0
M  V30 15968 C 1577.31 0.741294 1.97656 0
M  V30 15969 O 1576.66 -0.233104 2.27308 0
M  V30 15970 C 1576.87 3.21588 1.35582 0
M  V30 15971 C 1578.22 3.8434 1.80465 0
M  V30 15972 O 1579.24 3.25244 1.45241 0
M  V30 15973 O 1578.1 4.88231 2.45546 0
M  V30 15974 H 1575.19 0.722167 0.402993 0
M  V30 15975 H 1577.74 1.69443 0.0932694 0
M  V30 15976 H 1576.51 3.87472 0.54599 0
M  V30 15977 H 1576.14 3.33015 2.17225 0
M  V30 15978 N 1577.13 -0.380637 1.52934 0
M  V30 15979 C 1578.54 -0.958182 1.60237 0
M  V30 15980 C 1578.89 -1.90722 0.460393 0
M  V30 15981 O 1578.02 -2.12376 -0.415354 0
M  V30 15982 C 1578.61 -1.7446 2.90429 0
M  V30 15983 C 1577.17 -2.27172 3.00116 0
M  V30 15984 C 1576.32 -1.07969 2.55417 0
M  V30 15985 H 1579.27 -0.159908 1.57892 0
M  V30 15986 H 1579.29 -2.60456 2.77385 0
M  V30 15987 H 1578.8 -1.05362 3.73524 0
M  V30 15988 H 1576.91 -2.99557 2.21577 0
M  V30 15989 H 1577.02 -2.56086 4.04916 0
M  V30 15990 H 1575.38 -1.4422 2.09935 0
M  V30 15991 H 1576.17 -0.403925 3.40915 0
M  V30 15992 N 1578.61 -1.44039 -0.639573 0
M  V30 15993 C 1579.56 -1.50254 -1.75192 0
M  V30 15994 C 1580.53 -0.350994 -1.62349 0
M  V30 15995 O 1581.71 -0.56006 -1.82395 0
M  V30 15996 C 1578.85 -1.44464 -3.13407 0
M  V30 15997 C 1577.97 -2.69929 -3.37287 0
M  V30 15998 C 1577.1 -2.56031 -4.65426 0
M  V30 15999 C 1576.14 -3.76699 -4.82456 0
M  V30 16000 N 1575.28 -3.61529 -6.01865 0
M  V30 16001 H 1580.12 -2.45296 -1.69216 0
M  V30 16002 H 1577.65 -1.21748 -0.825576 0
M  V30 16003 H 1579.61 -1.39099 -3.93328 0
M  V30 16004 H 1578.24 -0.529951 -3.1842 0
M  V30 16005 H 1577.29 -2.85516 -2.51366 0
M  V30 16006 H 1578.61 -3.59523 -3.45753 0
M  V30 16007 H 1577.76 -2.48451 -5.53495 0
M  V30 16008 H 1576.5 -1.63983 -4.59305 0
M  V30 16009 H 1575.5 -3.84672 -3.92819 0
M  V30 16010 H 1576.73 -4.69772 -4.90398 0
M  V30 16011 H 1574.67 -2.72226 -5.96849 0
M  V30 16012 H 1574.59 -4.44733 -6.1135 0
M  V30 16013 H 1575.86 -3.57826 -6.92518 0
M  V30 16014 N 1580.09 0.879207 -1.30796 0
M  V30 16015 C 1581.5 1.44705 -1.17972 0
M  V30 16016 C 1581.85 1.94992 0.217381 0
M  V30 16017 O 1580.98 1.85494 1.11449 0
M  V30 16018 C 1581.57 2.6302 -2.13555 0
M  V30 16019 C 1580.13 3.15877 -2.04692 0
M  V30 16020 C 1579.28 1.88576 -2.03309 0
M  V30 16021 H 1582.23 0.688604 -1.42982 0
M  V30 16022 H 1582.25 3.39418 -1.71976 0
M  V30 16023 H 1581.76 2.2639 -3.15229 0
M  V30 16024 H 1579.86 3.57151 -1.0618 0
M  V30 16025 H 1579.97 3.78786 -2.93357 0
M  V30 16026 H 1578.34 2.0715 -1.48192 0
M  V30 16027 H 1579.12 1.54195 -3.06723 0
M  V30 16028 N 1581.57 1.13606 1.09231 0
M  V30 16029 C 1582.81 0.899054 1.81448 0
M  V30 16030 C 1583.14 -0.574726 1.85815 0
M  V30 16031 O 1582.4 -1.44144 1.32366 0
M  V30 16032 C 1582.7 1.43456 3.27345 0
M  V30 16033 C 1582.36 2.92553 3.43109 0
M  V30 16034 C 1581.02 3.3326 3.47118 0
M  V30 16035 C 1583.38 3.88467 3.47481 0
M  V30 16036 C 1580.7 4.68562 3.53081 0
M  V30 16037 C 1583.06 5.23616 3.54978 0
M  V30 16038 C 1581.72 5.63847 3.57257 0
M  V30 16039 H 1580.99 0.328987 0.663964 0
M  V30 16040 H 1583.64 1.41834 1.28668 0
M  V30 16041 H 1581.94 0.83602 3.82777 0
M  V30 16042 H 1583.64 1.22723 3.81759 0
M  V30 16043 H 1580.23 2.60076 3.40674 0
M  V30 16044 H 1584.41 3.58103 3.43622 0
M  V30 16045 H 1579.67 4.99106 3.53134 0
M  V30 16046 H 1583.84 5.9775 3.57306 0
M  V30 16047 H 1581.47 6.68676 3.6163 0
M  V30 16048 N 1583.05 -1.27244 0.929878 0
M  V30 16049 C 1584.28 -1.98086 0.586993 0
M  V30 16050 C 1584.68 -1.69541 -0.839799 0
M  V30 16051 O 1584.03 -0.953724 -1.57003 0
M  V30 16052 C 1584.09 -3.51893 0.735656 0
M  V30 16053 C 1583.75 -4.04064 2.13497 0
M  V30 16054 C 1584.75 -4.16671 3.10936 0
M  V30 16055 C 1582.43 -4.38358 2.4525 0
M  V30 16056 C 1584.43 -4.62849 4.38235 0
M  V30 16057 C 1582.12 -4.84226 3.72785 0
M  V30 16058 C 1583.11 -4.96431 4.6909 0
M  V30 16059 O 1582.8 -5.41292 5.94355 0
M  V30 16060 H 1582.53 -0.638845 0.221027 0
M  V30 16061 H 1585.09 -1.63006 1.24973 0
M  V30 16062 H 1583.32 -3.86697 0.0158117 0
M  V30 16063 H 1585.01 -4.03949 0.397505 0
M  V30 16064 H 1585.77 -3.90434 2.87726 0
M  V30 16065 H 1581.65 -4.28099 1.71032 0
M  V30 16066 H 1585.2 -4.7229 5.13408 0
M  V30 16067 H 1581.09 -5.09905 3.95812 0
M  V30 16068 H 1581.86 -5.59541 5.97375 0
M  V30 16069 N 1584.52 -0.695628 -1.41417 0
M  V30 16070 C 1585.43 -0.0308378 -2.3458 0
M  V30 16071 C 1586.45 0.766 -1.56232 0
M  V30 16072 O 1587.63 0.703548 -1.88712 0
M  V30 16073 C 1584.69 0.894162 -3.34971 0
M  V30 16074 C 1583.75 0.0895231 -4.29207 0
M  V30 16075 C 1582.98 0.970467 -5.24802 0
M  V30 16076 O 1583.21 2.20997 -5.25848 0
M  V30 16077 O 1582.14 0.420114 -6.00432 0
M  V30 16078 H 1585.97 -0.798775 -2.93007 0
M  V30 16079 H 1583.55 -0.455964 -1.42272 0
M  V30 16080 H 1585.43 1.42458 -3.9659 0
M  V30 16081 H 1584.11 1.64159 -2.78987 0
M  V30 16082 H 1583.02 -0.4855 -3.70936 0
M  V30 16083 H 1584.35 -0.619241 -4.88289 0
M  V30 16084 N 1586 1.51322 -0.440383 0
M  V30 16085 C 1586.96 2.26388 0.357911 0
M  V30 16086 C 1587.96 1.2995 0.947083 0
M  V30 16087 O 1589.15 1.53637 0.821057 0
M  V30 16088 C 1586.29 3.05797 1.50669 0
M  V30 16089 H 1587.48 2.98396 -0.300002 0
M  V30 16090 H 1585.03 1.55096 -0.193628 0
M  V30 16091 H 1585.77 2.38213 2.20057 0
M  V30 16092 H 1585.55 3.76634 1.09037 0
M  V30 16093 H 1587.04 3.6265 2.07062 0
M  V30 16094 N 1587.48 0.171848 1.5666 0
M  V30 16095 C 1588.72 -0.475418 1.98794 0
M  V30 16096 C 1589.08 -1.60384 1.0555 0
M  V30 16097 O 1590.28 -2.3137 1.36827 0
M  V30 16098 C 1588.56 -0.945518 3.44666 0
M  V30 16099 S 1590.11 -1.59389 4.08828 0
M  V30 16100 H 1586.93 -0.1529 0.694365 0
M  V30 16101 H 1589.53 0.269434 1.93634 0
M  V30 16102 H 1588.24 -0.113839 4.10242 0
M  V30 16103 H 1587.77 -1.7244 3.53593 0
M  V30 16104 H 1589.78 -2.88205 4.03921 0
M  V30 16105 N 1588.96 -1.5727 -0.101874 0
M  V30 16106 C 1590.2 -1.86017 -0.807795 0
M  V30 16107 C 1590.54 -0.760024 -1.7871 0
M  V30 16108 O 1589.81 0.232627 -1.93104 0
M  V30 16109 C 1590.09 -3.25388 -1.54255 0
M  V30 16110 C 1589.95 -4.46023 -0.581693 0
M  V30 16111 C 1591.27 -3.62561 -2.49474 0
M  V30 16112 H 1588.39 -0.676596 -0.29221 0
M  V30 16113 H 1591.03 -1.89865 -0.0715861 0
M  V30 16114 H 1589.18 -3.22239 -2.17013 0
M  V30 16115 H 1590.85 -4.61284 0.0383529 0
M  V30 16116 H 1589.09 -4.33672 0.105465 0
M  V30 16117 H 1589.76 -5.40251 -1.1328 0
M  V30 16118 H 1592.24 -3.66611 -1.96813 0
M  V30 16119 H 1591.12 -4.61025 -2.97905 0
M  V30 16120 H 1591.38 -2.90885 -3.32924 0
M  V30 16121 N 1590.44 0.372521 -1.53134 0
M  V30 16122 C 1591.39 1.45592 -1.75462 0
M  V30 16123 C 1592.37 1.4893 -0.608994 0
M  V30 16124 O 1593.56 1.54288 -0.867419 0
M  V30 16125 C 1590.69 2.83111 -1.94172 0
M  V30 16126 C 1589.78 2.84279 -3.14716 0
M  V30 16127 N 1590.17 2.551 -4.36758 0
M  V30 16128 C 1588.47 3.15443 -3.15297 0
M  V30 16129 C 1589.17 2.6377 -5.18459 0
M  V30 16130 N 1588.14 2.98192 -4.54513 0
M  V30 16131 H 1591.94 1.21885 -2.67435 0
M  V30 16132 H 1589.46 0.58064 -1.51665 0
M  V30 16133 H 1591.46 3.61136 -2.08294 0
M  V30 16134 H 1590.12 3.07788 -1.03423 0
M  V30 16135 H 1591.13 2.2882 -4.64609 0
M  V30 16136 H 1587.8 3.45479 -2.34416 0
M  V30 16137 H 1589.19 2.44616 -6.2579 0
M  V30 16138 N 1591.91 1.44376 0.631925 0
M  V30 16139 C 1593.19 1.37592 1.39024 0
M  V30 16140 C 1593.57 0.0342456 2.11072 0
M  V30 16141 O 1592.92 -0.983136 2.06268 0
M  V30 16142 C 1593.13 2.57355 2.35732 0
M  V30 16143 C 1594.48 3.01384 2.99087 0
M  V30 16144 O 1595.5 2.57554 2.46057 0
M  V30 16145 O 1594.36 3.77375 3.95285 0
M  V30 16146 H 1591.45 0.544828 0.622167 0
M  V30 16147 H 1594 1.56464 0.657048 0
M  V30 16148 H 1592.77 3.46615 1.81587 0
M  V30 16149 H 1592.39 2.40693 3.16469 0
M  V30 16150 N 1593.39 -0.872258 1.31261 0
M  V30 16151 C 1594.62 -1.6632 1.23905 0
M  V30 16152 C 1595.04 -1.87109 -0.192878 0
M  V30 16153 O 1594.4 -1.4112 -1.1382 0
M  V30 16154 C 1594.45 -3.00979 1.98606 0
M  V30 16155 O 1593.55 -3.90642 1.32183 0
M  V30 16156 H 1592.89 -0.507736 0.427902 0
M  V30 16157 H 1595.42 -1.0877 1.73292 0
M  V30 16158 H 1595.43 -3.50931 2.08113 0
M  V30 16159 H 1594.11 -2.85168 3.02741 0
M  V30 16160 H 1592.68 -3.4909 1.31112 0
M  V30 16161 N 1594.87 -1.14184 -1.08627 0
M  V30 16162 C 1596.11 -0.919016 -1.82575 0
M  V30 16163 C 1596.47 0.544729 -1.84111 0
M  V30 16164 O 1597.67 0.885417 -2.53799 0
M  V30 16165 C 1595.95 -1.50072 -3.24366 0
M  V30 16166 S 1597.5 -1.41914 -4.15218 0
M  V30 16167 H 1594.32 -0.331056 -0.629224 0
M  V30 16168 H 1596.92 -1.45491 -1.30586 0
M  V30 16169 H 1595.63 -2.55924 -3.20828 0
M  V30 16170 H 1595.16 -0.963129 -3.81428 0
M  V30 16171 H 1597.17 -0.403144 -4.9456 0
M  V30 16172 N 1596.35 1.26749 -0.936613 0
M  V30 16173 C 1597.57 1.98597 -0.597817 0
M  V30 16174 C 1598 1.69324 0.8192 0
M  V30 16175 O 1597.36 0.938634 1.55111 0
M  V30 16176 C 1597.4 3.50656 -0.841007 0
M  V30 16177 O 1596.51 4.12304 0.0891038 0
M  V30 16178 H 1595.85 0.623197 -0.229176 0
M  V30 16179 H 1598.38 1.61332 -1.2583 0
M  V30 16180 H 1598.39 4.00857 -0.760093 0
M  V30 16181 H 1597.06 3.71293 -1.87388 0
M  V30 16182 H 1595.64 3.72876 -0.0424804 0
M  V30 16183 N 1597.83 0.703118 1.41046 0
M  V30 16184 C 1599.07 0.241543 2.02968 0
M  V30 16185 C 1599.43 -1.13975 1.54511 0
M  V30 16186 O 1600.63 -1.69761 2.0841 0
M  V30 16187 C 1598.9 0.305021 3.56096 0
M  V30 16188 S 1600.46 -0.0813994 4.38724 0
M  V30 16189 H 1597.28 0.0967141 0.704391 0
M  V30 16190 H 1599.88 0.922571 1.72363 0
M  V30 16191 H 1598.59 1.31219 3.88857 0
M  V30 16192 H 1598.12 -0.394903 3.91413 0
M  V30 16193 H 1600.13 -1.30702 4.78677 0
M  V30 16194 N 1599.3 -1.51086 0.448402 0
M  V30 16195 C 1600.58 -1.94817 -0.174819 0
M  V30 16196 C 1600.96 -1.38767 -1.59081 0
M  V30 16197 O 1600.31 -0.579257 -2.21036 0
M  V30 16198 C 1600.52 -3.48714 -0.14129 0
M  V30 16199 C 1601.87 -4.23225 -0.341414 0
M  V30 16200 O 1602.89 -3.55527 -0.218908 0
M  V30 16201 O 1601.75 -5.43346 -0.586331 0
M  V30 16202 H 1598.84 -0.817652 -0.12399 0
M  V30 16203 H 1601.39 -1.61944 0.507177 0
M  V30 16204 H 1600.16 -3.81996 0.848222 0
M  V30 16205 H 1599.79 -3.88061 -0.865722 0
M  V30 16206 N 1600.78 -0.180154 -1.56567 0
M  V30 16207 C 1602.01 0.46854 -2.01525 0
M  V30 16208 C 1602.43 1.56211 -1.06036 0
M  V30 16209 O 1601.78 1.82392 -0.06269 0
M  V30 16210 C 1601.83 1.0387 -3.46256 0
M  V30 16211 O 1601.55 -0.0112203 -4.38099 0
M  V30 16212 C 1603.06 1.76475 -4.06659 0
M  V30 16213 H 1600.28 0.119098 -0.660346 0
M  V30 16214 H 1602.82 -0.284477 -2.02512 0
M  V30 16215 H 1600.97 1.74217 -3.46016 0
M  V30 16216 H 1601.39 0.41099 -5.22887 0
M  V30 16217 H 1602.86 2.11618 -5.09825 0
M  V30 16218 H 1603.34 2.66301 -3.49257 0
M  V30 16219 H 1603.95 1.10749 -4.10627 0
M  V30 16220 N 1602.26 1.57322 0.0935319 0
M  V30 16221 C 1603.51 1.858 0.795165 0
M  V30 16222 C 1603.83 0.769078 1.79193 0
M  V30 16223 O 1603.1 -0.204511 1.9483 0
M  V30 16224 H 1601.68 0.68557 0.296653 0
M  V30 16225 H 1604.34 1.94756 0.0747892 0
M  V30 16226 H 1603.44 2.82588 1.32479 0
M  V30 16227 N 1603.74 -0.364395 1.53329 0
M  V30 16228 C 1604.99 -1.10473 1.69234 0
M  V30 16229 C 1605.31 -1.89799 0.447347 0
M  V30 16230 O 1604.58 -1.8835 -0.538612 0
M  V30 16231 H 1603.16 -0.410826 0.623884 0
M  V30 16232 H 1605.82 -0.410721 1.90523 0
M  V30 16233 H 1604.92 -1.79387 2.55396 0
M  V30 16234 N 1605.22 -1.44709 -0.62426 0
M  V30 16235 C 1606.49 -1.38328 -1.38292 0
M  V30 16236 C 1606.87 -0.0454388 -2.11051 0
M  V30 16237 O 1606.22 0.972183 -2.06787 0
M  V30 16238 C 1606.43 -2.58602 -2.34364 0
M  V30 16239 C 1607.78 -3.02966 -2.97484 0
M  V30 16240 O 1608.8 -2.58856 -2.44688 0
M  V30 16241 O 1607.66 -3.79466 -3.93278 0
M  V30 16242 H 1604.76 -0.54812 -0.619269 0
M  V30 16243 H 1607.3 -1.5681 -0.648741 0
M  V30 16244 H 1606.07 -3.47573 -1.79746 0
M  V30 16245 H 1605.7 -2.42368 -3.15188 0
M  V30 16246 N 1606.69 0.865285 -1.31722 0
M  V30 16247 C 1607.93 1.63264 -1.2298 0
M  V30 16248 C 1608.3 1.90873 0.207754 0
M  V30 16249 O 1609.5 2.65518 0.418737 0
M  V30 16250 C 1607.77 2.92412 -2.05499 0
M  V30 16251 S 1609.33 3.83263 -2.13669 0
M  V30 16252 H 1606.15 0.560119 -0.437936 0
M  V30 16253 H 1608.75 1.02554 -1.66442 0
M  V30 16254 H 1607.45 2.7006 -3.09024 0
M  V30 16255 H 1606.98 3.58145 -1.62774 0
M  V30 16256 H 1609 4.79448 -1.27843 0
M  V30 16257 N 1608.17 1.14759 1.0802 0
M  V30 16258 C 1609.08 0.851934 2.18585 0
M  V30 16259 C 1610.1 -0.16914 1.73176 0
M  V30 16260 O 1611.27 0.00330114 2.014 0
M  V30 16261 C 1608.34 0.337977 3.45049 0
M  V30 16262 C 1607.4 1.4221 4.05061 0
M  V30 16263 C 1606.63 0.932574 5.25489 0
M  V30 16264 O 1606.86 -0.224457 5.69958 0
M  V30 16265 O 1605.79 1.7133 5.77001 0
M  V30 16266 H 1609.62 1.77605 2.46354 0
M  V30 16267 H 1607.2 0.926159 1.17229 0
M  V30 16268 H 1609.08 0.0574734 4.21361 0
M  V30 16269 H 1607.76 -0.558363 3.18848 0
M  V30 16270 H 1606.67 1.75612 3.3032 0
M  V30 16271 H 1608 2.29311 4.3552 0
M  V30 16272 N 1609.65 -1.26251 0.943322 0
M  V30 16273 C 1610.89 -1.95409 0.599542 0
M  V30 16274 C 1611.25 -1.72356 -0.846017 0
M  V30 16275 O 1612.46 -2.35337 -1.29884 0
M  V30 16276 C 1610.73 -3.44953 0.935013 0
M  V30 16277 S 1612.29 -4.33147 0.702101 0
M  V30 16278 H 1609.1 -0.675863 0.22075 0
M  V30 16279 H 1611.71 -1.53153 1.21509 0
M  V30 16280 H 1610.41 -3.59232 1.98445 0
M  V30 16281 H 1609.94 -3.92182 0.309268 0
M  V30 16282 H 1611.96 -4.9431 -0.432655 0
M  V30 16283 N 1611.13 -0.710588 -1.40671 0
M  V30 16284 C 1612.38 -0.247949 -2.00976 0
M  V30 16285 C 1612.7 1.15725 -1.56327 0
M  V30 16286 O 1611.96 1.79826 -0.77208 0
M  V30 16287 C 1612.26 -0.270478 -3.56375 0
M  V30 16288 C 1611.92 -1.62528 -4.2059 0
M  V30 16289 C 1610.59 -1.99614 -4.37844 0
M  V30 16290 C 1612.94 -2.51591 -4.56455 0
M  V30 16291 C 1610.27 -3.2532 -4.88246 0
M  V30 16292 C 1612.62 -3.76644 -5.08254 0
M  V30 16293 C 1611.28 -4.13855 -5.23718 0
M  V30 16294 H 1610.55 -0.0907308 -0.735424 0
M  V30 16295 H 1613.2 -0.912636 -1.68354 0
M  V30 16296 H 1611.5 0.477777 -3.88876 0
M  V30 16297 H 1613.2 0.105243 -4.00862 0
M  V30 16298 H 1609.79 -1.32686 -4.07544 0
M  V30 16299 H 1613.98 -2.24215 -4.42766 0
M  V30 16300 H 1609.23 -3.54125 -4.98403 0
M  V30 16301 H 1613.41 -4.45832 -5.34983 0
M  V30 16302 H 1611.03 -5.1133 -5.62535 0
M  V30 16303 N 1612.61 1.50847 -0.456408 0
M  V30 16304 C 1613.85 2.04143 0.102549 0
M  V30 16305 C 1614.21 1.33189 1.38292 0
M  V30 16306 O 1615.41 1.7696 2.02333 0
M  V30 16307 C 1613.68 3.56164 0.296985 0
M  V30 16308 S 1615.24 4.31134 0.816609 0
M  V30 16309 H 1612.06 0.710632 0.0228845 0
M  V30 16310 H 1614.66 1.85402 -0.620186 0
M  V30 16311 H 1613.37 4.05365 -0.640906 0
M  V30 16312 H 1612.9 3.79232 1.04626 0
M  V30 16313 H 1614.91 4.49949 2.0919 0
M  V30 16314 N 1614.09 0.188454 1.56469 0
M  V30 16315 C 1615.31 -0.460975 2.02212 0
M  V30 16316 C 1615.74 -1.54856 1.06777 0
M  V30 16317 O 1615.09 -1.81231 0.0501425 0
M  V30 16318 C 1615.14 -1.00047 3.46443 0
M  V30 16319 O 1614.25 -2.1137 3.54114 0
M  V30 16320 H 1613.59 -0.108497 0.655076 0
M  V30 16321 H 1616.12 0.297381 2.02427 0
M  V30 16322 H 1616.13 -1.31876 3.86099 0
M  V30 16323 H 1614.8 -0.204273 4.15398 0
M  V30 16324 H 1613.38 -1.80456 3.26328 0
M  V30 16325 N 1615.56 -1.5737 -0.0851874 0
M  V30 16326 C 1616.53 -2.01789 -1.08692 0
M  V30 16327 C 1617.53 -0.912872 -1.32376 0
M  V30 16328 O 1618.72 -1.1781 -1.28322 0
M  V30 16329 C 1615.85 -2.38708 -2.43375 0
M  V30 16330 H 1617.04 -2.91511 -0.704359 0
M  V30 16331 H 1614.59 -1.52765 -0.330528 0
M  V30 16332 H 1615.33 -1.5197 -2.86488 0
M  V30 16333 H 1615.11 -3.19331 -2.2753 0
M  V30 16334 H 1616.6 -2.73697 -3.15404 0
M  V30 16335 N 1617.04 0.356258 -1.53521 0
M  V30 16336 C 1618.29 1.09953 -1.70406 0
M  V30 16337 C 1618.62 1.8869 -0.459304 0
M  V30 16338 O 1617.9 1.86751 0.54354 0
M  V30 16339 C 1618.18 2.05114 -2.95973 0
M  V30 16340 C 1618.03 1.29924 -4.30627 0
M  V30 16341 C 1619.35 3.0511 -3.17168 0
M  V30 16342 H 1616.47 0.398343 -0.620074 0
M  V30 16343 H 1619.11 0.379376 -1.86174 0
M  V30 16344 H 1617.26 2.66524 -2.82661 0
M  V30 16345 H 1618.93 0.71226 -4.55768 0
M  V30 16346 H 1617.18 0.601141 -4.29615 0
M  V30 16347 H 1617.85 1.99624 -5.1464 0
M  V30 16348 H 1620.32 2.53809 -3.29728 0
M  V30 16349 H 1619.2 3.68908 -4.06445 0
M  V30 16350 H 1619.46 3.75794 -2.32876 0
M  V30 16351 N 1618.52 1.45038 0.616577 0
M  V30 16352 C 1619.48 1.52647 1.70973 0
M  V30 16353 C 1620.48 0.406902 1.55567 0
M  V30 16354 O 1621.67 0.670062 1.60797 0
M  V30 16355 C 1618.8 1.41438 3.10174 0
M  V30 16356 H 1620 2.50036 1.65596 0
M  V30 16357 H 1617.55 1.32346 0.831524 0
M  V30 16358 H 1618.29 0.451991 3.21135 0
M  V30 16359 H 1618.07 2.22634 3.22764 0
M  V30 16360 H 1619.56 1.49776 3.89817 0
M  V30 16361 N 1620 -0.858287 1.32179 0
M  V30 16362 C 1621.22 -1.64997 1.25662 0
M  V30 16363 C 1621.65 -1.87303 -0.173021 0
M  V30 16364 O 1621.01 -1.42319 -1.12317 0
M  V30 16365 C 1621.05 -2.98855 2.01787 0
M  V30 16366 O 1620.16 -3.89218 1.36319 0
M  V30 16367 H 1619.5 -0.503169 0.433264 0
M  V30 16368 H 1622.03 -1.06926 1.74436 0
M  V30 16369 H 1622.04 -3.48704 2.11824 0
M  V30 16370 H 1620.71 -2.81941 3.05748 0
M  V30 16371 H 1619.29 -3.4768 1.34807 0
M  V30 16372 N 1621.48 -1.1533 -1.07409 0
M  V30 16373 C 1622.71 -0.950263 -1.83449 0
M  V30 16374 C 1623.11 0.504761 -1.82343 0
M  V30 16375 O 1622.46 1.36183 -1.23287 0
M  V30 16376 C 1622.52 -1.38651 -3.31687 0
M  V30 16377 C 1622.18 -2.85914 -3.56514 0
M  V30 16378 C 1623.18 -3.83981 -3.50506 0
M  V30 16379 C 1620.86 -3.23568 -3.84199 0
M  V30 16380 C 1622.86 -5.17707 -3.71831 0
M  V30 16381 C 1620.55 -4.57467 -4.05175 0
M  V30 16382 C 1621.54 -5.54345 -3.98986 0
M  V30 16383 O 1621.23 -6.85826 -4.19403 0
M  V30 16384 H 1620.96 -0.337616 -0.585655 0
M  V30 16385 H 1623.52 -1.53489 -1.36493 0
M  V30 16386 H 1621.75 -0.745282 -3.7945 0
M  V30 16387 H 1623.44 -1.15267 -3.89189 0
M  V30 16388 H 1624.2 -3.56237 -3.29121 0
M  V30 16389 H 1620.08 -2.48748 -3.88131 0
M  V30 16390 H 1623.63 -5.93311 -3.66916 0
M  V30 16391 H 1619.52 -4.84927 -4.26047 0
M  V30 16392 H 1620.29 -6.92235 -4.36753 0
M  V30 16393 N 1622.95 1.25748 -0.950004 0
M  V30 16394 C 1623.92 2.24307 -0.47106 0
M  V30 16395 C 1624.92 1.55145 0.422704 0
M  V30 16396 O 1626.11 1.72797 0.220642 0
M  V30 16397 C 1623.24 3.39395 0.319979 0
M  V30 16398 H 1624.43 2.68192 -1.34214 0
M  V30 16399 H 1621.98 1.38056 -0.732827 0
M  V30 16400 H 1622.72 3.00925 1.20892 0
M  V30 16401 H 1622.5 3.90783 -0.321157 0
M  V30 16402 H 1623.99 4.12594 0.644697 0
M  V30 16403 N 1624.43 0.718038 1.40292 0
M  V30 16404 C 1625.36 0.0276294 2.29183 0
M  V30 16405 C 1626.38 -0.721208 1.45954 0
M  V30 16406 O 1627.57 -0.568181 1.69216 0
M  V30 16407 C 1624.67 -0.985139 3.24266 0
M  V30 16408 C 1623.84 -0.301327 4.36361 0
M  V30 16409 C 1622.9 -1.21982 5.11866 0
M  V30 16410 O 1621.92 -0.70369 5.64833 0
M  V30 16411 N 1623.13 -2.55079 5.21455 0
M  V30 16412 H 1625.89 0.790884 2.89076 0
M  V30 16413 H 1623.45 0.565867 1.51689 0
M  V30 16414 H 1625.44 -1.60183 3.7165 0
M  V30 16415 H 1624.01 -1.64973 2.65523 0
M  V30 16416 H 1623.23 0.495594 3.91072 0
M  V30 16417 H 1624.52 0.173238 5.08505 0
M  V30 16418 H 1623.92 -2.99506 4.79909 0
M  V30 16419 H 1622.48 -3.11886 5.72338 0
M  V30 16420 N 1625.91 -1.50602 0.464402 0
M  V30 16421 C 1626.82 -2.32142 -0.338721 0
M  V30 16422 C 1627.84 -1.4223 -1.00233 0
M  V30 16423 O 1629.01 -1.75288 -0.99177 0
M  V30 16424 C 1626.08 -3.16725 -1.41019 0
M  V30 16425 C 1625.14 -4.22449 -0.76388 0
M  V30 16426 C 1624.37 -5.0299 -1.78429 0
M  V30 16427 O 1624.59 -4.84516 -3.00999 0
M  V30 16428 O 1623.53 -5.86338 -1.35982 0
M  V30 16429 H 1627.35 -3.01927 0.327695 0
M  V30 16430 H 1624.94 -1.47675 0.226379 0
M  V30 16431 H 1626.82 -3.69228 -2.03097 0
M  V30 16432 H 1625.5 -2.49675 -2.06019 0
M  V30 16433 H 1624.4 -3.73955 -0.104318 0
M  V30 16434 H 1625.74 -4.9195 -0.156929 0
M  V30 16435 N 1627.39 -0.19675 -1.56367 0
M  V30 16436 C 1628.63 0.443732 -1.99525 0
M  V30 16437 C 1628.99 1.58685 -1.08088 0
M  V30 16438 O 1630.19 2.29164 -1.4049 0
M  V30 16439 C 1628.46 0.890565 -3.46127 0
M  V30 16440 S 1630.02 1.52865 -4.11312 0
M  V30 16441 H 1626.84 0.141834 -0.69671 0
M  V30 16442 H 1629.44 -0.300205 -1.93181 0
M  V30 16443 H 1628.15 0.0485587 -4.10371 0
M  V30 16444 H 1627.68 1.66793 -3.56292 0
M  V30 16445 H 1629.69 2.81743 -4.08455 0
M  V30 16446 N 1628.87 1.57413 0.0768405 0
M  V30 16447 C 1630.09 1.91224 0.790007 0
M  V30 16448 C 1630.51 0.792232 1.71374 0
M  V30 16449 O 1629.87 -0.234736 1.80984 0
M  V30 16450 C 1629.92 3.24757 1.58793 0
M  V30 16451 O 1629.64 4.3245 0.701329 0
M  V30 16452 C 1631.14 3.72549 2.40254 0
M  V30 16453 H 1628.36 0.63219 0.224893 0
M  V30 16454 H 1630.9 2.04442 0.0486173 0
M  V30 16455 H 1629.06 3.13081 2.28165 0
M  V30 16456 H 1629.47 5.09245 1.2558 0
M  V30 16457 H 1630.95 4.68628 2.91705 0
M  V30 16458 H 1631.42 3.01305 3.1955 0
M  V30 16459 H 1632.03 3.87153 1.76048 0
M  V30 16460 N 1630.34 -0.348112 1.53707 0
M  V30 16461 C 1631.29 -1.42729 1.81375 0
M  V30 16462 C 1632.26 -1.52461 0.659159 0
M  V30 16463 O 1633.45 -1.68072 0.903129 0
M  V30 16464 C 1630.59 -2.79443 2.02498 0
M  V30 16465 C 1629.7 -2.7854 3.30211 0
M  V30 16466 C 1628.83 -4.06942 3.41426 0
M  V30 16467 C 1627.87 -4.00248 4.63106 0
M  V30 16468 N 1627.01 -5.20332 4.7138 0
M  V30 16469 H 1631.85 -1.18436 2.73454 0
M  V30 16470 H 1629.39 -0.573809 1.35447 0
M  V30 16471 H 1631.35 -3.58888 2.12733 0
M  V30 16472 H 1629.98 -3.02099 1.13737 0
M  V30 16473 H 1629.03 -1.91227 3.28841 0
M  V30 16474 H 1630.34 -2.69471 4.19746 0
M  V30 16475 H 1629.49 -4.94808 3.51069 0
M  V30 16476 H 1628.23 -4.18786 2.49939 0
M  V30 16477 H 1627.24 -3.10767 4.53546 0
M  V30 16478 H 1628.46 -3.89991 5.55953 0
M  V30 16479 H 1626.41 -5.32729 3.828 0
M  V30 16480 H 1626.33 -5.13502 5.54844 0
M  V30 16481 H 1627.59 -6.09982 4.85326 0
M  V30 16482 N 1631.82 -1.45363 -0.608876 0
M  V30 16483 C 1632.73 -1.56471 -1.74797 0
M  V30 16484 C 1633.75 -0.449225 -1.68101 0
M  V30 16485 O 1634.92 -0.709731 -1.8848 0
M  V30 16486 C 1631.99 -1.52714 -3.11254 0
M  V30 16487 C 1631.05 -2.75291 -3.29414 0
M  V30 16488 C 1630.28 -2.71704 -4.59361 0
M  V30 16489 O 1630.51 -1.78959 -5.41599 0
M  V30 16490 O 1629.44 -3.62886 -4.80205 0
M  V30 16491 H 1633.27 -2.52751 -1.68377 0
M  V30 16492 H 1630.85 -1.27859 -0.772808 0
M  V30 16493 H 1632.73 -1.53222 -3.92557 0
M  V30 16494 H 1631.41 -0.595858 -3.18169 0
M  V30 16495 H 1630.32 -2.80345 -2.47704 0
M  V30 16496 H 1631.65 -3.67541 -3.27375 0
M  V30 16497 N 1633.3 0.851265 -1.32632 0
M  V30 16498 C 1634.55 1.60252 -1.23141 0
M  V30 16499 C 1634.87 1.93909 0.205946 0
M  V30 16500 O 1634.14 1.59914 1.13156 0
M  V30 16501 H 1632.72 0.594137 -0.452781 0
M  V30 16502 H 1635.38 1.01806 -1.66197 0
M  V30 16503 H 1634.48 2.53796 -1.81643 0
M  V30 16504 N 1634.78 1.15898 1.06796 0
M  V30 16505 C 1635.74 0.863427 2.12315 0
M  V30 16506 C 1636.74 -0.139326 1.60195 0
M  V30 16507 O 1637.93 0.0909705 1.73962 0
M  V30 16508 C 1635.06 0.290251 3.39662 0
M  V30 16509 H 1636.26 1.79879 2.39966 0
M  V30 16510 H 1633.81 0.967223 1.22778 0
M  V30 16511 H 1634.54 -0.653037 3.17657 0
M  V30 16512 H 1634.33 1.01273 3.78796 0
M  V30 16513 H 1635.82 0.10124 4.17477 0
M  V30 16514 N 1636.26 -1.25243 0.956659 0
M  V30 16515 C 1637.5 -1.94763 0.620234 0
M  V30 16516 C 1637.86 -1.73244 -0.827689 0
M  V30 16517 O 1639.06 -2.36702 -1.2738 0
M  V30 16518 C 1637.33 -3.43941 0.971547 0
M  V30 16519 S 1638.89 -4.32378 0.748002 0
M  V30 16520 H 1635.71 -0.673484 0.227906 0
M  V30 16521 H 1638.31 -1.51855 1.23127 0
M  V30 16522 H 1637.02 -3.57107 2.02244 0
M  V30 16523 H 1636.55 -3.91832 0.350847 0
M  V30 16524 H 1638.56 -4.94741 -0.380203 0
M  V30 16525 N 1637.73 -0.725468 -1.3991 0
M  V30 16526 C 1638.98 -0.26965 -2.00999 0
M  V30 16527 C 1639.31 1.13727 -1.57416 0
M  V30 16528 O 1638.59 1.77345 -0.798693 0
M  V30 16529 C 1638.87 -0.360784 -3.58288 0
M  V30 16530 C 1638.72 -1.80679 -4.11916 0
M  V30 16531 C 1640.04 0.262328 -4.39317 0
M  V30 16532 H 1637.16 -0.0994547 -0.730259 0
M  V30 16533 H 1639.8 -0.91983 -1.6625 0
M  V30 16534 H 1637.95 0.192779 -3.88021 0
M  V30 16535 H 1639.63 -2.4165 -3.92942 0
M  V30 16536 H 1637.87 -2.33127 -3.65834 0
M  V30 16537 H 1638.54 -1.82189 -5.21068 0
M  V30 16538 H 1641.02 -0.209452 -4.15573 0
M  V30 16539 H 1639.89 0.168166 -5.48642 0
M  V30 16540 H 1640.15 1.34716 -4.21075 0
M  V30 16541 N 1639.21 1.50354 -0.472382 0
M  V30 16542 C 1640.46 2.02333 0.0821629 0
M  V30 16543 C 1640.79 1.35428 1.39605 0
M  V30 16544 O 1640.04 0.469386 1.89988 0
M  V30 16545 C 1640.34 3.5603 0.31263 0
M  V30 16546 C 1640.01 4.41421 -0.919715 0
M  V30 16547 C 1638.67 4.64476 -1.25759 0
M  V30 16548 C 1641.02 4.91292 -1.74017 0
M  V30 16549 C 1638.35 5.34648 -2.41596 0
M  V30 16550 C 1640.7 5.62736 -2.88983 0
M  V30 16551 C 1639.37 5.84045 -3.23184 0
M  V30 16552 H 1638.64 0.74039 0.0300655 0
M  V30 16553 H 1641.28 1.80954 -0.626725 0
M  V30 16554 H 1639.59 3.75931 1.10378 0
M  V30 16555 H 1641.28 3.93815 0.755691 0
M  V30 16556 H 1637.87 4.23696 -0.646486 0
M  V30 16557 H 1642.06 4.73332 -1.49232 0
M  V30 16558 H 1637.31 5.49354 -2.68366 0
M  V30 16559 H 1641.49 6.0036 -3.52903 0
M  V30 16560 H 1639.12 6.38196 -4.1305 0
M  V30 16561 N 1640.69 0.205039 1.56261 0
M  V30 16562 C 1641.94 -0.42506 1.98909 0
M  V30 16563 C 1642.29 -1.58548 1.08997 0
M  V30 16564 O 1641.59 -1.91114 0.136433 0
M  V30 16565 C 1641.78 -0.924086 3.45247 0
M  V30 16566 C 1641.61 0.186441 4.49313 0
M  V30 16567 C 1640.38 0.647379 5.01136 0
M  V30 16568 C 1642.58 0.998917 5.04506 0
M  V30 16569 N 1640.56 1.73469 5.88882 0
M  V30 16570 C 1641.93 1.93542 5.89017 0
M  V30 16571 C 1643.98 1.04022 4.86913 0
M  V30 16572 C 1642.69 2.90982 6.57816 0
M  V30 16573 C 1644.71 2.00272 5.56458 0
M  V30 16574 C 1644.08 2.92664 6.40724 0
M  V30 16575 H 1640.17 -0.122679 0.772317 0
M  V30 16576 H 1642.76 0.31302 1.92167 0
M  V30 16577 H 1640.93 -1.63158 3.52469 0
M  V30 16578 H 1642.66 -1.52562 3.74842 0
M  V30 16579 H 1639.42 0.238929 4.72997 0
M  V30 16580 H 1639.84 2.27985 6.37457 0
M  V30 16581 H 1644.48 0.339864 4.21432 0
M  V30 16582 H 1642.2 3.61988 7.22489 0
M  V30 16583 H 1645.79 2.0412 5.44818 0
M  V30 16584 H 1644.67 3.65927 6.9359 0
M  V30 16585 N 1642.17 -1.57451 -0.0684915 0
M  V30 16586 C 1643.59 -1.53883 -0.423354 0
M  V30 16587 C 1643.79 -0.925698 -1.78978 0
M  V30 16588 O 1642.84 -0.529629 -2.46883 0
M  V30 16589 C 1644.15 -2.98521 -0.361386 0
M  V30 16590 C 1645.7 -3.09873 -0.441334 0
M  V30 16591 C 1646.18 -4.56168 -0.409239 0
M  V30 16592 N 1647.67 -4.60817 -0.469216 0
M  V30 16593 C 1648.4 -5.71498 -0.466648 0
M  V30 16594 N 1647.9 -6.91534 -0.4187 0
M  V30 16595 N 1649.69 -5.5975 -0.513452 0
M  V30 16596 H 1641.84 -1.95672 0.8262 0
M  V30 16597 H 1644.11 -0.895759 0.310354 0
M  V30 16598 H 1643.81 -3.46951 0.576035 0
M  V30 16599 H 1643.69 -3.58585 -1.17032 0
M  V30 16600 H 1646.07 -2.61414 -1.36918 0
M  V30 16601 H 1646.15 -2.52712 0.396237 0
M  V30 16602 H 1645.8 -5.05285 0.514772 0
M  V30 16603 H 1645.73 -5.11195 -1.26439 0
M  V30 16604 H 1648.22 -3.74438 -0.510387 0
M  V30 16605 H 1648.53 -7.71654 -0.420757 0
M  V30 16606 H 1646.88 -6.93931 -0.385338 0
M  V30 16607 H 1650.07 -4.64874 -0.548626 0
M  V30 16608 H 1650.24 -6.46006 -0.507982 0
M  V30 16609 N 1643.65 0.339955 -1.5389 0
M  V30 16610 C 1644.88 1.09975 -1.75251 0
M  V30 16611 C 1645.29 1.8224 -0.493355 0
M  V30 16612 O 1644.65 1.74477 0.535173 0
M  V30 16613 C 1644.7 2.11048 -2.93498 0
M  V30 16614 O 1644.42 1.41721 -4.14544 0
M  V30 16615 C 1645.92 2.99375 -3.26939 0
M  V30 16616 H 1643.14 0.327811 -0.585475 0
M  V30 16617 H 1645.68 0.391068 -2.00726 0
M  V30 16618 H 1643.84 2.77476 -2.70344 0
M  V30 16619 H 1644.25 2.09271 -4.80943 0
M  V30 16620 H 1645.73 3.66223 -4.13019 0
M  V30 16621 H 1646.2 3.65588 -2.43397 0
M  V30 16622 H 1646.81 2.38531 -3.52112 0
M  V30 16623 N 1645.13 1.45684 0.601159 0
M  V30 16624 C 1646.54 1.44423 1.18317 0
M  V30 16625 C 1646.89 0.17524 1.95416 0
M  V30 16626 O 1646.01 -0.722816 2.03971 0
M  V30 16627 C 1646.61 2.61651 2.1523 0
M  V30 16628 C 1645.17 2.6349 2.68793 0
M  V30 16629 C 1644.31 2.36787 1.44317 0
M  V30 16630 H 1647.26 1.53831 0.390108 0
M  V30 16631 H 1647.29 2.36117 2.98377 0
M  V30 16632 H 1646.8 3.53995 1.59088 0
M  V30 16633 H 1644.9 1.7517 3.28856 0
M  V30 16634 H 1645.01 3.62906 3.12787 0
M  V30 16635 H 1643.38 1.86472 1.73494 0
M  V30 16636 H 1644.16 3.31284 0.900327 0
M  V30 16637 N 1646.6 -0.84422 1.33082 0
M  V30 16638 C 1647.88 -1.58339 1.1484 0
M  V30 16639 C 1648.26 -2.09136 -0.287273 0
M  V30 16640 O 1647.61 -1.8891 -1.2855 0
M  V30 16641 C 1647.82 -2.72141 2.18496 0
M  V30 16642 C 1649.17 -3.41457 2.52373 0
M  V30 16643 O 1650.19 -2.82377 2.17122 0
M  V30 16644 O 1649.05 -4.48096 3.12845 0
M  V30 16645 H 1646.14 -0.697813 0.443831 0
M  V30 16646 H 1648.69 -0.88744 1.44646 0
M  V30 16647 H 1647.46 -2.32206 3.14954 0
M  V30 16648 H 1647.08 -3.49404 1.89744 0
M  V30 16649 N 1648.08 -1.16463 -1.0618 0
M  V30 16650 C 1649.01 -0.895399 -2.1565 0
M  V30 16651 C 1649.99 0.158729 -1.69358 0
M  V30 16652 O 1651.18 0.010586 -1.94197 0
M  V30 16653 C 1648.31 -0.396959 -3.45024 0
M  V30 16654 C 1647.26 -1.38913 -4.0483 0
M  V30 16655 C 1646.59 -0.749043 -5.29427 0
M  V30 16656 C 1647.89 -2.7591 -4.43476 0
M  V30 16657 H 1649.58 -1.81085 -2.38429 0
M  V30 16658 H 1647.13 -0.872098 -1.14588 0
M  V30 16659 H 1649.08 -0.196086 -4.20944 0
M  V30 16660 H 1647.8 0.554002 -3.21867 0
M  V30 16661 H 1646.46 -1.57657 -3.30968 0
M  V30 16662 H 1646.11 0.208439 -5.02568 0
M  V30 16663 H 1645.81 -1.41128 -5.704 0
M  V30 16664 H 1647.34 -0.558217 -6.08043 0
M  V30 16665 H 1648.75 -2.60942 -5.10473 0
M  V30 16666 H 1647.15 -3.38618 -4.95437 0
M  V30 16667 H 1648.22 -3.31076 -3.54284 0
M  V30 16668 N 1649.56 1.24734 -0.963288 0
M  V30 16669 C 1650.8 1.94431 -0.630554 0
M  V30 16670 C 1651.16 1.7368 0.818489 0
M  V30 16671 O 1652.36 2.37374 1.26123 0
M  V30 16672 C 1650.64 3.43421 -0.989774 0
M  V30 16673 S 1652.19 4.31975 -0.770922 0
M  V30 16674 H 1649.01 0.672265 -0.231474 0
M  V30 16675 H 1651.61 1.512 -1.2393 0
M  V30 16676 H 1650.32 3.5603 -2.04135 0
M  V30 16677 H 1649.85 3.91641 -0.371622 0
M  V30 16678 H 1651.86 4.94936 0.35396 0
M  V30 16679 N 1651.04 0.732878 1.39523 0
M  V30 16680 C 1652.45 0.350145 1.83387 0
M  V30 16681 C 1652.8 -1.11807 1.61225 0
M  V30 16682 O 1651.92 -1.86222 1.10229 0
M  V30 16683 C 1652.52 0.628743 3.32915 0
M  V30 16684 C 1651.08 0.299529 3.75206 0
M  V30 16685 C 1650.23 0.892434 2.62547 0
M  V30 16686 H 1653.18 0.930687 1.28545 0
M  V30 16687 H 1653.2 -0.100206 3.80368 0
M  V30 16688 H 1652.71 1.6974 3.49013 0
M  V30 16689 H 1650.81 -0.763373 3.64696 0
M  V30 16690 H 1650.92 0.780607 4.72698 0
M  V30 16691 H 1649.29 0.319218 2.52692 0
M  V30 16692 H 1650.07 1.9657 2.81452 0
M  V30 16693 N 1652.52 -1.50101 0.480349 0
M  V30 16694 C 1653.76 -2.01567 -0.073165 0
M  V30 16695 C 1654.08 -1.36657 -1.39944 0
M  V30 16696 O 1655.28 -1.79332 -2.03844 0
M  V30 16697 C 1653.74 -3.59445 -0.180889 0
M  V30 16698 C 1653.35 -4.33318 1.1375 0
M  V30 16699 C 1655.09 -4.18923 -0.685868 0
M  V30 16700 C 1653 -5.83003 0.99307 0
M  V30 16701 H 1651.93 -0.753358 -0.0311179 0
M  V30 16702 H 1654.58 -1.72829 0.616648 0
M  V30 16703 H 1652.96 -3.84811 -0.934693 0
M  V30 16704 H 1654.14 -4.1967 1.90299 0
M  V30 16705 H 1652.45 -3.85492 1.57431 0
M  V30 16706 H 1655.05 -5.28512 -0.811109 0
M  V30 16707 H 1655.39 -3.80916 -1.67955 0
M  V30 16708 H 1655.92 -3.97799 0.0108117 0
M  V30 16709 H 1652.66 -6.25499 1.9604 0
M  V30 16710 H 1652.18 -5.992 0.268128 0
M  V30 16711 H 1653.86 -6.4359 0.663417 0
M  V30 16712 N 1653.99 -0.213323 -1.5615 0
M  V30 16713 C 1655.24 0.420598 -1.98084 0
M  V30 16714 C 1655.57 1.60355 -1.10075 0
M  V30 16715 O 1654.82 1.95171 -0.143848 0
M  V30 16716 C 1655.12 0.905764 -3.45732 0
M  V30 16717 C 1654.79 -0.165778 -4.50595 0
M  V30 16718 C 1653.45 -0.460161 -4.78995 0
M  V30 16719 C 1655.8 -0.890891 -5.1353 0
M  V30 16720 C 1653.13 -1.48432 -5.67613 0
M  V30 16721 C 1655.48 -1.90433 -6.03256 0
M  V30 16722 C 1654.15 -2.20572 -6.30004 0
M  V30 16723 H 1653.42 0.153908 -0.72484 0
M  V30 16724 H 1656.06 -0.314117 -1.88906 0
M  V30 16725 H 1654.37 1.71909 -3.52072 0
M  V30 16726 H 1656.07 1.40596 -3.75545 0
M  V30 16727 H 1652.66 0.0738261 -4.28536 0
M  V30 16728 H 1656.84 -0.676696 -4.91665 0
M  V30 16729 H 1652.1 -1.72354 -5.86604 0
M  V30 16730 H 1656.27 -2.47131 -6.51075 0
M  V30 16731 H 1653.9 -3.00074 -6.9847 0
M  V30 16732 N 1655.47 1.57485 0.0601405 0
M  V30 16733 C 1656.71 1.89654 0.762278 0
M  V30 16734 C 1657.08 0.808458 1.74149 0
M  V30 16735 O 1658.28 1.01355 2.48959 0
M  V30 16736 C 1656.55 3.27038 1.44156 0
M  V30 16737 S 1658.11 3.8098 2.17715 0
M  V30 16738 H 1654.93 0.664373 0.253239 0
M  V30 16739 H 1657.53 1.95492 0.0179261 0
M  V30 16740 H 1656.23 4.0412 0.715225 0
M  V30 16741 H 1655.76 3.24427 2.2251 0
M  V30 16742 H 1657.78 3.57204 3.44413 0
M  V30 16743 N 1656.95 -0.331789 1.54068 0
M  V30 16744 C 1658.23 -1.08843 1.6252 0
M  V30 16745 C 1658.61 -2.06164 0.453847 0
M  V30 16746 O 1657.96 -2.21714 -0.552727 0
M  V30 16747 C 1658.17 -1.79767 2.9914 0
M  V30 16748 C 1659.51 -2.33086 3.54903 0
M  V30 16749 O 1660.54 -1.89846 3.01392 0
M  V30 16750 O 1659.4 -3.12226 4.48528 0
M  V30 16751 H 1656.49 -0.501222 0.657804 0
M  V30 16752 H 1659.04 -0.332339 1.66414 0
M  V30 16753 H 1657.81 -1.08932 3.75832 0
M  V30 16754 H 1657.43 -2.62205 2.98888 0
M  V30 16755 N 1658.43 -1.46001 -0.593424 0
M  V30 16756 C 1659.66 -1.54083 -1.3763 0
M  V30 16757 C 1660.07 -0.177096 -1.88369 0
M  V30 16758 O 1659.41 0.834016 -1.63676 0
M  V30 16759 C 1659.47 -2.47599 -2.60643 0
M  V30 16760 C 1659.14 -3.94058 -2.31445 0
M  V30 16761 C 1660.13 -4.83569 -1.90936 0
M  V30 16762 C 1657.82 -4.39099 -2.4392 0
M  V30 16763 C 1659.81 -6.16131 -1.63282 0
M  V30 16764 C 1657.5 -5.71699 -2.15879 0
M  V30 16765 C 1658.5 -6.60034 -1.75624 0
M  V30 16766 O 1658.18 -7.90174 -1.4792 0
M  V30 16767 H 1657.92 -0.52391 -0.427193 0
M  V30 16768 H 1660.47 -1.92011 -0.729444 0
M  V30 16769 H 1658.7 -2.04669 -3.28097 0
M  V30 16770 H 1660.39 -2.46207 -3.22703 0
M  V30 16771 H 1661.16 -4.50031 -1.80822 0
M  V30 16772 H 1657.03 -3.70575 -2.74218 0
M  V30 16773 H 1660.58 -6.85039 -1.31787 0
M  V30 16774 H 1656.48 -6.04788 -2.25614 0
M  V30 16775 H 1657.24 -8.02338 -1.61854 0
M  V30 16776 N 1659.91 0.83715 -1.33527 0
M  V30 16777 C 1661.14 1.6222 -1.27938 0
M  V30 16778 C 1661.54 1.88592 0.151584 0
M  V30 16779 O 1660.89 1.46772 1.1047 0
M  V30 16780 C 1660.95 2.99561 -1.98754 0
M  V30 16781 C 1660.61 2.96152 -3.48056 0
M  V30 16782 C 1661.61 2.71745 -4.43227 0
M  V30 16783 C 1659.3 3.16233 -3.90259 0
M  V30 16784 C 1661.29 2.67451 -5.78575 0
M  V30 16785 C 1658.98 3.11564 -5.2571 0
M  V30 16786 C 1659.97 2.87204 -6.1968 0
M  V30 16787 O 1659.66 2.82441 -7.5265 0
M  V30 16788 H 1659.39 0.511419 -0.442071 0
M  V30 16789 H 1661.95 1.05075 -1.76489 0
M  V30 16790 H 1660.18 3.58568 -1.44797 0
M  V30 16791 H 1661.87 3.60444 -1.86642 0
M  V30 16792 H 1662.63 2.5598 -4.11946 0
M  V30 16793 H 1658.51 3.34214 -3.17525 0
M  V30 16794 H 1662.06 2.48356 -6.51893 0
M  V30 16795 H 1657.95 3.26879 -5.56615 0
M  V30 16796 H 1658.72 2.98271 -7.62218 0
M  V30 16797 N 1661.38 1.17024 1.05561 0
M  V30 16798 C 1662.33 0.879696 2.15323 0
M  V30 16799 C 1663.33 -0.154191 1.68697 0
M  V30 16800 O 1664.53 -0.00746608 1.79998 0
M  V30 16801 H 1660.91 0.266916 0.703036 0
M  V30 16802 H 1662.88 1.81264 2.37035 0
M  V30 16803 C 1661.63 0.405371 3.45329 0
M  V30 16804 H 1660.95 1.19238 3.81605 0
M  V30 16805 H 1662.39 0.240923 4.23315 0
M  V30 16806 C 1660.85 -0.876349 3.25303 0
M  V30 16807 O 1661.38 -1.94397 3.51529 0
M  V30 16808 N 1659.59 -0.823031 2.78702 0
M  V30 16809 H 1659.13 0.0459847 2.57559 0
M  V30 16810 H 1659.09 -1.68108 2.65682 0
M  V30 16811 N 1662.86 -1.24221 0.969889 0
M  V30 16812 C 1664.27 -1.74206 0.671494 0
M  V30 16813 C 1664.62 -1.78576 -0.81271 0
M  V30 16814 O 1663.75 -1.41664 -1.63586 0
M  V30 16815 C 1664.34 -3.16371 1.21222 0
M  V30 16816 C 1662.9 -3.63855 0.96368 0
M  V30 16817 C 1662.05 -2.42429 1.34623 0
M  V30 16818 H 1665 -1.09893 1.14496 0
M  V30 16819 H 1665.02 -3.7606 0.579552 0
M  V30 16820 H 1664.53 -3.13159 2.29245 0
M  V30 16821 H 1662.64 -3.72463 -0.100931 0
M  V30 16822 H 1662.75 -4.51207 1.61087 0
M  V30 16823 H 1661.11 -2.42952 0.764624 0
M  V30 16824 H 1661.9 -2.41896 2.436 0
M  V30 16825 N 1664.34 -0.740267 -1.39132 0
M  V30 16826 C 1665.75 -0.359866 -1.83199 0
M  V30 16827 C 1666.1 1.1095 -1.61816 0
M  V30 16828 O 1665.23 1.85635 -1.11215 0
M  V30 16829 C 1665.82 -0.64639 -3.32577 0
M  V30 16830 C 1664.38 -0.319423 -3.75042 0
M  V30 16831 C 1663.53 -0.906345 -2.6207 0
M  V30 16832 H 1666.48 -0.93749 -1.2805 0
M  V30 16833 H 1666.5 0.080033 -3.80416 0
M  V30 16834 H 1666.01 -1.71588 -3.48108 0
M  V30 16835 H 1664.11 0.744022 -3.65096 0
M  V30 16836 H 1664.23 -0.805664 -4.72277 0
M  V30 16837 H 1662.59 -0.332615 -2.52519 0
M  V30 16838 H 1663.37 -1.9806 -2.80405 0
M  V30 16839 N 1665.82 1.49844 -0.488302 0
M  V30 16840 C 1666.77 2.25802 0.315853 0
M  V30 16841 C 1667.75 1.30108 0.946606 0
M  V30 16842 O 1668.94 1.54908 0.856306 0
M  V30 16843 C 1666.07 3.14024 1.38723 0
M  V30 16844 C 1665.16 4.17174 0.763348 0
M  V30 16845 N 1665.55 5.05642 -0.126544 0
M  V30 16846 C 1663.85 4.34053 1.02537 0
M  V30 16847 C 1664.55 5.79696 -0.482379 0
M  V30 16848 N 1663.53 5.43402 0.146639 0
M  V30 16849 H 1667.33 2.91569 -0.369397 0
M  V30 16850 H 1664.84 1.59538 -0.30355 0
M  V30 16851 H 1666.84 3.67061 1.97666 0
M  V30 16852 H 1665.5 2.49807 2.07429 0
M  V30 16853 H 1666.51 5.15514 -0.49653 0
M  V30 16854 H 1663.19 3.81048 1.70613 0
M  V30 16855 H 1664.58 6.60921 -1.20965 0
M  V30 16856 N 1667.3 0.221601 1.56034 0
M  V30 16857 C 1668.21 -0.699837 2.23918 0
M  V30 16858 C 1669.22 -1.21367 1.24683 0
M  V30 16859 O 1670.4 -1.25527 1.57495 0
M  V30 16860 C 1667.46 -1.89107 2.90585 0
M  V30 16861 C 1666.52 -1.4192 4.05163 0
M  V30 16862 C 1665.76 -2.55365 4.68641 0
M  V30 16863 O 1665.98 -3.735 4.31108 0
M  V30 16864 O 1664.91 -2.26564 5.57631 0
M  V30 16865 H 1668.74 -0.151552 3.03322 0
M  V30 16866 H 1666.33 -0.0088482 1.49397 0
M  V30 16867 H 1668.21 -2.58674 3.32664 0
M  V30 16868 H 1666.88 -2.42745 2.14141 0
M  V30 16869 H 1665.79 -0.691536 3.67653 0
M  V30 16870 H 1667.12 -0.929189 4.8335 0
M  V30 16871 N 1668.77 -1.57515 -0.0517878 0
M  V30 16872 C 1670.01 -1.90056 -0.752209 0
M  V30 16873 C 1670.38 -0.817682 -1.73718 0
M  V30 16874 O 1671.58 -1.02674 -2.48418 0
M  V30 16875 C 1669.85 -3.27798 -1.42419 0
M  V30 16876 S 1671.41 -3.82129 -2.15691 0
M  V30 16877 H 1668.23 -0.665706 -0.249712 0
M  V30 16878 H 1670.83 -1.95499 -0.0075584 0
M  V30 16879 H 1669.53 -4.04493 -0.693783 0
M  V30 16880 H 1669.06 -3.25602 -2.20786 0
M  V30 16881 H 1671.08 -3.59025 -3.42513 0
M  V30 16882 N 1670.25 0.323614 -1.54242 0
M  V30 16883 C 1671.16 1.42128 -1.86646 0
M  V30 16884 C 1672.18 1.56603 -0.758385 0
M  V30 16885 O 1673.36 1.717 -1.05267 0
M  V30 16886 C 1670.42 2.76842 -2.08709 0
M  V30 16887 C 1669.48 2.71543 -3.3251 0
M  V30 16888 C 1668.71 3.99833 -3.5351 0
M  V30 16889 O 1668.94 4.98095 -2.77952 0
M  V30 16890 O 1667.87 4.03095 -4.46988 0
M  V30 16891 H 1671.7 1.17653 -2.79985 0
M  V30 16892 H 1669.28 0.517632 -1.40146 0
M  V30 16893 H 1671.16 3.56588 -2.24551 0
M  V30 16894 H 1669.84 3.01207 -1.18558 0
M  V30 16895 H 1668.75 1.90348 -3.22053 0
M  V30 16896 H 1670.08 2.52133 -4.22717 0
M  V30 16897 N 1671.73 1.46313 0.585673 0
M  V30 16898 C 1672.98 1.52682 1.34387 0
M  V30 16899 C 1673.33 0.174924 1.91603 0
M  V30 16900 O 1672.63 -0.816026 1.73354 0
M  V30 16901 C 1672.82 2.55895 2.49504 0
M  V30 16902 C 1672.65 4.00988 2.03564 0
M  V30 16903 C 1671.42 4.68736 1.88718 0
M  V30 16904 C 1673.62 4.88874 1.59707 0
M  V30 16905 N 1671.6 5.9846 1.36818 0
M  V30 16906 C 1672.97 6.08399 1.19377 0
M  V30 16907 C 1675.02 4.75551 1.47498 0
M  V30 16908 C 1673.73 7.16073 0.680543 0
M  V30 16909 C 1675.75 5.83294 0.975784 0
M  V30 16910 C 1675.12 7.01989 0.582251 0
M  V30 16911 H 1671.21 0.613553 0.484847 0
M  V30 16912 H 1673.8 1.82912 0.667171 0
M  V30 16913 H 1671.97 2.2758 3.14741 0
M  V30 16914 H 1673.7 2.52277 3.16446 0
M  V30 16915 H 1670.46 4.24212 2.10574 0
M  V30 16916 H 1670.88 6.67497 1.13037 0
M  V30 16917 H 1675.52 3.84178 1.76543 0
M  V30 16918 H 1673.24 8.07217 0.377678 0
M  V30 16919 H 1676.83 5.75025 0.885268 0
M  V30 16920 H 1675.71 7.8394 0.201937 0
M  V30 16921 N 1673.21 -0.830057 1.33969 0
M  V30 16922 C 1674.16 -1.9292 1.21516 0
M  V30 16923 C 1675.14 -1.60482 0.115907 0
M  V30 16924 O 1676.34 -1.73608 0.344875 0
M  V30 16925 C 1673.46 -3.29442 0.96554 0
M  V30 16926 C 1672.55 -3.68021 2.10763 0
M  V30 16927 N 1672.94 -3.78222 3.3583 0
M  V30 16928 C 1671.24 -3.97821 2.01629 0
M  V30 16929 C 1671.94 -4.11858 4.10789 0
M  V30 16930 N 1670.92 -4.24698 3.39312 0
M  V30 16931 H 1674.72 -1.98974 2.16302 0
M  V30 16932 H 1672.23 -1.0233 1.26104 0
M  V30 16933 H 1674.23 -4.07991 0.857238 0
M  V30 16934 H 1672.89 -3.24689 0.0262975 0
M  V30 16935 H 1673.9 -3.61901 3.7047 0
M  V30 16936 H 1670.58 -4.01229 1.15418 0
M  V30 16937 H 1671.97 -4.27014 5.18757 0
M  V30 16938 N 1674.69 -1.17582 -1.04939 0
M  V30 16939 C 1675.92 -0.988962 -1.81392 0
M  V30 16940 C 1676.33 0.46597 -1.83372 0
M  V30 16941 O 1675.67 1.33538 -1.26148 0
M  V30 16942 C 1675.73 -1.45656 -3.28671 0
M  V30 16943 C 1675.39 -2.93412 -3.50369 0
M  V30 16944 C 1676.39 -3.91329 -3.42283 0
M  V30 16945 C 1674.08 -3.31645 -3.77249 0
M  V30 16946 C 1676.07 -5.25478 -3.60766 0
M  V30 16947 C 1673.76 -4.65959 -3.95381 0
M  V30 16948 C 1674.76 -5.62684 -3.87138 0
M  V30 16949 O 1674.44 -6.94567 -4.04761 0
M  V30 16950 H 1674.18 -0.349962 -0.578362 0
M  V30 16951 H 1676.73 -1.5635 -1.33206 0
M  V30 16952 H 1674.96 -0.825602 -3.77784 0
M  V30 16953 H 1676.65 -1.23497 -3.86657 0
M  V30 16954 H 1677.41 -3.63138 -3.2149 0
M  V30 16955 H 1673.29 -2.56925 -3.82767 0
M  V30 16956 H 1676.84 -6.00961 -3.54248 0
M  V30 16957 H 1672.73 -4.93855 -4.15665 0
M  V30 16958 H 1673.5 -7.01343 -4.21972 0
M  V30 16959 N 1676.17 1.23705 -0.976463 0
M  V30 16960 C 1677.08 2.28728 -0.521605 0
M  V30 16961 C 1678.09 1.68813 0.421691 0
M  V30 16962 O 1679.27 1.99263 0.292579 0
M  V30 16963 C 1676.33 3.4627 0.172545 0
M  V30 16964 C 1675.39 4.21557 -0.811664 0
M  V30 16965 C 1674.63 5.33488 -0.150546 0
M  V30 16966 O 1674.85 5.60478 1.05926 0
M  V30 16967 O 1673.78 5.95909 -0.847132 0
M  V30 16968 H 1677.61 2.6977 -1.39491 0
M  V30 16969 H 1675.19 1.29562 -0.743909 0
M  V30 16970 H 1677.08 4.17634 0.562103 0
M  V30 16971 H 1675.75 3.07187 1.02067 0
M  V30 16972 H 1674.66 3.52533 -1.25185 0
M  V30 16973 H 1675.99 4.6448 -1.62848 0
M  V30 16974 N 1677.64 0.747635 1.38738 0
M  V30 16975 C 1679.05 0.369576 1.83006 0
M  V30 16976 C 1679.41 -1.10091 1.62402 0
M  V30 16977 O 1678.53 -1.85042 1.12198 0
M  V30 16978 C 1679.13 0.664018 3.32229 0
M  V30 16979 C 1677.68 0.339308 3.74868 0
M  V30 16980 C 1676.83 0.920231 2.61586 0
M  V30 16981 H 1679.78 0.944268 1.27551 0
M  V30 16982 H 1679.8 -0.0598575 3.80453 0
M  V30 16983 H 1679.32 1.73432 3.47193 0
M  V30 16984 H 1677.42 -0.724649 3.65485 0
M  V30 16985 H 1677.53 0.830699 4.71843 0
M  V30 16986 H 1675.89 0.346002 2.52339 0
M  V30 16987 H 1676.68 1.99544 2.79351 0
M  V30 16988 N 1679.12 -1.49583 0.496242 0
M  V30 16989 C 1680.36 -2.04343 -0.0483884 0
M  V30 16990 C 1680.73 -1.36809 -1.34712 0
M  V30 16991 O 1681.93 -1.82263 -1.9757 0
M  V30 16992 C 1680.2 -3.56826 -0.20245 0
M  V30 16993 S 1681.76 -4.33148 -0.702015 0
M  V30 16994 H 1678.57 -0.710989 -0.00403532 0
M  V30 16995 H 1681.18 -1.83693 0.669124 0
M  V30 16996 H 1679.88 -4.03523 0.748156 0
M  V30 16997 H 1679.41 -3.81873 -0.945343 0
M  V30 16998 H 1681.43 -4.55337 -1.97187 0
M  V30 16999 N 1680.6 -0.229873 -1.55915 0
M  V30 17000 C 1681.85 0.398775 -1.98127 0
M  V30 17001 C 1682.17 1.597 -1.11897 0
M  V30 17002 O 1681.44 1.94898 -0.197868 0
M  V30 17003 H 1680.02 0.150323 -0.731719 0
M  V30 17004 H 1682.68 -0.324704 -1.92176 0
M  V30 17005 H 1681.78 0.719475 -3.03694 0
M  V30 17006 N 1682.08 1.5754 0.0434337 0
M  V30 17007 C 1683.03 2.06683 1.067 0
M  V30 17008 C 1684.02 0.977691 1.38339 0
M  V30 17009 O 1685.23 1.16266 1.37412 0
M  V30 17010 H 1681.6 0.659378 0.361559 0
M  V30 17011 H 1683.57 2.91747 0.626605 0
M  V30 17012 C 1682.32 2.54985 2.36385 0
M  V30 17013 H 1681.64 3.384 2.12897 0
M  V30 17014 H 1683.08 2.93095 3.06384 0
M  V30 17015 C 1681.54 1.44484 3.04345 0
M  V30 17016 O 1682.07 0.80291 3.93594 0
M  V30 17017 N 1680.28 1.18292 2.65434 0
M  V30 17018 H 1679.83 1.70676 1.92944 0
M  V30 17019 H 1679.78 0.445676 3.11225 0
M  V30 17020 N 1683.56 -0.31543 1.54411 0
M  V30 17021 C 1684.97 -0.660254 1.45302 0
M  V30 17022 C 1685.17 -1.91316 0.632493 0
M  V30 17023 O 1684.23 -2.52142 0.134493 0
M  V30 17024 C 1685.54 -0.826685 2.89113 0
M  V30 17025 C 1687.09 -0.923503 2.99066 0
M  V30 17026 C 1687.56 -1.12204 4.44043 0
M  V30 17027 N 1689.05 -1.18859 4.47691 0
M  V30 17028 C 1689.79 -1.36024 5.57032 0
M  V30 17029 N 1689.29 -1.5018 6.76327 0
M  V30 17030 N 1691.08 -1.38797 5.44694 0
M  V30 17031 H 1683.23 0.507961 2.06237 0
M  V30 17032 H 1685.49 0.165515 0.933439 0
M  V30 17033 H 1685.2 0.0228371 3.51693 0
M  V30 17034 H 1685.07 -1.72007 3.35698 0
M  V30 17035 H 1687.46 -1.76352 2.36609 0
M  V30 17036 H 1687.54 -0.00641189 2.55799 0
M  V30 17037 H 1687.18 -0.286844 5.07089 0
M  V30 17038 H 1687.11 -2.05313 4.84927 0
M  V30 17039 H 1689.61 -1.0933 3.61739 0
M  V30 17040 H 1689.92 -1.62992 7.55416 0
M  V30 17041 H 1688.26 -1.47262 6.79219 0
M  V30 17042 H 1691.45 -1.27339 4.50447 0
M  V30 17043 H 1691.63 -1.51832 6.29961 0
M  V30 17044 N 1685.03 -1.46622 -0.577906 0
M  V30 17045 C 1686.26 -1.56 -1.36671 0
M  V30 17046 C 1686.68 -0.2034 -1.86997 0
M  V30 17047 O 1686.04 0.817288 -1.61834 0
M  V30 17048 C 1686.09 -2.57254 -2.52691 0
M  V30 17049 O 1685.19 -2.1109 -3.54281 0
M  V30 17050 H 1684.54 -0.524779 -0.406821 0
M  V30 17051 H 1687.07 -1.92234 -0.700512 0
M  V30 17052 H 1687.08 -2.77016 -2.99543 0
M  V30 17053 H 1685.75 -3.55766 -2.15415 0
M  V30 17054 H 1684.33 -2.01337 -3.13875 0
M  V30 17055 N 1686.51 0.822941 -1.34408 0
M  V30 17056 C 1687.76 1.57916 -1.26763 0
M  V30 17057 C 1688.09 1.93821 0.162408 0
M  V30 17058 O 1687.34 1.60226 1.12366 0
M  V30 17059 C 1687.64 2.88915 -2.10388 0
M  V30 17060 C 1687.31 2.72302 -3.59392 0
M  V30 17061 C 1685.97 2.67479 -4.00011 0
M  V30 17062 C 1688.32 2.5598 -4.54008 0
M  V30 17063 C 1685.65 2.44255 -5.33438 0
M  V30 17064 C 1688 2.34288 -5.87615 0
M  V30 17065 C 1686.67 2.27877 -6.27398 0
M  V30 17066 H 1685.94 0.577854 -0.46386 0
M  V30 17067 H 1688.58 0.95218 -1.6615 0
M  V30 17068 H 1686.89 3.55903 -1.63829 0
M  V30 17069 H 1688.58 3.46511 -2.01819 0
M  V30 17070 H 1685.17 2.76896 -3.27149 0
M  V30 17071 H 1689.36 2.5873 -4.23524 0
M  V30 17072 H 1684.61 2.37749 -5.63281 0
M  V30 17073 H 1688.79 2.20646 -6.60521 0
M  V30 17074 H 1686.42 2.09643 -7.30722 0
M  V30 17075 N 1687.99 1.18137 1.04314 0
M  V30 17076 C 1688.9 0.921044 2.15764 0
M  V30 17077 C 1689.92 -0.11396 1.73626 0
M  V30 17078 O 1691.09 0.0673733 2.01287 0
M  V30 17079 C 1688.16 0.447581 3.43799 0
M  V30 17080 C 1687.22 1.55025 4.00332 0
M  V30 17081 C 1686.45 1.09928 5.22256 0
M  V30 17082 O 1686.67 -0.0430152 5.70384 0
M  V30 17083 O 1685.61 1.896 5.71258 0
M  V30 17084 H 1689.43 1.85353 2.40579 0
M  V30 17085 H 1687.02 0.962985 1.14223 0
M  V30 17086 H 1688.9 0.191497 4.20965 0
M  V30 17087 H 1687.58 -0.456641 3.20463 0
M  V30 17088 H 1686.48 1.86032 3.24566 0
M  V30 17089 H 1687.82 2.4305 4.28004 0
M  V30 17090 N 1689.47 -1.23186 0.98301 0
M  V30 17091 C 1690.7 -1.95702 0.671453 0
M  V30 17092 C 1691.11 -1.72737 -0.76206 0
M  V30 17093 O 1690.47 -1.02037 -1.5131 0
M  V30 17094 C 1690.52 -3.48642 0.955573 0
M  V30 17095 O 1690.24 -3.70829 2.33275 0
M  V30 17096 C 1691.74 -4.38354 0.660333 0
M  V30 17097 H 1688.96 -0.623006 0.249209 0
M  V30 17098 H 1691.51 -1.56606 1.3151 0
M  V30 17099 H 1689.66 -3.85743 0.357892 0
M  V30 17100 H 1690.07 -4.65104 2.42443 0
M  V30 17101 H 1691.55 -5.44456 0.909477 0
M  V30 17102 H 1692.03 -4.37323 -0.405615 0
M  V30 17103 H 1692.63 -4.06864 1.23861 0
M  V30 17104 N 1690.95 -0.754982 -1.38339 0
M  V30 17105 C 1692.19 -0.316707 -2.01931 0
M  V30 17106 C 1692.55 1.08162 -1.58635 0
M  V30 17107 O 1693.75 1.61909 -2.14567 0
M  V30 17108 C 1692.02 -0.436974 -3.54719 0
M  V30 17109 S 1693.58 -0.0814864 -4.38724 0
M  V30 17110 H 1690.4 -0.122791 -0.700317 0
M  V30 17111 H 1693 -0.985907 -1.6882 0
M  V30 17112 H 1691.71 -1.45561 -3.83719 0
M  V30 17113 H 1691.24 0.249361 -3.92609 0
M  V30 17114 H 1693.25 1.12846 -4.83198 0
M  V30 17115 N 1692.42 1.49318 -0.504168 0
M  V30 17116 C 1693.84 1.58793 -0.160331 0
M  V30 17117 C 1694.04 1.50906 1.33527 0
M  V30 17118 O 1693.1 1.38466 2.11148 0
M  V30 17119 C 1694.41 2.91454 -0.739945 0
M  V30 17120 C 1695.96 3.04926 -0.706338 0
M  V30 17121 C 1696.43 4.4021 -1.26407 0
M  V30 17122 N 1697.92 4.46711 -1.22491 0
M  V30 17123 C 1698.66 5.49844 -1.62661 0
M  V30 17124 N 1698.15 6.60066 -2.10439 0
M  V30 17125 N 1699.95 5.40576 -1.54058 0
M  V30 17126 H 1692.1 1.52687 -1.4765 0
M  V30 17127 H 1694.36 0.723463 -0.612622 0
M  V30 17128 H 1694.07 3.02802 -1.78896 0
M  V30 17129 H 1693.94 3.76658 -0.202187 0
M  V30 17130 H 1696.33 2.93206 0.333845 0
M  V30 17131 H 1696.41 2.21398 -1.28128 0
M  V30 17132 H 1696.05 4.52683 -2.30305 0
M  V30 17133 H 1695.98 5.22384 -0.665041 0
M  V30 17134 H 1698.47 3.67634 -0.874869 0
M  V30 17135 H 1698.79 7.34865 -2.39153 0
M  V30 17136 H 1697.13 6.61098 -2.14415 0
M  V30 17137 H 1700.32 4.53359 -1.16548 0
M  V30 17138 H 1700.5 6.20826 -1.85687 0
M  V30 17139 N 1693.9 0.238138 1.5579 0
M  V30 17140 C 1695.13 -0.393422 2.03125 0
M  V30 17141 C 1695.55 -1.52168 1.11761 0
M  V30 17142 O 1694.9 -1.82034 0.130341 0
M  V30 17143 C 1694.95 -0.909474 3.49873 0
M  V30 17144 O 1694.67 0.17381 4.37755 0
M  V30 17145 C 1696.18 -1.61261 4.12928 0
M  V30 17146 H 1693.4 -0.0945077 0.664311 0
M  V30 17147 H 1695.94 0.359442 2.01316 0
M  V30 17148 H 1694.09 -1.61255 3.52244 0
M  V30 17149 H 1694.51 -0.216641 5.24052 0
M  V30 17150 H 1695.98 -1.92551 5.17328 0
M  V30 17151 H 1696.46 -2.53155 3.589 0
M  V30 17152 H 1697.07 -0.954326 4.14455 0
M  V30 17153 N 1695.38 -1.57561 -0.0350783 0
M  V30 17154 C 1696.63 -1.88177 -0.726105 0
M  V30 17155 C 1696.94 -0.835856 -1.76841 0
M  V30 17156 O 1698.15 -1.03105 -2.51161 0
M  V30 17157 C 1696.6 -3.33924 -1.34249 0
M  V30 17158 C 1696.21 -4.46732 -0.336845 0
M  V30 17159 C 1697.96 -3.73696 -2.01374 0
M  V30 17160 C 1695.86 -5.83536 -0.961234 0
M  V30 17161 H 1694.79 -0.702082 -0.274948 0
M  V30 17162 H 1697.44 -1.83489 0.0197081 0
M  V30 17163 H 1695.83 -3.33337 -2.13781 0
M  V30 17164 H 1697 -4.58777 0.431323 0
M  V30 17165 H 1695.32 -4.15753 0.231983 0
M  V30 17166 H 1697.91 -4.7322 -2.48931 0
M  V30 17167 H 1698.26 -3.05379 -2.8293 0
M  V30 17168 H 1698.79 -3.76431 -1.28626 0
M  V30 17169 H 1695.53 -6.55238 -0.185217 0
M  V30 17170 H 1695.05 -5.75223 -1.69938 0
M  V30 17171 H 1696.73 -6.30071 -1.47035 0
M  V30 17172 N 1696.86 0.307236 -1.54576 0
M  V30 17173 C 1697.81 1.39877 -1.85842 0
M  V30 17174 C 1698.8 1.52786 -0.73163 0
M  V30 17175 O 1700.01 1.54977 -0.915534 0
M  V30 17176 H 1696.38 0.467101 -0.589339 0
M  V30 17177 H 1698.35 1.10739 -2.77091 0
M  V30 17178 C 1697.1 2.75829 -2.11692 0
M  V30 17179 H 1696.42 2.66675 -2.97867 0
M  V30 17180 H 1697.86 3.51232 -2.37513 0
M  V30 17181 C 1696.32 3.24278 -0.913522 0
M  V30 17182 O 1696.85 4.01487 -0.130903 0
M  V30 17183 N 1695.06 2.81523 -0.720625 0
M  V30 17184 H 1694.61 2.18854 -1.3587 0
M  V30 17185 H 1694.56 3.1429 0.083014 0
M  V30 17186 N 1698.34 1.46926 0.570122 0
M  V30 17187 C 1699.58 1.52585 1.32523 0
M  V30 17188 C 1699.91 0.184291 1.94127 0
M  V30 17189 O 1699.18 -0.790478 1.79244 0
M  V30 17190 H 1697.76 0.562019 0.492081 0
M  V30 17191 H 1700.42 1.83141 0.666746 0
M  V30 17192 H 1699.51 2.28541 2.12545 0
M  V30 17193 N 1699.82 -0.815801 1.34842 0
M  V30 17194 C 1701.06 -1.56747 1.26938 0
M  V30 17195 C 1701.38 -1.9497 -0.156887 0
M  V30 17196 O 1702.58 -2.69128 -0.358132 0
M  V30 17197 C 1701.04 -2.82832 2.22562 0
M  V30 17198 C 1700.65 -2.51883 3.70485 0
M  V30 17199 C 1702.39 -3.60849 2.23581 0
M  V30 17200 C 1700.3 -3.74204 4.57957 0
M  V30 17201 H 1699.23 -0.58832 0.471588 0
M  V30 17202 H 1701.88 -0.897551 1.60051 0
M  V30 17203 H 1700.26 -3.51486 1.8241 0
M  V30 17204 H 1701.44 -1.91294 4.19217 0
M  V30 17205 H 1699.75 -1.87129 3.71983 0
M  V30 17206 H 1702.35 -4.51686 2.86154 0
M  V30 17207 H 1702.69 -3.97496 1.23703 0
M  V30 17208 H 1703.22 -2.99146 2.62215 0
M  V30 17209 H 1699.96 -3.42672 5.58799 0
M  V30 17210 H 1699.48 -4.34051 4.13956 0
M  V30 17211 H 1701.16 -4.41536 4.72921 0
M  V30 17212 N 1701.29 -1.18689 -1.03686 0
M  V30 17213 C 1702.24 -0.885273 -2.10112 0
M  V30 17214 C 1703.23 0.146598 -1.60231 0
M  V30 17215 O 1704.42 -0.0579783 -1.76905 0
M  V30 17216 C 1701.55 -0.416977 -3.40758 0
M  V30 17217 C 1700.63 -1.48114 -3.97396 0
M  V30 17218 N 1701.03 -2.69857 -4.27798 0
M  V30 17219 C 1699.32 -1.34255 -4.25314 0
M  V30 17220 C 1700.02 -3.38349 -4.73175 0
M  V30 17221 N 1699 -2.65735 -4.74222 0
M  V30 17222 H 1702.8 -1.81067 -2.31499 0
M  V30 17223 H 1700.32 -1.07786 -1.21474 0
M  V30 17224 H 1702.31 -0.182385 -4.16501 0
M  V30 17225 H 1700.97 0.502036 -3.20795 0
M  V30 17226 H 1701.98 -3.0669 -4.17327 0
M  V30 17227 H 1698.66 -0.486374 -4.14657 0
M  V30 17228 H 1700.05 -4.42415 -5.05686 0
M  V30 17229 N 1702.77 1.22662 -0.989529 0
M  V30 17230 C 1704 1.95883 -0.681511 0
M  V30 17231 C 1704.42 1.72646 0.746646 0
M  V30 17232 O 1703.78 1.00358 1.5099 0
M  V30 17233 C 1703.83 3.46773 -0.988975 0
M  V30 17234 O 1702.93 4.12311 -0.0858485 0
M  V30 17235 H 1702.27 0.612916 -0.255401 0
M  V30 17236 H 1704.8 1.5585 -1.32559 0
M  V30 17237 H 1704.81 3.97273 -0.929426 0
M  V30 17238 H 1703.49 3.63011 -2.02967 0
M  V30 17239 H 1702.06 3.7236 -0.200592 0
M  V30 17240 N 1704.25 0.762308 1.37937 0
M  V30 17241 C 1705.2 0.129897 2.32237 0
M  V30 17242 C 1706.19 -0.695577 1.54461 0
M  V30 17243 O 1707.4 -0.593697 1.69927 0
M  V30 17244 H 1703.77 0.023214 0.751642 0
M  V30 17245 H 1705.74 0.941144 2.8317 0
M  V30 17246 C 1704.49 -0.742235 3.39685 0
M  V30 17247 H 1703.82 -0.116427 3.9963 0
M  V30 17248 H 1705.26 -1.15187 4.08054 0
M  V30 17249 C 1703.71 -1.8887 2.7898 0
M  V30 17250 O 1704.24 -2.98351 2.68979 0
M  V30 17251 N 1702.45 -1.68642 2.36661 0
M  V30 17252 H 1702 -0.795945 2.44995 0
M  V30 17253 H 1701.96 -2.45519 1.96387 0
M  V30 17254 N 1705.73 -1.49049 0.51208 0
M  V30 17255 C 1706.98 -2.01677 -0.0303931 0
M  V30 17256 C 1707.29 -1.39594 -1.37014 0
M  V30 17257 O 1708.5 -1.83615 -1.99994 0
M  V30 17258 C 1706.95 -3.59748 -0.104605 0
M  V30 17259 C 1706.56 -4.30808 1.22916 0
M  V30 17260 C 1708.3 -4.20283 -0.596854 0
M  V30 17261 C 1706.21 -5.80765 1.11651 0
M  V30 17262 H 1705.14 -0.753848 -0.015131 0
M  V30 17263 H 1707.79 -1.71482 0.653169 0
M  V30 17264 H 1706.17 -3.86707 -0.852859 0
M  V30 17265 H 1707.35 -4.15539 1.99158 0
M  V30 17266 H 1705.66 -3.82066 1.65573 0
M  V30 17267 H 1708.26 -5.30114 -0.698821 0
M  V30 17268 H 1708.6 -3.84392 -1.59838 0
M  V30 17269 H 1709.14 -3.97686 0.0951882 0
M  V30 17270 H 1705.87 -6.212 2.09264 0
M  V30 17271 H 1705.39 -5.98497 0.395167 0
M  V30 17272 H 1707.07 -6.42038 0.799782 0
M  V30 17273 N 1707.21 -0.246397 -1.55662 0
M  V30 17274 C 1708.43 0.385607 -2.03784 0
M  V30 17275 C 1708.86 1.50786 -1.12451 0
M  V30 17276 O 1708.21 1.8092 -0.117371 0
M  V30 17277 C 1708.26 0.871204 -3.49918 0
M  V30 17278 O 1707.37 1.98082 -3.61715 0
M  V30 17279 H 1706.71 0.0841099 -0.658651 0
M  V30 17280 H 1709.24 -0.372306 -2.01184 0
M  V30 17281 H 1709.25 1.17455 -3.90728 0
M  V30 17282 H 1707.92 0.0499597 -4.1587 0
M  V30 17283 H 1706.5 1.6822 -3.32801 0
M  V30 17284 N 1708.68 1.57577 0.026722 0
M  V30 17285 C 1709.93 1.8966 0.718124 0
M  V30 17286 C 1710.26 0.844423 1.7488 0
M  V30 17287 O 1709.54 -0.14023 1.93994 0
M  V30 17288 C 1709.82 3.32377 1.38555 0
M  V30 17289 C 1709.67 4.4829 0.368227 0
M  V30 17290 C 1710.99 3.74051 2.31891 0
M  V30 17291 H 1708.11 0.689767 0.259596 0
M  V30 17292 H 1710.75 1.8999 -0.0190825 0
M  V30 17293 H 1708.9 3.32226 2.01391 0
M  V30 17294 H 1710.58 4.60576 -0.258394 0
M  V30 17295 H 1708.82 4.32675 -0.312255 0
M  V30 17296 H 1709.49 5.45041 0.873749 0
M  V30 17297 H 1711.97 3.75584 1.79097 0
M  V30 17298 H 1710.84 4.74713 2.7557 0
M  V30 17299 H 1711.1 3.06438 3.18666 0
M  V30 17300 N 1710.16 -0.299034 1.54737 0
M  V30 17301 C 1711.39 -1.05723 1.7843 0
M  V30 17302 C 1711.81 -1.80089 0.543094 0
M  V30 17303 O 1711.17 -1.74083 -0.506438 0
M  V30 17304 C 1711.22 -2.01193 2.99255 0
M  V30 17305 O 1710.32 -3.09528 2.72518 0
M  V30 17306 H 1709.66 -0.303614 0.590521 0
M  V30 17307 H 1712.19 -0.335859 2.01825 0
M  V30 17308 H 1712.2 -2.43623 3.27279 0
M  V30 17309 H 1710.88 -1.46472 3.89254 0
M  V30 17310 H 1709.45 -2.71599 2.55516 0
M  V30 17311 N 1711.64 -1.47227 -0.562322 0
M  V30 17312 C 1712.87 -1.56968 -1.34331 0
M  V30 17313 C 1713.28 -0.217012 -1.87951 0
M  V30 17314 O 1712.62 0.79911 -1.65408 0
M  V30 17315 C 1712.68 -2.53072 -2.55332 0
M  V30 17316 C 1712.35 -3.98879 -2.23035 0
M  V30 17317 C 1713.34 -4.87511 -1.80636 0
M  V30 17318 C 1711.03 -4.44174 -2.34551 0
M  V30 17319 C 1713.02 -6.19456 -1.50176 0
M  V30 17320 C 1710.71 -5.76149 -2.03704 0
M  V30 17321 C 1711.71 -6.63611 -1.61584 0
M  V30 17322 O 1711.4 -7.93134 -1.31125 0
M  V30 17323 H 1711.13 -0.532854 -0.415984 0
M  V30 17324 H 1713.68 -1.93515 -0.688552 0
M  V30 17325 H 1711.91 -2.11582 -3.23682 0
M  V30 17326 H 1713.6 -2.52996 -3.17408 0
M  V30 17327 H 1714.37 -4.53766 -1.71236 0
M  V30 17328 H 1710.25 -3.76308 -2.66295 0
M  V30 17329 H 1713.79 -6.8768 -1.17227 0
M  V30 17330 H 1709.69 -6.09438 -2.12735 0
M  V30 17331 H 1710.45 -8.0559 -1.44799 0
M  V30 17332 N 1713.12 0.808639 -1.35273 0
M  V30 17333 C 1714.05 1.93502 -1.30687 0
M  V30 17334 C 1715.03 1.69127 -0.181675 0
M  V30 17335 O 1716.21 1.90519 -0.376312 0
M  V30 17336 C 1713.34 3.30211 -1.07602 0
M  V30 17337 C 1712.3 3.69063 -2.16741 0
M  V30 17338 C 1711.62 5.03911 -1.78824 0
M  V30 17339 C 1712.92 3.79656 -3.5869 0
M  V30 17340 H 1714.62 1.97597 -2.24935 0
M  V30 17341 H 1712.16 0.949284 -1.0828 0
M  V30 17342 H 1714.12 4.0861 -1.03034 0
M  V30 17343 H 1712.84 3.26453 -0.0979944 0
M  V30 17344 H 1711.5 2.92948 -2.20402 0
M  V30 17345 H 1711.15 4.96655 -0.796449 0
M  V30 17346 H 1710.85 5.30877 -2.51881 0
M  V30 17347 H 1712.37 5.84752 -1.75777 0
M  V30 17348 H 1713.79 4.48292 -3.57362 0
M  V30 17349 H 1712.18 4.1809 -4.30489 0
M  V30 17350 H 1713.25 2.81265 -3.94991 0
M  V30 17351 N 1714.6 1.19237 1.03055 0
M  V30 17352 C 1715.51 0.943876 2.14775 0
M  V30 17353 C 1716.52 -0.0955384 1.73738 0
M  V30 17354 O 1717.7 0.0887187 2.01204 0
M  V30 17355 C 1714.76 0.48402 3.43305 0
M  V30 17356 C 1713.82 1.59262 3.98665 0
M  V30 17357 C 1713.06 1.15461 5.21061 0
M  V30 17358 O 1713.28 0.0174841 5.70397 0
M  V30 17359 O 1712.21 1.95648 5.69215 0
M  V30 17360 H 1716.04 1.87894 2.38599 0
M  V30 17361 H 1713.63 0.975046 1.13195 0
M  V30 17362 H 1715.51 0.236135 4.20738 0
M  V30 17363 H 1714.18 -0.422626 3.20929 0
M  V30 17364 H 1713.09 1.89464 3.22574 0
M  V30 17365 H 1714.42 2.47576 4.25402 0
M  V30 17366 N 1716.07 -1.22136 0.99602 0
M  V30 17367 C 1717.32 -1.9059 0.672303 0
M  V30 17368 C 1717.64 -1.77903 -0.798476 0
M  V30 17369 O 1716.91 -1.1682 -1.57257 0
M  V30 17370 H 1715.49 -0.705445 0.245676 0
M  V30 17371 H 1718.16 -1.48423 1.2632 0
M  V30 17372 H 1717.25 -2.97684 0.937577 0
M  V30 17373 N 1717.55 -0.769612 -1.37531 0
M  V30 17374 C 1718.79 -0.338106 -2.01584 0
M  V30 17375 C 1719.16 1.06474 -1.59773 0
M  V30 17376 O 1720.36 1.59624 -2.16272 0
M  V30 17377 C 1718.63 -0.474572 -3.54235 0
M  V30 17378 S 1720.19 -0.128014 -4.38613 0
M  V30 17379 H 1717.01 -0.130211 -0.698975 0
M  V30 17380 H 1719.61 -1.00376 -1.67765 0
M  V30 17381 H 1718.31 -1.49622 -3.82154 0
M  V30 17382 H 1717.84 0.207706 -3.92851 0
M  V30 17383 H 1719.86 1.07715 -4.84368 0
M  V30 17384 N 1719.03 1.48775 -0.519977 0
M  V30 17385 C 1720.26 2.06595 0.013978 0
M  V30 17386 C 1720.67 1.37819 1.29624 0
M  V30 17387 O 1720.01 0.456315 1.77942 0
M  V30 17388 C 1720.07 3.58085 0.318694 0
M  V30 17389 C 1719.74 4.48669 -0.868623 0
M  V30 17390 C 1720.73 4.89048 -1.76432 0
M  V30 17391 C 1718.42 4.9071 -1.07279 0
M  V30 17392 C 1720.41 5.70226 -2.84818 0
M  V30 17393 C 1718.1 5.7166 -2.15981 0
M  V30 17394 C 1719.1 6.11325 -3.04583 0
M  V30 17395 O 1718.79 6.90653 -4.11405 0
M  V30 17396 H 1718.52 0.675506 -0.02584 0
M  V30 17397 H 1721.07 1.92289 -0.722099 0
M  V30 17398 H 1719.3 3.70468 1.10861 0
M  V30 17399 H 1720.99 3.98068 0.793529 0
M  V30 17400 H 1721.76 4.57198 -1.61848 0
M  V30 17401 H 1717.64 4.59326 -0.392454 0
M  V30 17402 H 1721.18 6.01105 -3.54004 0
M  V30 17403 H 1717.08 6.02923 -2.30552 0
M  V30 17404 H 1717.85 7.08991 -4.08992 0
M  V30 17405 N 1720.51 0.254649 1.55529 0
M  V30 17406 C 1721.92 -0.247042 1.85058 0
M  V30 17407 C 1722.27 -1.57009 1.17655 0
M  V30 17408 O 1721.4 -2.11506 0.457638 0
M  V30 17409 C 1721.99 -0.455017 3.35731 0
M  V30 17410 C 1720.55 -0.900961 3.65458 0
M  V30 17411 C 1719.7 0.0174436 2.77295 0
M  V30 17412 H 1722.65 0.477005 1.51362 0
M  V30 17413 H 1722.67 -1.29654 3.57729 0
M  V30 17414 H 1722.18 0.508076 3.8476 0
M  V30 17415 H 1720.28 -1.87625 3.21913 0
M  V30 17416 H 1720.39 -0.752458 4.73154 0
M  V30 17417 H 1718.76 -0.495296 2.49838 0
M  V30 17418 H 1719.54 0.976049 3.29132 0
M  V30 17419 N 1721.99 -1.57589 -0.0183649 0
M  V30 17420 C 1723.4 -1.55152 -0.374183 0
M  V30 17421 C 1723.6 -0.98217 -1.75942 0
M  V30 17422 O 1722.66 -0.607905 -2.45073 0
M  V30 17423 C 1723.97 -2.99519 -0.266231 0
M  V30 17424 C 1725.52 -3.1112 -0.342527 0
M  V30 17425 C 1725.99 -4.57239 -0.263905 0
M  V30 17426 N 1727.49 -4.62077 -0.322372 0
M  V30 17427 C 1728.22 -5.72693 -0.284594 0
M  V30 17428 N 1727.72 -6.92516 -0.198482 0
M  V30 17429 N 1729.51 -5.611 -0.335111 0
M  V30 17430 H 1721.66 -1.92945 0.888033 0
M  V30 17431 H 1723.92 -0.885432 0.338695 0
M  V30 17432 H 1723.63 -3.44942 0.686123 0
M  V30 17433 H 1723.5 -3.62127 -1.05565 0
M  V30 17434 H 1725.89 -2.65638 -1.28532 0
M  V30 17435 H 1725.97 -2.51324 0.476435 0
M  V30 17436 H 1725.62 -5.03391 0.675263 0
M  V30 17437 H 1725.55 -5.14959 -1.10111 0
M  V30 17438 H 1728.04 -3.75872 -0.391004 0
M  V30 17439 H 1728.35 -7.72602 -0.175048 0
M  V30 17440 H 1726.69 -6.94806 -0.164374 0
M  V30 17441 H 1729.89 -4.66384 -0.400452 0
M  V30 17442 H 1730.06 -6.47295 -0.302203 0
M  V30 17443 N 1723.46 0.290824 -1.54893 0
M  V30 17444 C 1724.7 1.0326 -1.76399 0
M  V30 17445 C 1725.07 1.84136 -0.543874 0
M  V30 17446 O 1726.27 2.61147 -0.636854 0
M  V30 17447 C 1724.54 1.90632 -3.02315 0
M  V30 17448 S 1726.1 2.71317 -3.44866 0
M  V30 17449 H 1722.92 0.348084 -0.619966 0
M  V30 17450 H 1725.52 0.304897 -1.93108 0
M  V30 17451 H 1724.22 1.30109 -3.8923 0
M  V30 17452 H 1723.75 2.67753 -2.88222 0
M  V30 17453 H 1725.77 3.93148 -3.02737 0
M  V30 17454 N 1724.94 1.47523 0.554506 0
M  V30 17455 C 1726.35 1.48114 1.13662 0
M  V30 17456 C 1726.7 0.237321 1.94759 0
M  V30 17457 O 1725.83 -0.657558 2.06168 0
M  V30 17458 C 1726.42 2.68366 2.06797 0
M  V30 17459 C 1724.98 2.71908 2.60274 0
M  V30 17460 C 1724.13 2.41258 1.3671 0
M  V30 17461 H 1727.08 1.54994 0.34097 0
M  V30 17462 H 1727.1 2.4549 2.90714 0
M  V30 17463 H 1726.61 3.58877 1.47745 0
M  V30 17464 H 1724.72 1.85543 3.23117 0
M  V30 17465 H 1724.83 3.72673 3.01084 0
M  V30 17466 H 1723.19 1.91897 1.67474 0
M  V30 17467 H 1723.98 3.3398 0.794476 0
M  V30 17468 N 1726.42 -0.801453 1.357 0
M  V30 17469 C 1727.37 -1.91355 1.29043 0
M  V30 17470 C 1728.34 -1.65314 0.161381 0
M  V30 17471 O 1729.52 -1.87638 0.345928 0
M  V30 17472 C 1726.66 -3.27979 1.07348 0
M  V30 17473 C 1725.78 -3.66172 2.29221 0
M  V30 17474 C 1724.91 -4.91853 2.00635 0
M  V30 17475 C 1723.95 -5.22688 3.18533 0
M  V30 17476 N 1723.09 -6.3955 2.8969 0
M  V30 17477 H 1727.93 -1.96381 2.24139 0
M  V30 17478 H 1725.46 -0.960502 1.11413 0
M  V30 17479 H 1727.42 -4.06748 0.928002 0
M  V30 17480 H 1726.05 -3.22408 0.159115 0
M  V30 17481 H 1725.1 -2.82623 2.54615 0
M  V30 17482 H 1726.42 -3.84916 3.1724 0
M  V30 17483 H 1725.57 -5.78459 1.82947 0
M  V30 17484 H 1724.31 -4.75154 1.09908 0
M  V30 17485 H 1723.31 -4.34569 3.36793 0
M  V30 17486 H 1724.54 -5.41313 4.10069 0
M  V30 17487 H 1722.48 -6.24266 2.01562 0
M  V30 17488 H 1722.4 -6.58569 3.71245 0
M  V30 17489 H 1723.67 -7.29171 2.75555 0
M  V30 17490 N 1727.9 -1.19782 -1.02421 0
M  V30 17491 C 1729.18 -0.912541 -1.73009 0
M  V30 17492 C 1729.56 0.58061 -2.02958 0
M  V30 17493 O 1728.9 1.54013 -1.68797 0
M  V30 17494 C 1729.11 -1.77745 -3.00346 0
M  V30 17495 C 1730.46 -2.01462 -3.73762 0
M  V30 17496 O 1731.49 -1.74935 -3.10284 0
M  V30 17497 O 1730.34 -2.46219 -4.87892 0
M  V30 17498 H 1727.44 -0.340513 -0.753644 0
M  V30 17499 H 1729.98 -1.30618 -1.08338 0
M  V30 17500 H 1728.76 -2.78887 -2.74477 0
M  V30 17501 H 1728.38 -1.38339 -3.72757 0
M  V30 17502 N 1729.38 1.21606 -1.00248 0
M  V30 17503 C 1730.79 1.42695 -0.714862 0
M  V30 17504 C 1730.99 1.88542 0.710917 0
M  V30 17505 O 1730.05 2.04535 1.48059 0
M  V30 17506 C 1731.36 2.4605 -1.72858 0
M  V30 17507 C 1732.91 2.59836 -1.74511 0
M  V30 17508 C 1733.39 3.66421 -2.74772 0
M  V30 17509 N 1734.88 3.73889 -2.73425 0
M  V30 17510 C 1735.61 4.5598 -3.47664 0
M  V30 17511 N 1735.11 5.41987 -4.31535 0
M  V30 17512 N 1736.9 4.50379 -3.36326 0
M  V30 17513 H 1729.05 0.901565 -1.92316 0
M  V30 17514 H 1731.31 0.458128 -0.829954 0
M  V30 17515 H 1731.02 2.19329 -2.74932 0
M  V30 17516 H 1730.89 3.44812 -1.5292 0
M  V30 17517 H 1733.28 2.85895 -0.731304 0
M  V30 17518 H 1733.36 1.61317 -1.98521 0
M  V30 17519 H 1733.01 3.41108 -3.76308 0
M  V30 17520 H 1732.94 4.64531 -2.48029 0
M  V30 17521 H 1735.43 3.12443 -2.12575 0
M  V30 17522 H 1735.74 6.01673 -4.84984 0
M  V30 17523 H 1734.09 5.41537 -4.35618 0
M  V30 17524 H 1737.28 3.82217 -2.70237 0
M  V30 17525 H 1737.45 5.14122 -3.9444 0
M  V30 17526 N 1730.86 0.776895 1.37121 0
M  V30 17527 C 1732.27 0.408311 1.8218 0
M  V30 17528 C 1732.62 -1.06621 1.64701 0
M  V30 17529 O 1731.74 -1.82621 1.16097 0
M  V30 17530 C 1732.34 0.734339 3.30746 0
M  V30 17531 C 1730.9 0.418746 3.74063 0
M  V30 17532 C 1730.04 0.97551 2.59575 0
M  V30 17533 H 1732.99 0.971111 1.25519 0
M  V30 17534 H 1733.02 0.0208557 3.80494 0
M  V30 17535 H 1732.53 1.80757 3.43436 0
M  V30 17536 H 1730.63 -0.646961 3.6694 0
M  V30 17537 H 1730.74 0.930597 4.69975 0
M  V30 17538 H 1729.11 0.399449 2.51548 0
M  V30 17539 H 1729.89 2.05425 2.75056 0
M  V30 17540 N 1732.33 -1.48497 0.527859 0
M  V30 17541 C 1733.58 -2.01698 -0.00900086 0
M  V30 17542 C 1733.9 -1.4104 -1.35525 0
M  V30 17543 O 1735.1 -1.85726 -1.98035 0
M  V30 17544 C 1733.56 -3.59839 -0.0664428 0
M  V30 17545 C 1733.17 -4.2948 1.27479 0
M  V30 17546 C 1734.91 -4.20893 -0.552244 0
M  V30 17547 C 1732.82 -5.79548 1.17805 0
M  V30 17548 H 1731.75 -0.753966 -0.00713463 0
M  V30 17549 H 1734.4 -1.70779 0.67132 0
M  V30 17550 H 1732.78 -3.8759 -0.811795 0
M  V30 17551 H 1733.95 -4.13403 2.03554 0
M  V30 17552 H 1732.27 -3.80289 1.69616 0
M  V30 17553 H 1734.87 -5.30825 -0.642556 0
M  V30 17554 H 1735.21 -3.86066 -1.55752 0
M  V30 17555 H 1735.74 -3.97563 0.137363 0
M  V30 17556 H 1732.48 -6.18945 2.15841 0
M  V30 17557 H 1732 -5.98044 0.458624 0
M  V30 17558 H 1733.68 -6.41153 0.867834 0
M  V30 17559 N 1733.81 -0.262893 -1.55392 0
M  V30 17560 C 1735.04 0.360534 -2.0343 0
M  V30 17561 C 1735.45 1.50917 -1.14108 0
M  V30 17562 O 1734.79 1.83077 -0.15118 0
M  V30 17563 C 1734.85 0.91519 -3.47656 0
M  V30 17564 C 1734.52 -0.103245 -4.56883 0
M  V30 17565 C 1735.52 -0.918464 -5.11723 0
M  V30 17566 C 1733.2 -0.233956 -5.01755 0
M  V30 17567 C 1735.19 -1.8507 -6.09941 0
M  V30 17568 C 1732.88 -1.16968 -5.99801 0
M  V30 17569 C 1733.88 -1.97656 -6.53774 0
M  V30 17570 O 1733.57 -2.89648 -7.49906 0
M  V30 17571 H 1733.3 0.0879049 -0.67026 0
M  V30 17572 H 1735.85 -0.389114 -2.01681 0
M  V30 17573 H 1734.08 1.71469 -3.46605 0
M  V30 17574 H 1735.77 1.4504 -3.79102 0
M  V30 17575 H 1736.54 -0.828152 -4.77877 0
M  V30 17576 H 1732.42 0.384057 -4.59397 0
M  V30 17577 H 1735.96 -2.48091 -6.51994 0
M  V30 17578 H 1731.86 -1.26085 -6.33066 0
M  V30 17579 H 1732.63 -2.84191 -7.67579 0
M  V30 17580 N 1735.29 1.57597 0.0100073 0
M  V30 17581 C 1736.2 2.11209 1.02117 0
M  V30 17582 C 1737.22 1.05503 1.38366 0
M  V30 17583 O 1738.39 1.37348 1.47301 0
M  V30 17584 C 1735.46 2.59654 2.2974 0
M  V30 17585 C 1734.52 3.79921 1.99896 0
M  V30 17586 C 1733.75 4.26046 3.21435 0
M  V30 17587 O 1733.97 3.71566 4.32775 0
M  V30 17588 O 1732.91 5.18301 3.06018 0
M  V30 17589 H 1736.73 2.97805 0.595469 0
M  V30 17590 H 1734.32 1.47647 0.228208 0
M  V30 17591 H 1736.2 2.91058 3.04735 0
M  V30 17592 H 1734.88 1.76161 2.71568 0
M  V30 17593 H 1733.78 3.53506 1.22409 0
M  V30 17594 H 1735.12 4.64457 1.62912 0
M  V30 17595 N 1736.77 -0.282606 1.55045 0
M  V30 17596 C 1737.68 -1.37129 1.90349 0
M  V30 17597 C 1738.69 -1.54537 0.799639 0
M  V30 17598 O 1739.87 -1.68849 1.09782 0
M  V30 17599 C 1736.93 -2.71211 2.15975 0
M  V30 17600 C 1736 -2.62632 3.39592 0
M  V30 17601 C 1735.23 -3.90319 3.63987 0
M  V30 17602 O 1735.45 -4.90551 2.9106 0
M  V30 17603 O 1734.39 -3.91102 4.57518 0
M  V30 17604 H 1738.21 -1.10189 2.83006 0
M  V30 17605 H 1735.8 -0.480293 1.41469 0
M  V30 17606 H 1737.68 -3.50509 2.33926 0
M  V30 17607 H 1736.35 -2.97958 1.26503 0
M  V30 17608 H 1735.26 -1.81743 3.26987 0
M  V30 17609 H 1736.59 -2.40836 4.29254 0
M  V30 17610 N 1738.25 -1.47815 -0.546675 0
M  V30 17611 C 1739.52 -1.45464 -1.30765 0
M  V30 17612 C 1739.9 -0.157249 -2.10514 0
M  V30 17613 O 1739.25 0.861203 -2.1165 0
M  V30 17614 C 1739.46 -2.70661 -2.20326 0
M  V30 17615 C 1740.81 -3.18309 -2.81007 0
M  V30 17616 O 1741.83 -2.71462 -2.30623 0
M  V30 17617 O 1740.69 -3.9978 -3.7261 0
M  V30 17618 H 1737.79 -0.580175 -0.589343 0
M  V30 17619 H 1740.33 -1.60029 -0.564707 0
M  V30 17620 H 1739.1 -3.56612 -1.61069 0
M  V30 17621 H 1738.73 -2.58734 -3.01898 0
M  V30 17622 N 1739.72 0.794246 -1.36123 0
M  V30 17623 C 1740.65 1.92105 -1.32732 0
M  V30 17624 C 1741.63 1.68925 -0.199603 0
M  V30 17625 O 1742.82 1.90109 -0.396498 0
M  V30 17626 C 1739.95 3.29051 -1.11098 0
M  V30 17627 C 1738.9 3.66743 -2.20643 0
M  V30 17628 C 1738.23 5.01986 -1.84159 0
M  V30 17629 C 1739.53 3.75831 -3.62696 0
M  V30 17630 H 1741.22 1.952 -2.27018 0
M  V30 17631 H 1738.77 0.937746 -1.09281 0
M  V30 17632 H 1740.72 4.07494 -1.07362 0
M  V30 17633 H 1739.45 3.26331 -0.132614 0
M  V30 17634 H 1738.11 2.90594 -2.23497 0
M  V30 17635 H 1737.75 4.95782 -0.849081 0
M  V30 17636 H 1737.45 5.28175 -2.57497 0
M  V30 17637 H 1738.98 5.82855 -1.8197 0
M  V30 17638 H 1740.39 4.44476 -3.62096 0
M  V30 17639 H 1738.79 4.135 -4.34899 0
M  V30 17640 H 1739.86 2.7706 -3.97952 0
M  V30 17641 N 1741.2 1.20323 1.01785 0
M  V30 17642 C 1742.15 0.950946 2.10299 0
M  V30 17643 C 1743.12 -0.118376 1.65678 0
M  V30 17644 O 1744.3 0.0260849 1.90782 0
M  V30 17645 C 1741.44 0.507765 3.41344 0
M  V30 17646 C 1740.56 1.6451 3.9945 0
M  V30 17647 C 1739.69 1.15235 5.1855 0
M  V30 17648 C 1738.73 2.26285 5.68737 0
M  V30 17649 N 1737.87 1.78237 6.79099 0
M  V30 17650 H 1742.71 1.87999 2.31215 0
M  V30 17651 H 1740.24 0.937108 1.13387 0
M  V30 17652 H 1742.2 0.232143 4.16554 0
M  V30 17653 H 1740.83 -0.384278 3.20505 0
M  V30 17654 H 1739.88 2.03567 3.21348 0
M  V30 17655 H 1741.2 2.48135 4.32702 0
M  V30 17656 H 1740.35 0.832619 6.0096 0
M  V30 17657 H 1739.09 0.285978 4.86861 0
M  V30 17658 H 1738.09 2.59076 4.84933 0
M  V30 17659 H 1739.32 3.13397 6.02461 0
M  V30 17660 H 1737.27 0.939248 6.49241 0
M  V30 17661 H 1737.18 2.55443 7.11537 0
M  V30 17662 H 1738.45 1.4926 7.65076 0
M  V30 17663 N 1742.68 -1.21073 1.00892 0
M  V30 17664 C 1743.63 -2.23583 0.572636 0
M  V30 17665 C 1744.6 -1.61129 -0.403324 0
M  V30 17666 O 1745.78 -1.88355 -0.304491 0
M  V30 17667 C 1742.92 -3.44981 -0.0906539 0
M  V30 17668 C 1742.03 -4.21894 0.928953 0
M  V30 17669 C 1741.17 -5.30669 0.237516 0
M  V30 17670 C 1740.21 -5.99317 1.24441 0
M  V30 17671 N 1739.35 -6.99699 0.580172 0
M  V30 17672 H 1744.19 -2.60263 1.45146 0
M  V30 17673 H 1741.72 -1.27895 0.72673 0
M  V30 17674 H 1743.68 -4.14285 -0.492281 0
M  V30 17675 H 1742.31 -3.09017 -0.933169 0
M  V30 17676 H 1741.36 -3.5173 1.4488 0
M  V30 17677 H 1742.67 -4.69116 1.69503 0
M  V30 17678 H 1741.83 -6.06301 -0.220013 0
M  V30 17679 H 1740.57 -4.84463 -0.560937 0
M  V30 17680 H 1739.57 -5.22453 1.7124 0
M  V30 17681 H 1740.8 -6.47609 2.04401 0
M  V30 17682 H 1738.74 -6.55699 -0.198553 0
M  V30 17683 H 1738.66 -7.45009 1.28444 0
M  V30 17684 H 1739.93 -7.79363 0.145977 0
M  V30 17685 N 1744.16 -0.784156 -1.36707 0
M  V30 17686 C 1745.4 -0.359468 -2.01214 0
M  V30 17687 C 1745.76 1.04773 -1.60893 0
M  V30 17688 O 1746.96 1.57321 -2.17953 0
M  V30 17689 C 1745.23 -0.512117 -3.53712 0
M  V30 17690 S 1746.79 -0.174528 -4.38453 0
M  V30 17691 H 1743.61 -0.137618 -0.697555 0
M  V30 17692 H 1746.21 -1.02149 -1.66691 0
M  V30 17693 H 1744.92 -1.53667 -3.80545 0
M  V30 17694 H 1744.45 0.166027 -3.9305 0
M  V30 17695 H 1746.46 1.02572 -4.85483 0
M  V30 17696 N 1745.64 1.48215 -0.535727 0
M  V30 17697 C 1746.88 2.028 -0.00373305 0
M  V30 17698 C 1747.22 1.41143 1.33388 0
M  V30 17699 O 1746.49 0.559227 1.86287 0
M  V30 17700 C 1746.77 3.59925 0.112186 0
M  V30 17701 C 1746.63 4.32053 -1.251 0
M  V30 17702 C 1747.95 4.32083 0.836177 0
M  V30 17703 H 1745.06 0.736995 -0.00283063 0
M  V30 17704 H 1747.71 1.76877 -0.693868 0
M  V30 17705 H 1745.86 3.82142 0.69996 0
M  V30 17706 H 1747.53 4.21238 -1.88033 0
M  V30 17707 H 1745.77 3.93246 -1.83139 0
M  V30 17708 H 1746.44 5.4046 -1.12283 0
M  V30 17709 H 1748.92 4.1473 0.337333 0
M  V30 17710 H 1747.79 5.41699 0.886196 0
M  V30 17711 H 1748.06 3.99772 1.88771 0
M  V30 17712 N 1747.11 0.27113 1.5525 0
M  V30 17713 C 1748.34 -0.350248 2.03914 0
M  V30 17714 C 1748.76 -1.49763 1.14963 0
M  V30 17715 O 1748.11 -1.81717 0.168923 0
M  V30 17716 C 1748.17 -0.835056 3.51723 0
M  V30 17717 O 1747.89 0.266625 4.37288 0
M  V30 17718 C 1749.39 -1.52466 4.16256 0
M  V30 17719 H 1746.61 -0.0803955 0.666166 0
M  V30 17720 H 1749.15 0.402063 2.00509 0
M  V30 17721 H 1747.31 -1.53747 3.55585 0
M  V30 17722 H 1747.72 -0.105433 5.24394 0
M  V30 17723 H 1749.19 -1.81534 5.21296 0
M  V30 17724 H 1749.67 -2.45485 3.64189 0
M  V30 17725 H 1750.28 -0.8662 4.16386 0
M  V30 17726 N 1748.59 -1.576 -0.00164943 0
M  V30 17727 C 1749.56 -2.07267 -0.978423 0
M  V30 17728 C 1750.56 -0.981758 -1.27351 0
M  V30 17729 O 1751.75 -1.24446 -1.21896 0
M  V30 17730 C 1748.88 -2.51273 -2.30379 0
M  V30 17731 H 1750.07 -2.94835 -0.548845 0
M  V30 17732 H 1747.62 -1.54302 -0.249086 0
M  V30 17733 H 1748.36 -1.66943 -2.7803 0
M  V30 17734 H 1748.14 -3.30943 -2.10283 0
M  V30 17735 H 1749.63 -2.90031 -3.00453 0
M  V30 17736 N 1750.07 0.274379 -1.55193 0
M  V30 17737 C 1751.35 1.02736 -1.66447 0
M  V30 17738 C 1751.73 2.04337 -0.530051 0
M  V30 17739 O 1751.08 2.23613 0.470058 0
M  V30 17740 C 1751.29 1.6854 -3.05606 0
M  V30 17741 C 1752.63 2.19754 -3.63309 0
M  V30 17742 O 1753.66 1.78529 -3.0823 0
M  V30 17743 O 1752.52 2.95364 -4.59807 0
M  V30 17744 H 1749.61 0.476462 -0.675953 0
M  V30 17745 H 1752.16 0.270347 -1.67533 0
M  V30 17746 H 1750.93 0.949086 -3.79616 0
M  V30 17747 H 1750.55 2.50931 -3.08414 0
M  V30 17748 N 1751.55 1.48103 0.538828 0
M  V30 17749 C 1752.5 1.61966 1.64425 0
M  V30 17750 C 1753.47 0.461999 1.59546 0
M  V30 17751 O 1754.65 0.684377 1.78104 0
M  V30 17752 C 1751.79 1.65711 3.02711 0
M  V30 17753 C 1750.9 2.92522 3.17891 0
M  V30 17754 C 1750.04 2.87485 4.46683 0
M  V30 17755 C 1749.08 4.0904 4.5536 0
M  V30 17756 N 1748.21 4.02131 5.7553 0
M  V30 17757 H 1753.05 2.5637 1.51916 0
M  V30 17758 H 1750.59 1.27146 0.739745 0
M  V30 17759 H 1752.55 1.65864 3.82812 0
M  V30 17760 H 1751.18 0.748045 3.14013 0
M  V30 17761 H 1750.23 3.02154 2.311 0
M  V30 17762 H 1751.54 3.82487 3.20165 0
M  V30 17763 H 1750.7 2.8599 5.35065 0
M  V30 17764 H 1749.44 1.95234 4.46917 0
M  V30 17765 H 1748.44 4.10819 3.65387 0
M  V30 17766 H 1749.67 5.02439 4.56872 0
M  V30 17767 H 1747.61 3.12695 5.76678 0
M  V30 17768 H 1747.53 4.85791 5.7926 0
M  V30 17769 H 1748.8 4.04682 6.66223 0
M  V30 17770 N 1753.03 -0.787016 1.36542 0
M  V30 17771 C 1754.27 -1.55817 1.3229 0
M  V30 17772 C 1754.63 -1.91759 -0.0961159 0
M  V30 17773 O 1755.83 -2.67508 -0.26322 0
M  V30 17774 C 1754.1 -2.79934 2.22198 0
M  V30 17775 S 1755.66 -3.70154 2.35651 0
M  V30 17776 H 1752.48 -0.533633 0.469847 0
M  V30 17777 H 1755.08 -0.926755 1.72138 0
M  V30 17778 H 1753.79 -2.51583 3.24244 0
M  V30 17779 H 1753.32 -3.48046 1.83378 0
M  V30 17780 H 1755.33 -4.71179 1.55579 0
M  V30 17781 N 1754.5 -1.20861 -1.01145 0
M  V30 17782 C 1755.75 -1.0199 -1.74478 0
M  V30 17783 C 1756.07 0.4484 -1.89775 0
M  V30 17784 O 1755.34 1.32386 -1.44398 0
M  V30 17785 H 1753.92 -0.37439 -0.646406 0
M  V30 17786 H 1756.59 -1.5206 -1.21917 0
M  V30 17787 H 1755.68 -1.48251 -2.74642 0
M  V30 17788 N 1755.98 1.20536 -1.01532 0
M  V30 17789 C 1757.22 1.91582 -0.712451 0
M  V30 17790 C 1757.59 1.76995 0.744089 0
M  V30 17791 O 1758.79 2.4251 1.15942 0
M  V30 17792 C 1757.06 3.38914 -1.13454 0
M  V30 17793 S 1758.62 4.28316 -0.953443 0
M  V30 17794 H 1755.44 0.661843 -0.259779 0
M  V30 17795 H 1758.04 1.45808 -1.30232 0
M  V30 17796 H 1756.74 3.47051 -2.19052 0
M  V30 17797 H 1756.27 3.89712 -0.537396 0
M  V30 17798 H 1758.29 4.95992 0.143722 0
M  V30 17799 N 1757.46 0.791395 1.36289 0
M  V30 17800 C 1758.69 0.376149 2.03147 0
M  V30 17801 C 1759.1 -1.01287 1.59805 0
M  V30 17802 O 1758.44 -1.66134 0.78392 0
M  V30 17803 C 1758.5 0.362792 3.57665 0
M  V30 17804 C 1758.17 1.69972 4.24215 0
M  V30 17805 C 1759.16 2.65553 4.46965 0
M  V30 17806 C 1756.85 1.97956 4.61648 0
M  V30 17807 C 1758.84 3.87311 5.0623 0
M  V30 17808 C 1756.53 3.19981 5.2063 0
M  V30 17809 C 1757.53 4.14477 5.42861 0
M  V30 17810 O 1757.22 5.3435 6.00604 0
M  V30 17811 H 1756.95 0.152854 0.658492 0
M  V30 17812 H 1759.5 1.072 1.75206 0
M  V30 17813 H 1757.73 -0.389566 3.84733 0
M  V30 17814 H 1759.42 -0.0280568 4.0589 0
M  V30 17815 H 1760.19 2.4522 4.1844 0
M  V30 17816 H 1756.07 1.25222 4.43667 0
M  V30 17817 H 1759.61 4.61081 5.23498 0
M  V30 17818 H 1755.51 3.4019 5.48581 0
M  V30 17819 H 1756.28 5.3544 6.19069 0
M  V30 17820 N 1758.94 -1.47929 0.54358 0
M  V30 17821 C 1760.19 -2.02795 0.014488 0
M  V30 17822 C 1760.52 -1.41848 -1.32638 0
M  V30 17823 O 1759.79 -0.569099 -1.85988 0
M  V30 17824 C 1760.08 -3.5998 -0.093097 0
M  V30 17825 C 1759.93 -4.31384 1.2739 0
M  V30 17826 C 1761.25 -4.32521 -0.813251 0
M  V30 17827 H 1758.37 -0.736969 0.00673905 0
M  V30 17828 H 1761.01 -1.76507 0.703238 0
M  V30 17829 H 1759.16 -3.82508 -0.679685 0
M  V30 17830 H 1760.83 -4.20235 1.90264 0
M  V30 17831 H 1759.07 -3.9227 1.85221 0
M  V30 17832 H 1759.75 -5.39856 1.15148 0
M  V30 17833 H 1762.22 -4.14903 -0.315334 0
M  V30 17834 H 1761.1 -5.42161 -0.857456 0
M  V30 17835 H 1761.36 -4.00768 -1.86649 0
M  V30 17836 N 1760.42 -0.27936 -1.55104 0
M  V30 17837 C 1761.33 0.616249 -2.26361 0
M  V30 17838 C 1762.34 1.16656 -1.29102 0
M  V30 17839 O 1763.52 1.19596 -1.62046 0
M  V30 17840 C 1760.58 1.78191 -2.97403 0
M  V30 17841 C 1759.65 1.26785 -4.10151 0
M  V30 17842 C 1758.88 2.37795 -4.77796 0
M  V30 17843 O 1759.1 3.57242 -4.44673 0
M  V30 17844 O 1758.04 2.05711 -5.65656 0
M  V30 17845 H 1761.86 0.0388715 -3.03675 0
M  V30 17846 H 1759.45 -0.0466058 -1.49327 0
M  V30 17847 H 1761.33 2.4615 -3.42036 0
M  V30 17848 H 1760 2.3463 -2.23003 0
M  V30 17849 H 1758.91 0.554608 -3.69966 0
M  V30 17850 H 1760.24 0.749157 -4.86465 0
M  V30 17851 N 1761.9 1.57599 -0.0067085 0
M  V30 17852 C 1763.17 1.82097 0.714141 0
M  V30 17853 C 1763.55 0.885868 1.91613 0
M  V30 17854 O 1762.9 -0.0638506 2.28411 0
M  V30 17855 C 1763.11 3.30759 1.11354 0
M  V30 17856 C 1764.46 3.96668 1.51459 0
M  V30 17857 O 1765.48 3.35121 1.20715 0
M  V30 17858 O 1764.34 5.051 2.08654 0
M  V30 17859 H 1761.44 0.750071 0.348314 0
M  V30 17860 H 1763.98 1.69669 -0.0326766 0
M  V30 17861 H 1762.75 3.90455 0.257068 0
M  V30 17862 H 1762.38 3.48211 1.91924 0
M  V30 17863 N 1763.37 -0.266145 1.55336 0
M  V30 17864 C 1764.6 -1.01489 1.80299 0
M  V30 17865 C 1765.02 -1.79679 0.579742 0
M  V30 17866 O 1764.37 -1.76831 -0.451319 0
M  V30 17867 C 1764.42 -1.96805 3.03233 0
M  V30 17868 O 1764.15 -1.21782 4.20834 0
M  V30 17869 C 1765.65 -2.83436 3.40851 0
M  V30 17870 H 1762.87 -0.299504 0.600449 0
M  V30 17871 H 1765.41 -0.294854 2.02363 0
M  V30 17872 H 1763.57 -2.64262 2.83275 0
M  V30 17873 H 1763.98 -1.86086 4.9038 0
M  V30 17874 H 1765.45 -3.461 4.30022 0
M  V30 17875 H 1765.93 -3.53559 2.60562 0
M  V30 17876 H 1766.54 -2.2146 3.63092 0
M  V30 17877 N 1764.85 -1.48386 -0.530967 0
M  V30 17878 C 1765.8 -1.59236 -1.6318 0
M  V30 17879 C 1766.79 -0.449549 -1.54492 0
M  V30 17880 O 1767.98 -0.700935 -1.6253 0
M  V30 17881 C 1765.11 -1.6343 -3.01903 0
M  V30 17882 C 1764.19 -2.83188 -3.15699 0
M  V30 17883 N 1764.58 -4.07616 -2.99471 0
M  V30 17884 C 1762.88 -2.80499 -3.46751 0
M  V30 17885 C 1763.58 -4.87959 -3.16657 0
M  V30 17886 N 1762.56 -4.20757 -3.44186 0
M  V30 17887 H 1766.36 -2.53187 -1.49243 0
M  V30 17888 H 1763.87 -1.44744 -0.7364 0
M  V30 17889 H 1765.87 -1.69297 -3.80978 0
M  V30 17890 H 1764.53 -0.705948 -3.16933 0
M  V30 17891 H 1765.54 -4.38068 -2.76255 0
M  V30 17892 H 1762.22 -1.96916 -3.68145 0
M  V30 17893 H 1763.61 -5.96705 -3.08857 0
M  V30 17894 N 1766.33 0.779763 -1.36958 0
M  V30 17895 C 1767.56 1.56648 -1.34704 0
M  V30 17896 C 1767.97 1.89065 0.071459 0
M  V30 17897 O 1767.31 1.51325 1.04146 0
M  V30 17898 C 1767.37 2.90862 -2.11281 0
M  V30 17899 C 1767.04 2.81123 -3.60304 0
M  V30 17900 C 1768.03 2.52702 -4.54354 0
M  V30 17901 C 1765.72 2.99397 -4.0332 0
M  V30 17902 C 1767.71 2.42671 -5.89398 0
M  V30 17903 C 1765.4 2.88987 -5.38451 0
M  V30 17904 C 1766.4 2.60663 -6.31303 0
M  V30 17905 O 1766.09 2.50264 -7.63952 0
M  V30 17906 H 1765.82 0.492209 -0.463364 0
M  V30 17907 H 1768.37 0.974946 -1.80787 0
M  V30 17908 H 1766.6 3.52104 -1.59875 0
M  V30 17909 H 1768.29 3.52203 -2.01762 0
M  V30 17910 H 1769.06 2.38277 -4.22432 0
M  V30 17911 H 1764.94 3.20446 -3.31414 0
M  V30 17912 H 1768.48 2.20484 -6.6184 0
M  V30 17913 H 1764.38 3.02977 -5.69978 0
M  V30 17914 H 1765.14 2.65674 -7.74183 0
M  V30 17915 N 1767.81 1.21396 1.00503 0
M  V30 17916 C 1769.22 1.02983 1.55728 0
M  V30 17917 C 1769.57 -0.410383 1.9186 0
M  V30 17918 O 1768.69 -1.29358 1.7348 0
M  V30 17919 C 1769.29 1.86316 2.8297 0
M  V30 17920 C 1767.85 1.72235 3.34682 0
M  V30 17921 C 1767 1.8353 2.07875 0
M  V30 17922 H 1769.95 1.35418 0.827499 0
M  V30 17923 H 1769.97 1.37339 3.5485 0
M  V30 17924 H 1769.48 2.91131 2.56641 0
M  V30 17925 H 1767.58 0.701047 3.65945 0
M  V30 17926 H 1767.69 2.54198 4.06103 0
M  V30 17927 H 1766.06 1.26838 2.20872 0
M  V30 17928 H 1766.84 2.89852 1.83958 0
M  V30 17929 N 1769.29 -1.19996 1.0217 0
M  V30 17930 C 1770.7 -1.71202 0.744777 0
M  V30 17931 C 1771.05 -1.81862 -0.736238 0
M  V30 17932 O 1770.17 -1.48475 -1.5743 0
M  V30 17933 C 1770.77 -3.10945 1.34531 0
M  V30 17934 C 1769.33 -3.5944 1.11714 0
M  V30 17935 C 1768.47 -2.36501 1.44784 0
M  V30 17936 H 1771.42 -1.04938 1.19054 0
M  V30 17937 H 1771.45 -3.73264 0.738531 0
M  V30 17938 H 1770.96 -3.03154 2.42321 0
M  V30 17939 H 1769.06 -3.72556 0.0571346 0
M  V30 17940 H 1769.17 -4.43969 1.80079 0
M  V30 17941 H 1767.54 -2.3949 0.866981 0
M  V30 17942 H 1768.32 -2.31347 2.53641 0
M  V30 17943 N 1770.76 -0.798611 -1.35867 0
M  V30 17944 C 1772.01 -0.374519 -1.986 0
M  V30 17945 C 1772.33 1.05984 -1.63684 0
M  V30 17946 O 1771.6 1.73199 -0.915359 0
M  V30 17947 H 1770.18 -0.135492 -0.734609 0
M  V30 17948 H 1772.84 -1.02269 -1.65913 0
M  V30 17949 H 1771.94 -0.473773 -3.08483 0
M  V30 17950 N 1772.24 1.47639 -0.551417 0
M  V30 17951 C 1773.2 2.28419 0.188996 0
M  V30 17952 C 1774.2 1.36617 0.84808 0
M  V30 17953 O 1775.39 1.59304 0.704831 0
M  V30 17954 C 1772.53 3.16131 1.27571 0
M  V30 17955 H 1773.72 2.95348 -0.520518 0
M  V30 17956 H 1771.27 1.53232 -0.308141 0
M  V30 17957 H 1772.01 2.5388 2.0178 0
M  V30 17958 H 1771.79 3.83685 0.807984 0
M  V30 17959 H 1773.28 3.77011 1.79591 0
M  V30 17960 N 1773.72 0.287581 1.54954 0
M  V30 17961 C 1774.95 -0.331442 2.04735 0
M  V30 17962 C 1775.37 -1.47752 1.16409 0
M  V30 17963 O 1774.73 -1.80545 0.165297 0
M  V30 17964 C 1774.78 -0.778123 3.52105 0
M  V30 17965 O 1773.88 -1.88422 3.66839 0
M  V30 17966 H 1773.22 -0.0666173 0.66065 0
M  V30 17967 H 1775.75 0.425516 2.00126 0
M  V30 17968 H 1775.76 -1.07054 3.93705 0
M  V30 17969 H 1774.44 0.0603184 4.15856 0
M  V30 17970 H 1773.01 -1.59338 3.37144 0
M  V30 17971 N 1775.2 -1.57593 0.0150662 0
M  V30 17972 C 1776.44 -1.91497 -0.667587 0
M  V30 17973 C 1776.78 -0.890493 -1.7258 0
M  V30 17974 O 1776.05 0.0887462 -1.94297 0
M  V30 17975 C 1776.34 -3.35934 -1.29694 0
M  V30 17976 C 1776.19 -4.49109 -0.249242 0
M  V30 17977 C 1777.51 -3.80068 -2.21893 0
M  V30 17978 H 1774.63 -0.696408 -0.241217 0
M  V30 17979 H 1777.27 -1.89873 0.0694484 0
M  V30 17980 H 1775.42 -3.37448 -1.92512 0
M  V30 17981 H 1777.09 -4.59729 0.380417 0
M  V30 17982 H 1775.33 -4.31695 0.426861 0
M  V30 17983 H 1776 -5.47166 -0.728934 0
M  V30 17984 H 1778.48 -3.80201 -1.69076 0
M  V30 17985 H 1777.36 -4.81852 -2.62887 0
M  V30 17986 H 1777.62 -3.1478 -3.10429 0
M  V30 17987 N 1776.68 0.257904 -1.55475 0
M  V30 17988 C 1778.09 0.82782 -1.67344 0
M  V30 17989 C 1778.44 1.8646 -0.610494 0
M  V30 17990 O 1777.56 2.15005 0.245275 0
M  V30 17991 C 1778.16 1.5083 -3.03374 0
M  V30 17992 C 1776.72 2.02605 -3.17219 0
M  V30 17993 C 1775.86 0.873303 -2.63189 0
M  V30 17994 H 1778.82 0.0339334 -1.58664 0
M  V30 17995 H 1778.84 2.3759 -2.97205 0
M  V30 17996 H 1778.35 0.753469 -3.80716 0
M  V30 17997 H 1776.45 2.81002 -2.4468 0
M  V30 17998 H 1776.56 2.23099 -4.23985 0
M  V30 17999 H 1774.93 1.27082 -2.20731 0
M  V30 18000 H 1775.71 0.131739 -3.43047 0
M  V30 18001 N 1778.15 1.48666 0.52309 0
M  V30 18002 C 1779.38 1.60707 1.30311 0
M  V30 18003 C 1779.8 0.269941 1.8686 0
M  V30 18004 O 1779.15 -0.741714 1.66748 0
M  V30 18005 C 1779.21 2.65899 2.44908 0
M  V30 18006 O 1778.93 3.94423 1.90688 0
M  V30 18007 C 1780.43 2.88443 3.36624 0
M  V30 18008 H 1777.65 0.541661 0.396035 0
M  V30 18009 H 1780.19 1.94544 0.630322 0
M  V30 18010 H 1778.35 2.34902 3.08058 0
M  V30 18011 H 1778.76 4.5219 2.65753 0
M  V30 18012 H 1780.23 3.65831 4.13366 0
M  V30 18013 H 1780.71 1.97524 3.92277 0
M  V30 18014 H 1781.32 3.20771 2.7926 0
M  V30 18015 N 1779.63 -0.772489 1.37369 0
M  V30 18016 C 1780.54 -1.91679 1.35263 0
M  V30 18017 C 1781.56 -1.72161 0.252321 0
M  V30 18018 O 1782.73 -1.95409 0.487581 0
M  V30 18019 C 1779.8 -3.26792 1.15792 0
M  V30 18020 C 1778.86 -3.5897 2.35455 0
M  V30 18021 C 1778.09 -4.87636 2.16903 0
M  V30 18022 O 1778.32 -5.58627 1.15291 0
M  V30 18023 O 1777.25 -5.18859 3.05072 0
M  V30 18024 H 1781.08 -1.96408 2.31641 0
M  V30 18025 H 1778.66 -0.915136 1.18092 0
M  V30 18026 H 1780.54 -4.07611 1.06918 0
M  V30 18027 H 1779.22 -3.22918 0.224872 0
M  V30 18028 H 1778.13 -2.78389 2.49901 0
M  V30 18029 H 1779.46 -3.67586 3.27325 0
M  V30 18030 N 1781.11 -1.21927 -0.998575 0
M  V30 18031 C 1782.02 -1.00049 -2.12197 0
M  V30 18032 C 1783.04 0.0494414 -1.7393 0
M  V30 18033 O 1784.21 -0.142033 -2.00899 0
M  V30 18034 C 1781.28 -0.574871 -3.41901 0
M  V30 18035 C 1780.34 -1.69776 -3.94303 0
M  V30 18036 C 1779.57 -1.29236 -5.17816 0
M  V30 18037 O 1779.79 -0.168709 -5.7015 0
M  V30 18038 O 1778.73 -2.10671 -5.63827 0
M  V30 18039 H 1782.55 -1.94154 -2.33534 0
M  V30 18040 H 1780.14 -1.00472 -1.10571 0
M  V30 18041 H 1782.02 -0.347603 -4.19964 0
M  V30 18042 H 1780.7 0.337389 -3.21937 0
M  V30 18043 H 1779.6 -1.9795 -3.17438 0
M  V30 18044 H 1780.94 -2.58768 -4.18688 0
M  V30 18045 N 1782.59 1.19452 -1.02805 0
M  V30 18046 C 1783.82 1.93075 -0.743624 0
M  V30 18047 C 1784.23 1.75446 0.697425 0
M  V30 18048 O 1783.59 1.07583 1.47418 0
M  V30 18049 C 1783.64 3.44855 -1.08431 0
M  V30 18050 O 1783.36 3.61916 -2.46877 0
M  V30 18051 C 1784.86 4.35601 -0.822571 0
M  V30 18052 H 1782.08 0.613327 -0.272159 0
M  V30 18053 H 1784.63 1.51617 -1.37232 0
M  V30 18054 H 1782.78 3.84149 -0.500812 0
M  V30 18055 H 1783.19 4.55785 -2.59538 0
M  V30 18056 H 1784.67 5.40706 -1.11092 0
M  V30 18057 H 1785.15 4.38527 0.243026 0
M  V30 18058 H 1785.75 4.01987 -1.38876 0
M  V30 18059 N 1784.07 0.805805 1.35442 0
M  V30 18060 C 1785.31 0.391434 2.00617 0
M  V30 18061 C 1785.67 -1.022 1.6254 0
M  V30 18062 O 1786.87 -1.53834 2.20428 0
M  V30 18063 C 1785.14 0.568324 3.52852 0
M  V30 18064 S 1786.7 0.24426 4.3812 0
M  V30 18065 H 1783.52 0.148698 0.695277 0
M  V30 18066 H 1786.12 1.04788 1.65044 0
M  V30 18067 H 1784.83 1.59702 3.78052 0
M  V30 18068 H 1784.36 -0.103475 3.93264 0
M  V30 18069 H 1786.37 -0.948351 4.87053 0
M  V30 18070 N 1785.54 -1.47344 0.559239 0
M  V30 18071 C 1786.49 -2.30039 -0.187317 0
M  V30 18072 C 1787.46 -1.39186 -0.906443 0
M  V30 18073 O 1788.65 -1.68147 -0.901739 0
M  V30 18074 C 1785.79 -3.2319 -1.21004 0
M  V30 18075 C 1784.9 -4.29134 -0.496776 0
M  V30 18076 C 1784.03 -5.09435 -1.50497 0
M  V30 18077 C 1783.07 -6.07151 -0.776794 0
M  V30 18078 N 1782.21 -6.80404 -1.73192 0
M  V30 18079 H 1787.05 -2.93357 0.523978 0
M  V30 18080 H 1784.59 -1.44597 0.270225 0
M  V30 18081 H 1786.55 -3.75621 -1.81561 0
M  V30 18082 H 1785.18 -2.61732 -1.88935 0
M  V30 18083 H 1784.23 -3.79744 0.223359 0
M  V30 18084 H 1785.54 -4.98746 0.0735731 0
M  V30 18085 H 1784.69 -5.66026 -2.18402 0
M  V30 18086 H 1783.43 -4.3973 -2.10924 0
M  V30 18087 H 1782.44 -5.49736 -0.0838382 0
M  V30 18088 H 1783.66 -6.78866 -0.178239 0
M  V30 18089 H 1781.61 -6.13427 -2.32472 0
M  V30 18090 H 1781.53 -7.46193 -1.21377 0
M  V30 18091 H 1782.79 -7.41567 -2.40204 0
M  V30 18092 N 1787.02 -0.295795 -1.54799 0
M  V30 18093 C 1788.25 0.32058 -2.04907 0
M  V30 18094 C 1788.67 1.47132 -1.17191 0
M  V30 18095 O 1788.03 1.80455 -0.174869 0
M  V30 18096 C 1788.08 0.759439 -3.52512 0
M  V30 18097 O 1787.18 1.86474 -3.67833 0
M  V30 18098 H 1786.52 0.0631128 -0.660994 0
M  V30 18099 H 1789.05 -0.436123 -1.99898 0
M  V30 18100 H 1789.06 1.04965 -3.94267 0
M  V30 18101 H 1787.74 -0.0823715 -4.15818 0
M  V30 18102 H 1786.32 1.57547 -3.37984 0
M  V30 18103 N 1788.5 1.57583 -0.0234236 0
M  V30 18104 C 1789.74 1.93428 0.660675 0
M  V30 18105 C 1790.11 0.899634 1.69619 0
M  V30 18106 O 1791.31 1.1441 2.43236 0
M  V30 18107 C 1789.58 3.3422 1.26617 0
M  V30 18108 S 1791.14 3.91985 1.97214 0
M  V30 18109 H 1787.95 0.676862 0.217666 0
M  V30 18110 H 1790.56 1.95312 -0.0857251 0
M  V30 18111 H 1789.26 4.07343 0.500004 0
M  V30 18112 H 1788.79 3.35766 2.05 0
M  V30 18113 H 1790.81 3.74958 3.24994 0
M  V30 18114 N 1789.98 -0.249655 1.5561 0
M  V30 18115 C 1791.23 -0.979529 1.77576 0
M  V30 18116 C 1791.56 -1.85078 0.588198 0
M  V30 18117 O 1790.83 -1.90052 -0.4136 0
M  V30 18118 C 1791.12 -1.84238 3.094 0
M  V30 18119 C 1790.97 -0.9995 4.38554 0
M  V30 18120 C 1792.29 -2.82536 3.37433 0
M  V30 18121 H 1789.41 -0.354681 0.646042 0
M  V30 18122 H 1792.05 -0.250224 1.88345 0
M  V30 18123 H 1790.2 -2.46419 3.0035 0
M  V30 18124 H 1791.87 -0.396599 4.59592 0
M  V30 18125 H 1790.11 -0.30376 4.32735 0
M  V30 18126 H 1790.79 -1.63697 5.27169 0
M  V30 18127 H 1793.26 -2.30491 3.46429 0
M  V30 18128 H 1792.14 -3.40033 4.30893 0
M  V30 18129 H 1792.4 -3.58859 2.58211 0
M  V30 18130 N 1791.46 -1.48941 -0.515198 0
M  V30 18131 C 1792.7 -1.59318 -1.28052 0
M  V30 18132 C 1793.06 -0.26749 -1.90128 0
M  V30 18133 O 1794.26 -0.246338 -2.67669 0
M  V30 18134 C 1792.53 -2.71033 -2.32972 0
M  V30 18135 S 1794.09 -3.01271 -3.19032 0
M  V30 18136 H 1790.91 -0.56211 -0.435378 0
M  V30 18137 H 1793.51 -1.86534 -0.585253 0
M  V30 18138 H 1792.22 -3.65895 -1.85873 0
M  V30 18139 H 1791.75 -2.45765 -3.07186 0
M  V30 18140 H 1793.76 -2.41702 -4.33353 0
M  V30 18141 N 1792.94 0.765193 -1.37777 0
M  V30 18142 C 1794.16 1.55436 -1.36556 0
M  V30 18143 C 1794.58 1.8874 0.0475187 0
M  V30 18144 O 1793.94 1.51933 1.01107 0
M  V30 18145 C 1793.99 2.86063 -2.21021 0
M  V30 18146 O 1793.71 2.54183 -3.56823 0
M  V30 18147 C 1795.21 3.80261 -2.27851 0
M  V30 18148 H 1792.43 0.481331 -0.467506 0
M  V30 18149 H 1794.97 0.947906 -1.81204 0
M  V30 18150 H 1793.13 3.43114 -1.79864 0
M  V30 18151 H 1793.54 3.37879 -4.01171 0
M  V30 18152 H 1795.02 4.68904 -2.91261 0
M  V30 18153 H 1795.49 4.19865 -1.28881 0
M  V30 18154 H 1796.1 3.29137 -2.69349 0
M  V30 18155 N 1794.41 1.22455 0.992094 0
M  V30 18156 C 1795.36 0.992597 2.10357 0
M  V30 18157 C 1796.36 -0.0645514 1.69277 0
M  V30 18158 O 1797.56 0.0879577 1.79785 0
M  V30 18159 H 1793.94 0.303808 0.687899 0
M  V30 18160 H 1795.91 1.93574 2.27094 0
M  V30 18161 C 1794.66 0.587852 3.42695 0
M  V30 18162 H 1793.98 1.39298 3.74748 0
M  V30 18163 H 1795.42 0.464975 4.21443 0
M  V30 18164 C 1793.88 -0.702681 3.29491 0
M  V30 18165 O 1794.41 -1.7549 3.61339 0
M  V30 18166 N 1792.61 -0.674141 2.82672 0
M  V30 18167 H 1792.16 0.182446 2.56953 0
M  V30 18168 H 1792.12 -1.53789 2.7422 0
M  V30 18169 N 1795.89 -1.18905 1.03437 0
M  V30 18170 C 1797.12 -1.93219 0.753743 0
M  V30 18171 C 1797.54 -1.75299 -0.682055 0
M  V30 18172 O 1796.9 -1.05892 -1.47161 0
M  V30 18173 C 1796.95 -3.42864 1.117 0
M  V30 18174 O 1796.05 -4.11708 0.238816 0
M  V30 18175 H 1795.39 -0.603015 0.277973 0
M  V30 18176 H 1797.92 -1.50823 1.38252 0
M  V30 18177 H 1797.93 -3.9355 1.07623 0
M  V30 18178 H 1796.61 -3.55228 2.163 0
M  V30 18179 H 1795.18 -3.71359 0.338652 0
M  V30 18180 N 1797.37 -0.812977 -1.35013 0
M  V30 18181 C 1798.59 -0.407969 -2.03348 0
M  V30 18182 C 1799.02 0.975148 -1.60849 0
M  V30 18183 O 1798.38 1.63267 -0.788256 0
M  V30 18184 C 1798.43 -0.506754 -3.57022 0
M  V30 18185 O 1797.53 0.477322 -4.09628 0
M  V30 18186 H 1796.87 -0.169416 -0.642023 0
M  V30 18187 H 1799.4 -1.10064 -1.72474 0
M  V30 18188 H 1799.41 -0.378883 -4.06237 0
M  V30 18189 H 1798.09 -1.51557 -3.87302 0
M  V30 18190 H 1796.66 0.309161 -3.71616 0
M  V30 18191 N 1798.85 1.47045 -0.567045 0
M  V30 18192 C 1799.78 2.28211 0.212726 0
M  V30 18193 C 1800.79 1.37591 0.870207 0
M  V30 18194 O 1801.98 1.62329 0.742404 0
M  V30 18195 C 1799.08 3.12155 1.31957 0
M  V30 18196 C 1798.25 4.30799 0.75701 0
M  V30 18197 C 1797.31 4.96262 1.74958 0
M  V30 18198 O 1796.34 5.54347 1.29181 0
M  V30 18199 N 1797.54 4.91848 3.08327 0
M  V30 18200 H 1800.31 2.95773 -0.483552 0
M  V30 18201 H 1797.87 1.56784 -0.403768 0
M  V30 18202 H 1799.86 3.52815 1.98252 0
M  V30 18203 H 1798.43 2.4677 1.91894 0
M  V30 18204 H 1797.65 3.94113 -0.0829881 0
M  V30 18205 H 1798.94 5.0752 0.360671 0
M  V30 18206 H 1798.34 4.45875 3.48155 0
M  V30 18207 H 1796.89 5.36497 3.70154 0
M  V30 18208 N 1800.33 0.304 1.5464 0
M  V30 18209 C 1801.57 -0.304845 2.00496 0
M  V30 18210 C 1801.9 -1.53308 1.19206 0
M  V30 18211 O 1801.18 -1.92627 0.269305 0
M  V30 18212 C 1801.46 -0.658462 3.54029 0
M  V30 18213 C 1801.32 0.579125 4.46056 0
M  V30 18214 C 1802.63 -1.4838 4.14332 0
M  V30 18215 H 1799.75 -0.109327 0.728846 0
M  V30 18216 H 1802.4 0.416694 1.85374 0
M  V30 18217 H 1800.55 -1.27319 3.67045 0
M  V30 18218 H 1802.22 1.21758 4.44941 0
M  V30 18219 H 1800.46 1.21179 4.16531 0
M  V30 18220 H 1801.13 0.287518 5.51251 0
M  V30 18221 H 1803.61 -0.964367 4.04771 0
M  V30 18222 H 1802.48 -1.70001 5.21911 0
M  V30 18223 H 1802.74 -2.47394 3.66399 0
M  V30 18224 N 1801.8 -1.57568 0.0317802 0
M  V30 18225 C 1803.05 -1.92194 -0.647238 0
M  V30 18226 C 1803.38 -0.908747 -1.71626 0
M  V30 18227 O 1802.66 0.0681334 -1.94381 0
M  V30 18228 C 1802.94 -3.3729 -1.26124 0
M  V30 18229 C 1802.79 -4.49348 -0.201594 0
M  V30 18230 C 1804.11 -3.824 -2.17849 0
M  V30 18231 H 1801.23 -0.698927 -0.233817 0
M  V30 18232 H 1803.87 -1.89789 0.0895831 0
M  V30 18233 H 1802.02 -3.39471 -1.88922 0
M  V30 18234 H 1803.7 -4.59299 0.429155 0
M  V30 18235 H 1801.94 -4.31218 0.472624 0
M  V30 18236 H 1802.61 -5.47908 -0.670859 0
M  V30 18237 H 1805.09 -3.81972 -1.65034 0
M  V30 18238 H 1803.96 -4.84614 -2.57761 0
M  V30 18239 H 1804.22 -3.18054 -3.07073 0
M  V30 18240 N 1803.28 0.241399 -1.5574 0
M  V30 18241 C 1804.52 0.975956 -1.79595 0
M  V30 18242 C 1804.89 1.82312 -0.60218 0
M  V30 18243 O 1806.09 2.58988 -0.719614 0
M  V30 18244 C 1804.36 1.80917 -3.08227 0
M  V30 18245 S 1805.92 2.60208 -3.53323 0
M  V30 18246 H 1802.74 0.328184 -0.630727 0
M  V30 18247 H 1805.34 0.243307 -1.9398 0
M  V30 18248 H 1804.04 1.1766 -3.93172 0
M  V30 18249 H 1803.57 2.58447 -2.96595 0
M  V30 18250 H 1805.59 3.83317 -3.15091 0
M  V30 18251 N 1804.76 1.49212 0.507292 0
M  V30 18252 C 1806.18 1.35835 0.837908 0
M  V30 18253 C 1806.38 0.386634 1.97756 0
M  V30 18254 O 1805.43 -0.183971 2.51829 0
M  V30 18255 C 1806.75 2.76407 1.18404 0
M  V30 18256 C 1808.29 2.85062 1.29262 0
M  V30 18257 C 1808.77 4.26387 1.67208 0
M  V30 18258 N 1810.26 4.29168 1.74268 0
M  V30 18259 C 1810.99 5.35479 2.05061 0
M  V30 18260 N 1810.49 6.52042 2.34121 0
M  V30 18261 N 1812.28 5.2289 2.06259 0
M  V30 18262 H 1804.43 2.1099 -0.244311 0
M  V30 18263 H 1806.7 0.946849 -0.0466977 0
M  V30 18264 H 1806.4 3.49183 0.420053 0
M  V30 18265 H 1806.28 3.11376 2.12896 0
M  V30 18266 H 1808.66 2.12528 2.04734 0
M  V30 18267 H 1808.75 2.53684 0.328359 0
M  V30 18268 H 1808.39 4.99445 0.922884 0
M  V30 18269 H 1808.32 4.55225 2.64723 0
M  V30 18270 H 1810.81 3.45099 1.53996 0
M  V30 18271 H 1811.12 7.2889 2.56787 0
M  V30 18272 H 1809.47 6.55279 2.31591 0
M  V30 18273 H 1812.66 4.30834 1.83028 0
M  V30 18274 H 1812.83 6.05838 2.29923 0
M  V30 18275 N 1806.24 -0.757876 1.38181 0
M  V30 18276 C 1807.65 -1.33496 1.30521 0
M  V30 18277 C 1808 -1.96157 -0.0409405 0
M  V30 18278 O 1807.13 -1.94775 -0.942957 0
M  V30 18279 C 1807.72 -2.42725 2.36369 0
M  V30 18280 C 1806.28 -2.96165 2.323 0
M  V30 18281 C 1805.43 -1.69505 2.19461 0
M  V30 18282 H 1808.38 -0.557075 1.48601 0
M  V30 18283 H 1808.4 -3.22556 2.01836 0
M  V30 18284 H 1807.91 -1.97089 3.34331 0
M  V30 18285 H 1806.01 -3.4614 1.37904 0
M  V30 18286 H 1806.12 -3.50836 3.26269 0
M  V30 18287 H 1804.49 -1.92967 1.66241 0
M  V30 18288 H 1805.27 -1.25954 3.1936 0
M  V30 18289 N 1807.72 -1.22979 -0.985586 0
M  V30 18290 C 1808.63 -1.02294 -2.11124 0
M  V30 18291 C 1809.64 0.030991 -1.73972 0
M  V30 18292 O 1810.82 -0.163333 -2.00737 0
M  V30 18293 C 1807.88 -0.611102 -3.41272 0
M  V30 18294 C 1806.94 -1.73949 -3.9248 0
M  V30 18295 C 1806.18 -1.34721 -5.16417 0
M  V30 18296 O 1806.4 -0.229171 -5.69939 0
M  V30 18297 O 1805.33 -2.16639 -5.61561 0
M  V30 18298 H 1809.16 -1.9662 -2.31461 0
M  V30 18299 H 1806.75 -1.01639 -1.09499 0
M  V30 18300 H 1808.63 -0.392127 -4.19572 0
M  V30 18301 H 1807.3 0.303224 -3.22277 0
M  V30 18302 H 1806.21 -2.01305 -3.1532 0
M  V30 18303 H 1807.54 -2.63194 -4.1592 0
M  V30 18304 N 1809.19 1.18355 -1.04066 0
M  V30 18305 C 1810.1 2.25641 -0.642115 0
M  V30 18306 C 1811.12 1.70811 0.331614 0
M  V30 18307 O 1812.3 2.00534 0.186542 0
M  V30 18308 C 1809.36 3.46698 -0.0112485 0
M  V30 18309 C 1808.42 4.16662 -1.03398 0
M  V30 18310 C 1807.66 5.3194 -0.433125 0
M  V30 18311 O 1807.88 5.65305 0.760669 0
M  V30 18312 O 1806.81 5.90581 -1.16182 0
M  V30 18313 H 1810.64 2.61997 -1.53595 0
M  V30 18314 H 1808.22 1.25437 -0.811542 0
M  V30 18315 H 1810.11 4.20027 0.339934 0
M  V30 18316 H 1808.78 3.12166 0.856405 0
M  V30 18317 H 1807.69 3.45402 -1.43696 0
M  V30 18318 H 1809.02 4.55194 -1.8724 0
M  V30 18319 N 1810.67 0.820125 1.3458 0
M  V30 18320 C 1811.92 0.406067 1.97979 0
M  V30 18321 C 1812.24 -1.03366 1.65349 0
M  V30 18322 O 1811.51 -1.71721 0.942798 0
M  V30 18323 H 1810.09 0.147162 0.732361 0
M  V30 18324 H 1812.75 1.04895 1.64265 0
M  V30 18325 H 1811.85 0.52279 3.0769 0
M  V30 18326 N 1812.15 -1.46743 0.574835 0
M  V30 18327 C 1813.1 -2.30224 -0.162908 0
M  V30 18328 C 1814.07 -1.4014 -0.891629 0
M  V30 18329 O 1815.25 -1.69094 -0.883854 0
M  V30 18330 C 1812.39 -3.24456 -1.1757 0
M  V30 18331 C 1811.51 -4.29637 -0.451233 0
M  V30 18332 C 1810.64 -5.11003 -1.45085 0
M  V30 18333 C 1809.68 -6.07941 -0.712353 0
M  V30 18334 N 1808.82 -6.82202 -1.65965 0
M  V30 18335 H 1813.66 -2.92785 0.555063 0
M  V30 18336 H 1811.19 -1.44302 0.285546 0
M  V30 18337 H 1813.15 -3.77526 -1.77567 0
M  V30 18338 H 1811.78 -2.63721 -1.86148 0
M  V30 18339 H 1810.83 -3.79485 0.263623 0
M  V30 18340 H 1812.15 -4.9864 0.126468 0
M  V30 18341 H 1811.3 -5.68311 -2.12386 0
M  V30 18342 H 1810.04 -4.41942 -2.06248 0
M  V30 18343 H 1809.04 -5.49794 -0.0255266 0
M  V30 18344 H 1810.27 -6.79017 -0.106227 0
M  V30 18345 H 1808.21 -6.15858 -2.25953 0
M  V30 18346 H 1808.13 -7.47438 -1.13456 0
M  V30 18347 H 1809.4 -7.44073 -2.32325 0
M  V30 18348 N 1813.63 -0.312197 -1.54477 0
M  V30 18349 C 1814.88 0.294607 -1.99537 0
M  V30 18350 C 1815.19 1.54137 -1.20421 0
M  V30 18351 O 1816.4 2.22346 -1.55803 0
M  V30 18352 C 1814.85 0.57547 -3.55269 0
M  V30 18353 C 1814.46 -0.653591 -4.43207 0
M  V30 18354 C 1816.2 1.14285 -4.08827 0
M  V30 18355 C 1814.11 -0.345261 -5.90391 0
M  V30 18356 H 1813.04 0.113859 -0.745354 0
M  V30 18357 H 1815.69 -0.42265 -1.78566 0
M  V30 18358 H 1814.07 1.35262 -3.72183 0
M  V30 18359 H 1815.25 -1.42945 -4.38068 0
M  V30 18360 H 1813.56 -1.14039 -4.0048 0
M  V30 18361 H 1816.16 1.38797 -5.16371 0
M  V30 18362 H 1816.5 2.08866 -3.60112 0
M  V30 18363 H 1817.04 0.427154 -3.955 0
M  V30 18364 H 1813.78 -1.25994 -6.43277 0
M  V30 18365 H 1813.3 0.393106 -5.9851 0
M  V30 18366 H 1814.97 0.0490847 -6.46981 0
M  V30 18367 N 1815.11 1.57549 -0.040136 0
M  V30 18368 C 1816.04 2.13912 0.936168 0
M  V30 18369 C 1817.02 1.05798 1.33194 0
M  V30 18370 O 1818.2 1.33685 1.40861 0
M  V30 18371 C 1815.33 2.67515 2.21479 0
M  V30 18372 C 1814.29 3.80513 1.95943 0
M  V30 18373 C 1813.61 4.20589 3.30165 0
M  V30 18374 C 1814.91 5.06124 1.28981 0
M  V30 18375 H 1816.61 2.9574 0.46674 0
M  V30 18376 H 1814.15 1.42262 0.223062 0
M  V30 18377 H 1816.11 3.05582 2.90168 0
M  V30 18378 H 1814.83 1.82864 2.70608 0
M  V30 18379 H 1813.49 3.42902 1.29669 0
M  V30 18380 H 1813.14 3.32904 3.77073 0
M  V30 18381 H 1812.84 4.96742 3.13881 0
M  V30 18382 H 1814.36 4.61248 4.00103 0
M  V30 18383 H 1815.77 5.41707 1.87687 0
M  V30 18384 H 1814.17 5.87347 1.2306 0
M  V30 18385 H 1815.24 4.84179 0.264286 0
M  V30 18386 N 1816.58 -0.233136 1.55866 0
M  V30 18387 C 1817.53 -1.3085 1.92304 0
M  V30 18388 C 1818.53 -1.49121 0.803693 0
M  V30 18389 O 1819.73 -1.50433 0.988433 0
M  V30 18390 H 1816.11 -0.438451 0.610954 0
M  V30 18391 H 1818.08 -0.973925 2.82059 0
M  V30 18392 C 1816.83 -2.65415 2.24611 0
M  V30 18393 H 1816.15 -2.5216 3.10251 0
M  V30 18394 H 1817.59 -3.395 2.54 0
M  V30 18395 C 1816.05 -3.1955 1.0672 0
M  V30 18396 O 1816.58 -4.00405 0.322308 0
M  V30 18397 N 1814.79 -2.77764 0.854123 0
M  V30 18398 H 1814.33 -2.12122 1.46157 0
M  V30 18399 H 1814.29 -3.14329 0.0670326 0
M  V30 18400 N 1818.06 -1.49479 -0.499372 0
M  V30 18401 C 1819 -1.6239 -1.61748 0
M  V30 18402 C 1820.01 -0.506515 -1.5472 0
M  V30 18403 O 1821.2 -0.778629 -1.60623 0
M  V30 18404 C 1818.3 -1.56611 -3.00543 0
M  V30 18405 C 1817.47 -2.83909 -3.32738 0
M  V30 18406 C 1816.53 -2.7116 -4.50953 0
M  V30 18407 O 1815.56 -3.45097 -4.52656 0
M  V30 18408 N 1816.76 -1.82815 -5.50962 0
M  V30 18409 H 1819.52 -2.58823 -1.51099 0
M  V30 18410 H 1817.08 -1.46588 -0.687277 0
M  V30 18411 H 1819.08 -1.45734 -3.7755 0
M  V30 18412 H 1817.65 -0.68029 -3.05108 0
M  V30 18413 H 1816.87 -3.09125 -2.44613 0
M  V30 18414 H 1818.15 -3.68299 -3.51046 0
M  V30 18415 H 1817.55 -1.22005 -5.52387 0
M  V30 18416 H 1816.11 -1.77859 -6.27064 0
M  V30 18417 N 1819.54 0.750537 -1.38581 0
M  V30 18418 C 1820.77 1.53978 -1.38196 0
M  V30 18419 C 1821.18 1.8878 0.0274976 0
M  V30 18420 O 1820.54 1.52997 0.994894 0
M  V30 18421 C 1820.59 2.83702 -2.24043 0
M  V30 18422 O 1820.31 2.50384 -3.59499 0
M  V30 18423 C 1821.81 3.77823 -2.31872 0
M  V30 18424 H 1819.03 0.476345 -0.472585 0
M  V30 18425 H 1821.58 0.928634 -1.82199 0
M  V30 18426 H 1819.73 3.41187 -1.83494 0
M  V30 18427 H 1820.15 3.33605 -4.04732 0
M  V30 18428 H 1821.62 4.65788 -2.96218 0
M  V30 18429 H 1822.1 4.18474 -1.33327 0
M  V30 18430 H 1822.7 3.26262 -2.72824 0
M  V30 18431 N 1821.02 1.235 0.979051 0
M  V30 18432 C 1821.95 0.975198 2.07419 0
M  V30 18433 C 1822.96 -0.0512875 1.62719 0
M  V30 18434 O 1824.15 0.184403 1.77545 0
M  V30 18435 C 1821.25 0.447701 3.3593 0
M  V30 18436 C 1820.43 1.53467 4.09593 0
M  V30 18437 C 1819.49 1.01181 5.16381 0
M  V30 18438 O 1818.51 1.70108 5.43187 0
M  V30 18439 N 1819.71 -0.159667 5.8028 0
M  V30 18440 H 1822.48 1.91806 2.30283 0
M  V30 18441 H 1820.04 1.14377 1.14584 0
M  V30 18442 H 1822.03 0.0829228 4.04615 0
M  V30 18443 H 1820.6 -0.400613 3.10022 0
M  V30 18444 H 1819.82 2.07215 3.35344 0
M  V30 18445 H 1821.11 2.2656 4.55574 0
M  V30 18446 H 1820.51 -0.736193 5.60889 0
M  V30 18447 H 1819.06 -0.465696 6.50134 0
M  V30 18448 N 1822.5 -1.17802 1.04693 0
M  V30 18449 C 1823.77 -1.83839 0.668039 0
M  V30 18450 C 1824.15 -1.93143 -0.852008 0
M  V30 18451 O 1823.5 -1.46213 -1.75596 0
M  V30 18452 C 1823.71 -3.21783 1.35118 0
M  V30 18453 C 1825.06 -3.97747 1.48601 0
M  V30 18454 O 1826.08 -3.31244 1.30979 0
M  V30 18455 O 1824.94 -5.16915 1.77373 0
M  V30 18456 H 1822.04 -0.793045 0.234538 0
M  V30 18457 H 1824.58 -1.25141 1.1462 0
M  V30 18458 H 1823.36 -3.0995 2.38844 0
M  V30 18459 H 1822.98 -3.88142 0.862045 0
M  V30 18460 N 1823.98 -0.827251 -1.34143 0
M  V30 18461 C 1825.22 -0.41656 -1.9776 0
M  V30 18462 C 1825.54 1.02488 -1.65895 0
M  V30 18463 O 1824.81 1.71219 -0.951891 0
M  V30 18464 H 1823.39 -0.151044 -0.73157 0
M  V30 18465 H 1826.06 -1.05765 -1.63706 0
M  V30 18466 H 1825.15 -0.539101 -3.07409 0
M  V30 18467 N 1825.45 1.46436 -0.582609 0
M  V30 18468 C 1826.42 2.28769 0.140502 0
M  V30 18469 C 1827.42 1.38385 0.818911 0
M  V30 18470 O 1828.61 1.60763 0.670882 0
M  V30 18471 C 1825.74 3.18765 1.20836 0
M  V30 18472 H 1826.93 2.94178 -0.583049 0
M  V30 18473 H 1824.48 1.52544 -0.340575 0
M  V30 18474 H 1825.22 2.58103 1.9635 0
M  V30 18475 H 1825 3.85312 0.726417 0
M  V30 18476 H 1826.49 3.80735 1.71553 0
M  V30 18477 N 1826.93 0.320385 1.54309 0
M  V30 18478 C 1828.18 -0.283143 2.00511 0
M  V30 18479 C 1828.51 -1.52391 1.2086 0
M  V30 18480 O 1827.76 -1.93716 0.277955 0
M  V30 18481 C 1828.06 -0.665444 3.5115 0
M  V30 18482 C 1827.73 0.475789 4.48383 0
M  V30 18483 C 1826.39 0.789037 4.74687 0
M  V30 18484 C 1828.74 1.24253 5.06172 0
M  V30 18485 C 1826.07 1.87181 5.5604 0
M  V30 18486 C 1828.42 2.31537 5.88705 0
M  V30 18487 C 1827.08 2.63447 6.13312 0
M  V30 18488 H 1826.35 -0.103609 0.733721 0
M  V30 18489 H 1829 0.443504 1.86294 0
M  V30 18490 H 1827.31 -1.47247 3.63078 0
M  V30 18491 H 1829 -1.14391 3.84338 0
M  V30 18492 H 1825.59 0.221559 4.28027 0
M  V30 18493 H 1829.78 1.01379 4.85835 0
M  V30 18494 H 1825.03 2.12354 5.73337 0
M  V30 18495 H 1829.21 2.91395 6.32504 0
M  V30 18496 H 1826.83 3.47477 6.76139 0
M  V30 18497 N 1828.41 -1.57525 0.0484906 0
M  V30 18498 C 1829.65 -1.94455 -0.629818 0
M  V30 18499 C 1830.01 -0.926505 -1.68166 0
M  V30 18500 O 1831.21 -1.18265 -2.41385 0
M  V30 18501 C 1829.49 -3.36192 -1.21284 0
M  V30 18502 S 1831.04 -3.95073 -1.90953 0
M  V30 18503 H 1827.86 -0.680239 -0.20687 0
M  V30 18504 H 1830.46 -1.95151 0.116787 0
M  V30 18505 H 1829.17 -4.08087 -0.435136 0
M  V30 18506 H 1828.7 -3.38985 -1.99632 0
M  V30 18507 H 1830.71 -3.80081 -3.18987 0
M  V30 18508 N 1829.89 0.224867 -1.55988 0
M  V30 18509 C 1831.12 0.965325 -1.82661 0
M  V30 18510 C 1831.53 1.78581 -0.624935 0
M  V30 18511 O 1830.87 1.7893 0.415886 0
M  V30 18512 C 1830.93 1.93444 -3.03018 0
M  V30 18513 C 1830.59 1.29879 -4.38156 0
M  V30 18514 C 1831.59 0.69031 -5.15297 0
M  V30 18515 C 1829.28 1.31155 -4.84875 0
M  V30 18516 C 1831.27 0.103067 -6.37317 0
M  V30 18517 C 1828.96 0.720461 -6.06838 0
M  V30 18518 C 1829.96 0.11727 -6.82899 0
M  V30 18519 O 1829.64 -0.464631 -8.02556 0
M  V30 18520 H 1829.38 0.288651 -0.611275 0
M  V30 18521 H 1831.93 0.246237 -2.03919 0
M  V30 18522 H 1830.16 2.69243 -2.7757 0
M  V30 18523 H 1831.85 2.54017 -3.16592 0
M  V30 18524 H 1832.61 0.672801 -4.80311 0
M  V30 18525 H 1828.49 1.77044 -4.25648 0
M  V30 18526 H 1832.04 -0.368366 -6.96627 0
M  V30 18527 H 1827.93 0.735372 -6.41298 0
M  V30 18528 H 1828.7 -0.358628 -8.17714 0
M  V30 18529 N 1831.37 1.49742 0.491438 0
M  V30 18530 C 1832.61 1.60919 1.24405 0
M  V30 18531 C 1832.97 0.296423 1.90103 0
M  V30 18532 O 1832.26 -0.704127 1.78193 0
M  V30 18533 C 1832.45 2.71245 2.32725 0
M  V30 18534 C 1832.28 4.13123 1.77651 0
M  V30 18535 C 1831.05 4.79789 1.58526 0
M  V30 18536 C 1833.25 4.98042 1.28293 0
M  V30 18537 N 1831.23 6.05949 0.984807 0
M  V30 18538 C 1832.6 6.14759 0.804435 0
M  V30 18539 C 1834.66 4.83969 1.16956 0
M  V30 18540 C 1833.36 7.18952 0.223769 0
M  V30 18541 C 1835.39 5.88319 0.602855 0
M  V30 18542 C 1834.75 7.04271 0.134633 0
M  V30 18543 H 1830.85 0.643146 0.444845 0
M  V30 18544 H 1833.43 1.86785 0.549495 0
M  V30 18545 H 1831.6 2.47136 2.99631 0
M  V30 18546 H 1833.34 2.71891 2.99762 0
M  V30 18547 H 1830.09 4.36745 1.83169 0
M  V30 18548 H 1830.51 6.73334 0.703581 0
M  V30 18549 H 1835.16 3.94628 1.51753 0
M  V30 18550 H 1832.87 8.07985 -0.136447 0
M  V30 18551 H 1836.46 5.79491 0.517781 0
M  V30 18552 H 1835.34 7.83637 -0.297028 0
M  V30 18553 N 1832.84 -0.743177 1.38977 0
M  V30 18554 C 1833.75 -1.88767 1.39299 0
M  V30 18555 C 1834.77 -1.71587 0.288782 0
M  V30 18556 O 1835.95 -1.94331 0.52892 0
M  V30 18557 C 1833.01 -3.24263 1.22697 0
M  V30 18558 C 1832.07 -3.53895 2.43017 0
M  V30 18559 C 1831.31 -4.82925 2.27198 0
M  V30 18560 O 1831.53 -5.56056 1.27114 0
M  V30 18561 O 1830.46 -5.12271 3.16009 0
M  V30 18562 H 1834.29 -1.9145 2.35755 0
M  V30 18563 H 1831.87 -0.889881 1.20006 0
M  V30 18564 H 1833.76 -4.05251 1.1554 0
M  V30 18565 H 1832.43 -3.22368 0.293317 0
M  V30 18566 H 1831.34 -2.73026 2.5575 0
M  V30 18567 H 1832.67 -3.6056 3.35048 0
M  V30 18568 N 1834.32 -1.24018 -0.972487 0
M  V30 18569 C 1835.57 -1.07105 -1.70913 0
M  V30 18570 C 1835.88 0.390908 -1.91654 0
M  V30 18571 O 1837.09 0.68013 -2.62843 0
M  V30 18572 C 1835.55 -1.86823 -3.07612 0
M  V30 18573 C 1835.15 -3.37399 -2.94731 0
M  V30 18574 C 1836.9 -1.78425 -3.85182 0
M  V30 18575 C 1834.81 -4.09479 -4.2671 0
M  V30 18576 H 1833.74 -0.397184 -0.640907 0
M  V30 18577 H 1836.39 -1.48056 -1.08405 0
M  V30 18578 H 1834.77 -1.38683 -3.70922 0
M  V30 18579 H 1835.94 -3.93084 -2.40462 0
M  V30 18580 H 1834.26 -3.46697 -2.3063 0
M  V30 18581 H 1836.85 -2.29584 -4.82903 0
M  V30 18582 H 1837.2 -0.748555 -4.09515 0
M  V30 18583 H 1837.73 -2.24219 -3.28589 0
M  V30 18584 H 1834.47 -5.13387 -4.07571 0
M  V30 18585 H 1833.99 -3.5858 -4.80812 0
M  V30 18586 H 1835.67 -4.16212 -4.95355 0
M  V30 18587 N 1835.8 1.17245 -1.05316 0
M  V30 18588 C 1837.04 1.89218 -0.773041 0
M  V30 18589 C 1837.4 1.79273 0.687403 0
M  V30 18590 O 1838.61 2.46075 1.08168 0
M  V30 18591 C 1836.88 3.35133 -1.24179 0
M  V30 18592 S 1838.44 4.25066 -1.08923 0
M  V30 18593 H 1835.25 0.653243 -0.280703 0
M  V30 18594 H 1837.86 1.41591 -1.34805 0
M  V30 18595 H 1836.56 3.39906 -2.29982 0
M  V30 18596 H 1836.09 3.87805 -0.661108 0
M  V30 18597 H 1838.11 4.96198 -0.0141465 0
M  V30 18598 N 1837.28 0.834353 1.33702 0
M  V30 18599 C 1838.53 0.427042 1.97537 0
M  V30 18600 C 1838.85 -1.01607 1.66436 0
M  V30 18601 O 1838.12 -1.70711 0.960958 0
M  V30 18602 H 1836.7 0.154921 0.730759 0
M  V30 18603 H 1839.36 1.06632 1.63143 0
M  V30 18604 H 1838.46 0.555396 3.07118 0
M  V30 18605 N 1838.76 -1.46125 0.590367 0
M  V30 18606 C 1840.17 -1.85962 0.165876 0
M  V30 18607 C 1840.52 -1.49296 -1.27299 0
M  V30 18608 O 1839.64 -0.911461 -1.96269 0
M  V30 18609 C 1840.24 -3.3752 0.294262 0
M  V30 18610 C 1838.8 -3.76324 -0.0754118 0
M  V30 18611 C 1837.94 -2.70126 0.626682 0
M  V30 18612 H 1840.9 -1.3717 0.79812 0
M  V30 18613 H 1840.92 -3.77482 -0.4783 0
M  V30 18614 H 1840.43 -3.64175 1.34159 0
M  V30 18615 H 1838.53 -3.55287 -1.12258 0
M  V30 18616 H 1838.64 -4.7812 0.306241 0
M  V30 18617 H 1837.01 -2.54614 0.0661219 0
M  V30 18618 H 1837.79 -2.99619 1.6758 0
M  V30 18619 N 1840.23 -0.328564 -1.54137 0
M  V30 18620 C 1841.18 0.550592 -2.25989 0
M  V30 18621 C 1842.18 1.11442 -1.27581 0
M  V30 18622 O 1843.38 1.06189 -1.45341 0
M  V30 18623 H 1839.76 0.196215 -0.72595 0
M  V30 18624 H 1841.73 -0.0776348 -2.98299 0
M  V30 18625 C 1840.48 1.69733 -3.03457 0
M  V30 18626 H 1839.8 1.27273 -3.79001 0
M  V30 18627 H 1841.24 2.28797 -3.56971 0
M  V30 18628 C 1839.7 2.61791 -2.12054 0
M  V30 18629 O 1840.23 3.63641 -1.7067 0
M  V30 18630 N 1838.44 2.30138 -1.7744 0
M  V30 18631 H 1837.98 1.47355 -2.11292 0
M  V30 18632 H 1837.94 2.91994 -1.16564 0
M  V30 18633 N 1841.71 1.57497 -0.0568439 0
M  V30 18634 C 1842.96 1.92533 0.614452 0
M  V30 18635 C 1843.28 0.936373 1.71047 0
M  V30 18636 O 1842.55 -0.0178803 1.95892 0
M  V30 18637 H 1841.13 0.710724 0.229958 0
M  V30 18638 H 1843.79 1.94583 -0.111181 0
M  V30 18639 H 1842.89 2.93928 1.04941 0
M  V30 18640 N 1843.19 -0.216591 1.56105 0
M  V30 18641 C 1844.42 -0.957013 1.83436 0
M  V30 18642 C 1844.83 -1.77743 0.636612 0
M  V30 18643 O 1844.19 -1.78178 -0.394833 0
M  V30 18644 C 1844.24 -1.87058 3.09341 0
M  V30 18645 O 1843.96 -1.08331 4.24495 0
M  V30 18646 C 1845.46 -2.72448 3.49695 0
M  V30 18647 H 1842.68 -0.280249 0.609673 0
M  V30 18648 H 1845.23 -0.230324 2.03199 0
M  V30 18649 H 1843.38 -2.55116 2.91539 0
M  V30 18650 H 1843.8 -1.70391 4.96052 0
M  V30 18651 H 1845.27 -3.32244 4.40815 0
M  V30 18652 H 1845.75 -3.4509 2.71679 0
M  V30 18653 H 1846.35 -2.09796 3.69954 0
M  V30 18654 N 1844.67 -1.5 -0.48349 0
M  V30 18655 C 1845.91 -1.60606 -1.23829 0
M  V30 18656 C 1846.25 -0.299778 -1.91872 0
M  V30 18657 O 1845.52 0.697925 -1.81547 0
M  V30 18658 C 1845.81 -2.77769 -2.29165 0
M  V30 18659 C 1845.66 -4.18243 -1.65507 0
M  V30 18660 C 1846.98 -2.90521 -3.30584 0
M  V30 18661 H 1844.1 -0.584561 -0.44884 0
M  V30 18662 H 1846.74 -1.82346 -0.533855 0
M  V30 18663 H 1844.89 -2.59364 -2.89245 0
M  V30 18664 H 1846.56 -4.48208 -1.09119 0
M  V30 18665 H 1844.8 -4.23077 -0.958577 0
M  V30 18666 H 1845.47 -4.96128 -2.41994 0
M  V30 18667 H 1847.95 -3.0733 -2.80513 0
M  V30 18668 H 1846.83 -3.74146 -4.0163 0
M  V30 18669 H 1847.09 -2.00609 -3.93965 0
M  V30 18670 N 1846.15 0.735796 -1.39369 0
M  V30 18671 C 1847.06 1.88026 -1.40298 0
M  V30 18672 C 1848.07 1.71431 -0.297878 0
M  V30 18673 O 1849.25 1.94047 -0.539219 0
M  V30 18674 C 1846.31 3.23607 -1.24415 0
M  V30 18675 C 1845.37 3.52601 -2.4489 0
M  V30 18676 C 1844.61 4.81714 -2.29755 0
M  V30 18677 O 1844.83 5.55374 -1.30061 0
M  V30 18678 O 1843.76 5.10588 -3.18722 0
M  V30 18679 H 1847.59 1.90197 -2.36767 0
M  V30 18680 H 1845.18 0.883504 -1.20476 0
M  V30 18681 H 1847.06 4.04633 -1.17688 0
M  V30 18682 H 1845.73 3.22208 -0.310409 0
M  V30 18683 H 1844.64 2.71665 -2.57194 0
M  V30 18684 H 1845.97 3.58778 -3.36955 0
M  V30 18685 N 1847.63 1.24532 0.965897 0
M  V30 18686 C 1848.57 1.03929 2.06076 0
M  V30 18687 C 1849.54 -0.0479997 1.66031 0
M  V30 18688 O 1850.73 0.106979 1.905 0
M  V30 18689 C 1847.87 0.652084 3.38883 0
M  V30 18690 C 1846.98 1.81304 3.92113 0
M  V30 18691 C 1846.12 1.37125 5.13196 0
M  V30 18692 C 1845.15 2.50204 5.58627 0
M  V30 18693 N 1844.29 2.0688 6.70929 0
M  V30 18694 H 1849.13 1.97636 2.23033 0
M  V30 18695 H 1846.67 0.984356 1.09311 0
M  V30 18696 H 1848.63 0.408608 4.15194 0
M  V30 18697 H 1847.26 -0.247995 3.21846 0
M  V30 18698 H 1846.31 2.17013 3.12425 0
M  V30 18699 H 1847.62 2.66264 4.21788 0
M  V30 18700 H 1846.77 1.08676 5.96887 0
M  V30 18701 H 1845.51 0.492215 4.8521 0
M  V30 18702 H 1844.52 2.7941 4.73508 0
M  V30 18703 H 1845.74 3.38667 5.88627 0
M  V30 18704 H 1843.69 1.21377 6.44673 0
M  V30 18705 H 1843.61 2.85392 7.00062 0
M  V30 18706 H 1844.87 1.81575 7.58057 0
M  V30 18707 N 1849.1 -1.16685 1.05936 0
M  V30 18708 C 1850.05 -2.18921 0.636999 0
M  V30 18709 C 1851.04 -1.5747 -0.330447 0
M  V30 18710 O 1852.23 -1.76393 -0.146469 0
M  V30 18711 C 1849.36 -3.43293 0.0211274 0
M  V30 18712 C 1848.44 -4.11828 1.01285 0
M  V30 18713 N 1848.84 -4.5607 2.18709 0
M  V30 18714 C 1847.13 -4.37961 0.842986 0
M  V30 18715 C 1847.83 -5.09046 2.81509 0
M  V30 18716 N 1846.81 -5.01709 2.09259 0
M  V30 18717 H 1850.61 -2.5084 1.53155 0
M  V30 18718 H 1848.13 -1.33096 0.930542 0
M  V30 18719 H 1850.12 -4.15824 -0.299267 0
M  V30 18720 H 1848.78 -3.12863 -0.868723 0
M  V30 18721 H 1849.79 -4.49918 2.56504 0
M  V30 18722 H 1846.47 -4.175 0.00481897 0
M  V30 18723 H 1847.86 -5.53344 3.81131 0
M  V30 18724 N 1850.58 -0.841432 -1.33258 0
M  V30 18725 C 1851.83 -0.438378 -1.97698 0
M  V30 18726 C 1852.16 1.00298 -1.66645 0
M  V30 18727 O 1851.41 1.71648 -0.939965 0
M  V30 18728 C 1851.71 -0.608921 -3.52175 0
M  V30 18729 C 1851.38 -2.01876 -4.03184 0
M  V30 18730 C 1850.04 -2.40438 -4.16825 0
M  V30 18731 C 1852.39 -2.93952 -4.30397 0
M  V30 18732 C 1849.72 -3.70376 -4.55015 0
M  V30 18733 C 1852.07 -4.23373 -4.7004 0
M  V30 18734 C 1850.73 -4.61888 -4.81888 0
M  V30 18735 H 1850 -0.160414 -0.723428 0
M  V30 18736 H 1852.65 -1.06895 -1.58889 0
M  V30 18737 H 1850.96 0.104948 -3.91659 0
M  V30 18738 H 1852.65 -0.277313 -4.0004 0
M  V30 18739 H 1849.24 -1.70927 -3.93042 0
M  V30 18740 H 1853.43 -2.65396 -4.19379 0
M  V30 18741 H 1848.68 -4.00018 -4.62381 0
M  V30 18742 H 1852.86 -4.94793 -4.90054 0
M  V30 18743 H 1850.48 -5.6262 -5.11237 0
M  V30 18744 N 1852.06 1.4581 -0.598108 0
M  V30 18745 C 1853.01 2.32185 0.138857 0
M  V30 18746 C 1854 1.45406 0.869105 0
M  V30 18747 O 1855.21 1.61945 0.785746 0
M  V30 18748 H 1851.58 0.749302 0.0636431 0
M  V30 18749 H 1853.55 2.92136 -0.608224 0
M  V30 18750 C 1852.3 3.28856 1.12911 0
M  V30 18751 H 1851.63 3.9562 0.576625 0
M  V30 18752 H 1853.07 3.92043 1.61487 0
M  V30 18753 C 1851.52 2.55331 2.1979 0
M  V30 18754 O 1852.05 2.32768 3.27386 0
M  V30 18755 N 1850.26 2.15628 1.94815 0
M  V30 18756 H 1849.81 2.34178 1.07323 0
M  V30 18757 H 1849.77 1.66755 2.66533 0
M  V30 18758 N 1853.54 0.336733 1.53961 0
M  V30 18759 C 1854.79 -0.262826 1.9998 0
M  V30 18760 C 1855.1 -1.52201 1.22858 0
M  V30 18761 O 1856.31 -2.19839 1.5932 0
M  V30 18762 C 1854.76 -0.518877 3.5614 0
M  V30 18763 C 1854.37 0.724019 4.42111 0
M  V30 18764 C 1856.11 -1.07767 4.10593 0
M  V30 18765 C 1854.02 0.439143 5.89767 0
M  V30 18766 H 1852.95 -0.101987 0.747071 0
M  V30 18767 H 1855.6 0.451004 1.77871 0
M  V30 18768 H 1853.98 -1.29323 3.74288 0
M  V30 18769 H 1855.16 1.49896 4.35738 0
M  V30 18770 H 1853.47 1.20396 3.98615 0
M  V30 18771 H 1856.07 -1.30564 5.18514 0
M  V30 18772 H 1856.41 -2.03111 3.63389 0
M  V30 18773 H 1856.95 -0.36418 3.96129 0
M  V30 18774 H 1853.68 1.36212 6.41192 0
M  V30 18775 H 1853.2 -0.297839 5.9906 0
M  V30 18776 H 1854.88 0.0538506 6.46978 0
M  V30 18777 N 1855.02 -1.57465 0.0651956 0
M  V30 18778 C 1856.26 -1.95112 -0.609158 0
M  V30 18779 C 1856.62 -0.94429 -1.67174 0
M  V30 18780 O 1857.82 -1.20818 -2.40117 0
M  V30 18781 C 1856.09 -3.37459 -1.17711 0
M  V30 18782 S 1857.65 -3.97076 -1.86752 0
M  V30 18783 H 1854.47 -0.682395 -0.199644 0
M  V30 18784 H 1857.07 -1.95016 0.137478 0
M  V30 18785 H 1855.77 -4.08525 -0.391829 0
M  V30 18786 H 1855.31 -3.41083 -1.96026 0
M  V30 18787 H 1857.32 -3.83443 -3.14938 0
M  V30 18788 N 1856.49 0.20831 -1.56217 0
M  V30 18789 C 1857.72 0.951404 -1.84291 0
M  V30 18790 C 1858.14 1.76616 -0.647168 0
M  V30 18791 O 1857.5 1.7674 0.404081 0
M  V30 18792 C 1857.55 1.83403 -3.10477 0
M  V30 18793 O 1856.65 2.93113 -2.90101 0
M  V30 18794 H 1855.99 0.268668 -0.607218 0
M  V30 18795 H 1858.52 0.217618 -2.03439 0
M  V30 18796 H 1858.53 2.24127 -3.40927 0
M  V30 18797 H 1857.21 1.23528 -3.97132 0
M  V30 18798 H 1855.79 2.5624 -2.70916 0
M  V30 18799 N 1857.97 1.50255 0.475528 0
M  V30 18800 C 1859.22 1.60263 1.22468 0
M  V30 18801 C 1859.53 0.306389 1.93185 0
M  V30 18802 O 1860.74 0.285331 2.69997 0
M  V30 18803 C 1859.2 2.82876 2.22506 0
M  V30 18804 C 1858.8 4.19359 1.57612 0
M  V30 18805 C 1860.55 3.02228 2.98091 0
M  V30 18806 C 1858.45 5.33164 2.55911 0
M  V30 18807 H 1857.38 0.596804 0.460804 0
M  V30 18808 H 1860.04 1.76679 0.495653 0
M  V30 18809 H 1858.42 2.6001 2.98682 0
M  V30 18810 H 1859.59 4.52463 0.872559 0
M  V30 18811 H 1857.91 4.05576 0.943247 0
M  V30 18812 H 1860.5 3.84422 3.7165 0
M  V30 18813 H 1860.85 2.13781 3.57216 0
M  V30 18814 H 1861.38 3.25255 2.29029 0
M  V30 18815 H 1858.12 6.23751 2.01531 0
M  V30 18816 H 1857.64 5.04484 3.24432 0
M  V30 18817 H 1859.32 5.63554 3.17829 0
M  V30 18818 N 1859.45 -0.728395 1.39758 0
M  V30 18819 C 1860.68 -1.5176 1.40629 0
M  V30 18820 C 1861.09 -1.888 0.00253909 0
M  V30 18821 O 1860.45 -1.54561 -0.970428 0
M  V30 18822 C 1860.5 -2.80102 2.28528 0
M  V30 18823 O 1860.22 -2.44633 3.63436 0
M  V30 18824 C 1861.72 -3.74087 2.37853 0
M  V30 18825 H 1858.94 -0.468767 0.480103 0
M  V30 18826 H 1861.49 -0.89953 1.83654 0
M  V30 18827 H 1859.64 -3.38225 1.88898 0
M  V30 18828 H 1860.06 -3.27124 4.09988 0
M  V30 18829 H 1861.53 -4.61017 3.03591 0
M  V30 18830 H 1862.01 -4.163 1.39968 0
M  V30 18831 H 1862.61 -3.2188 2.7798 0
M  V30 18832 N 1860.93 -1.25042 -0.959279 0
M  V30 18833 C 1862.16 -1.12242 -1.73809 0
M  V30 18834 C 1862.57 0.324251 -1.85995 0
M  V30 18835 O 1861.93 1.22328 -1.35433 0
M  V30 18836 C 1861.98 -1.76603 -3.15426 0
M  V30 18837 O 1861.7 -3.15614 -3.03841 0
M  V30 18838 C 1863.2 -1.69522 -4.09606 0
M  V30 18839 H 1860.42 -0.39173 -0.544783 0
M  V30 18840 H 1862.96 -1.65314 -1.2038 0
M  V30 18841 H 1861.12 -1.27512 -3.65813 0
M  V30 18842 H 1861.53 -3.47186 -3.93144 0
M  V30 18843 H 1863.01 -2.19223 -5.06602 0
M  V30 18844 H 1863.48 -0.658074 -4.34242 0
M  V30 18845 H 1864.09 -2.18079 -3.65133 0
M  V30 18846 N 1862.41 1.16121 -1.06553 0
M  V30 18847 C 1863.82 1.38705 -0.789497 0
M  V30 18848 C 1864.02 1.92046 0.609975 0
M  V30 18849 O 1863.08 2.12096 1.37009 0
M  V30 18850 C 1864.39 2.36541 -1.85658 0
M  V30 18851 C 1865.94 2.5022 -1.88039 0
M  V30 18852 C 1866.41 3.51341 -2.93809 0
M  V30 18853 N 1867.91 3.5887 -2.92859 0
M  V30 18854 C 1868.64 4.3691 -3.71346 0
M  V30 18855 N 1868.14 5.1835 -4.59657 0
M  V30 18856 N 1869.93 4.31918 -3.59726 0
M  V30 18857 H 1862.08 0.798355 -1.96825 0
M  V30 18858 H 1864.34 0.41349 -0.853071 0
M  V30 18859 H 1864.05 2.04447 -2.86172 0
M  V30 18860 H 1863.92 3.36221 -1.70983 0
M  V30 18861 H 1866.31 2.81617 -0.881822 0
M  V30 18862 H 1866.39 1.50567 -2.06793 0
M  V30 18863 H 1866.04 3.20681 -3.93861 0
M  V30 18864 H 1865.97 4.50731 -2.72304 0
M  V30 18865 H 1868.46 3.00735 -2.28838 0
M  V30 18866 H 1868.77 5.75119 -5.16196 0
M  V30 18867 H 1867.11 5.17684 -4.63711 0
M  V30 18868 H 1870.31 3.67355 -2.90117 0
M  V30 18869 H 1870.48 4.92491 -4.21137 0
M  V30 18870 N 1863.88 0.848487 1.3281 0
M  V30 18871 C 1865.3 0.504307 1.7976 0
M  V30 18872 C 1865.65 -0.977408 1.70121 0
M  V30 18873 O 1864.77 -1.7621 1.25614 0
M  V30 18874 C 1865.37 0.908628 3.26388 0
M  V30 18875 C 1863.93 0.616441 3.71318 0
M  V30 18876 C 1863.07 1.11173 2.54039 0
M  V30 18877 H 1866.02 1.03628 1.20195 0
M  V30 18878 H 1866.04 0.222518 3.79849 0
M  V30 18879 H 1865.56 1.98708 3.33372 0
M  V30 18880 H 1863.66 -0.451545 3.69854 0
M  V30 18881 H 1863.77 1.17841 4.64382 0
M  V30 18882 H 1862.13 0.532227 2.49077 0
M  V30 18883 H 1862.92 2.19716 2.6378 0
M  V30 18884 N 1865.36 -1.4549 0.605832 0
M  V30 18885 C 1866.59 -2.07135 0.104838 0
M  V30 18886 C 1867.01 -1.4478 -1.20085 0
M  V30 18887 O 1866.37 -0.539875 -1.73075 0
M  V30 18888 C 1866.42 -3.60593 -0.0231858 0
M  V30 18889 O 1865.52 -3.98173 -1.07386 0
M  V30 18890 H 1864.86 -0.659945 0.0732691 0
M  V30 18891 H 1867.39 -1.8677 0.835343 0
M  V30 18892 H 1867.4 -4.07396 -0.221964 0
M  V30 18893 H 1866.08 -4.05364 0.930211 0
M  V30 18894 H 1864.66 -3.63044 -0.851689 0
M  V30 18895 N 1866.84 -0.344893 -1.5378 0
M  V30 18896 C 1868.07 0.252559 -2.05353 0
M  V30 18897 C 1868.48 1.44107 -1.21978 0
M  V30 18898 O 1867.84 1.80704 -0.25543 0
M  V30 18899 C 1867.89 0.666294 -3.55307 0
M  V30 18900 O 1867.61 -0.474957 -4.35518 0
M  V30 18901 C 1869.11 1.32432 -4.23056 0
M  V30 18902 H 1866.33 0.0485202 -0.669243 0
M  V30 18903 H 1868.88 -0.497271 -1.98362 0
M  V30 18904 H 1867.03 1.36606 -3.62515 0
M  V30 18905 H 1867.45 -0.144883 -5.243 0
M  V30 18906 H 1868.92 1.56456 -5.29363 0
M  V30 18907 H 1869.4 2.27829 -3.75487 0
M  V30 18908 H 1870 0.66655 -4.20044 0
M  V30 18909 N 1868.32 1.57428 -0.0735454 0
M  V30 18910 C 1869.25 2.15849 0.890584 0
M  V30 18911 C 1870.23 1.086 1.3092 0
M  V30 18912 O 1871.41 1.36643 1.37994 0
M  V30 18913 C 1868.54 2.72153 2.15755 0
M  V30 18914 C 1867.5 3.84584 1.87827 0
M  V30 18915 C 1866.82 4.27498 3.21169 0
M  V30 18916 C 1868.12 5.08746 1.18217 0
M  V30 18917 H 1869.82 2.96663 0.403904 0
M  V30 18918 H 1867.36 1.42703 0.192836 0
M  V30 18919 H 1869.32 3.11668 2.83621 0
M  V30 18920 H 1868.04 1.88562 2.66668 0
M  V30 18921 H 1866.7 3.45575 1.22366 0
M  V30 18922 H 1866.35 3.40827 3.69927 0
M  V30 18923 H 1866.05 5.03288 3.03273 0
M  V30 18924 H 1867.57 4.69631 3.9023 0
M  V30 18925 H 1868.99 5.45566 1.76155 0
M  V30 18926 H 1867.38 5.89825 1.10573 0
M  V30 18927 H 1868.45 4.84631 0.161525 0
M  V30 18928 N 1869.8 -0.200022 1.56326 0
M  V30 18929 C 1871.02 -0.937503 1.84441 0
M  V30 18930 C 1871.44 -1.77058 0.655428 0
M  V30 18931 O 1870.8 -1.78587 -0.375913 0
M  V30 18932 C 1870.85 -1.83766 3.11307 0
M  V30 18933 O 1870.57 -1.03823 4.2562 0
M  V30 18934 C 1872.07 -2.68724 3.52565 0
M  V30 18935 H 1869.29 -0.273767 0.612611 0
M  V30 18936 H 1871.83 -0.208759 2.03432 0
M  V30 18937 H 1869.99 -2.52009 2.94228 0
M  V30 18938 H 1870.4 -1.6512 4.97831 0
M  V30 18939 H 1871.88 -3.2755 4.44314 0
M  V30 18940 H 1872.35 -3.4219 2.75323 0
M  V30 18941 H 1872.96 -2.0586 3.72158 0
M  V30 18942 N 1871.27 -1.50505 -0.467553 0
M  V30 18943 C 1872.5 -1.65433 -1.24256 0
M  V30 18944 C 1872.92 -0.339107 -1.8573 0
M  V30 18945 O 1872.27 0.679316 -1.69386 0
M  V30 18946 C 1872.33 -2.74805 -2.34871 0
M  V30 18947 O 1872.05 -4.01229 -1.75917 0
M  V30 18948 C 1873.55 -3.00738 -3.25687 0
M  V30 18949 H 1870.77 -0.555987 -0.375659 0
M  V30 18950 H 1873.31 -1.96749 -0.557684 0
M  V30 18951 H 1871.47 -2.46174 -2.99128 0
M  V30 18952 H 1871.88 -4.61742 -2.48787 0
M  V30 18953 H 1873.35 -3.80921 -3.99504 0
M  V30 18954 H 1873.83 -2.11947 -3.84675 0
M  V30 18955 H 1874.44 -3.30914 -2.67163 0
M  V30 18956 N 1872.75 0.720973 -1.40142 0
M  V30 18957 C 1874 1.48078 -1.38128 0
M  V30 18958 C 1874.33 1.94491 0.0181891 0
M  V30 18959 O 1873.58 1.68119 1.00172 0
M  V30 18960 C 1873.88 2.72513 -2.31239 0
M  V30 18961 C 1873.55 2.44893 -3.78601 0
M  V30 18962 C 1872.21 2.3707 -4.1875 0
M  V30 18963 C 1874.56 2.21598 -4.71745 0
M  V30 18964 C 1871.89 2.04013 -5.50087 0
M  V30 18965 C 1874.24 1.90055 -6.03375 0
M  V30 18966 C 1872.91 1.8071 -6.42573 0
M  V30 18967 H 1872.18 0.541854 -0.505446 0
M  V30 18968 H 1874.82 0.826311 -1.72755 0
M  V30 18969 H 1873.13 3.4277 -1.89778 0
M  V30 18970 H 1874.82 3.30586 -2.26967 0
M  V30 18971 H 1871.41 2.51866 -3.46788 0
M  V30 18972 H 1875.6 2.26601 -4.41549 0
M  V30 18973 H 1870.85 1.95311 -5.79365 0
M  V30 18974 H 1875.03 1.71042 -6.75069 0
M  V30 18975 H 1872.66 1.54862 -7.44259 0
M  V30 18976 N 1874.23 1.25549 0.952634 0
M  V30 18977 C 1875.46 1.13162 1.73211 0
M  V30 18978 C 1875.87 -0.314383 1.86164 0
M  V30 18979 O 1875.23 -1.21608 1.3608 0
M  V30 18980 C 1875.28 1.78273 3.14485 0
M  V30 18981 O 1875 3.17221 3.02163 0
M  V30 18982 C 1876.5 1.71691 4.08702 0
M  V30 18983 H 1873.72 0.394613 0.542698 0
M  V30 18984 H 1876.27 1.65951 1.19502 0
M  V30 18985 H 1874.42 1.2945 3.65132 0
M  V30 18986 H 1874.84 3.49266 3.91297 0
M  V30 18987 H 1876.31 2.21906 5.05432 0
M  V30 18988 H 1876.79 0.681094 4.33887 0
M  V30 18989 H 1877.39 2.20012 3.63971 0
M  V30 18990 N 1875.71 -1.15554 1.07168 0
M  V30 18991 C 1876.94 -1.90182 0.81477 0
M  V30 18992 C 1877.35 -1.77914 -0.631829 0
M  V30 18993 O 1876.71 -1.1298 -1.43324 0
M  V30 18994 C 1876.76 -3.40593 1.21155 0
M  V30 18995 O 1876.48 -3.52504 2.60139 0
M  V30 18996 C 1877.98 -4.32248 0.983675 0
M  V30 18997 H 1875.2 -0.602804 0.294735 0
M  V30 18998 H 1877.75 -1.46419 1.42764 0
M  V30 18999 H 1875.9 -3.82026 0.643041 0
M  V30 19000 H 1876.31 -4.45839 2.76275 0
M  V30 19001 H 1877.79 -5.3621 1.31084 0
M  V30 19002 H 1878.27 -4.39127 -0.0801022 0
M  V30 19003 H 1878.87 -3.96556 1.537 0
M  V30 19004 N 1877.19 -0.855519 -1.32358 0
M  V30 19005 C 1878.44 -0.455543 -1.96488 0
M  V30 19006 C 1878.75 0.99419 -1.68449 0
M  V30 19007 O 1879.96 1.49964 -2.26325 0
M  V30 19008 C 1878.41 -0.763678 -3.51704 0
M  V30 19009 C 1878.02 -2.2292 -3.88601 0
M  V30 19010 C 1879.76 -0.431467 -4.22302 0
M  V30 19011 C 1877.67 -2.48051 -5.36866 0
M  V30 19012 H 1876.6 -0.166617 -0.73536 0
M  V30 19013 H 1879.25 -1.04642 -1.50739 0
M  V30 19014 H 1877.63 -0.102224 -3.95868 0
M  V30 19015 H 1878.81 -2.93251 -3.55444 0
M  V30 19016 H 1877.12 -2.52602 -3.31031 0
M  V30 19017 H 1879.72 -0.596641 -5.31361 0
M  V30 19018 H 1880.06 0.62698 -4.11552 0
M  V30 19019 H 1880.6 -1.04885 -3.83724 0
M  V30 19020 H 1877.33 -3.52523 -5.52637 0
M  V30 19021 H 1876.85 -1.82298 -5.71426 0
M  V30 19022 H 1878.53 -2.32044 -6.03957 0
M  V30 19023 N 1878.67 1.45167 -0.61354 0
M  V30 19024 C 1879.89 2.06565 -0.117608 0
M  V30 19025 C 1880.31 1.45716 1.20051 0
M  V30 19026 O 1879.67 0.573512 1.73254 0
M  V30 19027 C 1879.72 3.61493 0.0221474 0
M  V30 19028 O 1879.44 4.20072 -1.24383 0
M  V30 19029 C 1880.94 4.39889 0.548841 0
M  V30 19030 H 1878.16 0.667172 -0.0715756 0
M  V30 19031 H 1880.7 1.86318 -0.84296 0
M  V30 19032 H 1878.86 3.81063 0.697854 0
M  V30 19033 H 1879.27 5.13317 -1.07733 0
M  V30 19034 H 1880.75 5.48776 0.595696 0
M  V30 19035 H 1881.22 4.1009 1.57234 0
M  V30 19036 H 1881.83 4.25198 -0.0930203 0
M  V30 19037 N 1880.14 0.353044 1.53595 0
M  V30 19038 C 1881.07 -0.491481 2.28269 0
M  V30 19039 C 1882.05 -1.0946 1.30201 0
M  V30 19040 O 1883.24 -1.11421 1.59056 0
M  V30 19041 C 1880.37 -1.63776 3.06259 0
M  V30 19042 C 1879.32 -1.16251 4.1191 0
M  V30 19043 C 1878.65 -2.39805 4.7791 0
M  V30 19044 C 1879.95 -0.256191 5.21671 0
M  V30 19045 H 1881.64 0.131483 2.99111 0
M  V30 19046 H 1879.19 0.0646771 1.43855 0
M  V30 19047 H 1881.14 -2.2351 3.57241 0
M  V30 19048 H 1879.87 -2.28777 2.33085 0
M  V30 19049 H 1878.53 -0.587934 3.61855 0
M  V30 19050 H 1878.17 -3.03234 4.0132 0
M  V30 19051 H 1877.87 -2.08684 5.49295 0
M  V30 19052 H 1879.4 -3.00248 5.3168 0
M  V30 19053 H 1880.81 -0.760642 5.68232 0
M  V30 19054 H 1879.21 -0.0364273 6.00089 0
M  V30 19055 H 1880.28 0.705105 4.79746 0
M  V30 19056 N 1881.62 -1.57387 0.0818932 0
M  V30 19057 C 1883.03 -1.81214 -0.449254 0
M  V30 19058 C 1883.38 -0.996563 -1.69006 0
M  V30 19059 O 1882.51 -0.22203 -2.15258 0
M  V30 19060 C 1883.1 -3.28681 -0.821827 0
M  V30 19061 C 1881.66 -3.53319 -1.29779 0
M  V30 19062 C 1880.81 -2.75801 -0.287911 0
M  V30 19063 H 1883.76 -1.55693 0.307486 0
M  V30 19064 H 1883.78 -3.41283 -1.68245 0
M  V30 19065 H 1883.29 -3.88015 0.081441 0
M  V30 19066 H 1881.39 -2.99302 -2.21921 0
M  V30 19067 H 1881.51 -4.61996 -1.26874 0
M  V30 19068 H 1879.87 -2.42867 -0.76731 0
M  V30 19069 H 1880.65 -3.37877 0.607805 0
M  V30 19070 N 1883.1 0.191729 -1.56429 0
M  V30 19071 C 1884.33 0.927708 -1.84936 0
M  V30 19072 C 1884.74 1.76708 -0.664809 0
M  V30 19073 O 1884.1 1.78783 0.366436 0
M  V30 19074 C 1884.15 1.82113 -3.12277 0
M  V30 19075 O 1883.87 1.01564 -4.26165 0
M  V30 19076 C 1885.37 2.6685 -3.53986 0
M  V30 19077 H 1882.59 0.270514 -0.614055 0
M  V30 19078 H 1885.14 0.197968 -2.0354 0
M  V30 19079 H 1883.29 2.50445 -2.9556 0
M  V30 19080 H 1883.71 1.62478 -4.987 0
M  V30 19081 H 1885.18 3.25189 -4.46045 0
M  V30 19082 H 1885.66 3.40725 -2.77134 0
M  V30 19083 H 1886.26 2.03884 -3.73245 0
M  V30 19084 N 1884.58 1.50751 0.459565 0
M  V30 19085 C 1885.81 1.66089 1.23377 0
M  V30 19086 C 1886.22 0.348952 1.85547 0
M  V30 19087 O 1885.58 -0.670323 1.69744 0
M  V30 19088 C 1885.63 2.76047 2.3341 0
M  V30 19089 O 1885.35 4.02156 1.73787 0
M  V30 19090 C 1886.85 3.02461 3.24087 0
M  V30 19091 H 1884.07 0.557971 0.372705 0
M  V30 19092 H 1886.61 1.97042 0.547242 0
M  V30 19093 H 1884.77 2.47756 2.97818 0
M  V30 19094 H 1885.18 4.63055 2.46335 0
M  V30 19095 H 1886.66 3.83034 3.97478 0
M  V30 19096 H 1887.13 2.13984 3.83546 0
M  V30 19097 H 1887.74 3.32326 2.65404 0
M  V30 19098 N 1886.06 -0.713531 1.40522 0
M  V30 19099 C 1887.47 -1.29276 1.34702 0
M  V30 19100 C 1887.82 -1.96188 0.0214862 0
M  V30 19101 O 1886.94 -1.97676 -0.880513 0
M  V30 19102 C 1887.54 -2.35082 2.43971 0
M  V30 19103 C 1886.1 -2.88624 2.41605 0
M  V30 19104 C 1885.24 -1.62437 2.24743 0
M  V30 19105 H 1888.19 -0.509517 1.50298 0
M  V30 19106 H 1888.22 -3.15971 2.11996 0
M  V30 19107 H 1887.73 -1.86353 3.40432 0
M  V30 19108 H 1885.83 -3.41578 1.48847 0
M  V30 19109 H 1885.94 -3.40278 3.37265 0
M  V30 19110 H 1884.31 -1.8758 1.72296 0
M  V30 19111 H 1885.09 -1.1573 3.23205 0
M  V30 19112 N 1887.53 -1.26053 -0.945962 0
M  V30 19113 C 1888.76 -1.14079 -1.72608 0
M  V30 19114 C 1889.18 0.304506 -1.86328 0
M  V30 19115 O 1888.53 1.20885 -1.36723 0
M  V30 19116 C 1888.58 -1.79938 -3.13535 0
M  V30 19117 O 1888.31 -3.18819 -3.00476 0
M  V30 19118 C 1889.81 -1.73856 -4.07785 0
M  V30 19119 H 1887.03 -0.397486 -0.540598 0
M  V30 19120 H 1889.57 -1.66582 -1.1862 0
M  V30 19121 H 1887.73 -1.31385 -3.6444 0
M  V30 19122 H 1888.14 -3.51337 -3.89439 0
M  V30 19123 H 1889.61 -2.24584 -5.04248 0
M  V30 19124 H 1890.09 -0.704095 -4.33519 0
M  V30 19125 H 1890.7 -2.21939 -3.62799 0
M  V30 19126 N 1889.01 1.14984 -1.07779 0
M  V30 19127 C 1890.24 1.90288 -0.824935 0
M  V30 19128 C 1890.66 1.77709 0.616524 0
M  V30 19129 O 1890.02 1.11281 1.4313 0
M  V30 19130 C 1890.07 3.38482 -1.24348 0
M  V30 19131 O 1889.17 4.10538 -0.391454 0
M  V30 19132 H 1888.51 0.592283 -0.300162 0
M  V30 19133 H 1891.04 1.45588 -1.43755 0
M  V30 19134 H 1891.05 3.89284 -1.22155 0
M  V30 19135 H 1889.73 3.46956 -2.29335 0
M  V30 19136 H 1888.3 3.69846 -0.476247 0
M  V30 19137 N 1890.49 0.862526 1.31902 0
M  V30 19138 C 1891.74 0.469775 1.96976 0
M  V30 19139 C 1892.06 -0.976339 1.6822 0
M  V30 19140 O 1891.32 -1.70131 0.967153 0
M  V30 19141 C 1891.62 0.664872 3.51161 0
M  V30 19142 C 1891.28 2.08264 3.99921 0
M  V30 19143 C 1889.95 2.47039 4.12947 0
M  V30 19144 C 1892.3 3.00762 4.25666 0
M  V30 19145 C 1889.63 3.77568 4.49065 0
M  V30 19146 C 1891.98 4.30797 4.63245 0
M  V30 19147 C 1890.64 4.69496 4.74478 0
M  V30 19148 H 1889.91 0.171903 0.720785 0
M  V30 19149 H 1892.56 1.09409 1.57169 0
M  V30 19150 H 1890.86 -0.0426255 3.91777 0
M  V30 19151 H 1892.56 0.340921 3.99548 0
M  V30 19152 H 1889.15 1.77158 3.90273 0
M  V30 19153 H 1893.34 2.72034 4.15104 0
M  V30 19154 H 1888.59 4.07323 4.55958 0
M  V30 19155 H 1892.77 5.02527 4.8212 0
M  V30 19156 H 1890.39 5.70682 5.02221 0
M  V30 19157 N 1891.97 -1.4484 0.62123 0
M  V30 19158 C 1893.2 -2.065 0.128561 0
M  V30 19159 C 1893.61 -1.46351 -1.19277 0
M  V30 19160 O 1892.97 -0.582692 -1.72948 0
M  V30 19161 C 1893.02 -3.615 -0.00297622 0
M  V30 19162 O 1892.74 -4.19407 1.26609 0
M  V30 19163 C 1894.24 -4.40174 -0.525505 0
M  V30 19164 H 1891.46 -0.666783 0.0751128 0
M  V30 19165 H 1894.01 -1.85868 0.852829 0
M  V30 19166 H 1892.16 -3.81427 -0.677635 0
M  V30 19167 H 1892.57 -5.12738 1.10454 0
M  V30 19168 H 1894.05 -5.49085 -0.566585 0
M  V30 19169 H 1894.53 -4.10918 -1.55057 0
M  V30 19170 H 1895.13 -4.25143 0.115568 0
M  V30 19171 N 1893.45 -0.361184 -1.53405 0
M  V30 19172 C 1894.67 0.230765 -2.05609 0
M  V30 19173 C 1895.09 1.42805 -1.23499 0
M  V30 19174 O 1894.45 1.80423 -0.274582 0
M  V30 19175 C 1894.5 0.628571 -3.55993 0
M  V30 19176 O 1894.22 -0.521123 -4.3499 0
M  V30 19177 C 1895.72 1.27938 -4.24437 0
M  V30 19178 H 1892.94 0.0414193 -0.66972 0
M  V30 19179 H 1895.48 -0.518281 -1.97823 0
M  V30 19180 H 1893.64 1.32754 -3.63944 0
M  V30 19181 H 1894.05 -0.200483 -5.24117 0
M  V30 19182 H 1895.53 1.50832 -5.30993 0
M  V30 19183 H 1896 2.23834 -3.77882 0
M  V30 19184 H 1896.61 0.621961 -4.20728 0
M  V30 19185 N 1894.92 1.57341 -0.0902386 0
M  V30 19186 C 1896.15 1.98513 0.583126 0
M  V30 19187 C 1896.57 0.969208 1.62024 0
M  V30 19188 O 1895.92 -0.041815 1.82452 0
M  V30 19189 C 1895.98 3.39743 1.2352 0
M  V30 19190 O 1895.7 4.37444 0.239568 0
M  V30 19191 C 1897.2 3.9589 1.99463 0
M  V30 19192 H 1894.42 0.652446 0.156701 0
M  V30 19193 H 1896.96 2.03808 -0.168092 0
M  V30 19194 H 1895.12 3.35477 1.93738 0
M  V30 19195 H 1895.53 5.19677 0.709619 0
M  V30 19196 H 1897 4.96876 2.40454 0
M  V30 19197 H 1897.48 3.33441 2.85856 0
M  V30 19198 H 1898.09 4.03615 1.34072 0
M  V30 19199 N 1896.4 -0.183431 1.56529 0
M  V30 19200 C 1897.63 -0.917888 1.85425 0
M  V30 19201 C 1898.05 -1.76353 0.674171 0
M  V30 19202 O 1897.4 -1.78975 -0.35695 0
M  V30 19203 C 1897.45 -1.80454 3.13239 0
M  V30 19204 O 1897.17 -0.993028 4.26697 0
M  V30 19205 C 1898.68 -2.64969 3.55396 0
M  V30 19206 H 1895.9 -0.267254 0.61548 0
M  V30 19207 H 1898.44 -0.187171 2.03642 0
M  V30 19208 H 1896.59 -2.48874 2.96884 0
M  V30 19209 H 1897.01 -1.59831 4.99554 0
M  V30 19210 H 1898.48 -3.22819 4.47763 0
M  V30 19211 H 1898.96 -3.3925 2.78937 0
M  V30 19212 H 1899.57 -2.01902 3.74321 0
M  V30 19213 N 1897.88 -1.50992 -0.451564 0
M  V30 19214 C 1899.11 -1.66741 -1.22495 0
M  V30 19215 C 1899.52 -0.358787 -1.8536 0
M  V30 19216 O 1898.88 0.661312 -1.70097 0
M  V30 19217 C 1898.93 -2.77281 -2.31943 0
M  V30 19218 O 1898.65 -4.03072 -1.71652 0
M  V30 19219 C 1900.15 -3.04175 -3.22479 0
M  V30 19220 H 1897.37 -0.55994 -0.369741 0
M  V30 19221 H 1899.92 -1.97329 -0.536785 0
M  V30 19222 H 1898.07 -2.49332 -2.965 0
M  V30 19223 H 1898.49 -4.64354 -2.43875 0
M  V30 19224 H 1899.96 -3.85137 -3.95441 0
M  V30 19225 H 1900.44 -2.16015 -3.82406 0
M  V30 19226 H 1901.04 -3.33729 -2.63638 0
M  V30 19227 N 1899.36 0.706069 -1.40899 0
M  V30 19228 C 1900.59 1.49504 -1.43025 0
M  V30 19229 C 1901 1.88772 -0.0325752 0
M  V30 19230 O 1900.36 1.56085 0.945716 0
M  V30 19231 C 1900.41 2.76431 -2.32955 0
M  V30 19232 O 1900.13 2.38821 -3.67282 0
M  V30 19233 C 1901.63 3.70255 -2.43774 0
M  V30 19234 H 1898.85 0.461069 -0.4875 0
M  V30 19235 H 1901.4 0.870198 -1.85062 0
M  V30 19236 H 1899.55 3.35177 -1.94255 0
M  V30 19237 H 1899.96 3.2056 -4.1514 0
M  V30 19238 H 1901.44 4.56129 -3.10887 0
M  V30 19239 H 1901.92 4.14021 -1.46573 0
M  V30 19240 H 1902.52 3.17417 -2.83066 0
M  V30 19241 N 1900.84 1.26553 0.939264 0
M  V30 19242 C 1902.06 1.14993 1.72001 0
M  V30 19243 C 1902.48 -0.29462 1.86487 0
M  V30 19244 O 1901.84 -1.20158 1.37362 0
M  V30 19245 C 1901.89 1.81598 3.12577 0
M  V30 19246 O 1901.61 3.20408 2.98781 0
M  V30 19247 C 1903.11 1.76017 4.06858 0
M  V30 19248 H 1900.33 0.400347 0.538482 0
M  V30 19249 H 1902.87 1.67209 1.17735 0
M  V30 19250 H 1901.03 1.33316 3.63739 0
M  V30 19251 H 1901.44 3.53397 3.8757 0
M  V30 19252 H 1902.92 2.27255 5.0305 0
M  V30 19253 H 1903.39 0.727075 4.3314 0
M  V30 19254 H 1904 2.2386 3.61617 0
M  V30 19255 N 1902.31 -1.14411 1.08387 0
M  V30 19256 C 1903.54 -1.89307 0.834895 0
M  V30 19257 C 1903.96 -1.78574 -0.612923 0
M  V30 19258 O 1903.31 -1.14494 -1.42118 0
M  V30 19259 C 1903.37 -3.39289 1.24761 0
M  V30 19260 O 1903.09 -3.49725 2.63863 0
M  V30 19261 C 1904.59 -4.31181 1.02947 0
M  V30 19262 H 1901.81 -0.599644 0.301112 0
M  V30 19263 H 1904.35 -1.44897 1.44309 0
M  V30 19264 H 1902.51 -3.81322 0.683524 0
M  V30 19265 H 1902.92 -4.42884 2.80988 0
M  V30 19266 H 1904.39 -5.34789 1.36763 0
M  V30 19267 H 1904.87 -4.39187 -0.0335224 0
M  V30 19268 H 1905.48 -3.94903 1.57898 0
M  V30 19269 N 1903.79 -0.869509 -1.31443 0
M  V30 19270 C 1905.2 -0.532842 -1.78935 0
M  V30 19271 C 1905.55 0.95022 -1.71654 0
M  V30 19272 O 1904.68 1.74189 -1.28402 0
M  V30 19273 C 1905.27 -0.960439 -3.24902 0
M  V30 19274 C 1903.83 -0.675436 -3.7029 0
M  V30 19275 C 1902.98 -1.15201 -2.52238 0
M  V30 19276 H 1905.93 -1.05527 -1.18531 0
M  V30 19277 H 1905.95 -0.282921 -3.79447 0
M  V30 19278 H 1905.46 -2.03986 -3.30168 0
M  V30 19279 H 1903.57 0.392647 -3.70525 0
M  V30 19280 H 1903.68 -1.25214 -4.62448 0
M  V30 19281 H 1902.04 -0.571786 -2.48199 0
M  V30 19282 H 1902.83 -2.23885 -2.60251 0
M  V30 19283 N 1905.27 1.44508 -0.628902 0
M  V30 19284 C 1906.5 2.06429 -0.13951 0
M  V30 19285 C 1906.91 1.46981 1.18499 0
M  V30 19286 O 1906.27 0.591856 1.72636 0
M  V30 19287 C 1906.32 3.61496 -0.016195 0
M  V30 19288 O 1906.04 4.18729 -1.28831 0
M  V30 19289 C 1907.54 4.40447 0.502154 0
M  V30 19290 H 1904.76 0.666375 -0.0786479 0
M  V30 19291 H 1907.31 1.85414 -0.862674 0
M  V30 19292 H 1905.46 3.81781 0.657398 0
M  V30 19293 H 1905.88 5.12145 -1.13171 0
M  V30 19294 H 1907.35 5.49377 0.537458 0
M  V30 19295 H 1907.83 4.11735 1.52876 0
M  V30 19296 H 1908.43 4.25076 -0.138113 0
M  V30 19297 N 1906.75 0.369315 1.53212 0
M  V30 19298 C 1907.97 -0.222451 2.06204 0
M  V30 19299 C 1908.4 -1.41373 1.24077 0
M  V30 19300 O 1907.76 -1.79415 0.260767 0
M  V30 19301 C 1907.81 -0.590386 3.55734 0
M  V30 19302 O 1906.91 -1.68711 3.76311 0
M  V30 19303 H 1906.25 -0.0315041 0.663252 0
M  V30 19304 H 1908.78 0.531 1.97589 0
M  V30 19305 H 1908.79 -0.860345 3.98826 0
M  V30 19306 H 1907.47 0.28067 4.14952 0
M  V30 19307 H 1906.04 -1.41242 3.45116 0
M  V30 19308 N 1908.23 -1.57291 0.0985816 0
M  V30 19309 C 1909.45 -1.99242 -0.575966 0
M  V30 19310 C 1909.88 -0.977378 -1.60714 0
M  V30 19311 O 1909.24 0.053677 -1.81221 0
M  V30 19312 C 1909.28 -3.40148 -1.19714 0
M  V30 19313 O 1908.39 -3.41434 -2.31293 0
M  V30 19314 H 1907.73 -0.647791 -0.145816 0
M  V30 19315 H 1910.26 -2.03798 0.181023 0
M  V30 19316 H 1910.27 -3.77918 -1.5376 0
M  V30 19317 H 1908.94 -4.13548 -0.441714 0
M  V30 19318 H 1907.52 -3.15464 -1.98839 0
M  V30 19319 N 1909.71 0.175127 -1.56624 0
M  V30 19320 C 1910.93 0.908041 -1.85909 0
M  V30 19321 C 1911.35 1.75993 -0.683514 0
M  V30 19322 O 1910.71 1.79162 0.347453 0
M  V30 19323 C 1910.76 1.78791 -3.14191 0
M  V30 19324 O 1910.48 0.970386 -4.27218 0
M  V30 19325 C 1911.98 2.63081 -3.56796 0
M  V30 19326 H 1909.2 0.263986 -0.616889 0
M  V30 19327 H 1911.74 0.176369 -2.03738 0
M  V30 19328 H 1909.9 2.47296 -2.982 0
M  V30 19329 H 1910.31 1.57179 -5.00395 0
M  V30 19330 H 1911.79 3.2044 -4.49469 0
M  V30 19331 H 1912.26 3.37766 -2.80732 0
M  V30 19332 H 1912.87 1.99914 -3.75386 0
M  V30 19333 N 1911.18 1.5123 0.44355 0
M  V30 19334 C 1912.43 1.63833 1.19527 0
M  V30 19335 C 1912.76 0.350544 1.9101 0
M  V30 19336 O 1912.04 -0.649546 1.83333 0
M  V30 19337 C 1912.32 2.83747 2.21719 0
M  V30 19338 C 1912.17 4.22484 1.5436 0
M  V30 19339 C 1913.49 2.99184 3.22765 0
M  V30 19340 H 1910.61 0.596256 0.433184 0
M  V30 19341 H 1913.25 1.83697 0.485321 0
M  V30 19342 H 1911.4 2.66942 2.82267 0
M  V30 19343 H 1913.08 4.50944 0.971976 0
M  V30 19344 H 1911.32 4.25469 0.846069 0
M  V30 19345 H 1911.99 5.0237 2.28754 0
M  V30 19346 H 1914.47 3.14659 2.72266 0
M  V30 19347 H 1913.34 3.84663 3.91569 0
M  V30 19348 H 1913.6 2.10984 3.88508 0
M  V30 19349 N 1912.66 -0.698586 1.41271 0
M  V30 19350 C 1913.59 -1.82505 1.4565 0
M  V30 19351 C 1914.57 -1.67149 0.315497 0
M  V30 19352 O 1915.76 -1.86926 0.526518 0
M  V30 19353 C 1912.89 -3.20616 1.33502 0
M  V30 19354 C 1911.84 -3.50672 2.45383 0
M  V30 19355 C 1911.17 -4.88107 2.18302 0
M  V30 19356 C 1912.47 -3.49952 3.87725 0
M  V30 19357 H 1914.16 -1.79098 2.39926 0
M  V30 19358 H 1911.71 -0.860237 1.15481 0
M  V30 19359 H 1913.66 -3.9913 1.35179 0
M  V30 19360 H 1912.38 -3.24642 0.357101 0
M  V30 19361 H 1911.04 -2.74507 2.42984 0
M  V30 19362 H 1910.69 -4.88755 1.1886 0
M  V30 19363 H 1910.39 -5.09182 2.9327 0
M  V30 19364 H 1911.92 -5.68934 2.21689 0
M  V30 19365 H 1913.33 -4.18476 3.91855 0
M  V30 19366 H 1911.73 -3.82559 4.62351 0
M  V30 19367 H 1912.8 -2.48988 4.16093 0
M  V30 19368 N 1914.14 -1.27049 -0.93254 0
M  V30 19369 C 1915.36 -1.16011 -1.71919 0
M  V30 19370 C 1915.79 0.279951 -1.86005 0
M  V30 19371 O 1915.15 1.20279 -1.35657 0
M  V30 19372 C 1915.2 -1.84349 -3.09916 0
M  V30 19373 O 1914.3 -1.13816 -3.96383 0
M  V30 19374 H 1913.64 -0.403752 -0.527144 0
M  V30 19375 H 1916.17 -1.6803 -1.16736 0
M  V30 19376 H 1916.18 -1.91516 -3.60258 0
M  V30 19377 H 1914.86 -2.89109 -2.9898 0
M  V30 19378 H 1913.43 -1.14684 -3.54827 0
M  V30 19379 N 1915.62 1.13835 -1.08993 0
M  V30 19380 C 1916.85 1.88861 -0.844923 0
M  V30 19381 C 1917.26 1.78897 0.603444 0
M  V30 19382 O 1916.62 1.15246 1.41508 0
M  V30 19383 C 1916.67 3.38622 -1.26559 0
M  V30 19384 O 1916.39 3.48321 -2.65714 0
M  V30 19385 C 1917.89 4.30629 -1.05232 0
M  V30 19386 H 1915.11 0.598038 -0.304288 0
M  V30 19387 H 1917.65 1.44129 -1.45076 0
M  V30 19388 H 1915.81 3.80954 -0.703737 0
M  V30 19389 H 1916.22 4.41387 -2.83333 0
M  V30 19390 H 1917.7 5.34057 -1.39598 0
M  V30 19391 H 1918.17 4.39199 0.0102308 0
M  V30 19392 H 1918.78 3.9406 -1.5999 0
M  V30 19393 N 1917.1 0.876467 1.3098 0
M  V30 19394 C 1918.32 0.505315 2.00634 0
M  V30 19395 C 1918.74 -0.903951 1.65753 0
M  V30 19396 O 1918.1 -1.59318 0.890164 0
M  V30 19397 C 1918.15 0.660442 3.55416 0
M  V30 19398 O 1917.87 2.01422 3.89051 0
M  V30 19399 C 1919.37 0.291158 4.42343 0
M  V30 19400 H 1916.59 0.196195 0.641676 0
M  V30 19401 H 1919.13 1.17942 1.67062 0
M  V30 19402 H 1917.29 0.0338076 3.87385 0
M  V30 19403 H 1917.7 2.02668 4.83762 0
M  V30 19404 H 1919.18 0.450631 5.50158 0
M  V30 19405 H 1919.65 -0.770188 4.32394 0
M  V30 19406 H 1920.26 0.893762 4.15803 0
M  V30 19407 N 1918.57 -1.44173 0.636557 0
M  V30 19408 C 1919.98 -1.8534 0.224954 0
M  V30 19409 C 1920.34 -1.53271 -1.22485 0
M  V30 19410 O 1919.46 -0.973441 -1.93269 0
M  V30 19411 C 1920.06 -3.36413 0.401492 0
M  V30 19412 C 1918.61 -3.76374 0.0443511 0
M  V30 19413 C 1917.76 -2.67995 0.712303 0
M  V30 19414 H 1920.71 -1.34562 0.841356 0
M  V30 19415 H 1920.73 -3.78812 -0.357965 0
M  V30 19416 H 1920.25 -3.59722 1.45677 0
M  V30 19417 H 1918.35 -3.58679 -1.00897 0
M  V30 19418 H 1918.46 -4.76904 0.458196 0
M  V30 19419 H 1916.82 -2.54275 0.147092 0
M  V30 19420 H 1917.61 -2.94136 1.77028 0
M  V30 19421 N 1920.05 -0.377435 -1.53014 0
M  V30 19422 C 1921 0.463415 -2.261 0
M  V30 19423 C 1921.97 1.06771 -1.27237 0
M  V30 19424 O 1923.15 1.09797 -1.56043 0
M  V30 19425 C 1920.29 1.59103 -3.06236 0
M  V30 19426 C 1919.41 1.01076 -4.20009 0
M  V30 19427 C 1918.54 2.10845 -4.87563 0
M  V30 19428 C 1917.58 1.50345 -5.93349 0
M  V30 19429 N 1916.72 2.53995 -6.54546 0
M  V30 19430 H 1921.56 -0.166315 -2.97536 0
M  V30 19431 H 1919.09 -0.0938442 -1.468 0
M  V30 19432 H 1921.05 2.25542 -3.5098 0
M  V30 19433 H 1919.68 2.19125 -2.37032 0
M  V30 19434 H 1918.73 0.236306 -3.79665 0
M  V30 19435 H 1920.05 0.528534 -4.95992 0
M  V30 19436 H 1919.2 2.85079 -5.35551 0
M  V30 19437 H 1917.94 2.62423 -4.11079 0
M  V30 19438 H 1916.94 0.746299 -5.44711 0
M  V30 19439 H 1918.17 0.995763 -6.7176 0
M  V30 19440 H 1916.12 3.04765 -5.80908 0
M  V30 19441 H 1916.03 2.10494 -7.26105 0
M  V30 19442 H 1917.3 3.27896 -7.07181 0
M  V30 19443 N 1921.53 1.57237 -0.106922 0
M  V30 19444 C 1922.46 2.1769 0.844599 0
M  V30 19445 C 1923.44 1.11352 1.28587 0
M  V30 19446 O 1924.63 1.39539 1.35065 0
M  V30 19447 C 1921.76 2.76668 2.09933 0
M  V30 19448 C 1920.71 3.88482 1.79627 0
M  V30 19449 C 1920.04 4.34214 3.12029 0
M  V30 19450 C 1921.34 5.11139 1.07399 0
M  V30 19451 H 1923.03 2.97453 0.340887 0
M  V30 19452 H 1920.58 1.4308 0.162523 0
M  V30 19453 H 1922.53 3.17614 2.76946 0
M  V30 19454 H 1921.25 1.94176 2.62608 0
M  V30 19455 H 1919.91 3.48093 1.15008 0
M  V30 19456 H 1919.56 3.48597 3.62614 0
M  V30 19457 H 1919.26 5.09608 2.9253 0
M  V30 19458 H 1920.78 4.77803 3.8018 0
M  V30 19459 H 1922.2 5.4918 1.64543 0
M  V30 19460 H 1920.6 5.92038 0.980375 0
M  V30 19461 H 1921.67 4.84864 0.0586914 0
M  V30 19462 N 1923.01 -0.166818 1.56715 0
M  V30 19463 C 1924.25 -0.889157 1.84047 0
M  V30 19464 C 1924.61 -1.79232 0.688478 0
M  V30 19465 O 1925.81 -2.5526 0.842361 0
M  V30 19466 C 1924.08 -1.66005 3.16508 0
M  V30 19467 S 1925.64 -2.43054 3.65336 0
M  V30 19468 H 1922.46 -0.297718 0.645666 0
M  V30 19469 H 1925.06 -0.150479 1.9492 0
M  V30 19470 H 1923.77 -0.987677 3.98338 0
M  V30 19471 H 1923.3 -2.44002 3.08588 0
M  V30 19472 H 1925.31 -3.67847 3.33021 0
M  V30 19473 N 1924.49 -1.51463 -0.435524 0
M  V30 19474 C 1925.73 -1.65881 -1.19427 0
M  V30 19475 C 1926.09 -0.367896 -1.88442 0
M  V30 19476 O 1927.29 -0.387877 -2.65987 0
M  V30 19477 C 1925.56 -2.83001 -2.18278 0
M  V30 19478 S 1927.12 -3.17758 -3.02614 0
M  V30 19479 H 1923.94 -0.584398 -0.404969 0
M  V30 19480 H 1926.54 -1.89374 -0.485553 0
M  V30 19481 H 1925.25 -3.75233 -1.66217 0
M  V30 19482 H 1924.78 -2.61702 -2.93727 0
M  V30 19483 H 1926.79 -2.64333 -4.19932 0
M  V30 19484 N 1925.96 0.691085 -1.4164 0
M  V30 19485 C 1926.89 1.8173 -1.46616 0
M  V30 19486 C 1927.88 1.66979 -0.324357 0
M  V30 19487 O 1929.06 1.86644 -0.536424 0
M  V30 19488 C 1926.19 3.19903 -1.35201 0
M  V30 19489 C 1925.14 3.49366 -2.47239 0
M  V30 19490 C 1924.47 4.86942 -2.20887 0
M  V30 19491 C 1925.77 3.47891 -3.89575 0
M  V30 19492 H 1927.46 1.77823 -2.40872 0
M  V30 19493 H 1925.01 0.8541 -1.15936 0
M  V30 19494 H 1926.96 3.98407 -1.37293 0
M  V30 19495 H 1925.69 3.24448 -0.374312 0
M  V30 19496 H 1924.35 2.73215 -2.44436 0
M  V30 19497 H 1923.99 4.88118 -1.2145 0
M  V30 19498 H 1923.69 5.0762 -2.95966 0
M  V30 19499 H 1925.22 5.67751 -2.24703 0
M  V30 19500 H 1926.63 4.16392 -3.94069 0
M  V30 19501 H 1925.03 3.80101 -4.64374 0
M  V30 19502 H 1926.1 2.46778 -4.17407 0
M  V30 19503 N 1927.44 1.27542 0.925789 0
M  V30 19504 C 1928.69 1.1517 1.67653 0
M  V30 19505 C 1929.04 -0.299085 1.90061 0
M  V30 19506 O 1928.34 -1.21529 1.48126 0
M  V30 19507 C 1928.53 1.87088 3.04521 0
M  V30 19508 C 1928.36 3.39011 2.95469 0
M  V30 19509 C 1927.13 4.08332 2.97645 0
M  V30 19510 C 1929.33 4.34955 2.74442 0
M  V30 19511 N 1927.31 5.4681 2.79055 0
M  V30 19512 C 1928.68 5.60714 2.64575 0
M  V30 19513 C 1930.74 4.25023 2.59345 0
M  V30 19514 C 1929.44 6.77672 2.41151 0
M  V30 19515 C 1931.46 5.41704 2.37298 0
M  V30 19516 C 1930.83 6.6642 2.28175 0
M  V30 19517 H 1926.93 0.476311 0.620203 0
M  V30 19518 H 1929.51 1.61035 1.09434 0
M  V30 19519 H 1927.68 1.43675 3.60849 0
M  V30 19520 H 1929.41 1.67204 3.68544 0
M  V30 19521 H 1926.17 3.59814 3.07946 0
M  V30 19522 H 1926.59 6.19567 2.72884 0
M  V30 19523 H 1931.23 3.29321 2.65156 0
M  V30 19524 H 1928.95 7.73455 2.3408 0
M  V30 19525 H 1932.54 5.35901 2.26499 0
M  V30 19526 H 1931.42 7.55184 2.11346 0
M  V30 19527 N 1928.92 -1.13255 1.09595 0
M  V30 19528 C 1930.15 -1.88952 0.855104 0
M  V30 19529 C 1930.57 -1.78668 -0.588174 0
M  V30 19530 O 1929.93 -1.13544 -1.41341 0
M  V30 19531 C 1929.98 -3.36461 1.29717 0
M  V30 19532 O 1929.08 -4.09863 0.456717 0
M  V30 19533 H 1928.42 -0.587432 0.309547 0
M  V30 19534 H 1930.95 -1.43282 1.46053 0
M  V30 19535 H 1930.96 -3.87291 1.28333 0
M  V30 19536 H 1929.64 -3.43263 2.34826 0
M  V30 19537 H 1928.21 -3.69042 0.535026 0
M  V30 19538 N 1930.4 -0.883401 -1.30514 0
M  V30 19539 C 1931.68 -0.421186 -1.91011 0
M  V30 19540 C 1932.06 1.09793 -1.80301 0
M  V30 19541 O 1931.4 1.93254 -1.21923 0
M  V30 19542 C 1931.61 -0.917533 -3.36723 0
M  V30 19543 C 1932.96 -0.951573 -4.138 0
M  V30 19544 O 1933.99 -0.86409 -3.4556 0
M  V30 19545 O 1932.84 -1.08053 -5.35711 0
M  V30 19546 H 1929.94 -0.128514 -0.816954 0
M  V30 19547 H 1932.48 -0.972198 -1.39091 0
M  V30 19548 H 1931.26 -1.96135 -3.38595 0
M  V30 19549 H 1930.88 -0.345595 -3.96095 0
M  V30 19550 N 1931.88 1.43833 -0.644194 0
M  V30 19551 C 1933.12 2.02748 -0.162722 0
M  V30 19552 C 1933.48 1.49857 1.20667 0
M  V30 19553 O 1932.77 0.678332 1.7919 0
M  V30 19554 C 1932.96 3.57249 -0.103941 0
M  V30 19555 C 1932.79 4.2513 -1.4661 0
M  V30 19556 C 1931.56 4.61572 -2.0562 0
M  V30 19557 C 1933.76 4.54728 -2.40265 0
M  V30 19558 N 1931.74 5.14482 -3.34934 0
M  V30 19559 C 1933.11 5.0886 -3.54205 0
M  V30 19560 C 1935.17 4.36689 -2.39181 0
M  V30 19561 C 1933.87 5.46853 -4.67273 0
M  V30 19562 C 1935.9 4.75738 -3.51322 0
M  V30 19563 C 1935.26 5.29996 -4.63987 0
M  V30 19564 H 1931.36 0.775085 -0.103767 0
M  V30 19565 H 1933.94 1.7514 -0.850534 0
M  V30 19566 H 1932.11 3.8444 0.553188 0
M  V30 19567 H 1933.85 4.0284 0.387567 0
M  V30 19568 H 1930.6 4.46317 -1.58425 0
M  V30 19569 H 1931.03 5.454 -4.01083 0
M  V30 19570 H 1935.67 3.94022 -1.53319 0
M  V30 19571 H 1933.39 5.88468 -5.53833 0
M  V30 19572 H 1936.97 4.63483 -3.51674 0
M  V30 19573 H 1935.85 5.59652 -5.49326 0
M  V30 19574 N 1933.35 0.385544 1.52811 0
M  V30 19575 C 1934.6 -0.19907 2.00715 0
M  V30 19576 C 1934.92 -1.48216 1.27638 0
M  V30 19577 O 1936.12 -2.14659 1.66234 0
M  V30 19578 C 1934.58 -0.405311 3.5761 0
M  V30 19579 C 1934.19 0.864306 4.39584 0
M  V30 19580 C 1935.93 -0.946495 4.13814 0
M  V30 19581 C 1933.84 0.626551 5.88072 0
M  V30 19582 H 1932.77 -0.0781676 0.749937 0
M  V30 19583 H 1935.42 0.507365 1.76346 0
M  V30 19584 H 1933.8 -1.1735 3.78213 0
M  V30 19585 H 1934.97 1.63683 4.30749 0
M  V30 19586 H 1933.29 1.33017 3.94583 0
M  V30 19587 H 1935.89 -1.14002 5.22406 0
M  V30 19588 H 1936.23 -1.91447 3.69667 0
M  V30 19589 H 1936.76 -0.23797 3.97088 0
M  V30 19590 H 1933.5 1.56542 6.36534 0
M  V30 19591 H 1933.02 -0.107102 5.99704 0
M  V30 19592 H 1934.7 0.259654 6.46479 0
M  V30 19593 N 1934.83 -1.57178 0.115259 0
M  V30 19594 C 1935.78 -2.16368 -0.853683 0
M  V30 19595 C 1936.77 -1.11189 -1.27802 0
M  V30 19596 O 1937.98 -1.29499 -1.2502 0
M  V30 19597 H 1934.36 -0.692403 -0.293397 0
M  V30 19598 H 1936.33 -2.9657 -0.329954 0
M  V30 19599 C 1935.08 -2.7747 -2.09537 0
M  V30 19600 H 1934.4 -3.581 -1.77777 0
M  V30 19601 H 1935.84 -3.22428 -2.75347 0
M  V30 19602 C 1934.3 -1.74366 -2.88268 0
M  V30 19603 O 1934.83 -1.19476 -3.83521 0
M  V30 19604 N 1933.03 -1.44392 -2.52189 0
M  V30 19605 H 1932.58 -1.89219 -1.74797 0
M  V30 19606 H 1932.54 -0.756482 -3.05163 0
M  V30 19607 N 1936.31 0.158505 -1.56801 0
M  V30 19608 C 1937.22 1.2157 -2.00644 0
M  V30 19609 C 1938.24 1.47694 -0.919914 0
M  V30 19610 O 1939.41 1.59591 -1.22853 0
M  V30 19611 C 1936.48 2.53191 -2.36844 0
M  V30 19612 C 1935.54 2.34816 -3.59389 0
M  V30 19613 C 1934.77 3.60161 -3.93853 0
M  V30 19614 O 1935 4.65871 -3.29121 0
M  V30 19615 O 1933.93 3.53508 -4.8715 0
M  V30 19616 H 1937.76 0.873512 -2.90867 0
M  V30 19617 H 1935.34 0.366356 -1.44839 0
M  V30 19618 H 1937.22 3.30812 -2.6104 0
M  V30 19619 H 1935.9 2.86963 -1.4978 0
M  V30 19620 H 1934.8 1.55184 -3.40395 0
M  V30 19621 H 1936.14 2.05964 -4.47034 0
M  V30 19622 N 1937.79 1.51692 0.427485 0
M  V30 19623 C 1939.07 1.55395 1.18793 0
M  V30 19624 C 1939.45 0.324036 2.08598 0
M  V30 19625 O 1938.79 -0.690292 2.17824 0
M  V30 19626 C 1939 2.87313 1.98121 0
M  V30 19627 C 1940.35 3.39632 2.54824 0
M  V30 19628 O 1941.38 2.8893 2.08322 0
M  V30 19629 O 1940.24 4.28125 3.39664 0
M  V30 19630 H 1937.33 0.625173 0.541376 0
M  V30 19631 H 1939.88 1.6401 0.435754 0
M  V30 19632 H 1938.65 3.68284 1.32222 0
M  V30 19633 H 1938.27 2.81907 2.80383 0
M  V30 19634 N 1939.27 -0.683564 1.42004 0
M  V30 19635 C 1940.22 -1.78971 1.41257 0
M  V30 19636 C 1941.2 -1.58353 0.285152 0
M  V30 19637 O 1942.39 -1.68981 0.52673 0
M  V30 19638 C 1939.52 -3.17369 1.30888 0
M  V30 19639 C 1938.61 -3.4364 2.4854 0
M  V30 19640 N 1939 -3.40543 3.73984 0
M  V30 19641 C 1937.3 -3.7424 2.42612 0
M  V30 19642 C 1938 -3.66055 4.52083 0
M  V30 19643 N 1936.97 -3.8639 3.82366 0
M  V30 19644 H 1940.78 -1.74957 2.36151 0
M  V30 19645 H 1938.29 -0.884049 1.36229 0
M  V30 19646 H 1940.29 -3.96623 1.28435 0
M  V30 19647 H 1938.95 -3.22586 0.369887 0
M  V30 19648 H 1939.96 -3.20646 4.06702 0
M  V30 19649 H 1936.64 -3.86755 1.57246 0
M  V30 19650 H 1938.03 -3.69695 5.61048 0
M  V30 19651 N 1940.75 -1.28031 -0.919012 0
M  V30 19652 C 1942.16 -1.13466 -1.48264 0
M  V30 19653 C 1942.51 0.27724 -1.94231 0
M  V30 19654 O 1941.63 1.171 -1.81979 0
M  V30 19655 C 1942.23 -2.05366 -2.69463 0
M  V30 19656 C 1940.79 -1.94882 -3.22022 0
M  V30 19657 C 1939.93 -1.97414 -1.94738 0
M  V30 19658 H 1942.88 -1.40797 -0.732246 0
M  V30 19659 H 1942.91 -1.61457 -3.44546 0
M  V30 19660 H 1942.42 -3.08118 -2.35976 0
M  V30 19661 H 1940.52 -0.951474 -3.60247 0
M  V30 19662 H 1940.63 -2.8157 -3.87628 0
M  V30 19663 H 1939 -1.41752 -2.11609 0
M  V30 19664 H 1939.78 -3.01836 -1.63554 0
M  V30 19665 N 1942.22 1.12672 -1.10194 0
M  V30 19666 C 1943.45 1.88496 -0.865112 0
M  V30 19667 C 1943.87 1.78977 0.578691 0
M  V30 19668 O 1943.23 1.14292 1.40737 0
M  V30 19669 C 1943.28 3.35768 -1.315 0
M  V30 19670 O 1942.38 4.09615 -0.478447 0
M  V30 19671 H 1941.72 0.585782 -0.312658 0
M  V30 19672 H 1944.25 1.42506 -1.46811 0
M  V30 19673 H 1944.26 3.86605 -1.30385 0
M  V30 19674 H 1942.94 3.42013 -2.36643 0
M  V30 19675 H 1941.52 3.68753 -0.554589 0
M  V30 19676 N 1943.7 0.89031 1.30043 0
M  V30 19677 C 1944.93 0.525833 2.00623 0
M  V30 19678 C 1945.35 -0.87971 1.66261 0
M  V30 19679 O 1944.71 -1.58394 0.882105 0
M  V30 19680 C 1944.76 0.714046 3.5346 0
M  V30 19681 O 1943.86 -0.237685 4.11714 0
M  V30 19682 H 1943.2 0.20656 0.631054 0
M  V30 19683 H 1945.73 1.19932 1.65763 0
M  V30 19684 H 1945.74 0.615086 4.03337 0
M  V30 19685 H 1944.42 1.73881 3.77807 0
M  V30 19686 H 1942.99 -0.0919722 3.72787 0
M  V30 19687 N 1945.18 -1.43489 0.651812 0
M  V30 19688 C 1946.43 -2.01431 0.164307 0
M  V30 19689 C 1946.75 -1.51674 -1.22556 0
M  V30 19690 O 1946.02 -0.728791 -1.81839 0
M  V30 19691 H 1944.6 -0.744764 0.0577525 0
M  V30 19692 H 1947.26 -1.75718 0.843164 0
M  V30 19693 H 1946.36 -3.1175 0.147848 0
M  V30 19694 N 1946.66 -0.393643 -1.52605 0
M  V30 19695 C 1947.88 0.189618 -2.06531 0
M  V30 19696 C 1948.31 1.39382 -1.26311 0
M  V30 19697 O 1947.67 1.78977 -0.289278 0
M  V30 19698 C 1947.71 0.533717 -3.56628 0
M  V30 19699 O 1946.82 1.62703 -3.78948 0
M  V30 19700 H 1946.16 0.0209483 -0.663669 0
M  V30 19701 H 1948.69 -0.562368 -1.9672 0
M  V30 19702 H 1948.7 0.796786 -4.00144 0
M  V30 19703 H 1947.37 -0.34665 -4.14453 0
M  V30 19704 H 1945.95 1.35734 -3.47319 0
M  V30 19705 N 1948.14 1.57115 -0.123593 0
M  V30 19706 C 1949.41 1.86893 0.577099 0
M  V30 19707 C 1949.79 1.02556 1.84514 0
M  V30 19708 O 1949.14 0.105755 2.28255 0
M  V30 19709 C 1949.35 3.38107 0.865122 0
M  V30 19710 C 1950.7 4.0681 1.21618 0
M  V30 19711 O 1951.72 3.43153 0.955237 0
M  V30 19712 O 1950.58 5.19186 1.70612 0
M  V30 19713 H 1947.68 0.773842 0.291716 0
M  V30 19714 H 1950.22 1.68959 -0.158443 0
M  V30 19715 H 1948.99 3.91286 -0.0332696 0
M  V30 19716 H 1948.62 3.61488 1.65566 0
M  V30 19717 N 1949.61 -0.150187 1.56883 0
M  V30 19718 C 1950.89 -0.891842 1.74085 0
M  V30 19719 C 1951.27 -1.99479 0.690751 0
M  V30 19720 O 1950.62 -2.26641 -0.290877 0
M  V30 19721 C 1950.83 -1.43722 3.18033 0
M  V30 19722 C 1952.18 -1.90188 3.79623 0
M  V30 19723 O 1953.2 -1.53471 3.21442 0
M  V30 19724 O 1952.06 -2.57892 4.81824 0
M  V30 19725 H 1949.15 -0.421241 0.711678 0
M  V30 19726 H 1951.7 -0.136362 1.69151 0
M  V30 19727 H 1950.47 -0.644422 3.85957 0
M  V30 19728 H 1950.09 -2.2563 3.27379 0
M  V30 19729 N 1951.09 -1.51916 -0.419434 0
M  V30 19730 C 1952.34 -1.65142 -1.16502 0
M  V30 19731 C 1952.66 -0.378632 -1.91289 0
M  V30 19732 O 1951.93 0.606164 -1.86286 0
M  V30 19733 H 1950.51 -0.608667 -0.433051 0
M  V30 19734 H 1953.17 -1.88919 -0.47914 0
M  V30 19735 H 1952.27 -2.48762 -1.88477 0
M  V30 19736 N 1952.57 0.676023 -1.42365 0
M  V30 19737 C 1953.85 1.43189 -1.33252 0
M  V30 19738 C 1954.23 2.11078 0.0306765 0
M  V30 19739 O 1953.58 2.03148 1.0461 0
M  V30 19740 C 1953.79 2.43534 -2.49984 0
M  V30 19741 C 1955.13 3.08213 -2.92044 0
M  V30 19742 O 1956.16 2.53861 -2.49866 0
M  V30 19743 O 1955.02 4.06702 -3.65042 0
M  V30 19744 H 1952.11 0.638626 -0.525438 0
M  V30 19745 H 1954.66 0.704851 -1.5437 0
M  V30 19746 H 1953.43 1.92159 -3.40867 0
M  V30 19747 H 1953.05 3.23721 -2.30847 0
M  V30 19748 N 1954.05 1.28517 0.912209 0
M  V30 19749 C 1955.46 1.06257 1.19087 0
M  V30 19750 C 1955.66 -0.194098 2.00563 0
M  V30 19751 O 1954.72 -0.895341 2.36093 0
M  V30 19752 C 1956.03 2.31094 1.92396 0
M  V30 19753 C 1957.58 2.36288 2.05273 0
M  V30 19754 C 1958.06 3.60896 2.8199 0
M  V30 19755 N 1959.55 3.61545 2.89551 0
M  V30 19756 C 1960.28 4.54639 3.49416 0
M  V30 19757 N 1959.78 5.58053 4.10547 0
M  V30 19758 N 1961.57 4.42231 3.46969 0
M  V30 19759 H 1953.72 2.09183 0.368283 0
M  V30 19760 H 1955.99 0.920767 0.225593 0
M  V30 19761 H 1955.69 3.22653 1.39956 0
M  V30 19762 H 1955.57 2.37627 2.92939 0
M  V30 19763 H 1957.95 1.45225 2.56893 0
M  V30 19764 H 1958.03 2.33748 1.03901 0
M  V30 19765 H 1957.68 4.52304 2.31049 0
M  V30 19766 H 1957.61 3.6069 3.8368 0
M  V30 19767 H 1960.1 2.86764 2.46119 0
M  V30 19768 H 1960.41 6.25229 4.54212 0
M  V30 19769 H 1958.76 5.61877 4.09047 0
M  V30 19770 H 1961.95 3.60641 2.98422 0
M  V30 19771 H 1962.12 5.1497 3.93332 0
M  V30 19772 N 1955.53 -1.12086 1.1079 0
M  V30 19773 C 1956.44 -2.21514 0.772578 0
M  V30 19774 C 1957.45 -1.72454 -0.231462 0
M  V30 19775 O 1958.63 -2.01281 -0.0693074 0
M  V30 19776 C 1955.69 -3.46043 0.213364 0
M  V30 19777 C 1954.75 -4.09925 1.27515 0
M  V30 19778 C 1953.99 -5.28509 0.742524 0
M  V30 19779 O 1954.21 -5.68779 -0.429786 0
M  V30 19780 O 1953.14 -5.82802 1.50417 0
M  V30 19781 H 1956.97 -2.52596 1.68608 0
M  V30 19782 H 1954.56 -1.20492 0.883294 0
M  V30 19783 H 1956.44 -4.21294 -0.0944683 0
M  V30 19784 H 1955.11 -3.16628 -0.672947 0
M  V30 19785 H 1954.02 -3.36436 1.63589 0
M  V30 19786 H 1955.35 -4.43504 2.13461 0
M  V30 19787 N 1957 -0.897194 -1.29569 0
M  V30 19788 C 1958.42 -0.570676 -1.77764 0
M  V30 19789 C 1958.77 0.913595 -1.73631 0
M  V30 19790 O 1957.89 1.71426 -1.32068 0
M  V30 19791 C 1958.49 -1.02914 -3.22791 0
M  V30 19792 C 1957.05 -0.753828 -3.68774 0
M  V30 19793 C 1956.19 -1.20525 -2.49738 0
M  V30 19794 H 1959.14 -1.08018 -1.16266 0
M  V30 19795 H 1959.16 -0.363343 -3.78761 0
M  V30 19796 H 1958.68 -2.10944 -3.25767 0
M  V30 19797 H 1956.78 0.313965 -3.71275 0
M  V30 19798 H 1956.89 -1.34995 -4.59688 0
M  V30 19799 H 1955.25 -0.624304 -2.4693 0
M  V30 19800 H 1956.04 -2.29355 -2.55443 0
M  V30 19801 N 1958.48 1.43142 -0.659413 0
M  V30 19802 C 1959.73 2.0174 -0.175334 0
M  V30 19803 C 1960.06 1.52053 1.21285 0
M  V30 19804 O 1959.31 0.70675 1.82493 0
M  V30 19805 C 1959.61 3.57118 -0.141826 0
M  V30 19806 C 1959.28 4.26175 -1.47259 0
M  V30 19807 C 1957.94 4.44756 -1.837 0
M  V30 19808 C 1960.29 4.65229 -2.34972 0
M  V30 19809 C 1957.62 4.99656 -3.07507 0
M  V30 19810 C 1959.97 5.21502 -3.58076 0
M  V30 19811 C 1958.64 5.38297 -3.94705 0
M  V30 19812 H 1957.91 0.738217 -0.0641591 0
M  V30 19813 H 1960.55 1.71535 -0.85135 0
M  V30 19814 H 1958.86 3.86901 0.617659 0
M  V30 19815 H 1960.55 4.00222 0.249689 0
M  V30 19816 H 1957.14 4.12063 -1.17908 0
M  V30 19817 H 1961.33 4.50561 -2.08107 0
M  V30 19818 H 1956.58 5.10845 -3.35927 0
M  V30 19819 H 1960.76 5.50708 -4.26255 0
M  V30 19820 H 1958.39 5.80603 -4.90718 0
M  V30 19821 N 1959.96 0.40173 1.52394 0
M  V30 19822 C 1961.24 -0.234644 1.94187 0
M  V30 19823 C 1961.62 -1.63273 1.3381 0
M  V30 19824 O 1960.97 -2.22713 0.511013 0
M  V30 19825 C 1961.18 -0.248454 3.48114 0
M  V30 19826 C 1962.52 -0.471396 4.21975 0
M  V30 19827 O 1963.55 -0.328131 3.54685 0
M  V30 19828 O 1962.41 -0.753135 5.41286 0
M  V30 19829 H 1959.5 -0.149075 0.813453 0
M  V30 19830 H 1962.05 0.457138 1.63427 0
M  V30 19831 H 1960.82 0.730355 3.84424 0
M  V30 19832 H 1960.44 -0.984644 3.85215 0
M  V30 19833 N 1961.44 -1.57047 0.131923 0
M  V30 19834 C 1962.69 -1.95245 -0.521892 0
M  V30 19835 C 1963.01 -1.01692 -1.66385 0
M  V30 19836 O 1962.28 -0.0756026 -1.95754 0
M  V30 19837 H 1960.86 -0.720886 -0.195786 0
M  V30 19838 H 1963.52 -1.93831 0.203893 0
M  V30 19839 H 1962.62 -2.986 -0.907979 0
M  V30 19840 N 1962.92 0.141865 -1.5696 0
M  V30 19841 C 1964.16 0.854874 -1.83901 0
M  V30 19842 C 1964.5 1.80586 -0.714297 0
M  V30 19843 O 1963.77 1.92449 0.281695 0
M  V30 19844 C 1964.05 1.62486 -3.21357 0
M  V30 19845 C 1963.91 0.695015 -4.44398 0
M  V30 19846 C 1965.23 2.5862 -3.56095 0
M  V30 19847 H 1962.34 0.309334 -0.66894 0
M  V30 19848 H 1964.99 0.119882 -1.89621 0
M  V30 19849 H 1963.14 2.25143 -3.16612 0
M  V30 19850 H 1964.81 0.0790536 -4.61232 0
M  V30 19851 H 1963.05 0.00493655 -4.338 0
M  V30 19852 H 1963.72 1.26992 -5.37194 0
M  V30 19853 H 1966.2 2.06079 -3.61484 0
M  V30 19854 H 1965.07 3.09542 -4.53294 0
M  V30 19855 H 1965.34 3.40219 -2.82319 0
M  V30 19856 N 1964.39 1.52136 0.411372 0
M  V30 19857 C 1965.63 1.6776 1.16773 0
M  V30 19858 C 1966 0.397829 1.87833 0
M  V30 19859 O 1967.2 0.430144 2.65336 0
M  V30 19860 C 1965.47 2.86438 2.13748 0
M  V30 19861 S 1967.03 3.22532 2.9752 0
M  V30 19862 H 1963.85 0.590767 0.395621 0
M  V30 19863 H 1966.45 1.90123 0.455363 0
M  V30 19864 H 1965.15 3.7783 1.60226 0
M  V30 19865 H 1964.68 2.66342 2.89526 0
M  V30 19866 H 1966.7 2.7098 4.15673 0
M  V30 19867 N 1965.87 -0.668464 1.42721 0
M  V30 19868 C 1967.12 -1.42567 1.43245 0
M  V30 19869 C 1967.44 -1.9493 0.0521972 0
M  V30 19870 O 1966.71 -1.73469 -0.910231 0
M  V30 19871 H 1965.29 -0.529068 0.527349 0
M  V30 19872 H 1967.95 -0.789428 1.78197 0
M  V30 19873 H 1967.05 -2.27556 2.13599 0
M  V30 19874 N 1967.35 -1.28999 -0.905381 0
M  V30 19875 C 1968.31 -1.13652 -1.99038 0
M  V30 19876 C 1969.31 -0.0736646 -1.60631 0
M  V30 19877 O 1970.5 -0.320139 -1.71233 0
M  V30 19878 C 1967.64 -0.736715 -3.32844 0
M  V30 19879 H 1968.83 -2.10022 -2.14081 0
M  V30 19880 H 1966.38 -1.12104 -1.08915 0
M  V30 19881 H 1967.12 0.227383 -3.23502 0
M  V30 19882 H 1966.9 -1.50459 -3.62084 0
M  V30 19883 H 1968.39 -0.65223 -4.12475 0
M  V30 19884 N 1968.83 1.11497 -1.11383 0
M  V30 19885 C 1970.24 1.64742 -0.878467 0
M  V30 19886 C 1970.59 1.87138 0.589393 0
M  V30 19887 O 1969.72 1.60515 1.45134 0
M  V30 19888 C 1970.31 2.99271 -1.58815 0
M  V30 19889 C 1968.87 3.49426 -1.39923 0
M  V30 19890 C 1968.02 2.24248 -1.6312 0
M  V30 19891 H 1970.97 0.951453 -1.27016 0
M  V30 19892 H 1970.99 3.66215 -1.03281 0
M  V30 19893 H 1970.5 2.82939 -2.65645 0
M  V30 19894 H 1968.6 3.70924 -0.353006 0
M  V30 19895 H 1968.72 4.28255 -2.1479 0
M  V30 19896 H 1967.08 2.31843 -1.05455 0
M  V30 19897 H 1967.86 2.10459 -2.71223 0
M  V30 19898 N 1970.31 0.904053 1.29092 0
M  V30 19899 C 1971.22 0.389825 2.31339 0
M  V30 19900 C 1972.23 -0.517628 1.66122 0
M  V30 19901 O 1973.41 -0.406158 1.97262 0
M  V30 19902 C 1970.47 -0.370468 3.44715 0
M  V30 19903 C 1969.54 0.569032 4.25512 0
M  V30 19904 C 1968.77 -0.155071 5.33475 0
M  V30 19905 O 1968.99 -1.37834 5.53496 0
M  V30 19906 O 1967.93 0.504642 5.99781 0
M  V30 19907 H 1971.75 1.2382 2.77313 0
M  V30 19908 H 1969.34 0.668528 1.33608 0
M  V30 19909 H 1971.22 -0.800237 4.13732 0
M  V30 19910 H 1969.89 -1.19484 3.00841 0
M  V30 19911 H 1968.8 1.048 3.59121 0
M  V30 19912 H 1970.13 1.35994 4.7304 0
M  V30 19913 N 1971.79 -1.4279 0.666995 0
M  V30 19914 C 1973.06 -1.9526 0.11533 0
M  V30 19915 C 1973.44 -1.60776 -1.36801 0
M  V30 19916 O 1972.79 -0.899897 -2.10034 0
M  V30 19917 C 1973 -3.46967 0.376175 0
M  V30 19918 C 1974.35 -4.23619 0.28849 0
M  V30 19919 O 1975.37 -3.54853 0.30949 0
M  V30 19920 O 1974.23 -5.46041 0.223982 0
M  V30 19921 H 1971.33 -0.826998 -0.00165705 0
M  V30 19922 H 1973.87 -1.52658 0.741186 0
M  V30 19923 H 1972.64 -3.65243 1.40404 0
M  V30 19924 H 1972.27 -3.96598 -0.282074 0
M  V30 19925 N 1973.26 -0.409806 -1.52179 0
M  V30 19926 C 1974.51 0.167113 -2.01007 0
M  V30 19927 C 1974.83 1.46166 -1.2998 0
M  V30 19928 O 1976.03 2.11988 -1.69628 0
M  V30 19929 C 1974.49 0.348367 -3.5821 0
M  V30 19930 C 1974.1 -0.934131 -4.38153 0
M  V30 19931 C 1975.84 0.880542 -4.15267 0
M  V30 19932 C 1973.75 -0.720028 -5.87 0
M  V30 19933 H 1972.68 0.0662269 -0.751086 0
M  V30 19934 H 1975.33 -0.535355 -1.75517 0
M  V30 19935 H 1973.71 1.11318 -3.80032 0
M  V30 19936 H 1974.88 -1.70515 -4.2809 0
M  V30 19937 H 1973.2 -1.39277 -3.92417 0
M  V30 19938 H 1975.8 1.05677 -5.24153 0
M  V30 19939 H 1976.14 1.85542 -3.72666 0
M  V30 19940 H 1976.67 0.174766 -3.97416 0
M  V30 19941 H 1973.41 -1.66649 -6.33963 0
M  V30 19942 H 1972.93 0.0116803 -5.99799 0
M  V30 19943 H 1974.61 -0.362471 -6.45984 0
M  V30 19944 N 1974.74 1.56975 -0.14025 0
M  V30 19945 C 1975.65 2.19981 0.815207 0
M  V30 19946 C 1976.67 1.18211 1.2768 0
M  V30 19947 O 1977.84 1.50762 1.33539 0
M  V30 19948 C 1974.91 2.80369 2.03946 0
M  V30 19949 C 1973.97 3.97244 1.62774 0
M  V30 19950 C 1973.2 4.54744 2.79363 0
M  V30 19951 O 1973.43 4.11124 3.9539 0
M  V30 19952 O 1972.36 5.45109 2.55224 0
M  V30 19953 H 1976.19 3.02125 0.308908 0
M  V30 19954 H 1973.77 1.4915 0.0864409 0
M  V30 19955 H 1975.65 3.18778 2.75606 0
M  V30 19956 H 1974.33 2.01243 2.53541 0
M  V30 19957 H 1973.23 3.63564 0.88158 0
M  V30 19958 H 1974.57 4.7787 1.17901 0
M  V30 19959 N 1976.22 -0.133539 1.57033 0
M  V30 19960 C 1977.46 -0.849918 1.85892 0
M  V30 19961 C 1977.82 -1.77731 0.72634 0
M  V30 19962 O 1979.02 -2.53416 0.896316 0
M  V30 19963 C 1977.3 -1.59254 3.19958 0
M  V30 19964 S 1978.85 -2.3525 3.70409 0
M  V30 19965 H 1975.67 -0.283955 0.651836 0
M  V30 19966 H 1978.27 -0.1091 1.95195 0
M  V30 19967 H 1976.98 -0.902961 4.00343 0
M  V30 19968 H 1976.51 -2.37402 3.13694 0
M  V30 19969 H 1978.52 -3.60701 3.40748 0
M  V30 19970 N 1977.7 -1.52352 -0.403298 0
M  V30 19971 C 1979.11 -1.41285 -0.742343 0
M  V30 19972 C 1979.31 -0.521946 -1.94623 0
M  V30 19973 O 1978.37 0.0100547 -2.52498 0
M  V30 19974 C 1979.68 -2.83907 -0.990819 0
M  V30 19975 C 1981.23 -2.93289 -1.09318 0
M  V30 19976 C 1981.71 -4.36892 -1.37437 0
M  V30 19977 N 1983.2 -4.40153 -1.4429 0
M  V30 19978 C 1983.93 -5.48333 -1.67686 0
M  V30 19979 N 1983.43 -6.66622 -1.88647 0
M  V30 19980 N 1985.22 -5.35856 -1.69748 0
M  V30 19981 H 1977.37 -2.08806 0.389077 0
M  V30 19982 H 1979.63 -0.941383 0.111813 0
M  V30 19983 H 1979.34 -3.51247 -0.178511 0
M  V30 19984 H 1979.21 -3.25302 -1.9094 0
M  V30 19985 H 1981.6 -2.26127 -1.89607 0
M  V30 19986 H 1981.68 -2.55343 -0.152822 0
M  V30 19987 H 1981.33 -5.04616 -0.576634 0
M  V30 19988 H 1981.26 -4.72379 -2.32734 0
M  V30 19989 H 1983.75 -3.54888 -1.29857 0
M  V30 19990 H 1984.06 -7.44848 -2.05965 0
M  V30 19991 H 1982.41 -6.69676 -1.859 0
M  V30 19992 H 1985.6 -4.42419 -1.52914 0
M  V30 19993 H 1985.77 -6.20237 -1.87642 0
M  V30 19994 N 1979.18 0.660885 -1.43074 0
M  V30 19995 C 1980.4 1.45376 -1.47921 0
M  V30 19996 C 1980.83 1.87855 -0.0960289 0
M  V30 19997 O 1980.18 1.5689 0.908583 0
M  V30 19998 C 1980.23 2.67002 -2.42368 0
M  V30 19999 O 1979.34 3.65783 -1.90465 0
M  V30 20000 H 1978.68 0.436193 -0.500632 0
M  V30 20001 H 1981.21 0.809399 -1.87909 0
M  V30 20002 H 1981.22 3.14909 -2.59416 0
M  V30 20003 H 1979.89 2.35426 -3.42852 0
M  V30 20004 H 1978.47 3.24885 -1.83041 0
M  V30 20005 N 1980.65 1.29477 0.898527 0
M  V30 20006 C 1981.9 1.1769 1.65157 0
M  V30 20007 C 1982.23 -0.270742 1.92303 0
M  V30 20008 O 1981.51 -1.19538 1.5343 0
M  V30 20009 C 1981.79 1.99186 2.99995 0
M  V30 20010 C 1981.64 3.52097 2.79906 0
M  V30 20011 C 1982.96 1.81916 4.00743 0
M  V30 20012 H 1980.08 0.428901 0.599344 0
M  V30 20013 H 1982.72 1.58963 1.04071 0
M  V30 20014 H 1980.87 1.64116 3.52134 0
M  V30 20015 H 1982.55 3.97155 2.3466 0
M  V30 20016 H 1980.79 3.76962 2.14667 0
M  V30 20017 H 1981.46 4.04394 3.75725 0
M  V30 20018 H 1983.94 2.12549 3.57718 0
M  V30 20019 H 1982.81 2.41285 4.93024 0
M  V30 20020 H 1983.07 0.774654 4.3526 0
M  V30 20021 N 1982.13 -1.10905 1.11972 0
M  V30 20022 C 1983.08 -2.17107 0.783135 0
M  V30 20023 C 1984.05 -1.6424 -0.24791 0
M  V30 20024 O 1985.23 -1.90399 -0.123577 0
M  V30 20025 C 1982.37 -3.44274 0.238574 0
M  V30 20026 C 1981.49 -4.11119 1.32685 0
M  V30 20027 C 1980.62 -5.25989 0.742236 0
M  V30 20028 C 1979.66 -5.84728 1.80997 0
M  V30 20029 N 1978.8 -6.90983 1.24444 0
M  V30 20030 H 1983.64 -2.45243 1.69292 0
M  V30 20031 H 1981.18 -1.20386 0.845323 0
M  V30 20032 H 1983.13 -4.17091 -0.0951679 0
M  V30 20033 H 1981.76 -3.16505 -0.634384 0
M  V30 20034 H 1980.82 -3.3632 1.77745 0
M  V30 20035 H 1982.13 -4.50824 2.13445 0
M  V30 20036 H 1981.28 -6.05638 0.358877 0
M  V30 20037 H 1980.02 -4.87604 -0.096622 0
M  V30 20038 H 1979.03 -5.03753 2.20258 0
M  V30 20039 H 1980.25 -6.25178 2.65196 0
M  V30 20040 H 1978.2 -6.54607 0.427323 0
M  V30 20041 H 1978.11 -7.29374 1.98869 0
M  V30 20042 H 1979.38 -7.74424 0.888154 0
M  V30 20043 N 1983.61 -0.910886 -1.2861 0
M  V30 20044 C 1984.89 -0.461608 -1.90075 0
M  V30 20045 C 1985.27 1.05944 -1.8259 0
M  V30 20046 O 1984.62 1.90624 -1.25995 0
M  V30 20047 C 1984.83 -0.98875 -3.34701 0
M  V30 20048 C 1986.17 -1.03913 -4.11688 0
M  V30 20049 O 1987.2 -0.937194 -3.4365 0
M  V30 20050 O 1986.06 -1.19392 -5.33299 0
M  V30 20051 H 1983.15 -0.145814 -0.814044 0
M  V30 20052 H 1985.7 -1.00148 -1.36998 0
M  V30 20053 H 1984.47 -2.03273 -3.34359 0
M  V30 20054 H 1984.09 -0.429535 -3.95273 0
M  V30 20055 N 1985.09 1.42434 -0.674558 0
M  V30 20056 C 1986.5 1.84678 -0.274015 0
M  V30 20057 C 1986.85 1.56464 1.18378 0
M  V30 20058 O 1985.98 1.02434 1.90621 0
M  V30 20059 C 1986.57 3.3523 -0.490545 0
M  V30 20060 C 1985.13 3.76124 -0.144124 0
M  V30 20061 C 1984.28 2.66013 -0.783107 0
M  V30 20062 H 1987.23 1.32284 -0.876737 0
M  V30 20063 H 1987.25 3.79628 0.257403 0
M  V30 20064 H 1986.76 3.55733 -1.55163 0
M  V30 20065 H 1984.86 3.61228 0.913523 0
M  V30 20066 H 1984.97 4.75521 -0.584478 0
M  V30 20067 H 1983.34 2.53796 -0.214457 0
M  V30 20068 H 1984.12 2.89339 -1.84764 0
M  V30 20069 N 1986.57 0.417871 1.51959 0
M  V30 20070 C 1987.52 -0.420841 2.24082 0
M  V30 20071 C 1988.5 -1.00627 1.25551 0
M  V30 20072 O 1989.69 -0.927636 1.50745 0
M  V30 20073 C 1986.82 -1.5322 3.07211 0
M  V30 20074 C 1985.91 -0.957122 4.13159 0
M  V30 20075 N 1986.3 -0.109467 5.05682 0
M  V30 20076 C 1984.6 -1.22673 4.28797 0
M  V30 20077 C 1985.3 0.211436 5.81316 0
M  V30 20078 N 1984.27 -0.399968 5.42127 0
M  V30 20079 H 1988.08 0.232982 2.92975 0
M  V30 20080 H 1985.59 0.228798 1.6078 0
M  V30 20081 H 1987.59 -2.14574 3.57441 0
M  V30 20082 H 1986.25 -2.18856 2.39859 0
M  V30 20083 H 1987.26 0.25551 5.17269 0
M  V30 20084 H 1983.93 -1.88203 3.72674 0
M  V30 20085 H 1985.32 0.900024 6.65845 0
M  V30 20086 N 1988.04 -1.56898 0.148573 0
M  V30 20087 C 1988.97 -2.19852 -0.786585 0
M  V30 20088 C 1989.96 -1.14723 -1.2559 0
M  V30 20089 O 1991.14 -1.43071 -1.31317 0
M  V30 20090 C 1988.27 -2.82137 -2.02524 0
M  V30 20091 C 1987.22 -3.93108 -1.69264 0
M  V30 20092 C 1986.55 -4.42335 -3.00407 0
M  V30 20093 C 1987.85 -5.13807 -0.938092 0
M  V30 20094 H 1989.54 -2.98252 -0.261903 0
M  V30 20095 H 1987.09 -1.43461 -0.124531 0
M  V30 20096 H 1989.04 -3.24845 -2.68428 0
M  V30 20097 H 1987.77 -2.01071 -2.57368 0
M  V30 20098 H 1986.43 -3.5102 -1.05739 0
M  V30 20099 H 1986.07 -3.58089 -3.53244 0
M  V30 20100 H 1985.77 -5.17185 -2.78915 0
M  V30 20101 H 1987.3 -4.87714 -3.67378 0
M  V30 20102 H 1988.71 -5.53349 -1.49924 0
M  V30 20103 H 1987.11 -5.94429 -0.823062 0
M  V30 20104 H 1988.18 -4.8485 0.0698825 0
M  V30 20105 N 1989.52 0.125209 -1.57102 0
M  V30 20106 C 1990.75 0.852378 -1.89075 0
M  V30 20107 C 1991.17 1.72938 -0.739878 0
M  V30 20108 O 1990.53 1.78633 0.309828 0
M  V30 20109 C 1990.58 1.66688 -3.19762 0
M  V30 20110 O 1989.68 2.77324 -3.0523 0
M  V30 20111 H 1989.02 0.236103 -0.620606 0
M  V30 20112 H 1991.55 0.109473 -2.04307 0
M  V30 20113 H 1991.56 2.0574 -3.52328 0
M  V30 20114 H 1990.24 1.02303 -4.03121 0
M  V30 20115 H 1988.82 2.41519 -2.84118 0
M  V30 20116 N 1991 1.52564 0.395213 0
M  V30 20117 C 1991.93 1.79867 1.48897 0
M  V30 20118 C 1992.91 0.650351 1.57176 0
M  V30 20119 O 1994.1 0.897328 1.72226 0
M  V30 20120 C 1991.23 1.96192 2.86576 0
M  V30 20121 C 1990.18 3.11854 2.9314 0
M  V30 20122 C 1989.51 3.13424 4.33208 0
M  V30 20123 C 1990.81 4.51046 2.63353 0
M  V30 20124 H 1992.5 2.71457 1.26299 0
M  V30 20125 H 1990.05 1.30621 0.606145 0
M  V30 20126 H 1992 2.13875 3.63091 0
M  V30 20127 H 1990.72 1.01286 3.10498 0
M  V30 20128 H 1989.38 2.93944 2.19072 0
M  V30 20129 H 1989.03 2.16212 4.5416 0
M  V30 20130 H 1988.73 3.91117 4.38522 0
M  V30 20131 H 1990.25 3.33254 5.11639 0
M  V30 20132 H 1991.67 4.6909 3.29587 0
M  V30 20133 H 1990.07 5.3076 2.80024 0
M  V30 20134 H 1991.14 4.58187 1.58722 0
M  V30 20135 N 1992.48 -0.653289 1.43422 0
M  V30 20136 C 1993.39 -1.79526 1.51022 0
M  V30 20137 C 1994.4 -1.69403 0.39732 0
M  V30 20138 O 1995.58 -1.90574 0.651437 0
M  V30 20139 C 1992.65 -3.15803 1.43071 0
M  V30 20140 C 1991.71 -3.37723 2.65031 0
M  V30 20141 C 1990.94 -4.67499 2.5745 0
M  V30 20142 O 1991.16 -5.46846 1.6222 0
M  V30 20143 O 1990.1 -4.91137 3.47948 0
M  V30 20144 H 1993.92 -1.76069 2.47454 0
M  V30 20145 H 1991.51 -0.81176 1.25423 0
M  V30 20146 H 1993.39 -3.97083 1.41079 0
M  V30 20147 H 1992.06 -3.1985 0.497738 0
M  V30 20148 H 1990.97 -2.56208 2.72595 0
M  V30 20149 H 1992.3 -3.38523 3.573 0
M  V30 20150 N 1993.96 -1.29952 -0.891648 0
M  V30 20151 C 1994.89 -1.11577 -2.00208 0
M  V30 20152 C 1995.9 -0.0609281 -1.62686 0
M  V30 20153 O 1997.09 -0.306271 -1.75853 0
M  V30 20154 C 1994.19 -0.678052 -3.32048 0
M  V30 20155 C 1993.36 -1.81318 -3.98048 0
M  V30 20156 C 1992.42 -1.36513 -5.08184 0
M  V30 20157 O 1991.45 -2.07122 -5.30178 0
M  V30 20158 N 1992.65 -0.240455 -5.80002 0
M  V30 20159 H 1995.42 -2.07214 -2.16523 0
M  V30 20160 H 1992.98 -1.21998 -1.06433 0
M  V30 20161 H 1994.97 -0.361457 -4.03083 0
M  V30 20162 H 1993.54 0.186094 -3.12046 0
M  V30 20163 H 1992.76 -2.29824 -3.20272 0
M  V30 20164 H 1994.05 -2.57406 -4.38885 0
M  V30 20165 H 1993.44 0.34806 -5.64628 0
M  V30 20166 H 1992 0.016726 -6.51798 0
M  V30 20167 N 1995.44 1.1031 -1.12559 0
M  V30 20168 C 1996.39 2.14835 -0.763553 0
M  V30 20169 C 1997.37 1.59129 0.238075 0
M  V30 20170 O 1998.56 1.76947 0.043378 0
M  V30 20171 C 1995.69 3.42586 -0.221241 0
M  V30 20172 C 1994.78 4.05222 -1.25124 0
M  V30 20173 N 1995.17 4.42543 -2.44927 0
M  V30 20174 C 1993.47 4.32301 -1.0969 0
M  V30 20175 C 1994.17 4.91767 -3.10709 0
M  V30 20176 N 1993.14 4.88655 -2.38154 0
M  V30 20177 H 1996.94 2.41484 -1.67519 0
M  V30 20178 H 1994.46 1.27445 -1.00656 0
M  V30 20179 H 1996.46 4.16862 0.0563207 0
M  V30 20180 H 1995.12 3.17396 0.684837 0
M  V30 20181 H 1996.13 4.34197 -2.82299 0
M  V30 20182 H 1992.8 4.16761 -0.248225 0
M  V30 20183 H 1994.19 5.30181 -4.12744 0
M  V30 20184 N 1996.91 0.917694 1.28125 0
M  V30 20185 C 1998.16 0.551804 1.94421 0
M  V30 20186 C 1998.48 -0.908163 1.72561 0
M  V30 20187 O 1997.75 -1.64255 1.06758 0
M  V30 20188 H 1996.33 0.201081 0.719427 0
M  V30 20189 H 1998.99 1.16791 1.56032 0
M  V30 20190 H 1998.09 0.749587 3.02965 0
M  V30 20191 N 1998.39 -1.42074 0.682102 0
M  V30 20192 C 1999.32 -2.29179 -0.0307054 0
M  V30 20193 C 2000.34 -1.44071 -0.758119 0
M  V30 20194 O 2001.53 -1.67715 -0.611062 0
M  V30 20195 C 1998.63 -3.21654 -1.06734 0
M  V30 20196 C 1997.8 -4.35453 -0.41228 0
M  V30 20197 C 1996.86 -5.08596 -1.34969 0
M  V30 20198 O 1995.88 -5.6286 -0.847209 0
M  V30 20199 N 1997.09 -5.14794 -2.68267 0
M  V30 20200 H 1999.85 -2.90995 0.71706 0
M  V30 20201 H 1997.41 -1.5308 0.52708 0
M  V30 20202 H 1999.4 -3.67453 -1.69589 0
M  V30 20203 H 1997.97 -2.61239 -1.71677 0
M  V30 20204 H 1997.19 -3.92207 0.395908 0
M  V30 20205 H 1998.48 -5.08781 0.0437707 0
M  V30 20206 H 1997.88 -4.72131 -3.11623 0
M  V30 20207 H 1996.44 -5.64215 -3.26351 0
M  V30 20208 N 1999.87 -0.425924 -1.51735 0
M  V30 20209 C 2000.82 0.391248 -2.2746 0
M  V30 20210 C 2001.79 1.02669 -1.30569 0
M  V30 20211 O 2002.97 1.04777 -1.59457 0
M  V30 20212 C 2000.11 1.4928 -3.11142 0
M  V30 20213 C 1999.22 0.876622 -4.23012 0
M  V30 20214 C 1998.36 1.95227 -4.94024 0
M  V30 20215 C 1997.4 1.31392 -5.97832 0
M  V30 20216 N 1996.54 2.33043 -6.62296 0
M  V30 20217 H 2001.38 -0.26089 -2.96856 0
M  V30 20218 H 1998.91 -0.1405 -1.46427 0
M  V30 20219 H 2000.87 2.14262 -3.57977 0
M  V30 20220 H 1999.5 2.11473 -2.43884 0
M  V30 20221 H 1998.55 0.115399 -3.80225 0
M  V30 20222 H 1999.86 0.370471 -4.97422 0
M  V30 20223 H 1999.02 2.67897 -5.44349 0
M  V30 20224 H 1997.76 2.49212 -4.19219 0
M  V30 20225 H 1996.76 0.572626 -5.4681 0
M  V30 20226 H 1997.99 0.781544 -6.74588 0
M  V30 20227 H 1995.93 2.86129 -5.9031 0
M  V30 20228 H 1995.85 1.87287 -7.32434 0
M  V30 20229 H 1997.12 3.05231 -7.17255 0
M  V30 20230 N 2001.35 1.56817 -0.156891 0
M  V30 20231 C 2002.59 1.9673 0.492464 0
M  V30 20232 C 2002.93 1.04226 1.63862 0
M  V30 20233 O 2002.2 0.0865469 1.94307 0
M  V30 20234 C 2002.48 3.46246 0.989218 0
M  V30 20235 C 2002.34 4.49529 -0.156119 0
M  V30 20236 C 2003.66 3.98502 1.86773 0
M  V30 20237 H 2000.78 0.715297 0.177537 0
M  V30 20238 H 2003.42 1.88477 -0.240116 0
M  V30 20239 H 2001.57 3.53411 1.61348 0
M  V30 20240 H 2003.24 4.54437 -0.792781 0
M  V30 20241 H 2001.48 4.26098 -0.813797 0
M  V30 20242 H 2002.15 5.51507 0.233341 0
M  V30 20243 H 2004.63 3.93879 1.34159 0
M  V30 20244 H 2003.51 5.03564 2.18436 0
M  V30 20245 H 2003.77 3.4145 2.80828 0
M  V30 20246 N 2002.83 -0.116876 1.57166 0
M  V30 20247 C 2003.76 -1.16901 1.97147 0
M  V30 20248 C 2004.77 -1.37537 0.871063 0
M  V30 20249 O 2005.96 -1.36574 1.14934 0
M  V30 20250 C 2003.06 -2.52863 2.2564 0
M  V30 20251 C 2002.23 -2.528 3.56946 0
M  V30 20252 C 2001.29 -3.70525 3.73628 0
M  V30 20253 O 2000.32 -3.54013 4.45717 0
M  V30 20254 N 2001.52 -4.89172 3.12556 0
M  V30 20255 H 2004.28 -0.828895 2.88009 0
M  V30 20256 H 2001.85 -0.306125 1.5898 0
M  V30 20257 H 2003.84 -3.30182 2.34013 0
M  V30 20258 H 2002.41 -2.79048 1.40894 0
M  V30 20259 H 2001.63 -1.61181 3.59742 0
M  V30 20260 H 2002.92 -2.49817 4.43248 0
M  V30 20261 H 2002.31 -5.05491 2.5396 0
M  V30 20262 H 2000.87 -5.64159 3.26447 0
M  V30 20263 N 2004.3 -1.52772 -0.387116 0
M  V30 20264 C 2005.54 -1.69597 -1.14089 0
M  V30 20265 C 2005.91 -0.427661 -1.87177 0
M  V30 20266 O 2007.11 -0.472302 -2.64618 0
M  V30 20267 C 2005.38 -2.89802 -2.09164 0
M  V30 20268 S 2006.94 -3.27225 -2.92352 0
M  V30 20269 H 2003.76 -0.596986 -0.386172 0
M  V30 20270 H 2006.36 -1.90823 -0.425059 0
M  V30 20271 H 2005.06 -3.80332 -1.54195 0
M  V30 20272 H 2004.59 -2.70915 -2.85252 0
M  V30 20273 H 2006.61 -2.77559 -4.11309 0
M  V30 20274 N 2005.78 0.645673 -1.43767 0
M  V30 20275 C 2007.06 1.40331 -1.3626 0
M  V30 20276 C 2007.44 2.11095 -0.0141031 0
M  V30 20277 O 2006.79 2.05321 1.00277 0
M  V30 20278 C 2007 2.38177 -2.55094 0
M  V30 20279 C 2008.34 3.01949 -2.98516 0
M  V30 20280 O 2009.37 2.48504 -2.55195 0
M  V30 20281 O 2008.23 3.98868 -3.73586 0
M  V30 20282 H 2005.32 0.627337 -0.538866 0
M  V30 20283 H 2007.87 0.671948 -1.5583 0
M  V30 20284 H 2006.64 1.84886 -3.44866 0
M  V30 20285 H 2006.26 3.18752 -2.37662 0
M  V30 20286 N 2007.26 1.30423 0.884744 0
M  V30 20287 C 2008.51 1.19435 1.63899 0
M  V30 20288 C 2008.84 -0.25033 1.9258 0
M  V30 20289 O 2008.11 -1.17904 1.5469 0
M  V30 20290 C 2008.4 2.02357 2.97865 0
M  V30 20291 C 2008.25 3.55046 2.76156 0
M  V30 20292 C 2009.57 1.86156 3.98791 0
M  V30 20293 H 2006.69 0.435234 0.594761 0
M  V30 20294 H 2009.33 1.60058 1.0238 0
M  V30 20295 H 2007.48 1.67842 3.50373 0
M  V30 20296 H 2009.15 3.99622 2.30434 0
M  V30 20297 H 2007.39 3.79218 2.10657 0
M  V30 20298 H 2008.07 4.08356 3.71415 0
M  V30 20299 H 2010.54 2.16332 3.55443 0
M  V30 20300 H 2009.42 2.46501 4.90437 0
M  V30 20301 H 2009.68 0.820775 4.34414 0
M  V30 20302 N 2008.74 -1.09711 1.13142 0
M  V30 20303 C 2009.96 -1.86136 0.914785 0
M  V30 20304 C 2010.39 -1.80448 -0.531035 0
M  V30 20305 O 2009.75 -1.17983 -1.37658 0
M  V30 20306 C 2009.79 -3.32164 1.40356 0
M  V30 20307 O 2008.9 -4.08203 0.586881 0
M  V30 20308 H 2008.24 -0.577287 0.328079 0
M  V30 20309 H 2010.77 -1.38563 1.50537 0
M  V30 20310 H 2010.78 -3.83013 1.40589 0
M  V30 20311 H 2009.45 -3.35619 2.45628 0
M  V30 20312 H 2008.03 -3.67153 0.652163 0
M  V30 20313 N 2010.22 -0.924476 -1.27637 0
M  V30 20314 C 2011.46 -0.564054 -1.94798 0
M  V30 20315 C 2011.8 0.891863 -1.72509 0
M  V30 20316 O 2011.07 1.63577 -1.05228 0
M  V30 20317 C 2011.35 -0.886888 -3.49008 0
M  V30 20318 C 2011.21 -2.39632 -3.80653 0
M  V30 20319 C 2012.53 -0.390514 -4.38364 0
M  V30 20320 H 2009.64 -0.206399 -0.707509 0
M  V30 20321 H 2012.29 -1.15567 -1.50812 0
M  V30 20322 H 2010.44 -0.383406 -3.86603 0
M  V30 20323 H 2012.11 -2.97125 -3.52866 0
M  V30 20324 H 2010.35 -2.84685 -3.27318 0
M  V30 20325 H 2011.02 -2.57274 -4.88379 0
M  V30 20326 H 2013.5 -0.821972 -4.07901 0
M  V30 20327 H 2012.37 -0.645381 -5.45093 0
M  V30 20328 H 2012.64 0.709365 -4.36372 0
M  V30 20329 N 2011.69 1.41711 -0.689627 0
M  V30 20330 C 2012.94 2.00925 -0.217655 0
M  V30 20331 C 2013.26 1.5487 1.18491 0
M  V30 20332 O 2012.53 0.776746 1.79843 0
M  V30 20333 H 2011.11 0.742971 -0.0774783 0
M  V30 20334 H 2013.78 1.73421 -0.889456 0
M  V30 20335 H 2012.87 3.11248 -0.230451 0
M  V30 20336 N 2013.17 0.433965 1.51507 0
M  V30 20337 C 2014.42 -0.133629 2.02059 0
M  V30 20338 C 2014.75 -1.43006 1.31831 0
M  V30 20339 O 2014 -1.91121 0.420883 0
M  V30 20340 C 2014.3 -0.403136 3.55119 0
M  V30 20341 C 2013.97 0.807078 4.43618 0
M  V30 20342 C 2012.63 1.13897 4.67526 0
M  V30 20343 C 2014.98 1.61458 4.95561 0
M  V30 20344 C 2012.31 2.27911 5.40623 0
M  V30 20345 C 2014.66 2.74568 5.69908 0
M  V30 20346 C 2013.33 3.08215 5.92081 0
M  V30 20347 H 2012.6 -0.0488983 0.739385 0
M  V30 20348 H 2015.24 0.58047 1.82491 0
M  V30 20349 H 2013.55 -1.19909 3.73 0
M  V30 20350 H 2015.24 -0.85567 3.91764 0
M  V30 20351 H 2011.83 0.538448 4.25204 0
M  V30 20352 H 2016.02 1.37137 4.76977 0
M  V30 20353 H 2011.27 2.54298 5.56006 0
M  V30 20354 H 2015.45 3.3751 6.09147 0
M  V30 20355 H 2013.08 3.96674 6.48501 0
M  V30 20356 N 2014.65 -1.56732 0.165206 0
M  V30 20357 C 2015.9 -1.95872 -0.481368 0
M  V30 20358 C 2016.21 -1.05357 -1.64801 0
M  V30 20359 O 2017.42 -1.34152 -2.36041 0
M  V30 20360 C 2015.87 -3.48264 -0.907766 0
M  V30 20361 C 2015.48 -4.47394 0.232939 0
M  V30 20362 C 2017.23 -3.96235 -1.5231 0
M  V30 20363 C 2015.13 -5.91017 -0.212747 0
M  V30 20364 H 2014.06 -0.731304 -0.183605 0
M  V30 20365 H 2016.71 -1.81755 0.252461 0
M  V30 20366 H 2015.1 -3.57777 -1.69739 0
M  V30 20367 H 2016.27 -4.49591 1.01018 0
M  V30 20368 H 2014.59 -4.09446 0.757843 0
M  V30 20369 H 2017.18 -5.0099 -1.8685 0
M  V30 20370 H 2017.53 -3.38822 -2.41879 0
M  V30 20371 H 2018.06 -3.89713 -0.798029 0
M  V30 20372 H 2014.8 -6.52289 0.648008 0
M  V30 20373 H 2014.32 -5.92141 -0.955479 0
M  V30 20374 H 2016 -6.43638 -0.658675 0
M  V30 20375 N 2016.13 0.10854 -1.57226 0
M  V30 20376 C 2017.37 0.820237 -1.8722 0
M  V30 20377 C 2017.73 1.76553 -0.754524 0
M  V30 20378 O 2018.93 2.51958 -0.936519 0
M  V30 20379 C 2017.2 1.54144 -3.22451 0
M  V30 20380 S 2018.76 2.29327 -3.74105 0
M  V30 20381 H 2015.58 0.273549 -0.656271 0
M  V30 20382 H 2018.18 0.0780325 -1.95344 0
M  V30 20383 H 2016.89 0.839156 -4.01729 0
M  V30 20384 H 2016.42 2.32381 -3.17431 0
M  V30 20385 H 2018.43 3.55234 -3.46444 0
M  V30 20386 N 2017.61 1.52975 0.379009 0
M  V30 20387 C 2018.55 1.78463 1.46355 0
M  V30 20388 C 2019.52 0.628308 1.53758 0
M  V30 20389 O 2020.71 0.869084 1.69858 0
M  V30 20390 C 2017.85 1.96827 2.83467 0
M  V30 20391 C 2016.96 3.24533 2.85136 0
M  V30 20392 C 2016.1 3.33158 4.13738 0
M  V30 20393 C 2015.14 4.54948 4.09498 0
M  V30 20394 N 2014.27 4.60801 5.29724 0
M  V30 20395 H 2019.11 2.71012 1.23921 0
M  V30 20396 H 2016.65 1.34263 0.600982 0
M  V30 20397 H 2018.61 2.05459 3.63101 0
M  V30 20398 H 2017.24 1.07628 3.04329 0
M  V30 20399 H 2016.29 3.24921 1.97814 0
M  V30 20400 H 2017.6 4.14232 2.77873 0
M  V30 20401 H 2016.76 3.41029 5.01781 0
M  V30 20402 H 2015.49 2.41451 4.23737 0
M  V30 20403 H 2014.5 4.47193 3.19842 0
M  V30 20404 H 2015.72 5.47983 4.01113 0
M  V30 20405 H 2013.67 3.71989 5.40333 0
M  V30 20406 H 2013.59 5.44386 5.24576 0
M  V30 20407 H 2014.86 4.72938 6.19637 0
M  V30 20408 N 2019.08 -0.63804 1.44107 0
M  V30 20409 C 2020.03 -1.77153 1.5073 0
M  V30 20410 C 2021.03 -1.65093 0.379567 0
M  V30 20411 O 2022.23 -1.71255 0.554218 0
M  V30 20412 H 2018.61 -0.584742 0.472843 0
M  V30 20413 H 2020.58 -1.68689 2.46143 0
M  V30 20414 C 2019.33 -3.15467 1.46204 0
M  V30 20415 H 2018.65 -3.25392 2.32293 0
M  V30 20416 H 2020.09 -3.94693 1.54899 0
M  V30 20417 C 2018.55 -3.36409 0.181784 0
M  V30 20418 O 2019.08 -3.94621 -0.750818 0
M  V30 20419 N 2017.29 -2.90469 0.0871207 0
M  V30 20420 H 2016.83 -2.43281 0.846871 0
M  V30 20421 H 2016.79 -3.04857 -0.768744 0
M  V30 20422 N 2020.56 -1.3089 -0.877815 0
M  V30 20423 C 2021.47 -1.19819 -2.01694 0
M  V30 20424 C 2022.49 -0.116563 -1.73609 0
M  V30 20425 O 2023.66 -0.332871 -1.9863 0
M  V30 20426 C 2020.73 -0.898133 -3.34865 0
M  V30 20427 C 2019.79 -2.06586 -3.76325 0
M  V30 20428 C 2019.02 -1.78002 -5.03141 0
M  V30 20429 O 2019.25 -0.711373 -5.65947 0
M  V30 20430 O 2018.18 -2.63452 -5.41181 0
M  V30 20431 H 2022.01 -2.15529 -2.13965 0
M  V30 20432 H 2019.59 -1.10553 -1.00491 0
M  V30 20433 H 2021.47 -0.746305 -4.14739 0
M  V30 20434 H 2020.15 0.0290018 -3.23687 0
M  V30 20435 H 2019.06 -2.27305 -2.97125 0
M  V30 20436 H 2020.39 -2.97497 -3.92118 0
M  V30 20437 N 2022.04 1.0911 -1.13723 0
M  V30 20438 C 2023.32 1.77949 -0.812014 0
M  V30 20439 C 2023.7 1.99302 0.695832 0
M  V30 20440 O 2023.05 1.59704 1.63422 0
M  V30 20441 C 2023.26 3.10028 -1.60262 0
M  V30 20442 C 2024.6 3.84681 -1.79738 0
M  V30 20443 O 2025.63 3.19789 -1.56887 0
M  V30 20444 O 2024.49 5.01185 -2.17888 0
M  V30 20445 H 2021.58 0.7719 -0.296816 0
M  V30 20446 H 2024.13 1.15637 -1.24202 0
M  V30 20447 H 2022.9 2.8999 -2.62719 0
M  V30 20448 H 2022.52 3.80065 -1.16776 0
M  V30 20449 N 2023.52 0.931232 1.27145 0
M  V30 20450 C 2024.45 0.39037 2.25851 0
M  V30 20451 C 2025.46 -0.480869 1.55536 0
M  V30 20452 O 2026.65 -0.292921 1.7608 0
M  V30 20453 C 2023.75 -0.458971 3.35778 0
M  V30 20454 C 2022.93 0.393796 4.35624 0
M  V30 20455 C 2021.98 -0.393477 5.24727 0
M  V30 20456 O 2021.01 0.20005 5.68848 0
M  V30 20457 N 2022.21 -1.69245 5.55281 0
M  V30 20458 H 2024.98 1.23887 2.72896 0
M  V30 20459 H 2022.54 0.799038 1.40808 0
M  V30 20460 H 2024.53 -0.992799 3.92334 0
M  V30 20461 H 2023.1 -1.20824 2.88306 0
M  V30 20462 H 2022.32 1.1089 3.78282 0
M  V30 20463 H 2023.61 0.976663 4.99338 0
M  V30 20464 H 2023.01 -2.19693 5.21298 0
M  V30 20465 H 2021.56 -2.17273 6.14521 0
M  V30 20466 N 2025 -1.41343 0.697132 0
M  V30 20467 C 2026.24 -2.01204 0.22876 0
M  V30 20468 C 2026.57 -1.55215 -1.17211 0
M  V30 20469 O 2025.83 -0.754886 -1.80555 0
M  V30 20470 C 2026.13 -3.56617 0.236459 0
M  V30 20471 C 2025.79 -4.22121 1.58507 0
M  V30 20472 C 2024.45 -4.39729 1.95427 0
M  V30 20473 C 2026.81 -4.58835 2.47224 0
M  V30 20474 C 2024.13 -4.91328 3.20646 0
M  V30 20475 C 2026.49 -5.11825 3.71777 0
M  V30 20476 C 2025.15 -5.27643 4.08838 0
M  V30 20477 H 2024.42 -0.736257 0.0837091 0
M  V30 20478 H 2027.07 -1.69218 0.89653 0
M  V30 20479 H 2025.37 -3.88402 -0.514862 0
M  V30 20480 H 2027.07 -4.00743 -0.14349 0
M  V30 20481 H 2023.66 -4.08792 1.28791 0
M  V30 20482 H 2027.84 -4.44885 2.1998 0
M  V30 20483 H 2023.1 -5.01759 3.49353 0
M  V30 20484 H 2027.27 -5.39213 4.40706 0
M  V30 20485 H 2024.9 -5.67388 5.05939 0
M  V30 20486 N 2026.48 -0.441993 -1.51275 0
M  V30 20487 C 2027.72 0.122669 -2.01727 0
M  V30 20488 C 2028.04 1.42804 -1.32786 0
M  V30 20489 O 2027.31 1.90329 -0.463874 0
M  V30 20490 H 2025.89 0.0483227 -0.745435 0
M  V30 20491 H 2028.56 -0.585765 -1.85889 0
M  V30 20492 H 2027.65 0.295224 -3.10701 0
M  V30 20493 N 2027.95 1.56642 -0.173515 0
M  V30 20494 C 2028.9 2.19387 0.772791 0
M  V30 20495 C 2029.9 1.15856 1.23587 0
M  V30 20496 O 2031.1 1.3405 1.20127 0
M  V30 20497 H 2027.48 0.702815 0.267497 0
M  V30 20498 H 2029.45 2.9759 0.219656 0
M  V30 20499 C 2028.2 2.85056 1.99094 0
M  V30 20500 H 2027.52 3.64451 1.64364 0
M  V30 20501 H 2028.96 3.32425 2.63191 0
M  V30 20502 C 2027.42 1.84944 2.81598 0
M  V30 20503 O 2027.95 1.33628 3.78823 0
M  V30 20504 N 2026.15 1.53653 2.46656 0
M  V30 20505 H 2025.7 1.95576 1.67654 0
M  V30 20506 H 2025.66 0.86922 3.02146 0
M  V30 20507 N 2029.43 -0.1002 1.57281 0
M  V30 20508 C 2030.68 -0.803034 1.85461 0
M  V30 20509 C 2031 -1.79518 0.761475 0
M  V30 20510 O 2030.27 -1.94741 -0.212768 0
M  V30 20511 H 2028.85 -0.299556 0.684306 0
M  V30 20512 H 2031.51 -0.0830444 1.94723 0
M  V30 20513 H 2030.61 -1.33676 2.82024 0
M  V30 20514 N 2030.91 -1.53174 -0.370891 0
M  V30 20515 C 2032.32 -1.60843 -0.94796 0
M  V30 20516 C 2032.67 -0.472528 -1.90425 0
M  V30 20517 O 2031.8 0.401822 -2.12637 0
M  V30 20518 C 2032.39 -2.91534 -1.72607 0
M  V30 20519 C 2030.95 -3.01557 -2.25257 0
M  V30 20520 C 2030.1 -2.561 -1.0634 0
M  V30 20521 H 2033.05 -1.57991 -0.149852 0
M  V30 20522 H 2033.07 -2.79038 -2.58685 0
M  V30 20523 H 2032.58 -3.74188 -1.02982 0
M  V30 20524 H 2030.68 -2.23479 -2.9814 0
M  V30 20525 H 2030.8 -4.06538 -2.53502 0
M  V30 20526 H 2029.16 -2.10849 -1.42881 0
M  V30 20527 H 2029.94 -3.41166 -0.38221 0
M  V30 20528 N 2032.39 0.630389 -1.44443 0
M  V30 20529 C 2033.63 1.38993 -1.47265 0
M  V30 20530 C 2033.96 1.94213 -0.105537 0
M  V30 20531 O 2033.22 1.7415 0.89277 0
M  V30 20532 C 2033.52 2.57255 -2.48102 0
M  V30 20533 C 2033.18 2.20319 -3.93408 0
M  V30 20534 C 2031.84 2.09959 -4.32979 0
M  V30 20535 C 2034.2 1.91148 -4.84883 0
M  V30 20536 C 2031.52 1.68616 -5.61948 0
M  V30 20537 C 2033.88 1.51298 -6.14241 0
M  V30 20538 C 2032.54 1.39479 -6.52765 0
M  V30 20539 H 2031.81 0.508613 -0.538882 0
M  V30 20540 H 2034.46 0.714772 -1.77661 0
M  V30 20541 H 2032.76 3.30007 -2.11193 0
M  V30 20542 H 2034.46 3.15483 -2.47531 0
M  V30 20543 H 2031.05 2.29301 -3.62103 0
M  V30 20544 H 2035.23 1.98061 -4.55066 0
M  V30 20545 H 2030.49 1.5807 -5.90613 0
M  V30 20546 H 2034.66 1.27764 -6.8458 0
M  V30 20547 H 2032.29 1.07216 -7.52601 0
M  V30 20548 N 2033.87 1.31354 0.870861 0
M  V30 20549 C 2035.11 1.20749 1.62062 0
M  V30 20550 C 2035.43 -0.234709 1.93582 0
M  V30 20551 O 2034.7 -1.15517 1.58217 0
M  V30 20552 H 2033.28 0.443911 0.600793 0
M  V30 20553 H 2035.95 1.64667 1.04262 0
M  V30 20554 H 2035.04 1.77855 2.56464 0
M  V30 20555 N 2035.34 -1.08505 1.143 0
M  V30 20556 C 2036.27 -2.1741 0.851769 0
M  V30 20557 C 2037.25 -1.69004 -0.192818 0
M  V30 20558 O 2038.44 -1.94136 -0.0497098 0
M  V30 20559 C 2035.57 -3.45754 0.327364 0
M  V30 20560 C 2034.52 -4.07547 1.30728 0
M  V30 20561 C 2033.85 -5.30829 0.642225 0
M  V30 20562 C 2035.15 -4.48945 2.66919 0
M  V30 20563 H 2036.84 -2.42029 1.76245 0
M  V30 20564 H 2034.39 -1.16322 0.848834 0
M  V30 20565 H 2036.34 -4.21253 0.111237 0
M  V30 20566 H 2035.07 -3.20686 -0.618737 0
M  V30 20567 H 2033.73 -3.34077 1.50956 0
M  V30 20568 H 2033.37 -5.02046 -0.309652 0
M  V30 20569 H 2033.07 -5.73128 1.29608 0
M  V30 20570 H 2034.6 -6.09044 0.435598 0
M  V30 20571 H 2036.01 -5.15626 2.50604 0
M  V30 20572 H 2034.41 -5.02158 3.28568 0
M  V30 20573 H 2035.48 -3.60882 3.23871 0
M  V30 20574 N 2036.82 -0.937962 -1.26649 0
M  V30 20575 C 2038.06 -0.591253 -1.95662 0
M  V30 20576 C 2038.43 0.853316 -1.71996 0
M  V30 20577 O 2039.63 1.3088 -2.34785 0
M  V30 20578 C 2037.9 -0.920382 -3.45346 0
M  V30 20579 S 2039.46 -0.683733 -4.3344 0
M  V30 20580 H 2036.27 -0.217883 -0.676793 0
M  V30 20581 H 2038.88 -1.20859 -1.53666 0
M  V30 20582 H 2037.58 -1.96921 -3.6007 0
M  V30 20583 H 2037.11 -0.292641 -3.9231 0
M  V30 20584 H 2039.13 0.453606 -4.94122 0
M  V30 20585 N 2038.3 1.40971 -0.704618 0
M  V30 20586 C 2039.53 2.05102 -0.248377 0
M  V30 20587 C 2039.94 1.53158 1.11082 0
M  V30 20588 O 2039.28 0.678495 1.70711 0
M  V30 20589 C 2039.34 3.59233 -0.138419 0
M  V30 20590 C 2039.01 4.34014 -1.43112 0
M  V30 20591 C 2040 4.62696 -2.37082 0
M  V30 20592 C 2037.69 4.73123 -1.687 0
M  V30 20593 C 2039.68 5.2946 -3.54896 0
M  V30 20594 C 2037.37 5.39621 -2.86797 0
M  V30 20595 C 2038.37 5.67718 -3.79718 0
M  V30 20596 O 2038.06 6.32844 -4.95745 0
M  V30 20597 H 2037.79 0.666762 -0.111376 0
M  V30 20598 H 2040.34 1.81567 -0.96034 0
M  V30 20599 H 2038.57 3.81544 0.629393 0
M  V30 20600 H 2040.26 4.0492 0.281822 0
M  V30 20601 H 2041.03 4.32956 -2.18574 0
M  V30 20602 H 2036.91 4.50629 -0.972326 0
M  V30 20603 H 2040.45 5.51307 -4.27442 0
M  V30 20604 H 2036.35 5.68781 -3.05219 0
M  V30 20605 H 2037.11 6.51341 -4.95679 0
M  V30 20606 N 2039.78 0.45001 1.51039 0
M  V30 20607 C 2041.06 -0.172746 1.94836 0
M  V30 20608 C 2041.44 -1.58934 1.38936 0
M  V30 20609 O 2040.78 -2.20974 0.581609 0
M  V30 20610 C 2040.99 -0.137579 3.48729 0
M  V30 20611 C 2042.34 -0.33691 4.23261 0
M  V30 20612 O 2043.37 -0.215124 3.5555 0
M  V30 20613 O 2042.22 -0.580548 5.43408 0
M  V30 20614 H 2039.32 -0.12312 0.817784 0
M  V30 20615 H 2041.86 0.5089 1.6189 0
M  V30 20616 H 2040.64 0.852286 3.81905 0
M  V30 20617 H 2040.26 -0.861592 3.88152 0
M  V30 20618 N 2041.26 -1.56548 0.18182 0
M  V30 20619 C 2042.49 -2.01282 -0.465719 0
M  V30 20620 C 2042.89 -1.06114 -1.56641 0
M  V30 20621 O 2042.24 -0.0558759 -1.83615 0
M  V30 20622 C 2042.3 -3.42432 -1.09454 0
M  V30 20623 C 2041.96 -4.56803 -0.134223 0
M  V30 20624 C 2042.96 -5.15803 0.651409 0
M  V30 20625 C 2040.65 -5.02293 -0.026997 0
M  V30 20626 C 2042.64 -6.18731 1.53137 0
M  V30 20627 C 2040.33 -6.05068 0.856532 0
M  V30 20628 C 2041.32 -6.63159 1.63429 0
M  V30 20629 O 2041.01 -7.63939 2.50303 0
M  V30 20630 H 2040.74 -0.664789 -0.122603 0
M  V30 20631 H 2043.3 -2.0343 0.283825 0
M  V30 20632 H 2041.53 -3.3723 -1.89242 0
M  V30 20633 H 2043.22 -3.71056 -1.64536 0
M  V30 20634 H 2043.98 -4.81534 0.5788 0
M  V30 20635 H 2039.86 -4.56782 -0.622173 0
M  V30 20636 H 2043.41 -6.64001 2.13888 0
M  V30 20637 H 2039.3 -6.38761 0.930305 0
M  V30 20638 H 2040.07 -7.81305 2.43935 0
M  V30 20639 N 2042.73 0.0918577 -1.57332 0
M  V30 20640 C 2043.68 1.11121 -2.02289 0
M  V30 20641 C 2044.65 1.39617 -0.899791 0
M  V30 20642 O 2045.84 1.51025 -1.16602 0
M  V30 20643 C 2042.98 2.42534 -2.45502 0
M  V30 20644 C 2042.09 2.20741 -3.71345 0
M  V30 20645 C 2041.22 3.45576 -4.03424 0
M  V30 20646 C 2040.26 3.19059 -5.22368 0
M  V30 20647 N 2039.4 4.36169 -5.50182 0
M  V30 20648 H 2044.24 0.720847 -2.8915 0
M  V30 20649 H 2041.78 0.344398 -1.43012 0
M  V30 20650 H 2043.74 3.19232 -2.68601 0
M  V30 20651 H 2042.37 2.79411 -1.61646 0
M  V30 20652 H 2041.42 1.3483 -3.55704 0
M  V30 20653 H 2042.73 1.97141 -4.58189 0
M  V30 20654 H 2041.88 4.3068 -4.27317 0
M  V30 20655 H 2040.62 3.72234 -3.15108 0
M  V30 20656 H 2039.63 2.32349 -4.98291 0
M  V30 20657 H 2040.85 2.93744 -6.12284 0
M  V30 20658 H 2038.8 4.62896 -4.64826 0
M  V30 20659 H 2038.72 4.15771 -6.31404 0
M  V30 20660 H 2039.98 5.22328 -5.78613 0
M  V30 20661 N 2044.21 1.53368 0.362763 0
M  V30 20662 C 2045.46 1.68906 1.10243 0
M  V30 20663 C 2045.77 0.448846 1.90381 0
M  V30 20664 O 2046.98 0.484821 2.67136 0
M  V30 20665 C 2045.44 2.98602 2.0091 0
M  V30 20666 C 2045.04 4.29895 1.26071 0
M  V30 20667 C 2046.79 3.23507 2.74852 0
M  V30 20668 C 2044.7 5.50678 2.15657 0
M  V30 20669 H 2043.63 0.629342 0.415265 0
M  V30 20670 H 2046.28 1.79869 0.363231 0
M  V30 20671 H 2044.66 2.81449 2.78572 0
M  V30 20672 H 2045.83 4.57689 0.534529 0
M  V30 20673 H 2044.15 4.11455 0.639803 0
M  V30 20674 H 2046.74 4.10931 3.42111 0
M  V30 20675 H 2047.09 2.39689 3.40374 0
M  V30 20676 H 2047.62 3.41347 2.04271 0
M  V30 20677 H 2044.36 6.36982 1.54707 0
M  V30 20678 H 2043.88 5.27159 2.86117 0
M  V30 20679 H 2045.56 5.85578 2.75151 0
M  V30 20680 N 2045.69 -0.62272 1.44776 0
M  V30 20681 C 2047.11 -0.941829 1.28848 0
M  V30 20682 C 2047.31 -2.00178 0.230395 0
M  V30 20683 O 2046.36 -2.49611 -0.38085 0
M  V30 20684 C 2047.68 -1.39711 2.66273 0
M  V30 20685 C 2049.22 -1.51214 2.7405 0
M  V30 20686 C 2049.7 -2.00123 4.11964 0
M  V30 20687 N 2051.19 -2.07381 4.14183 0
M  V30 20688 C 2051.92 -2.46413 5.17753 0
M  V30 20689 N 2051.42 -2.84523 6.31679 0
M  V30 20690 N 2053.21 -2.46621 5.05109 0
M  V30 20691 H 2045.36 0.0781334 2.12256 0
M  V30 20692 H 2047.63 -0.0276831 0.947596 0
M  V30 20693 H 2047.33 -0.692534 3.44814 0
M  V30 20694 H 2047.21 -2.36654 2.93726 0
M  V30 20695 H 2049.59 -2.20767 1.95822 0
M  V30 20696 H 2049.68 -0.526248 2.50328 0
M  V30 20697 H 2049.32 -1.31163 4.90672 0
M  V30 20698 H 2049.25 -2.99599 4.33068 0
M  V30 20699 H 2051.74 -1.8058 3.31963 0
M  V30 20700 H 2052.05 -3.13144 7.06513 0
M  V30 20701 H 2050.4 -2.82254 6.35104 0
M  V30 20702 H 2053.59 -2.16244 4.15158 0
M  V30 20703 H 2053.76 -2.76715 5.85946 0
M  V30 20704 N 2047.17 -1.31814 -0.863883 0
M  V30 20705 C 2048.41 -1.22028 -1.61979 0
M  V30 20706 C 2048.75 0.219661 -1.92954 0
M  V30 20707 O 2048.02 1.15428 -1.56546 0
M  V30 20708 C 2048.31 -2.0707 -2.94608 0
M  V30 20709 C 2048.16 -3.59395 -2.70473 0
M  V30 20710 C 2049.48 -1.92477 -3.95779 0
M  V30 20711 H 2046.6 -0.444641 -0.587762 0
M  V30 20712 H 2049.24 -1.61666 -0.998202 0
M  V30 20713 H 2047.39 -1.73395 -3.47659 0
M  V30 20714 H 2049.06 -4.03237 -2.24048 0
M  V30 20715 H 2047.3 -3.82521 -2.04597 0
M  V30 20716 H 2047.97 -4.14213 -3.64871 0
M  V30 20717 H 2050.45 -2.21959 -3.51957 0
M  V30 20718 H 2049.33 -2.54272 -4.86453 0
M  V30 20719 H 2049.59 -0.889783 -4.33053 0
M  V30 20720 N 2048.65 1.07897 -1.14873 0
M  V30 20721 C 2049.59 2.17052 -0.836135 0
M  V30 20722 C 2050.59 1.68352 0.188148 0
M  V30 20723 O 2051.79 1.79947 0.0437298 0
M  V30 20724 H 2048.17 0.708271 -0.252698 0
M  V30 20725 H 2050.14 2.40639 -1.76452 0
M  V30 20726 C 2048.89 3.46076 -0.335713 0
M  V30 20727 H 2048.21 3.8393 -1.11525 0
M  V30 20728 H 2049.65 4.23714 -0.155587 0
M  V30 20729 C 2048.11 3.23471 0.941711 0
M  V30 20730 O 2048.64 3.47541 2.0144 0
M  V30 20731 N 2046.85 2.76987 0.879016 0
M  V30 20732 H 2046.39 2.57599 0.00591639 0
M  V30 20733 H 2046.35 2.62241 1.73427 0
M  V30 20734 N 2050.12 0.944665 1.2615 0
M  V30 20735 C 2051.36 0.601621 1.95346 0
M  V30 20736 C 2051.73 -0.844182 1.72446 0
M  V30 20737 O 2052.93 -1.29633 2.35475 0
M  V30 20738 C 2051.2 0.938683 3.44853 0
M  V30 20739 S 2052.76 0.70671 4.33072 0
M  V30 20740 H 2049.58 0.221469 0.675628 0
M  V30 20741 H 2052.18 1.21672 1.53023 0
M  V30 20742 H 2050.88 1.98827 3.59021 0
M  V30 20743 H 2050.41 0.313442 3.92149 0
M  V30 20744 H 2052.43 -0.427395 4.94356 0
M  V30 20745 N 2051.6 -1.40596 0.712085 0
M  V30 20746 C 2052.84 -2.0281 0.254462 0
M  V30 20747 C 2053.21 -1.55234 -1.12989 0
M  V30 20748 O 2054.41 -2.09487 -1.6843 0
M  V30 20749 C 2052.68 -3.55895 0.327689 0
M  V30 20750 S 2054.24 -4.38767 -0.0534624 0
M  V30 20751 H 2051.06 -0.703761 0.101197 0
M  V30 20752 H 2053.66 -1.71772 0.933528 0
M  V30 20753 H 2052.36 -3.88014 1.33692 0
M  V30 20754 H 2051.89 -3.91656 -0.369973 0
M  V30 20755 H 2053.91 -4.79499 -1.27652 0
M  V30 20756 N 2053.08 -0.458013 -1.50798 0
M  V30 20757 C 2054.33 0.0937906 -2.03184 0
M  V30 20758 C 2054.68 1.38571 -1.33476 0
M  V30 20759 O 2053.97 1.86304 -0.447373 0
M  V30 20760 C 2054.17 0.346589 -3.55716 0
M  V30 20761 C 2054 -0.919282 -4.40204 0
M  V30 20762 C 2052.77 -1.45882 -4.83784 0
M  V30 20763 C 2054.97 -1.81113 -4.81355 0
M  V30 20764 N 2052.95 -2.67507 -5.52551 0
M  V30 20765 C 2054.32 -2.87332 -5.494 0
M  V30 20766 C 2056.37 -1.82308 -4.63323 0
M  V30 20767 C 2055.08 -3.94718 -6.01324 0
M  V30 20768 C 2057.1 -2.88642 -5.16178 0
M  V30 20769 C 2056.46 -3.9358 -5.84187 0
M  V30 20770 H 2052.56 -0.00537405 -0.781982 0
M  V30 20771 H 2055.15 -0.623303 -1.84453 0
M  V30 20772 H 2053.32 1.03272 -3.74419 0
M  V30 20773 H 2055.05 0.891577 -3.94757 0
M  V30 20774 H 2051.81 -1.00982 -4.62709 0
M  V30 20775 H 2052.23 -3.29238 -5.9155 0
M  V30 20776 H 2056.87 -1.025 -4.10187 0
M  V30 20777 H 2054.59 -4.75351 -6.53504 0
M  V30 20778 H 2058.18 -2.90534 -5.04065 0
M  V30 20779 H 2057.06 -4.74507 -6.2435 0
M  V30 20780 N 2054.56 1.56449 -0.190119 0
M  V30 20781 C 2055.97 1.83879 0.323353 0
M  V30 20782 C 2056.32 1.11062 1.6174 0
M  V30 20783 O 2055.45 0.369789 2.13217 0
M  V30 20784 C 2056.04 3.33562 0.593453 0
M  V30 20785 C 2054.6 3.6142 1.05131 0
M  V30 20786 C 2053.75 2.77129 0.0972331 0
M  V30 20787 H 2056.7 1.53205 -0.414009 0
M  V30 20788 H 2056.72 3.52062 1.44335 0
M  V30 20789 H 2056.23 3.86532 -0.348543 0
M  V30 20790 H 2054.33 3.13879 2.00776 0
M  V30 20791 H 2054.45 4.69638 0.947464 0
M  V30 20792 H 2052.81 2.47576 0.598181 0
M  V30 20793 H 2053.59 3.32887 -0.839117 0
M  V30 20794 N 2056.04 -0.0835127 1.57379 0
M  V30 20795 C 2056.97 -1.13193 1.98148 0
M  V30 20796 C 2057.95 -1.38213 0.856507 0
M  V30 20797 O 2059.13 -1.5178 1.11781 0
M  V30 20798 C 2056.26 -2.47874 2.30817 0
M  V30 20799 C 2055.31 -2.39062 3.53202 0
M  V30 20800 S 2056.14 -1.79599 5.04484 0
M  V30 20801 C 2057.29 -3.15881 5.40342 0
M  V30 20802 H 2057.53 -0.784436 2.86765 0
M  V30 20803 H 2055.06 -0.291621 1.51621 0
M  V30 20804 H 2057.02 -3.25351 2.50314 0
M  V30 20805 H 2055.68 -2.79788 1.4275 0
M  V30 20806 H 2054.87 -3.38355 3.73539 0
M  V30 20807 H 2054.47 -1.69718 3.33274 0
M  V30 20808 H 2056.77 -4.12176 5.37696 0
M  V30 20809 H 2057.71 -3.00336 6.41252 0
M  V30 20810 H 2058.12 -3.15947 4.67801 0
M  V30 20811 N 2057.52 -1.53558 -0.354624 0
M  V30 20812 C 2058.79 -1.60886 -1.11243 0
M  V30 20813 C 2059.17 -0.423192 -2.06815 0
M  V30 20814 O 2058.52 0.585579 -2.20869 0
M  V30 20815 C 2058.73 -2.96439 -1.84188 0
M  V30 20816 C 2060.08 -3.51404 -2.38329 0
M  V30 20817 O 2061.1 -2.9854 -1.94299 0
M  V30 20818 O 2059.96 -4.43843 -3.1885 0
M  V30 20819 H 2057.06 -0.650291 -0.510932 0
M  V30 20820 H 2059.6 -1.65902 -0.357007 0
M  V30 20821 H 2058.37 -3.74173 -1.145 0
M  V30 20822 H 2058 -2.94963 -2.66613 0
M  V30 20823 N 2058.99 0.615033 -1.45104 0
M  V30 20824 C 2059.94 1.72617 -1.53206 0
M  V30 20825 C 2060.91 1.6173 -0.378499 0
M  V30 20826 O 2062.1 1.81418 -0.590937 0
M  V30 20827 C 2059.24 3.1091 -1.49763 0
M  V30 20828 C 2058.35 3.32657 -2.75615 0
M  V30 20829 C 2057.48 4.61014 -2.63894 0
M  V30 20830 C 2056.52 4.75993 -3.84834 0
M  V30 20831 N 2055.66 5.95642 -3.71692 0
M  V30 20832 H 2060.5 1.65028 -2.48133 0
M  V30 20833 H 2058.04 0.804792 -1.23132 0
M  V30 20834 H 2059.99 3.90911 -1.45755 0
M  V30 20835 H 2058.62 3.17475 -0.583921 0
M  V30 20836 H 2057.68 2.46484 -2.89741 0
M  V30 20837 H 2058.99 3.39601 -3.65339 0
M  V30 20838 H 2058.14 5.49198 -2.5781 0
M  V30 20839 H 2056.88 4.56455 -1.71756 0
M  V30 20840 H 2055.89 3.86234 -3.91284 0
M  V30 20841 H 2057.11 4.82354 -4.78028 0
M  V30 20842 H 2055.06 5.92143 -2.82318 0
M  V30 20843 H 2054.97 6.03713 -4.55046 0
M  V30 20844 H 2056.24 6.86345 -3.69528 0
M  V30 20845 N 2060.47 1.3227 0.85688 0
M  V30 20846 C 2061.71 1.24017 1.62478 0
M  V30 20847 C 2062.08 -0.195596 1.91001 0
M  V30 20848 O 2063.28 -0.401822 2.6578 0
M  V30 20849 C 2061.55 2.07356 2.91098 0
M  V30 20850 S 2063.11 2.16105 3.81895 0
M  V30 20851 H 2059.92 0.441493 0.557319 0
M  V30 20852 H 2062.53 1.67092 1.01492 0
M  V30 20853 H 2061.23 3.10737 2.68087 0
M  V30 20854 H 2060.76 1.65051 3.57102 0
M  V30 20855 H 2062.78 1.30893 4.78625 0
M  V30 20856 N 2061.95 -1.07287 1.15444 0
M  V30 20857 C 2063.2 -1.79277 0.924257 0
M  V30 20858 C 2063.51 -1.8771 -0.549932 0
M  V30 20859 O 2064.72 -2.56229 -0.897718 0
M  V30 20860 C 2063.17 -3.22168 1.60424 0
M  V30 20861 C 2062.78 -3.21934 3.11549 0
M  V30 20862 C 2064.53 -3.98763 1.45563 0
M  V30 20863 C 2062.43 -4.59482 3.72331 0
M  V30 20864 H 2061.36 -0.671898 0.342153 0
M  V30 20865 H 2064.01 -1.20415 1.38465 0
M  V30 20866 H 2062.4 -3.81227 1.07154 0
M  V30 20867 H 2063.57 -2.72516 3.7158 0
M  V30 20868 H 2061.88 -2.58836 3.26179 0
M  V30 20869 H 2064.48 -5.00423 1.88364 0
M  V30 20870 H 2064.82 -4.14343 0.403205 0
M  V30 20871 H 2065.36 -3.46201 1.95933 0
M  V30 20872 H 2062.1 -4.49106 4.77476 0
M  V30 20873 H 2061.62 -5.09135 3.17083 0
M  V30 20874 H 2063.3 -5.2845 3.73296 0
M  V30 20875 N 2063.43 -0.951342 -1.25647 0
M  V30 20876 C 2064.66 -0.621431 -1.97347 0
M  V30 20877 C 2065.07 0.805774 -1.70742 0
M  V30 20878 O 2064.43 1.53857 -0.981537 0
M  V30 20879 C 2064.48 -0.866537 -3.50961 0
M  V30 20880 O 2064.2 -2.23762 -3.76646 0
M  V30 20881 C 2065.7 -0.548561 -4.39893 0
M  V30 20882 H 2062.92 -0.233273 -0.629146 0
M  V30 20883 H 2065.46 -1.27482 -1.59902 0
M  V30 20884 H 2063.62 -0.259607 -3.86529 0
M  V30 20885 H 2064.03 -2.30528 -4.71123 0
M  V30 20886 H 2065.51 -0.770622 -5.46594 0
M  V30 20887 H 2065.98 0.51678 -4.36149 0
M  V30 20888 H 2066.59 -1.13467 -4.09885 0
M  V30 20889 N 2064.91 1.40216 -0.719531 0
M  V30 20890 C 2066.13 2.05124 -0.270509 0
M  V30 20891 C 2066.55 1.5422 1.08911 0
M  V30 20892 O 2065.91 0.700448 1.68523 0
M  V30 20893 C 2065.96 3.60662 -0.24606 0
M  V30 20894 O 2065.68 4.09688 -1.552 0
M  V30 20895 C 2067.18 4.42749 0.22103 0
M  V30 20896 H 2064.4 0.660024 -0.120868 0
M  V30 20897 H 2066.94 1.79552 -0.978844 0
M  V30 20898 H 2065.1 3.85189 0.413268 0
M  V30 20899 H 2065.51 5.03911 -1.45513 0
M  V30 20900 H 2066.99 5.51683 0.186986 0
M  V30 20901 H 2067.46 4.20624 1.26382 0
M  V30 20902 H 2068.07 4.23337 -0.408166 0
M  V30 20903 N 2066.38 0.466004 1.50553 0
M  V30 20904 C 2067.79 0.00966264 1.86697 0
M  V30 20905 C 2068.15 -1.39347 1.38119 0
M  V30 20906 O 2067.27 -2.03208 0.744006 0
M  V30 20907 C 2067.87 0.0107586 3.38798 0
M  V30 20908 C 2066.42 -0.390094 3.74373 0
M  V30 20909 C 2065.57 0.398415 2.74423 0
M  V30 20910 H 2068.52 0.680522 1.43369 0
M  V30 20911 H 2068.54 -0.792537 3.72155 0
M  V30 20912 H 2068.06 1.0321 3.74125 0
M  V30 20913 H 2066.16 -1.41598 3.44646 0
M  V30 20914 H 2066.27 -0.0949729 4.79006 0
M  V30 20915 H 2064.63 -0.147197 2.54274 0
M  V30 20916 H 2065.42 1.41917 3.12593 0
M  V30 20917 N 2067.86 -1.56346 0.198413 0
M  V30 20918 C 2069.09 -2.02502 -0.44809 0
M  V30 20919 C 2069.51 -1.07761 -1.54173 0
M  V30 20920 O 2068.87 -0.0616812 -1.81195 0
M  V30 20921 C 2068.92 -3.47073 -0.978394 0
M  V30 20922 O 2068.02 -3.55452 -2.09111 0
M  V30 20923 H 2067.36 -0.655753 -0.104324 0
M  V30 20924 H 2069.89 -2.02234 0.310265 0
M  V30 20925 H 2069.9 -3.86931 -1.29415 0
M  V30 20926 H 2068.58 -4.1552 -0.177819 0
M  V30 20927 H 2067.15 -3.27471 -1.78375 0
M  V30 20928 N 2069.34 0.0751653 -1.57421 0
M  V30 20929 C 2070.75 0.627391 -1.75843 0
M  V30 20930 C 2071.1 1.78086 -0.823397 0
M  V30 20931 O 2070.23 2.16399 -0.00667483 0
M  V30 20932 C 2070.82 1.14489 -3.18869 0
M  V30 20933 C 2069.38 1.64301 -3.38648 0
M  V30 20934 C 2068.53 0.560994 -2.71566 0
M  V30 20935 H 2071.48 -0.150994 -1.5798 0
M  V30 20936 H 2071.5 2.01378 -3.22842 0
M  V30 20937 H 2071.01 0.305165 -3.86898 0
M  V30 20938 H 2069.11 2.50609 -2.75728 0
M  V30 20939 H 2069.23 1.72227 -4.47073 0
M  V30 20940 H 2067.59 1.00523 -2.34024 0
M  V30 20941 H 2068.37 -0.268489 -3.42248 0
M  V30 20942 N 2070.82 1.53744 0.346476 0
M  V30 20943 C 2072.23 1.62331 0.922251 0
M  V30 20944 C 2072.58 0.502763 1.89649 0
M  V30 20945 O 2071.71 -0.367943 2.13249 0
M  V30 20946 C 2072.3 2.94243 1.67948 0
M  V30 20947 C 2070.86 3.05102 2.20431 0
M  V30 20948 C 2070.01 2.57759 1.02252 0
M  V30 20949 H 2072.96 1.58209 0.124698 0
M  V30 20950 H 2072.98 2.83118 2.54213 0
M  V30 20951 H 2072.49 3.75779 0.970157 0
M  V30 20952 H 2070.59 2.28194 2.94547 0
M  V30 20953 H 2070.7 4.1052 2.47003 0
M  V30 20954 H 2069.07 2.13095 1.39508 0
M  V30 20955 H 2069.85 3.41731 0.327885 0
M  V30 20956 N 2072.3 -0.607329 1.45428 0
M  V30 20957 C 2073.52 -1.39296 1.52984 0
M  V30 20958 C 2073.94 -1.88099 0.162539 0
M  V30 20959 O 2073.3 -1.62229 -0.835945 0
M  V30 20960 C 2073.35 -2.59727 2.51444 0
M  V30 20961 O 2073.07 -2.12952 3.82862 0
M  V30 20962 C 2074.57 -3.52583 2.68701 0
M  V30 20963 H 2071.79 -0.426391 0.518104 0
M  V30 20964 H 2074.33 -0.740646 1.90617 0
M  V30 20965 H 2072.49 -3.20999 2.16883 0
M  V30 20966 H 2072.9 -2.91201 4.36237 0
M  V30 20967 H 2074.38 -4.33629 3.4157 0
M  V30 20968 H 2074.85 -4.0294 1.74746 0
M  V30 20969 H 2075.46 -2.97163 3.0426 0
M  V30 20970 N 2073.77 -1.32722 -0.849853 0
M  V30 20971 C 2075 -1.26568 -1.63671 0
M  V30 20972 C 2075.42 0.165453 -1.88074 0
M  V30 20973 O 2074.77 1.1041 -1.45313 0
M  V30 20974 C 2074.83 -2.027 -2.99324 0
M  V30 20975 O 2074.55 -3.40229 -2.75999 0
M  V30 20976 C 2076.05 -2.03626 -3.93766 0
M  V30 20977 H 2073.27 -0.436491 -0.509624 0
M  V30 20978 H 2075.81 -1.74922 -1.05937 0
M  V30 20979 H 2073.97 -1.58056 -3.53691 0
M  V30 20980 H 2074.38 -3.79256 -3.62305 0
M  V30 20981 H 2075.85 -2.61369 -4.862 0
M  V30 20982 H 2076.33 -1.02373 -4.27102 0
M  V30 20983 H 2076.94 -2.48239 -3.45337 0
M  V30 20984 N 2075.25 1.06673 -1.16011 0
M  V30 20985 C 2076.48 1.83106 -0.963322 0
M  V30 20986 C 2076.9 1.82372 0.488451 0
M  V30 20987 O 2076.25 1.24012 1.33893 0
M  V30 20988 C 2076.3 3.29888 -1.47838 0
M  V30 20989 O 2076.02 3.30717 -2.87328 0
M  V30 20990 C 2077.53 4.23065 -1.32405 0
M  V30 20991 H 2074.75 0.577476 -0.341705 0
M  V30 20992 H 2077.29 1.34611 -1.53948 0
M  V30 20993 H 2075.44 3.75708 -0.944585 0
M  V30 20994 H 2075.86 4.22475 -3.1083 0
M  V30 20995 H 2077.33 5.24098 -1.73279 0
M  V30 20996 H 2077.81 4.38375 -0.269104 0
M  V30 20997 H 2078.42 3.83088 -1.84726 0
M  V30 20998 N 2076.73 0.957992 1.25141 0
M  V30 20999 C 2078.14 0.65484 1.74839 0
M  V30 21000 C 2078.49 -0.829713 1.77793 0
M  V30 21001 O 2077.62 -1.6493 1.40096 0
M  V30 21002 C 2078.21 1.18197 3.17513 0
M  V30 21003 C 2076.77 0.928917 3.64758 0
M  V30 21004 C 2075.92 1.32303 2.43703 0
M  V30 21005 H 2078.87 1.13442 1.1098 0
M  V30 21006 H 2078.89 0.543641 3.76596 0
M  V30 21007 H 2078.4 2.26246 3.15332 0
M  V30 21008 H 2076.5 -0.136467 3.7235 0
M  V30 21009 H 2076.62 1.56774 4.52724 0
M  V30 21010 H 2074.98 0.741407 2.4367 0
M  V30 21011 H 2075.76 2.41281 2.4421 0
M  V30 21012 N 2078.21 -1.39832 0.726957 0
M  V30 21013 C 2079.43 -2.05501 0.280008 0
M  V30 21014 C 2079.86 -1.54436 -1.07383 0
M  V30 21015 O 2079.22 -0.684615 -1.67877 0
M  V30 21016 C 2079.26 -3.59492 0.282502 0
M  V30 21017 O 2078.37 -4.05842 -0.732546 0
M  V30 21018 H 2077.71 -0.651361 0.128936 0
M  V30 21019 H 2080.24 -1.79019 0.990626 0
M  V30 21020 H 2080.25 -4.07811 0.124104 0
M  V30 21021 H 2078.92 -3.96022 1.27041 0
M  V30 21022 H 2077.5 -3.68956 -0.540943 0
M  V30 21023 N 2079.69 -0.473982 -1.50304 0
M  V30 21024 C 2081.1 -0.0195635 -1.8669 0
M  V30 21025 C 2081.45 1.38613 -1.38856 0
M  V30 21026 O 2080.57 2.02811 -0.754772 0
M  V30 21027 C 2081.17 -0.0287258 -3.38788 0
M  V30 21028 C 2079.73 0.370234 -3.74575 0
M  V30 21029 C 2078.87 -0.412963 -2.74208 0
M  V30 21030 H 2081.83 -0.688116 -1.43006 0
M  V30 21031 H 2081.85 0.772789 -3.7257 0
M  V30 21032 H 2081.36 -1.05193 -3.73572 0
M  V30 21033 H 2079.46 1.39768 -3.45392 0
M  V30 21034 H 2079.57 0.0695687 -4.79049 0
M  V30 21035 H 2077.94 0.13371 -2.54349 0
M  V30 21036 H 2078.72 -1.43573 -3.11836 0
M  V30 21037 N 2081.16 1.56239 -0.206702 0
M  V30 21038 C 2082.58 1.84211 0.303832 0
M  V30 21039 C 2082.93 1.12771 1.60552 0
M  V30 21040 O 2082.05 0.392383 2.12813 0
M  V30 21041 C 2082.65 3.34173 0.558041 0
M  V30 21042 C 2081.21 3.62515 1.01292 0
M  V30 21043 C 2080.35 2.77217 0.0678344 0
M  V30 21044 H 2083.3 1.52757 -0.430235 0
M  V30 21045 H 2083.32 3.53573 1.40593 0
M  V30 21046 H 2082.84 3.8614 -0.38952 0
M  V30 21047 H 2080.94 3.15991 1.97435 0
M  V30 21048 H 2081.05 4.70617 0.8976 0
M  V30 21049 H 2079.41 2.48197 0.571888 0
M  V30 21050 H 2080.2 3.31978 -0.874377 0
M  V30 21051 N 2082.64 -0.0668159 1.57458 0
M  V30 21052 C 2084.05 -0.618057 1.76173 0
M  V30 21053 C 2084.4 -1.77647 0.83283 0
M  V30 21054 O 2083.53 -2.16392 0.0181509 0
M  V30 21055 C 2084.12 -1.12796 3.19472 0
M  V30 21056 C 2082.68 -1.62503 3.39514 0
M  V30 21057 C 2081.83 -0.546584 2.7186 0
M  V30 21058 H 2084.78 0.15937 1.57898 0
M  V30 21059 H 2084.8 -1.99663 3.23906 0
M  V30 21060 H 2084.31 -0.284643 3.87055 0
M  V30 21061 H 2082.42 -2.49144 2.77053 0
M  V30 21062 H 2082.53 -1.69854 4.4798 0
M  V30 21063 H 2080.89 -0.992807 2.34554 0
M  V30 21064 H 2081.68 0.286635 3.42101 0
M  V30 21065 N 2084.12 -1.53926 -0.338317 0
M  V30 21066 C 2085.35 -1.75368 -1.09789 0
M  V30 21067 C 2085.76 -0.495294 -1.82187 0
M  V30 21068 O 2085.12 0.533316 -1.74534 0
M  V30 21069 C 2085.17 -2.93722 -2.10736 0
M  V30 21070 O 2084.89 -4.14695 -1.4128 0
M  V30 21071 C 2086.39 -3.27258 -2.99027 0
M  V30 21072 H 2083.61 -0.585824 -0.327188 0
M  V30 21073 H 2086.16 -2.00767 -0.388932 0
M  V30 21074 H 2084.31 -2.70639 -2.77188 0
M  V30 21075 H 2084.73 -4.81165 -2.08759 0
M  V30 21076 H 2086.2 -4.13409 -3.65783 0
M  V30 21077 H 2086.68 -2.43786 -3.65329 0
M  V30 21078 H 2087.28 -3.52366 -2.38156 0
M  V30 21079 N 2085.6 0.599608 -1.45748 0
M  V30 21080 C 2086.83 1.38483 -1.53721 0
M  V30 21081 C 2087.24 1.8801 -0.172512 0
M  V30 21082 O 2086.6 1.6267 0.82733 0
M  V30 21083 C 2086.65 2.5839 -2.52818 0
M  V30 21084 O 2086.37 2.10918 -3.83986 0
M  V30 21085 C 2087.87 3.51153 -2.70567 0
M  V30 21086 H 2085.09 0.423637 -0.520358 0
M  V30 21087 H 2087.64 0.730527 -1.91007 0
M  V30 21088 H 2085.79 3.19844 -2.18583 0
M  V30 21089 H 2086.21 2.88883 -4.37775 0
M  V30 21090 H 2087.68 4.31811 -3.43865 0
M  V30 21091 H 2088.16 4.02008 -1.7688 0
M  V30 21092 H 2088.76 2.95546 -3.05831 0
M  V30 21093 N 2087.08 1.33171 0.842803 0
M  V30 21094 C 2088.31 1.27434 1.62997 0
M  V30 21095 C 2088.72 -0.155477 1.88159 0
M  V30 21096 O 2088.08 -1.09638 1.45897 0
M  V30 21097 C 2088.13 2.04284 2.98245 0
M  V30 21098 O 2087.85 3.41688 2.74191 0
M  V30 21099 C 2089.35 2.05711 3.9268 0
M  V30 21100 H 2086.57 0.439188 0.507302 0
M  V30 21101 H 2089.11 1.75481 1.05007 0
M  V30 21102 H 2087.27 1.5993 3.52847 0
M  V30 21103 H 2087.68 3.81172 3.60288 0
M  V30 21104 H 2089.16 2.63943 4.84807 0
M  V30 21105 H 2089.63 1.04636 4.26553 0
M  V30 21106 H 2090.24 2.50067 3.44015 0
M  V30 21107 N 2088.56 -1.06056 1.16576 0
M  V30 21108 C 2089.78 -1.82592 0.973019 0
M  V30 21109 C 2090.2 -1.82629 -0.478773 0
M  V30 21110 O 2089.56 -1.2472 -1.33233 0
M  V30 21111 C 2089.61 -3.291 1.49585 0
M  V30 21112 O 2089.33 -3.29189 2.89078 0
M  V30 21113 C 2090.83 -4.22357 1.34647 0
M  V30 21114 H 2088.05 -0.575656 0.344763 0
M  V30 21115 H 2090.59 -1.33793 1.5466 0
M  V30 21116 H 2088.75 -3.75202 0.964496 0
M  V30 21117 H 2089.16 -4.2082 3.13066 0
M  V30 21118 H 2090.64 -5.23171 1.76056 0
M  V30 21119 H 2091.11 -4.38226 0.292348 0
M  V30 21120 H 2091.72 -3.82103 1.86755 0
M  V30 21121 N 2090.03 -0.964615 -1.24631 0
M  V30 21122 C 2091.26 -0.642327 -1.96677 0
M  V30 21123 C 2091.68 0.787619 -1.71587 0
M  V30 21124 O 2091.03 1.52808 -0.9978 0
M  V30 21125 C 2091.08 -0.903712 -3.50022 0
M  V30 21126 O 2090.81 -2.27744 -3.74252 0
M  V30 21127 C 2092.31 -0.595187 -4.39286 0
M  V30 21128 H 2089.53 -0.239932 -0.626637 0
M  V30 21129 H 2092.07 -1.29171 -1.58541 0
M  V30 21130 H 2090.23 -0.300589 -3.86232 0
M  V30 21131 H 2090.64 -2.35512 -4.68652 0
M  V30 21132 H 2092.11 -0.828552 -5.45746 0
M  V30 21133 H 2092.59 0.470491 -4.36673 0
M  V30 21134 H 2093.2 -1.17808 -4.08658 0
M  V30 21135 N 2091.51 1.39445 -0.734362 0
M  V30 21136 C 2092.44 2.33245 -0.109065 0
M  V30 21137 C 2093.42 1.53878 0.724945 0
M  V30 21138 O 2094.61 1.82274 0.670055 0
M  V30 21139 C 2091.74 3.37973 0.799454 0
M  V30 21140 C 2090.69 4.27943 0.0696508 0
M  V30 21141 C 2090.02 5.23365 1.09514 0
M  V30 21142 C 2091.32 5.10855 -1.08738 0
M  V30 21143 H 2093.01 2.85786 -0.892581 0
M  V30 21144 H 2090.56 1.37409 -0.430672 0
M  V30 21145 H 2092.51 4.02545 1.24643 0
M  V30 21146 H 2091.23 2.83871 1.61508 0
M  V30 21147 H 2089.89 3.64851 -0.357693 0
M  V30 21148 H 2089.54 4.65559 1.90432 0
M  V30 21149 H 2089.24 5.84408 0.611606 0
M  V30 21150 H 2090.77 5.90813 1.54183 0
M  V30 21151 H 2092.18 5.68775 -0.718888 0
M  V30 21152 H 2090.58 5.81038 -1.50051 0
M  V30 21153 H 2091.65 4.45725 -1.90937 0
M  V30 21154 N 2092.99 0.481946 1.5005 0
M  V30 21155 C 2094.4 0.0294639 1.86677 0
M  V30 21156 C 2094.75 -1.37874 1.39589 0
M  V30 21157 O 2093.88 -2.02407 0.765517 0
M  V30 21158 C 2094.47 0.0466921 3.38768 0
M  V30 21159 C 2093.03 -0.350364 3.74766 0
M  V30 21160 C 2092.18 0.427499 2.73985 0
M  V30 21161 H 2095.13 0.69569 1.42639 0
M  V30 21162 H 2095.15 -0.75302 3.72974 0
M  V30 21163 H 2094.66 1.07172 3.73009 0
M  V30 21164 H 2092.76 -1.37934 3.46128 0
M  V30 21165 H 2092.88 -0.0441626 4.7908 0
M  V30 21166 H 2091.24 -0.120219 2.54416 0
M  V30 21167 H 2092.02 1.45225 3.1107 0
M  V30 21168 N 2094.47 -1.56127 0.214985 0
M  V30 21169 C 2095.88 -1.8437 -0.294058 0
M  V30 21170 C 2096.23 -1.13621 -1.59952 0
M  V30 21171 O 2095.35 -0.403663 -2.12602 0
M  V30 21172 C 2095.95 -3.34464 -0.540311 0
M  V30 21173 C 2094.51 -3.63047 -0.993677 0
M  V30 21174 C 2093.66 -2.77249 -0.0531319 0
M  V30 21175 H 2096.61 -1.52527 0.43833 0
M  V30 21176 H 2096.63 -3.54314 -1.38716 0
M  V30 21177 H 2096.14 -3.85928 0.409992 0
M  V30 21178 H 2094.24 -3.17033 -1.95757 0
M  V30 21179 H 2094.35 -4.71086 -0.872629 0
M  V30 21180 H 2092.72 -2.48496 -0.558718 0
M  V30 21181 H 2093.5 -3.3151 0.891971 0
M  V30 21182 N 2095.95 0.0584645 -1.57492 0
M  V30 21183 C 2097.17 0.767637 -1.92133 0
M  V30 21184 C 2097.59 1.70438 -0.812178 0
M  V30 21185 O 2096.95 1.81246 0.213598 0
M  V30 21186 C 2097 1.54992 -3.26588 0
M  V30 21187 O 2096.72 0.650813 -4.33239 0
M  V30 21188 C 2098.22 2.3589 -3.75328 0
M  V30 21189 H 2095.44 0.2175 -0.634772 0
M  V30 21190 H 2097.98 0.0247547 -2.04485 0
M  V30 21191 H 2096.14 2.24495 -3.15722 0
M  V30 21192 H 2096.55 1.19628 -5.10675 0
M  V30 21193 H 2098.03 2.86216 -4.72 0
M  V30 21194 H 2098.5 3.16011 -3.05014 0
M  V30 21195 H 2099.11 1.71518 -3.89181 0
M  V30 21196 N 2097.42 1.54103 0.330149 0
M  V30 21197 C 2098.65 1.75948 1.08857 0
M  V30 21198 C 2099.07 0.504949 1.81922 0
M  V30 21199 O 2098.42 -0.524053 1.74814 0
M  V30 21200 C 2098.47 2.94836 2.09175 0
M  V30 21201 O 2098.2 4.15438 1.39079 0
M  V30 21202 C 2099.7 3.28839 2.97287 0
M  V30 21203 H 2096.92 0.587551 0.324076 0
M  V30 21204 H 2099.46 2.00971 0.378279 0
M  V30 21205 H 2097.62 2.72105 2.75749 0
M  V30 21206 H 2098.03 4.82266 2.06204 0
M  V30 21207 H 2099.5 4.15343 3.63586 0
M  V30 21208 H 2099.98 2.4572 3.64031 0
M  V30 21209 H 2100.59 3.53624 2.36284 0
M  V30 21210 N 2098.9 -0.59187 1.46064 0
M  V30 21211 C 2100.13 -1.37666 1.54453 0
M  V30 21212 C 2100.55 -1.87916 0.18248 0
M  V30 21213 O 2099.9 -1.63106 -0.818692 0
M  V30 21214 C 2099.95 -2.57045 2.54185 0
M  V30 21215 O 2099.67 -2.08879 3.85099 0
M  V30 21216 C 2101.18 -3.49713 2.72426 0
M  V30 21217 H 2098.4 -0.420872 0.522597 0
M  V30 21218 H 2100.94 -0.720387 1.91391 0
M  V30 21219 H 2099.09 -3.18681 2.20276 0
M  V30 21220 H 2099.51 -2.86557 4.39301 0
M  V30 21221 H 2100.98 -4.29981 3.4615 0
M  V30 21222 H 2101.46 -4.01064 1.7901 0
M  V30 21223 H 2102.07 -2.9392 3.07395 0
M  V30 21224 N 2100.38 -1.33616 -0.835729 0
M  V30 21225 C 2101.79 -1.22666 -1.40748 0
M  V30 21226 C 2102.14 0.153155 -1.95601 0
M  V30 21227 O 2101.27 1.0529 -1.89058 0
M  V30 21228 C 2101.86 -2.22087 -2.55857 0
M  V30 21229 C 2100.42 -2.14967 -3.08976 0
M  V30 21230 C 2099.57 -2.09399 -1.81789 0
M  V30 21231 H 2102.52 -1.45169 -0.641222 0
M  V30 21232 H 2102.54 -1.83042 -3.3358 0
M  V30 21233 H 2102.05 -3.22502 -2.15903 0
M  V30 21234 H 2100.15 -1.17865 -3.53466 0
M  V30 21235 H 2100.27 -3.05652 -3.68936 0
M  V30 21236 H 2098.63 -1.54922 -2.02166 0
M  V30 21237 H 2099.41 -3.11626 -1.44027 0
M  V30 21238 N 2101.86 1.05436 -1.17136 0
M  V30 21239 C 2103.08 1.82612 -0.983237 0
M  V30 21240 C 2103.51 1.82295 0.463697 0
M  V30 21241 O 2102.87 1.23011 1.33184 0
M  V30 21242 C 2102.91 3.26726 -1.52587 0
M  V30 21243 O 2102.02 4.05743 -0.737979 0
M  V30 21244 H 2101.36 0.564713 -0.349279 0
M  V30 21245 H 2103.89 1.3288 -1.55576 0
M  V30 21246 H 2103.9 3.77531 -1.54708 0
M  V30 21247 H 2102.57 3.26271 -2.57915 0
M  V30 21248 H 2101.15 3.64479 -0.78798 0
M  V30 21249 N 2103.34 0.971211 1.24118 0
M  V30 21250 C 2104.75 0.673347 1.74135 0
M  V30 21251 C 2105.1 -0.810809 1.78663 0
M  V30 21252 O 2104.22 -1.63435 1.41838 0
M  V30 21253 C 2104.82 1.21558 3.16242 0
M  V30 21254 C 2103.38 0.967552 3.63752 0
M  V30 21255 C 2102.52 1.34881 2.42286 0
M  V30 21256 H 2105.48 1.14613 1.09771 0
M  V30 21257 H 2105.5 0.583554 3.75999 0
M  V30 21258 H 2105.01 2.29578 3.12914 0
M  V30 21259 H 2103.11 -0.0969669 3.72474 0
M  V30 21260 H 2103.22 1.61567 4.51035 0
M  V30 21261 H 2101.59 0.767209 2.4287 0
M  V30 21262 H 2102.37 2.43858 2.41637 0
M  V30 21263 N 2104.81 -1.39054 0.741747 0
M  V30 21264 C 2106.23 -1.83161 0.361815 0
M  V30 21265 C 2106.58 -1.61934 -1.10778 0
M  V30 21266 O 2105.7 -1.11412 -1.85516 0
M  V30 21267 C 2106.3 -3.32508 0.649929 0
M  V30 21268 C 2104.86 -3.75008 0.323414 0
M  V30 21269 C 2104 -2.61973 0.909134 0
M  V30 21270 H 2106.95 -1.2795 0.938853 0
M  V30 21271 H 2106.97 -3.80424 -0.0759846 0
M  V30 21272 H 2106.49 -3.47925 1.71959 0
M  V30 21273 H 2104.59 -3.65175 -0.740136 0
M  V30 21274 H 2104.7 -4.72191 0.81069 0
M  V30 21275 H 2103.06 -2.52483 0.335302 0
M  V30 21276 H 2103.85 -2.80194 1.98358 0
M  V30 21277 N 2106.29 -0.489897 -1.49792 0
M  V30 21278 C 2107.52 0.0556798 -2.06825 0
M  V30 21279 C 2107.94 1.31825 -1.35158 0
M  V30 21280 O 2107.29 1.77446 -0.426503 0
M  V30 21281 C 2107.34 0.324604 -3.6004 0
M  V30 21282 O 2107.06 -0.887904 -4.29008 0
M  V30 21283 C 2108.57 0.91506 -4.33753 0
M  V30 21284 H 2105.79 -0.0154889 -0.670821 0
M  V30 21285 H 2108.33 -0.684073 -1.92719 0
M  V30 21286 H 2106.48 1.01432 -3.73885 0
M  V30 21287 H 2106.9 -0.643954 -5.20532 0
M  V30 21288 H 2108.37 1.05288 -5.41866 0
M  V30 21289 H 2108.85 1.91003 -3.95493 0
M  V30 21290 H 2109.46 0.263155 -4.24485 0
M  V30 21291 N 2107.77 1.56011 -0.223262 0
M  V30 21292 C 2109 2.0274 0.412787 0
M  V30 21293 C 2109.41 1.10304 1.53227 0
M  V30 21294 O 2108.77 0.112965 1.8215 0
M  V30 21295 C 2108.82 3.48989 0.942818 0
M  V30 21296 O 2108.54 4.37901 -0.132031 0
M  V30 21297 C 2110.04 4.11371 1.65194 0
M  V30 21298 H 2107.26 0.663379 0.100842 0
M  V30 21299 H 2109.81 2.0165 -0.340215 0
M  V30 21300 H 2107.96 3.50689 1.64609 0
M  V30 21301 H 2108.38 5.23822 0.266637 0
M  V30 21302 H 2109.85 5.15467 1.97479 0
M  V30 21303 H 2110.33 3.56468 2.56568 0
M  V30 21304 H 2110.93 4.13525 0.993831 0
M  V30 21305 N 2109.25 -0.0501116 1.5752 0
M  V30 21306 C 2110.48 -0.757437 1.92537 0
M  V30 21307 C 2110.89 -1.70005 0.821205 0
M  V30 21308 O 2110.25 -1.81356 -0.203983 0
M  V30 21309 C 2110.3 -1.53258 3.27405 0
M  V30 21310 O 2110.02 -0.627828 4.33578 0
M  V30 21311 C 2111.52 -2.33896 3.76573 0
M  V30 21312 H 2108.74 -0.21413 0.635916 0
M  V30 21313 H 2111.29 -0.01391 2.04495 0
M  V30 21314 H 2109.44 -2.22818 3.16909 0
M  V30 21315 H 2109.85 -1.16918 5.11303 0
M  V30 21316 H 2111.33 -2.83709 4.73511 0
M  V30 21317 H 2111.81 -3.14389 3.06685 0
M  V30 21318 H 2112.41 -1.69451 3.90085 0
M  V30 21319 N 2110.73 -1.54276 -0.321972 0
M  V30 21320 C 2111.95 -1.76523 -1.07923 0
M  V30 21321 C 2112.37 -0.514589 -1.81652 0
M  V30 21322 O 2111.73 0.514775 -1.75089 0
M  V30 21323 C 2111.78 -2.95941 -2.07609 0
M  V30 21324 O 2111.5 -4.1617 -1.36874 0
M  V30 21325 C 2113 -3.30411 -2.95539 0
M  V30 21326 H 2110.22 -0.589261 -0.320956 0
M  V30 21327 H 2112.76 -2.01169 -0.367616 0
M  V30 21328 H 2110.92 -2.73564 -2.74302 0
M  V30 21329 H 2111.33 -4.83352 -2.03644 0
M  V30 21330 H 2112.81 -4.17265 -3.61378 0
M  V30 21331 H 2113.28 -2.47647 -3.62723 0
M  V30 21332 H 2113.89 -3.54872 -2.34405 0
M  V30 21333 N 2112.2 0.584116 -1.46376 0
M  V30 21334 C 2113.43 1.36845 -1.55181 0
M  V30 21335 C 2113.85 1.87817 -0.192443 0
M  V30 21336 O 2113.2 1.63538 0.81003 0
M  V30 21337 C 2113.26 2.55694 -2.55545 0
M  V30 21338 O 2112.98 2.06834 -3.86201 0
M  V30 21339 C 2114.48 3.48263 -2.74277 0
M  V30 21340 H 2111.7 0.418095 -0.524822 0
M  V30 21341 H 2114.24 0.710227 -1.91771 0
M  V30 21342 H 2112.4 3.17508 -2.21963 0
M  V30 21343 H 2112.81 2.84224 -4.40814 0
M  V30 21344 H 2114.28 4.2814 -3.48426 0
M  V30 21345 H 2114.76 4.00109 -1.81134 0
M  V30 21346 H 2115.37 2.92285 -3.08949 0
M  V30 21347 N 2113.68 1.34058 0.828631 0
M  V30 21348 C 2114.91 1.29156 1.61636 0
M  V30 21349 C 2115.33 -0.135511 1.88313 0
M  V30 21350 O 2114.68 -1.08084 1.47051 0
M  V30 21351 C 2114.73 2.07436 2.96062 0
M  V30 21352 O 2114.46 3.44577 2.70552 0
M  V30 21353 C 2115.96 2.09865 3.90476 0
M  V30 21354 H 2113.18 0.444543 0.502615 0
M  V30 21355 H 2115.72 1.76585 1.0314 0
M  V30 21356 H 2113.88 1.63663 3.51131 0
M  V30 21357 H 2114.29 3.84972 3.56225 0
M  V30 21358 H 2115.76 2.69071 4.8198 0
M  V30 21359 H 2116.24 1.09155 4.2542 0
M  V30 21360 H 2116.85 2.53702 3.41344 0
M  V30 21361 N 2115.16 -1.04814 1.17694 0
M  V30 21362 C 2116.57 -1.5934 0.973022 0
M  V30 21363 C 2116.92 -1.90256 -0.479284 0
M  V30 21364 O 2116.05 -1.68704 -1.35528 0
M  V30 21365 C 2116.64 -2.89503 1.75993 0
M  V30 21366 C 2115.2 -3.40674 1.60058 0
M  V30 21367 C 2114.35 -2.14356 1.75916 0
M  V30 21368 H 2117.3 -0.87578 1.32347 0
M  V30 21369 H 2117.32 -3.5957 1.24457 0
M  V30 21370 H 2116.83 -2.6697 2.81689 0
M  V30 21371 H 2114.93 -3.68235 0.568665 0
M  V30 21372 H 2115.05 -4.15004 2.39393 0
M  V30 21373 H 2113.41 -2.25301 1.18793 0
M  V30 21374 H 2114.19 -1.94288 2.83032 0
M  V30 21375 N 2116.64 -0.977779 -1.23601 0
M  V30 21376 C 2118.05 -0.682573 -1.73775 0
M  V30 21377 C 2118.4 0.801323 -1.7909 0
M  V30 21378 O 2117.53 1.6268 -1.42703 0
M  V30 21379 C 2118.12 -1.23234 -3.15593 0
M  V30 21380 C 2116.68 -0.986829 -3.63234 0
M  V30 21381 C 2115.83 -1.36164 -2.41567 0
M  V30 21382 H 2118.78 -1.15193 -1.09162 0
M  V30 21383 H 2118.8 -0.603486 -3.75684 0
M  V30 21384 H 2118.31 -2.31235 -3.11692 0
M  V30 21385 H 2116.41 0.0772124 -3.7252 0
M  V30 21386 H 2116.53 -1.63956 -4.50172 0
M  V30 21387 H 2114.89 -0.780079 -2.4246 0
M  V30 21388 H 2115.67 -2.45136 -2.4034 0
M  V30 21389 N 2118.12 1.38658 -0.749111 0
M  V30 21390 C 2119.53 1.82966 -0.371524 0
M  V30 21391 C 2119.88 1.62519 1.09918 0
M  V30 21392 O 2119 1.12394 1.84923 0
M  V30 21393 C 2119.6 3.32158 -0.667553 0
M  V30 21394 C 2118.16 3.74831 -0.343297 0
M  V30 21395 C 2117.31 2.61488 -0.923014 0
M  V30 21396 H 2120.26 1.2745 -0.945625 0
M  V30 21397 H 2120.28 3.80459 0.0558088 0
M  V30 21398 H 2119.79 3.47008 -1.73801 0
M  V30 21399 H 2117.89 3.65562 0.72076 0
M  V30 21400 H 2118 4.71755 -0.83572 0
M  V30 21401 H 2116.37 2.52302 -0.348687 0
M  V30 21402 H 2117.15 2.79138 -1.99841 0
M  V30 21403 N 2119.6 0.497834 1.49531 0
M  V30 21404 C 2120.82 -0.0447105 2.06852 0
M  V30 21405 C 2121.24 -1.31106 1.35855 0
M  V30 21406 O 2120.6 -1.77218 0.435907 0
M  V30 21407 C 2120.65 -0.305505 3.60207 0
M  V30 21408 O 2120.37 0.910643 4.28531 0
M  V30 21409 C 2121.87 -0.892044 4.34232 0
M  V30 21410 H 2119.09 0.0190462 0.67073 0
M  V30 21411 H 2121.63 0.694284 1.92354 0
M  V30 21412 H 2119.79 -0.994475 3.74418 0
M  V30 21413 H 2120.2 0.67155 5.20183 0
M  V30 21414 H 2121.68 -1.02413 5.42416 0
M  V30 21415 H 2122.15 -1.88903 3.965 0
M  V30 21416 H 2122.76 -0.24064 4.24619 0
M  V30 21417 N 2121.07 -1.5589 0.231532 0
M  V30 21418 C 2122.3 -2.02956 -0.40203 0
M  V30 21419 C 2122.72 -1.11115 -1.5264 0
M  V30 21420 O 2122.07 -0.122623 -1.82088 0
M  V30 21421 C 2122.12 -3.49484 -0.924297 0
M  V30 21422 O 2121.85 -4.37825 0.155252 0
M  V30 21423 C 2123.35 -4.12241 -1.6301 0
M  V30 21424 H 2120.57 -0.663905 -0.097323 0
M  V30 21425 H 2123.11 -2.01467 0.350905 0
M  V30 21426 H 2121.27 -3.51557 -1.62747 0
M  V30 21427 H 2121.68 -5.23956 -0.238854 0
M  V30 21428 H 2123.15 -5.16507 -1.94742 0
M  V30 21429 H 2123.63 -3.57824 -2.54674 0
M  V30 21430 H 2124.24 -4.14046 -0.971887 0
M  V30 21431 N 2122.55 0.0417572 -1.57545 0
M  V30 21432 C 2123.78 0.747215 -1.92936 0
M  V30 21433 C 2124.19 1.69567 -0.830209 0
M  V30 21434 O 2123.55 1.81462 0.194363 0
M  V30 21435 C 2123.6 1.51519 -3.28214 0
M  V30 21436 O 2123.32 0.604825 -4.33905 0
M  V30 21437 C 2124.82 2.31896 -3.77809 0
M  V30 21438 H 2122.04 0.210755 -0.637043 0
M  V30 21439 H 2124.59 0.00306497 -2.045 0
M  V30 21440 H 2122.74 2.21134 -3.18086 0
M  V30 21441 H 2123.16 1.14205 -5.11916 0
M  V30 21442 H 2124.63 2.81194 -4.75009 0
M  V30 21443 H 2125.11 3.12759 -3.08348 0
M  V30 21444 H 2125.71 1.6738 -3.90978 0
M  V30 21445 N 2124.03 1.54445 0.313786 0
M  V30 21446 C 2125.44 1.64251 0.887611 0
M  V30 21447 C 2125.79 0.542877 1.8854 0
M  V30 21448 O 2124.92 -0.322627 2.13981 0
M  V30 21449 C 2125.51 2.97739 1.61668 0
M  V30 21450 C 2124.07 3.09709 2.13909 0
M  V30 21451 C 2123.22 2.5987 0.967618 0
M  V30 21452 H 2126.17 1.58438 0.091111 0
M  V30 21453 H 2126.19 2.88447 2.4815 0
M  V30 21454 H 2125.7 3.77752 0.890231 0
M  V30 21455 H 2123.8 2.34391 2.89641 0
M  V30 21456 H 2123.92 4.15667 2.38239 0
M  V30 21457 H 2122.28 2.16006 1.34957 0
M  V30 21458 H 2123.06 3.42349 0.255325 0
M  V30 21459 N 2125.51 -0.576345 1.46683 0
M  V30 21460 C 2126.73 -1.36505 1.56145 0
M  V30 21461 C 2127.16 -1.86975 0.20539 0
M  V30 21462 O 2126.52 -1.6192 -0.815566 0
M  V30 21463 C 2126.56 -2.52417 2.57523 0
M  V30 21464 O 2125.67 -3.54056 2.11467 0
M  V30 21465 H 2125.01 -0.406262 0.525211 0
M  V30 21466 H 2127.54 -0.698466 1.92309 0
M  V30 21467 H 2127.55 -2.99248 2.77335 0
M  V30 21468 H 2126.22 -2.15036 3.55995 0
M  V30 21469 H 2124.8 -3.13661 2.01671 0
M  V30 21470 N 2126.99 -1.34495 -0.82151 0
M  V30 21471 C 2128.4 -1.24152 -1.39439 0
M  V30 21472 C 2128.75 0.1324 -1.95753 0
M  V30 21473 O 2127.87 1.03279 -1.90164 0
M  V30 21474 C 2128.47 -2.24789 -2.53487 0
M  V30 21475 C 2127.03 -2.18232 -3.06679 0
M  V30 21476 C 2126.17 -2.11315 -1.79558 0
M  V30 21477 H 2129.12 -1.45841 -0.625789 0
M  V30 21478 H 2129.15 -1.8657 -3.3162 0
M  V30 21479 H 2128.66 -3.24774 -2.1247 0
M  V30 21480 H 2126.76 -1.21608 -3.52196 0
M  V30 21481 H 2126.87 -3.09548 -3.65673 0
M  V30 21482 H 2125.24 -1.57058 -2.00512 0
M  V30 21483 H 2126.02 -3.13136 -1.40714 0
M  V30 21484 N 2128.46 1.04188 -1.18248 0
M  V30 21485 C 2129.88 1.58822 -0.981458 0
M  V30 21486 C 2130.23 1.90507 0.469187 0
M  V30 21487 O 2129.35 1.6942 1.34632 0
M  V30 21488 C 2129.95 2.88565 -1.77526 0
M  V30 21489 C 2128.51 3.3982 -1.61862 0
M  V30 21490 C 2127.65 2.13421 -1.77051 0
M  V30 21491 H 2130.6 0.868749 -1.3281 0
M  V30 21492 H 2130.62 3.58905 -1.26362 0
M  V30 21493 H 2130.14 2.65472 -2.83101 0
M  V30 21494 H 2128.24 3.67928 -0.588186 0
M  V30 21495 H 2128.35 4.13728 -2.4159 0
M  V30 21496 H 2126.71 2.24667 -1.19986 0
M  V30 21497 H 2127.5 1.92785 -2.84058 0
M  V30 21498 N 2129.94 0.98432 1.23081 0
M  V30 21499 C 2131.19 0.650883 1.90909 0
M  V30 21500 C 2131.5 -0.819701 1.77596 0
M  V30 21501 O 2132.71 -1.26436 2.40263 0
M  V30 21502 C 2131.17 1.11359 3.42239 0
M  V30 21503 C 2130.77 2.60879 3.64206 0
M  V30 21504 C 2132.52 0.854079 4.15819 0
M  V30 21505 C 2130.43 3.00797 5.09191 0
M  V30 21506 H 2129.36 0.239743 0.71487 0
M  V30 21507 H 2132.01 1.19274 1.39449 0
M  V30 21508 H 2130.39 0.499916 3.92832 0
M  V30 21509 H 2131.56 3.27519 3.24142 0
M  V30 21510 H 2129.88 2.84619 3.03942 0
M  V30 21511 H 2132.47 1.12812 5.22664 0
M  V30 21512 H 2132.82 -0.209813 4.15771 0
M  V30 21513 H 2133.35 1.42952 3.71227 0
M  V30 21514 H 2130.09 4.06326 5.14373 0
M  V30 21515 H 2129.61 2.38854 5.5019 0
M  V30 21516 H 2131.29 2.9162 5.77552 0
M  V30 21517 N 2131.42 -1.38259 0.756453 0
M  V30 21518 C 2132.65 -2.04335 0.324799 0
M  V30 21519 C 2133.06 -1.57053 -1.04784 0
M  V30 21520 O 2132.42 -0.744882 -1.66607 0
M  V30 21521 C 2132.47 -3.59882 0.341597 0
M  V30 21522 O 2132.19 -4.0543 1.66008 0
M  V30 21523 C 2133.69 -4.43179 -0.103565 0
M  V30 21524 H 2130.91 -0.656588 0.138324 0
M  V30 21525 H 2133.46 -1.76894 1.02611 0
M  V30 21526 H 2131.61 -3.8615 -0.310997 0
M  V30 21527 H 2132.03 -4.99876 1.58822 0
M  V30 21528 H 2133.5 -5.51985 -0.0406515 0
M  V30 21529 H 2133.98 -4.23827 -1.15185 0
M  V30 21530 H 2134.58 -4.22106 0.520263 0
M  V30 21531 N 2132.9 -0.505757 -1.49264 0
M  V30 21532 C 2134.13 0.0337401 -2.06872 0
M  V30 21533 C 2134.54 1.30384 -1.36548 0
M  V30 21534 O 2133.9 1.76984 -0.4453 0
M  V30 21535 C 2133.95 0.286399 -3.60364 0
M  V30 21536 O 2133.67 -0.933356 -4.28042 0
M  V30 21537 C 2135.17 0.869003 -4.34699 0
M  V30 21538 H 2132.39 -0.022603 -0.670619 0
M  V30 21539 H 2134.94 -0.704475 -1.91983 0
M  V30 21540 H 2133.09 0.974605 -3.7494 0
M  V30 21541 H 2133.5 -0.699127 -5.1982 0
M  V30 21542 H 2134.98 0.995347 -5.42952 0
M  V30 21543 H 2135.46 1.86798 -3.97496 0
M  V30 21544 H 2136.06 0.218118 -4.2474 0
M  V30 21545 N 2134.38 1.55765 -0.239796 0
M  V30 21546 C 2135.6 2.03167 0.391261 0
M  V30 21547 C 2136.02 1.11923 1.52049 0
M  V30 21548 O 2135.38 0.132278 1.8202 0
M  V30 21549 C 2135.43 3.49969 0.90575 0
M  V30 21550 O 2135.15 4.37736 -0.178468 0
M  V30 21551 C 2136.65 4.131 1.60821 0
M  V30 21552 H 2133.87 0.664411 0.0938007 0
M  V30 21553 H 2136.41 2.01278 -0.361584 0
M  V30 21554 H 2134.57 3.52415 1.6088 0
M  V30 21555 H 2134.98 5.24075 0.211064 0
M  V30 21556 H 2136.46 5.17533 1.92 0
M  V30 21557 H 2136.93 3.59169 2.52773 0
M  V30 21558 H 2137.54 4.14556 0.949915 0
M  V30 21559 N 2135.85 -0.0334016 1.57565 0
M  V30 21560 C 2137.08 -0.736973 1.9333 0
M  V30 21561 C 2137.5 -1.69124 0.83919 0
M  V30 21562 O 2136.85 -1.81563 -0.184737 0
M  V30 21563 C 2136.91 -1.49777 3.29012 0
M  V30 21564 O 2136.63 -0.581806 4.3422 0
M  V30 21565 C 2138.13 -2.29889 3.79033 0
M  V30 21566 H 2135.35 -0.207374 0.638151 0
M  V30 21567 H 2137.89 0.0077802 2.04499 0
M  V30 21568 H 2136.05 -2.19444 3.19254 0
M  V30 21569 H 2136.46 -1.11488 5.12514 0
M  V30 21570 H 2137.93 -2.78671 4.76494 0
M  V30 21571 H 2138.41 -3.11119 3.10003 0
M  V30 21572 H 2139.02 -1.65304 3.9186 0
M  V30 21573 N 2137.33 -1.54609 -0.305591 0
M  V30 21574 C 2138.56 -1.77658 -1.06044 0
M  V30 21575 C 2138.98 -0.533827 -1.81096 0
M  V30 21576 O 2138.33 0.496175 -1.75626 0
M  V30 21577 C 2138.38 -2.98126 -2.04458 0
M  V30 21578 O 2138.1 -4.17598 -1.32452 0
M  V30 21579 C 2139.61 -3.33527 -2.92018 0
M  V30 21580 H 2136.83 -0.592632 -0.314688 0
M  V30 21581 H 2139.37 -2.01547 -0.346258 0
M  V30 21582 H 2137.52 -2.76458 -2.71385 0
M  V30 21583 H 2137.94 -4.85485 -1.98506 0
M  V30 21584 H 2139.41 -4.21074 -3.56932 0
M  V30 21585 H 2139.89 -2.5148 -3.60076 0
M  V30 21586 H 2140.5 -3.57338 -2.30628 0
M  V30 21587 N 2138.81 0.568558 -1.46987 0
M  V30 21588 C 2140.22 1.1507 -1.47023 0
M  V30 21589 C 2140.57 1.94977 -0.218726 0
M  V30 21590 O 2139.7 2.05531 0.677201 0
M  V30 21591 C 2140.29 2.09348 -2.66381 0
M  V30 21592 C 2138.85 2.62857 -2.69413 0
M  V30 21593 C 2138 1.39006 -2.39943 0
M  V30 21594 H 2140.95 0.355745 -1.54661 0
M  V30 21595 H 2140.97 2.93044 -2.42705 0
M  V30 21596 H 2140.48 1.51163 -3.57451 0
M  V30 21597 H 2138.58 3.24872 -1.82452 0
M  V30 21598 H 2138.7 3.04626 -3.69784 0
M  V30 21599 H 2137.06 1.69297 -1.90291 0
M  V30 21600 H 2137.84 0.826309 -3.33207 0
M  V30 21601 N 2140.29 1.34929 0.814366 0
M  V30 21602 C 2141.22 1.29866 1.94055 0
M  V30 21603 C 2142.2 0.174504 1.69203 0
M  V30 21604 O 2143.38 0.368232 1.90677 0
M  V30 21605 C 2140.51 1.06201 3.30664 0
M  V30 21606 C 2139.47 2.15174 3.69978 0
M  V30 21607 C 2138.79 1.76686 5.04664 0
M  V30 21608 C 2140.09 3.57077 3.81174 0
M  V30 21609 H 2141.79 2.24095 1.98549 0
M  V30 21610 H 2139.33 1.07877 0.953865 0
M  V30 21611 H 2141.29 1.01301 4.09043 0
M  V30 21612 H 2140.01 0.0841549 3.26492 0
M  V30 21613 H 2138.67 2.19158 2.9388 0
M  V30 21614 H 2138.32 0.775388 4.96988 0
M  V30 21615 H 2138.02 2.49628 5.3194 0
M  V30 21616 H 2139.54 1.73297 5.85492 0
M  V30 21617 H 2140.96 3.55458 4.49803 0
M  V30 21618 H 2139.35 4.28713 4.19911 0
M  V30 21619 H 2140.42 3.93795 2.82937 0
M  V30 21620 N 2141.77 -1.0356 1.18799 0
M  V30 21621 C 2143.18 -1.58299 0.989867 0
M  V30 21622 C 2143.53 -1.90754 -0.459077 0
M  V30 21623 O 2142.65 -1.70132 -1.33731 0
M  V30 21624 C 2143.25 -2.8762 1.79054 0
M  V30 21625 C 2141.81 -3.38957 1.63662 0
M  V30 21626 C 2140.95 -2.12479 1.7818 0
M  V30 21627 H 2143.91 -0.861694 1.33269 0
M  V30 21628 H 2143.93 -3.5823 1.28263 0
M  V30 21629 H 2143.44 -2.63967 2.84505 0
M  V30 21630 H 2141.54 -3.67611 0.607689 0
M  V30 21631 H 2141.65 -4.12441 2.43781 0
M  V30 21632 H 2140.02 -2.24028 1.21176 0
M  V30 21633 H 2140.8 -1.91275 2.85076 0
M  V30 21634 N 2143.25 -0.990834 -1.22557 0
M  V30 21635 C 2144.47 -0.683901 -1.9527 0
M  V30 21636 C 2144.89 0.751046 -1.73219 0
M  V30 21637 O 2144.25 1.50657 -1.02999 0
M  V30 21638 C 2144.3 -0.977753 -3.48026 0
M  V30 21639 O 2144.02 -2.35631 -3.69337 0
M  V30 21640 C 2145.52 -0.688232 -4.37925 0
M  V30 21641 H 2142.74 -0.25317 -0.621406 0
M  V30 21642 H 2145.28 -1.32505 -1.55765 0
M  V30 21643 H 2143.44 -0.382447 -3.85508 0
M  V30 21644 H 2143.85 -2.45399 -4.63551 0
M  V30 21645 H 2145.33 -0.944126 -5.43866 0
M  V30 21646 H 2145.8 0.377761 -4.37572 0
M  V30 21647 H 2146.41 -1.26449 -4.06067 0
M  V30 21648 N 2144.72 1.37856 -0.763775 0
M  V30 21649 C 2145.95 2.0416 -0.335631 0
M  V30 21650 C 2146.37 1.57607 1.0395 0
M  V30 21651 O 2145.72 0.753707 1.66209 0
M  V30 21652 C 2145.77 3.59696 -0.360678 0
M  V30 21653 O 2145.5 4.04543 -1.68155 0
M  V30 21654 C 2147 4.43228 0.080061 0
M  V30 21655 H 2144.22 0.655845 -0.141805 0
M  V30 21656 H 2146.76 1.76347 -1.03547 0
M  V30 21657 H 2144.92 3.86309 0.290514 0
M  V30 21658 H 2145.33 4.99027 -1.6147 0
M  V30 21659 H 2146.8 5.51999 0.0113779 0
M  V30 21660 H 2147.28 4.24432 1.12936 0
M  V30 21661 H 2147.89 4.21824 -0.542641 0
M  V30 21662 N 2146.2 0.513665 1.48994 0
M  V30 21663 C 2147.43 -0.0227686 2.06887 0
M  V30 21664 C 2147.84 -1.29658 1.37238 0
M  V30 21665 O 2147.2 -1.76745 0.454679 0
M  V30 21666 C 2147.25 -0.267284 3.60511 0
M  V30 21667 O 2146.97 0.956043 4.27541 0
M  V30 21668 C 2148.47 -0.845937 4.35154 0
M  V30 21669 H 2145.69 0.0261591 0.67049 0
M  V30 21670 H 2148.24 0.714646 1.91607 0
M  V30 21671 H 2146.39 -0.954707 3.75452 0
M  V30 21672 H 2146.81 0.726684 5.19442 0
M  V30 21673 H 2148.28 -0.966539 5.43472 0
M  V30 21674 H 2148.76 -1.84687 3.98481 0
M  V30 21675 H 2149.36 -0.19559 4.2485 0
M  V30 21676 N 2147.68 -1.55636 0.248053 0
M  V30 21677 C 2149.09 -1.84952 -0.254884 0
M  V30 21678 C 2149.44 -1.16988 -1.57506 0
M  V30 21679 O 2148.57 -0.448668 -2.11698 0
M  V30 21680 C 2149.16 -3.35535 -0.469244 0
M  V30 21681 C 2147.72 -3.65073 -0.916445 0
M  V30 21682 C 2146.87 -2.77299 0.00568866 0
M  V30 21683 H 2149.82 -1.51563 0.470584 0
M  V30 21684 H 2149.84 -3.57176 -1.31169 0
M  V30 21685 H 2149.35 -3.84972 0.491761 0
M  V30 21686 H 2147.45 -3.21114 -1.88988 0
M  V30 21687 H 2147.57 -4.72831 -0.772508 0
M  V30 21688 H 2145.93 -2.49626 -0.505882 0
M  V30 21689 H 2146.71 -3.29543 0.962088 0
M  V30 21690 N 2149.16 0.0250451 -1.5758 0
M  V30 21691 C 2150.38 0.730408 -1.94113 0
M  V30 21692 C 2150.81 1.67882 -0.848362 0
M  V30 21693 O 2150.17 1.80242 0.195596 0
M  V30 21694 C 2150.21 1.46014 -3.29715 0
M  V30 21695 O 2149.32 2.57351 -3.22249 0
M  V30 21696 H 2148.66 0.196157 -0.634365 0
M  V30 21697 H 2151.19 -0.0206802 -2.0459 0
M  V30 21698 H 2151.2 1.82917 -3.64699 0
M  V30 21699 H 2149.87 0.764593 -4.08811 0
M  V30 21700 H 2148.45 2.22961 -2.98903 0
M  V30 21701 N 2150.64 1.54769 0.297388 0
M  V30 21702 C 2152.05 1.65183 0.87014 0
M  V30 21703 C 2152.4 0.562844 1.87953 0
M  V30 21704 O 2151.52 -0.299913 2.14312 0
M  V30 21705 C 2152.12 2.99437 1.58501 0
M  V30 21706 C 2150.68 3.1196 2.10612 0
M  V30 21707 C 2149.82 2.60882 0.94 0
M  V30 21708 H 2152.77 1.58526 0.0743014 0
M  V30 21709 H 2152.8 2.91063 2.45077 0
M  V30 21710 H 2152.31 3.78675 0.850115 0
M  V30 21711 H 2150.41 2.3745 2.87138 0
M  V30 21712 H 2150.52 4.1817 2.33817 0
M  V30 21713 H 2148.89 2.17426 1.32658 0
M  V30 21714 H 2149.67 3.42601 0.219 0
M  V30 21715 N 2152.11 -0.560755 1.47286 0
M  V30 21716 C 2153.52 -1.14289 1.47631 0
M  V30 21717 C 2153.88 -1.94858 0.229063 0
M  V30 21718 O 2153 -2.05887 -0.666292 0
M  V30 21719 C 2153.6 -2.07933 2.67487 0
M  V30 21720 C 2152.15 -2.61425 2.70803 0
M  V30 21721 C 2151.3 -1.37732 2.40677 0
M  V30 21722 H 2154.25 -0.347538 1.54848 0
M  V30 21723 H 2154.27 -2.91752 2.44256 0
M  V30 21724 H 2153.79 -1.49265 3.58248 0
M  V30 21725 H 2151.89 -3.239 1.84172 0
M  V30 21726 H 2152 -3.02661 3.71394 0
M  V30 21727 H 2150.36 -1.68286 1.91186 0
M  V30 21728 H 2151.15 -0.808627 3.33641 0
M  V30 21729 N 2153.59 -1.35359 -0.807199 0
M  V30 21730 C 2154.84 -1.27934 -1.55935 0
M  V30 21731 C 2155.15 0.144469 -1.95066 0
M  V30 21732 O 2156.36 0.340989 -2.6935 0
M  V30 21733 C 2154.82 -2.24359 -2.81409 0
M  V30 21734 C 2154.42 -3.72081 -2.49519 0
M  V30 21735 C 2156.17 -2.25874 -3.59418 0
M  V30 21736 C 2154.07 -4.60331 -3.71281 0
M  V30 21737 H 2153 -0.475324 -0.585306 0
M  V30 21738 H 2155.66 -1.60619 -0.887342 0
M  V30 21739 H 2154.04 -1.84644 -3.50318 0
M  V30 21740 H 2155.21 -4.20427 -1.88621 0
M  V30 21741 H 2153.53 -3.73167 -1.84757 0
M  V30 21742 H 2156.12 -2.89024 -4.49855 0
M  V30 21743 H 2156.47 -1.26232 -3.967 0
M  V30 21744 H 2157 -2.64115 -2.9747 0
M  V30 21745 H 2153.74 -5.60969 -3.39107 0
M  V30 21746 H 2153.26 -4.16711 -4.31407 0
M  V30 21747 H 2154.94 -4.75723 -4.38516 0
M  V30 21748 N 2155.07 1.02928 -1.19346 0
M  V30 21749 C 2156.29 1.80485 -1.02175 0
M  V30 21750 C 2156.72 1.83238 0.424925 0
M  V30 21751 O 2156.08 1.25809 1.30545 0
M  V30 21752 C 2156.13 3.23415 -1.59483 0
M  V30 21753 O 2155.23 4.04087 -0.823877 0
M  V30 21754 H 2154.57 0.557177 -0.361178 0
M  V30 21755 H 2157.1 1.29551 -1.5836 0
M  V30 21756 H 2157.11 3.74164 -1.62681 0
M  V30 21757 H 2155.79 3.20727 -2.64777 0
M  V30 21758 H 2154.36 3.62726 -0.865114 0
M  V30 21759 N 2156.55 0.997319 1.2203 0
M  V30 21760 C 2157.78 0.694247 1.94905 0
M  V30 21761 C 2158.19 -0.741849 1.73615 0
M  V30 21762 O 2157.55 -1.50108 1.03796 0
M  V30 21763 C 2157.6 0.996196 3.47503 0
M  V30 21764 O 2157.32 2.37587 3.68082 0
M  V30 21765 C 2158.82 0.711446 4.37554 0
M  V30 21766 H 2156.04 0.256462 0.620055 0
M  V30 21767 H 2158.58 1.33329 1.5506 0
M  V30 21768 H 2156.74 0.402886 3.85299 0
M  V30 21769 H 2157.15 2.47854 4.62243 0
M  V30 21770 H 2158.63 0.972956 5.43358 0
M  V30 21771 H 2159.1 -0.35455 4.37767 0
M  V30 21772 H 2159.71 1.28601 4.05391 0
M  V30 21773 N 2158.03 -1.37449 0.771075 0
M  V30 21774 C 2159.25 -2.03979 0.346453 0
M  V30 21775 C 2159.67 -1.58156 -1.03113 0
M  V30 21776 O 2159.03 -0.762511 -1.65807 0
M  V30 21777 C 2159.08 -3.595 0.379748 0
M  V30 21778 O 2158.8 -4.03646 1.70298 0
M  V30 21779 C 2160.3 -4.43264 -0.0565544 0
M  V30 21780 H 2157.52 -0.655084 0.145281 0
M  V30 21781 H 2160.06 -1.75795 1.04481 0
M  V30 21782 H 2158.22 -3.86458 -0.270023 0
M  V30 21783 H 2158.63 -4.98163 1.64115 0
M  V30 21784 H 2160.11 -5.51997 0.0178961 0
M  V30 21785 H 2160.58 -4.25025 -1.10683 0
M  V30 21786 H 2161.19 -4.2153 0.565003 0
M  V30 21787 N 2159.5 -0.52156 -1.4872 0
M  V30 21788 C 2160.73 0.0117966 -2.06897 0
M  V30 21789 C 2161.15 1.28928 -1.37924 0
M  V30 21790 O 2160.5 1.76502 -0.464046 0
M  V30 21791 C 2160.56 0.248161 -3.60647 0
M  V30 21792 O 2160.28 -0.978703 -4.27028 0
M  V30 21793 C 2161.78 0.822848 -4.35596 0
M  V30 21794 H 2159 -0.0297145 -0.670342 0
M  V30 21795 H 2161.54 -0.724798 -1.91225 0
M  V30 21796 H 2159.7 0.934783 -3.75953 0
M  V30 21797 H 2160.11 -0.754221 -5.19049 0
M  V30 21798 H 2161.58 0.937703 -5.43977 0
M  V30 21799 H 2162.06 1.82571 -3.99455 0
M  V30 21800 H 2162.67 0.173056 -4.24948 0
M  V30 21801 N 2160.98 1.55502 -0.256304 0
M  V30 21802 C 2162.21 2.0357 0.36969 0
M  V30 21803 C 2162.63 1.13529 1.50853 0
M  V30 21804 O 2161.98 0.151576 1.81869 0
M  V30 21805 C 2162.03 3.5091 0.868581 0
M  V30 21806 O 2161.75 4.37522 -0.224886 0
M  V30 21807 C 2163.26 4.14782 1.56431 0
M  V30 21808 H 2160.48 0.665369 0.0867485 0
M  V30 21809 H 2163.02 2.00883 -0.382912 0
M  V30 21810 H 2161.17 3.54102 1.57133 0
M  V30 21811 H 2161.59 5.2427 0.155467 0
M  V30 21812 H 2163.06 5.1954 1.865 0
M  V30 21813 H 2163.54 3.6183 2.48949 0
M  V30 21814 H 2164.15 4.1554 0.905893 0
M  V30 21815 N 2162.46 -0.0166879 1.57591 0
M  V30 21816 C 2163.87 -0.561696 1.7805 0
M  V30 21817 C 2164.22 -1.74907 0.888926 0
M  V30 21818 O 2163.35 -2.16225 0.0869853 0
M  V30 21819 C 2163.94 -1.02576 3.22899 0
M  V30 21820 C 2162.5 -1.51619 3.44512 0
M  V30 21821 C 2161.65 -0.459817 2.73461 0
M  V30 21822 H 2164.6 0.209523 1.57311 0
M  V30 21823 H 2164.62 -1.89257 3.30094 0
M  V30 21824 H 2164.13 -0.16136 3.87764 0
M  V30 21825 H 2162.23 -2.40203 2.84839 0
M  V30 21826 H 2162.35 -1.55516 4.53157 0
M  V30 21827 H 2160.71 -0.917683 2.37594 0
M  V30 21828 H 2161.49 0.395327 3.41016 0
M  V30 21829 N 2163.94 -1.54924 -0.289176 0
M  V30 21830 C 2165.35 -1.65642 -0.861368 0
M  V30 21831 C 2165.7 -0.572803 -1.87652 0
M  V30 21832 O 2164.83 0.288543 -2.14468 0
M  V30 21833 C 2165.42 -3.00274 -1.56911 0
M  V30 21834 C 2163.98 -3.13073 -2.08955 0
M  V30 21835 C 2163.13 -2.61377 -0.926152 0
M  V30 21836 H 2166.08 -1.58563 -0.0658933 0
M  V30 21837 H 2166.1 -2.92358 -2.4353 0
M  V30 21838 H 2165.61 -3.7912 -0.830021 0
M  V30 21839 H 2163.71 -2.38969 -2.85875 0
M  V30 21840 H 2163.82 -4.19404 -2.31596 0
M  V30 21841 H 2162.19 -2.18126 -1.31503 0
M  V30 21842 H 2162.97 -3.42712 -0.200828 0
M  V30 21843 N 2165.42 0.552936 -1.47582 0
M  V30 21844 C 2166.83 1.13504 -1.48235 0
M  V30 21845 C 2167.18 1.94734 -0.239394 0
M  V30 21846 O 2166.3 2.06238 0.655364 0
M  V30 21847 C 2166.9 2.06511 -2.68586 0
M  V30 21848 C 2165.46 2.59985 -2.72185 0
M  V30 21849 C 2164.6 1.36454 -2.41404 0
M  V30 21850 H 2167.56 0.339321 -1.5503 0
M  V30 21851 H 2167.58 2.90453 -2.45799 0
M  V30 21852 H 2167.09 1.47363 -3.59034 0
M  V30 21853 H 2165.19 3.22919 -1.85887 0
M  V30 21854 H 2165.3 3.00687 -3.72994 0
M  V30 21855 H 2163.67 1.6727 -1.92076 0
M  V30 21856 H 2164.45 0.790922 -3.34065 0
M  V30 21857 N 2166.89 1.35785 0.800009 0
M  V30 21858 C 2168.12 1.32556 1.5886 0
M  V30 21859 C 2168.54 -0.0955366 1.88558 0
M  V30 21860 O 2167.89 -1.0494 1.49311 0
M  V30 21861 C 2167.95 2.13669 2.91595 0
M  V30 21862 O 2167.67 3.50238 2.63182 0
M  V30 21863 C 2169.17 2.181 3.85937 0
M  V30 21864 H 2166.39 0.455105 0.493073 0
M  V30 21865 H 2168.93 1.78733 0.993714 0
M  V30 21866 H 2167.09 1.71074 3.47581 0
M  V30 21867 H 2167.5 3.92442 3.47979 0
M  V30 21868 H 2168.97 2.79234 4.76164 0
M  V30 21869 H 2169.45 1.18154 4.23009 0
M  V30 21870 H 2170.06 2.60885 3.35886 0
M  V30 21871 N 2168.37 -1.02294 1.19891 0
M  V30 21872 C 2169.6 -1.79404 1.03062 0
M  V30 21873 C 2170.02 -1.84059 -0.420428 0
M  V30 21874 O 2169.37 -1.28896 -1.29198 0
M  V30 21875 C 2169.42 -3.24174 1.59979 0
M  V30 21876 O 2169.14 -3.19825 2.99405 0
M  V30 21877 C 2170.65 -4.17859 1.48016 0
M  V30 21878 H 2167.87 -0.564396 0.362902 0
M  V30 21879 H 2170.41 -1.28805 1.58838 0
M  V30 21880 H 2168.56 -3.71943 1.08338 0
M  V30 21881 H 2168.98 -4.10647 3.26296 0
M  V30 21882 H 2170.45 -5.17305 1.92611 0
M  V30 21883 H 2170.93 -4.37074 0.431619 0
M  V30 21884 H 2171.54 -3.75968 1.98817 0
M  V30 21885 N 2169.85 -1.00378 -1.21499 0
M  V30 21886 C 2171.08 -0.704573 -1.94534 0
M  V30 21887 C 2171.49 0.732632 -1.74006 0
M  V30 21888 O 2170.85 1.49556 -1.04591 0
M  V30 21889 C 2170.9 -1.01461 -3.4697 0
M  V30 21890 O 2170.62 -2.39535 -3.66817 0
M  V30 21891 C 2172.12 -0.734641 -4.3717 0
M  V30 21892 H 2169.34 -0.259747 -0.618686 0
M  V30 21893 H 2171.89 -1.34149 -1.54351 0
M  V30 21894 H 2170.04 -0.423313 -3.8508 0
M  V30 21895 H 2170.46 -2.50302 -4.60922 0
M  V30 21896 H 2171.93 -1.00176 -5.42834 0
M  V30 21897 H 2172.41 0.331329 -4.37948 0
M  V30 21898 H 2173.01 -1.30749 -4.04703 0
M  V30 21899 N 2171.33 1.37038 -0.778354 0
M  V30 21900 C 2172.74 1.82137 -0.41025 0
M  V30 21901 C 2173.09 1.64814 1.06446 0
M  V30 21902 O 2172.22 1.16292 1.82497 0
M  V30 21903 C 2172.81 3.30668 -0.737859 0
M  V30 21904 C 2171.37 3.74019 -0.422727 0
M  V30 21905 C 2170.52 2.59471 -0.978272 0
M  V30 21906 H 2173.47 1.25416 -0.972446 0
M  V30 21907 H 2173.49 3.80492 -0.0249048 0
M  V30 21908 H 2173 3.43244 -1.81123 0
M  V30 21909 H 2171.1 3.67009 0.643056 0
M  V30 21910 H 2171.21 4.69876 -0.935598 0
M  V30 21911 H 2169.58 2.51506 -0.402125 0
M  V30 21912 H 2170.36 2.74837 -2.05717 0
M  V30 21913 N 2172.81 0.529439 1.48441 0
M  V30 21914 C 2174.03 -0.00290016 2.074 0
M  V30 21915 C 2174.46 -1.27443 1.38347 0
M  V30 21916 O 2173.82 -1.75646 0.449242 0
M  V30 21917 C 2173.86 -0.210465 3.59985 0
M  V30 21918 O 2172.97 -1.27924 3.92057 0
M  V30 21919 H 2172.31 0.0388892 0.66286 0
M  V30 21920 H 2174.84 0.737197 1.90857 0
M  V30 21921 H 2174.85 -0.433287 4.05693 0
M  V30 21922 H 2173.52 0.718388 4.09649 0
M  V30 21923 H 2172.1 -1.03912 3.58129 0
M  V30 21924 N 2174.29 -1.55364 0.264547 0
M  V30 21925 C 2175.7 -1.85212 -0.235254 0
M  V30 21926 C 2176.05 -1.18652 -1.56256 0
M  V30 21927 O 2175.17 -0.471096 -2.1121 0
M  V30 21928 C 2175.77 -3.36014 -0.43363 0
M  V30 21929 C 2174.33 -3.66024 -0.877673 0
M  V30 21930 C 2173.47 -2.77278 0.0350996 0
M  V30 21931 H 2176.42 -1.51055 0.486633 0
M  V30 21932 H 2176.45 -3.58548 -1.27373 0
M  V30 21933 H 2175.96 -3.84429 0.532565 0
M  V30 21934 H 2174.06 -3.23101 -1.85571 0
M  V30 21935 H 2174.17 -4.73624 -0.722315 0
M  V30 21936 H 2172.54 -2.50148 -0.479378 0
M  V30 21937 H 2173.32 -3.28504 0.996986 0
M  V30 21938 N 2175.76 0.00833021 -1.57598 0
M  V30 21939 C 2177.17 0.552246 -1.78346 0
M  V30 21940 C 2177.53 1.74433 -0.898189 0
M  V30 21941 O 2176.65 2.16176 -0.098451 0
M  V30 21942 C 2177.25 1.00862 -3.23438 0
M  V30 21943 C 2175.8 1.4979 -3.45311 0
M  V30 21944 C 2174.95 0.445309 -2.73701 0
M  V30 21945 H 2177.9 -0.217862 -1.57197 0
M  V30 21946 H 2177.92 1.87504 -3.31093 0
M  V30 21947 H 2177.44 0.140794 -3.87845 0
M  V30 21948 H 2175.54 2.38689 -2.86109 0
M  V30 21949 H 2175.65 1.53111 -4.53976 0
M  V30 21950 H 2174.01 0.90507 -2.38077 0
M  V30 21951 H 2174.8 -0.413406 -3.40802 0
M  V30 21952 N 2177.24 1.55075 0.280956 0
M  V30 21953 C 2178.47 1.79322 1.03205 0
M  V30 21954 C 2178.88 0.56257 1.80224 0
M  V30 21955 O 2178.24 -0.468172 1.76393 0
M  V30 21956 C 2178.29 3.01341 1.99689 0
M  V30 21957 O 2178.01 4.19652 1.25792 0
M  V30 21958 C 2179.51 3.38131 2.86675 0
M  V30 21959 H 2176.73 0.597563 0.30522 0
M  V30 21960 H 2179.28 2.02073 0.31415 0
M  V30 21961 H 2177.43 2.8074 2.66953 0
M  V30 21962 H 2177.85 4.88582 1.90757 0
M  V30 21963 H 2179.32 4.267 3.50188 0
M  V30 21964 H 2179.8 2.57177 3.56029 0
M  V30 21965 H 2180.4 3.60962 2.24914 0
M  V30 21966 N 2178.72 -0.545102 1.47873 0
M  V30 21967 C 2179.95 -1.32682 1.58755 0
M  V30 21968 C 2180.36 -1.8724 0.242172 0
M  V30 21969 O 2179.72 -1.65628 -0.766386 0
M  V30 21970 C 2179.77 -2.48828 2.62234 0
M  V30 21971 O 2179.49 -1.96522 3.91549 0
M  V30 21972 C 2180.99 -3.40869 2.83414 0
M  V30 21973 H 2178.21 -0.404033 0.535722 0
M  V30 21974 H 2180.76 -0.659132 1.93586 0
M  V30 21975 H 2178.91 -3.11511 2.30303 0
M  V30 21976 H 2179.33 -2.72436 4.48195 0
M  V30 21977 H 2180.8 -4.18751 3.59655 0
M  V30 21978 H 2181.28 -3.95166 1.91679 0
M  V30 21979 H 2181.88 -2.83991 3.1659 0
M  V30 21980 N 2180.2 -1.36208 -0.792797 0
M  V30 21981 C 2181.43 -1.33396 -1.58155 0
M  V30 21982 C 2181.84 0.0855356 -1.88606 0
M  V30 21983 O 2181.2 1.04147 -1.49865 0
M  V30 21984 C 2181.25 -2.15213 -2.90458 0
M  V30 21985 O 2180.97 -3.51629 -2.61321 0
M  V30 21986 C 2182.47 -2.20144 -3.84775 0
M  V30 21987 H 2179.69 -0.457713 -0.490652 0
M  V30 21988 H 2182.23 -1.79258 -0.984222 0
M  V30 21989 H 2180.39 -1.72915 -3.46669 0
M  V30 21990 H 2180.8 -3.94282 -3.45893 0
M  V30 21991 H 2182.28 -2.81755 -4.74677 0
M  V30 21992 H 2182.75 -1.20396 -4.22376 0
M  V30 21993 H 2183.36 -2.62663 -3.34497 0
M  V30 21994 N 2181.68 1.01656 -1.20431 0
M  V30 21995 C 2183.09 1.56704 -1.01493 0
M  V30 21996 C 2183.44 1.9146 0.428672 0
M  V30 21997 O 2182.56 1.72238 1.31008 0
M  V30 21998 C 2183.16 2.84735 -1.83607 0
M  V30 21999 C 2181.72 3.3631 -1.69034 0
M  V30 22000 C 2180.86 2.09617 -1.81538 0
M  V30 22001 H 2183.81 0.840383 -1.34623 0
M  V30 22002 H 2183.84 3.56144 -1.33946 0
M  V30 22003 H 2183.35 2.59407 -2.88668 0
M  V30 22004 H 2181.45 3.66598 -0.666096 0
M  V30 22005 H 2181.56 4.08511 -2.50312 0
M  V30 22006 H 2179.93 2.22072 -1.24724 0
M  V30 22007 H 2180.71 1.86716 -2.88083 0
M  V30 22008 N 2183.15 1.01021 1.20965 0
M  V30 22009 C 2184.38 0.714661 1.94698 0
M  V30 22010 C 2184.8 -0.717235 1.73889 0
M  V30 22011 O 2184.16 -1.49265 1.02906 0
M  V30 22012 C 2184.21 1.04769 3.45045 0
M  V30 22013 O 2183.31 0.155818 4.12106 0
M  V30 22014 H 2182.65 0.265768 0.608493 0
M  V30 22015 H 2185.18 1.35186 1.53577 0
M  V30 22016 H 2185.19 0.996722 3.95638 0
M  V30 22017 H 2183.87 2.09099 3.59514 0
M  V30 22018 H 2182.45 0.263764 3.71966 0
M  V30 22019 N 2184.63 -1.36623 0.78561 0
M  V30 22020 C 2186.04 -1.81917 0.419903 0
M  V30 22021 C 2186.39 -1.65376 -1.0557 0
M  V30 22022 O 2185.52 -1.17258 -1.81878 0
M  V30 22023 C 2186.11 -3.30272 0.755384 0
M  V30 22024 C 2184.67 -3.73789 0.442556 0
M  V30 22025 C 2183.82 -2.58948 0.992018 0
M  V30 22026 H 2186.77 -1.24899 0.979084 0
M  V30 22027 H 2186.79 -3.80473 0.0450829 0
M  V30 22028 H 2186.3 -3.42278 1.8294 0
M  V30 22029 H 2184.4 -3.67345 -0.623584 0
M  V30 22030 H 2184.52 -4.69373 0.960503 0
M  V30 22031 H 2182.88 -2.51289 0.415458 0
M  V30 22032 H 2183.66 -2.73742 2.07172 0
M  V30 22033 N 2186.11 -0.537304 -1.48158 0
M  V30 22034 C 2187.52 -0.0987274 -1.86439 0
M  V30 22035 C 2187.87 1.32599 -1.4461 0
M  V30 22036 O 2187 1.99427 -0.840112 0
M  V30 22037 C 2187.59 -0.172391 -3.38361 0
M  V30 22038 C 2186.15 0.211031 -3.75808 0
M  V30 22039 C 2185.3 -0.528892 -2.7221 0
M  V30 22040 H 2188.25 -0.74815 -1.39959 0
M  V30 22041 H 2188.27 0.614074 -3.75512 0
M  V30 22042 H 2187.78 -1.20942 -3.68774 0
M  V30 22043 H 2185.88 1.24993 -3.51009 0
M  V30 22044 H 2186 -0.133675 -4.78913 0
M  V30 22045 H 2184.36 0.0257117 -2.54687 0
M  V30 22046 H 2185.14 -1.5667 -3.05466 0
M  V30 22047 N 2187.59 1.55221 -0.272782 0
M  V30 22048 C 2188.82 2.03951 0.348078 0
M  V30 22049 C 2189.23 1.15123 1.4964 0
M  V30 22050 O 2188.59 0.170857 1.81698 0
M  V30 22051 C 2188.64 3.51812 0.831313 0
M  V30 22052 O 2188.36 4.37259 -0.271279 0
M  V30 22053 C 2189.86 4.16418 1.52023 0
M  V30 22054 H 2187.08 0.666252 0.0796865 0
M  V30 22055 H 2189.63 2.00466 -0.404197 0
M  V30 22056 H 2187.78 3.55748 1.53368 0
M  V30 22057 H 2188.19 5.24405 0.0998522 0
M  V30 22058 H 2189.67 5.21489 1.80979 0
M  V30 22059 H 2190.15 3.6445 2.45097 0
M  V30 22060 H 2190.75 4.16478 0.861768 0
M  V30 22061 N 2189.07 2.77022e-05 1.576 0
M  V30 22062 C 2190.29 -0.695799 1.94849 0
M  V30 22063 C 2190.71 -1.67306 0.874875 0
M  V30 22064 O 2190.07 -1.81914 -0.146183 0
M  V30 22065 C 2190.12 -1.42764 3.32115 0
M  V30 22066 O 2189.84 -0.48957 4.35356 0
M  V30 22067 C 2191.34 -2.21797 3.83824 0
M  V30 22068 H 2188.56 -0.193791 0.642407 0
M  V30 22069 H 2191.1 0.0511556 2.04436 0
M  V30 22070 H 2189.26 -2.12623 3.23837 0
M  V30 22071 H 2189.67 -1.00592 5.14764 0
M  V30 22072 H 2191.15 -2.68501 4.82298 0
M  V30 22073 H 2191.62 -3.04473 3.16532 0
M  V30 22074 H 2192.23 -1.56955 3.95279 0
M  V30 22075 N 2190.54 -1.55222 -0.272728 0
M  V30 22076 C 2191.77 -1.79867 -1.02252 0
M  V30 22077 C 2192.19 -0.57212 -1.79923 0
M  V30 22078 O 2191.54 0.458811 -1.76639 0
M  V30 22079 C 2191.6 -3.02396 -1.98088 0
M  V30 22080 O 2191.32 -4.20314 -1.23564 0
M  V30 22081 C 2192.82 -3.39646 -2.84878 0
M  V30 22082 H 2190.04 -0.599174 -0.302046 0
M  V30 22083 H 2192.58 -2.02236 -0.303429 0
M  V30 22084 H 2190.74 -2.82152 -2.6546 0
M  V30 22085 H 2191.15 -4.89586 -1.88163 0
M  V30 22086 H 2192.62 -4.28551 -3.4792 0
M  V30 22087 H 2193.1 -2.59061 -3.5466 0
M  V30 22088 H 2193.71 -3.6215 -2.22997 0
M  V30 22089 N 2192.02 0.537252 -1.4816 0
M  V30 22090 C 2193.43 1.11926 -1.49431 0
M  V30 22091 C 2193.78 1.94469 -0.260035 0
M  V30 22092 O 2192.91 2.06921 0.633453 0
M  V30 22093 C 2193.5 2.03651 -2.70762 0
M  V30 22094 C 2192.06 2.57083 -2.74927 0
M  V30 22095 C 2191.21 1.33885 -2.42837 0
M  V30 22096 H 2194.16 0.322859 -1.55381 0
M  V30 22097 H 2194.18 2.8783 -2.48866 0
M  V30 22098 H 2193.69 1.43547 -3.60577 0
M  V30 22099 H 2191.8 3.20929 -1.89302 0
M  V30 22100 H 2191.91 2.96714 -3.76162 0
M  V30 22101 H 2190.27 1.65223 -1.93839 0
M  V30 22102 H 2191.06 0.755445 -3.34885 0
M  V30 22103 N 2193.5 1.36626 0.785562 0
M  V30 22104 C 2194.73 1.344 1.57961 0
M  V30 22105 C 2195.15 -0.071493 1.87964 0
M  V30 22106 O 2194.51 -1.04457 1.48184 0
M  V30 22107 C 2194.56 2.17651 2.87507 0
M  V30 22108 O 2193.66 1.57165 3.81278 0
M  V30 22109 H 2193 0.459836 0.479006 0
M  V30 22110 H 2195.53 1.79962 0.973379 0
M  V30 22111 H 2195.54 2.30368 3.36741 0
M  V30 22112 H 2194.22 3.20546 2.64997 0
M  V30 22113 H 2192.79 1.53409 3.39883 0
M  V30 22114 N 2194.98 -1.01016 1.20969 0
M  V30 22115 C 2196.39 -1.56164 1.02322 0
M  V30 22116 C 2196.74 -1.91684 -0.418512 0
M  V30 22117 O 2195.87 -1.7293 -1.30093 0
M  V30 22118 C 2196.46 -2.83757 1.85114 0
M  V30 22119 C 2195.02 -3.35409 1.70815 0
M  V30 22120 C 2194.17 -2.08651 1.82647 0
M  V30 22121 H 2197.12 -0.833232 1.35066 0
M  V30 22122 H 2197.14 -3.55429 1.35833 0
M  V30 22123 H 2196.65 -2.57873 2.9004 0
M  V30 22124 H 2194.75 -3.66239 0.685528 0
M  V30 22125 H 2194.86 -4.07177 2.52475 0
M  V30 22126 H 2193.23 -2.21407 1.259 0
M  V30 22127 H 2194.01 -1.85185 2.8907 0
M  V30 22128 N 2196.46 -1.01661 -1.20428 0
M  V30 22129 C 2197.87 -0.737512 -1.71516 0
M  V30 22130 C 2198.22 0.743941 -1.81549 0
M  V30 22131 O 2197.34 1.58058 -1.47806 0
M  V30 22132 C 2197.94 -1.33212 -3.11513 0
M  V30 22133 C 2196.5 -1.10189 -3.5991 0
M  V30 22134 C 2195.64 -1.4378 -2.37113 0
M  V30 22135 H 2198.6 -1.18608 -1.05441 0
M  V30 22136 H 2198.62 -0.722701 -3.73574 0
M  V30 22137 H 2198.13 -2.41034 -3.04178 0
M  V30 22138 H 2196.23 -0.0413411 -3.72577 0
M  V30 22139 H 2196.34 -1.78195 -4.44728 0
M  V30 22140 H 2194.71 -0.856821 -2.39856 0
M  V30 22141 H 2195.49 -2.52658 -2.3242 0
M  V30 22142 N 2197.93 1.36205 -0.792844 0
M  V30 22143 C 2199.16 2.03402 -0.37886 0
M  V30 22144 C 2199.58 1.59776 1.00583 0
M  V30 22145 O 2198.93 0.788793 1.64573 0
M  V30 22146 C 2198.99 3.5885 -0.436893 0
M  V30 22147 O 2198.71 4.00886 -1.76698 0
M  V30 22148 C 2200.21 4.43298 -0.0139722 0
M  V30 22149 H 2197.43 0.652689 -0.155684 0
M  V30 22150 H 2199.97 1.74111 -1.07264 0
M  V30 22151 H 2198.13 3.86838 0.208507 0
M  V30 22152 H 2198.54 4.95489 -1.72019 0
M  V30 22153 H 2200.01 5.51899 -0.105712 0
M  V30 22154 H 2200.49 4.26732 1.03908 0
M  V30 22155 H 2201.1 4.20578 -0.631994 0
M  V30 22156 N 2199.41 0.545154 1.47871 0
M  V30 22157 C 2200.64 0.0211204 2.06889 0
M  V30 22158 C 2201.06 -1.26718 1.39957 0
M  V30 22159 O 2200.41 -1.75741 0.492067 0
M  V30 22160 C 2200.46 -0.190754 3.60996 0
M  V30 22161 O 2200.18 1.04652 4.25417 0
M  V30 22162 C 2201.69 -0.753445 4.3685 0
M  V30 22163 H 2198.91 0.0403753 0.669784 0
M  V30 22164 H 2201.45 0.755128 1.90048 0
M  V30 22165 H 2199.6 -0.874854 3.77392 0
M  V30 22166 H 2200.02 0.836702 5.17783 0
M  V30 22167 H 2201.49 -0.851043 5.454 0
M  V30 22168 H 2201.97 -1.76193 4.02309 0
M  V30 22169 H 2202.58 -0.105429 4.25169 0
M  V30 22170 N 2200.89 -1.55074 0.28101 0
M  V30 22171 C 2202.12 -2.04133 -0.337257 0
M  V30 22172 C 2202.53 -1.15915 -1.49028 0
M  V30 22173 O 2201.89 -0.180491 -1.81605 0
M  V30 22174 C 2201.94 -3.52248 -0.812644 0
M  V30 22175 O 2201.66 -4.37109 0.294464 0
M  V30 22176 C 2203.16 -4.17218 -1.49812 0
M  V30 22177 H 2200.38 -0.666665 -0.0761521 0
M  V30 22178 H 2202.93 -2.00249 0.414822 0
M  V30 22179 H 2201.08 -3.56557 -1.5148 0
M  V30 22180 H 2201.5 -5.24451 -0.0720403 0
M  V30 22181 H 2202.97 -5.22441 -1.78211 0
M  V30 22182 H 2203.45 -3.65745 -2.43161 0
M  V30 22183 H 2204.05 -4.16929 -0.839669 0
M  V30 22184 N 2202.37 -0.00838561 -1.57598 0
M  V30 22185 C 2203.6 0.685456 -1.95216 0
M  V30 22186 C 2204.01 1.6684 -0.883736 0
M  V30 22187 O 2203.37 1.81989 0.136533 0
M  V30 22188 C 2203.42 1.41001 -3.32868 0
M  V30 22189 O 2203.14 0.466475 -4.35609 0
M  V30 22190 C 2204.64 2.19759 -3.84995 0
M  V30 22191 H 2201.86 0.190381 -0.643425 0
M  V30 22192 H 2204.41 -0.0619966 -2.04406 0
M  V30 22193 H 2202.56 2.10902 -3.2496 0
M  V30 22194 H 2202.98 0.978608 -5.1529 0
M  V30 22195 H 2204.45 2.6594 -4.83715 0
M  V30 22196 H 2204.93 3.0279 -3.18142 0
M  V30 22197 H 2205.53 1.54857 -3.96105 0
M  V30 22198 N 2203.85 1.55365 0.264492 0
M  V30 22199 C 2205.08 1.80407 1.01297 0
M  V30 22200 C 2205.49 0.581654 1.79617 0
M  V30 22201 O 2204.85 -0.449437 1.76879 0
M  V30 22202 C 2204.9 3.03442 1.96482 0
M  V30 22203 O 2204.62 4.20963 1.21334 0
M  V30 22204 C 2206.12 3.41152 2.83073 0
M  V30 22205 H 2203.34 0.600767 0.298865 0
M  V30 22206 H 2205.88 2.02394 0.2927 0
M  V30 22207 H 2204.04 2.83556 2.6396 0
M  V30 22208 H 2204.45 4.90577 1.85564 0
M  V30 22209 H 2205.93 4.3039 3.45642 0
M  V30 22210 H 2206.4 2.60938 3.53282 0
M  V30 22211 H 2207.01 3.63327 2.21073 0
M  V30 22212 N 2205.33 -0.529387 1.48443 0
M  V30 22213 C 2206.55 -1.30991 1.60153 0
M  V30 22214 C 2206.97 -1.86973 0.262017 0
M  V30 22215 O 2206.33 -1.66432 -0.748776 0
M  V30 22216 C 2206.38 -2.46033 2.64858 0
M  V30 22217 O 2206.1 -1.92358 3.93612 0
M  V30 22218 C 2207.6 -3.37844 2.87013 0
M  V30 22219 H 2204.82 -0.398328 0.539978 0
M  V30 22220 H 2207.36 -0.638563 1.94275 0
M  V30 22221 H 2205.52 -3.09051 2.33594 0
M  V30 22222 H 2205.93 -2.67667 4.51059 0
M  V30 22223 H 2207.41 -4.14913 3.64076 0
M  V30 22224 H 2207.88 -3.93111 1.95859 0
M  V30 22225 H 2208.49 -2.80617 3.19584 0
M  V30 22226 N 2206.8 -1.37041 -0.778305 0
M  V30 22227 C 2208.21 -1.28525 -1.35419 0
M  V30 22228 C 2208.57 0.0700557 -1.96075 0
M  V30 22229 O 2207.69 0.971767 -1.93354 0
M  V30 22230 C 2208.29 -2.32739 -2.46207 0
M  V30 22231 C 2206.84 -2.27878 -2.99581 0
M  V30 22232 C 2205.99 -2.16921 -1.72744 0
M  V30 22233 H 2208.94 -1.47758 -0.579074 0
M  V30 22234 H 2208.96 -1.97026 -3.25517 0
M  V30 22235 H 2208.48 -3.31369 -2.0203 0
M  V30 22236 H 2206.58 -1.32751 -3.48149 0
M  V30 22237 H 2206.69 -3.21025 -3.5564 0
M  V30 22238 H 2205.05 -1.63358 -1.95413 0
M  V30 22239 H 2205.84 -3.17455 -1.30681 0
M  V30 22240 N 2208.28 1.00373 -1.21503 0
M  V30 22241 C 2209.69 1.55619 -1.03149 0
M  V30 22242 C 2210.04 1.91904 0.408341 0
M  V30 22243 O 2209.17 1.73618 1.29174 0
M  V30 22244 C 2209.76 2.82771 -1.86617 0
M  V30 22245 C 2208.32 3.34498 -1.72591 0
M  V30 22246 C 2207.47 2.0768 -1.83751 0
M  V30 22247 H 2210.42 0.826057 -1.35506 0
M  V30 22248 H 2210.44 3.54703 -1.37716 0
M  V30 22249 H 2209.95 2.56331 -2.91403 0
M  V30 22250 H 2208.05 3.65871 -0.704941 0
M  V30 22251 H 2208.17 4.05833 -2.5463 0
M  V30 22252 H 2206.53 2.20736 -1.27073 0
M  V30 22253 H 2207.31 1.8365 -2.90048 0
M  V30 22254 N 2209.76 1.02298 1.19887 0
M  V30 22255 C 2211.17 0.746598 1.71122 0
M  V30 22256 C 2211.52 -0.734303 1.81941 0
M  V30 22257 O 2210.65 -1.57272 1.48642 0
M  V30 22258 C 2211.24 1.34862 3.10802 0
M  V30 22259 C 2209.8 1.12096 3.59321 0
M  V30 22260 C 2208.95 1.45035 2.36347 0
M  V30 22261 H 2211.9 1.19165 1.04811 0
M  V30 22262 H 2211.92 0.742503 3.73185 0
M  V30 22263 H 2211.43 2.42643 3.02896 0
M  V30 22264 H 2209.53 0.0610992 3.7255 0
M  V30 22265 H 2209.65 1.80551 4.43777 0
M  V30 22266 H 2208.01 0.869529 2.39398 0
M  V30 22267 H 2208.79 2.53887 2.31076 0
M  V30 22268 N 2211.24 -1.35782 0.800057 0
M  V30 22269 C 2212.47 -2.03198 0.389642 0
M  V30 22270 C 2212.88 -1.60307 -0.997347 0
M  V30 22271 O 2212.24 -0.79751 -1.64152 0
M  V30 22272 C 2212.29 -3.58613 0.455918 0
M  V30 22273 O 2212.01 -3.99943 1.78822 0
M  V30 22274 C 2213.51 -4.43284 0.0374812 0
M  V30 22275 H 2210.73 -0.651855 0.159143 0
M  V30 22276 H 2213.27 -1.7354 1.08186 0
M  V30 22277 H 2211.43 -3.86944 -0.187989 0
M  V30 22278 H 2211.84 -4.9457 1.74645 0
M  V30 22279 H 2213.32 -5.51835 0.134979 0
M  V30 22280 H 2213.79 -4.27277 -1.01643 0
M  V30 22281 H 2214.4 -4.20237 0.654289 0
M  V30 22282 N 2212.72 -0.552988 -1.4758 0
M  V30 22283 C 2213.94 -0.0320919 -2.06875 0
M  V30 22284 C 2214.36 1.25974 -1.40627 0
M  V30 22285 O 2213.72 1.75478 -0.50138 0
M  V30 22286 C 2213.77 0.171607 -3.61092 0
M  V30 22287 O 2213.49 -1.06906 -4.24856 0
M  V30 22288 C 2214.99 0.730267 -4.37244 0
M  V30 22289 H 2212.21 -0.0439268 -0.669561 0
M  V30 22290 H 2214.75 -0.765196 -1.89644 0
M  V30 22291 H 2212.91 0.854827 -3.77851 0
M  V30 22292 H 2213.32 -0.86415 -5.17332 0
M  V30 22293 H 2214.8 0.822107 -5.45844 0
M  V30 22294 H 2215.27 1.74057 -4.03238 0
M  V30 22295 H 2215.88 0.0828795 -4.25219 0
M  V30 22296 N 2214.19 1.54923 -0.28923 0
M  V30 22297 C 2215.42 2.04309 0.326427 0
M  V30 22298 C 2215.84 1.16703 1.48411 0
M  V30 22299 O 2215.19 0.190119 1.81507 0
M  V30 22300 C 2215.24 3.52674 0.793952 0
M  V30 22301 O 2214.97 4.36947 -0.317641 0
M  V30 22302 C 2216.47 4.18007 1.47598 0
M  V30 22303 H 2213.69 0.667059 0.0726155 0
M  V30 22304 H 2216.23 2.00026 -0.425436 0
M  V30 22305 H 2214.39 3.57355 1.49587 0
M  V30 22306 H 2214.8 5.24481 0.0442264 0
M  V30 22307 H 2216.27 5.23379 1.75438 0
M  V30 22308 H 2216.75 3.67029 2.41218 0
M  V30 22309 H 2217.36 4.17368 0.817547 0
M  V30 22310 N 2215.67 0.0167433 1.57591 0
M  V30 22311 C 2217.08 -0.523803 1.79202 0
M  V30 22312 C 2217.43 -1.72982 0.925826 0
M  V30 22313 O 2216.56 -2.15992 0.13283 0
M  V30 22314 C 2217.15 -0.957034 3.25002 0
M  V30 22315 C 2215.71 -1.44277 3.47651 0
M  V30 22316 C 2214.86 -0.401709 2.74375 0
M  V30 22317 H 2217.81 0.242844 1.56831 0
M  V30 22318 H 2217.83 -1.82213 3.34034 0
M  V30 22319 H 2217.34 -0.0790733 3.88019 0
M  V30 22320 H 2215.44 -2.34107 2.8987 0
M  V30 22321 H 2215.56 -1.45869 4.56354 0
M  V30 22322 H 2213.92 -0.867079 2.39487 0
M  V30 22323 H 2214.7 0.467573 3.40101 0
M  V30 22324 N 2217.15 -1.55503 -0.256249 0
M  V30 22325 C 2218.38 -1.81278 -1.00762 0
M  V30 22326 C 2218.8 -0.592551 -1.78523 0
M  V30 22327 O 2218.16 0.458239 -1.75413 0
M  V30 22328 C 2218.21 -3.0469 -1.92864 0
M  V30 22329 O 2217.31 -2.8095 -3.01896 0
M  V30 22330 H 2216.65 -0.598669 -0.287213 0
M  V30 22331 H 2219.18 -2.02674 -0.280074 0
M  V30 22332 H 2219.19 -3.33873 -2.34505 0
M  V30 22333 H 2217.87 -3.93145 -1.35682 0
M  V30 22334 H 2216.44 -2.62909 -2.64449 0
M  V30 22335 N 2218.63 0.521507 -1.48721 0
M  V30 22336 C 2220.04 1.10334 -1.50609 0
M  V30 22337 C 2220.39 1.94182 -0.280646 0
M  V30 22338 O 2219.52 2.07581 0.61147 0
M  V30 22339 C 2220.11 2.00768 -2.72906 0
M  V30 22340 C 2218.67 2.54153 -2.77639 0
M  V30 22341 C 2217.82 1.31302 -2.44244 0
M  V30 22342 H 2220.77 0.30636 -1.55715 0
M  V30 22343 H 2220.79 2.85174 -2.51905 0
M  V30 22344 H 2220.3 1.39714 -3.62079 0
M  V30 22345 H 2218.4 3.18903 -1.92695 0
M  V30 22346 H 2218.51 2.92707 -3.79288 0
M  V30 22347 H 2216.88 1.63158 -1.9558 0
M  V30 22348 H 2217.66 0.719884 -3.35667 0
M  V30 22349 N 2220.11 1.37452 0.771027 0
M  V30 22350 C 2221.52 1.29241 1.34735 0
M  V30 22351 C 2221.87 -0.0596564 1.96109 0
M  V30 22352 O 2220.99 -0.9615 1.93866 0
M  V30 22353 C 2221.59 2.34042 2.44969 0
M  V30 22354 C 2220.15 2.29463 2.98368 0
M  V30 22355 C 2219.29 2.17834 1.71592 0
M  V30 22356 H 2222.25 1.48063 0.57123 0
M  V30 22357 H 2222.27 1.98749 3.24467 0
M  V30 22358 H 2221.78 3.32436 2.0027 0
M  V30 22359 H 2219.88 1.34595 3.4744 0
M  V30 22360 H 2219.99 3.22906 3.53933 0
M  V30 22361 H 2218.36 1.64392 1.94544 0
M  V30 22362 H 2219.14 3.18143 1.28995 0
M  V30 22363 N 2221.58 -0.997276 1.22033 0
M  V30 22364 C 2222.52 -2.084 0.929771 0
M  V30 22365 C 2223.5 -1.62114 -0.125653 0
M  V30 22366 O 2224.68 -1.88499 0.00498723 0
M  V30 22367 C 2221.81 -3.36359 0.397548 0
M  V30 22368 C 2220.85 -4.01564 1.43697 0
M  V30 22369 S 2221.69 -4.42979 3.00882 0
M  V30 22370 C 2222.84 -5.74114 2.49286 0
M  V30 22371 H 2223.07 -2.32726 1.85002 0
M  V30 22372 H 2220.61 -1.13115 1.05092 0
M  V30 22373 H 2222.57 -4.10385 0.0970567 0
M  V30 22374 H 2221.23 -3.1007 -0.501517 0
M  V30 22375 H 2220.42 -4.93687 1.01436 0
M  V30 22376 H 2220.02 -3.33844 1.68594 0
M  V30 22377 H 2222.31 -6.50238 1.90254 0
M  V30 22378 H 2223.26 -6.21197 3.39882 0
M  V30 22379 H 2223.66 -5.31305 1.90724 0
M  V30 22380 N 2223.06 -1.02932 -1.19343 0
M  V30 22381 C 2224.29 -0.745678 -1.92995 0
M  V30 22382 C 2224.71 0.695558 -1.7552 0
M  V30 22383 O 2224.06 1.47304 -1.0774 0
M  V30 22384 C 2224.11 -1.08798 -3.44739 0
M  V30 22385 O 2223.83 -2.47262 -3.61653 0
M  V30 22386 C 2225.34 -0.827206 -4.35514 0
M  V30 22387 H 2222.56 -0.272812 -0.613037 0
M  V30 22388 H 2225.1 -1.37393 -1.51471 0
M  V30 22389 H 2223.25 -0.504899 -3.84096 0
M  V30 22390 H 2223.67 -2.60023 -4.55509 0
M  V30 22391 H 2225.14 -1.11668 -5.40587 0
M  V30 22392 H 2225.62 0.238359 -4.38553 0
M  V30 22393 H 2226.23 -1.39304 -4.01839 0
M  V30 22394 N 2224.54 1.35356 -0.807246 0
M  V30 22395 C 2225.77 2.02988 -0.400413 0
M  V30 22396 C 2226.18 1.60834 0.988831 0
M  V30 22397 O 2225.54 0.806204 1.63727 0
M  V30 22398 C 2225.59 3.58367 -0.47493 0
M  V30 22399 O 2225.31 3.98989 -1.8094 0
M  V30 22400 C 2226.81 4.43258 -0.0609891 0
M  V30 22401 H 2224.03 0.651001 -0.162598 0
M  V30 22402 H 2226.58 1.72963 -1.09105 0
M  V30 22403 H 2224.73 3.87038 0.167466 0
M  V30 22404 H 2225.15 4.93637 -1.77265 0
M  V30 22405 H 2226.62 5.51756 -0.164242 0
M  V30 22406 H 2227.1 4.2781 0.993756 0
M  V30 22407 H 2227.7 4.19884 -0.676566 0
M  V30 22408 N 2226.02 0.560807 1.47284 0
M  V30 22409 C 2227.43 0.128376 1.86258 0
M  V30 22410 C 2227.78 -1.30281 1.46701 0
M  V30 22411 O 2226.91 -1.98065 0.871733 0
M  V30 22412 C 2227.5 0.2262 3.38044 0
M  V30 22413 C 2226.06 -0.151217 3.76096 0
M  V30 22414 C 2225.21 0.572131 2.71334 0
M  V30 22415 H 2228.16 0.770322 1.38751 0
M  V30 22416 H 2228.18 -0.554256 3.76442 0
M  V30 22417 H 2227.69 1.26794 3.66804 0
M  V30 22418 H 2225.79 -1.19393 3.52953 0
M  V30 22419 H 2225.9 0.209849 4.7864 0
M  V30 22420 H 2224.27 0.01481 2.54696 0
M  V30 22421 H 2225.05 1.6151 3.02935 0
M  V30 22422 N 2227.5 -1.54768 0.297442 0
M  V30 22423 C 2228.75 -1.99247 -0.313634 0
M  V30 22424 C 2229.06 -1.18945 -1.55279 0
M  V30 22425 O 2230.26 -1.53674 -2.23823 0
M  V30 22426 C 2228.72 -3.54704 -0.609345 0
M  V30 22427 C 2228.33 -4.4381 0.61127 0
M  V30 22428 C 2230.07 -4.07717 -1.18181 0
M  V30 22429 C 2227.98 -5.90694 0.288908 0
M  V30 22430 H 2226.91 -0.744233 -0.120966 0
M  V30 22431 H 2229.56 -1.78961 0.405591 0
M  V30 22432 H 2227.94 -3.70876 -1.38807 0
M  V30 22433 H 2229.12 -4.39412 1.38758 0
M  V30 22434 H 2227.43 -4.0155 1.10212 0
M  V30 22435 H 2230.03 -5.15023 -1.43718 0
M  V30 22436 H 2230.37 -3.58102 -2.12293 0
M  V30 22437 H 2230.9 -3.95074 -0.464874 0
M  V30 22438 H 2227.64 -6.4445 1.19849 0
M  V30 22439 H 2227.16 -5.98108 -0.4502 0
M  V30 22440 H 2228.84 -6.46905 -0.110819 0
M  V30 22441 N 2228.97 -0.0251005 -1.5758 0
M  V30 22442 C 2230.2 0.664712 -1.95932 0
M  V30 22443 C 2230.62 1.65893 -0.901382 0
M  V30 22444 O 2229.97 1.82123 0.117223 0
M  V30 22445 C 2230.03 1.37462 -3.34345 0
M  V30 22446 O 2229.75 0.420247 -4.3608 0
M  V30 22447 C 2231.25 2.15663 -3.87304 0
M  V30 22448 H 2228.47 0.183546 -0.645408 0
M  V30 22449 H 2231.01 -0.0836731 -2.04329 0
M  V30 22450 H 2229.17 2.07444 -3.27179 0
M  V30 22451 H 2229.58 0.9239 -5.16299 0
M  V30 22452 H 2231.05 2.60794 -4.86508 0
M  V30 22453 H 2231.53 2.99399 -3.21336 0
M  V30 22454 H 2232.14 1.50647 -3.97726 0
M  V30 22455 N 2230.45 1.55637 0.247999 0
M  V30 22456 C 2231.86 1.67868 0.817148 0
M  V30 22457 C 2232.21 0.622355 1.86068 0
M  V30 22458 O 2231.34 -0.23158 2.15157 0
M  V30 22459 C 2231.93 3.04328 1.48895 0
M  V30 22460 C 2230.49 3.18503 2.00581 0
M  V30 22461 C 2229.64 2.6374 0.856527 0
M  V30 22462 H 2232.59 1.58682 0.02383 0
M  V30 22463 H 2232.61 2.98712 2.35693 0
M  V30 22464 H 2232.12 3.81188 0.729212 0
M  V30 22465 H 2230.23 2.46465 2.79439 0
M  V30 22466 H 2230.34 4.25397 2.20395 0
M  V30 22467 H 2228.7 2.21536 1.25674 0
M  V30 22468 H 2229.49 3.43124 0.109893 0
M  V30 22469 N 2231.93 -0.513613 1.48996 0
M  V30 22470 C 2233.34 -1.09534 1.51192 0
M  V30 22471 C 2233.69 -1.94031 0.29094 0
M  V30 22472 O 2232.82 -2.07903 -0.600453 0
M  V30 22473 C 2233.41 -1.99317 2.73967 0
M  V30 22474 C 2231.97 -2.52677 2.78983 0
M  V30 22475 C 2231.12 -1.30005 2.44937 0
M  V30 22476 H 2234.07 -0.298098 1.55875 0
M  V30 22477 H 2234.09 -2.83834 2.53414 0
M  V30 22478 H 2233.6 -1.37792 3.62815 0
M  V30 22479 H 2231.7 -3.17877 1.94383 0
M  V30 22480 H 2231.82 -2.90692 3.80835 0
M  V30 22481 H 2230.18 -1.62118 1.96443 0
M  V30 22482 H 2230.96 -0.702072 3.36044 0
M  V30 22483 N 2233.41 -1.37859 -0.763727 0
M  V30 22484 C 2234.37 -1.34084 -1.85887 0
M  V30 22485 C 2235.37 -0.243305 -1.58949 0
M  V30 22486 O 2236.56 -0.499619 -1.66882 0
M  V30 22487 C 2233.69 -1.08495 -3.23174 0
M  V30 22488 H 2234.89 -2.31506 -1.90644 0
M  V30 22489 H 2232.44 -1.23004 -0.964345 0
M  V30 22490 H 2233.18 -0.116375 -3.24091 0
M  V30 22491 H 2232.96 -1.87946 -3.4412 0
M  V30 22492 H 2234.45 -1.08524 -4.03252 0
M  V30 22493 N 2234.89 0.990791 -1.22561 0
M  V30 22494 C 2236.11 1.77144 -1.07865 0
M  V30 22495 C 2236.54 1.84497 0.366414 0
M  V30 22496 O 2235.9 1.29898 1.26476 0
M  V30 22497 C 2235.94 3.18178 -1.69691 0
M  V30 22498 O 2235.05 4.01261 -0.952017 0
M  V30 22499 H 2234.39 0.545404 -0.378722 0
M  V30 22500 H 2236.92 1.24447 -1.62401 0
M  V30 22501 H 2236.93 3.68799 -1.74502 0
M  V30 22502 H 2235.6 3.12141 -2.74847 0
M  V30 22503 H 2234.18 3.5979 -0.980075 0
M  V30 22504 N 2236.37 1.03564 1.18795 0
M  V30 22505 C 2237.59 0.755903 1.92597 0
M  V30 22506 C 2238.01 -0.68624 1.75887 0
M  V30 22507 O 2237.37 -1.4673 1.08519 0
M  V30 22508 C 2237.42 1.10625 3.44158 0
M  V30 22509 O 2237.14 2.49177 3.60337 0
M  V30 22510 C 2238.64 0.850291 4.35069 0
M  V30 22511 H 2235.86 0.276059 0.611582 0
M  V30 22512 H 2238.4 1.38194 1.5074 0
M  V30 22513 H 2236.56 0.525262 3.83823 0
M  V30 22514 H 2236.97 2.62435 4.54124 0
M  V30 22515 H 2238.45 1.14533 5.39987 0
M  V30 22516 H 2238.92 -0.215098 4.38673 0
M  V30 22517 H 2239.53 1.41433 4.01094 0
M  V30 22518 N 2237.84 -1.34926 0.814413 0
M  V30 22519 C 2239.07 -2.02773 0.411172 0
M  V30 22520 C 2239.49 -1.61356 -0.980288 0
M  V30 22521 O 2238.84 -0.814876 -1.63297 0
M  V30 22522 C 2238.89 -3.5811 0.493928 0
M  V30 22523 O 2238.62 -3.98024 1.83054 0
M  V30 22524 C 2240.12 -4.43219 0.0844953 0
M  V30 22525 H 2237.34 -0.65013 0.166048 0
M  V30 22526 H 2239.88 -1.72382 1.10021 0
M  V30 22527 H 2238.04 -3.87121 -0.146938 0
M  V30 22528 H 2238.45 -4.9269 1.7988 0
M  V30 22529 H 2239.92 -5.51661 0.193501 0
M  V30 22530 H 2240.4 -4.28331 -0.971054 0
M  V30 22531 H 2241.01 -4.19519 0.698824 0
M  V30 22532 N 2239.32 -0.56861 -1.46985 0
M  V30 22533 C 2240.55 -0.054032 -2.06829 0
M  V30 22534 C 2240.96 1.24475 -1.41956 0
M  V30 22535 O 2240.32 1.74936 -0.519964 0
M  V30 22536 C 2240.37 0.133298 -3.61254 0
M  V30 22537 O 2240.09 -1.11406 -4.23698 0
M  V30 22538 C 2241.59 0.68385 -4.37994 0
M  V30 22539 H 2238.81 -0.0510259 -0.669057 0
M  V30 22540 H 2241.36 -0.785268 -1.88822 0
M  V30 22541 H 2239.51 0.814703 -3.78737 0
M  V30 22542 H 2239.93 -0.918971 -5.16387 0
M  V30 22543 H 2241.4 0.764167 -5.46685 0
M  V30 22544 H 2241.88 1.6977 -4.05061 0
M  V30 22545 H 2242.48 0.0377747 -4.25283 0
M  V30 22546 N 2240.8 1.54608 -0.305646 0
M  V30 22547 C 2241.73 2.2665 0.561442 0
M  V30 22548 C 2242.71 1.26774 1.13412 0
M  V30 22549 O 2243.9 1.55555 1.1626 0
M  V30 22550 C 2241.03 3.01078 1.73116 0
M  V30 22551 C 2239.98 4.0814 1.28863 0
M  V30 22552 C 2239.31 4.70309 2.54388 0
M  V30 22553 C 2240.61 5.20637 0.416487 0
M  V30 22554 H 2242.3 2.99374 -0.0394428 0
M  V30 22555 H 2239.85 1.43986 -0.0204103 0
M  V30 22556 H 2241.8 3.50199 2.34389 0
M  V30 22557 H 2240.52 2.2594 2.35836 0
M  V30 22558 H 2239.18 3.59876 0.698928 0
M  V30 22559 H 2238.83 3.91806 3.15432 0
M  V30 22560 H 2238.53 5.42618 2.25476 0
M  V30 22561 H 2240.05 5.22196 3.16455 0
M  V30 22562 H 2241.47 5.65624 0.935017 0
M  V30 22563 H 2239.86 5.99693 0.220941 0
M  V30 22564 H 2240.93 4.81687 -0.557246 0
M  V30 22565 N 2242.28 0.033457 1.57564 0
M  V30 22566 C 2243.69 -0.504766 1.79747 0
M  V30 22567 C 2244.04 -1.71991 0.944121 0
M  V30 22568 O 2243.16 -2.15839 0.155732 0
M  V30 22569 C 2243.76 -0.922509 3.25999 0
M  V30 22570 C 2242.32 -1.40582 3.49161 0
M  V30 22571 C 2241.47 -0.372585 2.74786 0
M  V30 22572 H 2244.42 0.259464 1.56565 0
M  V30 22573 H 2244.44 -1.7866 3.35948 0
M  V30 22574 H 2243.95 -0.0379142 3.88081 0
M  V30 22575 H 2242.05 -2.3102 2.92336 0
M  V30 22576 H 2242.16 -1.4102 4.57876 0
M  V30 22577 H 2240.53 -0.84163 2.40393 0
M  V30 22578 H 2241.31 0.503619 3.39586 0
M  V30 22579 N 2243.76 -1.55766 -0.239741 0
M  V30 22580 C 2245.17 -1.68299 -0.808234 0
M  V30 22581 C 2245.52 -0.632214 -1.85735 0
M  V30 22582 O 2244.64 0.220166 -2.15277 0
M  V30 22583 C 2245.24 -3.05114 -1.47279 0
M  V30 22584 C 2243.8 -3.19562 -1.98889 0
M  V30 22585 C 2242.94 -2.64191 -0.842528 0
M  V30 22586 H 2245.89 -1.58693 -0.0154143 0
M  V30 22587 H 2245.92 -2.99958 -2.34106 0
M  V30 22588 H 2245.43 -3.81569 -0.708986 0
M  V30 22589 H 2243.53 -2.47943 -2.78128 0
M  V30 22590 H 2243.64 -4.2656 -2.18136 0
M  V30 22591 H 2242.01 -2.22199 -1.24497 0
M  V30 22592 H 2242.79 -3.43178 -0.0916949 0
M  V30 22593 N 2245.23 0.505704 -1.49266 0
M  V30 22594 C 2246.46 1.28426 -1.62217 0
M  V30 22595 C 2246.88 1.86533 -0.29173 0
M  V30 22596 O 2246.23 1.67602 0.722204 0
M  V30 22597 C 2246.28 2.41788 -2.68739 0
M  V30 22598 O 2246.01 1.86071 -3.96622 0
M  V30 22599 C 2247.51 3.33235 -2.92352 0
M  V30 22600 H 2244.73 0.389687 -0.546246 0
M  V30 22601 H 2247.27 0.607575 -1.95266 0
M  V30 22602 H 2245.43 3.05296 -2.38481 0
M  V30 22603 H 2245.84 2.60457 -4.55261 0
M  V30 22604 H 2247.31 4.09068 -3.70631 0
M  V30 22605 H 2247.79 3.89945 -2.02088 0
M  V30 22606 H 2248.4 2.75498 -3.24008 0
M  V30 22607 N 2246.71 1.38262 0.756405 0
M  V30 22608 C 2247.94 1.37542 1.54563 0
M  V30 22609 C 2248.36 -0.0354999 1.88767 0
M  V30 22610 O 2247.71 -1.00137 1.52574 0
M  V30 22611 C 2247.76 2.22838 2.8465 0
M  V30 22612 O 2247.48 3.58434 2.51906 0
M  V30 22613 C 2248.99 2.30268 3.78803 0
M  V30 22614 H 2246.21 0.470561 0.478344 0
M  V30 22615 H 2248.75 1.81804 0.936349 0
M  V30 22616 H 2246.9 1.82046 3.41962 0
M  V30 22617 H 2247.32 4.03314 3.35318 0
M  V30 22618 H 2248.79 2.94241 4.6704 0
M  V30 22619 H 2249.27 1.31552 4.19035 0
M  V30 22620 H 2249.88 2.71439 3.27416 0
M  V30 22621 N 2248.19 -0.984277 1.23084 0
M  V30 22622 C 2249.42 -1.76035 1.08717 0
M  V30 22623 C 2249.83 -1.85304 -0.361659 0
M  V30 22624 O 2249.19 -1.32941 -1.25032 0
M  V30 22625 C 2249.24 -3.1892 1.70212 0
M  V30 22626 O 2248.96 -3.10138 3.09428 0
M  V30 22627 C 2250.46 -4.12939 1.61235 0
M  V30 22628 H 2247.68 -0.552565 0.380674 0
M  V30 22629 H 2250.23 -1.23686 1.62856 0
M  V30 22630 H 2248.38 -3.68308 1.20116 0
M  V30 22631 H 2248.8 -4.00059 3.39195 0
M  V30 22632 H 2250.27 -5.10916 2.08971 0
M  V30 22633 H 2250.75 -4.3548 0.570452 0
M  V30 22634 H 2251.35 -3.69452 2.10678 0
M  V30 22635 N 2249.67 -1.04192 -1.18244 0
M  V30 22636 C 2251.08 -0.773728 -1.69913 0
M  V30 22637 C 2251.43 0.705265 -1.83086 0
M  V30 22638 O 2250.56 1.54887 -1.51125 0
M  V30 22639 C 2251.15 -1.3979 -3.08617 0
M  V30 22640 C 2249.71 -1.17798 -3.57492 0
M  V30 22641 C 2248.86 -1.48777 -2.3401 0
M  V30 22642 H 2251.81 -1.20818 -1.02902 0
M  V30 22643 H 2251.83 -0.801779 -3.71957 0
M  V30 22644 H 2251.34 -2.47432 -2.98997 0
M  V30 22645 H 2249.44 -0.120361 -3.72406 0
M  V30 22646 H 2249.55 -1.87589 -4.40848 0
M  V30 22647 H 2247.92 -0.907505 -2.37984 0
M  V30 22648 H 2248.7 -2.57531 -2.27008 0
M  V30 22649 N 2251.15 1.34492 -0.821557 0
M  V30 22650 C 2252.37 2.03084 -0.420909 0
M  V30 22651 C 2252.8 1.61467 0.964887 0
M  V30 22652 O 2252.15 0.798636 1.62762 0
M  V30 22653 C 2252.2 3.56692 -0.529477 0
M  V30 22654 O 2251.31 4.09924 0.45123 0
M  V30 22655 H 2250.65 0.640932 -0.173501 0
M  V30 22656 H 2253.18 1.71769 -1.1116 0
M  V30 22657 H 2253.19 4.05987 -0.404742 0
M  V30 22658 H 2251.86 3.8633 -1.54021 0
M  V30 22659 H 2250.44 3.71806 0.285493 0
M  V30 22660 N 2252.62 0.576397 1.46681 0
M  V30 22661 C 2254.04 0.148124 1.86111 0
M  V30 22662 C 2254.39 -1.28718 1.48075 0
M  V30 22663 O 2253.51 -1.97129 0.892691 0
M  V30 22664 C 2254.11 0.262041 3.37785 0
M  V30 22665 C 2252.67 -0.111318 3.76235 0
M  V30 22666 C 2251.81 0.600878 2.70712 0
M  V30 22667 H 2254.76 0.784995 1.37926 0
M  V30 22668 H 2254.78 -0.514298 3.77008 0
M  V30 22669 H 2254.3 1.30677 3.65438 0
M  V30 22670 H 2252.4 -1.15643 3.542 0
M  V30 22671 H 2252.51 0.260604 4.78391 0
M  V30 22672 H 2250.87 0.0418231 2.54666 0
M  V30 22673 H 2251.66 1.64714 3.01205 0
M  V30 22674 N 2254.1 -1.54444 0.313841 0
M  V30 22675 C 2255.51 -1.85867 -0.176211 0
M  V30 22676 C 2255.86 -1.23563 -1.52402 0
M  V30 22677 O 2254.99 -0.538053 -2.09604 0
M  V30 22678 C 2255.58 -3.37223 -0.32651 0
M  V30 22679 C 2254.14 -3.68631 -0.760781 0
M  V30 22680 C 2253.29 -2.77026 0.123296 0
M  V30 22681 H 2256.24 -1.4943 0.534444 0
M  V30 22682 H 2256.26 -3.62418 -1.15902 0
M  V30 22683 H 2255.77 -3.8254 0.654598 0
M  V30 22684 H 2253.88 -3.28841 -1.75198 0
M  V30 22685 H 2253.99 -4.75682 -0.571269 0
M  V30 22686 H 2252.35 -2.51547 -0.399552 0
M  V30 22687 H 2253.14 -3.25166 1.10099 0
M  V30 22688 N 2255.58 -0.0418125 -1.57545 0
M  V30 22689 C 2256.81 0.643894 -1.96626 0
M  V30 22690 C 2257.22 1.64928 -0.918926 0
M  V30 22691 O 2256.58 1.82237 0.0979003 0
M  V30 22692 C 2256.63 1.33908 -3.35784 0
M  V30 22693 O 2256.35 0.373971 -4.36501 0
M  V30 22694 C 2257.85 2.11543 -3.8957 0
M  V30 22695 H 2255.07 0.17669 -0.647319 0
M  V30 22696 H 2257.62 -0.10534 -2.04229 0
M  V30 22697 H 2255.77 2.03962 -3.2936 0
M  V30 22698 H 2256.19 0.869088 -5.1725 0
M  V30 22699 H 2257.66 2.5562 -4.89247 0
M  V30 22700 H 2258.14 2.95974 -3.24493 0
M  V30 22701 H 2258.74 1.4642 -3.99301 0
M  V30 22702 N 2257.06 1.55891 0.231477 0
M  V30 22703 C 2258.29 1.82515 0.974473 0
M  V30 22704 C 2258.7 0.619622 1.78343 0
M  V30 22705 O 2258.06 -0.411817 1.77793 0
M  V30 22706 C 2258.11 3.07542 1.90001 0
M  V30 22707 O 2257.83 4.23442 1.12377 0
M  V30 22708 C 2259.33 3.4708 2.75773 0
M  V30 22709 H 2256.55 0.606971 0.286054 0
M  V30 22710 H 2259.1 2.0297 0.249703 0
M  V30 22711 H 2257.25 2.89091 2.57886 0
M  V30 22712 H 2257.66 4.94403 1.75117 0
M  V30 22713 H 2259.14 4.37625 3.36435 0
M  V30 22714 H 2259.62 2.68373 3.47667 0
M  V30 22715 H 2260.22 3.67935 2.13317 0
M  V30 22716 N 2258.54 -0.497781 1.49532 0
M  V30 22717 C 2259.76 -1.27564 1.62896 0
M  V30 22718 C 2260.18 -1.86375 0.301618 0
M  V30 22719 O 2259.54 -1.67983 -0.713305 0
M  V30 22720 C 2259.59 -2.4036 2.70018 0
M  V30 22721 O 2259.31 -1.83965 3.97603 0
M  V30 22722 C 2260.81 -3.3168 2.94115 0
M  V30 22723 H 2258.03 -0.386785 0.548305 0
M  V30 22724 H 2260.57 -0.597211 1.95585 0
M  V30 22725 H 2258.73 -3.04027 2.40097 0
M  V30 22726 H 2259.14 -2.58039 4.56635 0
M  V30 22727 H 2260.62 -4.07097 3.72795 0
M  V30 22728 H 2261.09 -3.88868 2.04153 0
M  V30 22729 H 2261.7 -2.73775 3.25464 0
M  V30 22730 N 2260.01 -1.38661 -0.749062 0
M  V30 22731 C 2261.24 -1.3836 -1.53831 0
M  V30 22732 C 2261.66 0.0254887 -1.88783 0
M  V30 22733 O 2261.01 0.993265 -1.53103 0
M  V30 22734 C 2261.07 -2.24345 -2.83464 0
M  V30 22735 O 2260.79 -3.59765 -2.50002 0
M  V30 22736 C 2262.29 -2.32274 -3.77576 0
M  V30 22737 H 2259.51 -0.473091 -0.475842 0
M  V30 22738 H 2262.05 -1.82298 -0.926694 0
M  V30 22739 H 2260.21 -1.83857 -3.40992 0
M  V30 22740 H 2260.62 -4.05086 -3.33174 0
M  V30 22741 H 2262.09 -2.96714 -4.65473 0
M  V30 22742 H 2262.57 -1.33772 -4.18332 0
M  V30 22743 H 2263.18 -2.73171 -3.25972 0
M  V30 22744 N 2261.49 0.977736 -1.23605 0
M  V30 22745 C 2262.72 1.75456 -1.09649 0
M  V30 22746 C 2263.14 1.85493 0.351826 0
M  V30 22747 O 2262.49 1.33602 1.24325 0
M  V30 22748 C 2262.54 3.18013 -1.71901 0
M  V30 22749 O 2262.27 3.08493 -3.11069 0
M  V30 22750 C 2263.77 4.12078 -1.63422 0
M  V30 22751 H 2260.99 0.550538 -0.383599 0
M  V30 22752 H 2263.53 1.22821 -1.63509 0
M  V30 22753 H 2261.69 3.67666 -1.22067 0
M  V30 22754 H 2262.1 3.98254 -3.41312 0
M  V30 22755 H 2263.57 5.098 -2.11678 0
M  V30 22756 H 2264.05 4.35171 -0.593538 0
M  V30 22757 H 2264.66 3.6833 -2.12634 0
M  V30 22758 N 2262.97 1.04818 1.1769 0
M  V30 22759 C 2264.2 0.776288 1.91785 0
M  V30 22760 C 2264.61 -0.667546 1.76605 0
M  V30 22761 O 2263.97 -1.45571 1.1007 0
M  V30 22762 C 2264.02 1.14269 3.42965 0
M  V30 22763 O 2263.74 2.52984 3.57674 0
M  V30 22764 C 2265.24 0.896388 4.34143 0
M  V30 22765 H 2262.46 0.28253 0.60862 0
M  V30 22766 H 2265.01 1.39785 1.49266 0
M  V30 22767 H 2263.16 0.565942 3.83244 0
M  V30 22768 H 2263.58 2.67236 4.51315 0
M  V30 22769 H 2265.05 1.20254 5.38742 0
M  V30 22770 H 2265.53 -0.168559 4.38876 0
M  V30 22771 H 2266.13 1.45679 3.99572 0
M  V30 22772 N 2264.45 -1.34055 0.828678 0
M  V30 22773 C 2265.86 -1.80489 0.477566 0
M  V30 22774 C 2266.21 -1.68651 -1.00256 0
M  V30 22775 O 2265.34 -1.22985 -1.78055 0
M  V30 22776 C 2265.93 -3.27701 0.860075 0
M  V30 22777 C 2264.49 -3.72192 0.56125 0
M  V30 22778 C 2263.64 -2.55661 1.0739 0
M  V30 22779 H 2266.59 -1.2172 1.01832 0
M  V30 22780 H 2266.61 -3.80137 0.166105 0
M  V30 22781 H 2266.12 -3.36285 1.93737 0
M  V30 22782 H 2264.22 -3.69143 -0.5064 0
M  V30 22783 H 2264.34 -4.6608 1.10934 0
M  V30 22784 H 2262.7 -2.4984 0.495193 0
M  V30 22785 H 2263.48 -2.67012 2.15776 0
M  V30 22786 N 2265.93 -0.584167 -1.46374 0
M  V30 22787 C 2267.34 -0.157992 -1.8603 0
M  V30 22788 C 2267.69 1.27931 -1.48755 0
M  V30 22789 O 2266.81 1.96653 -0.903133 0
M  V30 22790 C 2267.41 -0.279951 -3.37641 0
M  V30 22791 C 2265.97 0.0913639 -3.76289 0
M  V30 22792 C 2265.12 -0.615226 -2.70389 0
M  V30 22793 H 2268.07 -0.792298 -1.37508 0
M  V30 22794 H 2268.09 0.494297 -3.77276 0
M  V30 22795 H 2267.6 -1.32614 -3.6474 0
M  V30 22796 H 2265.7 1.13763 -3.54808 0
M  V30 22797 H 2265.81 -0.28597 -4.78246 0
M  V30 22798 H 2264.18 -0.055328 -2.5464 0
M  V30 22799 H 2264.96 -1.66309 -3.00327 0
M  V30 22800 N 2267.41 1.54275 -0.322027 0
M  V30 22801 C 2268.82 1.85957 0.166351 0
M  V30 22802 C 2269.17 1.2437 1.51745 0
M  V30 22803 O 2268.29 0.549161 2.09316 0
M  V30 22804 C 2268.89 3.37391 0.308622 0
M  V30 22805 C 2267.45 3.6903 0.741221 0
M  V30 22806 C 2266.59 2.76956 -0.137985 0
M  V30 22807 H 2269.54 1.49145 -0.542361 0
M  V30 22808 H 2269.57 3.63028 1.13978 0
M  V30 22809 H 2269.08 3.82187 -0.674876 0
M  V30 22810 H 2267.18 3.29765 1.73452 0
M  V30 22811 H 2267.29 4.75978 0.546035 0
M  V30 22812 H 2265.66 2.51755 0.386207 0
M  V30 22813 H 2266.44 3.24578 -1.11822 0
M  V30 22814 N 2268.88 0.0501669 1.5752 0
M  V30 22815 C 2270.11 -0.633457 1.96964 0
M  V30 22816 C 2270.53 -1.64438 0.92766 0
M  V30 22817 O 2269.88 -1.82287 -0.0882344 0
M  V30 22818 C 2269.93 -1.32126 3.36489 0
M  V30 22819 O 2269.66 -0.350817 4.36693 0
M  V30 22820 C 2271.16 -2.09474 3.90686 0
M  V30 22821 H 2268.38 -0.173255 0.648247 0
M  V30 22822 H 2270.92 0.116169 2.0417 0
M  V30 22823 H 2269.08 -2.02212 3.30437 0
M  V30 22824 H 2269.49 -0.841644 5.17703 0
M  V30 22825 H 2270.96 -2.53021 4.90596 0
M  V30 22826 H 2271.44 -2.94249 3.26059 0
M  V30 22827 H 2272.05 -1.443 4.00072 0
M  V30 22828 N 2270.36 -1.56011 -0.223207 0
M  V30 22829 C 2271.59 -1.83029 -0.96478 0
M  V30 22830 C 2272 -0.629072 -1.78012 0
M  V30 22831 O 2271.36 0.402382 -1.78009 0
M  V30 22832 C 2271.41 -3.08545 -1.88368 0
M  V30 22833 O 2271.13 -4.24032 -1.1013 0
M  V30 22834 C 2272.63 -3.48537 -2.73928 0
M  V30 22835 H 2269.85 -0.60848 -0.282831 0
M  V30 22836 H 2272.4 -2.03099 -0.238936 0
M  V30 22837 H 2270.55 -2.90455 -2.56349 0
M  V30 22838 H 2270.97 -4.95325 -1.72492 0
M  V30 22839 H 2272.44 -4.39403 -3.3411 0
M  V30 22840 H 2272.92 -2.70213 -3.46239 0
M  V30 22841 H 2273.52 -3.69061 -2.11362 0
M  V30 22842 N 2271.84 0.489844 -1.49794 0
M  V30 22843 C 2273.07 1.26699 -1.6357 0
M  V30 22844 C 2273.48 1.86213 -0.311498 0
M  V30 22845 O 2272.84 1.68359 0.704386 0
M  V30 22846 C 2272.89 2.38924 -2.71289 0
M  V30 22847 O 2272.61 1.81854 -3.98573 0
M  V30 22848 C 2274.11 3.30115 -2.9587 0
M  V30 22849 H 2271.33 0.383871 -0.550349 0
M  V30 22850 H 2273.88 0.58683 -1.95899 0
M  V30 22851 H 2272.03 3.02749 -2.41706 0
M  V30 22852 H 2272.45 2.55614 -4.57997 0
M  V30 22853 H 2273.92 4.05114 -3.74948 0
M  V30 22854 H 2274.4 3.87779 -2.06213 0
M  V30 22855 H 2275 2.72046 -3.26912 0
M  V30 22856 N 2273.32 1.39056 0.741698 0
M  V30 22857 C 2274.73 1.3207 1.31963 0
M  V30 22858 C 2275.08 -0.0180453 1.96192 0
M  V30 22859 O 2274.2 -0.920162 1.95862 0
M  V30 22860 C 2274.8 2.39185 2.3995 0
M  V30 22861 C 2273.36 2.35741 2.93434 0
M  V30 22862 C 2272.51 2.21425 1.66932 0
M  V30 22863 H 2275.46 1.49241 0.539695 0
M  V30 22864 H 2275.48 2.05587 3.20178 0
M  V30 22865 H 2274.99 3.36609 1.93174 0
M  V30 22866 H 2273.09 1.41935 3.44507 0
M  V30 22867 H 2273.2 3.30341 3.47004 0
M  V30 22868 H 2271.57 1.68481 1.91014 0
M  V30 22869 H 2272.35 3.20808 1.22218 0
M  V30 22870 N 2274.8 -0.971167 1.24121 0
M  V30 22871 C 2276.02 -1.75405 1.1067 0
M  V30 22872 C 2276.45 -1.85056 -0.337016 0
M  V30 22873 O 2275.8 -1.31894 -1.24393 0
M  V30 22874 C 2275.85 -3.15438 1.74732 0
M  V30 22875 O 2274.96 -3.99696 1.01573 0
M  V30 22876 H 2274.3 -0.53931 0.387351 0
M  V30 22877 H 2276.83 -1.21847 1.6436 0
M  V30 22878 H 2276.84 -3.65976 1.80348 0
M  V30 22879 H 2275.51 -3.07729 2.79778 0
M  V30 22880 H 2274.09 -3.58185 1.03719 0
M  V30 22881 N 2276.27 -1.05441 -1.17133 0
M  V30 22882 C 2277.69 -0.791706 -1.69083 0
M  V30 22883 C 2278.04 0.685806 -1.83824 0
M  V30 22884 O 2277.16 1.53276 -1.5276 0
M  V30 22885 C 2277.76 -1.43055 -3.07117 0
M  V30 22886 C 2276.32 -1.21583 -3.56222 0
M  V30 22887 C 2275.46 -1.51251 -2.32419 0
M  V30 22888 H 2278.41 -1.21902 -1.01615 0
M  V30 22889 H 2278.43 -0.841185 -3.71085 0
M  V30 22890 H 2277.95 -2.50589 -2.96356 0
M  V30 22891 H 2276.05 -0.159853 -3.72257 0
M  V30 22892 H 2276.16 -1.92254 -4.38834 0
M  V30 22893 H 2274.52 -0.932695 -2.37008 0
M  V30 22894 H 2275.31 -2.59924 -2.24264 0
M  V30 22895 N 2277.75 1.33613 -0.835776 0
M  V30 22896 C 2279.16 1.80233 -0.487131 0
M  V30 22897 C 2279.51 1.69181 0.993597 0
M  V30 22898 O 2278.64 1.23927 1.77401 0
M  V30 22899 C 2279.23 3.27241 -0.877442 0
M  V30 22900 C 2277.79 3.71889 -0.580981 0
M  V30 22901 C 2276.94 2.55088 -1.08744 0
M  V30 22902 H 2279.89 1.21179 -1.02476 0
M  V30 22903 H 2279.91 3.80044 -0.186262 0
M  V30 22904 H 2279.42 3.35253 -1.95518 0
M  V30 22905 H 2277.53 3.69406 0.486817 0
M  V30 22906 H 2277.64 4.65485 -1.13405 0
M  V30 22907 H 2276 2.49574 -0.508436 0
M  V30 22908 H 2276.79 2.65864 -2.17189 0
M  V30 22909 N 2279.23 0.591922 1.46062 0
M  V30 22910 C 2280.46 0.0869299 2.06717 0
M  V30 22911 C 2280.87 -1.22201 1.43918 0
M  V30 22912 O 2280.23 -1.74087 0.547729 0
M  V30 22913 C 2280.28 -0.0758089 3.61421 0
M  V30 22914 O 2280 1.18133 4.21872 0
M  V30 22915 C 2281.5 -0.614083 4.39026 0
M  V30 22916 H 2278.72 0.0616635 0.668161 0
M  V30 22917 H 2281.27 0.815208 1.87549 0
M  V30 22918 H 2279.42 -0.754346 3.79985 0
M  V30 22919 H 2279.84 1.00101 5.14859 0
M  V30 22920 H 2281.31 -0.677097 5.47832 0
M  V30 22921 H 2281.79 -1.63305 4.07711 0
M  V30 22922 H 2282.39 0.029889 4.25289 0
M  V30 22923 N 2280.71 -1.54102 0.330204 0
M  V30 22924 C 2281.94 -2.05102 -0.272143 0
M  V30 22925 C 2282.35 -1.20597 -1.45264 0
M  V30 22926 O 2281.71 -0.238175 -1.80939 0
M  V30 22927 C 2281.76 -3.54655 -0.700168 0
M  V30 22928 O 2281.48 -4.35951 0.433378 0
M  V30 22929 C 2282.98 -4.21773 -1.36463 0
M  V30 22930 H 2280.2 -0.66875 -0.0549041 0
M  V30 22931 H 2282.75 -1.98827 0.47832 0
M  V30 22932 H 2280.9 -3.61195 -1.40059 0
M  V30 22933 H 2281.31 -5.24414 0.0948461 0
M  V30 22934 H 2282.79 -5.27846 -1.615 0
M  V30 22935 H 2283.27 -3.73296 -2.31402 0
M  V30 22936 H 2283.87 -4.19389 -0.706601 0
M  V30 22937 N 2282.19 -0.0585199 -1.57491 0
M  V30 22938 C 2283.41 0.623003 -1.97297 0
M  V30 22939 C 2283.83 1.63944 -0.936367 0
M  V30 22940 O 2283.19 1.82331 0.0785661 0
M  V30 22941 C 2283.24 1.3034 -3.37185 0
M  V30 22942 O 2282.96 0.327653 -4.36873 0
M  V30 22943 C 2284.46 2.07399 -3.91791 0
M  V30 22944 H 2281.68 0.169815 -0.649156 0
M  V30 22945 H 2284.22 -0.126995 -2.04105 0
M  V30 22946 H 2282.38 2.00457 -3.31505 0
M  V30 22947 H 2282.79 0.814178 -5.18142 0
M  V30 22948 H 2284.27 2.50416 -4.91931 0
M  V30 22949 H 2284.74 2.92516 -3.27614 0
M  V30 22950 H 2285.35 1.42177 -4.00831 0
M  V30 22951 N 2283.66 1.56128 0.21493 0
M  V30 22952 C 2285.08 1.69563 0.781357 0
M  V30 22953 C 2285.43 0.661682 1.84706 0
M  V30 22954 O 2284.55 -0.18589 2.156 0
M  V30 22955 C 2285.15 3.07418 1.42406 0
M  V30 22956 C 2283.71 3.22686 1.9378 0
M  V30 22957 C 2282.85 2.65498 0.800391 0
M  V30 22958 H 2285.8 1.58697 -0.00983423 0
M  V30 22959 H 2285.82 3.03644 2.29304 0
M  V30 22960 H 2285.34 3.82649 0.648192 0
M  V30 22961 H 2283.44 2.52336 2.74148 0
M  V30 22962 H 2283.55 4.29976 2.11322 0
M  V30 22963 H 2281.91 2.24152 1.20946 0
M  V30 22964 H 2282.7 3.4328 0.0370867 0
M  V30 22965 N 2285.14 -0.481893 1.50052 0
M  V30 22966 C 2286.39 -1.23147 1.59743 0
M  V30 22967 C 2286.7 -1.93314 0.298197 0
M  V30 22968 O 2287.91 -2.70115 0.273883 0
M  V30 22969 C 2286.37 -2.23703 2.8193 0
M  V30 22970 C 2285.97 -1.59389 4.18688 0
M  V30 22971 C 2287.72 -2.9937 3.00962 0
M  V30 22972 C 2285.63 -2.58168 5.32074 0
M  V30 22973 H 2284.56 -0.46333 0.594846 0
M  V30 22974 H 2287.21 -0.503138 1.76467 0
M  V30 22975 H 2285.59 -2.99782 2.58741 0
M  V30 22976 H 2286.76 -0.891732 4.52089 0
M  V30 22977 H 2285.08 -0.960432 4.05172 0
M  V30 22978 H 2287.67 -3.73277 3.82843 0
M  V30 22979 H 2288.02 -3.58119 2.12265 0
M  V30 22980 H 2288.55 -2.30406 3.24281 0
M  V30 22981 H 2285.29 -2.04173 6.22891 0
M  V30 22982 H 2284.81 -3.26568 5.03104 0
M  V30 22983 H 2286.49 -3.20216 5.62202 0
M  V30 22984 N 2286.62 -1.39448 -0.734313 0
M  V30 22985 C 2287.85 -1.39984 -1.52355 0
M  V30 22986 C 2288.26 0.00546432 -1.88799 0
M  V30 22987 O 2287.62 0.976971 -1.54148 0
M  V30 22988 C 2287.67 -2.27338 -2.81068 0
M  V30 22989 O 2287.39 -3.62396 -2.46172 0
M  V30 22990 C 2288.89 -2.36265 -3.75092 0
M  V30 22991 H 2286.11 -0.478112 -0.470798 0
M  V30 22992 H 2288.66 -1.83271 -0.907307 0
M  V30 22993 H 2286.81 -1.87463 -3.39023 0
M  V30 22994 H 2287.23 -4.08597 -3.28859 0
M  V30 22995 H 2288.7 -3.01634 -4.623 0
M  V30 22996 H 2289.18 -1.38202 -4.1689 0
M  V30 22997 H 2289.78 -2.76613 -3.23056 0
M  V30 22998 N 2288.1 0.964571 -1.24635 0
M  V30 22999 C 2289.51 1.52258 -1.08048 0
M  V30 23000 C 2289.86 1.93106 0.347082 0
M  V30 23001 O 2288.99 1.77639 1.23585 0
M  V30 23002 C 2289.58 2.76691 -1.95518 0
M  V30 23003 C 2288.14 3.28838 -1.83146 0
M  V30 23004 C 2287.29 2.01729 -1.90265 0
M  V30 23005 H 2290.24 0.782529 -1.38066 0
M  V30 23006 H 2290.26 3.50143 -1.48931 0
M  V30 23007 H 2289.77 2.46931 -2.99411 0
M  V30 23008 H 2287.87 3.63443 -0.820983 0
M  V30 23009 H 2287.98 3.97526 -2.67413 0
M  V30 23010 H 2286.35 2.16582 -1.34031 0
M  V30 23011 H 2287.13 1.74329 -2.95743 0
M  V30 23012 N 2289.58 1.0606 1.16572 0
M  V30 23013 C 2290.99 0.800661 1.6866 0
M  V30 23014 C 2291.34 -0.676048 1.84185 0
M  V30 23015 O 2290.46 -1.52464 1.5357 0
M  V30 23016 C 2291.06 1.44682 3.06354 0
M  V30 23017 C 2289.62 1.23471 3.55573 0
M  V30 23018 C 2288.76 1.52481 2.31613 0
M  V30 23019 H 2291.72 1.22439 1.00967 0
M  V30 23020 H 2291.74 0.860853 3.70634 0
M  V30 23021 H 2291.25 2.52157 2.95023 0
M  V30 23022 H 2289.35 0.179592 3.72167 0
M  V30 23023 H 2289.46 1.94578 4.37808 0
M  V30 23024 H 2287.83 0.945251 2.3651 0
M  V30 23025 H 2288.61 2.6111 2.22882 0
M  V30 23026 N 2291.06 -1.33168 0.84285 0
M  V30 23027 C 2292.28 -2.01855 0.454091 0
M  V30 23028 C 2292.7 -1.63399 -0.945841 0
M  V30 23029 O 2292.06 -0.84933 -1.61532 0
M  V30 23030 C 2292.11 -3.56981 0.569777 0
M  V30 23031 O 2291.83 -3.94051 1.91455 0
M  V30 23032 C 2293.33 -4.42941 0.17849 0
M  V30 23033 H 2290.55 -0.646462 0.179801 0
M  V30 23034 H 2293.09 -1.7001 1.13653 0
M  V30 23035 H 2291.25 -3.87346 -0.0647906 0
M  V30 23036 H 2291.66 -4.88764 1.9029 0
M  V30 23037 H 2293.14 -5.51126 0.310473 0
M  V30 23038 H 2293.61 -4.30294 -0.879981 0
M  V30 23039 H 2294.22 -4.17943 0.787653 0
M  V30 23040 N 2292.53 -0.599659 -1.45746 0
M  V30 23041 C 2293.76 -0.0960563 -2.07177 0
M  V30 23042 C 2294.18 1.20697 -1.4427 0
M  V30 23043 O 2293.54 1.73303 -0.532534 0
M  V30 23044 C 2293.59 0.0384714 -3.60579 0
M  V30 23045 O 2292.69 1.09073 -3.97714 0
M  V30 23046 H 2292.03 -0.0704709 -0.66025 0
M  V30 23047 H 2294.56 -0.827418 -1.87123 0
M  V30 23048 H 2294.57 0.239232 -4.07298 0
M  V30 23049 H 2293.25 -0.913019 -4.05755 0
M  V30 23050 H 2291.83 0.867071 -3.62679 0
M  V30 23051 N 2294.01 1.53925 -0.338371 0
M  V30 23052 C 2295.24 2.05244 0.261262 0
M  V30 23053 C 2295.65 1.21366 1.44623 0
M  V30 23054 O 2295.01 0.247768 1.8081 0
M  V30 23055 C 2295.06 3.55021 0.68135 0
M  V30 23056 O 2294.78 4.35715 -0.456491 0
M  V30 23057 C 2296.28 4.22491 1.34224 0
M  V30 23058 H 2293.5 0.669032 0.0513568 0
M  V30 23059 H 2296.05 1.98571 -0.488857 0
M  V30 23060 H 2294.2 3.61933 1.38142 0
M  V30 23061 H 2294.62 5.24357 -0.122656 0
M  V30 23062 H 2296.09 5.28695 1.58698 0
M  V30 23063 H 2296.57 3.74518 2.29419 0
M  V30 23064 H 2297.17 4.19758 0.68435 0
M  V30 23065 N 2295.49 0.0668712 1.57458 0
M  V30 23066 C 2296.72 -0.612531 1.97625 0
M  V30 23067 C 2297.13 -1.63445 0.945048 0
M  V30 23068 O 2296.49 -1.8237 -0.0688955 0
M  V30 23069 C 2296.54 -1.2855 3.37872 0
M  V30 23070 O 2296.26 -0.30448 4.37041 0
M  V30 23071 C 2297.76 -2.05318 3.92886 0
M  V30 23072 H 2294.98 -0.16637 0.650048 0
M  V30 23073 H 2297.53 0.137818 2.04035 0
M  V30 23074 H 2295.68 -1.98696 3.32564 0
M  V30 23075 H 2296.1 -0.786688 5.18567 0
M  V30 23076 H 2297.57 -2.47804 4.93252 0
M  V30 23077 H 2298.05 -2.90774 3.29161 0
M  V30 23078 H 2298.65 -1.40049 4.0158 0
M  V30 23079 N 2296.97 -1.56239 -0.206647 0
M  V30 23080 C 2298.2 -1.84042 -0.945313 0
M  V30 23081 C 2298.61 -0.647917 -1.77334 0
M  V30 23082 O 2297.97 0.38348 -1.78426 0
M  V30 23083 C 2298.02 -3.10525 -1.85084 0
M  V30 23084 O 2297.74 -4.25176 -1.05626 0
M  V30 23085 C 2299.24 -3.51423 -2.70216 0
M  V30 23086 H 2296.46 -0.611445 -0.276362 0
M  V30 23087 H 2299 -2.03341 -0.217381 0
M  V30 23088 H 2297.16 -2.93157 -2.53254 0
M  V30 23089 H 2297.57 -4.97126 -1.67229 0
M  V30 23090 H 2299.05 -4.42922 -3.2943 0
M  V30 23091 H 2299.52 -2.7387 -3.43354 0
M  V30 23092 H 2300.13 -3.71282 -2.07436 0
M  V30 23093 N 2298.45 0.473929 -1.50305 0
M  V30 23094 C 2299.38 1.58039 -1.71889 0
M  V30 23095 C 2300.36 1.60343 -0.567827 0
M  V30 23096 O 2301.54 1.76654 -0.806654 0
M  V30 23097 C 2298.67 2.9638 -1.81041 0
M  V30 23098 C 2297.63 3.08943 -2.96206 0
M  V30 23099 C 2296.95 4.48904 -2.90498 0
M  V30 23100 C 2298.25 2.86427 -4.36757 0
M  V30 23101 H 2299.95 1.4023 -2.6453 0
M  V30 23102 H 2297.49 0.673178 -1.27296 0
M  V30 23103 H 2299.44 3.73711 -1.94726 0
M  V30 23104 H 2298.17 3.1534 -0.850202 0
M  V30 23105 H 2296.83 2.34045 -2.82168 0
M  V30 23106 H 2296.48 4.64778 -1.92329 0
M  V30 23107 H 2296.18 4.58246 -3.6781 0
M  V30 23108 H 2297.7 5.28259 -3.06227 0
M  V30 23109 H 2299.11 3.53509 -4.51336 0
M  V30 23110 H 2297.51 3.07216 -5.15498 0
M  V30 23111 H 2298.58 1.82308 -4.49324 0
M  V30 23112 N 2299.92 1.39835 0.726907 0
M  V30 23113 C 2301.33 1.33462 1.30555 0
M  V30 23114 C 2301.69 0.00276451 1.962 0
M  V30 23115 O 2300.81 -0.899336 1.96827 0
M  V30 23116 C 2301.41 2.41717 2.37399 0
M  V30 23117 C 2299.96 2.3884 2.90917 0
M  V30 23118 C 2299.11 2.23183 1.64575 0
M  V30 23119 H 2302.06 1.49805 0.523835 0
M  V30 23120 H 2302.08 2.08971 3.1798 0
M  V30 23121 H 2301.6 3.38639 1.89593 0
M  V30 23122 H 2299.7 1.45581 3.42983 0
M  V30 23123 H 2299.81 3.34003 3.43481 0
M  V30 23124 H 2298.17 1.70498 1.89216 0
M  V30 23125 H 2298.96 3.22086 1.18808 0
M  V30 23126 N 2301.4 -0.957948 1.25144 0
M  V30 23127 C 2302.81 -1.51683 1.08854 0
M  V30 23128 C 2303.16 -1.93287 -0.336836 0
M  V30 23129 O 2302.29 -1.78292 -1.22641 0
M  V30 23130 C 2302.88 -2.7565 1.96983 0
M  V30 23131 C 2301.44 -3.27862 1.84887 0
M  V30 23132 C 2300.59 -2.00717 1.91332 0
M  V30 23133 H 2303.54 -0.775196 1.38479 0
M  V30 23134 H 2303.56 -3.49348 1.50786 0
M  V30 23135 H 2303.07 -2.45339 3.00716 0
M  V30 23136 H 2301.17 -3.63002 0.840246 0
M  V30 23137 H 2301.29 -3.96103 2.69517 0
M  V30 23138 H 2299.65 -2.15868 1.35178 0
M  V30 23139 H 2300.43 -1.72758 2.96664 0
M  V30 23140 N 2302.88 -1.06677 -1.16008 0
M  V30 23141 C 2304.11 -0.806701 -1.90525 0
M  V30 23142 C 2304.52 0.639365 -1.77644 0
M  V30 23143 O 2303.88 1.43802 -1.12372 0
M  V30 23144 C 2303.93 -1.19711 -3.41104 0
M  V30 23145 O 2303.65 -2.58643 -3.53604 0
M  V30 23146 C 2305.15 -0.965343 -4.32662 0
M  V30 23147 H 2302.37 -0.292177 -0.604048 0
M  V30 23148 H 2304.92 -1.42142 -1.47023 0
M  V30 23149 H 2303.07 -0.626841 -3.82295 0
M  V30 23150 H 2303.49 -2.74383 -4.47006 0
M  V30 23151 H 2304.96 -1.28809 -5.36761 0
M  V30 23152 H 2305.44 0.0987165 -4.39089 0
M  V30 23153 H 2306.04 -1.52018 -3.97204 0
M  V30 23154 N 2304.36 1.32719 -0.8499 0
M  V30 23155 C 2305.59 2.01612 -0.464789 0
M  V30 23156 C 2306 1.63898 0.937163 0
M  V30 23157 O 2305.36 0.857885 1.61079 0
M  V30 23158 C 2305.41 3.56674 -0.588701 0
M  V30 23159 O 2305.13 3.93031 -1.93542 0
M  V30 23160 C 2306.63 4.4284 -0.201977 0
M  V30 23161 H 2303.85 0.645499 -0.183227 0
M  V30 23162 H 2306.39 1.69405 -1.14553 0
M  V30 23163 H 2304.55 3.87375 0.0442478 0
M  V30 23164 H 2304.96 4.87747 -1.9288 0
M  V30 23165 H 2306.44 5.50954 -0.339696 0
M  V30 23166 H 2306.91 4.30755 0.857149 0
M  V30 23167 H 2307.52 4.17519 -0.809806 0
M  V30 23168 N 2305.84 0.60738 1.45426 0
M  V30 23169 C 2307.06 0.10885 2.06613 0
M  V30 23170 C 2307.48 -1.20668 1.45206 0
M  V30 23171 O 2306.84 -1.73496 0.566162 0
M  V30 23172 C 2306.89 -0.0374712 3.61481 0
M  V30 23173 O 2306.61 1.22601 4.20596 0
M  V30 23174 C 2308.11 -0.567484 4.39653 0
M  V30 23175 H 2305.33 0.0687468 0.667469 0
M  V30 23176 H 2307.87 0.835054 1.86674 0
M  V30 23177 H 2306.03 -0.714001 3.80763 0
M  V30 23178 H 2306.44 1.05556 5.13769 0
M  V30 23179 H 2307.92 -0.618954 5.48519 0
M  V30 23180 H 2308.39 -1.58971 4.0942 0
M  V30 23181 H 2309 0.0749949 4.25234 0
M  V30 23182 N 2307.31 -1.53743 0.34653 0
M  V30 23183 C 2308.73 -1.86199 -0.136746 0
M  V30 23184 C 2309.08 -1.26768 -1.49747 0
M  V30 23185 O 2308.2 -0.582392 -2.08416 0
M  V30 23186 C 2308.8 -3.3784 -0.254907 0
M  V30 23187 C 2307.36 -3.70162 -0.682417 0
M  V30 23188 C 2306.5 -2.76702 0.182029 0
M  V30 23189 H 2309.45 -1.48263 0.56602 0
M  V30 23190 H 2309.47 -3.64795 -1.08188 0
M  V30 23191 H 2308.99 -3.81065 0.735593 0
M  V30 23192 H 2307.09 -3.32483 -1.68184 0
M  V30 23193 H 2307.2 -4.76787 -0.470242 0
M  V30 23194 H 2305.56 -2.52337 -0.346106 0
M  V30 23195 H 2306.35 -3.22758 1.16972 0
M  V30 23196 N 2308.79 -0.0752207 -1.5742 0
M  V30 23197 C 2310.02 0.60548 -1.98365 0
M  V30 23198 C 2310.44 1.62147 -0.953412 0
M  V30 23199 O 2309.8 1.81121 0.0805734 0
M  V30 23200 C 2309.85 1.2475 -3.38334 0
M  V30 23201 O 2308.95 2.36336 -3.37963 0
M  V30 23202 H 2308.29 0.155417 -0.645555 0
M  V30 23203 H 2310.82 -0.15075 -2.04044 0
M  V30 23204 H 2310.83 1.59353 -3.75594 0
M  V30 23205 H 2309.51 0.503056 -4.12846 0
M  V30 23206 H 2308.09 2.03501 -3.12477 0
M  V30 23207 N 2310.27 1.56347 0.198358 0
M  V30 23208 C 2311.68 1.70382 0.763328 0
M  V30 23209 C 2312.03 0.681236 1.83994 0
M  V30 23210 O 2311.16 -0.163012 2.15785 0
M  V30 23211 C 2311.75 3.08911 1.39137 0
M  V30 23212 C 2310.31 3.24723 1.90347 0
M  V30 23213 C 2309.46 2.66332 0.772187 0
M  V30 23214 H 2312.41 1.58678 -0.0266656 0
M  V30 23215 H 2312.43 3.06059 2.2607 0
M  V30 23216 H 2311.94 3.83315 0.607571 0
M  V30 23217 H 2310.04 2.5523 2.71456 0
M  V30 23218 H 2310.16 4.32194 2.0675 0
M  V30 23219 H 2308.52 2.25422 1.18562 0
M  V30 23220 H 2309.3 3.433 0.000675217 0
M  V30 23221 N 2311.75 -0.465951 1.50554 0
M  V30 23222 C 2313.16 -1.04669 1.54601 0
M  V30 23223 C 2313.51 -1.93007 0.352522 0
M  V30 23224 O 2312.64 -2.09708 -0.534007 0
M  V30 23225 C 2313.23 -1.905 2.8017 0
M  V30 23226 C 2311.79 -2.43673 2.8688 0
M  V30 23227 C 2310.94 -1.22147 2.48949 0
M  V30 23228 H 2313.89 -0.248357 1.56745 0
M  V30 23229 H 2313.91 -2.75628 2.62315 0
M  V30 23230 H 2313.42 -1.2618 3.67015 0
M  V30 23231 H 2311.52 -3.11532 2.04398 0
M  V30 23232 H 2311.63 -2.78429 3.8989 0
M  V30 23233 H 2310 -1.55786 2.01501 0
M  V30 23234 H 2310.78 -0.594807 3.38108 0
M  V30 23235 N 2313.23 -1.40218 -0.719481 0
M  V30 23236 C 2314.64 -1.34153 -1.29846 0
M  V30 23237 C 2314.99 -0.0131694 -1.96196 0
M  V30 23238 O 2314.11 0.888885 -1.97301 0
M  V30 23239 C 2314.71 -2.42972 -2.36114 0
M  V30 23240 C 2313.27 -2.40379 -2.89646 0
M  V30 23241 C 2312.41 -2.24052 -1.63389 0
M  V30 23242 H 2315.37 -1.50081 -0.515884 0
M  V30 23243 H 2315.39 -2.10655 -3.16867 0
M  V30 23244 H 2314.9 -3.39639 -1.87794 0
M  V30 23245 H 2313 -1.47398 -3.42206 0
M  V30 23246 H 2313.11 -3.3582 -3.41705 0
M  V30 23247 H 2311.48 -1.71499 -1.88309 0
M  V30 23248 H 2312.26 -3.22712 -1.17099 0
M  V30 23249 N 2314.7 0.951297 -1.25651 0
M  V30 23250 C 2315.93 1.7309 -1.13346 0
M  V30 23251 C 2316.35 1.86197 0.312401 0
M  V30 23252 O 2315.7 1.36209 1.21463 0
M  V30 23253 C 2315.76 3.14295 -1.78607 0
M  V30 23254 O 2315.48 3.01825 -3.17542 0
M  V30 23255 C 2316.98 4.08519 -1.72126 0
M  V30 23256 H 2314.2 0.542278 -0.395191 0
M  V30 23257 H 2316.74 1.19325 -1.66078 0
M  V30 23258 H 2314.9 3.64994 -1.29839 0
M  V30 23259 H 2315.31 3.90925 -3.49683 0
M  V30 23260 H 2316.78 5.05196 -2.22444 0
M  V30 23261 H 2317.26 4.33814 -0.685711 0
M  V30 23262 H 2317.87 3.63737 -2.20399 0
M  V30 23263 N 2316.18 1.07291 1.1544 0
M  V30 23264 C 2317.41 0.816793 1.90095 0
M  V30 23265 C 2317.83 -0.629935 1.77981 0
M  V30 23266 O 2317.18 -1.43204 1.13133 0
M  V30 23267 C 2317.23 1.21518 3.40464 0
M  V30 23268 O 2316.95 2.60514 3.52227 0
M  V30 23269 C 2318.46 0.988274 4.32144 0
M  V30 23270 H 2315.68 0.295376 0.60249 0
M  V30 23271 H 2318.22 1.4292 1.46267 0
M  V30 23272 H 2316.37 0.647106 3.81957 0
M  V30 23273 H 2316.79 2.76749 4.45545 0
M  V30 23274 H 2318.26 1.31654 5.3607 0
M  V30 23275 H 2318.74 -0.0754291 4.39135 0
M  V30 23276 H 2319.35 1.54122 3.96392 0
M  V30 23277 N 2317.66 -1.32267 0.856927 0
M  V30 23278 C 2318.89 -2.01362 0.475475 0
M  V30 23279 C 2319.3 -1.64393 -0.928457 0
M  V30 23280 O 2318.66 -0.866415 -1.60622 0
M  V30 23281 C 2318.71 -3.56357 0.607608 0
M  V30 23282 O 2318.43 -3.91999 1.95624 0
M  V30 23283 C 2319.93 -4.42726 0.225459 0
M  V30 23284 H 2317.15 -0.644518 0.186647 0
M  V30 23285 H 2319.7 -1.68795 1.15449 0
M  V30 23286 H 2317.85 -3.87393 -0.0237038 0
M  V30 23287 H 2318.27 -4.86718 1.95464 0
M  V30 23288 H 2319.74 -5.50766 0.368909 0
M  V30 23289 H 2320.22 -4.31203 -0.834293 0
M  V30 23290 H 2320.82 -4.17084 0.831937 0
M  V30 23291 N 2319.14 -0.615084 -1.45102 0
M  V30 23292 C 2320.37 -0.119806 -2.06553 0
M  V30 23293 C 2320.78 1.19896 -1.45844 0
M  V30 23294 O 2320.14 1.73193 -0.575355 0
M  V30 23295 C 2320.19 0.0183005 -3.61495 0
M  V30 23296 O 2319.91 -1.2483 -4.19939 0
M  V30 23297 C 2321.41 0.54416 -4.39947 0
M  V30 23298 H 2318.63 -0.0722856 -0.667095 0
M  V30 23299 H 2321.18 -0.844942 -1.86228 0
M  V30 23300 H 2319.33 0.693798 -3.81137 0
M  V30 23301 H 2319.74 -1.08279 -5.13202 0
M  V30 23302 H 2321.22 0.589856 -5.48839 0
M  V30 23303 H 2321.7 1.56798 -4.10257 0
M  V30 23304 H 2322.3 -0.0975451 -4.25188 0
M  V30 23305 N 2320.62 1.53557 -0.354678 0
M  V30 23306 C 2321.85 2.05509 0.239479 0
M  V30 23307 C 2322.26 1.22893 1.43327 0
M  V30 23308 O 2321.62 0.266931 1.80537 0
M  V30 23309 C 2321.67 3.55724 0.643657 0
M  V30 23310 O 2321.39 4.35207 -0.502679 0
M  V30 23311 C 2322.89 4.23891 1.29736 0
M  V30 23312 H 2320.11 0.669539 0.0442579 0
M  V30 23313 H 2322.65 1.98041 -0.509891 0
M  V30 23314 H 2320.81 3.63378 1.34295 0
M  V30 23315 H 2321.22 5.24197 -0.178264 0
M  V30 23316 H 2322.7 5.30349 1.53082 0
M  V30 23317 H 2323.17 3.7693 2.25434 0
M  V30 23318 H 2323.78 4.2046 0.639791 0
M  V30 23319 N 2322.1 0.083568 1.57378 0
M  V30 23320 C 2323.51 -0.447326 1.81262 0
M  V30 23321 C 2323.86 -1.689 0.998361 0
M  V30 23322 O 2322.98 -2.15234 0.22432 0
M  V30 23323 C 2323.58 -0.818328 3.28769 0
M  V30 23324 C 2322.14 -1.29402 3.53457 0
M  V30 23325 C 2321.28 -0.284976 2.75832 0
M  V30 23326 H 2324.23 0.309142 1.5566 0
M  V30 23327 H 2324.26 -1.67881 3.41462 0
M  V30 23328 H 2323.77 0.0855701 3.88006 0
M  V30 23329 H 2321.87 -2.21602 2.99538 0
M  V30 23330 H 2321.98 -1.26382 4.6213 0
M  V30 23331 H 2320.35 -0.764725 2.42949 0
M  V30 23332 H 2321.13 0.6114 3.37812 0
M  V30 23333 N 2323.57 -1.5645 -0.190064 0
M  V30 23334 C 2324.98 -1.70785 -0.754282 0
M  V30 23335 C 2325.34 -0.690984 -1.8363 0
M  V30 23336 O 2324.46 0.151566 -2.15869 0
M  V30 23337 C 2325.06 -3.09645 -1.37497 0
M  V30 23338 C 2323.61 -3.25728 -1.88622 0
M  V30 23339 C 2322.76 -2.66737 -0.758051 0
M  V30 23340 H 2325.71 -1.58661 0.0350803 0
M  V30 23341 H 2325.73 -3.07254 -2.24444 0
M  V30 23342 H 2325.25 -3.83632 -0.587234 0
M  V30 23343 H 2323.35 -2.56666 -2.70099 0
M  V30 23344 H 2323.46 -4.33284 -2.04455 0
M  V30 23345 H 2321.82 -2.26048 -1.17365 0
M  V30 23346 H 2322.61 -3.43296 0.0175308 0
M  V30 23347 N 2325.05 0.45796 -1.50799 0
M  V30 23348 C 2326.46 1.03847 -1.55154 0
M  V30 23349 C 2326.81 1.92817 -0.362753 0
M  V30 23350 O 2325.94 2.09988 0.522878 0
M  V30 23351 C 2326.53 1.89012 -2.81176 0
M  V30 23352 C 2325.09 2.42149 -2.88168 0
M  V30 23353 C 2324.24 1.20825 -2.49593 0
M  V30 23354 H 2327.19 0.240041 -1.56874 0
M  V30 23355 H 2327.21 2.74233 -2.63774 0
M  V30 23356 H 2326.72 1.24232 -3.67679 0
M  V30 23357 H 2324.82 3.10444 -2.06047 0
M  V30 23358 H 2324.94 2.76357 -3.91361 0
M  V30 23359 H 2323.3 1.54716 -2.02324 0
M  V30 23360 H 2324.08 0.576868 -3.38419 0
M  V30 23361 N 2326.53 1.40598 0.712035 0
M  V30 23362 C 2327.76 1.4239 1.50109 0
M  V30 23363 C 2328.17 0.0245727 1.88784 0
M  V30 23364 O 2327.53 -0.952324 1.55683 0
M  V30 23365 C 2327.58 2.31781 2.77416 0
M  V30 23366 O 2327.3 3.66267 2.40375 0
M  V30 23367 C 2328.8 2.42203 3.71285 0
M  V30 23368 H 2326.02 0.485541 0.463132 0
M  V30 23369 H 2328.57 1.84691 0.878035 0
M  V30 23370 H 2326.72 1.92833 3.35997 0
M  V30 23371 H 2327.14 4.13778 3.22317 0
M  V30 23372 H 2328.61 3.08951 4.57442 0
M  V30 23373 H 2329.09 1.44817 4.14638 0
M  V30 23374 H 2329.69 2.81718 3.18614 0
M  V30 23375 N 2328.01 -0.94462 1.26153 0
M  V30 23376 C 2329.24 -1.72487 1.14262 0
M  V30 23377 C 2329.65 -1.86361 -0.302523 0
M  V30 23378 O 2329.01 -1.36852 -1.20739 0
M  V30 23379 C 2329.06 -3.13344 1.80272 0
M  V30 23380 O 2328.78 -3.00137 3.19138 0
M  V30 23381 C 2330.28 -4.076 1.7429 0
M  V30 23382 H 2327.5 -0.540174 0.398061 0
M  V30 23383 H 2330.04 -1.18443 1.66708 0
M  V30 23384 H 2328.2 -3.643 1.31772 0
M  V30 23385 H 2328.61 -3.89065 3.51751 0
M  V30 23386 H 2330.09 -5.04009 2.2512 0
M  V30 23387 H 2330.56 -4.33444 0.708708 0
M  V30 23388 H 2331.17 -3.62563 2.22325 0
M  V30 23389 N 2329.49 -1.07901 -1.1487 0
M  V30 23390 C 2330.71 -0.826863 -1.89659 0
M  V30 23391 C 2331.13 0.620488 -1.78313 0
M  V30 23392 O 2330.49 1.42602 -1.1389 0
M  V30 23393 C 2330.54 -1.23322 -3.39815 0
M  V30 23394 O 2330.26 -2.62379 -3.50841 0
M  V30 23395 C 2331.76 -1.01118 -4.31613 0
M  V30 23396 H 2328.98 -0.298567 -0.600915 0
M  V30 23397 H 2331.52 -1.43694 -1.45507 0
M  V30 23398 H 2329.68 -0.667353 -3.81609 0
M  V30 23399 H 2330.09 -2.79108 -4.44071 0
M  V30 23400 H 2331.57 -1.34495 -5.35364 0
M  V30 23401 H 2332.04 0.0521396 -4.39169 0
M  V30 23402 H 2332.65 -1.56222 -3.95569 0
M  V30 23403 N 2330.96 1.31811 -0.863929 0
M  V30 23404 C 2332.37 1.79159 -0.525252 0
M  V30 23405 C 2332.73 1.7125 0.957488 0
M  V30 23406 O 2331.85 1.27662 1.74732 0
M  V30 23407 C 2332.45 3.25306 -0.946657 0
M  V30 23408 C 2331 3.70573 -0.659733 0
M  V30 23409 C 2330.15 2.52724 -1.14131 0
M  V30 23410 H 2333.1 1.18978 -1.05024 0
M  V30 23411 H 2333.12 3.79563 -0.266833 0
M  V30 23412 H 2332.64 3.3103 -2.02585 0
M  V30 23413 H 2330.74 3.70356 0.40835 0
M  V30 23414 H 2330.85 4.62975 -1.23253 0
M  V30 23415 H 2329.21 2.48439 -0.561259 0
M  V30 23416 H 2330 2.61198 -2.2278 0
M  V30 23417 N 2332.44 0.62277 1.44773 0
M  V30 23418 C 2333.67 0.129004 2.06998 0
M  V30 23419 C 2334.09 -1.18387 1.46172 0
M  V30 23420 O 2333.45 -1.72433 0.560037 0
M  V30 23421 C 2333.5 0.0188985 3.60595 0
M  V30 23422 O 2332.6 -1.02732 3.99399 0
M  V30 23423 H 2331.94 0.0809659 0.659045 0
M  V30 23424 H 2334.47 0.857083 1.85783 0
M  V30 23425 H 2334.48 -0.174404 4.07627 0
M  V30 23426 H 2333.16 0.977455 4.04251 0
M  V30 23427 H 2331.73 -0.809262 3.64013 0
M  V30 23428 N 2333.92 -1.53367 0.362817 0
M  V30 23429 C 2335.33 -1.86333 -0.116989 0
M  V30 23430 C 2335.68 -1.28349 -1.48394 0
M  V30 23431 O 2334.81 -0.604464 -2.07786 0
M  V30 23432 C 2335.4 -3.38091 -0.21906 0
M  V30 23433 C 2333.96 -3.70865 -0.643118 0
M  V30 23434 C 2333.11 -2.76493 0.211367 0
M  V30 23435 H 2336.06 -1.47654 0.581713 0
M  V30 23436 H 2336.08 -3.65922 -1.04313 0
M  V30 23437 H 2335.59 -3.80264 0.775969 0
M  V30 23438 H 2333.69 -3.34248 -1.64648 0
M  V30 23439 H 2333.81 -4.77259 -0.419646 0
M  V30 23440 H 2332.17 -2.5269 -0.319323 0
M  V30 23441 H 2332.95 -3.21499 1.20388 0
M  V30 23442 N 2335.4 -0.091913 -1.57332 0
M  V30 23443 C 2336.81 0.437707 -1.81497 0
M  V30 23444 C 2337.16 1.68368 -1.0073 0
M  V30 23445 O 2336.29 2.15112 -0.235732 0
M  V30 23446 C 2336.88 0.800881 -3.29198 0
M  V30 23447 C 2335.44 1.27526 -3.54138 0
M  V30 23448 C 2334.59 0.270344 -2.75979 0
M  V30 23449 H 2337.54 -0.317393 -1.55494 0
M  V30 23450 H 2337.56 1.66068 -3.42347 0
M  V30 23451 H 2337.07 -0.106146 -3.87955 0
M  V30 23452 H 2335.17 2.20011 -3.00709 0
M  V30 23453 H 2335.28 1.23929 -4.62794 0
M  V30 23454 H 2333.65 0.75183 -2.43351 0
M  V30 23455 H 2334.43 -0.629307 -3.37483 0
M  V30 23456 N 2336.88 1.56548 0.181765 0
M  V30 23457 C 2338.1 1.85523 0.915914 0
M  V30 23458 C 2338.52 0.676047 1.76281 0
M  V30 23459 O 2337.88 -0.355045 1.79013 0
M  V30 23460 C 2337.93 3.13431 1.80121 0
M  V30 23461 O 2337.65 4.26803 0.988487 0
M  V30 23462 C 2339.15 3.55678 2.64591 0
M  V30 23463 H 2336.37 0.615765 0.266599 0
M  V30 23464 H 2338.91 2.03661 0.185004 0
M  V30 23465 H 2337.07 2.97149 2.48558 0
M  V30 23466 H 2337.48 4.99724 1.59299 0
M  V30 23467 H 2338.96 4.48107 3.22342 0
M  V30 23468 H 2339.43 2.79298 3.38953 0
M  V30 23469 H 2340.04 3.74535 2.01503 0
M  V30 23470 N 2338.35 -0.449957 1.5104 0
M  V30 23471 C 2339.58 -1.22317 1.66871 0
M  V30 23472 C 2340 -1.85321 0.360759 0
M  V30 23473 O 2339.35 -1.70167 -0.659501 0
M  V30 23474 C 2339.41 -2.31648 2.77528 0
M  V30 23475 O 2339.13 -1.71223 4.03255 0
M  V30 23476 C 2340.63 -3.22155 3.04518 0
M  V30 23477 H 2337.85 -0.369145 0.560333 0
M  V30 23478 H 2340.39 -0.534684 1.97386 0
M  V30 23479 H 2338.55 -2.96234 2.49648 0
M  V30 23480 H 2338.96 -2.43381 4.64614 0
M  V30 23481 H 2340.43 -3.95031 3.85557 0
M  V30 23482 H 2340.91 -3.82176 2.16422 0
M  V30 23483 H 2341.52 -2.63282 3.3401 0
M  V30 23484 N 2339.83 -1.40974 -0.704569 0
M  V30 23485 C 2341.06 -1.43184 -1.49352 0
M  V30 23486 C 2341.48 -0.034584 -1.88768 0
M  V30 23487 O 2340.83 0.944054 -1.56185 0
M  V30 23488 C 2340.88 -2.33249 -2.76183 0
M  V30 23489 O 2340.6 -3.67536 -2.3843 0
M  V30 23490 C 2342.11 -2.44168 -3.69996 0
M  V30 23491 H 2339.33 -0.48799 -0.46055 0
M  V30 23492 H 2341.87 -1.85154 -0.868228 0
M  V30 23493 H 2340.02 -1.94612 -3.3497 0
M  V30 23494 H 2340.44 -4.15481 -3.20118 0
M  V30 23495 H 2341.91 -3.11372 -4.55797 0
M  V30 23496 H 2342.39 -1.47013 -4.13864 0
M  V30 23497 H 2343 -2.83404 -3.17116 0
M  V30 23498 N 2341.31 0.937917 -1.26653 0
M  V30 23499 C 2342.54 1.71878 -1.15176 0
M  V30 23500 C 2342.95 1.86518 0.292635 0
M  V30 23501 O 2342.31 1.3749 1.20011 0
M  V30 23502 C 2342.36 3.12383 -1.81931 0
M  V30 23503 O 2342.08 2.9844 -3.20726 0
M  V30 23504 C 2343.58 4.0667 -1.76449 0
M  V30 23505 H 2340.8 0.538056 -0.40092 0
M  V30 23506 H 2343.35 1.17557 -1.67334 0
M  V30 23507 H 2341.5 3.63596 -1.33703 0
M  V30 23508 H 2341.92 3.87194 -3.53809 0
M  V30 23509 H 2343.39 5.02808 -2.2779 0
M  V30 23510 H 2343.87 4.33062 -0.731684 0
M  V30 23511 H 2344.47 3.61379 -2.24245 0
M  V30 23512 N 2342.79 1.08509 1.14296 0
M  V30 23513 C 2344.2 0.836257 1.66924 0
M  V30 23514 C 2344.55 -0.636828 1.85577 0
M  V30 23515 O 2343.68 -1.49172 1.5677 0
M  V30 23516 C 2344.27 1.51147 3.03216 0
M  V30 23517 C 2342.83 1.30985 3.52874 0
M  V30 23518 C 2341.98 1.5736 2.28327 0
M  V30 23519 H 2344.93 1.24553 0.983469 0
M  V30 23520 H 2344.95 0.939276 3.68725 0
M  V30 23521 H 2344.46 2.58358 2.89608 0
M  V30 23522 H 2342.56 0.258494 3.71702 0
M  V30 23523 H 2342.67 2.03821 4.33582 0
M  V30 23524 H 2341.04 0.995206 2.34452 0
M  V30 23525 H 2341.82 2.65779 2.17294 0
M  V30 23526 N 2344.27 -1.31351 0.870907 0
M  V30 23527 C 2345.49 -2.01382 0.495992 0
M  V30 23528 C 2345.92 -1.64937 -0.904295 0
M  V30 23529 O 2345.27 -0.858494 -1.59686 0
M  V30 23530 C 2345.32 -3.54481 0.661496 0
M  V30 23531 O 2344.43 -4.11316 -0.298778 0
M  V30 23532 H 2343.77 -0.634051 0.197169 0
M  V30 23533 H 2346.3 -1.67525 1.17458 0
M  V30 23534 H 2346.31 -4.04206 0.555143 0
M  V30 23535 H 2344.98 -3.80347 1.68253 0
M  V30 23536 H 2343.56 -3.72609 -0.147303 0
M  V30 23537 N 2345.74 -0.630439 -1.44441 0
M  V30 23538 C 2347.16 -0.217096 -1.85434 0
M  V30 23539 C 2347.51 1.23133 -1.5275 0
M  V30 23540 O 2346.63 1.9368 -0.965239 0
M  V30 23541 C 2347.23 -0.387227 -3.3658 0
M  V30 23542 C 2345.79 -0.0283959 -3.76389 0
M  V30 23543 C 2344.93 -0.700937 -2.68295 0
M  V30 23544 H 2347.88 -0.835644 -1.34917 0
M  V30 23545 H 2347.9 0.37402 -3.78657 0
M  V30 23546 H 2347.42 -1.4415 -3.60336 0
M  V30 23547 H 2345.52 1.02417 -3.58248 0
M  V30 23548 H 2345.63 -0.437976 -4.77094 0
M  V30 23549 H 2343.99 -0.136312 -2.54335 0
M  V30 23550 H 2344.78 -1.75779 -2.94884 0
M  V30 23551 N 2347.22 1.53172 -0.370945 0
M  V30 23552 C 2348.63 1.86393 0.107106 0
M  V30 23553 C 2348.98 1.29135 1.47712 0
M  V30 23554 O 2348.11 0.615475 2.07463 0
M  V30 23555 C 2348.7 3.38202 0.201127 0
M  V30 23556 C 2347.26 3.71201 0.623441 0
M  V30 23557 C 2346.41 2.76377 -0.226027 0
M  V30 23558 H 2349.36 1.47344 -0.589536 0
M  V30 23559 H 2349.38 3.6647 1.02371 0
M  V30 23560 H 2348.89 3.79847 -0.796124 0
M  V30 23561 H 2347 3.35117 1.62873 0
M  V30 23562 H 2347.11 4.77474 0.39433 0
M  V30 23563 H 2345.47 2.52856 0.305917 0
M  V30 23564 H 2346.26 3.20856 -1.22092 0
M  V30 23565 N 2348.7 0.100255 1.57281 0
M  V30 23566 C 2349.93 -0.570474 1.9888 0
M  V30 23567 C 2350.34 -1.61404 0.979505 0
M  V30 23568 O 2349.7 -1.82475 -0.0301967 0
M  V30 23569 C 2349.75 -1.21354 3.40522 0
M  V30 23570 O 2349.47 -0.211709 4.37588 0
M  V30 23571 C 2350.97 -1.96939 3.97153 0
M  V30 23572 H 2348.19 -0.152544 0.65343 0
M  V30 23573 H 2350.74 0.181066 2.03697 0
M  V30 23574 H 2348.89 -1.91597 3.36703 0
M  V30 23575 H 2349.31 -0.676515 5.20119 0
M  V30 23576 H 2350.78 -2.37285 4.98397 0
M  V30 23577 H 2351.26 -2.83727 3.35255 0
M  V30 23578 H 2351.86 -1.31499 4.0446 0
M  V30 23579 N 2350.18 -1.56643 -0.17346 0
M  V30 23580 C 2351.43 -1.81065 -0.888726 0
M  V30 23581 C 2351.74 -0.677152 -1.83505 0
M  V30 23582 O 2352.95 -0.806252 -2.59252 0
M  V30 23583 C 2351.4 -3.20829 -1.63086 0
M  V30 23584 C 2351.01 -4.42041 -0.728279 0
M  V30 23585 C 2352.76 -3.54545 -2.33448 0
M  V30 23586 C 2350.66 -5.72826 -1.47052 0
M  V30 23587 H 2349.59 -0.675192 -0.335606 0
M  V30 23588 H 2352.24 -1.82952 -0.14168 0
M  V30 23589 H 2350.63 -3.13252 -2.42258 0
M  V30 23590 H 2351.8 -4.60792 0.0263259 0
M  V30 23591 H 2350.11 -4.16183 -0.134419 0
M  V30 23592 H 2352.71 -4.49503 -2.8957 0
M  V30 23593 H 2353.05 -2.79323 -3.08682 0
M  V30 23594 H 2353.59 -3.63666 -1.61221 0
M  V30 23595 H 2350.33 -6.51073 -0.760544 0
M  V30 23596 H 2349.85 -5.58055 -2.1985 0
M  V30 23597 H 2351.53 -6.14705 -2.01858 0
M  V30 23598 N 2351.66 0.44194 -1.51277 0
M  V30 23599 C 2352.89 1.21431 -1.67518 0
M  V30 23600 C 2353.3 1.85127 -0.370582 0
M  V30 23601 O 2352.66 1.70514 0.650468 0
M  V30 23602 C 2352.71 2.30172 -2.78752 0
M  V30 23603 O 2352.43 1.69082 -4.04157 0
M  V30 23604 C 2353.93 3.20535 -3.06222 0
M  V30 23605 H 2351.15 0.366168 -0.562283 0
M  V30 23606 H 2353.69 0.524209 -1.97667 0
M  V30 23607 H 2351.85 2.94906 -2.51215 0
M  V30 23608 H 2352.26 2.40914 -4.65898 0
M  V30 23609 H 2353.74 3.92981 -3.87647 0
M  V30 23610 H 2354.21 3.81023 -2.18445 0
M  V30 23611 H 2354.82 2.61507 -3.35401 0
M  V30 23612 N 2353.14 1.41345 0.697083 0
M  V30 23613 C 2354.36 1.43974 1.4859 0
M  V30 23614 C 2354.78 0.0445944 1.88747 0
M  V30 23615 O 2354.14 -0.935758 1.56684 0
M  V30 23616 C 2354.19 2.34711 2.74942 0
M  V30 23617 O 2353.91 3.68796 2.36477 0
M  V30 23618 C 2355.41 2.46127 3.68695 0
M  V30 23619 H 2352.63 0.490426 0.457956 0
M  V30 23620 H 2355.17 1.85612 0.858397 0
M  V30 23621 H 2353.33 1.96386 3.33933 0
M  V30 23622 H 2353.74 4.17173 3.1791 0
M  V30 23623 H 2355.22 3.13785 4.5414 0
M  V30 23624 H 2355.69 1.49206 4.13079 0
M  V30 23625 H 2356.3 2.85081 3.15608 0
M  V30 23626 N 2354.61 -0.931187 1.27148 0
M  V30 23627 C 2355.84 -1.71265 1.16085 0
M  V30 23628 C 2356.26 -1.86671 -0.282739 0
M  V30 23629 O 2355.61 -1.38124 -1.19281 0
M  V30 23630 C 2355.66 -3.11414 1.83585 0
M  V30 23631 O 2355.39 -2.96735 3.22304 0
M  V30 23632 C 2356.89 -4.05729 1.78604 0
M  V30 23633 H 2354.11 -0.535922 0.403768 0
M  V30 23634 H 2356.65 -1.16668 1.67955 0
M  V30 23635 H 2354.81 -3.62882 1.35629 0
M  V30 23636 H 2355.22 -3.85312 3.55858 0
M  V30 23637 H 2356.69 -5.01593 2.30453 0
M  V30 23638 H 2357.17 -4.32668 0.75464 0
M  V30 23639 H 2357.78 -3.60184 2.26158 0
M  V30 23640 N 2356.09 -1.09114 -1.13719 0
M  V30 23641 C 2357.32 -0.846932 -1.88771 0
M  V30 23642 C 2357.73 0.60154 -1.78961 0
M  V30 23643 O 2357.09 1.41386 -1.15397 0
M  V30 23644 C 2357.14 -1.26919 -3.38488 0
M  V30 23645 O 2356.86 -2.66085 -3.48038 0
M  V30 23646 C 2358.36 -1.0569 -4.30517 0
M  V30 23647 H 2355.58 -0.304924 -0.597714 0
M  V30 23648 H 2358.13 -1.45229 -1.43975 0
M  V30 23649 H 2356.28 -0.70779 -3.80879 0
M  V30 23650 H 2356.7 -2.83803 -4.41085 0
M  V30 23651 H 2358.17 -1.40166 -5.33908 0
M  V30 23652 H 2358.65 0.00555696 -4.392 0
M  V30 23653 H 2359.25 -1.60409 -3.9389 0
M  V30 23654 N 2357.57 1.30887 -0.877861 0
M  V30 23655 C 2358.98 1.78592 -0.544224 0
M  V30 23656 C 2359.33 1.72256 0.939271 0
M  V30 23657 O 2358.46 1.29508 1.73368 0
M  V30 23658 C 2359.05 3.24283 -0.981107 0
M  V30 23659 C 2357.61 3.69853 -0.699 0
M  V30 23660 C 2356.76 2.51499 -1.16805 0
M  V30 23661 H 2359.71 1.17857 -1.0628 0
M  V30 23662 H 2359.73 3.79259 -0.307076 0
M  V30 23663 H 2359.24 3.28863 -2.06085 0
M  V30 23664 H 2357.34 3.70768 0.369046 0
M  V30 23665 H 2357.46 4.61641 -1.28156 0
M  V30 23666 H 2355.82 2.4783 -0.587578 0
M  V30 23667 H 2356.6 2.5882 -2.25537 0
M  V30 23668 N 2359.05 0.638091 1.44105 0
M  V30 23669 C 2360.46 0.226927 1.85316 0
M  V30 23670 C 2360.81 -1.22322 1.53401 0
M  V30 23671 O 2359.93 -1.93166 0.975497 0
M  V30 23672 C 2360.53 0.405072 3.3637 0
M  V30 23673 C 2359.09 0.0483563 3.76369 0
M  V30 23674 C 2358.24 0.715155 2.67919 0
M  V30 23675 H 2361.19 0.842787 1.34472 0
M  V30 23676 H 2361.21 -0.353933 3.7885 0
M  V30 23677 H 2360.72 1.46059 3.59567 0
M  V30 23678 H 2358.82 -1.00516 3.58786 0
M  V30 23679 H 2358.93 0.463271 4.76855 0
M  V30 23680 H 2357.3 0.149798 2.54259 0
M  V30 23681 H 2358.08 1.77341 2.93948 0
M  V30 23682 N 2360.53 -1.52973 0.379063 0
M  V30 23683 C 2361.94 -1.86447 -0.0972197 0
M  V30 23684 C 2362.29 -1.29916 -1.47025 0
M  V30 23685 O 2361.41 -0.626469 -2.07134 0
M  V30 23686 C 2362.01 -3.38304 -0.183189 0
M  V30 23687 C 2360.57 -3.71526 -0.603747 0
M  V30 23688 C 2359.71 -2.76254 0.240681 0
M  V30 23689 H 2362.66 -1.47029 0.597341 0
M  V30 23690 H 2362.69 -3.67008 -1.00426 0
M  V30 23691 H 2362.2 -3.79419 0.816257 0
M  V30 23692 H 2360.3 -3.35976 -1.61093 0
M  V30 23693 H 2360.41 -4.77677 -0.369002 0
M  V30 23694 H 2358.78 -2.53015 -0.292503 0
M  V30 23695 H 2359.56 -3.20204 1.23792 0
M  V30 23696 N 2362 -0.108595 -1.57225 0
M  V30 23697 C 2363.23 0.559919 -1.9918 0
M  V30 23698 C 2363.65 1.60882 -0.988051 0
M  V30 23699 O 2363 1.82488 0.0205192 0
M  V30 23700 C 2363.05 1.19546 -3.41161 0
M  V30 23701 O 2362.78 0.1885 -4.37694 0
M  V30 23702 C 2364.28 1.9483 -3.98191 0
M  V30 23703 H 2361.5 0.149076 -0.65423 0
M  V30 23704 H 2364.04 -0.191866 -2.03598 0
M  V30 23705 H 2362.2 1.89809 -3.37715 0
M  V30 23706 H 2362.61 0.648922 -5.2047 0
M  V30 23707 H 2364.08 2.34639 -4.99648 0
M  V30 23708 H 2364.56 2.81945 -3.36755 0
M  V30 23709 H 2365.17 1.29353 -4.05152 0
M  V30 23710 N 2363.48 1.56732 0.16515 0
M  V30 23711 C 2364.71 1.86484 0.896185 0
M  V30 23712 C 2365.12 0.694706 1.75554 0
M  V30 23713 O 2364.48 -0.336038 1.7938 0
M  V30 23714 C 2364.53 3.15323 1.76786 0
M  V30 23715 O 2364.25 4.27827 0.943163 0
M  V30 23716 C 2365.75 3.58464 2.60804 0
M  V30 23717 H 2362.97 0.618558 0.260053 0
M  V30 23718 H 2365.52 2.03846 0.163392 0
M  V30 23719 H 2363.67 2.99769 2.45392 0
M  V30 23720 H 2364.09 5.01386 1.5399 0
M  V30 23721 H 2365.56 4.515 3.17571 0
M  V30 23722 H 2366.04 2.82877 3.35972 0
M  V30 23723 H 2366.64 3.76651 1.97519 0
M  V30 23724 N 2364.96 -0.433911 1.51509 0
M  V30 23725 C 2366.19 -1.2054 1.68159 0
M  V30 23726 C 2366.6 -1.84928 0.380395 0
M  V30 23727 O 2365.96 -1.70857 -0.641416 0
M  V30 23728 C 2366.01 -2.28691 2.79969 0
M  V30 23729 O 2365.73 -1.66936 4.05048 0
M  V30 23730 C 2367.23 -3.18907 3.07918 0
M  V30 23731 H 2364.45 -0.363181 0.564217 0
M  V30 23732 H 2367 -0.513719 1.97942 0
M  V30 23733 H 2365.15 -2.9357 2.52776 0
M  V30 23734 H 2365.57 -2.3844 4.67169 0
M  V30 23735 H 2367.04 -3.90919 3.89726 0
M  V30 23736 H 2367.52 -3.79859 2.20463 0
M  V30 23737 H 2368.12 -2.59725 3.36783 0
M  V30 23738 N 2366.44 -1.41713 -0.689577 0
M  V30 23739 C 2367.85 -1.36877 -1.26971 0
M  V30 23740 C 2368.2 -0.0547825 -1.96124 0
M  V30 23741 O 2367.33 0.846835 -1.99142 0
M  V30 23742 C 2367.92 -2.47926 -2.30907 0
M  V30 23743 C 2366.48 -2.46469 -2.84482 0
M  V30 23744 C 2365.63 -2.27468 -1.58599 0
M  V30 23745 H 2368.58 -1.51142 -0.483933 0
M  V30 23746 H 2368.6 -2.17329 -3.12328 0
M  V30 23747 H 2368.11 -3.43546 -1.80548 0
M  V30 23748 H 2366.21 -1.54623 -3.39002 0
M  V30 23749 H 2366.32 -3.42992 -3.34504 0
M  V30 23750 H 2364.69 -1.75455 -1.84629 0
M  V30 23751 H 2365.47 -3.25123 -1.10227 0
M  V30 23752 N 2367.92 0.924431 -1.2764 0
M  V30 23753 C 2369.14 1.71177 -1.17104 0
M  V30 23754 C 2369.57 1.8618 0.268101 0
M  V30 23755 O 2368.92 1.3642 1.19413 0
M  V30 23756 C 2368.97 3.08736 -1.86319 0
M  V30 23757 O 2368.08 3.9565 -1.16338 0
M  V30 23758 H 2367.42 0.524562 -0.4071 0
M  V30 23759 H 2369.95 1.15663 -1.68769 0
M  V30 23760 H 2369.96 3.59031 -1.93806 0
M  V30 23761 H 2368.63 2.97133 -2.91006 0
M  V30 23762 H 2367.21 3.54089 -1.16941 0
M  V30 23763 N 2369.39 1.09715 1.13139 0
M  V30 23764 C 2370.81 0.853914 1.66028 0
M  V30 23765 C 2371.16 -0.617109 1.86242 0
M  V30 23766 O 2370.28 -1.47501 1.58343 0
M  V30 23767 C 2370.88 1.54355 3.01596 0
M  V30 23768 C 2369.44 1.34721 3.51465 0
M  V30 23769 C 2368.58 1.59773 2.26645 0
M  V30 23770 H 2371.53 1.2559 0.970204 0
M  V30 23771 H 2371.55 0.978331 3.67708 0
M  V30 23772 H 2371.07 2.61415 2.86851 0
M  V30 23773 H 2369.17 0.297903 3.71407 0
M  V30 23774 H 2369.28 2.08408 4.31396 0
M  V30 23775 H 2367.64 1.02002 2.33383 0
M  V30 23776 H 2368.43 2.68069 2.14462 0
M  V30 23777 N 2370.87 -1.30419 0.88479 0
M  V30 23778 C 2372.28 -1.78301 0.553688 0
M  V30 23779 C 2372.63 -1.72752 -0.930122 0
M  V30 23780 O 2371.76 -1.30426 -1.72679 0
M  V30 23781 C 2372.35 -3.23759 0.998291 0
M  V30 23782 C 2370.91 -3.69477 0.718605 0
M  V30 23783 C 2370.06 -2.50876 1.18137 0
M  V30 23784 H 2373.01 -1.17292 1.06903 0
M  V30 23785 H 2373.03 -3.79091 0.327184 0
M  V30 23786 H 2372.54 -3.27765 2.07826 0
M  V30 23787 H 2370.65 -3.70958 -0.349378 0
M  V30 23788 H 2370.76 -4.60955 1.30603 0
M  V30 23789 H 2369.12 -2.47515 0.600713 0
M  V30 23790 H 2369.91 -2.5762 2.26907 0
M  V30 23791 N 2372.35 -0.645724 -1.43764 0
M  V30 23792 C 2373.58 -0.163592 -2.06252 0
M  V30 23793 C 2373.99 1.16775 -1.48354 0
M  V30 23794 O 2373.35 1.71934 -0.611963 0
M  V30 23795 C 2373.4 -0.0583822 -3.61453 0
M  V30 23796 O 2373.12 -1.33709 -4.17197 0
M  V30 23797 C 2374.62 0.450718 -4.41003 0
M  V30 23798 H 2371.84 -0.0864194 -0.665412 0
M  V30 23799 H 2374.39 -0.884254 -1.84394 0
M  V30 23800 H 2372.54 0.612798 -3.82523 0
M  V30 23801 H 2372.96 -1.1914 -5.10789 0
M  V30 23802 H 2374.43 0.473306 -5.49967 0
M  V30 23803 H 2374.91 1.4806 -4.13491 0
M  V30 23804 H 2375.51 -0.187712 -4.24886 0
M  V30 23805 N 2373.83 1.5277 -0.38717 0
M  V30 23806 C 2375.06 2.05971 0.195833 0
M  V30 23807 C 2375.47 1.25905 1.40689 0
M  V30 23808 O 2374.83 0.305166 1.79931 0
M  V30 23809 C 2374.88 3.57009 0.568058 0
M  V30 23810 O 2374.6 4.34042 -0.594879 0
M  V30 23811 C 2376.1 4.26547 1.20715 0
M  V30 23812 H 2373.32 0.670327 0.0300461 0
M  V30 23813 H 2375.87 1.96915 -0.551784 0
M  V30 23814 H 2374.02 3.66145 1.26557 0
M  V30 23815 H 2374.43 5.23701 -0.289414 0
M  V30 23816 H 2375.91 5.33477 1.41798 0
M  V30 23817 H 2376.39 3.81627 2.17388 0
M  V30 23818 H 2376.99 4.21723 0.550461 0
M  V30 23819 N 2375.31 0.116931 1.57166 0
M  V30 23820 C 2376.53 -0.549348 1.99474 0
M  V30 23821 C 2376.95 -1.60356 0.996569 0
M  V30 23822 O 2376.31 -1.82497 -0.0108411 0
M  V30 23823 C 2376.36 -1.17735 3.4179 0
M  V30 23824 O 2376.08 -0.165285 4.37788 0
M  V30 23825 C 2377.58 -1.92715 3.99219 0
M  V30 23826 H 2374.8 -0.145605 0.655012 0
M  V30 23827 H 2377.34 0.20266 2.03493 0
M  V30 23828 H 2375.5 -1.88016 3.38717 0
M  V30 23829 H 2375.91 -0.621312 5.20807 0
M  V30 23830 H 2377.39 -2.31986 5.00886 0
M  V30 23831 H 2377.86 -2.80155 3.38245 0
M  V30 23832 H 2378.47 -1.27202 4.05832 0
M  V30 23833 N 2376.78 -1.56818 -0.156836 0
M  V30 23834 C 2378.01 -1.86956 -0.886283 0
M  V30 23835 C 2378.43 -0.704006 -1.75183 0
M  V30 23836 O 2377.78 0.326521 -1.79555 0
M  V30 23837 C 2377.84 -3.16257 -1.75112 0
M  V30 23838 O 2377.56 -4.28321 -0.920461 0
M  V30 23839 C 2379.06 -3.59842 -2.58899 0
M  V30 23840 H 2376.28 -0.619928 -0.256769 0
M  V30 23841 H 2378.82 -2.0393 -0.152579 0
M  V30 23842 H 2376.98 -3.01066 -2.43799 0
M  V30 23843 H 2377.39 -5.02195 -1.51329 0
M  V30 23844 H 2378.86 -4.53178 -3.15172 0
M  V30 23845 H 2379.34 -2.84655 -3.34467 0
M  V30 23846 H 2379.95 -3.77693 -1.95519 0
M  V30 23847 N 2378.26 0.425871 -1.51737 0
M  V30 23848 C 2379.49 1.19647 -1.68796 0
M  V30 23849 C 2379.91 1.84724 -0.390197 0
M  V30 23850 O 2379.26 1.71195 0.632346 0
M  V30 23851 C 2379.31 2.27203 -2.81178 0
M  V30 23852 O 2379.03 1.64786 -4.05928 0
M  V30 23853 C 2380.54 3.17269 -3.09605 0
M  V30 23854 H 2377.76 0.360184 -0.566135 0
M  V30 23855 H 2380.3 0.503214 -1.98212 0
M  V30 23856 H 2378.45 2.92225 -2.54329 0
M  V30 23857 H 2378.87 2.35959 -4.68427 0
M  V30 23858 H 2380.34 3.88847 -3.91793 0
M  V30 23859 H 2380.82 3.78684 -2.22474 0
M  V30 23860 H 2381.43 2.57935 -3.38156 0
M  V30 23861 N 2379.74 1.42077 0.682052 0
M  V30 23862 C 2380.97 1.45542 1.47055 0
M  V30 23863 C 2381.38 0.064611 1.88689 0
M  V30 23864 O 2380.74 -0.919087 1.57668 0
M  V30 23865 C 2380.79 2.37613 2.72437 0
M  V30 23866 O 2380.51 3.71283 2.32552 0
M  V30 23867 C 2382.01 2.50024 3.66064 0
M  V30 23868 H 2379.23 0.495255 0.452728 0
M  V30 23869 H 2381.78 1.86512 0.838662 0
M  V30 23870 H 2379.93 1.99916 3.31832 0
M  V30 23871 H 2380.35 4.20521 3.13468 0
M  V30 23872 H 2381.82 3.18584 4.50786 0
M  V30 23873 H 2382.3 1.53579 4.11473 0
M  V30 23874 H 2382.9 2.88413 3.12567 0
M  V30 23875 N 2381.22 -0.917649 1.28129 0
M  V30 23876 C 2382.63 -1.48143 1.13624 0
M  V30 23877 C 2382.98 -1.94261 -0.275173 0
M  V30 23878 O 2382.11 -1.82104 -1.16907 0
M  V30 23879 C 2382.7 -2.69244 2.05653 0
M  V30 23880 C 2381.26 -3.21814 1.95224 0
M  V30 23881 C 2380.41 -1.94528 1.97621 0
M  V30 23882 H 2383.36 -0.730747 1.40875 0
M  V30 23883 H 2383.38 -3.44374 1.61824 0
M  V30 23884 H 2382.89 -2.35648 3.08369 0
M  V30 23885 H 2380.99 -3.60145 0.955307 0
M  V30 23886 H 2381.11 -3.87328 2.81982 0
M  V30 23887 H 2379.47 -2.11458 1.41977 0
M  V30 23888 H 2380.25 -1.63233 3.0201 0
M  V30 23889 N 2382.7 -1.10314 -1.12555 0
M  V30 23890 C 2384.11 -0.862707 -1.65573 0
M  V30 23891 C 2384.46 0.607223 -1.86567 0
M  V30 23892 O 2383.58 1.46659 -1.59123 0
M  V30 23893 C 2384.18 -1.55952 -3.00773 0
M  V30 23894 C 2382.74 -1.36583 -3.50745 0
M  V30 23895 C 2381.89 -1.60972 -2.25795 0
M  V30 23896 H 2384.84 -1.26102 -0.96353 0
M  V30 23897 H 2384.86 -0.997818 -3.67184 0
M  V30 23898 H 2384.37 -2.62933 -2.85461 0
M  V30 23899 H 2382.47 -0.317596 -3.71244 0
M  V30 23900 H 2382.58 -2.10693 -4.30285 0
M  V30 23901 H 2380.95 -1.03238 -2.32839 0
M  V30 23902 H 2381.73 -2.69202 -2.13038 0
M  V30 23903 N 2384.18 1.29948 -0.891694 0
M  V30 23904 C 2385.59 1.78005 -0.563136 0
M  V30 23905 C 2385.94 1.73243 0.920948 0
M  V30 23906 O 2385.06 1.3134 1.71985 0
M  V30 23907 C 2385.66 3.23225 -1.01545 0
M  V30 23908 C 2384.22 3.6909 -0.738189 0
M  V30 23909 C 2383.36 2.50246 -1.19465 0
M  V30 23910 H 2386.31 1.16723 -1.07524 0
M  V30 23911 H 2386.34 3.78912 -0.347284 0
M  V30 23912 H 2385.85 3.26658 -2.09561 0
M  V30 23913 H 2383.95 3.71138 0.329701 0
M  V30 23914 H 2384.06 4.60256 -1.33045 0
M  V30 23915 H 2382.43 2.47193 -0.613831 0
M  V30 23916 H 2383.21 2.56413 -2.2827 0
M  V30 23917 N 2385.65 0.653339 1.4342 0
M  V30 23918 C 2386.88 0.174528 2.06163 0
M  V30 23919 C 2387.3 -1.15987 1.48971 0
M  V30 23920 O 2386.65 -1.71607 0.621072 0
M  V30 23921 C 2386.7 0.0775501 3.61417 0
M  V30 23922 O 2386.43 1.3592 4.16482 0
M  V30 23923 C 2387.93 -0.427324 4.41236 0
M  V30 23924 H 2385.15 0.089947 0.664944 0
M  V30 23925 H 2387.69 0.894021 1.83923 0
M  V30 23926 H 2385.85 -0.592503 3.82842 0
M  V30 23927 H 2386.26 1.21848 5.1015 0
M  V30 23928 H 2387.73 -0.444134 5.5021 0
M  V30 23929 H 2388.21 -1.45865 4.1427 0
M  V30 23930 H 2388.82 0.210242 4.2478 0
M  V30 23931 N 2387.13 -1.52563 0.395266 0
M  V30 23932 C 2388.36 -2.06072 -0.184907 0
M  V30 23933 C 2388.77 -1.2665 -1.40019 0
M  V30 23934 O 2388.13 -0.314704 -1.79766 0
M  V30 23935 C 2388.18 -3.57305 -0.549116 0
M  V30 23936 O 2387.9 -4.33721 0.617889 0
M  V30 23937 C 2389.4 -4.27182 -1.18451 0
M  V30 23938 H 2386.62 -0.670477 -0.0264907 0
M  V30 23939 H 2389.17 -1.9662 0.562219 0
M  V30 23940 H 2387.32 -3.66811 -1.24614 0
M  V30 23941 H 2387.74 -5.2354 0.317183 0
M  V30 23942 H 2389.21 -5.34221 -1.38967 0
M  V30 23943 H 2389.69 -3.82774 -2.15361 0
M  V30 23944 H 2390.29 -4.22009 -0.528088 0
M  V30 23945 N 2388.61 -0.125265 -1.57101 0
M  V30 23946 C 2389.84 0.538761 -1.99762 0
M  V30 23947 C 2390.25 1.59825 -1.00506 0
M  V30 23948 O 2389.61 1.825 0.00116266 0
M  V30 23949 C 2389.66 1.15921 -3.4241 0
M  V30 23950 O 2389.38 0.142066 -4.3787 0
M  V30 23951 C 2390.88 1.90595 -4.00235 0
M  V30 23952 H 2388.1 0.142129 -0.655775 0
M  V30 23953 H 2390.65 -0.213449 -2.03383 0
M  V30 23954 H 2388.8 1.86217 -3.39709 0
M  V30 23955 H 2389.22 0.593683 -5.21129 0
M  V30 23956 H 2390.69 2.29326 -5.02109 0
M  V30 23957 H 2391.17 2.78357 -3.39726 0
M  V30 23958 H 2391.77 1.25048 -4.06501 0
M  V30 23959 N 2390.09 1.56899 0.148518 0
M  V30 23960 C 2391.5 1.72725 0.708736 0
M  V30 23961 C 2391.85 0.739427 1.81733 0
M  V30 23962 O 2390.97 -0.0942789 2.16195 0
M  V30 23963 C 2391.57 3.13182 1.29239 0
M  V30 23964 C 2390.13 3.30615 1.79919 0
M  V30 23965 C 2389.28 2.68654 0.687064 0
M  V30 23966 H 2392.23 1.58512 -0.0771342 0
M  V30 23967 H 2392.25 3.13097 2.16219 0
M  V30 23968 H 2391.76 3.85054 0.485315 0
M  V30 23969 H 2389.86 2.63737 2.63199 0
M  V30 23970 H 2389.97 4.38552 1.92895 0
M  V30 23971 H 2388.34 2.2908 1.11331 0
M  V30 23972 H 2389.12 3.43128 -0.108543 0
M  V30 23973 N 2391.57 -0.417818 1.51961 0
M  V30 23974 C 2392.79 -1.19207 1.69719 0
M  V30 23975 C 2393.22 -1.8375 0.40218 0
M  V30 23976 O 2392.57 -1.69645 -0.639563 0
M  V30 23977 C 2392.62 -2.23736 2.82798 0
M  V30 23978 O 2391.73 -3.29679 2.47761 0
M  V30 23979 H 2391.07 -0.348377 0.565269 0
M  V30 23980 H 2393.6 -0.49095 1.98622 0
M  V30 23981 H 2393.61 -2.68206 3.07456 0
M  V30 23982 H 2392.28 -1.76139 3.76759 0
M  V30 23983 H 2390.86 -2.90548 2.33744 0
M  V30 23984 N 2393.04 -1.42436 -0.674508 0
M  V30 23985 C 2394.45 -1.38216 -1.25512 0
M  V30 23986 C 2394.81 -0.0755809 -1.96054 0
M  V30 23987 O 2393.93 0.825665 -2.00029 0
M  V30 23988 C 2394.53 -2.50361 -2.28265 0
M  V30 23989 C 2393.08 -2.49472 -2.81852 0
M  V30 23990 C 2392.23 -2.29137 -1.56178 0
M  V30 23991 H 2395.18 -1.51646 -0.467875 0
M  V30 23992 H 2395.2 -2.20629 -3.10005 0
M  V30 23993 H 2394.72 -3.45442 -1.76894 0
M  V30 23994 H 2392.82 -1.5821 -3.37343 0
M  V30 23995 H 2392.93 -3.46521 -3.30848 0
M  V30 23996 H 2391.29 -1.77403 -1.82758 0
M  V30 23997 H 2392.08 -3.26274 -1.06773 0
M  V30 23998 N 2394.52 0.910841 -1.28614 0
M  V30 23999 C 2395.93 1.47539 -1.14408 0
M  V30 24000 C 2396.28 1.94404 0.264867 0
M  V30 24001 O 2395.41 1.82721 1.15939 0
M  V30 24002 C 2396 2.6815 -2.07078 0
M  V30 24003 C 2394.56 3.20774 -1.96928 0
M  V30 24004 C 2393.71 1.93477 -1.9865 0
M  V30 24005 H 2396.66 0.723266 -1.41261 0
M  V30 24006 H 2396.68 3.43511 -1.63648 0
M  V30 24007 H 2396.19 2.34009 -3.09615 0
M  V30 24008 H 2394.29 3.59634 -0.974393 0
M  V30 24009 H 2394.41 3.85827 -2.84032 0
M  V30 24010 H 2392.77 2.10702 -1.43096 0
M  V30 24011 H 2393.55 1.61629 -3.02871 0
M  V30 24012 N 2396 1.10909 1.11969 0
M  V30 24013 C 2397.23 0.876857 1.874 0
M  V30 24014 C 2397.64 -0.572993 1.79895 0
M  V30 24015 O 2397 -1.39532 1.17631 0
M  V30 24016 C 2397.05 1.32288 3.36426 0
M  V30 24017 O 2396.77 2.71588 3.43761 0
M  V30 24018 C 2398.27 1.12526 4.28781 0
M  V30 24019 H 2395.49 0.314395 0.592788 0
M  V30 24020 H 2398.04 1.47501 1.41646 0
M  V30 24021 H 2396.19 0.768295 3.79705 0
M  V30 24022 H 2396.61 2.90784 4.36515 0
M  V30 24023 H 2398.08 1.48642 5.3161 0
M  V30 24024 H 2398.56 0.0643166 4.39153 0
M  V30 24025 H 2399.16 1.66655 3.91288 0
M  V30 24026 N 2397.48 -1.29474 0.898573 0
M  V30 24027 C 2398.71 -1.99748 0.539296 0
M  V30 24028 C 2399.12 -1.67264 -0.875687 0
M  V30 24029 O 2398.48 -0.917077 -1.57784 0
M  V30 24030 C 2398.53 -3.54244 0.720673 0
M  V30 24031 O 2398.25 -3.85577 2.07996 0
M  V30 24032 C 2399.75 -4.41785 0.366195 0
M  V30 24033 H 2396.97 -0.638254 0.207058 0
M  V30 24034 H 2399.52 -1.65036 1.20761 0
M  V30 24035 H 2397.67 -3.87272 0.0995543 0
M  V30 24036 H 2398.08 -4.80253 2.10849 0
M  V30 24037 H 2399.56 -5.49313 0.543945 0
M  V30 24038 H 2400.04 -4.33639 -0.696686 0
M  V30 24039 H 2400.64 -4.14226 0.964208 0
M  V30 24040 N 2398.96 -0.660936 -1.43071 0
M  V30 24041 C 2400.18 -0.185458 -2.06067 0
M  V30 24042 C 2400.6 1.15195 -1.49584 0
M  V30 24043 O 2399.96 1.71275 -0.630164 0
M  V30 24044 C 2400.01 -0.0967158 -3.61371 0
M  V30 24045 O 2399.73 -1.38126 -4.15756 0
M  V30 24046 C 2401.23 0.403918 -4.41456 0
M  V30 24047 H 2398.45 -0.0934721 -0.664458 0
M  V30 24048 H 2400.99 -0.903762 -1.83446 0
M  V30 24049 H 2399.15 0.572191 -3.83151 0
M  V30 24050 H 2399.56 -1.24551 -5.09497 0
M  V30 24051 H 2401.04 0.414948 -5.50438 0
M  V30 24052 H 2401.51 1.43666 -4.15038 0
M  V30 24053 H 2402.12 -0.232766 -4.24663 0
M  V30 24054 N 2400.43 1.52351 -0.403352 0
M  V30 24055 C 2401.85 1.86578 0.0675454 0
M  V30 24056 C 2402.2 1.32239 1.44939 0
M  V30 24057 O 2401.32 0.659343 2.06111 0
M  V30 24058 C 2401.92 3.38553 0.129344 0
M  V30 24059 C 2400.48 3.7244 0.544564 0
M  V30 24060 C 2399.62 2.75836 -0.2846 0
M  V30 24061 H 2402.57 1.4606 -0.620657 0
M  V30 24062 H 2402.59 3.68559 0.945746 0
M  V30 24063 H 2402.11 3.78072 -0.876516 0
M  V30 24064 H 2400.21 3.38496 1.55728 0
M  V30 24065 H 2400.32 4.78203 0.292961 0
M  V30 24066 H 2398.68 2.53448 0.252214 0
M  V30 24067 H 2399.47 3.18194 -1.2887 0
M  V30 24068 N 2401.91 0.133594 1.57033 0
M  V30 24069 C 2403.16 -0.520734 1.94862 0
M  V30 24070 C 2403.47 -1.6689 1.02015 0
M  V30 24071 O 2404.68 -2.38696 1.29369 0
M  V30 24072 C 2403.14 -0.977748 3.46364 0
M  V30 24073 C 2402.74 0.142753 4.47773 0
M  V30 24074 C 2404.49 -1.60263 3.93085 0
M  V30 24075 C 2402.4 -0.331779 5.90469 0
M  V30 24076 H 2401.33 -0.198302 0.727456 0
M  V30 24077 H 2403.98 0.215791 1.82227 0
M  V30 24078 H 2402.36 -1.76913 3.54285 0
M  V30 24079 H 2403.53 0.919396 4.51535 0
M  V30 24080 H 2401.85 0.675196 4.10889 0
M  V30 24081 H 2404.44 -1.96905 4.97124 0
M  V30 24082 H 2404.79 -2.48656 3.3388 0
M  V30 24083 H 2405.32 -0.876385 3.88026 0
M  V30 24084 H 2402.06 0.516456 6.53462 0
M  V30 24085 H 2401.58 -1.07459 5.90095 0
M  V30 24086 H 2403.26 -0.788219 6.42181 0
M  V30 24087 N 2403.39 -1.56975 -0.140195 0
M  V30 24088 C 2404.62 -1.87886 -0.866404 0
M  V30 24089 C 2405.03 -0.722547 -1.74427 0
M  V30 24090 O 2404.39 0.307458 -1.79891 0
M  V30 24091 C 2404.44 -3.18096 -1.71747 0
M  V30 24092 O 2404.16 -4.29273 -0.87498 0
M  V30 24093 C 2405.66 -3.62568 -2.55068 0
M  V30 24094 H 2402.88 -0.622616 -0.250179 0
M  V30 24095 H 2405.43 -2.0408 -0.130941 0
M  V30 24096 H 2403.58 -3.03635 -2.40592 0
M  V30 24097 H 2404 -5.03772 -1.45994 0
M  V30 24098 H 2405.47 -4.56495 -3.10348 0
M  V30 24099 H 2405.95 -2.88187 -3.31429 0
M  V30 24100 H 2406.55 -3.79746 -1.91502 0
M  V30 24101 N 2404.87 0.409753 -1.5218 0
M  V30 24102 C 2406.28 0.988587 -1.58379 0
M  V30 24103 C 2406.63 1.91566 -0.423913 0
M  V30 24104 O 2405.76 2.11545 0.455807 0
M  V30 24105 C 2406.35 1.79971 -2.87047 0
M  V30 24106 C 2404.91 2.32858 -2.95726 0
M  V30 24107 C 2404.06 1.12823 -2.53311 0
M  V30 24108 H 2407.01 0.190011 -1.57558 0
M  V30 24109 H 2407.03 2.65703 -2.72364 0
M  V30 24110 H 2406.54 1.12471 -3.71446 0
M  V30 24111 H 2404.64 3.03731 -2.1582 0
M  V30 24112 H 2404.75 2.63766 -3.99955 0
M  V30 24113 H 2403.12 1.482 -2.07144 0
M  V30 24114 H 2403.9 0.468911 -3.40083 0
M  V30 24115 N 2406.35 1.42792 0.666944 0
M  V30 24116 C 2407.76 1.3888 1.24777 0
M  V30 24117 C 2408.11 0.0859771 1.96012 0
M  V30 24118 O 2407.23 -0.815046 2.00464 0
M  V30 24119 C 2407.83 2.51568 2.26934 0
M  V30 24120 C 2406.39 2.50963 2.80525 0
M  V30 24121 C 2405.53 2.29962 1.54961 0
M  V30 24122 H 2408.49 1.51892 0.459826 0
M  V30 24123 H 2408.51 2.2227 3.08831 0
M  V30 24124 H 2408.02 3.46375 1.75059 0
M  V30 24125 H 2406.12 1.59997 3.36499 0
M  V30 24126 H 2406.23 3.4827 3.29005 0
M  V30 24127 H 2404.6 1.7837 1.81814 0
M  V30 24128 H 2405.38 3.26835 1.05041 0
M  V30 24129 N 2407.82 -0.904008 1.29095 0
M  V30 24130 C 2409.05 -1.68764 1.19692 0
M  V30 24131 C 2409.47 -1.87229 -0.24308 0
M  V30 24132 O 2408.82 -1.40624 -1.16324 0
M  V30 24133 C 2408.88 -3.0745 1.90149 0
M  V30 24134 O 2408.6 -2.89832 3.28526 0
M  V30 24135 C 2410.1 -4.01849 1.8717 0
M  V30 24136 H 2407.32 -0.527237 0.415045 0
M  V30 24137 H 2409.86 -1.13079 1.70392 0
M  V30 24138 H 2408.02 -3.59924 1.43296 0
M  V30 24139 H 2408.43 -3.77677 3.63951 0
M  V30 24140 H 2409.9 -4.96592 2.41041 0
M  V30 24141 H 2410.38 -4.3097 0.846246 0
M  V30 24142 H 2410.99 -3.55306 2.33747 0
M  V30 24143 N 2409.3 -1.11501 -1.11379 0
M  V30 24144 C 2410.53 -0.887052 -1.87473 0
M  V30 24145 C 2410.95 0.557764 -1.7964 0
M  V30 24146 O 2410.31 1.39394 -1.15927 0
M  V30 24147 C 2410.36 -1.35409 -3.34211 0
M  V30 24148 O 2409.46 -0.526218 -4.09029 0
M  V30 24149 H 2408.8 -0.319473 -0.582094 0
M  V30 24150 H 2411.33 -1.48464 -1.40782 0
M  V30 24151 H 2411.34 -1.34888 -3.85057 0
M  V30 24152 H 2410.02 -2.40618 -3.39228 0
M  V30 24153 H 2408.6 -0.597587 -3.68081 0
M  V30 24154 N 2410.78 1.28995 -0.905426 0
M  V30 24155 C 2412.01 1.99459 -0.549881 0
M  V30 24156 C 2412.42 1.67726 0.866804 0
M  V30 24157 O 2411.78 0.925432 1.57296 0
M  V30 24158 C 2411.83 3.53856 -0.739449 0
M  V30 24159 O 2411.55 3.84468 -2.10038 0
M  V30 24160 C 2413.05 4.41584 -0.389619 0
M  V30 24161 H 2410.27 0.637147 -0.21044 0
M  V30 24162 H 2412.82 1.64394 -1.21635 0
M  V30 24163 H 2410.97 3.87214 -0.120091 0
M  V30 24164 H 2411.39 4.79128 -2.13393 0
M  V30 24165 H 2412.86 5.49017 -0.573068 0
M  V30 24166 H 2413.34 4.34003 0.67368 0
M  V30 24167 H 2413.94 4.13709 -0.986162 0
M  V30 24168 N 2412.26 0.668514 1.42719 0
M  V30 24169 C 2413.49 0.196384 2.05966 0
M  V30 24170 C 2413.9 -1.144 1.50193 0
M  V30 24171 O 2413.26 -1.70939 0.639238 0
M  V30 24172 C 2413.31 0.115879 3.61314 0
M  V30 24173 O 2413.03 1.40329 4.15017 0
M  V30 24174 C 2414.53 -0.380501 4.41664 0
M  V30 24175 H 2411.75 0.0969946 0.663953 0
M  V30 24176 H 2414.3 0.913478 1.82964 0
M  V30 24177 H 2412.45 -0.551864 3.83449 0
M  V30 24178 H 2412.87 1.27252 5.08829 0
M  V30 24179 H 2414.34 -0.385751 5.5065 0
M  V30 24180 H 2414.82 -1.41463 4.15794 0
M  V30 24181 H 2415.42 0.255284 4.24533 0
M  V30 24182 N 2413.74 -1.52135 0.411426 0
M  V30 24183 C 2414.97 -2.06257 -0.16304 0
M  V30 24184 C 2415.38 -1.28128 -1.38668 0
M  V30 24185 O 2414.74 -0.333753 -1.79422 0
M  V30 24186 C 2414.79 -3.57867 -0.511189 0
M  V30 24187 O 2414.51 -4.33041 0.663857 0
M  V30 24188 C 2416.01 -4.28414 -1.13914 0
M  V30 24189 H 2413.23 -0.67072 -0.0193779 0
M  V30 24190 H 2415.77 -1.96012 0.583041 0
M  V30 24191 H 2413.93 -3.68112 -1.20716 0
M  V30 24192 H 2414.34 -5.23174 0.372693 0
M  V30 24193 H 2415.82 -5.35665 -1.33293 0
M  V30 24194 H 2416.29 -3.85037 -2.11289 0
M  V30 24195 H 2416.9 -4.22545 -0.483299 0
M  V30 24196 N 2415.22 -0.14192 -1.5696 0
M  V30 24197 C 2416.15 0.795898 -2.19517 0
M  V30 24198 C 2417.13 1.26075 -1.14189 0
M  V30 24199 O 2418.31 1.31923 -1.42513 0
M  V30 24200 C 2415.44 2.03718 -2.81276 0
M  V30 24201 C 2414.4 1.70929 -3.92387 0
M  V30 24202 C 2413.72 3.02279 -4.41057 0
M  V30 24203 C 2415.02 0.959864 -5.13404 0
M  V30 24204 H 2416.72 0.274543 -2.98139 0
M  V30 24205 H 2414.26 0.130611 -1.43406 0
M  V30 24206 H 2416.21 2.69802 -3.23705 0
M  V30 24207 H 2414.94 2.58218 -1.99978 0
M  V30 24208 H 2413.6 1.07226 -3.50568 0
M  V30 24209 H 2413.25 3.54759 -3.56588 0
M  V30 24210 H 2412.95 2.81105 -5.15998 0
M  V30 24211 H 2414.47 3.69443 -4.86153 0
M  V30 24212 H 2415.88 1.52269 -5.52709 0
M  V30 24213 H 2414.28 0.848253 -5.94075 0
M  V30 24214 H 2415.35 -0.0493287 -4.84875 0
M  V30 24215 N 2416.69 1.57047 0.131868 0
M  V30 24216 C 2418.1 1.73467 0.690376 0
M  V30 24217 C 2418.46 0.758661 1.80939 0
M  V30 24218 O 2417.58 -0.0713433 2.16282 0
M  V30 24219 C 2418.18 3.14535 1.2591 0
M  V30 24220 C 2416.73 3.32504 1.76403 0
M  V30 24221 C 2415.88 2.69367 0.658531 0
M  V30 24222 H 2418.83 1.58422 -0.0939422 0
M  V30 24223 H 2418.85 3.15372 2.12886 0
M  V30 24224 H 2418.37 3.85547 0.444447 0
M  V30 24225 H 2416.47 2.66514 2.60387 0
M  V30 24226 H 2416.58 4.40574 1.88233 0
M  V30 24227 H 2414.94 2.30248 1.08895 0
M  V30 24228 H 2415.73 3.42994 -0.144931 0
M  V30 24229 N 2418.17 -0.401677 1.52395 0
M  V30 24230 C 2419.58 -0.980174 1.58901 0
M  V30 24231 C 2419.93 -1.91338 0.434066 0
M  V30 24232 O 2419.06 -2.11784 -0.444582 0
M  V30 24233 C 2419.65 -1.78446 2.87997 0
M  V30 24234 C 2418.21 -2.31287 2.96957 0
M  V30 24235 C 2417.36 -1.11478 2.53905 0
M  V30 24236 H 2420.31 -0.181652 1.57657 0
M  V30 24237 H 2420.33 -2.64254 2.7377 0
M  V30 24238 H 2419.84 -1.105 3.72037 0
M  V30 24239 H 2417.94 -3.02582 2.17427 0
M  V30 24240 H 2418.06 -2.61642 4.01348 0
M  V30 24241 H 2416.42 -1.471 2.07927 0
M  V30 24242 H 2417.2 -0.450869 3.40326 0
M  V30 24243 N 2419.65 -1.43144 -0.659362 0
M  V30 24244 C 2420.88 -1.47863 -1.44721 0
M  V30 24245 C 2421.29 -0.0946217 -1.88563 0
M  V30 24246 O 2420.65 0.893887 -1.5911 0
M  V30 24247 C 2420.7 -2.41918 -2.68623 0
M  V30 24248 O 2420.42 -3.74936 -2.26616 0
M  V30 24249 C 2421.92 -2.55816 -3.6204 0
M  V30 24250 H 2419.14 -0.502395 -0.444792 0
M  V30 24251 H 2421.69 -1.87823 -0.808883 0
M  V30 24252 H 2419.84 -2.0517 -3.28609 0
M  V30 24253 H 2420.26 -4.25455 -3.06738 0
M  V30 24254 H 2421.73 -3.25715 -4.45661 0
M  V30 24255 H 2422.21 -1.60106 -4.08978 0
M  V30 24256 H 2422.81 -2.93349 -3.07939 0
M  V30 24257 N 2421.13 0.897149 -1.29572 0
M  V30 24258 C 2422.36 1.68127 -1.20585 0
M  V30 24259 C 2422.77 1.87355 0.233148 0
M  V30 24260 O 2422.13 1.41238 1.15577 0
M  V30 24261 C 2422.18 3.06437 -1.91777 0
M  V30 24262 O 2421.9 2.88086 -3.30058 0
M  V30 24263 C 2423.4 4.00851 -1.89298 0
M  V30 24264 H 2420.62 0.525029 -0.417835 0
M  V30 24265 H 2423.16 1.12174 -1.70989 0
M  V30 24266 H 2421.32 3.59159 -1.45202 0
M  V30 24267 H 2421.73 3.75742 -3.65948 0
M  V30 24268 H 2423.21 4.95306 -2.43671 0
M  V30 24269 H 2423.68 4.30515 -0.869089 0
M  V30 24270 H 2424.29 3.54061 -2.35628 0
M  V30 24271 N 2422.61 1.1209 1.10786 0
M  V30 24272 C 2423.83 0.896684 1.8646 0
M  V30 24273 C 2424.25 -0.55388 1.80493 0
M  V30 24274 O 2423.61 -1.38276 1.19105 0
M  V30 24275 C 2423.66 1.35849 3.35004 0
M  V30 24276 O 2423.38 2.75219 3.40861 0
M  V30 24277 C 2424.88 1.17067 4.27563 0
M  V30 24278 H 2422.1 0.320664 0.58942 0
M  V30 24279 H 2424.64 1.48995 1.40074 0
M  V30 24280 H 2422.8 0.808525 3.78869 0
M  V30 24281 H 2423.21 2.95397 4.33406 0
M  V30 24282 H 2424.69 1.54272 5.30004 0
M  V30 24283 H 2425.16 0.110891 4.3906 0
M  V30 24284 H 2425.77 1.70796 3.89498 0
M  V30 24285 N 2424.08 -1.28513 0.912254 0
M  V30 24286 C 2425.49 -1.77086 0.591383 0
M  V30 24287 C 2425.85 -1.74686 -0.89327 0
M  V30 24288 O 2424.97 -1.34059 -1.69874 0
M  V30 24289 C 2425.57 -3.21568 1.06674 0
M  V30 24290 C 2424.12 -3.67869 0.796814 0
M  V30 24291 C 2423.27 -2.48314 1.23432 0
M  V30 24292 H 2426.22 -1.14998 1.09367 0
M  V30 24293 H 2426.24 -3.78311 0.407522 0
M  V30 24294 H 2425.76 -3.23283 2.14731 0
M  V30 24295 H 2423.86 -3.71616 -0.270614 0
M  V30 24296 H 2423.97 -4.58081 1.40351 0
M  V30 24297 H 2422.33 -2.46185 0.653079 0
M  V30 24298 H 2423.12 -2.52749 2.3232 0
M  V30 24299 N 2425.56 -0.676073 -1.42362 0
M  V30 24300 C 2426.79 -0.205741 -2.06377 0
M  V30 24301 C 2427.21 1.1288 -1.50465 0
M  V30 24302 O 2426.57 1.70236 -0.623649 0
M  V30 24303 C 2426.62 -0.152718 -3.60276 0
M  V30 24304 O 2425.72 0.878379 -4.02937 0
M  V30 24305 H 2425.06 -0.10537 -0.655586 0
M  V30 24306 H 2427.59 -0.925445 -1.82474 0
M  V30 24307 H 2427.6 0.0229958 -4.07994 0
M  V30 24308 H 2426.28 -1.12682 -4.00344 0
M  V30 24309 H 2424.86 0.673603 -3.66766 0
M  V30 24310 N 2427.04 1.51915 -0.419488 0
M  V30 24311 C 2428.45 1.86639 0.0477525 0
M  V30 24312 C 2428.8 1.33769 1.43528 0
M  V30 24313 O 2427.93 0.681167 2.054 0
M  V30 24314 C 2428.52 3.38671 0.0934289 0
M  V30 24315 C 2427.08 3.72997 0.505031 0
M  V30 24316 C 2426.23 2.75518 -0.31384 0
M  V30 24317 H 2429.18 1.45394 -0.636113 0
M  V30 24318 H 2429.2 3.69542 0.906602 0
M  V30 24319 H 2428.71 3.77122 -0.916567 0
M  V30 24320 H 2426.81 3.40129 1.52129 0
M  V30 24321 H 2426.93 4.78487 0.242225 0
M  V30 24322 H 2425.29 2.53701 0.225318 0
M  V30 24323 H 2426.07 3.16809 -1.32238 0
M  V30 24324 N 2428.52 0.150242 1.56882 0
M  V30 24325 C 2429.93 -0.370044 1.82996 0
M  V30 24326 C 2430.28 -1.64514 1.0691 0
M  V30 24327 O 2429.41 -2.14089 0.315407 0
M  V30 24328 C 2430 -0.67815 3.31944 0
M  V30 24329 C 2428.56 -1.14295 3.58627 0
M  V30 24330 C 2427.71 -0.167729 2.76792 0
M  V30 24331 H 2430.66 0.374885 1.54209 0
M  V30 24332 H 2430.68 -1.53248 3.48275 0
M  V30 24333 H 2430.19 0.25006 3.87294 0
M  V30 24334 H 2428.29 -2.08699 3.08668 0
M  V30 24335 H 2428.4 -1.06668 4.67075 0
M  V30 24336 H 2426.77 -0.660994 2.45974 0
M  V30 24337 H 2427.55 0.754128 3.34915 0
M  V30 24338 N 2430 -1.57115 -0.123538 0
M  V30 24339 C 2431.41 -1.7383 -0.681167 0
M  V30 24340 C 2431.76 -0.768246 -1.80534 0
M  V30 24341 O 2430.88 0.0598723 -2.16317 0
M  V30 24342 C 2431.48 -3.15198 -1.2424 0
M  V30 24343 C 2430.04 -3.33435 -1.74637 0
M  V30 24344 C 2429.18 -2.69713 -0.644237 0
M  V30 24345 H 2432.14 -1.5837 0.102342 0
M  V30 24346 H 2432.16 -3.16497 -2.11211 0
M  V30 24347 H 2431.67 -3.85777 -0.423995 0
M  V30 24348 H 2429.77 -2.67891 -2.5897 0
M  V30 24349 H 2429.88 -4.41566 -1.85894 0
M  V30 24350 H 2428.25 -2.30822 -1.07672 0
M  V30 24351 H 2429.03 -3.42912 0.163118 0
M  V30 24352 N 2431.47 0.393589 -1.52606 0
M  V30 24353 C 2432.7 1.1604 -1.71296 0
M  V30 24354 C 2433.12 1.83855 -0.429292 0
M  V30 24355 O 2432.47 1.72498 0.595891 0
M  V30 24356 C 2432.53 2.21188 -2.85934 0
M  V30 24357 O 2432.25 1.56138 -4.09332 0
M  V30 24358 C 2433.75 3.10631 -3.16265 0
M  V30 24359 H 2430.97 0.348094 -0.573647 0
M  V30 24360 H 2433.51 0.461057 -1.99235 0
M  V30 24361 H 2431.67 2.86765 -2.6047 0
M  V30 24362 H 2432.08 2.2597 -4.73326 0
M  V30 24363 H 2433.55 3.80449 -3.99953 0
M  V30 24364 H 2434.03 3.7388 -2.30457 0
M  V30 24365 H 2434.64 2.50704 -3.43551 0
M  V30 24366 N 2432.95 1.43492 0.651762 0
M  V30 24367 C 2434.18 1.48629 1.43934 0
M  V30 24368 C 2434.6 0.10462 1.8851 0
M  V30 24369 O 2433.95 -0.885436 1.59582 0
M  V30 24370 C 2434 2.43339 2.67336 0
M  V30 24371 O 2433.72 3.76132 2.24624 0
M  V30 24372 C 2435.23 2.57732 3.60679 0
M  V30 24373 H 2432.45 0.504747 0.442121 0
M  V30 24374 H 2434.99 1.88249 0.798911 0
M  V30 24375 H 2433.14 2.0691 3.27516 0
M  V30 24376 H 2433.56 4.27076 3.04477 0
M  V30 24377 H 2435.03 3.28074 4.43927 0
M  V30 24378 H 2435.51 1.62272 4.08123 0
M  V30 24379 H 2436.12 2.94978 3.06379 0
M  V30 24380 N 2434.43 -0.890264 1.30046 0
M  V30 24381 C 2435.66 -1.67485 1.21475 0
M  V30 24382 C 2436.07 -1.87476 -0.223208 0
M  V30 24383 O 2435.43 -1.41849 -1.14826 0
M  V30 24384 C 2435.48 -3.05416 1.934 0
M  V30 24385 O 2435.2 -2.86331 3.31581 0
M  V30 24386 C 2436.7 -3.99841 1.91421 0
M  V30 24387 H 2433.92 -0.522805 0.420613 0
M  V30 24388 H 2436.47 -1.11265 1.71582 0
M  V30 24389 H 2434.62 -3.58384 1.47105 0
M  V30 24390 H 2435.04 -3.73796 3.67936 0
M  V30 24391 H 2436.51 -4.94007 2.46294 0
M  V30 24392 H 2436.99 -4.30048 0.891908 0
M  V30 24393 H 2437.59 -3.52807 2.37502 0
M  V30 24394 N 2435.91 -1.12676 -1.1019 0
M  V30 24395 C 2437.14 -0.90656 -1.85981 0
M  V30 24396 C 2437.55 0.544301 -1.80784 0
M  V30 24397 O 2436.91 1.37643 -1.19836 0
M  V30 24398 C 2436.96 -1.37623 -3.34278 0
M  V30 24399 O 2436.68 -2.77023 -3.39396 0
M  V30 24400 C 2438.18 -1.19333 -4.26936 0
M  V30 24401 H 2435.4 -0.323786 -0.587711 0
M  V30 24402 H 2437.95 -1.49736 -1.39282 0
M  V30 24403 H 2436.1 -0.828606 -3.78435 0
M  V30 24404 H 2436.51 -2.97692 -4.31833 0
M  V30 24405 H 2437.99 -1.57081 -5.29178 0
M  V30 24406 H 2438.47 -0.134174 -4.38995 0
M  V30 24407 H 2439.07 -1.72859 -3.88587 0
M  V30 24408 N 2437.39 1.28028 -0.919057 0
M  V30 24409 C 2438.61 1.98865 -0.571006 0
M  V30 24410 C 2439.03 1.68636 0.848966 0
M  V30 24411 O 2438.39 0.942063 1.56306 0
M  V30 24412 C 2438.44 3.53052 -0.776939 0
M  V30 24413 O 2438.16 3.82219 -2.14104 0
M  V30 24414 C 2439.66 4.41146 -0.436433 0
M  V30 24415 H 2436.88 0.634879 -0.217186 0
M  V30 24416 H 2439.42 1.63094 -1.23371 0
M  V30 24417 H 2437.58 3.87065 -0.161153 0
M  V30 24418 H 2437.99 4.76838 -2.18463 0
M  V30 24419 H 2439.47 5.48379 -0.631267 0
M  V30 24420 H 2439.94 4.34693 0.62761 0
M  V30 24421 H 2440.55 4.1264 -1.02999 0
M  V30 24422 N 2438.86 0.683613 1.42002 0
M  V30 24423 C 2440.28 0.285769 1.845 0
M  V30 24424 C 2440.63 -1.17379 1.57215 0
M  V30 24425 O 2439.75 -1.89965 1.03646 0
M  V30 24426 C 2440.35 0.51188 3.34911 0
M  V30 24427 C 2438.91 0.168071 3.76025 0
M  V30 24428 C 2438.05 0.80003 2.65509 0
M  V30 24429 H 2441 0.885142 1.31723 0
M  V30 24430 H 2441.02 -0.233226 3.79785 0
M  V30 24431 H 2440.54 1.57425 3.54738 0
M  V30 24432 H 2438.64 -0.890504 3.61802 0
M  V30 24433 H 2438.75 0.614744 4.7514 0
M  V30 24434 H 2437.11 0.230613 2.53654 0
M  V30 24435 H 2437.9 1.86603 2.88157 0
M  V30 24436 N 2440.34 -1.5169 0.427538 0
M  V30 24437 C 2441.75 -1.86662 -0.0378539 0
M  V30 24438 C 2442.11 -1.34528 -1.42817 0
M  V30 24439 O 2441.23 -0.69205 -2.05036 0
M  V30 24440 C 2441.83 -3.38716 -0.0754671 0
M  V30 24441 C 2440.38 -3.73259 -0.485243 0
M  V30 24442 C 2439.53 -2.75348 0.328447 0
M  V30 24443 H 2442.48 -1.45054 0.643815 0
M  V30 24444 H 2442.5 -3.70017 -0.886991 0
M  V30 24445 H 2442.02 -3.7663 0.936554 0
M  V30 24446 H 2440.12 -3.40931 -1.50323 0
M  V30 24447 H 2440.23 -4.78609 -0.216846 0
M  V30 24448 H 2438.59 -2.53817 -0.211861 0
M  V30 24449 H 2439.38 -3.16103 1.33916 0
M  V30 24450 N 2441.82 -0.15856 -1.568 0
M  V30 24451 C 2443.23 0.360334 -1.8319 0
M  V30 24452 C 2443.58 1.63944 -1.07781 0
M  V30 24453 O 2442.71 2.13919 -0.326756 0
M  V30 24454 C 2443.3 0.660537 -3.32299 0
M  V30 24455 C 2441.86 1.12391 -3.59229 0
M  V30 24456 C 2441.01 0.153048 -2.76877 0
M  V30 24457 H 2443.96 -0.383058 -1.54008 0
M  V30 24458 H 2443.98 1.51399 -3.49083 0
M  V30 24459 H 2443.49 -0.270595 -3.87156 0
M  V30 24460 H 2441.59 2.07059 -3.0977 0
M  V30 24461 H 2441.71 1.04189 -4.67634 0
M  V30 24462 H 2440.07 0.64794 -2.46321 0
M  V30 24463 H 2440.85 -0.771879 -3.3451 0
M  V30 24464 N 2443.3 1.57178 0.115204 0
M  V30 24465 C 2444.53 1.8924 0.836403 0
M  V30 24466 C 2444.94 0.750206 1.73255 0
M  V30 24467 O 2444.3 -0.2788 1.80358 0
M  V30 24468 C 2444.35 3.20788 1.66665 0
M  V30 24469 O 2444.07 4.30611 0.806576 0
M  V30 24470 C 2445.57 3.6658 2.49267 0
M  V30 24471 H 2442.79 0.626518 0.240242 0
M  V30 24472 H 2445.34 2.04263 0.0984573 0
M  V30 24473 H 2443.49 3.07424 2.35731 0
M  V30 24474 H 2443.91 5.06031 1.37961 0
M  V30 24475 H 2445.38 4.61375 3.03046 0
M  V30 24476 H 2445.86 2.93423 3.26802 0
M  V30 24477 H 2446.46 3.82745 1.85436 0
M  V30 24478 N 2444.78 -0.38549 1.52813 0
M  V30 24479 C 2446.01 -1.1513 1.71909 0
M  V30 24480 C 2446.42 -1.83624 0.439036 0
M  V30 24481 O 2445.78 -1.72811 -0.586734 0
M  V30 24482 C 2445.83 -2.19668 2.87103 0
M  V30 24483 O 2445.55 -1.53965 4.10154 0
M  V30 24484 C 2447.05 -3.08949 3.17908 0
M  V30 24485 H 2444.27 -0.345047 0.575485 0
M  V30 24486 H 2446.81 -0.450485 1.99477 0
M  V30 24487 H 2444.97 -2.85379 2.61987 0
M  V30 24488 H 2445.38 -2.23456 4.74518 0
M  V30 24489 H 2446.86 -3.78323 4.01965 0
M  V30 24490 H 2447.33 -3.72653 2.32436 0
M  V30 24491 H 2447.94 -2.48879 3.44876 0
M  V30 24492 N 2446.26 -1.43835 -0.644143 0
M  V30 24493 C 2447.48 -1.4939 -1.43144 0
M  V30 24494 C 2447.9 -0.114616 -1.88452 0
M  V30 24495 O 2447.26 0.876961 -1.60049 0
M  V30 24496 C 2447.31 -2.44753 -2.66042 0
M  V30 24497 O 2447.03 -3.77318 -2.22627 0
M  V30 24498 C 2448.53 -2.59641 -3.59307 0
M  V30 24499 H 2445.75 -0.507085 -0.439438 0
M  V30 24500 H 2448.29 -1.8867 -0.788917 0
M  V30 24501 H 2446.45 -2.08644 -3.26415 0
M  V30 24502 H 2446.86 -4.28685 -3.02208 0
M  V30 24503 H 2448.34 -3.30424 -4.42181 0
M  V30 24504 H 2448.81 -1.64435 -4.07257 0
M  V30 24505 H 2449.42 -2.96599 -3.0481 0
M  V30 24506 N 2447.73 0.883355 -1.30517 0
M  V30 24507 C 2449.14 1.45079 -1.17512 0
M  V30 24508 C 2449.5 1.94922 0.223571 0
M  V30 24509 O 2448.62 1.85139 1.12037 0
M  V30 24510 C 2449.22 2.63697 -2.12719 0
M  V30 24511 C 2447.77 3.16525 -2.03688 0
M  V30 24512 C 2446.92 1.8922 -2.02709 0
M  V30 24513 H 2449.87 0.69314 -1.42763 0
M  V30 24514 H 2449.89 3.39962 -1.70897 0
M  V30 24515 H 2449.41 2.27389 -3.14509 0
M  V30 24516 H 2447.51 3.57486 -1.05046 0
M  V30 24517 H 2447.62 3.79715 -2.92153 0
M  V30 24518 H 2445.98 2.0762 -1.47534 0
M  V30 24519 H 2446.77 1.55168 -3.06231 0
M  V30 24520 N 2449.21 1.13259 1.09591 0
M  V30 24521 C 2450.44 0.916765 1.86038 0
M  V30 24522 C 2450.86 -0.529114 1.80505 0
M  V30 24523 O 2450.22 -1.37532 1.1813 0
M  V30 24524 C 2450.27 1.40709 3.32014 0
M  V30 24525 O 2449.37 0.591225 4.0814 0
M  V30 24526 H 2448.71 0.328693 0.576937 0
M  V30 24527 H 2451.24 1.50685 1.38403 0
M  V30 24528 H 2451.25 1.40997 3.82863 0
M  V30 24529 H 2449.93 2.45985 3.35357 0
M  V30 24530 H 2448.5 0.656069 3.67083 0
M  V30 24531 N 2450.69 -1.27539 0.925834 0
M  V30 24532 C 2452.1 -1.76449 0.610133 0
M  V30 24533 C 2452.45 -1.75623 -0.874692 0
M  V30 24534 O 2451.58 -1.35854 -1.68442 0
M  V30 24535 C 2452.17 -3.20419 1.10079 0
M  V30 24536 C 2450.73 -3.67003 0.835787 0
M  V30 24537 C 2449.88 -2.46991 1.26058 0
M  V30 24538 H 2452.83 -1.13831 1.10581 0
M  V30 24539 H 2452.85 -3.77858 0.447624 0
M  V30 24540 H 2452.36 -3.20987 2.18148 0
M  V30 24541 H 2450.46 -3.71882 -0.231184 0
M  V30 24542 H 2450.58 -4.56567 1.45201 0
M  V30 24543 H 2448.94 -2.45478 0.679154 0
M  V30 24544 H 2449.72 -2.50271 2.34988 0
M  V30 24545 N 2452.17 -0.691135 -1.41637 0
M  V30 24546 C 2453.58 -0.295549 -1.84346 0
M  V30 24547 C 2453.93 1.16544 -1.57835 0
M  V30 24548 O 2453.05 1.89412 -1.04652 0
M  V30 24549 C 2453.65 -0.529634 -3.34635 0
M  V30 24550 C 2452.21 -0.18801 -3.7593 0
M  V30 24551 C 2451.36 -0.814099 -2.65081 0
M  V30 24552 H 2454.31 -0.892115 -1.31252 0
M  V30 24553 H 2454.33 0.213082 -3.79903 0
M  V30 24554 H 2453.84 -1.59304 -3.53898 0
M  V30 24555 H 2451.94 0.871304 -3.62269 0
M  V30 24556 H 2452.05 -0.639933 -4.74807 0
M  V30 24557 H 2450.42 -0.244061 -2.53528 0
M  V30 24558 H 2451.2 -1.88128 -2.87163 0
M  V30 24559 N 2453.65 1.51461 -0.435577 0
M  V30 24560 C 2454.87 2.0649 0.130206 0
M  V30 24561 C 2455.29 1.30318 1.36612 0
M  V30 24562 O 2454.65 0.362255 1.78869 0
M  V30 24563 C 2454.7 3.58635 0.45419 0
M  V30 24564 O 2454.42 4.3193 -0.732666 0
M  V30 24565 C 2455.92 4.30172 1.07084 0
M  V30 24566 H 2453.14 0.670944 0.0087049 0
M  V30 24567 H 2455.68 1.9506 -0.614151 0
M  V30 24568 H 2453.84 3.69986 1.14845 0
M  V30 24569 H 2454.25 5.22515 -0.455879 0
M  V30 24570 H 2455.73 5.37718 1.24754 0
M  V30 24571 H 2456.2 3.8835 2.05137 0
M  V30 24572 H 2456.81 4.2326 0.416015 0
M  V30 24573 N 2455.12 0.166873 1.56714 0
M  V30 24574 C 2456.35 -0.485609 2.0112 0
M  V30 24575 C 2456.77 -1.57104 1.04708 0
M  V30 24576 O 2456.12 -1.82439 0.0472244 0
M  V30 24577 C 2456.18 -1.06802 3.45363 0
M  V30 24578 O 2455.9 -0.0259225 4.38092 0
M  V30 24579 C 2457.4 -1.79917 4.05148 0
M  V30 24580 H 2454.62 -0.124692 0.659312 0
M  V30 24581 H 2457.16 0.267298 2.02746 0
M  V30 24582 H 2455.32 -1.77144 3.44527 0
M  V30 24583 H 2455.73 -0.455306 5.2252 0
M  V30 24584 H 2457.2 -2.15933 5.08013 0
M  V30 24585 H 2457.68 -2.69252 3.46987 0
M  V30 24586 H 2458.29 -1.14226 4.09674 0
M  V30 24587 N 2456.6 -1.57237 -0.106866 0
M  V30 24588 C 2457.83 -1.89681 -0.826356 0
M  V30 24589 C 2458.25 -0.759383 -1.72855 0
M  V30 24590 O 2457.6 0.269231 -1.80503 0
M  V30 24591 C 2457.65 -3.21667 -1.64961 0
M  V30 24592 O 2457.37 -4.31033 -0.783728 0
M  V30 24593 C 2458.88 -3.67896 -2.4732 0
M  V30 24594 H 2456.1 -0.627783 -0.236916 0
M  V30 24595 H 2458.64 -2.04312 -0.0876234 0
M  V30 24596 H 2456.79 -3.0867 -2.34098 0
M  V30 24597 H 2457.21 -5.06755 -1.35275 0
M  V30 24598 H 2458.68 -4.62976 -3.00595 0
M  V30 24599 H 2459.16 -2.95152 -3.25241 0
M  V30 24600 H 2459.77 -3.83723 -1.83404 0
M  V30 24601 N 2458.08 0.377381 -1.53015 0
M  V30 24602 C 2459.31 1.14216 -1.72517 0
M  V30 24603 C 2459.72 1.83389 -0.448768 0
M  V30 24604 O 2459.08 1.7312 0.577562 0
M  V30 24605 C 2459.13 2.18143 -2.88264 0
M  V30 24606 O 2458.85 1.51788 -4.10965 0
M  V30 24607 C 2460.35 3.07259 -3.19542 0
M  V30 24608 H 2457.57 0.34199 -0.577307 0
M  V30 24609 H 2460.12 0.4399 -1.99713 0
M  V30 24610 H 2458.27 2.83986 -2.63497 0
M  V30 24611 H 2458.69 2.20937 -4.75697 0
M  V30 24612 H 2460.16 3.76186 -4.03966 0
M  V30 24613 H 2460.64 3.71415 -2.34409 0
M  V30 24614 H 2461.24 2.47047 -3.46191 0
M  V30 24615 N 2459.56 1.44175 0.636506 0
M  V30 24616 C 2460.97 1.41495 1.21803 0
M  V30 24617 C 2461.32 0.127535 1.95785 0
M  V30 24618 O 2460.45 -0.772341 2.02148 0
M  V30 24619 C 2461.04 2.56325 2.21547 0
M  V30 24620 C 2459.6 2.56857 2.75139 0
M  V30 24621 C 2458.75 2.33197 1.50048 0
M  V30 24622 H 2461.7 1.52834 0.427504 0
M  V30 24623 H 2461.72 2.28771 3.04046 0
M  V30 24624 H 2461.23 3.50011 1.67673 0
M  V30 24625 H 2459.33 1.67098 3.3303 0
M  V30 24626 H 2459.44 3.55171 3.21544 0
M  V30 24627 H 2457.81 1.82186 1.7799 0
M  V30 24628 H 2458.59 3.2899 0.980845 0
M  V30 24629 N 2461.04 -0.876421 1.30983 0
M  V30 24630 C 2462.26 -1.66713 1.23376 0
M  V30 24631 C 2462.69 -1.87046 -0.198817 0
M  V30 24632 O 2462.04 -1.40758 -1.14267 0
M  V30 24633 C 2462.09 -3.01608 1.97649 0
M  V30 24634 O 2461.2 -3.9106 1.30942 0
M  V30 24635 H 2460.54 -0.509092 0.426288 0
M  V30 24636 H 2463.07 -1.0932 1.72946 0
M  V30 24637 H 2463.08 -3.5159 2.06998 0
M  V30 24638 H 2461.75 -2.86128 3.01834 0
M  V30 24639 H 2460.33 -3.49505 1.30003 0
M  V30 24640 N 2462.51 -1.13839 -1.08989 0
M  V30 24641 C 2463.93 -0.914946 -1.62744 0
M  V30 24642 C 2464.28 0.547561 -1.88404 0
M  V30 24643 O 2463.4 1.41522 -1.63708 0
M  V30 24644 C 2464 -1.65442 -2.95659 0
M  V30 24645 C 2462.56 -1.47672 -3.46222 0
M  V30 24646 C 2461.7 -1.68074 -2.20559 0
M  V30 24647 H 2464.65 -1.29104 -0.922923 0
M  V30 24648 H 2464.67 -1.11413 -3.63823 0
M  V30 24649 H 2464.19 -2.71882 -2.76951 0
M  V30 24650 H 2462.29 -0.435543 -3.70046 0
M  V30 24651 H 2462.4 -2.24276 -4.23364 0
M  V30 24652 H 2460.76 -1.10593 -2.29437 0
M  V30 24653 H 2461.55 -2.75843 -2.04366 0
M  V30 24654 N 2463.99 1.27046 -0.932584 0
M  V30 24655 C 2465.4 1.76123 -0.619482 0
M  V30 24656 C 2465.75 1.76085 0.865366 0
M  V30 24657 O 2464.88 1.36745 1.67719 0
M  V30 24658 C 2465.47 3.1983 -1.11776 0
M  V30 24659 C 2464.03 3.66555 -0.855238 0
M  V30 24660 C 2463.18 2.46319 -1.27366 0
M  V30 24661 H 2466.13 1.13243 -1.11183 0
M  V30 24662 H 2466.15 3.77615 -0.467656 0
M  V30 24663 H 2465.66 3.19826 -2.19847 0
M  V30 24664 H 2463.77 3.71999 0.211459 0
M  V30 24665 H 2463.88 4.5579 -1.47621 0
M  V30 24666 H 2462.24 2.45115 -0.692163 0
M  V30 24667 H 2463.03 2.49021 -2.36312 0
M  V30 24668 N 2465.47 0.698636 1.41269 0
M  V30 24669 C 2466.72 0.227984 2.00407 0
M  V30 24670 C 2467.03 -1.1802 1.55983 0
M  V30 24671 O 2468.24 -1.74848 2.07702 0
M  V30 24672 C 2466.69 0.356699 3.58128 0
M  V30 24673 C 2466.3 1.77045 4.11533 0
M  V30 24674 C 2468.05 -0.0540223 4.24466 0
M  V30 24675 C 2465.95 1.85065 5.61698 0
M  V30 24676 H 2464.88 0.0814788 0.749585 0
M  V30 24677 H 2467.53 0.867277 1.61711 0
M  V30 24678 H 2465.92 -0.350896 3.94442 0
M  V30 24679 H 2467.09 2.50705 3.86631 0
M  V30 24680 H 2465.41 2.13112 3.57732 0
M  V30 24681 H 2468 -0.0145783 5.34698 0
M  V30 24682 H 2468.35 -1.09325 4.01689 0
M  V30 24683 H 2468.88 0.603406 3.93197 0
M  V30 24684 H 2465.62 2.87051 5.89307 0
M  V30 24685 H 2465.14 1.15794 5.88517 0
M  V30 24686 H 2466.82 1.61495 6.26521 0
M  V30 24687 N 2466.95 -1.51228 0.443603 0
M  V30 24688 C 2468.18 -2.06556 -0.119253 0
M  V30 24689 C 2468.59 -1.3104 -1.35919 0
M  V30 24690 O 2467.95 -0.371736 -1.78674 0
M  V30 24691 C 2468 -3.58871 -0.435165 0
M  V30 24692 O 2467.72 -4.31535 0.755562 0
M  V30 24693 C 2469.22 -4.30734 -1.04801 0
M  V30 24694 H 2466.44 -0.67098 -0.0051466 0
M  V30 24695 H 2468.99 -1.94732 0.624487 0
M  V30 24696 H 2467.14 -3.7059 -1.12881 0
M  V30 24697 H 2467.55 -5.22266 0.483582 0
M  V30 24698 H 2469.03 -5.38372 -1.21901 0
M  V30 24699 H 2469.51 -3.89432 -2.03074 0
M  V30 24700 H 2470.11 -4.23475 -0.393562 0
M  V30 24701 N 2468.43 -0.175182 -1.56623 0
M  V30 24702 C 2469.65 0.474936 -2.01375 0
M  V30 24703 C 2470.07 1.56547 -1.0554 0
M  V30 24704 O 2469.43 1.82411 -0.0568989 0
M  V30 24705 C 2469.48 1.04969 -3.45925 0
M  V30 24706 O 2469.2 0.00268904 -4.381 0
M  V30 24707 C 2470.7 1.77766 -4.06096 0
M  V30 24708 H 2467.92 0.121194 -0.659964 0
M  V30 24709 H 2470.46 -0.278046 -2.02601 0
M  V30 24710 H 2468.62 1.75315 -3.45461 0
M  V30 24711 H 2469.03 0.427589 -5.22754 0
M  V30 24712 H 2470.51 2.13236 -5.09151 0
M  V30 24713 H 2470.98 2.67408 -3.4841 0
M  V30 24714 H 2471.59 1.12052 -4.10274 0
M  V30 24715 N 2469.91 1.57292 0.0985263 0
M  V30 24716 C 2471.13 1.90117 0.816285 0
M  V30 24717 C 2471.55 0.768539 1.7245 0
M  V30 24718 O 2470.91 -0.259655 1.80643 0
M  V30 24719 C 2470.96 3.22538 1.63253 0
M  V30 24720 O 2470.68 4.31442 0.760859 0
M  V30 24721 C 2472.18 3.69203 2.45365 0
M  V30 24722 H 2469.4 0.629031 0.233584 0
M  V30 24723 H 2471.94 2.04356 0.076787 0
M  V30 24724 H 2470.1 3.09907 2.32457 0
M  V30 24725 H 2470.51 5.07466 1.32586 0
M  V30 24726 H 2471.99 4.64563 2.98136 0
M  V30 24727 H 2472.46 2.96873 3.23672 0
M  V30 24728 H 2473.07 3.8469 1.81367 0
M  V30 24729 N 2471.38 -0.369261 1.53213 0
M  V30 24730 C 2472.61 -1.133 1.73121 0
M  V30 24731 C 2473.03 -1.83148 0.458487 0
M  V30 24732 O 2472.38 -1.73424 -0.568372 0
M  V30 24733 C 2472.43 -2.16611 2.89417 0
M  V30 24734 O 2472.16 -1.49607 4.11764 0
M  V30 24735 C 2473.66 -3.0556 3.21167 0
M  V30 24736 H 2470.88 -0.338924 0.579113 0
M  V30 24737 H 2473.42 -0.429302 1.99943 0
M  V30 24738 H 2471.58 -2.82585 2.64999 0
M  V30 24739 H 2471.99 -2.18411 4.76862 0
M  V30 24740 H 2473.46 -3.74038 4.05955 0
M  V30 24741 H 2473.94 -3.70166 2.36376 0
M  V30 24742 H 2474.55 -2.45207 3.47496 0
M  V30 24743 N 2472.86 -1.4451 -0.628851 0
M  V30 24744 C 2474.09 -1.509 -1.41552 0
M  V30 24745 C 2474.5 -0.134597 -1.8832 0
M  V30 24746 O 2473.86 0.859936 -1.6097 0
M  V30 24747 C 2473.91 -2.47561 -2.63431 0
M  V30 24748 O 2473.63 -3.79658 -2.18612 0
M  V30 24749 C 2475.13 -2.63438 -3.56533 0
M  V30 24750 H 2472.35 -0.511717 -0.434035 0
M  V30 24751 H 2474.9 -1.89496 -0.768861 0
M  V30 24752 H 2473.05 -2.12094 -3.24183 0
M  V30 24753 H 2473.47 -4.31866 -2.97644 0
M  V30 24754 H 2474.94 -3.35095 -4.38651 0
M  V30 24755 H 2475.42 -1.68745 -4.0549 0
M  V30 24756 H 2476.02 -2.99815 -3.01647 0
M  V30 24757 N 2474.34 0.869463 -1.31446 0
M  V30 24758 C 2475.75 1.43824 -1.19044 0
M  V30 24759 C 2476.1 1.95148 0.202884 0
M  V30 24760 O 2475.23 1.86317 1.10067 0
M  V30 24761 C 2475.82 2.61426 -2.15504 0
M  V30 24762 C 2474.38 3.14347 -2.07034 0
M  V30 24763 C 2473.53 1.8706 -2.04705 0
M  V30 24764 H 2476.48 0.677959 -1.4349 0
M  V30 24765 H 2476.5 3.38131 -1.74493 0
M  V30 24766 H 2476.01 2.24041 -3.16903 0
M  V30 24767 H 2474.11 3.56352 -1.08831 0
M  V30 24768 H 2474.23 3.76595 -2.96164 0
M  V30 24769 H 2472.59 2.06043 -1.49727 0
M  V30 24770 H 2473.37 1.51911 -3.0786 0
M  V30 24771 N 2475.82 1.14415 1.08383 0
M  V30 24772 C 2477.23 0.923564 1.62257 0
M  V30 24773 C 2477.58 -0.537562 1.88692 0
M  V30 24774 O 2476.7 -1.40652 1.64457 0
M  V30 24775 C 2477.3 1.67008 2.94778 0
M  V30 24776 C 2475.86 1.49506 3.45434 0
M  V30 24777 C 2475.01 1.69242 2.19665 0
M  V30 24778 H 2477.96 1.29592 0.916064 0
M  V30 24779 H 2477.98 1.13341 3.63227 0
M  V30 24780 H 2477.49 2.73346 2.75506 0
M  V30 24781 H 2475.59 0.455162 3.69809 0
M  V30 24782 H 2475.7 2.26518 4.22169 0
M  V30 24783 H 2474.07 1.11808 2.28847 0
M  V30 24784 H 2474.85 2.76923 2.029 0
M  V30 24785 N 2477.3 -1.26549 0.939309 0
M  V30 24786 C 2478.71 -1.75792 0.628813 0
M  V30 24787 C 2479.06 -1.76541 -0.856015 0
M  V30 24788 O 2478.18 -1.37633 -1.66992 0
M  V30 24789 C 2478.78 -3.19233 1.13471 0
M  V30 24790 C 2477.34 -3.66096 0.874666 0
M  V30 24791 C 2476.48 -2.4564 1.28671 0
M  V30 24792 H 2479.43 -1.12652 1.11782 0
M  V30 24793 H 2479.46 -3.77362 0.487675 0
M  V30 24794 H 2478.97 -3.18656 2.2154 0
M  V30 24795 H 2477.07 -3.72106 -0.191728 0
M  V30 24796 H 2477.18 -4.55001 1.50036 0
M  V30 24797 H 2475.55 -2.44744 0.705152 0
M  V30 24798 H 2476.33 -2.47765 2.37629 0
M  V30 24799 N 2478.77 -0.706118 -1.40896 0
M  V30 24800 C 2480 -0.250923 -2.05373 0
M  V30 24801 C 2480.42 1.10378 -1.53174 0
M  V30 24802 O 2479.77 1.69184 -0.684335 0
M  V30 24803 C 2479.82 -0.211634 -3.6088 0
M  V30 24804 O 2479.55 -1.51283 -4.11151 0
M  V30 24805 C 2481.05 0.263268 -4.42518 0
M  V30 24806 H 2478.27 -0.114564 -0.661148 0
M  V30 24807 H 2480.81 -0.961666 -1.80478 0
M  V30 24808 H 2478.97 0.450005 -3.84777 0
M  V30 24809 H 2479.38 -1.40698 -5.05277 0
M  V30 24810 H 2480.85 0.239621 -5.5148 0
M  V30 24811 H 2481.33 1.30389 -4.19399 0
M  V30 24812 H 2481.94 -0.367751 -4.23707 0
M  V30 24813 N 2480.25 1.50991 -0.451617 0
M  V30 24814 C 2481.48 2.06616 0.108298 0
M  V30 24815 C 2481.89 1.31759 1.35222 0
M  V30 24816 O 2481.25 0.381206 1.78474 0
M  V30 24817 C 2481.3 3.59097 0.416127 0
M  V30 24818 O 2481.02 4.31129 -0.778436 0
M  V30 24819 C 2482.52 4.31284 1.02515 0
M  V30 24820 H 2479.74 0.670998 0.00158816 0
M  V30 24821 H 2482.29 1.94398 -0.634806 0
M  V30 24822 H 2480.44 3.71183 1.10914 0
M  V30 24823 H 2480.86 5.22002 -0.511273 0
M  V30 24824 H 2482.33 5.39011 1.19044 0
M  V30 24825 H 2482.81 3.90504 2.01006 0
M  V30 24826 H 2483.41 4.23678 0.371099 0
M  V30 24827 N 2481.73 0.183486 1.56528 0
M  V30 24828 C 2482.96 -0.46425 2.01624 0
M  V30 24829 C 2483.37 -1.55985 1.06368 0
M  V30 24830 O 2482.73 -1.82379 0.0665718 0
M  V30 24831 C 2482.78 -1.03133 3.46476 0
M  V30 24832 O 2482.5 0.0205445 4.38095 0
M  V30 24833 C 2484 -1.75609 4.07033 0
M  V30 24834 H 2481.22 -0.117692 0.660598 0
M  V30 24835 H 2483.77 0.288786 2.02451 0
M  V30 24836 H 2481.92 -1.7348 3.46386 0
M  V30 24837 H 2482.34 -0.39986 5.22974 0
M  V30 24838 H 2483.81 -2.10533 5.10274 0
M  V30 24839 H 2484.29 -2.65557 3.49823 0
M  V30 24840 H 2484.89 -1.09875 4.10862 0
M  V30 24841 N 2483.21 -1.57342 -0.0901833 0
M  V30 24842 C 2484.62 -1.75236 -0.644142 0
M  V30 24843 C 2484.97 -0.806367 -1.78864 0
M  V30 24844 O 2484.09 0.0139747 -2.16395 0
M  V30 24845 C 2484.69 -3.17762 -1.17527 0
M  V30 24846 C 2483.25 -3.37064 -1.67525 0
M  V30 24847 C 2482.4 -2.71018 -0.586882 0
M  V30 24848 H 2485.35 -1.58117 0.135912 0
M  V30 24849 H 2485.37 -3.20906 -2.0445 0
M  V30 24850 H 2484.88 -3.8659 -0.34207 0
M  V30 24851 H 2482.98 -2.73324 -2.53229 0
M  V30 24852 H 2483.09 -4.45409 -1.76486 0
M  V30 24853 H 2481.46 -2.33054 -1.02752 0
M  V30 24854 H 2482.24 -3.42489 0.235818 0
M  V30 24855 N 2484.69 0.36113 -1.53407 0
M  V30 24856 C 2485.91 1.12826 -1.74026 0
M  V30 24857 C 2486.34 1.82131 -0.470101 0
M  V30 24858 O 2485.69 1.71901 0.57616 0
M  V30 24859 C 2485.74 2.13085 -2.90907 0
M  V30 24860 O 2484.85 3.20256 -2.59826 0
M  V30 24861 H 2484.19 0.327157 -0.57781 0
M  V30 24862 H 2486.72 0.416895 -2.00308 0
M  V30 24863 H 2486.73 2.5661 -3.17199 0
M  V30 24864 H 2485.4 1.62035 -3.83037 0
M  V30 24865 H 2483.98 2.81672 -2.44367 0
M  V30 24866 N 2486.16 1.44842 0.621179 0
M  V30 24867 C 2487.39 1.51874 1.41242 0
M  V30 24868 C 2487.81 0.147797 1.87518 0
M  V30 24869 O 2487.17 -0.864972 1.59336 0
M  V30 24870 C 2487.22 2.49639 2.60217 0
M  V30 24871 O 2486.32 2.0048 3.60391 0
M  V30 24872 H 2485.67 0.51247 0.422221 0
M  V30 24873 H 2488.2 1.9007 0.757272 0
M  V30 24874 H 2488.21 2.68001 3.07635 0
M  V30 24875 H 2486.88 3.49214 2.25881 0
M  V30 24876 H 2485.46 1.91931 3.19714 0
M  V30 24877 N 2487.64 -0.862479 1.31905 0
M  V30 24878 C 2489.05 -1.43191 1.19805 0
M  V30 24879 C 2489.4 -1.95253 -0.192532 0
M  V30 24880 O 2488.53 -1.86898 -1.09078 0
M  V30 24881 C 2489.12 -2.60279 2.16887 0
M  V30 24882 C 2487.68 -3.13245 2.08698 0
M  V30 24883 C 2486.83 -1.85971 2.05694 0
M  V30 24884 H 2489.78 -0.67034 1.43848 0
M  V30 24885 H 2489.8 -3.372 1.76284 0
M  V30 24886 H 2489.31 -2.22357 3.18086 0
M  V30 24887 H 2487.42 -3.55769 1.1072 0
M  V30 24888 H 2487.53 -3.75019 2.98157 0
M  V30 24889 H 2485.89 -2.05246 1.50818 0
M  V30 24890 H 2486.68 -1.50277 3.08661 0
M  V30 24891 N 2489.12 -1.14988 -1.07775 0
M  V30 24892 C 2490.37 -0.916649 -1.79668 0
M  V30 24893 C 2490.68 0.557884 -1.87475 0
M  V30 24894 O 2491.89 0.908572 -2.55846 0
M  V30 24895 C 2490.34 -1.59057 -3.22845 0
M  V30 24896 C 2489.95 -3.10181 -3.23251 0
M  V30 24897 C 2491.7 -1.43871 -3.99376 0
M  V30 24898 C 2489.6 -3.7038 -4.61056 0
M  V30 24899 H 2488.53 -0.339301 -0.673343 0
M  V30 24900 H 2491.18 -1.37953 -1.21001 0
M  V30 24901 H 2489.57 -1.05537 -3.81678 0
M  V30 24902 H 2490.74 -3.70422 -2.74088 0
M  V30 24903 H 2489.06 -3.25079 -2.60217 0
M  V30 24904 H 2491.65 -1.86241 -5.01217 0
M  V30 24905 H 2492 -0.385637 -4.1451 0
M  V30 24906 H 2492.53 -1.94463 -3.47029 0
M  V30 24907 H 2489.27 -4.75568 -4.51126 0
M  V30 24908 H 2488.79 -3.14922 -5.10475 0
M  V30 24909 H 2490.47 -3.71052 -5.30028 0
M  V30 24910 N 2490.6 1.26049 -0.946007 0
M  V30 24911 C 2491.83 1.97609 -0.613059 0
M  V30 24912 C 2492.24 1.70399 0.813005 0
M  V30 24913 O 2491.6 0.975006 1.54272 0
M  V30 24914 C 2491.65 3.51325 -0.851651 0
M  V30 24915 O 2491.37 3.77591 -2.22163 0
M  V30 24916 C 2492.87 4.40121 -0.529909 0
M  V30 24917 H 2490.09 0.630129 -0.230604 0
M  V30 24918 H 2492.64 1.60441 -1.26803 0
M  V30 24919 H 2490.79 3.86636 -0.243219 0
M  V30 24920 H 2491.2 4.72096 -2.28528 0
M  V30 24921 H 2492.68 5.46916 -0.747444 0
M  V30 24922 H 2493.16 4.35926 0.535264 0
M  V30 24923 H 2493.76 4.10362 -1.11728 0
M  V30 24924 N 2492.08 0.71358 1.4052 0
M  V30 24925 C 2493.3 0.261811 2.05237 0
M  V30 24926 C 2493.72 -1.09564 1.53757 0
M  V30 24927 O 2493.08 -1.68818 0.693298 0
M  V30 24928 C 2493.13 0.230769 3.60763 0
M  V30 24929 O 2492.85 1.53462 4.10343 0
M  V30 24930 C 2494.35 -0.239796 4.42651 0
M  V30 24931 H 2491.57 0.118069 0.660531 0
M  V30 24932 H 2494.11 0.971224 1.79965 0
M  V30 24933 H 2492.27 -0.429593 3.85011 0
M  V30 24934 H 2492.68 1.43375 5.04523 0
M  V30 24935 H 2494.16 -0.210371 5.51599 0
M  V30 24936 H 2494.63 -1.28163 4.20084 0
M  V30 24937 H 2495.24 0.390216 4.23506 0
M  V30 24938 N 2493.55 -1.50749 0.459618 0
M  V30 24939 C 2494.78 -2.06671 -0.0973386 0
M  V30 24940 C 2495.2 -1.32475 -1.34521 0
M  V30 24941 O 2494.55 -0.390665 -1.7827 0
M  V30 24942 C 2494.61 -3.59313 -0.397077 0
M  V30 24943 O 2494.33 -4.3071 0.801289 0
M  V30 24944 C 2495.83 -4.31821 -1.00226 0
M  V30 24945 H 2493.05 -0.670997 0.00197033 0
M  V30 24946 H 2495.59 -1.94058 0.645106 0
M  V30 24947 H 2493.75 -3.71766 -1.08944 0
M  V30 24948 H 2494.16 -5.21724 0.538949 0
M  V30 24949 H 2495.63 -5.39634 -1.16184 0
M  V30 24950 H 2496.11 -3.91564 -1.98933 0
M  V30 24951 H 2496.72 -4.23869 -0.348625 0
M  V30 24952 N 2495.03 -0.191784 -1.56429 0
M  V30 24953 C 2496.44 0.321396 -1.83913 0
M  V30 24954 C 2496.79 1.61621 -1.11234 0
M  V30 24955 O 2495.92 2.13178 -0.372058 0
M  V30 24956 C 2496.51 0.589903 -3.33625 0
M  V30 24957 C 2495.07 1.04746 -3.61532 0
M  V30 24958 C 2494.22 0.094284 -2.7714 0
M  V30 24959 H 2497.17 -0.415639 -1.5316 0
M  V30 24960 H 2497.19 1.4396 -3.52215 0
M  V30 24961 H 2496.7 -0.352656 -3.86494 0
M  V30 24962 H 2494.81 2.00441 -3.14092 0
M  V30 24963 H 2494.92 0.942466 -4.69739 0
M  V30 24964 H 2493.28 0.595546 -2.4764 0
M  V30 24965 H 2494.07 -0.842659 -3.32797 0
M  V30 24966 N 2496.51 1.57387 0.0818378 0
M  V30 24967 C 2497.74 1.91354 0.799912 0
M  V30 24968 C 2498.16 0.787288 1.70831 0
M  V30 24969 O 2497.52 -0.260448 1.7942 0
M  V30 24970 C 2497.57 3.24237 1.57806 0
M  V30 24971 O 2496.67 3.12762 2.68801 0
M  V30 24972 H 2496.01 0.626881 0.218899 0
M  V30 24973 H 2498.54 2.04531 0.0530896 0
M  V30 24974 H 2498.55 3.57868 1.95946 0
M  V30 24975 H 2497.23 4.05789 0.911476 0
M  V30 24976 H 2495.8 2.9067 2.33592 0
M  V30 24977 N 2497.99 -0.35299 1.53596 0
M  V30 24978 C 2499.4 -0.929124 1.61939 0
M  V30 24979 C 2499.75 -1.8986 0.494719 0
M  V30 24980 O 2498.88 -2.13091 -0.376979 0
M  V30 24981 C 2499.47 -1.69193 2.93529 0
M  V30 24982 C 2498.03 -2.21722 3.04165 0
M  V30 24983 C 2497.18 -1.03344 2.57323 0
M  V30 24984 H 2500.13 -0.131403 1.58155 0
M  V30 24985 H 2500.15 -2.55411 2.82038 0
M  V30 24986 H 2499.66 -0.986078 3.75364 0
M  V30 24987 H 2497.76 -2.95512 2.26944 0
M  V30 24988 H 2497.87 -2.48741 4.09469 0
M  V30 24989 H 2496.24 -1.4041 2.12502 0
M  V30 24990 H 2497.02 -0.342368 3.41589 0
M  V30 24991 N 2499.47 -1.45169 -0.613489 0
M  V30 24992 C 2500.88 -1.43415 -1.19537 0
M  V30 24993 C 2501.23 -0.158666 -1.95557 0
M  V30 24994 O 2500.35 0.740083 -2.03351 0
M  V30 24995 C 2500.95 -2.59817 -2.17441 0
M  V30 24996 C 2499.51 -2.61202 -2.71017 0
M  V30 24997 C 2498.66 -2.35555 -1.46319 0
M  V30 24998 H 2501.61 -1.53494 -0.403136 0
M  V30 24999 H 2501.63 -2.33579 -3.00368 0
M  V30 25000 H 2501.14 -3.52634 -1.62083 0
M  V30 25001 H 2499.24 -1.72375 -3.30329 0
M  V30 25002 H 2499.35 -3.60241 -3.15853 0
M  V30 25003 H 2497.72 -1.84995 -1.75069 0
M  V30 25004 H 2498.5 -3.30509 -0.928382 0
M  V30 25005 N 2500.95 0.855472 -1.32361 0
M  V30 25006 C 2502.17 1.64206 -1.25873 0
M  V30 25007 C 2502.59 1.88002 0.173424 0
M  V30 25008 O 2501.95 1.44844 1.11025 0
M  V30 25009 C 2502 3.00181 -2.01429 0
M  V30 25010 O 2501.72 2.77439 -3.39056 0
M  V30 25011 C 2503.22 3.94625 -2.01955 0
M  V30 25012 H 2500.44 0.51147 -0.434327 0
M  V30 25013 H 2502.98 1.06677 -1.74471 0
M  V30 25014 H 2501.14 3.54357 -1.56555 0
M  V30 25015 H 2501.55 3.63909 -3.77717 0
M  V30 25016 H 2503.03 4.87304 -2.59305 0
M  V30 25017 H 2503.5 4.27532 -1.00561 0
M  V30 25018 H 2504.11 3.46386 -2.46773 0
M  V30 25019 N 2502.42 1.15558 1.07164 0
M  V30 25020 C 2503.65 0.955551 1.83512 0
M  V30 25021 C 2504.07 -0.496178 1.82163 0
M  V30 25022 O 2503.42 -1.34417 1.23443 0
M  V30 25023 C 2503.47 1.46438 3.30512 0
M  V30 25024 O 2503.2 2.85924 3.31932 0
M  V30 25025 C 2504.7 1.3061 4.23622 0
M  V30 25026 H 2501.92 0.339254 0.57892 0
M  V30 25027 H 2504.46 1.53376 1.35263 0
M  V30 25028 H 2502.62 0.92865 3.76105 0
M  V30 25029 H 2503.03 3.09036 4.23789 0
M  V30 25030 H 2504.5 1.71056 5.24828 0
M  V30 25031 H 2504.98 0.250518 4.38485 0
M  V30 25032 H 2505.59 1.83101 3.83867 0
M  V30 25033 N 2503.9 -1.25546 0.952678 0
M  V30 25034 C 2505.13 -1.97281 0.62353 0
M  V30 25035 C 2505.54 -1.70827 -0.803957 0
M  V30 25036 O 2504.9 -0.983174 -1.53753 0
M  V30 25037 C 2504.95 -3.50868 0.870271 0
M  V30 25038 O 2504.67 -3.76408 2.24162 0
M  V30 25039 C 2506.17 -4.39834 0.553242 0
M  V30 25040 H 2503.39 -0.628898 0.233942 0
M  V30 25041 H 2505.94 -1.59766 1.27652 0
M  V30 25042 H 2504.09 -3.86501 0.26372 0
M  V30 25043 H 2504.51 -4.70878 2.31029 0
M  V30 25044 H 2505.98 -5.46512 0.776438 0
M  V30 25045 H 2506.46 -4.36204 -0.512138 0
M  V30 25046 H 2507.06 -4.09764 1.13903 0
M  V30 25047 N 2505.38 -0.721022 -1.40139 0
M  V30 25048 C 2506.31 -0.0209561 -2.2819 0
M  V30 25049 C 2507.29 0.762103 -1.43634 0
M  V30 25050 O 2508.47 0.747602 -1.73041 0
M  V30 25051 C 2505.6 0.977658 -3.24283 0
M  V30 25052 C 2504.65 0.284761 -4.25548 0
M  V30 25053 S 2505.48 -0.991262 -5.26245 0
M  V30 25054 C 2506.64 0.00511138 -6.259 0
M  V30 25055 H 2506.87 -0.7677 -2.87217 0
M  V30 25056 H 2504.4 -0.512259 -1.45655 0
M  V30 25057 H 2506.36 1.54858 -3.8017 0
M  V30 25058 H 2505.02 1.69714 -2.64303 0
M  V30 25059 H 2504.21 1.03987 -4.93156 0
M  V30 25060 H 2503.82 -0.213749 -3.73389 0
M  V30 25061 H 2506.11 0.850161 -6.72145 0
M  V30 25062 H 2507.05 -0.637723 -7.05222 0
M  V30 25063 H 2507.46 0.371267 -5.63278 0
M  V30 25064 N 2506.86 1.50503 -0.467606 0
M  V30 25065 C 2508.09 2.0672 0.086377 0
M  V30 25066 C 2508.5 1.33186 1.33817 0
M  V30 25067 O 2507.86 0.400114 1.7806 0
M  V30 25068 C 2507.91 3.59518 0.378016 0
M  V30 25069 O 2507.63 4.30279 -0.82412 0
M  V30 25070 C 2509.13 4.32347 0.97935 0
M  V30 25071 H 2506.35 0.670977 -0.00552876 0
M  V30 25072 H 2508.89 1.93713 -0.655388 0
M  V30 25073 H 2507.05 3.72339 1.06971 0
M  V30 25074 H 2507.46 5.21431 -0.566609 0
M  V30 25075 H 2508.94 5.40243 1.1332 0
M  V30 25076 H 2509.41 3.92614 1.96853 0
M  V30 25077 H 2510.02 4.24048 0.326141 0
M  V30 25078 N 2508.34 0.200077 1.56325 0
M  V30 25079 C 2509.56 -0.442839 2.02105 0
M  V30 25080 C 2509.98 -1.54848 1.08017 0
M  V30 25081 O 2509.34 -1.82298 0.0859117 0
M  V30 25082 C 2509.39 -0.994522 3.47551 0
M  V30 25083 O 2509.11 0.0670092 4.38049 0
M  V30 25084 C 2510.61 -1.71282 4.08873 0
M  V30 25085 H 2507.83 -0.110679 0.661809 0
M  V30 25086 H 2510.37 0.310243 2.02133 0
M  V30 25087 H 2508.53 -1.69797 3.48207 0
M  V30 25088 H 2508.94 -0.34437 5.23368 0
M  V30 25089 H 2510.42 -2.05109 5.12479 0
M  V30 25090 H 2510.89 -2.61831 3.5262 0
M  V30 25091 H 2511.5 -1.05511 4.12004 0
M  V30 25092 N 2509.81 -1.57429 -0.0734901 0
M  V30 25093 C 2511.22 -1.75909 -0.62552 0
M  V30 25094 C 2511.58 -0.825292 -1.77998 0
M  V30 25095 O 2510.7 -0.00897768 -2.16398 0
M  V30 25096 C 2511.3 -3.18991 -1.1415 0
M  V30 25097 C 2509.85 -3.38822 -1.63941 0
M  V30 25098 C 2509 -2.71626 -0.558104 0
M  V30 25099 H 2511.95 -1.57964 0.152675 0
M  V30 25100 H 2511.97 -3.23056 -2.01034 0
M  V30 25101 H 2511.49 -3.86931 -0.301048 0
M  V30 25102 H 2509.59 -2.75994 -2.50316 0
M  V30 25103 H 2509.7 -4.47256 -1.71752 0
M  V30 25104 H 2508.06 -2.34131 -1.00274 0
M  V30 25105 H 2508.85 -3.4222 0.272131 0
M  V30 25106 N 2511.29 0.344839 -1.53781 0
M  V30 25107 C 2512.52 1.10974 -1.75213 0
M  V30 25108 C 2512.94 1.81622 -0.489392 0
M  V30 25109 O 2512.3 1.72503 0.557895 0
M  V30 25110 C 2512.35 2.09988 -2.93151 0
M  V30 25111 O 2511.45 3.17482 -2.63209 0
M  V30 25112 H 2510.79 0.321011 -0.581247 0
M  V30 25113 H 2513.32 0.395626 -2.00739 0
M  V30 25114 H 2513.33 2.53232 -3.19903 0
M  V30 25115 H 2512.01 1.57963 -3.84734 0
M  V30 25116 H 2510.58 2.79065 -2.4734 0
M  V30 25117 N 2512.77 1.45492 0.605781 0
M  V30 25118 C 2514.18 1.44047 1.18775 0
M  V30 25119 C 2514.53 0.169035 1.9547 0
M  V30 25120 O 2513.66 -0.729288 2.03741 0
M  V30 25121 C 2514.25 2.60967 2.1606 0
M  V30 25122 C 2512.81 2.62636 2.69628 0
M  V30 25123 C 2511.96 2.36327 1.45068 0
M  V30 25124 H 2514.91 1.53706 0.39499 0
M  V30 25125 H 2514.93 2.35168 2.99125 0
M  V30 25126 H 2514.44 3.53488 1.60211 0
M  V30 25127 H 2512.54 1.74125 3.29411 0
M  V30 25128 H 2512.66 3.61911 3.13938 0
M  V30 25129 H 2511.02 1.8592 1.74085 0
M  V30 25130 H 2511.8 3.30996 0.910841 0
M  V30 25131 N 2514.25 -0.848441 1.32813 0
M  V30 25132 C 2515.48 -1.63536 1.26742 0
M  V30 25133 C 2515.89 -1.88091 -0.163451 0
M  V30 25134 O 2515.25 -1.45431 -1.10255 0
M  V30 25135 C 2515.3 -2.99108 2.03018 0
M  V30 25136 O 2515.02 -2.75637 3.40523 0
M  V30 25137 C 2516.52 -3.93549 2.04045 0
M  V30 25138 H 2513.74 -0.509159 0.437033 0
M  V30 25139 H 2516.29 -1.0575 1.75035 0
M  V30 25140 H 2514.44 -3.53522 1.58432 0
M  V30 25141 H 2514.85 -3.61901 3.79642 0
M  V30 25142 H 2516.33 -4.85922 2.61886 0
M  V30 25143 H 2516.81 -4.26993 1.02827 0
M  V30 25144 H 2517.41 -3.45072 2.48606 0
M  V30 25145 N 2515.73 -1.16125 -1.06549 0
M  V30 25146 C 2516.95 -0.96527 -1.83003 0
M  V30 25147 C 2517.37 0.48651 -1.82424 0
M  V30 25148 O 2516.73 1.33761 -1.24155 0
M  V30 25149 C 2516.78 -1.48189 -3.29731 0
M  V30 25150 O 2516.5 -2.8768 -3.30411 0
M  V30 25151 C 2518 -1.32855 -4.22924 0
M  V30 25152 H 2515.22 -0.342319 -0.577112 0
M  V30 25153 H 2517.76 -1.54091 -1.34447 0
M  V30 25154 H 2515.92 -0.948583 -3.75607 0
M  V30 25155 H 2516.33 -3.11279 -4.22144 0
M  V30 25156 H 2517.81 -1.73837 -5.23913 0
M  V30 25157 H 2518.28 -0.273769 -4.38346 0
M  V30 25158 H 2518.89 -1.85134 -3.82891 0
M  V30 25159 N 2517.2 1.25039 -0.959323 0
M  V30 25160 C 2518.43 1.96947 -0.633984 0
M  V30 25161 C 2518.85 1.71251 0.794886 0
M  V30 25162 O 2518.2 0.991314 1.53229 0
M  V30 25163 C 2518.26 3.50402 -0.888866 0
M  V30 25164 O 2517.98 3.75214 -2.26156 0
M  V30 25165 C 2519.48 4.39535 -0.57656 0
M  V30 25166 H 2516.7 0.627648 -0.237274 0
M  V30 25167 H 2519.24 1.59087 -1.28498 0
M  V30 25168 H 2517.4 3.86356 -0.284213 0
M  V30 25169 H 2517.81 4.69646 -2.33523 0
M  V30 25170 H 2519.28 5.46093 -0.80541 0
M  V30 25171 H 2519.76 4.36469 0.488998 0
M  V30 25172 H 2520.37 4.09154 -1.16074 0
M  V30 25173 N 2518.68 0.728444 1.39755 0
M  V30 25174 C 2520.09 0.344321 1.83497 0
M  V30 25175 C 2520.44 -1.12318 1.6087 0
M  V30 25176 O 2519.57 -1.86571 1.09637 0
M  V30 25177 C 2520.16 0.61817 3.33113 0
M  V30 25178 C 2518.72 0.287615 3.753 0
M  V30 25179 C 2517.87 0.884094 2.62829 0
M  V30 25180 H 2520.82 0.926601 1.2884 0
M  V30 25181 H 2520.84 -0.112282 3.80334 0
M  V30 25182 H 2520.35 1.68631 3.4955 0
M  V30 25183 H 2518.46 -0.774948 3.64452 0
M  V30 25184 H 2518.57 0.765595 4.72943 0
M  V30 25185 H 2516.93 0.311194 2.52792 0
M  V30 25186 H 2517.72 1.95676 2.82074 0
M  V30 25187 N 2520.16 -1.50253 0.475581 0
M  V30 25188 C 2521.39 -2.07255 -0.0776678 0
M  V30 25189 C 2521.81 -1.33662 -1.32348 0
M  V30 25190 O 2521.17 -0.385628 -1.77151 0
M  V30 25191 C 2521.22 -3.58993 -0.340106 0
M  V30 25192 O 2520.32 -3.87191 -1.41975 0
M  V30 25193 H 2519.66 -0.663831 0.0149673 0
M  V30 25194 H 2522.19 -1.93391 0.667912 0
M  V30 25195 H 2522.2 -4.03867 -0.579261 0
M  V30 25196 H 2520.88 -4.11972 0.570239 0
M  V30 25197 H 2519.45 -3.5415 -1.16756 0
M  V30 25198 N 2521.64 -0.208365 -1.56217 0
M  V30 25199 C 2522.86 0.435187 -2.02783 0
M  V30 25200 C 2523.29 1.53483 -1.0874 0
M  V30 25201 O 2522.65 1.81152 -0.0732173 0
M  V30 25202 C 2522.69 0.956274 -3.47689 0
M  V30 25203 O 2521.8 2.06843 -3.56777 0
M  V30 25204 H 2521.14 0.100146 -0.656404 0
M  V30 25205 H 2523.67 -0.323135 -2.02032 0
M  V30 25206 H 2523.68 1.26948 -3.87747 0
M  V30 25207 H 2522.35 0.151357 -4.15624 0
M  V30 25208 H 2520.93 1.76286 -3.286 0
M  V30 25209 N 2523.12 1.57465 0.0651402 0
M  V30 25210 C 2524.53 1.76239 0.616182 0
M  V30 25211 C 2524.88 0.83472 1.77558 0
M  V30 25212 O 2524 0.0204537 2.1639 0
M  V30 25213 C 2524.6 3.19592 1.12456 0
M  V30 25214 C 2523.16 3.39687 1.62141 0
M  V30 25215 C 2522.3 2.71918 0.543691 0
M  V30 25216 H 2525.26 1.57881 -0.16105 0
M  V30 25217 H 2525.28 3.24118 1.99318 0
M  V30 25218 H 2524.79 3.87085 0.280524 0
M  V30 25219 H 2522.89 2.77318 2.48849 0
M  V30 25220 H 2523 4.48161 1.69377 0
M  V30 25221 H 2521.37 2.34659 0.99031 0
M  V30 25222 H 2522.15 3.42071 -0.290276 0
M  V30 25223 N 2524.59 -0.336679 1.53962 0
M  V30 25224 C 2525.84 -1.0736 1.70753 0
M  V30 25225 C 2526.16 -1.89591 0.481094 0
M  V30 25226 O 2527.36 -2.66275 0.530093 0
M  V30 25227 C 2525.82 -1.95813 3.01969 0
M  V30 25228 C 2525.43 -1.18756 4.31973 0
M  V30 25229 C 2527.17 -2.69321 3.28126 0
M  V30 25230 C 2525.08 -2.06279 5.54259 0
M  V30 25231 H 2524.01 -0.404523 0.636299 0
M  V30 25232 H 2526.66 -0.332649 1.8046 0
M  V30 25233 H 2525.04 -2.73755 2.86136 0
M  V30 25234 H 2526.21 -0.456768 4.58531 0
M  V30 25235 H 2524.53 -0.569873 4.12482 0
M  V30 25236 H 2527.13 -3.35087 4.16678 0
M  V30 25237 H 2527.47 -3.36257 2.45432 0
M  V30 25238 H 2528 -1.98448 3.44765 0
M  V30 25239 H 2524.74 -1.43873 6.39516 0
M  V30 25240 H 2524.26 -2.77128 5.3194 0
M  V30 25241 H 2525.94 -2.65172 5.90163 0
M  V30 25242 N 2526.07 -1.45812 -0.598057 0
M  V30 25243 C 2527.3 -1.53868 -1.38319 0
M  V30 25244 C 2527.72 -0.174512 -1.87992 0
M  V30 25245 O 2527.07 0.825599 -1.62758 0
M  V30 25246 C 2527.12 -2.53093 -2.5812 0
M  V30 25247 O 2526.84 -3.8421 -2.1051 0
M  V30 25248 C 2528.35 -2.70941 -3.50864 0
M  V30 25249 H 2525.57 -0.520808 -0.423083 0
M  V30 25250 H 2528.11 -1.91084 -0.728494 0
M  V30 25251 H 2526.26 -2.18923 -3.19611 0
M  V30 25252 H 2526.68 -4.38082 -2.88417 0
M  V30 25253 H 2528.15 -3.44324 -4.31445 0
M  V30 25254 H 2528.63 -1.77308 -4.01819 0
M  V30 25255 H 2529.24 -3.06146 -2.9522 0
M  V30 25256 N 2527.55 0.841385 -1.33261 0
M  V30 25257 C 2528.78 1.62861 -1.27608 0
M  V30 25258 C 2529.19 1.88175 0.153474 0
M  V30 25259 O 2528.55 1.46013 1.09482 0
M  V30 25260 C 2528.6 2.98028 -2.04602 0
M  V30 25261 O 2528.32 2.73828 -3.4198 0
M  V30 25262 C 2529.82 3.92461 -2.06129 0
M  V30 25263 H 2527.04 0.506834 -0.439727 0
M  V30 25264 H 2529.59 1.04821 -1.75593 0
M  V30 25265 H 2527.74 3.52677 -1.60305 0
M  V30 25266 H 2528.16 3.59883 -3.81556 0
M  V30 25267 H 2529.63 4.84526 -2.64459 0
M  V30 25268 H 2530.11 4.26442 -1.0509 0
M  V30 25269 H 2530.71 3.43749 -2.50433 0
M  V30 25270 N 2529.03 1.16688 1.05932 0
M  V30 25271 C 2530.26 0.974961 1.82489 0
M  V30 25272 C 2530.67 -0.476829 1.82679 0
M  V30 25273 O 2530.03 -1.331 1.24862 0
M  V30 25274 C 2530.08 1.49935 3.2894 0
M  V30 25275 O 2529.8 2.89428 3.28881 0
M  V30 25276 C 2531.3 1.35096 4.22213 0
M  V30 25277 H 2528.52 0.345375 0.575289 0
M  V30 25278 H 2531.07 1.54802 1.33628 0
M  V30 25279 H 2529.22 0.968489 3.75099 0
M  V30 25280 H 2529.64 3.13514 4.20487 0
M  V30 25281 H 2531.11 1.76613 5.22984 0
M  V30 25282 H 2531.59 0.297012 4.38195 0
M  V30 25283 H 2532.19 1.87162 3.81904 0
M  V30 25284 N 2530.51 -1.24529 0.96594 0
M  V30 25285 C 2531.74 -1.96608 0.64442 0
M  V30 25286 C 2532.15 -1.7167 -0.785793 0
M  V30 25287 O 2531.51 -0.999426 -1.52701 0
M  V30 25288 C 2531.56 -3.49925 0.907436 0
M  V30 25289 O 2531.28 -3.74009 2.28142 0
M  V30 25290 C 2532.78 -4.39223 0.599861 0
M  V30 25291 H 2530 -0.626381 0.240599 0
M  V30 25292 H 2532.54 -1.58403 1.29339 0
M  V30 25293 H 2530.7 -3.862 0.304699 0
M  V30 25294 H 2531.11 -4.68401 2.3601 0
M  V30 25295 H 2532.59 -5.45658 0.834359 0
M  V30 25296 H 2533.06 -4.36722 -0.465844 0
M  V30 25297 H 2533.67 -4.08533 1.18242 0
M  V30 25298 N 2531.99 -0.735845 -1.39367 0
M  V30 25299 C 2533.21 -0.294429 -2.04794 0
M  V30 25300 C 2533.63 1.07104 -1.5548 0
M  V30 25301 O 2532.99 1.67694 -0.720067 0
M  V30 25302 C 2533.04 -0.288134 -3.6035 0
M  V30 25303 O 2532.76 -1.59971 -4.07849 0
M  V30 25304 C 2534.26 0.169344 -4.42976 0
M  V30 25305 H 2531.48 -0.128562 -0.658569 0
M  V30 25306 H 2534.02 -0.999732 -1.78397 0
M  V30 25307 H 2532.18 0.368287 -3.85645 0
M  V30 25308 H 2532.59 -1.51384 -5.02179 0
M  V30 25309 H 2534.07 0.12259 -5.51864 0
M  V30 25310 H 2534.54 1.21464 -4.2207 0
M  V30 25311 H 2535.15 -0.457543 -4.22832 0
M  V30 25312 N 2533.46 1.49999 -0.483543 0
M  V30 25313 C 2534.87 1.86674 -0.0314504 0
M  V30 25314 C 2535.23 1.39736 1.37726 0
M  V30 25315 O 2534.35 0.767671 2.02326 0
M  V30 25316 C 2534.95 3.38763 -0.0502971 0
M  V30 25317 C 2533.5 3.74803 0.346376 0
M  V30 25318 C 2532.65 2.73939 -0.430414 0
M  V30 25319 H 2535.6 1.42565 -0.697207 0
M  V30 25320 H 2535.62 3.73054 0.749051 0
M  V30 25321 H 2535.14 3.72895 -1.07569 0
M  V30 25322 H 2533.24 3.46275 1.37566 0
M  V30 25323 H 2533.35 4.79084 0.0390643 0
M  V30 25324 H 2531.71 2.54429 0.117512 0
M  V30 25325 H 2532.5 3.10915 -1.45556 0
M  V30 25326 N 2534.94 0.216646 1.56104 0
M  V30 25327 C 2536.17 -0.424426 2.03011 0
M  V30 25328 C 2536.59 -1.52905 1.09553 0
M  V30 25329 O 2535.95 -1.81111 0.0828232 0
M  V30 25330 C 2536 -0.937822 3.48191 0
M  V30 25331 O 2535.1 -2.04948 3.57869 0
M  V30 25332 H 2534.44 -0.096664 0.656926 0
M  V30 25333 H 2536.97 0.333845 2.01858 0
M  V30 25334 H 2536.98 -1.2489 3.88415 0
M  V30 25335 H 2535.66 -0.129313 4.15699 0
M  V30 25336 H 2534.23 -1.74541 3.2953 0
M  V30 25337 N 2536.42 -1.57498 -0.0567885 0
M  V30 25338 C 2537.64 -1.92602 -0.769368 0
M  V30 25339 C 2538.07 -0.814366 -1.69557 0
M  V30 25340 O 2537.43 0.231871 -1.79811 0
M  V30 25341 C 2537.48 -3.26706 -1.52628 0
M  V30 25342 O 2536.58 -3.16998 -2.63791 0
M  V30 25343 H 2535.92 -0.630284 -0.208898 0
M  V30 25344 H 2538.45 -2.0459 -0.0205438 0
M  V30 25345 H 2538.46 -3.6094 -1.90228 0
M  V30 25346 H 2537.14 -4.07188 -0.846803 0
M  V30 25347 H 2535.71 -2.9435 -2.28938 0
M  V30 25348 N 2537.9 0.328509 -1.54138 0
M  V30 25349 C 2539.13 1.0867 -1.76064 0
M  V30 25350 C 2539.54 1.81868 -0.506884 0
M  V30 25351 O 2538.9 1.7487 0.522192 0
M  V30 25352 C 2538.95 2.08861 -2.95058 0
M  V30 25353 O 2538.67 1.38637 -4.15586 0
M  V30 25354 C 2540.17 2.96937 -3.29155 0
M  V30 25355 H 2537.39 0.323451 -0.587895 0
M  V30 25356 H 2539.93 0.37614 -2.01011 0
M  V30 25357 H 2538.09 2.75459 -2.72399 0
M  V30 25358 H 2538.5 2.05691 -4.82485 0
M  V30 25359 H 2539.98 3.63143 -4.15729 0
M  V30 25360 H 2540.45 3.63769 -2.46107 0
M  V30 25361 H 2541.06 2.35908 -3.53875 0
M  V30 25362 N 2539.38 1.46127 0.590316 0
M  V30 25363 C 2540.6 1.546 1.37501 0
M  V30 25364 C 2541.02 0.18448 1.87897 0
M  V30 25365 O 2540.38 -0.816956 1.63193 0
M  V30 25366 C 2540.43 2.54458 2.56775 0
M  V30 25367 O 2540.15 3.85321 2.08469 0
M  V30 25368 C 2541.65 2.72798 3.49423 0
M  V30 25369 H 2538.87 0.523045 0.420316 0
M  V30 25370 H 2541.41 1.91468 0.71835 0
M  V30 25371 H 2539.57 2.20615 3.18446 0
M  V30 25372 H 2539.98 4.39605 2.8609 0
M  V30 25373 H 2541.46 3.46608 4.29613 0
M  V30 25374 H 2541.93 1.79436 4.00873 0
M  V30 25375 H 2542.54 3.07707 2.93592 0
M  V30 25376 N 2540.85 -0.834306 1.33705 0
M  V30 25377 C 2542.08 -1.62182 1.2847 0
M  V30 25378 C 2542.5 -1.88254 -0.143493 0
M  V30 25379 O 2541.85 -1.46592 -1.08706 0
M  V30 25380 C 2541.9 -2.96938 2.06179 0
M  V30 25381 O 2541.63 -2.7201 3.43427 0
M  V30 25382 C 2543.13 -3.91362 2.08208 0
M  V30 25383 H 2540.35 -0.504495 0.442409 0
M  V30 25384 H 2542.89 -1.03888 1.76146 0
M  V30 25385 H 2541.05 -3.51822 1.62173 0
M  V30 25386 H 2541.46 -3.57854 3.83459 0
M  V30 25387 H 2542.93 -4.83117 2.67025 0
M  V30 25388 H 2543.41 -4.25879 1.0735 0
M  V30 25389 H 2544.02 -3.42416 2.52252 0
M  V30 25390 N 2542.33 -1.17248 -1.05312 0
M  V30 25391 C 2543.74 -0.966258 -1.59751 0
M  V30 25392 C 2544.09 0.487344 -1.90051 0
M  V30 25393 O 2543.22 1.36242 -1.68128 0
M  V30 25394 C 2543.81 -1.74764 -2.90246 0
M  V30 25395 C 2542.37 -1.58612 -3.41349 0
M  V30 25396 C 2541.52 -1.75006 -2.151 0
M  V30 25397 H 2544.47 -1.31975 -0.881383 0
M  V30 25398 H 2544.49 -1.22931 -3.60095 0
M  V30 25399 H 2544 -2.80555 -2.68161 0
M  V30 25400 H 2542.1 -0.55305 -3.68473 0
M  V30 25401 H 2542.22 -2.37631 -4.16015 0
M  V30 25402 H 2540.58 -1.17837 -2.25802 0
M  V30 25403 H 2541.36 -2.82206 -1.95486 0
M  V30 25404 N 2543.81 1.24015 -0.972531 0
M  V30 25405 C 2545.04 1.96804 -0.654452 0
M  V30 25406 C 2545.46 1.71601 0.770368 0
M  V30 25407 O 2544.82 0.982673 1.52359 0
M  V30 25408 C 2544.87 3.48103 -0.941092 0
M  V30 25409 O 2543.97 4.1239 -0.0290197 0
M  V30 25410 H 2543.31 0.616378 -0.24693 0
M  V30 25411 H 2545.84 1.57662 -1.30399 0
M  V30 25412 H 2545.85 3.98516 -0.87459 0
M  V30 25413 H 2544.53 3.65774 -1.97945 0
M  V30 25414 H 2543.1 3.72601 -0.149257 0
M  V30 25415 N 2545.29 0.743226 1.38974 0
M  V30 25416 C 2546.7 0.363764 1.83122 0
M  V30 25417 C 2547.05 -1.10606 1.62052 0
M  V30 25418 O 2546.18 -1.85398 1.1161 0
M  V30 25419 C 2546.77 0.653467 3.32438 0
M  V30 25420 C 2545.33 0.327404 3.74973 0
M  V30 25421 C 2544.48 0.911921 2.61876 0
M  V30 25422 H 2547.43 0.940214 1.2785 0
M  V30 25423 H 2547.45 -0.0719362 3.80432 0
M  V30 25424 H 2546.96 1.72329 3.47742 0
M  V30 25425 H 2545.06 -0.73625 3.65254 0
M  V30 25426 H 2545.17 0.815714 4.72105 0
M  V30 25427 H 2543.54 0.337988 2.52447 0
M  V30 25428 H 2544.32 1.98656 2.79983 0
M  V30 25429 N 2546.77 -1.4974 0.491491 0
M  V30 25430 C 2548.18 -1.86654 0.0413497 0
M  V30 25431 C 2548.53 -1.40464 -1.36983 0
M  V30 25432 O 2547.65 -0.77839 -2.01916 0
M  V30 25433 C 2548.25 -3.38731 0.0682618 0
M  V30 25434 C 2546.81 -3.74981 -0.326495 0
M  V30 25435 C 2545.95 -2.73707 0.444936 0
M  V30 25436 H 2548.91 -1.42193 0.704758 0
M  V30 25437 H 2548.93 -3.73446 -0.729256 0
M  V30 25438 H 2548.44 -3.72319 1.09545 0
M  V30 25439 H 2546.54 -3.47 -1.35728 0
M  V30 25440 H 2546.65 -4.79098 -0.0136568 0
M  V30 25441 H 2545.02 -2.54488 -0.104017 0
M  V30 25442 H 2545.8 -3.10139 1.47203 0
M  V30 25443 N 2548.24 -0.224922 -1.55987 0
M  V30 25444 C 2549.66 0.282313 -1.84553 0
M  V30 25445 C 2550.01 1.59225 -1.14637 0
M  V30 25446 O 2549.13 2.1234 -0.417192 0
M  V30 25447 C 2549.73 0.519003 -3.34801 0
M  V30 25448 C 2548.29 0.97054 -3.63672 0
M  V30 25449 C 2547.43 0.0354773 -2.77277 0
M  V30 25450 H 2550.38 -0.448033 -1.52244 0
M  V30 25451 H 2550.4 1.36457 -3.5519 0
M  V30 25452 H 2549.92 -0.434558 -3.85659 0
M  V30 25453 H 2548.02 1.93734 -3.18273 0
M  V30 25454 H 2548.13 0.842615 -4.71632 0
M  V30 25455 H 2546.49 0.542884 -2.48847 0
M  V30 25456 H 2547.28 -0.913061 -3.30935 0
M  V30 25457 N 2549.72 1.57526 0.0484352 0
M  V30 25458 C 2550.95 1.92618 0.755387 0
M  V30 25459 C 2551.37 0.823014 1.69917 0
M  V30 25460 O 2550.72 -0.202053 1.81378 0
M  V30 25461 C 2550.77 3.27568 1.52909 0
M  V30 25462 O 2550.49 4.33645 0.623213 0
M  V30 25463 C 2552 3.76822 2.33495 0
M  V30 25464 H 2549.22 0.636144 0.213453 0
M  V30 25465 H 2551.76 2.04497 0.0117339 0
M  V30 25466 H 2549.91 3.17145 2.2248 0
M  V30 25467 H 2550.33 5.11427 1.16374 0
M  V30 25468 H 2551.8 4.73813 2.83205 0
M  V30 25469 H 2552.28 3.0702 3.14063 0
M  V30 25470 H 2552.89 3.90265 1.69036 0
M  V30 25471 N 2551.2 -0.32033 1.5431 0
M  V30 25472 C 2552.43 -1.07735 1.76638 0
M  V30 25473 C 2552.84 -1.81597 0.516522 0
M  V30 25474 O 2552.2 -1.75144 -0.512911 0
M  V30 25475 C 2552.25 -2.07293 2.96162 0
M  V30 25476 O 2551.97 -1.36431 4.16315 0
M  V30 25477 C 2553.47 -2.95188 3.30725 0
M  V30 25478 H 2550.69 -0.320328 0.589602 0
M  V30 25479 H 2553.24 -0.365475 2.01208 0
M  V30 25480 H 2551.39 -2.74011 2.73856 0
M  V30 25481 H 2551.81 -2.03129 4.83569 0
M  V30 25482 H 2553.28 -3.60933 4.17649 0
M  V30 25483 H 2553.76 -3.62459 2.48033 0
M  V30 25484 H 2554.36 -2.34028 3.55121 0
M  V30 25485 N 2552.68 -1.46438 -0.582558 0
M  V30 25486 C 2553.61 -1.51527 -1.7063 0
M  V30 25487 C 2554.59 -0.369379 -1.58349 0
M  V30 25488 O 2555.77 -0.573547 -1.79562 0
M  V30 25489 C 2552.9 -1.39397 -3.08684 0
M  V30 25490 C 2551.95 -2.5817 -3.39486 0
M  V30 25491 S 2552.78 -4.20525 -3.3154 0
M  V30 25492 C 2553.94 -4.10904 -4.72132 0
M  V30 25493 H 2554.17 -2.46604 -1.66054 0
M  V30 25494 H 2551.7 -1.34326 -0.761314 0
M  V30 25495 H 2553.66 -1.33086 -3.88328 0
M  V30 25496 H 2552.32 -0.45749 -3.1075 0
M  V30 25497 H 2551.51 -2.45677 -4.40067 0
M  V30 25498 H 2551.12 -2.61472 -2.6741 0
M  V30 25499 H 2553.41 -3.77594 -5.6252 0
M  V30 25500 H 2554.35 -5.11485 -4.89683 0
M  V30 25501 H 2554.76 -3.42154 -4.48989 0
M  V30 25502 N 2554.16 0.827204 -1.34146 0
M  V30 25503 C 2555.38 1.61499 -1.29328 0
M  V30 25504 C 2555.8 1.88327 0.133507 0
M  V30 25505 O 2555.16 1.47166 1.07927 0
M  V30 25506 C 2555.21 2.95841 -2.07751 0
M  V30 25507 O 2554.93 2.70185 -3.44865 0
M  V30 25508 C 2556.43 3.90253 -2.1028 0
M  V30 25509 H 2553.65 0.502142 -0.445078 0
M  V30 25510 H 2556.19 1.02952 -1.76695 0
M  V30 25511 H 2554.35 3.50957 -1.64037 0
M  V30 25512 H 2554.76 3.55815 -3.85351 0
M  V30 25513 H 2556.24 4.81694 -2.69583 0
M  V30 25514 H 2556.71 4.25303 -1.09607 0
M  V30 25515 H 2557.32 3.41074 -2.54065 0
M  V30 25516 N 2555.63 1.17805 1.04688 0
M  V30 25517 C 2556.86 0.994262 1.81444 0
M  V30 25518 C 2557.28 -0.457427 1.83175 0
M  V30 25519 O 2556.63 -1.31768 1.26267 0
M  V30 25520 C 2556.69 1.53416 3.27332 0
M  V30 25521 O 2556.41 2.929 3.25793 0
M  V30 25522 C 2557.91 1.39567 4.20756 0
M  V30 25523 H 2555.13 0.351457 0.571593 0
M  V30 25524 H 2557.67 1.56211 1.31979 0
M  V30 25525 H 2555.83 1.00822 3.7405 0
M  V30 25526 H 2556.24 3.17956 4.17138 0
M  V30 25527 H 2557.71 1.8215 5.21081 0
M  V30 25528 H 2558.19 0.343471 4.37855 0
M  V30 25529 H 2558.8 1.91202 3.79897 0
M  V30 25530 N 2557.11 -1.23497 0.979094 0
M  V30 25531 C 2558.52 -1.73703 0.684422 0
M  V30 25532 C 2558.87 -1.79175 -0.799417 0
M  V30 25533 O 2558 -1.42876 -1.62528 0
M  V30 25534 C 2558.59 -3.15462 1.2357 0
M  V30 25535 C 2557.15 -3.63128 0.990694 0
M  V30 25536 C 2556.3 -2.41422 1.36421 0
M  V30 25537 H 2559.25 -1.09039 1.15309 0
M  V30 25538 H 2559.27 -3.75619 0.607483 0
M  V30 25539 H 2558.78 -3.11446 2.31566 0
M  V30 25540 H 2556.89 -3.72528 -0.0732481 0
M  V30 25541 H 2557 -4.49998 1.64435 0
M  V30 25542 H 2555.36 -2.42377 0.782658 0
M  V30 25543 H 2556.15 -2.40079 2.45391 0
M  V30 25544 N 2558.59 -0.750586 -1.38578 0
M  V30 25545 C 2559.82 -0.314848 -2.04996 0
M  V30 25546 C 2560.24 1.04746 -1.56237 0
M  V30 25547 O 2559.6 1.66691 -0.713011 0
M  V30 25548 C 2559.65 -0.343478 -3.5896 0
M  V30 25549 O 2558.75 0.663556 -4.07027 0
M  V30 25550 H 2558.09 -0.139973 -0.649079 0
M  V30 25551 H 2560.62 -1.02087 -1.77312 0
M  V30 25552 H 2560.63 -0.193305 -4.07542 0
M  V30 25553 H 2559.31 -1.33745 -3.93809 0
M  V30 25554 H 2557.88 0.478242 -3.69821 0
M  V30 25555 N 2560.07 1.49477 -0.499425 0
M  V30 25556 C 2561.48 1.8663 -0.0512479 0
M  V30 25557 C 2561.83 1.41189 1.36236 0
M  V30 25558 O 2560.96 0.789087 2.015 0
M  V30 25559 C 2561.55 3.3869 -0.0862246 0
M  V30 25560 C 2560.11 3.75149 0.306604 0
M  V30 25561 C 2559.26 2.73467 -0.459445 0
M  V30 25562 H 2562.21 1.41817 -0.712289 0
M  V30 25563 H 2562.23 3.73828 0.709441 0
M  V30 25564 H 2561.74 3.71733 -1.11518 0
M  V30 25565 H 2559.84 3.47715 1.33885 0
M  V30 25566 H 2559.96 4.79099 -0.0117511 0
M  V30 25567 H 2558.32 2.54539 0.0905198 0
M  V30 25568 H 2559.1 3.09354 -1.48845 0
M  V30 25569 N 2561.55 0.233191 1.55865 0
M  V30 25570 C 2562.78 -0.39987 2.02999 0
M  V30 25571 C 2563.19 -1.52522 1.11277 0
M  V30 25572 O 2562.55 -1.82074 0.12456 0
M  V30 25573 C 2562.6 -0.920578 3.49582 0
M  V30 25574 O 2562.32 0.159911 4.37808 0
M  V30 25575 C 2563.82 -1.62571 4.12414 0
M  V30 25576 H 2561.04 -0.0966164 0.664008 0
M  V30 25577 H 2563.58 0.353048 2.01429 0
M  V30 25578 H 2561.74 -1.62372 3.5173 0
M  V30 25579 H 2562.15 -0.233278 5.23981 0
M  V30 25580 H 2563.63 -1.94192 5.16714 0
M  V30 25581 H 2564.1 -2.54293 3.58095 0
M  V30 25582 H 2564.71 -0.96748 4.1415 0
M  V30 25583 N 2563.03 -1.57549 -0.0400806 0
M  V30 25584 C 2564.25 -1.93015 -0.745162 0
M  V30 25585 C 2564.67 -0.832013 -1.69479 0
M  V30 25586 O 2564.03 0.192431 -1.81483 0
M  V30 25587 C 2564.08 -3.28375 -1.5117 0
M  V30 25588 O 2563.8 -4.33969 -0.600207 0
M  V30 25589 C 2565.3 -3.78055 -2.31494 0
M  V30 25590 H 2562.52 -0.637267 -0.210077 0
M  V30 25591 H 2565.06 -2.045 -0.000888743 0
M  V30 25592 H 2563.22 -3.18321 -2.20795 0
M  V30 25593 H 2563.63 -5.12037 -1.1366 0
M  V30 25594 H 2565.11 -4.75308 -2.80689 0
M  V30 25595 H 2565.58 -3.08681 -3.1243 0
M  V30 25596 H 2566.19 -3.91156 -1.66964 0
M  V30 25597 N 2564.5 0.312142 -1.54478 0
M  V30 25598 C 2565.73 1.06796 -1.77206 0
M  V30 25599 C 2566.15 1.81321 -0.526145 0
M  V30 25600 O 2565.5 1.75414 0.503616 0
M  V30 25601 C 2565.55 2.0572 -2.97257 0
M  V30 25602 O 2565.28 1.34221 -4.17033 0
M  V30 25603 C 2566.78 2.93429 -3.32286 0
M  V30 25604 H 2564 0.317197 -0.591293 0
M  V30 25605 H 2566.54 0.354799 -2.01399 0
M  V30 25606 H 2564.7 2.72555 -2.75305 0
M  V30 25607 H 2565.11 2.00562 -4.84639 0
M  V30 25608 H 2566.58 3.58714 -4.19558 0
M  V30 25609 H 2567.06 3.61138 -2.49951 0
M  V30 25610 H 2567.67 2.32141 -3.56357 0
M  V30 25611 N 2565.98 1.46745 0.574784 0
M  V30 25612 C 2567.39 1.46534 1.15692 0
M  V30 25613 C 2567.74 0.210459 1.95068 0
M  V30 25614 O 2566.87 -0.685908 2.05242 0
M  V30 25615 C 2567.46 2.65491 2.10476 0
M  V30 25616 C 2566.02 2.68296 2.63997 0
M  V30 25617 C 2565.17 2.39351 1.40022 0
M  V30 25618 H 2568.12 1.54509 0.362298 0
M  V30 25619 H 2568.14 2.4146 2.9407 0
M  V30 25620 H 2567.65 3.56807 1.52677 0
M  V30 25621 H 2565.75 1.81073 3.25643 0
M  V30 25622 H 2565.87 3.68489 3.06191 0
M  V30 25623 H 2564.23 1.89571 1.70102 0
M  V30 25624 H 2565.01 3.32854 0.840427 0
M  V30 25625 N 2567.46 -0.820078 1.34583 0
M  V30 25626 C 2568.68 -1.6133 1.30336 0
M  V30 25627 C 2569.11 -1.87721 -0.119306 0
M  V30 25628 O 2568.47 -1.45477 -1.08194 0
M  V30 25629 C 2568.52 -2.92953 2.10263 0
M  V30 25630 O 2567.62 -3.85154 1.4741 0
M  V30 25631 H 2566.96 -0.490553 0.447497 0
M  V30 25632 H 2569.49 -1.01886 1.77427 0
M  V30 25633 H 2569.5 -3.42495 2.21724 0
M  V30 25634 H 2568.18 -2.73069 3.13698 0
M  V30 25635 H 2566.75 -3.43677 1.44709 0
M  V30 25636 N 2568.94 -1.18359 -1.04062 0
M  V30 25637 C 2570.35 -0.983148 -1.58717 0
M  V30 25638 C 2570.7 0.46716 -1.90557 0
M  V30 25639 O 2569.82 1.34451 -1.69564 0
M  V30 25640 C 2570.42 -1.77833 -2.88376 0
M  V30 25641 C 2568.98 -1.62224 -3.39647 0
M  V30 25642 C 2568.13 -1.77278 -2.13232 0
M  V30 25643 H 2571.08 -1.32902 -0.867335 0
M  V30 25644 H 2571.1 -1.26744 -3.58771 0
M  V30 25645 H 2570.61 -2.83383 -2.65171 0
M  V30 25646 H 2568.71 -0.592101 -3.67865 0
M  V30 25647 H 2568.82 -2.4203 -4.13471 0
M  V30 25648 H 2567.19 -1.20225 -2.2454 0
M  V30 25649 H 2567.97 -2.84263 -1.92482 0
M  V30 25650 N 2570.42 1.22976 -0.98563 0
M  V30 25651 C 2571.83 1.73337 -0.693624 0
M  V30 25652 C 2572.18 1.79597 0.789903 0
M  V30 25653 O 2571.3 1.43736 1.61769 0
M  V30 25654 C 2571.9 3.14802 -1.25241 0
M  V30 25655 C 2570.46 3.62598 -1.00994 0
M  V30 25656 C 2569.6 2.40695 -1.37699 0
M  V30 25657 H 2572.55 1.08426 -1.15886 0
M  V30 25658 H 2572.58 3.75292 -0.627395 0
M  V30 25659 H 2572.09 3.10214 -2.33214 0
M  V30 25660 H 2570.19 3.72562 0.053491 0
M  V30 25661 H 2570.3 4.49119 -1.6682 0
M  V30 25662 H 2568.67 2.41958 -0.795501 0
M  V30 25663 H 2569.45 2.38774 -2.46661 0
M  V30 25664 N 2571.89 0.757924 1.38178 0
M  V30 25665 C 2573.12 0.326973 2.043 0
M  V30 25666 C 2573.54 -1.04617 1.57165 0
M  V30 25667 O 2572.89 -1.66527 0.746655 0
M  V30 25668 C 2572.94 0.345427 3.59846 0
M  V30 25669 O 2572.67 1.66439 4.05253 0
M  V30 25670 C 2574.17 -0.0988491 4.4319 0
M  V30 25671 H 2571.39 0.139023 0.65644 0
M  V30 25672 H 2573.93 1.02799 1.76784 0
M  V30 25673 H 2572.09 -0.306888 3.86183 0
M  V30 25674 H 2572.5 1.59354 4.99707 0
M  V30 25675 H 2573.97 -0.0347775 5.51989 0
M  V30 25676 H 2574.45 -1.14734 4.23949 0
M  V30 25677 H 2575.06 0.524754 4.2205 0
M  V30 25678 N 2573.37 -1.4921 0.507345 0
M  V30 25679 C 2574.6 -2.06876 -0.0315386 0
M  V30 25680 C 2575.02 -1.36687 -1.30239 0
M  V30 25681 O 2574.37 -0.447183 -1.76937 0
M  V30 25682 C 2574.42 -3.60394 -0.282563 0
M  V30 25683 O 2574.14 -4.27943 0.937911 0
M  V30 25684 C 2575.65 -4.34791 -0.864376 0
M  V30 25685 H 2572.87 -0.670595 0.0233166 0
M  V30 25686 H 2575.41 -1.91908 0.706518 0
M  V30 25687 H 2573.56 -3.75044 -0.970614 0
M  V30 25688 H 2573.98 -5.19745 0.704658 0
M  V30 25689 H 2575.45 -5.43058 -0.989568 0
M  V30 25690 H 2575.93 -3.97695 -1.86375 0
M  V30 25691 H 2576.54 -4.24763 -0.213598 0
M  V30 25692 N 2574.85 -0.241454 -1.55739 0
M  V30 25693 C 2576.08 0.389098 -2.03208 0
M  V30 25694 C 2576.49 1.51929 -1.12084 0
M  V30 25695 O 2575.85 1.82006 -0.134215 0
M  V30 25696 C 2575.9 0.902026 -3.50065 0
M  V30 25697 O 2575.62 -0.183127 -4.37717 0
M  V30 25698 C 2577.12 1.60382 -4.13271 0
M  V30 25699 H 2574.34 0.0930936 -0.664511 0
M  V30 25700 H 2576.89 -0.363726 -2.01239 0
M  V30 25701 H 2575.04 1.60505 -3.52586 0
M  V30 25702 H 2575.46 0.205487 -5.24097 0
M  V30 25703 H 2576.93 1.91449 -5.17737 0
M  V30 25704 H 2577.41 2.5239 -3.59438 0
M  V30 25705 H 2578.01 0.945503 -4.14657 0
M  V30 25706 N 2576.33 1.57568 0.0317248 0
M  V30 25707 C 2577.26 2.01762 1.06617 0
M  V30 25708 C 2578.24 0.901486 1.35322 0
M  V30 25709 O 2579.42 1.16711 1.48023 0
M  V30 25710 C 2576.55 2.38842 2.40151 0
M  V30 25711 C 2575.6 3.60871 2.27321 0
M  V30 25712 S 2576.43 5.10116 1.62916 0
M  V30 25713 C 2577.59 5.50436 2.97945 0
M  V30 25714 H 2577.82 2.89189 0.68973 0
M  V30 25715 H 2575.35 1.52498 0.241614 0
M  V30 25716 H 2577.31 2.60876 3.16945 0
M  V30 25717 H 2575.97 1.51872 2.74943 0
M  V30 25718 H 2575.16 3.84462 3.25891 0
M  V30 25719 H 2574.77 3.38674 1.58669 0
M  V30 25720 H 2577.06 5.50957 3.94275 0
M  V30 25721 H 2578 6.5078 2.7909 0
M  V30 25722 H 2578.41 4.77936 3.00396 0
M  V30 25723 N 2577.81 -0.303946 1.54641 0
M  V30 25724 C 2579.03 -1.05855 1.7777 0
M  V30 25725 C 2579.45 -1.81039 0.535754 0
M  V30 25726 O 2578.81 -1.75678 -0.494306 0
M  V30 25727 C 2578.86 -2.04141 2.98344 0
M  V30 25728 O 2578.58 -1.32008 4.17739 0
M  V30 25729 C 2580.08 -2.91663 3.33838 0
M  V30 25730 H 2577.3 -0.314057 0.592967 0
M  V30 25731 H 2579.84 -0.344113 2.01584 0
M  V30 25732 H 2578 -2.71091 2.76746 0
M  V30 25733 H 2578.41 -1.97989 4.85696 0
M  V30 25734 H 2579.89 -3.56483 4.21454 0
M  V30 25735 H 2580.36 -3.59808 2.51863 0
M  V30 25736 H 2580.97 -2.30248 3.57583 0
M  V30 25737 N 2579.28 -1.47047 -0.566994 0
M  V30 25738 C 2580.51 -1.56768 -1.35024 0
M  V30 25739 C 2580.93 -0.214349 -1.87579 0
M  V30 25740 O 2580.28 0.79089 -1.64472 0
M  V30 25741 C 2580.34 -2.58511 -2.52694 0
M  V30 25742 O 2580.06 -3.88589 -2.02313 0
M  V30 25743 C 2581.56 -2.78322 -3.45038 0
M  V30 25744 H 2578.78 -0.529665 -0.411941 0
M  V30 25745 H 2581.32 -1.92587 -0.687798 0
M  V30 25746 H 2579.48 -2.25653 -3.14896 0
M  V30 25747 H 2579.89 -4.44101 -2.7906 0
M  V30 25748 H 2581.36 -3.53398 -4.24044 0
M  V30 25749 H 2581.84 -1.85791 -3.97968 0
M  V30 25750 H 2582.45 -3.12339 -2.8866 0
M  V30 25751 N 2580.76 0.812929 -1.35016 0
M  V30 25752 C 2581.69 1.93916 -1.30072 0
M  V30 25753 C 2582.67 1.69184 -0.176304 0
M  V30 25754 O 2583.86 1.90638 -0.370261 0
M  V30 25755 C 2580.99 3.30551 -1.06553 0
M  V30 25756 C 2579.94 3.69749 -2.15568 0
M  V30 25757 C 2579.27 5.04476 -1.77223 0
M  V30 25758 C 2580.57 3.80793 -3.57483 0
M  V30 25759 H 2582.26 1.9831 -2.24307 0
M  V30 25760 H 2579.81 0.952717 -1.07978 0
M  V30 25761 H 2581.76 4.08935 -1.01736 0
M  V30 25762 H 2580.49 3.26482 -0.0876293 0
M  V30 25763 H 2579.14 2.93646 -2.19471 0
M  V30 25764 H 2578.79 4.96905 -0.780676 0
M  V30 25765 H 2578.49 5.31674 -2.50194 0
M  V30 25766 H 2580.02 5.85307 -1.7392 0
M  V30 25767 H 2581.43 4.49424 -3.55937 0
M  V30 25768 H 2579.83 4.19455 -4.2916 0
M  V30 25769 H 2580.9 2.82518 -3.94096 0
M  V30 25770 N 2582.24 1.18909 1.03433 0
M  V30 25771 C 2583.65 0.991551 1.58193 0
M  V30 25772 C 2584 -0.457047 1.90802 0
M  V30 25773 O 2583.13 -1.3355 1.70274 0
M  V30 25774 C 2583.72 1.7936 2.87429 0
M  V30 25775 C 2582.28 1.64023 3.38782 0
M  V30 25776 C 2581.43 1.78406 2.12289 0
M  V30 25777 H 2584.38 1.3336 0.860275 0
M  V30 25778 H 2584.4 1.28645 3.58093 0
M  V30 25779 H 2583.91 2.84786 2.63664 0
M  V30 25780 H 2582.01 0.611601 3.67546 0
M  V30 25781 H 2582.13 2.4422 4.12181 0
M  V30 25782 H 2580.49 1.21414 2.23899 0
M  V30 25783 H 2581.27 2.8528 1.90972 0
M  V30 25784 N 2583.72 -1.22452 0.992137 0
M  V30 25785 C 2585.13 -1.72967 0.702807 0
M  V30 25786 C 2585.48 -1.80013 -0.780368 0
M  V30 25787 O 2584.61 -1.44591 -1.61004 0
M  V30 25788 C 2585.2 -3.14133 1.26909 0
M  V30 25789 C 2583.76 -3.62057 1.02915 0
M  V30 25790 C 2582.91 -2.39962 1.38974 0
M  V30 25791 H 2585.86 -1.0781 1.16459 0
M  V30 25792 H 2585.88 -3.74954 0.647289 0
M  V30 25793 H 2585.39 -3.08973 2.34856 0
M  V30 25794 H 2583.49 -3.72585 -0.0337324 0
M  V30 25795 H 2583.6 -4.48228 1.69199 0
M  V30 25796 H 2581.97 -2.41533 0.808322 0
M  V30 25797 H 2582.75 -2.37463 2.47924 0
M  V30 25798 N 2585.2 -0.765242 -1.37774 0
M  V30 25799 C 2586.42 -0.337803 -2.04124 0
M  V30 25800 C 2586.84 1.03782 -1.57717 0
M  V30 25801 O 2586.2 1.66129 -0.755476 0
M  V30 25802 C 2586.25 -0.364505 -3.59658 0
M  V30 25803 O 2585.97 -1.68586 -4.04364 0
M  V30 25804 C 2587.47 0.0753442 -4.43236 0
M  V30 25805 H 2584.69 -0.142502 -0.655694 0
M  V30 25806 H 2587.23 -1.03735 -1.76237 0
M  V30 25807 H 2585.39 0.286403 -3.8634 0
M  V30 25808 H 2585.8 -1.62001 -4.98854 0
M  V30 25809 H 2587.28 0.00550365 -5.52 0
M  V30 25810 H 2587.75 1.12484 -4.24552 0
M  V30 25811 H 2588.36 -0.547129 -4.21766 0
M  V30 25812 N 2586.67 1.48939 -0.515251 0
M  V30 25813 C 2587.9 2.0689 0.020567 0
M  V30 25814 C 2588.32 1.37376 1.29512 0
M  V30 25815 O 2587.67 0.45656 1.76697 0
M  V30 25816 C 2587.73 3.60539 0.263447 0
M  V30 25817 O 2587.45 4.27439 -0.960592 0
M  V30 25818 C 2588.95 4.35244 0.841306 0
M  V30 25819 H 2586.17 0.670462 -0.0268726 0
M  V30 25820 H 2588.71 1.9153 -0.716685 0
M  V30 25821 H 2586.87 3.75553 0.950711 0
M  V30 25822 H 2587.28 5.19364 -0.732212 0
M  V30 25823 H 2588.75 5.43575 0.960755 0
M  V30 25824 H 2589.23 3.98678 1.84263 0
M  V30 25825 H 2589.84 4.24871 0.191069 0
M  V30 25826 N 2588.15 0.249709 1.55609 0
M  V30 25827 C 2589.38 -0.378316 2.03412 0
M  V30 25828 C 2589.8 -1.51333 1.12889 0
M  V30 25829 O 2589.15 -1.81932 0.143865 0
M  V30 25830 C 2589.2 -0.883448 3.50539 0
M  V30 25831 O 2588.93 0.206337 4.37614 0
M  V30 25832 C 2590.43 -1.58188 4.14115 0
M  V30 25833 H 2587.65 -0.0895683 0.664995 0
M  V30 25834 H 2590.19 0.374393 2.01044 0
M  V30 25835 H 2588.35 -1.58633 3.53432 0
M  V30 25836 H 2588.76 -0.17769 5.24199 0
M  V30 25837 H 2590.23 -1.88701 5.18745 0
M  V30 25838 H 2590.71 -2.50481 3.60772 0
M  V30 25839 H 2591.32 -0.9235 4.15152 0
M  V30 25840 N 2589.63 -1.57583 -0.0233682 0
M  V30 25841 C 2590.86 -1.9419 -0.728341 0
M  V30 25842 C 2591.28 -0.850148 -1.67792 0
M  V30 25843 O 2590.64 0.193678 -1.80263 0
M  V30 25844 C 2590.69 -3.2987 -1.45663 0
M  V30 25845 O 2589.79 -3.22523 -2.57008 0
M  V30 25846 H 2589.13 -0.634573 -0.195482 0
M  V30 25847 H 2591.66 -2.04587 0.0228573 0
M  V30 25848 H 2591.67 -3.64893 -1.82529 0
M  V30 25849 H 2590.35 -4.08893 -0.760242 0
M  V30 25850 H 2588.92 -2.9914 -2.22643 0
M  V30 25851 N 2591.11 0.29574 -1.548 0
M  V30 25852 C 2592.33 1.05343 -1.78655 0
M  V30 25853 C 2592.76 1.79973 -0.546926 0
M  V30 25854 O 2592.12 1.7419 0.502732 0
M  V30 25855 C 2592.17 2.00555 -2.99683 0
M  V30 25856 O 2591.27 3.08948 -2.73176 0
M  V30 25857 H 2590.61 0.302356 -0.591166 0
M  V30 25858 H 2593.14 0.331562 -2.01896 0
M  V30 25859 H 2593.15 2.42926 -3.27797 0
M  V30 25860 H 2591.83 1.45643 -3.89565 0
M  V30 25861 H 2590.4 2.71055 -2.56093 0
M  V30 25862 N 2592.59 1.47346 0.559187 0
M  V30 25863 C 2594 1.47753 1.14132 0
M  V30 25864 C 2594.35 0.231137 1.94834 0
M  V30 25865 O 2593.47 -0.664101 2.05958 0
M  V30 25866 C 2594.07 2.67708 2.07648 0
M  V30 25867 C 2592.63 2.71081 2.61136 0
M  V30 25868 C 2591.78 2.40823 1.37476 0
M  V30 25869 H 2594.73 1.54885 0.34589 0
M  V30 25870 H 2594.75 2.44566 2.91492 0
M  V30 25871 H 2594.26 3.58407 1.48884 0
M  V30 25872 H 2592.36 1.84517 3.23704 0
M  V30 25873 H 2592.47 3.71716 3.02265 0
M  V30 25874 H 2590.84 1.91365 1.68082 0
M  V30 25875 H 2591.62 3.33727 0.805076 0
M  V30 25876 N 2594.07 -0.805758 1.35445 0
M  V30 25877 C 2595 -1.93224 1.31099 0
M  V30 25878 C 2595.98 -1.69088 0.185274 0
M  V30 25879 O 2597.16 -1.90439 0.380366 0
M  V30 25880 C 2594.29 -3.29981 1.08305 0
M  V30 25881 C 2593.25 -3.68601 2.17526 0
M  V30 25882 C 2592.57 -5.03529 1.79896 0
M  V30 25883 C 2593.87 -3.78892 3.59497 0
M  V30 25884 H 2595.57 -1.97118 2.25355 0
M  V30 25885 H 2593.11 -0.946977 1.08482 0
M  V30 25886 H 2595.06 -4.08389 1.03904 0
M  V30 25887 H 2593.79 -3.26431 0.104942 0
M  V30 25888 H 2592.45 -2.92478 2.21025 0
M  V30 25889 H 2592.1 -4.96484 0.807017 0
M  V30 25890 H 2591.8 -5.30339 2.5301 0
M  V30 25891 H 2593.32 -5.84376 1.77022 0
M  V30 25892 H 2594.73 -4.4753 3.58315 0
M  V30 25893 H 2593.13 -4.17173 4.31378 0
M  V30 25894 H 2594.2 -2.80424 3.95589 0
M  V30 25895 N 2595.54 -1.19456 -1.02801 0
M  V30 25896 C 2596.77 -1.023 -1.7984 0
M  V30 25897 C 2597.19 0.428227 -1.83879 0
M  V30 25898 O 2596.54 1.29743 -1.28347 0
M  V30 25899 C 2596.59 -1.58604 -3.24849 0
M  V30 25900 O 2596.32 -2.98046 -3.21092 0
M  V30 25901 C 2597.82 -1.46243 -4.18483 0
M  V30 25902 H 2595.04 -0.360506 -0.56593 0
M  V30 25903 H 2597.58 -1.58291 -1.29477 0
M  V30 25904 H 2595.74 -1.0676 -3.72399 0
M  V30 25905 H 2596.15 -3.24552 -4.12027 0
M  V30 25906 H 2597.62 -1.90417 -5.18117 0
M  V30 25907 H 2598.1 -0.413087 -4.37253 0
M  V30 25908 H 2598.71 -1.97222 -3.76807 0
M  V30 25909 N 2597.02 1.21924 -0.998617 0
M  V30 25910 C 2598.25 1.94831 -0.69632 0
M  V30 25911 C 2598.66 1.73693 0.740001 0
M  V30 25912 O 2598.02 1.03956 1.49998 0
M  V30 25913 C 2598.07 3.47397 -0.999894 0
M  V30 25914 O 2597.79 3.67829 -2.37978 0
M  V30 25915 C 2599.29 4.37478 -0.716102 0
M  V30 25916 H 2596.51 0.619782 -0.257122 0
M  V30 25917 H 2599.06 1.54918 -1.33494 0
M  V30 25918 H 2597.21 3.85256 -0.406986 0
M  V30 25919 H 2597.63 4.61979 -2.48346 0
M  V30 25920 H 2599.1 5.43254 -0.978737 0
M  V30 25921 H 2599.58 4.37804 0.349891 0
M  V30 25922 H 2600.18 4.05254 -1.29032 0
M  V30 25923 N 2598.5 0.772537 1.37367 0
M  V30 25924 C 2599.73 0.348623 2.03942 0
M  V30 25925 C 2600.14 -1.02944 1.58265 0
M  V30 25926 O 2599.5 -1.65726 0.764275 0
M  V30 25927 C 2599.55 0.383574 3.59459 0
M  V30 25928 O 2599.27 1.70728 4.03465 0
M  V30 25929 C 2600.77 -0.0518373 4.4327 0
M  V30 25930 H 2597.99 0.145978 0.654929 0
M  V30 25931 H 2600.54 1.04668 1.75684 0
M  V30 25932 H 2598.69 -0.26591 3.86486 0
M  V30 25933 H 2599.11 1.64645 4.97988 0
M  V30 25934 H 2600.58 0.0237703 5.51995 0
M  V30 25935 H 2601.06 -1.10231 4.25142 0
M  V30 25936 H 2601.66 0.569489 4.2147 0
M  V30 25937 N 2599.98 -1.48664 0.523142 0
M  V30 25938 C 2601.39 -1.86525 0.0809325 0
M  V30 25939 C 2601.74 -1.43338 -1.33972 0
M  V30 25940 O 2600.86 -0.821044 -2.00219 0
M  V30 25941 C 2601.46 -3.3851 0.140096 0
M  V30 25942 C 2600.02 -3.75589 -0.246882 0
M  V30 25943 C 2599.17 -2.72702 0.502893 0
M  V30 25944 H 2602.12 -1.40666 0.734761 0
M  V30 25945 H 2602.14 -3.74909 -0.649879 0
M  V30 25946 H 2601.65 -3.69912 1.17418 0
M  V30 25947 H 2599.75 -3.49801 -1.28337 0
M  V30 25948 H 2599.86 -4.79019 0.0879701 0
M  V30 25949 H 2598.23 -2.54651 -0.0500134 0
M  V30 25950 H 2599.01 -3.06947 1.53748 0
M  V30 25951 N 2601.46 -0.257958 -1.55475 0
M  V30 25952 C 2602.39 0.630873 -2.24816 0
M  V30 25953 C 2603.37 1.17257 -1.23226 0
M  V30 25954 O 2604.55 1.20988 -1.51906 0
M  V30 25955 C 2601.68 1.82293 -2.95612 0
M  V30 25956 C 2600.64 1.41352 -4.03985 0
M  V30 25957 C 2599.96 2.6873 -4.62264 0
M  V30 25958 C 2601.26 0.576389 -5.1911 0
M  V30 25959 H 2602.96 0.0526351 -2.99354 0
M  V30 25960 H 2600.5 0.0238757 -1.4398 0
M  V30 25961 H 2602.45 2.45047 -3.42826 0
M  V30 25962 H 2601.18 2.42672 -2.18581 0
M  V30 25963 H 2599.84 0.809261 -3.57556 0
M  V30 25964 H 2599.49 3.27331 -3.81921 0
M  V30 25965 H 2599.19 2.42055 -5.35428 0
M  V30 25966 H 2600.71 3.32363 -5.12218 0
M  V30 25967 H 2602.12 1.10851 -5.62481 0
M  V30 25968 H 2600.52 0.405246 -5.9873 0
M  V30 25969 H 2601.59 -0.408861 -4.83173 0
M  V30 25970 N 2602.93 1.57593 0.0150108 0
M  V30 25971 C 2604.35 1.7811 0.559801 0
M  V30 25972 C 2604.7 0.890786 1.74813 0
M  V30 25973 O 2603.82 0.0892863 2.16216 0
M  V30 25974 C 2604.42 3.23008 1.02232 0
M  V30 25975 C 2602.98 3.44673 1.51252 0
M  V30 25976 C 2602.12 2.7351 0.456907 0
M  V30 25977 H 2605.07 1.57288 -0.211197 0
M  V30 25978 H 2605.09 3.30295 1.88906 0
M  V30 25979 H 2604.61 3.87781 0.157234 0
M  V30 25980 H 2602.71 2.85094 2.399 0
M  V30 25981 H 2602.82 4.53323 1.55034 0
M  V30 25982 H 2601.18 2.37691 0.915154 0
M  V30 25983 H 2601.97 3.40974 -0.398956 0
M  V30 25984 N 2604.41 -0.287527 1.54955 0
M  V30 25985 C 2605.82 -0.859604 1.65734 0
M  V30 25986 C 2606.17 -1.87591 0.5748 0
M  V30 25987 O 2605.3 -2.14498 -0.286261 0
M  V30 25988 C 2605.89 -1.56592 3.00441 0
M  V30 25989 C 2604.45 -2.08622 3.13295 0
M  V30 25990 C 2603.6 -0.92337 2.61475 0
M  V30 25991 H 2606.55 -0.0642059 1.5857 0
M  V30 25992 H 2606.57 -2.43219 2.92617 0
M  V30 25993 H 2606.08 -0.825986 3.79208 0
M  V30 25994 H 2604.19 -2.85621 2.39273 0
M  V30 25995 H 2604.3 -2.3115 4.19651 0
M  V30 25996 H 2602.66 -1.31271 2.18266 0
M  V30 25997 H 2603.45 -0.197181 3.42733 0
M  V30 25998 N 2605.89 -1.47641 -0.551365 0
M  V30 25999 C 2607.12 -1.58439 -1.33835 0
M  V30 26000 C 2607.54 -0.237096 -1.866 0
M  V30 26001 O 2606.9 0.787965 -1.63281 0
M  V30 26002 C 2606.95 -2.6177 -2.4801 0
M  V30 26003 O 2606.05 -2.17446 -3.50415 0
M  V30 26004 H 2605.39 -0.532031 -0.397289 0
M  V30 26005 H 2607.92 -1.93466 -0.665725 0
M  V30 26006 H 2607.93 -2.82374 -2.94498 0
M  V30 26007 H 2606.61 -3.59594 -2.08962 0
M  V30 26008 H 2605.18 -2.06966 -3.10193 0
M  V30 26009 N 2607.37 0.798563 -1.3587 0
M  V30 26010 C 2608.62 1.55118 -1.28924 0
M  V30 26011 C 2608.93 1.95154 0.132046 0
M  V30 26012 O 2610.14 2.69562 0.323831 0
M  V30 26013 C 2608.59 2.79975 -2.26146 0
M  V30 26014 C 2608.2 2.47145 -3.73662 0
M  V30 26015 C 2609.94 3.57972 -2.28158 0
M  V30 26016 C 2607.85 3.68342 -4.62686 0
M  V30 26017 H 2606.78 0.582267 -0.479042 0
M  V30 26018 H 2609.43 0.877097 -1.61181 0
M  V30 26019 H 2607.81 3.49135 -1.86871 0
M  V30 26020 H 2608.99 1.8594 -4.21619 0
M  V30 26021 H 2607.3 1.82377 -3.74336 0
M  V30 26022 H 2609.9 4.48005 -2.91883 0
M  V30 26023 H 2610.24 3.95889 -1.28755 0
M  V30 26024 H 2610.78 2.95782 -2.66003 0
M  V30 26025 H 2607.52 3.35528 -5.63117 0
M  V30 26026 H 2607.04 4.28744 -4.1945 0
M  V30 26027 H 2608.71 4.35478 -4.78506 0
M  V30 26028 N 2608.85 1.19999 1.02166 0
M  V30 26029 C 2610.07 1.03252 1.79295 0
M  V30 26030 C 2610.49 -0.41847 1.84104 0
M  V30 26031 O 2609.85 -1.29061 1.29033 0
M  V30 26032 C 2609.9 1.60324 3.24004 0
M  V30 26033 O 2609.62 2.99745 3.19507 0
M  V30 26034 C 2611.12 1.4846 4.17701 0
M  V30 26035 H 2608.34 0.363502 0.56401 0
M  V30 26036 H 2610.88 1.58975 1.28636 0
M  V30 26037 H 2609.04 1.08733 3.71828 0
M  V30 26038 H 2609.45 3.26733 4.103 0
M  V30 26039 H 2610.93 1.93162 5.171 0
M  V30 26040 H 2611.4 0.436269 4.37028 0
M  V30 26041 H 2612.01 1.99217 3.75756 0
M  V30 26042 N 2610.32 -1.21392 1.00507 0
M  V30 26043 C 2611.74 -1.72212 0.721112 0
M  V30 26044 C 2612.09 -1.80831 -0.761231 0
M  V30 26045 O 2611.21 -1.46291 -1.59461 0
M  V30 26046 C 2611.81 -3.12769 1.30233 0
M  V30 26047 C 2610.37 -3.60945 1.0675 0
M  V30 26048 C 2609.51 -2.38474 1.41511 0
M  V30 26049 H 2612.46 -1.06568 1.17596 0
M  V30 26050 H 2612.48 -3.74246 0.687021 0
M  V30 26051 H 2612 -3.06464 2.3812 0
M  V30 26052 H 2610.1 -3.726 0.00578711 0
M  V30 26053 H 2610.21 -4.46408 1.73944 0
M  V30 26054 H 2608.57 -2.40662 0.833894 0
M  V30 26055 H 2609.36 -2.3482 2.50429 0
M  V30 26056 N 2611.8 -0.779811 -1.36955 0
M  V30 26057 C 2613.21 -0.412188 -1.82093 0
M  V30 26058 C 2613.56 1.0627 -1.64927 0
M  V30 26059 O 2612.69 1.82373 -1.16486 0
M  V30 26060 C 2613.28 -0.741377 -3.30589 0
M  V30 26061 C 2611.84 -0.426707 -3.73973 0
M  V30 26062 C 2610.99 -0.981032 -2.59367 0
M  V30 26063 H 2613.94 -0.97378 -1.25312 0
M  V30 26064 H 2613.96 -0.0289539 -3.80489 0
M  V30 26065 H 2613.47 -1.81488 -3.43051 0
M  V30 26066 H 2611.58 0.63915 -3.67077 0
M  V30 26067 H 2611.69 -0.940597 -4.69776 0
M  V30 26068 H 2610.05 -0.404802 -2.51463 0
M  V30 26069 H 2610.84 -2.0601 -2.74618 0
M  V30 26070 N 2613.28 1.48384 -0.531019 0
M  V30 26071 C 2614.51 2.069 -0.00137759 0
M  V30 26072 C 2614.92 1.38742 1.28047 0
M  V30 26073 O 2614.28 0.475275 1.76203 0
M  V30 26074 C 2614.33 3.60798 0.225192 0
M  V30 26075 O 2614.05 4.26396 -1.00587 0
M  V30 26076 C 2615.55 4.36111 0.795096 0
M  V30 26077 H 2612.77 0.670139 -0.0339822 0
M  V30 26078 H 2615.32 1.90759 -0.736959 0
M  V30 26079 H 2613.47 3.7654 0.910825 0
M  V30 26080 H 2613.89 5.18558 -0.787256 0
M  V30 26081 H 2615.36 5.44563 0.903047 0
M  V30 26082 H 2615.84 4.0061 1.80024 0
M  V30 26083 H 2616.44 4.25049 0.145995 0
M  V30 26084 N 2614.76 0.2662 1.55336 0
M  V30 26085 C 2616.01 -0.353123 1.99397 0
M  V30 26086 C 2616.33 -1.56527 1.15454 0
M  V30 26087 O 2615.59 -1.9457 0.210008 0
M  V30 26088 C 2615.89 -0.787895 3.48607 0
M  V30 26089 C 2615.55 0.31862 4.49773 0
M  V30 26090 C 2614.22 0.622474 4.77157 0
M  V30 26091 C 2616.57 1.06468 5.1021 0
M  V30 26092 C 2613.9 1.67612 5.62248 0
M  V30 26093 C 2616.25 2.10798 5.96445 0
M  V30 26094 C 2614.91 2.41828 6.22154 0
M  V30 26095 H 2614.18 -0.129217 0.729646 0
M  V30 26096 H 2616.83 0.378053 1.87731 0
M  V30 26097 H 2615.13 -1.5986 3.57704 0
M  V30 26098 H 2616.83 -1.27768 3.801 0
M  V30 26099 H 2613.42 0.0716678 4.2854 0
M  V30 26100 H 2617.6 0.843184 4.89085 0
M  V30 26101 H 2612.86 1.92165 5.80416 0
M  V30 26102 H 2617.03 2.69087 6.42312 0
M  V30 26103 H 2614.66 3.23608 6.87882 0
M  V30 26104 N 2616.24 -1.57599 -0.0066531 0
M  V30 26105 C 2617.46 -1.94952 -0.707704 0
M  V30 26106 C 2617.89 -0.867897 -1.66881 0
M  V30 26107 O 2617.24 0.174548 -1.80458 0
M  V30 26108 C 2617.29 -3.31397 -1.42157 0
M  V30 26109 O 2616.4 -3.2523 -2.53573 0
M  V30 26110 H 2615.74 -0.636611 -0.18874 0
M  V30 26111 H 2618.27 -2.04551 0.0445552 0
M  V30 26112 H 2618.28 -3.66809 -1.78649 0
M  V30 26113 H 2616.95 -4.09676 -0.716831 0
M  V30 26114 H 2615.53 -3.01484 -2.19457 0
M  V30 26115 N 2617.72 0.279305 -1.55105 0
M  V30 26116 C 2619.13 0.850803 -1.66187 0
M  V30 26117 C 2619.48 1.87284 -0.58474 0
M  V30 26118 O 2618.6 2.14647 0.274882 0
M  V30 26119 C 2619.2 1.54996 -3.01267 0
M  V30 26120 C 2617.76 2.06957 -3.14397 0
M  V30 26121 C 2616.9 0.90949 -2.61961 0
M  V30 26122 H 2619.85 0.0557957 -1.58602 0
M  V30 26123 H 2619.88 2.41664 -2.93903 0
M  V30 26124 H 2619.39 0.805864 -3.79641 0
M  V30 26125 H 2617.49 2.84348 -2.40784 0
M  V30 26126 H 2617.6 2.28921 -4.20871 0
M  V30 26127 H 2615.97 1.30112 -2.18959 0
M  V30 26128 H 2616.75 0.179002 -3.42833 0
M  V30 26129 N 2619.19 1.47931 0.543528 0
M  V30 26130 C 2620.44 1.55257 1.30006 0
M  V30 26131 C 2620.77 0.220646 1.93244 0
M  V30 26132 O 2620.02 -0.787811 1.79142 0
M  V30 26133 C 2620.32 2.62936 2.42073 0
M  V30 26134 C 2619.99 4.05794 1.96576 0
M  V30 26135 C 2618.65 4.44679 1.83885 0
M  V30 26136 C 2621 4.95376 1.62026 0
M  V30 26137 C 2618.33 5.70967 1.34959 0
M  V30 26138 C 2620.68 6.22139 1.14566 0
M  V30 26139 C 2619.35 6.59894 1.00482 0
M  V30 26140 H 2618.62 0.568126 0.475725 0
M  V30 26141 H 2621.26 1.8159 0.608043 0
M  V30 26142 H 2619.57 2.30411 3.16888 0
M  V30 26143 H 2621.27 2.65823 3.00231 0
M  V30 26144 H 2617.86 3.75077 2.07401 0
M  V30 26145 H 2622.04 4.66022 1.70697 0
M  V30 26146 H 2617.3 5.98955 1.2273 0
M  V30 26147 H 2621.47 6.90957 0.868987 0
M  V30 26148 H 2619.1 7.57639 0.62349 0
M  V30 26149 N 2620.67 -0.791347 1.36292 0
M  V30 26150 C 2621.9 -1.58529 1.33729 0
M  V30 26151 C 2622.32 -1.87932 -0.0794603 0
M  V30 26152 O 2621.68 -1.4774 -1.05084 0
M  V30 26153 C 2621.73 -2.88427 2.1643 0
M  V30 26154 O 2620.83 -3.81941 1.55547 0
M  V30 26155 H 2620.17 -0.480951 0.457802 0
M  V30 26156 H 2622.7 -0.980999 1.79548 0
M  V30 26157 H 2622.71 -3.37714 2.28939 0
M  V30 26158 H 2621.39 -2.66353 3.1942 0
M  V30 26159 H 2619.96 -3.4053 1.51967 0
M  V30 26160 N 2622.15 -1.2054 -1.01528 0
M  V30 26161 C 2623.38 -1.04202 -1.78744 0
M  V30 26162 C 2623.79 0.4087 -1.84323 0
M  V30 26163 O 2623.15 1.28374 -1.29716 0
M  V30 26164 C 2623.2 -1.6204 -3.23149 0
M  V30 26165 O 2622.92 -3.01435 -3.17913 0
M  V30 26166 C 2624.42 -1.50673 -4.16908 0
M  V30 26167 H 2621.64 -0.366488 -0.562074 0
M  V30 26168 H 2624.19 -1.59655 -1.27791 0
M  V30 26169 H 2622.34 -1.10704 -3.71246 0
M  V30 26170 H 2622.76 -3.28904 -4.08561 0
M  V30 26171 H 2624.23 -1.95901 -5.16069 0
M  V30 26172 H 2624.71 -0.45944 -4.3679 0
M  V30 26173 H 2625.31 -2.01207 -3.74694 0
M  V30 26174 N 2623.63 1.20858 -1.01149 0
M  V30 26175 C 2624.86 1.94081 -0.716945 0
M  V30 26176 C 2625.27 1.74469 0.721537 0
M  V30 26177 O 2624.63 1.05541 1.48887 0
M  V30 26178 C 2624.68 3.46317 -1.03668 0
M  V30 26179 O 2624.4 3.65284 -2.41866 0
M  V30 26180 C 2625.9 4.36694 -0.762462 0
M  V30 26181 H 2623.12 0.61702 -0.263681 0
M  V30 26182 H 2625.66 1.53494 -1.35129 0
M  V30 26183 H 2623.82 3.84803 -0.447824 0
M  V30 26184 H 2624.23 4.59319 -2.53232 0
M  V30 26185 H 2625.71 5.42185 -1.0363 0
M  V30 26186 H 2626.18 4.38151 0.303437 0
M  V30 26187 H 2626.79 4.03863 -1.33323 0
M  V30 26188 N 2625.11 0.787064 1.3654 0
M  V30 26189 C 2626.33 0.370235 2.0356 0
M  V30 26190 C 2626.75 -1.0126 1.59348 0
M  V30 26191 O 2626.11 -1.64906 0.78181 0
M  V30 26192 C 2626.16 0.421677 3.59032 0
M  V30 26193 O 2625.88 1.74997 4.01631 0
M  V30 26194 C 2627.38 -0.00481971 4.433 0
M  V30 26195 H 2624.6 0.152916 0.653343 0
M  V30 26196 H 2627.14 1.06525 1.74564 0
M  V30 26197 H 2625.3 -0.224903 3.86747 0
M  V30 26198 H 2625.71 1.69917 4.96214 0
M  V30 26199 H 2627.19 0.0823154 5.51939 0
M  V30 26200 H 2627.66 -1.05716 4.26287 0
M  V30 26201 H 2628.27 0.614159 4.20842 0
M  V30 26202 N 2626.58 -1.48101 0.53888 0
M  V30 26203 C 2627.99 -1.86428 0.100711 0
M  V30 26204 C 2628.35 -1.44751 -1.32445 0
M  V30 26205 O 2627.47 -0.842234 -1.99337 0
M  V30 26206 C 2628.07 -3.38343 0.175992 0
M  V30 26207 C 2626.62 -3.7583 -0.207032 0
M  V30 26208 C 2625.77 -2.72153 0.531789 0
M  V30 26209 H 2628.72 -1.39879 0.749639 0
M  V30 26210 H 2628.74 -3.75577 -0.610078 0
M  V30 26211 H 2628.26 -3.68645 1.21335 0
M  V30 26212 H 2626.36 -3.51142 -1.24619 0
M  V30 26213 H 2626.47 -4.78899 0.138772 0
M  V30 26214 H 2624.83 -2.5469 -0.0230014 0
M  V30 26215 H 2625.62 -3.05299 1.56995 0
M  V30 26216 N 2628.06 -0.274434 -1.55192 0
M  V30 26217 C 2629.29 0.345907 -2.03988 0
M  V30 26218 C 2629.7 1.49518 -1.15282 0
M  V30 26219 O 2629.06 1.8168 -0.17279 0
M  V30 26220 C 2629.11 0.827569 -3.519 0
M  V30 26221 O 2628.83 -0.275932 -4.3723 0
M  V30 26222 C 2630.33 1.5158 -4.1658 0
M  V30 26223 H 2627.55 0.0789774 -0.666336 0
M  V30 26224 H 2630.1 -0.40633 -2.00423 0
M  V30 26225 H 2628.25 1.5299 -3.55911 0
M  V30 26226 H 2628.67 0.0942716 -5.24415 0
M  V30 26227 H 2630.14 1.80424 -5.21681 0
M  V30 26228 H 2630.62 2.44709 -3.64711 0
M  V30 26229 H 2631.22 0.857336 -4.16569 0
M  V30 26230 N 2629.54 1.576 -0.00170483 0
M  V30 26231 C 2630.77 1.94923 0.693725 0
M  V30 26232 C 2631.18 0.876655 1.67213 0
M  V30 26233 O 2630.54 -0.144247 1.81929 0
M  V30 26234 C 2630.59 3.32267 1.42411 0
M  V30 26235 O 2630.31 4.35408 0.484937 0
M  V30 26236 C 2631.81 3.8406 2.21389 0
M  V30 26237 H 2629.03 0.642612 0.193107 0
M  V30 26238 H 2631.58 2.0443 -0.0533311 0
M  V30 26239 H 2629.73 3.24063 2.12278 0
M  V30 26240 H 2630.15 5.1487 1.00044 0
M  V30 26241 H 2631.62 4.82583 2.67988 0
M  V30 26242 H 2632.1 3.16856 3.04136 0
M  V30 26243 H 2632.7 3.95445 1.56535 0
M  V30 26244 N 2631.02 -0.271076 1.55251 0
M  V30 26245 C 2632.43 -0.841978 1.66636 0
M  V30 26246 C 2632.78 -1.86971 0.594664 0
M  V30 26247 O 2631.9 -2.1479 -0.263494 0
M  V30 26248 C 2632.5 -1.53396 3.02085 0
M  V30 26249 C 2631.06 -2.05287 3.1549 0
M  V30 26250 C 2630.21 -0.895585 2.6244 0
M  V30 26251 H 2633.16 -0.0473838 1.58629 0
M  V30 26252 H 2633.18 -2.40102 2.9518 0
M  V30 26253 H 2632.69 -0.785719 3.80063 0
M  V30 26254 H 2630.79 -2.83067 2.42289 0
M  V30 26255 H 2630.9 -2.26686 4.22079 0
M  V30 26256 H 2629.27 -1.28949 2.19646 0
M  V30 26257 H 2630.05 -0.160818 3.42923 0
M  V30 26258 N 2632.5 -1.48217 -0.535675 0
M  V30 26259 C 2633.74 -1.57538 -1.30235 0
M  V30 26260 C 2634.1 -0.241263 -1.90478 0
M  V30 26261 O 2635.3 -0.209427 -2.67983 0
M  V30 26262 C 2633.57 -2.67797 -2.36685 0
M  V30 26263 S 2635.13 -2.96845 -3.23154 0
M  V30 26264 H 2631.95 -0.556056 -0.443083 0
M  V30 26265 H 2634.55 -1.8571 -0.610904 0
M  V30 26266 H 2633.26 -3.63299 -1.90898 0
M  V30 26267 H 2632.79 -2.41508 -3.10544 0
M  V30 26268 H 2634.8 -2.35707 -4.36643 0
M  V30 26269 N 2633.97 0.784108 -1.3671 0
M  V30 26270 C 2635.22 1.54449 -1.31429 0
M  V30 26271 C 2635.55 1.93917 0.104726 0
M  V30 26272 O 2634.83 1.63122 1.05931 0
M  V30 26273 C 2635.11 2.81796 -2.24194 0
M  V30 26274 C 2634.96 2.4866 -3.74817 0
M  V30 26275 C 2636.28 3.83654 -2.15633 0
M  V30 26276 H 2633.4 0.560329 -0.478749 0
M  V30 26277 H 2636.04 0.900468 -1.67307 0
M  V30 26278 H 2634.19 3.36752 -1.93728 0
M  V30 26279 H 2635.87 1.99714 -4.15827 0
M  V30 26280 H 2634.11 1.81528 -3.93992 0
M  V30 26281 H 2634.78 3.39638 -4.35144 0
M  V30 26282 H 2637.26 3.38159 -2.42461 0
M  V30 26283 H 2636.13 4.70501 -2.82702 0
M  V30 26284 H 2636.39 4.27007 -1.1453 0
M  V30 26285 N 2635.45 1.21076 1.00888 0
M  V30 26286 C 2636.86 1.02488 1.56055 0
M  V30 26287 C 2637.21 -0.416472 1.91729 0
M  V30 26288 O 2636.34 -1.29908 1.73069 0
M  V30 26289 C 2636.93 1.85416 2.8356 0
M  V30 26290 C 2635.49 1.71172 3.35227 0
M  V30 26291 C 2634.64 1.82869 2.08457 0
M  V30 26292 H 2637.59 1.35155 0.831794 0
M  V30 26293 H 2637.61 1.36211 3.55284 0
M  V30 26294 H 2637.12 2.90314 2.57564 0
M  V30 26295 H 2635.23 0.689425 3.66166 0
M  V30 26296 H 2635.34 2.52908 4.06908 0
M  V30 26297 H 2633.7 1.26136 2.21273 0
M  V30 26298 H 2634.49 2.89266 1.84878 0
M  V30 26299 N 2636.93 -1.2032 1.01789 0
M  V30 26300 C 2637.86 -2.254 0.609664 0
M  V30 26301 C 2638.84 -1.65894 -0.375922 0
M  V30 26302 O 2640.03 -1.92437 -0.261067 0
M  V30 26303 C 2637.16 -3.47262 -0.0515384 0
M  V30 26304 C 2636.11 -4.1937 0.855169 0
M  V30 26305 C 2635.44 -5.34667 0.0596697 0
M  V30 26306 C 2636.74 -4.75369 2.16382 0
M  V30 26307 H 2638.43 -2.59801 1.48807 0
M  V30 26308 H 2635.98 -1.24883 0.716956 0
M  V30 26309 H 2637.93 -4.19955 -0.34869 0
M  V30 26310 H 2636.65 -3.12028 -0.964671 0
M  V30 26311 H 2635.31 -3.48544 1.13634 0
M  V30 26312 H 2634.96 -4.95677 -0.855153 0
M  V30 26313 H 2634.66 -5.83842 0.663508 0
M  V30 26314 H 2636.18 -6.10163 -0.230998 0
M  V30 26315 H 2637.6 -5.39874 1.92895 0
M  V30 26316 H 2636 -5.34987 2.71863 0
M  V30 26317 H 2637.07 -3.9404 2.82596 0
M  V30 26318 N 2638.41 -0.794293 -1.3612 0
M  V30 26319 C 2639.65 -0.374412 -2.00942 0
M  V30 26320 C 2640.01 1.03574 -1.61667 0
M  V30 26321 O 2641.21 1.55697 -2.19116 0
M  V30 26322 C 2639.48 -0.538389 -3.53322 0
M  V30 26323 S 2641.04 -0.207107 -4.38311 0
M  V30 26324 H 2637.86 -0.142798 -0.696513 0
M  V30 26325 H 2640.46 -1.03385 -1.65927 0
M  V30 26326 H 2639.17 -1.56491 -3.79393 0
M  V30 26327 H 2638.7 0.136813 -3.93162 0
M  V30 26328 H 2640.71 0.989609 -4.86232 0
M  V30 26329 N 2639.89 1.47813 -0.546727 0
M  V30 26330 C 2640.83 2.31557 0.220007 0
M  V30 26331 C 2641.83 1.42276 0.919447 0
M  V30 26332 O 2643.03 1.59096 0.841925 0
M  V30 26333 H 2639.41 0.746617 0.0898202 0
M  V30 26334 H 2641.38 2.94085 -0.505641 0
M  V30 26335 C 2640.13 3.24704 1.24348 0
M  V30 26336 H 2639.45 3.9336 0.714689 0
M  V30 26337 H 2640.89 3.86153 1.75105 0
M  V30 26338 C 2639.35 2.47485 2.28589 0
M  V30 26339 O 2639.88 2.21171 3.3533 0
M  V30 26340 N 2638.09 2.0868 2.0224 0
M  V30 26341 H 2637.63 2.3028 1.15451 0
M  V30 26342 H 2637.59 1.57328 2.72204 0
M  V30 26343 N 2641.36 0.28266 1.55044 0
M  V30 26344 C 2642.61 -0.325401 2.0078 0
M  V30 26345 C 2642.97 -1.52919 1.16763 0
M  V30 26346 O 2642.26 -1.90196 0.231508 0
M  V30 26347 C 2642.45 -0.750877 3.49423 0
M  V30 26348 C 2642.28 0.410134 4.47826 0
M  V30 26349 C 2641.05 0.896326 4.97287 0
M  V30 26350 C 2643.25 1.24911 4.98901 0
M  V30 26351 N 2641.23 2.02602 5.79505 0
M  V30 26352 C 2642.6 2.22657 5.7864 0
M  V30 26353 C 2644.66 1.28159 4.81123 0
M  V30 26354 C 2643.36 3.23404 6.42497 0
M  V30 26355 C 2645.39 2.27755 5.45785 0
M  V30 26356 C 2644.75 3.24233 6.25342 0
M  V30 26357 H 2640.85 -0.0840364 0.777471 0
M  V30 26358 H 2643.43 0.408401 1.90369 0
M  V30 26359 H 2641.6 -1.45389 3.60162 0
M  V30 26360 H 2643.33 -1.33691 3.8198 0
M  V30 26361 H 2640.09 0.47436 4.71218 0
M  V30 26362 H 2640.51 2.5947 6.25303 0
M  V30 26363 H 2645.16 0.549471 4.19214 0
M  V30 26364 H 2642.87 3.97545 7.03551 0
M  V30 26365 H 2646.46 2.31019 5.33968 0
M  V30 26366 H 2645.34 4.00039 6.74491 0
M  V30 26367 N 2642.84 -1.57597 0.0100627 0
M  V30 26368 C 2644.07 -1.95288 -0.683378 0
M  V30 26369 C 2644.49 -0.885511 -1.66746 0
M  V30 26370 O 2643.84 0.134597 -1.82003 0
M  V30 26371 C 2643.89 -3.33018 -1.40647 0
M  V30 26372 O 2643.61 -4.35659 -0.46184 0
M  V30 26373 C 2645.12 -3.85228 -2.19349 0
M  V30 26374 H 2642.34 -0.643627 -0.189696 0
M  V30 26375 H 2644.88 -2.04399 0.0641718 0
M  V30 26376 H 2643.03 -3.25184 -2.10556 0
M  V30 26377 H 2643.45 -5.15394 -0.973124 0
M  V30 26378 H 2644.92 -4.83998 -2.65425 0
M  V30 26379 H 2645.4 -3.18464 -3.02452 0
M  V30 26380 H 2646.01 -3.9627 -1.54435 0
M  V30 26381 N 2644.32 0.262839 -1.55393 0
M  V30 26382 C 2645.57 0.991116 -1.76129 0
M  V30 26383 C 2645.89 1.86449 -0.571116 0
M  V30 26384 O 2645.16 1.91483 0.413664 0
M  V30 26385 H 2643.74 0.368936 -0.649534 0
M  V30 26386 H 2646.4 0.284621 -1.92811 0
M  V30 26387 H 2645.5 1.62214 -2.66633 0
M  V30 26388 N 2645.8 1.48499 0.527807 0
M  V30 26389 C 2647.04 1.57838 1.28292 0
M  V30 26390 C 2647.4 0.249977 1.90769 0
M  V30 26391 O 2646.69 -0.747371 1.76423 0
M  V30 26392 C 2646.89 2.65489 2.39271 0
M  V30 26393 C 2646.72 4.08668 1.87672 0
M  V30 26394 C 2645.49 4.75781 1.70178 0
M  V30 26395 C 2647.68 4.94765 1.404 0
M  V30 26396 N 2645.67 6.03368 1.13228 0
M  V30 26397 C 2647.04 6.12615 0.954108 0
M  V30 26398 C 2649.09 4.80973 1.28723 0
M  V30 26399 C 2647.79 7.18192 0.399023 0
M  V30 26400 C 2649.82 5.86674 0.746141 0
M  V30 26401 C 2649.18 7.03734 0.306334 0
M  V30 26402 H 2645.28 0.632107 0.460397 0
M  V30 26403 H 2647.87 1.85389 0.594881 0
M  V30 26404 H 2646.04 2.39756 3.05568 0
M  V30 26405 H 2647.77 2.645 3.06303 0
M  V30 26406 H 2644.52 4.32148 1.93765 0
M  V30 26407 H 2644.95 6.71418 0.867569 0
M  V30 26408 H 2649.59 3.9081 1.61331 0
M  V30 26409 H 2647.31 8.08077 0.0606258 0
M  V30 26410 H 2650.89 5.78056 0.65894 0
M  V30 26411 H 2649.77 7.84129 -0.105845 0
M  V30 26412 N 2647.28 -0.776847 1.37123 0
M  V30 26413 C 2648.21 -1.90399 1.35168 0
M  V30 26414 C 2649.19 -1.68657 0.221099 0
M  V30 26415 O 2650.37 -1.89589 0.420675 0
M  V30 26416 C 2647.5 -3.27609 1.1528 0
M  V30 26417 C 2646.46 -3.63904 2.25295 0
M  V30 26418 C 2645.78 -4.996 1.90536 0
M  V30 26419 C 2647.08 -3.71181 3.67453 0
M  V30 26420 H 2648.78 -1.92293 2.29486 0
M  V30 26421 H 2646.32 -0.923753 1.10466 0
M  V30 26422 H 2648.28 -4.06094 1.12543 0
M  V30 26423 H 2647 -3.26135 0.17416 0
M  V30 26424 H 2645.66 -2.87724 2.27179 0
M  V30 26425 H 2645.31 -4.9466 0.912147 0
M  V30 26426 H 2645.01 -5.24853 2.64202 0
M  V30 26427 H 2646.53 -5.8049 1.89377 0
M  V30 26428 H 2647.95 -4.39829 3.67727 0
M  V30 26429 H 2646.34 -4.07929 4.4013 0
M  V30 26430 H 2647.41 -2.7197 4.01448 0
M  V30 26431 N 2648.76 -1.2161 -1.00244 0
M  V30 26432 C 2650.03 -0.943599 -1.71335 0
M  V30 26433 C 2650.41 0.543907 -2.03973 0
M  V30 26434 O 2649.76 1.50943 -1.71547 0
M  V30 26435 C 2649.97 -1.83133 -2.97091 0
M  V30 26436 C 2651.32 -2.08171 -3.70067 0
M  V30 26437 O 2652.34 -1.80503 -3.07078 0
M  V30 26438 O 2651.2 -2.54979 -4.83371 0
M  V30 26439 H 2648.3 -0.354052 -0.74738 0
M  V30 26440 H 2650.84 -1.32551 -1.05964 0
M  V30 26441 H 2649.61 -2.83793 -2.69402 0
M  V30 26442 H 2649.24 -1.4504 -3.70201 0
M  V30 26443 N 2650.23 1.19778 -1.02425 0
M  V30 26444 C 2651.46 1.93851 -0.737334 0
M  V30 26445 C 2651.88 1.74714 0.696893 0
M  V30 26446 O 2651.24 1.04641 1.48054 0
M  V30 26447 C 2651.29 3.43798 -1.08789 0
M  V30 26448 O 2650.39 4.11896 -0.203902 0
M  V30 26449 H 2649.73 0.60535 -0.272851 0
M  V30 26450 H 2652.26 1.51989 -1.36969 0
M  V30 26451 H 2652.27 3.94448 -1.04283 0
M  V30 26452 H 2650.95 3.57049 -2.13281 0
M  V30 26453 H 2649.53 3.71633 -0.307156 0
M  V30 26454 N 2651.71 0.801501 1.35697 0
M  V30 26455 C 2652.96 0.378745 1.98519 0
M  V30 26456 C 2653.28 -1.05635 1.63909 0
M  V30 26457 O 2652.55 -1.73004 0.919043 0
M  V30 26458 H 2651.13 0.137055 0.734319 0
M  V30 26459 H 2653.79 1.02622 1.65695 0
M  V30 26460 H 2652.89 0.480338 3.08382 0
M  V30 26461 N 2653.19 -1.47521 0.554558 0
M  V30 26462 C 2654.14 -2.29978 -0.19462 0
M  V30 26463 C 2655.11 -1.38898 -0.910857 0
M  V30 26464 O 2656.29 -1.6786 -0.907073 0
M  V30 26465 C 2653.43 -3.22805 -1.2203 0
M  V30 26466 C 2652.54 -4.28974 -0.510398 0
M  V30 26467 C 2651.68 -5.08955 -1.52114 0
M  V30 26468 C 2650.72 -6.06901 -0.796066 0
M  V30 26469 N 2649.86 -6.7985 -1.75351 0
M  V30 26470 H 2654.7 -2.93522 0.514662 0
M  V30 26471 H 2652.23 -1.44682 0.265632 0
M  V30 26472 H 2654.19 -3.75043 -1.82753 0
M  V30 26473 H 2652.82 -2.61131 -1.89765 0
M  V30 26474 H 2651.87 -3.79813 0.211301 0
M  V30 26475 H 2653.18 -4.98767 0.0577379 0
M  V30 26476 H 2652.34 -5.6533 -2.20198 0
M  V30 26477 H 2651.08 -4.39058 -2.12319 0
M  V30 26478 H 2650.08 -5.49707 -0.101291 0
M  V30 26479 H 2651.31 -6.78806 -0.199792 0
M  V30 26480 H 2649.25 -6.12686 -2.34419 0
M  V30 26481 H 2649.17 -7.45804 -1.23745 0
M  V30 26482 H 2650.44 -7.40801 -2.42557 0
M  V30 26483 N 2654.67 -0.290879 -1.54892 0
M  V30 26484 C 2656.08 0.203783 -1.85585 0
M  V30 26485 C 2656.43 1.5422 -1.21287 0
M  V30 26486 O 2655.55 2.1038 -0.506878 0
M  V30 26487 C 2656.15 0.376535 -3.36701 0
M  V30 26488 C 2654.71 0.815421 -3.67461 0
M  V30 26489 C 2653.86 -0.0821574 -2.77178 0
M  V30 26490 H 2656.81 -0.512202 -1.50207 0
M  V30 26491 H 2656.83 1.21269 -3.60658 0
M  V30 26492 H 2656.34 -0.597738 -3.83469 0
M  V30 26493 H 2654.44 1.80061 -3.26204 0
M  V30 26494 H 2654.55 0.641822 -4.74781 0
M  V30 26495 H 2652.92 0.436851 -2.50926 0
M  V30 26496 H 2653.7 -1.0526 -3.26765 0
M  V30 26497 N 2656.15 1.57589 -0.0184203 0
M  V30 26498 C 2657.09 2.10711 0.985074 0
M  V30 26499 C 2658.09 1.03122 1.34395 0
M  V30 26500 O 2659.29 1.21569 1.32744 0
M  V30 26501 H 2655.67 0.673058 0.335406 0
M  V30 26502 H 2657.64 2.93981 0.511638 0
M  V30 26503 C 2656.39 2.64065 2.26197 0
M  V30 26504 H 2655.71 3.46494 1.99454 0
M  V30 26505 H 2657.15 3.04892 2.94647 0
M  V30 26506 C 2655.61 1.56315 2.98441 0
M  V30 26507 O 2656.14 0.956742 3.9014 0
M  V30 26508 N 2654.35 1.28617 2.60588 0
M  V30 26509 H 2653.89 1.78116 1.86098 0
M  V30 26510 H 2653.85 0.567461 3.09237 0
M  V30 26511 N 2657.62 -0.254594 1.5553 0
M  V30 26512 C 2658.87 -0.983705 1.77001 0
M  V30 26513 C 2659.2 -1.85608 0.581363 0
M  V30 26514 O 2658.45 -1.90791 -0.435587 0
M  V30 26515 C 2658.75 -1.88103 3.03895 0
M  V30 26516 C 2658.42 -1.16465 4.35599 0
M  V30 26517 C 2657.08 -0.966631 4.71391 0
M  V30 26518 C 2659.43 -0.656296 5.17051 0
M  V30 26519 C 2656.76 -0.247839 5.86176 0
M  V30 26520 C 2659.11 0.0489919 6.32581 0
M  V30 26521 C 2657.78 0.258556 6.66999 0
M  V30 26522 H 2657.05 -0.359963 0.647694 0
M  V30 26523 H 2659.69 -0.25443 1.89802 0
M  V30 26524 H 2658 -2.67712 2.86073 0
M  V30 26525 H 2659.7 -2.44672 3.17705 0
M  V30 26526 H 2656.29 -1.32891 4.07477 0
M  V30 26527 H 2660.47 -0.796847 4.89861 0
M  V30 26528 H 2655.73 -0.0749276 6.11354 0
M  V30 26529 H 2659.9 0.450567 6.94941 0
M  V30 26530 H 2657.53 0.817491 7.55792 0
M  V30 26531 N 2659.1 -1.48777 -0.519925 0
M  V30 26532 C 2660.05 -1.60444 -1.61992 0
M  V30 26533 C 2661.04 -0.461018 -1.54154 0
M  V30 26534 O 2662.23 -0.712994 -1.62004 0
M  V30 26535 C 2659.36 -1.65669 -3.0068 0
M  V30 26536 C 2658.44 -2.85526 -3.13585 0
M  V30 26537 N 2658.83 -4.0983 -2.96434 0
M  V30 26538 C 2657.13 -2.83068 -3.44657 0
M  V30 26539 C 2657.83 -4.90298 -3.13021 0
M  V30 26540 N 2656.81 -4.23303 -3.4105 0
M  V30 26541 H 2660.61 -2.54289 -1.47357 0
M  V30 26542 H 2658.12 -1.45288 -0.725623 0
M  V30 26543 H 2660.12 -1.72123 -3.79709 0
M  V30 26544 H 2658.78 -0.729481 -3.164 0
M  V30 26545 H 2659.79 -4.40109 -2.72992 0
M  V30 26546 H 2656.47 -1.99646 -3.66671 0
M  V30 26547 H 2657.86 -5.98984 -3.04414 0
M  V30 26548 N 2660.58 0.769564 -1.37534 0
M  V30 26549 C 2661.53 1.88291 -1.33474 0
M  V30 26550 C 2662.5 1.64892 -0.19992 0
M  V30 26551 O 2663.68 1.86779 -0.389627 0
M  V30 26552 C 2660.82 3.25384 -1.14974 0
M  V30 26553 C 2659.93 3.60722 -2.37704 0
M  V30 26554 C 2659.07 4.87036 -2.1206 0
M  V30 26555 C 2658.11 5.15112 -3.30646 0
M  V30 26556 N 2657.25 6.32615 -3.04538 0
M  V30 26557 H 2662.09 1.91096 -2.28662 0
M  V30 26558 H 2659.62 0.934238 -1.13624 0
M  V30 26559 H 2661.58 4.04471 -1.02268 0
M  V30 26560 H 2660.21 3.21948 -0.23432 0
M  V30 26561 H 2659.26 2.76603 -2.61142 0
M  V30 26562 H 2660.57 3.77407 -3.26137 0
M  V30 26563 H 2659.73 5.74032 -1.96398 0
M  V30 26564 H 2658.47 4.7246 -1.20968 0
M  V30 26565 H 2657.47 4.26591 -3.46844 0
M  V30 26566 H 2658.7 5.31595 -4.22591 0
M  V30 26567 H 2656.64 6.19392 -2.16077 0
M  V30 26568 H 2656.56 6.49725 -3.86515 0
M  V30 26569 H 2657.83 7.22541 -2.92498 0
M  V30 26570 N 2662.06 1.22139 0.995977 0
M  V30 26571 C 2663.47 1.04138 1.54959 0
M  V30 26572 C 2663.82 -0.396114 1.9216 0
M  V30 26573 O 2662.95 -1.28066 1.74437 0
M  V30 26574 C 2663.54 1.88413 2.81577 0
M  V30 26575 C 2662.1 1.74718 3.33393 0
M  V30 26576 C 2661.25 1.8507 2.06506 0
M  V30 26577 H 2664.2 1.3603 0.817412 0
M  V30 26578 H 2664.22 1.39972 3.53819 0
M  V30 26579 H 2663.73 2.9303 2.5447 0
M  V30 26580 H 2661.83 0.728223 3.65414 0
M  V30 26581 H 2661.94 2.57209 4.04203 0
M  V30 26582 H 2660.31 1.28476 2.19923 0
M  V30 26583 H 2661.09 2.91211 1.81799 0
M  V30 26584 N 2663.54 -1.19233 1.03059 0
M  V30 26585 C 2664.78 -1.88586 0.726614 0
M  V30 26586 C 2665.11 -1.80117 -0.747196 0
M  V30 26587 O 2664.38 -1.21277 -1.53847 0
M  V30 26588 H 2662.96 -0.698119 0.26578 0
M  V30 26589 H 2665.62 -1.44744 1.30519 0
M  V30 26590 H 2664.71 -2.94877 1.02245 0
M  V30 26591 N 2665.01 -0.808686 -1.3527 0
M  V30 26592 C 2666.26 -0.389267 -1.98316 0
M  V30 26593 C 2666.58 1.04764 -1.64467 0
M  V30 26594 O 2665.85 1.72514 -0.928205 0
M  V30 26595 H 2664.43 -0.140947 -0.733582 0
M  V30 26596 H 2667.1 -1.03499 -1.65148 0
M  V30 26597 H 2666.19 -0.496685 -3.08122 0
M  V30 26598 N 2666.49 1.47225 -0.562374 0
M  V30 26599 C 2667.77 1.95583 0.0256641 0
M  V30 26600 C 2668.15 1.50501 1.4803 0
M  V30 26601 O 2667.5 0.746219 2.15972 0
M  V30 26602 C 2667.71 3.48775 -0.12519 0
M  V30 26603 C 2669.06 4.24596 0.0174982 0
M  V30 26604 O 2670.08 3.56161 -0.0529967 0
M  V30 26605 O 2668.94 5.46235 0.170049 0
M  V30 26606 H 2666.03 0.824729 0.061242 0
M  V30 26607 H 2668.58 1.57602 -0.629261 0
M  V30 26608 H 2667.35 3.7441 -1.13721 0
M  V30 26609 H 2666.97 3.93535 0.567109 0
M  V30 26610 N 2667.97 0.299089 1.54736 0
M  V30 26611 C 2669.2 -0.313411 2.04512 0
M  V30 26612 C 2669.61 -1.47665 1.17646 0
M  V30 26613 O 2668.97 -1.81382 0.201672 0
M  V30 26614 C 2669.02 -0.77148 3.53172 0
M  V30 26615 O 2668.74 0.345456 4.36736 0
M  V30 26616 C 2670.24 -1.44933 4.18938 0
M  V30 26617 H 2667.46 -0.0683666 0.667508 0
M  V30 26618 H 2670.01 0.438164 1.99751 0
M  V30 26619 H 2668.16 -1.47308 3.583 0
M  V30 26620 H 2668.58 -0.0108297 5.24499 0
M  V30 26621 H 2670.05 -1.72102 5.24485 0
M  V30 26622 H 2670.53 -2.38876 3.68558 0
M  V30 26623 H 2671.13 -0.790955 4.1788 0
M  V30 26624 N 2669.45 -1.57577 0.0267774 0
M  V30 26625 C 2670.36 -2.13535 -0.971595 0
M  V30 26626 C 2671.37 -1.08703 -1.35866 0
M  V30 26627 O 2672.55 -1.40748 -1.44055 0
M  V30 26628 C 2669.62 -2.64945 -2.23618 0
M  V30 26629 C 2668.68 -3.84483 -1.90975 0
M  V30 26630 C 2667.91 -4.33432 -3.11404 0
M  V30 26631 O 2668.13 -3.81566 -4.23985 0
M  V30 26632 O 2667.07 -5.25302 -2.93838 0
M  V30 26633 H 2670.89 -2.99114 -0.525801 0
M  V30 26634 H 2668.48 -1.48139 -0.193686 0
M  V30 26635 H 2670.36 -2.98091 -2.97859 0
M  V30 26636 H 2669.03 -1.82451 -2.67382 0
M  V30 26637 H 2667.94 -3.56267 -1.14125 0
M  V30 26638 H 2669.27 -4.68133 -1.52028 0
M  V30 26639 N 2670.93 0.246342 -1.55663 0
M  V30 26640 C 2671.86 1.3087 -1.93379 0
M  V30 26641 C 2672.84 1.50177 -0.798799 0
M  V30 26642 O 2674.02 1.62776 -1.05913 0
M  V30 26643 C 2671.15 2.66334 -2.22897 0
M  V30 26644 C 2670.11 2.61721 -3.38653 0
M  V30 26645 C 2669.43 4.00986 -3.53715 0
M  V30 26646 C 2670.73 2.18658 -4.74327 0
M  V30 26647 H 2672.43 0.995502 -2.82365 0
M  V30 26648 H 2669.97 0.47744 -1.35855 0
M  V30 26649 H 2671.93 3.4079 -2.47872 0
M  V30 26650 H 2670.65 2.99291 -1.30738 0
M  V30 26651 H 2669.31 1.89723 -3.13689 0
M  V30 26652 H 2668.96 4.31209 -2.58975 0
M  V30 26653 H 2668.66 3.98787 -4.31558 0
M  V30 26654 H 2670.18 4.7714 -3.81011 0
M  V30 26655 H 2671.59 2.82845 -4.9867 0
M  V30 26656 H 2669.99 2.27569 -5.55277 0
M  V30 26657 H 2671.06 1.13826 -4.71351 0
M  V30 26658 N 2672.4 1.4905 0.512027 0
M  V30 26659 C 2673.65 1.57229 1.2634 0
M  V30 26660 C 2673.97 0.259189 1.93875 0
M  V30 26661 O 2675.17 0.219405 2.70612 0
M  V30 26662 C 2673.63 2.77366 2.29338 0
M  V30 26663 C 2673.24 4.15391 1.67792 0
M  V30 26664 C 2674.98 2.94869 3.05373 0
M  V30 26665 C 2672.89 5.26765 2.68836 0
M  V30 26666 H 2671.82 0.58539 0.475221 0
M  V30 26667 H 2674.47 1.75418 0.53859 0
M  V30 26668 H 2672.85 2.52649 3.04934 0
M  V30 26669 H 2674.02 4.50201 0.982636 0
M  V30 26670 H 2672.34 4.03155 1.04187 0
M  V30 26671 H 2674.94 3.75245 3.80914 0
M  V30 26672 H 2675.28 2.05006 3.62323 0
M  V30 26673 H 2675.81 3.19573 2.36892 0
M  V30 26674 H 2672.55 6.18651 2.16681 0
M  V30 26675 H 2672.07 4.96422 3.36638 0
M  V30 26676 H 2673.75 5.55636 3.31478 0
M  V30 26677 N 2673.88 -0.762259 1.3794 0
M  V30 26678 C 2675.13 -1.51812 1.33407 0
M  V30 26679 C 2675.45 -1.94844 -0.0780633 0
M  V30 26680 O 2674.72 -1.67005 -1.02402 0
M  V30 26681 H 2673.3 -0.563095 0.490849 0
M  V30 26682 H 2675.96 -0.906638 1.72528 0
M  V30 26683 H 2675.06 -2.41309 1.9793 0
M  V30 26684 N 2675.36 -1.22666 -0.989486 0
M  V30 26685 C 2676.64 -0.961718 -1.70324 0
M  V30 26686 C 2677.02 0.522243 -2.04538 0
M  V30 26687 O 2676.37 1.49115 -1.73139 0
M  V30 26688 C 2676.58 -1.86274 -2.95132 0
M  V30 26689 C 2677.92 -2.12085 -3.67839 0
M  V30 26690 O 2678.95 -1.8375 -3.05147 0
M  V30 26691 O 2677.81 -2.60092 -4.8064 0
M  V30 26692 H 2674.9 -0.361959 -0.743582 0
M  V30 26693 H 2677.45 -1.33667 -1.04552 0
M  V30 26694 H 2676.22 -2.86634 -2.66377 0
M  V30 26695 H 2675.84 -1.48959 -3.68642 0
M  V30 26696 N 2676.84 1.18685 -1.0369 0
M  V30 26697 C 2678.09 1.8885 -0.739156 0
M  V30 26698 C 2678.42 1.79916 0.73101 0
M  V30 26699 O 2677.69 1.19691 1.53311 0
M  V30 26700 C 2677.98 3.39478 -1.20112 0
M  V30 26701 C 2677.83 3.57241 -2.73311 0
M  V30 26702 C 2679.15 4.32984 -0.78821 0
M  V30 26703 H 2676.27 0.685765 -0.269991 0
M  V30 26704 H 2678.91 1.39658 -1.28824 0
M  V30 26705 H 2677.06 3.81504 -0.733982 0
M  V30 26706 H 2678.73 3.24333 -3.28033 0
M  V30 26707 H 2676.97 3.00024 -3.13318 0
M  V30 26708 H 2677.65 4.62913 -3.00692 0
M  V30 26709 H 2680.12 3.98717 -1.19012 0
M  V30 26710 H 2679 5.36947 -1.13924 0
M  V30 26711 H 2679.26 4.41019 0.308911 0
M  V30 26712 N 2678.32 0.815849 1.34839 0
M  V30 26713 C 2679.56 0.406332 2.0032 0
M  V30 26714 C 2679.92 -1.00989 1.63295 0
M  V30 26715 O 2681.12 -1.52191 2.21565 0
M  V30 26716 C 2679.39 0.594531 3.5242 0
M  V30 26717 S 2680.95 0.276812 4.37926 0
M  V30 26718 H 2677.77 0.153861 0.694153 0
M  V30 26719 H 2680.37 1.06012 1.64261 0
M  V30 26720 H 2679.08 1.62507 3.76855 0
M  V30 26721 H 2678.61 -0.0742465 3.9333 0
M  V30 26722 H 2680.62 -0.912129 4.87744 0
M  V30 26723 N 2679.8 -1.46924 0.570174 0
M  V30 26724 C 2681.04 -2.02036 0.0508878 0
M  V30 26725 C 2681.36 -1.4455 -1.30883 0
M  V30 26726 O 2680.63 -0.625486 -1.85646 0
M  V30 26727 H 2679.21 -0.746832 0.0158219 0
M  V30 26728 H 2681.88 -1.80177 0.743118 0
M  V30 26729 H 2680.97 -3.12088 -0.0275201 0
M  V30 26730 N 2681.27 -0.307291 -1.54575 0
M  V30 26731 C 2682.68 0.184088 -1.8579 0
M  V30 26732 C 2683.04 1.52925 -1.22916 0
M  V30 26733 O 2682.16 2.0983 -0.529163 0
M  V30 26734 C 2682.76 0.340803 -3.37082 0
M  V30 26735 C 2681.31 0.776401 -3.68306 0
M  V30 26736 C 2680.46 -0.111551 -2.77076 0
M  V30 26737 H 2683.41 -0.528105 -1.49655 0
M  V30 26738 H 2683.43 1.17437 -3.61924 0
M  V30 26739 H 2682.95 -0.638376 -3.82814 0
M  V30 26740 H 2681.05 1.76591 -3.28095 0
M  V30 26741 H 2681.16 0.591429 -4.75436 0
M  V30 26742 H 2679.52 0.410212 -2.51375 0
M  V30 26743 H 2680.31 -1.0872 -3.2563 0
M  V30 26744 N 2682.75 1.57561 -0.0351337 0
M  V30 26745 C 2684 1.91668 0.640926 0
M  V30 26746 C 2684.32 0.912712 1.72321 0
M  V30 26747 O 2683.59 -0.0448745 1.95849 0
M  V30 26748 H 2682.17 0.707487 0.23973 0
M  V30 26749 H 2684.83 1.94717 -0.0843552 0
M  V30 26750 H 2683.93 2.92454 1.08982 0
M  V30 26751 N 2684.23 -0.238084 1.55791 0
M  V30 26752 C 2685.48 -0.962003 1.79212 0
M  V30 26753 C 2685.83 -1.82624 0.605495 0
M  V30 26754 O 2685.12 -1.87357 -0.401007 0
M  V30 26755 C 2685.32 -1.8487 3.05873 0
M  V30 26756 C 2685.15 -1.07178 4.36741 0
M  V30 26757 C 2683.92 -0.773336 4.99347 0
M  V30 26758 C 2686.11 -0.445078 5.12371 0
M  V30 26759 N 2684.1 0.0267116 6.13894 0
M  V30 26760 C 2685.47 0.219131 6.19613 0
M  V30 26761 C 2687.52 -0.356435 4.96623 0
M  V30 26762 C 2686.23 0.963483 7.12818 0
M  V30 26763 C 2688.25 0.374408 5.90214 0
M  V30 26764 C 2687.61 1.02722 6.9687 0
M  V30 26765 H 2683.71 -0.332836 0.707633 0
M  V30 26766 H 2686.3 -0.234334 1.93285 0
M  V30 26767 H 2684.47 -2.54832 2.93113 0
M  V30 26768 H 2686.2 -2.50884 3.17552 0
M  V30 26769 H 2682.95 -1.0873 4.6095 0
M  V30 26770 H 2683.38 0.415087 6.75726 0
M  V30 26771 H 2688.02 -0.846805 4.14233 0
M  V30 26772 H 2685.74 1.46543 7.94702 0
M  V30 26773 H 2689.32 0.44378 5.80105 0
M  V30 26774 H 2688.2 1.58371 7.68042 0
M  V30 26775 N 2685.71 -1.4932 -0.504115 0
M  V30 26776 C 2686.67 -1.65247 -1.58827 0
M  V30 26777 C 2687.67 -0.524412 -1.52008 0
M  V30 26778 O 2688.86 -0.790797 -1.55216 0
M  V30 26779 C 2685.99 -1.64692 -2.98478 0
M  V30 26780 H 2687.19 -2.61942 -1.46036 0
M  V30 26781 H 2684.74 -1.38304 -0.72812 0
M  V30 26782 H 2685.47 -0.695699 -3.1675 0
M  V30 26783 H 2685.26 -2.46612 -3.04836 0
M  V30 26784 H 2686.75 -1.79082 -3.77252 0
M  V30 26785 N 2687.19 0.754933 -1.38342 0
M  V30 26786 C 2688.15 1.8503 -1.35265 0
M  V30 26787 C 2689.15 1.5879 -0.253421 0
M  V30 26788 O 2690.34 1.6656 -0.510235 0
M  V30 26789 C 2687.47 3.22477 -1.1055 0
M  V30 26790 H 2688.66 1.89166 -2.32715 0
M  V30 26791 H 2686.22 0.956493 -1.23616 0
M  V30 26792 H 2686.95 3.2401 -0.137009 0
M  V30 26793 H 2686.74 3.42917 -1.90133 0
M  V30 26794 H 2688.23 4.02553 -1.11089 0
M  V30 26795 N 2688.66 1.23189 0.982967 0
M  V30 26796 C 2689.61 1.0082 2.09614 0
M  V30 26797 C 2690.61 -0.0519698 1.6932 0
M  V30 26798 O 2691.81 0.101316 1.79715 0
M  V30 26799 H 2688.19 0.308911 0.685622 0
M  V30 26800 H 2690.16 1.95257 2.25649 0
M  V30 26801 C 2688.91 0.613304 3.42248 0
M  V30 26802 H 2688.23 1.42079 3.73702 0
M  V30 26803 H 2689.67 0.496282 4.21086 0
M  V30 26804 C 2688.13 -0.678175 3.30004 0
M  V30 26805 O 2688.66 -1.728 3.62633 0
M  V30 26806 N 2686.86 -0.653115 2.83166 0
M  V30 26807 H 2686.41 0.201537 2.5681 0
M  V30 26808 H 2686.37 -1.51747 2.75355 0
M  V30 26809 N 2690.14 -1.18133 1.04318 0
M  V30 26810 C 2691.39 -1.87508 0.743223 0
M  V30 26811 C 2691.7 -1.81382 -0.732104 0
M  V30 26812 O 2692.91 -2.46143 -1.14567 0
M  V30 26813 C 2691.37 -3.364 1.27919 0
M  V30 26814 C 2690.97 -3.51048 2.78333 0
M  V30 26815 C 2692.72 -4.11159 1.05588 0
M  V30 26816 C 2690.62 -4.93914 3.25274 0
M  V30 26817 H 2689.55 -0.702326 0.274325 0
M  V30 26818 H 2692.21 -1.33465 1.25934 0
M  V30 26819 H 2690.59 -3.89926 0.690922 0
M  V30 26820 H 2691.76 -3.07782 3.42939 0
M  V30 26821 H 2690.08 -2.89698 2.99105 0
M  V30 26822 H 2692.67 -5.1654 1.3817 0
M  V30 26823 H 2693.02 -4.16299 -0.00677412 0
M  V30 26824 H 2693.55 -3.63813 1.60889 0
M  V30 26825 H 2690.29 -4.93943 4.3093 0
M  V30 26826 H 2689.81 -5.37885 2.65405 0
M  V30 26827 H 2691.49 -5.62641 3.19443 0
M  V30 26828 N 2691.62 -0.822988 -1.34405 0
M  V30 26829 C 2692.85 -0.42307 -2.03039 0
M  V30 26830 C 2693.27 0.963168 -1.61569 0
M  V30 26831 O 2692.63 1.62677 -0.800367 0
M  V30 26832 C 2692.68 -0.533272 -3.56635 0
M  V30 26833 O 2691.78 0.446867 -4.09972 0
M  V30 26834 H 2691.12 -0.174183 -0.640747 0
M  V30 26835 H 2693.65 -1.11342 -1.71651 0
M  V30 26836 H 2693.66 -0.409062 -4.05944 0
M  V30 26837 H 2692.34 -1.54432 -3.86165 0
M  V30 26838 H 2690.91 0.281536 -3.71836 0
M  V30 26839 N 2693.1 1.4662 -0.577957 0
M  V30 26840 C 2694.34 2.04299 -0.0643456 0
M  V30 26841 C 2694.7 1.44028 1.26964 0
M  V30 26842 O 2695.9 1.92878 1.8722 0
M  V30 26843 C 2694.17 3.574 0.00541306 0
M  V30 26844 S 2695.73 4.3636 0.462139 0
M  V30 26845 H 2692.55 0.71013 -0.0351698 0
M  V30 26846 H 2695.15 1.79724 -0.769382 0
M  V30 26847 H 2693.86 3.98784 -0.969493 0
M  V30 26848 H 2693.39 3.86504 0.733367 0
M  V30 26849 H 2695.4 4.65516 1.71783 0
M  V30 26850 N 2694.58 0.315484 1.5441 0
M  V30 26851 C 2695.99 -0.0374359 1.59556 0
M  V30 26852 C 2696.19 -1.51178 1.3322 0
M  V30 26853 O 2695.25 -2.26662 1.11268 0
M  V30 26854 C 2696.56 0.37353 2.98371 0
M  V30 26855 C 2698.11 0.323507 3.11324 0
M  V30 26856 C 2698.58 0.709512 4.52471 0
M  V30 26857 N 2700.08 0.662605 4.58436 0
M  V30 26858 C 2700.81 0.933574 5.65749 0
M  V30 26859 N 2700.31 1.27126 6.81037 0
M  V30 26860 N 2702.1 0.859671 5.55487 0
M  V30 26861 H 2694.25 1.27617 1.69787 0
M  V30 26862 H 2696.51 0.51837 0.793723 0
M  V30 26863 H 2696.22 1.40043 3.22616 0
M  V30 26864 H 2696.09 -0.265549 3.76264 0
M  V30 26865 H 2698.48 -0.694172 2.86819 0
M  V30 26866 H 2698.56 0.997408 2.35553 0
M  V30 26867 H 2698.21 1.72507 4.77707 0
M  V30 26868 H 2698.14 0.0133849 5.26598 0
M  V30 26869 H 2700.63 0.413131 3.75635 0
M  V30 26870 H 2700.94 1.46361 7.58814 0
M  V30 26871 H 2699.28 1.30944 6.82553 0
M  V30 26872 H 2702.48 0.595406 4.64298 0
M  V30 26873 H 2702.65 1.07421 6.39034 0
M  V30 26874 N 2696.05 -1.5754 0.0434891 0
M  V30 26875 C 2697.02 -2.09984 -0.918659 0
M  V30 26876 C 2698.02 -1.01783 -1.24486 0
M  V30 26877 O 2699.21 -1.27887 -1.18282 0
M  V30 26878 C 2696.34 -2.57768 -2.23088 0
M  V30 26879 H 2697.53 -2.96286 -0.464177 0
M  V30 26880 H 2695.09 -1.54953 -0.204791 0
M  V30 26881 H 2695.82 -1.74837 -2.73134 0
M  V30 26882 H 2695.61 -3.3683 -2.00718 0
M  V30 26883 H 2697.1 -2.98517 -2.92023 0
M  V30 26884 N 2697.53 0.229818 -1.55915 0
M  V30 26885 C 2698.76 0.97253 -1.82618 0
M  V30 26886 C 2699.18 1.78277 -0.62152 0
M  V30 26887 O 2698.53 1.77837 0.409925 0
M  V30 26888 C 2698.58 1.89674 -3.07744 0
M  V30 26889 O 2698.3 1.11926 -4.23561 0
M  V30 26890 C 2699.81 2.75403 -3.47373 0
M  V30 26891 H 2697.03 0.285408 -0.607275 0
M  V30 26892 H 2699.57 0.247543 -2.02996 0
M  V30 26893 H 2697.72 2.57578 -2.89365 0
M  V30 26894 H 2698.14 1.7459 -4.94589 0
M  V30 26895 H 2699.61 3.35969 -4.37982 0
M  V30 26896 H 2700.09 3.47381 -2.68743 0
M  V30 26897 H 2700.7 2.12925 -3.68162 0
M  V30 26898 N 2699.01 1.49585 0.49619 0
M  V30 26899 C 2699.94 1.61218 1.61505 0
M  V30 26900 C 2700.92 0.461073 1.55926 0
M  V30 26901 O 2702.11 0.677262 1.75913 0
M  V30 26902 C 2699.23 1.57157 3.00032 0
M  V30 26903 C 2698.28 2.77524 3.23856 0
M  V30 26904 S 2699.11 4.39139 3.06458 0
M  V30 26905 C 2700.27 4.37732 4.47372 0
M  V30 26906 H 2700.5 2.55866 1.51394 0
M  V30 26907 H 2698.03 1.38536 0.681703 0
M  V30 26908 H 2699.99 1.555 3.79908 0
M  V30 26909 H 2698.65 0.637888 3.07555 0
M  V30 26910 H 2697.85 2.70916 4.24995 0
M  V30 26911 H 2697.45 2.76618 2.51711 0
M  V30 26912 H 2699.74 4.09748 5.39549 0
M  V30 26913 H 2700.68 5.39164 4.59029 0
M  V30 26914 H 2701.09 3.67749 4.28277 0
M  V30 26915 N 2700.49 -0.747586 1.3874 0
M  V30 26916 C 2701.72 -1.53461 1.38323 0
M  V30 26917 C 2702.13 -1.8918 -0.0273131 0
M  V30 26918 O 2701.47 -1.53715 -1.00585 0
M  V30 26919 C 2701.53 -2.85852 2.18012 0
M  V30 26920 C 2701.2 -2.72637 3.66767 0
M  V30 26921 C 2702.19 -2.42029 4.60128 0
M  V30 26922 C 2699.88 -2.89902 4.10198 0
M  V30 26923 C 2701.87 -2.28848 5.94901 0
M  V30 26924 C 2699.56 -2.76341 5.4505 0
M  V30 26925 C 2700.56 -2.45858 6.37215 0
M  V30 26926 O 2700.24 -2.32366 7.69585 0
M  V30 26927 H 2699.98 -0.48126 0.474726 0
M  V30 26928 H 2702.53 -0.932486 1.83013 0
M  V30 26929 H 2700.76 -3.48276 1.68049 0
M  V30 26930 H 2702.45 -3.47398 2.09927 0
M  V30 26931 H 2703.22 -2.28353 4.27878 0
M  V30 26932 H 2699.09 -3.12624 3.38803 0
M  V30 26933 H 2702.64 -2.04977 6.66806 0
M  V30 26934 H 2698.54 -2.89591 5.76894 0
M  V30 26935 H 2699.3 -2.47533 7.80173 0
M  V30 26936 N 2701.97 -1.23709 -0.97642 0
M  V30 26937 C 2703.38 -1.0659 -1.53282 0
M  V30 26938 C 2703.73 0.365492 -1.92766 0
M  V30 26939 O 2702.85 1.25274 -1.76452 0
M  V30 26940 C 2703.45 -1.92869 -2.78544 0
M  V30 26941 C 2702.01 -1.8 -3.30571 0
M  V30 26942 C 2701.15 -1.88331 -2.03535 0
M  V30 26943 H 2704.11 -1.37313 -0.795668 0
M  V30 26944 H 2704.13 -1.45583 -3.51548 0
M  V30 26945 H 2703.64 -2.97041 -2.49776 0
M  V30 26946 H 2701.74 -0.786266 -3.6421 0
M  V30 26947 H 2701.85 -2.63607 -4.0006 0
M  V30 26948 H 2700.22 -1.31958 -2.17851 0
M  V30 26949 H 2701 -2.94067 -1.77143 0
M  V30 26950 N 2703.44 1.17579 -1.04943 0
M  V30 26951 C 2704.72 1.83696 -0.67195 0
M  V30 26952 C 2705.1 1.93323 0.847895 0
M  V30 26953 O 2704.45 1.46586 1.75285 0
M  V30 26954 C 2704.66 3.21494 -1.35803 0
M  V30 26955 C 2706.01 3.9743 -1.49447 0
M  V30 26956 O 2707.03 3.30965 -1.31684 0
M  V30 26957 O 2705.89 5.16536 -1.78472 0
M  V30 26958 H 2702.98 0.792544 -0.236226 0
M  V30 26959 H 2705.53 1.24897 -1.14887 0
M  V30 26960 H 2704.3 3.09441 -2.39503 0
M  V30 26961 H 2703.93 3.87958 -0.870304 0
M  V30 26962 N 2704.92 0.830104 1.33967 0
M  V30 26963 C 2706.17 0.422226 1.98356 0
M  V30 26964 C 2706.5 -1.01385 1.65635 0
M  V30 26965 O 2705.78 -1.70734 0.931678 0
M  V30 26966 C 2706.06 0.633105 3.54491 0
M  V30 26967 C 2705.91 2.11581 3.9693 0
M  V30 26968 C 2707.23 0.0736357 4.40038 0
M  V30 26969 H 2704.35 0.154883 0.720542 0
M  V30 26970 H 2706.99 1.044 1.58747 0
M  V30 26971 H 2705.14 0.103843 3.88361 0
M  V30 26972 H 2706.81 2.70927 3.73358 0
M  V30 26973 H 2705.06 2.6036 3.4698 0
M  V30 26974 H 2705.73 2.21415 5.05648 0
M  V30 26975 H 2708.2 0.525923 4.12763 0
M  V30 26976 H 2707.08 0.250938 5.48326 0
M  V30 26977 H 2707.34 -1.02195 4.30126 0
M  V30 26978 N 2706.4 -1.46311 0.585725 0
M  V30 26979 C 2707.81 -1.86013 0.159971 0
M  V30 26980 C 2708.16 -1.48891 -1.27772 0
M  V30 26981 O 2707.29 -0.905225 -1.96557 0
M  V30 26982 C 2707.88 -3.37611 0.283544 0
M  V30 26983 C 2706.44 -3.76299 -0.0873595 0
M  V30 26984 C 2705.59 -2.70323 0.618103 0
M  V30 26985 H 2708.54 -1.37423 0.793761 0
M  V30 26986 H 2708.56 -3.77328 -0.490282 0
M  V30 26987 H 2708.07 -3.64599 1.33002 0
M  V30 26988 H 2706.17 -3.54929 -1.13385 0
M  V30 26989 H 2706.29 -4.78215 0.291059 0
M  V30 26990 H 2704.65 -2.54634 0.0580378 0
M  V30 26991 H 2705.43 -3.0015 1.66628 0
M  V30 26992 N 2707.88 -0.323668 -1.54241 0
M  V30 26993 C 2709.13 0.279771 -1.9975 0
M  V30 26994 C 2709.44 1.53238 -1.21563 0
M  V30 26995 O 2710.65 2.21182 -1.57451 0
M  V30 26996 C 2709.1 0.549052 -3.55687 0
M  V30 26997 C 2708.71 -0.68651 -4.42709 0
M  V30 26998 C 2710.46 1.11244 -4.09665 0
M  V30 26999 C 2708.36 -0.389126 -5.90118 0
M  V30 27000 H 2707.29 0.108317 -0.746179 0
M  V30 27001 H 2709.94 -0.435908 -1.78247 0
M  V30 27002 H 2708.33 1.32492 -3.73178 0
M  V30 27003 H 2709.5 -1.46196 -4.36994 0
M  V30 27004 H 2707.81 -1.17012 -3.99621 0
M  V30 27005 H 2710.41 1.34956 -5.17389 0
M  V30 27006 H 2710.75 2.06184 -3.61654 0
M  V30 27007 H 2711.29 0.397751 -3.95806 0
M  V30 27008 H 2708.03 -1.30771 -6.42323 0
M  V30 27009 H 2707.55 0.348617 -5.98786 0
M  V30 27010 H 2709.23 0.00100267 -6.47 0
M  V30 27011 N 2709.36 1.57515 -0.0518432 0
M  V30 27012 C 2710.61 1.92337 0.620561 0
M  V30 27013 C 2710.93 0.930937 1.71343 0
M  V30 27014 O 2710.2 -0.0240996 1.95885 0
M  V30 27015 H 2708.78 0.70999 0.232213 0
M  V30 27016 H 2711.44 1.94617 -0.105003 0
M  V30 27017 H 2710.53 2.93594 1.05874 0
M  V30 27018 N 2710.84 -0.221546 1.56035 0
M  V30 27019 C 2711.77 -1.29802 1.88902 0
M  V30 27020 C 2712.78 -1.43045 0.777294 0
M  V30 27021 O 2713.97 -1.43943 1.05559 0
M  V30 27022 C 2711.07 -2.67363 2.08255 0
M  V30 27023 C 2710.24 -2.76068 3.39272 0
M  V30 27024 C 2709.3 -3.94643 3.48056 0
M  V30 27025 O 2708.33 -3.82981 4.21087 0
M  V30 27026 N 2709.53 -5.08948 2.792 0
M  V30 27027 H 2712.29 -1.01933 2.81833 0
M  V30 27028 H 2709.86 -0.411584 1.56581 0
M  V30 27029 H 2711.85 -3.45069 2.11447 0
M  V30 27030 H 2710.42 -2.87832 1.21949 0
M  V30 27031 H 2709.64 -1.84839 3.48178 0
M  V30 27032 H 2710.93 -2.78853 4.2558 0
M  V30 27033 H 2710.32 -5.21318 2.19645 0
M  V30 27034 H 2708.88 -5.84695 2.88053 0
M  V30 27035 N 2712.31 -1.49846 -0.48825 0
M  V30 27036 C 2713.24 -1.70373 -1.59672 0
M  V30 27037 C 2714.22 -0.552501 -1.60877 0
M  V30 27038 O 2715.41 -0.789761 -1.77416 0
M  V30 27039 C 2712.54 -1.78205 -2.98094 0
M  V30 27040 C 2711.49 -2.93244 -3.11756 0
M  V30 27041 C 2710.82 -2.86201 -4.51656 0
M  V30 27042 C 2712.12 -4.34004 -2.90581 0
M  V30 27043 H 2713.81 -2.6318 -1.42747 0
M  V30 27044 H 2711.36 -1.26648 -0.685295 0
M  V30 27045 H 2713.31 -1.91151 -3.75552 0
M  V30 27046 H 2712.04 -0.820073 -3.16137 0
M  V30 27047 H 2710.7 -2.79922 -2.36727 0
M  V30 27048 H 2710.34 -1.87885 -4.66592 0
M  V30 27049 H 2710.04 -3.6342 -4.61735 0
M  V30 27050 H 2711.57 -3.01172 -5.31157 0
M  V30 27051 H 2712.98 -4.47942 -3.578 0
M  V30 27052 H 2711.38 -5.12543 -3.12121 0
M  V30 27053 H 2712.45 -4.47564 -1.86587 0
M  V30 27054 N 2713.79 0.740218 -1.39135 0
M  V30 27055 C 2715.04 1.49671 -1.35805 0
M  V30 27056 C 2715.36 1.94943 0.0470554 0
M  V30 27057 O 2714.63 1.68613 0.997318 0
M  V30 27058 H 2713.21 0.555215 -0.499745 0
M  V30 27059 H 2715.87 0.879076 -1.73949 0
M  V30 27060 H 2714.97 2.3813 -2.01744 0
M  V30 27061 N 2715.27 1.24225 0.969846 0
M  V30 27062 C 2716.2 0.990586 2.06688 0
M  V30 27063 C 2717.21 -0.0391936 1.62753 0
M  V30 27064 O 2718.4 0.197592 1.77403 0
M  V30 27065 C 2715.5 0.472653 3.35588 0
M  V30 27066 C 2714.68 1.56507 4.08441 0
M  V30 27067 C 2713.74 1.05016 5.15614 0
M  V30 27068 O 2712.76 1.7414 5.41908 0
M  V30 27069 N 2713.96 -0.116539 5.80383 0
M  V30 27070 H 2716.73 1.93512 2.28852 0
M  V30 27071 H 2714.29 1.15225 1.13731 0
M  V30 27072 H 2716.28 0.11299 4.04542 0
M  V30 27073 H 2714.85 -0.377563 3.10311 0
M  V30 27074 H 2714.07 2.09702 3.33795 0
M  V30 27075 H 2715.36 2.2994 4.53878 0
M  V30 27076 H 2714.76 -0.69449 5.61421 0
M  V30 27077 H 2713.31 -0.417368 6.50462 0
M  V30 27078 N 2716.75 -1.1702 1.05565 0
M  V30 27079 C 2717.98 -1.91287 0.788484 0
M  V30 27080 C 2718.39 -1.77026 -0.656287 0
M  V30 27081 O 2717.75 -1.10994 -1.44867 0
M  V30 27082 C 2717.8 -3.4223 1.1645 0
M  V30 27083 O 2717.52 -3.56056 2.55257 0
M  V30 27084 C 2719.02 -4.33563 0.924013 0
M  V30 27085 H 2716.24 -0.606808 0.2864 0
M  V30 27086 H 2718.78 -1.48373 1.40733 0
M  V30 27087 H 2716.94 -3.82876 0.590333 0
M  V30 27088 H 2717.35 -4.49604 2.70105 0
M  V30 27089 H 2718.83 -5.37965 1.23682 0
M  V30 27090 H 2719.3 -4.38975 -0.140611 0
M  V30 27091 H 2719.91 -3.98636 1.48221 0
M  V30 27092 N 2718.23 -0.837197 -1.33524 0
M  V30 27093 C 2719.47 -0.432739 -1.98129 0
M  V30 27094 C 2719.8 1.00505 -1.6617 0
M  V30 27095 O 2719.08 1.70237 -0.940719 0
M  V30 27096 C 2719.36 -0.651896 -3.5415 0
M  V30 27097 C 2719.22 -2.13683 -3.95802 0
M  V30 27098 C 2720.53 -0.096971 -4.39993 0
M  V30 27099 H 2717.65 -0.158702 -0.71971 0
M  V30 27100 H 2720.3 -1.0524 -1.58191 0
M  V30 27101 H 2718.45 -0.124437 -3.88301 0
M  V30 27102 H 2720.12 -2.72903 -3.71916 0
M  V30 27103 H 2718.36 -2.62197 -3.45594 0
M  V30 27104 H 2719.03 -2.24093 -5.04466 0
M  V30 27105 H 2721.51 -0.547805 -4.12478 0
M  V30 27106 H 2720.38 -0.280013 -5.48185 0
M  V30 27107 H 2720.64 0.999124 -4.30662 0
M  V30 27108 N 2719.7 1.45999 -0.593476 0
M  V30 27109 C 2720.95 2.02629 -0.0833111 0
M  V30 27110 C 2721.28 1.46268 1.27747 0
M  V30 27111 O 2720.56 0.631898 1.83949 0
M  V30 27112 C 2720.84 3.60088 -0.0291389 0
M  V30 27113 C 2720.69 4.26811 -1.41958 0
M  V30 27114 C 2722.01 4.35032 0.665979 0
M  V30 27115 H 2719.13 0.736316 -0.031749 0
M  V30 27116 H 2721.77 1.74018 -0.762742 0
M  V30 27117 H 2719.92 3.84595 0.549464 0
M  V30 27118 H 2721.6 4.13535 -2.04418 0
M  V30 27119 H 2719.84 3.85757 -1.98429 0
M  V30 27120 H 2720.51 5.35637 -1.33405 0
M  V30 27121 H 2722.99 4.15735 0.174328 0
M  V30 27122 H 2721.86 5.44759 0.672945 0
M  V30 27123 H 2722.12 4.06872 1.72938 0
M  V30 27124 N 2721.18 0.331843 1.54067 0
M  V30 27125 C 2722.42 -0.268725 2.02626 0
M  V30 27126 C 2722.79 -1.48695 1.21465 0
M  V30 27127 O 2723.99 -2.16093 1.59867 0
M  V30 27128 C 2722.26 -0.586515 3.52555 0
M  V30 27129 S 2723.82 -1.16556 4.23037 0
M  V30 27130 H 2720.64 -0.0807738 0.706397 0
M  V30 27131 H 2723.24 0.466889 1.89843 0
M  V30 27132 H 2721.94 0.308118 4.09242 0
M  V30 27133 H 2721.47 -1.35211 3.69434 0
M  V30 27134 H 2723.49 -2.45195 4.31386 0
M  V30 27135 N 2722.66 -1.57485 0.0601958 0
M  V30 27136 C 2723.94 -1.84416 -0.651923 0
M  V30 27137 C 2724.32 -0.950394 -1.88496 0
M  V30 27138 O 2723.67 -0.0137121 -2.28496 0
M  V30 27139 C 2723.88 -3.34348 -1.00063 0
M  V30 27140 C 2725.22 -4.0158 -1.37908 0
M  V30 27141 O 2726.25 -3.39026 -1.09271 0
M  V30 27142 O 2725.11 -5.11891 -1.9139 0
M  V30 27143 H 2722.2 -0.761461 -0.322655 0
M  V30 27144 H 2724.75 -1.6946 0.0902457 0
M  V30 27145 H 2723.52 -3.91102 -0.124394 0
M  V30 27146 H 2723.14 -3.54524 -1.79995 0
M  V30 27147 N 2724.14 0.213268 -1.5615 0
M  V30 27148 C 2725.38 0.937817 -1.79813 0
M  V30 27149 C 2725.72 1.83655 -0.631234 0
M  V30 27150 O 2724.99 1.90965 0.369131 0
M  V30 27151 C 2725.28 1.76966 -3.13616 0
M  V30 27152 C 2725.13 0.896872 -4.40768 0
M  V30 27153 C 2726.45 2.74584 -3.43936 0
M  V30 27154 H 2723.57 0.339507 -0.654144 0
M  V30 27155 H 2726.21 0.206197 -1.88878 0
M  V30 27156 H 2724.36 2.39342 -3.06019 0
M  V30 27157 H 2726.03 0.289225 -4.60392 0
M  V30 27158 H 2724.27 0.20268 -4.33326 0
M  V30 27159 H 2724.94 1.51348 -5.30846 0
M  V30 27160 H 2727.42 2.22343 -3.51714 0
M  V30 27161 H 2726.3 3.29883 -4.38712 0
M  V30 27162 H 2726.56 3.52734 -2.66516 0
M  V30 27163 N 2725.62 1.50103 0.480296 0
M  V30 27164 C 2726.84 1.64644 1.26123 0
M  V30 27165 C 2727.27 0.325855 1.85256 0
M  V30 27166 O 2726.62 -0.709164 1.66855 0
M  V30 27167 C 2726.67 2.73305 2.35238 0
M  V30 27168 O 2725.78 2.33917 3.39642 0
M  V30 27169 H 2725.12 0.55038 0.371453 0
M  V30 27170 H 2727.65 1.96422 0.572661 0
M  V30 27171 H 2727.66 2.96103 2.8069 0
M  V30 27172 H 2726.33 3.69154 1.91568 0
M  V30 27173 H 2724.91 2.2153 2.99965 0
M  V30 27174 N 2727.09 -0.732829 1.39526 0
M  V30 27175 C 2728.34 -1.49464 1.3707 0
M  V30 27176 C 2728.67 -1.94172 -0.0326825 0
M  V30 27177 O 2727.95 -1.66941 -0.998042 0
M  V30 27178 C 2728.23 -2.73281 2.34499 0
M  V30 27179 C 2728.08 -2.34578 3.83788 0
M  V30 27180 C 2729.4 -3.75387 2.29723 0
M  V30 27181 H 2726.52 -0.542174 0.499215 0
M  V30 27182 H 2729.16 -0.837753 1.70534 0
M  V30 27183 H 2727.31 -3.2933 2.06093 0
M  V30 27184 H 2728.99 -1.84143 4.22953 0
M  V30 27185 H 2727.23 -1.6678 4.00458 0
M  V30 27186 H 2727.9 -3.23254 4.47449 0
M  V30 27187 H 2730.38 -3.28927 2.54845 0
M  V30 27188 H 2729.25 -4.59684 2.9997 0
M  V30 27189 H 2729.51 -4.22463 1.30299 0
M  V30 27190 N 2728.57 -1.24737 -0.963244 0
M  V30 27191 C 2729.82 -1.08758 -1.70341 0
M  V30 27192 C 2730.14 0.373585 -1.91388 0
M  V30 27193 O 2729.41 1.26617 -1.49482 0
M  V30 27194 H 2727.99 -0.399467 -0.631217 0
M  V30 27195 H 2730.65 -1.56727 -1.15857 0
M  V30 27196 H 2729.75 -1.58914 -2.68613 0
M  V30 27197 N 2730.05 1.16459 -1.06184 0
M  V30 27198 C 2730.98 2.22982 -0.6929 0
M  V30 27199 C 2731.96 1.67175 0.314092 0
M  V30 27200 O 2733.15 1.93274 0.189465 0
M  V30 27201 C 2730.28 3.47214 -0.077381 0
M  V30 27202 C 2729.23 4.15907 -1.01023 0
M  V30 27203 C 2728.56 5.34077 -0.258067 0
M  V30 27204 C 2729.86 4.67011 -2.33876 0
M  V30 27205 H 2731.55 2.54099 -1.58347 0
M  V30 27206 H 2729.1 1.22136 -0.762812 0
M  V30 27207 H 2731.05 4.2096 0.192586 0
M  V30 27208 H 2729.77 3.15394 0.848199 0
M  V30 27209 H 2728.43 3.44086 -1.26492 0
M  V30 27210 H 2728.08 4.9851 0.670596 0
M  V30 27211 H 2727.78 5.80977 -0.87974 0
M  V30 27212 H 2729.3 6.106 0.00438055 0
M  V30 27213 H 2730.72 5.32343 -2.12799 0
M  V30 27214 H 2729.12 5.24528 -2.91531 0
M  V30 27215 H 2730.19 3.8328 -2.97025 0
M  V30 27216 N 2731.53 0.844266 1.33079 0
M  V30 27217 C 2732.78 0.438868 1.96868 0
M  V30 27218 C 2733.09 -1.00844 1.67601 0
M  V30 27219 O 2734.3 -1.51877 2.25046 0
M  V30 27220 C 2732.75 0.733832 3.52339 0
M  V30 27221 C 2732.36 2.19617 3.90477 0
M  V30 27222 C 2734.1 0.395649 4.22652 0
M  V30 27223 C 2732.01 2.4349 5.38949 0
M  V30 27224 H 2730.94 0.160377 0.736746 0
M  V30 27225 H 2733.59 1.0336 1.51621 0
M  V30 27226 H 2731.97 0.0686586 3.9594 0
M  V30 27227 H 2733.15 2.90227 3.57917 0
M  V30 27228 H 2731.46 2.49786 3.33161 0
M  V30 27229 H 2734.06 0.55157 5.31848 0
M  V30 27230 H 2734.4 -0.661849 4.11005 0
M  V30 27231 H 2734.94 1.01628 3.84599 0
M  V30 27232 H 2731.68 3.47825 5.55606 0
M  V30 27233 H 2731.2 1.77447 5.72951 0
M  V30 27234 H 2732.87 2.26915 6.05903 0
M  V30 27235 N 2733.01 -1.45682 0.60121 0
M  V30 27236 C 2734.25 -2.0417 0.0968396 0
M  V30 27237 C 2734.61 -1.4603 -1.24657 0
M  V30 27238 O 2735.81 -1.95832 -1.84128 0
M  V30 27239 C 2734.08 -3.57363 0.0514468 0
M  V30 27240 S 2735.64 -4.3704 -0.39266 0
M  V30 27241 H 2732.46 -0.70948 0.0464629 0
M  V30 27242 H 2735.06 -1.78477 0.797877 0
M  V30 27243 H 2733.77 -3.97192 1.03281 0
M  V30 27244 H 2733.3 -3.87622 -0.671785 0
M  V30 27245 H 2735.31 -4.6819 -1.64355 0
M  V30 27246 N 2734.48 -0.340009 -1.53889 0
M  V30 27247 C 2735.43 0.518413 -2.24902 0
M  V30 27248 C 2736.4 1.09842 -1.24595 0
M  V30 27249 O 2737.59 1.13569 -1.53319 0
M  V30 27250 C 2734.73 1.66523 -3.02265 0
M  V30 27251 C 2733.84 1.11288 -4.17419 0
M  V30 27252 C 2732.97 2.22672 -4.82277 0
M  V30 27253 C 2732.01 1.64769 -5.89506 0
M  V30 27254 N 2731.15 2.69881 -6.48158 0
M  V30 27255 H 2735.99 -0.0937102 -2.97853 0
M  V30 27256 H 2733.53 -0.0580182 -1.46986 0
M  V30 27257 H 2735.49 2.34034 -3.45375 0
M  V30 27258 H 2734.12 2.2484 -2.31618 0
M  V30 27259 H 2733.17 0.328819 -3.78976 0
M  V30 27260 H 2734.48 0.649328 -4.94556 0
M  V30 27261 H 2733.63 2.98054 -5.2844 0
M  V30 27262 H 2732.37 2.72369 -4.04557 0
M  V30 27263 H 2731.38 0.878908 -5.42729 0
M  V30 27264 H 2732.6 1.15928 -6.69132 0
M  V30 27265 H 2730.55 3.1884 -5.73304 0
M  V30 27266 H 2730.47 2.28138 -7.20756 0
M  V30 27267 H 2731.73 3.45043 -6.98975 0
M  V30 27268 N 2735.96 1.57451 -0.0685468 0
M  V30 27269 C 2736.91 2.13738 0.91754 0
M  V30 27270 C 2737.91 1.07346 1.31047 0
M  V30 27271 O 2739.11 1.25731 1.28809 0
M  V30 27272 H 2735.49 0.683388 0.313823 0
M  V30 27273 H 2737.46 2.9546 0.417851 0
M  V30 27274 C 2736.21 2.71127 2.17682 0
M  V30 27275 H 2735.53 3.52664 1.8833 0
M  V30 27276 H 2736.97 3.14112 2.84798 0
M  V30 27277 C 2735.43 1.65731 2.93317 0
M  V30 27278 O 2735.96 1.08038 3.86899 0
M  V30 27279 N 2734.16 1.36842 2.56364 0
M  V30 27280 H 2733.71 1.83946 1.80337 0
M  V30 27281 H 2733.67 0.665555 3.07275 0
M  V30 27282 N 2737.44 -0.204984 1.56261 0
M  V30 27283 C 2738.35 -1.27473 1.96946 0
M  V30 27284 C 2739.37 -1.5036 0.875662 0
M  V30 27285 O 2740.54 -1.63167 1.18061 0
M  V30 27286 C 2737.61 -2.60111 2.29223 0
M  V30 27287 C 2736.67 -2.45381 3.52259 0
M  V30 27288 C 2735.9 -3.71694 3.82987 0
M  V30 27289 O 2736.13 -4.75436 3.15146 0
M  V30 27290 O 2735.06 -3.67815 4.76441 0
M  V30 27291 H 2738.89 -0.959477 2.88145 0
M  V30 27292 H 2736.47 -0.409192 1.43687 0
M  V30 27293 H 2738.35 -3.38415 2.51104 0
M  V30 27294 H 2737.03 -2.91283 1.41195 0
M  V30 27295 H 2735.93 -1.65221 3.35638 0
M  V30 27296 H 2737.27 -2.19144 4.40723 0
M  V30 27297 N 2738.92 -1.50356 -0.472329 0
M  V30 27298 C 2740.2 -1.518 -1.23353 0
M  V30 27299 C 2740.58 -0.261967 -2.09468 0
M  V30 27300 O 2739.92 0.754653 -2.15679 0
M  V30 27301 C 2740.13 -2.81305 -2.06563 0
M  V30 27302 C 2741.48 -3.31918 -2.64794 0
M  V30 27303 O 2742.51 -2.82618 -2.16807 0
M  V30 27304 O 2741.37 -4.17853 -3.52224 0
M  V30 27305 H 2738.46 -0.608826 -0.559697 0
M  V30 27306 H 2741.01 -1.62644 -0.484252 0
M  V30 27307 H 2739.78 -3.64197 -1.43096 0
M  V30 27308 H 2739.4 -2.73459 -2.88628 0
M  V30 27309 N 2740.4 0.725419 -1.39912 0
M  V30 27310 C 2741.33 1.85001 -1.35305 0
M  V30 27311 C 2742.34 1.60708 -0.260131 0
M  V30 27312 O 2743.53 1.70765 -0.519779 0
M  V30 27313 C 2740.63 3.21216 -1.08045 0
M  V30 27314 C 2739.8 3.72786 -2.288 0
M  V30 27315 C 2738.86 4.87588 -1.9785 0
M  V30 27316 O 2737.89 5.0075 -2.70625 0
M  V30 27317 N 2739.09 5.72666 -0.950468 0
M  V30 27318 H 2741.86 1.89455 -2.32222 0
M  V30 27319 H 2739.42 0.906556 -1.34139 0
M  V30 27320 H 2741.41 3.95599 -0.853424 0
M  V30 27321 H 2739.98 3.11971 -0.198284 0
M  V30 27322 H 2739.2 2.89645 -2.67394 0
M  V30 27323 H 2740.49 4.03976 -3.09324 0
M  V30 27324 H 2739.89 5.64631 -0.347535 0
M  V30 27325 H 2738.44 6.47076 -0.783346 0
M  V30 27326 N 2741.88 1.25246 0.956615 0
M  V30 27327 C 2742.82 1.05457 2.05298 0
M  V30 27328 C 2743.79 -0.0356597 1.66062 0
M  V30 27329 O 2744.98 0.121133 1.90415 0
M  V30 27330 C 2742.12 0.67725 3.38389 0
M  V30 27331 C 2741.23 1.84213 3.90755 0
M  V30 27332 C 2740.37 1.40935 5.12163 0
M  V30 27333 C 2739.4 2.54348 5.56753 0
M  V30 27334 N 2738.54 2.1186 6.69373 0
M  V30 27335 H 2743.38 1.99288 2.21559 0
M  V30 27336 H 2740.92 0.992453 1.08576 0
M  V30 27337 H 2742.88 0.439452 4.14879 0
M  V30 27338 H 2741.51 -0.22407 3.22021 0
M  V30 27339 H 2740.56 2.19329 3.10804 0
M  V30 27340 H 2741.87 2.69391 4.19798 0
M  V30 27341 H 2741.02 1.13108 5.96063 0
M  V30 27342 H 2739.76 0.52826 4.84831 0
M  V30 27343 H 2738.77 2.82922 4.71418 0
M  V30 27344 H 2739.99 3.43032 5.86094 0
M  V30 27345 H 2737.94 1.26164 6.43753 0
M  V30 27346 H 2737.86 2.90587 6.97922 0
M  V30 27347 H 2739.12 1.87204 7.56687 0
M  V30 27348 N 2743.35 -1.15894 1.068 0
M  V30 27349 C 2744.76 -1.68147 0.811384 0
M  V30 27350 C 2745.12 -1.84612 -0.664307 0
M  V30 27351 O 2744.24 -1.54538 -1.51483 0
M  V30 27352 C 2744.84 -3.05426 1.46629 0
M  V30 27353 C 2743.39 -3.54779 1.25732 0
M  V30 27354 C 2742.54 -2.30638 1.53953 0
M  V30 27355 H 2745.49 -1.00185 1.2308 0
M  V30 27356 H 2745.51 -3.70078 0.884435 0
M  V30 27357 H 2745.03 -2.93411 2.5403 0
M  V30 27358 H 2743.13 -3.72045 0.203286 0
M  V30 27359 H 2743.24 -4.3656 1.97362 0
M  V30 27360 H 2741.6 -2.35904 0.960291 0
M  V30 27361 H 2742.39 -2.21215 2.62524 0
M  V30 27362 N 2744.83 -0.851312 -1.32629 0
M  V30 27363 C 2746.08 -0.452163 -1.96977 0
M  V30 27364 C 2746.4 0.99479 -1.67717 0
M  V30 27365 O 2745.67 1.69474 -0.98262 0
M  V30 27366 H 2744.25 -0.164214 -0.728727 0
M  V30 27367 H 2746.91 -1.08701 -1.61772 0
M  V30 27368 H 2746.01 -0.594461 -3.06386 0
M  V30 27369 N 2746.31 1.45361 -0.608928 0
M  V30 27370 C 2747.56 2.0183 -0.104436 0
M  V30 27371 C 2747.88 1.47969 1.27004 0
M  V30 27372 O 2747.15 0.674487 1.83922 0
M  V30 27373 H 2745.73 0.74615 -0.0356173 0
M  V30 27374 H 2748.39 1.78143 -0.790627 0
M  V30 27375 H 2747.49 3.12051 -0.0552341 0
M  V30 27376 N 2747.79 0.348166 1.53706 0
M  V30 27377 C 2749.03 -0.247296 2.01287 0
M  V30 27378 C 2749.37 -1.49831 1.23548 0
M  V30 27379 O 2748.64 -1.91776 0.324364 0
M  V30 27380 C 2748.92 -0.556795 3.55769 0
M  V30 27381 C 2748.78 0.706642 4.44215 0
M  V30 27382 C 2750.1 -1.36453 4.18412 0
M  V30 27383 H 2747.22 -0.0884073 0.731678 0
M  V30 27384 H 2749.86 0.469616 1.84105 0
M  V30 27385 H 2748.01 -1.16755 3.70541 0
M  V30 27386 H 2749.68 1.34451 4.41271 0
M  V30 27387 H 2747.92 1.33059 4.12889 0
M  V30 27388 H 2748.59 0.445282 5.50201 0
M  V30 27389 H 2751.07 -0.848042 4.07366 0
M  V30 27390 H 2749.95 -1.54983 5.26566 0
M  V30 27391 H 2750.21 -2.36799 3.73335 0
M  V30 27392 N 2749.27 -1.57412 0.0768958 0
M  V30 27393 C 2750.51 -1.92858 -0.590645 0
M  V30 27394 C 2750.83 -0.959323 -1.70459 0
M  V30 27395 O 2752.03 -1.2068 -2.43205 0
M  V30 27396 C 2750.49 -3.42614 -1.10198 0
M  V30 27397 C 2750.1 -4.47996 -0.018766 0
M  V30 27398 C 2751.84 -3.87052 -1.74329 0
M  V30 27399 C 2749.75 -5.88889 -0.544433 0
M  V30 27400 H 2748.68 -0.719834 -0.224398 0
M  V30 27401 H 2751.33 -1.82886 0.149956 0
M  V30 27402 H 2749.71 -3.47677 -1.89571 0
M  V30 27403 H 2750.89 -4.54556 0.756016 0
M  V30 27404 H 2749.2 -4.13056 0.526628 0
M  V30 27405 H 2751.8 -4.89702 -2.14699 0
M  V30 27406 H 2752.14 -3.24699 -2.60531 0
M  V30 27407 H 2752.67 -3.84615 -1.0157 0
M  V30 27408 H 2749.41 -6.54899 0.280541 0
M  V30 27409 H 2748.93 -5.85838 -1.28662 0
M  V30 27410 H 2750.61 -6.38922 -1.01922 0
M  V30 27411 N 2750.74 0.196695 -1.56368 0
M  V30 27412 C 2752.16 0.761515 -1.70464 0
M  V30 27413 C 2752.51 1.83921 -0.683193 0
M  V30 27414 O 2751.63 2.15802 0.160715 0
M  V30 27415 C 2752.23 1.38809 -3.09059 0
M  V30 27416 C 2750.79 1.90001 -3.24926 0
M  V30 27417 C 2749.93 0.769352 -2.66414 0
M  V30 27418 H 2752.88 -0.0283542 -1.58675 0
M  V30 27419 H 2752.9 2.25745 -3.063 0
M  V30 27420 H 2752.42 0.603491 -3.83379 0
M  V30 27421 H 2750.52 2.71184 -2.55519 0
M  V30 27422 H 2750.63 2.0629 -4.32413 0
M  V30 27423 H 2748.99 1.18322 -2.25548 0
M  V30 27424 H 2749.78 -0.00297808 -3.433 0
M  V30 27425 N 2752.22 1.50604 0.464349 0
M  V30 27426 C 2753.16 1.64607 1.58049 0
M  V30 27427 C 2754.13 0.494043 1.54913 0
M  V30 27428 O 2755.32 0.714423 1.74437 0
M  V30 27429 C 2752.44 1.63486 2.96631 0
M  V30 27430 C 2751.49 2.84331 3.17896 0
M  V30 27431 S 2752.32 4.45541 2.97075 0
M  V30 27432 C 2753.48 4.47123 4.37986 0
M  V30 27433 H 2753.71 2.59019 1.45933 0
M  V30 27434 H 2751.25 1.39951 0.652164 0
M  V30 27435 H 2753.2 1.63524 3.76524 0
M  V30 27436 H 2751.86 0.702982 3.06132 0
M  V30 27437 H 2751.06 2.7987 4.19153 0
M  V30 27438 H 2750.66 2.81895 2.45787 0
M  V30 27439 H 2752.95 4.211 5.30736 0
M  V30 27440 H 2753.89 5.4878 4.47489 0
M  V30 27441 H 2754.3 3.76751 4.2038 0
M  V30 27442 N 2753.7 -0.717989 1.40295 0
M  V30 27443 C 2754.66 -1.81378 1.40123 0
M  V30 27444 C 2755.66 -1.58063 0.295433 0
M  V30 27445 O 2756.85 -1.65149 0.554216 0
M  V30 27446 C 2753.99 -3.19433 1.19061 0
M  V30 27447 H 2755.18 -1.82929 2.37649 0
M  V30 27448 H 2752.73 -0.923382 1.26108 0
M  V30 27449 H 2753.47 -3.23533 0.222866 0
M  V30 27450 H 2753.25 -3.37755 1.99158 0
M  V30 27451 H 2754.74 -3.99466 1.21723 0
M  V30 27452 N 2755.18 -1.25752 -0.94996 0
M  V30 27453 C 2756.43 -1.10777 -1.69513 0
M  V30 27454 C 2756.75 0.350446 -1.91317 0
M  V30 27455 O 2756.01 1.2744 -1.48518 0
M  V30 27456 C 2756.31 -1.81242 -3.08036 0
M  V30 27457 C 2755.97 -3.31156 -3.06017 0
M  V30 27458 C 2754.64 -3.72052 -3.05173 0
M  V30 27459 C 2756.99 -4.26913 -2.9899 0
M  V30 27460 C 2754.32 -5.07107 -2.95058 0
M  V30 27461 C 2756.67 -5.61997 -2.90416 0
M  V30 27462 C 2755.33 -6.02215 -2.87911 0
M  V30 27463 H 2754.6 -0.405362 -0.620292 0
M  V30 27464 H 2757.25 -1.56084 -1.10951 0
M  V30 27465 H 2755.55 -1.2838 -3.7017 0
M  V30 27466 H 2757.25 -1.67104 -3.64523 0
M  V30 27467 H 2753.84 -2.9862 -3.07448 0
M  V30 27468 H 2758.02 -3.96306 -2.98757 0
M  V30 27469 H 2753.28 -5.37442 -2.9149 0
M  V30 27470 H 2757.45 -6.35885 -2.83941 0
M  V30 27471 H 2755.08 -7.06824 -2.79829 0
M  V30 27472 N 2756.66 1.15326 -1.07413 0
M  V30 27473 C 2757.9 1.87793 -0.807044 0
M  V30 27474 C 2758.26 1.80484 0.654955 0
M  V30 27475 O 2759.46 2.47986 1.03712 0
M  V30 27476 C 2757.73 3.32839 -1.30204 0
M  V30 27477 S 2759.29 4.23032 -1.16572 0
M  V30 27478 H 2756.11 0.648074 -0.29244 0
M  V30 27479 H 2758.71 1.39136 -1.37337 0
M  V30 27480 H 2757.42 3.35703 -2.36076 0
M  V30 27481 H 2756.95 3.8655 -0.730949 0
M  V30 27482 H 2758.96 4.96092 -0.103644 0
M  V30 27483 N 2758.13 0.858334 1.32176 0
M  V30 27484 C 2759.06 0.321082 2.31282 0
M  V30 27485 C 2760.05 -0.581758 1.59842 0
M  V30 27486 O 2761.23 -0.501229 1.8762 0
M  V30 27487 C 2758.36 -0.48826 3.43851 0
M  V30 27488 C 2757.31 0.320466 4.26799 0
M  V30 27489 C 2756.64 -0.61384 5.31165 0
M  V30 27490 C 2757.94 1.54822 4.98826 0
M  V30 27491 H 2759.63 1.1492 2.76467 0
M  V30 27492 H 2757.18 0.554051 1.32915 0
M  V30 27493 H 2759.13 -0.874553 4.12225 0
M  V30 27494 H 2757.86 -1.34978 2.97403 0
M  V30 27495 H 2756.52 0.68856 3.60076 0
M  V30 27496 H 2756.16 -1.47231 4.8097 0
M  V30 27497 H 2755.86 -0.0767064 5.8755 0
M  V30 27498 H 2757.39 -0.99723 6.02402 0
M  V30 27499 H 2758.8 1.23401 5.59862 0
M  V30 27500 H 2757.2 2.02356 5.64953 0
M  V30 27501 H 2758.27 2.30746 4.26479 0
M  V30 27502 N 2759.61 -1.45036 0.616628 0
M  V30 27503 C 2760.56 -2.32343 -0.109278 0
M  V30 27504 C 2761.55 -1.46501 -0.850518 0
M  V30 27505 O 2762.76 -1.62932 -0.765059 0
M  V30 27506 H 2759.14 -0.750052 -0.0540959 0
M  V30 27507 H 2761.11 -2.91337 0.645377 0
M  V30 27508 C 2759.86 -3.30267 -1.08714 0
M  V30 27509 H 2759.18 -3.96322 -0.526198 0
M  V30 27510 H 2760.62 -3.94068 -1.56482 0
M  V30 27511 C 2759.08 -2.58109 -2.16521 0
M  V30 27512 O 2759.61 -2.36918 -3.24396 0
M  V30 27513 N 2757.81 -2.18091 -1.92053 0
M  V30 27514 H 2757.36 -2.35526 -1.04333 0
M  V30 27515 H 2757.32 -1.70136 -2.64388 0
M  V30 27516 N 2761.09 -0.356312 -1.53519 0
M  V30 27517 C 2762.32 0.236947 -2.05237 0
M  V30 27518 C 2762.73 1.43746 -1.23019 0
M  V30 27519 O 2762.07 1.81829 -0.261532 0
M  V30 27520 C 2762.13 0.703438 -3.52551 0
M  V30 27521 C 2761.8 -0.379139 -4.55425 0
M  V30 27522 C 2762.79 -1.22601 -5.05238 0
M  V30 27523 C 2760.48 -0.536726 -4.99424 0
M  V30 27524 C 2762.47 -2.21589 -5.97643 0
M  V30 27525 C 2760.16 -1.52999 -5.91637 0
M  V30 27526 C 2761.16 -2.36801 -6.40636 0
M  V30 27527 O 2760.85 -3.34434 -7.31033 0
M  V30 27528 H 2760.58 0.0472422 -0.674347 0
M  V30 27529 H 2763.13 -0.510273 -1.98961 0
M  V30 27530 H 2761.36 1.50211 -3.56333 0
M  V30 27531 H 2763.05 1.21867 -3.87174 0
M  V30 27532 H 2763.82 -1.11541 -4.72 0
M  V30 27533 H 2759.7 0.105753 -4.60879 0
M  V30 27534 H 2763.24 -2.87036 -6.35811 0
M  V30 27535 H 2759.14 -1.6411 -6.2429 0
M  V30 27536 H 2759.91 -3.30054 -7.49004 0
M  V30 27537 N 2762.57 1.57369 -0.0852427 0
M  V30 27538 C 2763.48 2.16994 0.891674 0
M  V30 27539 C 2764.49 1.13671 1.31738 0
M  V30 27540 O 2765.67 1.45998 1.38732 0
M  V30 27541 C 2762.74 2.73062 2.1363 0
M  V30 27542 C 2761.8 3.91306 1.76573 0
M  V30 27543 C 2761.03 4.44691 2.95103 0
M  V30 27544 O 2761.25 3.97039 4.09532 0
M  V30 27545 O 2760.19 5.35846 2.7414 0
M  V30 27546 H 2764.01 3.00859 0.414424 0
M  V30 27547 H 2761.6 1.48756 0.138572 0
M  V30 27548 H 2763.48 3.0894 2.8659 0
M  V30 27549 H 2762.15 1.92249 2.60427 0
M  V30 27550 H 2761.06 3.60257 1.00824 0
M  V30 27551 H 2762.39 4.73453 1.34548 0
M  V30 27552 N 2764.05 -0.188399 1.5647 0
M  V30 27553 C 2765.3 -0.905963 1.80209 0
M  V30 27554 C 2765.61 -1.84143 0.659611 0
M  V30 27555 O 2766.81 -2.6001 0.781476 0
M  V30 27556 C 2765.27 -1.6614 3.19258 0
M  V30 27557 C 2764.88 -0.770426 4.41326 0
M  V30 27558 C 2766.62 -2.3682 3.52302 0
M  V30 27559 C 2764.53 -1.52511 5.71397 0
M  V30 27560 H 2763.46 -0.342034 0.671959 0
M  V30 27561 H 2766.11 -0.159132 1.82809 0
M  V30 27562 H 2764.49 -2.45236 3.10926 0
M  V30 27563 H 2765.67 -0.0176451 4.60797 0
M  V30 27564 H 2763.98 -0.174126 4.16036 0
M  V30 27565 H 2766.58 -2.93846 4.4672 0
M  V30 27566 H 2766.92 -3.11333 2.76364 0
M  V30 27567 H 2767.45 -1.64684 3.62111 0
M  V30 27568 H 2764.19 -0.822636 6.50318 0
M  V30 27569 H 2763.71 -2.25165 5.55932 0
M  V30 27570 H 2765.39 -2.07714 6.12751 0
M  V30 27571 N 2765.53 -1.50848 -0.456355 0
M  V30 27572 C 2766.47 -1.71332 -1.57315 0
M  V30 27573 C 2767.47 -0.579315 -1.59186 0
M  V30 27574 O 2768.67 -0.760209 -1.63159 0
M  V30 27575 H 2765.05 -0.541033 -0.52229 0
M  V30 27576 H 2767.02 -2.64986 -1.37205 0
M  V30 27577 C 2765.77 -1.83816 -2.95139 0
M  V30 27578 H 2765.09 -2.70472 -2.94423 0
M  V30 27579 H 2766.53 -2.02168 -3.72698 0
M  V30 27580 C 2764.99 -0.593282 -3.31635 0
M  V30 27581 O 2765.52 0.260827 -4.00852 0
M  V30 27582 N 2763.73 -0.442953 -2.87204 0
M  V30 27583 H 2763.27 -1.13905 -2.31049 0
M  V30 27584 H 2763.23 0.388785 -3.11987 0
M  V30 27585 N 2767 0.710538 -1.40674 0
M  V30 27586 C 2768.25 1.47265 -1.39431 0
M  V30 27587 C 2768.58 1.942 0.00178716 0
M  V30 27588 O 2767.86 1.68508 0.971357 0
M  V30 27589 C 2768.14 2.69516 -2.38817 0
M  V30 27590 C 2767.99 2.28442 -3.87471 0
M  V30 27591 C 2769.31 3.71685 -2.35666 0
M  V30 27592 H 2766.43 0.534164 -0.507778 0
M  V30 27593 H 2769.07 0.810517 -1.71845 0
M  V30 27594 H 2767.22 3.26009 -2.11306 0
M  V30 27595 H 2768.9 1.77391 -4.25829 0
M  V30 27596 H 2767.14 1.60388 -4.03061 0
M  V30 27597 H 2767.81 3.16095 -4.52535 0
M  V30 27598 H 2770.29 3.24831 -2.60046 0
M  V30 27599 H 2769.16 4.54854 -3.07245 0
M  V30 27600 H 2769.42 4.20336 -1.37003 0
M  V30 27601 N 2768.48 1.26254 0.943277 0
M  V30 27602 C 2769.41 1.0342 2.04541 0
M  V30 27603 C 2770.43 -0.00466249 1.62799 0
M  V30 27604 O 2771.62 0.235177 1.76944 0
M  V30 27605 C 2768.72 0.54373 3.3451 0
M  V30 27606 C 2767.89 1.65135 4.0503 0
M  V30 27607 C 2766.95 1.15929 5.13271 0
M  V30 27608 O 2765.97 1.85595 5.38092 0
M  V30 27609 N 2767.18 0.00659483 5.805 0
M  V30 27610 H 2769.94 1.98323 2.24695 0
M  V30 27611 H 2767.5 1.17612 1.11262 0
M  V30 27612 H 2769.49 0.198774 4.04212 0
M  V30 27613 H 2768.06 -0.311656 3.11043 0
M  V30 27614 H 2767.28 2.16735 3.29271 0
M  V30 27615 H 2768.57 2.39516 4.48898 0
M  V30 27616 H 2767.97 -0.575248 5.62768 0
M  V30 27617 H 2766.53 -0.279302 6.51201 0
M  V30 27618 N 2769.96 -1.14755 1.08024 0
M  V30 27619 C 2771.2 -1.87362 0.816992 0
M  V30 27620 C 2771.56 -1.80828 -0.645375 0
M  V30 27621 O 2772.76 -2.48533 -1.02395 0
M  V30 27622 C 2771.04 -3.32144 1.31967 0
M  V30 27623 S 2772.59 -4.22408 1.18814 0
M  V30 27624 H 2769.41 -0.646514 0.295873 0
M  V30 27625 H 2772.01 -1.38406 1.38073 0
M  V30 27626 H 2770.72 -3.34446 2.37853 0
M  V30 27627 H 2770.25 -3.86157 0.751439 0
M  V30 27628 H 2772.26 -4.9603 0.129952 0
M  V30 27629 N 2771.44 -0.865331 -1.31719 0
M  V30 27630 C 2772.68 -0.4804 -1.98674 0
M  V30 27631 C 2773.04 0.948592 -1.6693 0
M  V30 27632 O 2774.24 1.43863 -2.27061 0
M  V30 27633 C 2772.51 -0.72492 -3.49971 0
M  V30 27634 S 2774.07 -0.439155 -4.36597 0
M  V30 27635 H 2770.89 -0.179518 -0.687964 0
M  V30 27636 H 2773.49 -1.12035 -1.60213 0
M  V30 27637 H 2772.2 -1.76382 -3.70564 0
M  V30 27638 H 2771.73 -0.0717865 -3.93334 0
M  V30 27639 H 2773.74 0.730477 -4.90794 0
M  V30 27640 N 2772.92 1.44707 -0.624311 0
M  V30 27641 C 2773.83 2.34442 0.0860671 0
M  V30 27642 C 2774.84 1.52222 0.842883 0
M  V30 27643 O 2776.02 1.84972 0.79669 0
M  V30 27644 C 2773.08 3.301 1.05993 0
M  V30 27645 C 2772.14 4.28228 0.303241 0
M  V30 27646 C 2771.38 5.19316 1.23072 0
M  V30 27647 O 2771.6 5.14186 2.4692 0
M  V30 27648 O 2770.53 5.97593 0.718725 0
M  V30 27649 H 2774.36 2.96623 -0.651808 0
M  V30 27650 H 2771.94 1.44367 -0.384519 0
M  V30 27651 H 2773.83 3.89 1.6204 0
M  V30 27652 H 2772.5 2.70462 1.77854 0
M  V30 27653 H 2771.41 3.72894 -0.300098 0
M  V30 27654 H 2772.74 4.90768 -0.375209 0
M  V30 27655 N 2774.39 0.364449 1.53328 0
M  V30 27656 C 2775.63 -0.225684 2.0315 0
M  V30 27657 C 2776 -1.46085 1.24592 0
M  V30 27658 O 2777.2 -2.12653 1.64414 0
M  V30 27659 C 2775.47 -0.511601 3.53719 0
M  V30 27660 S 2777.03 -1.07557 4.25414 0
M  V30 27661 H 2773.85 -0.0657719 0.707951 0
M  V30 27662 H 2776.45 0.507052 1.8881 0
M  V30 27663 H 2775.15 0.394855 4.08496 0
M  V30 27664 H 2774.68 -1.27344 3.72219 0
M  V30 27665 H 2776.7 -2.3599 4.3649 0
M  V30 27666 N 2775.87 -1.57322 0.0935872 0
M  V30 27667 C 2777.12 -1.94586 -0.57132 0
M  V30 27668 C 2777.45 -0.975395 -1.67928 0
M  V30 27669 O 2776.73 -0.00819625 -1.94498 0
M  V30 27670 C 2777.01 -3.4198 -1.12791 0
M  V30 27671 C 2776.86 -4.49793 -0.0251091 0
M  V30 27672 C 2778.18 -3.90654 -2.02675 0
M  V30 27673 H 2775.3 -0.707564 -0.20621 0
M  V30 27674 H 2777.94 -1.89291 0.163989 0
M  V30 27675 H 2776.09 -3.46623 -1.75455 0
M  V30 27676 H 2777.76 -4.57262 0.609059 0
M  V30 27677 H 2776.01 -4.29031 0.641475 0
M  V30 27678 H 2776.68 -5.50119 -0.455336 0
M  V30 27679 H 2779.15 -3.88154 -1.49918 0
M  V30 27680 H 2778.03 -4.94355 -2.38546 0
M  V30 27681 H 2778.29 -3.29859 -2.94356 0
M  V30 27682 N 2777.35 0.180099 -1.56568 0
M  V30 27683 C 2778.58 0.913939 -1.8562 0
M  V30 27684 C 2778.99 1.76209 -0.677923 0
M  V30 27685 O 2778.35 1.79051 0.35314 0
M  V30 27686 C 2778.4 1.79787 -3.13622 0
M  V30 27687 O 2778.12 0.983945 -4.26908 0
M  V30 27688 C 2779.62 2.64212 -3.55959 0
M  V30 27689 H 2776.84 0.265944 -0.616048 0
M  V30 27690 H 2779.39 0.182836 -2.03681 0
M  V30 27691 H 2777.54 2.48242 -2.97413 0
M  V30 27692 H 2777.96 1.58767 -4.99893 0
M  V30 27693 H 2779.43 3.21865 -4.48449 0
M  V30 27694 H 2779.91 3.38656 -2.79659 0
M  V30 27695 H 2780.51 2.01104 -3.74749 0
M  V30 27696 N 2778.83 1.51088 0.448349 0
M  V30 27697 C 2779.76 1.67786 1.56143 0
M  V30 27698 C 2780.77 0.558737 1.52912 0
M  V30 27699 O 2781.96 0.832698 1.57887 0
M  V30 27700 C 2779.06 1.66721 2.95055 0
M  V30 27701 C 2778.23 2.95039 3.2291 0
M  V30 27702 C 2777.29 2.8631 4.41489 0
M  V30 27703 O 2776.32 3.60261 4.40682 0
M  V30 27704 N 2777.52 2.0141 5.4444 0
M  V30 27705 H 2780.29 2.63802 1.42227 0
M  V30 27706 H 2777.85 1.48836 0.637127 0
M  V30 27707 H 2779.84 1.58464 3.72386 0
M  V30 27708 H 2778.41 0.783456 3.02623 0
M  V30 27709 H 2777.63 3.17249 2.3398 0
M  V30 27710 H 2778.92 3.80002 3.38343 0
M  V30 27711 H 2778.32 1.40683 5.47928 0
M  V30 27712 H 2776.87 1.9904 6.20666 0
M  V30 27713 N 2780.31 -0.703068 1.41049 0
M  V30 27714 C 2781.72 -1.28271 1.35659 0
M  V30 27715 C 2782.07 -1.96167 0.0360654 0
M  V30 27716 O 2781.19 -1.98325 -0.865799 0
M  V30 27717 C 2781.79 -2.33262 2.45711 0
M  V30 27718 C 2780.35 -2.86821 2.43743 0
M  V30 27719 C 2779.49 -1.60763 2.25944 0
M  V30 27720 H 2782.45 -0.498333 1.50673 0
M  V30 27721 H 2782.47 -3.14387 2.14338 0
M  V30 27722 H 2781.98 -1.83818 3.41808 0
M  V30 27723 H 2780.08 -3.40462 1.51381 0
M  V30 27724 H 2780.19 -3.37762 3.39785 0
M  V30 27725 H 2778.56 -1.86295 1.73685 0
M  V30 27726 H 2779.34 -1.13325 3.24056 0
M  V30 27727 N 2781.78 -1.26752 -0.936569 0
M  V30 27728 C 2783.01 -1.15358 -1.71756 0
M  V30 27729 C 2783.43 0.29065 -1.86549 0
M  V30 27730 O 2782.78 1.19865 -1.37618 0
M  V30 27731 C 2782.84 -1.82263 -3.1219 0
M  V30 27732 O 2782.56 -3.21043 -2.98099 0
M  V30 27733 C 2784.06 -1.76882 -4.06482 0
M  V30 27734 H 2781.28 -0.401492 -0.537629 0
M  V30 27735 H 2783.82 -1.67459 -1.17379 0
M  V30 27736 H 2781.98 -1.34089 -3.63454 0
M  V30 27737 H 2782.39 -3.54221 -3.86817 0
M  V30 27738 H 2783.86 -2.28325 -5.02565 0
M  V30 27739 H 2784.34 -0.736292 -4.32984 0
M  V30 27740 H 2784.95 -2.24629 -3.6114 0
M  V30 27741 N 2783.26 1.1418 -1.08631 0
M  V30 27742 C 2784.49 1.89129 -0.838923 0
M  V30 27743 C 2784.91 1.78704 0.609121 0
M  V30 27744 O 2784.26 1.14796 1.41874 0
M  V30 27745 C 2784.31 3.39023 -1.25483 0
M  V30 27746 O 2784.03 3.49163 -2.64607 0
M  V30 27747 C 2785.54 4.30961 -1.03864 0
M  V30 27748 H 2782.76 0.599001 -0.302388 0
M  V30 27749 H 2785.3 1.44589 -1.44617 0
M  V30 27750 H 2783.45 3.81176 -0.691638 0
M  V30 27751 H 2783.87 4.42284 -2.8193 0
M  V30 27752 H 2785.34 5.34497 -1.37901 0
M  V30 27753 H 2785.82 4.39193 0.024175 0
M  V30 27754 H 2786.43 3.94566 -1.58738 0
M  V30 27755 N 2784.74 0.872304 1.31258 0
M  V30 27756 C 2785.67 0.274434 2.26544 0
M  V30 27757 C 2786.65 -0.597749 1.51214 0
M  V30 27758 O 2787.84 -0.550656 1.80278 0
M  V30 27759 C 2784.96 -0.611198 3.3314 0
M  V30 27760 C 2784.01 0.189951 4.26077 0
M  V30 27761 S 2784.84 1.56998 5.11969 0
M  V30 27762 C 2786 0.690536 6.22079 0
M  V30 27763 H 2786.23 1.08215 2.76906 0
M  V30 27764 H 2783.76 0.670964 1.39059 0
M  V30 27765 H 2785.72 -1.11647 3.95026 0
M  V30 27766 H 2784.38 -1.39289 2.81527 0
M  V30 27767 H 2783.58 -0.485345 5.01658 0
M  V30 27768 H 2783.18 0.627404 3.687 0
M  V30 27769 H 2785.47 -0.0978819 6.77429 0
M  V30 27770 H 2786.41 1.41755 6.93766 0
M  V30 27771 H 2786.82 0.257052 5.63914 0
M  V30 27772 N 2786.22 -1.44374 0.631976 0
M  V30 27773 C 2787.45 -2.06399 0.143903 0
M  V30 27774 C 2787.86 -1.47233 -1.18186 0
M  V30 27775 O 2787.22 -0.595528 -1.7251 0
M  V30 27776 C 2787.27 -3.61492 0.0238889 0
M  V30 27777 O 2786.99 -4.18454 1.29722 0
M  V30 27778 C 2788.49 -4.40553 -0.492779 0
M  V30 27779 H 2785.71 -0.666206 0.0800659 0
M  V30 27780 H 2788.26 -1.8523 0.866619 0
M  V30 27781 H 2786.41 -3.8192 -0.649271 0
M  V30 27782 H 2786.82 -5.11903 1.14261 0
M  V30 27783 H 2788.3 -5.4949 -0.525764 0
M  V30 27784 H 2788.78 -4.12059 -1.51999 0
M  V30 27785 H 2789.38 -4.25045 0.14716 0
M  V30 27786 N 2787.7 -0.372575 -1.53133 0
M  V30 27787 C 2788.92 0.215478 -2.05775 0
M  V30 27788 C 2789.34 1.41884 -1.24557 0
M  V30 27789 O 2788.7 1.80214 -0.287983 0
M  V30 27790 C 2788.75 0.602098 -3.56451 0
M  V30 27791 O 2788.47 -0.553435 -4.3459 0
M  V30 27792 C 2789.97 1.2478 -4.25376 0
M  V30 27793 H 2787.19 0.0364411 -0.67001 0
M  V30 27794 H 2789.73 -0.532968 -1.97433 0
M  V30 27795 H 2787.89 1.30045 -3.6492 0
M  V30 27796 H 2788.3 -0.239428 -5.23953 0
M  V30 27797 H 2789.78 1.46882 -5.32099 0
M  V30 27798 H 2790.25 2.2102 -3.79535 0
M  V30 27799 H 2790.86 0.590678 -4.21178 0
M  V30 27800 N 2789.17 1.5727 -0.101929 0
M  V30 27801 C 2790.4 1.9894 0.568357 0
M  V30 27802 C 2790.82 0.981222 1.61299 0
M  V30 27803 O 2790.17 -0.0282548 1.82478 0
M  V30 27804 C 2790.23 3.40651 1.20991 0
M  V30 27805 O 2789.95 4.3761 0.207052 0
M  V30 27806 C 2791.45 3.97362 1.96516 0
M  V30 27807 H 2788.67 0.653592 0.151848 0
M  V30 27808 H 2791.21 2.03677 -0.183233 0
M  V30 27809 H 2789.37 3.36907 1.91239 0
M  V30 27810 H 2789.78 5.2019 0.67098 0
M  V30 27811 H 2791.25 4.98649 2.36755 0
M  V30 27812 H 2791.73 3.35557 2.8337 0
M  V30 27813 H 2792.34 4.046 1.31069 0
M  V30 27814 N 2790.65 -0.171793 1.56661 0
M  V30 27815 C 2791.88 -0.904082 1.86102 0
M  V30 27816 C 2792.3 -1.75847 0.687258 0
M  V30 27817 O 2791.65 -1.79236 -0.343639 0
M  V30 27818 C 2791.7 -1.78121 3.14571 0
M  V30 27819 O 2791.42 -0.961291 4.27423 0
M  V30 27820 C 2792.93 -2.62321 3.57355 0
M  V30 27821 H 2790.15 -0.262673 0.61745 0
M  V30 27822 H 2792.69 -0.172032 2.03775 0
M  V30 27823 H 2790.84 -2.46661 2.98726 0
M  V30 27824 H 2791.26 -1.56114 5.00728 0
M  V30 27825 H 2792.73 -3.19482 4.5015 0
M  V30 27826 H 2793.21 -3.37168 2.81451 0
M  V30 27827 H 2793.82 -1.99114 3.75811 0
M  V30 27828 N 2792.13 -1.51324 -0.44033 0
M  V30 27829 C 2793.36 -1.67647 -1.21252 0
M  V30 27830 C 2793.77 -0.372552 -1.85088 0
M  V30 27831 O 2793.13 0.648653 -1.70584 0
M  V30 27832 C 2793.18 -2.78997 -2.29876 0
M  V30 27833 O 2792.9 -4.04337 -1.68652 0
M  V30 27834 C 2794.4 -3.06563 -3.20209 0
M  V30 27835 H 2791.62 -0.562672 -0.36557 0
M  V30 27836 H 2794.17 -1.97723 -0.522105 0
M  V30 27837 H 2792.32 -2.51529 -2.94639 0
M  V30 27838 H 2792.74 -4.66154 -2.40418 0
M  V30 27839 H 2794.21 -3.88065 -3.92568 0
M  V30 27840 H 2794.69 -2.18851 -3.8079 0
M  V30 27841 H 2795.29 -3.35679 -2.6115 0
M  V30 27842 N 2793.61 0.695578 -1.41419 0
M  V30 27843 C 2794.52 1.8393 -1.45626 0
M  V30 27844 C 2795.53 1.70508 -0.346855 0
M  V30 27845 O 2796.71 1.92423 -0.594574 0
M  V30 27846 C 2793.78 3.19911 -1.33633 0
M  V30 27847 C 2792.84 3.45442 -2.54888 0
M  V30 27848 C 2792.07 4.74936 -2.43458 0
M  V30 27849 O 2792.29 5.51421 -1.45914 0
M  V30 27850 O 2791.23 5.0125 -3.33215 0
M  V30 27851 H 2795.05 1.83338 -2.42118 0
M  V30 27852 H 2792.64 0.848637 -1.22957 0
M  V30 27853 H 2794.52 4.01096 -1.29228 0
M  V30 27854 H 2793.19 3.21187 -0.402564 0
M  V30 27855 H 2792.1 2.64188 -2.64869 0
M  V30 27856 H 2793.43 3.48981 -3.47093 0
M  V30 27857 N 2795.09 1.27247 0.929833 0
M  V30 27858 C 2796.04 1.0962 2.05149 0
M  V30 27859 C 2797.03 0.0198915 1.69388 0
M  V30 27860 O 2798.24 0.177448 1.79123 0
M  V30 27861 H 2794.61 0.337713 0.671903 0
M  V30 27862 H 2796.58 2.04651 2.17164 0
M  V30 27863 C 2795.33 0.757911 3.39339 0
M  V30 27864 H 2794.65 1.57802 3.6734 0
M  V30 27865 H 2796.09 0.674432 4.18602 0
M  V30 27866 C 2794.55 -0.537599 3.32583 0
M  V30 27867 O 2795.08 -1.57264 3.69636 0
M  V30 27868 N 2793.29 -0.532427 2.85681 0
M  V30 27869 H 2792.84 0.310278 2.55725 0
M  V30 27870 H 2792.79 -1.39931 2.81543 0
M  V30 27871 N 2796.57 -1.13603 1.09235 0
M  V30 27872 C 2797.98 -1.66388 0.846868 0
M  V30 27873 C 2798.33 -1.85979 -0.624998 0
M  V30 27874 O 2797.45 -1.57716 -1.48171 0
M  V30 27875 C 2798.05 -3.02247 1.53075 0
M  V30 27876 C 2796.61 -3.52032 1.3323 0
M  V30 27877 C 2795.75 -2.2732 1.5881 0
M  V30 27878 H 2798.7 -0.975519 1.25177 0
M  V30 27879 H 2798.73 -3.68119 0.962735 0
M  V30 27880 H 2798.24 -2.87957 2.60197 0
M  V30 27881 H 2796.34 -3.7153 0.282156 0
M  V30 27882 H 2796.45 -4.32276 2.06578 0
M  V30 27883 H 2794.82 -2.33814 1.01011 0
M  V30 27884 H 2795.6 -2.15597 2.67157 0
M  V30 27885 N 2798.04 -0.879253 -1.30793 0
M  V30 27886 C 2799.27 -0.509584 -2.00526 0
M  V30 27887 C 2799.69 0.900421 -1.65945 0
M  V30 27888 O 2799.04 1.59129 -0.893553 0
M  V30 27889 C 2799.09 -0.668005 -3.55274 0
M  V30 27890 O 2798.82 -2.02249 -3.88622 0
M  V30 27891 C 2800.32 -0.300572 -4.4228 0
M  V30 27892 H 2797.54 -0.19756 -0.641257 0
M  V30 27893 H 2800.08 -1.18298 -1.66811 0
M  V30 27894 H 2798.24 -0.0420524 -3.87377 0
M  V30 27895 H 2798.65 -2.03697 -4.8333 0
M  V30 27896 H 2800.12 -0.462339 -5.5006 0
M  V30 27897 H 2800.6 0.760984 -4.32557 0
M  V30 27898 H 2801.21 -0.902609 -4.15612 0
M  V30 27899 N 2799.52 1.44037 -0.639624 0
M  V30 27900 C 2800.93 1.85292 -0.228899 0
M  V30 27901 C 2801.28 1.53531 1.22158 0
M  V30 27902 O 2800.41 0.977552 1.93062 0
M  V30 27903 C 2801 3.36326 -0.408651 0
M  V30 27904 C 2799.56 3.76364 -0.0523615 0
M  V30 27905 C 2798.71 2.67843 -0.718006 0
M  V30 27906 H 2801.66 1.34382 -0.844218 0
M  V30 27907 H 2801.68 3.78888 0.349901 0
M  V30 27908 H 2801.19 3.59411 -1.46442 0
M  V30 27909 H 2799.29 3.58893 1.00134 0
M  V30 27910 H 2799.41 4.76805 -0.468345 0
M  V30 27911 H 2797.77 2.54243 -0.152504 0
M  V30 27912 H 2798.55 2.93759 -1.77653 0
M  V30 27913 N 2801 0.380691 1.52933 0
M  V30 27914 C 2802.41 -0.0952356 1.86457 0
M  V30 27915 C 2802.76 -1.46886 1.30073 0
M  V30 27916 O 2801.89 -2.07067 0.628673 0
M  V30 27917 C 2802.48 -0.179589 3.38324 0
M  V30 27918 C 2801.04 -0.599793 3.7159 0
M  V30 27919 C 2800.19 0.243621 2.76228 0
M  V30 27920 H 2803.14 0.598906 1.46965 0
M  V30 27921 H 2803.16 -1.00035 3.67115 0
M  V30 27922 H 2802.67 0.820295 3.79332 0
M  V30 27923 H 2800.77 -1.60736 3.36147 0
M  V30 27924 H 2800.89 -0.363919 4.77716 0
M  V30 27925 H 2799.25 -0.289811 2.53046 0
M  V30 27926 H 2800.03 1.24132 3.20072 0
M  V30 27927 N 2802.48 -1.57214 0.110268 0
M  V30 27928 C 2803.71 -1.99239 -0.557799 0
M  V30 27929 C 2804.12 -0.989762 -1.60777 0
M  V30 27930 O 2803.48 0.0185772 -1.82491 0
M  V30 27931 C 2803.53 -3.41288 -1.19183 0
M  V30 27932 O 2803.25 -4.37714 -0.183842 0
M  V30 27933 C 2804.75 -3.98398 -1.94406 0
M  V30 27934 H 2801.97 -0.654389 -0.14838 0
M  V30 27935 H 2804.51 -2.03577 0.194032 0
M  V30 27936 H 2802.67 -3.37917 -1.8945 0
M  V30 27937 H 2803.08 -5.20539 -0.643383 0
M  V30 27938 H 2804.56 -4.99898 -2.34107 0
M  V30 27939 H 2805.03 -3.37055 -2.81586 0
M  V30 27940 H 2805.64 -4.05289 -1.28921 0
M  V30 27941 N 2803.96 0.163482 -1.5675 0
M  V30 27942 C 2805.18 0.8942 -1.86579 0
M  V30 27943 C 2805.6 1.7548 -0.696574 0
M  V30 27944 O 2804.96 1.79415 0.334129 0
M  V30 27945 C 2805.01 1.76451 -3.15511 0
M  V30 27946 O 2804.73 0.93861 -4.27927 0
M  V30 27947 C 2806.23 2.60422 -3.58741 0
M  V30 27948 H 2803.45 0.259395 -0.618834 0
M  V30 27949 H 2805.99 0.161223 -2.03863 0
M  V30 27950 H 2804.15 2.45073 -3.0003 0
M  V30 27951 H 2804.56 1.53456 -5.01549 0
M  V30 27952 H 2806.04 3.17091 -4.51838 0
M  V30 27953 H 2806.51 3.3567 -2.83235 0
M  V30 27954 H 2807.12 1.97118 -3.76861 0
M  V30 27955 N 2805.43 1.51555 0.432299 0
M  V30 27956 C 2806.66 1.68288 1.20361 0
M  V30 27957 C 2807.08 0.382363 1.84888 0
M  V30 27958 O 2806.43 -0.639597 1.70925 0
M  V30 27959 C 2806.48 2.80212 2.28393 0
M  V30 27960 O 2806.21 4.05225 1.66505 0
M  V30 27961 C 2807.71 3.08257 3.18579 0
M  V30 27962 H 2804.93 0.564603 0.362581 0
M  V30 27963 H 2807.47 1.97997 0.511612 0
M  V30 27964 H 2805.63 2.53088 2.93301 0
M  V30 27965 H 2806.04 4.67422 2.37942 0
M  V30 27966 H 2807.51 3.90141 3.90504 0
M  V30 27967 H 2807.99 2.20867 3.79624 0
M  V30 27968 H 2808.6 3.3706 2.59366 0
M  V30 27969 N 2806.91 -0.688069 1.41786 0
M  V30 27970 C 2808.32 -1.26825 1.37012 0
M  V30 27971 C 2808.67 -1.96118 0.0568695 0
M  V30 27972 O 2807.8 -1.99232 -0.844715 0
M  V30 27973 C 2808.39 -2.30643 2.48172 0
M  V30 27974 C 2806.95 -2.8422 2.46771 0
M  V30 27975 C 2806.1 -1.58357 2.27636 0
M  V30 27976 H 2809.05 -0.482324 1.51193 0
M  V30 27977 H 2809.07 -3.12096 2.17661 0
M  V30 27978 H 2808.58 -1.80182 3.43738 0
M  V30 27979 H 2806.68 -3.38837 1.54984 0
M  V30 27980 H 2806.8 -3.34139 3.43348 0
M  V30 27981 H 2805.16 -1.84442 1.75651 0
M  V30 27982 H 2805.94 -1.09881 3.2524 0
M  V30 27983 N 2808.39 -1.27739 -0.923072 0
M  V30 27984 C 2809.64 -1.13729 -1.66579 0
M  V30 27985 C 2809.95 0.315399 -1.9304 0
M  V30 27986 O 2811.16 0.576464 -2.6531 0
M  V30 27987 C 2809.61 -1.9875 -3.00044 0
M  V30 27988 C 2809.22 -3.48704 -2.81264 0
M  V30 27989 C 2810.97 -1.93402 -3.77883 0
M  V30 27990 C 2808.87 -4.25908 -4.10313 0
M  V30 27991 H 2807.8 -0.422028 -0.624827 0
M  V30 27992 H 2810.45 -1.52196 -1.02511 0
M  V30 27993 H 2808.84 -1.53132 -3.65194 0
M  V30 27994 H 2810.01 -4.02217 -2.24852 0
M  V30 27995 H 2808.32 -3.5548 -2.16848 0
M  V30 27996 H 2810.92 -2.48357 -4.73522 0
M  V30 27997 H 2811.26 -0.908676 -4.06262 0
M  V30 27998 H 2811.8 -2.3694 -3.19537 0
M  V30 27999 H 2808.54 -5.28985 -3.87111 0
M  V30 28000 H 2808.06 -3.77171 -4.66371 0
M  V30 28001 H 2809.74 -4.3533 -4.78641 0
M  V30 28002 N 2809.87 1.13022 -1.09836 0
M  V30 28003 C 2811.1 1.88228 -0.858935 0
M  V30 28004 C 2811.51 1.7934 0.590133 0
M  V30 28005 O 2810.87 1.16294 1.40648 0
M  V30 28006 C 2810.92 3.37673 -1.29072 0
M  V30 28007 O 2810.64 3.46337 -2.68296 0
M  V30 28008 C 2812.14 4.29835 -1.08429 0
M  V30 28009 H 2809.36 0.595761 -0.308724 0
M  V30 28010 H 2811.91 1.43047 -1.46143 0
M  V30 28011 H 2810.06 3.80421 -0.732028 0
M  V30 28012 H 2810.47 4.39269 -2.86605 0
M  V30 28013 H 2811.95 5.33004 -1.43563 0
M  V30 28014 H 2812.43 4.39194 -0.0224087 0
M  V30 28015 H 2813.03 3.9286 -1.62914 0
M  V30 28016 N 2811.35 0.886177 1.30325 0
M  V30 28017 C 2812.57 0.520211 2.00253 0
M  V30 28018 C 2812.99 -0.891608 1.66421 0
M  V30 28019 O 2812.35 -1.58652 0.901979 0
M  V30 28020 C 2812.4 0.686837 3.54915 0
M  V30 28021 O 2812.12 2.04307 3.87544 0
M  V30 28022 C 2813.62 0.324022 4.42114 0
M  V30 28023 H 2810.84 0.200958 0.640201 0
M  V30 28024 H 2813.38 1.19181 1.66181 0
M  V30 28025 H 2811.54 0.0625954 3.87349 0
M  V30 28026 H 2811.95 2.06257 4.82243 0
M  V30 28027 H 2813.43 0.491503 5.49807 0
M  V30 28028 H 2813.9 -0.738034 4.32955 0
M  V30 28029 H 2814.51 0.924638 4.15127 0
M  V30 28030 N 2812.82 -1.43695 0.647253 0
M  V30 28031 C 2814.05 -2.06235 0.165787 0
M  V30 28032 C 2814.47 -1.48478 -1.16617 0
M  V30 28033 O 2813.82 -0.613792 -1.71869 0
M  V30 28034 C 2813.88 -3.61446 0.0622286 0
M  V30 28035 O 2813.6 -4.17055 1.34153 0
M  V30 28036 C 2815.1 -4.4105 -0.446025 0
M  V30 28037 H 2812.32 -0.665319 0.0871275 0
M  V30 28038 H 2814.86 -1.843 0.886216 0
M  V30 28039 H 2813.02 -3.82588 -0.608727 0
M  V30 28040 H 2813.43 -5.10662 1.19684 0
M  V30 28041 H 2814.9 -5.50017 -0.467454 0
M  V30 28042 H 2815.38 -4.13648 -1.4762 0
M  V30 28043 H 2815.99 -4.24865 0.192233 0
M  V30 28044 N 2814.3 -0.388796 -1.52729 0
M  V30 28045 C 2815.53 0.193641 -2.05992 0
M  V30 28046 C 2815.95 1.40554 -1.26055 0
M  V30 28047 O 2815.3 1.79898 -0.30708 0
M  V30 28048 C 2815.35 0.564258 -3.57069 0
M  V30 28049 O 2815.07 -0.599498 -4.33979 0
M  V30 28050 C 2816.58 1.20261 -4.26676 0
M  V30 28051 H 2813.8 0.0293327 -0.670359 0
M  V30 28052 H 2816.34 -0.553879 -1.96856 0
M  V30 28053 H 2814.49 1.26168 -3.66279 0
M  V30 28054 H 2814.91 -0.294987 -5.2367 0
M  V30 28055 H 2816.38 1.4123 -5.33627 0
M  V30 28056 H 2816.86 2.16982 -3.81858 0
M  V30 28057 H 2817.47 0.545973 -4.21781 0
M  V30 28058 N 2815.78 1.57153 -0.118604 0
M  V30 28059 C 2817.01 1.99532 0.547225 0
M  V30 28060 C 2817.42 0.998275 1.6025 0
M  V30 28061 O 2816.78 -0.00889898 1.82498 0
M  V30 28062 C 2816.83 3.41915 1.17372 0
M  V30 28063 O 2816.55 4.37805 0.160626 0
M  V30 28064 C 2818.05 3.99424 1.9229 0
M  V30 28065 H 2815.27 0.655166 0.144908 0
M  V30 28066 H 2817.82 2.03472 -0.204826 0
M  V30 28067 H 2815.97 3.38916 1.87655 0
M  V30 28068 H 2816.39 5.20873 0.615769 0
M  V30 28069 H 2817.86 5.01132 2.31453 0
M  V30 28070 H 2818.34 3.38543 2.79795 0
M  V30 28071 H 2818.94 4.05967 1.2677 0
M  V30 28072 N 2817.26 -0.155167 1.56834 0
M  V30 28073 C 2818.5 -0.870435 1.8317 0
M  V30 28074 C 2818.84 -1.81185 0.698961 0
M  V30 28075 O 2818.11 -1.92204 -0.298001 0
M  V30 28076 C 2818.4 -1.65205 3.19968 0
M  V30 28077 C 2818.25 -0.732666 4.43793 0
M  V30 28078 C 2819.57 -2.6163 3.5389 0
M  V30 28079 H 2816.69 -0.314995 0.666294 0
M  V30 28080 H 2819.33 -0.135954 1.89513 0
M  V30 28081 H 2817.48 -2.27819 3.14691 0
M  V30 28082 H 2819.15 -0.118154 4.61149 0
M  V30 28083 H 2817.39 -0.0417143 4.3378 0
M  V30 28084 H 2818.06 -1.31542 5.36098 0
M  V30 28085 H 2820.54 -2.09136 3.59724 0
M  V30 28086 H 2819.42 -3.13374 4.50653 0
M  V30 28087 H 2819.68 -3.426 2.79424 0
M  V30 28088 N 2818.74 -1.51782 -0.424256 0
M  V30 28089 C 2819.96 -1.68924 -1.19467 0
M  V30 28090 C 2820.38 -0.392162 -1.84682 0
M  V30 28091 O 2819.74 0.630524 -1.71262 0
M  V30 28092 C 2819.79 -2.8142 -2.26904 0
M  V30 28093 O 2819.51 -4.06103 -1.64354 0
M  V30 28094 C 2821.01 -3.09942 -3.1694 0
M  V30 28095 H 2818.23 -0.566518 -0.359581 0
M  V30 28096 H 2820.77 -1.98265 -0.501105 0
M  V30 28097 H 2818.93 -2.5464 -2.91954 0
M  V30 28098 H 2819.34 -4.68678 -2.3546 0
M  V30 28099 H 2820.82 -3.92207 -3.8843 0
M  V30 28100 H 2821.29 -2.22877 -3.78447 0
M  V30 28101 H 2821.9 -3.3843 -2.57575 0
M  V30 28102 N 2820.21 0.68054 -1.42149 0
M  V30 28103 C 2821.63 1.26097 -1.37683 0
M  V30 28104 C 2821.98 1.96085 -0.0672693 0
M  V30 28105 O 2821.1 1.99678 0.834137 0
M  V30 28106 C 2821.7 2.29324 -2.49391 0
M  V30 28107 C 2820.26 2.82907 -2.48275 0
M  V30 28108 C 2819.4 1.57148 -2.28473 0
M  V30 28109 H 2822.35 0.474299 -1.51447 0
M  V30 28110 H 2822.37 3.10937 -2.19313 0
M  V30 28111 H 2821.89 1.78357 -3.44689 0
M  V30 28112 H 2819.99 3.38011 -1.56779 0
M  V30 28113 H 2820.1 3.32314 -3.45115 0
M  V30 28114 H 2818.46 1.83508 -1.76627 0
M  V30 28115 H 2819.25 1.08155 -3.25818 0
M  V30 28116 N 2821.69 1.28226 0.916285 0
M  V30 28117 C 2822.92 1.18076 1.69899 0
M  V30 28118 C 2823.34 -0.260935 1.86988 0
M  V30 28119 O 2822.69 -1.17661 1.39507 0
M  V30 28120 C 2822.74 1.87207 3.0925 0
M  V30 28121 O 2822.46 3.25745 2.92954 0
M  V30 28122 C 2823.97 1.83327 4.03617 0
M  V30 28123 H 2821.19 0.409995 0.531173 0
M  V30 28124 H 2823.73 1.69305 1.147 0
M  V30 28125 H 2821.88 1.39855 3.61275 0
M  V30 28126 H 2822.3 3.6033 3.81133 0
M  V30 28127 H 2823.77 2.36291 4.98869 0
M  V30 28128 H 2824.25 0.805083 4.31758 0
M  V30 28129 H 2824.86 2.30346 3.5752 0
M  V30 28130 N 2823.17 -1.12438 1.10433 0
M  V30 28131 C 2824.58 -1.65481 0.864468 0
M  V30 28132 C 2824.93 -1.86631 -0.605237 0
M  V30 28133 O 2824.06 -1.59279 -1.46489 0
M  V30 28134 C 2824.65 -3.00607 1.56272 0
M  V30 28135 C 2823.21 -3.506 1.36956 0
M  V30 28136 C 2822.36 -2.25623 1.61213 0
M  V30 28137 H 2825.31 -0.962187 1.26205 0
M  V30 28138 H 2825.33 -3.67077 1.00172 0
M  V30 28139 H 2824.84 -2.85181 2.63237 0
M  V30 28140 H 2822.94 -3.7121 0.321546 0
M  V30 28141 H 2823.06 -4.30061 2.11151 0
M  V30 28142 H 2821.42 -2.32729 1.03486 0
M  V30 28143 H 2822.2 -2.12751 2.69429 0
M  V30 28144 N 2824.65 -0.893076 -1.29853 0
M  V30 28145 C 2825.88 -0.530823 -1.99975 0
M  V30 28146 C 2826.29 0.88277 -1.66891 0
M  V30 28147 O 2825.65 1.58172 -0.91038 0
M  V30 28148 C 2825.7 -0.705649 -3.54546 0
M  V30 28149 O 2825.42 -2.0636 -3.86455 0
M  V30 28150 C 2826.92 -0.347464 -4.41936 0
M  V30 28151 H 2824.14 -0.20435 -0.639126 0
M  V30 28152 H 2826.69 -1.2006 -1.65547 0
M  V30 28153 H 2824.84 -0.0831366 -3.87311 0
M  V30 28154 H 2825.26 -2.08812 -4.81142 0
M  V30 28155 H 2826.73 -0.520654 -5.49539 0
M  V30 28156 H 2827.21 0.715063 -4.3334 0
M  V30 28157 H 2827.81 -0.94664 -4.14631 0
M  V30 28158 N 2826.13 1.4335 -0.654865 0
M  V30 28159 C 2827.54 1.85038 -0.248538 0
M  V30 28160 C 2827.89 1.54818 1.20523 0
M  V30 28161 O 2827.01 0.997974 1.92014 0
M  V30 28162 C 2827.61 3.35874 -0.4443 0
M  V30 28163 C 2826.17 3.76287 -0.0922769 0
M  V30 28164 C 2825.32 2.67067 -0.746374 0
M  V30 28165 H 2828.27 1.3348 -0.858423 0
M  V30 28166 H 2828.29 3.79238 0.309696 0
M  V30 28167 H 2827.8 3.57838 -1.50246 0
M  V30 28168 H 2825.9 3.59935 0.963217 0
M  V30 28169 H 2826.01 4.76282 -0.51889 0
M  V30 28170 H 2824.38 2.54067 -0.179461 0
M  V30 28171 H 2825.16 2.91858 -1.80759 0
M  V30 28172 N 2827.61 0.39689 1.52521 0
M  V30 28173 C 2828.83 -0.182714 2.06092 0
M  V30 28174 C 2829.25 -1.39884 1.26799 0
M  V30 28175 O 2828.61 -1.79733 0.316616 0
M  V30 28176 C 2828.66 -0.545314 3.57363 0
M  V30 28177 O 2828.38 0.622505 4.33655 0
M  V30 28178 C 2829.88 -1.17997 4.27307 0
M  V30 28179 H 2827.1 -0.0257772 0.670505 0
M  V30 28180 H 2829.64 0.564311 1.9656 0
M  V30 28181 H 2827.8 -1.24223 3.66943 0
M  V30 28182 H 2828.21 0.322754 5.23506 0
M  V30 28183 H 2829.69 -1.38398 5.34369 0
M  V30 28184 H 2830.16 -2.14954 3.83003 0
M  V30 28185 H 2830.77 -0.523597 4.22065 0
M  V30 28186 N 2829.08 -1.57088 0.126936 0
M  V30 28187 C 2830.33 -1.95079 -0.528088 0
M  V30 28188 C 2830.65 -1.01163 -1.66707 0
M  V30 28189 O 2829.92 -0.0693872 -1.95777 0
M  V30 28190 H 2828.5 -0.720261 -0.198074 0
M  V30 28191 H 2831.16 -1.93894 0.197738 0
M  V30 28192 H 2830.26 -2.98311 -0.917455 0
M  V30 28193 N 2830.56 0.146848 -1.56914 0
M  V30 28194 C 2831.79 0.874361 -1.87517 0
M  V30 28195 C 2832.2 1.74731 -0.715147 0
M  V30 28196 O 2831.56 1.7976 0.315081 0
M  V30 28197 C 2831.61 1.73094 -3.17365 0
M  V30 28198 O 2831.33 0.89317 -4.28899 0
M  V30 28199 C 2832.83 2.56602 -3.61483 0
M  V30 28200 H 2830.05 0.252816 -0.62155 0
M  V30 28201 H 2832.6 0.139591 -2.04023 0
M  V30 28202 H 2830.75 2.41877 -3.02612 0
M  V30 28203 H 2831.17 1.48128 -5.03148 0
M  V30 28204 H 2832.64 3.12281 -4.55176 0
M  V30 28205 H 2833.12 3.32647 -2.86779 0
M  V30 28206 H 2833.72 1.9311 -3.78931 0
M  V30 28207 N 2832.04 1.52005 0.4162 0
M  V30 28208 C 2832.97 1.7106 1.52549 0
M  V30 28209 C 2833.98 0.591046 1.51692 0
M  V30 28210 O 2835.17 0.866001 1.56085 0
M  V30 28211 C 2832.27 1.72942 2.91452 0
M  V30 28212 C 2831.45 3.01822 3.16579 0
M  V30 28213 C 2830.51 2.9561 4.35317 0
M  V30 28214 O 2829.53 3.69528 4.32941 0
M  V30 28215 N 2830.73 2.12913 5.40045 0
M  V30 28216 H 2833.5 2.6676 1.36599 0
M  V30 28217 H 2831.06 1.50154 0.605413 0
M  V30 28218 H 2833.05 1.66328 3.68941 0
M  V30 28219 H 2831.62 0.847471 3.00893 0
M  V30 28220 H 2830.84 3.22141 2.27198 0
M  V30 28221 H 2832.13 3.87093 3.30206 0
M  V30 28222 H 2831.53 1.52274 5.4482 0
M  V30 28223 H 2830.08 2.1216 6.16304 0
M  V30 28224 N 2833.52 -0.672992 1.42508 0
M  V30 28225 C 2834.75 -1.46125 1.46476 0
M  V30 28226 C 2835.16 -1.88644 0.0766243 0
M  V30 28227 O 2834.52 -1.5825 -0.909029 0
M  V30 28228 C 2834.57 -2.70919 2.39343 0
M  V30 28229 O 2834.29 -2.30183 3.72756 0
M  V30 28230 C 2835.79 -3.64465 2.5235 0
M  V30 28231 H 2833.01 -0.449566 0.498128 0
M  V30 28232 H 2835.55 -0.826769 1.87042 0
M  V30 28233 H 2833.71 -3.30552 2.02025 0
M  V30 28234 H 2834.12 -3.10784 4.22509 0
M  V30 28235 H 2835.6 -4.48748 3.21448 0
M  V30 28236 H 2836.07 -4.10487 1.56196 0
M  V30 28237 H 2836.68 -3.10724 2.90397 0
M  V30 28238 N 2835 -1.2871 -0.909472 0
M  V30 28239 C 2836.41 -1.14565 -1.47417 0
M  V30 28240 C 2836.76 0.262798 -1.94432 0
M  V30 28241 O 2835.88 1.15745 -1.82845 0
M  V30 28242 C 2836.48 -2.07363 -2.67929 0
M  V30 28243 C 2835.04 -1.97269 -3.20565 0
M  V30 28244 C 2834.18 -1.98856 -1.93266 0
M  V30 28245 H 2837.13 -1.41337 -0.721762 0
M  V30 28246 H 2837.16 -1.64013 -3.43336 0
M  V30 28247 H 2836.67 -3.09864 -2.3368 0
M  V30 28248 H 2834.77 -0.97822 -3.5953 0
M  V30 28249 H 2834.88 -2.84443 -3.85524 0
M  V30 28250 H 2833.25 -1.43321 -2.1055 0
M  V30 28251 H 2834.03 -3.03043 -1.61306 0
M  V30 28252 N 2836.47 1.1185 -1.11028 0
M  V30 28253 C 2837.7 1.87307 -0.878851 0
M  V30 28254 C 2838.12 1.79956 0.571078 0
M  V30 28255 O 2837.47 1.1778 1.39407 0
M  V30 28256 C 2837.52 3.36285 -1.32646 0
M  V30 28257 O 2837.25 3.43471 -2.71954 0
M  V30 28258 C 2838.75 4.28661 -1.12982 0
M  V30 28259 H 2835.97 0.592453 -0.315025 0
M  V30 28260 H 2838.51 1.41489 -1.47652 0
M  V30 28261 H 2836.67 3.79623 -0.772336 0
M  V30 28262 H 2837.08 4.36205 -2.91248 0
M  V30 28263 H 2838.55 5.31452 -1.49208 0
M  V30 28264 H 2839.03 4.39146 -0.0689899 0
M  V30 28265 H 2839.64 3.9111 -1.67071 0
M  V30 28266 N 2837.95 0.89995 1.29378 0
M  V30 28267 C 2839.18 0.541421 1.9969 0
M  V30 28268 C 2839.59 -0.873907 1.67357 0
M  V30 28269 O 2838.95 -1.57687 0.918756 0
M  V30 28270 C 2839 0.724442 3.54167 0
M  V30 28271 O 2838.72 2.08406 3.85355 0
M  V30 28272 C 2840.22 0.370896 4.41746 0
M  V30 28273 H 2837.44 0.207737 0.638033 0
M  V30 28274 H 2839.99 1.20937 1.64908 0
M  V30 28275 H 2838.14 0.103675 3.87261 0
M  V30 28276 H 2838.56 2.1136 4.80028 0
M  V30 28277 H 2840.03 0.54979 5.49255 0
M  V30 28278 H 2840.51 -0.692071 4.33713 0
M  V30 28279 H 2841.11 0.968615 4.14123 0
M  V30 28280 N 2839.43 -1.43001 0.662458 0
M  V30 28281 C 2840.66 -2.06047 0.187651 0
M  V30 28282 C 2841.07 -1.49707 -1.15036 0
M  V30 28283 O 2840.43 -0.631986 -1.71208 0
M  V30 28284 C 2840.48 -3.6136 0.100561 0
M  V30 28285 O 2840.2 -4.15608 1.38569 0
M  V30 28286 C 2841.7 -4.41499 -0.39922 0
M  V30 28287 H 2838.92 -0.664358 0.0941792 0
M  V30 28288 H 2841.47 -1.8335 0.905714 0
M  V30 28289 H 2839.62 -3.83212 -0.568114 0
M  V30 28290 H 2840.04 -5.09364 1.25093 0
M  V30 28291 H 2841.51 -5.50482 -0.409091 0
M  V30 28292 H 2841.99 -4.15191 -1.43225 0
M  V30 28293 H 2842.59 -4.24638 0.237285 0
M  V30 28294 N 2840.91 -0.404973 -1.52308 0
M  V30 28295 C 2842.32 0.0655598 -1.86585 0
M  V30 28296 C 2842.67 1.44798 -1.32393 0
M  V30 28297 O 2841.8 2.0604 -0.661536 0
M  V30 28298 C 2842.39 0.125741 -3.38567 0
M  V30 28299 C 2840.95 0.5406 -3.72498 0
M  V30 28300 C 2840.1 -0.287535 -2.75805 0
M  V30 28301 H 2843.05 -0.622211 -1.45994 0
M  V30 28302 H 2843.07 0.941823 -3.6866 0
M  V30 28303 H 2842.58 -0.880539 -3.77979 0
M  V30 28304 H 2840.68 1.55367 -3.38662 0
M  V30 28305 H 2840.79 0.287872 -4.78234 0
M  V30 28306 H 2839.16 0.249517 -2.53475 0
M  V30 28307 H 2839.94 -1.29209 -3.18057 0
M  V30 28308 N 2842.39 1.57018 -0.135265 0
M  V30 28309 C 2843.64 1.94917 0.51866 0
M  V30 28310 C 2843.95 1.02193 1.66781 0
M  V30 28311 O 2845.15 1.29623 2.38558 0
M  V30 28312 C 2843.61 3.46468 0.974062 0
M  V30 28313 C 2843.22 4.47757 -0.147518 0
M  V30 28314 C 2844.96 3.93256 1.59844 0
M  V30 28315 C 2842.87 5.90504 0.325496 0
M  V30 28316 H 2841.8 0.727667 0.197528 0
M  V30 28317 H 2844.45 1.82204 -0.21773 0
M  V30 28318 H 2842.83 3.54473 1.76536 0
M  V30 28319 H 2844.01 4.51437 -0.924201 0
M  V30 28320 H 2842.32 4.10817 -0.679568 0
M  V30 28321 H 2844.92 4.97333 1.96376 0
M  V30 28322 H 2845.26 3.34145 2.483 0
M  V30 28323 H 2845.79 3.88119 0.872255 0
M  V30 28324 H 2842.53 6.53407 -0.52341 0
M  V30 28325 H 2842.05 5.90209 1.06831 0
M  V30 28326 H 2843.73 6.42264 0.781385 0
M  V30 28327 N 2843.86 -0.138524 1.5699 0
M  V30 28328 C 2845.09 -0.864404 1.87978 0
M  V30 28329 C 2845.51 -1.7435 0.724403 0
M  V30 28330 O 2844.86 -1.79924 -0.305544 0
M  V30 28331 C 2844.92 -1.71409 3.18279 0
M  V30 28332 O 2844.64 -0.870412 4.29366 0
M  V30 28333 C 2846.14 -2.54682 3.62839 0
M  V30 28334 H 2843.36 -0.249517 0.622882 0
M  V30 28335 H 2845.9 -0.128769 2.04094 0
M  V30 28336 H 2844.06 -2.40269 3.03891 0
M  V30 28337 H 2844.47 -1.45457 5.03927 0
M  V30 28338 H 2845.94 -3.09862 4.56825 0
M  V30 28339 H 2846.42 -3.31122 2.88539 0
M  V30 28340 H 2847.03 -1.91098 3.7995 0
M  V30 28341 N 2845.34 -1.52224 -0.408133 0
M  V30 28342 C 2846.57 -1.70181 -1.17669 0
M  V30 28343 C 2846.99 -0.411728 -1.84256 0
M  V30 28344 O 2846.34 0.612324 -1.71921 0
M  V30 28345 C 2846.39 -2.8381 -2.23906 0
M  V30 28346 O 2846.11 -4.07823 -1.60037 0
M  V30 28347 C 2847.62 -3.13286 -3.13634 0
M  V30 28348 H 2844.84 -0.5703 -0.353552 0
M  V30 28349 H 2847.38 -1.98786 -0.480048 0
M  V30 28350 H 2845.53 -2.57722 -2.89237 0
M  V30 28351 H 2845.95 -4.71149 -2.30476 0
M  V30 28352 H 2847.42 -3.96305 -3.84248 0
M  V30 28353 H 2847.9 -2.26879 -3.76062 0
M  V30 28354 H 2848.51 -3.41143 -2.53971 0
M  V30 28355 N 2846.82 0.665425 -1.42863 0
M  V30 28356 C 2848.05 1.45346 -1.47248 0
M  V30 28357 C 2848.46 1.88601 -0.0866275 0
M  V30 28358 O 2847.82 1.58729 0.900624 0
M  V30 28359 C 2847.87 2.69646 -2.40777 0
M  V30 28360 O 2847.59 2.28203 -3.73972 0
M  V30 28361 C 2849.09 3.63121 -2.54279 0
M  V30 28362 H 2846.31 0.446918 -0.500505 0
M  V30 28363 H 2848.86 0.816838 -1.87478 0
M  V30 28364 H 2847.01 3.29476 -2.03775 0
M  V30 28365 H 2847.43 3.08539 -4.24151 0
M  V30 28366 H 2848.9 4.47037 -3.23823 0
M  V30 28367 H 2849.38 4.09653 -1.58371 0
M  V30 28368 H 2849.98 3.0918 -2.92041 0
M  V30 28369 N 2848.3 1.29191 0.902633 0
M  V30 28370 C 2849.53 1.19872 1.68637 0
M  V30 28371 C 2849.94 -0.241088 1.87254 0
M  V30 28372 O 2849.3 -1.16174 1.40747 0
M  V30 28373 C 2849.35 1.90476 3.07247 0
M  V30 28374 O 2849.07 3.28834 2.89482 0
M  V30 28375 C 2850.57 1.87597 4.01649 0
M  V30 28376 H 2847.79 0.415606 0.526795 0
M  V30 28377 H 2850.34 1.70512 1.12898 0
M  V30 28378 H 2848.49 1.43679 3.59771 0
M  V30 28379 H 2848.9 3.64352 3.7729 0
M  V30 28380 H 2850.38 2.41569 4.96335 0
M  V30 28381 H 2850.86 0.850832 4.3088 0
M  V30 28382 H 2851.46 2.34125 3.55057 0
M  V30 28383 N 2849.78 -1.1126 1.1162 0
M  V30 28384 C 2851 -1.86838 0.888772 0
M  V30 28385 C 2851.42 -1.80256 -0.561527 0
M  V30 28386 O 2850.78 -1.18517 -1.3878 0
M  V30 28387 C 2850.83 -3.35576 1.34427 0
M  V30 28388 O 2850.55 -3.42024 2.73772 0
M  V30 28389 C 2852.05 -4.28055 1.15254 0
M  V30 28390 H 2849.27 -0.590774 0.318163 0
M  V30 28391 H 2851.81 -1.40704 1.484 0
M  V30 28392 H 2849.97 -3.79208 0.792457 0
M  V30 28393 H 2850.38 -4.34654 2.93558 0
M  V30 28394 H 2851.86 -5.30653 1.52024 0
M  V30 28395 H 2852.33 -4.39103 0.0922779 0
M  V30 28396 H 2852.94 -3.90219 1.69143 0
M  V30 28397 N 2851.25 -0.906798 -1.28899 0
M  V30 28398 C 2852.5 -0.537155 -1.95557 0
M  V30 28399 C 2852.83 0.915552 -1.71264 0
M  V30 28400 O 2852.11 1.65011 -1.02964 0
M  V30 28401 C 2852.39 -0.838707 -3.50197 0
M  V30 28402 C 2852.24 -2.34364 -3.83919 0
M  V30 28403 C 2853.56 -0.330065 -4.38861 0
M  V30 28404 H 2850.68 -0.19663 -0.710286 0
M  V30 28405 H 2853.32 -1.13478 -1.5239 0
M  V30 28406 H 2851.47 -0.330092 -3.87095 0
M  V30 28407 H 2853.15 -2.92234 -3.56928 0
M  V30 28408 H 2851.39 -2.80147 -3.3121 0
M  V30 28409 H 2852.06 -2.50519 -4.91878 0
M  V30 28410 H 2854.54 -0.765681 -4.08995 0
M  V30 28411 H 2853.41 -0.5702 -5.4593 0
M  V30 28412 H 2853.67 0.769435 -4.35353 0
M  V30 28413 N 2852.73 1.42648 -0.670032 0
M  V30 28414 C 2853.96 2.05945 -0.198576 0
M  V30 28415 C 2854.38 1.50315 1.1424 0
M  V30 28416 O 2853.73 0.641057 1.7087 0
M  V30 28417 C 2853.78 3.61302 -0.119724 0
M  V30 28418 O 2853.5 4.14868 -1.40771 0
M  V30 28419 C 2855.01 4.41704 0.375801 0
M  V30 28420 H 2852.23 0.663849 -0.0977011 0
M  V30 28421 H 2854.77 1.82867 -0.915424 0
M  V30 28422 H 2852.92 3.83508 0.547783 0
M  V30 28423 H 2853.34 5.08694 -1.27793 0
M  V30 28424 H 2854.81 5.50691 0.379891 0
M  V30 28425 H 2855.29 4.15944 1.41021 0
M  V30 28426 H 2855.9 4.24506 -0.259801 0
M  V30 28427 N 2854.21 0.413044 1.52091 0
M  V30 28428 C 2855.62 -0.0556639 1.86617 0
M  V30 28429 C 2855.97 -1.44094 1.33159 0
M  V30 28430 O 2855.1 -2.05687 0.672453 0
M  V30 28431 C 2855.69 -0.107785 3.38629 0
M  V30 28432 C 2854.25 -0.520838 3.72779 0
M  V30 28433 C 2853.4 0.302158 2.75649 0
M  V30 28434 H 2856.35 0.629944 1.45662 0
M  V30 28435 H 2856.37 -0.922259 3.69154 0
M  V30 28436 H 2855.88 0.900572 3.77507 0
M  V30 28437 H 2853.98 -1.53569 3.39481 0
M  V30 28438 H 2854.1 -0.262506 4.7838 0
M  V30 28439 H 2852.46 -0.236071 2.53604 0
M  V30 28440 H 2853.24 1.30894 3.17367 0
M  V30 28441 N 2855.69 -1.56945 0.143591 0
M  V30 28442 C 2856.92 -2.00377 -0.515412 0
M  V30 28443 C 2857.33 -1.02364 -1.58641 0
M  V30 28444 O 2856.69 -0.020136 -1.82489 0
M  V30 28445 C 2856.74 -3.43739 -1.11917 0
M  V30 28446 O 2856.46 -4.38006 -0.0909548 0
M  V30 28447 C 2857.96 -4.02432 -1.85911 0
M  V30 28448 H 2855.18 -0.657389 -0.134466 0
M  V30 28449 H 2857.73 -2.0312 0.23717 0
M  V30 28450 H 2855.88 -3.41859 -1.82239 0
M  V30 28451 H 2856.3 -5.21787 -0.532825 0
M  V30 28452 H 2857.77 -5.04751 -2.23451 0
M  V30 28453 H 2858.25 -3.42952 -2.74374 0
M  V30 28454 H 2858.85 -4.07933 -1.20296 0
M  V30 28455 N 2857.17 0.130197 -1.57061 0
M  V30 28456 C 2858.58 0.68853 -1.7354 0
M  V30 28457 C 2858.93 1.80858 -0.760586 0
M  V30 28458 O 2858.05 2.1629 0.0690416 0
M  V30 28459 C 2858.65 1.25575 -3.14668 0
M  V30 28460 C 2857.21 1.76049 -3.32692 0
M  V30 28461 C 2856.36 0.655664 -2.69437 0
M  V30 28462 H 2859.31 -0.095628 -1.58412 0
M  V30 28463 H 2859.33 2.1255 -3.15599 0
M  V30 28464 H 2858.84 0.440344 -3.85594 0
M  V30 28465 H 2856.94 2.60103 -2.66791 0
M  V30 28466 H 2857.05 1.87764 -4.40774 0
M  V30 28467 H 2855.42 1.0865 -2.30364 0
M  V30 28468 H 2856.2 -0.148581 -3.42978 0
M  V30 28469 N 2858.65 1.52438 0.400055 0
M  V30 28470 C 2859.87 1.70803 1.16765 0
M  V30 28471 C 2860.29 0.421494 1.84035 0
M  V30 28472 O 2859.65 -0.603198 1.72243 0
M  V30 28473 C 2859.7 2.84994 2.22398 0
M  V30 28474 O 2859.42 4.08666 1.57872 0
M  V30 28475 C 2860.92 3.14945 3.11969 0
M  V30 28476 H 2858.14 0.572167 0.350523 0
M  V30 28477 H 2860.68 1.99038 0.469499 0
M  V30 28478 H 2858.84 2.59252 2.87866 0
M  V30 28479 H 2859.25 4.72364 2.27974 0
M  V30 28480 H 2860.73 3.98337 3.82141 0
M  V30 28481 H 2861.2 2.2887 3.74854 0
M  V30 28482 H 2861.81 3.42485 2.52159 0
M  V30 28483 N 2860.12 -0.657839 1.43214 0
M  V30 28484 C 2861.53 -1.2389 1.39671 0
M  V30 28485 C 2861.89 -1.95953 0.0984561 0
M  V30 28486 O 2861.01 -2.00979 -0.802265 0
M  V30 28487 C 2861.61 -2.25327 2.53008 0
M  V30 28488 C 2860.16 -2.78921 2.52745 0
M  V30 28489 C 2859.31 -1.53493 2.30944 0
M  V30 28490 H 2862.26 -0.450146 1.52182 0
M  V30 28491 H 2862.28 -3.07409 2.24232 0
M  V30 28492 H 2861.8 -1.7285 3.47483 0
M  V30 28493 H 2859.9 -3.35474 1.62136 0
M  V30 28494 H 2860.01 -3.26781 3.50358 0
M  V30 28495 H 2858.37 -1.80675 1.79524 0
M  V30 28496 H 2859.16 -1.02958 3.27498 0
M  V30 28497 N 2861.6 -1.29668 -0.895769 0
M  V30 28498 C 2862.83 -1.20764 -1.67999 0
M  V30 28499 C 2863.24 0.231154 -1.8738 0
M  V30 28500 O 2862.6 1.15426 -1.41361 0
M  V30 28501 C 2862.65 -1.92103 -3.06233 0
M  V30 28502 O 2862.37 -3.30364 -2.87734 0
M  V30 28503 C 2863.87 -1.89724 -4.00649 0
M  V30 28504 H 2861.09 -0.418393 -0.524584 0
M  V30 28505 H 2863.64 -1.71108 -1.11992 0
M  V30 28506 H 2861.79 -1.45585 -3.59004 0
M  V30 28507 H 2862.21 -3.66348 -3.75352 0
M  V30 28508 H 2863.68 -2.44198 -4.95047 0
M  V30 28509 H 2864.16 -0.87367 -4.30423 0
M  V30 28510 H 2864.76 -2.36005 -3.53811 0
M  V30 28511 N 2863.08 1.10667 -1.12208 0
M  V30 28512 C 2864.33 1.82216 -0.874176 0
M  V30 28513 C 2864.65 1.85485 0.601703 0
M  V30 28514 O 2863.92 1.33118 1.43723 0
M  V30 28515 H 2862.5 0.674791 -0.320416 0
M  V30 28516 H 2865.16 1.33915 -1.41608 0
M  V30 28517 H 2864.26 2.85819 -1.25354 0
M  V30 28518 N 2864.56 0.913621 1.28416 0
M  V30 28519 C 2865.79 0.562571 1.99105 0
M  V30 28520 C 2866.2 -0.856107 1.68274 0
M  V30 28521 O 2865.56 -1.56703 0.935429 0
M  V30 28522 C 2865.61 0.761965 3.53378 0
M  V30 28523 O 2865.33 2.12482 3.83123 0
M  V30 28524 C 2866.83 0.417729 4.41327 0
M  V30 28525 H 2864.05 0.214492 0.635794 0
M  V30 28526 H 2866.59 1.22679 1.63616 0
M  V30 28527 H 2864.75 0.144744 3.8713 0
M  V30 28528 H 2865.16 2.1644 4.77759 0
M  V30 28529 H 2866.64 0.608015 5.48641 0
M  V30 28530 H 2867.11 -0.646031 4.34423 0
M  V30 28531 H 2867.72 1.01248 4.13072 0
M  V30 28532 N 2866.04 -1.4229 0.677588 0
M  V30 28533 C 2866.97 -2.29169 -0.0379815 0
M  V30 28534 C 2867.98 -1.43829 -0.762689 0
M  V30 28535 O 2869.17 -1.6752 -0.616383 0
M  V30 28536 C 2866.27 -3.21313 -1.07755 0
M  V30 28537 C 2865.44 -4.3532 -0.426103 0
M  V30 28538 C 2864.5 -5.08165 -1.36583 0
M  V30 28539 O 2863.53 -5.62588 -0.865075 0
M  V30 28540 N 2864.73 -5.1394 -2.699 0
M  V30 28541 H 2867.49 -2.91222 0.707817 0
M  V30 28542 H 2865.06 -1.53247 0.522217 0
M  V30 28543 H 2867.05 -3.66913 -1.70755 0
M  V30 28544 H 2865.62 -2.60692 -1.72506 0
M  V30 28545 H 2864.84 -3.92331 0.383454 0
M  V30 28546 H 2866.13 -5.08793 0.0276171 0
M  V30 28547 H 2865.52 -4.71139 -3.1312 0
M  V30 28548 H 2864.08 -5.63176 -3.2814 0
M  V30 28549 N 2867.51 -0.421104 -1.5187 0
M  V30 28550 C 2868.74 0.149904 -2.06356 0
M  V30 28551 C 2869.16 1.37849 -1.29008 0
M  V30 28552 O 2868.51 1.79206 -0.34517 0
M  V30 28553 C 2868.56 0.488391 -3.58186 0
M  V30 28554 O 2868.29 -0.691417 -4.3261 0
M  V30 28555 C 2869.79 1.11184 -4.29131 0
M  V30 28556 H 2867.01 0.0151068 -0.67083 0
M  V30 28557 H 2869.55 -0.59551 -1.95637 0
M  V30 28558 H 2867.71 1.1837 -3.68873 0
M  V30 28559 H 2868.12 -0.405998 -5.22926 0
M  V30 28560 H 2869.59 1.29879 -5.36503 0
M  V30 28561 H 2870.07 2.08833 -3.86375 0
M  V30 28562 H 2870.68 0.456384 -4.22844 0
M  V30 28563 N 2868.99 1.56866 -0.151912 0
M  V30 28564 C 2870.4 1.83035 0.368096 0
M  V30 28565 C 2870.75 1.07085 1.644 0
M  V30 28566 O 2869.88 0.317685 2.14055 0
M  V30 28567 C 2870.47 3.32016 0.674617 0
M  V30 28568 C 2869.03 3.58749 1.13913 0
M  V30 28569 C 2868.18 2.7681 0.164784 0
M  V30 28570 H 2871.13 1.54169 -0.376526 0
M  V30 28571 H 2871.15 3.48438 1.52877 0
M  V30 28572 H 2870.66 3.87267 -0.254181 0
M  V30 28573 H 2868.77 3.0889 2.0837 0
M  V30 28574 H 2868.88 4.67188 1.06171 0
M  V30 28575 H 2867.24 2.46044 0.658376 0
M  V30 28576 H 2868.03 3.34834 -0.757691 0
M  V30 28577 N 2870.47 -0.121866 1.57128 0
M  V30 28578 C 2871.7 -0.844418 1.88884 0
M  V30 28579 C 2872.11 -1.73572 0.742854 0
M  V30 28580 O 2871.47 -1.80238 -0.286443 0
M  V30 28581 C 2871.52 -1.68023 3.20079 0
M  V30 28582 O 2871.24 -0.824823 4.30265 0
M  V30 28583 C 2872.74 -2.50819 3.6552 0
M  V30 28584 H 2869.96 -0.242896 0.625494 0
M  V30 28585 H 2872.51 -0.107115 2.04219 0
M  V30 28586 H 2870.66 -2.37032 3.06422 0
M  V30 28587 H 2871.08 -1.40104 5.05441 0
M  V30 28588 H 2872.55 -3.05 4.60086 0
M  V30 28589 H 2873.03 -3.28043 2.92035 0
M  V30 28590 H 2873.63 -1.87057 3.81955 0
M  V30 28591 N 2871.95 -1.52648 -0.391965 0
M  V30 28592 C 2873.18 -1.7142 -1.15857 0
M  V30 28593 C 2873.59 -0.431248 -1.83809 0
M  V30 28594 O 2872.95 0.594055 -1.72561 0
M  V30 28595 C 2873 -2.86169 -2.20883 0
M  V30 28596 O 2872.72 -4.09498 -1.55703 0
M  V30 28597 C 2874.22 -3.16595 -3.10294 0
M  V30 28598 H 2871.44 -0.574018 -0.347484 0
M  V30 28599 H 2873.99 -1.99284 -0.458937 0
M  V30 28600 H 2872.14 -2.60775 -2.86487 0
M  V30 28601 H 2872.55 -4.73567 -2.25466 0
M  V30 28602 H 2874.03 -4.00358 -3.80023 0
M  V30 28603 H 2874.51 -2.30854 -3.73635 0
M  V30 28604 H 2875.11 -3.43818 -2.50339 0
M  V30 28605 N 2873.43 0.650235 -1.43561 0
M  V30 28606 C 2874.65 1.43776 -1.48782 0
M  V30 28607 C 2875.07 1.88499 -0.106626 0
M  V30 28608 O 2874.43 1.59676 0.883738 0
M  V30 28609 C 2874.48 2.67077 -2.43623 0
M  V30 28610 O 2874.2 2.24224 -3.76371 0
M  V30 28611 C 2875.7 3.60404 -2.58116 0
M  V30 28612 H 2872.92 0.441584 -0.505217 0
M  V30 28613 H 2875.46 0.796908 -1.88334 0
M  V30 28614 H 2873.62 3.27296 -2.07258 0
M  V30 28615 H 2874.03 3.04023 -4.274 0
M  V30 28616 H 2875.51 4.43578 -3.28547 0
M  V30 28617 H 2875.98 4.0795 -1.62707 0
M  V30 28618 H 2876.59 3.06065 -2.95304 0
M  V30 28619 N 2874.9 1.30141 0.88888 0
M  V30 28620 C 2876.32 1.16896 1.45576 0
M  V30 28621 C 2876.67 -0.231832 1.94826 0
M  V30 28622 O 2875.79 -1.12821 1.84663 0
M  V30 28623 C 2876.39 2.11599 2.64596 0
M  V30 28624 C 2874.95 2.02344 3.17386 0
M  V30 28625 C 2874.09 2.01905 1.90078 0
M  V30 28626 H 2877.04 1.42468 0.699185 0
M  V30 28627 H 2877.06 1.69455 3.40684 0
M  V30 28628 H 2876.58 3.13542 2.2872 0
M  V30 28629 H 2874.68 1.03529 3.57928 0
M  V30 28630 H 2874.79 2.9054 3.8095 0
M  V30 28631 H 2873.15 1.46652 2.08243 0
M  V30 28632 H 2873.94 3.05571 1.56465 0
M  V30 28633 N 2876.38 -1.1007 1.12794 0
M  V30 28634 C 2877.63 -1.81478 0.880264 0
M  V30 28635 C 2877.94 -1.86313 -0.595542 0
M  V30 28636 O 2879.15 -2.53964 -0.959934 0
M  V30 28637 C 2877.61 -3.25984 1.5252 0
M  V30 28638 C 2877.21 -3.29435 3.03606 0
M  V30 28639 C 2878.96 -4.02194 1.35795 0
M  V30 28640 C 2876.87 -4.68425 3.61015 0
M  V30 28641 H 2875.8 -0.680042 0.325666 0
M  V30 28642 H 2878.45 -1.23756 1.35487 0
M  V30 28643 H 2876.83 -3.83727 0.978256 0
M  V30 28644 H 2878 -2.81496 3.64824 0
M  V30 28645 H 2876.32 -2.66713 3.1977 0
M  V30 28646 H 2878.91 -5.04867 1.76105 0
M  V30 28647 H 2879.26 -4.15203 0.302045 0
M  V30 28648 H 2879.79 -3.50876 1.87432 0
M  V30 28649 H 2876.53 -4.60616 4.66383 0
M  V30 28650 H 2876.05 -5.16716 3.04573 0
M  V30 28651 H 2877.73 -5.37396 3.60298 0
M  V30 28652 N 2877.86 -0.920419 -1.2793 0
M  V30 28653 C 2879.09 -0.573122 -1.98804 0
M  V30 28654 C 2879.5 0.847171 -1.68726 0
M  V30 28655 O 2878.86 1.56205 -0.943726 0
M  V30 28656 C 2878.91 -0.780695 -3.52969 0
M  V30 28657 O 2878.63 -2.14511 -3.81991 0
M  V30 28658 C 2880.13 -0.441127 -4.411 0
M  V30 28659 H 2877.35 -0.217861 -0.634648 0
M  V30 28660 H 2879.9 -1.23545 -1.62963 0
M  V30 28661 H 2878.05 -0.165272 -3.87047 0
M  V30 28662 H 2878.47 -2.1897 -4.76605 0
M  V30 28663 H 2879.94 -0.637102 -5.48311 0
M  V30 28664 H 2880.42 0.622984 -4.34759 0
M  V30 28665 H 2881.02 -1.03438 -4.1253 0
M  V30 28666 N 2879.34 1.41929 -0.685124 0
M  V30 28667 C 2880.57 2.05723 -0.220408 0
M  V30 28668 C 2880.98 1.51518 1.1264 0
M  V30 28669 O 2880.34 0.659144 1.70181 0
M  V30 28670 C 2880.39 3.61154 -0.158038 0
M  V30 28671 O 2880.11 4.13351 -1.45163 0
M  V30 28672 C 2881.61 4.42078 0.328931 0
M  V30 28673 H 2878.83 0.662775 -0.104737 0
M  V30 28674 H 2881.38 1.81885 -0.934768 0
M  V30 28675 H 2879.53 3.84067 0.507076 0
M  V30 28676 H 2879.94 5.0731 -1.33181 0
M  V30 28677 H 2881.42 5.51063 0.321462 0
M  V30 28678 H 2881.9 4.17417 1.36601 0
M  V30 28679 H 2882.5 4.24206 -0.304811 0
M  V30 28680 N 2880.82 0.429152 1.51644 0
M  V30 28681 C 2882.04 -0.138958 2.06433 0
M  V30 28682 C 2882.46 -1.37163 1.29737 0
M  V30 28683 O 2881.82 -1.79021 0.354669 0
M  V30 28684 C 2881.87 -0.469389 3.5844 0
M  V30 28685 O 2881.59 0.714349 4.32237 0
M  V30 28686 C 2883.09 -1.08906 4.29714 0
M  V30 28687 H 2880.31 -0.011549 0.670901 0
M  V30 28688 H 2882.85 0.605877 1.95319 0
M  V30 28689 H 2881.01 -1.16412 3.69496 0
M  V30 28690 H 2881.42 0.433725 5.22704 0
M  V30 28691 H 2882.9 -1.27032 5.37184 0
M  V30 28692 H 2883.37 -2.06781 3.87477 0
M  V30 28693 H 2883.98 -0.433953 4.2308 0
M  V30 28694 N 2882.29 -1.56783 0.160229 0
M  V30 28695 C 2883.52 -2.00913 -0.49413 0
M  V30 28696 C 2883.94 -1.04041 -1.57546 0
M  V30 28697 O 2883.29 -0.0394902 -1.82457 0
M  V30 28698 C 2883.35 -3.44907 -1.08265 0
M  V30 28699 O 2883.07 -4.38077 -0.0444934 0
M  V30 28700 C 2884.57 -4.04382 -1.81633 0
M  V30 28701 H 2881.79 -0.658778 -0.127486 0
M  V30 28702 H 2884.33 -2.02857 0.258701 0
M  V30 28703 H 2882.49 -3.43773 -1.78603 0
M  V30 28704 H 2882.9 -5.22322 -0.477452 0
M  V30 28705 H 2884.37 -5.07093 -2.18085 0
M  V30 28706 H 2884.85 -3.45842 -2.70721 0
M  V30 28707 H 2885.46 -4.09186 -1.15962 0
M  V30 28708 N 2883.77 0.113531 -1.57191 0
M  V30 28709 C 2885 0.834389 -1.89329 0
M  V30 28710 C 2885.42 1.73175 -0.752049 0
M  V30 28711 O 2884.77 1.80387 0.276881 0
M  V30 28712 C 2884.82 1.66324 -3.20965 0
M  V30 28713 O 2884.55 0.801993 -4.30697 0
M  V30 28714 C 2886.05 2.48877 -3.66845 0
M  V30 28715 H 2883.27 0.239576 -0.626773 0
M  V30 28716 H 2885.81 0.0962836 -2.04273 0
M  V30 28717 H 2883.97 2.35404 -3.07675 0
M  V30 28718 H 2884.38 1.37422 -5.06177 0
M  V30 28719 H 2885.85 3.02555 -4.61697 0
M  V30 28720 H 2886.33 3.2649 -2.93771 0
M  V30 28721 H 2886.94 1.85029 -3.82942 0
M  V30 28722 N 2885.25 1.52854 0.383864 0
M  V30 28723 C 2886.5 1.68397 1.13006 0
M  V30 28724 C 2886.83 0.425229 1.89487 0
M  V30 28725 O 2886.11 -0.577104 1.85741 0
M  V30 28726 C 2886.39 2.92229 2.10414 0
M  V30 28727 C 2886.24 4.28216 1.37662 0
M  V30 28728 C 2887.56 3.11619 3.10776 0
M  V30 28729 H 2884.68 0.612795 0.409452 0
M  V30 28730 H 2887.32 1.8546 0.412863 0
M  V30 28731 H 2885.47 2.77812 2.71574 0
M  V30 28732 H 2887.14 4.54411 0.794272 0
M  V30 28733 H 2885.39 4.28462 0.678458 0
M  V30 28734 H 2886.06 5.10959 2.08865 0
M  V30 28735 H 2888.53 3.25101 2.59709 0
M  V30 28736 H 2887.41 3.99732 3.76172 0
M  V30 28737 H 2887.67 2.26067 3.79929 0
M  V30 28738 N 2886.73 -0.642612 1.43904 0
M  V30 28739 C 2887.96 -1.42985 1.49542 0
M  V30 28740 C 2888.37 -1.88439 0.116621 0
M  V30 28741 O 2887.73 -1.60142 -0.875257 0
M  V30 28742 C 2887.78 -2.65781 2.45036 0
M  V30 28743 O 2887.5 -2.22225 3.77555 0
M  V30 28744 C 2889 -3.5903 2.60024 0
M  V30 28745 H 2886.22 -0.438899 0.507552 0
M  V30 28746 H 2888.77 -0.786909 1.88754 0
M  V30 28747 H 2886.92 -3.26192 2.08991 0
M  V30 28748 H 2887.34 -3.01752 4.29006 0
M  V30 28749 H 2888.81 -4.41829 3.30894 0
M  V30 28750 H 2889.29 -4.07081 1.64868 0
M  V30 28751 H 2889.89 -3.04495 2.96923 0
M  V30 28752 N 2888.21 -1.30611 -0.881966 0
M  V30 28753 C 2889.62 -1.17666 -1.44954 0
M  V30 28754 C 2889.97 0.221497 -1.94946 0
M  V30 28755 O 2889.09 1.1184 -1.85259 0
M  V30 28756 C 2889.69 -2.13 -2.6347 0
M  V30 28757 C 2888.25 -2.04025 -3.16308 0
M  V30 28758 C 2887.4 -2.0291 -1.89004 0
M  V30 28759 H 2890.35 -1.42837 -0.69162 0
M  V30 28760 H 2890.37 -1.71259 -3.3978 0
M  V30 28761 H 2889.88 -3.1475 -2.27054 0
M  V30 28762 H 2887.98 -1.05426 -3.57374 0
M  V30 28763 H 2888.09 -2.92556 -3.79404 0
M  V30 28764 H 2886.46 -1.47754 -2.07463 0
M  V30 28765 H 2887.24 -3.06396 -1.54842 0
M  V30 28766 N 2889.69 1.0947 -1.13376 0
M  V30 28767 C 2890.91 1.854 -0.918384 0
M  V30 28768 C 2891.33 1.81127 0.532778 0
M  V30 28769 O 2890.69 1.2071 1.36877 0
M  V30 28770 C 2890.74 3.33395 -1.39749 0
M  V30 28771 O 2890.46 3.37626 -2.79178 0
M  V30 28772 C 2891.96 4.26168 -1.22049 0
M  V30 28773 H 2889.18 0.585637 -0.327521 0
M  V30 28774 H 2891.72 1.38325 -1.5062 0
M  V30 28775 H 2889.88 3.779 -0.852686 0
M  V30 28776 H 2890.29 4.29929 -3.00435 0
M  V30 28777 H 2891.77 5.28167 -1.60447 0
M  V30 28778 H 2892.24 4.38901 -0.162124 0
M  V30 28779 H 2892.85 3.87478 -1.7533 0
M  V30 28780 N 2891.16 0.92719 1.2744 0
M  V30 28781 C 2892.57 0.61201 1.76384 0
M  V30 28782 C 2892.93 -0.872822 1.75716 0
M  V30 28783 O 2892.05 -1.68297 1.36033 0
M  V30 28784 C 2892.65 1.1042 3.20301 0
M  V30 28785 C 2891.2 0.839692 3.66914 0
M  V30 28786 C 2890.35 1.26321 2.46857 0
M  V30 28787 H 2893.3 1.10702 1.13714 0
M  V30 28788 H 2893.32 0.451644 3.7781 0
M  V30 28789 H 2892.84 2.1849 3.20755 0
M  V30 28790 H 2890.94 -0.227226 3.71906 0
M  V30 28791 H 2891.05 1.45687 4.56412 0
M  V30 28792 H 2889.41 0.681766 2.45406 0
M  V30 28793 H 2890.2 2.35254 2.50021 0
M  V30 28794 N 2892.64 -1.41564 0.692641 0
M  V30 28795 C 2893.87 -2.05603 0.231315 0
M  V30 28796 C 2894.28 -1.52113 -1.11835 0
M  V30 28797 O 2893.64 -0.66816 -1.69829 0
M  V30 28798 C 2893.69 -3.61065 0.177189 0
M  V30 28799 O 2893.41 -4.12576 1.47353 0
M  V30 28800 C 2894.91 -4.42246 -0.305482 0
M  V30 28801 H 2892.13 -0.662211 0.10825 0
M  V30 28802 H 2894.68 -1.81387 0.944401 0
M  V30 28803 H 2892.83 -3.84331 -0.486701 0
M  V30 28804 H 2893.25 -5.06596 1.3587 0
M  V30 28805 H 2894.72 -5.51226 -0.292233 0
M  V30 28806 H 2895.2 -4.18135 -1.34386 0
M  V30 28807 H 2895.8 -4.24039 0.327304 0
M  V30 28808 N 2894.12 -0.437188 -1.51415 0
M  V30 28809 C 2895.53 0.0259677 -1.86682 0
M  V30 28810 C 2895.88 1.41957 -1.35435 0
M  V30 28811 O 2895.01 2.04591 -0.705091 0
M  V30 28812 C 2895.6 0.0538982 -3.38757 0
M  V30 28813 C 2894.16 0.461466 -3.73561 0
M  V30 28814 C 2893.31 -0.345973 -2.75133 0
M  V30 28815 H 2896.26 -0.653038 -1.44641 0
M  V30 28816 H 2896.28 0.863413 -3.70574 0
M  V30 28817 H 2895.79 -0.960516 -3.76026 0
M  V30 28818 H 2893.89 1.48149 -3.41881 0
M  V30 28819 H 2894.01 0.186367 -4.78737 0
M  V30 28820 H 2892.37 0.195695 -2.53947 0
M  V30 28821 H 2893.15 -1.35926 -3.15244 0
M  V30 28822 N 2895.6 1.56696 -0.168541 0
M  V30 28823 C 2896.83 2.01172 0.483468 0
M  V30 28824 C 2897.24 1.04875 1.56992 0
M  V30 28825 O 2896.6 0.0491658 1.82434 0
M  V30 28826 C 2896.65 3.45476 1.06434 0
M  V30 28827 O 2896.37 4.38095 0.0212604 0
M  V30 28828 C 2897.87 4.05339 1.79485 0
M  V30 28829 H 2895.09 0.659445 0.123991 0
M  V30 28830 H 2897.63 2.02717 -0.269455 0
M  V30 28831 H 2895.79 3.44715 1.76778 0
M  V30 28832 H 2896.2 5.22568 0.449745 0
M  V30 28833 H 2897.68 5.08242 2.15392 0
M  V30 28834 H 2898.15 3.47273 2.68883 0
M  V30 28835 H 2898.76 4.09795 1.1379 0
M  V30 28836 N 2897.08 -0.105193 1.57249 0
M  V30 28837 C 2898.32 -0.808918 1.85205 0
M  V30 28838 C 2898.64 -1.79758 0.755772 0
M  V30 28839 O 2897.91 -1.94673 -0.21895 0
M  V30 28840 H 2896.49 -0.301727 0.683352 0
M  V30 28841 H 2899.16 -0.0892263 1.94696 0
M  V30 28842 H 2898.25 -1.3457 2.81598 0
M  V30 28843 N 2898.55 -1.53055 -0.375752 0
M  V30 28844 C 2899.78 -1.72639 -1.14033 0
M  V30 28845 C 2900.2 -0.450719 -1.83341 0
M  V30 28846 O 2899.55 0.575719 -1.73181 0
M  V30 28847 C 2899.61 -2.88496 -2.17836 0
M  V30 28848 O 2899.33 -4.11126 -1.51351 0
M  V30 28849 C 2900.83 -3.19869 -3.06919 0
M  V30 28850 H 2898.05 -0.577671 -0.341376 0
M  V30 28851 H 2900.59 -1.99759 -0.437774 0
M  V30 28852 H 2898.75 -2.63799 -2.83705 0
M  V30 28853 H 2899.16 -4.75931 -2.2043 0
M  V30 28854 H 2900.63 -4.04366 -3.75755 0
M  V30 28855 H 2901.11 -2.34804 -3.71165 0
M  V30 28856 H 2901.72 -3.46454 -2.46678 0
M  V30 28857 N 2900.03 0.634971 -1.44242 0
M  V30 28858 C 2900.96 1.76021 -1.46796 0
M  V30 28859 C 2901.98 1.58729 -0.361808 0
M  V30 28860 O 2903.17 1.67113 -0.627326 0
M  V30 28861 C 2900.27 3.13694 -1.28254 0
M  V30 28862 C 2899.44 3.57481 -2.52044 0
M  V30 28863 C 2898.5 4.74018 -2.28458 0
M  V30 28864 O 2897.52 4.82526 -3.01923 0
M  V30 28865 N 2898.73 5.65462 -1.31274 0
M  V30 28866 H 2901.49 1.74303 -2.438 0
M  V30 28867 H 2899.05 0.819414 -1.39632 0
M  V30 28868 H 2901.04 3.89371 -1.10328 0
M  V30 28869 H 2899.61 3.10078 -0.396284 0
M  V30 28870 H 2898.83 2.72054 -2.85273 0
M  V30 28871 H 2900.12 3.83486 -3.34389 0
M  V30 28872 H 2899.52 5.61278 -0.705916 0
M  V30 28873 H 2898.08 6.40784 -1.19328 0
M  V30 28874 N 2901.51 1.31076 0.875027 0
M  V30 28875 C 2902.74 1.23422 1.66056 0
M  V30 28876 C 2903.15 -0.201314 1.87724 0
M  V30 28877 O 2902.51 -1.13163 1.4318 0
M  V30 28878 C 2902.56 1.96951 3.03138 0
M  V30 28879 O 2902.28 3.349 2.82442 0
M  V30 28880 C 2903.78 1.96074 3.9758 0
M  V30 28881 H 2901 0.426686 0.517861 0
M  V30 28882 H 2903.55 1.72868 1.09255 0
M  V30 28883 H 2901.7 1.51278 3.56642 0
M  V30 28884 H 2902.12 3.72273 3.69476 0
M  V30 28885 H 2903.59 2.52043 4.91099 0
M  V30 28886 H 2904.07 0.942036 4.28978 0
M  V30 28887 H 2904.67 2.41604 3.50011 0
M  V30 28888 N 2902.99 -1.08867 1.13955 0
M  V30 28889 C 2904.4 -1.62647 0.916677 0
M  V30 28890 C 2904.75 -1.88463 -0.545556 0
M  V30 28891 O 2903.88 -1.63859 -1.41348 0
M  V30 28892 C 2904.47 -2.95483 1.65757 0
M  V30 28893 C 2903.03 -3.46065 1.48041 0
M  V30 28894 C 2902.18 -2.2038 1.68309 0
M  V30 28895 H 2905.13 -0.921549 1.29202 0
M  V30 28896 H 2905.15 -3.63705 1.118 0
M  V30 28897 H 2904.66 -2.76662 2.72176 0
M  V30 28898 H 2902.76 -3.69999 0.439481 0
M  V30 28899 H 2902.87 -4.23125 2.24726 0
M  V30 28900 H 2901.24 -2.29319 1.10837 0
M  V30 28901 H 2902.02 -2.04072 2.76061 0
M  V30 28902 N 2904.47 -0.933936 -1.26946 0
M  V30 28903 C 2905.69 -0.594175 -1.98185 0
M  V30 28904 C 2906.11 0.829228 -1.69615 0
M  V30 28905 O 2905.47 1.55195 -0.960241 0
M  V30 28906 C 2905.52 -0.818088 -3.52122 0
M  V30 28907 O 2905.24 -2.1855 -3.79694 0
M  V30 28908 C 2906.74 -0.487887 -4.40607 0
M  V30 28909 H 2903.96 -0.22458 -0.632301 0
M  V30 28910 H 2906.5 -1.25266 -1.61643 0
M  V30 28911 H 2904.66 -0.206314 -3.8685 0
M  V30 28912 H 2905.07 -2.24013 -4.74256 0
M  V30 28913 H 2906.55 -0.695222 -5.47604 0
M  V30 28914 H 2907.02 0.576837 -4.35395 0
M  V30 28915 H 2907.63 -1.07807 -4.11409 0
M  V30 28916 N 2905.94 1.41194 -0.700139 0
M  V30 28917 C 2907.17 2.05477 -0.242215 0
M  V30 28918 C 2907.59 1.52704 1.11026 0
M  V30 28919 O 2906.94 0.677157 1.69472 0
M  V30 28920 C 2907 3.60966 -0.196334 0
M  V30 28921 O 2906.72 4.11788 -1.49539 0
M  V30 28922 C 2908.22 4.42402 0.282024 0
M  V30 28923 H 2905.44 0.661627 -0.11176 0
M  V30 28924 H 2907.98 1.80884 -0.954007 0
M  V30 28925 H 2906.14 3.84583 0.466312 0
M  V30 28926 H 2906.55 5.05868 -1.38554 0
M  V30 28927 H 2908.02 5.51373 0.262996 0
M  V30 28928 H 2908.5 4.18842 1.32166 0
M  V30 28929 H 2909.11 4.23859 -0.349787 0
M  V30 28930 N 2907.42 0.445212 1.51181 0
M  V30 28931 C 2908.65 -0.117055 2.06569 0
M  V30 28932 C 2909.07 -1.35779 1.31185 0
M  V30 28933 O 2908.42 -1.78634 0.373637 0
M  V30 28934 C 2908.47 -0.431345 3.58917 0
M  V30 28935 O 2908.19 0.760153 4.31455 0
M  V30 28936 C 2909.7 -1.04342 4.30845 0
M  V30 28937 H 2906.92 -0.00443256 0.670985 0
M  V30 28938 H 2909.46 0.626559 1.94665 0
M  V30 28939 H 2907.61 -1.12487 3.7071 0
M  V30 28940 H 2908.03 0.48914 5.22214 0
M  V30 28941 H 2909.5 -1.21328 5.38501 0
M  V30 28942 H 2909.98 -2.0266 3.89648 0
M  V30 28943 H 2910.59 -0.389055 4.23517 0
M  V30 28944 N 2908.9 -1.56605 0.176849 0
M  V30 28945 C 2910.31 -1.83598 -0.33893 0
M  V30 28946 C 2910.66 -1.09687 -1.62675 0
M  V30 28947 O 2909.79 -0.351699 -2.13523 0
M  V30 28948 C 2910.38 -3.33047 -0.621711 0
M  V30 28949 C 2908.94 -3.60516 -1.08191 0
M  V30 28950 C 2908.09 -2.77037 -0.120725 0
M  V30 28951 H 2911.04 -1.5355 0.401005 0
M  V30 28952 H 2911.06 -3.50826 -1.47314 0
M  V30 28953 H 2910.57 -3.86813 0.315759 0
M  V30 28954 H 2908.67 -3.12165 -2.03429 0
M  V30 28955 H 2908.79 -4.68818 -0.987247 0
M  V30 28956 H 2907.15 -2.4706 -0.619149 0
M  V30 28957 H 2907.93 -3.33586 0.810865 0
M  V30 28958 N 2910.38 0.0968524 -1.57302 0
M  V30 28959 C 2911.63 0.799356 -1.85184 0
M  V30 28960 C 2911.94 1.79984 -0.765849 0
M  V30 28961 O 2913.15 2.55011 -0.93174 0
M  V30 28962 C 2911.6 1.47244 -3.28401 0
M  V30 28963 C 2911.21 0.51181 -4.45067 0
M  V30 28964 C 2912.95 2.15877 -3.6551 0
M  V30 28965 C 2910.86 1.18938 -5.79317 0
M  V30 28966 H 2909.79 0.302275 -0.690758 0
M  V30 28967 H 2912.44 0.0522781 -1.83426 0
M  V30 28968 H 2910.82 2.26691 -3.24696 0
M  V30 28969 H 2912 -0.251043 -4.60116 0
M  V30 28970 H 2910.31 -0.0687308 -4.16343 0
M  V30 28971 H 2912.91 2.67301 -4.63092 0
M  V30 28972 H 2913.25 2.94691 -2.94046 0
M  V30 28973 H 2913.79 1.43292 -3.71096 0
M  V30 28974 H 2910.53 0.442083 -6.54008 0
M  V30 28975 H 2910.05 1.9237 -5.68114 0
M  V30 28976 H 2911.72 1.71636 -6.23819 0
M  V30 28977 N 2911.86 1.53252 0.36763 0
M  V30 28978 C 2913.08 1.73241 1.13116 0
M  V30 28979 C 2913.5 0.460436 1.831 0
M  V30 28980 O 2912.86 -0.566527 1.73484 0
M  V30 28981 C 2912.91 2.89647 2.16303 0
M  V30 28982 O 2912.63 4.11923 1.49168 0
M  V30 28983 C 2914.13 3.21492 3.05218 0
M  V30 28984 H 2911.35 0.579473 0.338308 0
M  V30 28985 H 2913.89 1.99989 0.427174 0
M  V30 28986 H 2912.05 2.653 2.82302 0
M  V30 28987 H 2912.46 4.77094 2.17903 0
M  V30 28988 H 2913.94 4.06353 3.73606 0
M  V30 28989 H 2914.41 2.36769 3.69915 0
M  V30 28990 H 2915.02 3.47757 2.44837 0
M  V30 28991 N 2913.34 -0.627313 1.44577 0
M  V30 28992 C 2914.56 -1.41391 1.5105 0
M  V30 28993 C 2914.98 -1.88305 0.136601 0
M  V30 28994 O 2914.34 -1.61061 -0.858223 0
M  V30 28995 C 2914.39 -2.63167 2.47841 0
M  V30 28996 O 2914.11 -2.18208 3.79891 0
M  V30 28997 C 2915.61 -3.56252 2.63817 0
M  V30 28998 H 2912.83 -0.433491 0.512179 0
M  V30 28999 H 2915.37 -0.766844 1.89578 0
M  V30 29000 H 2913.53 -3.23957 2.12439 0
M  V30 29001 H 2913.94 -2.97185 4.32182 0
M  V30 29002 H 2915.42 -4.38295 3.35562 0
M  V30 29003 H 2915.89 -4.0531 1.69176 0
M  V30 29004 H 2916.5 -3.01328 3.00136 0
M  V30 29005 N 2914.81 -1.31539 -0.868063 0
M  V30 29006 C 2916.04 -1.24301 -1.65399 0
M  V30 29007 C 2916.46 0.191356 -1.87828 0
M  V30 29008 O 2915.81 1.12402 -1.43778 0
M  V30 29009 C 2915.86 -1.98556 -3.02089 0
M  V30 29010 O 2915.59 -3.36393 -2.80662 0
M  V30 29011 C 2917.09 -1.9818 -3.96534 0
M  V30 29012 H 2914.31 -0.429426 -0.515591 0
M  V30 29013 H 2916.85 -1.73445 -1.08337 0
M  V30 29014 H 2915.01 -1.53167 -3.55835 0
M  V30 29015 H 2915.42 -3.74227 -3.67497 0
M  V30 29016 H 2916.89 -2.54644 -4.89756 0
M  V30 29017 H 2917.37 -0.964773 -4.28473 0
M  V30 29018 H 2917.98 -2.43456 -3.48725 0
M  V30 29019 N 2916.29 1.08262 -1.1453 0
M  V30 29020 C 2917.52 1.84416 -0.937996 0
M  V30 29021 C 2917.93 1.81682 0.513538 0
M  V30 29022 O 2917.29 1.22155 1.35589 0
M  V30 29023 C 2917.34 3.31894 -1.43277 0
M  V30 29024 O 2917.06 3.34646 -2.82744 0
M  V30 29025 C 2918.56 4.24849 -1.26562 0
M  V30 29026 H 2915.78 0.58213 -0.333714 0
M  V30 29027 H 2918.33 1.3672 -1.52078 0
M  V30 29028 H 2916.48 3.76974 -0.892719 0
M  V30 29029 H 2916.9 4.26718 -3.04978 0
M  V30 29030 H 2918.37 5.26436 -1.6604 0
M  V30 29031 H 2918.85 4.38704 -0.208666 0
M  V30 29032 H 2919.45 3.85597 -1.7943 0
M  V30 29033 N 2917.77 0.940655 1.26449 0
M  V30 29034 C 2919 0.604677 1.97867 0
M  V30 29035 C 2919.41 -0.820221 1.70052 0
M  V30 29036 O 2918.77 -1.54684 0.968457 0
M  V30 29037 C 2918.82 0.836751 3.51683 0
M  V30 29038 O 2918.54 2.20561 3.7853 0
M  V30 29039 C 2920.04 0.511247 4.40342 0
M  V30 29040 H 2917.26 0.22793 0.631101 0
M  V30 29041 H 2919.81 1.26122 1.60977 0
M  V30 29042 H 2917.96 0.226827 3.86735 0
M  V30 29043 H 2918.38 2.26525 4.73061 0
M  V30 29044 H 2919.85 0.724253 5.47228 0
M  V30 29045 H 2920.33 -0.553739 4.35695 0
M  V30 29046 H 2920.93 1.09988 4.10832 0
M  V30 29047 N 2919.25 -1.40821 0.707617 0
M  V30 29048 C 2920.49 -2.01326 0.244067 0
M  V30 29049 C 2920.83 -1.55957 -1.1572 0
M  V30 29050 O 2920.1 -0.776075 -1.78346 0
M  V30 29051 C 2920.38 -3.58718 0.315191 0
M  V30 29052 C 2920.24 -4.14181 1.75426 0
M  V30 29053 C 2921.56 -4.38948 -0.318174 0
M  V30 29054 H 2918.68 -0.731464 0.09016 0
M  V30 29055 H 2921.32 -1.67407 0.898614 0
M  V30 29056 H 2919.47 -3.87745 -0.242108 0
M  V30 29057 H 2921.14 -3.95983 2.36633 0
M  V30 29058 H 2919.38 -3.68769 2.28456 0
M  V30 29059 H 2920.05 -5.23342 1.75547 0
M  V30 29060 H 2922.53 -4.15805 0.156587 0
M  V30 29061 H 2921.41 -5.48384 -0.237923 0
M  V30 29062 H 2921.67 -4.19328 -1.40059 0
M  V30 29063 N 2920.73 -0.453223 -1.50943 0
M  V30 29064 C 2921.95 0.106099 -2.06628 0
M  V30 29065 C 2922.37 1.35082 -1.31903 0
M  V30 29066 O 2921.73 1.78434 -0.383105 0
M  V30 29067 C 2921.78 0.412305 -3.59141 0
M  V30 29068 O 2921.5 -0.783024 -4.31046 0
M  V30 29069 C 2923 1.02056 -4.31392 0
M  V30 29070 H 2920.22 0.000874102 -0.670999 0
M  V30 29071 H 2922.76 -0.636874 -1.9433 0
M  V30 29072 H 2920.92 1.10519 -3.71301 0
M  V30 29073 H 2921.33 -0.516827 -5.21947 0
M  V30 29074 H 2922.81 1.1847 -5.39137 0
M  V30 29075 H 2923.28 2.00591 -3.90717 0
M  V30 29076 H 2923.89 0.36659 -4.23717 0
M  V30 29077 N 2922.2 1.56509 -0.185151 0
M  V30 29078 C 2923.61 1.83775 0.329189 0
M  V30 29079 C 2923.97 1.10548 1.62091 0
M  V30 29080 O 2923.09 0.363018 2.13333 0
M  V30 29081 C 2923.69 3.33372 0.60404 0
M  V30 29082 C 2922.24 3.61084 1.06278 0
M  V30 29083 C 2921.39 2.77097 0.106031 0
M  V30 29084 H 2924.34 1.53335 -0.409143 0
M  V30 29085 H 2924.36 3.51602 1.45452 0
M  V30 29086 H 2923.88 3.8664 -0.336269 0
M  V30 29087 H 2921.98 3.1324 2.01771 0
M  V30 29088 H 2922.09 4.69335 0.96237 0
M  V30 29089 H 2920.45 2.47385 0.606038 0
M  V30 29090 H 2921.24 3.33152 -0.828544 0
M  V30 29091 N 2923.68 -0.0885089 1.57351 0
M  V30 29092 C 2924.91 -0.804163 1.90633 0
M  V30 29093 C 2925.32 -1.71957 0.779504 0
M  V30 29094 O 2924.68 -1.80805 -0.248147 0
M  V30 29095 C 2924.73 -1.61196 3.23571 0
M  V30 29096 O 2924.45 -0.733371 4.31918 0
M  V30 29097 C 2925.95 -2.43009 3.70758 0
M  V30 29098 H 2923.17 -0.229574 0.630505 0
M  V30 29099 H 2925.72 -0.0637733 2.04401 0
M  V30 29100 H 2923.87 -2.30479 3.11381 0
M  V30 29101 H 2924.29 -1.29352 5.083 0
M  V30 29102 H 2925.76 -2.95172 4.66452 0
M  V30 29103 H 2926.24 -3.21775 2.98928 0
M  V30 29104 H 2926.84 -1.78913 3.85837 0
M  V30 29105 N 2925.16 -1.53445 -0.359498 0
M  V30 29106 C 2926.57 -1.61543 -0.935981 0
M  V30 29107 C 2926.92 -0.486666 -1.90068 0
M  V30 29108 O 2926.05 0.386009 -2.12929 0
M  V30 29109 C 2926.64 -2.92809 -1.70436 0
M  V30 29110 C 2925.2 -3.03222 -2.23009 0
M  V30 29111 C 2924.35 -2.56883 -1.04434 0
M  V30 29112 H 2927.3 -1.58098 -0.138106 0
M  V30 29113 H 2927.32 -2.80953 -2.56604 0
M  V30 29114 H 2926.83 -3.74943 -1.00198 0
M  V30 29115 H 2924.93 -2.25689 -2.96471 0
M  V30 29116 H 2925.05 -4.08411 -2.50474 0
M  V30 29117 H 2923.41 -2.11905 -1.4131 0
M  V30 29118 H 2924.19 -3.4144 -0.356845 0
M  V30 29119 N 2926.64 0.619637 -1.44908 0
M  V30 29120 C 2927.87 1.40588 -1.51798 0
M  V30 29121 C 2928.28 1.8823 -0.146586 0
M  V30 29122 O 2927.64 1.61514 0.849669 0
M  V30 29123 C 2927.69 2.61849 -2.49233 0
M  V30 29124 O 2927.41 2.1619 -3.81043 0
M  V30 29125 C 2928.91 3.54848 -2.65703 0
M  V30 29126 H 2926.13 0.430768 -0.51447 0
M  V30 29127 H 2928.67 0.75678 -1.89982 0
M  V30 29128 H 2926.83 3.22826 -2.14154 0
M  V30 29129 H 2927.24 2.94889 -4.33752 0
M  V30 29130 H 2928.72 4.36509 -3.37882 0
M  V30 29131 H 2929.19 4.04407 -1.71323 0
M  V30 29132 H 2929.8 2.99732 -3.0173 0
M  V30 29133 N 2928.12 1.31997 0.861075 0
M  V30 29134 C 2929.53 1.19957 1.43063 0
M  V30 29135 C 2929.88 -0.190455 1.95273 0
M  V30 29136 O 2929 -1.08879 1.87014 0
M  V30 29137 C 2929.6 2.17164 2.60048 0
M  V30 29138 C 2928.16 2.09031 3.13022 0
M  V30 29139 C 2927.3 2.05892 1.85752 0
M  V30 29140 H 2930.26 1.43919 0.668809 0
M  V30 29141 H 2930.28 1.76643 3.37013 0
M  V30 29142 H 2929.79 3.18323 2.22018 0
M  V30 29143 H 2927.89 1.11098 3.55651 0
M  V30 29144 H 2928 2.98555 3.74702 0
M  V30 29145 H 2926.37 1.51036 2.05086 0
M  V30 29146 H 2927.15 3.08821 1.49948 0
M  V30 29147 N 2929.59 -1.07653 1.15103 0
M  V30 29148 C 2930.82 -1.83916 0.947763 0
M  V30 29149 C 2931.24 -1.81951 -0.503895 0
M  V30 29150 O 2930.59 -1.22873 -1.34939 0
M  V30 29151 C 2930.65 -3.3113 1.45035 0
M  V30 29152 O 2930.37 -3.33141 2.84514 0
M  V30 29153 C 2931.87 -4.24172 1.28814 0
M  V30 29154 H 2929.09 -0.580352 0.336797 0
M  V30 29155 H 2931.63 -1.35912 1.52801 0
M  V30 29156 H 2929.79 -3.76495 0.912698 0
M  V30 29157 H 2930.2 -4.25095 3.07237 0
M  V30 29158 H 2931.67 -5.25548 1.68829 0
M  V30 29159 H 2932.15 -4.38587 0.231928 0
M  V30 29160 H 2932.76 -3.8464 1.81472 0
M  V30 29161 N 2931.07 -0.947348 -1.25949 0
M  V30 29162 C 2932.32 -0.59703 -1.9308 0
M  V30 29163 C 2932.64 0.867641 -1.74634 0
M  V30 29164 O 2931.91 1.61718 -1.10562 0
M  V30 29165 H 2930.49 -0.217817 -0.714538 0
M  V30 29166 H 2933.15 -1.20401 -1.53263 0
M  V30 29167 H 2932.25 -0.820093 -3.01133 0
M  V30 29168 N 2932.55 1.40444 -0.715075 0
M  V30 29169 C 2933.78 2.05209 -0.263995 0
M  V30 29170 C 2934.19 1.53873 1.094 0
M  V30 29171 O 2933.55 0.695094 1.68744 0
M  V30 29172 C 2933.6 3.60738 -0.234608 0
M  V30 29173 O 2933.32 4.10179 -1.53898 0
M  V30 29174 C 2934.82 4.42676 0.235086 0
M  V30 29175 H 2932.04 0.660405 -0.118771 0
M  V30 29176 H 2934.59 1.79862 -0.973139 0
M  V30 29177 H 2932.74 3.85056 0.425496 0
M  V30 29178 H 2933.16 5.0437 -1.43912 0
M  V30 29179 H 2934.63 5.51621 0.204501 0
M  V30 29180 H 2935.11 4.2022 1.27716 0
M  V30 29181 H 2935.71 4.23464 -0.394723 0
M  V30 29182 N 2934.03 0.461222 1.507 0
M  V30 29183 C 2934.96 -0.374204 2.26125 0
M  V30 29184 C 2935.97 -0.965692 1.31066 0
M  V30 29185 O 2937.16 -0.855774 1.56649 0
M  V30 29186 C 2934.26 -1.53785 3.01999 0
M  V30 29187 C 2933.44 -1.06094 4.24338 0
M  V30 29188 C 2932.49 -2.09748 4.82589 0
M  V30 29189 O 2931.52 -1.6821 5.43778 0
M  V30 29190 N 2932.72 -3.42467 4.68718 0
M  V30 29191 H 2935.49 0.272352 2.9846 0
M  V30 29192 H 2933.05 0.291443 1.59255 0
M  V30 29193 H 2935.04 -2.228 3.3785 0
M  V30 29194 H 2933.61 -2.08929 2.32524 0
M  V30 29195 H 2932.83 -0.197016 3.93707 0
M  V30 29196 H 2934.12 -0.720067 5.03679 0
M  V30 29197 H 2933.52 -3.78931 4.20033 0
M  V30 29198 H 2932.07 -4.07308 5.08865 0
M  V30 29199 N 2935.51 -1.56408 0.193449 0
M  V30 29200 C 2936.73 -2.01916 -0.451402 0
M  V30 29201 C 2937.15 -1.07359 -1.55304 0
M  V30 29202 O 2936.51 -0.0781832 -1.82332 0
M  V30 29203 C 2936.56 -3.47126 -1.00925 0
M  V30 29204 O 2936.28 -4.38073 0.0484393 0
M  V30 29205 C 2937.78 -4.08143 -1.73014 0
M  V30 29206 H 2935 -0.661334 -0.113484 0
M  V30 29207 H 2937.54 -2.02263 0.301671 0
M  V30 29208 H 2935.7 -3.47484 -1.71271 0
M  V30 29209 H 2936.11 -5.23218 -0.366552 0
M  V30 29210 H 2937.59 -5.11605 -2.0728 0
M  V30 29211 H 2938.06 -3.51507 -2.63324 0
M  V30 29212 H 2938.67 -4.11553 -1.07257 0
M  V30 29213 N 2936.98 0.0801629 -1.57396 0
M  V30 29214 C 2938.4 0.632971 -1.75643 0
M  V30 29215 C 2938.75 1.78346 -0.817739 0
M  V30 29216 O 2937.87 2.164 0.000195706 0
M  V30 29217 C 2938.47 1.15501 -3.18504 0
M  V30 29218 C 2937.03 1.65375 -3.38124 0
M  V30 29219 C 2936.17 0.569613 -2.71387 0
M  V30 29220 H 2939.12 -0.145977 -1.58027 0
M  V30 29221 H 2939.14 2.02402 -3.22201 0
M  V30 29222 H 2938.66 0.317447 -3.868 0
M  V30 29223 H 2936.76 2.51484 -2.7493 0
M  V30 29224 H 2936.87 1.73646 -4.46524 0
M  V30 29225 H 2935.23 1.01266 -2.33704 0
M  V30 29226 H 2936.02 -0.257621 -3.42332 0
M  V30 29227 N 2938.46 1.53634 0.351355 0
M  V30 29228 C 2939.69 1.74431 1.11272 0
M  V30 29229 C 2940.11 0.47983 1.82601 0
M  V30 29230 O 2939.46 -0.548094 1.74075 0
M  V30 29231 C 2939.51 2.91925 2.13218 0
M  V30 29232 O 2939.23 4.13482 1.44791 0
M  V30 29233 C 2940.74 3.24711 3.01791 0
M  V30 29234 H 2937.96 0.583029 0.332142 0
M  V30 29235 H 2940.5 2.00431 0.405939 0
M  V30 29236 H 2938.65 2.68279 2.79473 0
M  V30 29237 H 2939.07 4.79378 2.12831 0
M  V30 29238 H 2940.54 4.10293 3.69275 0
M  V30 29239 H 2941.02 2.4068 3.67383 0
M  V30 29240 H 2941.63 3.50334 2.41135 0
M  V30 29241 N 2939.94 -0.611943 1.45234 0
M  V30 29242 C 2941.17 -1.39781 1.52541 0
M  V30 29243 C 2941.58 -1.8815 0.156566 0
M  V30 29244 O 2940.94 -1.61963 -0.841092 0
M  V30 29245 C 2940.99 -2.60524 2.50619 0
M  V30 29246 O 2940.71 -2.14166 3.82184 0
M  V30 29247 C 2942.21 -3.53434 2.67581 0
M  V30 29248 H 2939.43 -0.428034 0.516748 0
M  V30 29249 H 2941.98 -0.746694 1.9038 0
M  V30 29250 H 2940.13 -3.21686 2.15863 0
M  V30 29251 H 2940.55 -2.92584 4.3531 0
M  V30 29252 H 2942.02 -4.34711 3.40192 0
M  V30 29253 H 2942.5 -4.03493 1.73466 0
M  V30 29254 H 2943.1 -2.98128 3.03315 0
M  V30 29255 N 2941.42 -1.32452 -0.854063 0
M  V30 29256 C 2942.65 -1.26048 -1.64072 0
M  V30 29257 C 2943.06 0.171423 -1.8802 0
M  V30 29258 O 2942.42 1.1087 -1.44962 0
M  V30 29259 C 2942.47 -2.01748 -2.99966 0
M  V30 29260 O 2942.19 -3.39351 -2.77078 0
M  V30 29261 C 2943.69 -2.02375 -3.9441 0
M  V30 29262 H 2940.91 -0.434871 -0.511007 0
M  V30 29263 H 2943.46 -1.74585 -1.06491 0
M  V30 29264 H 2941.61 -1.56932 -3.54191 0
M  V30 29265 H 2942.02 -3.78104 -3.63507 0
M  V30 29266 H 2943.5 -2.59824 -4.87027 0
M  V30 29267 H 2943.98 -1.01016 -4.27425 0
M  V30 29268 H 2944.58 -2.47141 -3.46123 0
M  V30 29269 N 2942.9 1.07041 -1.15672 0
M  V30 29270 C 2944.31 1.61168 -0.942437 0
M  V30 29271 C 2944.66 1.89307 0.515504 0
M  V30 29272 O 2943.78 1.66087 1.38723 0
M  V30 29273 C 2944.38 2.92809 -1.70436 0
M  V30 29274 C 2942.94 3.43666 -1.53527 0
M  V30 29275 C 2942.09 2.17675 -1.71794 0
M  V30 29276 H 2945.04 0.900877 -1.30652 0
M  V30 29277 H 2945.06 3.6188 -1.17572 0
M  V30 29278 H 2944.57 2.72297 -2.76543 0
M  V30 29279 H 2942.67 3.69253 -0.498289 0
M  V30 29280 H 2942.78 4.19496 -2.31429 0
M  V30 29281 H 2941.15 2.27527 -1.14472 0
M  V30 29282 H 2941.93 1.99654 -2.79272 0
M  V30 29283 N 2944.38 0.954014 1.25445 0
M  V30 29284 C 2945.62 0.604135 1.9244 0
M  V30 29285 C 2945.94 -0.862765 1.75544 0
M  V30 29286 O 2947.14 -1.32258 2.37108 0
M  V30 29287 C 2945.6 1.0298 3.44852 0
M  V30 29288 C 2945.21 2.5192 3.70459 0
M  V30 29289 C 2946.95 0.752425 4.17778 0
M  V30 29290 C 2944.86 2.8829 5.16374 0
M  V30 29291 H 2943.79 0.22224 0.720504 0
M  V30 29292 H 2946.44 1.15838 1.42316 0
M  V30 29293 H 2944.82 0.403973 3.93934 0
M  V30 29294 H 2946 3.19517 3.32033 0
M  V30 29295 H 2944.31 2.77123 3.10792 0
M  V30 29296 H 2946.91 1.00033 5.25259 0
M  V30 29297 H 2947.25 -0.311139 4.15136 0
M  V30 29298 H 2947.78 1.33857 3.74603 0
M  V30 29299 H 2944.52 3.93662 5.24128 0
M  V30 29300 H 2944.04 2.25367 5.55851 0
M  V30 29301 H 2945.72 2.77449 5.84492 0
M  V30 29302 N 2945.85 -1.40063 0.722513 0
M  V30 29303 C 2947.08 -2.05066 0.274874 0
M  V30 29304 C 2947.5 -1.54451 -1.08583 0
M  V30 29305 O 2946.85 -0.704033 -1.68373 0
M  V30 29306 C 2946.9 -3.60608 0.253736 0
M  V30 29307 O 2946.63 -4.09357 1.56071 0
M  V30 29308 C 2948.13 -4.42795 -0.211606 0
M  V30 29309 H 2945.35 -0.659766 0.122272 0
M  V30 29310 H 2947.89 -1.79343 0.982663 0
M  V30 29311 H 2946.05 -3.85276 -0.405069 0
M  V30 29312 H 2946.46 -5.036 1.46585 0
M  V30 29313 H 2947.93 -5.51722 -0.175244 0
M  V30 29314 H 2948.41 -4.20892 -1.25486 0
M  V30 29315 H 2949.02 -4.23249 0.417175 0
M  V30 29316 N 2947.33 -0.469207 -1.50453 0
M  V30 29317 C 2948.56 0.0841771 -2.06729 0
M  V30 29318 C 2948.97 1.33675 -1.33328 0
M  V30 29319 O 2948.33 1.78017 -0.402009 0
M  V30 29320 C 2948.38 0.37419 -3.59558 0
M  V30 29321 O 2948.1 -0.828698 -4.30191 0
M  V30 29322 C 2949.6 0.974748 -4.32451 0
M  V30 29323 H 2946.82 -0.00624279 -0.670971 0
M  V30 29324 H 2949.37 -0.657449 -1.93644 0
M  V30 29325 H 2947.52 1.06575 -3.72452 0
M  V30 29326 H 2947.94 -0.572158 -5.2137 0
M  V30 29327 H 2949.41 1.12745 -5.40363 0
M  V30 29328 H 2949.89 1.96435 -3.92823 0
M  V30 29329 H 2950.49 0.321628 -4.24082 0
M  V30 29330 N 2948.81 1.56303 -0.201741 0
M  V30 29331 C 2950.04 2.02152 0.440688 0
M  V30 29332 C 2950.45 1.08182 1.54733 0
M  V30 29333 O 2949.81 0.0878517 1.82288 0
M  V30 29334 C 2949.86 3.47656 0.990823 0
M  V30 29335 O 2949.58 4.38041 -0.0716707 0
M  V30 29336 C 2951.08 4.09055 1.70847 0
M  V30 29337 H 2948.3 0.661926 0.109975 0
M  V30 29338 H 2950.85 2.021 -0.312394 0
M  V30 29339 H 2949 3.48387 1.69426 0
M  V30 29340 H 2949.42 5.23405 0.3388 0
M  V30 29341 H 2950.89 5.12697 2.04563 0
M  V30 29342 H 2951.37 3.52899 2.61456 0
M  V30 29343 H 2951.97 4.12116 1.05072 0
M  V30 29344 N 2950.29 -0.0718147 1.57436 0
M  V30 29345 C 2951.52 -0.783898 1.91475 0
M  V30 29346 C 2951.93 -1.7112 0.797699 0
M  V30 29347 O 2951.29 -1.81058 -0.228957 0
M  V30 29348 C 2951.34 -1.57755 3.25262 0
M  V30 29349 O 2951.06 -0.68752 4.32672 0
M  V30 29350 C 2952.56 -2.39063 3.73314 0
M  V30 29351 H 2949.78 -0.222874 0.632905 0
M  V30 29352 H 2952.32 -0.0420903 2.04457 0
M  V30 29353 H 2950.48 -2.27164 3.13808 0
M  V30 29354 H 2950.89 -1.23953 5.09643 0
M  V30 29355 H 2952.37 -2.90208 4.69557 0
M  V30 29356 H 2952.84 -3.18586 3.02324 0
M  V30 29357 H 2953.45 -1.74811 3.87713 0
M  V30 29358 N 2951.77 -1.53818 -0.343203 0
M  V30 29359 C 2952.99 -1.75019 -1.10345 0
M  V30 29360 C 2953.41 -0.489507 -1.82344 0
M  V30 29361 O 2952.77 0.538855 -1.74363 0
M  V30 29362 C 2952.82 -2.93052 -2.11667 0
M  V30 29363 O 2952.54 -4.14244 -1.42596 0
M  V30 29364 C 2954.04 -3.26307 -3.00065 0
M  V30 29365 H 2951.26 -0.584782 -0.329046 0
M  V30 29366 H 2953.8 -2.00643 -0.395304 0
M  V30 29367 H 2951.96 -2.69758 -2.78046 0
M  V30 29368 H 2952.37 -4.805 -2.10286 0
M  V30 29369 H 2953.85 -4.12245 -3.67094 0
M  V30 29370 H 2954.32 -2.42625 -3.66101 0
M  V30 29371 H 2954.93 -3.51608 -2.39274 0
M  V30 29372 N 2953.24 0.604233 -1.45557 0
M  V30 29373 C 2954.49 1.36516 -1.4997 0
M  V30 29374 C 2954.82 1.93678 -0.142271 0
M  V30 29375 O 2954.1 1.75249 0.843686 0
M  V30 29376 C 2954.38 2.51058 -2.58151 0
M  V30 29377 C 2954.23 1.99071 -4.03349 0
M  V30 29378 C 2955.55 3.5318 -2.62588 0
M  V30 29379 H 2952.67 0.495026 -0.546002 0
M  V30 29380 H 2955.31 0.680813 -1.77384 0
M  V30 29381 H 2953.46 3.09437 -2.34906 0
M  V30 29382 H 2955.14 1.45316 -4.37814 0
M  V30 29383 H 2953.38 1.30048 -4.13848 0
M  V30 29384 H 2954.05 2.81656 -4.74736 0
M  V30 29385 H 2956.53 3.04647 -2.83424 0
M  V30 29386 H 2955.4 4.3081 -3.40138 0
M  V30 29387 H 2955.66 4.09016 -1.67805 0
M  V30 29388 N 2954.72 1.32903 0.847027 0
M  V30 29389 C 2955.95 1.26916 1.63401 0
M  V30 29390 C 2956.36 -0.16145 1.88108 0
M  V30 29391 O 2955.72 -1.101 1.45548 0
M  V30 29392 C 2955.77 2.03336 2.98892 0
M  V30 29393 O 2955.49 3.40816 2.75275 0
M  V30 29394 C 2956.99 2.04464 3.93331 0
M  V30 29395 H 2954.21 0.437575 0.508694 0
M  V30 29396 H 2956.76 1.75147 1.05564 0
M  V30 29397 H 2954.91 1.58808 3.53353 0
M  V30 29398 H 2955.33 3.80027 3.61497 0
M  V30 29399 H 2956.8 2.62403 4.85643 0
M  V30 29400 H 2957.28 1.03282 4.26884 0
M  V30 29401 H 2957.88 2.48974 3.44808 0
M  V30 29402 N 2956.2 -1.06426 1.16238 0
M  V30 29403 C 2957.61 -1.60666 0.950971 0
M  V30 29404 C 2957.96 -1.89577 -0.505457 0
M  V30 29405 O 2957.09 -1.6682 -1.3784 0
M  V30 29406 C 2957.68 -2.91901 1.71987 0
M  V30 29407 C 2956.24 -3.42847 1.55348 0
M  V30 29408 C 2955.39 -2.1676 1.72946 0
M  V30 29409 H 2958.34 -0.893936 1.31128 0
M  V30 29410 H 2958.36 -3.61251 1.1949 0
M  V30 29411 H 2957.87 -2.70826 2.77983 0
M  V30 29412 H 2955.97 -3.68984 0.517865 0
M  V30 29413 H 2956.09 -4.18263 2.33651 0
M  V30 29414 H 2954.45 -2.26916 1.15677 0
M  V30 29415 H 2955.23 -1.9817 2.80327 0
M  V30 29416 N 2957.68 -0.960653 -1.24937 0
M  V30 29417 C 2958.91 -0.636079 -1.9688 0
M  V30 29418 C 2959.32 0.793063 -1.71336 0
M  V30 29419 O 2958.68 1.53124 -0.992944 0
M  V30 29420 C 2958.73 -0.892595 -3.50307 0
M  V30 29421 O 2958.45 -2.26555 -3.74973 0
M  V30 29422 C 2959.95 -0.581237 -4.39473 0
M  V30 29423 H 2957.17 -0.237942 -0.627395 0
M  V30 29424 H 2959.72 -1.28667 -1.5895 0
M  V30 29425 H 2957.87 -0.288325 -3.86326 0
M  V30 29426 H 2958.28 -2.34022 -4.69397 0
M  V30 29427 H 2959.76 -0.811221 -5.46007 0
M  V30 29428 H 2960.24 0.484353 -4.36521 0
M  V30 29429 H 2960.84 -1.1651 -4.0903 0
M  V30 29430 N 2959.16 1.39677 -0.729931 0
M  V30 29431 C 2960.57 1.83461 -0.346274 0
M  V30 29432 C 2960.92 1.60989 1.12147 0
M  V30 29433 O 2960.04 1.09835 1.86454 0
M  V30 29434 C 2960.64 3.33047 -0.621715 0
M  V30 29435 C 2959.2 3.75269 -0.291609 0
M  V30 29436 C 2958.34 2.62735 -0.886891 0
M  V30 29437 H 2961.3 1.28742 -0.927971 0
M  V30 29438 H 2961.32 3.80346 0.108235 0
M  V30 29439 H 2960.83 3.4937 -1.69003 0
M  V30 29440 H 2958.93 3.64534 0.771069 0
M  V30 29441 H 2959.04 4.72862 -0.770628 0
M  V30 29442 H 2957.41 2.52758 -0.313884 0
M  V30 29443 H 2958.19 2.81866 -1.95976 0
M  V30 29444 N 2960.63 0.47718 1.50202 0
M  V30 29445 C 2961.86 -0.0732126 2.0677 0
M  V30 29446 C 2962.28 -1.32966 1.34035 0
M  V30 29447 O 2961.63 -1.77802 0.411444 0
M  V30 29448 C 2961.69 -0.355117 3.59752 0
M  V30 29449 O 2961.41 0.8515 4.29745 0
M  V30 29450 C 2962.91 -0.951801 4.32961 0
M  V30 29451 H 2960.13 0.00980103 0.670928 0
M  V30 29452 H 2962.67 0.66771 1.93292 0
M  V30 29453 H 2960.83 -1.04598 3.73012 0
M  V30 29454 H 2961.24 0.599799 5.21059 0
M  V30 29455 H 2962.71 -1.09878 5.40954 0
M  V30 29456 H 2963.19 -1.94349 3.93859 0
M  V30 29457 H 2963.8 -0.299134 4.24247 0
M  V30 29458 N 2962.11 -1.56194 0.210027 0
M  V30 29459 C 2963.52 -1.84275 -0.29991 0
M  V30 29460 C 2963.87 -1.13113 -1.60312 0
M  V30 29461 O 2963 -0.396911 -2.12729 0
M  V30 29462 C 2963.59 -3.34291 -0.550927 0
M  V30 29463 C 2962.15 -3.6273 -1.0052 0
M  V30 29464 C 2961.3 -2.77231 -0.0619341 0
M  V30 29465 H 2964.25 -1.52665 0.433485 0
M  V30 29466 H 2964.27 -3.53872 -1.3984 0
M  V30 29467 H 2963.78 -3.86057 0.397737 0
M  V30 29468 H 2961.89 -3.1641 -1.96762 0
M  V30 29469 H 2962 -4.70807 -0.887581 0
M  V30 29470 H 2960.36 -2.48318 -0.566605 0
M  V30 29471 H 2961.15 -3.31791 0.881441 0
M  V30 29472 N 2963.59 0.0634645 -1.57472 0
M  V30 29473 C 2964.82 0.773733 -1.91888 0
M  V30 29474 C 2965.23 1.70695 -0.806763 0
M  V30 29475 O 2964.59 1.81177 0.219352 0
M  V30 29476 C 2964.64 1.56028 -3.26094 0
M  V30 29477 O 2964.36 0.664564 -4.3303 0
M  V30 29478 C 2965.86 2.3708 -3.74577 0
M  V30 29479 H 2963.08 0.219514 -0.634078 0
M  V30 29480 H 2965.63 0.0312469 -2.04476 0
M  V30 29481 H 2963.78 2.25496 -3.15008 0
M  V30 29482 H 2964.2 1.21249 -5.10293 0
M  V30 29483 H 2965.67 2.87714 -4.71089 0
M  V30 29484 H 2966.15 3.16978 -3.04009 0
M  V30 29485 H 2966.75 1.72752 -3.88634 0
M  V30 29486 N 2965.07 1.53998 0.33504 0
M  V30 29487 C 2966.32 1.71314 1.0722 0
M  V30 29488 C 2966.64 0.483519 1.8891 0
M  V30 29489 O 2965.91 -0.502537 1.89345 0
M  V30 29490 H 2964.49 0.631617 0.398834 0
M  V30 29491 H 2967.15 1.91273 0.374254 0
M  V30 29492 H 2966.25 2.58775 1.74475 0
M  V30 29493 N 2966.55 -0.596505 1.45875 0
M  V30 29494 C 2967.77 -1.38155 1.54015 0
M  V30 29495 C 2968.19 -1.87973 0.176513 0
M  V30 29496 O 2967.55 -1.62846 -0.823866 0
M  V30 29497 C 2967.6 -2.57851 2.53368 0
M  V30 29498 O 2967.32 -2.10101 3.84434 0
M  V30 29499 C 2968.82 -3.50576 2.71314 0
M  V30 29500 H 2966.04 -0.422529 0.521258 0
M  V30 29501 H 2968.58 -0.72646 1.91162 0
M  V30 29502 H 2966.74 -3.19378 2.19263 0
M  V30 29503 H 2967.15 -2.87951 4.38389 0
M  V30 29504 H 2968.63 -4.31078 3.44783 0
M  V30 29505 H 2969.1 -4.0163 1.77735 0
M  V30 29506 H 2969.71 -2.94894 3.0646 0
M  V30 29507 N 2968.02 -1.3335 -0.839967 0
M  V30 29508 C 2968.96 -1.19347 -1.95675 0
M  V30 29509 C 2969.97 -0.124721 -1.62322 0
M  V30 29510 O 2971.16 -0.375042 -1.74516 0
M  V30 29511 C 2968.26 -0.807829 -3.29131 0
M  V30 29512 C 2967.43 -1.96799 -3.90626 0
M  V30 29513 C 2966.49 -1.5635 -5.02435 0
M  V30 29514 O 2965.52 -2.27768 -5.21642 0
M  V30 29515 N 2966.72 -0.467869 -5.78611 0
M  V30 29516 H 2969.48 -2.15551 -2.08225 0
M  V30 29517 H 2967.04 -1.26081 -1.01564 0
M  V30 29518 H 2969.04 -0.519352 -4.01354 0
M  V30 29519 H 2967.61 0.0635001 -3.12535 0
M  V30 29520 H 2966.83 -2.42215 -3.11007 0
M  V30 29521 H 2968.11 -2.7443 -4.28446 0
M  V30 29522 H 2967.51 0.126225 -5.65559 0
M  V30 29523 H 2966.07 -0.23906 -6.51361 0
M  V30 29524 N 2969.5 1.05808 -1.16801 0
M  V30 29525 C 2970.73 1.82385 -0.976903 0
M  V30 29526 C 2971.15 1.8273 0.474885 0
M  V30 29527 O 2970.5 1.25004 1.32967 0
M  V30 29528 C 2970.55 3.28781 -1.50285 0
M  V30 29529 O 2970.27 3.28573 -2.89778 0
M  V30 29530 C 2971.78 4.22069 -1.35545 0
M  V30 29531 H 2969 0.574921 -0.345987 0
M  V30 29532 H 2971.54 1.33464 -1.54944 0
M  V30 29533 H 2969.69 3.74995 -0.97248 0
M  V30 29534 H 2970.11 4.20153 -3.13961 0
M  V30 29535 H 2971.58 5.22795 -1.77169 0
M  V30 29536 H 2972.06 4.38163 -0.301675 0
M  V30 29537 H 2972.67 3.81704 -1.87568 0
M  V30 29538 N 2970.98 0.967265 1.24426 0
M  V30 29539 C 2972.39 0.667815 1.74348 0
M  V30 29540 C 2972.74 -0.816478 1.78404 0
M  V30 29541 O 2971.87 -1.63884 1.41318 0
M  V30 29542 C 2972.46 1.20554 3.16626 0
M  V30 29543 C 2971.02 0.955998 3.64057 0
M  V30 29544 C 2970.17 1.34111 2.42713 0
M  V30 29545 H 2973.12 1.14263 1.10134 0
M  V30 29546 H 2973.14 0.571613 3.76182 0
M  V30 29547 H 2972.65 2.28584 3.13642 0
M  V30 29548 H 2970.75 -0.108792 3.72441 0
M  V30 29549 H 2970.87 1.60134 4.51546 0
M  V30 29550 H 2969.23 0.759495 2.43113 0
M  V30 29551 H 2970.01 2.43089 2.4241 0
M  V30 29552 N 2972.46 -1.39288 0.737328 0
M  V30 29553 C 2973.69 -2.04763 0.296609 0
M  V30 29554 C 2974.1 -1.55594 -1.06939 0
M  V30 29555 O 2973.46 -0.721852 -1.67617 0
M  V30 29556 C 2973.51 -3.60319 0.291969 0
M  V30 29557 O 2973.23 -4.07679 1.60404 0
M  V30 29558 C 2974.73 -4.42994 -0.16463 0
M  V30 29559 H 2971.95 -0.658432 0.129263 0
M  V30 29560 H 2974.5 -1.78291 1.00163 0
M  V30 29561 H 2972.65 -3.85684 -0.364183 0
M  V30 29562 H 2973.07 -5.02017 1.51918 0
M  V30 29563 H 2974.54 -5.51877 -0.116717 0
M  V30 29564 H 2975.02 -4.22199 -1.21015 0
M  V30 29565 H 2975.62 -4.22783 0.462043 0
M  V30 29566 N 2973.94 -0.485139 -1.49947 0
M  V30 29567 C 2975.17 0.062246 -2.06806 0
M  V30 29568 C 2975.58 1.32253 -1.34739 0
M  V30 29569 O 2974.94 1.77581 -0.420867 0
M  V30 29570 C 2974.99 0.336033 -3.59935 0
M  V30 29571 O 2974.71 -0.874279 -4.29288 0
M  V30 29572 C 2976.21 0.928826 -4.3346 0
M  V30 29573 H 2973.43 -0.013359 -0.670867 0
M  V30 29574 H 2975.97 -0.677951 -1.92935 0
M  V30 29575 H 2974.13 1.02618 -3.73562 0
M  V30 29576 H 2974.54 -0.627424 -5.20734 0
M  V30 29577 H 2976.02 1.07008 -5.41529 0
M  V30 29578 H 2976.49 1.92258 -3.94884 0
M  V30 29579 H 2977.1 0.276631 -4.24399 0
M  V30 29580 N 2975.42 1.56081 -0.218307 0
M  V30 29581 C 2976.64 2.02608 0.419222 0
M  V30 29582 C 2977.06 1.09817 1.53577 0
M  V30 29583 O 2976.42 0.107181 1.82185 0
M  V30 29584 C 2976.47 3.48688 0.953894 0
M  V30 29585 O 2976.19 4.37941 -0.118127 0
M  V30 29586 C 2977.69 4.10844 1.66499 0
M  V30 29587 H 2974.91 0.663056 0.102948 0
M  V30 29588 H 2977.45 2.01757 -0.333811 0
M  V30 29589 H 2975.61 3.50165 1.65721 0
M  V30 29590 H 2976.02 5.23735 0.283267 0
M  V30 29591 H 2977.5 5.14837 1.99114 0
M  V30 29592 H 2977.97 3.55652 2.57698 0
M  V30 29593 H 2978.58 4.13208 1.00696 0
M  V30 29594 N 2976.89 -0.0551124 1.57504 0
M  V30 29595 C 2978.3 -0.604948 1.76627 0
M  V30 29596 C 2978.66 -1.77023 0.846009 0
M  V30 29597 O 2977.78 -2.16373 0.0342317 0
M  V30 29598 C 2978.38 -1.10419 3.20301 0
M  V30 29599 C 2976.93 -1.59975 3.40712 0
M  V30 29600 C 2976.08 -0.526366 2.72258 0
M  V30 29601 H 2979.03 0.171099 1.57775 0
M  V30 29602 H 2979.05 -1.97251 3.2538 0
M  V30 29603 H 2978.57 -0.255871 3.87256 0
M  V30 29604 H 2976.67 -2.47078 2.78897 0
M  V30 29605 H 2976.78 -1.6652 4.4923 0
M  V30 29606 H 2975.14 -0.975349 2.35285 0
M  V30 29607 H 2975.93 0.312051 3.41879 0
M  V30 29608 N 2978.37 -1.54173 -0.326869 0
M  V30 29609 C 2979.62 -1.71433 -1.06271 0
M  V30 29610 C 2979.93 -0.493157 -1.89281 0
M  V30 29611 O 2981.14 -0.547037 -2.65932 0
M  V30 29612 C 2979.6 -3.0321 -1.93886 0
M  V30 29613 C 2979.2 -4.32721 -1.16003 0
M  V30 29614 C 2980.95 -3.29834 -2.67226 0
M  V30 29615 C 2978.85 -5.55561 -2.02746 0
M  V30 29616 H 2977.78 -0.638862 -0.400464 0
M  V30 29617 H 2980.44 -1.80668 -0.321152 0
M  V30 29618 H 2978.82 -2.87874 -2.71928 0
M  V30 29619 H 2979.99 -4.58812 -0.427562 0
M  V30 29620 H 2978.31 -4.12837 -0.543598 0
M  V30 29621 H 2980.9 -4.18804 -3.32427 0
M  V30 29622 H 2981.25 -2.47568 -3.34688 0
M  V30 29623 H 2981.78 -3.46022 -1.96249 0
M  V30 29624 H 2978.52 -6.40419 -1.39798 0
M  V30 29625 H 2978.04 -5.33694 -2.73736 0
M  V30 29626 H 2979.72 -5.9184 -2.61409 0
M  V30 29627 N 2979.85 0.58876 -1.4619 0
M  V30 29628 C 2981.08 1.37337 -1.54746 0
M  V30 29629 C 2981.49 1.87877 -0.186479 0
M  V30 29630 O 2980.85 1.6328 0.815219 0
M  V30 29631 C 2980.9 2.56504 -2.54732 0
M  V30 29632 O 2980.62 2.08059 -3.85543 0
M  V30 29633 C 2982.12 3.49132 -2.7317 0
M  V30 29634 H 2979.34 0.419759 -0.523492 0
M  V30 29635 H 2981.89 0.716312 -1.91544 0
M  V30 29636 H 2980.04 3.18211 -2.20954 0
M  V30 29637 H 2980.46 2.85622 -4.3991 0
M  V30 29638 H 2981.93 4.29244 -3.47065 0
M  V30 29639 H 2982.41 4.00682 -1.79863 0
M  V30 29640 H 2983.01 2.93265 -3.08019 0
M  V30 29641 N 2981.33 1.33794 0.832883 0
M  V30 29642 C 2982.56 1.28642 1.62046 0
M  V30 29643 C 2982.97 -0.141489 1.88269 0
M  V30 29644 O 2982.33 -1.0855 1.46708 0
M  V30 29645 C 2982.38 2.06495 2.96719 0
M  V30 29646 O 2982.1 3.43716 2.71644 0
M  V30 29647 C 2983.6 2.08624 3.91141 0
M  V30 29648 H 2980.82 0.442945 0.504024 0
M  V30 29649 H 2983.36 1.76257 1.037 0
M  V30 29650 H 2981.52 1.62547 3.51649 0
M  V30 29651 H 2981.93 3.83839 3.57446 0
M  V30 29652 H 2983.41 2.67539 4.82832 0
M  V30 29653 H 2983.88 1.07804 4.25764 0
M  V30 29654 H 2984.49 2.52617 3.42147 0
M  V30 29655 N 2982.81 -1.05187 1.1736 0
M  V30 29656 C 2984.03 -1.81864 0.986561 0
M  V30 29657 C 2984.45 -1.82979 -0.465187 0
M  V30 29658 O 2983.81 -1.25707 -1.32303 0
M  V30 29659 C 2983.86 -3.27979 1.52027 0
M  V30 29660 O 2983.58 -3.27032 2.91517 0
M  V30 29661 C 2985.08 -4.21344 1.37782 0
M  V30 29662 H 2982.3 -0.573078 0.349031 0
M  V30 29663 H 2984.84 -1.3264 1.5565 0
M  V30 29664 H 2983 -3.74474 0.992353 0
M  V30 29665 H 2983.41 -4.18482 3.16185 0
M  V30 29666 H 2984.89 -5.21849 1.79939 0
M  V30 29667 H 2985.36 -4.37997 0.324907 0
M  V30 29668 H 2985.97 -3.80704 1.8959 0
M  V30 29669 N 2984.28 -0.97385 -1.23911 0
M  V30 29670 C 2985.51 -0.656925 -1.96194 0
M  V30 29671 C 2985.93 0.774846 -1.72167 0
M  V30 29672 O 2985.28 1.52062 -1.00913 0
M  V30 29673 C 2985.33 -0.929699 -3.49341 0
M  V30 29674 O 2985.06 -2.30519 -3.72549 0
M  V30 29675 C 2986.56 -0.627816 -4.38832 0
M  V30 29676 H 2983.78 -0.244583 -0.624836 0
M  V30 29677 H 2986.32 -1.30345 -1.57576 0
M  V30 29678 H 2984.48 -0.329283 -3.85998 0
M  V30 29679 H 2984.89 -2.38988 -4.66889 0
M  V30 29680 H 2986.36 -0.869086 -5.45115 0
M  V30 29681 H 2986.84 0.438027 -4.3701 0
M  V30 29682 H 2987.45 -1.20841 -4.07771 0
M  V30 29683 N 2985.76 1.38895 -0.744705 0
M  V30 29684 C 2986.99 2.04603 -0.307463 0
M  V30 29685 C 2987.4 1.56159 1.06112 0
M  V30 29686 O 2986.76 0.730731 1.67232 0
M  V30 29687 C 2986.81 3.60159 -0.311074 0
M  V30 29688 O 2986.53 4.06822 -1.62564 0
M  V30 29689 C 2988.03 4.43075 0.141135 0
M  V30 29690 H 2985.25 0.657737 -0.132753 0
M  V30 29691 H 2987.8 1.77757 -1.01107 0
M  V30 29692 H 2985.95 3.85872 0.343724 0
M  V30 29693 H 2986.37 5.01204 -1.54578 0
M  V30 29694 H 2987.84 5.51931 0.0874479 0
M  V30 29695 H 2988.32 4.22835 1.18774 0
M  V30 29696 H 2988.92 4.22532 -0.484457 0
M  V30 29697 N 2987.24 0.493084 1.49688 0
M  V30 29698 C 2988.49 -0.0543162 2.02727 0
M  V30 29699 C 2988.82 -1.37373 1.37267 0
M  V30 29700 O 2988.09 -1.87811 0.505677 0
M  V30 29701 C 2988.38 -0.215162 3.59457 0
M  V30 29702 C 2988.23 1.12682 4.35457 0
M  V30 29703 C 2989.55 -0.959511 4.29513 0
M  V30 29704 H 2986.67 -0.0182657 0.736774 0
M  V30 29705 H 2989.31 0.642956 1.78791 0
M  V30 29706 H 2987.46 -0.809055 3.79982 0
M  V30 29707 H 2989.13 1.75899 4.26447 0
M  V30 29708 H 2987.38 1.71808 3.98327 0
M  V30 29709 H 2988.05 0.967673 5.43452 0
M  V30 29710 H 2990.52 -0.455904 4.13595 0
M  V30 29711 H 2989.4 -1.04088 5.3894 0
M  V30 29712 H 2989.66 -2.00137 3.94205 0
M  V30 29713 N 2988.72 -1.55963 0.226582 0
M  V30 29714 C 2989.95 -2.02828 -0.408471 0
M  V30 29715 C 2990.36 -1.1063 -1.52992 0
M  V30 29716 O 2989.72 -0.116841 -1.82126 0
M  V30 29717 C 2989.77 -3.49189 -0.935389 0
M  V30 29718 O 2989.49 -4.37872 0.14135 0
M  V30 29719 C 2990.99 -4.11721 -1.64318 0
M  V30 29720 H 2988.21 -0.663592 -0.0994303 0
M  V30 29721 H 2990.76 -2.01577 0.344506 0
M  V30 29722 H 2988.91 -3.51038 -1.63862 0
M  V30 29723 H 2989.32 -5.23877 -0.255488 0
M  V30 29724 H 2990.8 -5.15886 -1.96381 0
M  V30 29725 H 2991.28 -3.57013 -2.55809 0
M  V30 29726 H 2991.88 -4.13736 -0.985028 0
M  V30 29727 N 2990.2 0.0467589 -1.57531 0
M  V30 29728 C 2991.61 0.595572 -1.76946 0
M  V30 29729 C 2991.96 1.76572 -0.855385 0
M  V30 29730 O 2991.08 2.16352 -0.045706 0
M  V30 29731 C 2991.68 1.08719 -3.20883 0
M  V30 29732 C 2990.24 1.58166 -3.41556 0
M  V30 29733 C 2989.38 0.51192 -2.72534 0
M  V30 29734 H 2992.34 -0.179464 -1.57682 0
M  V30 29735 H 2992.36 1.95522 -3.26422 0
M  V30 29736 H 2991.87 0.23533 -3.87386 0
M  V30 29737 H 2989.97 2.45595 -2.80203 0
M  V30 29738 H 2990.08 1.64135 -4.50107 0
M  V30 29739 H 2988.45 0.962857 -2.35799 0
M  V30 29740 H 2989.23 -0.330177 -3.41709 0
M  V30 29741 N 2991.67 1.54344 0.318688 0
M  V30 29742 C 2992.9 1.76752 1.07547 0
M  V30 29743 C 2993.32 0.518454 1.81542 0
M  V30 29744 O 2992.67 -0.511047 1.75199 0
M  V30 29745 C 2992.73 2.96382 2.06978 0
M  V30 29746 O 2992.45 4.1646 1.35988 0
M  V30 29747 C 2993.95 3.31039 2.94835 0
M  V30 29748 H 2991.17 0.589943 0.319701 0
M  V30 29749 H 2993.71 2.01246 0.363333 0
M  V30 29750 H 2991.87 2.74147 2.73719 0
M  V30 29751 H 2992.28 4.83785 2.02615 0
M  V30 29752 H 2993.75 4.18033 3.60489 0
M  V30 29753 H 2994.23 2.48418 3.62195 0
M  V30 29754 H 2994.84 3.5537 2.3365 0
M  V30 29755 N 2993.15 -0.580999 1.465 0
M  V30 29756 C 2994.56 -1.16312 1.46042 0
M  V30 29757 C 2994.91 -1.95155 0.202188 0
M  V30 29758 O 2994.04 -2.04949 -0.694602 0
M  V30 29759 C 2994.63 -2.11599 2.64596 0
M  V30 29760 C 2993.19 -2.65132 2.67174 0
M  V30 29761 C 2992.34 -1.41036 2.38756 0
M  V30 29762 H 2995.29 -0.368844 1.54354 0
M  V30 29763 H 2995.31 -2.95091 2.40212 0
M  V30 29764 H 2994.82 -1.54188 3.56157 0
M  V30 29765 H 2992.93 -3.26408 1.79691 0
M  V30 29766 H 2993.04 -3.0775 3.67188 0
M  V30 29767 H 2991.4 -1.70905 1.88848 0
M  V30 29768 H 2992.19 -0.854529 3.32495 0
M  V30 29769 N 2994.63 -1.34234 -0.825776 0
M  V30 29770 C 2995.86 -1.295 -1.61361 0
M  V30 29771 C 2996.27 0.131503 -1.88341 0
M  V30 29772 O 2995.63 1.07771 -1.47281 0
M  V30 29773 C 2995.68 -2.08066 -2.95619 0
M  V30 29774 O 2995.4 -3.45152 -2.69818 0
M  V30 29775 C 2996.9 -2.10695 -3.90029 0
M  V30 29776 H 2994.12 -0.445612 -0.501668 0
M  V30 29777 H 2996.67 -1.76804 -1.02764 0
M  V30 29778 H 2994.82 -1.6441 -3.50782 0
M  V30 29779 H 2995.24 -3.8573 -3.55405 0
M  V30 29780 H 2996.71 -2.70096 -4.81407 0
M  V30 29781 H 2997.19 -1.1006 -4.25186 0
M  V30 29782 H 2997.79 -2.54428 -3.40803 0
M  V30 29783 N 2996.11 1.04563 -1.17917 0
M  V30 29784 C 2997.52 1.59132 -0.976411 0
M  V30 29785 C 2997.87 1.90357 0.475233 0
M  V30 29786 O 2997 1.68992 1.35169 0
M  V30 29787 C 2997.59 2.89127 -1.76609 0
M  V30 29788 C 2996.15 3.40332 -1.60783 0
M  V30 29789 C 2995.3 2.13982 -1.76372 0
M  V30 29790 H 2998.25 0.872962 -1.32533 0
M  V30 29791 H 2998.27 3.59305 -1.25222 0
M  V30 29792 H 2997.78 2.6637 -2.82257 0
M  V30 29793 H 2995.88 3.68113 -0.576501 0
M  V30 29794 H 2995.99 4.14493 -2.40275 0
M  V30 29795 H 2994.36 2.25047 -1.19272 0
M  V30 29796 H 2995.14 1.93685 -2.83445 0
M  V30 29797 N 2997.59 0.980408 1.23393 0
M  V30 29798 C 2998.81 0.667321 1.95843 0
M  V30 29799 C 2999.23 -0.765705 1.72576 0
M  V30 29800 O 2998.59 -1.51525 1.01718 0
M  V30 29801 C 2998.64 0.948212 3.48843 0
M  V30 29802 O 2998.36 2.32492 3.71321 0
M  V30 29803 C 2999.86 0.651079 4.38493 0
M  V30 29804 H 2997.08 0.247893 0.62353 0
M  V30 29805 H 2999.62 1.31179 1.56883 0
M  V30 29806 H 2997.78 0.349749 3.85818 0
M  V30 29807 H 2998.19 2.4146 4.65615 0
M  V30 29808 H 2999.67 0.897983 5.44647 0
M  V30 29809 H 3000.14 -0.414845 4.37236 0
M  V30 29810 H 3000.75 1.23002 4.07125 0
M  V30 29811 N 2999.06 -1.38498 0.75206 0
M  V30 29812 C 3000.31 -1.99756 0.306931 0
M  V30 29813 C 3000.63 -1.59994 -1.11476 0
M  V30 29814 O 2999.9 -0.856076 -1.76205 0
M  V30 29815 H 2998.48 -0.738783 0.110493 0
M  V30 29816 H 3001.15 -1.69287 0.965815 0
M  V30 29817 H 3000.24 -3.09913 0.368851 0
M  V30 29818 N 3000.54 -0.501015 -1.49424 0
M  V30 29819 C 3001.77 0.0403079 -2.06861 0
M  V30 29820 C 3002.19 1.30817 -1.36134 0
M  V30 29821 O 3001.54 1.77124 -0.439678 0
M  V30 29822 C 3001.59 0.297838 -3.60271 0
M  V30 29823 O 3001.31 -0.919761 -4.28336 0
M  V30 29824 C 3002.82 0.8828 -4.34421 0
M  V30 29825 H 3000.04 -0.0204737 -0.670688 0
M  V30 29826 H 3002.58 -0.698376 -1.92206 0
M  V30 29827 H 3000.73 0.986504 -3.74629 0
M  V30 29828 H 3001.15 -0.682619 -5.20039 0
M  V30 29829 H 3002.62 1.01258 -5.42633 0
M  V30 29830 H 3003.1 1.88059 -3.96901 0
M  V30 29831 H 3003.71 0.231602 -4.24669 0
M  V30 29832 N 3002.02 1.5584 -0.234849 0
M  V30 29833 C 3002.95 2.18175 0.702308 0
M  V30 29834 C 3003.97 1.15459 1.14774 0
M  V30 29835 O 3005.16 1.42378 1.0766 0
M  V30 29836 C 3002.26 2.76133 1.96479 0
M  V30 29837 C 3001.43 4.0415 1.67276 0
M  V30 29838 C 3000.49 4.46543 2.78362 0
M  V30 29839 O 2999.51 5.1317 2.46263 0
M  V30 29840 N 3000.72 4.13327 4.07604 0
M  V30 29841 H 3003.48 2.99223 0.169021 0
M  V30 29842 H 3001.04 1.61809 -0.0543449 0
M  V30 29843 H 3003.03 3.01457 2.70011 0
M  V30 29844 H 3001.6 1.99312 2.40819 0
M  V30 29845 H 3000.82 3.86542 0.77321 0
M  V30 29846 H 3002.11 4.87638 1.45213 0
M  V30 29847 H 3001.51 3.59814 4.36521 0
M  V30 29848 H 3000.07 4.43514 4.77639 0
M  V30 29849 N 3003.5 -0.038404 1.57553 0
M  V30 29850 C 3004.73 -0.743107 1.93095 0
M  V30 29851 C 3005.14 -1.6939 0.833817 0
M  V30 29852 O 3004.5 -1.81503 -0.1905 0
M  V30 29853 C 3004.55 -1.50821 3.28535 0
M  V30 29854 O 3004.27 -0.595589 4.34033 0
M  V30 29855 C 3005.77 -2.31091 3.78301 0
M  V30 29856 H 3002.99 -0.209399 0.63749 0
M  V30 29857 H 3005.54 0.00128748 2.045 0
M  V30 29858 H 3003.69 -2.20456 3.18556 0
M  V30 29859 H 3004.11 -1.13115 5.12157 0
M  V30 29860 H 3005.58 -2.80183 4.75607 0
M  V30 29861 H 3006.06 -3.12102 3.09013 0
M  V30 29862 H 3006.66 -1.66548 3.91334 0
M  V30 29863 N 3004.98 -1.54511 -0.310498 0
M  V30 29864 C 3006.39 -1.64439 -0.884113 0
M  V30 29865 C 3006.74 -0.546889 -1.88424 0
M  V30 29866 O 3005.86 0.318072 -2.1405 0
M  V30 29867 C 3006.46 -2.98083 -1.61034 0
M  V30 29868 C 3005.02 -3.10164 -2.1325 0
M  V30 29869 C 3004.17 -2.60075 -0.962084 0
M  V30 29870 H 3007.12 -1.58457 -0.0877387 0
M  V30 29871 H 3007.14 -2.88974 -2.47536 0
M  V30 29872 H 3006.65 -3.77941 -0.882189 0
M  V30 29873 H 3004.75 -2.35007 -2.89141 0
M  V30 29874 H 3004.86 -4.16173 -2.37354 0
M  V30 29875 H 3003.23 -2.16293 -1.34497 0
M  V30 29876 H 3004.01 -3.42403 -0.248038 0
M  V30 29877 N 3006.46 0.573222 -1.46806 0
M  V30 29878 C 3007.68 1.35688 -1.56194 0
M  V30 29879 C 3008.1 1.87668 -0.206395 0
M  V30 29880 O 3007.46 1.64136 0.797855 0
M  V30 29881 C 3007.51 2.53787 -2.57438 0
M  V30 29882 O 3007.23 2.03958 -3.87728 0
M  V30 29883 C 3008.73 3.46215 -2.76857 0
M  V30 29884 H 3005.95 0.414183 -0.527914 0
M  V30 29885 H 3008.49 0.695956 -1.92293 0
M  V30 29886 H 3006.65 3.1585 -2.24316 0
M  V30 29887 H 3007.06 2.8094 -4.42914 0
M  V30 29888 H 3008.54 4.25539 -3.51598 0
M  V30 29889 H 3009.01 3.98752 -1.84103 0
M  V30 29890 H 3009.62 2.89981 -3.11113 0
M  V30 29891 N 3007.93 1.3467 0.818645 0
M  V30 29892 C 3009.16 1.30354 1.60672 0
M  V30 29893 C 3009.58 -0.121513 1.88409 0
M  V30 29894 O 3008.93 -1.06988 1.47851 0
M  V30 29895 C 3008.98 2.09631 2.94512 0
M  V30 29896 O 3008.71 3.46578 2.67984 0
M  V30 29897 C 3010.21 2.12761 3.88906 0
M  V30 29898 H 3007.43 0.448266 0.499298 0
M  V30 29899 H 3009.97 1.77347 1.01825 0
M  V30 29900 H 3008.13 1.66268 3.49905 0
M  V30 29901 H 3008.54 3.87609 3.53355 0
M  V30 29902 H 3010.01 2.72645 4.79967 0
M  V30 29903 H 3010.49 1.12313 4.24597 0
M  V30 29904 H 3011.1 2.56231 3.39449 0
M  V30 29905 N 3009.41 -1.03936 1.1847 0
M  V30 29906 C 3010.64 -1.80808 1.00579 0
M  V30 29907 C 3011.05 -1.83462 -0.445754 0
M  V30 29908 O 3010.41 -1.27103 -1.30962 0
M  V30 29909 C 3010.46 -3.26348 1.55497 0
M  V30 29910 O 3010.18 -3.23921 2.94969 0
M  V30 29911 C 3011.68 -4.19859 1.42243 0
M  V30 29912 H 3008.9 -0.569344 0.35509 0
M  V30 29913 H 3011.45 -1.30982 1.57048 0
M  V30 29914 H 3009.6 -3.73401 1.03202 0
M  V30 29915 H 3010.02 -4.15105 3.20606 0
M  V30 29916 H 3011.49 -5.19911 1.85464 0
M  V30 29917 H 3011.97 -4.37627 0.371344 0
M  V30 29918 H 3012.57 -3.78672 1.93617 0
M  V30 29919 N 3010.89 -0.986938 -1.22871 0
M  V30 29920 C 3012.3 -0.695468 -1.73263 0
M  V30 29921 C 3012.65 0.787992 -1.79681 0
M  V30 29922 O 3011.78 1.61615 -1.43908 0
M  V30 29923 C 3012.37 -1.25576 -3.14668 0
M  V30 29924 C 3010.93 -1.0138 -3.6249 0
M  V30 29925 C 3010.08 -1.37955 -2.40549 0
M  V30 29926 H 3013.03 -1.16001 -1.08302 0
M  V30 29927 H 3013.05 -0.631388 -3.75225 0
M  V30 29928 H 3012.56 -2.33544 -3.09965 0
M  V30 29929 H 3010.66 0.0495263 -3.72567 0
M  V30 29930 H 3010.78 -1.67297 -4.48941 0
M  V30 29931 H 3009.14 -0.798076 -2.41874 0
M  V30 29932 H 3009.92 -2.46915 -2.38512 0
M  V30 29933 N 3012.37 1.38098 -0.759394 0
M  V30 29934 C 3013.62 1.99227 -0.314899 0
M  V30 29935 C 3013.93 1.60966 1.11127 0
M  V30 29936 O 3015.14 2.15108 1.65653 0
M  V30 29937 C 3013.59 3.56239 -0.512064 0
M  V30 29938 C 3013.2 4.03446 -1.94769 0
M  V30 29939 C 3014.94 4.24299 -0.130572 0
M  V30 29940 C 3012.85 5.53121 -2.09311 0
M  V30 29941 H 3011.78 0.745333 -0.113991 0
M  V30 29942 H 3014.43 1.57788 -0.936764 0
M  V30 29943 H 3012.81 3.95595 0.179074 0
M  V30 29944 H 3013.99 3.75366 -2.67277 0
M  V30 29945 H 3012.3 3.48129 -2.28463 0
M  V30 29946 H 3014.9 5.34256 -0.217904 0
M  V30 29947 H 3015.24 4.06062 0.917572 0
M  V30 29948 H 3015.78 3.90202 -0.773784 0
M  V30 29949 H 3012.51 5.76269 -3.124 0
M  V30 29950 H 3012.03 5.82926 -1.41271 0
M  V30 29951 H 3013.71 6.18907 -1.88581 0
M  V30 29952 N 3013.85 0.508932 1.49156 0
M  V30 29953 C 3015.07 -0.029337 2.06879 0
M  V30 29954 C 3015.49 -1.30093 1.36826 0
M  V30 29955 O 3014.85 -1.76889 0.449065 0
M  V30 29956 C 3014.9 -0.278728 3.60424 0
M  V30 29957 O 3014.62 0.942464 4.27843 0
M  V30 29958 C 3016.12 -0.859749 4.34883 0
M  V30 29959 H 3013.34 0.0240302 0.67057 0
M  V30 29960 H 3015.88 0.70856 1.91832 0
M  V30 29961 H 3014.04 -0.966623 3.75147 0
M  V30 29962 H 3014.45 0.710189 5.1967 0
M  V30 29963 H 3015.93 -0.983789 5.43163 0
M  V30 29964 H 3016.4 -1.85951 3.97893 0
M  V30 29965 H 3017.01 -0.209077 4.24786 0
M  V30 29966 N 3015.32 -1.55714 0.243111 0
M  V30 29967 C 3016.55 -2.0325 -0.386936 0
M  V30 29968 C 3016.97 -1.12246 -1.5181 0
M  V30 29969 O 3016.32 -0.136151 -1.81991 0
M  V30 29970 C 3016.37 -3.50161 -0.8983 0
M  V30 29971 O 3016.1 -4.37697 0.187784 0
M  V30 29972 C 3017.6 -4.13441 -1.59942 0
M  V30 29973 H 3014.82 -0.664609 -0.0923864 0
M  V30 29974 H 3017.36 -2.01201 0.365867 0
M  V30 29975 H 3015.52 -3.52757 -1.60129 0
M  V30 29976 H 3015.93 -5.24119 -0.199909 0
M  V30 29977 H 3017.4 -5.1794 -1.90898 0
M  V30 29978 H 3017.88 -3.59707 -2.52008 0
M  V30 29979 H 3018.49 -4.14757 -0.94109 0
M  V30 29980 N 3016.8 0.030048 -1.57571 0
M  V30 29981 C 3018.03 0.732857 -1.93486 0
M  V30 29982 C 3018.45 1.68945 -0.842788 0
M  V30 29983 O 3017.8 1.81601 0.180872 0
M  V30 29984 C 3017.85 1.49076 -3.2933 0
M  V30 29985 O 3017.57 0.572563 -4.34342 0
M  V30 29986 C 3019.08 2.29082 -3.79521 0
M  V30 29987 H 3016.3 0.206015 -0.638591 0
M  V30 29988 H 3018.84 -0.0121326 -2.04496 0
M  V30 29989 H 3016.99 2.18764 -3.1972 0
M  V30 29990 H 3017.41 1.10397 -5.1275 0
M  V30 29991 H 3018.88 2.77656 -4.77086 0
M  V30 29992 H 3019.36 3.10458 -3.10664 0
M  V30 29993 H 3019.97 1.6447 -3.92211 0
M  V30 29994 N 3018.28 1.54674 0.3023 0
M  V30 29995 C 3019.51 1.77883 1.05666 0
M  V30 29996 C 3019.92 0.53768 1.80982 0
M  V30 29997 O 3019.28 -0.492436 1.75731 0
M  V30 29998 C 3019.33 2.98561 2.03823 0
M  V30 29999 O 3019.05 4.17879 1.31563 0
M  V30 30000 C 3020.55 3.34148 2.91308 0
M  V30 30001 H 3017.77 0.5933 0.313426 0
M  V30 30002 H 3020.32 2.01621 0.341968 0
M  V30 30003 H 3018.47 2.77035 2.70796 0
M  V30 30004 H 3018.89 4.85906 1.97472 0
M  V30 30005 H 3020.36 4.21833 3.56035 0
M  V30 30006 H 3020.84 2.52246 3.5954 0
M  V30 30007 H 3021.44 3.57828 2.29867 0
M  V30 30008 N 3019.76 -0.565428 1.47108 0
M  V30 30009 C 3020.99 -1.34857 1.56911 0
M  V30 30010 C 3021.4 -1.87556 0.216345 0
M  V30 30011 O 3020.76 -1.64557 -0.789139 0
M  V30 30012 C 3020.81 -2.52419 2.5878 0
M  V30 30013 O 3020.53 -2.01899 3.88804 0
M  V30 30014 C 3022.03 -3.44742 2.78689 0
M  V30 30015 H 3019.25 -0.411377 0.530104 0
M  V30 30016 H 3021.8 -0.685748 1.9266 0
M  V30 30017 H 3019.95 -3.14656 2.25988 0
M  V30 30018 H 3020.36 -2.78587 4.44398 0
M  V30 30019 H 3021.84 -4.23668 3.5385 0
M  V30 30020 H 3022.32 -3.9777 1.86215 0
M  V30 30021 H 3022.92 -2.88327 3.12646 0
M  V30 30022 N 3021.24 -1.35102 -0.811492 0
M  V30 30023 C 3022.48 -1.2829 -1.57065 0
M  V30 30024 C 3022.82 0.143774 -1.93667 0
M  V30 30025 O 3022.09 1.09196 -1.60955 0
M  V30 30026 C 3022.37 -2.18471 -2.86256 0
M  V30 30027 C 3022.23 -3.69732 -2.56161 0
M  V30 30028 C 3023.55 -2.07859 -3.87921 0
M  V30 30029 H 3020.66 -0.467363 -0.569861 0
M  V30 30030 H 3023.31 -1.65459 -0.933994 0
M  V30 30031 H 3021.46 -1.86904 -3.40587 0
M  V30 30032 H 3023.13 -4.11719 -2.08052 0
M  V30 30033 H 3021.37 -3.90255 -1.89429 0
M  V30 30034 H 3022.04 -4.28212 -3.48336 0
M  V30 30035 H 3024.52 -2.35599 -3.42976 0
M  V30 30036 H 3023.39 -2.73165 -4.76101 0
M  V30 30037 H 3023.66 -1.05903 -4.29228 0
M  V30 30038 N 3022.71 1.03306 -1.19019 0
M  V30 30039 C 3023.94 1.80272 -1.01537 0
M  V30 30040 C 3024.36 1.83696 0.436018 0
M  V30 30041 O 3023.71 1.27796 1.30286 0
M  V30 30042 C 3023.77 3.25519 -1.57225 0
M  V30 30043 O 3023.49 3.22352 -2.96683 0
M  V30 30044 C 3024.99 4.19099 -1.44468 0
M  V30 30045 H 3022.21 0.567453 -0.358104 0
M  V30 30046 H 3024.75 1.30147 -1.5774 0
M  V30 30047 H 3022.91 3.72848 -1.0518 0
M  V30 30048 H 3023.32 4.13399 -3.22803 0
M  V30 30049 H 3024.79 5.1892 -1.88219 0
M  V30 30050 H 3025.27 4.37424 -0.394547 0
M  V30 30051 H 3025.88 3.7764 -1.95623 0
M  V30 30052 N 3024.19 0.99344 1.22346 0
M  V30 30053 C 3025.6 0.704647 1.72892 0
M  V30 30054 C 3025.95 -0.778452 1.80096 0
M  V30 30055 O 3025.08 -1.6085 1.44763 0
M  V30 30056 C 3025.67 1.27243 3.13998 0
M  V30 30057 C 3024.23 1.033 3.61947 0
M  V30 30058 C 3023.38 1.39229 2.39814 0
M  V30 30059 H 3026.33 1.16574 1.07686 0
M  V30 30060 H 3026.35 0.651278 3.74885 0
M  V30 30061 H 3025.86 2.35185 3.08723 0
M  V30 30062 H 3023.97 -0.0297674 3.72588 0
M  V30 30063 H 3024.08 1.69676 4.48048 0
M  V30 30064 H 3022.44 0.810891 2.41447 0
M  V30 30065 H 3023.23 2.48176 2.37199 0
M  V30 30066 N 3025.67 -1.37693 0.766707 0
M  V30 30067 C 3026.9 -2.04088 0.339975 0
M  V30 30068 C 3027.31 -1.57828 -1.03614 0
M  V30 30069 O 3026.67 -0.757243 -1.66048 0
M  V30 30070 C 3026.72 -3.59619 0.368332 0
M  V30 30071 O 3026.44 -4.04185 1.69016 0
M  V30 30072 C 3027.94 -4.43244 -0.0706274 0
M  V30 30073 H 3025.16 -0.655542 0.1432 0
M  V30 30074 H 3027.71 -1.76126 1.03922 0
M  V30 30075 H 3025.86 -3.8637 -0.282292 0
M  V30 30076 H 3026.28 -4.98682 1.62532 0
M  V30 30077 H 3027.75 -5.52 0.000370566 0
M  V30 30078 H 3028.23 -4.24671 -1.12032 0
M  V30 30079 H 3028.83 -4.21708 0.551617 0
M  V30 30080 N 3027.15 -0.516835 -1.48884 0
M  V30 30081 C 3028.56 -0.0730249 -1.86557 0
M  V30 30082 C 3028.91 1.34579 -1.42769 0
M  V30 30083 O 3028.04 2.00566 -0.812549 0
M  V30 30084 C 3028.63 -0.125745 -3.38567 0
M  V30 30085 C 3027.19 0.262801 -3.75481 0
M  V30 30086 C 3026.34 -0.491329 -2.72913 0
M  V30 30087 H 3029.29 -0.728791 -1.40976 0
M  V30 30088 H 3029.31 0.665766 -3.7463 0
M  V30 30089 H 3028.82 -1.15849 -3.70406 0
M  V30 30090 H 3026.92 1.29818 -3.49253 0
M  V30 30091 H 3027.03 -0.0676632 -4.79052 0
M  V30 30092 H 3025.4 0.0608078 -2.54627 0
M  V30 30093 H 3026.18 -1.52445 -3.07596 0
M  V30 30094 N 3028.63 1.55583 -0.251365 0
M  V30 30095 C 3029.85 2.03452 0.376151 0
M  V30 30096 C 3030.27 1.1305 1.51213 0
M  V30 30097 O 3029.63 0.145801 1.81917 0
M  V30 30098 C 3029.68 3.50633 0.879717 0
M  V30 30099 O 3029.4 4.37592 -0.210994 0
M  V30 30100 C 3030.9 4.14283 1.57747 0
M  V30 30101 H 3028.12 0.66509 0.0888606 0
M  V30 30102 H 3030.66 2.01004 -0.376532 0
M  V30 30103 H 3028.82 3.53601 1.58256 0
M  V30 30104 H 3029.23 5.24218 0.172111 0
M  V30 30105 H 3030.71 5.18945 1.88149 0
M  V30 30106 H 3031.18 3.61038 2.50097 0
M  V30 30107 H 3031.79 4.15251 0.919081 0
M  V30 30108 N 3030.1 -0.0216912 1.57585 0
M  V30 30109 C 3031.52 -0.567346 1.77871 0
M  V30 30110 C 3031.87 -1.75189 0.883368 0
M  V30 30111 O 3030.99 -2.16252 0.0801199 0
M  V30 30112 C 3031.59 -1.036 3.22572 0
M  V30 30113 C 3030.15 -1.52712 3.44029 0
M  V30 30114 C 3029.29 -0.468497 2.73314 0
M  V30 30115 H 3032.24 0.204527 1.57377 0
M  V30 30116 H 3032.26 -1.90304 3.29491 0
M  V30 30117 H 3031.78 -0.173671 3.87711 0
M  V30 30118 H 3029.88 -2.41106 2.84075 0
M  V30 30119 H 3029.99 -1.56954 4.52661 0
M  V30 30120 H 3028.35 -0.925222 2.37301 0
M  V30 30121 H 3029.14 0.384498 3.4114 0
M  V30 30122 N 3031.58 -1.54832 -0.294093 0
M  V30 30123 C 3032.81 -1.78441 -1.04721 0
M  V30 30124 C 3033.23 -0.547271 -1.80694 0
M  V30 30125 O 3032.58 0.48311 -1.75989 0
M  V30 30126 C 3032.63 -2.99637 -2.02237 0
M  V30 30127 O 3032.36 -4.18571 -1.29345 0
M  V30 30128 C 3033.86 -3.35688 -2.89532 0
M  V30 30129 H 3031.08 -0.594954 -0.310275 0
M  V30 30130 H 3033.62 -2.01799 -0.331271 0
M  V30 30131 H 3031.78 -2.78467 -2.69323 0
M  V30 30132 H 3032.19 -4.86947 -1.94892 0
M  V30 30133 H 3033.66 -4.23715 -3.53793 0
M  V30 30134 H 3034.14 -2.54149 -3.58197 0
M  V30 30135 H 3034.75 -3.59042 -2.27966 0
M  V30 30136 N 3033.06 0.557619 -1.47405 0
M  V30 30137 C 3034.31 1.31222 -1.53705 0
M  V30 30138 C 3034.63 1.93964 -0.200776 0
M  V30 30139 O 3033.9 1.79909 0.775221 0
M  V30 30140 H 3032.48 0.487289 -0.566179 0
M  V30 30141 H 3035.14 0.651163 -1.83701 0
M  V30 30142 H 3034.24 2.10595 -2.30339 0
M  V30 30143 N 3034.54 1.35531 0.804316 0
M  V30 30144 C 3035.77 1.32051 1.5928 0
M  V30 30145 C 3036.18 -0.101523 1.88527 0
M  V30 30146 O 3035.54 -1.05414 1.48977 0
M  V30 30147 C 3035.59 2.12742 2.92272 0
M  V30 30148 O 3035.31 3.49401 2.64293 0
M  V30 30149 C 3036.81 2.16874 3.86627 0
M  V30 30150 H 3034.03 0.453537 0.494515 0
M  V30 30151 H 3036.58 1.78417 0.999384 0
M  V30 30152 H 3034.73 1.6997 3.48122 0
M  V30 30153 H 3035.15 3.91335 3.49224 0
M  V30 30154 H 3036.62 2.7772 4.77049 0
M  V30 30155 H 3037.1 1.1681 4.23382 0
M  V30 30156 H 3037.7 2.59817 3.36712 0
M  V30 30157 N 3036.02 -1.02674 1.19565 0
M  V30 30158 C 3036.95 -2.11084 0.893091 0
M  V30 30159 C 3037.96 -1.62393 -0.115072 0
M  V30 30160 O 3039.15 -1.78132 0.114621 0
M  V30 30161 C 3036.25 -3.37427 0.315593 0
M  V30 30162 C 3035.42 -4.15298 1.37283 0
M  V30 30163 C 3034.48 -5.19952 0.808489 0
M  V30 30164 O 3033.51 -5.49441 1.48671 0
M  V30 30165 N 3034.71 -5.79208 -0.387151 0
M  V30 30166 H 3037.48 -2.37629 1.82626 0
M  V30 30167 H 3035.04 -1.18982 1.09794 0
M  V30 30168 H 3037.03 -4.04629 -0.0758455 0
M  V30 30169 H 3035.6 -3.08212 -0.521907 0
M  V30 30170 H 3034.82 -3.43213 1.93903 0
M  V30 30171 H 3036.11 -4.6411 2.08517 0
M  V30 30172 H 3035.51 -5.5757 -0.955627 0
M  V30 30173 H 3034.06 -6.47807 -0.720344 0
M  V30 30174 N 3037.5 -0.999914 -1.21817 0
M  V30 30175 C 3038.72 -0.698393 -1.94756 0
M  V30 30176 C 3039.14 0.738153 -1.73772 0
M  V30 30177 O 3038.5 1.49887 -1.04116 0
M  V30 30178 C 3038.55 -1.00359 -3.4729 0
M  V30 30179 O 3038.27 -2.38369 -3.67575 0
M  V30 30180 C 3039.77 -0.720757 -4.37401 0
M  V30 30181 H 3036.99 -0.257781 -0.619508 0
M  V30 30182 H 3039.53 -1.33659 -1.54776 0
M  V30 30183 H 3037.69 -0.411085 -3.85213 0
M  V30 30184 H 3038.1 -2.48837 -4.61714 0
M  V30 30185 H 3039.58 -0.984518 -5.43149 0
M  V30 30186 H 3040.05 0.345232 -4.37841 0
M  V30 30187 H 3040.66 -1.29464 -4.05116 0
M  V30 30188 N 3038.97 1.37284 -0.773999 0
M  V30 30189 C 3040.38 1.82266 -0.404465 0
M  V30 30190 C 3040.74 1.64475 1.06969 0
M  V30 30191 O 3039.86 1.15712 1.82865 0
M  V30 30192 C 3040.46 3.309 -0.727356 0
M  V30 30193 C 3039.01 3.74151 -0.41085 0
M  V30 30194 C 3038.16 2.5978 -0.970029 0
M  V30 30195 H 3041.11 1.25724 -0.96846 0
M  V30 30196 H 3041.13 3.80498 -0.0128243 0
M  V30 30197 H 3040.65 3.43817 -1.80032 0
M  V30 30198 H 3038.75 3.66803 0.654705 0
M  V30 30199 H 3038.86 4.70171 -0.920675 0
M  V30 30200 H 3037.22 2.51632 -0.394138 0
M  V30 30201 H 3038.01 2.75488 -2.04844 0
M  V30 30202 N 3040.45 0.524724 1.48608 0
M  V30 30203 C 3041.68 -0.00739309 2.06899 0
M  V30 30204 C 3042.09 -1.28634 1.38198 0
M  V30 30205 O 3041.45 -1.76403 0.467802 0
M  V30 30206 C 3041.5 -0.240485 3.60699 0
M  V30 30207 O 3041.22 0.98779 4.26819 0
M  V30 30208 C 3042.72 -0.813576 4.3577 0
M  V30 30209 H 3039.94 0.0311411 0.670277 0
M  V30 30210 H 3042.49 0.728866 1.9107 0
M  V30 30211 H 3040.64 -0.926779 3.76151 0
M  V30 30212 H 3041.06 0.765267 5.18887 0
M  V30 30213 H 3042.53 -0.926124 5.44175 0
M  V30 30214 H 3043.01 -1.81721 3.99843 0
M  V30 30215 H 3043.61 -0.164011 4.24984 0
M  V30 30216 N 3041.93 -1.55447 0.259613 0
M  V30 30217 C 3043.16 -2.03649 -0.365357 0
M  V30 30218 C 3043.57 -1.1385 -1.50611 0
M  V30 30219 O 3042.93 -0.155446 -1.81837 0
M  V30 30220 C 3042.98 -3.51094 -0.86111 0
M  V30 30221 O 3042.7 -4.37474 0.234198 0
M  V30 30222 C 3044.2 -4.15114 -1.55548 0
M  V30 30223 H 3041.42 -0.665552 -0.0853322 0
M  V30 30224 H 3043.97 -2.00801 0.387186 0
M  V30 30225 H 3042.12 -3.54435 -1.56379 0
M  V30 30226 H 3042.54 -5.24301 -0.144308 0
M  V30 30227 H 3044.01 -5.19936 -1.85394 0
M  V30 30228 H 3044.49 -3.62359 -2.48178 0
M  V30 30229 H 3045.09 -4.15732 -0.897047 0
M  V30 30230 N 3043.41 0.0133338 -1.57594 0
M  V30 30231 C 3044.64 0.712294 -1.94252 0
M  V30 30232 C 3045.05 1.68042 -0.860659 0
M  V30 30233 O 3044.41 1.81783 0.1616 0
M  V30 30234 C 3044.46 1.45575 -3.30893 0
M  V30 30235 O 3044.18 0.526463 -4.34925 0
M  V30 30236 C 3045.68 2.25043 -3.8193 0
M  V30 30237 H 3042.9 0.19923 -0.64074 0
M  V30 30238 H 3045.44 -0.0338215 -2.04472 0
M  V30 30239 H 3043.6 2.15361 -3.22023 0
M  V30 30240 H 3044.01 1.04953 -5.13892 0
M  V30 30241 H 3045.49 2.72581 -4.80004 0
M  V30 30242 H 3045.96 3.07146 -3.13939 0
M  V30 30243 H 3046.57 1.60301 -3.93934 0
M  V30 30244 N 3044.89 1.54985 0.285878 0
M  V30 30245 C 3046.3 1.65825 0.85784 0
M  V30 30246 C 3046.65 0.576796 1.8753 0
M  V30 30247 O 3045.77 -0.283978 2.14529 0
M  V30 30248 C 3046.37 3.00607 1.56272 0
M  V30 30249 C 3044.93 3.13517 2.08288 0
M  V30 30250 C 3044.07 2.61573 0.920587 0
M  V30 30251 H 3047.02 1.58577 0.0625184 0
M  V30 30252 H 3047.05 2.92876 2.42907 0
M  V30 30253 H 3046.56 3.79296 0.82195 0
M  V30 30254 H 3044.66 2.39577 2.85366 0
M  V30 30255 H 3044.77 4.19896 2.30703 0
M  V30 30256 H 3043.14 2.18405 1.31039 0
M  V30 30257 H 3043.92 3.42754 0.193533 0
M  V30 30258 N 3046.36 -0.549794 1.47699 0
M  V30 30259 C 3047.61 -1.30301 1.53963 0
M  V30 30260 C 3047.93 -1.94472 0.209765 0
M  V30 30261 O 3049.13 -2.71083 0.150465 0
M  V30 30262 C 3047.59 -2.36323 2.7144 0
M  V30 30263 C 3047.2 -1.78309 4.10986 0
M  V30 30264 C 3048.94 -3.12778 2.87002 0
M  V30 30265 C 3046.85 -2.82155 5.19752 0
M  V30 30266 H 3045.78 -0.489964 0.573106 0
M  V30 30267 H 3048.43 -0.583058 1.7399 0
M  V30 30268 H 3046.81 -3.11265 2.44806 0
M  V30 30269 H 3047.98 -1.09689 4.47554 0
M  V30 30270 H 3046.3 -1.14413 4.00373 0
M  V30 30271 H 3048.9 -3.90341 3.65429 0
M  V30 30272 H 3049.24 -3.67423 1.95719 0
M  V30 30273 H 3049.77 -2.44949 3.13441 0
M  V30 30274 H 3046.51 -2.32356 6.12936 0
M  V30 30275 H 3046.03 -3.49163 4.87694 0
M  V30 30276 H 3047.71 -3.45511 5.4702 0
M  V30 30277 N 3047.84 -1.35955 -0.797117 0
M  V30 30278 C 3049.07 -1.32893 -1.58578 0
M  V30 30279 C 3049.49 0.0915233 -1.88578 0
M  V30 30280 O 3048.84 1.04622 -1.49534 0
M  V30 30281 C 3048.89 -2.14289 -2.9114 0
M  V30 30282 O 3048.61 -3.50798 -2.62436 0
M  V30 30283 C 3050.12 -2.18921 -3.85472 0
M  V30 30284 H 3047.34 -0.456153 -0.492103 0
M  V30 30285 H 3049.88 -1.78944 -0.989908 0
M  V30 30286 H 3048.03 -1.71814 -3.47216 0
M  V30 30287 H 3048.45 -3.93182 -3.47143 0
M  V30 30288 H 3049.92 -2.80246 -4.75569 0
M  V30 30289 H 3050.4 -1.19054 -4.22756 0
M  V30 30290 H 3051.01 -2.61599 -3.3533 0
M  V30 30291 N 3049.32 1.02038 -1.20108 0
M  V30 30292 C 3050.55 1.79185 -1.03443 0
M  V30 30293 C 3050.96 1.84148 0.41651 0
M  V30 30294 O 3050.32 1.29171 1.28923 0
M  V30 30295 C 3050.37 3.23833 -1.60669 0
M  V30 30296 O 3050.09 3.19188 -3.00085 0
M  V30 30297 C 3051.59 4.17543 -1.48905 0
M  V30 30298 H 3048.81 0.563623 -0.364102 0
M  V30 30299 H 3051.36 1.28467 -1.59112 0
M  V30 30300 H 3049.51 3.71712 -1.09129 0
M  V30 30301 H 3049.93 4.09952 -3.27169 0
M  V30 30302 H 3051.4 5.16894 -1.93712 0
M  V30 30303 H 3051.88 4.36981 -0.44092 0
M  V30 30304 H 3052.48 3.75544 -1.99617 0
M  V30 30305 N 3050.8 1.00636 1.21285 0
M  V30 30306 C 3052.03 0.708712 1.94383 0
M  V30 30307 C 3052.44 -0.728927 1.74161 0
M  V30 30308 O 3051.8 -1.49333 1.04909 0
M  V30 30309 C 3051.85 1.02199 3.46753 0
M  V30 30310 O 3051.57 2.40315 3.66306 0
M  V30 30311 C 3053.07 0.743944 4.37013 0
M  V30 30312 H 3050.29 0.261063 0.618132 0
M  V30 30313 H 3052.84 1.34477 1.54065 0
M  V30 30314 H 3050.99 0.431508 3.84989 0
M  V30 30315 H 3051.4 2.51283 4.60388 0
M  V30 30316 H 3052.88 1.01331 5.4262 0
M  V30 30317 H 3053.36 -0.322007 4.38018 0
M  V30 30318 H 3053.96 1.3161 4.04424 0
M  V30 30319 N 3052.28 -1.36872 0.781268 0
M  V30 30320 C 3053.5 -2.03716 0.361602 0
M  V30 30321 C 3053.92 -1.58918 -1.01934 0
M  V30 30322 O 3053.28 -0.774812 -1.65236 0
M  V30 30323 C 3053.33 -3.59208 0.406454 0
M  V30 30324 O 3053.05 -4.02369 1.73293 0
M  V30 30325 C 3054.55 -4.43294 -0.0236115 0
M  V30 30326 H 3051.77 -0.653986 0.150145 0
M  V30 30327 H 3054.31 -1.75014 1.05784 0
M  V30 30328 H 3052.47 -3.86648 -0.241296 0
M  V30 30329 H 3052.88 -4.9693 1.67812 0
M  V30 30330 H 3054.36 -5.51969 0.0589175 0
M  V30 30331 H 3054.83 -4.25835 -1.07522 0
M  V30 30332 H 3055.44 -4.21099 0.596314 0
M  V30 30333 N 3053.75 -0.532597 -1.48328 0
M  V30 30334 C 3054.98 -0.00357936 -2.069 0
M  V30 30335 C 3055.4 1.279 -1.38878 0
M  V30 30336 O 3054.75 1.76152 -0.47715 0
M  V30 30337 C 3054.81 0.221353 -3.60822 0
M  V30 30338 O 3054.53 -1.01041 -4.26289 0
M  V30 30339 C 3056.03 0.790454 -4.36196 0
M  V30 30340 H 3053.25 -0.0346953 -0.670102 0
M  V30 30341 H 3055.79 -0.738989 -1.90681 0
M  V30 30342 H 3053.95 0.906818 -3.76637 0
M  V30 30343 H 3054.36 -0.792774 -5.18474 0
M  V30 30344 H 3055.83 0.897252 -5.44659 0
M  V30 30345 H 3056.31 1.79598 -4.00801 0
M  V30 30346 H 3056.92 0.141471 -4.25065 0
M  V30 30347 N 3055.23 1.55307 -0.267853 0
M  V30 30348 C 3056.48 1.9973 0.351521 0
M  V30 30349 C 3056.81 1.15598 1.56047 0
M  V30 30350 O 3056.09 0.224308 1.93202 0
M  V30 30351 C 3056.37 3.52397 0.740848 0
M  V30 30352 C 3056.22 4.47286 -0.47494 0
M  V30 30353 C 3057.54 4.10759 1.58003 0
M  V30 30354 H 3054.66 0.726098 0.126295 0
M  V30 30355 H 3057.3 1.86296 -0.373349 0
M  V30 30356 H 3055.45 3.63976 1.35845 0
M  V30 30357 H 3057.12 4.4766 -1.11348 0
M  V30 30358 H 3055.37 4.19244 -1.11432 0
M  V30 30359 H 3056.04 5.51771 -0.158879 0
M  V30 30360 H 3058.51 4.02411 1.0585 0
M  V30 30361 H 3057.39 5.17804 1.82126 0
M  V30 30362 H 3057.65 3.6053 2.55872 0
M  V30 30363 N 3056.71 -0.00497598 1.57599 0
M  V30 30364 C 3057.94 -0.701982 1.94627 0
M  V30 30365 C 3058.35 -1.67583 0.869559 0
M  V30 30366 O 3057.71 -1.81866 -0.151958 0
M  V30 30367 C 3057.76 -1.43818 3.3166 0
M  V30 30368 O 3057.48 -0.50339 4.35198 0
M  V30 30369 C 3058.98 -2.23015 3.83118 0
M  V30 30370 H 3056.2 -0.195829 0.641788 0
M  V30 30371 H 3058.75 0.0446647 2.04451 0
M  V30 30372 H 3056.9 -2.1365 3.2316 0
M  V30 30373 H 3057.32 -1.02226 5.14442 0
M  V30 30374 H 3058.79 -2.70031 4.81443 0
M  V30 30375 H 3059.27 -3.05477 3.15564 0
M  V30 30376 H 3059.87 -1.58209 3.94778 0
M  V30 30377 N 3058.19 -1.55135 -0.277654 0
M  V30 30378 C 3059.6 -1.66278 -0.849034 0
M  V30 30379 C 3059.95 -0.586733 -1.87221 0
M  V30 30380 O 3059.08 0.272597 -2.14676 0
M  V30 30381 C 3059.67 -3.01432 -1.54675 0
M  V30 30382 C 3058.23 -3.14617 -2.06623 0
M  V30 30383 C 3057.38 -2.62058 -0.906702 0
M  V30 30384 H 3060.33 -1.58608 -0.0541078 0
M  V30 30385 H 3060.35 -2.9416 -2.41351 0
M  V30 30386 H 3059.86 -3.79727 -0.801823 0
M  V30 30387 H 3057.96 -2.41087 -2.84091 0
M  V30 30388 H 3058.07 -4.21114 -2.28473 0
M  V30 30389 H 3056.44 -2.19097 -1.29879 0
M  V30 30390 H 3057.22 -3.42852 -0.175353 0
M  V30 30391 N 3059.67 0.541953 -1.47989 0
M  V30 30392 C 3060.89 1.32344 -1.59037 0
M  V30 30393 C 3061.31 1.87188 -0.246156 0
M  V30 30394 O 3060.67 1.65791 0.762859 0
M  V30 30395 C 3060.72 2.4827 -2.62763 0
M  V30 30396 O 3060.44 1.95688 -3.91967 0
M  V30 30397 C 3061.94 3.40265 -2.84139 0
M  V30 30398 H 3059.16 0.402892 -0.536581 0
M  V30 30399 H 3061.7 0.655011 -1.93726 0
M  V30 30400 H 3059.86 3.1102 -2.30965 0
M  V30 30401 H 3060.27 2.71482 -4.48774 0
M  V30 30402 H 3061.75 4.17985 -3.60545 0
M  V30 30403 H 3062.22 3.94757 -1.92519 0
M  V30 30404 H 3062.83 2.83317 -3.17193 0
M  V30 30405 N 3061.15 1.36376 0.789896 0
M  V30 30406 C 3062.56 1.27372 1.36503 0
M  V30 30407 C 3062.91 -0.0866766 1.96008 0
M  V30 30408 O 3062.03 -0.988125 1.92523 0
M  V30 30409 C 3062.63 2.30644 2.48171 0
M  V30 30410 C 3061.19 2.2533 3.01502 0
M  V30 30411 C 3060.33 2.15448 1.74577 0
M  V30 30412 H 3063.28 1.47262 0.59158 0
M  V30 30413 H 3063.31 1.94259 3.27175 0
M  V30 30414 H 3062.82 3.29644 2.04833 0
M  V30 30415 H 3060.92 1.29794 3.49262 0
M  V30 30416 H 3061.03 3.17998 3.58349 0
M  V30 30417 H 3059.4 1.61695 1.96791 0
M  V30 30418 H 3060.18 3.16335 1.33367 0
M  V30 30419 N 3062.62 -1.014 1.20647 0
M  V30 30420 C 3063.85 -1.78633 1.04392 0
M  V30 30421 C 3064.27 -1.84367 -0.406738 0
M  V30 30422 O 3063.62 -1.29853 -1.28236 0
M  V30 30423 C 3063.67 -3.22976 1.62384 0
M  V30 30424 O 3063.4 -3.17592 3.01773 0
M  V30 30425 C 3064.9 -4.16748 1.51117 0
M  V30 30426 H 3062.12 -0.561684 0.367086 0
M  V30 30427 H 3064.66 -1.27621 1.59791 0
M  V30 30428 H 3062.82 -3.71128 1.11099 0
M  V30 30429 H 3063.23 -4.08211 3.29339 0
M  V30 30430 H 3064.7 -5.1586 1.9645 0
M  V30 30431 H 3065.18 -4.36741 0.464088 0
M  V30 30432 H 3065.79 -3.7448 2.01606 0
M  V30 30433 N 3064.1 -1.01278 -1.2075 0
M  V30 30434 C 3065.51 -0.732063 -1.71749 0
M  V30 30435 C 3065.86 0.749701 -1.81312 0
M  V30 30436 O 3064.99 1.58527 -1.47303 0
M  V30 30437 C 3065.58 -1.32222 -3.11934 0
M  V30 30438 C 3064.14 -1.09046 -3.60258 0
M  V30 30439 C 3063.29 -1.43026 -2.37568 0
M  V30 30440 H 3066.24 -1.18272 -1.05818 0
M  V30 30441 H 3066.26 -0.710837 -3.73801 0
M  V30 30442 H 3065.77 -2.40067 -3.04942 0
M  V30 30443 H 3063.87 -0.0295119 -3.72588 0
M  V30 30444 H 3063.99 -1.76782 -4.45292 0
M  V30 30445 H 3062.35 -0.849201 -2.40126 0
M  V30 30446 H 3063.13 -2.51919 -2.33221 0
M  V30 30447 N 3065.58 1.36456 -0.788516 0
M  V30 30448 C 3066.81 2.03521 -0.372401 0
M  V30 30449 C 3067.22 1.59456 1.0109 0
M  V30 30450 O 3066.58 0.783564 1.64823 0
M  V30 30451 C 3066.63 3.58987 -0.425498 0
M  V30 30452 O 3066.35 4.01445 -1.75425 0
M  V30 30453 C 3067.85 4.433 0.000102246 0
M  V30 30454 H 3065.07 0.65318 -0.153611 0
M  V30 30455 H 3067.62 1.74451 -1.06711 0
M  V30 30456 H 3065.77 3.8677 0.220788 0
M  V30 30457 H 3066.19 4.96033 -1.70445 0
M  V30 30458 H 3067.66 5.5193 -0.0881889 0
M  V30 30459 H 3068.14 4.264 1.05262 0
M  V30 30460 H 3068.74 4.20777 -0.618637 0
M  V30 30461 N 3067.06 0.540456 1.48043 0
M  V30 30462 C 3068.31 0.0101722 2.02097 0
M  V30 30463 C 3068.63 -1.33769 1.41884 0
M  V30 30464 O 3067.9 -1.86869 0.587956 0
M  V30 30465 H 3066.48 0.000771847 0.747 0
M  V30 30466 H 3069.14 0.706666 1.81638 0
M  V30 30467 H 3068.23 -0.0903925 3.11969 0
M  V30 30468 N 3068.54 -1.55163 0.276085 0
M  V30 30469 C 3069.76 -2.04025 -0.343736 0
M  V30 30470 C 3070.18 -1.15441 -1.49395 0
M  V30 30471 O 3069.54 -0.174724 -1.81662 0
M  V30 30472 C 3069.59 -3.51988 -0.823823 0
M  V30 30473 O 3069.31 -4.37201 0.280584 0
M  V30 30474 C 3070.81 -4.16741 -1.51136 0
M  V30 30475 H 3068.03 -0.66642 -0.0782683 0
M  V30 30476 H 3070.57 -2.00379 0.408462 0
M  V30 30477 H 3068.73 -3.56074 -1.52611 0
M  V30 30478 H 3069.14 -5.24425 -0.0886909 0
M  V30 30479 H 3070.62 -5.21873 -1.79869 0
M  V30 30480 H 3071.09 -3.64971 -2.44321 0
M  V30 30481 H 3071.7 -4.1666 -0.852902 0
M  V30 30482 N 3070.01 -0.00338196 -1.576 0
M  V30 30483 C 3070.95 1.01517 -2.05492 0
M  V30 30484 C 3071.96 1.3049 -0.973464 0
M  V30 30485 O 3073.15 1.27406 -1.25019 0
M  V30 30486 C 3070.25 2.3491 -2.44276 0
M  V30 30487 C 3069.42 2.24828 -3.75195 0
M  V30 30488 C 3068.48 3.40937 -4.0081 0
M  V30 30489 O 3067.51 3.18973 -4.71429 0
M  V30 30490 N 3068.71 4.63898 -3.48969 0
M  V30 30491 H 3071.47 0.606728 -2.93494 0
M  V30 30492 H 3069.03 0.183932 -1.60852 0
M  V30 30493 H 3071.03 3.11364 -2.58524 0
M  V30 30494 H 3069.6 2.67484 -1.61775 0
M  V30 30495 H 3068.82 1.33263 -3.70991 0
M  V30 30496 H 3070.1 2.15269 -4.61017 0
M  V30 30497 H 3069.5 4.8464 -2.91789 0
M  V30 30498 H 3068.06 5.37607 -3.68541 0
M  V30 30499 N 3071.49 1.5528 0.269423 0
M  V30 30500 C 3072.72 1.80084 1.01869 0
M  V30 30501 C 3073.13 0.575948 1.79801 0
M  V30 30502 O 3072.49 -0.45505 1.76736 0
M  V30 30503 C 3072.54 3.02817 1.97444 0
M  V30 30504 O 3072.26 4.20576 1.2267 0
M  V30 30505 C 3073.76 3.40252 2.84154 0
M  V30 30506 H 3070.98 0.599815 0.30077 0
M  V30 30507 H 3073.53 2.02301 0.299124 0
M  V30 30508 H 3071.68 2.82716 2.64859 0
M  V30 30509 H 3072.1 4.89986 1.87121 0
M  V30 30510 H 3073.57 4.2929 3.47007 0
M  V30 30511 H 3074.05 2.59815 3.54108 0
M  V30 30512 H 3074.65 3.62624 2.22226 0
M  V30 30513 N 3072.97 -0.534097 1.48274 0
M  V30 30514 C 3074.38 -1.11607 1.49669 0
M  V30 30515 C 3074.73 -1.94413 0.264173 0
M  V30 30516 O 3073.86 -2.07055 -0.629047 0
M  V30 30517 C 3074.45 -2.03074 2.71194 0
M  V30 30518 C 3073.01 -2.56498 2.75474 0
M  V30 30519 C 3072.16 -1.33368 2.43122 0
M  V30 30520 H 3075.11 -0.319551 1.5545 0
M  V30 30521 H 3075.13 -2.87299 2.49478 0
M  V30 30522 H 3074.64 -1.42779 3.60882 0
M  V30 30523 H 3072.74 -3.20526 1.89984 0
M  V30 30524 H 3072.86 -2.95912 3.76793 0
M  V30 30525 H 3071.22 -1.6481 1.9419 0
M  V30 30526 H 3072 -0.748316 3.35045 0
M  V30 30527 N 3074.45 -1.36793 -0.782652 0
M  V30 30528 C 3075.68 -1.34568 -1.5716 0
M  V30 30529 C 3076.09 0.0715169 -1.88664 0
M  V30 30530 O 3075.45 1.0303 -1.50635 0
M  V30 30531 C 3075.5 -2.17365 -2.8885 0
M  V30 30532 O 3075.22 -3.53561 -2.587 0
M  V30 30533 C 3076.72 -2.22997 -3.83128 0
M  V30 30534 H 3073.94 -0.461347 -0.487237 0
M  V30 30535 H 3076.48 -1.79984 -0.970873 0
M  V30 30536 H 3074.64 -1.75487 -3.45374 0
M  V30 30537 H 3075.05 -3.96841 -3.42954 0
M  V30 30538 H 3076.53 -2.85275 -4.7257 0
M  V30 30539 H 3077 -1.23531 -4.2147 0
M  V30 30540 H 3077.61 -2.65141 -3.32536 0
M  V30 30541 N 3075.93 1.00759 -1.21184 0
M  V30 30542 C 3077.15 1.78077 -1.05338 0
M  V30 30543 C 3077.57 1.8458 0.396955 0
M  V30 30544 O 3076.93 1.30531 1.27546 0
M  V30 30545 C 3076.98 3.22111 -1.64095 0
M  V30 30546 O 3076.7 3.15987 -3.03453 0
M  V30 30547 C 3078.2 4.1594 -1.53325 0
M  V30 30548 H 3075.42 0.559729 -0.37006 0
M  V30 30549 H 3077.96 1.26772 -1.60466 0
M  V30 30550 H 3076.12 3.70533 -1.13065 0
M  V30 30551 H 3076.53 4.06459 -3.31499 0
M  V30 30552 H 3078.01 5.14811 -1.99183 0
M  V30 30553 H 3078.48 4.36489 -0.487243 0
M  V30 30554 H 3079.09 3.73405 -2.03589 0
M  V30 30555 N 3077.4 1.01917 1.20211 0
M  V30 30556 C 3078.63 0.729289 1.93621 0
M  V30 30557 C 3079.05 -0.710413 1.74924 0
M  V30 30558 O 3078.4 -1.48212 1.06487 0
M  V30 30559 C 3078.46 1.05871 3.45649 0
M  V30 30560 O 3078.18 2.44187 3.63737 0
M  V30 30561 C 3079.68 0.790253 4.36199 0
M  V30 30562 H 3076.9 0.267605 0.615328 0
M  V30 30563 H 3079.44 1.36104 1.5263 0
M  V30 30564 H 3077.6 0.472317 3.8451 0
M  V30 30565 H 3078.01 2.56151 4.57697 0
M  V30 30566 H 3079.48 1.0708 5.41514 0
M  V30 30567 H 3079.96 -0.275532 4.38335 0
M  V30 30568 H 3080.57 1.35892 4.03005 0
M  V30 30569 N 3078.88 -1.36036 0.795742 0
M  V30 30570 C 3080.29 -1.816 0.433411 0
M  V30 30571 C 3080.64 -1.66156 -1.04338 0
M  V30 30572 O 3079.77 -1.18606 -1.81001 0
M  V30 30573 C 3080.36 -3.29701 0.779908 0
M  V30 30574 C 3078.92 -3.7345 0.470322 0
M  V30 30575 C 3078.07 -2.58204 1.01123 0
M  V30 30576 H 3081.02 -1.24167 0.988339 0
M  V30 30577 H 3081.04 -3.80429 0.0733566 0
M  V30 30578 H 3080.55 -3.40909 1.85479 0
M  V30 30579 H 3078.66 -3.67798 -0.596267 0
M  V30 30580 H 3078.77 -4.68646 0.995358 0
M  V30 30581 H 3077.13 -2.50973 0.434121 0
M  V30 30582 H 3077.92 -2.72195 2.09201 0
M  V30 30583 N 3080.36 -0.5483 -1.47755 0
M  V30 30584 C 3081.61 -0.0188315 -2.01691 0
M  V30 30585 C 3081.92 1.33566 -1.42896 0
M  V30 30586 O 3083.13 1.95454 -1.88441 0
M  V30 30587 C 3081.58 0.0167838 -3.59896 0
M  V30 30588 C 3081.19 -1.33393 -4.2768 0
M  V30 30589 C 3082.94 0.494114 -4.21614 0
M  V30 30590 C 3080.84 -1.2579 -5.77867 0
M  V30 30591 H 3079.77 -0.00326973 -0.753993 0
M  V30 30592 H 3082.42 -0.694822 -1.69837 0
M  V30 30593 H 3080.81 0.758236 -3.88673 0
M  V30 30594 H 3081.98 -2.09239 -4.10555 0
M  V30 30595 H 3080.3 -1.74847 -3.77912 0
M  V30 30596 H 3082.89 0.569249 -5.31661 0
M  V30 30597 H 3083.24 1.5041 -3.88179 0
M  V30 30598 H 3083.77 -0.192208 -3.97335 0
M  V30 30599 H 3080.51 -2.24361 -6.15908 0
M  V30 30600 H 3080.03 -0.541102 -5.97354 0
M  V30 30601 H 3081.71 -0.956222 -6.39895 0
M  V30 30602 N 3081.84 1.55014 -0.28431 0
M  V30 30603 C 3083.07 2.04204 0.332912 0
M  V30 30604 C 3083.48 1.16232 1.48781 0
M  V30 30605 O 3082.84 0.184355 1.81566 0
M  V30 30606 C 3082.89 3.5242 0.805145 0
M  V30 30607 O 3082.61 4.37046 -0.303766 0
M  V30 30608 C 3084.11 4.17536 1.48924 0
M  V30 30609 H 3081.33 0.666825 0.074733 0
M  V30 30610 H 3083.88 2.0016 -0.419083 0
M  V30 30611 H 3082.03 3.56878 1.5072 0
M  V30 30612 H 3082.44 5.24465 0.0608781 0
M  V30 30613 H 3083.92 5.22819 1.77099 0
M  V30 30614 H 3084.4 3.66262 2.42382 0
M  V30 30615 H 3085 4.17107 0.830794 0
M  V30 30616 N 3083.32 0.0117398 1.57596 0
M  V30 30617 C 3084.54 -0.6813 1.95361 0
M  V30 30618 C 3084.96 -1.66651 0.887285 0
M  V30 30619 O 3084.32 -1.82017 -0.13266 0
M  V30 30620 C 3084.37 -1.40292 3.33167 0
M  V30 30621 O 3084.09 -0.457203 4.35708 0
M  V30 30622 C 3085.59 -2.18939 3.85462 0
M  V30 30623 H 3082.81 -0.189011 0.643829 0
M  V30 30624 H 3085.35 0.0663469 2.04392 0
M  V30 30625 H 3083.51 -2.1021 3.25408 0
M  V30 30626 H 3083.92 -0.967639 5.15497 0
M  V30 30627 H 3085.4 -2.6491 4.8428 0
M  V30 30628 H 3085.87 -3.02113 3.18786 0
M  V30 30629 H 3086.48 -1.54013 3.96434 0
M  V30 30630 N 3084.79 -1.55421 -0.261185 0
M  V30 30631 C 3086.02 -1.80622 -1.00913 0
M  V30 30632 C 3086.44 -0.585475 -1.79493 0
M  V30 30633 O 3085.79 0.445671 -1.76975 0
M  V30 30634 C 3085.85 -3.0386 -1.95836 0
M  V30 30635 O 3085.57 -4.2122 -1.20437 0
M  V30 30636 C 3087.07 -3.41754 -2.82346 0
M  V30 30637 H 3084.29 -0.601402 -0.297585 0
M  V30 30638 H 3086.83 -2.02456 -0.288392 0
M  V30 30639 H 3084.99 -2.84117 -2.63356 0
M  V30 30640 H 3085.4 -4.90971 -1.8452 0
M  V30 30641 H 3086.87 -4.31125 -3.44725 0
M  V30 30642 H 3087.35 -2.6169 -3.52725 0
M  V30 30643 H 3087.96 -3.63797 -2.20299 0
M  V30 30644 N 3086.27 0.526227 -1.48555 0
M  V30 30645 C 3087.5 1.3065 -1.60432 0
M  V30 30646 C 3087.92 1.86917 -0.265996 0
M  V30 30647 O 3087.27 1.66591 0.745232 0
M  V30 30648 C 3087.32 2.45469 -2.65382 0
M  V30 30649 O 3087.04 1.9152 -3.9402 0
M  V30 30650 C 3088.55 3.37232 -2.87732 0
M  V30 30651 H 3085.77 0.397178 -0.540824 0
M  V30 30652 H 3088.31 0.634427 -1.9441 0
M  V30 30653 H 3086.46 3.08553 -2.34251 0
M  V30 30654 H 3086.88 2.66707 -4.51628 0
M  V30 30655 H 3088.35 4.14137 -3.64958 0
M  V30 30656 H 3088.83 3.92693 -1.96695 0
M  V30 30657 H 3089.44 2.79937 -3.20181 0
M  V30 30658 N 3087.75 1.37206 0.775387 0
M  V30 30659 C 3088.98 1.35399 1.56444 0
M  V30 30660 C 3089.39 -0.0615106 1.887 0
M  V30 30661 O 3088.75 -1.0223 1.51179 0
M  V30 30662 C 3088.8 2.18894 2.87694 0
M  V30 30663 O 3088.52 3.54928 2.56822 0
M  V30 30664 C 3090.02 2.25026 3.8194 0
M  V30 30665 H 3087.24 0.463924 0.484784 0
M  V30 30666 H 3089.79 1.80497 0.961314 0
M  V30 30667 H 3087.94 1.77316 3.44439 0
M  V30 30668 H 3088.36 3.98655 3.40844 0
M  V30 30669 H 3089.83 2.87777 4.7105 0
M  V30 30670 H 3090.31 1.25765 4.20809 0
M  V30 30671 H 3090.91 2.66901 3.31125 0
M  V30 30672 N 3089.23 -1.00115 1.21716 0
M  V30 30673 C 3090.47 -1.74206 1.03827 0
M  V30 30674 C 3090.81 -1.89454 -0.4267 0
M  V30 30675 O 3090.08 -1.43168 -1.31655 0
M  V30 30676 C 3090.37 -3.15242 1.74052 0
M  V30 30677 C 3090.22 -3.07694 3.28092 0
M  V30 30678 C 3091.54 -4.14246 1.48621 0
M  V30 30679 H 3088.66 -0.632332 0.378584 0
M  V30 30680 H 3091.3 -1.16691 1.49944 0
M  V30 30681 H 3089.45 -3.64347 1.34846 0
M  V30 30682 H 3091.12 -2.66274 3.76691 0
M  V30 30683 H 3089.36 -2.447 3.58196 0
M  V30 30684 H 3090.03 -4.07459 3.72399 0
M  V30 30685 H 3092.51 -3.73863 1.82662 0
M  V30 30686 H 3091.39 -5.11062 2.00266 0
M  V30 30687 H 3091.65 -4.40129 0.417035 0
M  V30 30688 N 3090.71 -1.02553 -1.19669 0
M  V30 30689 C 3091.94 -0.739547 -1.93231 0
M  V30 30690 C 3092.35 0.701127 -1.75299 0
M  V30 30691 O 3091.71 1.47645 -1.07272 0
M  V30 30692 C 3091.76 -1.07703 -3.45083 0
M  V30 30693 O 3091.48 -2.46113 -3.62436 0
M  V30 30694 C 3092.98 -0.813374 -4.35774 0
M  V30 30695 H 3090.2 -0.270864 -0.6139 0
M  V30 30696 H 3092.74 -1.36911 -1.51906 0
M  V30 30697 H 3090.9 -0.492702 -3.84254 0
M  V30 30698 H 3091.31 -2.58575 -4.56332 0
M  V30 30699 H 3092.79 -1.09951 -5.40939 0
M  V30 30700 H 3093.26 0.252282 -4.38475 0
M  V30 30701 H 3093.87 -1.38028 -4.02279 0
M  V30 30702 N 3092.19 1.35612 -0.802945 0
M  V30 30703 C 3093.6 1.81367 -0.443035 0
M  V30 30704 C 3093.95 1.66707 1.03456 0
M  V30 30705 O 3093.07 1.19564 1.8037 0
M  V30 30706 C 3093.67 3.29283 -0.797382 0
M  V30 30707 C 3092.23 3.73195 -0.49012 0
M  V30 30708 C 3091.37 2.57664 -1.02491 0
M  V30 30709 H 3094.32 1.23642 -0.99491 0
M  V30 30710 H 3094.35 3.80385 -0.0935307 0
M  V30 30711 H 3093.86 3.39921 -1.87284 0
M  V30 30712 H 3091.96 3.68109 0.576754 0
M  V30 30713 H 3092.07 4.68112 -1.0202 0
M  V30 30714 H 3090.44 2.50739 -0.447424 0
M  V30 30715 H 3091.22 2.71081 -2.10641 0
M  V30 30716 N 3093.66 0.556128 1.47462 0
M  V30 30717 C 3094.89 0.0364948 2.06868 0
M  V30 30718 C 3095.31 -1.25674 1.40895 0
M  V30 30719 O 3094.66 -1.75371 0.505114 0
M  V30 30720 C 3094.71 -0.163921 3.61128 0
M  V30 30721 O 3094.44 1.0781 4.24628 0
M  V30 30722 C 3095.94 -0.720959 4.37398 0
M  V30 30723 H 3093.16 0.0453517 0.669466 0
M  V30 30724 H 3095.7 0.769231 1.89481 0
M  V30 30725 H 3093.86 -0.846783 3.78032 0
M  V30 30726 H 3094.27 0.875158 5.17147 0
M  V30 30727 H 3095.74 -0.810488 5.46017 0
M  V30 30728 H 3096.22 -1.73198 4.03607 0
M  V30 30729 H 3096.83 -0.0738292 4.25236 0
M  V30 30730 N 3095.14 -1.54861 0.292527 0
M  V30 30731 C 3096.55 -1.85606 -0.201808 0
M  V30 30732 C 3096.9 -1.21451 -1.54091 0
M  V30 30733 O 3096.03 -0.509116 -2.10326 0
M  V30 30734 C 3096.62 -3.36741 -0.372952 0
M  V30 30735 C 3095.18 -3.67548 -0.81151 0
M  V30 30736 C 3094.33 -2.77169 0.085107 0
M  V30 30737 H 3097.28 -1.50153 0.5138 0
M  V30 30738 H 3097.3 -3.60787 -1.20885 0
M  V30 30739 H 3096.81 -3.83405 0.601818 0
M  V30 30740 H 3094.91 -3.26395 -1.79713 0
M  V30 30741 H 3095.03 -4.7485 -0.636769 0
M  V30 30742 H 3093.39 -2.50972 -0.43418 0
M  V30 30743 H 3094.17 -3.26653 1.05608 0
M  V30 30744 N 3096.62 -0.0200973 -1.57587 0
M  V30 30745 C 3097.85 0.67093 -1.9572 0
M  V30 30746 C 3098.26 1.66179 -0.89611 0
M  V30 30747 O 3097.62 1.82085 0.123005 0
M  V30 30748 C 3097.67 1.38523 -3.33907 0
M  V30 30749 O 3097.39 0.43409 -4.35944 0
M  V30 30750 C 3098.89 2.16891 -3.86617 0
M  V30 30751 H 3096.11 0.185594 -0.644822 0
M  V30 30752 H 3098.66 -0.0771854 -2.04354 0
M  V30 30753 H 3096.81 2.08482 -3.26518 0
M  V30 30754 H 3097.23 0.940287 -5.16003 0
M  V30 30755 H 3098.7 2.62338 -4.85678 0
M  V30 30756 H 3099.18 3.00418 -3.20384 0
M  V30 30757 H 3099.78 1.51909 -3.97245 0
M  V30 30758 N 3098.1 1.55557 0.252939 0
M  V30 30759 C 3099.51 1.67607 0.822473 0
M  V30 30760 C 3099.86 0.616444 1.86264 0
M  V30 30761 O 3098.98 -0.23841 2.15083 0
M  V30 30762 C 3099.58 3.03854 1.4986 0
M  V30 30763 C 3098.14 3.17865 2.01591 0
M  V30 30764 C 3097.29 2.63467 0.864896 0
M  V30 30765 H 3100.24 1.58674 0.0288679 0
M  V30 30766 H 3100.26 2.97962 2.3664 0
M  V30 30767 H 3099.77 3.80954 0.741311 0
M  V30 30768 H 3097.87 2.45576 2.8022 0
M  V30 30769 H 3097.98 4.24695 2.21744 0
M  V30 30770 H 3096.35 2.21136 1.26377 0
M  V30 30771 H 3097.13 3.43087 0.120787 0
M  V30 30772 N 3099.58 -0.518341 1.48832 0
M  V30 30773 C 3100.8 -1.29797 1.61122 0
M  V30 30774 C 3101.22 -1.86773 0.275905 0
M  V30 30775 O 3100.58 -1.66984 -0.736387 0
M  V30 30776 C 3100.63 -2.44058 2.6668 0
M  V30 30777 O 3100.35 -1.89427 3.9503 0
M  V30 30778 C 3101.85 -3.35701 2.89516 0
M  V30 30779 H 3099.07 -0.394304 0.542923 0
M  V30 30780 H 3101.61 -0.624108 1.94744 0
M  V30 30781 H 3099.77 -3.07307 2.35884 0
M  V30 30782 H 3100.18 -2.64308 4.53036 0
M  V30 30783 H 3101.66 -4.12196 3.67149 0
M  V30 30784 H 3102.13 -3.91644 1.98775 0
M  V30 30785 H 3102.74 -2.78235 3.21661 0
M  V30 30786 N 3101.05 -1.37615 -0.7681 0
M  V30 30787 C 3102.3 -1.32762 -1.52377 0
M  V30 30788 C 3102.62 0.0863222 -1.94809 0
M  V30 30789 O 3101.89 1.03109 -1.6657 0
M  V30 30790 H 3100.47 -0.488458 -0.565171 0
M  V30 30791 H 3103.13 -1.72143 -0.913944 0
M  V30 30792 H 3102.23 -1.96905 -2.42146 0
M  V30 30793 N 3102.53 0.994677 -1.22245 0
M  V30 30794 C 3103.76 1.7695 -1.07221 0
M  V30 30795 C 3104.17 1.8499 0.377356 0
M  V30 30796 O 3103.53 1.31876 1.26154 0
M  V30 30797 C 3103.58 3.20352 -1.67502 0
M  V30 30798 O 3103.3 3.1275 -3.06788 0
M  V30 30799 C 3104.8 4.14291 -1.57728 0
M  V30 30800 H 3102.02 0.555773 -0.375976 0
M  V30 30801 H 3104.57 1.25063 -1.61801 0
M  V30 30802 H 3102.72 3.69313 -1.16989 0
M  V30 30803 H 3103.14 4.0292 -3.35791 0
M  V30 30804 H 3104.61 5.12669 -2.04632 0
M  V30 30805 H 3105.09 4.35948 -0.533511 0
M  V30 30806 H 3105.69 3.71225 -2.07538 0
M  V30 30807 N 3104.01 1.03186 1.19123 0
M  V30 30808 C 3104.94 0.573333 2.21913 0
M  V30 30809 C 3105.95 -0.352369 1.58941 0
M  V30 30810 O 3107.14 -0.148287 1.77883 0
M  V30 30811 C 3104.24 -0.183491 3.38403 0
M  V30 30812 C 3103.42 0.747893 4.30959 0
M  V30 30813 C 3102.48 0.0359414 5.26188 0
M  V30 30814 O 3101.5 0.663487 5.6532 0
M  V30 30815 N 3102.7 -1.23377 5.67237 0
M  V30 30816 H 3105.47 1.45739 2.61878 0
M  V30 30817 H 3103.03 0.911255 1.3382 0
M  V30 30818 H 3105.02 -0.669398 3.99125 0
M  V30 30819 H 3103.59 -0.96899 2.97203 0
M  V30 30820 H 3102.81 1.41383 3.67973 0
M  V30 30821 H 3104.1 1.3808 4.89705 0
M  V30 30822 H 3103.5 -1.7643 5.37484 0
M  V30 30823 H 3102.05 -1.66412 6.30199 0
M  V30 30824 N 3105.49 -1.35184 0.810125 0
M  V30 30825 C 3106.72 -2.02903 0.404732 0
M  V30 30826 C 3107.13 -1.61044 -0.985406 0
M  V30 30827 O 3106.49 -0.809687 -1.63555 0
M  V30 30828 C 3106.54 -3.58265 0.482556 0
M  V30 30829 O 3106.26 -3.98603 1.81789 0
M  V30 30830 C 3107.76 -4.43244 0.070423 0
M  V30 30831 H 3104.98 -0.650654 0.163983 0
M  V30 30832 H 3107.53 -1.72731 1.09473 0
M  V30 30833 H 3105.68 -3.87073 -0.159228 0
M  V30 30834 H 3106.09 -4.93259 1.78315 0
M  V30 30835 H 3107.57 -5.51719 0.175985 0
M  V30 30836 H 3108.05 -4.2802 -0.984649 0
M  V30 30837 H 3108.65 -4.19739 0.685501 0
M  V30 30838 N 3106.97 -0.56394 -1.47165 0
M  V30 30839 C 3108.38 -0.13234 -1.8623 0
M  V30 30840 C 3108.73 1.29969 -1.46978 0
M  V30 30841 O 3107.85 1.97879 -0.875946 0
M  V30 30842 C 3108.45 -0.233394 -3.37995 0
M  V30 30843 C 3107.01 0.143212 -3.76127 0
M  V30 30844 C 3106.15 -0.577905 -2.71211 0
M  V30 30845 H 3109.11 -0.773273 -1.38586 0
M  V30 30846 H 3109.13 0.546243 -3.76559 0
M  V30 30847 H 3108.64 -1.27574 -3.66533 0
M  V30 30848 H 3106.74 1.18641 -3.53207 0
M  V30 30849 H 3106.85 -0.220036 -4.78594 0
M  V30 30850 H 3105.22 -0.0202308 -2.54692 0
M  V30 30851 H 3106 -1.62154 -3.0259 0
M  V30 30852 N 3108.44 1.54704 -0.300735 0
M  V30 30853 C 3109.67 2.04546 0.311234 0
M  V30 30854 C 3110.09 1.17803 1.47539 0
M  V30 30855 O 3109.44 0.203602 1.81361 0
M  V30 30856 C 3109.5 3.53254 0.767721 0
M  V30 30857 O 3109.22 4.36699 -0.350104 0
M  V30 30858 C 3110.72 4.19092 1.44487 0
M  V30 30859 H 3107.94 0.66758 0.0676562 0
M  V30 30860 H 3110.48 1.99704 -0.440289 0
M  V30 30861 H 3108.64 3.58457 1.46927 0
M  V30 30862 H 3109.05 5.245 0.00524818 0
M  V30 30863 H 3110.52 5.24668 1.71544 0
M  V30 30864 H 3111 3.68812 2.38484 0
M  V30 30865 H 3111.61 4.17964 0.786507 0
M  V30 30866 N 3109.92 0.0284543 1.57574 0
M  V30 30867 C 3111.15 -0.660541 1.96073 0
M  V30 30868 C 3111.57 -1.65701 0.90491 0
M  V30 30869 O 3110.92 -1.82148 -0.113347 0
M  V30 30870 C 3110.97 -1.3675 3.34636 0
M  V30 30871 O 3110.69 -0.410965 4.36168 0
M  V30 30872 C 3112.2 -2.14838 3.87762 0
M  V30 30873 H 3109.42 -0.182172 0.645797 0
M  V30 30874 H 3111.96 0.0880217 2.0431 0
M  V30 30875 H 3110.11 -2.06747 3.27619 0
M  V30 30876 H 3110.53 -0.912909 5.16494 0
M  V30 30877 H 3112 -2.59758 4.87062 0
M  V30 30878 H 3112.48 -2.98714 3.21973 0
M  V30 30879 H 3113.09 -1.498 3.98045 0
M  V30 30880 N 3111.4 -1.55689 -0.244686 0
M  V30 30881 C 3112.63 -1.81682 -0.989912 0
M  V30 30882 C 3113.04 -0.60448 -1.78862 0
M  V30 30883 O 3112.4 0.426876 -1.77437 0
M  V30 30884 C 3112.45 -3.0592 -1.92602 0
M  V30 30885 O 3112.17 -4.22474 -1.15963 0
M  V30 30886 C 3113.67 -3.44729 -2.78705 0
M  V30 30887 H 3110.89 -0.604524 -0.29119 0
M  V30 30888 H 3113.44 -2.02751 -0.266902 0
M  V30 30889 H 3111.59 -2.86894 -2.60328 0
M  V30 30890 H 3112.01 -4.92901 -1.79302 0
M  V30 30891 H 3113.48 -4.34757 -3.40133 0
M  V30 30892 H 3113.96 -2.65416 -3.4993 0
M  V30 30893 H 3114.56 -3.66113 -2.16428 0
M  V30 30894 N 3112.88 0.510441 -1.49105 0
M  V30 30895 C 3114.29 1.09212 -1.51425 0
M  V30 30896 C 3114.64 1.93969 -0.295069 0
M  V30 30897 O 3113.77 2.0803 0.596027 0
M  V30 30898 C 3114.36 1.98734 -2.74391 0
M  V30 30899 C 3112.92 2.52083 -2.7952 0
M  V30 30900 C 3112.07 1.29484 -2.45213 0
M  V30 30901 H 3115.02 0.29478 -1.55938 0
M  V30 30902 H 3115.04 2.83294 -2.54017 0
M  V30 30903 H 3114.55 1.3702 -3.63108 0
M  V30 30904 H 3112.65 3.17463 -1.9506 0
M  V30 30905 H 3112.76 2.89881 -3.81453 0
M  V30 30906 H 3111.13 1.617 -1.96787 0
M  V30 30907 H 3111.91 0.694919 -3.36193 0
M  V30 30908 N 3114.36 1.38021 0.760791 0
M  V30 30909 C 3115.61 1.33153 1.51503 0
M  V30 30910 C 3115.92 -0.078178 1.95444 0
M  V30 30911 O 3117.12 -0.249371 2.70352 0
M  V30 30912 C 3115.58 2.33781 2.73632 0
M  V30 30913 C 3115.19 3.80336 2.36746 0
M  V30 30914 C 3116.93 2.37943 3.51544 0
M  V30 30915 C 3114.84 4.72667 3.55443 0
M  V30 30916 H 3113.77 0.494917 0.568835 0
M  V30 30917 H 3116.42 1.63538 0.832314 0
M  V30 30918 H 3114.8 1.96428 3.43849 0
M  V30 30919 H 3115.98 4.26587 1.74242 0
M  V30 30920 H 3114.29 3.79223 1.71984 0
M  V30 30921 H 3116.89 3.04126 4.39785 0
M  V30 30922 H 3117.23 1.39624 3.92187 0
M  V30 30923 H 3117.76 2.74059 2.88334 0
M  V30 30924 H 3114.5 5.72156 3.19872 0
M  V30 30925 H 3114.02 4.31114 4.17014 0
M  V30 30926 H 3115.7 4.90333 4.22117 0
M  V30 30927 N 3115.83 -0.98818 1.22771 0
M  V30 30928 C 3117.06 -1.76379 1.08158 0
M  V30 30929 C 3117.48 -1.85188 -0.36754 0
M  V30 30930 O 3116.83 -1.32543 -1.25453 0
M  V30 30931 C 3116.89 -3.19459 1.69198 0
M  V30 30932 O 3116.61 -3.11119 3.08442 0
M  V30 30933 C 3118.11 -4.13448 1.59923 0
M  V30 30934 H 3115.33 -0.553771 0.378918 0
M  V30 30935 H 3117.87 -1.24203 1.62462 0
M  V30 30936 H 3116.03 -3.68688 1.18946 0
M  V30 30937 H 3116.44 -4.01134 3.37923 0
M  V30 30938 H 3117.91 -5.11577 2.07348 0
M  V30 30939 H 3118.39 -4.35659 0.556623 0
M  V30 30940 H 3119 -3.70119 2.09504 0
M  V30 30941 N 3117.31 -1.03816 -1.18575 0
M  V30 30942 C 3118.54 -0.76 -1.92436 0
M  V30 30943 C 3118.96 0.682495 -1.76033 0
M  V30 30944 O 3118.31 1.46499 -1.08831 0
M  V30 30945 C 3118.36 -1.11357 -3.43921 0
M  V30 30946 O 3118.08 -2.49943 -3.59806 0
M  V30 30947 C 3119.59 -0.859548 -4.34887 0
M  V30 30948 H 3116.81 -0.27736 -0.610993 0
M  V30 30949 H 3119.35 -1.38515 -1.50446 0
M  V30 30950 H 3117.5 -0.53343 -3.8371 0
M  V30 30951 H 3117.92 -2.63401 -4.53564 0
M  V30 30952 H 3119.39 -1.15682 -5.39742 0
M  V30 30953 H 3119.87 0.205762 -4.38718 0
M  V30 30954 H 3120.48 -1.42287 -4.00793 0
M  V30 30955 N 3118.79 1.34753 -0.817283 0
M  V30 30956 C 3120.02 2.02685 -0.415487 0
M  V30 30957 C 3120.43 1.61564 0.976851 0
M  V30 30958 O 3119.79 0.818349 1.63124 0
M  V30 30959 C 3119.84 3.58004 -0.501549 0
M  V30 30960 O 3119.56 3.97633 -1.839 0
M  V30 30961 C 3121.06 4.432 -0.0939283 0
M  V30 30962 H 3118.28 0.649775 -0.167431 0
M  V30 30963 H 3120.83 1.72148 -1.10387 0
M  V30 30964 H 3118.98 3.87152 0.138698 0
M  V30 30965 H 3119.4 4.92306 -1.80928 0
M  V30 30966 H 3120.87 5.51618 -0.205242 0
M  V30 30967 H 3121.35 4.28536 0.961936 0
M  V30 30968 H 3121.95 4.1937 -0.707751 0
M  V30 30969 N 3120.27 0.571737 1.46864 0
M  V30 30970 C 3121.5 0.0584339 2.06817 0
M  V30 30971 C 3121.91 -1.24173 1.4222 0
M  V30 30972 O 3121.27 -1.74825 0.523686 0
M  V30 30973 C 3121.32 -0.125609 3.61282 0
M  V30 30974 O 3121.04 1.12308 4.2346 0
M  V30 30975 C 3122.54 -0.674527 4.38138 0
M  V30 30976 H 3119.76 0.0524497 0.668947 0
M  V30 30977 H 3122.31 0.789285 1.88655 0
M  V30 30978 H 3120.46 -0.80664 3.78909 0
M  V30 30979 H 3120.88 0.929959 5.1619 0
M  V30 30980 H 3122.35 -0.75253 5.46846 0
M  V30 30981 H 3122.83 -1.68908 4.05422 0
M  V30 30982 H 3123.43 -0.0287231 4.2529 0
M  V30 30983 N 3121.75 -1.54542 0.308935 0
M  V30 30984 C 3122.98 -2.04708 -0.300382 0
M  V30 30985 C 3123.39 -1.18584 -1.46913 0
M  V30 30986 O 3122.75 -0.213218 -1.8125 0
M  V30 30987 C 3122.8 -3.53656 -0.748976 0
M  V30 30988 O 3122.52 -4.36507 0.373258 0
M  V30 30989 C 3124.02 -4.19853 -1.42262 0
M  V30 30990 H 3121.24 -0.66793 -0.0641149 0
M  V30 30991 H 3123.78 -1.99468 0.450874 0
M  V30 30992 H 3121.94 -3.59231 -1.45024 0
M  V30 30993 H 3122.35 -5.24495 0.0225674 0
M  V30 30994 H 3123.83 -5.25571 -1.68759 0
M  V30 30995 H 3124.3 -3.70071 -2.36525 0
M  V30 30996 H 3124.91 -4.18376 -0.76433 0
M  V30 30997 N 3123.23 -0.0368104 -1.57557 0
M  V30 30998 C 3124.47 0.641099 -1.924 0
M  V30 30999 C 3124.8 1.71335 -0.914222 0
M  V30 31000 O 3124.08 1.94401 0.0619274 0
M  V30 31001 C 3124.36 1.25046 -3.37691 0
M  V30 31002 C 3124.22 0.187247 -4.4941 0
M  V30 31003 C 3125.53 2.16627 -3.83094 0
M  V30 31004 H 3122.65 0.231584 -0.69967 0
M  V30 31005 H 3125.3 -0.0956416 -1.89759 0
M  V30 31006 H 3123.45 1.87837 -3.40073 0
M  V30 31007 H 3125.12 -0.443816 -4.5916 0
M  V30 31008 H 3123.36 -0.486388 -4.31065 0
M  V30 31009 H 3124.03 0.653363 -5.4812 0
M  V30 31010 H 3126.51 1.63814 -3.82497 0
M  V30 31011 H 3125.38 2.56213 -4.85434 0
M  V30 31012 H 3125.64 3.06056 -3.19033 0
M  V30 31013 N 3124.7 1.55817 0.236426 0
M  V30 31014 C 3125.93 1.82204 0.980263 0
M  V30 31015 C 3126.35 0.613957 1.78539 0
M  V30 31016 O 3125.7 -0.41746 1.77661 0
M  V30 31017 C 3125.75 3.06937 1.90977 0
M  V30 31018 O 3125.48 4.23083 1.13721 0
M  V30 31019 C 3126.98 3.46202 2.76873 0
M  V30 31020 H 3124.2 0.60606 0.28798 0
M  V30 31021 H 3126.74 2.02889 0.256146 0
M  V30 31022 H 3124.9 2.88271 2.58802 0
M  V30 31023 H 3125.31 4.93845 1.76685 0
M  V30 31024 H 3126.78 4.36554 3.37823 0
M  V30 31025 H 3127.26 2.67268 3.48517 0
M  V30 31026 H 3127.87 3.67256 2.14484 0
M  V30 31027 N 3126.18 -0.502526 1.49373 0
M  V30 31028 C 3127.59 -1.08408 1.52002 0
M  V30 31029 C 3127.94 -1.93809 0.305351 0
M  V30 31030 O 3127.07 -2.08343 -0.584986 0
M  V30 31031 C 3127.66 -1.97276 2.75441 0
M  V30 31032 C 3126.22 -2.50597 2.80853 0
M  V30 31033 C 3125.37 -1.28181 2.45896 0
M  V30 31034 H 3128.32 -0.286506 1.56092 0
M  V30 31035 H 3128.34 -2.81943 2.55516 0
M  V30 31036 H 3127.85 -1.35092 3.63829 0
M  V30 31037 H 3125.95 -3.16424 1.9674 0
M  V30 31038 H 3126.07 -2.87854 3.82985 0
M  V30 31039 H 3124.43 -1.60654 1.97642 0
M  V30 31040 H 3125.21 -0.67708 3.36557 0
M  V30 31041 N 3127.66 -1.38422 -0.75346 0
M  V30 31042 C 3128.89 -1.37871 -1.5427 0
M  V30 31043 C 3129.3 0.0314823 -1.88774 0
M  V30 31044 O 3128.66 0.998121 -1.52787 0
M  V30 31045 C 3128.71 -2.23443 -2.84175 0
M  V30 31046 O 3128.43 -3.58969 -2.51143 0
M  V30 31047 C 3129.93 -2.31074 -3.78312 0
M  V30 31048 H 3127.15 -0.471578 -0.477342 0
M  V30 31049 H 3129.7 -1.82003 -0.932477 0
M  V30 31050 H 3127.85 -1.82773 -3.41574 0
M  V30 31051 H 3128.27 -4.04027 -3.34459 0
M  V30 31052 H 3129.74 -2.95234 -4.66413 0
M  V30 31053 H 3130.22 -1.32443 -4.18755 0
M  V30 31054 H 3130.82 -2.72135 -3.26837 0
M  V30 31055 N 3129.14 0.981655 -1.23294 0
M  V30 31056 C 3130.55 1.53733 -1.05939 0
M  V30 31057 C 3130.9 1.92609 0.373661 0
M  V30 31058 O 3130.02 1.75919 1.26021 0
M  V30 31059 C 3130.62 2.79359 -1.91687 0
M  V30 31060 C 3129.18 3.31331 -1.78597 0
M  V30 31061 C 3128.33 2.04332 -1.87467 0
M  V30 31062 H 3131.28 0.801481 -1.36974 0
M  V30 31063 H 3131.3 3.52162 -1.44092 0
M  V30 31064 H 3130.81 2.51033 -2.9598 0
M  V30 31065 H 3128.91 3.6454 -0.770819 0
M  V30 31066 H 3129.02 4.01174 -2.61909 0
M  V30 31067 H 3127.39 2.18409 -1.31034 0
M  V30 31068 H 3128.17 1.78388 -2.93313 0
M  V30 31069 N 3130.62 1.04444 1.18022 0
M  V30 31070 C 3131.84 0.770195 1.9203 0
M  V30 31071 C 3132.26 -0.67315 1.76392 0
M  V30 31072 O 3131.62 -1.4592 1.09607 0
M  V30 31073 C 3131.67 1.13179 3.43326 0
M  V30 31074 O 3131.39 2.51848 3.58475 0
M  V30 31075 C 3132.89 0.882599 4.34425 0
M  V30 31076 H 3130.11 0.280596 0.609513 0
M  V30 31077 H 3132.65 1.39311 1.49709 0
M  V30 31078 H 3130.81 0.553771 3.83422 0
M  V30 31079 H 3131.22 2.65802 4.52161 0
M  V30 31080 H 3132.7 1.18543 5.39121 0
M  V30 31081 H 3133.17 -0.182492 4.38821 0
M  V30 31082 H 3133.78 1.4441 4.00032 0
M  V30 31083 N 3132.09 -1.34317 0.824418 0
M  V30 31084 C 3133.5 -1.80639 0.471833 0
M  V30 31085 C 3133.86 -1.68332 -1.0079 0
M  V30 31086 O 3132.98 -1.22419 -1.78445 0
M  V30 31087 C 3133.58 -3.27973 0.849667 0
M  V30 31088 C 3132.13 -3.72368 0.549431 0
M  V30 31089 C 3131.28 -2.56001 1.06578 0
M  V30 31090 H 3134.23 -1.22043 1.01445 0
M  V30 31091 H 3134.25 -3.80188 0.154035 0
M  V30 31092 H 3133.77 -3.36898 1.92668 0
M  V30 31093 H 3131.87 -3.6898 -0.518118 0
M  V30 31094 H 3131.98 -4.6643 1.09454 0
M  V30 31095 H 3130.34 -2.49996 0.487258 0
M  V30 31096 H 3131.13 -2.67696 2.14927 0
M  V30 31097 N 3133.57 -0.579517 -1.46558 0
M  V30 31098 C 3134.8 -0.0694011 -2.06784 0
M  V30 31099 C 3135.21 1.23417 -1.42877 0
M  V30 31100 O 3134.57 1.74545 -0.53295 0
M  V30 31101 C 3134.62 0.106448 -3.61343 0
M  V30 31102 O 3134.34 -1.14552 -4.22859 0
M  V30 31103 C 3135.84 0.651282 -4.3849 0
M  V30 31104 H 3133.06 -0.0559966 -0.668659 0
M  V30 31105 H 3135.61 -0.799278 -1.88233 0
M  V30 31106 H 3133.76 0.786534 -3.79332 0
M  V30 31107 H 3134.18 -0.957321 -5.15689 0
M  V30 31108 H 3135.65 0.723518 -5.47238 0
M  V30 31109 H 3136.13 1.66755 -4.06312 0
M  V30 31110 H 3136.73 0.00616854 -4.253 0
M  V30 31111 N 3135.05 1.54376 -0.317127 0
M  V30 31112 C 3136.3 2.00055 0.286807 0
M  V30 31113 C 3136.62 1.20695 1.53159 0
M  V30 31114 O 3135.89 0.307079 1.93478 0
M  V30 31115 H 3134.47 0.73901 0.108966 0
M  V30 31116 H 3137.13 1.90048 -0.432185 0
M  V30 31117 H 3136.23 3.07257 0.547675 0
M  V30 31118 N 3136.53 0.0451655 1.57535 0
M  V30 31119 C 3137.76 -0.639707 1.96762 0
M  V30 31120 C 3138.17 -1.64732 0.922434 0
M  V30 31121 O 3137.53 -1.82258 -0.0940214 0
M  V30 31122 C 3137.58 -1.33194 3.36068 0
M  V30 31123 O 3137.3 -0.36468 4.3658 0
M  V30 31124 C 3138.8 -2.10713 3.90019 0
M  V30 31125 H 3136.02 -0.175312 0.647693 0
M  V30 31126 H 3138.57 0.109687 2.04206 0
M  V30 31127 H 3136.72 -2.03261 3.29794 0
M  V30 31128 H 3137.13 -0.858077 5.17433 0
M  V30 31129 H 3138.61 -2.54578 4.8979 0
M  V30 31130 H 3139.09 -2.95283 3.25123 0
M  V30 31131 H 3139.69 -1.4557 3.99612 0
M  V30 31132 N 3138.01 -1.5594 -0.228159 0
M  V30 31133 C 3138.94 -1.8835 -1.30602 0
M  V30 31134 C 3139.95 -0.771223 -1.43374 0
M  V30 31135 O 3141.14 -1.04948 -1.44389 0
M  V30 31136 C 3138.24 -2.07119 -2.68244 0
M  V30 31137 C 3137.41 -3.38099 -2.77503 0
M  V30 31138 C 3136.47 -3.4638 -3.96115 0
M  V30 31139 O 3135.5 -4.1946 -3.84763 0
M  V30 31140 N 3136.7 -2.7704 -5.10127 0
M  V30 31141 H 3139.47 -2.81398 -1.03127 0
M  V30 31142 H 3137.03 -1.56405 -0.418218 0
M  V30 31143 H 3139.02 -2.09982 -3.45962 0
M  V30 31144 H 3137.59 -1.20728 -2.88346 0
M  V30 31145 H 3136.81 -3.47391 -1.86314 0
M  V30 31146 H 3138.1 -4.24394 -2.80654 0
M  V30 31147 H 3137.49 -2.17433 -5.22245 0
M  V30 31148 H 3136.05 -2.85572 -5.85911 0
M  V30 31149 N 3139.48 0.494597 -1.49638 0
M  V30 31150 C 3140.71 1.27217 -1.63167 0
M  V30 31151 C 3141.13 1.86311 -0.305584 0
M  V30 31152 O 3140.48 1.68134 0.709728 0
M  V30 31153 C 3140.54 2.39784 -2.70529 0
M  V30 31154 O 3140.26 1.83119 -3.97994 0
M  V30 31155 C 3141.76 3.31053 -2.9482 0
M  V30 31156 H 3138.98 0.385617 -0.549127 0
M  V30 31157 H 3141.52 0.593047 -1.95712 0
M  V30 31158 H 3139.68 3.03515 -2.40743 0
M  V30 31159 H 3140.09 2.57067 -4.57184 0
M  V30 31160 H 3141.56 4.06303 -3.7366 0
M  V30 31161 H 3142.04 3.88432 -2.04981 0
M  V30 31162 H 3142.65 2.73082 -3.26046 0
M  V30 31163 N 3140.96 1.3882 0.746109 0
M  V30 31164 C 3142.37 1.31651 1.32382 0
M  V30 31165 C 3142.72 -0.0242741 1.96185 0
M  V30 31166 O 3141.85 -0.926375 1.95569 0
M  V30 31167 C 3142.44 2.38422 2.40708 0
M  V30 31168 C 3141 2.34808 2.94181 0
M  V30 31169 C 3140.15 2.20893 1.67635 0
M  V30 31170 H 3143.1 1.49069 0.54443 0
M  V30 31171 H 3143.12 2.04569 3.2083 0
M  V30 31172 H 3142.63 3.35994 1.94242 0
M  V30 31173 H 3140.74 1.4084 3.44956 0
M  V30 31174 H 3140.85 3.29237 3.48051 0
M  V30 31175 H 3139.21 1.67874 1.91547 0
M  V30 31176 H 3140 3.20418 1.23236 0
M  V30 31177 N 3142.44 -0.975103 1.23812 0
M  V30 31178 C 3143.67 -1.75222 1.10022 0
M  V30 31179 C 3144.08 -1.85567 -0.347878 0
M  V30 31180 O 3143.44 -1.33867 -1.2404 0
M  V30 31181 C 3143.49 -3.17647 1.72577 0
M  V30 31182 O 3143.21 -3.0783 3.11725 0
M  V30 31183 C 3144.71 -4.11729 1.64299 0
M  V30 31184 H 3141.93 -0.549721 0.38477 0
M  V30 31185 H 3144.48 -1.22473 1.6377 0
M  V30 31186 H 3142.63 -3.67405 1.2285 0
M  V30 31187 H 3143.05 -3.97527 3.42159 0
M  V30 31188 H 3144.52 -5.09349 2.12763 0
M  V30 31189 H 3145 -4.35044 0.602799 0
M  V30 31190 H 3145.6 -3.67876 2.13418 0
M  V30 31191 N 3143.92 -1.05068 -1.17467 0
M  V30 31192 C 3145.15 -0.780368 -1.91619 0
M  V30 31193 C 3145.56 0.663786 -1.76747 0
M  V30 31194 O 3144.92 1.45336 -1.10379 0
M  V30 31195 C 3144.97 -1.14998 -3.42721 0
M  V30 31196 O 3144.69 -2.53745 -3.57134 0
M  V30 31197 C 3146.19 -0.905626 -4.33951 0
M  V30 31198 H 3143.41 -0.283825 -0.608017 0
M  V30 31199 H 3145.96 -1.40103 -1.48968 0
M  V30 31200 H 3144.11 -0.574097 -3.83123 0
M  V30 31201 H 3144.52 -2.68196 -4.50745 0
M  V30 31202 H 3146 -1.214 -5.38485 0
M  V30 31203 H 3146.48 0.159218 -4.38911 0
M  V30 31204 H 3147.08 -1.46529 -3.99261 0
M  V30 31205 N 3145.4 1.33878 -0.831529 0
M  V30 31206 C 3146.62 2.02233 -0.436961 0
M  V30 31207 C 3147.04 1.62591 0.95966 0
M  V30 31208 O 3146.4 0.835605 1.62246 0
M  V30 31209 C 3146.45 3.57452 -0.539492 0
M  V30 31210 O 3146.17 3.9566 -1.88108 0
M  V30 31211 C 3147.67 4.43076 -0.14093 0
M  V30 31212 H 3144.89 0.647963 -0.174314 0
M  V30 31213 H 3147.43 1.70967 -1.12207 0
M  V30 31214 H 3145.59 3.87277 0.0976279 0
M  V30 31215 H 3146 4.90359 -1.8614 0
M  V30 31216 H 3147.48 5.5137 -0.263736 0
M  V30 31217 H 3147.95 4.29533 0.91643 0
M  V30 31218 H 3148.56 4.18595 -0.752191 0
M  V30 31219 N 3146.87 0.587281 1.46249 0
M  V30 31220 C 3148.29 0.161951 1.85996 0
M  V30 31221 C 3148.64 -1.27614 1.49027 0
M  V30 31222 O 3147.76 -1.96461 0.907316 0
M  V30 31223 C 3148.36 0.287137 3.37581 0
M  V30 31224 C 3146.92 -0.083355 3.76308 0
M  V30 31225 C 3146.06 0.620979 2.70258 0
M  V30 31226 H 3149.01 0.795223 1.37339 0
M  V30 31227 H 3149.03 -0.486266 3.7738 0
M  V30 31228 H 3148.55 1.3339 3.64457 0
M  V30 31229 H 3146.65 -1.13007 3.55049 0
M  V30 31230 H 3146.76 0.296148 4.78184 0
M  V30 31231 H 3145.12 0.0607475 2.54628 0
M  V30 31232 H 3145.91 1.66948 2.99972 0
M  V30 31233 N 3148.35 -1.54206 0.325309 0
M  V30 31234 C 3149.6 -1.9978 -0.277645 0
M  V30 31235 C 3149.91 -1.21726 -1.53108 0
M  V30 31236 O 3151.12 -1.57686 -2.21014 0
M  V30 31237 C 3149.58 -3.55745 -0.545267 0
M  V30 31238 C 3149.18 -4.42635 0.691221 0
M  V30 31239 C 3150.93 -4.09783 -1.10808 0
M  V30 31240 C 3148.84 -5.90077 0.395406 0
M  V30 31241 H 3147.77 -0.746294 -0.107523 0
M  V30 31242 H 3150.42 -1.78201 0.437805 0
M  V30 31243 H 3148.8 -3.73319 -1.32095 0
M  V30 31244 H 3149.97 -4.36838 1.46661 0
M  V30 31245 H 3148.29 -3.99497 1.17437 0
M  V30 31246 H 3150.88 -5.17532 -1.34405 0
M  V30 31247 H 3151.23 -3.61873 -2.05799 0
M  V30 31248 H 3151.76 -3.95849 -0.393538 0
M  V30 31249 H 3148.5 -6.42184 1.31454 0
M  V30 31250 H 3148.02 -5.98823 -0.342245 0
M  V30 31251 H 3149.7 -6.47 0.0058825 0
M  V30 31252 N 3149.83 -0.0535194 -1.57509 0
M  V30 31253 C 3151.06 0.629264 -1.97099 0
M  V30 31254 C 3151.47 1.6424 -0.931157 0
M  V30 31255 O 3150.83 1.82305 0.0843546 0
M  V30 31256 C 3150.88 1.31409 -3.3677 0
M  V30 31257 O 3150.6 0.341522 -4.36767 0
M  V30 31258 C 3152.1 2.08642 -3.91131 0
M  V30 31259 H 3149.32 0.171875 -0.648614 0
M  V30 31260 H 3151.87 -0.120515 -2.04145 0
M  V30 31261 H 3150.02 2.01509 -3.30867 0
M  V30 31262 H 3150.44 0.830624 -5.17881 0
M  V30 31263 H 3151.91 2.51977 -4.91133 0
M  V30 31264 H 3152.39 2.93554 -3.26684 0
M  V30 31265 H 3152.99 1.43449 -4.00378 0
M  V30 31266 N 3151.31 1.56059 0.219886 0
M  V30 31267 C 3152.54 1.83234 0.960882 0
M  V30 31268 C 3152.95 0.632859 1.77877 0
M  V30 31269 O 3152.31 -0.398593 1.78094 0
M  V30 31270 C 3152.36 3.08945 1.8771 0
M  V30 31271 O 3152.08 4.24265 1.09227 0
M  V30 31272 C 3153.58 3.4912 2.73186 0
M  V30 31273 H 3150.8 0.60908 0.281535 0
M  V30 31274 H 3153.35 2.0315 0.234613 0
M  V30 31275 H 3151.5 2.91 2.5573 0
M  V30 31276 H 3151.92 4.95691 1.71438 0
M  V30 31277 H 3153.39 4.40113 3.33174 0
M  V30 31278 H 3153.87 2.7095 3.45663 0
M  V30 31279 H 3154.47 3.6951 2.10576 0
M  V30 31280 N 3152.79 -0.486655 1.49898 0
M  V30 31281 C 3154.02 -1.2635 1.63839 0
M  V30 31282 C 3154.43 -1.86146 0.31546 0
M  V30 31283 O 3153.79 -1.68508 -0.700802 0
M  V30 31284 C 3153.84 -2.38346 2.71796 0
M  V30 31285 O 3153.56 -1.81006 3.98959 0
M  V30 31286 C 3155.06 -3.29485 2.96572 0
M  V30 31287 H 3152.28 -0.382699 0.551164 0
M  V30 31288 H 3154.82 -0.582659 1.96024 0
M  V30 31289 H 3152.98 -3.02234 2.4235 0
M  V30 31290 H 3153.39 -2.54639 4.5854 0
M  V30 31291 H 3154.87 -4.04315 3.7581 0
M  V30 31292 H 3155.34 -3.8734 2.07038 0
M  V30 31293 H 3155.95 -2.71349 3.2749 0
M  V30 31294 N 3154.27 -1.39214 -0.738737 0
M  V30 31295 C 3155.49 -1.395 -1.52799 0
M  V30 31296 C 3155.91 0.0114585 -1.88797 0
M  V30 31297 O 3155.27 0.98186 -1.53837 0
M  V30 31298 C 3155.32 -2.26445 -2.81789 0
M  V30 31299 O 3155.04 -3.61613 -2.47321 0
M  V30 31300 C 3156.54 -2.35073 -3.7584 0
M  V30 31301 H 3153.76 -0.476614 -0.472313 0
M  V30 31302 H 3156.3 -1.82982 -0.913121 0
M  V30 31303 H 3154.46 -1.86386 -3.39616 0
M  V30 31304 H 3154.87 -4.07551 -3.30155 0
M  V30 31305 H 3156.35 -3.00165 -4.63255 0
M  V30 31306 H 3156.82 -1.36877 -4.17326 0
M  V30 31307 H 3157.43 -2.75586 -3.23932 0
M  V30 31308 N 3155.74 0.968523 -1.24328 0
M  V30 31309 C 3156.97 1.74636 -1.1095 0
M  V30 31310 C 3157.39 1.85749 0.338032 0
M  V30 31311 O 3156.74 1.34523 1.23329 0
M  V30 31312 C 3156.79 3.16727 -1.74259 0
M  V30 31313 O 3156.52 3.06173 -3.13353 0
M  V30 31314 C 3158.02 4.10852 -1.6648 0
M  V30 31315 H 3155.24 0.547673 -0.38768 0
M  V30 31316 H 3157.78 1.21602 -1.64417 0
M  V30 31317 H 3155.94 3.66749 -1.24796 0
M  V30 31318 H 3156.35 3.95707 -3.44262 0
M  V30 31319 H 3157.82 5.08213 -2.15461 0
M  V30 31320 H 3158.3 4.34718 -0.625862 0
M  V30 31321 H 3158.91 3.66739 -2.15365 0
M  V30 31322 N 3157.22 1.0569 1.16908 0
M  V30 31323 C 3158.47 0.771104 1.87568 0
M  V30 31324 C 3158.8 -0.700367 1.81131 0
M  V30 31325 O 3158.08 -1.51257 1.22276 0
M  V30 31326 C 3158.36 1.25857 3.3739 0
M  V30 31327 C 3158.21 2.79335 3.52551 0
M  V30 31328 C 3159.53 0.861588 4.31584 0
M  V30 31329 H 3156.65 0.281591 0.681084 0
M  V30 31330 H 3159.29 1.31176 1.37451 0
M  V30 31331 H 3157.44 0.798629 3.80203 0
M  V30 31332 H 3159.11 3.33491 3.18719 0
M  V30 31333 H 3157.36 3.18365 2.94663 0
M  V30 31334 H 3158.03 3.08506 4.57742 0
M  V30 31335 H 3160.5 1.25763 3.9664 0
M  V30 31336 H 3159.38 1.23021 5.34936 0
M  V30 31337 H 3159.64 -0.234011 4.4148 0
M  V30 31338 N 3158.7 -1.33435 0.838617 0
M  V30 31339 C 3159.93 -2.01999 0.44768 0
M  V30 31340 C 3160.34 -1.63098 -0.951024 0
M  V30 31341 O 3159.7 -0.844197 -1.61801 0
M  V30 31342 C 3159.75 -3.57161 0.558441 0
M  V30 31343 O 3159.47 -3.94657 1.90203 0
M  V30 31344 C 3160.97 -4.42995 0.164426 0
M  V30 31345 H 3158.19 -0.647029 0.177748 0
M  V30 31346 H 3160.74 -1.7037 1.13112 0
M  V30 31347 H 3158.89 -3.87323 -0.0770882 0
M  V30 31348 H 3159.31 -4.89365 1.88738 0
M  V30 31349 H 3160.78 -5.51222 0.292973 0
M  V30 31350 H 3161.26 -4.30013 -0.893638 0
M  V30 31351 H 3161.86 -4.18191 0.77438 0
M  V30 31352 N 3160.18 -0.595029 -1.45935 0
M  V30 31353 C 3161.59 -0.171812 -1.85908 0
M  V30 31354 C 3161.94 1.26822 -1.49702 0
M  V30 31355 O 3161.06 1.95977 -0.917722 0
M  V30 31356 C 3161.66 -0.305035 -3.37424 0
M  V30 31357 C 3160.22 0.0633973 -3.76347 0
M  V30 31358 C 3159.37 -0.635303 -2.69924 0
M  V30 31359 H 3162.32 -0.802495 -1.36915 0
M  V30 31360 H 3162.34 0.466246 -3.77633 0
M  V30 31361 H 3161.85 -1.3532 -3.63744 0
M  V30 31362 H 3159.95 1.11123 -3.55644 0
M  V30 31363 H 3160.06 -0.321503 -4.7802 0
M  V30 31364 H 3158.43 -0.0742502 -2.54592 0
M  V30 31365 H 3159.21 -1.68536 -2.99083 0
M  V30 31366 N 3161.66 1.54031 -0.333483 0
M  V30 31367 C 3162.88 2.0516 0.267777 0
M  V30 31368 C 3163.3 1.20906 1.45007 0
M  V30 31369 O 3162.66 0.242026 1.80888 0
M  V30 31370 C 3162.71 3.54803 0.692618 0
M  V30 31371 O 3162.43 4.35858 -0.442655 0
M  V30 31372 C 3163.93 4.22063 1.35565 0
M  V30 31373 H 3161.15 0.668865 0.0534807 0
M  V30 31374 H 3163.69 1.98725 -0.48255 0
M  V30 31375 H 3161.85 3.61493 1.3929 0
M  V30 31376 H 3162.26 5.24393 -0.106007 0
M  V30 31377 H 3163.74 5.28189 1.60376 0
M  V30 31378 H 3164.21 3.73787 2.30607 0
M  V30 31379 H 3164.82 4.19539 0.697674 0
M  V30 31380 N 3163.13 0.0618717 1.57479 0
M  V30 31381 C 3164.54 -0.472263 1.80628 0
M  V30 31382 C 3164.9 -1.7026 0.97499 0
M  V30 31383 O 3164.02 -2.15523 0.194638 0
M  V30 31384 C 3164.62 -0.863558 3.2761 0
M  V30 31385 C 3163.17 -1.34261 3.5164 0
M  V30 31386 C 3162.32 -0.322961 2.75413 0
M  V30 31387 H 3165.27 0.287662 1.56071 0
M  V30 31388 H 3165.29 -1.72571 3.39116 0
M  V30 31389 H 3164.81 0.0320908 3.88087 0
M  V30 31390 H 3162.91 -2.25709 2.96456 0
M  V30 31391 H 3163.02 -1.32739 4.60345 0
M  V30 31392 H 3161.38 -0.798133 2.41872 0
M  V30 31393 H 3162.17 0.564788 3.38622 0
M  V30 31394 N 3164.61 -1.56173 -0.211607 0
M  V30 31395 C 3165.84 -1.83741 -0.951151 0
M  V30 31396 C 3166.26 -0.642283 -1.77539 0
M  V30 31397 O 3165.61 0.389143 -1.78303 0
M  V30 31398 C 3165.66 -3.09936 -1.86069 0
M  V30 31399 O 3165.38 -4.24839 -1.06976 0
M  V30 31400 C 3166.89 -3.50563 -2.7133 0
M  V30 31401 H 3164.11 -0.610565 -0.278301 0
M  V30 31402 H 3166.65 -2.03271 -0.223836 0
M  V30 31403 H 3164.8 -2.92352 -2.54184 0
M  V30 31404 H 3165.22 -4.96593 -1.68806 0
M  V30 31405 H 3166.69 -4.41873 -3.30835 0
M  V30 31406 H 3167.17 -2.72779 -3.44221 0
M  V30 31407 H 3167.78 -3.70622 -2.08614 0
M  V30 31408 N 3166.09 0.478699 -1.50154 0
M  V30 31409 C 3167.5 1.05976 -1.53708 0
M  V30 31410 C 3167.85 1.93299 -0.336146 0
M  V30 31411 O 3166.98 2.09247 0.551767 0
M  V30 31412 C 3167.57 1.92869 -2.78544 0
M  V30 31413 C 3166.13 2.46097 -2.84804 0
M  V30 31414 C 3165.28 1.24253 -2.47904 0
M  V30 31415 H 3168.23 0.261637 -1.56528 0
M  V30 31416 H 3168.25 2.77842 -2.59969 0
M  V30 31417 H 3167.76 1.29287 -3.65932 0
M  V30 31418 H 3165.86 3.13254 -2.0175 0
M  V30 31419 H 3165.98 2.81724 -3.87516 0
M  V30 31420 H 3164.34 1.57489 -2.00173 0
M  V30 31421 H 3165.12 0.623451 -3.37591 0
M  V30 31422 N 3167.57 1.39603 0.731343 0
M  V30 31423 C 3168.8 1.40308 1.52057 0
M  V30 31424 C 3169.21 -0.00144602 1.888 0
M  V30 31425 O 3168.57 -0.973688 1.54355 0
M  V30 31426 C 3168.62 2.27936 2.80584 0
M  V30 31427 O 3168.34 3.62919 2.454 0
M  V30 31428 C 3169.84 2.37063 3.74588 0
M  V30 31429 H 3167.06 0.479112 0.469779 0
M  V30 31430 H 3169.61 1.83464 0.903404 0
M  V30 31431 H 3167.76 1.88184 3.38623 0
M  V30 31432 H 3168.17 4.09296 3.27989 0
M  V30 31433 H 3169.65 3.02617 4.61657 0
M  V30 31434 H 3170.13 1.39089 4.16594 0
M  V30 31435 H 3170.73 2.773 3.22466 0
M  V30 31436 N 3169.05 -0.961916 1.2484 0
M  V30 31437 C 3170.29 -1.70226 1.08939 0
M  V30 31438 C 3170.62 -1.91428 -0.371548 0
M  V30 31439 O 3169.89 -1.49617 -1.26458 0
M  V30 31440 H 3168.47 -0.630792 0.400139 0
M  V30 31441 H 3171.13 -1.1569 1.5685 0
M  V30 31442 H 3170.22 -2.68444 1.59199 0
M  V30 31443 N 3170.52 -1.06308 -1.16346 0
M  V30 31444 C 3171.75 -0.800647 -1.90781 0
M  V30 31445 C 3172.17 0.645002 -1.77441 0
M  V30 31446 O 3171.52 1.44158 -1.11914 0
M  V30 31447 C 3171.58 -1.18627 -3.41482 0
M  V30 31448 O 3171.3 -2.57519 -3.54423 0
M  V30 31449 C 3172.8 -0.951601 -4.32966 0
M  V30 31450 H 3170.02 -0.290258 -0.604972 0
M  V30 31451 H 3172.56 -1.41675 -1.47474 0
M  V30 31452 H 3170.72 -0.6147 -3.82492 0
M  V30 31453 H 3171.13 -2.72962 -4.47875 0
M  V30 31454 H 3172.6 -1.27105 -5.37167 0
M  V30 31455 H 3173.08 0.112657 -4.39055 0
M  V30 31456 H 3173.69 -1.50756 -3.97684 0
M  V30 31457 N 3172 1.32989 -0.845682 0
M  V30 31458 C 3172.93 2.27928 -0.241137 0
M  V30 31459 C 3173.95 1.52041 0.582021 0
M  V30 31460 O 3175.14 1.73775 0.407977 0
M  V30 31461 C 3172.24 3.32037 0.678594 0
M  V30 31462 C 3171.41 4.3727 -0.106728 0
M  V30 31463 C 3170.47 5.21008 0.737386 0
M  V30 31464 O 3169.49 5.68934 0.174131 0
M  V30 31465 N 3170.7 5.42961 2.05363 0
M  V30 31466 H 3173.46 2.80446 -1.0569 0
M  V30 31467 H 3171.02 1.45754 -0.704797 0
M  V30 31468 H 3173.01 3.84963 1.24843 0
M  V30 31469 H 3171.58 2.79745 1.39505 0
M  V30 31470 H 3170.8 3.8475 -0.857965 0
M  V30 31471 H 3172.09 5.04676 -0.646475 0
M  V30 31472 H 3171.49 5.05737 2.53469 0
M  V30 31473 H 3170.05 5.98918 2.57179 0
M  V30 31474 N 3173.48 0.60276 1.45618 0
M  V30 31475 C 3174.71 0.10229 2.06647 0
M  V30 31476 C 3175.12 -1.21128 1.44822 0
M  V30 31477 O 3174.48 -1.73675 0.560651 0
M  V30 31478 C 3174.53 -0.0489478 3.61467 0
M  V30 31479 O 3174.25 1.21265 4.20983 0
M  V30 31480 C 3175.75 -0.581439 4.3947 0
M  V30 31481 H 3172.97 0.0666273 0.667684 0
M  V30 31482 H 3175.52 0.829123 1.86938 0
M  V30 31483 H 3173.67 -0.726087 3.80535 0
M  V30 31484 H 3174.09 1.03924 5.14101 0
M  V30 31485 H 3175.56 -0.636366 5.4832 0
M  V30 31486 H 3176.04 -1.6027 4.08913 0
M  V30 31487 H 3176.64 0.0614937 4.25256 0
M  V30 31488 N 3174.96 -1.53852 0.341647 0
M  V30 31489 C 3176.37 -1.86154 -0.142657 0
M  V30 31490 C 3176.72 -1.26292 -1.50149 0
M  V30 31491 O 3175.85 -0.575772 -2.086 0
M  V30 31492 C 3176.44 -3.37757 -0.265632 0
M  V30 31493 C 3175 -3.69944 -0.694166 0
M  V30 31494 C 3174.15 -2.76758 0.173243 0
M  V30 31495 H 3177.1 -1.48442 0.56131 0
M  V30 31496 H 3177.12 -3.6445 -1.09346 0
M  V30 31497 H 3176.63 -3.81297 0.723491 0
M  V30 31498 H 3174.73 -3.31948 -1.69238 0
M  V30 31499 H 3174.84 -4.76635 -0.485377 0
M  V30 31500 H 3173.21 -2.52226 -0.354116 0
M  V30 31501 H 3173.99 -3.23127 1.15946 0
M  V30 31502 N 3176.44 -0.0702223 -1.57443 0
M  V30 31503 C 3177.66 0.608323 -1.97755 0
M  V30 31504 C 3178.08 1.63244 -0.948525 0
M  V30 31505 O 3177.44 1.82384 0.0650139 0
M  V30 31506 C 3177.49 1.2783 -3.38145 0
M  V30 31507 O 3177.21 0.295178 -4.37104 0
M  V30 31508 C 3178.71 2.04482 -3.93322 0
M  V30 31509 H 3175.93 0.164986 -0.6504 0
M  V30 31510 H 3178.47 -0.14216 -2.04005 0
M  V30 31511 H 3176.63 1.97988 -3.32986 0
M  V30 31512 H 3177.04 0.775649 -5.18733 0
M  V30 31513 H 3178.52 2.46753 -4.93778 0
M  V30 31514 H 3178.99 2.90073 -3.29779 0
M  V30 31515 H 3179.6 1.39194 -4.01877 0
M  V30 31516 N 3177.91 1.56283 0.203321 0
M  V30 31517 C 3179.14 1.84243 0.941394 0
M  V30 31518 C 3179.56 0.651689 1.77196 0
M  V30 31519 O 3178.91 -0.379681 1.78507 0
M  V30 31520 C 3178.97 3.10919 1.84423 0
M  V30 31521 O 3178.69 4.254 1.04721 0
M  V30 31522 C 3180.19 3.51997 2.69467 0
M  V30 31523 H 3177.41 0.612032 0.27506 0
M  V30 31524 H 3179.95 2.03387 0.213053 0
M  V30 31525 H 3178.11 2.93696 2.5263 0
M  V30 31526 H 3178.52 4.97481 1.6617 0
M  V30 31527 H 3179.99 4.43622 3.28487 0
M  V30 31528 H 3180.47 2.74601 3.4277 0
M  V30 31529 H 3181.08 3.71723 2.06645 0
M  V30 31530 N 3179.39 -0.470729 1.50406 0
M  V30 31531 C 3180.62 -1.24605 1.6517 0
M  V30 31532 C 3181.04 -1.85801 0.335186 0
M  V30 31533 O 3180.39 -1.69242 -0.68289 0
M  V30 31534 C 3180.44 -2.3545 2.74309 0
M  V30 31535 O 3180.17 -1.76764 4.00857 0
M  V30 31536 C 3181.67 -3.26321 3.0005 0
M  V30 31537 H 3178.89 -0.376832 0.555192 0
M  V30 31538 H 3181.43 -0.561835 1.96631 0
M  V30 31539 H 3179.59 -2.99647 2.45542 0
M  V30 31540 H 3180 -2.49761 4.61215 0
M  V30 31541 H 3181.47 -4.00307 3.80077 0
M  V30 31542 H 3181.95 -3.85122 2.11134 0
M  V30 31543 H 3182.56 -2.6786 3.3035 0
M  V30 31544 N 3180.87 -1.39989 -0.72393 0
M  V30 31545 C 3182.28 -1.3374 -1.30271 0
M  V30 31546 C 3182.63 -0.0069403 -1.96199 0
M  V30 31547 O 3181.76 0.895145 -1.97018 0
M  V30 31548 C 3182.35 -2.42221 -2.36884 0
M  V30 31549 C 3180.91 -2.39458 -2.90408 0
M  V30 31550 C 3180.06 -2.23532 -1.64099 0
M  V30 31551 H 3183.01 -1.49917 -0.520646 0
M  V30 31552 H 3183.03 -2.09648 -3.17534 0
M  V30 31553 H 3182.54 -3.39041 -1.88872 0
M  V30 31554 H 3180.64 -1.4631 -3.42672 0
M  V30 31555 H 3180.76 -3.34733 -3.42769 0
M  V30 31556 H 3179.12 -1.709 -1.88852 0
M  V30 31557 H 3179.9 -3.22338 -1.18123 0
M  V30 31558 N 3182.35 0.955282 -1.25348 0
M  V30 31559 C 3183.6 1.69419 -1.09453 0
M  V30 31560 C 3183.91 1.92175 0.364425 0
M  V30 31561 O 3185.12 2.63757 0.643797 0
M  V30 31562 C 3183.57 3.05005 -1.9105 0
M  V30 31563 C 3183.18 2.90047 -3.41433 0
M  V30 31564 C 3184.93 3.82683 -1.83723 0
M  V30 31565 C 3182.83 4.21019 -4.15328 0
M  V30 31566 H 3181.76 0.635365 -0.405989 0
M  V30 31567 H 3184.41 1.06351 -1.49538 0
M  V30 31568 H 3182.8 3.68973 -1.43788 0
M  V30 31569 H 3183.97 2.35015 -3.96364 0
M  V30 31570 H 3182.28 2.25824 -3.49846 0
M  V30 31571 H 3184.88 4.79689 -2.36225 0
M  V30 31572 H 3185.22 4.08443 -0.804991 0
M  V30 31573 H 3185.76 3.25464 -2.28732 0
M  V30 31574 H 3182.5 4.00448 -5.18962 0
M  V30 31575 H 3182.02 4.75819 -3.6518 0
M  V30 31576 H 3183.7 4.89565 -4.23008 0
M  V30 31577 N 3183.83 1.06924 1.1578 0
M  V30 31578 C 3185.06 0.810754 1.90353 0
M  V30 31579 C 3185.47 -0.635583 1.7778 0
M  V30 31580 O 3184.83 -1.43562 1.12677 0
M  V30 31581 C 3184.88 1.20436 3.40848 0
M  V30 31582 O 3184.6 2.59395 3.53052 0
M  V30 31583 C 3186.1 0.974549 4.32455 0
M  V30 31584 H 3183.32 0.293462 0.603424 0
M  V30 31585 H 3185.86 1.42455 1.4672 0
M  V30 31586 H 3184.02 0.634976 3.82161 0
M  V30 31587 H 3184.43 2.75333 4.46421 0
M  V30 31588 H 3185.91 1.29951 5.36485 0
M  V30 31589 H 3186.38 -0.0893709 4.39109 0
M  V30 31590 H 3186.99 1.52863 3.96879 0
M  V30 31591 N 3185.31 -1.32538 0.852723 0
M  V30 31592 C 3186.53 -2.01512 0.469079 0
M  V30 31593 C 3186.95 -1.64098 -0.933672 0
M  V30 31594 O 3186.31 -0.861311 -1.60897 0
M  V30 31595 C 3186.36 -3.56548 0.596291 0
M  V30 31596 O 3186.08 -3.92618 1.94378 0
M  V30 31597 C 3187.58 -4.42796 0.211402 0
M  V30 31598 H 3184.8 -0.645108 0.1846 0
M  V30 31599 H 3187.34 -1.69161 1.14913 0
M  V30 31600 H 3185.5 -3.87383 -0.0360031 0
M  V30 31601 H 3185.91 -4.87336 1.93918 0
M  V30 31602 H 3187.39 -5.5088 0.351421 0
M  V30 31603 H 3187.86 -4.30936 -0.847979 0
M  V30 31604 H 3188.47 -4.17346 0.818691 0
M  V30 31605 N 3186.78 -0.610474 -1.45296 0
M  V30 31606 C 3188.01 -0.113247 -2.0659 0
M  V30 31607 C 3188.43 1.20358 -1.45462 0
M  V30 31608 O 3187.78 1.73375 -0.569854 0
M  V30 31609 C 3187.83 0.0297776 -3.61488 0
M  V30 31610 O 3187.56 -1.23496 -4.20334 0
M  V30 31611 C 3189.06 0.558125 -4.39773 0
M  V30 31612 H 3186.28 -0.0701672 -0.667321 0
M  V30 31613 H 3188.82 -0.839026 -1.86496 0
M  V30 31614 H 3186.98 0.705896 -3.80915 0
M  V30 31615 H 3187.39 -1.06649 -5.13543 0
M  V30 31616 H 3188.86 0.607278 -5.48649 0
M  V30 31617 H 3189.34 1.58099 -4.09757 0
M  V30 31618 H 3189.95 -0.0840452 -4.25217 0
M  V30 31619 N 3188.26 1.53669 -0.349801 0
M  V30 31620 C 3189.49 2.05432 0.246002 0
M  V30 31621 C 3189.9 1.22437 1.43717 0
M  V30 31622 O 3189.26 0.261198 1.80621 0
M  V30 31623 C 3189.31 3.55517 0.654947 0
M  V30 31624 O 3189.03 4.35364 -0.488859 0
M  V30 31625 C 3190.53 4.23477 1.31081 0
M  V30 31626 H 3187.75 0.669395 0.0463834 0
M  V30 31627 H 3190.3 1.98202 -0.503601 0
M  V30 31628 H 3188.45 3.6295 1.35448 0
M  V30 31629 H 3188.87 5.24251 -0.16162 0
M  V30 31630 H 3190.34 5.2986 1.54765 0
M  V30 31631 H 3190.82 3.76212 2.2663 0
M  V30 31632 H 3191.42 4.20255 0.653137 0
M  V30 31633 N 3189.74 0.0785709 1.57404 0
M  V30 31634 C 3190.97 -0.597827 1.98075 0
M  V30 31635 C 3191.38 -1.62738 0.957169 0
M  V30 31636 O 3190.74 -1.82416 -0.0553407 0
M  V30 31637 C 3190.79 -1.26035 3.38818 0
M  V30 31638 O 3190.51 -0.271993 4.37255 0
M  V30 31639 C 3192.01 -2.02393 3.94401 0
M  V30 31640 H 3189.23 -0.161534 0.651266 0
M  V30 31641 H 3191.78 0.152977 2.03927 0
M  V30 31642 H 3189.93 -1.96219 3.34031 0
M  V30 31643 H 3190.35 -0.748129 5.19137 0
M  V30 31644 H 3191.82 -2.44131 4.9508 0
M  V30 31645 H 3192.3 -2.8832 3.31313 0
M  V30 31646 H 3192.9 -1.37061 4.0261 0
M  V30 31647 N 3191.22 -1.56389 -0.19503 0
M  V30 31648 C 3192.46 -1.80896 -0.916768 0
M  V30 31649 C 3192.8 -0.652624 -1.82906 0
M  V30 31650 O 3192.07 0.346819 -1.91383 0
M  V30 31651 C 3192.35 -3.1566 -1.73294 0
M  V30 31652 C 3192.21 -4.41784 -0.845372 0
M  V30 31653 C 3193.53 -3.47117 -2.70551 0
M  V30 31654 H 3190.65 -0.658062 -0.331849 0
M  V30 31655 H 3193.29 -1.89106 -0.18414 0
M  V30 31656 H 3191.44 -3.08792 -2.35754 0
M  V30 31657 H 3193.11 -4.60699 -0.235476 0
M  V30 31658 H 3191.35 -4.33533 -0.152095 0
M  V30 31659 H 3192.02 -5.32576 -1.45143 0
M  V30 31660 H 3194.5 -3.54285 -2.18223 0
M  V30 31661 H 3193.38 -4.42532 -3.24741 0
M  V30 31662 H 3193.64 -2.70614 -3.496 0
M  V30 31663 N 3192.7 0.462746 -1.50653 0
M  V30 31664 C 3193.92 1.23728 -1.65828 0
M  V30 31665 C 3194.34 1.8562 -0.345035 0
M  V30 31666 O 3193.7 1.69602 0.673905 0
M  V30 31667 C 3193.75 2.33992 -2.75554 0
M  V30 31668 O 3193.47 1.74636 -4.01789 0
M  V30 31669 C 3194.97 3.24725 -3.01776 0
M  V30 31670 H 3192.19 0.373882 -0.557183 0
M  V30 31671 H 3194.73 0.5514 -1.96926 0
M  V30 31672 H 3192.89 2.9834 -2.47127 0
M  V30 31673 H 3193.3 2.47311 -4.62534 0
M  V30 31674 H 3194.78 3.98286 -3.82195 0
M  V30 31675 H 3195.25 3.83997 -2.13174 0
M  V30 31676 H 3195.86 2.66105 -3.31766 0
M  V30 31677 N 3194.17 1.40371 0.716495 0
M  V30 31678 C 3195.59 1.34429 1.2956 0
M  V30 31679 C 3195.94 0.0173451 1.96192 0
M  V30 31680 O 3195.06 -0.884684 1.9749 0
M  V30 31681 C 3195.66 2.43474 2.35596 0
M  V30 31682 C 3194.22 2.40995 2.89134 0
M  V30 31683 C 3193.36 2.244 1.62911 0
M  V30 31684 H 3196.31 1.50191 0.512688 0
M  V30 31685 H 3196.33 2.11329 3.16418 0
M  V30 31686 H 3195.85 3.40038 1.87071 0
M  V30 31687 H 3193.95 1.48126 3.41891 0
M  V30 31688 H 3194.06 3.36546 3.40989 0
M  V30 31689 H 3192.42 1.71899 1.87944 0
M  V30 31690 H 3193.21 3.2296 1.16412 0
M  V30 31691 N 3195.65 -0.948621 1.25853 0
M  V30 31692 C 3196.88 -1.72849 1.13714 0
M  V30 31693 C 3197.3 -1.86264 -0.308438 0
M  V30 31694 O 3196.65 -1.36468 -1.21173 0
M  V30 31695 C 3196.7 -3.13915 1.79276 0
M  V30 31696 O 3196.42 -3.01149 3.18184 0
M  V30 31697 C 3197.93 -4.08151 1.72995 0
M  V30 31698 H 3195.15 -0.541436 0.396344 0
M  V30 31699 H 3197.69 -1.18971 1.66331 0
M  V30 31700 H 3195.84 -3.64717 1.30615 0
M  V30 31701 H 3196.26 -3.9018 3.50514 0
M  V30 31702 H 3197.73 -5.04721 2.23519 0
M  V30 31703 H 3198.21 -4.33667 0.694942 0
M  V30 31704 H 3198.82 -3.63267 2.21173 0
M  V30 31705 N 3197.13 -1.07536 -1.15212 0
M  V30 31706 C 3198.54 -0.822074 -1.67627 0
M  V30 31707 C 3198.89 0.652538 -1.85031 0
M  V30 31708 O 3198.02 1.50495 -1.55499 0
M  V30 31709 C 3198.61 -1.48571 -3.04487 0
M  V30 31710 C 3197.17 -1.27989 -3.53971 0
M  V30 31711 C 3196.32 -1.55418 -2.29653 0
M  V30 31712 H 3199.27 -1.23715 -0.993994 0
M  V30 31713 H 3199.29 -0.907981 -3.69508 0
M  V30 31714 H 3198.8 -2.55894 -2.91788 0
M  V30 31715 H 3196.9 -0.226971 -3.71908 0
M  V30 31716 H 3197.02 -2.00138 -4.35295 0
M  V30 31717 H 3195.38 -0.975293 -2.35287 0
M  V30 31718 H 3196.16 -2.63927 -2.19539 0
M  V30 31719 N 3198.61 1.32084 -0.85974 0
M  V30 31720 C 3199.84 2.01261 -0.479759 0
M  V30 31721 C 3200.25 1.6459 0.924956 0
M  V30 31722 O 3199.61 0.869832 1.60437 0
M  V30 31723 C 3199.66 3.56227 -0.615191 0
M  V30 31724 O 3199.38 3.91581 -1.96458 0
M  V30 31725 C 3200.88 4.42677 -0.234882 0
M  V30 31726 H 3198.1 0.644119 -0.188019 0
M  V30 31727 H 3200.65 1.68549 -1.15808 0
M  V30 31728 H 3198.8 3.87397 0.0154587 0
M  V30 31729 H 3199.21 4.86301 -1.96499 0
M  V30 31730 H 3200.69 5.50686 -0.380631 0
M  V30 31731 H 3201.17 4.3138 0.825113 0
M  V30 31732 H 3201.77 4.16906 -0.840812 0
M  V30 31733 N 3200.09 0.618171 1.4497 0
M  V30 31734 C 3201.5 0.201367 1.85611 0
M  V30 31735 C 3201.85 -1.24424 1.51701 0
M  V30 31736 O 3200.97 -1.94492 0.948784 0
M  V30 31737 C 3201.57 0.358678 3.36896 0
M  V30 31738 C 3200.13 -0.0035158 3.764 0
M  V30 31739 C 3199.27 0.678165 2.6888 0
M  V30 31740 H 3202.23 0.824176 1.35621 0
M  V30 31741 H 3202.25 -0.406109 3.78327 0
M  V30 31742 H 3201.76 1.4109 3.61546 0
M  V30 31743 H 3199.86 -1.05451 3.57367 0
M  V30 31744 H 3199.97 0.397511 4.77448 0
M  V30 31745 H 3198.34 0.114744 2.54441 0
M  V30 31746 H 3199.12 1.73273 2.96364 0
M  V30 31747 N 3201.56 -1.53481 0.357946 0
M  V30 31748 C 3202.79 -2.0556 -0.235104 0
M  V30 31749 C 3203.21 -1.23198 -1.43066 0
M  V30 31750 O 3202.56 -0.270773 -1.8048 0
M  V30 31751 C 3202.62 -3.5586 -0.636084 0
M  V30 31752 O 3202.34 -4.35099 0.51194 0
M  V30 31753 C 3203.84 -4.24166 -1.28833 0
M  V30 31754 H 3201.06 -0.669632 -0.0428328 0
M  V30 31755 H 3203.6 -1.97932 0.514105 0
M  V30 31756 H 3201.76 -3.63663 -1.33522 0
M  V30 31757 H 3202.17 -5.24158 0.18942 0
M  V30 31758 H 3203.64 -5.30673 -1.51953 0
M  V30 31759 H 3204.12 -3.77409 -2.24631 0
M  V30 31760 H 3204.73 -4.20595 -0.630841 0
M  V30 31761 N 3203.04 -0.0869173 -1.5736 0
M  V30 31762 C 3204.29 0.577564 -1.93671 0
M  V30 31763 C 3204.61 1.69227 -0.968874 0
M  V30 31764 O 3203.88 1.9589 -0.0195405 0
M  V30 31765 H 3202.46 0.21634 -0.714987 0
M  V30 31766 H 3205.12 -0.148329 -1.94335 0
M  V30 31767 H 3204.22 0.993076 -2.95879 0
M  V30 31768 N 3204.52 1.5649 0.186734 0
M  V30 31769 C 3205.75 1.85231 0.9218 0
M  V30 31770 C 3206.16 0.670447 1.76495 0
M  V30 31771 O 3205.52 -0.360727 1.78899 0
M  V30 31772 C 3205.57 3.12857 1.81115 0
M  V30 31773 O 3205.29 4.26487 1.00203 0
M  V30 31774 C 3206.79 3.54836 2.65719 0
M  V30 31775 H 3204.01 0.614915 0.268553 0
M  V30 31776 H 3206.56 2.03602 0.191469 0
M  V30 31777 H 3204.71 2.96358 2.495 0
M  V30 31778 H 3205.13 4.99216 1.60885 0
M  V30 31779 H 3206.6 4.47081 3.23763 0
M  V30 31780 H 3207.08 2.78221 3.39838 0
M  V30 31781 H 3207.68 3.73894 2.02691 0
M  V30 31782 N 3206 -0.45475 1.50897 0
M  V30 31783 C 3206.93 -1.56852 1.67123 0
M  V30 31784 C 3207.94 -1.53147 0.55225 0
M  V30 31785 O 3209.13 -1.58239 0.825997 0
M  V30 31786 C 3206.23 -2.95759 1.65469 0
M  V30 31787 C 3205.41 -3.24158 2.93668 0
M  V30 31788 C 3204.46 -4.42699 2.84436 0
M  V30 31789 O 3203.49 -4.42205 3.5839 0
M  V30 31790 N 3204.69 -5.45288 1.991 0
M  V30 31791 H 3207.46 -1.43344 2.63197 0
M  V30 31792 H 3205.02 -0.643431 1.48565 0
M  V30 31793 H 3207.01 -3.73054 1.56884 0
M  V30 31794 H 3205.58 -3.02952 0.770621 0
M  V30 31795 H 3204.8 -2.35322 3.16255 0
M  V30 31796 H 3206.09 -3.39951 3.78564 0
M  V30 31797 H 3205.49 -5.48519 1.38359 0
M  V30 31798 H 3204.04 -6.21504 1.96407 0
M  V30 31799 N 3207.48 -1.40749 -0.709041 0
M  V30 31800 C 3208.7 -1.42709 -1.49805 0
M  V30 31801 C 3209.12 -0.0285906 -1.88778 0
M  V30 31802 O 3208.48 0.949008 -1.55885 0
M  V30 31803 C 3208.53 -2.32371 -2.76922 0
M  V30 31804 O 3208.25 -3.66777 -2.39595 0
M  V30 31805 C 3209.75 -2.42992 -3.70769 0
M  V30 31806 H 3206.97 -0.486526 -0.462097 0
M  V30 31807 H 3209.51 -1.84878 -0.874102 0
M  V30 31808 H 3207.67 -1.93547 -3.35586 0
M  V30 31809 H 3208.08 -4.14463 -3.21436 0
M  V30 31810 H 3209.56 -3.09924 -4.56784 0
M  V30 31811 H 3210.03 -1.45699 -4.14329 0
M  V30 31812 H 3210.64 -2.82395 -3.18014 0
M  V30 31813 N 3208.96 0.941933 -1.26354 0
M  V30 31814 C 3210.37 1.50285 -1.10776 0
M  V30 31815 C 3210.72 1.937 0.312194 0
M  V30 31816 O 3209.84 1.7984 1.20361 0
M  V30 31817 C 3210.44 2.7312 -2.00477 0
M  V30 31818 C 3209 3.25481 -1.89047 0
M  V30 31819 C 3208.14 1.98264 -1.93873 0
M  V30 31820 H 3211.09 0.757498 -1.39455 0
M  V30 31821 H 3211.12 3.47399 -1.55222 0
M  V30 31822 H 3210.63 2.4149 -3.03816 0
M  V30 31823 H 3208.73 3.61903 -0.886405 0
M  V30 31824 H 3208.84 3.92638 -2.74539 0
M  V30 31825 H 3207.21 2.14129 -1.37916 0
M  V30 31826 H 3207.99 1.68967 -2.9884 0
M  V30 31827 N 3210.43 1.08146 1.1464 0
M  V30 31828 C 3211.66 0.830898 1.89483 0
M  V30 31829 C 3212.08 -0.616691 1.78444 0
M  V30 31830 O 3211.43 -1.42359 1.14194 0
M  V30 31831 C 3211.48 1.24045 3.39551 0
M  V30 31832 O 3211.21 2.63125 3.50281 0
M  V30 31833 C 3212.71 1.02036 4.31397 0
M  V30 31834 H 3209.93 0.299846 0.600278 0
M  V30 31835 H 3212.47 1.44003 1.45201 0
M  V30 31836 H 3210.63 0.675474 3.81466 0
M  V30 31837 H 3211.04 2.80053 4.43476 0
M  V30 31838 H 3212.51 1.35634 5.35077 0
M  V30 31839 H 3212.99 -0.0427925 4.39179 0
M  V30 31840 H 3213.6 1.57064 3.95236 0
M  V30 31841 N 3211.91 -1.31626 0.866732 0
M  V30 31842 C 3213.14 -2.01004 0.490426 0
M  V30 31843 C 3213.55 -1.65079 -0.916215 0
M  V30 31844 O 3212.91 -0.878328 -1.59974 0
M  V30 31845 C 3212.96 -3.55896 0.634074 0
M  V30 31846 O 3212.68 -3.90534 1.98532 0
M  V30 31847 C 3214.18 -4.42547 0.258355 0
M  V30 31848 H 3211.4 -0.643113 0.191432 0
M  V30 31849 H 3213.95 -1.67932 1.16701 0
M  V30 31850 H 3212.1 -3.874 0.00508611 0
M  V30 31851 H 3212.52 -4.85252 1.99075 0
M  V30 31852 H 3213.99 -5.50477 0.40983 0
M  V30 31853 H 3214.47 -4.31811 -0.802225 0
M  V30 31854 H 3215.07 -4.16454 0.86291 0
M  V30 31855 N 3213.39 -0.62585 -1.4464 0
M  V30 31856 C 3214.62 -0.135153 -2.06458 0
M  V30 31857 C 3215.03 1.18809 -1.46731 0
M  V30 31858 O 3214.39 1.72761 -0.58821 0
M  V30 31859 C 3214.44 -0.00856468 -3.61499 0
M  V30 31860 O 3214.16 -1.27947 -4.19 0
M  V30 31861 C 3215.66 0.51145 -4.4034 0
M  V30 31862 H 3212.88 -0.0772411 -0.666539 0
M  V30 31863 H 3215.43 -0.858759 -1.85595 0
M  V30 31864 H 3213.58 0.665455 -3.81642 0
M  V30 31865 H 3214 -1.1209 -5.12383 0
M  V30 31866 H 3215.47 0.549053 -5.49263 0
M  V30 31867 H 3215.95 1.53745 -4.11411 0
M  V30 31868 H 3216.55 -0.12914 -4.25104 0
M  V30 31869 N 3214.87 1.53289 -0.36608 0
M  V30 31870 C 3216.28 1.86358 0.113023 0
M  V30 31871 C 3216.63 1.28665 1.48121 0
M  V30 31872 O 3215.75 0.608885 2.07657 0
M  V30 31873 C 3216.35 3.38137 0.211864 0
M  V30 31874 C 3214.91 3.71001 0.635224 0
M  V30 31875 C 3214.06 2.76448 -0.217251 0
M  V30 31876 H 3217.01 1.4753 -0.584855 0
M  V30 31877 H 3217.03 3.66143 1.03534 0
M  V30 31878 H 3216.54 3.80097 -0.784061 0
M  V30 31879 H 3214.64 3.34598 1.63936 0
M  V30 31880 H 3214.75 4.77347 0.409487 0
M  V30 31881 H 3213.12 2.52758 0.313944 0
M  V30 31882 H 3213.9 3.21242 -1.21072 0
M  V30 31883 N 3216.35 0.0952613 1.57312 0
M  V30 31884 C 3217.59 -0.568097 1.93534 0
M  V30 31885 C 3217.91 -1.69328 0.979151 0
M  V30 31886 O 3219.11 -2.4178 1.2351 0
M  V30 31887 C 3217.57 -1.06192 3.43877 0
M  V30 31888 C 3217.18 0.0335184 4.47987 0
M  V30 31889 C 3218.92 -1.69801 3.8906 0
M  V30 31890 C 3216.83 -0.47567 5.89484 0
M  V30 31891 H 3215.76 -0.215982 0.722404 0
M  V30 31892 H 3218.41 0.171289 1.82699 0
M  V30 31893 H 3216.79 -1.855 3.49865 0
M  V30 31894 H 3217.97 0.809014 4.53643 0
M  V30 31895 H 3216.28 0.574797 4.12414 0
M  V30 31896 H 3218.88 -2.08969 4.92175 0
M  V30 31897 H 3219.22 -2.56724 3.27717 0
M  V30 31898 H 3219.75 -0.970747 3.85774 0
M  V30 31899 H 3216.49 0.356952 6.54527 0
M  V30 31900 H 3216.01 -1.21817 5.873 0
M  V30 31901 H 3217.69 -0.944584 6.40068 0
M  V30 31902 N 3217.82 -1.56587 -0.178432 0
M  V30 31903 C 3219.05 -1.85717 -0.911963 0
M  V30 31904 C 3219.47 -0.679797 -1.76137 0
M  V30 31905 O 3218.82 0.351234 -1.79088 0
M  V30 31906 C 3218.87 -3.13813 -1.79453 0
M  V30 31907 O 3218.6 -4.27012 -0.979401 0
M  V30 31908 C 3220.1 -3.5624 -2.63833 0
M  V30 31909 H 3217.32 -0.616331 -0.265288 0
M  V30 31910 H 3219.86 -2.037 -0.180669 0
M  V30 31911 H 3218.02 -2.97677 -2.47925 0
M  V30 31912 H 3218.43 -5.00062 -1.58235 0
M  V30 31913 H 3219.9 -4.48792 -3.21388 0
M  V30 31914 H 3220.38 -2.80019 -3.38358 0
M  V30 31915 H 3220.99 -3.74963 -2.00706 0
M  V30 31916 N 3219.3 0.446741 -1.51136 0
M  V30 31917 C 3220.53 1.21962 -1.67131 0
M  V30 31918 C 3220.94 1.85244 -0.364703 0
M  V30 31919 O 3220.3 1.70307 0.655878 0
M  V30 31920 C 3220.35 2.31056 -2.7802 0
M  V30 31921 O 3220.07 1.70364 -4.03618 0
M  V30 31922 C 3221.57 3.21506 -3.05203 0
M  V30 31923 H 3218.79 0.367952 -0.561117 0
M  V30 31924 H 3221.34 0.530482 -1.975 0
M  V30 31925 H 3219.49 2.95702 -2.50278 0
M  V30 31926 H 3219.91 2.42392 -4.65131 0
M  V30 31927 H 3221.38 3.94209 -3.86397 0
M  V30 31928 H 3221.86 3.81714 -2.17235 0
M  V30 31929 H 3222.46 2.62571 -3.34569 0
M  V30 31930 N 3220.78 1.41123 0.701567 0
M  V30 31931 C 3222.01 1.43502 1.49046 0
M  V30 31932 C 3222.42 0.0386016 1.88761 0
M  V30 31933 O 3221.78 -0.940728 1.56386 0
M  V30 31934 C 3221.83 2.33836 2.75686 0
M  V30 31935 O 3221.55 3.68043 2.37647 0
M  V30 31936 C 3223.05 2.44955 3.69475 0
M  V30 31937 H 3220.27 0.488969 0.459511 0
M  V30 31938 H 3222.82 1.85338 0.864286 0
M  V30 31939 H 3220.97 1.95324 3.34555 0
M  V30 31940 H 3221.39 4.16161 3.19233 0
M  V30 31941 H 3222.86 3.12342 4.55134 0
M  V30 31942 H 3223.34 1.47894 4.1355 0
M  V30 31943 H 3223.94 2.84078 3.16512 0
M  V30 31944 N 3222.26 -0.935219 1.26852 0
M  V30 31945 C 3223.49 -1.71633 1.15541 0
M  V30 31946 C 3223.9 -1.8658 -0.288665 0
M  V30 31947 O 3223.26 -1.37745 -1.19719 0
M  V30 31948 C 3223.31 -3.11995 1.82595 0
M  V30 31949 O 3223.03 -2.97757 3.2136 0
M  V30 31950 C 3224.53 -4.06294 1.77315 0
M  V30 31951 H 3221.75 -0.537201 0.402064 0
M  V30 31952 H 3224.29 -1.172 1.67584 0
M  V30 31953 H 3222.45 -3.63311 1.34476 0
M  V30 31954 H 3222.86 -3.8644 3.54633 0
M  V30 31955 H 3224.34 -5.02322 2.28859 0
M  V30 31956 H 3224.81 -4.32906 0.7409 0
M  V30 31957 H 3225.42 -3.609 2.25013 0
M  V30 31958 N 3223.74 -1.08752 -1.14065 0
M  V30 31959 C 3224.96 -0.840935 -1.89039 0
M  V30 31960 C 3225.38 0.607219 -1.78769 0
M  V30 31961 O 3224.74 1.41751 -1.14947 0
M  V30 31962 C 3224.79 -1.25844 -3.38889 0
M  V30 31963 O 3224.51 -2.64979 -3.48881 0
M  V30 31964 C 3226.01 -1.04323 -4.3085 0
M  V30 31965 H 3223.23 -0.303025 -0.598679 0
M  V30 31966 H 3225.77 -1.44771 -1.44435 0
M  V30 31967 H 3223.93 -0.695694 -3.81102 0
M  V30 31968 H 3224.34 -2.82401 -4.41984 0
M  V30 31969 H 3225.82 -1.3847 -5.3435 0
M  V30 31970 H 3226.29 0.0195012 -4.39196 0
M  V30 31971 H 3226.9 -1.59157 -3.94397 0
M  V30 31972 N 3225.21 1.31165 -0.873701 0
M  V30 31973 C 3226.46 1.96861 -0.487213 0
M  V30 31974 C 3226.79 1.68878 0.958841 0
M  V30 31975 O 3226.07 0.987308 1.67578 0
M  V30 31976 C 3226.35 3.52218 -0.749312 0
M  V30 31977 C 3226.2 3.89759 -2.24517 0
M  V30 31978 C 3227.52 4.39558 -0.218271 0
M  V30 31979 H 3224.64 0.71506 -0.17849 0
M  V30 31980 H 3227.28 1.55229 -1.09563 0
M  V30 31981 H 3225.43 3.8781 -0.231472 0
M  V30 31982 H 3227.11 3.64249 -2.83055 0
M  V30 31983 H 3225.35 3.38232 -2.71627 0
M  V30 31984 H 3226.02 4.98095 -2.3792 0
M  V30 31985 H 3228.5 4.10811 -0.661346 0
M  V30 31986 H 3227.37 5.47205 -0.43108 0
M  V30 31987 H 3227.63 4.33254 0.87998 0
M  V30 31988 N 3226.69 0.633512 1.44307 0
M  V30 31989 C 3227.92 0.1461 2.06384 0
M  V30 31990 C 3228.34 -1.18029 1.47359 0
M  V30 31991 O 3227.69 -1.72447 0.597364 0
M  V30 31992 C 3227.74 0.0277357 3.61489 0
M  V30 31993 O 3227.46 1.30167 4.18316 0
M  V30 31994 C 3228.97 -0.48809 4.40605 0
M  V30 31995 H 3226.19 0.0807749 0.66612 0
M  V30 31996 H 3228.73 0.868589 1.85137 0
M  V30 31997 H 3226.88 -0.645206 3.81989 0
M  V30 31998 H 3227.3 1.14806 5.11781 0
M  V30 31999 H 3228.77 -0.519916 5.49546 0
M  V30 32000 H 3229.25 -1.51561 4.12221 0
M  V30 32001 H 3229.86 0.151683 4.25029 0
M  V30 32002 N 3228.17 -1.53093 0.374204 0
M  V30 32003 C 3229.58 -1.86415 -0.103139 0
M  V30 32004 C 3229.93 -1.29449 -1.47436 0
M  V30 32005 O 3229.06 -0.619889 -2.07331 0
M  V30 32006 C 3229.65 -3.38245 -0.193929 0
M  V30 32007 C 3228.21 -3.71333 -0.61554 0
M  V30 32008 C 3227.36 -2.76329 0.231909 0
M  V30 32009 H 3230.31 -1.47218 0.59267 0
M  V30 32010 H 3230.33 -3.66687 -1.01591 0
M  V30 32011 H 3229.84 -3.79676 0.804207 0
M  V30 32012 H 3227.94 -3.35463 -1.62159 0
M  V30 32013 H 3228.06 -4.77557 -0.384166 0
M  V30 32014 H 3226.42 -2.52921 -0.300535 0
M  V30 32015 H 3227.2 -3.20595 1.22774 0
M  V30 32016 N 3229.65 -0.103603 -1.57259 0
M  V30 32017 C 3230.88 0.56624 -1.99001 0
M  V30 32018 C 3231.29 1.61195 -0.982938 0
M  V30 32019 O 3230.65 1.82481 0.0263129 0
M  V30 32020 C 3230.7 1.20629 -3.4078 0
M  V30 32021 O 3230.42 0.202395 -4.37632 0
M  V30 32022 C 3231.92 1.96093 -3.97571 0
M  V30 32023 H 3229.14 0.151153 -0.653754 0
M  V30 32024 H 3231.69 -0.185401 -2.03658 0
M  V30 32025 H 3229.84 1.9088 -3.3711 0
M  V30 32026 H 3230.25 0.665444 -5.20262 0
M  V30 32027 H 3231.73 2.36224 -4.98901 0
M  V30 32028 H 3232.21 2.83013 -3.35858 0
M  V30 32029 H 3232.81 1.30638 -4.04739 0
M  V30 32030 N 3231.13 1.56679 0.170126 0
M  V30 32031 C 3232.54 1.71732 0.732472 0
M  V30 32032 C 3232.89 0.714312 1.82735 0
M  V30 32033 O 3232.01 -0.124064 2.16044 0
M  V30 32034 C 3232.61 3.11371 1.33543 0
M  V30 32035 C 3231.17 3.28104 1.84459 0
M  V30 32036 C 3230.31 2.67681 0.724022 0
M  V30 32037 H 3233.27 1.58604 -0.0552822 0
M  V30 32038 H 3233.29 3.10087 2.20513 0
M  V30 32039 H 3232.8 3.84348 0.538333 0
M  V30 32040 H 3230.9 2.60085 2.66808 0
M  V30 32041 H 3231.01 4.35853 1.98921 0
M  V30 32042 H 3229.38 2.27524 1.14477 0
M  V30 32043 H 3230.16 3.43245 -0.0612465 0
M  V30 32044 N 3232.6 -0.43872 1.5137 0
M  V30 32045 C 3233.83 -1.21074 1.67776 0
M  V30 32046 C 3234.25 -1.85048 0.374522 0
M  V30 32047 O 3233.6 -1.70652 -0.646837 0
M  V30 32048 C 3233.66 -2.29579 2.79242 0
M  V30 32049 O 3233.38 -1.68221 4.04516 0
M  V30 32050 C 3234.88 -3.19883 3.06904 0
M  V30 32051 H 3232.1 -0.364971 0.563061 0
M  V30 32052 H 3234.64 -0.520001 1.97778 0
M  V30 32053 H 3232.8 -2.94371 2.51842 0
M  V30 32054 H 3233.21 -2.39922 4.6641 0
M  V30 32055 H 3234.68 -3.92155 3.88483 0
M  V30 32056 H 3235.16 -3.80557 2.19256 0
M  V30 32057 H 3235.77 -2.60793 3.35957 0
M  V30 32058 N 3234.08 -1.41493 -0.694073 0
M  V30 32059 C 3235.49 -1.36473 -1.27405 0
M  V30 32060 C 3235.84 -0.0485554 -1.9614 0
M  V30 32061 O 3234.97 0.853153 -1.98872 0
M  V30 32062 C 3235.56 -2.47192 -2.31693 0
M  V30 32063 C 3234.12 -2.45564 -2.85263 0
M  V30 32064 C 3233.27 -2.26963 -1.59321 0
M  V30 32065 H 3236.22 -1.50987 -0.488729 0
M  V30 32066 H 3236.24 -2.16336 -3.13016 0
M  V30 32067 H 3235.75 -3.42971 -1.81638 0
M  V30 32068 H 3233.86 -1.53546 -3.39491 0
M  V30 32069 H 3233.97 -3.41928 -3.35592 0
M  V30 32070 H 3232.33 -1.74867 -1.85185 0
M  V30 32071 H 3233.12 -3.24771 -1.11259 0
M  V30 32072 N 3235.56 0.928479 -1.27346 0
M  V30 32073 C 3236.79 1.71018 -1.1645 0
M  V30 32074 C 3237.2 1.86731 0.278766 0
M  V30 32075 O 3236.56 1.38378 1.18986 0
M  V30 32076 C 3236.61 3.11023 -1.84247 0
M  V30 32077 O 3236.33 2.96049 -3.22935 0
M  V30 32078 C 3237.83 4.05347 -1.79467 0
M  V30 32079 H 3235.05 0.535062 -0.404908 0
M  V30 32080 H 3237.6 1.1631 -1.68203 0
M  V30 32081 H 3235.75 3.62593 -1.36401 0
M  V30 32082 H 3236.17 3.84554 -3.56677 0
M  V30 32083 H 3237.64 5.01101 -2.3152 0
M  V30 32084 H 3238.12 4.32507 -0.763847 0
M  V30 32085 H 3238.72 3.59702 -2.26924 0
M  V30 32086 N 3237.04 1.09355 1.13486 0
M  V30 32087 C 3238.29 0.827521 1.84381 0
M  V30 32088 C 3238.61 -0.648713 1.83893 0
M  V30 32089 O 3237.88 -1.47064 1.29418 0
M  V30 32090 H 3236.46 0.303139 0.682727 0
M  V30 32091 H 3239.12 1.38154 1.37475 0
M  V30 32092 H 3238.22 1.1804 2.88917 0
M  V30 32093 N 3238.52 -1.307 0.880644 0
M  V30 32094 C 3239.75 -2.00472 0.511717 0
M  V30 32095 C 3240.16 -1.66041 -0.898654 0
M  V30 32096 O 3239.52 -0.895246 -1.59033 0
M  V30 32097 C 3239.57 -3.55203 0.671786 0
M  V30 32098 O 3239.29 -3.88406 2.02663 0
M  V30 32099 C 3240.79 -4.42248 0.305278 0
M  V30 32100 H 3238.01 -0.641047 0.198242 0
M  V30 32101 H 3240.55 -1.66685 1.18475 0
M  V30 32102 H 3238.71 -3.87372 0.0461747 0
M  V30 32103 H 3239.12 -4.83113 2.04211 0
M  V30 32104 H 3240.6 -5.50011 0.468192 0
M  V30 32105 H 3241.07 -4.32638 -0.75638 0
M  V30 32106 H 3241.68 -4.15515 0.907032 0
M  V30 32107 N 3240 -0.641156 -1.43969 0
M  V30 32108 C 3240.93 0.0962912 -2.28998 0
M  V30 32109 C 3241.94 0.799046 -1.41842 0
M  V30 32110 O 3243.13 0.658817 -1.65897 0
M  V30 32111 C 3240.23 1.15897 -3.18467 0
M  V30 32112 C 3239.4 0.536752 -4.34094 0
M  V30 32113 C 3238.46 1.49472 -5.04524 0
M  V30 32114 O 3237.49 1.00797 -5.60204 0
M  V30 32115 N 3238.69 2.82892 -5.06904 0
M  V30 32116 H 3241.45 -0.633474 -2.92929 0
M  V30 32117 H 3239.02 -0.483048 -1.54526 0
M  V30 32118 H 3241.01 1.80037 -3.62448 0
M  V30 32119 H 3239.58 1.79085 -2.56218 0
M  V30 32120 H 3238.8 -0.283483 -3.93179 0
M  V30 32121 H 3240.09 0.101877 -5.08698 0
M  V30 32122 H 3239.48 3.25009 -4.63018 0
M  V30 32123 H 3238.04 3.42366 -5.54643 0
M  V30 32124 N 3241.47 1.52892 -0.382318 0
M  V30 32125 C 3242.7 2.05908 0.202372 0
M  V30 32126 C 3243.12 1.25458 1.41088 0
M  V30 32127 O 3242.47 0.299452 1.80026 0
M  V30 32128 C 3242.52 3.56827 0.579389 0
M  V30 32129 O 3242.25 4.34229 -0.581096 0
M  V30 32130 C 3243.75 4.26162 1.22069 0
M  V30 32131 H 3240.97 0.670228 0.0321741 0
M  V30 32132 H 3243.51 1.97089 -0.545529 0
M  V30 32133 H 3241.67 3.65741 1.27719 0
M  V30 32134 H 3242.08 5.2379 -0.272785 0
M  V30 32135 H 3243.55 5.33024 1.43491 0
M  V30 32136 H 3244.03 3.80935 2.18599 0
M  V30 32137 H 3244.64 4.21546 0.563848 0
M  V30 32138 N 3242.95 0.111941 1.57202 0
M  V30 32139 C 3244.36 -0.414559 1.82039 0
M  V30 32140 C 3244.71 -1.67072 1.02866 0
M  V30 32141 O 3243.84 -2.14795 0.263106 0
M  V30 32142 C 3244.43 -0.758895 3.30191 0
M  V30 32143 C 3242.99 -1.23006 3.55734 0
M  V30 32144 C 3242.14 -0.235177 2.76301 0
M  V30 32145 H 3245.09 0.337169 1.55077 0
M  V30 32146 H 3245.11 -1.61695 3.44434 0
M  V30 32147 H 3244.62 0.155541 3.87788 0
M  V30 32148 H 3242.72 -2.16164 3.03487 0
M  V30 32149 H 3242.84 -1.18026 4.64335 0
M  V30 32150 H 3241.2 -0.720779 2.44288 0
M  V30 32151 H 3241.98 0.672233 3.36654 0
M  V30 32152 N 3244.43 -1.56767 -0.161814 0
M  V30 32153 C 3245.66 -1.86674 -0.892214 0
M  V30 32154 C 3246.07 -0.698441 -1.75406 0
M  V30 32155 O 3245.43 0.33222 -1.79451 0
M  V30 32156 C 3245.48 -3.15699 -1.76115 0
M  V30 32157 O 3245.2 -4.28027 -0.934056 0
M  V30 32158 C 3246.7 -3.59018 -2.6004 0
M  V30 32159 H 3243.92 -0.61911 -0.258736 0
M  V30 32160 H 3246.47 -2.03881 -0.159053 0
M  V30 32161 H 3244.62 -3.0029 -2.44754 0
M  V30 32162 H 3245.04 -5.01712 -1.52922 0
M  V30 32163 H 3246.51 -4.52175 -3.1661 0
M  V30 32164 H 3246.99 -2.83592 -3.35369 0
M  V30 32165 H 3247.59 -3.77071 -1.96717 0
M  V30 32166 N 3245.91 0.430686 -1.51601 0
M  V30 32167 C 3247.14 1.20182 -1.68416 0
M  V30 32168 C 3247.55 1.84847 -0.38433 0
M  V30 32169 O 3246.91 1.70993 0.637778 0
M  V30 32170 C 3246.96 2.28095 -2.80455 0
M  V30 32171 O 3246.68 1.66074 -4.05402 0
M  V30 32172 C 3248.18 3.18251 -3.08596 0
M  V30 32173 H 3245.4 0.36198 -0.564988 0
M  V30 32174 H 3247.94 0.509505 -1.98051 0
M  V30 32175 H 3246.1 2.93031 -2.534 0
M  V30 32176 H 3246.51 2.37445 -4.67675 0
M  V30 32177 H 3247.99 3.90089 -3.90557 0
M  V30 32178 H 3248.46 3.79389 -2.21271 0
M  V30 32179 H 3249.07 2.59008 -3.37335 0
M  V30 32180 N 3247.39 1.4186 0.686559 0
M  V30 32181 C 3248.61 1.45075 1.47516 0
M  V30 32182 C 3249.03 0.05862 1.88709 0
M  V30 32183 O 3248.39 -0.924088 1.57375 0
M  V30 32184 C 3248.44 2.36747 2.7319 0
M  V30 32185 O 3248.16 3.70543 2.3373 0
M  V30 32186 C 3249.66 2.4886 3.66856 0
M  V30 32187 H 3246.88 0.493816 0.454299 0
M  V30 32188 H 3249.42 1.86245 0.844579 0
M  V30 32189 H 3247.58 1.98862 3.32465 0
M  V30 32190 H 3247.99 4.19524 3.14801 0
M  V30 32191 H 3249.47 3.17151 4.51795 0
M  V30 32192 H 3249.94 1.52272 4.11959 0
M  V30 32193 H 3250.55 2.87419 3.13481 0
M  V30 32194 N 3248.86 -0.921712 1.27837 0
M  V30 32195 C 3250.27 -1.48503 1.13153 0
M  V30 32196 C 3250.63 -1.94172 -0.281339 0
M  V30 32197 O 3249.75 -1.81732 -1.17484 0
M  V30 32198 C 3250.35 -2.69896 2.04797 0
M  V30 32199 C 3248.9 -3.22432 1.94202 0
M  V30 32200 C 3248.05 -1.95155 1.97002 0
M  V30 32201 H 3251 -0.735216 1.40642 0
M  V30 32202 H 3251.02 -3.44886 1.6073 0
M  V30 32203 H 3250.54 -2.36626 3.0762 0
M  V30 32204 H 3248.64 -3.60447 0.943868 0
M  V30 32205 H 3248.75 -3.88221 2.80751 0
M  V30 32206 H 3247.11 -2.11908 1.41305 0
M  V30 32207 H 3247.9 -1.64191 3.0149 0
M  V30 32208 N 3250.34 -1.09956 -1.12905 0
M  V30 32209 C 3251.59 -0.833794 -1.83659 0
M  V30 32210 C 3251.9 0.642765 -1.84737 0
M  V30 32211 O 3253.11 1.02426 -2.51438 0
M  V30 32212 C 3251.57 -1.44174 -3.2976 0
M  V30 32213 C 3251.17 -2.95123 -3.37055 0
M  V30 32214 C 3252.92 -1.25516 -4.05519 0
M  V30 32215 C 3250.82 -3.48977 -4.77461 0
M  V30 32216 H 3249.75 -0.308254 -0.68811 0
M  V30 32217 H 3252.41 -1.32294 -1.27164 0
M  V30 32218 H 3250.79 -0.880283 -3.86092 0
M  V30 32219 H 3251.96 -3.57542 -2.90689 0
M  V30 32220 H 3250.28 -3.12879 -2.74765 0
M  V30 32221 H 3252.87 -1.632 -5.09186 0
M  V30 32222 H 3253.22 -0.196281 -4.15837 0
M  V30 32223 H 3253.75 -1.78442 -3.55533 0
M  V30 32224 H 3250.49 -4.54509 -4.72336 0
M  V30 32225 H 3250.01 -2.91324 -5.243 0
M  V30 32226 H 3251.69 -3.46505 -5.46391 0
M  V30 32227 N 3251.82 1.30231 -0.887563 0
M  V30 32228 C 3253.05 2.00198 -0.522342 0
M  V30 32229 C 3253.46 1.66515 0.889836 0
M  V30 32230 O 3252.82 0.903667 1.58556 0
M  V30 32231 C 3252.87 3.54842 -0.690614 0
M  V30 32232 O 3252.59 3.87326 -2.0472 0
M  V30 32233 C 3254.09 4.42079 -0.328727 0
M  V30 32234 H 3251.31 0.639986 -0.201639 0
M  V30 32235 H 3253.86 1.66054 -1.19357 0
M  V30 32236 H 3252.01 3.87343 -0.0667174 0
M  V30 32237 H 3252.43 4.82023 -2.0677 0
M  V30 32238 H 3253.9 5.49755 -0.497354 0
M  V30 32239 H 3254.38 4.33033 0.733426 0
M  V30 32240 H 3254.98 4.15029 -0.929055 0
M  V30 32241 N 3253.3 0.648782 1.43627 0
M  V30 32242 C 3254.53 0.167981 2.06217 0
M  V30 32243 C 3254.94 -1.16459 1.48602 0
M  V30 32244 O 3254.3 -1.71803 0.615621 0
M  V30 32245 C 3254.35 0.066075 3.6144 0
M  V30 32246 O 3254.07 1.34597 4.16912 0
M  V30 32247 C 3255.57 -0.441331 4.41098 0
M  V30 32248 H 3252.79 0.0878354 0.665226 0
M  V30 32249 H 3255.34 0.888177 1.84206 0
M  V30 32250 H 3253.49 -0.604655 3.82652 0
M  V30 32251 H 3253.9 1.20227 5.10535 0
M  V30 32252 H 3255.38 -0.4616 5.50067 0
M  V30 32253 H 3255.86 -1.4718 4.13805 0
M  V30 32254 H 3256.46 0.196754 4.24845 0
M  V30 32255 N 3254.78 -1.52688 0.390421 0
M  V30 32256 C 3256 -2.06012 -0.191449 0
M  V30 32257 C 3256.42 -1.26205 -1.4042 0
M  V30 32258 O 3255.78 -0.308995 -1.79865 0
M  V30 32259 C 3255.83 -3.57129 -0.560458 0
M  V30 32260 O 3255.55 -4.33915 0.604116 0
M  V30 32261 C 3257.05 -4.26803 -1.19807 0
M  V30 32262 H 3254.27 -0.670389 -0.0286193 0
M  V30 32263 H 3256.81 -1.96797 0.555973 0
M  V30 32264 H 3254.97 -3.66413 -1.25778 0
M  V30 32265 H 3255.38 -5.23638 0.300559 0
M  V30 32266 H 3256.86 -5.33777 -1.40662 0
M  V30 32267 H 3257.33 -3.82089 -2.16575 0
M  V30 32268 H 3257.94 -4.21839 -0.541484 0
M  V30 32269 N 3256.25 -0.120276 -1.5714 0
M  V30 32270 C 3257.48 0.545101 -1.9959 0
M  V30 32271 C 3257.9 1.60143 -0.999979 0
M  V30 32272 O 3257.25 1.82499 0.00695689 0
M  V30 32273 C 3257.31 1.17008 -3.4204 0
M  V30 32274 O 3257.03 0.155967 -4.37822 0
M  V30 32275 C 3258.53 1.91865 -3.99628 0
M  V30 32276 H 3255.75 0.14421 -0.65532 0
M  V30 32277 H 3258.29 -0.206991 -2.0345 0
M  V30 32278 H 3256.45 1.87294 -3.39116 0
M  V30 32279 H 3256.86 0.610226 -5.20938 0
M  V30 32280 H 3258.33 2.30919 -5.01378 0
M  V30 32281 H 3258.81 2.79434 -3.38841 0
M  V30 32282 H 3259.42 1.26338 -4.06102 0
M  V30 32283 N 3257.73 1.56851 0.153498 0
M  V30 32284 C 3258.96 1.87144 0.882302 0
M  V30 32285 C 3259.38 0.707733 1.75033 0
M  V30 32286 O 3258.73 -0.322698 1.79624 0
M  V30 32287 C 3258.78 3.16628 1.74438 0
M  V30 32288 O 3258.5 4.28516 0.911343 0
M  V30 32289 C 3260.01 3.60392 2.58133 0
M  V30 32290 H 3257.23 0.620473 0.255449 0
M  V30 32291 H 3259.77 2.03962 0.148239 0
M  V30 32292 H 3257.92 3.01584 2.43158 0
M  V30 32293 H 3258.34 5.02516 1.50259 0
M  V30 32294 H 3259.81 4.53848 3.14207 0
M  V30 32295 H 3260.29 2.85366 3.3386 0
M  V30 32296 H 3260.9 3.78109 1.94715 0
M  V30 32297 N 3259.21 -0.42264 1.51827 0
M  V30 32298 C 3260.46 -1.17255 1.65466 0
M  V30 32299 C 3260.79 -1.90508 0.376867 0
M  V30 32300 O 3260.06 -1.84212 -0.624187 0
M  V30 32301 C 3260.35 -2.17783 2.8678 0
M  V30 32302 C 3260.2 -1.48516 4.24574 0
M  V30 32303 C 3261.52 -3.18606 3.03609 0
M  V30 32304 H 3258.64 -0.424915 0.602176 0
M  V30 32305 H 3261.28 -0.459927 1.84349 0
M  V30 32306 H 3259.43 -2.78556 2.70811 0
M  V30 32307 H 3261.1 -0.909659 4.52242 0
M  V30 32308 H 3259.35 -0.787279 4.26596 0
M  V30 32309 H 3260.02 -2.21801 5.05478 0
M  V30 32310 H 3262.49 -2.67898 3.18386 0
M  V30 32311 H 3261.37 -3.86223 3.90029 0
M  V30 32312 H 3261.63 -3.85559 2.16325 0
M  V30 32313 N 3260.69 -1.42222 -0.679027 0
M  V30 32314 C 3261.92 -1.45855 -1.46745 0
M  V30 32315 C 3262.33 -0.0686268 -1.88675 0
M  V30 32316 O 3261.69 0.915729 -1.57863 0
M  V30 32317 C 3261.74 -2.38193 -2.71931 0
M  V30 32318 O 3261.46 -3.71777 -2.31761 0
M  V30 32319 C 3262.96 -2.50802 -3.65531 0
M  V30 32320 H 3260.18 -0.496218 -0.451673 0
M  V30 32321 H 3262.73 -1.8669 -0.83469 0
M  V30 32322 H 3260.88 -2.00622 -3.31405 0
M  V30 32323 H 3261.29 -4.21188 -3.12572 0
M  V30 32324 H 3262.77 -3.19543 -4.50107 0
M  V30 32325 H 3263.25 -1.54454 -4.11145 0
M  V30 32326 H 3263.85 -2.89077 -3.11952 0
M  V30 32327 N 3262.17 0.91492 -1.28324 0
M  V30 32328 C 3263.58 1.47901 -1.13939 0
M  V30 32329 C 3263.93 1.94319 0.271038 0
M  V30 32330 O 3263.05 1.82352 1.16519 0
M  V30 32331 C 3263.65 2.68806 -2.06225 0
M  V30 32332 C 3262.21 3.21398 -1.95909 0
M  V30 32333 C 3261.35 1.94107 -1.98035 0
M  V30 32334 H 3264.31 0.727747 -1.4103 0
M  V30 32335 H 3264.33 3.44029 -1.62556 0
M  V30 32336 H 3263.84 2.34991 -3.0887 0
M  V30 32337 H 3261.94 3.59941 -0.96297 0
M  V30 32338 H 3262.05 3.86727 -2.82806 0
M  V30 32339 H 3260.42 2.11156 -1.42427 0
M  V30 32340 H 3261.2 1.6259 -3.02357 0
M  V30 32341 N 3263.64 1.10553 1.1232 0
M  V30 32342 C 3264.87 0.870903 1.87678 0
M  V30 32343 C 3265.29 -0.578702 1.79712 0
M  V30 32344 O 3264.64 -1.39905 1.17188 0
M  V30 32345 C 3264.7 1.31219 3.36844 0
M  V30 32346 O 3264.42 2.70495 3.44621 0
M  V30 32347 C 3265.92 1.11164 4.29136 0
M  V30 32348 H 3263.14 0.312511 0.593783 0
M  V30 32349 H 3265.68 1.47051 1.42114 0
M  V30 32350 H 3263.84 0.756236 3.79947 0
M  V30 32351 H 3264.25 2.89397 4.37436 0
M  V30 32352 H 3265.72 1.46954 5.3208 0
M  V30 32353 H 3266.2 0.0503735 4.39171 0
M  V30 32354 H 3266.81 1.65412 3.91815 0
M  V30 32355 N 3265.12 -1.29758 0.894457 0
M  V30 32356 C 3266.53 -1.77884 0.566923 0
M  V30 32357 C 3266.88 -1.73438 -0.917258 0
M  V30 32358 O 3266.01 -1.31706 -1.71705 0
M  V30 32359 C 3266.6 -3.23008 1.02232 0
M  V30 32360 C 3265.16 -3.68932 0.746043 0
M  V30 32361 C 3264.31 -2.49992 1.19998 0
M  V30 32362 H 3267.26 -1.16494 1.07772 0
M  V30 32363 H 3267.28 -3.78837 0.355348 0
M  V30 32364 H 3266.79 -3.26212 2.10256 0
M  V30 32365 H 3264.9 -3.71208 -0.321801 0
M  V30 32366 H 3265.01 -4.59972 1.34025 0
M  V30 32367 H 3263.37 -2.47061 0.61909 0
M  V30 32368 H 3264.16 -2.55927 2.28815 0
M  V30 32369 N 3266.6 -0.65639 -1.4328 0
M  V30 32370 C 3267.83 -0.178915 -2.06125 0
M  V30 32371 C 3268.24 1.1567 -1.49218 0
M  V30 32372 O 3267.6 1.71474 -0.624723 0
M  V30 32373 C 3267.65 -0.085242 -3.61399 0
M  V30 32374 O 3267.37 -1.36806 -4.16192 0
M  V30 32375 C 3268.87 0.417932 -4.41326 0
M  V30 32376 H 3266.09 -0.091362 -0.664751 0
M  V30 32377 H 3268.64 -0.897933 -1.83732 0
M  V30 32378 H 3266.79 0.584353 -3.82967 0
M  V30 32379 H 3267.21 -1.22933 -5.0989 0
M  V30 32380 H 3268.68 0.432422 -5.50304 0
M  V30 32381 H 3269.16 1.44983 -4.1458 0
M  V30 32382 H 3269.76 -0.219282 -4.24734 0
M  V30 32383 N 3268.08 1.52478 -0.398513 0
M  V30 32384 C 3269.49 1.86555 0.0734687 0
M  V30 32385 C 3269.84 1.31778 1.45358 0
M  V30 32386 O 3268.97 0.652796 2.06319 0
M  V30 32387 C 3269.56 3.3851 0.140092 0
M  V30 32388 C 3268.12 3.72265 0.556386 0
M  V30 32389 C 3267.27 2.75925 -0.275841 0
M  V30 32390 H 3270.22 1.46256 -0.616016 0
M  V30 32391 H 3270.24 3.68257 0.957442 0
M  V30 32392 H 3269.75 3.78349 -0.864509 0
M  V30 32393 H 3267.85 3.38 1.56802 0
M  V30 32394 H 3267.97 4.78108 0.308143 0
M  V30 32395 H 3266.33 2.53367 0.260259 0
M  V30 32396 H 3267.11 3.18601 -1.27859 0
M  V30 32397 N 3269.56 0.128608 1.57074 0
M  V30 32398 C 3270.79 -0.534509 1.99876 0
M  V30 32399 C 3271.2 -1.59611 1.00846 0
M  V30 32400 O 3270.56 -1.825 0.00272155 0
M  V30 32401 C 3270.61 -1.15192 3.42656 0
M  V30 32402 O 3270.33 -0.132746 4.37899 0
M  V30 32403 C 3271.83 -1.89743 4.0064 0
M  V30 32404 H 3269.05 -0.140733 0.656076 0
M  V30 32405 H 3271.59 0.217777 2.03337 0
M  V30 32406 H 3269.75 -1.85493 3.40104 0
M  V30 32407 H 3270.16 -0.58259 5.21254 0
M  V30 32408 H 3271.64 -2.28257 5.02596 0
M  V30 32409 H 3272.11 -2.77634 3.40318 0
M  V30 32410 H 3272.72 -1.24183 4.06766 0
M  V30 32411 N 3271.04 -1.5693 -0.145178 0
M  V30 32412 C 3272.28 -1.83086 -0.85579 0
M  V30 32413 C 3272.6 -0.709779 -1.81624 0
M  V30 32414 O 3271.87 0.268422 -1.94052 0
M  V30 32415 H 3270.45 -0.675452 -0.31902 0
M  V30 32416 H 3273.12 -1.94406 -0.138746 0
M  V30 32417 H 3272.21 -2.78082 -1.41693 0
M  V30 32418 N 3272.51 0.414582 -1.52049 0
M  V30 32419 C 3273.74 1.18389 -1.69681 0
M  V30 32420 C 3274.16 1.84429 -0.403914 0
M  V30 32421 O 3273.51 1.7166 0.619606 0
M  V30 32422 C 3273.56 2.25107 -2.82859 0
M  V30 32423 O 3273.29 1.61765 -4.07141 0
M  V30 32424 C 3274.79 3.1496 -3.11954 0
M  V30 32425 H 3272.01 0.355967 -0.568796 0
M  V30 32426 H 3274.55 0.48847 -1.98581 0
M  V30 32427 H 3272.71 2.90327 -2.56494 0
M  V30 32428 H 3273.12 2.32471 -4.70167 0
M  V30 32429 H 3274.59 3.85925 -3.94672 0
M  V30 32430 H 3275.07 3.77021 -2.25282 0
M  V30 32431 H 3275.68 2.55415 -3.40064 0
M  V30 32432 N 3273.99 1.4258 0.671475 0
M  V30 32433 C 3274.92 1.42269 1.797 0
M  V30 32434 C 3275.94 0.321296 1.59598 0
M  V30 32435 O 3277.13 0.584594 1.68656 0
M  V30 32436 C 3274.23 1.20229 3.16857 0
M  V30 32437 C 3273.4 2.42865 3.63779 0
M  V30 32438 C 3272.46 2.16321 4.79679 0
M  V30 32439 O 3271.48 2.89545 4.90053 0
M  V30 32440 N 3272.69 1.16841 5.6862 0
M  V30 32441 H 3275.45 2.39285 1.80451 0
M  V30 32442 H 3273.01 1.37502 0.854684 0
M  V30 32443 H 3275 1.00383 3.92053 0
M  V30 32444 H 3273.57 0.317243 3.10986 0
M  V30 32445 H 3272.79 2.78257 2.79226 0
M  V30 32446 H 3274.08 3.24521 3.91872 0
M  V30 32447 H 3273.48 0.562845 5.62893 0
M  V30 32448 H 3272.04 1.02981 6.43613 0
M  V30 32449 N 3275.47 -0.908102 1.28807 0
M  V30 32450 C 3276.7 -1.69143 1.19156 0
M  V30 32451 C 3277.11 -1.87151 -0.249023 0
M  V30 32452 O 3276.47 -1.40254 -1.1677 0
M  V30 32453 C 3276.52 -3.08052 1.89172 0
M  V30 32454 O 3276.24 -2.90874 3.27604 0
M  V30 32455 C 3277.74 -4.02441 1.85893 0
M  V30 32456 H 3274.96 -0.528552 0.413369 0
M  V30 32457 H 3277.51 -1.13619 1.70032 0
M  V30 32458 H 3275.66 -3.60377 1.42152 0
M  V30 32459 H 3276.08 -3.78831 3.6275 0
M  V30 32460 H 3277.55 -4.97355 2.39463 0
M  V30 32461 H 3278.03 -4.31237 0.832559 0
M  V30 32462 H 3278.63 -3.56046 2.32618 0
M  V30 32463 N 3276.95 -1.11147 -1.11732 0
M  V30 32464 C 3278.36 -0.874988 -1.64927 0
M  V30 32465 C 3278.71 0.593342 -1.87013 0
M  V30 32466 O 3277.83 1.45472 -1.60209 0
M  V30 32467 C 3278.43 -1.58183 -2.99606 0
M  V30 32468 C 3276.99 -1.39185 -3.4972 0
M  V30 32469 C 3276.14 -1.62646 -2.24592 0
M  V30 32470 H 3279.09 -1.26815 -0.954132 0
M  V30 32471 H 3279.11 -1.02508 -3.66432 0
M  V30 32472 H 3278.62 -2.65047 -2.83499 0
M  V30 32473 H 3276.72 -0.345176 -3.70998 0
M  V30 32474 H 3276.83 -2.13885 -4.28707 0
M  V30 32475 H 3275.2 -1.04965 -2.32065 0
M  V30 32476 H 3275.98 -2.70778 -2.11031 0
M  V30 32477 N 3278.43 1.29282 -0.901326 0
M  V30 32478 C 3279.65 1.99633 -0.543546 0
M  V30 32479 C 3280.07 1.6745 0.872125 0
M  V30 32480 O 3279.43 0.920433 1.57589 0
M  V30 32481 C 3279.48 3.54089 -0.728211 0
M  V30 32482 O 3279.2 3.85133 -2.08816 0
M  V30 32483 C 3280.7 4.41706 -0.375597 0
M  V30 32484 H 3277.92 0.637812 -0.208416 0
M  V30 32485 H 3280.46 1.64779 -1.21112 0
M  V30 32486 H 3278.62 3.8725 -0.107796 0
M  V30 32487 H 3279.03 4.79803 -2.11871 0
M  V30 32488 H 3280.51 5.49196 -0.555635 0
M  V30 32489 H 3280.98 4.33786 0.687456 0
M  V30 32490 H 3281.59 4.1402 -0.973022 0
M  V30 32491 N 3279.9 0.663979 1.4293 0
M  V30 32492 C 3281.13 0.189844 2.06027 0
M  V30 32493 C 3281.55 -1.14877 1.49829 0
M  V30 32494 O 3280.9 -1.71141 0.633808 0
M  V30 32495 C 3280.95 0.104407 3.61349 0
M  V30 32496 O 3280.68 1.39011 4.15461 0
M  V30 32497 C 3282.18 -0.394522 4.41541 0
M  V30 32498 H 3279.4 0.0948861 0.664257 0
M  V30 32499 H 3281.94 0.907664 1.83253 0
M  V30 32500 H 3280.1 -0.564035 3.83272 0
M  V30 32501 H 3280.51 1.25635 5.09231 0
M  V30 32502 H 3281.98 -0.403232 5.50525 0
M  V30 32503 H 3282.46 -1.42783 4.15343 0
M  V30 32504 H 3283.07 0.241804 4.24612 0
M  V30 32505 N 3281.38 -1.52265 0.406593 0
M  V30 32506 C 3282.61 -2.06204 -0.169588 0
M  V30 32507 C 3283.02 -1.27687 -1.39074 0
M  V30 32508 O 3282.38 -0.328054 -1.79527 0
M  V30 32509 C 3282.43 -3.57703 -0.522548 0
M  V30 32510 O 3282.15 -4.3325 0.650105 0
M  V30 32511 C 3283.65 -4.2805 -1.15273 0
M  V30 32512 H 3280.87 -0.670655 -0.0215073 0
M  V30 32513 H 3283.42 -1.96197 0.576815 0
M  V30 32514 H 3281.57 -3.67727 -1.21884 0
M  V30 32515 H 3281.99 -5.2329 0.356081 0
M  V30 32516 H 3283.46 -5.35239 -1.34993 0
M  V30 32517 H 3283.94 -3.84364 -2.12511 0
M  V30 32518 H 3284.54 -4.22389 -0.496712 0
M  V30 32519 N 3282.86 -0.136936 -1.57004 0
M  V30 32520 C 3284.27 0.385545 -1.82676 0
M  V30 32521 C 3284.62 1.65414 -1.05511 0
M  V30 32522 O 3283.75 2.14349 -0.297245 0
M  V30 32523 C 3284.34 0.706268 -3.31357 0
M  V30 32524 C 3282.9 1.17331 -3.57646 0
M  V30 32525 C 3282.05 0.19119 -2.7664 0
M  V30 32526 H 3285 -0.361798 -1.54521 0
M  V30 32527 H 3285.02 1.56195 -3.46963 0
M  V30 32528 H 3284.53 -0.217215 -3.87492 0
M  V30 32529 H 3282.63 2.11308 -3.06887 0
M  V30 32530 H 3282.75 1.10624 -4.66154 0
M  V30 32531 H 3281.11 0.681824 -2.45404 0
M  V30 32532 H 3281.89 -0.725706 -3.35542 0
M  V30 32533 N 3284.34 1.57005 0.136853 0
M  V30 32534 C 3285.59 1.8309 0.846225 0
M  V30 32535 C 3285.9 0.719797 1.81874 0
M  V30 32536 O 3287.11 0.86654 2.573 0
M  V30 32537 C 3285.56 3.24548 1.55553 0
M  V30 32538 C 3285.17 4.4362 0.624911 0
M  V30 32539 C 3286.91 3.59897 2.25109 0
M  V30 32540 C 3284.82 5.76102 1.33643 0
M  V30 32541 H 3283.75 0.682841 0.319756 0
M  V30 32542 H 3286.4 1.83233 0.0989419 0
M  V30 32543 H 3284.78 3.18821 2.34881 0
M  V30 32544 H 3285.96 4.60606 -0.133864 0
M  V30 32545 H 3284.27 4.16383 0.0372484 0
M  V30 32546 H 3286.87 4.56139 2.79 0
M  V30 32547 H 3287.21 2.86451 3.02079 0
M  V30 32548 H 3287.75 3.67329 1.52689 0
M  V30 32549 H 3284.49 6.52671 0.608381 0
M  V30 32550 H 3284.01 5.63035 2.06766 0
M  V30 32551 H 3285.68 6.19249 1.87456 0
M  V30 32552 N 3285.82 -0.406513 1.52267 0
M  V30 32553 C 3287.04 -1.17488 1.70306 0
M  V30 32554 C 3287.46 -1.84212 0.413689 0
M  V30 32555 O 3286.82 -1.71986 -0.610494 0
M  V30 32556 C 3286.87 -2.23604 2.84049 0
M  V30 32557 O 3286.59 -1.59603 4.07993 0
M  V30 32558 C 3288.09 -3.13301 3.1362 0
M  V30 32559 H 3285.31 -0.352945 0.570676 0
M  V30 32560 H 3287.85 -0.477932 1.98837 0
M  V30 32561 H 3286.01 -2.88963 2.5803 0
M  V30 32562 H 3286.42 -2.29974 4.71394 0
M  V30 32563 H 3287.9 -3.83826 3.96713 0
M  V30 32564 H 3288.37 -3.75821 2.27279 0
M  V30 32565 H 3288.98 -2.53608 3.41413 0
M  V30 32566 N 3287.29 -1.42934 -0.663904 0
M  V30 32567 C 3288.52 -1.47403 -1.45189 0
M  V30 32568 C 3288.94 -0.0886345 -1.88592 0
M  V30 32569 O 3288.29 0.898934 -1.58825 0
M  V30 32570 C 3288.35 -2.41064 -2.69389 0
M  V30 32571 O 3288.07 -3.74214 -2.27805 0
M  V30 32572 C 3289.57 -2.54665 -3.62851 0
M  V30 32573 H 3286.79 -0.500981 -0.446385 0
M  V30 32574 H 3289.33 -1.87565 -0.814843 0
M  V30 32575 H 3287.49 -2.04126 -3.29259 0
M  V30 32576 H 3287.9 -4.24479 -3.08087 0
M  V30 32577 H 3289.37 -3.24299 -4.46693 0
M  V30 32578 H 3289.85 -1.58807 -4.09484 0
M  V30 32579 H 3290.46 -2.9237 -3.08869 0
M  V30 32580 N 3288.77 0.901258 -1.29287 0
M  V30 32581 C 3290 1.68509 -1.20051 0
M  V30 32582 C 3290.42 1.8728 0.239095 0
M  V30 32583 O 3289.77 1.40871 1.16024 0
M  V30 32584 C 3289.82 3.07045 -1.90803 0
M  V30 32585 O 3289.54 2.89132 -3.29142 0
M  V30 32586 C 3291.05 4.0145 -1.88024 0
M  V30 32587 H 3288.27 0.526353 -0.416166 0
M  V30 32588 H 3290.81 1.12716 -1.70632 0
M  V30 32589 H 3288.96 3.59618 -1.44061 0
M  V30 32590 H 3289.38 3.76902 -3.64754 0
M  V30 32591 H 3290.85 4.96078 -2.42097 0
M  V30 32592 H 3291.33 4.30789 -0.855416 0
M  V30 32593 H 3291.94 3.54808 -2.34503 0
M  V30 32594 N 3290.25 1.11738 1.11141 0
M  V30 32595 C 3291.48 0.89076 1.86743 0
M  V30 32596 C 3291.89 -0.559608 1.80316 0
M  V30 32597 O 3291.25 -1.38654 1.18665 0
M  V30 32598 C 3291.3 1.34784 3.35433 0
M  V30 32599 O 3291.02 2.74135 3.41733 0
M  V30 32600 C 3292.52 1.15709 4.27933 0
M  V30 32601 H 3289.74 0.318791 0.590435 0
M  V30 32602 H 3292.29 1.4855 1.40546 0
M  V30 32603 H 3290.44 0.796492 3.79124 0
M  V30 32604 H 3290.86 2.9402 4.34341 0
M  V30 32605 H 3292.33 1.52589 5.30491 0
M  V30 32606 H 3292.81 0.0969506 4.39093 0
M  V30 32607 H 3293.41 1.69558 3.90039 0
M  V30 32608 N 3291.73 -1.28802 0.90817 0
M  V30 32609 C 3292.96 -1.99342 0.554125 0
M  V30 32610 C 3293.37 -1.6791 -0.863233 0
M  V30 32611 O 3292.73 -0.928778 -1.57099 0
M  V30 32612 C 3292.78 -3.53698 0.746978 0
M  V30 32613 O 3292.5 -3.8402 2.10856 0
M  V30 32614 C 3294 -4.41501 0.399017 0
M  V30 32615 H 3291.22 -0.636698 0.211795 0
M  V30 32616 H 3293.77 -1.64134 1.21984 0
M  V30 32617 H 3291.92 -3.87187 0.128332 0
M  V30 32618 H 3292.33 -4.78673 2.14413 0
M  V30 32619 H 3293.81 -5.48894 0.584752 0
M  V30 32620 H 3294.29 -4.34145 -0.664441 0
M  V30 32621 H 3294.89 -4.13498 0.994965 0
M  V30 32622 N 3293.21 -0.67155 -1.42576 0
M  V30 32623 C 3294.45 -0.192752 -2.01882 0
M  V30 32624 C 3294.79 1.19651 -1.52962 0
M  V30 32625 O 3294.06 1.80263 -0.730436 0
M  V30 32626 C 3294.34 -0.223798 -3.59404 0
M  V30 32627 C 3294.2 -1.64828 -4.18511 0
M  V30 32628 C 3295.52 0.429781 -4.37996 0
M  V30 32629 H 3292.63 -0.0715154 -0.733522 0
M  V30 32630 H 3295.28 -0.855718 -1.69639 0
M  V30 32631 H 3293.43 0.340708 -3.87003 0
M  V30 32632 H 3295.1 -2.26479 -4.01877 0
M  V30 32633 H 3293.34 -2.18997 -3.74463 0
M  V30 32634 H 3294.01 -1.62172 -5.2764 0
M  V30 32635 H 3296.49 -0.0507164 -4.16069 0
M  V30 32636 H 3295.36 0.377407 -5.47601 0
M  V30 32637 H 3295.63 1.50686 -4.15627 0
M  V30 32638 N 3294.68 1.52047 -0.414663 0
M  V30 32639 C 3295.91 2.06291 0.15865 0
M  V30 32640 C 3296.33 1.28423 1.38395 0
M  V30 32641 O 3295.68 0.33757 1.79351 0
M  V30 32642 C 3295.74 3.57975 0.503571 0
M  V30 32643 O 3295.46 4.32899 -0.673072 0
M  V30 32644 C 3296.96 4.28655 1.13002 0
M  V30 32645 H 3294.18 0.67076 0.0179504 0
M  V30 32646 H 3296.72 1.95888 -0.587212 0
M  V30 32647 H 3294.88 3.68368 1.19933 0
M  V30 32648 H 3295.29 5.23094 -0.383827 0
M  V30 32649 H 3296.76 5.35947 1.32153 0
M  V30 32650 H 3297.24 3.85486 2.10469 0
M  V30 32651 H 3297.85 4.22647 0.474305 0
M  V30 32652 N 3296.16 0.145261 1.56929 0
M  V30 32653 C 3297.57 -0.375852 1.82878 0
M  V30 32654 C 3297.92 -1.64852 1.06387 0
M  V30 32655 O 3297.05 -2.14188 0.308608 0
M  V30 32656 C 3297.64 -0.688686 3.31727 0
M  V30 32657 C 3296.2 -1.15433 3.58263 0
M  V30 32658 C 3295.35 -0.176517 2.76738 0
M  V30 32659 H 3298.3 0.369987 1.54327 0
M  V30 32660 H 3298.32 -1.54353 3.47787 0
M  V30 32661 H 3297.83 0.237762 3.87371 0
M  V30 32662 H 3295.94 -2.09677 3.08003 0
M  V30 32663 H 3296.05 -1.0815 4.66734 0
M  V30 32664 H 3294.41 -0.6688 2.45762 0
M  V30 32665 H 3295.2 0.743491 3.35152 0
M  V30 32666 N 3297.64 -1.57075 -0.128525 0
M  V30 32667 C 3298.87 -1.88524 -0.852417 0
M  V30 32668 C 3299.28 -0.73549 -1.73885 0
M  V30 32669 O 3298.64 0.294081 -1.80115 0
M  V30 32670 C 3298.69 -3.19364 -1.69379 0
M  V30 32671 O 3298.41 -4.29912 -0.843055 0
M  V30 32672 C 3299.91 -3.64453 -2.52366 0
M  V30 32673 H 3297.13 -0.624459 -0.245545 0
M  V30 32674 H 3299.68 -2.04172 -0.115771 0
M  V30 32675 H 3297.83 -3.05414 -2.38329 0
M  V30 32676 H 3298.25 -5.04843 -1.42246 0
M  V30 32677 H 3299.72 -4.58789 -3.06947 0
M  V30 32678 H 3300.2 -2.90642 -3.29278 0
M  V30 32679 H 3300.8 -3.81159 -1.88675 0
M  V30 32680 N 3299.12 0.398432 -1.5248 0
M  V30 32681 C 3300.53 0.976789 -1.59109 0
M  V30 32682 C 3300.88 1.91245 -0.438137 0
M  V30 32683 O 3300.01 2.11878 0.440073 0
M  V30 32684 C 3300.6 1.77833 -2.88376 0
M  V30 32685 C 3299.16 2.30654 -2.97449 0
M  V30 32686 C 3298.31 1.10938 -2.54142 0
M  V30 32687 H 3301.26 0.178297 -1.57695 0
M  V30 32688 H 3301.28 2.63671 -2.74332 0
M  V30 32689 H 3300.79 1.09708 -3.72271 0
M  V30 32690 H 3298.89 3.02119 -2.18071 0
M  V30 32691 H 3299.01 2.60787 -4.01904 0
M  V30 32692 H 3297.37 1.46657 -2.0824 0
M  V30 32693 H 3298.15 0.443624 -3.40422 0
M  V30 32694 N 3300.6 1.43284 0.656314 0
M  V30 32695 C 3301.83 1.48171 1.44406 0
M  V30 32696 C 3302.24 0.0986348 1.88542 0
M  V30 32697 O 3301.6 -0.890499 1.593 0
M  V30 32698 C 3301.65 2.42489 2.68107 0
M  V30 32699 O 3301.37 3.75417 2.25817 0
M  V30 32700 C 3302.87 2.56586 3.61495 0
M  V30 32701 H 3300.09 0.503341 0.443722 0
M  V30 32702 H 3302.63 1.87994 0.804884 0
M  V30 32703 H 3300.79 2.05869 3.28172 0
M  V30 32704 H 3301.2 4.26107 3.05832 0
M  V30 32705 H 3302.68 3.26663 4.44966 0
M  V30 32706 H 3303.15 1.60976 4.08636 0
M  V30 32707 H 3303.76 2.94004 3.07314 0
M  V30 32708 N 3302.08 -0.894389 1.29763 0
M  V30 32709 C 3303.49 -1.4607 1.16278 0
M  V30 32710 C 3303.84 -1.94725 -0.240089 0
M  V30 32711 O 3302.96 -1.84183 -1.13603 0
M  V30 32712 C 3303.56 -2.65491 2.10476 0
M  V30 32713 C 3302.12 -3.18241 2.00997 0
M  V30 32714 C 3301.26 -1.90932 2.01098 0
M  V30 32715 H 3304.21 -0.705219 1.4217 0
M  V30 32716 H 3304.24 -3.41399 1.68009 0
M  V30 32717 H 3303.75 -2.30048 3.1257 0
M  V30 32718 H 3301.85 -3.58364 1.02011 0
M  V30 32719 H 3301.96 -3.82179 2.88923 0
M  V30 32720 H 3300.33 -2.08863 1.45768 0
M  V30 32721 H 3301.11 -1.57759 3.04905 0
M  V30 32722 N 3303.55 -1.12326 -1.10547 0
M  V30 32723 C 3304.78 -0.900651 -1.86268 0
M  V30 32724 C 3305.2 0.550038 -1.8061 0
M  V30 32725 O 3304.55 1.38023 -1.19399 0
M  V30 32726 C 3304.6 -1.36561 -3.34714 0
M  V30 32727 O 3304.33 -2.75944 -3.40274 0
M  V30 32728 C 3305.83 -1.17977 -4.27313 0
M  V30 32729 H 3303.05 -0.321918 -0.588736 0
M  V30 32730 H 3305.59 -1.49293 -1.39756 0
M  V30 32731 H 3303.75 -0.816587 -3.78696 0
M  V30 32732 H 3304.16 -2.96319 -4.32776 0
M  V30 32733 H 3305.63 -1.554 -5.29674 0
M  V30 32734 H 3306.11 -0.120235 -4.39035 0
M  V30 32735 H 3306.72 -1.71624 -3.89134 0
M  V30 32736 N 3305.03 1.28319 -0.914988 0
M  V30 32737 C 3306.28 1.94537 -0.547699 0
M  V30 32738 C 3306.6 1.72369 0.911804 0
M  V30 32739 O 3305.87 1.06411 1.6448 0
M  V30 32740 H 3304.45 0.71985 -0.199562 0
M  V30 32741 H 3307.11 1.56278 -1.16462 0
M  V30 32742 H 3306.21 3.03122 -0.743191 0
M  V30 32743 N 3306.51 0.679102 1.42218 0
M  V30 32744 C 3307.74 0.211685 2.05814 0
M  V30 32745 C 3308.15 -1.13281 1.51039 0
M  V30 32746 O 3307.51 -1.70459 0.651924 0
M  V30 32747 C 3307.56 0.142727 3.61218 0
M  V30 32748 O 3307.28 1.4341 4.13963 0
M  V30 32749 C 3308.78 -0.347668 4.41935 0
M  V30 32750 H 3306 0.101926 0.663213 0
M  V30 32751 H 3308.55 0.92705 1.8228 0
M  V30 32752 H 3306.7 -0.523353 3.83849 0
M  V30 32753 H 3307.12 1.31029 5.0787 0
M  V30 32754 H 3308.59 -0.344819 5.50922 0
M  V30 32755 H 3309.07 -1.38369 4.16834 0
M  V30 32756 H 3309.67 0.286826 4.24332 0
M  V30 32757 N 3307.99 -1.51825 0.42272 0
M  V30 32758 C 3308.92 -2.25099 -0.43163 0
M  V30 32759 C 3309.93 -1.28566 -0.998735 0
M  V30 32760 O 3311.12 -1.5442 -0.895363 0
M  V30 32761 C 3308.22 -2.97987 -1.61421 0
M  V30 32762 C 3307.39 -4.21501 -1.16859 0
M  V30 32763 C 3306.45 -4.77095 -2.21962 0
M  V30 32764 O 3305.48 -5.39321 -1.81994 0
M  V30 32765 N 3306.68 -4.59851 -3.54285 0
M  V30 32766 H 3309.45 -2.99056 0.196308 0
M  V30 32767 H 3307.01 -1.59945 0.250819 0
M  V30 32768 H 3309 -3.3207 -2.31326 0
M  V30 32769 H 3307.57 -2.27132 -2.14779 0
M  V30 32770 H 3306.79 -3.93078 -0.297148 0
M  V30 32771 H 3308.08 -5.01683 -0.848018 0
M  V30 32772 H 3307.48 -4.10253 -3.89498 0
M  V30 32773 H 3306.03 -4.98334 -4.20126 0
M  V30 32774 N 3309.47 -0.153581 -1.5685 0
M  V30 32775 C 3310.69 0.502642 -2.00702 0
M  V30 32776 C 3311.11 1.57986 -1.03372 0
M  V30 32777 O 3310.47 1.82472 -0.0317553 0
M  V30 32778 C 3310.52 1.09726 -3.44445 0
M  V30 32779 O 3310.24 0.0630635 -4.38055 0
M  V30 32780 C 3311.74 1.83345 -4.03608 0
M  V30 32781 H 3308.96 0.130278 -0.658232 0
M  V30 32782 H 3311.5 -0.250099 -2.02965 0
M  V30 32783 H 3309.66 1.80059 -3.43012 0
M  V30 32784 H 3310.07 0.49959 -5.22115 0
M  V30 32785 H 3311.55 2.20232 -5.06164 0
M  V30 32786 H 3312.02 2.72184 -3.44692 0
M  V30 32787 H 3312.63 1.17696 -4.0869 0
M  V30 32788 N 3310.94 1.57141 0.120193 0
M  V30 32789 C 3312.35 1.73975 0.677466 0
M  V30 32790 C 3312.71 0.772086 1.8037 0
M  V30 32791 O 3311.83 -0.0552682 2.16329 0
M  V30 32792 C 3312.43 3.15462 1.23569 0
M  V30 32793 C 3310.98 3.33806 1.73927 0
M  V30 32794 C 3310.13 2.69849 0.638495 0
M  V30 32795 H 3313.08 1.58348 -0.105713 0
M  V30 32796 H 3313.1 3.16946 2.10536 0
M  V30 32797 H 3312.62 3.85866 0.415783 0
M  V30 32798 H 3310.72 2.68441 2.58399 0
M  V30 32799 H 3310.83 4.4196 1.84954 0
M  V30 32800 H 3309.19 2.31051 1.07181 0
M  V30 32801 H 3309.98 3.42877 -0.170416 0
M  V30 32802 N 3312.42 -0.39034 1.5269 0
M  V30 32803 C 3313.65 -1.15675 1.71543 0
M  V30 32804 C 3314.07 -1.83763 0.433204 0
M  V30 32805 O 3313.42 -1.72624 -0.592218 0
M  V30 32806 C 3313.47 -2.20579 2.86404 0
M  V30 32807 O 3313.19 -1.55267 4.09663 0
M  V30 32808 C 3314.7 -3.09957 3.16925 0
M  V30 32809 H 3311.92 -0.346873 0.574387 0
M  V30 32810 H 3314.46 -0.456816 1.99332 0
M  V30 32811 H 3312.61 -2.8621 2.6108 0
M  V30 32812 H 3313.03 -2.24962 4.73806 0
M  V30 32813 H 3314.5 -3.79597 4.00762 0
M  V30 32814 H 3314.98 -3.73389 2.31252 0
M  V30 32815 H 3315.59 -2.49973 3.44084 0
M  V30 32816 N 3313.9 -1.4363 -0.648706 0
M  V30 32817 C 3315.13 -1.48935 -1.43618 0
M  V30 32818 C 3315.54 -0.108632 -1.88487 0
M  V30 32819 O 3314.9 0.882038 -1.5977 0
M  V30 32820 C 3314.95 -2.43907 -2.66817 0
M  V30 32821 O 3314.67 -3.76609 -2.23823 0
M  V30 32822 C 3316.17 -2.58499 -3.60129 0
M  V30 32823 H 3313.39 -0.505687 -0.441046 0
M  V30 32824 H 3315.94 -1.88419 -0.794903 0
M  V30 32825 H 3314.09 -2.07607 -3.27075 0
M  V30 32826 H 3314.51 -4.27723 -3.03568 0
M  V30 32827 H 3315.98 -3.29018 -4.43228 0
M  V30 32828 H 3316.46 -1.63141 -4.07777 0
M  V30 32829 H 3317.06 -2.95629 -3.0575 0
M  V30 32830 N 3315.38 0.887495 -1.30236 0
M  V30 32831 C 3316.61 1.67226 -1.21832 0
M  V30 32832 C 3317.02 1.87523 0.219218 0
M  V30 32833 O 3316.38 1.42093 1.14524 0
M  V30 32834 C 3316.43 3.05004 -1.94049 0
M  V30 32835 O 3316.15 2.85625 -3.3219 0
M  V30 32836 C 3317.65 3.99433 -1.92272 0
M  V30 32837 H 3314.87 0.521909 -0.421725 0
M  V30 32838 H 3317.42 1.109 -1.71818 0
M  V30 32839 H 3315.57 3.5807 -1.47868 0
M  V30 32840 H 3315.98 3.73012 -3.68731 0
M  V30 32841 H 3317.46 4.93482 -2.47345 0
M  V30 32842 H 3317.94 4.29858 -0.901059 0
M  V30 32843 H 3318.54 3.52301 -2.38253 0
M  V30 32844 N 3316.86 1.12911 1.0995 0
M  V30 32845 C 3318.27 0.901115 1.63514 0
M  V30 32846 C 3318.62 -0.563514 1.87933 0
M  V30 32847 O 3317.74 -1.42905 1.62503 0
M  V30 32848 C 3318.34 1.62929 2.97051 0
M  V30 32849 C 3316.9 1.44732 3.47462 0
M  V30 32850 C 3316.04 1.66198 2.21976 0
M  V30 32851 H 3319 1.28317 0.933836 0
M  V30 32852 H 3319.02 1.08324 3.64755 0
M  V30 32853 H 3318.53 2.69524 2.79246 0
M  V30 32854 H 3316.63 0.404155 3.70402 0
M  V30 32855 H 3316.74 2.20678 4.2525 0
M  V30 32856 H 3315.11 1.08644 2.30366 0
M  V30 32857 H 3315.89 2.74101 2.06697 0
M  V30 32858 N 3318.33 -1.27832 0.92178 0
M  V30 32859 C 3319.58 -1.93915 0.554965 0
M  V30 32860 C 3319.9 -1.73292 -0.90716 0
M  V30 32861 O 3321.1 -2.33665 -1.38249 0
M  V30 32862 C 3319.56 -3.47361 0.941705 0
M  V30 32863 C 3319.17 -3.76751 2.42411 0
M  V30 32864 C 3320.91 -4.19558 0.645859 0
M  V30 32865 C 3318.82 -5.23544 2.75056 0
M  V30 32866 H 3317.75 -0.725926 0.203831 0
M  V30 32867 H 3320.4 -1.45218 1.12179 0
M  V30 32868 H 3318.78 -3.94835 0.303588 0
M  V30 32869 H 3319.95 -3.40057 3.10963 0
M  V30 32870 H 3318.27 -3.17744 2.69124 0
M  V30 32871 H 3320.87 -5.27635 0.86633 0
M  V30 32872 H 3321.21 -4.14209 -0.416688 0
M  V30 32873 H 3321.74 -3.77888 1.24281 0
M  V30 32874 H 3318.48 -5.33977 3.80196 0
M  V30 32875 H 3318 -5.61406 2.11148 0
M  V30 32876 H 3319.68 -5.91364 2.62485 0
M  V30 32877 N 3319.81 -0.686634 -1.41856 0
M  V30 32878 C 3321.04 -0.222597 -2.05699 0
M  V30 32879 C 3321.46 1.12478 -1.51638 0
M  V30 32880 O 3320.81 1.70111 -0.660955 0
M  V30 32881 C 3320.86 -0.161881 -3.61137 0
M  V30 32882 O 3320.58 -1.45603 -4.13197 0
M  V30 32883 C 3322.09 0.324226 -4.42113 0
M  V30 32884 H 3319.31 -0.105442 -0.662664 0
M  V30 32885 H 3321.85 -0.936703 -1.81786 0
M  V30 32886 H 3320 0.502989 -3.84121 0
M  V30 32887 H 3320.42 -1.33721 -5.07168 0
M  V30 32888 H 3321.89 0.315597 -5.51097 0
M  V30 32889 H 3322.37 1.36157 -4.17562 0
M  V30 32890 H 3322.98 -0.309325 -4.24174 0
M  V30 32891 N 3321.29 1.51599 -0.430766 0
M  V30 32892 C 3322.52 2.06448 0.136761 0
M  V30 32893 C 3322.93 1.29883 1.37025 0
M  V30 32894 O 3322.29 0.356574 1.78983 0
M  V30 32895 C 3322.34 3.58489 0.465574 0
M  V30 32896 O 3322.06 4.32161 -0.718948 0
M  V30 32897 C 3323.56 4.2983 1.08449 0
M  V30 32898 H 3320.78 0.670913 0.0108351 0
M  V30 32899 H 3323.33 1.95254 -0.607955 0
M  V30 32900 H 3321.48 3.69619 1.16019 0
M  V30 32901 H 3321.9 5.22657 -0.439287 0
M  V30 32902 H 3323.37 5.37319 1.26461 0
M  V30 32903 H 3323.85 3.87696 2.06369 0
M  V30 32904 H 3324.45 4.23126 0.429451 0
M  V30 32905 N 3322.77 0.161897 1.56766 0
M  V30 32906 C 3324 -0.491992 2.00965 0
M  V30 32907 C 3324.41 -1.57436 1.04209 0
M  V30 32908 O 3323.77 -1.82453 0.0414318 0
M  V30 32909 C 3323.82 -1.07898 3.45022 0
M  V30 32910 O 3323.54 -0.0398315 4.38082 0
M  V30 32911 C 3325.04 -1.81202 4.04575 0
M  V30 32912 H 3322.26 -0.126785 0.658913 0
M  V30 32913 H 3324.81 0.260859 2.02829 0
M  V30 32914 H 3322.96 -1.78237 3.43963 0
M  V30 32915 H 3323.37 -0.471894 5.22373 0
M  V30 32916 H 3324.85 -2.17545 5.07325 0
M  V30 32917 H 3325.33 -2.70352 3.4613 0
M  V30 32918 H 3325.93 -1.15527 4.09309 0
M  V30 32919 N 3324.25 -1.57203 -0.111858 0
M  V30 32920 C 3325.47 -1.89418 -0.832374 0
M  V30 32921 C 3325.89 -0.753891 -1.73095 0
M  V30 32922 O 3325.25 0.274961 -1.80417 0
M  V30 32923 C 3325.3 -3.21142 -1.65982 0
M  V30 32924 O 3325.02 -4.30782 -0.797409 0
M  V30 32925 C 3326.52 -3.67109 -2.48487 0
M  V30 32926 H 3323.74 -0.627028 -0.238908 0
M  V30 32927 H 3326.28 -2.04283 -0.0941097 0
M  V30 32928 H 3324.44 -3.07925 -2.35077 0
M  V30 32929 H 3324.85 -5.06323 -1.36883 0
M  V30 32930 H 3326.33 -4.62019 -3.02064 0
M  V30 32931 H 3326.8 -2.94118 -3.26177 0
M  V30 32932 H 3327.41 -3.83138 -1.84621 0
M  V30 32933 N 3325.72 0.382237 -1.52894 0
M  V30 32934 C 3326.95 1.14763 -1.72154 0
M  V30 32935 C 3327.37 1.83531 -0.442943 0
M  V30 32936 O 3326.72 1.72936 0.583055 0
M  V30 32937 C 3326.78 2.19057 -2.8757 0
M  V30 32938 O 3326.5 1.53092 -4.10481 0
M  V30 32939 C 3328 3.08272 -3.18565 0
M  V30 32940 H 3325.22 0.343822 -0.576218 0
M  V30 32941 H 3327.76 0.446238 -1.99572 0
M  V30 32942 H 3325.92 2.84821 -2.62594 0
M  V30 32943 H 3326.33 2.22446 -4.74993 0
M  V30 32944 H 3327.8 3.77466 -4.02769 0
M  V30 32945 H 3328.28 3.72157 -2.33229 0
M  V30 32946 H 3328.89 2.48144 -3.45405 0
M  V30 32947 N 3327.2 1.43972 0.64108 0
M  V30 32948 C 3328.45 1.46448 1.40289 0
M  V30 32949 C 3328.78 0.0929345 1.93978 0
M  V30 32950 O 3328.06 -0.888012 1.73045 0
M  V30 32951 C 3328.34 2.51678 2.57547 0
M  V30 32952 C 3328.19 3.98152 2.09272 0
M  V30 32953 C 3329.51 2.53514 3.59748 0
M  V30 32954 H 3326.63 0.533227 0.508761 0
M  V30 32955 H 3329.27 1.75593 0.725736 0
M  V30 32956 H 3327.42 2.26955 3.15315 0
M  V30 32957 H 3329.1 4.33974 1.56411 0
M  V30 32958 H 3327.34 4.10404 1.40538 0
M  V30 32959 H 3328.01 4.67414 2.93646 0
M  V30 32960 H 3330.49 2.7558 3.11761 0
M  V30 32961 H 3329.36 3.29064 4.39327 0
M  V30 32962 H 3329.62 1.57342 4.13154 0
M  V30 32963 N 3328.68 -0.880575 1.30704 0
M  V30 32964 C 3329.91 -1.66578 1.22717 0
M  V30 32965 C 3330.32 -1.87637 -0.20927 0
M  V30 32966 O 3329.68 -1.42699 -1.13769 0
M  V30 32967 C 3329.73 -3.0397 1.95664 0
M  V30 32968 O 3329.45 -2.83859 3.337 0
M  V30 32969 C 3330.95 -3.98407 1.94387 0
M  V30 32970 H 3328.17 -0.519665 0.424487 0
M  V30 32971 H 3330.72 -1.09987 1.72404 0
M  V30 32972 H 3328.87 -3.57281 1.49764 0
M  V30 32973 H 3329.29 -3.71051 3.70704 0
M  V30 32974 H 3330.76 -4.92163 2.49959 0
M  V30 32975 H 3331.24 -4.29374 0.923843 0
M  V30 32976 H 3331.84 -3.51032 2.40118 0
M  V30 32977 N 3330.16 -1.13492 -1.09349 0
M  V30 32978 C 3331.57 -0.909774 -1.63034 0
M  V30 32979 C 3331.92 0.55354 -1.8823 0
M  V30 32980 O 3331.05 1.42041 -1.63258 0
M  V30 32981 C 3331.64 -1.64502 -2.96183 0
M  V30 32982 C 3330.2 -1.46572 -3.46689 0
M  V30 32983 C 3329.35 -1.67373 -2.21092 0
M  V30 32984 H 3332.3 -1.2881 -0.927018 0
M  V30 32985 H 3332.32 -1.10257 -3.64175 0
M  V30 32986 H 3331.83 -2.71001 -2.77813 0
M  V30 32987 H 3329.93 -0.423793 -3.70182 0
M  V30 32988 H 3330.05 -2.22931 -4.24074 0
M  V30 32989 H 3328.41 -1.09864 -2.29787 0
M  V30 32990 H 3329.19 -2.75193 -2.0524 0
M  V30 32991 N 3331.64 1.27341 -0.928546 0
M  V30 32992 C 3332.87 1.98435 -0.585769 0
M  V30 32993 C 3333.28 1.69262 0.83641 0
M  V30 32994 O 3332.64 0.953653 1.55601 0
M  V30 32995 C 3332.69 3.52465 -0.803154 0
M  V30 32996 O 3332.41 3.80617 -2.16938 0
M  V30 32997 C 3333.91 4.4081 -0.469205 0
M  V30 32998 H 3331.13 0.633247 -0.221898 0
M  V30 32999 H 3333.67 1.62173 -1.2458 0
M  V30 33000 H 3331.83 3.86934 -0.189914 0
M  V30 33001 H 3332.24 4.75201 -2.22001 0
M  V30 33002 H 3333.72 5.47894 -0.672002 0
M  V30 33003 H 3334.19 4.35147 0.595288 0
M  V30 33004 H 3334.8 4.11863 -1.06062 0
M  V30 33005 N 3333.12 0.694147 1.4149 0
M  V30 33006 C 3334.53 0.299472 1.84283 0
M  V30 33007 C 3334.88 -1.16208 1.58083 0
M  V30 33008 O 3334 -1.89189 1.05055 0
M  V30 33009 C 3334.6 0.536755 3.34521 0
M  V30 33010 C 3333.16 0.196011 3.75889 0
M  V30 33011 C 3332.3 0.819739 2.64907 0
M  V30 33012 H 3335.25 0.894907 1.31061 0
M  V30 33013 H 3335.28 -0.204995 3.79947 0
M  V30 33014 H 3334.79 1.60057 3.53558 0
M  V30 33015 H 3332.89 -0.863591 3.62454 0
M  V30 33016 H 3333 0.650037 4.7467 0
M  V30 33017 H 3331.37 0.249457 2.53475 0
M  V30 33018 H 3332.15 1.88739 2.86762 0
M  V30 33019 N 3334.59 -1.51368 0.438799 0
M  V30 33020 C 3335.82 -2.06517 -0.125811 0
M  V30 33021 C 3336.24 -1.30608 -1.36334 0
M  V30 33022 O 3335.59 -0.366061 -1.78791 0
M  V30 33023 C 3335.64 -3.58731 -0.446556 0
M  V30 33024 O 3335.37 -4.31773 0.741857 0
M  V30 33025 C 3336.87 -4.30399 -1.06168 0
M  V30 33026 H 3334.09 -0.670961 -0.00727689 0
M  V30 33027 H 3336.63 -1.94929 0.618302 0
M  V30 33028 H 3334.79 -3.70229 -1.14057 0
M  V30 33029 H 3335.2 -5.22417 0.466998 0
M  V30 33030 H 3336.67 -5.37982 -1.23609 0
M  V30 33031 H 3337.15 -3.88785 -2.0431 0
M  V30 33032 H 3337.76 -4.23348 -0.407005 0
M  V30 33033 N 3336.07 -0.170208 -1.56678 0
M  V30 33034 C 3337.48 0.34671 -1.83452 0
M  V30 33035 C 3337.83 1.63139 -1.08996 0
M  V30 33036 O 3336.96 2.1367 -0.342644 0
M  V30 33037 C 3337.55 0.635824 -3.3278 0
M  V30 33038 C 3336.11 1.09718 -3.60054 0
M  V30 33039 C 3335.26 0.132468 -2.76983 0
M  V30 33040 H 3338.21 -0.394492 -1.53719 0
M  V30 33041 H 3338.23 1.488 -3.50198 0
M  V30 33042 H 3337.74 -0.299359 -3.86944 0
M  V30 33043 H 3335.84 2.04751 -3.113 0
M  V30 33044 H 3335.96 1.00711 -4.68395 0
M  V30 33045 H 3334.32 0.629616 -2.46795 0
M  V30 33046 H 3335.1 -0.796716 -3.33927 0
M  V30 33047 N 3337.55 1.5726 0.10352 0
M  V30 33048 C 3338.78 1.89857 0.822317 0
M  V30 33049 C 3339.19 0.76306 1.72693 0
M  V30 33050 O 3338.55 -0.265389 1.8056 0
M  V30 33051 C 3338.6 3.22018 1.64277 0
M  V30 33052 O 3338.32 4.31199 0.774553 0
M  V30 33053 C 3339.82 3.68422 2.46536 0
M  V30 33054 H 3337.04 0.628286 0.23558 0
M  V30 33055 H 3339.59 2.0433 0.0832747 0
M  V30 33056 H 3337.74 3.09167 2.3344 0
M  V30 33057 H 3338.16 5.07042 1.34196 0
M  V30 33058 H 3339.63 4.63614 2.99609 0
M  V30 33059 H 3340.11 2.95844 3.24612 0
M  V30 33060 H 3340.71 3.84112 1.82587 0
M  V30 33061 N 3339.03 -0.374123 1.53095 0
M  V30 33062 C 3340.28 -1.11545 1.68529 0
M  V30 33063 C 3340.6 -1.9008 0.435286 0
M  V30 33064 O 3339.87 -1.88004 -0.550561 0
M  V30 33065 H 3338.45 -0.41478 0.621262 0
M  V30 33066 H 3341.11 -0.422811 1.90259 0
M  V30 33067 H 3340.2 -1.81005 2.54251 0
M  V30 33068 N 3340.51 -1.4431 -0.633436 0
M  V30 33069 C 3341.73 -1.5045 -1.4203 0
M  V30 33070 C 3342.15 -0.128618 -1.88361 0
M  V30 33071 O 3341.51 0.865043 -1.60696 0
M  V30 33072 C 3341.56 -2.46723 -2.64215 0
M  V30 33073 O 3341.28 -3.78962 -2.19816 0
M  V30 33074 C 3342.78 -2.62304 -3.57367 0
M  V30 33075 H 3340 -0.510336 -0.435658 0
M  V30 33076 H 3342.54 -1.89251 -0.774874 0
M  V30 33077 H 3340.7 -2.11064 -3.24855 0
M  V30 33078 H 3341.11 -4.30919 -2.99014 0
M  V30 33079 H 3342.59 -3.33701 -4.39713 0
M  V30 33080 H 3343.06 -1.67457 -4.06023 0
M  V30 33081 H 3343.67 -2.98856 -3.02598 0
M  V30 33082 N 3341.98 0.873632 -1.3117 0
M  V30 33083 C 3342.92 1.98649 -1.14329 0
M  V30 33084 C 3343.93 1.62586 -0.0833707 0
M  V30 33085 O 3345.12 1.75414 -0.330508 0
M  V30 33086 C 3342.22 3.3108 -0.723806 0
M  V30 33087 C 3341.39 3.95508 -1.86794 0
M  V30 33088 C 3340.45 5.06252 -1.43512 0
M  V30 33089 O 3339.48 5.2727 -2.14418 0
M  V30 33090 N 3340.68 5.79615 -0.320464 0
M  V30 33091 H 3343.44 2.13643 -2.10182 0
M  V30 33092 H 3341 1.04739 -1.23456 0
M  V30 33093 H 3343 4.02545 -0.417042 0
M  V30 33094 H 3341.57 3.12273 0.143018 0
M  V30 33095 H 3340.79 3.17071 -2.34222 0
M  V30 33096 H 3342.07 4.35291 -2.63437 0
M  V30 33097 H 3341.47 5.65055 0.270116 0
M  V30 33098 H 3340.03 6.51759 -0.0732146 0
M  V30 33099 N 3343.46 1.1407 1.08746 0
M  V30 33100 C 3344.69 0.93017 1.84812 0
M  V30 33101 C 3345.11 -0.521235 1.81462 0
M  V30 33102 O 3344.46 -1.36106 1.21579 0
M  V30 33103 C 3344.51 1.41869 3.32499 0
M  V30 33104 O 3344.23 2.81322 3.35841 0
M  V30 33105 C 3345.74 1.2476 4.25382 0
M  V30 33106 H 3342.96 0.331243 0.58354 0
M  V30 33107 H 3345.5 1.51498 1.37364 0
M  V30 33108 H 3343.65 0.876731 3.77349 0
M  V30 33109 H 3344.07 3.03167 4.28007 0
M  V30 33110 H 3345.54 1.63807 5.27135 0
M  V30 33111 H 3346.02 0.190067 4.38789 0
M  V30 33112 H 3346.63 1.77793 3.86354 0
M  V30 33113 N 3344.94 -1.26847 0.935286 0
M  V30 33114 C 3346.35 -1.75991 0.623229 0
M  V30 33115 C 3346.7 -1.76269 -0.861616 0
M  V30 33116 O 3345.83 -1.37102 -1.67428 0
M  V30 33117 C 3346.42 -3.19592 1.12457 0
M  V30 33118 C 3344.98 -3.66372 0.863038 0
M  V30 33119 C 3344.13 -2.46047 1.2789 0
M  V30 33120 H 3347.08 -1.13006 1.11424 0
M  V30 33121 H 3347.1 -3.77515 0.475692 0
M  V30 33122 H 3346.61 -3.19357 2.20528 0
M  V30 33123 H 3344.71 -3.72044 -0.203541 0
M  V30 33124 H 3344.83 -4.55475 1.4859 0
M  V30 33125 H 3343.19 -2.44967 0.697378 0
M  V30 33126 H 3343.97 -2.48518 2.36841 0
M  V30 33127 N 3346.42 -0.701641 -1.4112 0
M  V30 33128 C 3347.65 -0.244402 -2.05451 0
M  V30 33129 C 3348.06 1.10864 -1.52822 0
M  V30 33130 O 3347.42 1.694 -0.67896 0
M  V30 33131 C 3347.47 -0.200175 -3.60945 0
M  V30 33132 O 3347.19 -1.49977 -4.11629 0
M  V30 33133 C 3348.69 0.277316 -4.42432 0
M  V30 33134 H 3345.91 -0.112464 -0.661508 0
M  V30 33135 H 3348.46 -0.955931 -1.80782 0
M  V30 33136 H 3346.61 0.462219 -3.84633 0
M  V30 33137 H 3347.02 -1.39093 -5.05721 0
M  V30 33138 H 3348.5 0.257128 -5.51401 0
M  V30 33139 H 3348.98 1.3172 -4.18983 0
M  V30 33140 H 3349.58 -0.354297 -4.23822 0
M  V30 33141 N 3347.9 1.51133 -0.446821 0
M  V30 33142 C 3349.12 2.06581 0.114857 0
M  V30 33143 C 3349.54 1.31329 1.35639 0
M  V30 33144 O 3348.9 0.375538 1.78594 0
M  V30 33145 C 3348.95 3.58963 0.427526 0
M  V30 33146 O 3348.67 4.31374 -0.764744 0
M  V30 33147 C 3350.17 4.30956 1.03884 0
M  V30 33148 H 3347.39 0.67099 0.00371852 0
M  V30 33149 H 3349.93 1.94598 -0.62863 0
M  V30 33150 H 3348.09 3.70829 1.12092 0
M  V30 33151 H 3348.5 5.22162 -0.494697 0
M  V30 33152 H 3349.98 5.3863 1.20755 0
M  V30 33153 H 3350.45 3.89864 2.02245 0
M  V30 33154 H 3351.06 4.23558 0.384548 0
M  V30 33155 N 3349.37 0.178515 1.56586 0
M  V30 33156 C 3350.6 -0.470649 2.01476 0
M  V30 33157 C 3351.02 -1.56322 1.05873 0
M  V30 33158 O 3350.37 -1.82399 0.0607811 0
M  V30 33159 C 3350.43 -1.04232 3.46147 0
M  V30 33160 O 3350.15 0.00663521 4.38099 0
M  V30 33161 C 3351.65 -1.76901 4.06474 0
M  V30 33162 H 3348.87 -0.119789 0.660221 0
M  V30 33163 H 3351.41 0.282357 2.02541 0
M  V30 33164 H 3349.57 -1.74579 3.45834 0
M  V30 33165 H 3349.98 -0.416462 5.22844 0
M  V30 33166 H 3351.45 -2.12152 5.09603 0
M  V30 33167 H 3351.93 -2.66666 3.48978 0
M  V30 33168 H 3352.54 -1.11179 4.10511 0
M  V30 33169 N 3350.85 -1.57312 -0.0951784 0
M  V30 33170 C 3352.26 -1.75031 -0.649702 0
M  V30 33171 C 3352.61 -0.800684 -1.79119 0
M  V30 33172 O 3351.74 0.0208451 -2.1639 0
M  V30 33173 C 3352.33 -3.17388 -1.18535 0
M  V30 33174 C 3350.89 -3.36531 -1.68594 0
M  V30 33175 C 3350.04 -2.70831 -0.595484 0
M  V30 33176 H 3352.99 -1.58159 0.130891 0
M  V30 33177 H 3353.01 -3.20255 -2.05467 0
M  V30 33178 H 3352.52 -3.86479 -0.354342 0
M  V30 33179 H 3350.63 -2.72518 -2.54096 0
M  V30 33180 H 3350.74 -4.44847 -1.77899 0
M  V30 33181 H 3349.1 -2.32727 -1.03491 0
M  V30 33182 H 3349.89 -3.42562 0.224944 0
M  V30 33183 N 3352.33 0.365999 -1.53291 0
M  V30 33184 C 3353.58 1.10599 -1.68673 0
M  V30 33185 C 3353.89 1.90475 -0.444826 0
M  V30 33186 O 3355.1 2.67238 -0.479182 0
M  V30 33187 C 3353.55 2.0154 -2.98177 0
M  V30 33188 C 3353.16 1.26978 -4.29628 0
M  V30 33189 C 3354.91 2.75534 -3.22926 0
M  V30 33190 C 3352.81 2.16819 -5.50221 0
M  V30 33191 H 3351.74 0.416593 -0.628464 0
M  V30 33192 H 3354.39 0.367027 -1.79792 0
M  V30 33193 H 3352.78 2.79166 -2.8086 0
M  V30 33194 H 3353.95 0.544189 -4.57575 0
M  V30 33195 H 3352.27 0.648486 -4.11319 0
M  V30 33196 H 3354.86 3.42978 -4.10208 0
M  V30 33197 H 3355.21 3.4088 -2.3897 0
M  V30 33198 H 3355.74 2.04992 -3.40915 0
M  V30 33199 H 3352.48 1.56051 -6.36654 0
M  V30 33200 H 3352 2.87229 -5.26554 0
M  V30 33201 H 3353.68 2.76386 -5.84995 0
M  V30 33202 N 3353.81 1.44644 0.625774 0
M  V30 33203 C 3355.04 1.51201 1.4123 0
M  V30 33204 C 3355.45 0.138605 1.88291 0
M  V30 33205 O 3354.81 -0.856508 1.61153 0
M  V30 33206 C 3354.86 2.48121 2.62903 0
M  V30 33207 O 3354.58 3.80123 2.17803 0
M  V30 33208 C 3356.08 2.64196 3.55971 0
M  V30 33209 H 3353.3 0.51264 0.432945 0
M  V30 33210 H 3355.85 1.89659 0.764827 0
M  V30 33211 H 3354 2.12784 3.23731 0
M  V30 33212 H 3354.41 4.32498 2.96725 0
M  V30 33213 H 3355.89 3.36028 4.37937 0
M  V30 33214 H 3356.37 1.69607 4.0513 0
M  V30 33215 H 3356.97 3.00456 3.01009 0
M  V30 33216 N 3355.29 -0.866663 1.31631 0
M  V30 33217 C 3356.51 -1.65267 1.24477 0
M  V30 33218 C 3356.93 -1.87848 -0.189357 0
M  V30 33219 O 3356.29 -1.43897 -1.12249 0
M  V30 33220 C 3356.34 -3.01878 1.98877 0
M  V30 33221 O 3356.06 -2.80304 3.36692 0
M  V30 33222 C 3357.56 -3.96323 1.98602 0
M  V30 33223 H 3354.78 -0.515134 0.429975 0
M  V30 33224 H 3357.32 -1.08152 1.73561 0
M  V30 33225 H 3355.48 -3.55672 1.53545 0
M  V30 33226 H 3355.89 -3.67099 3.74618 0
M  V30 33227 H 3357.37 -4.89484 2.55165 0
M  V30 33228 H 3357.84 -4.2837 0.969332 0
M  V30 33229 H 3358.45 -3.48466 2.43827 0
M  V30 33230 N 3356.77 -1.14645 -1.0814 0
M  V30 33231 C 3357.99 -0.939958 -1.84316 0
M  V30 33232 C 3358.41 0.511604 -1.81736 0
M  V30 33233 O 3357.77 1.35459 -1.22299 0
M  V30 33234 C 3357.82 -1.4363 -3.31742 0
M  V30 33235 O 3357.54 -2.831 -3.34345 0
M  V30 33236 C 3359.04 -1.27014 -4.24714 0
M  V30 33237 H 3356.26 -0.334333 -0.581775 0
M  V30 33238 H 3358.8 -1.52224 -1.36558 0
M  V30 33239 H 3356.96 -0.89673 -3.76879 0
M  V30 33240 H 3357.37 -3.05432 -4.26393 0
M  V30 33241 H 3358.85 -1.666 -5.26259 0
M  V30 33242 H 3359.32 -0.213334 -4.38682 0
M  V30 33243 H 3359.93 -1.7984 -3.85406 0
M  V30 33244 N 3358.24 1.26349 -0.942 0
M  V30 33245 C 3359.47 1.97802 -0.606782 0
M  V30 33246 C 3359.89 1.7014 0.818411 0
M  V30 33247 O 3359.24 0.970103 1.54581 0
M  V30 33248 C 3359.29 3.51593 -0.840493 0
M  V30 33249 O 3359.02 3.78295 -2.20963 0
M  V30 33250 C 3360.52 4.40287 -0.515932 0
M  V30 33251 H 3357.74 0.630858 -0.228602 0
M  V30 33252 H 3360.28 1.60843 -1.26293 0
M  V30 33253 H 3358.44 3.86711 -0.230943 0
M  V30 33254 H 3358.85 4.7282 -2.27028 0
M  V30 33255 H 3360.32 5.47151 -0.730076 0
M  V30 33256 H 3360.8 4.35754 0.549102 0
M  V30 33257 H 3361.41 4.10715 -1.10425 0
M  V30 33258 N 3359.72 0.709115 1.40746 0
M  V30 33259 C 3360.95 0.255294 2.05319 0
M  V30 33260 C 3361.36 -1.10052 1.53408 0
M  V30 33261 O 3360.72 -1.69038 0.687934 0
M  V30 33262 C 3360.77 0.219314 3.60834 0
M  V30 33263 O 3360.49 1.52158 4.10828 0
M  V30 33264 C 3361.99 -0.253849 4.42573 0
M  V30 33265 H 3359.21 0.115971 0.660902 0
M  V30 33266 H 3361.76 0.965505 1.80273 0
M  V30 33267 H 3359.91 -0.441815 3.84872 0
M  V30 33268 H 3360.33 1.41773 5.04976 0
M  V30 33269 H 3361.8 -0.227883 5.51529 0
M  V30 33270 H 3362.28 -1.29497 4.19675 0
M  V30 33271 H 3362.88 0.376768 4.23628 0
M  V30 33272 N 3361.2 -1.50894 0.454829 0
M  V30 33273 C 3362.45 -2.02523 -0.105892 0
M  V30 33274 C 3362.78 -1.33726 -1.40822 0
M  V30 33275 O 3362.05 -0.457716 -1.89038 0
M  V30 33276 C 3362.34 -3.58793 -0.306572 0
M  V30 33277 C 3362.19 -4.38184 1.01564 0
M  V30 33278 C 3363.51 -4.26932 -1.06851 0
M  V30 33279 H 3360.63 -0.73607 -0.0370102 0
M  V30 33280 H 3363.27 -1.80369 0.597246 0
M  V30 33281 H 3361.42 -3.778 -0.905496 0
M  V30 33282 H 3363.09 -4.30786 1.64989 0
M  V30 33283 H 3361.33 -4.02571 1.61615 0
M  V30 33284 H 3362.01 -5.45739 0.829054 0
M  V30 33285 H 3364.48 -4.12301 -0.561014 0
M  V30 33286 H 3363.36 -5.36117 -1.1777 0
M  V30 33287 H 3363.62 -3.88984 -2.10104 0
M  V30 33288 N 3362.68 -0.186817 -1.56489 0
M  V30 33289 C 3363.91 0.459958 -2.01723 0
M  V30 33290 C 3364.32 1.55758 -1.067 0
M  V30 33291 O 3363.68 1.82364 -0.0704533 0
M  V30 33292 C 3363.73 1.02395 -3.46695 0
M  V30 33293 O 3363.45 -0.0298686 -4.3809 0
M  V30 33294 C 3364.95 1.74743 -4.07406 0
M  V30 33295 H 3362.17 0.116286 -0.660847 0
M  V30 33296 H 3364.71 -0.293095 -2.02389 0
M  V30 33297 H 3362.87 1.72743 -3.46755 0
M  V30 33298 H 3363.28 0.388729 -5.23058 0
M  V30 33299 H 3364.76 2.09446 -5.10721 0
M  V30 33300 H 3365.23 2.64812 -3.50388 0
M  V30 33301 H 3365.84 1.09 -4.11095 0
M  V30 33302 N 3364.16 1.57361 0.0868344 0
M  V30 33303 C 3365.57 1.75373 0.640411 0
M  V30 33304 C 3365.92 0.810172 1.78692 0
M  V30 33305 O 3365.04 -0.00936909 2.16398 0
M  V30 33306 C 3365.64 3.18012 1.1685 0
M  V30 33307 C 3364.2 3.3742 1.66807 0
M  V30 33308 C 3363.34 2.71143 0.581112 0
M  V30 33309 H 3366.29 1.58088 -0.139277 0
M  V30 33310 H 3366.32 3.2134 2.03766 0
M  V30 33311 H 3365.83 3.86661 0.333841 0
M  V30 33312 H 3363.93 2.73862 2.52647 0
M  V30 33313 H 3364.04 4.45784 1.75537 0
M  V30 33314 H 3362.41 2.33272 1.02255 0
M  V30 33315 H 3363.19 3.42438 -0.243107 0
M  V30 33316 N 3365.63 -0.357865 1.53483 0
M  V30 33317 C 3366.86 -1.1201 1.73958 0
M  V30 33318 C 3367.28 -1.82803 0.472085 0
M  V30 33319 O 3366.63 -1.73841 -0.555469 0
M  V30 33320 C 3366.68 -2.14454 2.91019 0
M  V30 33321 O 3366.41 -1.46542 4.12864 0
M  V30 33322 C 3367.91 -3.03165 3.23429 0
M  V30 33323 H 3365.13 -0.334611 0.581615 0
M  V30 33324 H 3367.67 -0.414432 2.00257 0
M  V30 33325 H 3365.83 -2.80607 2.67092 0
M  V30 33326 H 3366.24 -2.14861 4.78472 0
M  V30 33327 H 3367.71 -3.71011 4.08724 0
M  V30 33328 H 3368.19 -3.684 2.3912 0
M  V30 33329 H 3368.8 -2.42618 3.49309 0
M  V30 33330 N 3367.11 -1.44974 -0.618094 0
M  V30 33331 C 3368.52 -1.43035 -1.19991 0
M  V30 33332 C 3368.87 -0.152457 -1.95607 0
M  V30 33333 O 3368 0.746536 -2.03115 0
M  V30 33334 C 3368.59 -2.59126 -2.18264 0
M  V30 33335 C 3367.15 -2.6034 -2.71845 0
M  V30 33336 C 3366.3 -2.35089 -1.47066 0
M  V30 33337 H 3369.25 -1.53366 -0.408007 0
M  V30 33338 H 3369.27 -2.32624 -3.01108 0
M  V30 33339 H 3368.78 -3.52117 -1.63202 0
M  V30 33340 H 3366.88 -1.71326 -3.30875 0
M  V30 33341 H 3367 -3.59237 -3.16995 0
M  V30 33342 H 3365.36 -1.84438 -1.75655 0
M  V30 33343 H 3366.14 -3.30212 -0.93887 0
M  V30 33344 N 3368.59 0.85967 -1.32089 0
M  V30 33345 C 3369.82 1.64605 -1.25351 0
M  V30 33346 C 3370.23 1.87946 0.179392 0
M  V30 33347 O 3369.59 1.44491 1.11484 0
M  V30 33348 C 3369.64 3.00819 -2.00475 0
M  V30 33349 O 3369.36 2.78514 -3.38174 0
M  V30 33350 C 3370.86 3.95264 -2.00701 0
M  V30 33351 H 3368.08 0.512846 -0.432701 0
M  V30 33352 H 3370.63 1.0723 -1.74132 0
M  V30 33353 H 3368.78 3.54853 -1.55429 0
M  V30 33354 H 3369.2 3.65107 -3.7656 0
M  V30 33355 H 3370.67 4.88124 -2.57757 0
M  V30 33356 H 3371.15 4.2785 -0.992036 0
M  V30 33357 H 3371.75 3.47168 -2.45672 0
M  V30 33358 N 3370.07 1.15217 1.0753 0
M  V30 33359 C 3371.48 0.935596 1.61566 0
M  V30 33360 C 3371.83 -0.523524 1.89086 0
M  V30 33361 O 3370.95 -1.39426 1.65497 0
M  V30 33362 C 3371.55 1.69194 2.93528 0
M  V30 33363 C 3370.11 1.52069 3.44314 0
M  V30 33364 C 3369.26 1.70869 2.18401 0
M  V30 33365 H 3372.21 1.30269 0.906408 0
M  V30 33366 H 3372.23 1.16037 3.62375 0
M  V30 33367 H 3371.74 2.75386 2.73467 0
M  V30 33368 H 3369.84 0.482632 3.69461 0
M  V30 33369 H 3369.95 2.29649 4.20474 0
M  V30 33370 H 3368.32 1.13506 2.2801 0
M  V30 33371 H 3369.1 2.78424 2.00836 0
M  V30 33372 N 3371.55 -1.25848 0.948687 0
M  V30 33373 C 3372.77 -1.97478 0.617264 0
M  V30 33374 C 3373.19 -1.70571 -0.809376 0
M  V30 33375 O 3372.55 -0.978287 -1.54064 0
M  V30 33376 C 3372.6 -3.51143 0.859127 0
M  V30 33377 O 3372.32 -3.77118 2.22966 0
M  V30 33378 C 3373.82 -4.40008 0.539275 0
M  V30 33379 H 3371.04 -0.629637 0.231944 0
M  V30 33380 H 3373.58 -1.60171 1.27144 0
M  V30 33381 H 3371.74 -3.86583 0.251448 0
M  V30 33382 H 3372.15 -4.71609 2.29533 0
M  V30 33383 H 3373.63 -5.46756 0.759083 0
M  V30 33384 H 3374.1 -4.36039 -0.525985 0
M  V30 33385 H 3374.71 -4.10123 1.12601 0
M  V30 33386 N 3373.02 -0.716569 -1.40368 0
M  V30 33387 C 3374.27 -0.255994 -2.00472 0
M  V30 33388 C 3374.59 1.15511 -1.57106 0
M  V30 33389 O 3373.86 1.78326 -0.810956 0
M  V30 33390 H 3372.44 -0.0916557 -0.741356 0
M  V30 33391 H 3375.11 -0.922419 -1.7169 0
M  V30 33392 H 3374.2 -0.289861 -3.10751 0
M  V30 33393 N 3374.5 1.50651 -0.462825 0
M  V30 33394 C 3375.73 2.06691 0.0929397 0
M  V30 33395 C 3376.15 1.32761 1.34239 0
M  V30 33396 O 3375.5 0.394459 1.78186 0
M  V30 33397 C 3375.55 3.59396 0.389429 0
M  V30 33398 O 3375.27 4.30538 -0.810454 0
M  V30 33399 C 3376.78 4.32034 0.993072 0
M  V30 33400 H 3374 0.670991 -0.00339843 0
M  V30 33401 H 3376.54 1.93921 -0.649235 0
M  V30 33402 H 3374.69 3.71997 1.08153 0
M  V30 33403 H 3375.11 5.21608 -0.550051 0
M  V30 33404 H 3376.58 5.39881 1.15035 0
M  V30 33405 H 3377.06 3.91987 1.98099 0
M  V30 33406 H 3377.67 4.23942 0.339603 0
M  V30 33407 N 3375.98 0.195113 1.56388 0
M  V30 33408 C 3376.91 -0.757605 2.16317 0
M  V30 33409 C 3377.93 -1.17676 1.125 0
M  V30 33410 O 3379.11 -1.11248 1.39592 0
M  V30 33411 C 3376.21 -2.03442 2.71043 0
M  V30 33412 C 3375.39 -1.77507 3.99763 0
M  V30 33413 C 3374.45 -2.89636 4.39315 0
M  V30 33414 O 3373.47 -2.59243 5.06736 0
M  V30 33415 N 3374.67 -4.17991 4.0282 0
M  V30 33416 H 3377.44 -0.245117 2.98696 0
M  V30 33417 H 3375 0.0131479 1.61895 0
M  V30 33418 H 3376.99 -2.77595 2.94488 0
M  V30 33419 H 3375.56 -2.45813 1.93118 0
M  V30 33420 H 3374.78 -0.871333 3.8445 0
M  V30 33421 H 3376.07 -1.57576 4.83784 0
M  V30 33422 H 3375.47 -4.45536 3.48588 0
M  V30 33423 H 3374.03 -4.88771 4.31215 0
M  V30 33424 N 3377.46 -1.57404 -0.0784879 0
M  V30 33425 C 3378.69 -1.91141 -0.792008 0
M  V30 33426 C 3379.1 -0.790438 -1.71457 0
M  V30 33427 O 3378.46 0.23663 -1.80959 0
M  V30 33428 C 3378.51 -3.24591 -1.59133 0
M  V30 33429 O 3378.23 -4.32376 -0.705855 0
M  V30 33430 C 3379.73 -3.72298 -2.40644 0
M  V30 33431 H 3376.95 -0.631954 -0.225554 0
M  V30 33432 H 3379.5 -2.04437 -0.050757 0
M  V30 33433 H 3377.65 -3.12842 -2.28492 0
M  V30 33434 H 3378.06 -5.09113 -1.26113 0
M  V30 33435 H 3379.54 -4.68322 -2.92196 0
M  V30 33436 H 3380.02 -3.0097 -3.19865 0
M  V30 33437 H 3380.62 -3.86968 -1.76453 0
M  V30 33438 N 3378.94 0.34972 -1.53671 0
M  V30 33439 C 3380.35 0.925676 -1.62136 0
M  V30 33440 C 3380.7 1.89755 -0.498759 0
M  V30 33441 O 3379.82 2.13171 0.372443 0
M  V30 33442 C 3380.42 1.68568 -2.93888 0
M  V30 33443 C 3378.98 2.21074 -3.04636 0
M  V30 33444 C 3378.12 1.02796 -2.57543 0
M  V30 33445 H 3381.08 0.128037 -1.58183 0
M  V30 33446 H 3381.1 2.5481 -2.82581 0
M  V30 33447 H 3380.61 0.978087 -3.75573 0
M  V30 33448 H 3378.71 2.95028 -2.27572 0
M  V30 33449 H 3378.82 2.47868 -4.09998 0
M  V30 33450 H 3377.19 1.39958 -2.128 0
M  V30 33451 H 3377.97 0.335097 -3.41661 0
M  V30 33452 N 3380.41 1.45299 0.610397 0
M  V30 33453 C 3381.64 1.5269 1.39619 0
M  V30 33454 C 3382.06 0.158568 1.88133 0
M  V30 33455 O 3381.41 -0.839368 1.62052 0
M  V30 33456 C 3381.47 2.50896 2.60257 0
M  V30 33457 O 3381.19 3.82411 2.1376 0
M  V30 33458 C 3382.69 2.67957 3.53149 0
M  V30 33459 H 3379.91 0.517203 0.427484 0
M  V30 33460 H 3382.45 1.9046 0.744668 0
M  V30 33461 H 3380.61 2.16205 3.21456 0
M  V30 33462 H 3381.02 4.35621 2.92121 0
M  V30 33463 H 3382.49 3.40654 4.34349 0
M  V30 33464 H 3382.97 1.73895 4.03308 0
M  V30 33465 H 3383.58 3.03632 2.97805 0
M  V30 33466 N 3381.89 -0.852653 1.32543 0
M  V30 33467 C 3383.12 -1.63937 1.26222 0
M  V30 33468 C 3383.54 -1.88038 -0.169422 0
M  V30 33469 O 3382.89 -1.4508 -1.10716 0
M  V30 33470 C 3382.94 -2.99751 2.02068 0
M  V30 33471 O 3382.66 -2.76717 3.39646 0
M  V30 33472 C 3384.17 -3.94195 2.02794 0
M  V30 33473 H 3381.39 -0.510544 0.435414 0
M  V30 33474 H 3383.93 -1.06306 1.74698 0
M  V30 33475 H 3382.08 -3.54023 1.57309 0
M  V30 33476 H 3382.5 -3.63105 3.78491 0
M  V30 33477 H 3383.97 -4.86751 2.60342 0
M  V30 33478 H 3384.45 -4.27317 1.01471 0
M  V30 33479 H 3385.06 -3.4586 2.4751 0
M  V30 33480 N 3383.37 -1.15786 -1.06918 0
M  V30 33481 C 3384.6 -0.959454 -1.83309 0
M  V30 33482 C 3385.01 0.4923 -1.82269 0
M  V30 33483 O 3384.37 1.34154 -1.23729 0
M  V30 33484 C 3384.42 -1.47141 -3.302 0
M  V30 33485 O 3384.14 -2.8663 -3.31323 0
M  V30 33486 C 3385.64 -1.31512 -4.23343 0
M  V30 33487 H 3382.86 -0.340485 -0.578196 0
M  V30 33488 H 3385.41 -1.53664 -1.34936 0
M  V30 33489 H 3383.56 -0.936653 -3.75906 0
M  V30 33490 H 3383.98 -3.09938 -4.2313 0
M  V30 33491 H 3385.45 -1.72172 -5.24462 0
M  V30 33492 H 3385.93 -0.25985 -4.38431 0
M  V30 33493 H 3386.53 -1.83917 -3.83477 0
M  V30 33494 N 3384.85 1.25343 -0.955348 0
M  V30 33495 C 3386.26 1.74977 -0.651148 0
M  V30 33496 C 3386.61 1.77617 0.833464 0
M  V30 33497 O 3385.74 1.39748 1.65225 0
M  V30 33498 C 3386.33 3.17762 -1.17527 0
M  V30 33499 C 3384.89 3.64953 -0.921215 0
M  V30 33500 C 3384.04 2.43982 -1.31789 0
M  V30 33501 H 3386.99 1.1122 -1.13207 0
M  V30 33502 H 3387.01 3.7671 -0.535691 0
M  V30 33503 H 3386.52 3.15809 -2.2558 0
M  V30 33504 H 3384.62 3.7232 0.144326 0
M  V30 33505 H 3384.73 4.53054 -1.55818 0
M  V30 33506 H 3383.1 2.43826 -0.736262 0
M  V30 33507 H 3383.88 2.44718 -2.40765 0
M  V30 33508 N 3386.33 0.724003 1.39986 0
M  V30 33509 C 3387.58 0.264095 1.99964 0
M  V30 33510 C 3387.89 -1.15187 1.58086 0
M  V30 33511 O 3389.1 -1.71073 2.10822 0
M  V30 33512 C 3387.55 0.421237 3.57426 0
M  V30 33513 C 3387.16 1.84439 4.08272 0
M  V30 33514 C 3388.9 0.022548 4.24494 0
M  V30 33515 C 3386.81 1.95167 5.58269 0
M  V30 33516 H 3385.74 0.094986 0.747993 0
M  V30 33517 H 3388.39 0.896304 1.60121 0
M  V30 33518 H 3386.77 -0.279693 3.95011 0
M  V30 33519 H 3387.95 2.57638 3.82046 0
M  V30 33520 H 3386.26 2.19529 3.5383 0
M  V30 33521 H 3388.86 0.0818684 5.34637 0
M  V30 33522 H 3389.2 -1.02062 4.03595 0
M  V30 33523 H 3389.74 0.674229 3.92045 0
M  V30 33524 H 3386.47 2.97633 5.84033 0
M  V30 33525 H 3385.99 1.2639 5.86332 0
M  V30 33526 H 3387.67 1.7277 6.23506 0
M  V30 33527 N 3387.81 -1.50403 0.470808 0
M  V30 33528 C 3389.03 -2.06738 -0.0819771 0
M  V30 33529 C 3389.45 -1.33471 -1.33533 0
M  V30 33530 O 3388.81 -0.403903 -1.77974 0
M  V30 33531 C 3388.86 -3.59598 -0.370364 0
M  V30 33532 O 3388.58 -4.30102 0.833275 0
M  V30 33533 C 3390.08 -4.32554 -0.970146 0
M  V30 33534 H 3387.3 -0.670964 0.00695682 0
M  V30 33535 H 3389.84 -1.93574 0.65951 0
M  V30 33536 H 3388 -3.72565 -1.06178 0
M  V30 33537 H 3388.41 -5.21309 0.577706 0
M  V30 33538 H 3389.89 -5.40483 -1.1217 0
M  V30 33539 H 3390.36 -3.93032 -1.96017 0
M  V30 33540 H 3390.97 -4.24116 -0.317115 0
M  V30 33541 N 3389.28 -0.203404 -1.56282 0
M  V30 33542 C 3390.51 0.438536 -2.02199 0
M  V30 33543 C 3390.93 1.54617 -1.08346 0
M  V30 33544 O 3390.28 1.82279 -0.0897915 0
M  V30 33545 C 3390.33 0.987123 -3.47762 0
M  V30 33546 O 3390.06 -0.0763322 -4.38033 0
M  V30 33547 C 3391.56 1.70412 -4.09237 0
M  V30 33548 H 3388.78 0.10927 -0.662043 0
M  V30 33549 H 3391.32 -0.314544 -2.02066 0
M  V30 33550 H 3389.48 1.69055 -3.48567 0
M  V30 33551 H 3389.89 0.33323 -5.2344 0
M  V30 33552 H 3391.36 2.04018 -5.12914 0
M  V30 33553 H 3391.84 2.6108 -3.53177 0
M  V30 33554 H 3392.45 1.04634 -4.12228 0
M  V30 33555 N 3390.76 1.57444 0.0701393 0
M  V30 33556 C 3391.99 1.91558 0.78186 0
M  V30 33557 C 3392.4 0.799519 1.71035 0
M  V30 33558 O 3391.76 -0.22703 1.81082 0
M  V30 33559 C 3391.81 3.2543 1.57409 0
M  V30 33560 O 3391.53 4.32745 0.682915 0
M  V30 33561 C 3393.03 3.73568 2.38666 0
M  V30 33562 H 3390.25 0.633142 0.2222 0
M  V30 33563 H 3392.8 2.04461 0.0399145 0
M  V30 33564 H 3390.95 3.14049 2.2683 0
M  V30 33565 H 3391.37 5.09774 1.23411 0
M  V30 33566 H 3392.84 4.69865 2.89708 0
M  V30 33567 H 3393.32 3.02662 3.18264 0
M  V30 33568 H 3393.92 3.87899 1.74398 0
M  V30 33569 N 3392.24 -0.341566 1.53854 0
M  V30 33570 C 3393.47 -1.10159 1.75136 0
M  V30 33571 C 3393.88 -1.82292 0.491447 0
M  V30 33572 O 3393.24 -1.74421 -0.536999 0
M  V30 33573 C 3393.29 -2.11355 2.93277 0
M  V30 33574 O 3393.01 -1.42155 4.14395 0
M  V30 33575 C 3394.51 -2.99717 3.26626 0
M  V30 33576 H 3391.73 -0.328423 0.585132 0
M  V30 33577 H 3394.28 -0.393169 2.00685 0
M  V30 33578 H 3392.43 -2.77759 2.70053 0
M  V30 33579 H 3392.85 -2.09774 4.80723 0
M  V30 33580 H 3394.32 -3.66655 4.12636 0
M  V30 33581 H 3394.8 -3.65843 2.43014 0
M  V30 33582 H 3395.4 -2.38899 3.51862 0
M  V30 33583 N 3393.72 -1.45621 -0.602683 0
M  V30 33584 C 3394.95 -1.53428 -1.38807 0
M  V30 33585 C 3395.36 -0.168543 -1.88046 0
M  V30 33586 O 3394.72 0.830762 -1.62495 0
M  V30 33587 C 3394.77 -2.52272 -2.58923 0
M  V30 33588 O 3394.49 -3.8354 -2.11729 0
M  V30 33589 C 3395.99 -2.69826 -3.51723 0
M  V30 33590 H 3393.21 -0.519462 -0.424735 0
M  V30 33591 H 3395.75 -1.90852 -0.734557 0
M  V30 33592 H 3393.91 -2.17907 -3.20305 0
M  V30 33593 H 3394.32 -4.37164 -2.89806 0
M  V30 33594 H 3395.8 -3.42953 -4.32536 0
M  V30 33595 H 3396.27 -1.76031 -4.0238 0
M  V30 33596 H 3396.88 -3.05207 -2.9619 0
M  V30 33597 N 3395.2 0.845612 -1.32993 0
M  V30 33598 C 3396.44 1.60279 -1.24251 0
M  V30 33599 C 3396.77 1.93238 0.193015 0
M  V30 33600 O 3396.05 1.58124 1.13257 0
M  V30 33601 C 3396.33 2.91723 -2.11116 0
M  V30 33602 C 3396.19 2.65488 -3.63093 0
M  V30 33603 C 3397.5 3.93085 -1.97919 0
M  V30 33604 H 3394.62 0.58157 -0.452709 0
M  V30 33605 H 3397.27 0.975799 -1.63028 0
M  V30 33606 H 3395.42 3.45233 -1.78175 0
M  V30 33607 H 3397.09 2.18462 -4.06291 0
M  V30 33608 H 3395.33 1.993 -3.85308 0
M  V30 33609 H 3396 3.59121 -4.19209 0
M  V30 33610 H 3398.48 3.4886 -2.26794 0
M  V30 33611 H 3397.35 4.82898 -2.6096 0
M  V30 33612 H 3397.61 4.31784 -0.949453 0
M  V30 33613 N 3396.67 1.16351 1.06302 0
M  V30 33614 C 3397.9 0.969162 1.82797 0
M  V30 33615 C 3398.32 -0.482627 1.82527 0
M  V30 33616 O 3397.67 -1.33496 1.24439 0
M  V30 33617 C 3397.72 1.4889 3.29415 0
M  V30 33618 O 3397.45 2.88383 3.29798 0
M  V30 33619 C 3398.95 1.33755 4.2264 0
M  V30 33620 H 3396.17 0.343547 0.576382 0
M  V30 33621 H 3398.71 1.54377 1.34119 0
M  V30 33622 H 3396.87 0.956575 3.75404 0
M  V30 33623 H 3397.28 3.12177 4.2148 0
M  V30 33624 H 3398.75 1.74951 5.23542 0
M  V30 33625 H 3399.23 0.283098 4.38287 0
M  V30 33626 H 3399.84 1.85949 3.82496 0
M  V30 33627 N 3398.15 -1.24835 0.961982 0
M  V30 33628 C 3399.56 -1.74629 0.660419 0
M  V30 33629 C 3399.91 -1.78057 -0.824033 0
M  V30 33630 O 3399.04 -1.40622 -1.64482 0
M  V30 33631 C 3399.63 -3.17134 1.19211 0
M  V30 33632 C 3398.19 -3.64459 0.940557 0
M  V30 33633 C 3397.34 -2.43279 1.33081 0
M  V30 33634 H 3400.29 -1.10618 1.13796 0
M  V30 33635 H 3400.31 -3.76421 0.555661 0
M  V30 33636 H 3399.82 -3.14608 2.27252 0
M  V30 33637 H 3397.92 -3.72392 -0.124579 0
M  V30 33638 H 3398.04 -4.52221 1.58218 0
M  V30 33639 H 3396.4 -2.43432 0.749182 0
M  V30 33640 H 3397.18 -2.43438 2.42059 0
M  V30 33641 N 3399.63 -0.731417 -1.396 0
M  V30 33642 C 3400.86 -0.287926 -2.04887 0
M  V30 33643 C 3401.27 1.07597 -1.5514 0
M  V30 33644 O 3400.63 1.67922 -0.71474 0
M  V30 33645 C 3400.68 -0.276692 -3.6044 0
M  V30 33646 O 3400.4 -1.58675 -4.08355 0
M  V30 33647 C 3401.9 0.183408 -4.4292 0
M  V30 33648 H 3399.12 -0.126471 -0.658974 0
M  V30 33649 H 3401.67 -0.994063 -1.78714 0
M  V30 33650 H 3399.82 0.380529 -3.85527 0
M  V30 33651 H 3400.24 -1.49788 -5.02657 0
M  V30 33652 H 3401.71 0.14011 -5.51822 0
M  V30 33653 H 3402.19 1.22804 -4.21682 0
M  V30 33654 H 3402.79 -0.444116 -4.22975 0
M  V30 33655 N 3401.11 1.50152 -0.478778 0
M  V30 33656 C 3402.52 1.86683 -0.0255235 0
M  V30 33657 C 3402.87 1.39298 1.38169 0
M  V30 33658 O 3402 0.761243 2.02569 0
M  V30 33659 C 3402.59 3.38777 -0.0395414 0
M  V30 33660 C 3401.15 3.74691 0.358274 0
M  V30 33661 C 3400.3 2.74075 -0.421715 0
M  V30 33662 H 3403.25 1.42785 -0.692678 0
M  V30 33663 H 3403.27 3.72815 0.760891 0
M  V30 33664 H 3402.78 3.73234 -1.06385 0
M  V30 33665 H 3400.88 3.45837 1.38665 0
M  V30 33666 H 3400.99 4.79069 0.0542747 0
M  V30 33667 H 3399.36 2.5439 0.125589 0
M  V30 33668 H 3400.14 3.11376 -1.44568 0
M  V30 33669 N 3402.59 0.211689 1.56172 0
M  V30 33670 C 3403.81 -0.427807 2.02429 0
M  V30 33671 C 3404.23 -1.54041 1.09165 0
M  V30 33672 O 3403.59 -1.82229 0.0994569 0
M  V30 33673 C 3403.64 -0.968666 3.4828 0
M  V30 33674 O 3403.36 0.0995611 4.37987 0
M  V30 33675 C 3404.86 -1.68239 4.10135 0
M  V30 33676 H 3402.08 -0.105758 0.662613 0
M  V30 33677 H 3404.62 0.325256 2.01897 0
M  V30 33678 H 3402.78 -1.67204 3.49459 0
M  V30 33679 H 3403.19 -0.305466 5.2361 0
M  V30 33680 H 3404.67 -2.01295 5.13989 0
M  V30 33681 H 3405.14 -2.59204 3.54556 0
M  V30 33682 H 3405.75 -1.02446 4.12777 0
M  V30 33683 N 3404.06 -1.57479 -0.0617887 0
M  V30 33684 C 3405.48 -1.76369 -0.61243 0
M  V30 33685 C 3405.83 -0.838497 -1.7738 0
M  V30 33686 O 3404.95 -0.0250591 -2.16385 0
M  V30 33687 C 3405.55 -3.19831 -1.11776 0
M  V30 33688 C 3404.11 -3.40031 -1.61418 0
M  V30 33689 C 3403.25 -2.72033 -0.537902 0
M  V30 33690 H 3406.2 -1.57846 0.16441 0
M  V30 33691 H 3406.22 -3.24541 -1.98628 0
M  V30 33692 H 3405.74 -3.87144 -0.272285 0
M  V30 33693 H 3403.84 -2.77847 -2.48258 0
M  V30 33694 H 3403.95 -4.4852 -1.68423 0
M  V30 33695 H 3402.31 -2.34869 -0.985314 0
M  V30 33696 H 3403.1 -3.42008 0.297555 0
M  V30 33697 N 3405.54 0.333401 -1.54033 0
M  V30 33698 C 3406.77 1.09228 -1.75718 0
M  V30 33699 C 3407.19 1.82028 -0.501108 0
M  V30 33700 O 3406.54 1.74703 0.527742 0
M  V30 33701 C 3406.59 2.09797 -2.94393 0
M  V30 33702 O 3406.31 1.39955 -4.15143 0
M  V30 33703 C 3407.82 2.97981 -3.28211 0
M  V30 33704 H 3405.04 0.325316 -0.586865 0
M  V30 33705 H 3407.58 0.38252 -2.00891 0
M  V30 33706 H 3405.73 2.76323 -2.71523 0
M  V30 33707 H 3406.15 2.07222 -4.81829 0
M  V30 33708 H 3407.62 3.64461 -4.14574 0
M  V30 33709 H 3408.1 3.64549 -2.44951 0
M  V30 33710 H 3408.71 2.3703 -3.53124 0
M  V30 33711 N 3407.02 1.45939 0.594952 0
M  V30 33712 C 3408.27 1.50316 1.35091 0
M  V30 33713 C 3408.59 0.151349 1.94412 0
M  V30 33714 O 3407.86 -0.820756 1.77878 0
M  V30 33715 H 3406.44 0.553595 0.50154 0
M  V30 33716 H 3409.1 1.81984 0.697703 0
M  V30 33717 H 3408.2 2.24905 2.16389 0
M  V30 33718 N 3408.5 -0.838547 1.3344 0
M  V30 33719 C 3409.73 -1.6259 1.27954 0
M  V30 33720 C 3410.14 -1.88207 -0.149469 0
M  V30 33721 O 3409.5 -1.46246 -1.09171 0
M  V30 33722 C 3409.55 -2.97591 2.05235 0
M  V30 33723 O 3409.27 -2.73099 3.42562 0
M  V30 33724 C 3410.77 -3.92021 2.06964 0
M  V30 33725 H 3407.99 -0.505897 0.440805 0
M  V30 33726 H 3410.54 -1.04447 1.75816 0
M  V30 33727 H 3408.69 -3.52335 1.61055 0
M  V30 33728 H 3409.1 -3.5907 3.82321 0
M  V30 33729 H 3410.58 -4.83962 2.6549 0
M  V30 33730 H 3411.06 -4.26217 1.05998 0
M  V30 33731 H 3411.66 -3.43215 2.51164 0
M  V30 33732 N 3409.98 -1.16914 -1.05683 0
M  V30 33733 C 3410.91 -0.839082 -2.13289 0
M  V30 33734 C 3411.92 0.156363 -1.62047 0
M  V30 33735 O 3413.11 -0.0692506 -1.78366 0
M  V30 33736 C 3410.21 -0.229617 -3.38121 0
M  V30 33737 C 3409.38 -1.2667 -4.18657 0
M  V30 33738 C 3408.44 -0.675902 -5.21841 0
M  V30 33739 O 3407.47 -1.3464 -5.53047 0
M  V30 33740 N 3408.67 0.534431 -5.78035 0
M  V30 33741 H 3411.44 -1.7652 -2.422 0
M  V30 33742 H 3409 -1.06731 -1.21738 0
M  V30 33743 H 3410.99 0.178797 -4.04305 0
M  V30 33744 H 3409.56 0.600176 -3.06784 0
M  V30 33745 H 3408.78 -1.85105 -3.48037 0
M  V30 33746 H 3410.07 -1.96638 -4.69266 0
M  V30 33747 H 3409.46 1.09722 -5.54957 0
M  V30 33748 H 3408.02 0.884973 -6.45764 0
M  V30 33749 N 3411.45 1.24323 -0.968589 0
M  V30 33750 C 3412.68 1.96471 -0.648603 0
M  V30 33751 C 3413.1 1.71837 0.782137 0
M  V30 33752 O 3412.45 1.00267 1.52488 0
M  V30 33753 C 3412.51 3.49732 -0.914882 0
M  V30 33754 O 3412.23 3.73523 -2.28938 0
M  V30 33755 C 3413.73 4.39094 -0.609208 0
M  V30 33756 H 3410.95 0.625867 -0.241932 0
M  V30 33757 H 3413.49 1.58128 -1.29676 0
M  V30 33758 H 3411.65 3.86134 -0.312918 0
M  V30 33759 H 3412.06 4.67898 -2.37006 0
M  V30 33760 H 3413.53 5.45479 -0.845971 0
M  V30 33761 H 3414.01 4.36821 0.456548 0
M  V30 33762 H 3414.62 4.0828 -1.19112 0
M  V30 33763 N 3412.93 0.73881 1.3921 0
M  V30 33764 C 3414.34 0.357948 1.83237 0
M  V30 33765 C 3414.69 -1.1112 1.617 0
M  V30 33766 O 3413.82 -1.85751 1.1102 0
M  V30 33767 C 3414.41 0.642909 3.32644 0
M  V30 33768 C 3412.97 0.315498 3.75075 0
M  V30 33769 C 3412.12 0.903602 2.62165 0
M  V30 33770 H 3415.07 0.93615 1.28148 0
M  V30 33771 H 3415.09 -0.0840143 3.80407 0
M  V30 33772 H 3414.6 1.71224 3.48287 0
M  V30 33773 H 3412.71 -0.747842 3.65018 0
M  V30 33774 H 3412.82 0.800721 4.72361 0
M  V30 33775 H 3411.18 0.329972 2.52554 0
M  V30 33776 H 3411.97 1.97766 2.80612 0
M  V30 33777 N 3414.41 -1.49895 0.486734 0
M  V30 33778 C 3415.64 -2.06813 -0.0600452 0
M  V30 33779 C 3416.05 -1.34879 -1.3211 0
M  V30 33780 O 3415.41 -0.422757 -1.77536 0
M  V30 33781 C 3415.46 -3.5997 -0.332203 0
M  V30 33782 O 3415.18 -4.29194 0.878847 0
M  V30 33783 C 3416.68 -4.33559 -0.924213 0
M  V30 33784 H 3413.9 -0.670852 0.0140729 0
M  V30 33785 H 3416.45 -1.92863 0.680004 0
M  V30 33786 H 3414.6 -3.73671 -1.02221 0
M  V30 33787 H 3415.02 -5.20667 0.632965 0
M  V30 33788 H 3416.49 -5.41642 -1.06431 0
M  V30 33789 H 3416.97 -3.95089 -1.91837 0
M  V30 33790 H 3417.57 -4.24429 -0.272114 0
M  V30 33791 N 3415.89 -0.219968 -1.56057 0
M  V30 33792 C 3417.12 0.417066 -2.02653 0
M  V30 33793 C 3417.53 1.5346 -1.0998 0
M  V30 33794 O 3416.89 1.82173 -0.10912 0
M  V30 33795 C 3416.94 0.950183 -3.48789 0
M  V30 33796 O 3416.66 -0.122787 -4.37928 0
M  V30 33797 C 3418.16 1.66062 -4.11021 0
M  V30 33798 H 3415.38 0.102242 -0.663165 0
M  V30 33799 H 3417.93 -0.335958 -2.01722 0
M  V30 33800 H 3416.08 1.65349 -3.50341 0
M  V30 33801 H 3416.5 0.277693 -5.23764 0
M  V30 33802 H 3417.97 1.98566 -5.15049 0
M  V30 33803 H 3418.45 2.5732 -3.55926 0
M  V30 33804 H 3419.05 1.00256 -4.13315 0
M  V30 33805 N 3417.37 1.57509 0.0534363 0
M  V30 33806 C 3418.6 1.92377 0.761499 0
M  V30 33807 C 3419.01 0.817615 1.70178 0
M  V30 33808 O 3418.37 -0.207811 1.81313 0
M  V30 33809 C 3418.42 3.27081 1.53949 0
M  V30 33810 O 3418.14 4.33445 0.636978 0
M  V30 33811 C 3419.64 3.76079 2.3469 0
M  V30 33812 H 3416.86 0.635463 0.215472 0
M  V30 33813 H 3419.4 2.04492 0.0182264 0
M  V30 33814 H 3417.56 3.16438 2.23486 0
M  V30 33815 H 3417.97 5.11055 1.17997 0
M  V30 33816 H 3419.45 4.72911 2.84708 0
M  V30 33817 H 3419.92 3.06021 3.15036 0
M  V30 33818 H 3420.53 3.89726 1.70274 0
M  V30 33819 N 3418.85 -0.325228 1.54208 0
M  V30 33820 C 3420.26 -0.899764 1.63588 0
M  V30 33821 C 3420.61 -1.88937 0.528884 0
M  V30 33822 O 3419.73 -2.13736 -0.338483 0
M  V30 33823 C 3420.33 -1.63871 2.96533 0
M  V30 33824 C 3418.89 -2.162 3.08115 0
M  V30 33825 C 3418.03 -0.986858 2.59146 0
M  V30 33826 H 3420.98 -0.102855 1.58366 0
M  V30 33827 H 3421.01 -2.50282 2.86599 0
M  V30 33828 H 3420.52 -0.918212 3.77082 0
M  V30 33829 H 3418.62 -2.9137 2.32237 0
M  V30 33830 H 3418.73 -2.41314 4.13889 0
M  V30 33831 H 3417.1 -1.36555 2.15 0
M  V30 33832 H 3417.88 -0.2807 3.42151 0
M  V30 33833 N 3420.32 -1.46252 -0.587204 0
M  V30 33834 C 3421.57 -1.50597 -1.34177 0
M  V30 33835 C 3421.89 -0.160205 -1.94943 0
M  V30 33836 O 3423.09 -0.0814274 -2.71378 0
M  V30 33837 C 3421.55 -2.65338 -2.43154 0
M  V30 33838 C 3421.16 -4.06316 -1.88711 0
M  V30 33839 C 3422.9 -2.78949 -3.19981 0
M  V30 33840 C 3420.81 -5.12403 -2.95291 0
M  V30 33841 H 3419.74 -0.560451 -0.504391 0
M  V30 33842 H 3422.39 -1.7245 -0.627149 0
M  V30 33843 H 3420.77 -2.36806 -3.17394 0
M  V30 33844 H 3421.94 -4.44618 -1.21044 0
M  V30 33845 H 3420.26 -3.97332 -1.24565 0
M  V30 33846 H 3422.86 -3.55377 -3.99514 0
M  V30 33847 H 3423.2 -1.86305 -3.72285 0
M  V30 33848 H 3423.73 -3.07105 -2.52846 0
M  V30 33849 H 3420.47 -6.06825 -2.47879 0
M  V30 33850 H 3419.99 -4.7865 -3.61461 0
M  V30 33851 H 3421.67 -5.3805 -3.5932 0
M  V30 33852 N 3421.8 0.831459 -1.33883 0
M  V30 33853 C 3423.03 1.61909 -1.28815 0
M  V30 33854 C 3423.44 1.88284 0.139486 0
M  V30 33855 O 3422.8 1.46823 1.08394 0
M  V30 33856 C 3422.85 2.96499 -2.06811 0
M  V30 33857 O 3422.57 2.71279 -3.44005 0
M  V30 33858 C 3424.07 3.90918 -2.0904 0
M  V30 33859 H 3421.29 0.503552 -0.443482 0
M  V30 33860 H 3423.84 1.03513 -1.76367 0
M  V30 33861 H 3421.99 3.51476 -1.62921 0
M  V30 33862 H 3422.41 3.57037 -3.8422 0
M  V30 33863 H 3423.88 4.82547 -2.68053 0
M  V30 33864 H 3424.36 4.25649 -1.08257 0
M  V30 33865 H 3424.96 3.41878 -2.52981 0
M  V30 33866 N 3423.28 1.17472 1.05062 0
M  V30 33867 C 3424.51 0.988496 1.81759 0
M  V30 33868 C 3424.92 -0.46324 1.83029 0
M  V30 33869 O 3424.28 -1.32169 1.25848 0
M  V30 33870 C 3424.33 1.52376 3.27817 0
M  V30 33871 O 3424.05 2.91865 3.26721 0
M  V30 33872 C 3425.55 1.3823 4.21197 0
M  V30 33873 H 3422.77 0.349641 0.572706 0
M  V30 33874 H 3425.32 1.55791 1.32474 0
M  V30 33875 H 3423.47 0.996338 3.74369 0
M  V30 33876 H 3423.89 3.1663 4.18145 0
M  V30 33877 H 3425.36 1.80494 5.21657 0
M  V30 33878 H 3425.84 0.329568 4.37962 0
M  V30 33879 H 3426.44 1.89995 3.80502 0
M  V30 33880 N 3424.76 -1.23807 0.975168 0
M  V30 33881 C 3425.99 -1.96124 0.659013 0
M  V30 33882 C 3426.4 -1.7225 -0.773014 0
M  V30 33883 O 3425.76 -1.01075 -1.51954 0
M  V30 33884 C 3425.81 -3.49241 0.933416 0
M  V30 33885 O 3425.53 -3.72303 2.30915 0
M  V30 33886 C 3427.03 -4.38765 0.632485 0
M  V30 33887 H 3424.25 -0.624576 0.245248 0
M  V30 33888 H 3426.79 -1.57438 1.30513 0
M  V30 33889 H 3424.95 -3.85963 0.333391 0
M  V30 33890 H 3425.36 -4.66634 2.39485 0
M  V30 33891 H 3426.84 -5.45023 0.874887 0
M  V30 33892 H 3427.31 -4.37057 -0.433376 0
M  V30 33893 H 3427.92 -4.07643 1.21275 0
M  V30 33894 N 3426.24 -0.746182 -1.38816 0
M  V30 33895 C 3427.46 -0.309641 -2.0457 0
M  V30 33896 C 3427.88 1.05946 -1.56272 0
M  V30 33897 O 3427.24 1.67154 -0.73251 0
M  V30 33898 C 3427.29 -0.314906 -3.60126 0
M  V30 33899 O 3427.01 -1.62997 -4.06649 0
M  V30 33900 C 3428.51 0.13642 -4.4309 0
M  V30 33901 H 3425.73 -0.133453 -0.657595 0
M  V30 33902 H 3428.27 -1.01296 -1.77649 0
M  V30 33903 H 3426.43 0.339617 -3.85908 0
M  V30 33904 H 3426.84 -1.55111 -5.0104 0
M  V30 33905 H 3428.32 0.0815744 -5.5194 0
M  V30 33906 H 3428.79 1.18324 -4.22961 0
M  V30 33907 H 3429.4 -0.488953 -4.2248 0
M  V30 33908 N 3427.71 1.49635 -0.494676 0
M  V30 33909 C 3428.94 2.06842 0.0490766 0
M  V30 33910 C 3429.36 1.35578 1.31393 0
M  V30 33911 O 3428.71 0.432166 1.77309 0
M  V30 33912 C 3428.76 3.60141 0.313108 0
M  V30 33913 O 3428.49 4.28722 -0.901596 0
M  V30 33914 C 3429.99 4.34043 0.901207 0
M  V30 33915 H 3427.21 0.670768 -0.0176304 0
M  V30 33916 H 3429.75 1.925 -0.690222 0
M  V30 33917 H 3427.91 3.74207 1.00238 0
M  V30 33918 H 3428.32 5.20324 -0.660568 0
M  V30 33919 H 3429.79 5.42199 1.03557 0
M  V30 33920 H 3430.27 3.961 1.8974 0
M  V30 33921 H 3430.88 4.24567 0.249602 0
M  V30 33922 N 3429.19 0.228241 1.55939 0
M  V30 33923 C 3430.44 -0.402237 1.98771 0
M  V30 33924 C 3430.77 -1.58938 1.1159 0
M  V30 33925 O 3430.05 -1.93711 0.175067 0
M  V30 33926 C 3430.33 -0.830291 3.50397 0
M  V30 33927 C 3430.18 0.360954 4.48349 0
M  V30 33928 C 3431.5 -1.68405 4.06605 0
M  V30 33929 H 3428.62 -0.144733 0.722649 0
M  V30 33930 H 3431.26 0.325817 1.87186 0
M  V30 33931 H 3429.41 -1.45064 3.60401 0
M  V30 33932 H 3431.08 0.999193 4.50349 0
M  V30 33933 H 3429.33 1.00726 4.21944 0
M  V30 33934 H 3430 0.0184045 5.51997 0
M  V30 33935 H 3432.47 -1.16057 3.99587 0
M  V30 33936 H 3431.35 -1.95245 5.13001 0
M  V30 33937 H 3431.61 -2.64964 3.53901 0
M  V30 33938 N 3430.67 -1.57536 -0.0450825 0
M  V30 33939 C 3431.9 -1.92778 -0.751286 0
M  V30 33940 C 3432.31 -0.826628 -1.69742 0
M  V30 33941 O 3431.67 0.198192 -1.81421 0
M  V30 33942 C 3431.72 -3.27893 -1.52212 0
M  V30 33943 O 3431.44 -4.33776 -0.613982 0
M  V30 33944 C 3432.94 -3.77318 -2.32693 0
M  V30 33945 H 3430.16 -0.636596 -0.212099 0
M  V30 33946 H 3432.71 -2.04499 -0.00738146 0
M  V30 33947 H 3430.86 -3.17618 -2.21805 0
M  V30 33948 H 3431.28 -5.11673 -1.15285 0
M  V30 33949 H 3432.75 -4.74415 -2.82196 0
M  V30 33950 H 3433.23 -3.07687 -3.13409 0
M  V30 33951 H 3433.83 -3.90624 -1.68205 0
M  V30 33952 N 3432.15 0.317045 -1.54378 0
M  V30 33953 C 3433.56 0.891076 -1.64063 0
M  V30 33954 C 3433.91 1.88654 -0.538896 0
M  V30 33955 O 3433.04 2.13913 0.327143 0
M  V30 33956 C 3433.63 1.62297 -2.97398 0
M  V30 33957 C 3432.19 2.14563 -3.09257 0
M  V30 33958 C 3431.34 0.973101 -2.59665 0
M  V30 33959 H 3434.29 0.0944551 -1.58419 0
M  V30 33960 H 3434.31 2.48759 -2.87923 0
M  V30 33961 H 3433.82 0.898202 -3.77563 0
M  V30 33962 H 3431.92 2.90135 -2.33779 0
M  V30 33963 H 3432.03 2.39116 -4.15163 0
M  V30 33964 H 3430.4 1.35412 -2.15721 0
M  V30 33965 H 3431.18 0.262551 -3.42295 0
M  V30 33966 N 3433.63 1.46561 0.57944 0
M  V30 33967 C 3434.85 1.55617 1.36348 0
M  V30 33968 C 3435.27 0.198438 1.87754 0
M  V30 33969 O 3434.63 -0.804805 1.63796 0
M  V30 33970 C 3434.68 2.5636 2.54876 0
M  V30 33971 O 3434.4 3.8686 2.056 0
M  V30 33972 C 3435.9 2.75387 3.47386 0
M  V30 33973 H 3433.12 0.526154 0.416417 0
M  V30 33974 H 3435.66 1.91997 0.704101 0
M  V30 33975 H 3433.82 2.22975 3.16798 0
M  V30 33976 H 3434.23 4.41719 2.82815 0
M  V30 33977 H 3435.71 3.49791 4.27025 0
M  V30 33978 H 3436.18 1.82411 3.99529 0
M  V30 33979 H 3436.79 3.0988 2.91297 0
M  V30 33980 N 3435.1 -0.824347 1.34322 0
M  V30 33981 C 3436.52 -1.39701 1.23857 0
M  V30 33982 C 3436.87 -1.95724 -0.136532 0
M  V30 33983 O 3435.99 -1.89946 -1.0368 0
M  V30 33984 C 3436.59 -2.53961 2.24253 0
M  V30 33985 C 3435.15 -3.07139 2.17584 0
M  V30 33986 C 3434.29 -1.80004 2.10936 0
M  V30 33987 H 3437.24 -0.628866 1.45709 0
M  V30 33988 H 3437.26 -3.32013 1.8587 0
M  V30 33989 H 3436.78 -2.13156 3.24324 0
M  V30 33990 H 3434.88 -3.52452 1.20864 0
M  V30 33991 H 3434.99 -3.66326 3.08775 0
M  V30 33992 H 3433.35 -2.00843 1.56634 0
M  V30 33993 H 3434.14 -1.41375 3.12839 0
M  V30 33994 N 3436.58 -1.18028 -1.04437 0
M  V30 33995 C 3437.81 -0.998121 -1.81232 0
M  V30 33996 C 3438.23 0.453527 -1.83272 0
M  V30 33997 O 3437.58 1.31499 -1.26547 0
M  V30 33998 C 3437.63 -1.54112 -3.27004 0
M  V30 33999 O 3437.35 -2.93593 -3.25169 0
M  V30 34000 C 3438.86 -1.40462 -4.20458 0
M  V30 34001 H 3436.08 -0.352673 -0.570844 0
M  V30 34002 H 3438.62 -1.56491 -1.31646 0
M  V30 34003 H 3436.77 -1.01618 -3.73835 0
M  V30 34004 H 3437.19 -3.18843 -4.1646 0
M  V30 34005 H 3438.66 -1.83258 -5.20692 0
M  V30 34006 H 3439.14 -0.35279 -4.37781 0
M  V30 34007 H 3439.75 -1.9201 -3.79489 0
M  V30 34008 N 3438.06 1.23288 -0.98172 0
M  V30 34009 C 3439.47 1.73556 -0.688117 0
M  V30 34010 C 3439.82 1.79345 0.795601 0
M  V30 34011 O 3438.95 1.43221 1.62224 0
M  V30 34012 C 3439.54 3.15198 -1.24241 0
M  V30 34013 C 3438.1 3.62917 -0.99842 0
M  V30 34014 C 3437.25 2.41131 -1.36934 0
M  V30 34015 H 3440.2 1.08793 -1.15541 0
M  V30 34016 H 3440.22 3.75489 -0.615476 0
M  V30 34017 H 3439.73 3.10953 -2.32228 0
M  V30 34018 H 3437.83 3.72543 0.0653193 0
M  V30 34019 H 3437.95 4.49647 -1.65393 0
M  V30 34020 H 3436.31 2.4221 -0.787815 0
M  V30 34021 H 3437.09 2.39556 -2.45902 0
M  V30 34022 N 3439.54 0.753533 1.38418 0
M  V30 34023 C 3440.77 0.320485 2.04403 0
M  V30 34024 C 3441.18 -1.05116 1.56832 0
M  V30 34025 O 3440.54 -1.66763 0.741364 0
M  V30 34026 C 3440.59 0.334 3.59954 0
M  V30 34027 O 3440.31 1.65151 4.05779 0
M  V30 34028 C 3441.81 -0.11292 4.43156 0
M  V30 34029 H 3439.03 0.136938 0.656878 0
M  V30 34030 H 3441.58 1.02237 1.7711 0
M  V30 34031 H 3439.73 -0.319147 3.86083 0
M  V30 34032 H 3440.14 1.57766 5.0021 0
M  V30 34033 H 3441.62 -0.0523025 5.51975 0
M  V30 34034 H 3442.1 -1.16079 4.23583 0
M  V30 34035 H 3442.7 0.511352 4.22215 0
M  V30 34036 N 3441.02 -1.49371 0.502605 0
M  V30 34037 C 3442.26 -2.02058 -0.0412637 0
M  V30 34038 C 3442.59 -1.38433 -1.37336 0
M  V30 34039 O 3441.86 -0.540208 -1.88304 0
M  V30 34040 H 3440.44 -0.746777 -0.0182391 0
M  V30 34041 H 3443.1 -1.83377 0.660211 0
M  V30 34042 H 3442.19 -3.11638 -0.169758 0
M  V30 34043 N 3442.49 -0.236508 -1.55815 0
M  V30 34044 C 3443.72 0.395548 -2.03084 0
M  V30 34045 C 3444.14 1.52284 -1.11601 0
M  V30 34046 O 3443.49 1.82048 -0.128435 0
M  V30 34047 C 3443.55 0.913135 -3.49777 0
M  V30 34048 O 3443.27 -0.169228 -4.37773 0
M  V30 34049 C 3444.77 1.61693 -4.12759 0
M  V30 34050 H 3441.99 0.0952029 -0.664212 0
M  V30 34051 H 3444.53 -0.357335 -2.01354 0
M  V30 34052 H 3442.69 1.61623 -3.52075 0
M  V30 34053 H 3443.1 0.222125 -5.24029 0
M  V30 34054 H 3444.57 1.93092 -5.17126 0
M  V30 34055 H 3445.05 2.5353 -3.58635 0
M  V30 34056 H 3445.66 0.958663 -4.14355 0
M  V30 34057 N 3443.97 1.57557 0.0367273 0
M  V30 34058 C 3444.9 2.02842 1.06714 0
M  V30 34059 C 3445.92 0.93994 1.32925 0
M  V30 34060 O 3447.11 1.21737 1.30547 0
M  V30 34061 C 3444.21 2.38219 2.4105 0
M  V30 34062 C 3443.38 3.69351 2.34304 0
M  V30 34063 C 3442.44 3.92003 3.51027 0
M  V30 34064 O 3441.46 4.63158 3.30867 0
M  V30 34065 N 3442.67 3.3705 4.72628 0
M  V30 34066 H 3445.43 2.91855 0.681224 0
M  V30 34067 H 3442.99 1.60332 0.224808 0
M  V30 34068 H 3444.98 2.50516 3.17842 0
M  V30 34069 H 3443.55 1.54915 2.71514 0
M  V30 34070 H 3442.77 3.6748 1.42661 0
M  V30 34071 H 3444.06 4.55389 2.26932 0
M  V30 34072 H 3443.46 2.7936 4.91909 0
M  V30 34073 H 3442.02 3.5474 5.46812 0
M  V30 34074 N 3445.45 -0.308854 1.54544 0
M  V30 34075 C 3446.68 -1.06419 1.77433 0
M  V30 34076 C 3447.09 -1.81208 0.530003 0
M  V30 34077 O 3446.45 -1.7552 -0.499881 0
M  V30 34078 C 3446.5 -2.05087 2.97694 0
M  V30 34079 O 3446.22 -1.33333 4.17317 0
M  V30 34080 C 3447.72 -2.92722 3.3291 0
M  V30 34081 H 3444.94 -0.315938 0.591966 0
M  V30 34082 H 3447.49 -0.350512 2.01474 0
M  V30 34083 H 3445.64 -2.71968 2.75884 0
M  V30 34084 H 3446.06 -1.9953 4.85065 0
M  V30 34085 H 3447.53 -3.5782 4.2032 0
M  V30 34086 H 3448.01 -3.60606 2.50719 0
M  V30 34087 H 3448.61 -2.31382 3.56851 0
M  V30 34088 N 3446.93 -1.46867 -0.571659 0
M  V30 34089 C 3448.34 -1.4678 -1.1538 0
M  V30 34090 C 3448.69 -0.21461 -1.95023 0
M  V30 34091 O 3447.82 0.681538 -2.05387 0
M  V30 34092 C 3448.41 -2.65938 -2.0991 0
M  V30 34093 C 3446.97 -2.68857 -2.63425 0
M  V30 34094 C 3446.12 -2.39649 -1.39512 0
M  V30 34095 H 3449.07 -1.54586 -0.359008 0
M  V30 34096 H 3449.09 -2.42086 -2.93555 0
M  V30 34097 H 3448.6 -3.57131 -1.51917 0
M  V30 34098 H 3446.7 -1.81766 -3.25257 0
M  V30 34099 H 3446.82 -3.6914 -3.05406 0
M  V30 34100 H 3445.18 -1.89933 -1.69699 0
M  V30 34101 H 3445.96 -3.33032 -0.833341 0
M  V30 34102 N 3448.41 0.817212 -1.34757 0
M  V30 34103 C 3449.64 1.60533 -1.30525 0
M  V30 34104 C 3450.05 1.88421 0.119508 0
M  V30 34105 O 3449.41 1.47964 1.06831 0
M  V30 34106 C 3449.46 2.94289 -2.09944 0
M  V30 34107 O 3449.18 2.67615 -3.46863 0
M  V30 34108 C 3450.68 3.88679 -2.13174 0
M  V30 34109 H 3447.9 0.49882 -0.448797 0
M  V30 34110 H 3450.44 1.01636 -1.77455 0
M  V30 34111 H 3448.6 3.49728 -1.6664 0
M  V30 34112 H 3449.01 3.52942 -3.87985 0
M  V30 34113 H 3450.49 4.79677 -2.73156 0
M  V30 34114 H 3450.96 4.24477 -1.12765 0
M  V30 34115 H 3451.57 3.39176 -2.56592 0
M  V30 34116 N 3449.89 1.1858 1.0381 0
M  V30 34117 C 3451.11 1.00772 1.807 0
M  V30 34118 C 3451.53 -0.443801 1.8351 0
M  V30 34119 O 3450.89 -1.30826 1.27243 0
M  V30 34120 C 3450.94 1.55844 3.26182 0
M  V30 34121 O 3450.66 2.95313 3.23607 0
M  V30 34122 C 3452.16 1.4269 4.19708 0
M  V30 34123 H 3449.38 0.355695 0.568966 0
M  V30 34124 H 3451.92 1.57187 1.30814 0
M  V30 34125 H 3450.08 1.03599 3.73291 0
M  V30 34126 H 3450.49 3.21047 4.14764 0
M  V30 34127 H 3451.97 1.86017 5.19713 0
M  V30 34128 H 3452.44 0.376001 4.37588 0
M  V30 34129 H 3453.05 1.9402 3.78466 0
M  V30 34130 N 3451.36 -1.22766 0.988245 0
M  V30 34131 C 3452.59 -1.95414 0.679777 0
M  V30 34132 C 3453.01 -1.7306 -0.754701 0
M  V30 34133 O 3452.36 -1.02681 -1.50874 0
M  V30 34134 C 3452.41 -3.48232 0.970405 0
M  V30 34135 O 3452.14 -3.69833 2.34851 0
M  V30 34136 C 3453.64 -4.38069 0.678987 0
M  V30 34137 H 3450.86 -0.621939 0.251858 0
M  V30 34138 H 3453.4 -1.56044 1.32176 0
M  V30 34139 H 3451.56 -3.85587 0.374309 0
M  V30 34140 H 3451.97 -4.64068 2.4442 0
M  V30 34141 H 3453.44 -5.44064 0.932645 0
M  V30 34142 H 3453.92 -4.37492 -0.386996 0
M  V30 34143 H 3454.53 -4.06333 1.25592 0
M  V30 34144 N 3452.84 -0.760864 -1.38017 0
M  V30 34145 C 3454.25 -0.387054 -1.82644 0
M  V30 34146 C 3454.6 1.08533 -1.63447 0
M  V30 34147 O 3453.73 1.83961 -1.13961 0
M  V30 34148 C 3454.32 -0.695748 -3.31579 0
M  V30 34149 C 3452.88 -0.375129 -3.74526 0
M  V30 34150 C 3452.03 -0.945196 -2.60694 0
M  V30 34151 H 3454.98 -0.956419 -1.26643 0
M  V30 34152 H 3455 0.0234842 -3.80493 0
M  V30 34153 H 3454.51 -1.76743 -3.45519 0
M  V30 34154 H 3452.61 0.689677 -3.66161 0
M  V30 34155 H 3452.73 -0.875768 -4.71028 0
M  V30 34156 H 3451.09 -0.370109 -2.51997 0
M  V30 34157 H 3451.87 -2.02206 -2.77431 0
M  V30 34158 N 3454.32 1.49102 -0.510519 0
M  V30 34159 C 3455.57 2.01674 0.0325038 0
M  V30 34160 C 3455.88 1.39451 1.3716 0
M  V30 34161 O 3457.09 1.83406 2.00186 0
M  V30 34162 C 3455.54 3.59737 0.10837 0
M  V30 34163 C 3455.15 4.30936 -1.22465 0
M  V30 34164 C 3456.9 4.2022 0.601252 0
M  V30 34165 C 3454.8 5.80882 -1.11043 0
M  V30 34166 H 3453.73 0.753832 0.01592 0
M  V30 34167 H 3456.38 1.7155 -0.651374 0
M  V30 34168 H 3454.77 3.86618 0.856906 0
M  V30 34169 H 3455.94 4.15747 -1.98723 0
M  V30 34170 H 3454.25 3.82239 -1.65173 0
M  V30 34171 H 3456.85 5.3004 0.704369 0
M  V30 34172 H 3457.19 3.84225 1.6024 0
M  V30 34173 H 3457.73 3.97696 -0.091026 0
M  V30 34174 H 3454.47 6.21418 -2.08614 0
M  V30 34175 H 3453.99 5.98538 -0.388903 0
M  V30 34176 H 3455.67 6.42121 -0.793062 0
M  V30 34177 N 3455.8 0.244768 1.55688 0
M  V30 34178 C 3457.03 -0.384773 2.03291 0
M  V30 34179 C 3457.44 -1.5169 1.12408 0
M  V30 34180 O 3456.8 -1.81977 0.138088 0
M  V30 34181 C 3456.85 -0.894573 3.50257 0
M  V30 34182 O 3456.57 0.192442 4.37677 0
M  V30 34183 C 3458.07 -1.59502 4.13611 0
M  V30 34184 H 3455.29 -0.0916791 0.664707 0
M  V30 34185 H 3457.83 0.368008 2.01162 0
M  V30 34186 H 3455.99 -1.59754 3.52927 0
M  V30 34187 H 3456.4 -0.194332 5.2414 0
M  V30 34188 H 3457.88 -1.90347 5.18143 0
M  V30 34189 H 3458.35 -2.51625 3.59974 0
M  V30 34190 H 3458.96 -0.936676 4.14857 0
M  V30 34191 N 3457.28 -1.57574 -0.0283712 0
M  V30 34192 C 3458.5 -1.93564 -0.730797 0
M  V30 34193 C 3458.92 -0.844585 -1.68856 0
M  V30 34194 O 3458.28 0.178939 -1.81621 0
M  V30 34195 C 3458.33 -3.29489 -1.48726 0
M  V30 34196 O 3458.05 -4.34403 -0.56794 0
M  V30 34197 C 3459.55 -3.79765 -2.28678 0
M  V30 34198 H 3456.77 -0.63881 -0.205335 0
M  V30 34199 H 3459.31 -2.04495 0.0143088 0
M  V30 34200 H 3457.47 -3.19953 -2.18424 0
M  V30 34201 H 3457.88 -5.12867 -1.09852 0
M  V30 34202 H 3459.36 -4.77381 -2.77149 0
M  V30 34203 H 3459.83 -3.10994 -3.10128 0
M  V30 34204 H 3460.44 -3.92386 -1.64053 0
M  V30 34205 N 3458.75 0.300654 -1.54706 0
M  V30 34206 C 3459.98 1.05477 -1.77995 0
M  V30 34207 C 3460.4 1.80925 -0.539606 0
M  V30 34208 O 3459.75 1.75783 0.490566 0
M  V30 34209 C 3459.8 2.03505 -2.98777 0
M  V30 34210 O 3459.53 1.31118 -4.18019 0
M  V30 34211 C 3461.03 2.90952 -3.34458 0
M  V30 34212 H 3458.25 0.312794 -0.593634 0
M  V30 34213 H 3460.79 0.339822 -2.01657 0
M  V30 34214 H 3458.95 2.70501 -2.77323 0
M  V30 34215 H 3459.36 1.96955 -4.86116 0
M  V30 34216 H 3460.83 3.55586 -4.22212 0
M  V30 34217 H 3461.31 3.59271 -2.52628 0
M  V30 34218 H 3461.92 2.29486 -3.58073 0
M  V30 34219 N 3460.23 1.47168 0.563863 0
M  V30 34220 C 3461.46 1.57055 1.3469 0
M  V30 34221 C 3461.88 0.218341 1.87533 0
M  V30 34222 O 3461.23 -0.787387 1.6464 0
M  V30 34223 C 3461.28 2.59049 2.52143 0
M  V30 34224 O 3461 3.89018 2.01485 0
M  V30 34225 C 3462.51 2.79056 3.44445 0
M  V30 34226 H 3459.73 0.530541 0.410813 0
M  V30 34227 H 3462.27 1.92733 0.683697 0
M  V30 34228 H 3460.42 2.26323 3.14415 0
M  V30 34229 H 3460.84 4.44694 2.78114 0
M  V30 34230 H 3462.31 3.543 4.23291 0
M  V30 34231 H 3462.79 1.86638 3.97571 0
M  V30 34232 H 3463.4 3.12953 2.87994 0
M  V30 34233 N 3461.71 -0.810054 1.35188 0
M  V30 34234 C 3462.94 -1.59839 1.31374 0
M  V30 34235 C 3463.35 -1.88482 -0.109514 0
M  V30 34236 O 3462.71 -1.48529 -1.06045 0
M  V30 34237 C 3462.76 -2.93171 2.11502 0
M  V30 34238 O 3462.48 -2.65771 3.48277 0
M  V30 34239 C 3463.98 -3.87543 2.15233 0
M  V30 34240 H 3461.2 -0.496433 0.451437 0
M  V30 34241 H 3463.75 -1.00694 1.77992 0
M  V30 34242 H 3461.9 -3.4884 1.68493 0
M  V30 34243 H 3462.32 -3.50879 3.89851 0
M  V30 34244 H 3463.79 -4.78222 2.75696 0
M  V30 34245 H 3464.27 -4.23873 1.15015 0
M  V30 34246 H 3464.87 -3.3781 2.58388 0
M  V30 34247 N 3463.19 -1.19129 -1.0318 0
M  V30 34248 C 3464.43 -0.993594 -1.76792 0
M  V30 34249 C 3464.77 0.474776 -1.88307 0
M  V30 34250 O 3464.04 1.35256 -1.39771 0
M  V30 34251 C 3464.33 -1.65973 -3.1957 0
M  V30 34252 C 3464.18 -3.20155 -3.15944 0
M  V30 34253 C 3465.5 -1.38031 -4.17894 0
M  V30 34254 H 3462.62 -0.362369 -0.641762 0
M  V30 34255 H 3465.26 -1.46926 -1.20469 0
M  V30 34256 H 3463.41 -1.2553 -3.67661 0
M  V30 34257 H 3465.08 -3.69792 -2.75774 0
M  V30 34258 H 3463.32 -3.51852 -2.53737 0
M  V30 34259 H 3463.99 -3.61909 -4.16805 0
M  V30 34260 H 3466.47 -1.73089 -3.78391 0
M  V30 34261 H 3465.35 -1.87195 -5.15994 0
M  V30 34262 H 3465.61 -0.304889 -4.41047 0
M  V30 34263 N 3464.67 1.2224 -0.994741 0
M  V30 34264 C 3465.89 1.95051 -0.690131 0
M  V30 34265 C 3466.31 1.73458 0.745512 0
M  V30 34266 O 3465.67 1.03479 1.50327 0
M  V30 34267 C 3465.72 3.47712 -0.988859 0
M  V30 34268 O 3465.44 3.68582 -2.36809 0
M  V30 34269 C 3466.94 4.37703 -0.702209 0
M  V30 34270 H 3464.16 0.620595 -0.255153 0
M  V30 34271 H 3466.7 1.55341 -1.33001 0
M  V30 34272 H 3464.86 3.85384 -0.394752 0
M  V30 34273 H 3465.27 4.62765 -2.46878 0
M  V30 34274 H 3466.75 5.43562 -0.961484 0
M  V30 34275 H 3467.22 4.37691 0.363789 0
M  V30 34276 H 3467.83 4.05662 -1.27745 0
M  V30 34277 N 3466.14 0.768172 1.37611 0
M  V30 34278 C 3467.56 0.396735 1.82436 0
M  V30 34279 C 3467.91 -1.07665 1.64021 0
M  V30 34280 O 3467.03 -1.83354 1.14935 0
M  V30 34281 C 3467.63 0.713323 3.31206 0
M  V30 34282 C 3466.19 0.394986 3.74322 0
M  V30 34283 C 3465.33 0.959008 2.60189 0
M  V30 34284 H 3468.28 0.963121 1.26134 0
M  V30 34285 H 3468.3 -0.0033054 3.805 0
M  V30 34286 H 3467.82 1.78573 3.44577 0
M  V30 34287 H 3465.92 -0.670248 3.66522 0
M  V30 34288 H 3466.03 0.900736 4.70557 0
M  V30 34289 H 3464.39 0.383468 2.51797 0
M  V30 34290 H 3465.18 2.03674 2.76354 0
M  V30 34291 N 3467.62 -1.48829 0.518419 0
M  V30 34292 C 3468.85 -2.06894 -0.0161636 0
M  V30 34293 C 3469.27 -1.37651 -1.29219 0
M  V30 34294 O 3468.62 -0.46032 -1.76599 0
M  V30 34295 C 3468.67 -3.60594 -0.255773 0
M  V30 34296 O 3468.39 -4.27234 0.969688 0
M  V30 34297 C 3469.9 -4.35422 -0.832041 0
M  V30 34298 H 3467.12 -0.670403 0.0282995 0
M  V30 34299 H 3469.66 -1.91377 0.72076 0
M  V30 34300 H 3467.81 -3.75755 -0.942716 0
M  V30 34301 H 3468.23 -5.19207 0.743264 0
M  V30 34302 H 3469.7 -5.43778 -0.949183 0
M  V30 34303 H 3470.18 -3.99069 -1.83414 0
M  V30 34304 H 3470.79 -4.2491 -0.182025 0
M  V30 34305 N 3469.1 -0.253021 -1.55556 0
M  V30 34306 C 3470.51 0.248979 -1.85032 0
M  V30 34307 C 3470.86 1.57132 -1.17491 0
M  V30 34308 O 3469.99 2.11553 -0.455424 0
M  V30 34309 C 3470.58 0.45853 -3.35683 0
M  V30 34310 C 3469.14 0.904786 -3.65364 0
M  V30 34311 C 3468.29 -0.0145414 -2.77296 0
M  V30 34312 H 3471.24 -0.475421 -1.51411 0
M  V30 34313 H 3471.26 1.30028 -3.57593 0
M  V30 34314 H 3470.77 -0.504049 -3.84813 0
M  V30 34315 H 3468.87 1.87962 -3.21716 0
M  V30 34316 H 3468.99 0.757409 -4.73075 0
M  V30 34317 H 3467.35 0.49791 -2.49786 0
M  V30 34318 H 3468.13 -0.972604 -3.29234 0
M  V30 34319 N 3470.58 1.57587 0.0200142 0
M  V30 34320 C 3471.81 1.93949 0.720522 0
M  V30 34321 C 3472.22 0.853528 1.68405 0
M  V30 34322 O 3471.58 -0.169305 1.81713 0
M  V30 34323 C 3471.63 3.30273 1.46976 0
M  V30 34324 O 3471.35 4.34698 0.544895 0
M  V30 34325 C 3472.85 3.80972 2.2666 0
M  V30 34326 H 3470.07 0.63989 0.201945 0
M  V30 34327 H 3472.62 2.04485 -0.0251534 0
M  V30 34328 H 3470.77 3.21107 2.16724 0
M  V30 34329 H 3471.18 5.13443 1.0713 0
M  V30 34330 H 3472.66 4.78844 2.74613 0
M  V30 34331 H 3473.14 3.12635 3.08474 0
M  V30 34332 H 3473.74 3.93251 1.61969 0
M  V30 34333 N 3472.06 -0.292445 1.54863 0
M  V30 34334 C 3473.47 -0.864862 1.6546 0
M  V30 34335 C 3473.82 -1.87773 0.568841 0
M  V30 34336 O 3472.94 -2.14406 -0.29307 0
M  V30 34337 C 3473.54 -1.57545 2.99942 0
M  V30 34338 C 3472.1 -2.09615 3.12631 0
M  V30 34339 C 3471.24 -0.931667 2.61181 0
M  V30 34340 H 3474.2 -0.0692401 1.58549 0
M  V30 34341 H 3474.22 -2.44147 2.91844 0
M  V30 34342 H 3473.73 -0.838021 3.78944 0
M  V30 34343 H 3471.83 -2.86379 2.38365 0
M  V30 34344 H 3471.94 -2.32481 4.18915 0
M  V30 34345 H 3470.31 -1.31963 2.17848 0
M  V30 34346 H 3471.09 -0.208061 3.42669 0
M  V30 34347 N 3473.53 -1.47465 -0.55605 0
M  V30 34348 C 3474.76 -1.57767 -1.33855 0
M  V30 34349 C 3475.18 -0.228283 -1.87415 0
M  V30 34350 O 3474.53 0.778645 -1.65056 0
M  V30 34351 C 3474.59 -2.60382 -2.50766 0
M  V30 34352 O 3474.31 -3.90081 -1.99419 0
M  V30 34353 C 3475.81 -2.80879 -3.42961 0
M  V30 34354 H 3473.03 -0.532712 -0.407994 0
M  V30 34355 H 3475.57 -1.93092 -0.673467 0
M  V30 34356 H 3473.73 -2.27987 -3.1321 0
M  V30 34357 H 3474.14 -4.46163 -2.75752 0
M  V30 34358 H 3475.61 -3.5654 -4.21406 0
M  V30 34359 H 3476.09 -1.88744 -3.96576 0
M  V30 34360 H 3476.7 -3.14476 -2.86331 0
M  V30 34361 N 3475.01 0.802873 -1.35616 0
M  V30 34362 C 3476.26 1.55706 -1.28841 0
M  V30 34363 C 3476.58 1.94526 0.135872 0
M  V30 34364 O 3475.85 1.63892 1.07314 0
M  V30 34365 H 3474.43 0.577419 -0.473916 0
M  V30 34366 H 3477.09 0.957457 -1.69761 0
M  V30 34367 H 3476.19 2.47079 -1.90679 0
M  V30 34368 N 3476.49 1.19674 1.02547 0
M  V30 34369 C 3477.72 1.02683 1.79621 0
M  V30 34370 C 3478.13 -0.424313 1.8397 0
M  V30 34371 O 3477.49 -1.2947 1.28623 0
M  V30 34372 C 3477.54 1.59295 3.24511 0
M  V30 34373 O 3477.26 2.98729 3.20457 0
M  V30 34374 C 3478.76 1.47133 4.18171 0
M  V30 34375 H 3475.98 0.36171 0.565161 0
M  V30 34376 H 3478.53 1.58566 1.2914 0
M  V30 34377 H 3476.68 1.07552 3.72171 0
M  V30 34378 H 3477.1 3.25428 4.11335 0
M  V30 34379 H 3478.57 1.91519 5.17711 0
M  V30 34380 H 3479.05 0.422392 4.37164 0
M  V30 34381 H 3479.65 1.98023 3.76387 0
M  V30 34382 N 3477.97 -1.21711 1.00121 0
M  V30 34383 C 3478.9 -2.23301 0.516672 0
M  V30 34384 C 3479.91 -1.57993 -0.392705 0
M  V30 34385 O 3481.1 -1.77448 -0.193509 0
M  V30 34386 C 3478.2 -3.37826 -0.269553 0
M  V30 34387 C 3477.38 -4.32722 0.637974 0
M  V30 34388 C 3476.44 -5.26109 -0.097982 0
M  V30 34389 O 3475.46 -5.66825 0.519401 0
M  V30 34390 N 3476.66 -5.63914 -1.37773 0
M  V30 34391 H 3479.43 -2.65502 1.39027 0
M  V30 34392 H 3476.99 -1.36096 0.876903 0
M  V30 34393 H 3478.98 -3.97293 -0.770756 0
M  V30 34394 H 3477.55 -2.9464 -1.04431 0
M  V30 34395 H 3476.77 -3.71452 1.31973 0
M  V30 34396 H 3478.06 -4.93061 1.25573 0
M  V30 34397 H 3477.46 -5.3282 -1.90051 0
M  V30 34398 H 3476.01 -6.25759 -1.82396 0
M  V30 34399 N 3479.45 -0.775459 -1.37202 0
M  V30 34400 C 3480.68 -0.352963 -2.03867 0
M  V30 34401 C 3481.09 1.02607 -1.58484 0
M  V30 34402 O 3480.45 1.65563 -0.767801 0
M  V30 34403 C 3480.5 -0.391223 -3.59377 0
M  V30 34404 O 3480.22 -1.71586 -4.031 0
M  V30 34405 C 3481.72 0.0424029 -4.4328 0
M  V30 34406 H 3478.94 -0.147371 -0.654616 0
M  V30 34407 H 3481.48 -1.05042 -1.75461 0
M  V30 34408 H 3479.64 0.257684 -3.86542 0
M  V30 34409 H 3480.05 -1.65704 -4.97637 0
M  V30 34410 H 3481.53 -0.0355186 -5.51989 0
M  V30 34411 H 3482 1.09326 -4.25376 0
M  V30 34412 H 3482.61 -0.578458 -4.21348 0
M  V30 34413 N 3480.93 1.48552 -0.526305 0
M  V30 34414 C 3482.34 1.86507 -0.0849022 0
M  V30 34415 C 3482.69 1.43623 1.33667 0
M  V30 34416 O 3481.81 0.825303 2.00044 0
M  V30 34417 C 3482.41 3.3848 -0.147301 0
M  V30 34418 C 3480.97 3.75641 0.238888 0
M  V30 34419 C 3480.11 2.72594 -0.508696 0
M  V30 34420 H 3483.06 1.40509 -0.737753 0
M  V30 34421 H 3483.09 3.75047 0.641898 0
M  V30 34422 H 3482.6 3.69661 -1.18205 0
M  V30 34423 H 3480.7 3.50073 1.27592 0
M  V30 34424 H 3480.81 4.78999 -0.098165 0
M  V30 34425 H 3479.18 2.54661 0.0445934 0
M  V30 34426 H 3479.96 3.06619 -1.54401 0
M  V30 34427 N 3482.4 0.261267 1.55419 0
M  V30 34428 C 3483.63 -0.363189 2.03687 0
M  V30 34429 C 3484.05 -1.5049 1.1401 0
M  V30 34430 O 3483.4 -1.8182 0.157381 0
M  V30 34431 C 3483.45 -0.857373 3.51186 0
M  V30 34432 O 3483.18 0.238853 4.37448 0
M  V30 34433 C 3484.68 -1.55106 4.15279 0
M  V30 34434 H 3481.9 -0.0846239 0.665642 0
M  V30 34435 H 3484.44 0.389323 2.0076 0
M  V30 34436 H 3482.6 -1.56002 3.54601 0
M  V30 34437 H 3483.01 -0.138729 5.24317 0
M  V30 34438 H 3484.48 -1.84841 5.20133 0
M  V30 34439 H 3484.96 -2.47793 3.62623 0
M  V30 34440 H 3485.57 -0.892622 4.15827 0
M  V30 34441 N 3483.88 -1.57596 -0.0116567 0
M  V30 34442 C 3485.11 -1.94328 -0.710226 0
M  V30 34443 C 3485.52 -0.862447 -1.6795 0
M  V30 34444 O 3484.88 0.159666 -1.818 0
M  V30 34445 C 3484.93 -3.31048 -1.45222 0
M  V30 34446 O 3484.65 -4.34981 -0.521834 0
M  V30 34447 C 3486.15 -3.82169 -2.24637 0
M  V30 34448 H 3483.37 -0.640952 -0.198548 0
M  V30 34449 H 3485.92 -2.04468 0.0359974 0
M  V30 34450 H 3484.07 -3.22252 -2.15018 0
M  V30 34451 H 3484.49 -5.14004 -1.04406 0
M  V30 34452 H 3485.96 -4.80294 -2.7207 0
M  V30 34453 H 3486.44 -3.14266 -3.06812 0
M  V30 34454 H 3487.04 -3.94104 -1.59882 0
M  V30 34455 N 3485.36 0.284228 -1.55016 0
M  V30 34456 C 3486.59 1.03583 -1.79104 0
M  V30 34457 C 3487 1.80342 -0.558765 0
M  V30 34458 O 3486.36 1.76294 0.471894 0
M  V30 34459 C 3486.41 2.00325 -3.00919 0
M  V30 34460 O 3486.13 1.26677 -4.19386 0
M  V30 34461 C 3487.63 2.87388 -3.37525 0
M  V30 34462 H 3484.85 0.30648 -0.596918 0
M  V30 34463 H 3487.4 0.318415 -2.02006 0
M  V30 34464 H 3485.55 2.67545 -2.80176 0
M  V30 34465 H 3485.97 1.91788 -4.88178 0
M  V30 34466 H 3487.44 3.51088 -4.2596 0
M  V30 34467 H 3487.92 3.56571 -2.56425 0
M  V30 34468 H 3488.52 2.25676 -3.60487 0
M  V30 34469 N 3486.84 1.47758 0.548222 0
M  V30 34470 C 3488.25 1.48597 1.1303 0
M  V30 34471 C 3488.6 0.24561 1.94657 0
M  V30 34472 O 3487.72 -0.648776 2.06446 0
M  V30 34473 C 3488.32 2.69244 2.05653 0
M  V30 34474 C 3486.88 2.73014 2.59115 0
M  V30 34475 C 3486.03 2.41838 1.35682 0
M  V30 34476 H 3488.98 1.55138 0.33437 0
M  V30 34477 H 3489 2.46725 2.89667 0
M  V30 34478 H 3488.51 3.59503 1.46216 0
M  V30 34479 H 3486.61 1.86917 3.22324 0
M  V30 34480 H 3486.72 3.73952 2.99494 0
M  V30 34481 H 3485.09 1.92609 1.66655 0
M  V30 34482 H 3485.87 3.34316 0.780253 0
M  V30 34483 N 3488.32 -0.79567 1.3604 0
M  V30 34484 C 3489.56 -1.54843 1.29254 0
M  V30 34485 C 3489.88 -1.95181 -0.127892 0
M  V30 34486 O 3491.08 -2.6963 -0.318093 0
M  V30 34487 C 3489.54 -2.79493 2.26741 0
M  V30 34488 C 3489.15 -2.46349 3.74187 0
M  V30 34489 C 3490.89 -3.57486 2.2892 0
M  V30 34490 C 3488.8 -3.67357 4.63469 0
M  V30 34491 H 3487.73 -0.581246 0.48028 0
M  V30 34492 H 3490.38 -0.873664 1.61367 0
M  V30 34493 H 3488.76 -3.48736 1.87614 0
M  V30 34494 H 3489.94 -1.85042 4.22014 0
M  V30 34495 H 3488.25 -1.8158 3.74724 0
M  V30 34496 H 3490.85 -4.47383 2.92836 0
M  V30 34497 H 3491.19 -3.95614 1.29597 0
M  V30 34498 H 3491.72 -2.95215 2.66632 0
M  V30 34499 H 3488.46 -3.34329 5.6383 0
M  V30 34500 H 3487.98 -4.27851 4.20361 0
M  V30 34501 H 3489.66 -4.34459 4.79432 0
M  V30 34502 N 3489.79 -1.20217 -1.0191 0
M  V30 34503 C 3491.02 -1.03634 -1.79074 0
M  V30 34504 C 3491.44 0.41455 -1.84193 0
M  V30 34505 O 3490.79 1.28786 -1.29308 0
M  V30 34506 C 3490.85 -1.61013 -3.23662 0
M  V30 34507 O 3490.57 -3.00424 -3.18868 0
M  V30 34508 C 3492.07 -1.49349 -4.17384 0
M  V30 34509 H 3489.29 -0.364702 -0.563235 0
M  V30 34510 H 3491.83 -1.59249 -1.28297 0
M  V30 34511 H 3489.99 -1.09524 -3.71595 0
M  V30 34512 H 3490.4 -3.27605 -4.09604 0
M  V30 34513 H 3491.87 -1.94262 -5.16688 0
M  V30 34514 H 3492.35 -0.44557 -4.36934 0
M  V30 34515 H 3492.96 -2.00017 -3.75331 0
M  V30 34516 N 3491.27 1.21178 -1.00765 0
M  V30 34517 C 3492.5 1.94308 -0.71078 0
M  V30 34518 C 3492.92 1.74239 0.727073 0
M  V30 34519 O 3492.27 1.05068 1.49221 0
M  V30 34520 C 3492.32 3.46644 -1.02568 0
M  V30 34521 O 3492.04 3.6605 -2.40705 0
M  V30 34522 C 3493.55 4.36934 -0.748594 0
M  V30 34523 H 3490.77 0.617854 -0.261721 0
M  V30 34524 H 3493.31 1.53922 -1.34641 0
M  V30 34525 H 3491.46 3.84943 -0.435605 0
M  V30 34526 H 3491.88 4.60121 -2.51772 0
M  V30 34527 H 3493.35 5.42511 -1.01908 0
M  V30 34528 H 3493.83 4.38052 0.317346 0
M  V30 34529 H 3494.44 4.04284 -1.3204 0
M  V30 34530 N 3492.75 0.782725 1.36789 0
M  V30 34531 C 3493.98 0.36377 2.03677 0
M  V30 34532 C 3494.39 -1.01765 1.59026 0
M  V30 34533 O 3493.75 -1.65153 0.77657 0
M  V30 34534 C 3493.8 0.410276 3.59164 0
M  V30 34535 O 3493.52 1.73721 4.02185 0
M  V30 34536 C 3495.02 -0.0188941 4.43296 0
M  V30 34537 H 3492.24 0.150841 0.653826 0
M  V30 34538 H 3494.79 1.05971 1.74901 0
M  V30 34539 H 3492.94 -0.237181 3.86673 0
M  V30 34540 H 3493.36 1.68341 4.96751 0
M  V30 34541 H 3494.83 0.0647914 5.51962 0
M  V30 34542 H 3495.31 -1.07068 4.2595 0
M  V30 34543 H 3495.91 0.600795 4.21035 0
M  V30 34544 N 3494.23 -1.48271 0.534176 0
M  V30 34545 C 3495.46 -2.06899 0.00578112 0
M  V30 34546 C 3495.87 -1.39014 -1.27752 0
M  V30 34547 O 3495.23 -0.479024 -1.76101 0
M  V30 34548 C 3495.28 -3.60845 -0.217513 0
M  V30 34549 O 3495 -4.26181 1.01495 0
M  V30 34550 C 3496.5 -4.3628 -0.785812 0
M  V30 34551 H 3493.72 -0.670065 0.0354084 0
M  V30 34552 H 3496.27 -1.90602 0.741017 0
M  V30 34553 H 3494.42 -3.76733 -0.902809 0
M  V30 34554 H 3494.83 -5.18389 0.798291 0
M  V30 34555 H 3496.31 -5.44754 -0.891455 0
M  V30 34556 H 3496.79 -4.00992 -1.79171 0
M  V30 34557 H 3497.39 -4.25079 -0.136948 0
M  V30 34558 N 3495.71 -0.269505 -1.55279 0
M  V30 34559 C 3496.93 0.352382 -2.03877 0
M  V30 34560 C 3497.35 1.49883 -1.14807 0
M  V30 34561 O 3496.71 1.81734 -0.167021 0
M  V30 34562 C 3496.76 0.838737 -3.51635 0
M  V30 34563 O 3496.48 -0.262048 -4.37316 0
M  V30 34564 C 3497.98 1.52901 -4.16096 0
M  V30 34565 H 3495.2 0.0810926 -0.666082 0
M  V30 34566 H 3497.74 -0.399964 -2.00551 0
M  V30 34567 H 3495.9 1.54119 -3.55424 0
M  V30 34568 H 3496.31 0.110921 -5.24383 0
M  V30 34569 H 3497.79 1.8208 -5.21106 0
M  V30 34570 H 3498.26 2.45866 -3.63932 0
M  V30 34571 H 3498.87 0.870557 -4.16295 0
M  V30 34572 N 3497.18 1.576 0.00329885 0
M  V30 34573 C 3498.43 1.90706 0.689856 0
M  V30 34574 C 3498.76 0.870322 1.73606 0
M  V30 34575 O 3498.04 -0.111381 1.94181 0
M  V30 34576 C 3498.32 3.344 1.336 0
M  V30 34577 C 3498.17 4.48788 0.301559 0
M  V30 34578 C 3499.49 3.77457 2.26306 0
M  V30 34579 H 3496.61 0.693549 0.249316 0
M  V30 34580 H 3499.25 1.89941 -0.0473181 0
M  V30 34581 H 3497.4 3.35182 1.96431 0
M  V30 34582 H 3499.08 4.60141 -0.326819 0
M  V30 34583 H 3497.32 4.32163 -0.376527 0
M  V30 34584 H 3497.99 5.46279 0.792645 0
M  V30 34585 H 3500.47 3.78204 1.73495 0
M  V30 34586 H 3499.34 4.78756 2.68484 0
M  V30 34587 H 3499.6 3.11141 3.14076 0
M  V30 34588 N 3498.66 -0.276003 1.55164 0
M  V30 34589 C 3499.89 -1.02632 1.79651 0
M  V30 34590 C 3500.31 -1.80043 0.568321 0
M  V30 34591 O 3499.66 -1.76541 -0.462538 0
M  V30 34592 C 3499.71 -1.98726 3.01977 0
M  V30 34593 O 3499.43 -1.24451 4.20052 0
M  V30 34594 C 3500.94 -2.85594 3.39044 0
M  V30 34595 H 3498.16 -0.30331 0.598535 0
M  V30 34596 H 3500.7 -0.307697 2.02172 0
M  V30 34597 H 3498.85 -2.66055 2.81591 0
M  V30 34598 H 3499.27 -1.89196 4.89188 0
M  V30 34599 H 3500.74 -3.48824 4.27815 0
M  V30 34600 H 3501.22 -3.55206 2.58312 0
M  V30 34601 H 3501.83 -2.23761 3.61678 0
M  V30 34602 N 3500.14 -1.48046 -0.540378 0
M  V30 34603 C 3501.55 -1.49194 -1.12241 0
M  V30 34604 C 3501.9 -0.255929 -1.94524 0
M  V30 34605 O 3501.03 0.637819 -2.06787 0
M  V30 34606 C 3501.62 -2.70331 -2.04222 0
M  V30 34607 C 3500.18 -2.74384 -2.57663 0
M  V30 34608 C 3499.33 -2.42554 -1.34398 0
M  V30 34609 H 3502.28 -1.55313 -0.326138 0
M  V30 34610 H 3502.3 -2.48258 -2.88354 0
M  V30 34611 H 3501.81 -3.60273 -1.44308 0
M  V30 34612 H 3499.91 -1.88624 -3.21328 0
M  V30 34613 H 3500.03 -3.75535 -2.97507 0
M  V30 34614 H 3498.39 -1.9349 -1.65632 0
M  V30 34615 H 3499.17 -3.34725 -0.762512 0
M  V30 34616 N 3501.62 0.788444 -1.3646 0
M  V30 34617 C 3502.85 1.57729 -1.339 0
M  V30 34618 C 3503.26 1.88632 0.0795139 0
M  V30 34619 O 3502.62 1.50197 1.03668 0
M  V30 34620 C 3502.67 2.89769 -2.16139 0
M  V30 34621 O 3502.39 2.60197 -3.52462 0
M  V30 34622 C 3503.89 3.8407 -2.21371 0
M  V30 34623 H 3501.11 0.489189 -0.459277 0
M  V30 34624 H 3503.66 0.978494 -1.79571 0
M  V30 34625 H 3501.81 3.46115 -1.74021 0
M  V30 34626 H 3502.22 3.44633 -3.95384 0
M  V30 34627 H 3503.7 4.73775 -2.83269 0
M  V30 34628 H 3504.18 4.2199 -1.21743 0
M  V30 34629 H 3504.78 3.33657 -2.63729 0
M  V30 34630 N 3503.1 1.20755 1.01271 0
M  V30 34631 C 3504.51 1.01992 1.56379 0
M  V30 34632 C 3504.86 -0.422558 1.91596 0
M  V30 34633 O 3503.98 -1.30457 1.72655 0
M  V30 34634 C 3504.58 1.84515 2.84147 0
M  V30 34635 C 3503.14 1.70107 3.35769 0
M  V30 34636 C 3502.28 1.82206 2.09036 0
M  V30 34637 H 3505.24 1.3489 0.836081 0
M  V30 34638 H 3505.26 1.35083 3.55715 0
M  V30 34639 H 3504.77 2.89495 2.58485 0
M  V30 34640 H 3502.87 0.677796 3.66383 0
M  V30 34641 H 3502.98 2.51614 4.07709 0
M  V30 34642 H 3501.35 1.25433 2.21673 0
M  V30 34643 H 3502.13 2.88678 1.85795 0
M  V30 34644 N 3504.58 -1.20642 1.01406 0
M  V30 34645 C 3505.8 -1.93928 0.721075 0
M  V30 34646 C 3506.22 -1.74622 -0.717822 0
M  V30 34647 O 3505.58 -1.05858 -1.48662 0
M  V30 34648 C 3505.63 -3.46095 1.04405 0
M  V30 34649 O 3505.35 -3.64768 2.42643 0
M  V30 34650 C 3506.85 -4.3653 0.771755 0
M  V30 34651 H 3504.07 -0.616457 0.264994 0
M  V30 34652 H 3506.61 -1.53206 1.35456 0
M  V30 34653 H 3504.77 -3.84707 0.456013 0
M  V30 34654 H 3505.18 -4.58779 2.54209 0
M  V30 34655 H 3506.66 -5.41963 1.04784 0
M  V30 34656 H 3507.13 -4.38214 -0.294111 0
M  V30 34657 H 3507.74 -4.03578 1.34183 0
M  V30 34658 N 3506.05 -0.789968 -1.36372 0
M  V30 34659 C 3507.46 -0.425709 -1.81782 0
M  V30 34660 C 3507.82 1.05042 -1.65713 0
M  V30 34661 O 3506.94 1.81503 -1.17838 0
M  V30 34662 C 3507.54 -0.765924 -3.30029 0
M  V30 34663 C 3506.09 -0.454487 -3.73646 0
M  V30 34664 C 3505.24 -1.00028 -2.5863 0
M  V30 34665 H 3508.19 -0.983066 -1.24585 0
M  V30 34666 H 3508.21 -0.0572292 -3.80457 0
M  V30 34667 H 3507.73 -1.84032 -3.41692 0
M  V30 34668 H 3505.83 0.611853 -3.67542 0
M  V30 34669 H 3505.94 -0.975483 -4.69064 0
M  V30 34670 H 3504.3 -0.423478 -2.51155 0
M  V30 34671 H 3505.09 -2.08045 -2.73079 0
M  V30 34672 N 3507.53 1.47986 -0.542031 0
M  V30 34673 C 3508.76 2.06893 -0.0167534 0
M  V30 34674 C 3509.17 1.3969 1.27013 0
M  V30 34675 O 3508.53 0.488357 1.75845 0
M  V30 34676 C 3508.58 3.60955 0.198373 0
M  V30 34677 O 3508.3 4.25637 -1.03753 0
M  V30 34678 C 3509.8 4.3669 0.762664 0
M  V30 34679 H 3507.02 0.669868 -0.0389614 0
M  V30 34680 H 3509.57 1.90206 -0.751115 0
M  V30 34681 H 3507.72 3.77207 0.882817 0
M  V30 34682 H 3508.14 5.17959 -0.825771 0
M  V30 34683 H 3509.61 5.45219 0.862553 0
M  V30 34684 H 3510.09 4.01936 1.77042 0
M  V30 34685 H 3510.69 4.25146 0.114403 0
M  V30 34686 N 3509.01 0.277736 1.55133 0
M  V30 34687 C 3510.26 -0.337627 1.9926 0
M  V30 34688 C 3510.58 -1.56181 1.16758 0
M  V30 34689 O 3509.85 -1.94197 0.257741 0
M  V30 34690 H 3508.43 -0.127738 0.735997 0
M  V30 34691 H 3511.09 0.383679 1.91086 0
M  V30 34692 H 3510.19 -0.625693 3.05764 0
M  V30 34693 N 3510.49 -1.57599 0.00505908 0
M  V30 34694 C 3511.72 -1.9507 -0.689575 0
M  V30 34695 C 3512.13 -0.880212 -1.67026 0
M  V30 34696 O 3511.49 0.140375 -1.81959 0
M  V30 34697 C 3511.54 -3.3257 -1.41703 0
M  V30 34698 O 3511.26 -4.3551 -0.475669 0
M  V30 34699 C 3512.76 -3.8453 -2.20571 0
M  V30 34700 H 3509.98 -0.643022 -0.191739 0
M  V30 34701 H 3512.52 -2.04419 0.057682 0
M  V30 34702 H 3510.68 -3.24514 -2.11588 0
M  V30 34703 H 3511.09 -5.15082 -0.989483 0
M  V30 34704 H 3512.57 -4.83152 -2.6696 0
M  V30 34705 H 3513.04 -3.17503 -3.03461 0
M  V30 34706 H 3513.65 -3.95778 -1.55693 0
M  V30 34707 N 3511.97 0.267771 -1.55309 0
M  V30 34708 C 3512.9 1.35353 -1.84966 0
M  V30 34709 C 3513.91 1.4529 -0.734486 0
M  V30 34710 O 3515.1 1.47013 -1.01239 0
M  V30 34711 C 3512.2 2.73428 -2.00226 0
M  V30 34712 C 3511.37 2.86018 -3.30927 0
M  V30 34713 C 3510.43 4.04802 -3.36187 0
M  V30 34714 O 3509.46 3.95313 -4.09532 0
M  V30 34715 N 3510.66 5.17012 -2.63968 0
M  V30 34716 H 3513.42 1.10255 -2.78682 0
M  V30 34717 H 3510.99 0.457887 -1.5529 0
M  V30 34718 H 3512.98 3.51194 -2.01109 0
M  V30 34719 H 3511.55 2.91325 -1.13351 0
M  V30 34720 H 3510.77 1.95094 -3.42537 0
M  V30 34721 H 3512.06 2.91364 -4.17115 0
M  V30 34722 H 3511.45 5.27609 -2.04071 0
M  V30 34723 H 3510.01 5.92989 -2.70568 0
M  V30 34724 N 3513.44 1.48331 0.532519 0
M  V30 34725 C 3514.67 1.59876 1.31329 0
M  V30 34726 C 3515.09 0.25807 1.87028 0
M  V30 34727 O 3514.44 -0.752287 1.66274 0
M  V30 34728 C 3514.49 2.64339 2.46591 0
M  V30 34729 O 3514.22 3.93205 1.93188 0
M  V30 34730 C 3515.72 2.863 3.38449 0
M  V30 34731 H 3512.94 0.539136 0.399467 0
M  V30 34732 H 3515.48 1.94139 0.642662 0
M  V30 34733 H 3513.64 2.32941 3.09544 0
M  V30 34734 H 3514.05 4.50493 2.68619 0
M  V30 34735 H 3515.52 3.63199 4.15681 0
M  V30 34736 H 3516 1.95029 3.93523 0
M  V30 34737 H 3516.61 3.18991 2.81291 0
M  V30 34738 N 3514.92 -0.781196 1.36876 0
M  V30 34739 C 3516.33 -1.3569 1.28239 0
M  V30 34740 C 3516.68 -1.9606 -0.0741942 0
M  V30 34741 O 3515.81 -1.93148 -0.975847 0
M  V30 34742 C 3516.4 -2.46698 2.32219 0
M  V30 34743 C 3514.96 -3.00061 2.27245 0
M  V30 34744 C 3514.11 -1.73202 2.16556 0
M  V30 34745 H 3517.06 -0.582191 1.47635 0
M  V30 34746 H 3517.08 -3.25932 1.96338 0
M  V30 34747 H 3516.59 -2.02729 3.30942 0
M  V30 34748 H 3514.69 -3.48429 1.32016 0
M  V30 34749 H 3514.81 -3.56317 3.20273 0
M  V30 34750 H 3513.17 -1.95758 1.62945 0
M  V30 34751 H 3513.95 -1.3135 3.17178 0
M  V30 34752 N 3516.4 -1.21291 -1.0063 0
M  V30 34753 C 3517.63 -1.05527 -1.77965 0
M  V30 34754 C 3518.04 0.394991 -1.84622 0
M  V30 34755 O 3517.4 1.27407 -1.30667 0
M  V30 34756 C 3517.45 -1.64437 -3.21936 0
M  V30 34757 O 3517.17 -3.03789 -3.15664 0
M  V30 34758 C 3518.67 -1.53767 -4.15777 0
M  V30 34759 H 3515.89 -0.370655 -0.559335 0
M  V30 34760 H 3518.44 -1.606 -1.26601 0
M  V30 34761 H 3516.59 -1.1346 -3.70413 0
M  V30 34762 H 3517.01 -3.31931 -4.06106 0
M  V30 34763 H 3518.48 -1.99731 -5.14598 0
M  V30 34764 H 3518.96 -0.491888 -4.36437 0
M  V30 34765 H 3519.56 -2.03986 -3.73189 0
M  V30 34766 N 3517.88 1.20103 -1.02045 0
M  V30 34767 C 3519.11 1.93543 -0.731349 0
M  V30 34768 C 3519.52 1.75 0.708552 0
M  V30 34769 O 3518.88 1.06645 1.48098 0
M  V30 34770 C 3518.93 3.45537 -1.06239 0
M  V30 34771 O 3518.65 3.63476 -2.44574 0
M  V30 34772 C 3520.15 4.36115 -0.794894 0
M  V30 34773 H 3517.37 0.615043 -0.268259 0
M  V30 34774 H 3519.91 1.52485 -1.36266 0
M  V30 34775 H 3518.07 3.84459 -0.476409 0
M  V30 34776 H 3518.48 4.57424 -2.56638 0
M  V30 34777 H 3519.96 5.414 -1.07657 0
M  V30 34778 H 3520.43 4.38364 0.270867 0
M  V30 34779 H 3521.04 4.02861 -1.36321 0
M  V30 34780 N 3519.36 0.797189 1.35951 0
M  V30 34781 C 3520.58 0.385352 2.0328 0
M  V30 34782 C 3521 -1.00073 1.60096 0
M  V30 34783 O 3520.36 -1.6432 0.794043 0
M  V30 34784 C 3520.41 0.448347 3.58709 0
M  V30 34785 O 3520.13 1.77977 4.00319 0
M  V30 34786 C 3521.63 0.0281244 4.43291 0
M  V30 34787 H 3518.85 0.157767 0.652189 0
M  V30 34788 H 3521.39 1.0782 1.73768 0
M  V30 34789 H 3519.55 -0.196156 3.86903 0
M  V30 34790 H 3519.96 1.736 4.94938 0
M  V30 34791 H 3521.44 0.123331 5.51862 0
M  V30 34792 H 3521.91 -1.02545 4.27061 0
M  V30 34793 H 3522.52 0.645417 4.20374 0
M  V30 34794 N 3520.83 -1.47696 0.549872 0
M  V30 34795 C 3522.25 -1.86348 0.114563 0
M  V30 34796 C 3522.6 -1.45731 -1.31365 0
M  V30 34797 O 3521.72 -0.857024 -1.98706 0
M  V30 34798 C 3522.32 -3.38202 0.201131 0
M  V30 34799 C 3520.88 -3.75974 -0.179096 0
M  V30 34800 C 3520.02 -2.7175 0.551999 0
M  V30 34801 H 3522.97 -1.39318 0.760014 0
M  V30 34802 H 3522.99 -3.7602 -0.58215 0
M  V30 34803 H 3522.51 -3.67734 1.24071 0
M  V30 34804 H 3520.61 -3.52059 -1.22006 0
M  V30 34805 H 3520.72 -4.78783 0.174357 0
M  V30 34806 H 3519.08 -2.547 -0.00407342 0
M  V30 34807 H 3519.87 -3.04124 1.59259 0
M  V30 34808 N 3522.31 -0.285959 -1.54984 0
M  V30 34809 C 3523.56 0.328398 -1.99009 0
M  V30 34810 C 3523.87 1.56156 -1.1779 0
M  V30 34811 O 3525.08 2.24956 -1.5201 0
M  V30 34812 C 3523.54 0.635626 -3.54243 0
M  V30 34813 C 3523.14 -0.578349 -4.44251 0
M  V30 34814 C 3524.89 1.21201 -4.0683 0
M  V30 34815 C 3522.8 -0.245107 -5.90892 0
M  V30 34816 H 3521.73 0.126481 -0.743316 0
M  V30 34817 H 3524.38 -0.392312 -1.79257 0
M  V30 34818 H 3522.76 1.41553 -3.69836 0
M  V30 34819 H 3523.93 -1.35496 -4.40429 0
M  V30 34820 H 3522.25 -1.07232 -4.02356 0
M  V30 34821 H 3524.84 1.47532 -5.13944 0
M  V30 34822 H 3525.19 2.14942 -3.56519 0
M  V30 34823 H 3525.72 0.494152 -3.94719 0
M  V30 34824 H 3522.46 -1.15068 -6.45321 0
M  V30 34825 H 3521.98 0.494531 -5.97758 0
M  V30 34826 H 3523.66 0.158777 -6.46805 0
M  V30 34827 N 3523.79 1.57594 -0.0134169 0
M  V30 34828 C 3525.02 1.95433 0.67922 0
M  V30 34829 C 3525.43 0.889058 1.66557 0
M  V30 34830 O 3524.79 -0.130723 1.82031 0
M  V30 34831 C 3524.84 3.33316 1.39937 0
M  V30 34832 O 3524.56 4.35756 0.452566 0
M  V30 34833 C 3526.06 3.85694 2.18528 0
M  V30 34834 H 3523.28 0.64403 0.188326 0
M  V30 34835 H 3525.83 2.04385 -0.068522 0
M  V30 34836 H 3523.98 3.25632 2.09864 0
M  V30 34837 H 3524.4 5.156 0.962153 0
M  V30 34838 H 3525.87 4.84561 2.64394 0
M  V30 34839 H 3526.35 3.19107 3.01773 0
M  V30 34840 H 3526.95 3.96598 1.53591 0
M  V30 34841 N 3525.27 -0.259531 1.55448 0
M  V30 34842 C 3526.5 -1.0072 1.80729 0
M  V30 34843 C 3526.91 -1.7943 0.587385 0
M  V30 34844 O 3526.27 -1.77022 -0.443788 0
M  V30 34845 C 3526.32 -1.95512 3.04068 0
M  V30 34846 O 3526.04 -1.19989 4.21348 0
M  V30 34847 C 3527.54 -2.81982 3.42054 0
M  V30 34848 H 3524.76 -0.296945 0.601718 0
M  V30 34849 H 3527.31 -0.286237 2.02487 0
M  V30 34850 H 3525.46 -2.63053 2.84397 0
M  V30 34851 H 3525.87 -1.83997 4.91167 0
M  V30 34852 H 3527.35 -3.44266 4.31491 0
M  V30 34853 H 3527.83 -3.52447 2.62065 0
M  V30 34854 H 3528.43 -2.19912 3.64031 0
M  V30 34855 N 3526.75 -1.48611 -0.524645 0
M  V30 34856 C 3527.97 -1.6057 -1.30479 0
M  V30 34857 C 3528.39 -0.267985 -1.86888 0
M  V30 34858 O 3527.75 0.743459 -1.6667 0
M  V30 34859 C 3527.8 -2.65643 -2.45186 0
M  V30 34860 O 3527.52 -3.94224 -1.911 0
M  V30 34861 C 3529.02 -2.8809 -3.36926 0
M  V30 34862 H 3526.24 -0.541246 -0.396602 0
M  V30 34863 H 3528.78 -1.94477 -0.632357 0
M  V30 34864 H 3526.94 -2.34579 -3.08304 0
M  V30 34865 H 3527.35 -4.51912 -2.66226 0
M  V30 34866 H 3528.83 -3.65398 -4.13749 0
M  V30 34867 H 3529.3 -1.97113 -3.92483 0
M  V30 34868 H 3529.91 -3.20478 -2.79596 0
M  V30 34869 N 3528.22 0.773926 -1.37289 0
M  V30 34870 C 3529.45 1.56299 -1.35566 0
M  V30 34871 C 3529.87 1.88706 0.0595024 0
M  V30 34872 O 3529.22 1.51288 1.02069 0
M  V30 34873 C 3529.28 2.8746 -2.192 0
M  V30 34874 O 3529 2.56444 -3.55201 0
M  V30 34875 C 3530.5 3.817 -2.25432 0
M  V30 34876 H 3527.72 0.48429 -0.46444 0
M  V30 34877 H 3530.26 0.959393 -1.80599 0
M  V30 34878 H 3528.42 3.4425 -1.77682 0
M  V30 34879 H 3528.83 3.4042 -3.99017 0
M  V30 34880 H 3530.3 4.70744 -2.88278 0
M  V30 34881 H 3530.78 4.20675 -1.26212 0
M  V30 34882 H 3531.39 3.30841 -2.67253 0
M  V30 34883 N 3529.7 1.21823 0.99985 0
M  V30 34884 C 3530.93 1.0647 1.77403 0
M  V30 34885 C 3531.35 -0.385194 1.84829 0
M  V30 34886 O 3530.7 -1.26712 1.3134 0
M  V30 34887 C 3530.75 1.66142 3.21059 0
M  V30 34888 O 3530.47 3.05459 3.14048 0
M  V30 34889 C 3531.98 1.5597 4.14956 0
M  V30 34890 H 3529.2 0.373616 0.557361 0
M  V30 34891 H 3531.74 1.61269 1.25747 0
M  V30 34892 H 3529.89 1.15422 3.69806 0
M  V30 34893 H 3530.31 3.3408 4.0434 0
M  V30 34894 H 3531.78 2.02457 5.13532 0
M  V30 34895 H 3532.26 0.515026 4.3617 0
M  V30 34896 H 3532.87 2.05962 3.72102 0
M  V30 34897 N 3531.18 -1.1956 1.0268 0
M  V30 34898 C 3532.43 -1.8947 0.723119 0
M  V30 34899 C 3532.76 -1.7929 -0.746237 0
M  V30 34900 O 3532.03 -1.18387 -1.5432 0
M  V30 34901 C 3532.32 -3.40484 1.1723 0
M  V30 34902 C 3532.17 -3.59546 2.70272 0
M  V30 34903 C 3533.49 -4.33637 0.751473 0
M  V30 34904 H 3530.61 -0.68803 0.264167 0
M  V30 34905 H 3533.25 -1.40745 1.27636 0
M  V30 34906 H 3531.4 -3.82112 0.701611 0
M  V30 34907 H 3533.07 -3.27103 3.25272 0
M  V30 34908 H 3531.32 -3.02669 3.10763 0
M  V30 34909 H 3531.99 -4.65445 2.96757 0
M  V30 34910 H 3534.46 -3.99712 1.15628 0
M  V30 34911 H 3533.34 -5.37894 1.09368 0
M  V30 34912 H 3533.6 -4.40742 -0.34629 0
M  V30 34913 N 3532.66 -0.804387 -1.35526 0
M  V30 34914 C 3533.89 -0.396127 -2.03073 0
M  V30 34915 C 3534.3 0.992224 -1.60625 0
M  V30 34916 O 3533.66 1.63897 -0.802746 0
M  V30 34917 C 3533.71 -0.467364 -3.58466 0
M  V30 34918 O 3533.43 -1.80098 -3.9937 0
M  V30 34919 C 3534.93 -0.0516328 -4.4327 0
M  V30 34920 H 3532.15 -0.161224 -0.651343 0
M  V30 34921 H 3534.7 -1.0874 -1.73193 0
M  V30 34922 H 3532.85 0.175635 -3.87002 0
M  V30 34923 H 3533.26 -1.76223 -4.9401 0
M  V30 34924 H 3534.74 -0.152596 -5.51789 0
M  V30 34925 H 3535.22 1.00278 -4.27599 0
M  V30 34926 H 3535.82 -0.667702 -4.20026 0
M  V30 34927 N 3534.14 1.47403 -0.557697 0
M  V30 34928 C 3535.55 1.86285 -0.124444 0
M  V30 34929 C 3535.9 1.46426 1.30591 0
M  V30 34930 O 3535.02 0.86755 1.98249 0
M  V30 34931 C 3535.62 3.38091 -0.219064 0
M  V30 34932 C 3534.18 3.76063 0.159155 0
M  V30 34933 C 3533.33 2.71454 -0.566403 0
M  V30 34934 H 3536.28 1.38913 -0.767391 0
M  V30 34935 H 3536.3 3.76324 0.5622 0
M  V30 34936 H 3535.81 3.6707 -1.2602 0
M  V30 34937 H 3533.91 3.52701 1.20138 0
M  V30 34938 H 3534.02 4.78683 -0.199746 0
M  V30 34939 H 3532.39 2.54698 -0.00943398 0
M  V30 34940 H 3533.17 3.03275 -1.6087 0
M  V30 34941 N 3535.62 0.294175 1.5483 0
M  V30 34942 C 3536.84 -0.319902 2.04412 0
M  V30 34943 C 3537.26 -1.48037 1.17177 0
M  V30 34944 O 3536.62 -1.81445 0.195913 0
M  V30 34945 C 3536.67 -0.782689 3.52925 0
M  V30 34946 O 3536.39 0.331588 4.36843 0
M  V30 34947 C 3537.89 -1.46262 4.18476 0
M  V30 34948 H 3535.11 -0.0704856 0.667288 0
M  V30 34949 H 3537.65 0.43182 1.99889 0
M  V30 34950 H 3535.81 -1.48445 3.57831 0
M  V30 34951 H 3536.22 -0.0274821 5.24493 0
M  V30 34952 H 3537.7 -1.73766 5.23936 0
M  V30 34953 H 3538.17 -2.40045 3.67798 0
M  V30 34954 H 3538.78 -0.804218 4.17627 0
M  V30 34955 N 3537.09 -1.57585 0.0217743 0
M  V30 34956 C 3538.5 -1.79368 -0.518079 0
M  V30 34957 C 3538.86 -0.931344 -1.72686 0
M  V30 34958 O 3537.98 -0.139725 -2.15948 0
M  V30 34959 C 3538.58 -3.25306 -0.946653 0
M  V30 34960 C 3537.13 -3.4811 -1.43167 0
M  V30 34961 C 3536.28 -2.74502 -0.392947 0
M  V30 34962 H 3539.23 -1.56753 0.247849 0
M  V30 34963 H 3539.25 -3.34614 -1.81146 0
M  V30 34964 H 3538.77 -3.88043 -0.0666854 0
M  V30 34965 H 3536.87 -2.90616 -2.33181 0
M  V30 34966 H 3536.98 -4.56818 -1.44411 0
M  V30 34967 H 3535.34 -2.39762 -0.859429 0
M  V30 34968 H 3536.13 -3.3995 0.478428 0
M  V30 34969 N 3538.57 0.251283 -1.55584 0
M  V30 34970 C 3539.8 0.997604 -1.81261 0
M  V30 34971 C 3540.21 1.79116 -0.596892 0
M  V30 34972 O 3539.57 1.77255 0.434394 0
M  V30 34973 C 3539.62 1.93897 -3.051 0
M  V30 34974 O 3539.34 1.17753 -4.21979 0
M  V30 34975 C 3540.84 2.80164 -3.43545 0
M  V30 34976 H 3538.06 0.29375 -0.603284 0
M  V30 34977 H 3540.61 0.275495 -2.02636 0
M  V30 34978 H 3538.76 2.61541 -2.85788 0
M  V30 34979 H 3539.18 1.8139 -4.92136 0
M  V30 34980 H 3540.65 3.41973 -4.33311 0
M  V30 34981 H 3541.13 3.51052 -2.6393 0
M  V30 34982 H 3541.73 2.17978 -3.65192 0
M  V30 34983 N 3540.05 1.48887 0.516757 0
M  V30 34984 C 3541.46 1.50961 1.09853 0
M  V30 34985 C 3541.81 0.286844 1.94092 0
M  V30 34986 O 3540.94 -0.60484 2.07775 0
M  V30 34987 C 3541.53 2.73546 1.99895 0
M  V30 34988 C 3540.09 2.78449 2.53265 0
M  V30 34989 C 3539.24 2.44662 1.30522 0
M  V30 34990 H 3542.19 1.55812 0.301388 0
M  V30 34991 H 3542.21 2.52814 2.84368 0
M  V30 34992 H 3541.72 3.62524 1.38558 0
M  V30 34993 H 3539.82 1.93712 3.18287 0
M  V30 34994 H 3539.94 3.8022 2.91495 0
M  V30 34995 H 3538.3 1.961 1.62532 0
M  V30 34996 H 3539.08 3.35895 0.709164 0
M  V30 34997 N 3541.53 -0.766635 1.37697 0
M  V30 34998 C 3542.76 -1.55578 1.36393 0
M  V30 34999 C 3543.17 -1.88735 -0.049494 0
M  V30 35000 O 3542.53 -1.51827 -1.01266 0
M  V30 35001 C 3542.58 -2.86294 2.20722 0
M  V30 35002 O 3542.3 -2.54557 3.56556 0
M  V30 35003 C 3543.8 -3.805 2.27453 0
M  V30 35004 H 3541.02 -0.48182 0.467002 0
M  V30 35005 H 3543.56 -0.949802 1.81105 0
M  V30 35006 H 3541.72 -3.43303 1.79505 0
M  V30 35007 H 3542.13 -3.38299 4.00817 0
M  V30 35008 H 3543.61 -4.69208 2.9077 0
M  V30 35009 H 3544.08 -4.19999 1.28442 0
M  V30 35010 H 3544.69 -3.29419 2.69004 0
M  V30 35011 N 3543.01 -1.22351 -0.993375 0
M  V30 35012 C 3544.25 -1.04571 -1.72943 0
M  V30 35013 C 3544.57 0.420145 -1.9042 0
M  V30 35014 O 3543.84 1.30225 -1.4635 0
M  V30 35015 H 3542.42 -0.383956 -0.64077 0
M  V30 35016 H 3545.09 -1.53855 -1.19644 0
M  V30 35017 H 3544.18 -1.52316 -2.72408 0
M  V30 35018 N 3544.48 1.19014 -1.03313 0
M  V30 35019 C 3545.71 1.92756 -0.751836 0
M  V30 35020 C 3546.13 1.75742 0.689951 0
M  V30 35021 O 3545.48 1.08209 1.46959 0
M  V30 35022 C 3545.53 3.4439 -1.09898 0
M  V30 35023 O 3545.26 3.60862 -2.48415 0
M  V30 35024 C 3546.76 4.35247 -0.841105 0
M  V30 35025 H 3543.98 0.612163 -0.274768 0
M  V30 35026 H 3546.52 1.51031 -1.37876 0
M  V30 35027 H 3544.68 3.83933 -0.517159 0
M  V30 35028 H 3545.09 4.54677 -2.61476 0
M  V30 35029 H 3546.56 5.40228 -1.13393 0
M  V30 35030 H 3547.04 4.38627 0.224357 0
M  V30 35031 H 3547.65 4.01392 -1.40586 0
M  V30 35032 N 3545.96 0.811563 1.35098 0
M  V30 35033 C 3546.89 0.183052 2.28468 0
M  V30 35034 C 3547.91 -0.620526 1.5051 0
M  V30 35035 O 3549.1 -0.45207 1.72681 0
M  V30 35036 C 3546.2 -0.762875 3.30202 0
M  V30 35037 C 3545.37 -0.00458873 4.374 0
M  V30 35038 C 3544.43 -0.869741 5.18962 0
M  V30 35039 O 3543.45 -0.318864 5.68306 0
M  V30 35040 N 3544.66 -2.19114 5.37559 0
M  V30 35041 H 3547.42 0.985182 2.83045 0
M  V30 35042 H 3544.98 0.667475 1.475 0
M  V30 35043 H 3546.97 -1.34599 3.81661 0
M  V30 35044 H 3545.54 -1.46579 2.76104 0
M  V30 35045 H 3544.76 0.75977 3.86809 0
M  V30 35046 H 3546.05 0.517828 5.06158 0
M  V30 35047 H 3545.45 -2.66258 4.99123 0
M  V30 35048 H 3544.01 -2.72338 5.92178 0
M  V30 35049 N 3547.44 -1.47105 0.565506 0
M  V30 35050 C 3548.67 -2.0684 0.0496662 0
M  V30 35051 C 3549.08 -1.41693 -1.24774 0
M  V30 35052 O 3548.44 -0.51627 -1.75045 0
M  V30 35053 C 3548.49 -3.61225 -0.140923 0
M  V30 35054 O 3548.21 -4.23932 1.10512 0
M  V30 35055 C 3549.71 -4.37848 -0.693094 0
M  V30 35056 H 3546.93 -0.669163 0.0496135 0
M  V30 35057 H 3549.48 -1.88987 0.78128 0
M  V30 35058 H 3547.63 -3.78564 -0.822695 0
M  V30 35059 H 3548.05 -5.16579 0.908069 0
M  V30 35060 H 3549.52 -5.46522 -0.775704 0
M  V30 35061 H 3550 -4.04702 -1.70625 0
M  V30 35062 H 3550.6 -4.25274 -0.0467513 0
M  V30 35063 N 3548.92 -0.302382 -1.54672 0
M  V30 35064 C 3550.33 0.189986 -1.85731 0
M  V30 35065 C 3550.68 1.53314 -1.2243 0
M  V30 35066 O 3549.81 2.09997 -0.522498 0
M  V30 35067 C 3550.4 0.351503 -3.36972 0
M  V30 35068 C 3548.96 0.78809 -3.68057 0
M  V30 35069 C 3548.11 -0.102754 -2.7711 0
M  V30 35070 H 3551.06 -0.52335 -1.49822 0
M  V30 35071 H 3551.08 1.18586 -3.61549 0
M  V30 35072 H 3550.59 -0.626219 -3.83015 0
M  V30 35073 H 3548.69 1.77631 -3.27533 0
M  V30 35074 H 3548.8 0.606521 -4.75245 0
M  V30 35075 H 3547.17 0.418191 -2.51243 0
M  V30 35076 H 3547.95 -1.07685 -3.25974 0
M  V30 35077 N 3550.4 1.57571 -0.0301311 0
M  V30 35078 C 3551.62 1.96143 0.658454 0
M  V30 35079 C 3552.04 0.906673 1.65605 0
M  V30 35080 O 3551.4 -0.111409 1.8216 0
M  V30 35081 C 3551.45 3.34782 1.36394 0
M  V30 35082 O 3551.17 4.36212 0.406323 0
M  V30 35083 C 3552.67 3.87991 2.14425 0
M  V30 35084 H 3549.89 0.645991 0.181485 0
M  V30 35085 H 3552.43 2.04301 -0.0901959 0
M  V30 35086 H 3550.59 3.27839 2.06398 0
M  V30 35087 H 3551 5.16591 0.907413 0
M  V30 35088 H 3552.48 4.87338 2.5924 0
M  V30 35089 H 3552.95 3.2229 2.98372 0
M  V30 35090 H 3553.56 3.98204 1.49376 0
M  V30 35091 N 3551.87 -0.243029 1.55715 0
M  V30 35092 C 3553.1 -0.987978 1.81787 0
M  V30 35093 C 3553.52 -1.78797 0.606383 0
M  V30 35094 O 3552.87 -1.77483 -0.424987 0
M  V30 35095 C 3552.93 -1.92276 3.06124 0
M  V30 35096 O 3552.65 -1.15513 4.22597 0
M  V30 35097 C 3554.15 -2.78338 3.45026 0
M  V30 35098 H 3551.37 -0.290546 0.604834 0
M  V30 35099 H 3553.91 -0.264744 2.02779 0
M  V30 35100 H 3552.07 -2.60022 2.87171 0
M  V30 35101 H 3552.48 -1.78777 4.93091 0
M  V30 35102 H 3553.95 -3.39671 4.35118 0
M  V30 35103 H 3554.43 -3.49647 2.65788 0
M  V30 35104 H 3555.04 -2.16039 3.66343 0
M  V30 35105 N 3553.35 -1.49159 -0.508854 0
M  V30 35106 C 3554.58 -1.61945 -1.28768 0
M  V30 35107 C 3555 -0.287792 -1.86594 0
M  V30 35108 O 3554.35 0.72574 -1.67449 0
M  V30 35109 C 3554.4 -2.68228 -2.42355 0
M  V30 35110 O 3554.12 -3.96228 -1.86908 0
M  V30 35111 C 3555.63 -2.91648 -3.33851 0
M  V30 35112 H 3552.85 -0.545423 -0.390839 0
M  V30 35113 H 3555.39 -1.95137 -0.611695 0
M  V30 35114 H 3553.54 -2.37836 -3.05798 0
M  V30 35115 H 3553.96 -4.5471 -2.61418 0
M  V30 35116 H 3555.43 -3.69766 -4.0985 0
M  V30 35117 H 3555.91 -2.01265 -3.9037 0
M  V30 35118 H 3556.52 -3.23426 -2.76181 0
M  V30 35119 N 3554.83 0.759322 -1.38102 0
M  V30 35120 C 3556.24 1.33632 -1.30381 0
M  V30 35121 C 3556.59 1.96153 0.0429934 0
M  V30 35122 O 3555.72 1.94676 0.944995 0
M  V30 35123 C 3556.31 2.42972 -2.36114 0
M  V30 35124 C 3554.87 2.96408 -2.3199 0
M  V30 35125 C 3554.02 1.69735 -2.19284 0
M  V30 35126 H 3556.97 0.55863 -1.48543 0
M  V30 35127 H 3556.99 3.22767 -2.01499 0
M  V30 35128 H 3556.5 1.97439 -3.34125 0
M  V30 35129 H 3554.6 3.46284 -1.37542 0
M  V30 35130 H 3554.72 3.51177 -3.25901 0
M  V30 35131 H 3553.08 1.93141 -1.66039 0
M  V30 35132 H 3553.86 1.26288 -3.19228 0
M  V30 35133 N 3556.31 1.22876 0.986873 0
M  V30 35134 C 3557.56 1.05106 1.7215 0
M  V30 35135 C 3557.87 -0.413214 1.91186 0
M  V30 35136 O 3559.08 -0.710713 2.62033 0
M  V30 35137 C 3557.53 1.83226 3.09768 0
M  V30 35138 C 3557.14 3.33941 2.98642 0
M  V30 35139 C 3558.88 1.73924 3.87235 0
M  V30 35140 C 3556.79 4.04479 4.31452 0
M  V30 35141 H 3555.72 0.389688 0.645491 0
M  V30 35142 H 3558.37 1.46783 1.10123 0
M  V30 35143 H 3556.75 1.34351 3.72513 0
M  V30 35144 H 3557.93 3.90255 2.45026 0
M  V30 35145 H 3556.24 3.43986 2.34655 0
M  V30 35146 H 3558.84 2.23941 4.85546 0
M  V30 35147 H 3559.18 0.700784 4.10359 0
M  V30 35148 H 3559.72 2.20375 3.31179 0
M  V30 35149 H 3556.46 5.08603 4.13526 0
M  V30 35150 H 3555.98 3.52953 4.84958 0
M  V30 35151 H 3557.65 4.10412 5.00171 0
M  V30 35152 N 3557.79 -1.18464 1.03942 0
M  V30 35153 C 3559.01 -1.92355 0.762047 0
M  V30 35154 C 3559.43 -1.76105 -0.680621 0
M  V30 35155 O 3558.79 -1.08987 -1.46383 0
M  V30 35156 C 3558.84 -3.43803 1.11723 0
M  V30 35157 O 3558.56 -3.5954 2.50326 0
M  V30 35158 C 3560.06 -4.34795 0.864176 0
M  V30 35159 H 3557.28 -0.610697 0.27801 0
M  V30 35160 H 3559.82 -1.50298 1.38675 0
M  V30 35161 H 3557.98 -3.83653 0.537513 0
M  V30 35162 H 3558.39 -4.53284 2.63883 0
M  V30 35163 H 3559.87 -5.39619 1.16256 0
M  V30 35164 H 3560.34 -4.38739 -0.201093 0
M  V30 35165 H 3560.95 -4.00641 1.42713 0
M  V30 35166 N 3559.26 -0.818716 -1.34665 0
M  V30 35167 C 3560.49 -0.417643 -2.02641 0
M  V30 35168 C 3560.91 0.975132 -1.61668 0
M  V30 35169 O 3560.26 1.63036 -0.820085 0
M  V30 35170 C 3560.32 -0.505358 -3.5795 0
M  V30 35171 O 3560.04 -1.84324 -3.97437 0
M  V30 35172 C 3561.54 -0.0986446 -4.4319 0
M  V30 35173 H 3558.76 -0.168123 -0.649597 0
M  V30 35174 H 3561.3 -1.10571 -1.7203 0
M  V30 35175 H 3559.46 0.134578 -3.87166 0
M  V30 35176 H 3559.87 -1.81452 -4.92113 0
M  V30 35177 H 3561.34 -0.211112 -5.51596 0
M  V30 35178 H 3561.82 0.957375 -4.28639 0
M  V30 35179 H 3562.43 -0.712213 -4.19294 0
M  V30 35180 N 3560.74 1.46803 -0.573299 0
M  V30 35181 C 3561.97 2.06811 -0.0606347 0
M  V30 35182 C 3562.39 1.42352 1.24021 0
M  V30 35183 O 3561.74 0.525546 1.74769 0
M  V30 35184 C 3561.79 3.61295 0.121764 0
M  V30 35185 O 3561.51 4.2334 -1.12758 0
M  V30 35186 C 3563.02 4.3821 0.669864 0
M  V30 35187 H 3560.24 0.668891 -0.0531616 0
M  V30 35188 H 3562.78 1.8857 -0.791292 0
M  V30 35189 H 3560.93 3.78995 0.802608 0
M  V30 35190 H 3561.35 5.16091 -0.935452 0
M  V30 35191 H 3562.82 5.46926 0.74671 0
M  V30 35192 H 3563.3 4.05601 1.68476 0
M  V30 35193 H 3563.91 4.25293 0.0241973 0
M  V30 35194 N 3562.22 0.31058 1.54509 0
M  V30 35195 C 3563.45 -0.298204 2.0474 0
M  V30 35196 C 3563.86 -1.46786 1.1874 0
M  V30 35197 O 3563.22 -1.81227 0.215146 0
M  V30 35198 C 3563.27 -0.745212 3.53736 0
M  V30 35199 O 3562.99 0.377903 4.36467 0
M  V30 35200 C 3564.49 -1.41816 4.20004 0
M  V30 35201 H 3561.71 -0.0634041 0.667998 0
M  V30 35202 H 3564.26 0.452996 1.9942 0
M  V30 35203 H 3562.41 -1.44641 3.59385 0
M  V30 35204 H 3562.83 0.0281489 5.24492 0
M  V30 35205 H 3564.3 -1.682 5.2575 0
M  V30 35206 H 3564.78 -2.36131 3.70323 0
M  V30 35207 H 3565.38 -0.759878 4.18457 0
M  V30 35208 N 3563.7 -1.57553 0.0384871 0
M  V30 35209 C 3564.93 -1.96489 -0.648043 0
M  V30 35210 C 3565.34 -0.915443 -1.65121 0
M  V30 35211 O 3564.7 0.101747 -1.82216 0
M  V30 35212 C 3564.75 -3.355 -1.34617 0
M  V30 35213 O 3564.47 -4.36421 -0.383184 0
M  V30 35214 C 3565.97 -3.89122 -2.12365 0
M  V30 35215 H 3563.19 -0.646944 -0.178056 0
M  V30 35216 H 3565.74 -2.0425 0.101029 0
M  V30 35217 H 3563.89 -3.28929 -2.04657 0
M  V30 35218 H 3564.31 -5.17065 -0.880004 0
M  V30 35219 H 3565.78 -4.88706 -2.56652 0
M  V30 35220 H 3566.26 -3.23868 -2.96658 0
M  V30 35221 H 3566.86 -3.98991 -1.47263 0
M  V30 35222 N 3565.18 0.234767 -1.55842 0
M  V30 35223 C 3566.42 0.962508 -1.78504 0
M  V30 35224 C 3566.76 1.84507 -0.605864 0
M  V30 35225 O 3566.03 1.90438 0.395413 0
M  V30 35226 C 3566.31 1.81272 -3.11147 0
M  V30 35227 C 3566.17 0.95753 -4.3949 0
M  V30 35228 C 3567.49 2.79298 -3.40119 0
M  V30 35229 H 3564.61 0.348489 -0.649403 0
M  V30 35230 H 3567.25 0.232207 -1.88576 0
M  V30 35231 H 3565.4 2.43536 -3.02692 0
M  V30 35232 H 3567.07 0.352645 -4.5995 0
M  V30 35233 H 3565.31 0.262378 -4.33006 0
M  V30 35234 H 3565.98 1.5865 -5.2871 0
M  V30 35235 H 3568.46 2.27169 -3.48616 0
M  V30 35236 H 3567.34 3.35898 -4.34124 0
M  V30 35237 H 3567.6 3.56374 -2.6163 0
M  V30 35238 N 3566.66 1.49427 0.500936 0
M  V30 35239 C 3567.88 1.62626 1.27908 0
M  V30 35240 C 3568.3 0.297684 1.86438 0
M  V30 35241 O 3567.66 -0.716849 1.67832 0
M  V30 35242 C 3567.71 2.6951 2.40929 0
M  V30 35243 O 3567.43 3.97214 1.84804 0
M  V30 35244 C 3568.93 2.93414 3.323 0
M  V30 35245 H 3566.15 0.547488 0.387941 0
M  V30 35246 H 3568.69 1.95459 0.601338 0
M  V30 35247 H 3566.85 2.39455 3.04533 0
M  V30 35248 H 3567.26 4.5609 2.59003 0
M  V30 35249 H 3568.74 3.71935 4.07883 0
M  V30 35250 H 3569.21 2.03332 3.89298 0
M  V30 35251 H 3569.82 3.24886 2.74462 0
M  V30 35252 N 3568.13 -0.751987 1.38502 0
M  V30 35253 C 3569.54 -1.32939 1.31088 0
M  V30 35254 C 3569.9 -1.96173 -0.0325903 0
M  V30 35255 O 3569.02 -1.95175 -0.934657 0
M  V30 35256 C 3569.62 -2.41716 2.374 0
M  V30 35257 C 3568.17 -2.95173 2.33559 0
M  V30 35258 C 3567.32 -1.6857 2.20181 0
M  V30 35259 H 3570.27 -0.550745 1.48837 0
M  V30 35260 H 3570.29 -3.21694 2.03208 0
M  V30 35261 H 3569.81 -1.95664 3.35167 0
M  V30 35262 H 3567.91 -3.4555 1.39377 0
M  V30 35263 H 3568.02 -3.49444 3.27759 0
M  V30 35264 H 3566.38 -1.92257 1.6706 0
M  V30 35265 H 3567.17 -1.24593 3.19893 0
M  V30 35266 N 3569.61 -1.23398 -0.980343 0
M  V30 35267 C 3570.84 -1.09279 -1.75687 0
M  V30 35268 C 3571.25 0.355741 -1.85418 0
M  V30 35269 O 3570.61 1.24607 -1.3334 0
M  V30 35270 C 3570.66 -1.71229 -3.18375 0
M  V30 35271 O 3570.38 -3.10417 -3.09149 0
M  V30 35272 C 3571.88 -1.62552 -4.12422 0
M  V30 35273 H 3569.1 -0.382436 -0.551347 0
M  V30 35274 H 3571.65 -1.6325 -1.23166 0
M  V30 35275 H 3569.8 -1.21291 -3.67923 0
M  V30 35276 H 3570.22 -3.40471 -3.98974 0
M  V30 35277 H 3571.69 -2.10601 -5.10246 0
M  V30 35278 H 3572.17 -0.584352 -4.35295 0
M  V30 35279 H 3572.77 -2.11856 -3.68778 0
M  V30 35280 N 3571.09 1.17911 -1.04569 0
M  V30 35281 C 3572.5 1.69665 -0.779148 0
M  V30 35282 C 3572.85 1.8331 0.699416 0
M  V30 35283 O 3571.98 1.51619 1.54404 0
M  V30 35284 C 3572.57 3.08169 -1.40774 0
M  V30 35285 C 3571.13 3.57114 -1.18939 0
M  V30 35286 C 3570.28 2.33534 -1.49523 0
M  V30 35287 H 3573.23 1.02516 -1.21145 0
M  V30 35288 H 3573.25 3.71699 -0.81365 0
M  V30 35289 H 3572.76 2.98206 -2.48385 0
M  V30 35290 H 3570.86 3.72365 -0.132249 0
M  V30 35291 H 3570.98 4.40247 -1.88995 0
M  V30 35292 H 3569.34 2.37693 -0.915098 0
M  V30 35293 H 3570.12 2.26185 -2.58254 0
M  V30 35294 N 3572.57 0.825847 1.34229 0
M  V30 35295 C 3573.8 0.428384 2.02417 0
M  V30 35296 C 3574.21 -0.966544 1.62183 0
M  V30 35297 O 3573.57 -1.62599 0.828719 0
M  V30 35298 C 3573.62 0.524334 3.57677 0
M  V30 35299 O 3573.34 1.86429 3.96454 0
M  V30 35300 C 3574.84 0.122147 4.43132 0
M  V30 35301 H 3572.06 0.171565 0.648696 0
M  V30 35302 H 3574.6 1.11481 1.71441 0
M  V30 35303 H 3572.76 -0.114044 3.87232 0
M  V30 35304 H 3573.17 1.8406 4.91144 0
M  V30 35305 H 3574.65 0.240361 5.51476 0
M  V30 35306 H 3575.12 -0.93463 4.2914 0
M  V30 35307 H 3575.73 0.73444 4.18911 0
M  V30 35308 N 3574.05 -1.46497 0.581077 0
M  V30 35309 C 3575.46 -1.86063 0.154065 0
M  V30 35310 C 3575.81 -1.48485 -1.28244 0
M  V30 35311 O 3574.93 -0.89898 -1.96843 0
M  V30 35312 C 3575.53 -3.377 0.272824 0
M  V30 35313 C 3574.09 -3.76269 -0.0993062 0
M  V30 35314 C 3573.23 -2.70518 0.609517 0
M  V30 35315 H 3576.18 -1.37674 0.789394 0
M  V30 35316 H 3576.21 -3.77171 -0.502259 0
M  V30 35317 H 3575.72 -3.65019 1.31843 0
M  V30 35318 H 3573.82 -3.54567 -1.14511 0
M  V30 35319 H 3573.93 -4.78305 0.275875 0
M  V30 35320 H 3572.3 -2.54651 0.0499531 0
M  V30 35321 H 3573.08 -3.00677 1.65674 0
M  V30 35322 N 3575.52 -0.31877 -1.54343 0
M  V30 35323 C 3576.75 0.287342 -2.04895 0
M  V30 35324 C 3577.17 1.46155 -1.19517 0
M  V30 35325 O 3576.52 1.81111 -0.224754 0
M  V30 35326 C 3576.57 0.726442 -3.54126 0
M  V30 35327 O 3576.3 -0.401044 -4.36261 0
M  V30 35328 C 3577.8 1.39586 -4.2075 0
M  V30 35329 H 3575.02 0.0598607 -0.668325 0
M  V30 35330 H 3577.56 -0.463566 -1.99177 0
M  V30 35331 H 3575.72 1.42733 -3.60147 0
M  V30 35332 H 3576.13 -0.0559636 -5.2447 0
M  V30 35333 H 3577.6 1.65409 -5.26634 0
M  V30 35334 H 3578.08 2.34163 -3.7157 0
M  V30 35335 H 3578.69 0.737675 -4.18854 0
M  V30 35336 N 3577 1.5753 -0.0468419 0
M  V30 35337 C 3578.25 1.92139 0.626665 0
M  V30 35338 C 3578.57 0.925493 1.71638 0
M  V30 35339 O 3577.84 -0.0303187 1.95877 0
M  V30 35340 H 3576.42 0.709249 0.234466 0
M  V30 35341 H 3579.08 1.94649 -0.0988234 0
M  V30 35342 H 3578.18 2.93256 1.06805 0
M  V30 35343 N 3578.48 -0.226499 1.55964 0
M  V30 35344 C 3579.71 -0.968641 1.82825 0
M  V30 35345 C 3580.12 -1.78144 0.625313 0
M  V30 35346 O 3579.48 -1.77923 -0.406139 0
M  V30 35347 C 3579.53 -1.89018 3.08147 0
M  V30 35348 O 3579.25 -1.11025 4.23798 0
M  V30 35349 C 3580.75 -2.74663 3.47958 0
M  V30 35350 H 3577.97 -0.284115 0.607881 0
M  V30 35351 H 3580.52 -0.243222 2.03048 0
M  V30 35352 H 3578.67 -2.56962 2.89913 0
M  V30 35353 H 3579.09 -1.73537 4.9496 0
M  V30 35354 H 3580.56 -3.35036 4.38696 0
M  V30 35355 H 3581.04 -3.46809 2.69482 0
M  V30 35356 H 3581.64 -2.12141 3.68614 0
M  V30 35357 N 3579.96 -1.4969 -0.493005 0
M  V30 35358 C 3580.89 -1.63077 -1.61055 0
M  V30 35359 C 3581.9 -0.513096 -1.54503 0
M  V30 35360 O 3583.09 -0.785459 -1.6029 0
M  V30 35361 C 3580.19 -1.57889 -2.99874 0
M  V30 35362 C 3579.37 -2.85323 -3.31526 0
M  V30 35363 C 3578.42 -2.73077 -4.49795 0
M  V30 35364 O 3577.45 -3.4702 -4.51182 0
M  V30 35365 N 3578.65 -1.85158 -5.50179 0
M  V30 35366 H 3581.42 -2.59464 -1.49996 0
M  V30 35367 H 3578.98 -1.46879 -0.681031 0
M  V30 35368 H 3580.97 -1.4734 -3.76926 0
M  V30 35369 H 3579.54 -0.693272 -3.04816 0
M  V30 35370 H 3578.76 -3.10163 -2.43295 0
M  V30 35371 H 3580.05 -3.6979 -3.49475 0
M  V30 35372 H 3579.45 -1.24355 -5.51863 0
M  V30 35373 H 3578 -1.80527 -6.26301 0
M  V30 35374 N 3581.44 0.744631 -1.38899 0
M  V30 35375 C 3582.66 1.53389 -1.38851 0
M  V30 35376 C 3583.08 1.8879 0.0194617 0
M  V30 35377 O 3582.44 1.53419 0.988372 0
M  V30 35378 C 3582.49 2.82746 -2.25248 0
M  V30 35379 O 3582.21 2.48852 -3.60561 0
M  V30 35380 C 3583.71 3.76833 -2.33478 0
M  V30 35381 H 3580.93 0.474329 -0.474608 0
M  V30 35382 H 3583.47 0.92087 -1.82593 0
M  V30 35383 H 3581.63 3.40403 -1.84944 0
M  V30 35384 H 3582.04 3.31879 -4.06148 0
M  V30 35385 H 3583.52 4.64523 -2.98198 0
M  V30 35386 H 3583.99 4.17903 -1.35107 0
M  V30 35387 H 3584.6 3.25098 -2.74211 0
M  V30 35388 N 3582.91 1.23916 0.973785 0
M  V30 35389 C 3584.33 1.06916 1.53055 0
M  V30 35390 C 3584.68 -0.361389 1.92843 0
M  V30 35391 O 3583.8 -1.24898 1.76718 0
M  V30 35392 C 3584.4 1.93462 2.78133 0
M  V30 35393 C 3582.96 1.80703 3.30187 0
M  V30 35394 C 3582.1 1.88764 2.03134 0
M  V30 35395 H 3585.05 1.37482 0.792743 0
M  V30 35396 H 3585.07 1.46331 3.51237 0
M  V30 35397 H 3584.59 2.97572 2.49144 0
M  V30 35398 H 3582.69 0.794015 3.64041 0
M  V30 35399 H 3582.8 2.64458 3.99498 0
M  V30 35400 H 3581.16 1.32422 2.1757 0
M  V30 35401 H 3581.95 2.94443 1.76517 0
M  V30 35402 N 3584.39 -1.17355 1.05193 0
M  V30 35403 C 3585.62 -1.91536 0.782406 0
M  V30 35404 C 3586.04 -1.76817 -0.661904 0
M  V30 35405 O 3585.39 -1.10534 -1.45219 0
M  V30 35406 C 3585.44 -3.42598 1.15363 0
M  V30 35407 O 3585.16 -3.56864 2.54125 0
M  V30 35408 C 3586.67 -4.33854 0.910243 0
M  V30 35409 H 3583.89 -0.607714 0.284472 0
M  V30 35410 H 3586.43 -1.48819 1.40261 0
M  V30 35411 H 3584.58 -3.83061 0.578174 0
M  V30 35412 H 3585 -4.50459 2.68676 0
M  V30 35413 H 3586.47 -5.38355 1.21973 0
M  V30 35414 H 3586.95 -4.38928 -0.154547 0
M  V30 35415 H 3587.56 -3.99105 1.46954 0
M  V30 35416 N 3585.87 -0.832954 -1.3379 0
M  V30 35417 C 3587.1 -0.439113 -2.02187 0
M  V30 35418 C 3587.51 0.95793 -1.62693 0
M  V30 35419 O 3586.87 1.62157 -0.837331 0
M  V30 35420 C 3586.92 -0.543295 -3.57394 0
M  V30 35421 O 3586.64 -1.88529 -3.9546 0
M  V30 35422 C 3588.14 -0.145645 -4.43061 0
M  V30 35423 H 3585.36 -0.175003 -0.647777 0
M  V30 35424 H 3587.91 -1.12389 -1.70848 0
M  V30 35425 H 3586.06 0.0935065 -3.87287 0
M  V30 35426 H 3586.48 -1.86662 -4.90161 0
M  V30 35427 H 3587.95 -0.269604 -5.51341 0
M  V30 35428 H 3588.43 0.911858 -4.2963 0
M  V30 35429 H 3589.03 -0.756645 -4.18515 0
M  V30 35430 N 3587.35 1.46186 -0.588837 0
M  V30 35431 C 3588.58 2.06735 -0.0825664 0
M  V30 35432 C 3588.99 1.4366 1.22504 0
M  V30 35433 O 3588.35 0.544053 1.74202 0
M  V30 35434 C 3588.4 3.61404 0.0834375 0
M  V30 35435 O 3588.12 4.22121 -1.17242 0
M  V30 35436 C 3589.62 4.38896 0.623348 0
M  V30 35437 H 3586.84 0.668289 -0.0602531 0
M  V30 35438 H 3589.39 1.87721 -0.811248 0
M  V30 35439 H 3587.54 3.79825 0.762365 0
M  V30 35440 H 3587.95 5.15069 -0.990138 0
M  V30 35441 H 3589.43 5.47687 0.688659 0
M  V30 35442 H 3589.91 4.07365 1.64165 0
M  V30 35443 H 3590.51 4.25295 -0.0209121 0
M  V30 35444 N 3588.83 0.32695 1.54171 0
M  V30 35445 C 3590.24 -0.160414 1.8601 0
M  V30 35446 C 3590.59 -1.51347 1.24854 0
M  V30 35447 O 3589.71 -2.0914 0.555841 0
M  V30 35448 C 3590.31 -0.297849 3.37488 0
M  V30 35449 C 3588.87 -0.729436 3.69264 0
M  V30 35450 C 3588.01 0.146826 2.76911 0
M  V30 35451 H 3590.97 0.54712 1.48971 0
M  V30 35452 H 3590.99 -1.12819 3.6339 0
M  V30 35453 H 3590.5 0.687074 3.8197 0
M  V30 35454 H 3588.6 -1.72398 3.30317 0
M  V30 35455 H 3588.71 -0.530836 4.7615 0
M  V30 35456 H 3587.08 -0.378167 2.51877 0
M  V30 35457 H 3587.86 1.12858 3.24219 0
M  V30 35458 N 3590.3 -1.57503 0.0551955 0
M  V30 35459 C 3591.55 -1.92026 -0.617167 0
M  V30 35460 C 3591.87 -0.935741 -1.71765 0
M  V30 35461 O 3593.07 -1.17317 -2.44845 0
M  V30 35462 C 3591.53 -3.41063 -1.14909 0
M  V30 35463 C 3591.14 -4.47928 -0.0805026 0
M  V30 35464 C 3592.88 -3.84613 -1.79647 0
M  V30 35465 C 3590.79 -5.88082 -0.625536 0
M  V30 35466 H 3589.72 -0.716673 -0.234297 0
M  V30 35467 H 3592.37 -1.83076 0.124738 0
M  V30 35468 H 3590.75 -3.45031 -1.94344 0
M  V30 35469 H 3591.92 -4.55555 0.693302 0
M  V30 35470 H 3590.24 -4.13743 0.469654 0
M  V30 35471 H 3592.84 -4.86697 -2.21427 0
M  V30 35472 H 3593.18 -3.21078 -2.64981 0
M  V30 35473 H 3593.71 -3.83178 -1.06861 0
M  V30 35474 H 3590.45 -6.55224 0.190263 0
M  V30 35475 H 3589.97 -5.84009 -1.36724 0
M  V30 35476 H 3591.65 -6.37456 -1.10717 0
M  V30 35477 N 3591.78 0.218225 -1.56082 0
M  V30 35478 C 3593.01 0.958932 -1.83336 0
M  V30 35479 C 3593.43 1.7781 -0.634751 0
M  V30 35480 O 3592.78 1.78136 0.396697 0
M  V30 35481 C 3592.83 1.87382 -3.09145 0
M  V30 35482 O 3592.55 1.08776 -4.24381 0
M  V30 35483 C 3594.06 2.72814 -3.4941 0
M  V30 35484 H 3591.28 0.280887 -0.60938 0
M  V30 35485 H 3593.82 0.232451 -2.03175 0
M  V30 35486 H 3591.97 2.55421 -2.91272 0
M  V30 35487 H 3592.39 1.7091 -4.95873 0
M  V30 35488 H 3593.86 3.32705 -4.40467 0
M  V30 35489 H 3594.34 3.45375 -2.71317 0
M  V30 35490 H 3594.95 2.10183 -3.69734 0
M  V30 35491 N 3593.26 1.4995 0.485059 0
M  V30 35492 C 3594.49 1.63973 1.26176 0
M  V30 35493 C 3594.9 0.317441 1.86112 0
M  V30 35494 O 3594.26 -0.699008 1.68583 0
M  V30 35495 C 3594.31 2.7205 2.38057 0
M  V30 35496 O 3594.03 3.99152 1.80581 0
M  V30 35497 C 3595.53 2.96922 3.29169 0
M  V30 35498 H 3592.75 0.551571 0.382113 0
M  V30 35499 H 3595.3 1.96086 0.580573 0
M  V30 35500 H 3593.45 2.42671 3.01976 0
M  V30 35501 H 3593.87 4.58811 2.54151 0
M  V30 35502 H 3595.34 3.7624 4.03915 0
M  V30 35503 H 3595.82 2.0745 3.87119 0
M  V30 35504 H 3596.42 3.27779 2.71 0
M  V30 35505 N 3594.74 -0.737255 1.39292 0
M  V30 35506 C 3595.97 -1.5265 1.39662 0
M  V30 35507 C 3596.38 -1.88798 -0.0094494 0
M  V30 35508 O 3595.74 -1.53941 -0.980222 0
M  V30 35509 C 3595.79 -2.81548 2.26745 0
M  V30 35510 O 3595.51 -2.46936 3.61876 0
M  V30 35511 C 3597.01 -3.75589 2.35473 0
M  V30 35512 H 3594.23 -0.471806 0.477117 0
M  V30 35513 H 3596.78 -0.911173 1.83079 0
M  V30 35514 H 3594.93 -3.39418 1.86747 0
M  V30 35515 H 3595.35 -3.29721 4.07902 0
M  V30 35516 H 3596.82 -4.62935 3.00658 0
M  V30 35517 H 3597.3 -4.1718 1.37321 0
M  V30 35518 H 3597.9 -3.23639 2.75931 0
M  V30 35519 N 3596.22 -1.24431 -0.967199 0
M  V30 35520 C 3597.45 -1.11136 -1.74518 0
M  V30 35521 C 3597.86 0.336055 -1.85785 0
M  V30 35522 O 3597.22 1.23185 -1.34654 0
M  V30 35523 C 3597.27 -1.74596 -3.16541 0
M  V30 35524 O 3596.99 -3.13678 -3.05839 0
M  V30 35525 C 3598.49 -1.66917 -4.10674 0
M  V30 35526 H 3595.71 -0.388263 -0.54726 0
M  V30 35527 H 3598.25 -1.64547 -1.21427 0
M  V30 35528 H 3596.41 -1.25187 -3.66616 0
M  V30 35529 H 3596.82 -3.44683 -3.9534 0
M  V30 35530 H 3598.3 -2.16001 -5.07984 0
M  V30 35531 H 3598.77 -0.630488 -4.34651 0
M  V30 35532 H 3599.38 -2.15756 -3.6651 0
M  V30 35533 N 3597.7 1.16795 -1.05814 0
M  V30 35534 C 3598.92 1.91118 -0.792553 0
M  V30 35535 C 3599.34 1.77166 0.652518 0
M  V30 35536 O 3598.7 1.11302 1.44631 0
M  V30 35537 C 3598.75 3.41982 -1.17178 0
M  V30 35538 O 3598.47 3.55512 -2.56014 0
M  V30 35539 C 3599.97 4.33365 -0.933239 0
M  V30 35540 H 3597.19 0.606197 -0.287691 0
M  V30 35541 H 3599.73 1.48073 -1.41049 0
M  V30 35542 H 3597.89 3.82749 -0.598481 0
M  V30 35543 H 3598.3 4.49028 -2.71061 0
M  V30 35544 H 3599.78 5.37701 -1.24826 0
M  V30 35545 H 3600.25 4.39004 0.131268 0
M  V30 35546 H 3600.86 3.9832 -1.49069 0
M  V30 35547 N 3599.17 0.840037 1.33346 0
M  V30 35548 C 3600.42 0.436955 1.98037 0
M  V30 35549 C 3600.75 -1.00151 1.66383 0
M  V30 35550 O 3600.03 -1.70037 0.944341 0
M  V30 35551 C 3600.31 0.659432 3.54011 0
M  V30 35552 C 3600.16 2.14525 3.95347 0
M  V30 35553 C 3601.48 0.106335 4.39972 0
M  V30 35554 H 3598.6 0.160234 0.719371 0
M  V30 35555 H 3601.24 1.05577 1.57967 0
M  V30 35556 H 3599.39 0.132701 3.88273 0
M  V30 35557 H 3601.07 2.73694 3.71335 0
M  V30 35558 H 3599.31 2.62932 3.45035 0
M  V30 35559 H 3599.98 2.25166 5.03988 0
M  V30 35560 H 3602.46 0.556583 4.12361 0
M  V30 35561 H 3601.33 0.29168 5.48124 0
M  V30 35562 H 3601.59 -0.989956 4.30874 0
M  V30 35563 N 3600.65 -1.45872 0.596582 0
M  V30 35564 C 3601.88 -2.06688 0.0935289 0
M  V30 35565 C 3602.29 -1.44307 -1.21741 0
M  V30 35566 O 3601.65 -0.553284 -1.73911 0
M  V30 35567 C 3601.7 -3.61443 -0.0642702 0
M  V30 35568 O 3601.42 -4.21493 1.19479 0
M  V30 35569 C 3602.92 -4.3922 -0.600064 0
M  V30 35570 H 3600.14 -0.66796 0.0637963 0
M  V30 35571 H 3602.69 -1.87288 0.821192 0
M  V30 35572 H 3600.84 -3.80224 -0.742211 0
M  V30 35573 H 3601.26 -5.14537 1.01744 0
M  V30 35574 H 3602.73 -5.48045 -0.659604 0
M  V30 35575 H 3603.21 -4.0823 -1.62002 0
M  V30 35576 H 3603.81 -4.25278 0.0434662 0
M  V30 35577 N 3602.13 -0.335122 -1.53996 0
M  V30 35578 C 3603.54 0.150547 -1.86092 0
M  V30 35579 C 3603.89 1.50683 -1.25655 0
M  V30 35580 O 3603.02 2.08842 -0.566924 0
M  V30 35581 C 3603.61 0.279947 -3.37641 0
M  V30 35582 C 3602.17 0.709842 -3.69646 0
M  V30 35583 C 3601.32 -0.16151 -2.76829 0
M  V30 35584 H 3604.27 -0.555012 -1.48679 0
M  V30 35585 H 3604.29 1.1089 -3.63983 0
M  V30 35586 H 3603.8 -0.707321 -3.816 0
M  V30 35587 H 3601.9 1.70644 -3.31227 0
M  V30 35588 H 3602.02 0.505578 -4.76425 0
M  V30 35589 H 3600.38 0.364804 -2.52074 0
M  V30 35590 H 3601.16 -1.14576 -3.23616 0
M  V30 35591 N 3603.61 1.57472 -0.0635475 0
M  V30 35592 C 3604.84 1.97495 0.616701 0
M  V30 35593 C 3605.25 0.941596 1.63644 0
M  V30 35594 O 3604.61 -0.0727448 1.82355 0
M  V30 35595 C 3604.66 3.376 1.29262 0
M  V30 35596 O 3604.38 4.36975 0.313705 0
M  V30 35597 C 3605.88 3.92452 2.06147 0
M  V30 35598 H 3603.1 0.649695 0.167741 0
M  V30 35599 H 3605.64 2.04064 -0.133511 0
M  V30 35600 H 3603.8 3.32143 1.99398 0
M  V30 35601 H 3604.21 5.184 0.797632 0
M  V30 35602 H 3605.69 4.92728 2.48844 0
M  V30 35603 H 3606.16 3.28547 2.91468 0
M  V30 35604 H 3606.77 4.01283 1.40896 0
M  V30 35605 N 3605.09 -0.209945 1.56195 0
M  V30 35606 C 3606.5 -0.775939 1.69812 0
M  V30 35607 C 3606.85 -1.84494 0.667576 0
M  V30 35608 O 3605.97 -2.15658 -0.179006 0
M  V30 35609 C 3606.57 -1.41424 3.07871 0
M  V30 35610 C 3605.13 -1.92749 3.23303 0
M  V30 35611 C 3604.27 -0.791911 2.65752 0
M  V30 35612 H 3607.22 0.0149006 1.58693 0
M  V30 35613 H 3607.25 -2.28333 3.04375 0
M  V30 35614 H 3606.76 -0.635973 3.82854 0
M  V30 35615 H 3604.86 -2.73341 2.5321 0
M  V30 35616 H 3604.97 -2.09948 4.30649 0
M  V30 35617 H 3603.34 -1.2023 2.24537 0
M  V30 35618 H 3604.12 -0.0261273 3.4329 0
M  V30 35619 N 3606.56 -1.50205 -0.4771 0
M  V30 35620 C 3607.79 -1.6464 -1.25304 0
M  V30 35621 C 3608.21 -0.327307 -1.85941 0
M  V30 35622 O 3607.56 0.690058 -1.68951 0
M  V30 35623 C 3607.61 -2.73309 -2.36611 0
M  V30 35624 O 3607.34 -4.00104 -1.78462 0
M  V30 35625 C 3608.84 -2.98664 -3.2759 0
M  V30 35626 H 3606.06 -0.55359 -0.379182 0
M  V30 35627 H 3608.6 -1.96391 -0.570166 0
M  V30 35628 H 3606.76 -2.44269 -3.00685 0
M  V30 35629 H 3607.17 -4.60153 -2.51714 0
M  V30 35630 H 3608.64 -3.78377 -4.01914 0
M  V30 35631 H 3609.12 -2.095 -3.86014 0
M  V30 35632 H 3609.73 -3.29211 -2.69258 0
M  V30 35633 N 3608.04 0.729857 -1.39681 0
M  V30 35634 C 3609.45 1.30837 -1.33187 0
M  V30 35635 C 3609.8 1.962 0.0013768 0
M  V30 35636 O 3608.93 1.96637 0.903489 0
M  V30 35637 C 3609.52 2.37909 -2.41215 0
M  V30 35638 C 3608.08 2.9142 -2.38225 0
M  V30 35639 C 3607.23 1.65045 -2.22835 0
M  V30 35640 H 3610.18 0.526996 -1.49694 0
M  V30 35641 H 3610.2 3.1842 -2.083 0
M  V30 35642 H 3609.71 1.90307 -3.38238 0
M  V30 35643 H 3607.82 3.43289 -1.44856 0
M  V30 35644 H 3607.93 3.44185 -3.33277 0
M  V30 35645 H 3606.29 1.89575 -1.70098 0
M  V30 35646 H 3607.08 1.19488 -3.21835 0
M  V30 35647 N 3609.52 1.24942 0.960587 0
M  V30 35648 C 3610.75 1.1206 1.73926 0
M  V30 35649 C 3611.16 -0.326197 1.85961 0
M  V30 35650 O 3610.52 -1.2247 1.35305 0
M  V30 35651 C 3610.57 1.76272 3.15611 0
M  V30 35652 O 3610.29 3.15296 3.04171 0
M  V30 35653 C 3611.79 1.69093 4.09784 0
M  V30 35654 H 3609.01 0.391159 0.545193 0
M  V30 35655 H 3611.56 1.65188 1.20553 0
M  V30 35656 H 3609.71 1.27129 3.65947 0
M  V30 35657 H 3610.13 3.46775 3.93507 0
M  V30 35658 H 3611.6 2.18692 5.06831 0
M  V30 35659 H 3612.08 0.653529 4.34311 0
M  V30 35660 H 3612.68 2.17696 3.65361 0
M  V30 35661 N 3611 -1.16233 1.06432 0
M  V30 35662 C 3612.25 -1.86428 0.780328 0
M  V30 35663 C 3612.57 -1.82183 -0.695303 0
M  V30 35664 O 3611.84 -1.25633 -1.5031 0
M  V30 35665 H 3610.42 -0.69022 0.285666 0
M  V30 35666 H 3613.08 -1.40946 1.34611 0
M  V30 35667 H 3612.18 -2.91827 1.10649 0
M  V30 35668 N 3612.48 -0.847097 -1.32899 0
M  V30 35669 C 3613.7 -0.460533 -2.01709 0
M  V30 35670 C 3614.12 0.94062 -1.637 0
M  V30 35671 O 3613.48 1.6126 -0.854483 0
M  V30 35672 C 3613.53 -0.581171 -3.56798 0
M  V30 35673 O 3613.25 -1.92712 -3.93438 0
M  V30 35674 C 3614.75 -0.19263 -4.42881 0
M  V30 35675 H 3611.97 -0.181864 -0.645884 0
M  V30 35676 H 3614.51 -1.14195 -1.69646 0
M  V30 35677 H 3612.67 0.0524243 -3.87365 0
M  V30 35678 H 3613.08 -1.9185 -4.88154 0
M  V30 35679 H 3614.56 -0.328066 -5.51024 0
M  V30 35680 H 3615.03 0.866239 -4.30573 0
M  V30 35681 H 3615.64 -0.800992 -4.17689 0
M  V30 35682 N 3613.95 1.45554 -0.604309 0
M  V30 35683 C 3614.89 2.28678 0.154539 0
M  V30 35684 C 3615.9 1.39762 0.834885 0
M  V30 35685 O 3617.09 1.64167 0.700823 0
M  V30 35686 C 3614.19 3.15414 1.23965 0
M  V30 35687 C 3613.36 4.32588 0.647052 0
M  V30 35688 C 3612.42 5.00557 1.62263 0
M  V30 35689 O 3611.45 5.57457 1.15021 0
M  V30 35690 N 3612.65 4.99541 2.95701 0
M  V30 35691 H 3615.41 2.94446 -0.55872 0
M  V30 35692 H 3612.97 1.55705 -0.443565 0
M  V30 35693 H 3614.97 3.57749 1.89203 0
M  V30 35694 H 3613.54 2.51577 1.85547 0
M  V30 35695 H 3612.76 3.93773 -0.18333 0
M  V30 35696 H 3614.04 5.08274 0.231304 0
M  V30 35697 H 3613.44 4.54597 3.36687 0
M  V30 35698 H 3612 5.4575 3.56371 0
M  V30 35699 N 3615.43 0.343284 1.53816 0
M  V30 35700 C 3616.66 -0.254708 2.05326 0
M  V30 35701 C 3617.08 -1.44235 1.21827 0
M  V30 35702 O 3616.43 -1.8073 0.253539 0
M  V30 35703 C 3616.48 -0.670012 3.55237 0
M  V30 35704 O 3616.2 0.470399 4.35567 0
M  V30 35705 C 3617.71 -1.32875 4.22917 0
M  V30 35706 H 3614.93 -0.0492206 0.669192 0
M  V30 35707 H 3617.47 0.495194 1.98414 0
M  V30 35708 H 3615.62 -1.36986 3.62372 0
M  V30 35709 H 3616.04 0.139395 5.24315 0
M  V30 35710 H 3617.51 -1.5701 5.29199 0
M  V30 35711 H 3617.99 -2.28222 3.75248 0
M  V30 35712 H 3618.6 -0.670946 4.19974 0
M  V30 35713 N 3616.91 -1.57436 0.0718977 0
M  V30 35714 C 3618.32 -1.80925 -0.460752 0
M  V30 35715 C 3618.67 -0.985811 -1.69636 0
M  V30 35716 O 3617.8 -0.208357 -2.15395 0
M  V30 35717 C 3618.39 -3.28153 -0.842681 0
M  V30 35718 C 3616.95 -3.52488 -1.32019 0
M  V30 35719 C 3616.1 -2.75613 -0.305418 0
M  V30 35720 H 3619.05 -1.55885 0.297593 0
M  V30 35721 H 3619.07 -3.40208 -1.70408 0
M  V30 35722 H 3618.58 -3.88058 0.0568012 0
M  V30 35723 H 3616.68 -2.97887 -2.23817 0
M  V30 35724 H 3616.8 -4.61181 -1.29805 0
M  V30 35725 H 3615.16 -2.42375 -0.782716 0
M  V30 35726 H 3615.94 -3.38256 0.586338 0
M  V30 35727 N 3618.39 0.201658 -1.56305 0
M  V30 35728 C 3619.62 0.939433 -1.84343 0
M  V30 35729 C 3620.03 1.77127 -0.653575 0
M  V30 35730 O 3619.39 1.78547 0.377781 0
M  V30 35731 C 3619.44 1.84092 -3.11115 0
M  V30 35732 O 3619.16 1.04268 -4.25511 0
M  V30 35733 C 3620.66 2.69093 -3.52284 0
M  V30 35734 H 3617.88 0.274408 -0.612324 0
M  V30 35735 H 3620.43 0.210888 -2.0341 0
M  V30 35736 H 3618.58 2.52317 -2.93964 0
M  V30 35737 H 3618.99 1.65641 -4.97658 0
M  V30 35738 H 3620.47 3.28015 -4.43971 0
M  V30 35739 H 3620.95 3.42477 -2.74965 0
M  V30 35740 H 3621.55 2.0625 -3.71942 0
M  V30 35741 N 3619.87 1.50456 0.469128 0
M  V30 35742 C 3621.09 1.65303 1.24429 0
M  V30 35743 C 3621.51 0.337163 1.85765 0
M  V30 35744 O 3620.87 -0.681088 1.69315 0
M  V30 35745 C 3620.92 2.7456 2.35158 0
M  V30 35746 O 3620.64 4.01045 1.76337 0
M  V30 35747 C 3622.14 3.00397 3.26001 0
M  V30 35748 H 3619.36 0.555593 0.376241 0
M  V30 35749 H 3621.9 1.9669 0.559743 0
M  V30 35750 H 3620.06 2.4586 2.99385 0
M  V30 35751 H 3620.47 4.61481 2.4927 0
M  V30 35752 H 3621.95 3.80503 3.99902 0
M  V30 35753 H 3622.42 2.11544 3.84897 0
M  V30 35754 H 3623.03 3.30635 2.67509 0
M  V30 35755 N 3621.34 -0.722439 1.40066 0
M  V30 35756 C 3622.57 -1.5116 1.41273 0
M  V30 35757 C 3622.99 -1.88797 0.0105756 0
M  V30 35758 O 3622.34 -1.54972 -0.96384 0
M  V30 35759 C 3622.4 -2.79127 2.29718 0
M  V30 35760 O 3622.12 -2.43084 3.64475 0
M  V30 35761 C 3623.62 -3.73071 2.39443 0
M  V30 35762 H 3620.84 -0.466719 0.482094 0
M  V30 35763 H 3623.38 -0.891704 1.84035 0
M  V30 35764 H 3621.54 -3.37418 1.90336 0
M  V30 35765 H 3621.95 -3.25376 4.11377 0
M  V30 35766 H 3623.42 -4.5972 3.05551 0
M  V30 35767 H 3623.9 -4.157 1.41738 0
M  V30 35768 H 3624.51 -3.20694 2.79348 0
M  V30 35769 N 3622.82 -1.2545 -0.953947 0
M  V30 35770 C 3624.23 -1.09337 -1.51335 0
M  V30 35771 C 3624.59 0.330664 -1.93394 0
M  V30 35772 O 3623.71 1.22071 -1.78683 0
M  V30 35773 C 3624.31 -1.97862 -2.7502 0
M  V30 35774 C 3622.86 -1.85933 -3.2727 0
M  V30 35775 C 3622.01 -1.91972 -2.00105 0
M  V30 35776 H 3624.96 -1.38726 -0.770771 0
M  V30 35777 H 3624.98 -1.519 -3.48865 0
M  V30 35778 H 3624.5 -3.01498 -2.44378 0
M  V30 35779 H 3622.6 -0.851831 -3.62732 0
M  V30 35780 H 3622.71 -2.7078 -3.9524 0
M  V30 35781 H 3621.07 -1.35866 -2.15436 0
M  V30 35782 H 3621.86 -2.97214 -1.7181 0
M  V30 35783 N 3624.3 1.15667 -1.07047 0
M  V30 35784 C 3625.55 1.85722 -0.786783 0
M  V30 35785 C 3625.86 1.83042 0.689572 0
M  V30 35786 O 3627.07 2.4875 1.08791 0
M  V30 35787 C 3625.53 3.33323 -1.35735 0
M  V30 35788 C 3625.13 3.44457 -2.8645 0
M  V30 35789 C 3626.88 4.08582 -1.15155 0
M  V30 35790 C 3624.78 4.86187 -3.36713 0
M  V30 35791 H 3623.71 0.695732 -0.290642 0
M  V30 35792 H 3626.37 1.3049 -1.29014 0
M  V30 35793 H 3624.75 3.88207 -0.78174 0
M  V30 35794 H 3625.92 2.99694 -3.50029 0
M  V30 35795 H 3624.24 2.82639 -3.05785 0
M  V30 35796 H 3626.83 5.13174 -1.50188 0
M  V30 35797 H 3627.18 4.16202 -0.0903891 0
M  V30 35798 H 3627.71 3.59959 -1.69336 0
M  V30 35799 H 3624.45 4.8375 -4.42341 0
M  V30 35800 H 3623.97 5.31544 -2.77887 0
M  V30 35801 H 3625.65 5.55033 -3.32487 0
M  V30 35802 N 3625.78 0.854133 1.32447 0
M  V30 35803 C 3627.01 0.471223 2.01462 0
M  V30 35804 C 3627.42 -0.931925 1.64197 0
M  V30 35805 O 3626.78 -1.60805 0.863023 0
M  V30 35806 C 3626.83 0.600085 3.56485 0
M  V30 35807 O 3626.55 1.94796 3.92411 0
M  V30 35808 C 3628.05 0.216114 4.42773 0
M  V30 35809 H 3625.27 0.185287 0.644911 0
M  V30 35810 H 3627.82 1.15093 1.69038 0
M  V30 35811 H 3625.97 -0.0318807 3.87387 0
M  V30 35812 H 3626.39 1.94436 4.87129 0
M  V30 35813 H 3627.86 0.357283 5.50843 0
M  V30 35814 H 3628.34 -0.843393 4.31026 0
M  V30 35815 H 3628.94 0.823132 4.17258 0
M  V30 35816 N 3627.26 -1.45231 0.61202 0
M  V30 35817 C 3628.49 -2.06578 0.115446 0
M  V30 35818 C 3628.9 -1.4559 -1.20203 0
M  V30 35819 O 3628.26 -0.571698 -1.73314 0
M  V30 35820 C 3628.31 -3.61491 -0.0259307 0
M  V30 35821 O 3628.03 -4.20202 1.23943 0
M  V30 35822 C 3629.53 -4.39832 -0.553445 0
M  V30 35823 H 3626.75 -0.667246 0.0708773 0
M  V30 35824 H 3629.29 -1.86406 0.84101 0
M  V30 35825 H 3627.45 -3.80989 -0.701842 0
M  V30 35826 H 3627.86 -5.13429 1.07196 0
M  V30 35827 H 3629.34 -5.48714 -0.601439 0
M  V30 35828 H 3629.81 -4.09925 -1.57663 0
M  V30 35829 H 3630.42 -4.25208 0.0885702 0
M  V30 35830 N 3628.74 -0.351436 -1.53632 0
M  V30 35831 C 3629.96 0.243816 -2.05458 0
M  V30 35832 C 3630.38 1.43587 -1.2259 0
M  V30 35833 O 3629.74 1.80593 -0.26312 0
M  V30 35834 C 3629.79 0.651164 -3.55587 0
M  V30 35835 O 3629.51 -0.493492 -4.35312 0
M  V30 35836 C 3631.01 1.3063 -4.23616 0
M  V30 35837 H 3628.23 0.0456711 -0.669444 0
M  V30 35838 H 3630.77 -0.50571 -1.98148 0
M  V30 35839 H 3628.93 1.35062 -3.63094 0
M  V30 35840 H 3629.34 -0.167199 -5.24233 0
M  V30 35841 H 3630.82 1.54201 -5.30025 0
M  V30 35842 H 3631.29 2.26229 -3.76453 0
M  V30 35843 H 3631.9 0.648664 -4.20324 0
M  V30 35844 N 3630.21 1.57396 -0.0802459 0
M  V30 35845 C 3631.44 1.98138 0.595719 0
M  V30 35846 C 3631.86 0.9589 1.62636 0
M  V30 35847 O 3631.21 -0.0533995 1.82422 0
M  V30 35848 C 3631.26 3.38952 1.25674 0
M  V30 35849 O 3630.99 4.37284 0.26734 0
M  V30 35850 C 3632.49 3.94616 2.01973 0
M  V30 35851 H 3629.71 0.651438 0.160841 0
M  V30 35852 H 3632.25 2.03911 -0.155147 0
M  V30 35853 H 3630.41 3.3424 1.95864 0
M  V30 35854 H 3630.82 5.19216 0.742604 0
M  V30 35855 H 3632.29 4.95339 2.43604 0
M  V30 35856 H 3632.77 3.3162 2.87967 0
M  V30 35857 H 3633.38 4.02755 1.36632 0
M  V30 35858 N 3631.69 -0.193366 1.56409 0
M  V30 35859 C 3632.92 -0.929643 1.84838 0
M  V30 35860 C 3633.33 -1.76778 0.662959 0
M  V30 35861 O 3632.69 -1.78745 -0.368307 0
M  V30 35862 C 3632.74 -1.8244 3.12087 0
M  V30 35863 O 3632.46 -1.0201 4.26058 0
M  V30 35864 C 3633.96 -2.67221 3.53706 0
M  V30 35865 H 3631.18 -0.271157 0.613771 0
M  V30 35866 H 3633.73 -0.200098 2.03519 0
M  V30 35867 H 3631.88 -2.50754 2.95298 0
M  V30 35868 H 3632.3 -1.62999 4.98529 0
M  V30 35869 H 3633.77 -3.25656 4.45704 0
M  V30 35870 H 3634.25 -3.41014 2.76777 0
M  V30 35871 H 3634.85 -2.04274 3.73031 0
M  V30 35872 N 3633.17 -1.50702 -0.461142 0
M  V30 35873 C 3634.42 -1.62429 -1.21428 0
M  V30 35874 C 3634.75 -0.328262 -1.91406 0
M  V30 35875 O 3634.02 0.670866 -1.82564 0
M  V30 35876 C 3634.31 -2.81144 -2.25011 0
M  V30 35877 C 3634.16 -4.20657 -1.59273 0
M  V30 35878 C 3635.48 -2.95402 -3.26229 0
M  V30 35879 H 3632.6 -0.591168 -0.440102 0
M  V30 35880 H 3635.24 -1.83119 -0.506694 0
M  V30 35881 H 3633.39 -2.63634 -2.85358 0
M  V30 35882 H 3635.06 -4.49781 -1.02446 0
M  V30 35883 H 3633.3 -4.24454 -0.89559 0
M  V30 35884 H 3633.98 -4.9967 -2.34593 0
M  V30 35885 H 3636.45 -3.11465 -2.75914 0
M  V30 35886 H 3635.33 -3.80074 -3.96024 0
M  V30 35887 H 3635.59 -2.06442 -3.9094 0
M  V30 35888 N 3634.65 0.715001 -1.40447 0
M  V30 35889 C 3635.88 1.50409 -1.42073 0
M  V30 35890 C 3636.29 1.88789 -0.0205879 0
M  V30 35891 O 3635.65 1.55481 0.955608 0
M  V30 35892 C 3635.7 2.77905 -2.31195 0
M  V30 35893 O 3635.42 2.41148 -3.65759 0
M  V30 35894 C 3636.92 3.71796 -2.41418 0
M  V30 35895 H 3634.14 0.464155 -0.484562 0
M  V30 35896 H 3636.68 0.881932 -1.84505 0
M  V30 35897 H 3634.84 3.36404 -1.92123 0
M  V30 35898 H 3635.25 3.2319 -4.13096 0
M  V30 35899 H 3636.73 4.58093 -3.07984 0
M  V30 35900 H 3637.2 4.14943 -1.43941 0
M  V30 35901 H 3637.81 3.19208 -2.81045 0
M  V30 35902 N 3636.13 1.25954 0.947281 0
M  V30 35903 C 3637.54 1.10138 1.50753 0
M  V30 35904 C 3637.89 -0.320403 1.93566 0
M  V30 35905 O 3637.01 -1.21122 1.79328 0
M  V30 35906 C 3637.61 1.99318 2.73967 0
M  V30 35907 C 3636.17 1.87666 3.2628 0
M  V30 35908 C 3635.31 1.93031 1.99084 0
M  V30 35909 H 3638.26 1.39132 0.763403 0
M  V30 35910 H 3638.29 1.53748 3.48054 0
M  V30 35911 H 3637.8 3.0279 2.42776 0
M  V30 35912 H 3635.9 0.871055 3.62275 0
M  V30 35913 H 3636.01 2.72873 3.93799 0
M  V30 35914 H 3634.38 1.37007 2.14712 0
M  V30 35915 H 3635.16 2.98121 1.70232 0
M  V30 35916 N 3637.6 -1.15097 1.07659 0
M  V30 35917 C 3638.83 -1.89833 0.822858 0
M  V30 35918 C 3639.25 -1.78181 -0.62425 0
M  V30 35919 O 3638.6 -1.13589 -1.42842 0
M  V30 35920 C 3638.66 -3.40074 1.22604 0
M  V30 35921 O 3638.38 -3.51394 2.61637 0
M  V30 35922 C 3639.88 -4.31826 1.00207 0
M  V30 35923 H 3637.1 -0.601544 0.297298 0
M  V30 35924 H 3639.64 -1.4581 1.43386 0
M  V30 35925 H 3637.8 -3.81749 0.659297 0
M  V30 35926 H 3638.21 -4.44659 2.7817 0
M  V30 35927 H 3639.68 -5.35647 1.33365 0
M  V30 35928 H 3640.16 -4.39157 -0.0614093 0
M  V30 35929 H 3640.77 -3.95898 1.55387 0
M  V30 35930 N 3639.08 -0.861145 -1.31993 0
M  V30 35931 C 3640.49 -0.521469 -1.7927 0
M  V30 35932 C 3640.84 0.9611 -1.71048 0
M  V30 35933 O 3639.97 1.75001 -1.27293 0
M  V30 35934 C 3640.56 -0.939789 -3.25505 0
M  V30 35935 C 3639.12 -0.65191 -3.70712 0
M  V30 35936 C 3638.27 -1.13597 -2.52965 0
M  V30 35937 H 3641.22 -1.04772 -1.19199 0
M  V30 35938 H 3641.24 -0.258821 -3.79619 0
M  V30 35939 H 3640.75 -2.01886 -3.31457 0
M  V30 35940 H 3638.86 0.416167 -3.70269 0
M  V30 35941 H 3638.97 -1.22275 -4.63234 0
M  V30 35942 H 3637.33 -0.556014 -2.48557 0
M  V30 35943 H 3638.12 -2.22228 -2.61667 0
M  V30 35944 N 3640.56 1.44905 -0.619713 0
M  V30 35945 C 3641.79 2.06514 -0.126399 0
M  V30 35946 C 3642.2 1.46226 1.1943 0
M  V30 35947 O 3641.56 0.580882 1.73009 0
M  V30 35948 C 3641.61 3.61499 0.00675965 0
M  V30 35949 O 3641.33 4.19539 -1.2617 0
M  V30 35950 C 3642.83 4.40119 0.530112 0
M  V30 35951 H 3640.05 0.666861 -0.0744149 0
M  V30 35952 H 3642.6 1.85958 -0.850883 0
M  V30 35953 H 3640.75 3.81356 0.681627 0
M  V30 35954 H 3641.17 5.12853 -1.09917 0
M  V30 35955 H 3642.64 5.49025 0.572331 0
M  V30 35956 H 3643.12 4.10756 1.55487 0
M  V30 35957 H 3643.72 4.25155 -0.111119 0
M  V30 35958 N 3642.04 0.359579 1.53443 0
M  V30 35959 C 3643.45 -0.120922 1.86308 0
M  V30 35960 C 3643.8 -1.48665 1.28036 0
M  V30 35961 O 3642.93 -2.07914 0.600077 0
M  V30 35962 C 3643.52 -0.226196 3.38044 0
M  V30 35963 C 3642.08 -0.650945 3.70729 0
M  V30 35964 C 3641.23 0.20553 2.76537 0
M  V30 35965 H 3644.18 0.578595 1.47777 0
M  V30 35966 H 3644.2 -1.05085 3.65701 0
M  V30 35967 H 3643.71 0.767941 3.80426 0
M  V30 35968 H 3641.81 -1.65353 3.339 0
M  V30 35969 H 3641.92 -0.429719 4.77169 0
M  V30 35970 H 3640.29 -0.324656 2.52622 0
M  V30 35971 H 3641.07 1.1971 3.21752 0
M  V30 35972 N 3643.52 -1.57351 0.0885919 0
M  V30 35973 C 3644.74 -1.98451 -0.585203 0
M  V30 35974 C 3645.16 -0.967511 -1.62125 0
M  V30 35975 O 3644.52 0.0437245 -1.82448 0
M  V30 35976 C 3644.57 -3.39613 -1.23875 0
M  V30 35977 O 3644.29 -4.37419 -0.244146 0
M  V30 35978 C 3645.79 -3.95681 -1.99878 0
M  V30 35979 H 3643.01 -0.652282 -0.157384 0
M  V30 35980 H 3645.55 -2.03825 0.165959 0
M  V30 35981 H 3643.71 -3.35274 -1.94089 0
M  V30 35982 H 3644.12 -5.19603 -0.715058 0
M  V30 35983 H 3645.6 -4.96624 -2.40974 0
M  V30 35984 H 3646.07 -3.33142 -2.86205 0
M  V30 35985 H 3646.68 -4.03474 -1.34494 0
M  V30 35986 N 3644.99 0.185069 -1.5651 0
M  V30 35987 C 3646.24 0.902107 -1.80849 0
M  V30 35988 C 3646.56 1.83371 -0.663327 0
M  V30 35989 O 3645.83 1.93306 0.31772 0
M  V30 35990 H 3644.41 0.336107 -0.667114 0
M  V30 35991 H 3647.08 0.188176 -1.93989 0
M  V30 35992 H 3646.17 1.48724 -2.74386 0
M  V30 35993 N 3646.47 1.50945 0.453144 0
M  V30 35994 C 3647.7 1.66613 1.22669 0
M  V30 35995 C 3648.12 0.356847 1.85397 0
M  V30 35996 O 3647.47 -0.663092 1.70027 0
M  V30 35997 C 3647.52 2.77038 2.32233 0
M  V30 35998 O 3647.24 4.02892 1.72074 0
M  V30 35999 C 3648.75 3.03837 3.22797 0
M  V30 36000 H 3645.97 0.559552 0.370327 0
M  V30 36001 H 3648.51 1.97273 0.538849 0
M  V30 36002 H 3646.66 2.49022 2.96761 0
M  V30 36003 H 3647.08 4.64099 2.44361 0
M  V30 36004 H 3648.55 3.84723 3.95844 0
M  V30 36005 H 3649.03 2.15614 3.82632 0
M  V30 36006 H 3649.64 3.33453 2.63987 0
M  V30 36007 N 3647.95 -0.707543 1.40825 0
M  V30 36008 C 3648.88 -1.83263 1.3765 0
M  V30 36009 C 3649.9 -1.60364 0.280575 0
M  V30 36010 O 3651.08 -1.70089 0.541483 0
M  V30 36011 C 3648.18 -3.19814 1.12126 0
M  V30 36012 C 3647.36 -3.69842 2.33529 0
M  V30 36013 C 3646.42 -4.85029 2.04043 0
M  V30 36014 O 3645.44 -4.97263 2.7698 0
M  V30 36015 N 3646.64 -5.71409 1.02332 0
M  V30 36016 H 3649.41 -1.86482 2.34615 0
M  V30 36017 H 3646.97 -0.889401 1.35282 0
M  V30 36018 H 3648.96 -3.9448 0.903732 0
M  V30 36019 H 3647.53 -3.11693 0.237996 0
M  V30 36020 H 3646.75 -2.86217 2.7106 0
M  V30 36021 H 3648.04 -4.00004 3.14443 0
M  V30 36022 H 3647.44 -5.64143 0.41941 0
M  V30 36023 H 3646 -6.46026 0.865685 0
M  V30 36024 N 3649.43 -1.26454 -0.940588 0
M  V30 36025 C 3650.66 -1.14813 -1.72121 0
M  V30 36026 C 3651.07 0.296571 -1.86456 0
M  V30 36027 O 3650.43 1.20301 -1.37236 0
M  V30 36028 C 3650.48 -1.81271 -3.12767 0
M  V30 36029 O 3650.2 -3.20095 -2.99117 0
M  V30 36030 C 3651.7 -1.75591 -4.07042 0
M  V30 36031 H 3648.92 -0.399783 -0.538901 0
M  V30 36032 H 3651.47 -1.67085 -1.1791 0
M  V30 36033 H 3649.62 -1.32935 -3.63878 0
M  V30 36034 H 3650.03 -3.52991 -3.8794 0
M  V30 36035 H 3651.51 -2.26728 -5.03288 0
M  V30 36036 H 3651.99 -0.722542 -4.33216 0
M  V30 36037 H 3652.59 -2.23481 -3.61851 0
M  V30 36038 N 3650.91 1.14525 -1.08268 0
M  V30 36039 C 3652.32 1.671 -0.832731 0
M  V30 36040 C 3652.67 1.85443 0.640743 0
M  V30 36041 O 3651.79 1.56455 1.49502 0
M  V30 36042 C 3652.39 3.03534 -1.50507 0
M  V30 36043 C 3650.95 3.53149 -1.3024 0
M  V30 36044 C 3650.09 2.28659 -1.56877 0
M  V30 36045 H 3653.05 0.986096 -1.24346 0
M  V30 36046 H 3653.07 3.68922 -0.931491 0
M  V30 36047 H 3652.58 2.90152 -2.57746 0
M  V30 36048 H 3650.68 3.71756 -0.250648 0
M  V30 36049 H 3650.79 4.34012 -2.02905 0
M  V30 36050 H 3649.16 2.34662 -0.990255 0
M  V30 36051 H 3649.94 2.17854 -2.6532 0
M  V30 36052 N 3652.39 0.868133 1.31534 0
M  V30 36053 C 3653.61 0.492564 2.00951 0
M  V30 36054 C 3654.03 -0.914458 1.65176 0
M  V30 36055 O 3653.39 -1.5988 0.88003 0
M  V30 36056 C 3653.44 0.637861 3.55828 0
M  V30 36057 O 3653.16 1.98947 3.90322 0
M  V30 36058 C 3654.66 0.263064 4.42519 0
M  V30 36059 H 3651.88 0.192116 0.642909 0
M  V30 36060 H 3654.42 1.16879 1.67808 0
M  V30 36061 H 3652.58 0.00920869 3.87399 0
M  V30 36062 H 3652.99 1.99592 4.8504 0
M  V30 36063 H 3654.47 0.415687 5.50433 0
M  V30 36064 H 3654.94 -0.797629 4.31896 0
M  V30 36065 H 3655.55 0.867341 4.16362 0
M  V30 36066 N 3653.86 -1.44574 0.627389 0
M  V30 36067 C 3655.09 -2.06444 0.13735 0
M  V30 36068 C 3655.51 -1.46857 -1.18652 0
M  V30 36069 O 3654.86 -0.590048 -1.72698 0
M  V30 36070 C 3654.91 -3.61498 0.0124116 0
M  V30 36071 O 3654.64 -4.18864 1.28393 0
M  V30 36072 C 3656.14 -4.40394 -0.506764 0
M  V30 36073 H 3653.36 -0.666457 0.0779504 0
M  V30 36074 H 3655.9 -1.85504 0.860733 0
M  V30 36075 H 3654.06 -3.81712 -0.661393 0
M  V30 36076 H 3654.47 -5.12263 1.12635 0
M  V30 36077 H 3655.94 -5.49321 -0.543207 0
M  V30 36078 H 3656.42 -4.11575 -1.53307 0
M  V30 36079 H 3657.03 -4.2509 0.133664 0
M  V30 36080 N 3655.34 -0.367711 -1.5325 0
M  V30 36081 C 3656.57 0.222011 -2.05705 0
M  V30 36082 C 3656.98 1.42278 -1.24106 0
M  V30 36083 O 3656.34 1.80304 -0.282259 0
M  V30 36084 C 3656.39 0.613412 -3.56258 0
M  V30 36085 O 3656.11 -0.539634 -4.34764 0
M  V30 36086 C 3657.61 1.2613 -4.24978 0
M  V30 36087 H 3654.83 0.0385681 -0.669891 0
M  V30 36088 H 3657.38 -0.526697 -1.97601 0
M  V30 36089 H 3655.53 1.31203 -3.64506 0
M  V30 36090 H 3655.95 -0.222791 -5.24027 0
M  V30 36091 H 3657.42 1.48571 -5.3163 0
M  V30 36092 H 3657.9 2.22224 -3.78832 0
M  V30 36093 H 3658.5 0.604047 -4.20989 0
M  V30 36094 N 3656.82 1.57302 -0.0969353 0
M  V30 36095 C 3658.23 1.81635 0.43191 0
M  V30 36096 C 3658.58 1.01267 1.68046 0
M  V30 36097 O 3657.71 0.242598 2.15036 0
M  V30 36098 C 3658.3 3.29452 0.790368 0
M  V30 36099 C 3656.86 3.54544 1.26395 0
M  V30 36100 C 3656.01 2.76064 0.261532 0
M  V30 36101 H 3658.96 1.55392 -0.322356 0
M  V30 36102 H 3658.98 3.42876 1.64974 0
M  V30 36103 H 3658.49 3.87919 -0.118531 0
M  V30 36104 H 3656.59 3.0141 2.1905 0
M  V30 36105 H 3656.71 4.63187 1.22451 0
M  V30 36106 H 3655.07 2.4359 0.744057 0
M  V30 36107 H 3655.85 3.3728 -0.640078 0
M  V30 36108 N 3658.3 -0.176766 1.56606 0
M  V30 36109 C 3659.55 -0.892546 1.80877 0
M  V30 36110 C 3659.86 -1.83647 0.673277 0
M  V30 36111 O 3661.07 -2.59422 0.800778 0
M  V30 36112 C 3659.52 -1.63763 3.20484 0
M  V30 36113 C 3659.13 -0.737608 4.41886 0
M  V30 36114 C 3660.87 -2.34195 3.54052 0
M  V30 36115 C 3658.78 -1.48261 5.72514 0
M  V30 36116 H 3657.71 -0.33703 0.674482 0
M  V30 36117 H 3660.36 -0.145542 1.82922 0
M  V30 36118 H 3658.74 -2.42919 3.1274 0
M  V30 36119 H 3659.92 0.0165996 4.60797 0
M  V30 36120 H 3658.23 -0.143204 4.16154 0
M  V30 36121 H 3660.83 -2.90518 4.48891 0
M  V30 36122 H 3661.17 -3.09271 2.78671 0
M  V30 36123 H 3661.71 -1.61988 3.63324 0
M  V30 36124 H 3658.44 -0.774285 6.50911 0
M  V30 36125 H 3657.96 -2.21028 5.5759 0
M  V30 36126 H 3659.64 -2.03155 6.14278 0
M  V30 36127 N 3659.78 -1.51183 -0.445132 0
M  V30 36128 C 3661 -1.67261 -1.21784 0
M  V30 36129 C 3661.42 -0.366674 -1.85205 0
M  V30 36130 O 3660.78 0.654066 -1.70377 0
M  V30 36131 C 3660.83 -2.78266 -2.3076 0
M  V30 36132 O 3660.55 -4.03799 -1.69935 0
M  V30 36133 C 3662.05 -3.05545 -3.21181 0
M  V30 36134 H 3659.27 -0.561509 -0.367354 0
M  V30 36135 H 3661.81 -1.97556 -0.52838 0
M  V30 36136 H 3659.97 -2.50592 -2.95436 0
M  V30 36137 H 3660.38 -4.65388 -2.41897 0
M  V30 36138 H 3661.86 -3.86817 -3.93798 0
M  V30 36139 H 3662.33 -2.17641 -3.81483 0
M  V30 36140 H 3662.94 -3.34848 -2.62215 0
M  V30 36141 N 3661.25 0.700065 -1.41198 0
M  V30 36142 C 3662.48 1.48894 -1.4366 0
M  V30 36143 C 3662.9 1.88756 -0.0406103 0
M  V30 36144 O 3662.25 1.56486 0.939063 0
M  V30 36145 C 3662.3 2.75437 -2.3413 0
M  V30 36146 O 3662.03 2.37255 -3.68296 0
M  V30 36147 C 3663.53 3.69214 -2.45348 0
M  V30 36148 H 3660.75 0.45899 -0.489458 0
M  V30 36149 H 3663.29 0.862313 -1.8543 0
M  V30 36150 H 3661.45 3.34347 -1.9568 0
M  V30 36151 H 3661.86 3.1879 -4.16501 0
M  V30 36152 H 3663.33 4.54801 -3.12826 0
M  V30 36153 H 3663.81 4.13393 -1.48334 0
M  V30 36154 H 3664.42 3.16209 -2.84415 0
M  V30 36155 N 3662.73 1.26951 0.933869 0
M  V30 36156 C 3663.96 1.15724 1.7151 0
M  V30 36157 C 3664.37 -0.286679 1.86611 0
M  V30 36158 O 3663.73 -1.19572 1.37872 0
M  V30 36159 C 3663.78 1.82927 3.11801 0
M  V30 36160 O 3663.5 3.21677 2.97415 0
M  V30 36161 C 3665 1.77747 4.06105 0
M  V30 36162 H 3662.22 0.402636 0.536773 0
M  V30 36163 H 3664.77 1.67708 1.17022 0
M  V30 36164 H 3662.92 1.34863 3.63168 0
M  V30 36165 H 3663.34 3.55044 3.86063 0
M  V30 36166 H 3664.81 2.29394 5.02078 0
M  V30 36167 H 3665.29 0.745506 4.32827 0
M  V30 36168 H 3665.89 2.25397 3.60661 0
M  V30 36169 N 3664.21 -1.13949 1.08873 0
M  V30 36170 C 3665.44 -1.8895 0.842946 0
M  V30 36171 C 3665.85 -1.78833 -0.605316 0
M  V30 36172 O 3665.21 -1.15098 -1.41629 0
M  V30 36173 C 3665.26 -3.38755 1.26204 0
M  V30 36174 O 3664.98 -3.48599 2.6535 0
M  V30 36175 C 3666.48 -4.30739 1.04781 0
M  V30 36176 H 3663.7 -0.598357 0.303662 0
M  V30 36177 H 3666.25 -1.44281 1.44925 0
M  V30 36178 H 3664.4 -3.81028 0.699749 0
M  V30 36179 H 3664.82 -4.41683 2.82871 0
M  V30 36180 H 3666.29 -5.34202 1.39039 0
M  V30 36181 H 3666.77 -4.39197 -0.0148274 0
M  V30 36182 H 3667.37 -3.94227 1.59577 0
M  V30 36183 N 3665.69 -0.875096 -1.31072 0
M  V30 36184 C 3666.92 -0.503214 -2.00687 0
M  V30 36185 C 3667.33 0.905685 -1.65659 0
M  V30 36186 O 3666.69 1.59411 -0.888496 0
M  V30 36187 C 3666.74 -0.656722 -3.55485 0
M  V30 36188 O 3666.46 -2.01014 -3.89262 0
M  V30 36189 C 3667.96 -0.286528 -4.42373 0
M  V30 36190 H 3665.18 -0.195523 -0.641881 0
M  V30 36191 H 3667.72 -1.17767 -1.67186 0
M  V30 36192 H 3665.88 -0.0297533 -3.87389 0
M  V30 36193 H 3666.29 -2.02161 -4.83974 0
M  V30 36194 H 3667.77 -0.444872 -5.50204 0
M  V30 36195 H 3668.24 0.774713 -4.32313 0
M  V30 36196 H 3668.85 -0.88941 -4.15896 0
M  V30 36197 N 3667.17 1.44239 -0.635047 0
M  V30 36198 C 3668.41 2.02307 -0.141311 0
M  V30 36199 C 3668.75 1.49867 1.23505 0
M  V30 36200 O 3668.02 0.684323 1.82064 0
M  V30 36201 C 3668.3 3.59857 -0.132259 0
M  V30 36202 C 3668.16 4.2257 -1.54124 0
M  V30 36203 C 3669.48 4.36761 0.541109 0
M  V30 36204 H 3666.59 0.735104 -0.0528246 0
M  V30 36205 H 3669.24 1.71762 -0.812269 0
M  V30 36206 H 3667.39 3.86011 0.439088 0
M  V30 36207 H 3669.06 4.0751 -2.16178 0
M  V30 36208 H 3667.3 3.79916 -2.09396 0
M  V30 36209 H 3667.97 5.31597 -1.48691 0
M  V30 36210 H 3670.45 4.16063 0.0551872 0
M  V30 36211 H 3669.32 5.46463 0.516646 0
M  V30 36212 H 3669.59 4.11658 1.61214 0
M  V30 36213 N 3668.64 0.375833 1.53053 0
M  V30 36214 C 3669.87 -0.211098 2.0582 0
M  V30 36215 C 3670.29 -1.41618 1.24859 0
M  V30 36216 O 3669.64 -1.80152 0.291817 0
M  V30 36217 C 3669.7 -0.59451 3.56578 0
M  V30 36218 O 3669.42 0.562683 4.34471 0
M  V30 36219 C 3670.92 -1.23874 4.25641 0
M  V30 36220 H 3668.14 -0.035015 0.670086 0
M  V30 36221 H 3670.68 0.537169 1.97319 0
M  V30 36222 H 3668.84 -1.29269 3.65196 0
M  V30 36223 H 3669.25 0.250579 5.23901 0
M  V30 36224 H 3670.72 -1.45749 5.32411 0
M  V30 36225 H 3671.2 -2.20211 3.80005 0
M  V30 36226 H 3671.81 -0.581712 4.21303 0
M  V30 36227 N 3670.12 -1.57248 0.105276 0
M  V30 36228 C 3671.53 -1.81862 -0.422272 0
M  V30 36229 C 3671.88 -1.02157 -1.67506 0
M  V30 36230 O 3671.01 -0.253998 -2.14904 0
M  V30 36231 C 3671.6 -3.29867 -0.772885 0
M  V30 36232 C 3670.16 -3.55209 -1.24513 0
M  V30 36233 C 3669.31 -2.76199 -0.246888 0
M  V30 36234 H 3672.26 -1.55218 0.330592 0
M  V30 36235 H 3672.28 -3.43746 -1.63154 0
M  V30 36236 H 3671.79 -3.87851 0.139101 0
M  V30 36237 H 3669.9 -3.02568 -2.17448 0
M  V30 36238 H 3670.01 -4.6383 -1.19993 0
M  V30 36239 H 3668.37 -2.43981 -0.731128 0
M  V30 36240 H 3669.16 -3.36936 0.657956 0
M  V30 36241 N 3671.6 0.168458 -1.56697 0
M  V30 36242 C 3672.83 0.90012 -1.86294 0
M  V30 36243 C 3673.24 1.757 -0.690999 0
M  V30 36244 O 3672.6 1.79308 0.339824 0
M  V30 36245 C 3672.65 1.77451 -3.1495 0
M  V30 36246 O 3672.37 0.952192 -4.27627 0
M  V30 36247 C 3673.87 2.6156 -3.57913 0
M  V30 36248 H 3671.09 0.261358 -0.618007 0
M  V30 36249 H 3673.64 0.167694 -2.03811 0
M  V30 36250 H 3671.79 2.46025 -2.9925 0
M  V30 36251 H 3672.21 1.55048 -5.01059 0
M  V30 36252 H 3673.68 3.18524 -4.50829 0
M  V30 36253 H 3674.16 3.36568 -2.82168 0
M  V30 36254 H 3674.76 1.98314 -3.76234 0
M  V30 36255 N 3673.08 1.51417 0.437109 0
M  V30 36256 C 3674.49 1.56572 1.01697 0
M  V30 36257 C 3674.84 0.389324 1.92298 0
M  V30 36258 O 3673.97 -0.493853 2.10689 0
M  V30 36259 C 3674.56 2.83757 1.85114 0
M  V30 36260 C 3673.12 2.91482 2.38149 0
M  V30 36261 C 3672.27 2.51236 1.17369 0
M  V30 36262 H 3675.22 1.5719 0.218371 0
M  V30 36263 H 3675.24 2.67532 2.70567 0
M  V30 36264 H 3674.75 3.69359 1.19146 0
M  V30 36265 H 3672.85 2.10311 3.07571 0
M  V30 36266 H 3672.96 3.95137 2.70931 0
M  V30 36267 H 3671.33 2.0444 1.51909 0
M  V30 36268 H 3672.11 3.39182 0.530116 0
M  V30 36269 N 3674.56 -0.692567 1.41567 0
M  V30 36270 C 3675.78 -1.4813 1.44448 0
M  V30 36271 C 3676.2 -1.88732 0.0506199 0
M  V30 36272 O 3675.56 -1.56982 -0.930751 0
M  V30 36273 C 3675.61 -2.74191 2.35587 0
M  V30 36274 O 3675.33 -2.35298 3.69549 0
M  V30 36275 C 3676.83 -3.67908 2.47303 0
M  V30 36276 H 3674.05 -0.456388 0.491885 0
M  V30 36277 H 3676.59 -0.852467 1.85885 0
M  V30 36278 H 3674.75 -3.33305 1.97451 0
M  V30 36279 H 3675.16 -3.16577 4.18186 0
M  V30 36280 H 3676.64 -4.53136 3.15233 0
M  V30 36281 H 3677.11 -4.126 1.50524 0
M  V30 36282 H 3677.72 -3.14697 2.86088 0
M  V30 36283 N 3676.03 -1.27445 -0.927123 0
M  V30 36284 C 3677.45 -1.12523 -1.48982 0
M  V30 36285 C 3677.8 0.289568 -1.94051 0
M  V30 36286 O 3676.92 1.18254 -1.81232 0
M  V30 36287 C 3677.52 -2.03651 -2.70761 0
M  V30 36288 C 3676.08 -1.92833 -3.23253 0
M  V30 36289 C 3675.22 -1.96173 -1.95988 0
M  V30 36290 H 3678.17 -1.40329 -0.741172 0
M  V30 36291 H 3678.19 -1.59266 -3.45564 0
M  V30 36292 H 3677.71 -3.06614 -2.37928 0
M  V30 36293 H 3675.81 -0.92858 -3.60844 0
M  V30 36294 H 3675.92 -2.79103 -3.89408 0
M  V30 36295 H 3674.28 -1.40405 -2.12505 0
M  V30 36296 H 3675.07 -3.00791 -1.65467 0
M  V30 36297 N 3677.51 1.1337 -1.09476 0
M  V30 36298 C 3678.74 1.885 -0.852955 0
M  V30 36299 C 3679.16 1.79152 0.595824 0
M  V30 36300 O 3678.51 1.15847 1.41016 0
M  V30 36301 C 3678.56 3.38081 -1.27999 0
M  V30 36302 O 3678.28 3.47187 -2.67195 0
M  V30 36303 C 3679.79 4.30177 -1.07064 0
M  V30 36304 H 3677.01 0.596738 -0.306831 0
M  V30 36305 H 3679.55 1.43511 -1.45688 0
M  V30 36306 H 3677.7 3.80651 -0.719946 0
M  V30 36307 H 3678.12 4.40177 -2.85209 0
M  V30 36308 H 3679.59 5.33458 -1.4187 0
M  V30 36309 H 3680.07 4.39199 -0.00846452 0
M  V30 36310 H 3680.68 3.93376 -1.61666 0
M  V30 36311 N 3678.99 0.882035 1.30606 0
M  V30 36312 C 3680.24 0.498013 1.95868 0
M  V30 36313 C 3680.56 -0.955375 1.69993 0
M  V30 36314 O 3679.83 -1.67134 1.02191 0
M  V30 36315 H 3678.41 0.181178 0.724696 0
M  V30 36316 H 3681.07 1.12447 1.59191 0
M  V30 36317 H 3680.17 0.665807 3.04915 0
M  V30 36318 N 3680.47 -1.439 0.642688 0
M  V30 36319 C 3681.7 -2.06286 0.159238 0
M  V30 36320 C 3682.11 -1.48107 -1.17088 0
M  V30 36321 O 3681.47 -0.608332 -1.72063 0
M  V30 36322 C 3681.52 -3.61464 0.0507526 0
M  V30 36323 O 3681.24 -4.17478 1.32828 0
M  V30 36324 C 3682.74 -4.40907 -0.460025 0
M  V30 36325 H 3679.96 -0.665593 0.0850147 0
M  V30 36326 H 3682.51 -1.8458 0.88036 0
M  V30 36327 H 3680.66 -3.82392 -0.62087 0
M  V30 36328 H 3681.07 -5.1104 1.18062 0
M  V30 36329 H 3682.55 -5.49866 -0.484914 0
M  V30 36330 H 3683.03 -4.13178 -1.48933 0
M  V30 36331 H 3683.63 -4.24924 0.178743 0
M  V30 36332 N 3681.95 -0.383945 -1.52852 0
M  V30 36333 C 3682.88 0.488777 -2.23928 0
M  V30 36334 C 3683.89 1.03113 -1.25982 0
M  V30 36335 O 3685.08 0.934372 -1.52091 0
M  V30 36336 C 3682.18 1.68952 -2.93783 0
M  V30 36337 C 3681.35 1.27548 -4.1839 0
M  V30 36338 C 3680.41 2.34032 -4.71292 0
M  V30 36339 O 3679.44 1.95661 -5.34514 0
M  V30 36340 N 3680.64 3.65873 -4.50685 0
M  V30 36341 H 3683.41 -0.120136 -2.99459 0
M  V30 36342 H 3680.97 -0.210032 -1.60532 0
M  V30 36343 H 3682.96 2.39702 -3.26075 0
M  V30 36344 H 3681.53 2.2049 -2.21592 0
M  V30 36345 H 3680.75 0.397088 -3.92195 0
M  V30 36346 H 3682.04 0.975418 -4.99363 0
M  V30 36347 H 3681.44 3.99812 -4.00208 0
M  V30 36348 H 3679.99 4.32672 -4.87481 0
M  V30 36349 N 3683.43 1.5719 -0.113614 0
M  V30 36350 C 3684.65 1.99357 0.553557 0
M  V30 36351 C 3685.07 0.993182 1.60566 0
M  V30 36352 O 3684.43 -0.0146931 1.82494 0
M  V30 36353 C 3684.48 3.41541 1.18456 0
M  V30 36354 O 3684.2 4.37752 0.174525 0
M  V30 36355 C 3685.7 3.98811 1.93557 0
M  V30 36356 H 3682.92 0.654703 0.146987 0
M  V30 36357 H 3685.46 2.03536 -0.198365 0
M  V30 36358 H 3683.62 3.38319 1.8873 0
M  V30 36359 H 3684.03 5.20675 0.632303 0
M  V30 36360 H 3685.51 5.00395 2.33043 0
M  V30 36361 H 3685.98 3.37653 2.80868 0
M  V30 36362 H 3686.59 4.05563 1.28058 0
M  V30 36363 N 3684.9 -0.160146 1.56784 0
M  V30 36364 C 3686.31 -0.721522 1.72195 0
M  V30 36365 C 3686.67 -1.82276 0.725933 0
M  V30 36366 O 3685.79 -2.16119 -0.110305 0
M  V30 36367 C 3686.39 -1.31558 3.12215 0
M  V30 36368 C 3684.94 -1.82366 3.29272 0
M  V30 36369 C 3684.09 -0.706963 2.68137 0
M  V30 36370 H 3687.04 0.06538 1.58565 0
M  V30 36371 H 3687.06 -2.18534 3.11485 0
M  V30 36372 H 3686.58 -0.513849 3.84683 0
M  V30 36373 H 3684.68 -2.65147 2.61778 0
M  V30 36374 H 3684.79 -1.96141 4.3711 0
M  V30 36375 H 3683.15 -1.13026 2.28248 0
M  V30 36376 H 3683.94 0.083101 3.43199 0
M  V30 36377 N 3686.38 -1.51647 -0.429072 0
M  V30 36378 C 3687.61 -1.68543 -1.20003 0
M  V30 36379 C 3688.02 -0.386297 -1.84806 0
M  V30 36380 O 3687.38 0.635958 -1.71061 0
M  V30 36381 C 3687.43 -2.80698 -2.27796 0
M  V30 36382 O 3687.15 -4.05579 -1.65642 0
M  V30 36383 C 3688.65 -3.08934 -3.17922 0
M  V30 36384 H 3685.87 -0.565373 -0.361378 0
M  V30 36385 H 3688.42 -1.98105 -0.507397 0
M  V30 36386 H 3686.57 -2.53712 -2.92761 0
M  V30 36387 H 3686.99 -4.67928 -2.36947 0
M  V30 36388 H 3688.46 -3.90972 -3.89673 0
M  V30 36389 H 3688.94 -2.21675 -3.79153 0
M  V30 36390 H 3689.54 -3.37611 -2.58648 0
M  V30 36391 N 3687.86 0.685049 -1.41932 0
M  V30 36392 C 3689.09 1.47362 -1.45231 0
M  V30 36393 C 3689.5 1.88703 -0.0606281 0
M  V30 36394 O 3688.86 1.57473 0.922413 0
M  V30 36395 C 3688.91 2.72938 -2.37038 0
M  V30 36396 O 3688.63 2.33335 -3.70791 0
M  V30 36397 C 3690.13 3.66591 -2.4925 0
M  V30 36398 H 3687.35 0.453773 -0.494299 0
M  V30 36399 H 3689.9 0.842597 -1.86335 0
M  V30 36400 H 3688.05 3.32253 -1.99215 0
M  V30 36401 H 3688.47 3.14355 -4.19859 0
M  V30 36402 H 3689.94 4.51458 -3.17632 0
M  V30 36403 H 3690.42 4.11796 -1.5271 0
M  V30 36404 H 3691.02 3.13175 -2.87752 0
M  V30 36405 N 3689.34 1.27935 0.920351 0
M  V30 36406 C 3690.57 1.17536 1.70273 0
M  V30 36407 C 3690.98 -0.26687 1.86904 0
M  V30 36408 O 3690.34 -1.18103 1.39133 0
M  V30 36409 C 3690.39 1.86224 3.09843 0
M  V30 36410 O 3690.11 3.24813 2.93986 0
M  V30 36411 C 3691.61 1.82044 4.04197 0
M  V30 36412 H 3688.83 0.408306 0.532473 0
M  V30 36413 H 3691.37 1.6894 1.15237 0
M  V30 36414 H 3689.53 1.38707 3.61717 0
M  V30 36415 H 3689.94 3.59118 3.82275 0
M  V30 36416 H 3691.42 2.34706 4.99617 0
M  V30 36417 H 3691.89 0.791371 4.32012 0
M  V30 36418 H 3692.5 2.2921 3.5825 0
M  V30 36419 N 3690.82 -1.12788 1.10076 0
M  V30 36420 C 3692.23 -1.65754 0.85921 0
M  V30 36421 C 3692.58 -1.86438 -0.61116 0
M  V30 36422 O 3691.7 -1.58813 -1.46994 0
M  V30 36423 C 3692.3 -3.01101 1.55317 0
M  V30 36424 C 3690.86 -3.51033 1.35842 0
M  V30 36425 C 3690 -2.26134 1.60495 0
M  V30 36426 H 3692.95 -0.966189 1.25899 0
M  V30 36427 H 3692.98 -3.67393 0.990065 0
M  V30 36428 H 3692.49 -2.86015 2.6233 0
M  V30 36429 H 3690.59 -3.7131 0.309759 0
M  V30 36430 H 3690.7 -4.30729 2.09785 0
M  V30 36431 H 3689.07 -2.33056 1.02746 0
M  V30 36432 H 3689.85 -2.13606 2.68752 0
M  V30 36433 N 3692.29 -0.888949 -1.30136 0
M  V30 36434 C 3693.54 -0.505435 -1.95265 0
M  V30 36435 C 3693.86 0.950968 -1.70927 0
M  V30 36436 O 3695.06 1.44151 -2.30071 0
M  V30 36437 C 3693.52 -0.852998 -3.49645 0
M  V30 36438 C 3693.13 -2.32744 -3.82798 0
M  V30 36439 C 3694.87 -0.538875 -4.21066 0
M  V30 36440 C 3692.78 -2.61643 -5.30374 0
M  V30 36441 H 3691.71 -0.185291 -0.730878 0
M  V30 36442 H 3694.36 -1.08447 -1.48025 0
M  V30 36443 H 3692.74 -0.203007 -3.95479 0
M  V30 36444 H 3693.91 -3.02208 -3.4786 0
M  V30 36445 H 3692.23 -2.6095 -3.2449 0
M  V30 36446 H 3694.83 -0.731769 -5.29669 0
M  V30 36447 H 3695.17 0.521966 -4.13015 0
M  V30 36448 H 3695.7 -1.14623 -3.80928 0
M  V30 36449 H 3692.44 -3.66483 -5.4348 0
M  V30 36450 H 3691.96 -1.96792 -5.66598 0
M  V30 36451 H 3693.64 -2.4735 -5.97852 0
M  V30 36452 N 3693.77 1.43557 -0.65031 0
M  V30 36453 C 3695 2.06199 -0.170176 0
M  V30 36454 C 3695.41 1.48726 1.16301 0
M  V30 36455 O 3694.77 0.617449 1.71738 0
M  V30 36456 C 3694.82 3.61432 -0.0699212 0
M  V30 36457 O 3694.54 4.16768 -1.3504 0
M  V30 36458 C 3696.04 4.41144 0.436637 0
M  V30 36459 H 3693.26 0.665132 -0.0885433 0
M  V30 36460 H 3695.81 1.84111 -0.890136 0
M  V30 36461 H 3693.96 3.82716 0.600582 0
M  V30 36462 H 3694.38 5.10406 -1.20771 0
M  V30 36463 H 3695.85 5.50115 0.455746 0
M  V30 36464 H 3696.33 4.13962 1.46739 0
M  V30 36465 H 3696.93 4.24823 -0.201275 0
M  V30 36466 N 3695.25 0.392045 1.52646 0
M  V30 36467 C 3696.48 -0.189256 2.06033 0
M  V30 36468 C 3696.89 -1.40286 1.26354 0
M  V30 36469 O 3696.25 -1.79832 0.310909 0
M  V30 36470 C 3696.3 -0.556657 3.57188 0
M  V30 36471 O 3696.02 0.608733 4.3385 0
M  V30 36472 C 3697.52 -1.19353 4.26931 0
M  V30 36473 H 3694.74 -0.0279059 0.670419 0
M  V30 36474 H 3697.29 0.558067 1.96738 0
M  V30 36475 H 3695.44 -1.25388 3.66547 0
M  V30 36476 H 3695.86 0.306131 5.23606 0
M  V30 36477 H 3697.33 -1.40094 5.33927 0
M  V30 36478 H 3697.81 -2.16169 3.82319 0
M  V30 36479 H 3698.41 -0.536995 4.21896 0
M  V30 36480 N 3696.73 -1.57127 0.121948 0
M  V30 36481 C 3697.96 -1.99648 -0.542977 0
M  V30 36482 C 3698.37 -1.00168 -1.60037 0
M  V30 36483 O 3697.73 0.0050148 -1.82499 0
M  V30 36484 C 3697.78 -3.42164 -1.16644 0
M  V30 36485 O 3697.5 -4.37839 -0.151308 0
M  V30 36486 C 3699 -3.99832 -1.9144 0
M  V30 36487 H 3696.22 -0.655473 -0.143513 0
M  V30 36488 H 3698.77 -2.03428 0.209156 0
M  V30 36489 H 3696.92 -3.39315 -1.86933 0
M  V30 36490 H 3697.33 -5.21003 -0.604682 0
M  V30 36491 H 3698.81 -5.01624 -2.30386 0
M  V30 36492 H 3699.29 -3.39138 -2.79074 0
M  V30 36493 H 3699.89 -4.06236 -1.25906 0
M  V30 36494 N 3698.21 0.151829 -1.56867 0
M  V30 36495 C 3699.43 0.88031 -1.87238 0
M  V30 36496 C 3699.85 1.74958 -0.709595 0
M  V30 36497 O 3699.21 1.79659 0.320787 0
M  V30 36498 C 3699.26 1.74101 -3.16814 0
M  V30 36499 O 3698.98 0.906783 -4.28613 0
M  V30 36500 C 3700.48 2.57749 -3.60667 0
M  V30 36501 H 3697.7 0.254789 -0.620745 0
M  V30 36502 H 3700.24 0.146068 -2.03978 0
M  V30 36503 H 3698.4 2.42837 -3.01843 0
M  V30 36504 H 3698.81 1.49725 -5.02676 0
M  V30 36505 H 3700.29 3.13724 -4.54182 0
M  V30 36506 H 3700.76 3.33556 -2.85722 0
M  V30 36507 H 3701.37 1.94312 -3.78316 0
M  V30 36508 N 3699.68 1.51872 0.421024 0
M  V30 36509 C 3700.91 1.69177 1.19108 0
M  V30 36510 C 3701.33 0.396092 1.84598 0
M  V30 36511 O 3700.68 -0.626877 1.71396 0
M  V30 36512 C 3700.74 2.81902 2.26304 0
M  V30 36513 O 3700.46 4.06452 1.63489 0
M  V30 36514 C 3701.96 3.10616 3.16279 0
M  V30 36515 H 3699.18 0.567282 0.358375 0
M  V30 36516 H 3701.72 1.98372 0.496884 0
M  V30 36517 H 3699.88 2.55261 2.91412 0
M  V30 36518 H 3700.29 4.69178 2.34462 0
M  V30 36519 H 3701.76 3.93033 3.87594 0
M  V30 36520 H 3702.24 2.23682 3.77972 0
M  V30 36521 H 3702.85 3.38978 2.56854 0
M  V30 36522 N 3701.16 -0.677513 1.42294 0
M  V30 36523 C 3702.41 -1.4397 1.4283 0
M  V30 36524 C 3702.74 -1.94151 0.0435382 0
M  V30 36525 O 3702.02 -1.70729 -0.931764 0
M  V30 36526 C 3702.3 -2.63868 2.45042 0
M  V30 36527 C 3702.15 -2.19337 3.92698 0
M  V30 36528 C 3703.47 -3.66083 2.44277 0
M  V30 36529 H 3700.59 -0.522167 0.520106 0
M  V30 36530 H 3703.23 -0.770188 1.7369 0
M  V30 36531 H 3701.38 -3.20989 2.18857 0
M  V30 36532 H 3703.05 -1.67404 4.29853 0
M  V30 36533 H 3701.3 -1.50937 4.06694 0
M  V30 36534 H 3701.97 -3.05447 4.59789 0
M  V30 36535 H 3704.44 -3.18674 2.67556 0
M  V30 36536 H 3703.32 -4.47559 3.17777 0
M  V30 36537 H 3703.58 -4.17024 1.46776 0
M  V30 36538 N 3702.64 -1.28421 -0.913554 0
M  V30 36539 C 3703.87 -1.18438 -1.69647 0
M  V30 36540 C 3704.28 0.256955 -1.87043 0
M  V30 36541 O 3703.64 1.17363 -1.39757 0
M  V30 36542 C 3703.69 -1.87865 -3.08851 0
M  V30 36543 O 3703.41 -3.26368 -2.9226 0
M  V30 36544 C 3704.91 -1.84185 -4.03225 0
M  V30 36545 H 3702.13 -0.411124 -0.5303 0
M  V30 36546 H 3704.68 -1.69549 -1.14339 0
M  V30 36547 H 3702.83 -1.40623 -3.60976 0
M  V30 36548 H 3703.25 -3.61141 -3.80365 0
M  V30 36549 H 3704.72 -2.37352 -4.98365 0
M  V30 36550 H 3705.2 -0.814271 -4.31586 0
M  V30 36551 H 3705.8 -2.31106 -3.57029 0
M  V30 36552 N 3704.12 1.12202 -1.10672 0
M  V30 36553 C 3705.53 1.65296 -0.867988 0
M  V30 36554 C 3705.88 1.8676 0.601264 0
M  V30 36555 O 3705.01 1.5959 1.4615 0
M  V30 36556 C 3705.6 3.00274 -1.56912 0
M  V30 36557 C 3704.16 3.50307 -1.37702 0
M  V30 36558 C 3703.31 2.2528 -1.61692 0
M  V30 36559 H 3706.26 0.959499 -1.26409 0
M  V30 36560 H 3706.28 3.66863 -1.00954 0
M  V30 36561 H 3705.79 2.8462 -2.63843 0
M  V30 36562 H 3703.89 3.71141 -0.329446 0
M  V30 36563 H 3704 4.2961 -2.12066 0
M  V30 36564 H 3702.37 2.32508 -1.03981 0
M  V30 36565 H 3703.15 2.12177 -2.69881 0
M  V30 36566 N 3705.6 0.895838 1.29663 0
M  V30 36567 C 3706.82 0.535078 1.99861 0
M  V30 36568 C 3707.24 -0.879216 1.67079 0
M  V30 36569 O 3706.6 -1.57978 0.913745 0
M  V30 36570 C 3706.65 0.713194 3.54395 0
M  V30 36571 O 3706.37 2.07182 3.86015 0
M  V30 36572 C 3707.87 0.356869 4.41861 0
M  V30 36573 H 3705.09 0.20571 0.63869 0
M  V30 36574 H 3707.63 1.20412 1.65291 0
M  V30 36575 H 3705.79 0.0913797 3.87292 0
M  V30 36576 H 3706.2 2.09835 4.80697 0
M  V30 36577 H 3707.68 0.532349 5.49427 0
M  V30 36578 H 3708.15 -0.705838 4.33491 0
M  V30 36579 H 3708.76 0.955462 4.14429 0
M  V30 36580 N 3707.07 -1.43211 0.657914 0
M  V30 36581 C 3708.49 -1.84985 0.252476 0
M  V30 36582 C 3708.84 -1.55074 -1.20193 0
M  V30 36583 O 3707.96 -1.00206 -1.91801 0
M  V30 36584 C 3708.56 -3.35779 0.451447 0
M  V30 36585 C 3707.12 -3.76266 0.100285 0
M  V30 36586 C 3706.26 -2.66907 0.752056 0
M  V30 36587 H 3709.21 -1.33297 0.861262 0
M  V30 36588 H 3709.23 -3.79303 -0.301623 0
M  V30 36589 H 3708.75 -3.57517 1.51007 0
M  V30 36590 H 3706.85 -3.60139 -0.955554 0
M  V30 36591 H 3706.96 -4.7617 0.529026 0
M  V30 36592 H 3705.32 -2.54028 0.184868 0
M  V30 36593 H 3706.11 -2.91473 1.8138 0
M  V30 36594 N 3708.55 -0.400135 -1.52436 0
M  V30 36595 C 3709.78 0.178327 -2.0613 0
M  V30 36596 C 3710.2 1.39614 -1.27096 0
M  V30 36597 O 3709.55 1.79665 -0.320441 0
M  V30 36598 C 3709.6 0.537707 -3.57479 0
M  V30 36599 O 3709.32 -0.631733 -4.33521 0
M  V30 36600 C 3710.83 1.17087 -4.27558 0
M  V30 36601 H 3708.05 0.0243501 -0.670558 0
M  V30 36602 H 3710.59 -0.568493 -1.96439 0
M  V30 36603 H 3708.74 1.23442 -3.67207 0
M  V30 36604 H 3709.16 -0.333895 -5.23436 0
M  V30 36605 H 3710.63 1.37261 -5.34662 0
M  V30 36606 H 3711.11 2.14138 -3.8346 0
M  V30 36607 H 3711.72 0.514613 -4.22175 0
M  V30 36608 N 3710.03 1.57061 -0.13028 0
M  V30 36609 C 3711.44 1.82511 0.393285 0
M  V30 36610 C 3711.79 1.04809 1.6586 0
M  V30 36611 O 3710.92 0.288156 2.14473 0
M  V30 36612 C 3711.51 3.31054 0.720308 0
M  V30 36613 C 3710.07 3.57145 1.18846 0
M  V30 36614 C 3709.22 2.76557 0.202915 0
M  V30 36615 H 3712.17 1.54673 -0.355244 0
M  V30 36616 H 3712.19 3.46298 1.57664 0
M  V30 36617 H 3711.7 3.8758 -0.200787 0
M  V30 36618 H 3709.8 3.05989 2.12607 0
M  V30 36619 H 3709.92 4.6568 1.12599 0
M  V30 36620 H 3708.28 2.45113 0.692221 0
M  V30 36621 H 3709.06 3.35847 -0.711476 0
M  V30 36622 N 3711.51 -0.143508 1.56945 0
M  V30 36623 C 3712.74 -0.870368 1.87702 0
M  V30 36624 C 3713.15 -1.74579 0.718864 0
M  V30 36625 O 3712.51 -1.79826 -0.311255 0
M  V30 36626 C 3712.56 -1.72418 3.17733 0
M  V30 36627 O 3712.28 -0.884039 4.29088 0
M  V30 36628 C 3713.78 -2.55833 3.62028 0
M  V30 36629 H 3711 -0.251493 0.622087 0
M  V30 36630 H 3713.55 -0.135249 2.04052 0
M  V30 36631 H 3711.7 -2.41233 3.03126 0
M  V30 36632 H 3712.12 -1.47057 5.03463 0
M  V30 36633 H 3713.59 -3.11311 4.55839 0
M  V30 36634 H 3714.07 -3.32036 2.87486 0
M  V30 36635 H 3714.67 -1.92303 3.79341 0
M  V30 36636 N 3712.99 -1.52093 -0.412964 0
M  V30 36637 C 3714.24 -1.65636 -1.15798 0
M  V30 36638 C 3714.56 -0.386771 -1.91126 0
M  V30 36639 O 3713.83 0.598229 -1.86542 0
M  V30 36640 H 3712.41 -0.610505 -0.430456 0
M  V30 36641 H 3715.07 -1.89121 -0.471094 0
M  V30 36642 H 3714.16 -2.49563 -1.87417 0
M  V30 36643 N 3714.47 0.669957 -1.42651 0
M  V30 36644 C 3715.69 1.45813 -1.46786 0
M  V30 36645 C 3716.11 1.88628 -0.0806392 0
M  V30 36646 O 3715.47 1.58443 0.905659 0
M  V30 36647 C 3715.52 2.70409 -2.39919 0
M  V30 36648 O 3715.24 2.29389 -3.73245 0
M  V30 36649 C 3716.74 3.63927 -2.53125 0
M  V30 36650 H 3713.96 0.448505 -0.499084 0
M  V30 36651 H 3716.5 0.822786 -1.87218 0
M  V30 36652 H 3714.66 3.30121 -2.02728 0
M  V30 36653 H 3715.07 3.09884 -4.23169 0
M  V30 36654 H 3716.55 4.48063 -3.22402 0
M  V30 36655 H 3717.02 4.10153 -1.57069 0
M  V30 36656 H 3717.63 3.10105 -2.91058 0
M  V30 36657 N 3715.94 1.28904 0.90673 0
M  V30 36658 C 3716.88 1.09236 2.01495 0
M  V30 36659 C 3717.89 0.0419664 1.62746 0
M  V30 36660 O 3719.08 0.285759 1.76198 0
M  V30 36661 C 3716.18 0.639313 3.32815 0
M  V30 36662 C 3715.35 1.76668 4.00134 0
M  V30 36663 C 3714.41 1.30582 5.0974 0
M  V30 36664 O 3713.44 2.0093 5.32556 0
M  V30 36665 N 3714.64 0.172852 5.80243 0
M  V30 36666 H 3717.4 2.04677 2.18923 0
M  V30 36667 H 3714.96 1.2075 1.07847 0
M  V30 36668 H 3716.96 0.314461 4.03476 0
M  V30 36669 H 3715.53 -0.222443 3.11808 0
M  V30 36670 H 3714.75 2.26077 3.22929 0
M  V30 36671 H 3716.03 2.52274 4.41854 0
M  V30 36672 H 3715.43 -0.413831 5.64184 0
M  V30 36673 H 3713.99 -0.092678 6.51734 0
M  V30 36674 N 3717.42 -1.11614 1.11266 0
M  V30 36675 C 3718.65 -1.87119 0.882835 0
M  V30 36676 C 3719.06 -1.80077 -0.567247 0
M  V30 36677 O 3718.42 -1.18076 -1.39156 0
M  V30 36678 C 3718.47 -3.36002 1.33361 0
M  V30 36679 O 3718.19 -3.42892 2.72684 0
M  V30 36680 C 3719.69 -4.28419 1.13894 0
M  V30 36681 H 3716.91 -0.591781 0.316285 0
M  V30 36682 H 3719.46 -1.41175 1.47953 0
M  V30 36683 H 3717.61 -3.79458 0.780414 0
M  V30 36684 H 3718.03 -4.35584 2.92176 0
M  V30 36685 H 3719.5 -5.31133 1.50339 0
M  V30 36686 H 3719.98 -4.3913 0.0783362 0
M  V30 36687 H 3720.58 -3.90754 1.67903 0
M  V30 36688 N 3718.9 -0.902701 -1.29186 0
M  V30 36689 C 3720.31 -0.578238 -1.7752 0
M  V30 36690 C 3720.66 0.906196 -1.74019 0
M  V30 36691 O 3719.79 1.70863 -1.32796 0
M  V30 36692 C 3720.38 -1.04287 -3.2235 0
M  V30 36693 C 3718.94 -0.769519 -3.6845 0
M  V30 36694 C 3718.09 -1.21587 -2.49222 0
M  V30 36695 H 3721.04 -1.08512 -1.15806 0
M  V30 36696 H 3721.06 -0.379463 -3.78603 0
M  V30 36697 H 3720.57 -2.12329 -3.24866 0
M  V30 36698 H 3718.67 0.298158 -3.71405 0
M  V30 36699 H 3718.79 -1.36951 -4.59109 0
M  V30 36700 H 3717.15 -0.634809 -2.46662 0
M  V30 36701 H 3717.93 -2.3044 -2.54465 0
M  V30 36702 N 3720.38 1.4286 -0.6655 0
M  V30 36703 C 3721.61 2.06007 -0.192036 0
M  V30 36704 C 3722.02 1.49951 1.14717 0
M  V30 36705 O 3721.38 0.635629 1.71073 0
M  V30 36706 C 3721.43 3.61338 -0.108252 0
M  V30 36707 O 3721.15 4.15312 -1.39453 0
M  V30 36708 C 3722.65 4.41583 0.389823 0
M  V30 36709 H 3719.87 0.664156 -0.0955929 0
M  V30 36710 H 3722.41 1.83156 -0.909614 0
M  V30 36711 H 3720.57 3.83332 0.559956 0
M  V30 36712 H 3720.98 5.09097 -1.26177 0
M  V30 36713 H 3722.46 5.50568 0.397374 0
M  V30 36714 H 3722.93 4.15495 1.42341 0
M  V30 36715 H 3723.54 4.24586 -0.246322 0
M  V30 36716 N 3721.86 0.408213 1.52221 0
M  V30 36717 C 3723.08 -0.167393 2.06222 0
M  V30 36718 C 3723.5 -1.38938 1.27835 0
M  V30 36719 O 3722.86 -1.79492 0.329965 0
M  V30 36720 C 3722.91 -0.518741 3.57759 0
M  V30 36721 O 3722.63 0.654715 4.3318 0
M  V30 36722 C 3724.13 -1.14818 4.28173 0
M  V30 36723 H 3721.35 -0.0207936 0.670678 0
M  V30 36724 H 3723.89 0.578903 1.96135 0
M  V30 36725 H 3722.05 -1.21493 3.67856 0
M  V30 36726 H 3722.46 0.36165 5.23252 0
M  V30 36727 H 3723.94 -1.34423 5.35382 0
M  V30 36728 H 3724.41 -2.12101 3.8459 0
M  V30 36729 H 3725.02 -0.492217 4.22442 0
M  V30 36730 N 3723.33 -1.56989 0.138607 0
M  V30 36731 C 3724.56 -2.00213 -0.521771 0
M  V30 36732 C 3724.98 -1.0186 -1.58965 0
M  V30 36733 O 3724.33 -0.014342 -1.82494 0
M  V30 36734 C 3724.38 -3.43382 -1.13008 0
M  V30 36735 O 3724.11 -4.37974 -0.104861 0
M  V30 36736 C 3725.61 -4.0184 -1.87188 0
M  V30 36737 H 3722.83 -0.656958 -0.136553 0
M  V30 36738 H 3725.37 -2.03194 0.23072 0
M  V30 36739 H 3723.53 -3.41279 -1.83324 0
M  V30 36740 H 3723.94 -5.21615 -0.549388 0
M  V30 36741 H 3725.41 -5.04039 -2.25052 0
M  V30 36742 H 3725.89 -3.42079 -2.75461 0
M  V30 36743 H 3726.5 -4.07549 -1.2159 0
M  V30 36744 N 3724.81 0.135183 -1.57019 0
M  V30 36745 C 3726.22 0.694036 -1.73321 0
M  V30 36746 C 3726.57 1.81098 -0.75484 0
M  V30 36747 O 3725.7 2.16267 0.0759083 0
M  V30 36748 C 3726.29 1.26574 -3.14268 0
M  V30 36749 C 3724.85 1.77104 -3.32131 0
M  V30 36750 C 3724 0.664216 -2.69228 0
M  V30 36751 H 3726.95 -0.0905981 -1.58441 0
M  V30 36752 H 3726.97 2.13551 -3.14922 0
M  V30 36753 H 3726.48 0.452584 -3.85452 0
M  V30 36754 H 3724.58 2.60949 -2.65963 0
M  V30 36755 H 3724.7 1.89162 -4.40175 0
M  V30 36756 H 3723.06 1.0938 -2.30017 0
M  V30 36757 H 3723.84 -0.137691 -3.43024 0
M  V30 36758 N 3726.29 1.5231 0.404892 0
M  V30 36759 C 3727.54 1.65804 1.14856 0
M  V30 36760 C 3727.85 0.396207 1.91545 0
M  V30 36761 O 3729.06 0.411016 2.68371 0
M  V30 36762 C 3727.51 2.92951 2.09063 0
M  V30 36763 C 3727.12 4.26258 1.37871 0
M  V30 36764 C 3728.87 3.15809 2.83663 0
M  V30 36765 C 3726.77 5.44525 2.30751 0
M  V30 36766 H 3725.7 0.617658 0.432452 0
M  V30 36767 H 3728.35 1.788 0.412664 0
M  V30 36768 H 3726.74 2.73665 2.86223 0
M  V30 36769 H 3727.91 4.56042 0.660463 0
M  V30 36770 H 3726.23 4.09536 0.752954 0
M  V30 36771 H 3728.82 4.01346 3.53306 0
M  V30 36772 H 3729.17 2.30218 3.46851 0
M  V30 36773 H 3729.7 3.35588 2.13601 0
M  V30 36774 H 3726.44 6.32476 1.72203 0
M  V30 36775 H 3725.96 5.19074 3.00537 0
M  V30 36776 H 3727.64 5.77772 2.91184 0
M  V30 36777 N 3727.77 -0.662382 1.43004 0
M  V30 36778 C 3729 -1.45032 1.47557 0
M  V30 36779 C 3729.41 -1.88582 0.0906414 0
M  V30 36780 O 3728.77 -1.58921 -0.897243 0
M  V30 36781 C 3728.82 -2.69133 2.4135 0
M  V30 36782 O 3728.54 -2.27407 3.74457 0
M  V30 36783 C 3730.04 -3.62579 2.55051 0
M  V30 36784 H 3727.26 -0.445851 0.501455 0
M  V30 36785 H 3729.81 -0.812846 1.87651 0
M  V30 36786 H 3727.96 -3.29041 2.04476 0
M  V30 36787 H 3728.37 -3.07635 4.24807 0
M  V30 36788 H 3729.85 -4.46347 3.24774 0
M  V30 36789 H 3730.33 -4.09315 1.59242 0
M  V30 36790 H 3730.93 -3.08557 2.92698 0
M  V30 36791 N 3729.25 -1.29383 -0.899882 0
M  V30 36792 C 3730.47 -1.2023 -1.68381 0
M  V30 36793 C 3730.89 0.237102 -1.87305 0
M  V30 36794 O 3730.25 1.15874 -1.40994 0
M  V30 36795 C 3730.3 -1.9113 -3.06841 0
M  V30 36796 O 3730.02 -3.29449 -2.88782 0
M  V30 36797 C 3731.52 -1.88452 -4.01249 0
M  V30 36798 H 3728.74 -0.416726 -0.525909 0
M  V30 36799 H 3731.28 -1.70752 -1.12534 0
M  V30 36800 H 3729.44 -1.44444 -3.59464 0
M  V30 36801 H 3729.85 -3.65155 -3.76513 0
M  V30 36802 H 3731.33 -2.42625 -4.9582 0
M  V30 36803 H 3731.8 -0.86 -4.30698 0
M  V30 36804 H 3732.41 -2.3488 -3.54558 0
M  V30 36805 N 3730.72 1.11022 -1.11856 0
M  V30 36806 C 3731.95 1.86648 -0.892746 0
M  V30 36807 C 3732.37 1.80375 0.557689 0
M  V30 36808 O 3731.72 1.18812 1.38527 0
M  V30 36809 C 3731.78 3.3529 -1.35141 0
M  V30 36810 O 3731.5 3.41441 -2.74499 0
M  V30 36811 C 3733 4.27809 -1.16164 0
M  V30 36812 H 3730.22 0.590095 -0.319419 0
M  V30 36813 H 3732.76 1.40388 -1.48699 0
M  V30 36814 H 3730.92 3.79039 -0.800526 0
M  V30 36815 H 3731.33 4.34028 -2.94482 0
M  V30 36816 H 3732.8 5.30328 -1.53153 0
M  V30 36817 H 3733.28 4.39082 -0.101623 0
M  V30 36818 H 3733.89 3.89858 -1.69973 0
M  V30 36819 N 3732.2 0.90954 1.28706 0
M  V30 36820 C 3733.43 0.556246 1.99282 0
M  V30 36821 C 3733.85 -0.861445 1.68002 0
M  V30 36822 O 3733.2 -1.57 0.930449 0
M  V30 36823 C 3733.25 0.750742 3.53619 0
M  V30 36824 O 3732.97 2.11264 3.83796 0
M  V30 36825 C 3734.48 0.403715 4.41458 0
M  V30 36826 H 3731.7 0.212473 0.636472 0
M  V30 36827 H 3734.24 1.22159 1.64005 0
M  V30 36828 H 3732.39 0.132452 3.87174 0
M  V30 36829 H 3732.81 2.14922 4.78444 0
M  V30 36830 H 3734.28 0.590593 5.48831 0
M  V30 36831 H 3734.76 -0.659821 4.34215 0
M  V30 36832 H 3735.37 0.999364 4.13392 0
M  V30 36833 N 3733.68 -1.42505 0.673067 0
M  V30 36834 C 3734.91 -2.05902 0.202959 0
M  V30 36835 C 3735.32 -1.50558 -1.1392 0
M  V30 36836 O 3734.68 -0.644692 -1.70734 0
M  V30 36837 C 3734.73 -3.61275 0.127413 0
M  V30 36838 O 3734.45 -4.14567 1.41654 0
M  V30 36839 C 3735.95 -4.41783 -0.366399 0
M  V30 36840 H 3733.17 -0.66364 0.0991138 0
M  V30 36841 H 3735.72 -1.82671 0.919314 0
M  V30 36842 H 3733.87 -3.83623 -0.53962 0
M  V30 36843 H 3734.29 -5.0842 1.28875 0
M  V30 36844 H 3735.76 -5.50771 -0.36817 0
M  V30 36845 H 3736.24 -4.16244 -1.40135 0
M  V30 36846 H 3736.84 -4.24449 0.268836 0
M  V30 36847 N 3735.16 -0.41628 -1.52003 0
M  V30 36848 C 3736.4 0.157398 -2.02188 0
M  V30 36849 C 3736.74 1.4418 -1.30099 0
M  V30 36850 O 3736.01 1.90141 -0.409459 0
M  V30 36851 C 3736.3 0.397784 -3.57896 0
M  V30 36852 C 3736.15 -0.903792 -4.40626 0
M  V30 36853 C 3737.47 1.17681 -4.24074 0
M  V30 36854 H 3734.59 0.0557308 -0.73489 0
M  V30 36855 H 3737.23 -0.55115 -1.81831 0
M  V30 36856 H 3735.38 1.00135 -3.75373 0
M  V30 36857 H 3737.05 -1.53972 -4.34845 0
M  V30 36858 H 3735.29 -1.51317 -4.06553 0
M  V30 36859 H 3735.96 -0.689899 -5.47672 0
M  V30 36860 H 3738.44 0.66576 -4.10739 0
M  V30 36861 H 3737.32 1.31376 -5.32946 0
M  V30 36862 H 3737.58 2.19936 -3.83511 0
M  V30 36863 N 3736.64 1.56914 -0.146931 0
M  V30 36864 C 3737.86 2.00487 0.511146 0
M  V30 36865 C 3738.28 1.02702 1.58423 0
M  V30 36866 O 3737.64 0.0240199 1.82484 0
M  V30 36867 C 3737.69 3.43977 1.11185 0
M  V30 36868 O 3737.41 4.38024 0.0816324 0
M  V30 36869 C 3738.91 4.02827 1.85054 0
M  V30 36870 H 3736.13 0.657673 0.133067 0
M  V30 36871 H 3738.67 2.03069 -0.241493 0
M  V30 36872 H 3736.83 3.42246 1.81511 0
M  V30 36873 H 3737.24 5.21899 0.521718 0
M  V30 36874 H 3738.72 5.05226 2.22376 0
M  V30 36875 H 3739.19 3.43535 2.73643 0
M  V30 36876 H 3739.8 4.08188 1.19427 0
M  V30 36877 N 3738.11 -0.126854 1.57089 0
M  V30 36878 C 3739.53 -0.684835 1.73686 0
M  V30 36879 C 3739.88 -1.80695 0.764433 0
M  V30 36880 O 3739 -2.16304 -0.0644381 0
M  V30 36881 C 3739.6 -1.24905 3.14935 0
M  V30 36882 C 3738.16 -1.7534 3.33066 0
M  V30 36883 C 3737.3 -0.649928 2.69576 0
M  V30 36884 H 3740.25 0.0989993 1.58391 0
M  V30 36885 H 3740.27 -2.11878 3.16051 0
M  V30 36886 H 3739.79 -0.432136 3.85687 0
M  V30 36887 H 3737.89 -2.59535 2.67344 0
M  V30 36888 H 3738 -1.86825 4.41172 0
M  V30 36889 H 3736.36 -1.08159 2.30594 0
M  V30 36890 H 3737.15 0.15588 3.42946 0
M  V30 36891 N 3739.59 -1.52523 -0.396809 0
M  V30 36892 C 3740.82 -1.71051 -1.16401 0
M  V30 36893 C 3741.24 -0.42541 -1.83945 0
M  V30 36894 O 3740.59 0.59953 -1.72371 0
M  V30 36895 C 3740.64 -2.85467 -2.21791 0
M  V30 36896 O 3740.36 -4.09001 -1.57002 0
M  V30 36897 C 3741.87 -3.15609 -3.11298 0
M  V30 36898 H 3739.09 -0.572911 -0.349304 0
M  V30 36899 H 3741.63 -1.99137 -0.465262 0
M  V30 36900 H 3739.78 -2.59864 -2.87314 0
M  V30 36901 H 3740.2 -4.72848 -2.26968 0
M  V30 36902 H 3741.67 -3.99149 -3.81292 0
M  V30 36903 H 3742.15 -2.29667 -3.74366 0
M  V30 36904 H 3742.76 -3.43021 -2.51429 0
M  V30 36905 N 3741.07 0.654789 -1.43354 0
M  V30 36906 C 3742.48 1.23593 -1.39935 0
M  V30 36907 C 3742.83 1.95931 -0.102626 0
M  V30 36908 O 3741.96 2.0115 0.797985 0
M  V30 36909 C 3742.55 2.24788 -2.53487 0
M  V30 36910 C 3741.11 2.78383 -2.53338 0
M  V30 36911 C 3740.26 1.53001 -2.3127 0
M  V30 36912 H 3743.21 0.446906 -1.52278 0
M  V30 36913 H 3743.23 3.06931 -2.24886 0
M  V30 36914 H 3742.74 1.7211 -3.4785 0
M  V30 36915 H 3740.84 3.35128 -1.6285 0
M  V30 36916 H 3740.96 3.26035 -3.51053 0
M  V30 36917 H 3739.32 1.80292 -1.79908 0
M  V30 36918 H 3740.1 1.0226 -3.27716 0
M  V30 36919 N 3742.55 1.29858 0.893007 0
M  V30 36920 C 3743.78 1.21122 1.67741 0
M  V30 36921 C 3744.19 -0.227165 1.87428 0
M  V30 36922 O 3743.55 -1.15125 1.41607 0
M  V30 36923 C 3743.6 1.92754 3.05823 0
M  V30 36924 O 3743.32 3.30976 2.8703 0
M  V30 36925 C 3744.82 1.90577 4.00244 0
M  V30 36926 H 3742.04 0.419509 0.523692 0
M  V30 36927 H 3744.59 1.71346 1.11627 0
M  V30 36928 H 3742.74 1.46348 3.58693 0
M  V30 36929 H 3743.16 3.67146 3.74572 0
M  V30 36930 H 3744.63 2.45251 4.94526 0
M  V30 36931 H 3745.11 0.882829 4.30236 0
M  V30 36932 H 3745.71 2.36757 3.53307 0
M  V30 36933 N 3744.03 -1.10427 1.12443 0
M  V30 36934 C 3745.44 -1.63894 0.894176 0
M  V30 36935 C 3745.79 -1.87693 -0.571476 0
M  V30 36936 O 3744.91 -1.61895 -1.43593 0
M  V30 36937 C 3745.51 -2.97739 1.61669 0
M  V30 36938 C 3744.07 -3.48072 1.43257 0
M  V30 36939 C 3743.22 -2.22679 1.65256 0
M  V30 36940 H 3746.17 -0.939267 1.2792 0
M  V30 36941 H 3746.19 -3.65211 1.06777 0
M  V30 36942 H 3745.7 -2.80386 2.68338 0
M  V30 36943 H 3743.8 -3.7057 0.38845 0
M  V30 36944 H 3743.91 -4.26182 2.18874 0
M  V30 36945 H 3742.28 -2.30825 1.07667 0
M  V30 36946 H 3743.06 -2.07857 2.73222 0
M  V30 36947 N 3745.51 -0.916353 -1.28221 0
M  V30 36948 C 3746.73 -0.566807 -1.98985 0
M  V30 36949 C 3747.15 0.852524 -1.68456 0
M  V30 36950 O 3746.51 1.56504 -0.938762 0
M  V30 36951 C 3746.56 -0.769485 -3.53215 0
M  V30 36952 O 3746.28 -2.13297 -3.8267 0
M  V30 36953 C 3747.78 -0.427121 -4.41238 0
M  V30 36954 H 3745 -0.215845 -0.635336 0
M  V30 36955 H 3747.54 -1.23027 -1.63354 0
M  V30 36956 H 3745.7 -0.152983 -3.87098 0
M  V30 36957 H 3746.11 -2.17456 -4.77298 0
M  V30 36958 H 3747.59 -0.619691 -5.48511 0
M  V30 36959 H 3748.06 0.636784 -4.34559 0
M  V30 36960 H 3748.67 -1.02127 -4.12856 0
M  V30 36961 N 3746.98 1.42146 -0.680615 0
M  V30 36962 C 3748.23 2.01059 -0.204893 0
M  V30 36963 C 3748.55 1.54115 1.19472 0
M  V30 36964 O 3747.82 0.76531 1.80332 0
M  V30 36965 H 3746.4 0.743448 -0.072759 0
M  V30 36966 H 3749.06 1.73982 -0.878426 0
M  V30 36967 H 3748.16 3.11388 -0.210683 0
M  V30 36968 N 3748.46 0.424336 1.5178 0
M  V30 36969 C 3749.69 -0.145511 2.06388 0
M  V30 36970 C 3750.1 -1.37574 1.29301 0
M  V30 36971 O 3749.46 -1.79132 0.348984 0
M  V30 36972 C 3749.51 -0.480767 3.58289 0
M  V30 36973 O 3749.23 0.700622 4.32461 0
M  V30 36974 C 3750.73 -1.1027 4.29366 0
M  V30 36975 H 3747.95 -0.013679 0.670861 0
M  V30 36976 H 3750.5 0.599673 1.9551 0
M  V30 36977 H 3748.65 -1.17585 3.69124 0
M  V30 36978 H 3749.07 0.417127 5.22839 0
M  V30 36979 H 3750.54 -1.28737 5.36778 0
M  V30 36980 H 3751.02 -2.0801 3.86818 0
M  V30 36981 H 3751.62 -0.447383 4.2294 0
M  V30 36982 N 3749.94 -1.56833 0.15525 0
M  V30 36983 C 3750.87 -2.14319 -0.812411 0
M  V30 36984 C 3751.88 -1.09469 -1.20501 0
M  V30 36985 O 3753.07 -1.36716 -1.14765 0
M  V30 36986 C 3750.17 -2.65778 -2.10274 0
M  V30 36987 C 3749.35 -3.95116 -1.87623 0
M  V30 36988 C 3748.41 -4.31801 -3.00723 0
M  V30 36989 O 3747.43 -4.99975 -2.72055 0
M  V30 36990 N 3748.63 -3.92052 -4.28107 0
M  V30 36991 H 3751.4 -2.97975 -0.321054 0
M  V30 36992 H 3748.96 -1.61876 -0.0280576 0
M  V30 36993 H 3750.95 -2.87328 -2.85 0
M  V30 36994 H 3749.52 -1.868 -2.50648 0
M  V30 36995 H 3748.74 -3.82108 -0.968891 0
M  V30 36996 H 3750.03 -4.79617 -1.69837 0
M  V30 36997 H 3749.43 -3.37137 -4.54264 0
M  V30 36998 H 3747.98 -4.18636 -4.99587 0
M  V30 36999 N 3751.42 0.118521 -1.57154 0
M  V30 37000 C 3752.65 0.840396 -1.89063 0
M  V30 37001 C 3753.06 1.73413 -0.746547 0
M  V30 37002 O 3752.42 1.80299 0.282606 0
M  V30 37003 C 3752.47 1.67342 -3.20436 0
M  V30 37004 O 3752.19 0.815663 -4.3044 0
M  V30 37005 C 3753.69 2.50041 -3.66053 0
M  V30 37006 H 3750.91 0.241564 -0.626009 0
M  V30 37007 H 3753.45 0.102769 -2.04242 0
M  V30 37008 H 3751.61 2.3638 -3.06926 0
M  V30 37009 H 3752.02 1.39028 -5.05738 0
M  V30 37010 H 3753.5 3.0402 -4.60734 0
M  V30 37011 H 3753.97 3.27421 -2.92733 0
M  V30 37012 H 3754.58 1.86244 -3.82352 0
M  V30 37013 N 3752.9 1.52731 0.388715 0
M  V30 37014 C 3754.31 1.59728 0.966638 0
M  V30 37015 C 3754.66 0.450306 1.90963 0
M  V30 37016 O 3753.78 -0.426573 2.12154 0
M  V30 37017 C 3754.38 2.89503 1.75993 0
M  V30 37018 C 3752.94 2.98911 2.28755 0
M  V30 37019 C 3752.08 2.54843 1.09317 0
M  V30 37020 H 3755.03 1.57806 0.168252 0
M  V30 37021 H 3755.06 2.76005 2.61919 0
M  V30 37022 H 3754.57 3.72962 1.07335 0
M  V30 37023 H 3752.67 2.1999 3.00724 0
M  V30 37024 H 3752.78 4.03557 2.58222 0
M  V30 37025 H 3751.15 2.09169 1.45328 0
M  V30 37026 H 3751.93 3.40697 0.421939 0
M  V30 37027 N 3754.37 -0.647178 1.43699 0
M  V30 37028 C 3755.6 -1.43459 1.49087 0
M  V30 37029 C 3756.02 -1.88476 0.110638 0
M  V30 37030 O 3755.37 -1.59863 -0.880337 0
M  V30 37031 C 3755.42 -2.66558 2.44191 0
M  V30 37032 O 3755.15 -2.23422 3.76847 0
M  V30 37033 C 3756.65 -3.59854 2.58882 0
M  V30 37034 H 3753.87 -0.440508 0.506156 0
M  V30 37035 H 3756.41 -0.792897 1.88503 0
M  V30 37036 H 3754.57 -3.26854 2.07955 0
M  V30 37037 H 3754.98 -3.03112 4.28046 0
M  V30 37038 H 3756.45 -4.42877 3.2949 0
M  V30 37039 H 3756.93 -4.07603 1.63575 0
M  V30 37040 H 3757.54 -3.05436 2.95955 0
M  V30 37041 N 3755.85 -1.3033 -0.886108 0
M  V30 37042 C 3757.08 -1.22009 -1.67097 0
M  V30 37043 C 3757.5 0.217222 -1.87546 0
M  V30 37044 O 3756.85 1.14373 -1.42215 0
M  V30 37045 C 3756.9 -1.94374 -3.04797 0
M  V30 37046 O 3756.62 -3.32494 -2.85271 0
M  V30 37047 C 3758.13 -1.92697 -3.99228 0
M  V30 37048 H 3755.35 -0.42228 -0.52146 0
M  V30 37049 H 3757.89 -1.71936 -1.10717 0
M  V30 37050 H 3756.04 -1.48249 -3.57912 0
M  V30 37051 H 3756.46 -3.69127 -3.72619 0
M  V30 37052 H 3757.93 -2.4787 -4.93218 0
M  V30 37053 H 3758.41 -0.905633 -4.29761 0
M  V30 37054 H 3759.02 -2.38628 -3.52047 0
M  V30 37055 N 3757.33 1.0983 -1.13028 0
M  V30 37056 C 3758.56 1.85691 -0.912493 0
M  V30 37057 C 3758.97 1.80957 0.538526 0
M  V30 37058 O 3758.33 1.20275 1.3726 0
M  V30 37059 C 3758.38 3.33837 -1.3869 0
M  V30 37060 O 3758.1 3.3851 -2.78105 0
M  V30 37061 C 3759.6 4.26553 -1.20695 0
M  V30 37062 H 3756.82 0.586674 -0.32566 0
M  V30 37063 H 3759.37 1.38803 -1.5018 0
M  V30 37064 H 3757.52 3.78168 -0.840683 0
M  V30 37065 H 3757.94 4.30881 -2.99069 0
M  V30 37066 H 3759.41 5.28674 -1.58769 0
M  V30 37067 H 3759.89 4.3895 -0.148188 0
M  V30 37068 H 3760.49 3.88033 -1.74099 0
M  V30 37069 N 3758.81 0.92314 1.27734 0
M  V30 37070 C 3760.22 0.606407 1.76577 0
M  V30 37071 C 3760.57 -0.878397 1.75438 0
M  V30 37072 O 3759.7 -1.68728 1.35498 0
M  V30 37073 C 3760.29 1.09402 3.2065 0
M  V30 37074 C 3758.85 0.828039 3.67179 0
M  V30 37075 C 3758 1.25537 2.47257 0
M  V30 37076 H 3760.95 1.1034 1.14065 0
M  V30 37077 H 3760.97 0.439647 3.77952 0
M  V30 37078 H 3760.48 2.1747 3.21447 0
M  V30 37079 H 3758.58 -0.239033 3.71832 0
M  V30 37080 H 3758.69 1.44237 4.56872 0
M  V30 37081 H 3757.06 0.673971 2.45621 0
M  V30 37082 H 3757.84 2.34459 2.50766 0
M  V30 37083 N 3760.29 -1.41783 0.688143 0
M  V30 37084 C 3761.54 -2.00571 0.21312 0
M  V30 37085 C 3761.85 -1.55103 -1.19173 0
M  V30 37086 O 3763.05 -2.064 -1.76383 0
M  V30 37087 C 3761.51 -3.58383 0.330138 0
M  V30 37088 C 3761.12 -4.12834 1.73989 0
M  V30 37089 C 3762.86 -4.24414 -0.0854905 0
M  V30 37090 C 3760.77 -5.63055 1.80896 0
M  V30 37091 H 3759.7 -0.750168 0.0759192 0
M  V30 37092 H 3762.35 -1.6235 0.855264 0
M  V30 37093 H 3760.73 -3.94171 -0.38013 0
M  V30 37094 H 3761.91 -3.88479 2.47831 0
M  V30 37095 H 3760.22 -3.59302 2.10454 0
M  V30 37096 H 3762.82 -5.34673 -0.0542202 0
M  V30 37097 H 3763.16 -4.00867 -1.123 0
M  V30 37098 H 3763.69 -3.93634 0.574238 0
M  V30 37099 H 3760.43 -5.91419 2.82674 0
M  V30 37100 H 3759.95 -5.89359 1.11427 0
M  V30 37101 H 3761.63 -6.27701 1.56846 0
M  V30 37102 N 3761.76 -0.432379 -1.51553 0
M  V30 37103 C 3762.99 0.134564 -2.06462 0
M  V30 37104 C 3763.41 1.36886 -1.30029 0
M  V30 37105 O 3762.76 1.78945 -0.358479 0
M  V30 37106 C 3762.82 0.461759 -3.58539 0
M  V30 37107 O 3762.54 -0.723547 -4.32084 0
M  V30 37108 C 3764.04 1.07991 -4.29945 0
M  V30 37109 H 3761.26 0.0101211 -0.670924 0
M  V30 37110 H 3763.8 -0.610033 -1.95189 0
M  V30 37111 H 3761.96 1.15625 -3.69743 0
M  V30 37112 H 3762.37 -0.444849 -5.2261 0
M  V30 37113 H 3763.84 1.25889 -5.37453 0
M  V30 37114 H 3764.32 2.05956 -3.87916 0
M  V30 37115 H 3764.93 0.424948 -4.23172 0
M  V30 37116 N 3763.24 1.56749 -0.163565 0
M  V30 37117 C 3764.47 2.01018 0.489853 0
M  V30 37118 C 3764.89 1.04376 1.57325 0
M  V30 37119 O 3764.24 0.0433734 1.82448 0
M  V30 37120 C 3764.29 3.45137 1.07531 0
M  V30 37121 O 3764.01 4.38086 0.0351695 0
M  V30 37122 C 3765.52 4.04767 1.80771 0
M  V30 37123 H 3762.74 0.659048 0.126084 0
M  V30 37124 H 3765.28 2.02802 -0.263018 0
M  V30 37125 H 3763.43 3.44152 1.77871 0
M  V30 37126 H 3763.85 5.22423 0.466334 0
M  V30 37127 H 3765.32 5.07556 2.17005 0
M  V30 37128 H 3765.8 3.46418 2.69984 0
M  V30 37129 H 3766.41 4.09432 1.15091 0
M  V30 37130 N 3764.72 -0.110185 1.57214 0
M  V30 37131 C 3765.95 -0.830358 1.89506 0
M  V30 37132 C 3766.36 -1.73015 0.755733 0
M  V30 37133 O 3765.72 -1.80446 -0.273041 0
M  V30 37134 C 3765.77 -1.6564 3.21319 0
M  V30 37135 O 3765.49 -0.792825 4.30866 0
M  V30 37136 C 3766.99 -2.48096 3.67374 0
M  V30 37137 H 3764.21 -0.238241 0.627282 0
M  V30 37138 H 3766.76 -0.0919357 2.04293 0
M  V30 37139 H 3764.91 -2.34749 3.08175 0
M  V30 37140 H 3765.33 -1.36344 5.06469 0
M  V30 37141 H 3766.8 -3.01572 4.6234 0
M  V30 37142 H 3767.28 -3.25864 2.94465 0
M  V30 37143 H 3767.88 -1.84214 3.83335 0
M  V30 37144 N 3766.2 -1.52935 -0.38061 0
M  V30 37145 C 3767.43 -1.72276 -1.1458 0
M  V30 37146 C 3767.84 -0.444896 -1.83483 0
M  V30 37147 O 3767.2 0.581214 -1.72998 0
M  V30 37148 C 3767.25 -2.87803 -2.1875 0
M  V30 37149 O 3766.97 -4.10643 -1.52655 0
M  V30 37150 C 3768.47 -3.18892 -3.07933 0
M  V30 37151 H 3765.69 -0.576584 -0.343208 0
M  V30 37152 H 3768.24 -1.99619 -0.444114 0
M  V30 37153 H 3766.39 -2.62897 -2.84542 0
M  V30 37154 H 3766.8 -4.75229 -2.2194 0
M  V30 37155 H 3768.28 -4.03171 -3.77037 0
M  V30 37156 H 3768.76 -2.33625 -3.71909 0
M  V30 37157 H 3769.36 -3.45669 -2.47777 0
M  V30 37158 N 3767.68 0.639548 -1.4404 0
M  V30 37159 C 3768.9 1.42667 -1.49846 0
M  V30 37160 C 3769.32 1.88414 -0.120632 0
M  V30 37161 O 3768.68 1.60328 0.871847 0
M  V30 37162 C 3768.73 2.65259 -2.45601 0
M  V30 37163 O 3768.45 2.21421 -3.78027 0
M  V30 37164 C 3769.95 3.58476 -2.60787 0
M  V30 37165 H 3767.17 0.437817 -0.508485 0
M  V30 37166 H 3769.71 0.782889 -1.88921 0
M  V30 37167 H 3767.87 3.25747 -2.09685 0
M  V30 37168 H 3768.28 3.00838 -4.29647 0
M  V30 37169 H 3769.76 4.41124 -3.31834 0
M  V30 37170 H 3770.23 4.0673 -1.65734 0
M  V30 37171 H 3770.84 3.03862 -2.9757 0
M  V30 37172 N 3769.15 1.30798 0.879184 0
M  V30 37173 C 3770.4 1.20132 1.63389 0
M  V30 37174 C 3770.73 -0.24213 1.92685 0
M  V30 37175 O 3770.01 -1.17245 1.5519 0
M  V30 37176 C 3770.29 2.03623 2.97001 0
M  V30 37177 C 3770.14 3.56218 2.74642 0
M  V30 37178 C 3771.46 1.87852 3.97995 0
M  V30 37179 H 3768.58 0.437761 0.592903 0
M  V30 37180 H 3771.22 1.60492 1.01697 0
M  V30 37181 H 3769.37 1.69332 3.49656 0
M  V30 37182 H 3771.05 4.00599 2.28731 0
M  V30 37183 H 3769.29 3.80111 2.09041 0
M  V30 37184 H 3769.96 4.09934 3.69673 0
M  V30 37185 H 3772.44 2.17843 3.54519 0
M  V30 37186 H 3771.31 2.48586 4.89383 0
M  V30 37187 H 3771.57 0.839259 4.34061 0
M  V30 37188 N 3770.63 -1.09229 1.13608 0
M  V30 37189 C 3771.86 -1.85205 0.922328 0
M  V30 37190 C 3772.28 -1.8124 -0.528922 0
M  V30 37191 O 3771.63 -1.21001 -1.3662 0
M  V30 37192 C 3771.68 -3.33097 1.40458 0
M  V30 37193 O 3771.41 -3.37031 2.79896 0
M  V30 37194 C 3772.91 -4.25907 1.22956 0
M  V30 37195 H 3770.13 -0.584939 0.328767 0
M  V30 37196 H 3772.67 -1.38005 1.50914 0
M  V30 37197 H 3770.83 -3.77717 0.860727 0
M  V30 37198 H 3771.24 -4.29288 3.0135 0
M  V30 37199 H 3772.71 -5.27825 1.61571 0
M  V30 37200 H 3773.19 -4.38865 0.171465 0
M  V30 37201 H 3773.8 -3.87104 1.76154 0
M  V30 37202 N 3772.11 -0.929901 -1.27242 0
M  V30 37203 C 3773.52 -0.615763 -1.76253 0
M  V30 37204 C 3773.87 0.86908 -1.75902 0
M  V30 37205 O 3773 1.68008 -1.36391 0
M  V30 37206 C 3773.59 -1.11101 -3.20066 0
M  V30 37207 C 3772.15 -0.847499 -3.66735 0
M  V30 37208 C 3771.3 -1.26846 -2.46587 0
M  V30 37209 H 3774.25 -1.10944 -1.13478 0
M  V30 37210 H 3774.27 -0.459684 -3.77713 0
M  V30 37211 H 3773.78 -2.19172 -3.20289 0
M  V30 37212 H 3771.88 0.21931 -3.71954 0
M  V30 37213 H 3772 -1.46658 -4.56101 0
M  V30 37214 H 3770.36 -0.686987 -2.4526 0
M  V30 37215 H 3771.14 -2.35786 -2.4952 0
M  V30 37216 N 3773.59 1.41416 -0.695653 0
M  V30 37217 C 3774.82 2.05553 -0.23569 0
M  V30 37218 C 3775.23 1.52351 1.11511 0
M  V30 37219 O 3774.59 0.671773 1.69686 0
M  V30 37220 C 3774.64 3.61027 -0.184873 0
M  V30 37221 O 3774.36 4.12261 -1.48231 0
M  V30 37222 C 3775.86 4.4231 0.296069 0
M  V30 37223 H 3773.08 0.661979 -0.109659 0
M  V30 37224 H 3775.63 1.81186 -0.948259 0
M  V30 37225 H 3773.78 3.84433 0.47852 0
M  V30 37226 H 3774.2 5.06306 -1.36948 0
M  V30 37227 H 3775.67 5.51287 0.280501 0
M  V30 37228 H 3776.15 4.1842 1.33495 0
M  V30 37229 H 3776.75 4.23968 -0.336328 0
M  V30 37230 N 3775.07 0.44041 1.51321 0
M  V30 37231 C 3776.48 -0.0219944 1.86687 0
M  V30 37232 C 3776.83 -1.41669 1.35736 0
M  V30 37233 O 3775.95 -2.0444 0.709444 0
M  V30 37234 C 3776.55 -0.0466882 3.38768 0
M  V30 37235 C 3775.11 -0.453515 3.73658 0
M  V30 37236 C 3774.26 0.351828 2.75059 0
M  V30 37237 H 3777.21 0.656115 1.44502 0
M  V30 37238 H 3777.23 -0.855524 3.70757 0
M  V30 37239 H 3776.74 0.968517 3.75821 0
M  V30 37240 H 3774.84 -1.47421 3.42196 0
M  V30 37241 H 3774.95 -0.176177 4.78776 0
M  V30 37242 H 3773.32 -0.190289 2.53988 0
M  V30 37243 H 3774.1 1.36597 3.14954 0
M  V30 37244 N 3776.55 -1.5666 0.171876 0
M  V30 37245 C 3777.77 -2.01274 -0.479185 0
M  V30 37246 C 3778.19 -1.05209 -1.56769 0
M  V30 37247 O 3777.55 -0.0530485 -1.82423 0
M  V30 37248 C 3777.6 -3.45702 -1.05699 0
M  V30 37249 O 3777.32 -4.38098 -0.0119363 0
M  V30 37250 C 3778.82 -4.0572 -1.78622 0
M  V30 37251 H 3776.04 -0.659707 -0.122587 0
M  V30 37252 H 3778.58 -2.02659 0.273769 0
M  V30 37253 H 3776.74 -3.4509 -1.76044 0
M  V30 37254 H 3777.15 -5.22663 -0.438622 0
M  V30 37255 H 3778.63 -5.08699 -2.1431 0
M  V30 37256 H 3779.1 -3.47845 -2.68143 0
M  V30 37257 H 3779.71 -4.10036 -1.12918 0
M  V30 37258 N 3778.02 0.101846 -1.57271 0
M  V30 37259 C 3779.43 0.657116 -1.74754 0
M  V30 37260 C 3779.79 1.79456 -0.793084 0
M  V30 37261 O 3778.91 2.16379 0.0300178 0
M  V30 37262 C 3779.51 1.19879 -3.16882 0
M  V30 37263 C 3778.06 1.70019 -3.35813 0
M  V30 37264 C 3777.21 0.606959 -2.70576 0
M  V30 37265 H 3780.16 -0.124185 -1.58213 0
M  V30 37266 H 3780.18 2.06823 -3.19381 0
M  V30 37267 H 3779.7 0.370722 -3.86325 0
M  V30 37268 H 3777.8 2.55249 -2.71439 0
M  V30 37269 H 3777.91 1.79783 -4.44089 0
M  V30 37270 H 3776.27 1.04477 -2.32286 0
M  V30 37271 H 3777.06 -0.21042 -3.42655 0
M  V30 37272 N 3779.5 1.53135 0.372494 0
M  V30 37273 C 3780.73 1.72881 1.13665 0
M  V30 37274 C 3781.14 0.45462 1.83245 0
M  V30 37275 O 3780.5 -0.572032 1.73303 0
M  V30 37276 C 3780.55 2.88959 2.17221 0
M  V30 37277 O 3780.27 4.11447 1.50475 0
M  V30 37278 C 3781.77 3.20521 3.06237 0
M  V30 37279 H 3778.99 0.578396 0.340146 0
M  V30 37280 H 3781.54 1.99852 0.433522 0
M  V30 37281 H 3779.69 2.64402 2.83143 0
M  V30 37282 H 3780.11 4.76399 2.19417 0
M  V30 37283 H 3781.58 4.05165 3.74894 0
M  V30 37284 H 3782.06 2.35594 3.70665 0
M  V30 37285 H 3782.66 3.46978 2.4594 0
M  V30 37286 N 3780.98 -0.6319 1.44377 0
M  V30 37287 C 3782.23 -1.38873 1.46829 0
M  V30 37288 C 3782.55 -1.94734 0.101823 0
M  V30 37289 O 3781.82 -1.75731 -0.865759 0
M  V30 37290 H 3780.4 -0.515466 0.540651 0
M  V30 37291 H 3783.06 -0.74379 1.80149 0
M  V30 37292 H 3782.16 -2.22043 2.19325 0
M  V30 37293 N 3782.46 -1.31262 -0.872235 0
M  V30 37294 C 3783.69 -1.23775 -1.65793 0
M  V30 37295 C 3784.1 0.197318 -1.87766 0
M  V30 37296 O 3783.46 1.12858 -1.4342 0
M  V30 37297 C 3783.51 -1.97595 -3.02718 0
M  V30 37298 O 3783.23 -3.35501 -2.81729 0
M  V30 37299 C 3784.73 -1.9692 -3.97162 0
M  V30 37300 H 3781.95 -0.427787 -0.516952 0
M  V30 37301 H 3784.49 -1.73101 -1.08887 0
M  V30 37302 H 3782.65 -1.52036 -3.5632 0
M  V30 37303 H 3783.06 -3.73059 -3.68683 0
M  V30 37304 H 3784.54 -2.53087 -4.90562 0
M  V30 37305 H 3785.01 -0.951164 -4.28777 0
M  V30 37306 H 3785.62 -2.42348 -3.49496 0
M  V30 37307 N 3783.94 1.08625 -1.14186 0
M  V30 37308 C 3784.87 2.15355 -0.784529 0
M  V30 37309 C 3785.88 1.61597 0.197553 0
M  V30 37310 O 3787.07 1.78484 -0.0238351 0
M  V30 37311 C 3784.17 3.38596 -0.143493 0
M  V30 37312 C 3783.34 4.21745 -1.15974 0
M  V30 37313 C 3782.4 5.23392 -0.542878 0
M  V30 37314 O 3781.43 5.56294 -1.20522 0
M  V30 37315 N 3782.63 5.76487 0.681364 0
M  V30 37316 H 3785.39 2.46614 -1.70299 0
M  V30 37317 H 3782.96 1.24415 -1.03598 0
M  V30 37318 H 3784.95 4.03719 0.281632 0
M  V30 37319 H 3783.52 3.05158 0.678056 0
M  V30 37320 H 3782.74 3.52635 -1.76188 0
M  V30 37321 H 3784.03 4.74119 -1.84632 0
M  V30 37322 H 3783.42 5.51985 1.23809 0
M  V30 37323 H 3781.98 6.43303 1.04903 0
M  V30 37324 N 3785.41 0.936635 1.26747 0
M  V30 37325 C 3786.64 0.598392 1.98058 0
M  V30 37326 C 3787.06 -0.825616 1.69791 0
M  V30 37327 O 3786.41 -1.54991 0.963542 0
M  V30 37328 C 3786.47 0.825581 3.51947 0
M  V30 37329 O 3786.19 2.19358 3.79228 0
M  V30 37330 C 3787.69 0.497264 4.40502 0
M  V30 37331 H 3784.91 0.225925 0.631822 0
M  V30 37332 H 3787.45 1.2561 1.61376 0
M  V30 37333 H 3785.61 0.214547 3.86805 0
M  V30 37334 H 3786.02 2.25022 4.73778 0
M  V30 37335 H 3787.49 0.706875 5.47455 0
M  V30 37336 H 3787.97 -0.567569 4.35517 0
M  V30 37337 H 3788.58 1.08683 4.11179 0
M  V30 37338 N 3786.89 -1.41045 0.703143 0
M  V30 37339 C 3788.3 -1.84088 0.3112 0
M  V30 37340 C 3788.65 -1.5882 -1.15199 0
M  V30 37341 O 3787.78 -1.06257 -1.88516 0
M  V30 37342 C 3788.37 -3.34173 0.558044 0
M  V30 37343 C 3786.93 -3.75757 0.219941 0
M  V30 37344 C 3786.08 -2.64379 0.83659 0
M  V30 37345 H 3789.03 -1.30489 0.903234 0
M  V30 37346 H 3789.05 -3.8007 -0.180799 0
M  V30 37347 H 3788.56 -3.52532 1.62305 0
M  V30 37348 H 3786.67 -3.62996 -0.840495 0
M  V30 37349 H 3786.78 -4.74246 0.680248 0
M  V30 37350 H 3785.14 -2.53311 0.265591 0
M  V30 37351 H 3785.93 -2.85555 1.90561 0
M  V30 37352 N 3788.37 -0.448429 -1.51086 0
M  V30 37353 C 3789.6 0.112658 -2.06593 0
M  V30 37354 C 3790.01 1.355 -1.31474 0
M  V30 37355 O 3789.37 1.78554 -0.377438 0
M  V30 37356 C 3789.42 0.423705 -3.59008 0
M  V30 37357 O 3789.14 -0.769335 -4.31292 0
M  V30 37358 C 3790.64 1.03425 -4.31066 0
M  V30 37359 H 3787.86 0.00300447 -0.670993 0
M  V30 37360 H 3790.41 -0.630701 -1.94531 0
M  V30 37361 H 3788.56 1.11697 -3.70948 0
M  V30 37362 H 3788.98 -0.500253 -5.22109 0
M  V30 37363 H 3790.45 1.20181 -5.38758 0
M  V30 37364 H 3790.93 2.0183 -3.90079 0
M  V30 37365 H 3791.53 0.380041 -4.23599 0
M  V30 37366 N 3789.85 1.56567 -0.180181 0
M  V30 37367 C 3791.08 2.01526 0.468505 0
M  V30 37368 C 3791.49 1.06039 1.56209 0
M  V30 37369 O 3790.85 0.0627221 1.82392 0
M  V30 37370 C 3790.9 3.46258 1.03864 0
M  V30 37371 O 3790.62 4.38099 -0.0112973 0
M  V30 37372 C 3792.12 4.06662 1.76468 0
M  V30 37373 H 3789.34 0.660348 0.119086 0
M  V30 37374 H 3791.89 2.02511 -0.284513 0
M  V30 37375 H 3790.04 3.46019 1.74211 0
M  V30 37376 H 3790.45 5.22888 0.410898 0
M  V30 37377 H 3791.93 5.09829 2.1161 0
M  V30 37378 H 3792.41 3.49262 2.66295 0
M  V30 37379 H 3793.01 4.10629 1.10742 0
M  V30 37380 N 3791.33 -0.0935042 1.57322 0
M  V30 37381 C 3792.55 -0.810211 1.90376 0
M  V30 37382 C 3792.97 -1.72204 0.774041 0
M  V30 37383 O 3792.33 -1.80725 -0.253887 0
M  V30 37384 C 3792.38 -1.62223 3.23057 0
M  V30 37385 O 3792.1 -0.747081 4.31683 0
M  V30 37386 C 3793.6 -2.44185 3.69984 0
M  V30 37387 H 3790.82 -0.231574 0.629773 0
M  V30 37388 H 3793.36 -0.0702625 2.04379 0
M  V30 37389 H 3791.52 -2.31467 3.10647 0
M  V30 37390 H 3791.93 -1.30965 5.07886 0
M  V30 37391 H 3793.41 -2.96651 4.65513 0
M  V30 37392 H 3793.88 -3.22722 2.97904 0
M  V30 37393 H 3794.49 -1.80137 3.85267 0
M  V30 37394 N 3792.8 -1.5333 -0.364368 0
M  V30 37395 C 3794.22 -1.61245 -0.941105 0
M  V30 37396 C 3794.57 -0.480629 -1.90222 0
M  V30 37397 O 3793.69 0.392768 -2.12806 0
M  V30 37398 C 3794.29 -2.92266 -1.71365 0
M  V30 37399 C 3792.85 -3.02513 -2.23971 0
M  V30 37400 C 3791.99 -2.5655 -1.05249 0
M  V30 37401 H 3794.94 -1.58053 -0.143125 0
M  V30 37402 H 3794.96 -2.80137 -2.57495 0
M  V30 37403 H 3794.48 -3.74623 -1.01388 0
M  V30 37404 H 3792.58 -2.24747 -2.97186 0
M  V30 37405 H 3792.69 -4.07614 -2.51769 0
M  V30 37406 H 3791.05 -2.11455 -1.41982 0
M  V30 37407 H 3791.84 -3.41325 -0.367684 0
M  V30 37408 N 3794.28 0.624234 -1.4471 0
M  V30 37409 C 3795.53 1.37966 -1.47134 0
M  V30 37410 C 3795.84 1.95287 -0.110541 0
M  V30 37411 O 3797.05 2.71497 -0.012337 0
M  V30 37412 C 3795.51 2.49828 -2.59063 0
M  V30 37413 C 3795.11 1.9899 -4.01381 0
M  V30 37414 C 3796.86 3.26976 -2.70715 0
M  V30 37415 C 3794.77 3.08236 -5.04722 0
M  V30 37416 H 3793.7 0.518491 -0.547433 0
M  V30 37417 H 3796.35 0.670833 -1.70798 0
M  V30 37418 H 3794.73 3.23318 -2.28651 0
M  V30 37419 H 3795.9 1.3232 -4.41393 0
M  V30 37420 H 3794.22 1.34637 -3.94033 0
M  V30 37421 H 3796.81 4.08429 -3.45094 0
M  V30 37422 H 3797.16 3.76906 -1.7677 0
M  V30 37423 H 3797.69 2.6058 -3.00571 0
M  V30 37424 H 3794.43 2.63242 -6.0032 0
M  V30 37425 H 3793.95 3.73525 -4.69296 0
M  V30 37426 H 3795.63 3.72897 -5.28731 0
M  V30 37427 N 3795.76 1.31723 0.865262 0
M  V30 37428 C 3796.99 1.24652 1.65134 0
M  V30 37429 C 3797.4 -0.187358 1.87868 0
M  V30 37430 O 3796.76 -1.12096 1.44017 0
M  V30 37431 C 3796.81 1.99198 3.01666 0
M  V30 37432 O 3796.53 3.3699 2.79945 0
M  V30 37433 C 3798.03 1.99024 3.96112 0
M  V30 37434 H 3795.25 0.430523 0.514676 0
M  V30 37435 H 3797.8 1.73676 1.07968 0
M  V30 37436 H 3795.95 1.53924 3.55508 0
M  V30 37437 H 3796.37 3.75009 3.667 0
M  V30 37438 H 3797.84 2.55685 4.89213 0
M  V30 37439 H 3798.32 0.97389 4.28266 0
M  V30 37440 H 3798.92 2.44198 3.48206 0
M  V30 37441 N 3797.24 -1.08018 1.14761 0
M  V30 37442 C 3798.47 -1.84216 0.941919 0
M  V30 37443 C 3798.88 -1.81791 -0.50967 0
M  V30 37444 O 3798.24 -1.22443 -1.35329 0
M  V30 37445 C 3798.29 -3.31589 1.43983 0
M  V30 37446 O 3798.01 -3.34043 2.83455 0
M  V30 37447 C 3799.51 -4.24579 1.27466 0
M  V30 37448 H 3796.73 -0.581419 0.334952 0
M  V30 37449 H 3799.28 -1.36396 1.52369 0
M  V30 37450 H 3797.43 -3.76783 0.90074 0
M  V30 37451 H 3797.84 -4.26068 3.05886 0
M  V30 37452 H 3799.32 -5.26081 1.6716 0
M  V30 37453 H 3799.8 -4.38659 0.218002 0
M  V30 37454 H 3800.4 -3.85214 1.8025 0
M  V30 37455 N 3798.72 -0.943344 -1.26249 0
M  V30 37456 C 3799.94 -0.608887 -1.97738 0
M  V30 37457 C 3800.36 0.8166 -1.70227 0
M  V30 37458 O 3799.72 1.54478 -0.971747 0
M  V30 37459 C 3799.77 -0.844234 -3.51504 0
M  V30 37460 O 3799.49 -2.21366 -3.78059 0
M  V30 37461 C 3800.99 -0.520617 -4.40232 0
M  V30 37462 H 3798.21 -0.229273 -0.630615 0
M  V30 37463 H 3800.75 -1.26464 -1.60708 0
M  V30 37464 H 3798.91 -0.235058 -3.86686 0
M  V30 37465 H 3799.32 -2.27531 -4.72578 0
M  V30 37466 H 3800.8 -0.735898 -5.47073 0
M  V30 37467 H 3801.27 0.544464 -4.35812 0
M  V30 37468 H 3801.88 -1.10862 -4.10597 0
M  V30 37469 N 3800.2 1.4067 -0.710613 0
M  V30 37470 C 3801.42 2.05292 -0.257478 0
M  V30 37471 C 3801.84 1.53525 1.09888 0
M  V30 37472 O 3801.2 0.689733 1.68964 0
M  V30 37473 C 3801.25 3.60811 -0.223154 0
M  V30 37474 O 3800.97 4.10666 -1.52595 0
M  V30 37475 C 3802.47 4.42599 0.249139 0
M  V30 37476 H 3799.69 0.660778 -0.116674 0
M  V30 37477 H 3802.23 1.8017 -0.967423 0
M  V30 37478 H 3800.39 3.84919 0.437719 0
M  V30 37479 H 3800.8 5.04825 -1.4231 0
M  V30 37480 H 3802.28 5.51553 0.222013 0
M  V30 37481 H 3802.75 4.19813 1.2905 0
M  V30 37482 H 3803.36 4.23588 -0.381276 0
M  V30 37483 N 3801.67 0.456435 1.50846 0
M  V30 37484 C 3802.9 -0.101701 2.0665 0
M  V30 37485 C 3803.32 -1.348 1.3219 0
M  V30 37486 O 3802.67 -1.78352 0.386902 0
M  V30 37487 C 3802.72 -0.40466 3.59228 0
M  V30 37488 O 3802.45 0.792196 4.30878 0
M  V30 37489 C 3803.95 -1.01138 4.31609 0
M  V30 37490 H 3801.17 0.000554013 0.671 0
M  V30 37491 H 3803.71 0.641009 1.94194 0
M  V30 37492 H 3801.87 -1.09729 3.71535 0
M  V30 37493 H 3802.28 0.527935 5.21836 0
M  V30 37494 H 3803.75 -1.17322 5.39388 0
M  V30 37495 H 3804.23 -1.99759 3.91143 0
M  V30 37496 H 3804.84 -0.357571 4.23794 0
M  V30 37497 N 3803.15 -1.56469 0.188482 0
M  V30 37498 C 3804.4 -1.97683 -0.452693 0
M  V30 37499 C 3804.73 -1.07509 -1.61727 0
M  V30 37500 O 3804.01 -0.125712 -1.94093 0
M  V30 37501 C 3804.29 -3.48171 -0.919196 0
M  V30 37502 C 3804.14 -4.49123 0.246735 0
M  V30 37503 C 3805.46 -4.02187 -1.78699 0
M  V30 37504 H 3802.58 -0.718731 -0.163077 0
M  V30 37505 H 3805.22 -1.87954 0.278073 0
M  V30 37506 H 3803.37 -3.56592 -1.54189 0
M  V30 37507 H 3805.04 -4.52746 0.884258 0
M  V30 37508 H 3803.29 -4.24371 0.899555 0
M  V30 37509 H 3803.96 -5.51865 -0.122082 0
M  V30 37510 H 3806.43 -3.96504 -1.26189 0
M  V30 37511 H 3805.31 -5.07866 -2.08238 0
M  V30 37512 H 3805.57 -3.47044 -2.73885 0
M  V30 37513 N 3804.63 0.0851597 -1.5737 0
M  V30 37514 C 3805.86 0.800104 -1.90803 0
M  V30 37515 C 3806.27 1.71791 -0.783162 0
M  V30 37516 O 3805.63 1.80857 0.244299 0
M  V30 37517 C 3805.68 1.60507 -3.23913 0
M  V30 37518 O 3805.4 0.724177 -4.32073 0
M  V30 37519 C 3806.9 2.4222 -3.71274 0
M  V30 37520 H 3804.12 0.228231 -0.630992 0
M  V30 37521 H 3806.67 0.0594228 -2.04414 0
M  V30 37522 H 3804.82 2.29816 -3.11871 0
M  V30 37523 H 3805.24 1.2827 -5.08574 0
M  V30 37524 H 3806.71 2.94178 -4.67079 0
M  V30 37525 H 3807.19 3.21138 -2.99612 0
M  V30 37526 H 3807.79 1.78092 -3.86217 0
M  V30 37527 N 3806.11 1.53521 0.356231 0
M  V30 37528 C 3807.52 1.61742 0.93254 0
M  V30 37529 C 3807.87 0.49071 1.89964 0
M  V30 37530 O 3806.99 -0.381476 2.13011 0
M  V30 37531 C 3807.59 2.93171 1.69813 0
M  V30 37532 C 3806.15 3.03696 2.22364 0
M  V30 37533 C 3805.3 2.57105 1.03887 0
M  V30 37534 H 3808.25 1.58127 0.134741 0
M  V30 37535 H 3808.27 2.81498 2.56006 0
M  V30 37536 H 3807.78 3.75155 0.993999 0
M  V30 37537 H 3805.88 2.26319 2.9599 0
M  V30 37538 H 3805.99 4.08943 2.49604 0
M  V30 37539 H 3804.36 2.12205 1.40859 0
M  V30 37540 H 3805.14 3.41516 0.349577 0
M  V30 37541 N 3807.59 -0.616551 1.45039 0
M  V30 37542 C 3808.81 -1.40265 1.52097 0
M  V30 37543 C 3809.23 -1.88198 0.150592 0
M  V30 37544 O 3808.59 -1.61695 -0.84623 0
M  V30 37545 C 3808.64 -2.61318 2.4979 0
M  V30 37546 O 3808.36 -2.15379 3.81502 0
M  V30 37547 C 3809.86 -3.54282 2.66457 0
M  V30 37548 H 3807.08 -0.429672 0.515386 0
M  V30 37549 H 3809.62 -0.752735 1.90142 0
M  V30 37550 H 3807.78 -3.2237 2.14841 0
M  V30 37551 H 3808.19 -2.93965 4.34379 0
M  V30 37552 H 3809.67 -4.35789 3.3881 0
M  V30 37553 H 3810.14 -4.04041 1.72184 0
M  V30 37554 H 3810.75 -2.99089 3.02367 0
M  V30 37555 N 3809.06 -1.3218 -0.858264 0
M  V30 37556 C 3810.47 -1.20262 -1.42808 0
M  V30 37557 C 3810.83 0.186298 -1.95314 0
M  V30 37558 O 3809.95 1.08481 -1.87246 0
M  V30 37559 C 3810.55 -2.17717 -2.59586 0
M  V30 37560 C 3809.1 -2.09697 -3.12577 0
M  V30 37561 C 3808.25 -2.06286 -1.85314 0
M  V30 37562 H 3811.2 -1.44061 -0.665744 0
M  V30 37563 H 3811.22 -1.7736 -3.36636 0
M  V30 37564 H 3810.74 -3.18795 -2.2134 0
M  V30 37565 H 3808.84 -1.11855 -3.55414 0
M  V30 37566 H 3808.95 -2.99352 -3.74066 0
M  V30 37567 H 3807.31 -1.51472 -2.04764 0
M  V30 37568 H 3808.1 -3.0914 -1.49291 0
M  V30 37569 N 3810.54 1.07407 -1.15332 0
M  V30 37570 C 3811.77 1.83714 -0.951675 0
M  V30 37571 C 3812.18 1.82058 0.500022 0
M  V30 37572 O 3811.54 1.23159 1.34677 0
M  V30 37573 C 3811.59 3.3082 -1.4574 0
M  V30 37574 O 3811.31 3.32535 -2.85223 0
M  V30 37575 C 3812.81 4.23897 -1.29716 0
M  V30 37576 H 3810.03 0.579634 -0.338031 0
M  V30 37577 H 3812.58 1.35586 -1.5309 0
M  V30 37578 H 3810.73 3.763 -0.920709 0
M  V30 37579 H 3811.15 4.2444 -3.08141 0
M  V30 37580 H 3812.62 5.25187 -1.69948 0
M  V30 37581 H 3813.1 4.38537 -0.241263 0
M  V30 37582 H 3813.7 3.84253 -1.8229 0
M  V30 37583 N 3812.02 0.950026 1.25747 0
M  V30 37584 C 3813.43 0.643725 1.75251 0
M  V30 37585 C 3813.78 -0.840986 1.77262 0
M  V30 37586 O 3812.91 -1.65816 1.39046 0
M  V30 37587 C 3813.5 1.16179 3.18258 0
M  V30 37588 C 3812.06 0.905736 3.6534 0
M  V30 37589 C 3811.21 1.30753 2.44538 0
M  V30 37590 H 3814.16 1.12735 1.11698 0
M  V30 37591 H 3814.18 0.519717 3.76934 0
M  V30 37592 H 3813.69 2.2424 3.16762 0
M  V30 37593 H 3811.79 -0.160108 3.72256 0
M  V30 37594 H 3811.91 1.53896 4.5371 0
M  V30 37595 H 3810.27 0.725919 2.44136 0
M  V30 37596 H 3811.05 2.39726 2.45737 0
M  V30 37597 N 3813.5 -1.40291 0.718063 0
M  V30 37598 C 3814.73 -2.05152 0.268362 0
M  V30 37599 C 3815.14 -1.54106 -1.09073 0
M  V30 37600 O 3814.5 -0.698684 -1.68596 0
M  V30 37601 C 3814.55 -3.60687 0.242286 0
M  V30 37602 O 3814.27 -4.09851 1.54771 0
M  V30 37603 C 3815.77 -4.42725 -0.225664 0
M  V30 37604 H 3812.99 -0.66015 0.120177 0
M  V30 37605 H 3815.53 -1.79654 0.976964 0
M  V30 37606 H 3813.69 -3.85146 -0.4173 0
M  V30 37607 H 3814.1 -5.04063 1.44985 0
M  V30 37608 H 3815.58 -5.51663 -0.19276 0
M  V30 37609 H 3816.05 -4.20491 -1.26822 0
M  V30 37610 H 3816.66 -4.23379 0.403735 0
M  V30 37611 N 3814.98 -0.464428 -1.50602 0
M  V30 37612 C 3816.22 0.0926729 -2.01887 0
M  V30 37613 C 3816.55 1.40815 -1.34893 0
M  V30 37614 O 3815.82 1.89618 -0.492111 0
M  V30 37615 H 3814.4 0.0372383 -0.746071 0
M  V30 37616 H 3817.06 -0.613329 -1.84998 0
M  V30 37617 H 3816.15 0.249013 -3.11105 0
M  V30 37618 N 3816.45 1.56367 -0.196777 0
M  V30 37619 C 3817.68 2.02011 0.447104 0
M  V30 37620 C 3818.1 1.0769 1.55075 0
M  V30 37621 O 3817.45 0.0820637 1.82315 0
M  V30 37622 C 3817.51 3.4734 1.00186 0
M  V30 37623 O 3817.23 4.38062 -0.0577629 0
M  V30 37624 C 3818.73 4.08511 1.72145 0
M  V30 37625 H 3815.95 0.661574 0.112076 0
M  V30 37626 H 3818.49 2.02198 -0.305976 0
M  V30 37627 H 3816.65 3.47847 1.70531 0
M  V30 37628 H 3817.06 5.23294 0.355416 0
M  V30 37629 H 3818.53 5.12045 2.0619 0
M  V30 37630 H 3819.01 3.52067 2.62575 0
M  V30 37631 H 3819.62 4.11781 1.0638 0
M  V30 37632 N 3817.93 -0.0768128 1.57413 0
M  V30 37633 C 3818.86 -1.11842 2.0006 0
M  V30 37634 C 3819.88 -1.35274 0.905807 0
M  V30 37635 O 3821.07 -1.33603 1.18375 0
M  V30 37636 C 3818.17 -2.47035 2.32007 0
M  V30 37637 C 3817.34 -2.43628 3.63269 0
M  V30 37638 C 3816.4 -3.60889 3.82943 0
M  V30 37639 O 3815.42 -3.42547 4.54588 0
M  V30 37640 N 3816.63 -4.81053 3.24913 0
M  V30 37641 H 3819.39 -0.755279 2.90027 0
M  V30 37642 H 3816.95 -0.265539 1.59708 0
M  V30 37643 H 3818.94 -3.24115 2.42346 0
M  V30 37644 H 3817.51 -2.75369 1.47955 0
M  V30 37645 H 3816.73 -1.51967 3.6373 0
M  V30 37646 H 3818.02 -2.38448 4.49467 0
M  V30 37647 H 3817.42 -4.98859 2.66751 0
M  V30 37648 H 3815.98 -5.55663 3.40709 0
M  V30 37649 N 3819.41 -1.53708 -0.348084 0
M  V30 37650 C 3820.64 -1.74668 -1.109 0
M  V30 37651 C 3821.05 -0.483715 -1.82498 0
M  V30 37652 O 3820.41 0.544388 -1.74191 0
M  V30 37653 C 3820.46 -2.92378 -2.12597 0
M  V30 37654 O 3820.18 -4.13789 -1.43911 0
M  V30 37655 C 3821.68 -3.25352 -3.01099 0
M  V30 37656 H 3818.9 -0.583734 -0.330901 0
M  V30 37657 H 3821.45 -2.00516 -0.401672 0
M  V30 37658 H 3819.6 -2.68874 -2.78901 0
M  V30 37659 H 3820.02 -4.7983 -2.1181 0
M  V30 37660 H 3821.49 -4.11078 -3.68401 0
M  V30 37661 H 3821.97 -2.41461 -3.6687 0
M  V30 37662 H 3822.57 -3.50847 -2.40389 0
M  V30 37663 N 3820.89 0.608851 -1.45364 0
M  V30 37664 C 3822.3 1.19078 -1.43796 0
M  V30 37665 C 3822.65 1.95506 -0.164909 0
M  V30 37666 O 3821.78 2.03586 0.733587 0
M  V30 37667 C 3822.37 2.1661 -2.6051 0
M  V30 37668 C 3820.93 2.70182 -2.62066 0
M  V30 37669 C 3820.08 1.45566 -2.36021 0
M  V30 37670 H 3823.03 0.398233 -1.53622 0
M  V30 37671 H 3823.05 2.99621 -2.34537 0
M  V30 37672 H 3822.56 1.60957 -3.5315 0
M  V30 37673 H 3820.66 3.29777 -1.73429 0
M  V30 37674 H 3820.77 3.14701 -3.61248 0
M  V30 37675 H 3819.14 1.74477 -1.85553 0
M  V30 37676 H 3819.92 0.917825 -3.30803 0
M  V30 37677 N 3822.37 1.32633 0.851242 0
M  V30 37678 C 3823.59 1.26397 1.63803 0
M  V30 37679 C 3824.01 -0.167421 1.88056 0
M  V30 37680 O 3823.37 -1.10562 1.45198 0
M  V30 37681 C 3823.42 2.02386 2.99536 0
M  V30 37682 O 3823.14 3.3994 2.76355 0
M  V30 37683 C 3824.64 2.03214 3.93978 0
M  V30 37684 H 3821.86 0.435957 0.51008 0
M  V30 37685 H 3824.4 1.74811 1.0612 0
M  V30 37686 H 3822.56 1.57686 3.53856 0
M  V30 37687 H 3822.97 3.78877 3.62702 0
M  V30 37688 H 3824.45 2.6086 4.86473 0
M  V30 37689 H 3824.92 1.01926 4.27209 0
M  V30 37690 H 3825.53 2.47878 3.45596 0
M  V30 37691 N 3823.84 -1.06794 1.159 0
M  V30 37692 C 3825.07 -1.83206 0.961405 0
M  V30 37693 C 3825.49 -1.82321 -0.49036 0
M  V30 37694 O 3824.84 -1.23872 -1.34022 0
M  V30 37695 C 3824.9 -3.30043 1.47492 0
M  V30 37696 O 3824.62 -3.31018 2.86982 0
M  V30 37697 C 3826.12 -4.23203 1.31962 0
M  V30 37698 H 3823.34 -0.577834 0.3411 0
M  V30 37699 H 3825.88 -1.34772 1.53807 0
M  V30 37700 H 3824.04 -3.75806 0.940652 0
M  V30 37701 H 3824.45 -4.228 3.10388 0
M  V30 37702 H 3825.92 -5.24279 1.7273 0
M  V30 37703 H 3826.4 -4.38403 0.264516 0
M  V30 37704 H 3827.01 -3.83281 1.84325 0
M  V30 37705 N 3825.32 -0.956681 -1.25241 0
M  V30 37706 C 3826.55 -0.629825 -1.97081 0
M  V30 37707 C 3826.97 0.798499 -1.71083 0
M  V30 37708 O 3826.32 1.53438 -0.988077 0
M  V30 37709 C 3826.37 -0.881468 -3.50589 0
M  V30 37710 O 3826.09 -2.25363 -3.7569 0
M  V30 37711 C 3827.6 -0.567281 -4.39655 0
M  V30 37712 H 3824.82 -0.235949 -0.628147 0
M  V30 37713 H 3827.36 -1.28161 -1.59358 0
M  V30 37714 H 3825.51 -0.276058 -3.86415 0
M  V30 37715 H 3825.93 -2.32531 -4.70138 0
M  V30 37716 H 3827.4 -0.793881 -5.46261 0
M  V30 37717 H 3827.88 0.49821 -4.36365 0
M  V30 37718 H 3828.49 -1.1521 -4.09398 0
M  V30 37719 N 3826.8 1.39908 -0.725493 0
M  V30 37720 C 3828.21 1.8357 -0.340447 0
M  V30 37721 C 3828.56 1.60632 1.12658 0
M  V30 37722 O 3827.69 1.09243 1.86802 0
M  V30 37723 C 3828.28 3.33242 -0.611138 0
M  V30 37724 C 3826.84 3.75359 -0.279693 0
M  V30 37725 C 3825.99 2.63015 -0.878544 0
M  V30 37726 H 3828.94 1.29036 -0.923879 0
M  V30 37727 H 3828.96 3.8031 0.12031 0
M  V30 37728 H 3828.47 3.49905 -1.67893 0
M  V30 37729 H 3826.57 3.64288 0.782639 0
M  V30 37730 H 3826.69 4.73104 -0.755611 0
M  V30 37731 H 3825.05 2.52857 -0.305857 0
M  V30 37732 H 3825.83 2.82487 -1.9508 0
M  V30 37733 N 3828.28 0.472408 1.50353 0
M  V30 37734 C 3829.53 -0.0838181 2.01526 0
M  V30 37735 C 3829.84 -1.40664 1.35915 0
M  V30 37736 O 3831.05 -2.04789 1.78252 0
M  V30 37737 C 3829.5 -0.199886 3.59344 0
M  V30 37738 C 3829.11 1.11459 4.33914 0
M  V30 37739 C 3830.85 -0.708001 4.18554 0
M  V30 37740 C 3828.76 0.962241 5.83519 0
M  V30 37741 H 3827.69 -0.0350994 0.753183 0
M  V30 37742 H 3830.34 0.607505 1.73152 0
M  V30 37743 H 3828.72 -0.95502 3.84312 0
M  V30 37744 H 3829.9 1.88078 4.2067 0
M  V30 37745 H 3828.21 1.55391 3.86319 0
M  V30 37746 H 3830.81 -0.839033 5.28076 0
M  V30 37747 H 3831.15 -1.69966 3.80022 0
M  V30 37748 H 3831.69 -0.0102147 3.97799 0
M  V30 37749 H 3828.43 1.92731 6.26526 0
M  V30 37750 H 3827.95 0.236453 5.99334 0
M  V30 37751 H 3829.62 0.629389 6.43931 0
M  V30 37752 N 3829.76 -1.5626 0.205067 0
M  V30 37753 C 3830.99 -2.02246 -0.436384 0
M  V30 37754 C 3831.4 -1.08511 -1.54502 0
M  V30 37755 O 3830.76 -0.0917312 -1.82269 0
M  V30 37756 C 3830.81 -3.47866 -0.983422 0
M  V30 37757 O 3830.53 -4.38025 0.0809936 0
M  V30 37758 C 3832.03 -4.09418 -1.69976 0
M  V30 37759 H 3829.25 -0.662159 -0.108566 0
M  V30 37760 H 3831.79 -2.02033 0.316694 0
M  V30 37761 H 3829.95 -3.48747 -1.68684 0
M  V30 37762 H 3830.36 -5.23476 -0.327659 0
M  V30 37763 H 3831.84 -5.13131 -2.03472 0
M  V30 37764 H 3832.31 -3.53454 -2.60704 0
M  V30 37765 H 3832.92 -4.12339 -1.04195 0
M  V30 37766 N 3831.24 0.0684638 -1.57451 0
M  V30 37767 C 3832.46 0.779821 -1.91641 0
M  V30 37768 C 3832.88 1.7095 -0.801339 0
M  V30 37769 O 3832.24 1.81106 0.225103 0
M  V30 37770 C 3832.29 1.57063 -3.25597 0
M  V30 37771 O 3832.01 0.678309 -4.32817 0
M  V30 37772 C 3833.51 2.38268 -3.73822 0
M  V30 37773 H 3830.73 0.221526 -0.633378 0
M  V30 37774 H 3833.27 0.0377387 -2.04465 0
M  V30 37775 H 3831.43 2.26495 -3.14291 0
M  V30 37776 H 3831.84 1.22868 -5.09906 0
M  V30 37777 H 3833.32 2.89208 -4.70173 0
M  V30 37778 H 3833.79 3.17942 -3.03001 0
M  V30 37779 H 3834.4 1.73985 -3.88084 0
M  V30 37780 N 3832.71 1.5389 0.339928 0
M  V30 37781 C 3833.94 1.75253 1.09972 0
M  V30 37782 C 3834.36 0.493387 1.82239 0
M  V30 37783 O 3833.71 -0.535143 1.74478 0
M  V30 37784 C 3833.76 2.93501 2.11043 0
M  V30 37785 O 3833.49 4.14546 1.41714 0
M  V30 37786 C 3834.99 3.26945 2.99369 0
M  V30 37787 H 3832.21 0.585481 0.3278 0
M  V30 37788 H 3834.75 2.00727 0.391033 0
M  V30 37789 H 3832.91 2.70349 2.77471 0
M  V30 37790 H 3833.32 4.80946 2.09262 0
M  V30 37791 H 3834.79 4.13026 3.66216 0
M  V30 37792 H 3835.27 2.43403 3.65584 0
M  V30 37793 H 3835.88 3.52116 2.38525 0
M  V30 37794 N 3834.19 -0.601133 1.45685 0
M  V30 37795 C 3835.42 -1.38644 1.53576 0
M  V30 37796 C 3835.83 -1.88028 0.170544 0
M  V30 37797 O 3835.19 -1.62583 -0.829032 0
M  V30 37798 C 3835.24 -2.58654 2.52548 0
M  V30 37799 O 3834.96 -2.1132 3.83765 0
M  V30 37800 C 3836.46 -3.51436 2.702 0
M  V30 37801 H 3833.68 -0.424182 0.519914 0
M  V30 37802 H 3836.23 -0.732525 1.9093 0
M  V30 37803 H 3834.38 -3.20073 2.18248 0
M  V30 37804 H 3834.8 -2.89341 4.37472 0
M  V30 37805 H 3836.27 -4.32171 3.43413 0
M  V30 37806 H 3836.75 -4.02192 1.76459 0
M  V30 37807 H 3837.35 -2.95866 3.05522 0
M  V30 37808 N 3835.67 -1.33083 -0.844196 0
M  V30 37809 C 3836.9 -1.27264 -1.6313 0
M  V30 37810 C 3837.31 0.157446 -1.88142 0
M  V30 37811 O 3836.67 1.0979 -1.45782 0
M  V30 37812 C 3836.72 -2.03972 -2.98459 0
M  V30 37813 O 3836.44 -3.41401 -2.74549 0
M  V30 37814 C 3837.94 -2.053 -3.92895 0
M  V30 37815 H 3835.16 -0.438656 -0.507761 0
M  V30 37816 H 3837.71 -1.75371 -1.05191 0
M  V30 37817 H 3835.86 -1.5956 -3.53015 0
M  V30 37818 H 3836.28 -3.80795 -3.60687 0
M  V30 37819 H 3837.75 -2.63436 -4.85083 0
M  V30 37820 H 3838.23 -1.0419 -4.26663 0
M  V30 37821 H 3838.83 -2.49707 -3.44277 0
M  V30 37822 N 3837.15 1.06178 -1.16464 0
M  V30 37823 C 3838.39 1.79264 -0.94828 0
M  V30 37824 C 3838.73 1.87038 0.522546 0
M  V30 37825 O 3838 1.36284 1.38769 0
M  V30 37826 C 3838.28 3.2369 -1.57787 0
M  V30 37827 C 3838.14 3.23989 -3.12011 0
M  V30 37828 C 3839.46 4.21272 -1.27351 0
M  V30 37829 H 3836.58 0.650776 -0.345919 0
M  V30 37830 H 3839.22 1.24169 -1.43812 0
M  V30 37831 H 3837.37 3.70736 -1.16133 0
M  V30 37832 H 3839.04 2.85096 -3.62654 0
M  V30 37833 H 3837.28 2.62609 -3.45281 0
M  V30 37834 H 3837.95 4.2588 -3.51184 0
M  V30 37835 H 3840.43 3.82673 -1.63403 0
M  V30 37836 H 3839.31 5.2059 -1.74002 0
M  V30 37837 H 3839.57 4.41681 -0.192546 0
M  V30 37838 N 3838.63 0.96331 1.24732 0
M  V30 37839 C 3839.85 0.640268 1.96744 0
M  V30 37840 C 3840.27 -0.789415 1.71504 0
M  V30 37841 O 3839.63 -1.52912 0.996201 0
M  V30 37842 C 3839.68 0.900048 3.50116 0
M  V30 37843 O 3839.4 2.27352 3.7449 0
M  V30 37844 C 3840.9 0.590589 4.39348 0
M  V30 37845 H 3838.12 0.239277 0.626887 0
M  V30 37846 H 3840.66 1.29005 1.58676 0
M  V30 37847 H 3838.82 0.296546 3.86263 0
M  V30 37848 H 3839.23 2.35021 4.68898 0
M  V30 37849 H 3840.71 0.82284 5.45833 0
M  V30 37850 H 3841.18 -0.475061 4.36623 0
M  V30 37851 H 3841.79 1.1738 4.08781 0
M  V30 37852 N 3840.1 -1.39522 0.732902 0
M  V30 37853 C 3841.51 -1.83387 0.350178 0
M  V30 37854 C 3841.87 -1.61227 -1.11804 0
M  V30 37855 O 3840.99 -1.10232 -1.8622 0
M  V30 37856 C 3841.59 -3.32914 0.628802 0
M  V30 37857 C 3840.14 -3.75206 0.299595 0
M  V30 37858 C 3839.29 -2.62545 0.89248 0
M  V30 37859 H 3842.24 -1.28544 0.930709 0
M  V30 37860 H 3842.26 -3.80368 -0.100139 0
M  V30 37861 H 3841.78 -3.4901 1.69746 0
M  V30 37862 H 3839.88 -3.64698 -0.763309 0
M  V30 37863 H 3839.99 -4.72697 0.78069 0
M  V30 37864 H 3838.35 -2.52691 0.319263 0
M  V30 37865 H 3839.14 -2.81448 1.96575 0
M  V30 37866 N 3841.58 -0.480375 -1.501 0
M  V30 37867 C 3842.81 0.0688116 -2.06786 0
M  V30 37868 C 3843.22 1.3268 -1.34318 0
M  V30 37869 O 3842.58 1.77714 -0.415227 0
M  V30 37870 C 3842.63 0.347459 -3.59826 0
M  V30 37871 O 3842.35 -0.860645 -4.29563 0
M  V30 37872 C 3843.85 0.942584 -4.33163 0
M  V30 37873 H 3841.07 -0.011229 -0.670906 0
M  V30 37874 H 3843.62 -0.671822 -1.9315 0
M  V30 37875 H 3841.77 1.03804 -3.73234 0
M  V30 37876 H 3842.19 -0.610888 -5.2093 0
M  V30 37877 H 3843.66 1.08726 -5.41186 0
M  V30 37878 H 3844.14 1.93511 -3.94272 0
M  V30 37879 H 3844.74 0.290104 -4.24309 0
M  V30 37880 N 3843.06 1.56149 -0.213351 0
M  V30 37881 C 3844.47 1.84339 0.295988 0
M  V30 37882 C 3844.82 1.13454 1.60071 0
M  V30 37883 O 3843.95 0.401438 2.12644 0
M  V30 37884 C 3844.54 3.34407 0.543811 0
M  V30 37885 C 3843.1 3.62943 0.997476 0
M  V30 37886 C 3842.25 2.77243 0.0560336 0
M  V30 37887 H 3845.2 1.52572 -0.436733 0
M  V30 37888 H 3845.22 3.54168 1.39086 0
M  V30 37889 H 3844.73 3.85971 -0.405953 0
M  V30 37890 H 3842.83 3.16828 1.96088 0
M  V30 37891 H 3842.95 4.70994 0.877559 0
M  V30 37892 H 3841.31 2.48438 0.561318 0
M  V30 37893 H 3842.09 3.31603 -0.888501 0
M  V30 37894 N 3844.54 -0.0601128 1.57485 0
M  V30 37895 C 3845.77 -0.769647 1.92052 0
M  V30 37896 C 3846.18 -1.70523 0.810394 0
M  V30 37897 O 3845.54 -1.81223 -0.215495 0
M  V30 37898 C 3845.59 -1.55334 3.26426 0
M  V30 37899 O 3845.31 -0.655346 4.33171 0
M  V30 37900 C 3846.81 -2.36283 3.75081 0
M  V30 37901 H 3844.03 -0.218164 0.634544 0
M  V30 37902 H 3846.58 -0.0268948 2.04482 0
M  V30 37903 H 3844.73 -2.24826 3.15487 0
M  V30 37904 H 3845.14 -1.20162 5.1055 0
M  V30 37905 H 3846.62 -2.8671 4.717 0
M  V30 37906 H 3847.1 -3.16331 3.04683 0
M  V30 37907 H 3847.7 -1.71925 3.89001 0
M  V30 37908 N 3846.02 -1.54068 -0.331762 0
M  V30 37909 C 3847.43 -1.63205 -0.906691 0
M  V30 37910 C 3847.78 -0.52087 -1.8916 0
M  V30 37911 O 3846.9 0.34754 -2.13591 0
M  V30 37912 C 3847.5 -2.95835 -1.65127 0
M  V30 37913 C 3846.06 -3.07195 -2.17504 0
M  V30 37914 C 3845.2 -2.58725 -0.997834 0
M  V30 37915 H 3848.16 -1.58321 -0.109567 0
M  V30 37916 H 3848.18 -2.85536 -2.51495 0
M  V30 37917 H 3847.69 -3.76689 -0.934189 0
M  V30 37918 H 3845.79 -2.31 -2.92352 0
M  V30 37919 H 3845.9 -4.12862 -2.43067 0
M  V30 37920 H 3844.27 -2.14419 -1.37465 0
M  V30 37921 H 3845.05 -3.42028 -0.295201 0
M  V30 37922 N 3847.49 0.593399 -1.46002 0
M  V30 37923 C 3848.72 1.37827 -1.54309 0
M  V30 37924 C 3849.14 1.87935 -0.180513 0
M  V30 37925 O 3848.49 1.63021 0.820398 0
M  V30 37926 C 3848.55 2.57311 -2.53916 0
M  V30 37927 O 3848.27 2.09282 -3.8488 0
M  V30 37928 C 3849.77 3.49998 -2.7206 0
M  V30 37929 H 3846.99 0.421419 -0.522156 0
M  V30 37930 H 3849.53 0.722389 -1.91316 0
M  V30 37931 H 3847.69 3.18911 -2.19942 0
M  V30 37932 H 3848.1 2.87017 -4.39001 0
M  V30 37933 H 3849.57 4.30343 -3.457 0
M  V30 37934 H 3850.05 4.01251 -1.7859 0
M  V30 37935 H 3850.66 2.94241 -3.07087 0
M  V30 37936 N 3848.97 1.33529 0.837127 0
M  V30 37937 C 3850.22 1.24837 1.58934 0
M  V30 37938 C 3850.54 -0.185334 1.94117 0
M  V30 37939 O 3849.81 -1.11451 1.61107 0
M  V30 37940 H 3848.39 0.459068 0.589293 0
M  V30 37941 H 3851.05 1.67269 1.00035 0
M  V30 37942 H 3850.15 1.84329 2.51852 0
M  V30 37943 N 3850.45 -1.05559 1.17026 0
M  V30 37944 C 3851.68 -1.82176 0.980782 0
M  V30 37945 C 3852.09 -1.82831 -0.470995 0
M  V30 37946 O 3851.45 -1.25286 -1.32701 0
M  V30 37947 C 3851.5 -3.2846 1.50985 0
M  V30 37948 O 3851.22 -3.27955 2.90477 0
M  V30 37949 C 3852.72 -4.2178 1.36443 0
M  V30 37950 H 3849.94 -0.574183 0.34721 0
M  V30 37951 H 3852.49 -1.33133 1.55228 0
M  V30 37952 H 3850.64 -3.74788 0.980459 0
M  V30 37953 H 3851.06 -4.19484 3.14855 0
M  V30 37954 H 3852.53 -5.22417 1.78281 0
M  V30 37955 H 3853.01 -4.38098 0.310999 0
M  V30 37956 H 3853.61 -3.81304 1.8838 0
M  V30 37957 N 3851.93 -0.969911 -1.2422 0
M  V30 37958 C 3852.86 -0.459676 -2.24543 0
M  V30 37959 C 3853.87 0.432786 -1.56942 0
M  V30 37960 O 3855.06 0.238606 -1.76898 0
M  V30 37961 C 3852.16 0.355441 -3.37031 0
M  V30 37962 C 3851.34 -0.527642 -4.34206 0
M  V30 37963 C 3850.39 0.231842 -5.25689 0
M  V30 37964 O 3849.42 -0.374979 -5.67964 0
M  V30 37965 N 3850.62 1.5208 -5.60225 0
M  V30 37966 H 3853.39 -1.32225 -2.68955 0
M  V30 37967 H 3850.95 -0.841984 -1.38283 0
M  V30 37968 H 3852.94 0.871615 -3.95202 0
M  V30 37969 H 3851.51 1.11896 -2.91887 0
M  V30 37970 H 3850.73 -1.22477 -3.74691 0
M  V30 37971 H 3852.02 -1.12984 -4.96097 0
M  V30 37972 H 3851.42 2.0355 -5.27811 0
M  V30 37973 H 3849.97 1.98262 -6.20915 0
M  V30 37974 N 3853.41 1.39131 -0.740291 0
M  V30 37975 C 3854.63 2.04699 -0.300966 0
M  V30 37976 C 3855.05 1.55821 1.06607 0
M  V30 37977 O 3854.41 0.725417 1.67463 0
M  V30 37978 C 3854.46 3.60256 -0.299637 0
M  V30 37979 O 3854.18 4.07336 -1.61272 0
M  V30 37980 C 3855.68 4.43028 0.155201 0
M  V30 37981 H 3852.9 0.658155 -0.130664 0
M  V30 37982 H 3855.44 1.78077 -1.00542 0
M  V30 37983 H 3853.6 3.85761 0.355973 0
M  V30 37984 H 3854.01 5.01693 -1.52986 0
M  V30 37985 H 3855.49 5.519 0.104971 0
M  V30 37986 H 3855.96 4.22456 1.20116 0
M  V30 37987 H 3856.57 4.22683 -0.47104 0
M  V30 37988 N 3854.88 0.488329 1.49844 0
M  V30 37989 C 3856.3 0.0374098 1.86663 0
M  V30 37990 C 3856.65 -1.37279 1.40175 0
M  V30 37991 O 3855.77 -2.0208 0.774126 0
M  V30 37992 C 3856.37 0.0611119 3.38745 0
M  V30 37993 C 3854.93 -0.334409 3.74912 0
M  V30 37994 C 3854.07 0.439158 2.738 0
M  V30 37995 H 3857.02 0.701755 1.42341 0
M  V30 37996 H 3857.04 -0.737137 3.73291 0
M  V30 37997 H 3856.56 1.08759 3.72549 0
M  V30 37998 H 3854.66 -1.3646 3.46712 0
M  V30 37999 H 3854.77 -0.0237694 4.79094 0
M  V30 38000 H 3853.13 -0.109389 2.54465 0
M  V30 38001 H 3853.92 1.46548 3.10449 0
M  V30 38002 N 3856.36 -1.56034 0.221629 0
M  V30 38003 C 3857.59 -2.02697 -0.414909 0
M  V30 38004 C 3858.01 -1.10143 -1.53342 0
M  V30 38005 O 3857.36 -0.111058 -1.82162 0
M  V30 38006 C 3857.41 -3.4889 -0.94647 0
M  V30 38007 O 3857.13 -4.37915 0.127447 0
M  V30 38008 C 3858.64 -4.11198 -1.65624 0
M  V30 38009 H 3855.86 -0.663273 -0.101537 0
M  V30 38010 H 3858.4 -2.01686 0.338105 0
M  V30 38011 H 3856.55 -3.50516 -1.64976 0
M  V30 38012 H 3856.97 -5.23794 -0.272119 0
M  V30 38013 H 3858.44 -5.1526 -1.98018 0
M  V30 38014 H 3858.92 -3.56199 -2.56941 0
M  V30 38015 H 3859.53 -4.13421 -0.998158 0
M  V30 38016 N 3857.84 0.0517601 -1.57515 0
M  V30 38017 C 3859.07 0.759451 -1.92458 0
M  V30 38018 C 3859.48 1.70091 -0.819426 0
M  V30 38019 O 3858.84 1.81335 0.205881 0
M  V30 38020 C 3858.89 1.536 -3.27245 0
M  V30 38021 O 3858.61 0.632365 -4.33512 0
M  V30 38022 C 3860.11 2.3429 -3.76328 0
M  V30 38023 H 3857.33 0.214796 -0.635692 0
M  V30 38024 H 3859.88 0.0160503 -2.04494 0
M  V30 38025 H 3858.03 2.23149 -3.16675 0
M  V30 38026 H 3858.45 1.17453 -5.1118 0
M  V30 38027 H 3859.92 2.84205 -4.73214 0
M  V30 38028 H 3860.4 3.1471 -3.06356 0
M  V30 38029 H 3861 1.69859 -3.89907 0
M  V30 38030 N 3859.32 1.54242 0.323587 0
M  V30 38031 C 3860.55 1.7641 1.08107 0
M  V30 38032 C 3860.96 0.512688 1.81706 0
M  V30 38033 O 3860.32 -0.516607 1.75035 0
M  V30 38034 C 3860.37 2.95723 2.07918 0
M  V30 38035 O 3860.09 4.16026 1.37309 0
M  V30 38036 C 3861.59 3.30101 2.95885 0
M  V30 38037 H 3858.81 0.588925 0.321572 0
M  V30 38038 H 3861.36 2.0113 0.369721 0
M  V30 38039 H 3859.51 2.73277 2.74588 0
M  V30 38040 H 3859.93 4.83139 2.0415 0
M  V30 38041 H 3861.4 4.16887 3.61814 0
M  V30 38042 H 3861.88 2.47267 3.62982 0
M  V30 38043 H 3862.48 3.54627 2.34777 0
M  V30 38044 N 3860.8 -0.585648 1.46314 0
M  V30 38045 C 3862.21 -1.16776 1.45672 0
M  V30 38046 C 3862.56 -1.95219 0.195991 0
M  V30 38047 O 3861.68 -2.04728 -0.701106 0
M  V30 38048 C 3862.28 -2.12438 2.63923 0
M  V30 38049 C 3860.84 -2.65979 2.66331 0
M  V30 38050 C 3859.99 -1.41793 2.38307 0
M  V30 38051 H 3862.94 -0.373743 1.54236 0
M  V30 38052 H 3862.96 -2.95852 2.39274 0
M  V30 38053 H 3862.47 -1.55318 3.55666 0
M  V30 38054 H 3860.57 -3.26976 1.78654 0
M  V30 38055 H 3860.68 -3.08914 3.66209 0
M  V30 38056 H 3859.05 -1.71503 1.88305 0
M  V30 38057 H 3859.83 -0.865081 3.32222 0
M  V30 38058 N 3862.28 -1.33971 -0.830033 0
M  V30 38059 C 3863.52 -1.25271 -1.58082 0
M  V30 38060 C 3863.84 0.177523 -1.94793 0
M  V30 38061 O 3865.04 0.38661 -2.68733 0
M  V30 38062 C 3863.5 -2.19555 -2.85173 0
M  V30 38063 C 3863.11 -3.67797 -2.55792 0
M  V30 38064 C 3864.85 -2.19748 -3.63196 0
M  V30 38065 C 3862.76 -4.53969 -3.79033 0
M  V30 38066 H 3861.69 -0.465332 -0.593281 0
M  V30 38067 H 3864.34 -1.59091 -0.914449 0
M  V30 38068 H 3862.72 -1.78678 -3.53398 0
M  V30 38069 H 3863.9 -4.17168 -1.95722 0
M  V30 38070 H 3862.21 -3.69981 -1.91057 0
M  V30 38071 H 3864.81 -2.81355 -4.5469 0
M  V30 38072 H 3865.15 -1.19487 -3.98784 0
M  V30 38073 H 3865.68 -2.59033 -3.01905 0
M  V30 38074 H 3862.42 -5.55139 -3.4857 0
M  V30 38075 H 3861.94 -4.09337 -4.3841 0
M  V30 38076 H 3863.62 -4.6822 -4.46519 0
M  V30 38077 N 3863.75 1.04937 -1.17584 0
M  V30 38078 C 3864.98 1.81654 -0.99043 0
M  V30 38079 C 3865.4 1.83078 0.461292 0
M  V30 38080 O 3864.75 1.25988 1.32035 0
M  V30 38081 C 3864.8 3.27655 -1.52724 0
M  V30 38082 O 3864.53 3.2641 -2.92212 0
M  V30 38083 C 3866.03 4.2105 -1.38678 0
M  V30 38084 H 3863.25 0.572334 -0.35025 0
M  V30 38085 H 3865.79 1.32308 -1.55932 0
M  V30 38086 H 3863.95 3.74262 -1.00032 0
M  V30 38087 H 3864.36 4.17808 -3.17075 0
M  V30 38088 H 3865.83 5.21464 -1.81049 0
M  V30 38089 H 3866.31 4.37926 -0.334228 0
M  V30 38090 H 3866.92 3.803 -1.904 0
M  V30 38091 N 3865.23 0.976485 1.23703 0
M  V30 38092 C 3866.46 0.6611 1.96054 0
M  V30 38093 C 3866.87 -0.77118 1.72332 0
M  V30 38094 O 3866.23 -1.51847 1.01236 0
M  V30 38095 C 3866.28 0.937132 3.49142 0
M  V30 38096 O 3866 2.31311 3.72057 0
M  V30 38097 C 3867.5 0.637154 4.38697 0
M  V30 38098 H 3864.72 0.245912 0.624314 0
M  V30 38099 H 3867.27 1.30681 1.57299 0
M  V30 38100 H 3865.42 0.337498 3.85927 0
M  V30 38101 H 3865.84 2.39981 4.66379 0
M  V30 38102 H 3867.31 0.880686 5.44929 0
M  V30 38103 H 3867.79 -0.428725 4.37102 0
M  V30 38104 H 3868.39 1.21709 4.07513 0
M  V30 38105 N 3866.71 -1.38737 0.747659 0
M  V30 38106 C 3867.94 -2.04537 0.311817 0
M  V30 38107 C 3868.35 -1.56385 -1.05779 0
M  V30 38108 O 3867.71 -0.734288 -1.67076 0
M  V30 38109 C 3867.76 -3.60092 0.318738 0
M  V30 38110 O 3867.48 -4.06475 1.6343 0
M  V30 38111 C 3868.98 -4.43104 -0.131704 0
M  V30 38112 H 3866.2 -0.657453 0.134152 0
M  V30 38113 H 3868.75 -1.77542 1.01485 0
M  V30 38114 H 3866.9 -3.85944 -0.33551 0
M  V30 38115 H 3867.32 -5.00874 1.55644 0
M  V30 38116 H 3868.79 -5.51948 -0.0757008 0
M  V30 38117 H 3869.27 -4.23087 -1.17874 0
M  V30 38118 H 3869.87 -4.22428 0.493449 0
M  V30 38119 N 3868.19 -0.496268 -1.49583 0
M  V30 38120 C 3869.42 0.0468754 -2.06847 0
M  V30 38121 C 3869.83 1.31248 -1.35718 0
M  V30 38122 O 3869.19 1.77263 -0.434052 0
M  V30 38123 C 3869.24 0.309275 -3.60175 0
M  V30 38124 O 3868.96 -0.906157 -4.28626 0
M  V30 38125 C 3870.46 0.896588 -4.34138 0
M  V30 38126 H 3867.68 -0.0183442 -0.670749 0
M  V30 38127 H 3870.22 -0.69227 -1.92426 0
M  V30 38128 H 3868.38 0.998393 -3.74314 0
M  V30 38129 H 3868.79 -0.666105 -5.20253 0
M  V30 38130 H 3870.27 1.0298 -5.42309 0
M  V30 38131 H 3870.74 1.89318 -3.96302 0
M  V30 38132 H 3871.35 0.245084 -4.24593 0
M  V30 38133 N 3869.67 1.55914 -0.2299 0
M  V30 38134 C 3870.89 2.02914 0.404154 0
M  V30 38135 C 3871.31 1.10955 1.52756 0
M  V30 38136 O 3870.67 0.120717 1.821 0
M  V30 38137 C 3870.72 3.49387 0.927955 0
M  V30 38138 O 3870.44 4.37841 -0.150669 0
M  V30 38139 C 3871.94 4.1207 1.63441 0
M  V30 38140 H 3869.16 0.663802 0.0980177 0
M  V30 38141 H 3871.7 2.01504 -0.348796 0
M  V30 38142 H 3869.86 3.51386 1.63114 0
M  V30 38143 H 3870.27 5.23931 0.244337 0
M  V30 38144 H 3871.75 5.16303 1.95283 0
M  V30 38145 H 3872.22 3.57557 2.55048 0
M  V30 38146 H 3872.83 4.13944 0.97622 0
M  V30 38147 N 3871.14 -0.043406 1.5754 0
M  V30 38148 C 3872.39 -0.738166 1.88889 0
M  V30 38149 C 3872.72 -1.75765 0.825858 0
M  V30 38150 O 3872 -1.93834 -0.160763 0
M  V30 38151 C 3872.28 -1.42067 3.30891 0
M  V30 38152 C 3872.13 -0.415675 4.47875 0
M  V30 38153 C 3873.45 -2.35839 3.71575 0
M  V30 38154 H 3870.57 -0.266885 0.68698 0
M  V30 38155 H 3873.21 -0.00103617 1.9 0
M  V30 38156 H 3871.36 -2.04898 3.30075 0
M  V30 38157 H 3873.04 0.20961 4.60824 0
M  V30 38158 H 3871.28 0.266422 4.32981 0
M  V30 38159 H 3871.95 -0.931413 5.44085 0
M  V30 38160 H 3874.43 -1.83064 3.73667 0
M  V30 38161 H 3873.3 -2.80581 4.71768 0
M  V30 38162 H 3873.56 -3.21893 3.03047 0
M  V30 38163 N 3872.62 -1.54412 -0.315402 0
M  V30 38164 C 3873.85 -1.76981 -1.0717 0
M  V30 38165 C 3874.26 -0.522317 -1.81431 0
M  V30 38166 O 3873.62 0.507317 -1.75307 0
M  V30 38167 C 3873.67 -2.96822 -2.06347 0
M  V30 38168 O 3873.39 -4.16749 -1.35101 0
M  V30 38169 C 3874.89 -3.31666 -2.9413 0
M  V30 38170 H 3872.11 -0.590622 -0.318444 0
M  V30 38171 H 3874.66 -2.01323 -0.359049 0
M  V30 38172 H 3872.81 -2.74729 -2.73135 0
M  V30 38173 H 3873.23 -4.84215 -2.01585 0
M  V30 38174 H 3874.7 -4.188 -3.59598 0
M  V30 38175 H 3875.18 -2.49188 -3.61665 0
M  V30 38176 H 3875.78 -3.55867 -2.32893 0
M  V30 38177 N 3874.1 0.57788 -1.46623 0
M  V30 38178 C 3875.51 1.16001 -1.46289 0
M  V30 38179 C 3875.86 1.95112 -0.206341 0
M  V30 38180 O 3874.99 2.05097 0.690238 0
M  V30 38181 C 3875.58 2.11035 -2.65046 0
M  V30 38182 C 3874.14 2.64563 -2.67738 0
M  V30 38183 C 3873.29 1.40527 -2.39055 0
M  V30 38184 H 3876.24 0.365558 -1.54432 0
M  V30 38185 H 3876.26 2.94579 -2.40839 0
M  V30 38186 H 3875.77 1.5343 -3.56484 0
M  V30 38187 H 3873.87 3.26024 -1.80385 0
M  V30 38188 H 3873.99 3.06968 -3.67842 0
M  V30 38189 H 3872.35 1.70502 -1.89212 0
M  V30 38190 H 3873.13 0.847451 -3.32676 0
M  V30 38191 N 3875.58 1.34409 0.822917 0
M  V30 38192 C 3876.81 1.29843 1.61085 0
M  V30 38193 C 3877.22 -0.127494 1.88369 0
M  V30 38194 O 3876.58 -1.07457 1.4751 0
M  V30 38195 C 3876.63 2.08694 2.95176 0
M  V30 38196 O 3876.35 3.45726 2.69083 0
M  V30 38197 C 3877.85 2.11525 3.89579 0
M  V30 38198 H 3875.07 0.446679 0.500718 0
M  V30 38199 H 3877.62 1.77023 1.02388 0
M  V30 38200 H 3875.77 1.65156 3.50431 0
M  V30 38201 H 3876.18 3.86485 3.54583 0
M  V30 38202 H 3877.66 2.7112 4.80831 0
M  V30 38203 H 3878.14 1.10965 4.24951 0
M  V30 38204 H 3878.74 2.55152 3.40261 0
M  V30 38205 N 3877.06 -1.04312 1.18139 0
M  V30 38206 C 3878.47 -1.58924 0.979795 0
M  V30 38207 C 3878.82 -1.90458 -0.471181 0
M  V30 38208 O 3877.94 -1.69279 -1.34809 0
M  V30 38209 C 3878.54 -2.88751 1.77224 0
M  V30 38210 C 3877.1 -3.39989 1.61506 0
M  V30 38211 C 3876.24 -2.13606 1.76827 0
M  V30 38212 H 3879.2 -0.870139 1.32719 0
M  V30 38213 H 3879.22 -3.59037 1.25986 0
M  V30 38214 H 3878.73 -2.65768 2.82823 0
M  V30 38215 H 3876.83 -3.6799 0.584334 0
M  V30 38216 H 3876.94 -4.13981 2.41157 0
M  V30 38217 H 3875.31 -2.24793 1.19751 0
M  V30 38218 H 3876.09 -1.93082 2.83856 0
M  V30 38219 N 3878.53 -0.983032 -1.23184 0
M  V30 38220 C 3879.76 -0.671487 -1.957 0
M  V30 38221 C 3880.18 0.76203 -1.72738 0
M  V30 38222 O 3879.53 1.51308 -1.0204 0
M  V30 38223 C 3879.59 -0.955635 -3.4864 0
M  V30 38224 O 3879.31 -2.33281 -3.70825 0
M  V30 38225 C 3880.81 -0.66041 -4.38353 0
M  V30 38226 H 3878.03 -0.249219 -0.623001 0
M  V30 38227 H 3880.57 -1.31513 -1.56603 0
M  V30 38228 H 3878.73 -0.35796 -3.85743 0
M  V30 38229 H 3879.14 -2.42451 -4.651 0
M  V30 38230 H 3880.61 -0.909573 -5.44455 0
M  V30 38231 H 3881.09 0.405538 -4.37324 0
M  V30 38232 H 3881.7 -1.23868 -4.06862 0
M  V30 38233 N 3880.01 1.38338 -0.755006 0
M  V30 38234 C 3881.42 1.82806 -0.379308 0
M  V30 38235 C 3881.77 1.62986 1.09225 0
M  V30 38236 O 3880.9 1.13181 1.84443 0
M  V30 38237 C 3881.49 3.31871 -0.681686 0
M  V30 38238 C 3880.05 3.74682 -0.359249 0
M  V30 38239 C 3879.2 2.61092 -0.934136 0
M  V30 38240 H 3882.15 1.27047 -0.951042 0
M  V30 38241 H 3882.17 3.80479 0.0396134 0
M  V30 38242 H 3881.68 3.46265 -1.75277 0
M  V30 38243 H 3879.79 3.65866 0.705192 0
M  V30 38244 H 3879.9 4.71395 -0.855793 0
M  V30 38245 H 3878.26 2.52151 -0.359423 0
M  V30 38246 H 3879.05 2.78285 -2.01028 0
M  V30 38247 N 3881.49 0.504194 1.49317 0
M  V30 38248 C 3882.72 -0.0359052 2.06869 0
M  V30 38249 C 3883.13 -1.30527 1.36412 0
M  V30 38250 O 3882.49 -1.7703 0.443447 0
M  V30 38251 C 3882.54 -0.29017 3.60334 0
M  V30 38252 O 3882.26 0.928876 4.2814 0
M  V30 38253 C 3883.76 -0.873552 4.34608 0
M  V30 38254 H 3880.98 0.0219011 0.670642 0
M  V30 38255 H 3883.53 0.702465 1.92056 0
M  V30 38256 H 3881.68 -0.978528 3.74838 0
M  V30 38257 H 3882.1 0.693686 5.19893 0
M  V30 38258 H 3883.57 -1.00103 5.42848 0
M  V30 38259 H 3884.05 -1.87214 3.97301 0
M  V30 38260 H 3884.65 -0.222563 4.24717 0
M  V30 38261 N 3882.97 -1.5579 0.238166 0
M  V30 38262 C 3884.22 -1.98336 -0.388228 0
M  V30 38263 C 3884.54 -1.12745 -1.59102 0
M  V30 38264 O 3883.81 -0.208235 -1.9479 0
M  V30 38265 H 3882.39 -0.732508 -0.146428 0
M  V30 38266 H 3885.05 -1.92001 0.334925 0
M  V30 38267 H 3884.15 -3.04072 -0.703306 0
M  V30 38268 N 3884.45 0.0350506 -1.57561 0
M  V30 38269 C 3885.67 0.738996 -1.93252 0
M  V30 38270 C 3886.09 1.69212 -0.83742 0
M  V30 38271 O 3885.45 1.81543 0.186637 0
M  V30 38272 C 3885.5 1.50121 -3.28856 0
M  V30 38273 O 3885.22 0.58635 -4.34158 0
M  V30 38274 C 3886.72 2.30285 -3.78792 0
M  V30 38275 H 3883.94 0.208041 -0.637934 0
M  V30 38276 H 3886.48 -0.00563993 -2.04499 0
M  V30 38277 H 3884.64 2.19778 -3.19024 0
M  V30 38278 H 3885.05 1.12025 -5.12397 0
M  V30 38279 H 3886.53 2.7917 -4.76202 0
M  V30 38280 H 3887 3.11443 -3.09677 0
M  V30 38281 H 3887.61 1.65714 -3.91687 0
M  V30 38282 N 3885.92 1.54577 0.307209 0
M  V30 38283 C 3886.86 1.81461 1.40016 0
M  V30 38284 C 3887.87 0.697272 1.47112 0
M  V30 38285 O 3889.06 0.974652 1.49542 0
M  V30 38286 C 3886.16 1.93202 2.78435 0
M  V30 38287 C 3885.33 3.23541 2.94347 0
M  V30 38288 C 3884.39 3.25776 4.13227 0
M  V30 38289 O 3883.42 3.99339 4.05607 0
M  V30 38290 N 3884.62 2.50724 5.23562 0
M  V30 38291 H 3887.38 2.75786 1.17312 0
M  V30 38292 H 3884.94 1.54074 0.497259 0
M  V30 38293 H 3886.94 1.92107 3.56198 0
M  V30 38294 H 3885.51 1.059 2.94116 0
M  V30 38295 H 3884.73 3.37461 2.03749 0
M  V30 38296 H 3886.01 4.09564 3.01885 0
M  V30 38297 H 3885.41 1.90578 5.32632 0
M  V30 38298 H 3883.97 2.55389 5.99683 0
M  V30 38299 N 3887.4 -0.570096 1.46927 0
M  V30 38300 C 3888.63 -1.35355 1.56482 0
M  V30 38301 C 3889.05 -1.87624 0.210389 0
M  V30 38302 O 3888.4 -1.64305 -0.794359 0
M  V30 38303 C 3888.45 -2.53239 2.57977 0
M  V30 38304 O 3888.17 -2.03132 3.88161 0
M  V30 38305 C 3889.68 -3.45625 2.77593 0
M  V30 38306 H 3886.9 -0.413058 0.528795 0
M  V30 38307 H 3889.44 -0.691861 1.92441 0
M  V30 38308 H 3887.59 -3.15371 2.24988 0
M  V30 38309 H 3888.01 -2.79996 4.43511 0
M  V30 38310 H 3889.48 -4.24789 3.52503 0
M  V30 38311 H 3889.96 -3.98359 1.84951 0
M  V30 38312 H 3890.57 -2.89318 3.11729 0
M  V30 38313 N 3888.88 -1.34844 -0.815777 0
M  V30 38314 C 3890.29 -1.24744 -1.38909 0
M  V30 38315 C 3890.64 0.124066 -1.95807 0
M  V30 38316 O 3889.77 1.02469 -1.90602 0
M  V30 38317 C 3890.36 -2.25866 -2.52528 0
M  V30 38318 C 3888.92 -2.19535 -3.05747 0
M  V30 38319 C 3888.07 -2.12078 -1.78657 0
M  V30 38320 H 3891.02 -1.46106 -0.619575 0
M  V30 38321 H 3891.04 -1.8798 -3.30823 0
M  V30 38322 H 3890.55 -3.25675 -2.11086 0
M  V30 38323 H 3888.65 -1.23106 -3.51676 0
M  V30 38324 H 3888.77 -3.11101 -3.64353 0
M  V30 38325 H 3887.13 -1.5791 -1.99841 0
M  V30 38326 H 3887.91 -3.13733 -1.3938 0
M  V30 38327 N 3890.36 1.03684 -1.1869 0
M  V30 38328 C 3891.59 1.80593 -1.00964 0
M  V30 38329 C 3892 1.83557 0.441848 0
M  V30 38330 O 3891.36 1.27382 1.30691 0
M  V30 38331 C 3891.41 3.26016 -1.56191 0
M  V30 38332 O 3891.13 3.23293 -2.95658 0
M  V30 38333 C 3892.63 4.19556 -1.43136 0
M  V30 38334 H 3889.85 0.568587 -0.356301 0
M  V30 38335 H 3892.4 1.30647 -1.57326 0
M  V30 38336 H 3890.55 3.7318 -1.03996 0
M  V30 38337 H 3890.97 4.14422 -3.21488 0
M  V30 38338 H 3892.44 5.19515 -1.8657 0
M  V30 38339 H 3892.92 4.37547 -0.380658 0
M  V30 38340 H 3893.52 3.78259 -1.94423 0
M  V30 38341 N 3891.84 0.989551 1.22661 0
M  V30 38342 C 3893.07 0.681856 1.95342 0
M  V30 38343 C 3893.48 -0.752859 1.7314 0
M  V30 38344 O 3892.84 -1.50765 1.02841 0
M  V30 38345 C 3892.89 0.974111 3.48128 0
M  V30 38346 O 3892.61 2.35245 3.69583 0
M  V30 38347 C 3894.11 0.683648 4.37997 0
M  V30 38348 H 3891.33 0.25252 0.621671 0
M  V30 38349 H 3893.87 1.32342 1.55904 0
M  V30 38350 H 3892.03 0.378412 3.85547 0
M  V30 38351 H 3892.44 2.44914 4.63807 0
M  V30 38352 H 3893.92 0.938434 5.43965 0
M  V30 38353 H 3894.39 -0.38234 4.37533 0
M  V30 38354 H 3895 1.26024 4.06199 0
M  V30 38355 N 3893.32 -1.37936 0.762332 0
M  V30 38356 C 3894.54 -2.04195 0.333494 0
M  V30 38357 C 3894.96 -1.57498 -1.04115 0
M  V30 38358 O 3894.32 -0.751968 -1.66288 0
M  V30 38359 C 3894.37 -3.59734 0.356913 0
M  V30 38360 O 3894.09 -4.04719 1.67732 0
M  V30 38361 C 3895.59 -4.43219 -0.0846997 0
M  V30 38362 H 3892.81 -0.655993 0.141118 0
M  V30 38363 H 3895.35 -1.76455 1.03363 0
M  V30 38364 H 3893.51 -3.86279 -0.294557 0
M  V30 38365 H 3893.92 -4.99195 1.60948 0
M  V30 38366 H 3895.4 -5.51997 -0.017155 0
M  V30 38367 H 3895.87 -4.24313 -1.1338 0
M  V30 38368 H 3896.48 -4.21881 0.538225 0
M  V30 38369 N 3894.79 -0.512106 -1.49048 0
M  V30 38370 C 3896.2 -0.0671014 -1.86579 0
M  V30 38371 C 3896.56 1.35031 -1.42341 0
M  V30 38372 O 3895.68 2.00823 -0.806177 0
M  V30 38373 C 3896.28 -0.114996 -3.38605 0
M  V30 38374 C 3894.83 0.274721 -3.75396 0
M  V30 38375 C 3893.98 -0.482661 -2.73067 0
M  V30 38376 H 3896.93 -0.724312 -1.41207 0
M  V30 38377 H 3896.95 0.677656 -3.74417 0
M  V30 38378 H 3896.47 -1.14672 -3.70772 0
M  V30 38379 H 3894.57 1.30927 -3.4884 0
M  V30 38380 H 3894.68 -0.0524534 -4.79071 0
M  V30 38381 H 3893.04 0.0688917 -2.54607 0
M  V30 38382 H 3893.83 -1.51468 -3.08078 0
M  V30 38383 N 3896.27 1.55662 -0.246424 0
M  V30 38384 C 3897.52 1.98108 0.378938 0
M  V30 38385 C 3897.83 1.13778 1.59104 0
M  V30 38386 O 3899.04 1.46236 2.28752 0
M  V30 38387 C 3897.5 3.5251 0.725572 0
M  V30 38388 C 3897.1 4.45579 -0.465102 0
M  V30 38389 C 3898.85 4.03614 1.31515 0
M  V30 38390 C 3896.75 5.91324 -0.0946487 0
M  V30 38391 H 3895.68 0.739856 0.145357 0
M  V30 38392 H 3898.34 1.80198 -0.346565 0
M  V30 38393 H 3896.72 3.66114 1.50919 0
M  V30 38394 H 3897.89 4.43734 -1.24244 0
M  V30 38395 H 3896.21 4.04955 -0.969578 0
M  V30 38396 H 3898.8 5.10023 1.60564 0
M  V30 38397 H 3899.15 3.50933 2.23946 0
M  V30 38398 H 3899.68 3.93333 0.594446 0
M  V30 38399 H 3896.42 6.48041 -0.986079 0
M  V30 38400 H 3895.94 5.96306 0.646496 0
M  V30 38401 H 3897.62 6.46192 0.323334 0
M  V30 38402 N 3897.75 -0.0266943 1.57577 0
M  V30 38403 C 3898.98 -0.728737 1.93642 0
M  V30 38404 C 3899.39 -1.68766 0.846382 0
M  V30 38405 O 3898.75 -1.8164 -0.177006 0
M  V30 38406 C 3898.8 -1.48375 3.29647 0
M  V30 38407 O 3898.52 -0.563317 4.34463 0
M  V30 38408 C 3900.02 -2.28273 3.80008 0
M  V30 38409 H 3897.24 -0.204655 0.639028 0
M  V30 38410 H 3899.79 0.0164849 2.04493 0
M  V30 38411 H 3897.94 -2.18083 3.20185 0
M  V30 38412 H 3898.36 -1.09306 5.12984 0
M  V30 38413 H 3899.83 -2.7664 4.77676 0
M  V30 38414 H 3900.31 -3.09797 3.11324 0
M  V30 38415 H 3900.91 -1.63635 3.9256 0
M  V30 38416 N 3899.23 -1.54738 -0.299007 0
M  V30 38417 C 3900.46 -1.78107 -1.05287 0
M  V30 38418 C 3900.87 -0.541531 -1.80867 0
M  V30 38419 O 3900.23 0.488695 -1.75835 0
M  V30 38420 C 3900.28 -2.98994 -2.03187 0
M  V30 38421 O 3900 -4.18158 -1.30673 0
M  V30 38422 C 3901.5 -3.34767 -2.90596 0
M  V30 38423 H 3898.72 -0.593966 -0.312162 0
M  V30 38424 H 3901.26 -2.01693 -0.337676 0
M  V30 38425 H 3899.42 -2.7761 -2.70206 0
M  V30 38426 H 3899.83 -4.86326 -1.96437 0
M  V30 38427 H 3901.31 -4.2259 -3.55136 0
M  V30 38428 H 3901.78 -2.5301 -3.59002 0
M  V30 38429 H 3902.39 -3.58317 -2.29105 0
M  V30 38430 N 3900.71 0.562296 -1.47228 0
M  V30 38431 C 3901.93 1.34523 -1.57198 0
M  V30 38432 C 3902.35 1.8751 -0.220336 0
M  V30 38433 O 3901.71 1.64724 0.785635 0
M  V30 38434 C 3901.76 2.51867 -2.59317 0
M  V30 38435 O 3901.48 2.01071 -3.89233 0
M  V30 38436 C 3902.98 3.44148 -2.79423 0
M  V30 38437 H 3900.2 0.410248 -0.530978 0
M  V30 38438 H 3902.74 0.681646 -1.92805 0
M  V30 38439 H 3900.9 3.14174 -2.26657 0
M  V30 38440 H 3901.31 2.7764 -4.4499 0
M  V30 38441 H 3902.79 4.22914 -3.5475 0
M  V30 38442 H 3903.26 3.97373 -1.87061 0
M  V30 38443 H 3903.87 2.87661 -3.13259 0
M  V30 38444 N 3902.18 1.35274 0.808615 0
M  V30 38445 C 3903.41 1.31544 1.59699 0
M  V30 38446 C 3903.83 -0.107508 1.88494 0
M  V30 38447 O 3903.18 -1.05886 1.48642 0
M  V30 38448 C 3903.23 2.11813 2.92946 0
M  V30 38449 O 3902.96 3.4856 2.65401 0
M  V30 38450 C 3904.46 2.15645 3.87314 0
M  V30 38451 H 3901.68 0.451965 0.495953 0
M  V30 38452 H 3904.22 1.78099 1.00504 0
M  V30 38453 H 3902.38 1.68864 3.4866 0
M  V30 38454 H 3902.79 3.90224 3.50464 0
M  V30 38455 H 3904.26 2.76204 4.77928 0
M  V30 38456 H 3904.74 1.15466 4.2375 0
M  V30 38457 H 3905.35 2.58747 3.37535 0
M  V30 38458 N 3903.66 -1.03053 1.19239 0
M  V30 38459 C 3904.89 -1.80055 1.0192 0
M  V30 38460 C 3905.31 -1.83789 -0.432107 0
M  V30 38461 O 3904.66 -1.28073 -1.30014 0
M  V30 38462 C 3904.71 -3.25183 1.57918 0
M  V30 38463 O 3904.43 -3.2172 2.97368 0
M  V30 38464 C 3905.94 -4.18791 1.45359 0
M  V30 38465 H 3903.16 -0.566689 0.359311 0
M  V30 38466 H 3905.7 -1.29811 1.58017 0
M  V30 38467 H 3903.85 -3.72624 1.05974 0
M  V30 38468 H 3904.27 -4.12711 3.23682 0
M  V30 38469 H 3905.74 -5.18518 1.89323 0
M  V30 38470 H 3906.22 -4.37339 0.403856 0
M  V30 38471 H 3906.83 -3.77223 1.96426 0
M  V30 38472 N 3905.14 -0.996042 -1.22134 0
M  V30 38473 C 3906.39 -0.674666 -1.91249 0
M  V30 38474 C 3906.72 0.791624 -1.77333 0
M  V30 38475 O 3905.99 1.57283 -1.14421 0
M  V30 38476 C 3906.28 -1.08527 -3.43357 0
M  V30 38477 C 3906.13 -2.61034 -3.66307 0
M  V30 38478 C 3907.45 -0.640872 -4.35409 0
M  V30 38479 H 3904.57 -0.246571 -0.69453 0
M  V30 38480 H 3907.21 -1.24012 -1.43948 0
M  V30 38481 H 3905.36 -0.604139 -3.83774 0
M  V30 38482 H 3907.03 -3.16842 -3.35275 0
M  V30 38483 H 3905.28 -3.0296 -3.1048 0
M  V30 38484 H 3905.95 -2.84815 -4.72847 0
M  V30 38485 H 3908.42 -1.05418 -4.02525 0
M  V30 38486 H 3907.3 -0.956432 -5.40503 0
M  V30 38487 H 3907.56 0.458344 -4.39718 0
M  V30 38488 N 3906.62 1.37529 -0.769636 0
M  V30 38489 C 3907.85 2.04015 -0.344318 0
M  V30 38490 C 3908.26 1.58048 1.03278 0
M  V30 38491 O 3907.62 0.760776 1.65887 0
M  V30 38492 C 3907.67 3.59539 -0.375985 0
M  V30 38493 O 3907.39 4.03824 -1.69876 0
M  V30 38494 C 3908.89 4.43258 0.0611935 0
M  V30 38495 H 3906.11 0.655235 -0.144595 0
M  V30 38496 H 3908.66 1.75905 -1.04297 0
M  V30 38497 H 3906.81 3.86429 0.274068 0
M  V30 38498 H 3907.22 4.98335 -1.63593 0
M  V30 38499 H 3908.7 5.51999 -0.012119 0
M  V30 38500 H 3909.18 4.24908 1.11128 0
M  V30 38501 H 3909.78 4.21589 -0.560591 0
M  V30 38502 N 3908.1 0.520003 1.48774 0
M  V30 38503 C 3909.51 0.0769953 1.86541 0
M  V30 38504 C 3909.86 -1.34275 1.43055 0
M  V30 38505 O 3908.98 -2.00392 0.816816 0
M  V30 38506 C 3909.58 0.132951 3.38539 0
M  V30 38507 C 3908.14 -0.254809 3.75537 0
M  V30 38508 C 3907.28 0.497136 2.72807 0
M  V30 38509 H 3910.24 0.73179 1.40821 0
M  V30 38510 H 3910.26 -0.657791 3.74771 0
M  V30 38511 H 3909.77 1.16637 3.70159 0
M  V30 38512 H 3907.87 -1.29075 3.49529 0
M  V30 38513 H 3907.98 0.0778589 4.79037 0
M  V30 38514 H 3906.35 -0.0553883 2.5464 0
M  V30 38515 H 3907.13 1.531 3.07271 0
M  V30 38516 N 3909.57 -1.55529 0.254676 0
M  V30 38517 C 3910.8 -2.03532 -0.37182 0
M  V30 38518 C 3911.22 -1.13371 -1.50972 0
M  V30 38519 O 3910.57 -0.149672 -1.81885 0
M  V30 38520 C 3910.63 -3.50819 -0.872253 0
M  V30 38521 O 3910.35 -4.37546 0.220307 0
M  V30 38522 C 3911.85 -4.14618 -1.56865 0
M  V30 38523 H 3909.07 -0.665278 -0.0874448 0
M  V30 38524 H 3911.61 -2.00923 0.380809 0
M  V30 38525 H 3909.77 -3.53937 -1.57504 0
M  V30 38526 H 3910.18 -5.24253 -0.160954 0
M  V30 38527 H 3911.65 -5.19344 -1.87044 0
M  V30 38528 H 3912.13 -3.61569 -2.49328 0
M  V30 38529 H 3912.74 -4.15445 -0.910241 0
M  V30 38530 N 3911.05 0.0183372 -1.57589 0
M  V30 38531 C 3912.46 0.563559 -1.77991 0
M  V30 38532 C 3912.81 1.75 -0.887095 0
M  V30 38533 O 3911.94 2.16234 -0.0847223 0
M  V30 38534 C 3912.53 1.02914 -3.22791 0
M  V30 38535 C 3911.09 1.5198 -3.44353 0
M  V30 38536 C 3910.24 0.462679 -2.73413 0
M  V30 38537 H 3913.19 -0.207876 -1.57333 0
M  V30 38538 H 3913.21 1.89603 -3.29896 0
M  V30 38539 H 3912.72 0.165418 -3.87747 0
M  V30 38540 H 3910.83 2.40501 -2.84587 0
M  V30 38541 H 3910.94 1.5599 -4.52994 0
M  V30 38542 H 3909.3 0.920169 -2.37497 0
M  V30 38543 H 3910.09 -0.391758 -3.41057 0
M  V30 38544 N 3912.53 1.54894 0.290797 0
M  V30 38545 C 3913.76 1.78663 1.04341 0
M  V30 38546 C 3914.17 0.551115 1.80577 0
M  V30 38547 O 3913.53 -0.479363 1.76092 0
M  V30 38548 C 3913.58 3.00067 2.01599 0
M  V30 38549 O 3913.3 4.18845 1.28454 0
M  V30 38550 C 3914.8 3.36303 2.88816 0
M  V30 38551 H 3912.02 0.595613 0.309008 0
M  V30 38552 H 3914.57 2.01869 0.326975 0
M  V30 38553 H 3912.72 2.79039 2.6873 0
M  V30 38554 H 3913.14 4.87361 1.93856 0
M  V30 38555 H 3914.61 4.24467 3.5289 0
M  V30 38556 H 3915.09 2.54911 3.57655 0
M  V30 38557 H 3915.69 3.59527 2.27202 0
M  V30 38558 N 3914.01 -0.55448 1.47524 0
M  V30 38559 C 3915.42 -1.13659 1.48116 0
M  V30 38560 C 3915.77 -1.94759 0.237356 0
M  V30 38561 O 3914.9 -2.06169 -0.657522 0
M  V30 38562 C 3915.49 -2.06792 2.6837 0
M  V30 38563 C 3914.05 -2.6027 2.71913 0
M  V30 38564 C 3913.2 -1.36706 2.41261 0
M  V30 38565 H 3916.15 -0.340943 1.54994 0
M  V30 38566 H 3916.17 -2.9071 2.45495 0
M  V30 38567 H 3915.68 -1.47739 3.5888 0
M  V30 38568 H 3913.78 -3.23113 1.85549 0
M  V30 38569 H 3913.89 -3.01077 3.72679 0
M  V30 38570 H 3912.26 -1.6747 1.919 0
M  V30 38571 H 3913.04 -0.794418 3.33982 0
M  V30 38572 N 3915.49 -1.35701 -0.80143 0
M  V30 38573 C 3916.71 -1.32389 -1.58999 0
M  V30 38574 C 3917.13 0.09751 -1.88548 0
M  V30 38575 O 3916.49 1.05097 -1.49201 0
M  V30 38576 C 3916.54 -2.13364 -2.91818 0
M  V30 38577 O 3916.26 -3.49963 -2.63548 0
M  V30 38578 C 3917.76 -2.17696 -3.86165 0
M  V30 38579 H 3914.98 -0.454588 -0.493549 0
M  V30 38580 H 3917.52 -1.78629 -0.995584 0
M  V30 38581 H 3915.68 -1.7071 -3.4776 0
M  V30 38582 H 3916.09 -3.92077 -3.4839 0
M  V30 38583 H 3917.57 -2.78735 -4.76456 0
M  V30 38584 H 3918.04 -1.17711 -4.23132 0
M  V30 38585 H 3918.65 -2.60533 -3.36158 0
M  V30 38586 N 3916.96 1.02419 -1.19783 0
M  V30 38587 C 3918.21 1.75548 -1.00136 0
M  V30 38588 C 3918.53 1.89289 0.46847 0
M  V30 38589 O 3917.8 1.42988 1.33907 0
M  V30 38590 H 3916.38 0.650334 -0.367524 0
M  V30 38591 H 3919.05 1.23521 -1.5076 0
M  V30 38592 H 3918.14 2.76196 -1.45334 0
M  V30 38593 N 3918.44 1.0025 1.21604 0
M  V30 38594 C 3919.67 0.702537 1.94607 0
M  V30 38595 C 3920.09 -0.734452 1.73929 0
M  V30 38596 O 3919.44 -1.49665 1.04434 0
M  V30 38597 C 3919.49 1.01098 3.47076 0
M  V30 38598 O 3919.22 2.39151 3.67067 0
M  V30 38599 C 3920.72 0.730065 4.37247 0
M  V30 38600 H 3917.94 0.259099 0.618958 0
M  V30 38601 H 3920.48 1.33988 1.54491 0
M  V30 38602 H 3918.64 0.419283 3.85124 0
M  V30 38603 H 3919.05 2.4982 4.61184 0
M  V30 38604 H 3920.52 0.996076 5.42939 0
M  V30 38605 H 3921 -0.335913 4.37914 0
M  V30 38606 H 3921.61 1.30326 4.0484 0
M  V30 38607 N 3919.92 -1.37119 0.776919 0
M  V30 38608 C 3920.85 -2.2886 0.124849 0
M  V30 38609 C 3921.87 -1.48882 -0.658629 0
M  V30 38610 O 3923.06 -1.71474 -0.49587 0
M  V30 38611 C 3920.16 -3.28154 -0.846663 0
M  V30 38612 C 3919.33 -4.37246 -0.115903 0
M  V30 38613 C 3918.39 -5.16581 -1.00153 0
M  V30 38614 O 3917.41 -5.67311 -0.463392 0
M  V30 38615 N 3918.62 -5.31808 -2.32724 0
M  V30 38616 H 3921.38 -2.8546 0.91283 0
M  V30 38617 H 3918.94 -1.49151 0.629721 0
M  V30 38618 H 3920.93 -3.78112 -1.44269 0
M  V30 38619 H 3919.5 -2.72284 -1.53558 0
M  V30 38620 H 3918.72 -3.88617 0.661083 0
M  V30 38621 H 3920.01 -5.07312 0.388846 0
M  V30 38622 H 3919.41 -4.92185 -2.78874 0
M  V30 38623 H 3917.97 -5.85056 -2.8732 0
M  V30 38624 N 3921.4 -0.527886 -1.48496 0
M  V30 38625 C 3922.63 0.00298957 -2.069 0
M  V30 38626 C 3923.04 1.2834 -1.38471 0
M  V30 38627 O 3922.4 1.76303 -0.471555 0
M  V30 38628 C 3922.45 0.232807 -3.6075 0
M  V30 38629 O 3922.17 -0.996871 -4.26608 0
M  V30 38630 C 3923.67 0.804299 -4.35943 0
M  V30 38631 H 3920.89 -0.0325676 -0.670209 0
M  V30 38632 H 3923.44 -0.732931 -1.90915 0
M  V30 38633 H 3921.59 0.918771 -3.76347 0
M  V30 38634 H 3922.01 -0.776309 -5.18723 0
M  V30 38635 H 3923.48 0.91454 -5.44371 0
M  V30 38636 H 3923.96 1.80869 -4.00229 0
M  V30 38637 H 3924.56 0.154966 -4.25018 0
M  V30 38638 N 3922.88 1.55391 -0.26292 0
M  V30 38639 C 3924.29 1.85187 0.237192 0
M  V30 38640 C 3924.64 1.18489 1.56381 0
M  V30 38641 O 3923.76 0.468886 2.11259 0
M  V30 38642 C 3924.36 3.35968 0.437146 0
M  V30 38643 C 3922.92 3.65932 0.881503 0
M  V30 38644 C 3922.07 2.77281 -0.0321977 0
M  V30 38645 H 3925.02 1.51106 -0.485052 0
M  V30 38646 H 3925.04 3.58414 1.27748 0
M  V30 38647 H 3924.55 3.84484 -0.528541 0
M  V30 38648 H 3922.65 3.22906 1.85909 0
M  V30 38649 H 3922.76 4.73548 0.727271 0
M  V30 38650 H 3921.13 2.50098 0.481996 0
M  V30 38651 H 3921.91 3.28608 -0.993548 0
M  V30 38652 N 3924.36 -0.00997961 1.57597 0
M  V30 38653 C 3925.58 -0.708158 1.94404 0
M  V30 38654 C 3926 -1.67858 0.864234 0
M  V30 38655 O 3925.36 -1.81817 -0.157731 0
M  V30 38656 C 3925.41 -1.4487 3.31202 0
M  V30 38657 O 3925.13 -0.517205 4.35036 0
M  V30 38658 C 3926.63 -2.2423 3.82408 0
M  V30 38659 H 3923.85 -0.197866 0.641163 0
M  V30 38660 H 3926.39 0.0381733 2.04464 0
M  V30 38661 H 3924.55 -2.14675 3.2248 0
M  V30 38662 H 3924.96 -1.03859 5.14114 0
M  V30 38663 H 3926.44 -2.71558 4.80583 0
M  V30 38664 H 3926.91 -3.06477 3.14592 0
M  V30 38665 H 3927.52 -1.59462 3.94274 0
M  V30 38666 N 3925.83 -1.55046 -0.282578 0
M  V30 38667 C 3927.06 -1.79214 -1.03392 0
M  V30 38668 C 3927.48 -0.560684 -1.80282 0
M  V30 38669 O 3926.83 0.470018 -1.76344 0
M  V30 38670 C 3926.88 -3.01132 -2.00004 0
M  V30 38671 O 3926.61 -4.1952 -1.26231 0
M  V30 38672 C 3928.11 -3.3783 -2.87029 0
M  V30 38673 H 3925.33 -0.597244 -0.305845 0
M  V30 38674 H 3927.87 -2.0204 -0.316265 0
M  V30 38675 H 3926.03 -2.80461 -2.67246 0
M  V30 38676 H 3926.44 -4.88382 -1.91268 0
M  V30 38677 H 3927.91 -4.26333 -3.50634 0
M  V30 38678 H 3928.39 -2.56804 -3.56298 0
M  V30 38679 H 3929 -3.60727 -2.25292 0
M  V30 38680 N 3927.31 0.546649 -1.47816 0
M  V30 38681 C 3928.54 1.32848 -1.58616 0
M  V30 38682 C 3928.95 1.87266 -0.240212 0
M  V30 38683 O 3928.31 1.65548 0.768119 0
M  V30 38684 C 3928.36 2.49103 -2.61974 0
M  V30 38685 O 3928.08 1.96931 -3.91343 0
M  V30 38686 C 3929.58 3.41165 -2.83057 0
M  V30 38687 H 3926.8 0.404593 -0.535299 0
M  V30 38688 H 3929.35 0.661158 -1.93517 0
M  V30 38689 H 3927.5 3.11752 -2.29977 0
M  V30 38690 H 3927.92 2.72905 -4.4791 0
M  V30 38691 H 3929.39 4.19127 -3.59216 0
M  V30 38692 H 3929.87 3.95366 -1.91265 0
M  V30 38693 H 3930.47 2.84322 -3.16292 0
M  V30 38694 N 3928.79 1.36124 0.794222 0
M  V30 38695 C 3930.2 1.26938 1.36907 0
M  V30 38696 C 3930.55 -0.0928993 1.9598 0
M  V30 38697 O 3929.68 -0.994233 1.92208 0
M  V30 38698 C 3930.27 2.29854 2.48902 0
M  V30 38699 C 3928.83 2.24371 3.02216 0
M  V30 38700 C 3927.98 2.14893 1.7526 0
M  V30 38701 H 3930.93 1.47073 0.596253 0
M  V30 38702 H 3930.95 1.93219 3.2779 0
M  V30 38703 H 3930.46 3.28992 2.05878 0
M  V30 38704 H 3928.56 1.28685 3.49673 0
M  V30 38705 H 3928.68 3.16858 3.59357 0
M  V30 38706 H 3927.04 1.61069 1.97304 0
M  V30 38707 H 3927.82 3.1591 1.34371 0
M  V30 38708 N 3930.27 -1.01782 1.20325 0
M  V30 38709 C 3931.52 -1.74769 1.00691 0
M  V30 38710 C 3931.83 -1.90072 -0.461736 0
M  V30 38711 O 3933.04 -2.60139 -0.777168 0
M  V30 38712 C 3931.49 -3.14331 1.75283 0
M  V30 38713 C 3931.1 -3.07044 3.26233 0
M  V30 38714 C 3932.84 -3.91536 1.64013 0
M  V30 38715 C 3930.75 -4.41606 3.93367 0
M  V30 38716 H 3929.68 -0.6552 0.373135 0
M  V30 38717 H 3932.33 -1.13822 1.43933 0
M  V30 38718 H 3930.71 -3.75811 1.24827 0
M  V30 38719 H 3931.89 -2.54879 3.83893 0
M  V30 38720 H 3930.2 -2.43333 3.37902 0
M  V30 38721 H 3932.8 -4.91087 2.11512 0
M  V30 38722 H 3933.14 -4.1201 0.596123 0
M  V30 38723 H 3933.68 -3.36681 2.11875 0
M  V30 38724 H 3930.41 -4.26335 4.97914 0
M  V30 38725 H 3929.93 -4.93783 3.40497 0
M  V30 38726 H 3931.61 -5.10454 3.9755 0
M  V30 38727 N 3931.75 -1.00894 -1.21071 0
M  V30 38728 C 3932.97 -0.712847 -1.94232 0
M  V30 38729 C 3933.39 0.725218 -1.74316 0
M  V30 38730 O 3932.75 1.49109 -1.05227 0
M  V30 38731 C 3932.8 -1.02937 -3.46535 0
M  V30 38732 O 3932.52 -2.41095 -3.65794 0
M  V30 38733 C 3934.02 -0.753243 -4.36854 0
M  V30 38734 H 3931.24 -0.262378 -0.617575 0
M  V30 38735 H 3933.78 -1.34805 -1.53779 0
M  V30 38736 H 3931.94 -0.439701 -3.84897 0
M  V30 38737 H 3932.35 -2.52262 -4.59852 0
M  V30 38738 H 3933.83 -1.02486 -5.42403 0
M  V30 38739 H 3934.3 0.312684 -4.38086 0
M  V30 38740 H 3934.91 -1.32471 -4.04143 0
M  V30 38741 N 3933.22 1.36705 -0.78418 0
M  V30 38742 C 3934.45 2.03638 -0.365937 0
M  V30 38743 C 3934.87 1.59134 1.01596 0
M  V30 38744 O 3934.22 0.778327 1.65071 0
M  V30 38745 C 3934.28 3.5912 -0.414098 0
M  V30 38746 O 3934 4.02 -1.74149 0
M  V30 38747 C 3935.5 4.43298 0.0141767 0
M  V30 38748 H 3932.72 0.653665 -0.151537 0
M  V30 38749 H 3935.26 1.74788 -1.06157 0
M  V30 38750 H 3933.42 3.86698 0.233066 0
M  V30 38751 H 3933.83 4.96572 -1.6887 0
M  V30 38752 H 3935.3 5.51955 -0.0706651 0
M  V30 38753 H 3935.78 4.26063 1.06615 0
M  V30 38754 H 3936.39 4.20971 -0.605275 0
M  V30 38755 N 3934.7 0.535753 1.48214 0
M  V30 38756 C 3935.93 0.00798287 2.06898 0
M  V30 38757 C 3936.35 -1.27604 1.3915 0
M  V30 38758 O 3935.7 -1.7605 0.480898 0
M  V30 38759 C 3935.75 -0.213673 3.60868 0
M  V30 38760 O 3935.47 1.01948 4.26073 0
M  V30 38761 C 3936.98 -0.781169 4.36363 0
M  V30 38762 H 3934.2 0.0361215 0.670027 0
M  V30 38763 H 3936.74 0.743045 1.90523 0
M  V30 38764 H 3934.89 -0.8988 3.76829 0
M  V30 38765 H 3935.31 0.803807 5.18304 0
M  V30 38766 H 3936.78 -0.885657 5.44849 0
M  V30 38767 H 3937.26 -1.78744 4.01182 0
M  V30 38768 H 3937.87 -0.132424 4.25094 0
M  V30 38769 N 3936.18 -1.5525 0.271158 0
M  V30 38770 C 3937.41 -2.03915 -0.350212 0
M  V30 38771 C 3937.82 -1.14966 -1.49761 0
M  V30 38772 O 3937.18 -0.168955 -1.81716 0
M  V30 38773 C 3937.23 -3.51724 -0.834995 0
M  V30 38774 O 3936.95 -4.37287 0.266702 0
M  V30 38775 C 3938.45 -4.16259 -1.52458 0
M  V30 38776 H 3935.67 -0.666168 -0.0803837 0
M  V30 38777 H 3938.22 -2.00508 0.402098 0
M  V30 38778 H 3936.37 -3.55588 -1.53741 0
M  V30 38779 H 3936.79 -5.24394 -0.105341 0
M  V30 38780 H 3938.26 -5.21299 -1.81525 0
M  V30 38781 H 3938.74 -3.64193 -2.45479 0
M  V30 38782 H 3939.34 -4.16387 -0.866126 0
M  V30 38783 N 3937.66 0.00162173 -1.576 0
M  V30 38784 C 3938.89 0.697838 -1.94776 0
M  V30 38785 C 3939.3 1.67398 -0.873124 0
M  V30 38786 O 3938.66 1.81898 0.148087 0
M  V30 38787 C 3938.71 1.43112 -3.31966 0
M  V30 38788 O 3938.43 0.494126 -4.35304 0
M  V30 38789 C 3939.93 2.22199 -3.83592 0
M  V30 38790 H 3937.15 0.194463 -0.642203 0
M  V30 38791 H 3939.7 -0.049016 -2.04441 0
M  V30 38792 H 3937.85 2.12962 -3.23614 0
M  V30 38793 H 3938.26 1.01131 -5.14658 0
M  V30 38794 H 3939.74 2.69006 -4.82016 0
M  V30 38795 H 3940.22 3.04804 -3.16213 0
M  V30 38796 H 3940.82 1.57369 -3.95114 0
M  V30 38797 N 3939.14 1.55194 0.274352 0
M  V30 38798 C 3940.38 1.75996 1.00762 0
M  V30 38799 C 3940.72 0.558712 1.85989 0
M  V30 38800 O 3939.99 -0.44375 1.8937 0
M  V30 38801 C 3940.27 3.06433 1.89131 0
M  V30 38802 C 3940.13 4.36911 1.06907 0
M  V30 38803 C 3941.45 3.32901 2.87863 0
M  V30 38804 H 3938.56 0.640324 0.364903 0
M  V30 38805 H 3941.21 1.87924 0.280123 0
M  V30 38806 H 3939.36 2.96396 2.51161 0
M  V30 38807 H 3941.03 4.58904 0.469585 0
M  V30 38808 H 3939.27 4.32198 0.37249 0
M  V30 38809 H 3939.94 5.24501 1.72054 0
M  V30 38810 H 3942.42 3.42722 2.35968 0
M  V30 38811 H 3941.29 4.25435 3.46837 0
M  V30 38812 H 3941.56 2.52475 3.62917 0
M  V30 38813 N 3940.61 -0.538802 1.48104 0
M  V30 38814 C 3941.84 -1.32005 1.59318 0
M  V30 38815 C 3942.26 -1.87136 0.25014 0
M  V30 38816 O 3941.61 -1.65953 -0.759329 0
M  V30 38817 C 3941.67 -2.4771 2.63291 0
M  V30 38818 O 3941.39 -1.94853 3.92382 0
M  V30 38819 C 3942.89 -3.39659 2.84862 0
M  V30 38820 H 3940.11 -0.401749 0.537437 0
M  V30 38821 H 3942.65 -0.650886 1.93865 0
M  V30 38822 H 3940.81 -3.10528 2.31627 0
M  V30 38823 H 3941.22 -2.70526 4.49351 0
M  V30 38824 H 3942.69 -4.17217 3.61434 0
M  V30 38825 H 3943.17 -3.94346 1.93359 0
M  V30 38826 H 3943.78 -2.82641 3.17796 0
M  V30 38827 N 3942.09 -1.36544 -0.786992 0
M  V30 38828 C 3943.5 -1.27663 -1.36232 0
M  V30 38829 C 3943.85 0.0825047 -1.96026 0
M  V30 38830 O 3942.98 0.984025 -1.92733 0
M  V30 38831 C 3943.57 -2.31171 -2.4768 0
M  V30 38832 C 3942.13 -2.25971 -3.01022 0
M  V30 38833 C 3941.28 -2.1582 -1.74118 0
M  V30 38834 H 3944.23 -1.47387 -0.588444 0
M  V30 38835 H 3944.25 -1.94955 -3.26761 0
M  V30 38836 H 3943.76 -3.30079 -2.04131 0
M  V30 38837 H 3941.87 -1.30537 -3.48985 0
M  V30 38838 H 3941.98 -3.1876 -3.57672 0
M  V30 38839 H 3940.34 -1.62114 -1.96447 0
M  V30 38840 H 3941.13 -3.16618 -1.32694 0
M  V30 38841 N 3943.57 1.01143 -1.20863 0
M  V30 38842 C 3944.8 1.78411 -1.04772 0
M  V30 38843 C 3945.21 1.84453 0.402814 0
M  V30 38844 O 3944.57 1.30125 1.2796 0
M  V30 38845 C 3944.62 3.2263 -1.63071 0
M  V30 38846 O 3944.34 3.16949 -3.02449 0
M  V30 38847 C 3945.84 4.16425 -1.52004 0
M  V30 38848 H 3943.06 0.560901 -0.368281 0
M  V30 38849 H 3945.61 1.27281 -1.60062 0
M  V30 38850 H 3943.76 3.7089 -1.11888 0
M  V30 38851 H 3944.18 4.07509 -3.30207 0
M  V30 38852 H 3945.65 5.1544 -1.97548 0
M  V30 38853 H 3946.13 4.36641 -0.473382 0
M  V30 38854 H 3946.73 3.7405 -2.02402 0
M  V30 38855 N 3945.05 1.01535 1.20534 0
M  V30 38856 C 3946.46 0.735717 1.71593 0
M  V30 38857 C 3946.81 -0.745841 1.81471 0
M  V30 38858 O 3945.94 -1.58213 1.4764 0
M  V30 38859 C 3946.53 1.32886 3.11652 0
M  V30 38860 C 3945.09 1.09812 3.60025 0
M  V30 38861 C 3944.24 1.43532 2.37263 0
M  V30 38862 H 3947.19 1.18497 1.05566 0
M  V30 38863 H 3947.21 0.718791 3.73649 0
M  V30 38864 H 3946.72 2.40715 3.0443 0
M  V30 38865 H 3944.82 0.0374417 3.72581 0
M  V30 38866 H 3944.93 1.7773 4.44915 0
M  V30 38867 H 3943.3 0.85431 2.39945 0
M  V30 38868 H 3944.08 2.52414 2.32684 0
M  V30 38869 N 3946.53 -1.36288 0.791419 0
M  V30 38870 C 3947.75 -2.03441 0.376731 0
M  V30 38871 C 3948.17 -1.59671 -1.00751 0
M  V30 38872 O 3947.53 -0.78707 -1.64656 0
M  V30 38873 C 3947.58 -3.58896 0.433137 0
M  V30 38874 O 3947.3 -4.0107 1.76279 0
M  V30 38875 C 3948.8 -4.43299 0.00933267 0
M  V30 38876 H 3946.02 -0.652852 0.155001 0
M  V30 38877 H 3948.56 -1.74223 1.07082 0
M  V30 38878 H 3946.72 -3.86816 -0.212555 0
M  V30 38879 H 3947.13 -4.95669 1.71501 0
M  V30 38880 H 3948.61 -5.5191 0.0999356 0
M  V30 38881 H 3949.08 -4.26623 -1.04354 0
M  V30 38882 H 3949.69 -4.20644 0.627591 0
M  V30 38883 N 3948.01 -0.543606 -1.47928 0
M  V30 38884 C 3949.42 -0.106663 -1.86395 0
M  V30 38885 C 3949.77 1.31982 -1.45173 0
M  V30 38886 O 3948.89 1.99067 -0.848593 0
M  V30 38887 C 3949.49 -0.186793 -3.38285 0
M  V30 38888 C 3948.05 0.195032 -3.75894 0
M  V30 38889 C 3947.19 -0.540474 -2.71982 0
M  V30 38890 H 3950.14 -0.754101 -1.39639 0
M  V30 38891 H 3950.17 0.598085 -3.7577 0
M  V30 38892 H 3949.68 -1.22511 -3.68256 0
M  V30 38893 H 3947.78 1.23498 -3.51538 0
M  V30 38894 H 3947.89 -0.15406 -4.78852 0
M  V30 38895 H 3946.26 0.0148703 -2.54696 0
M  V30 38896 H 3947.04 -1.57969 -3.04796 0
M  V30 38897 N 3949.48 1.55104 -0.279387 0
M  V30 38898 C 3950.71 2.04097 0.339393 0
M  V30 38899 C 3951.13 1.15759 1.49149 0
M  V30 38900 O 3950.48 0.17859 1.81624 0
M  V30 38901 C 3950.53 3.52162 0.81633 0
M  V30 38902 O 3950.26 4.3714 -0.289889 0
M  V30 38903 C 3951.76 4.17061 1.50249 0
M  V30 38904 H 3948.98 0.666585 0.0768498 0
M  V30 38905 H 3951.52 2.00292 -0.412726 0
M  V30 38906 H 3949.68 3.56398 1.51853 0
M  V30 38907 H 3950.09 5.24443 0.0775291 0
M  V30 38908 H 3951.56 5.22254 1.78758 0
M  V30 38909 H 3952.04 3.6549 2.43544 0
M  V30 38910 H 3952.65 4.16841 0.844032 0
M  V30 38911 N 3950.96 0.0067362 1.57599 0
M  V30 38912 C 3952.21 -0.67536 1.90482 0
M  V30 38913 C 3952.53 -1.73938 0.881512 0
M  V30 38914 O 3951.8 -1.95736 -0.0801583 0
M  V30 38915 H 3950.38 -0.25244 0.703053 0
M  V30 38916 H 3953.04 0.0492543 1.94838 0
M  V30 38917 H 3952.14 -1.14234 2.90443 0
M  V30 38918 N 3952.44 -1.55337 -0.266118 0
M  V30 38919 C 3953.67 -1.80301 -1.01486 0
M  V30 38920 C 3954.08 -0.579774 -1.79678 0
M  V30 38921 O 3953.44 0.451288 -1.76832 0
M  V30 38922 C 3953.49 -3.03236 -1.96799 0
M  V30 38923 O 3953.21 -4.20836 -1.21774 0
M  V30 38924 C 3954.71 -3.40856 -2.8343 0
M  V30 38925 H 3951.93 -0.600454 -0.299493 0
M  V30 38926 H 3954.48 -2.02364 -0.294818 0
M  V30 38927 H 3952.63 -2.83279 -2.64257 0
M  V30 38928 H 3953.05 -4.90383 -1.86078 0
M  V30 38929 H 3954.52 -4.30028 -3.46092 0
M  V30 38930 H 3955 -2.60568 -3.53554 0
M  V30 38931 H 3955.6 -3.63096 -2.21453 0
M  V30 38932 N 3953.92 0.53094 -1.48387 0
M  V30 38933 C 3954.85 1.65153 -1.58925 0
M  V30 38934 C 3955.86 1.55759 -0.47361 0
M  V30 38935 O 3957.05 1.62237 -0.744412 0
M  V30 38936 C 3954.15 3.03795 -1.50206 0
M  V30 38937 C 3953.32 3.3868 -2.76793 0
M  V30 38938 C 3952.38 4.56599 -2.61542 0
M  V30 38939 O 3951.41 4.59868 -3.35425 0
M  V30 38940 N 3952.61 5.54713 -1.71096 0
M  V30 38941 H 3955.38 1.5655 -2.55562 0
M  V30 38942 H 3952.94 0.718191 -1.45099 0
M  V30 38943 H 3954.93 3.80554 -1.37699 0
M  V30 38944 H 3953.5 3.06481 -0.615473 0
M  V30 38945 H 3952.72 2.51109 -3.03871 0
M  V30 38946 H 3954.01 3.58773 -3.60777 0
M  V30 38947 H 3953.41 5.54849 -1.1027 0
M  V30 38948 H 3951.96 6.30693 -1.64529 0
M  V30 38949 N 3955.4 1.36959 0.779739 0
M  V30 38950 C 3956.62 1.34902 1.56873 0
M  V30 38951 C 3957.04 -0.0675013 1.88679 0
M  V30 38952 O 3956.4 -1.0271 1.50854 0
M  V30 38953 C 3956.45 2.1798 2.88387 0
M  V30 38954 O 3956.17 3.54111 2.57947 0
M  V30 38955 C 3957.67 2.23812 3.82653 0
M  V30 38956 H 3954.89 0.462383 0.486254 0
M  V30 38957 H 3957.43 1.8019 0.96704 0
M  V30 38958 H 3955.59 1.76221 3.45 0
M  V30 38959 H 3956 3.9757 3.42108 0
M  V30 38960 H 3957.48 2.8628 4.71962 0
M  V30 38961 H 3957.95 1.24428 4.21206 0
M  V30 38962 H 3958.56 2.65848 3.31971 0
M  V30 38963 N 3956.87 -1.00501 1.21398 0
M  V30 38964 C 3958.28 -1.55727 1.02986 0
M  V30 38965 C 3958.64 -1.91861 -0.410349 0
M  V30 38966 O 3957.76 -1.73482 -1.29355 0
M  V30 38967 C 3958.36 -2.82967 1.86321 0
M  V30 38968 C 3956.91 -3.34679 1.72241 0
M  V30 38969 C 3956.06 -2.07872 1.83533 0
M  V30 38970 H 3959.01 -0.827475 1.3542 0
M  V30 38971 H 3959.03 -3.54847 1.37345 0
M  V30 38972 H 3958.55 -2.56636 2.91135 0
M  V30 38973 H 3956.65 -3.65944 0.701112 0
M  V30 38974 H 3956.76 -4.06099 2.54205 0
M  V30 38975 H 3955.12 -2.20869 1.26842 0
M  V30 38976 H 3955.91 -1.83953 2.89855 0
M  V30 38977 N 3958.35 -1.02172 -1.19994 0
M  V30 38978 C 3959.58 -0.733408 -1.93465 0
M  V30 38979 C 3959.99 0.706689 -1.75075 0
M  V30 38980 O 3959.35 1.47985 -1.06802 0
M  V30 38981 C 3959.4 -1.06607 -3.45423 0
M  V30 38982 O 3959.12 -2.44961 -3.63216 0
M  V30 38983 C 3960.62 -0.799535 -4.3603 0
M  V30 38984 H 3957.84 -0.268914 -0.614757 0
M  V30 38985 H 3960.39 -1.36429 -1.5234 0
M  V30 38986 H 3958.54 -0.4805 -3.84409 0
M  V30 38987 H 3958.96 -2.57125 -4.57151 0
M  V30 38988 H 3960.43 -1.08233 -5.41285 0
M  V30 38989 H 3960.91 0.266202 -4.38393 0
M  V30 38990 H 3961.51 -1.3675 -4.02715 0
M  V30 38991 N 3959.83 1.35866 -0.798635 0
M  V30 38992 C 3961.06 2.03239 -0.387515 0
M  V30 38993 C 3961.47 1.60203 0.999024 0
M  V30 38994 O 3960.83 0.795792 1.64236 0
M  V30 38995 C 3960.88 3.58661 -0.452164 0
M  V30 38996 O 3960.6 4.0013 -1.78403 0
M  V30 38997 C 3962.1 4.43288 -0.0328418 0
M  V30 38998 H 3959.32 0.652021 -0.158461 0
M  V30 38999 H 3961.87 1.73653 -1.08005 0
M  V30 39000 H 3960.02 3.86924 0.192039 0
M  V30 39001 H 3960.44 4.94753 -1.74127 0
M  V30 39002 H 3961.91 5.51849 -0.129203 0
M  V30 39003 H 3962.39 4.2717 1.0209 0
M  V30 39004 H 3962.99 4.20305 -0.64989 0
M  V30 39005 N 3961.31 0.551443 1.47638 0
M  V30 39006 C 3962.54 0.0299268 2.06878 0
M  V30 39007 C 3962.95 -1.26121 1.40495 0
M  V30 39008 O 3962.31 -1.7553 0.499544 0
M  V30 39009 C 3962.36 -0.175386 3.61074 0
M  V30 39010 O 3962.08 1.06461 4.24968 0
M  V30 39011 C 3963.58 -0.734843 4.37167 0
M  V30 39012 H 3960.8 0.043226 0.669606 0
M  V30 39013 H 3963.34 0.763211 1.89724 0
M  V30 39014 H 3961.5 -0.858781 3.77761 0
M  V30 39015 H 3961.91 0.858735 5.17422 0
M  V30 39016 H 3963.39 -0.827819 5.45757 0
M  V30 39017 H 3963.86 -1.74479 4.03055 0
M  V30 39018 H 3964.47 -0.0873298 4.2521 0
M  V30 39019 N 3962.79 -1.54953 0.287609 0
M  V30 39020 C 3964.2 -1.85541 -0.2077 0
M  V30 39021 C 3964.55 -1.20962 -1.54476 0
M  V30 39022 O 3963.67 -0.502436 -2.10486 0
M  V30 39023 C 3964.27 -3.36621 -0.383642 0
M  V30 39024 C 3962.83 -3.67288 -0.823175 0
M  V30 39025 C 3961.97 -2.77195 0.0763066 0
M  V30 39026 H 3964.93 -1.50315 0.50903 0
M  V30 39027 H 3964.95 -3.60401 -1.2203 0
M  V30 39028 H 3964.46 -3.83595 0.589642 0
M  V30 39029 H 3962.56 -3.25823 -1.80749 0
M  V30 39030 H 3962.67 -4.74645 -0.651842 0
M  V30 39031 H 3961.04 -2.50833 -0.442146 0
M  V30 39032 H 3961.82 -3.26986 1.0457 0
M  V30 39033 N 3964.26 -0.0150939 -1.57593 0
M  V30 39034 C 3965.51 0.665836 -1.90393 0
M  V30 39035 C 3965.83 1.74091 -0.891724 0
M  V30 39036 O 3967.03 2.47751 -1.11047 0
M  V30 39037 C 3965.49 1.23552 -3.38028 0
M  V30 39038 C 3965.1 0.194472 -4.47578 0
M  V30 39039 C 3966.84 1.89377 -3.79917 0
M  V30 39040 C 3964.75 0.774997 -5.863 0
M  V30 39041 H 3963.68 0.25246 -0.710479 0
M  V30 39042 H 3966.33 -0.0781061 -1.83334 0
M  V30 39043 H 3964.71 2.03062 -3.39973 0
M  V30 39044 H 3965.88 -0.577142 -4.57171 0
M  V30 39045 H 3964.2 -0.364207 -4.14804 0
M  V30 39046 H 3966.8 2.33742 -4.80904 0
M  V30 39047 H 3967.14 2.73066 -3.1423 0
M  V30 39048 H 3967.67 1.16578 -3.80335 0
M  V30 39049 H 3964.41 -0.0234506 -6.55496 0
M  V30 39050 H 3963.93 1.51542 -5.8034 0
M  V30 39051 H 3965.61 1.26904 -6.34432 0
M  V30 39052 N 3965.74 1.55476 0.257876 0
M  V30 39053 C 3966.97 1.80836 1.00528 0
M  V30 39054 C 3967.39 0.589294 1.79368 0
M  V30 39055 O 3966.74 -0.441904 1.77069 0
M  V30 39056 C 3966.79 3.04276 1.95188 0
M  V30 39057 O 3966.51 4.21476 1.19541 0
M  V30 39058 C 3968.02 3.42354 2.81618 0
M  V30 39059 H 3965.24 0.602034 0.296305 0
M  V30 39060 H 3967.78 2.02517 0.284082 0
M  V30 39061 H 3965.93 2.84677 2.62751 0
M  V30 39062 H 3966.35 4.91363 1.83474 0
M  V30 39063 H 3967.82 4.31857 3.43807 0
M  V30 39064 H 3968.3 2.6244 3.52168 0
M  V30 39065 H 3968.91 3.64265 2.19525 0
M  V30 39066 N 3967.22 -0.523064 1.48667 0
M  V30 39067 C 3968.45 -1.30308 1.60709 0
M  V30 39068 C 3968.86 -1.8686 0.269974 0
M  V30 39069 O 3968.22 -1.66749 -0.741685 0
M  V30 39070 C 3968.27 -2.44903 2.65903 0
M  V30 39071 O 3967.99 -1.90681 3.94427 0
M  V30 39072 C 3969.49 -3.36619 2.88449 0
M  V30 39073 H 3966.71 -0.396026 0.541668 0
M  V30 39074 H 3969.26 -0.630287 1.94545 0
M  V30 39075 H 3967.41 -3.08054 2.34907 0
M  V30 39076 H 3967.83 -2.65745 4.52195 0
M  V30 39077 H 3969.3 -4.1336 3.65839 0
M  V30 39078 H 3969.78 -3.92273 1.97531 0
M  V30 39079 H 3970.38 -2.79254 3.20776 0
M  V30 39080 N 3968.7 -1.37371 -0.772465 0
M  V30 39081 C 3969.93 -1.35732 -1.56155 0
M  V30 39082 C 3970.34 0.0574942 -1.88712 0
M  V30 39083 O 3969.7 1.01908 -1.51397 0
M  V30 39084 C 3969.75 -2.19506 -2.87227 0
M  V30 39085 O 3969.47 -3.55474 -2.56066 0
M  V30 39086 C 3970.97 -2.25838 -3.8146 0
M  V30 39087 H 3968.19 -0.464955 -0.483795 0
M  V30 39088 H 3970.74 -1.80701 -0.957471 0
M  V30 39089 H 3968.89 -1.78048 -3.4406 0
M  V30 39090 H 3969.3 -3.99379 -3.39995 0
M  V30 39091 H 3970.78 -2.88779 -4.70437 0
M  V30 39092 H 3971.26 -1.2666 -4.2054 0
M  V30 39093 H 3971.86 -2.67605 -3.30556 0
M  V30 39094 N 3970.18 0.998553 -1.21929 0
M  V30 39095 C 3971.4 1.7729 -1.06658 0
M  V30 39096 C 3971.82 1.8487 0.383227 0
M  V30 39097 O 3971.18 1.31475 1.26572 0
M  V30 39098 C 3971.23 3.20882 -1.66484 0
M  V30 39099 O 3970.95 3.13723 -3.05793 0
M  V30 39100 C 3972.45 4.14789 -1.56412 0
M  V30 39101 H 3969.67 0.556963 -0.374209 0
M  V30 39102 H 3972.21 1.25576 -1.61403 0
M  V30 39103 H 3970.37 3.69683 -1.15816 0
M  V30 39104 H 3970.78 4.03984 -3.3451 0
M  V30 39105 H 3972.26 5.13316 -2.03004 0
M  V30 39106 H 3972.73 4.36115 -0.519667 0
M  V30 39107 H 3973.34 3.71882 -2.06358 0
M  V30 39108 N 3971.65 1.02807 1.1945 0
M  V30 39109 C 3972.88 0.743658 1.93073 0
M  V30 39110 C 3973.3 -0.697394 1.75448 0
M  V30 39111 O 3972.65 -1.47416 1.07586 0
M  V30 39112 C 3972.71 1.08437 3.44853 0
M  V30 39113 O 3972.43 2.46883 3.61912 0
M  V30 39114 C 3973.93 0.822647 4.356 0
M  V30 39115 H 3971.15 0.27217 0.613322 0
M  V30 39116 H 3973.69 1.37234 1.51614 0
M  V30 39117 H 3971.85 0.500879 3.84148 0
M  V30 39118 H 3972.26 2.59546 4.55781 0
M  V30 39119 H 3973.73 1.11102 5.40704 0
M  V30 39120 H 3974.21 -0.242949 4.38528 0
M  V30 39121 H 3974.82 1.38883 4.01984 0
M  V30 39122 N 3973.13 -1.35441 0.805829 0
M  V30 39123 C 3974.38 -1.99085 0.386414 0
M  V30 39124 C 3974.71 -1.63781 -1.04353 0
M  V30 39125 O 3973.99 -0.900761 -1.72385 0
M  V30 39126 C 3974.27 -3.55574 0.569125 0
M  V30 39127 C 3974.12 -4.00678 2.04394 0
M  V30 39128 C 3975.44 -4.401 -0.00566933 0
M  V30 39129 H 3972.56 -0.723215 0.141874 0
M  V30 39130 H 3975.2 -1.60603 1.01522 0
M  V30 39131 H 3973.35 -3.88485 0.033845 0
M  V30 39132 H 3975.02 -3.7818 2.64155 0
M  V30 39133 H 3973.27 -3.51615 2.54066 0
M  V30 39134 H 3973.94 -5.09555 2.12267 0
M  V30 39135 H 3976.41 -4.13644 0.451459 0
M  V30 39136 H 3975.29 -5.48689 0.152091 0
M  V30 39137 H 3975.55 -4.28215 -1.09929 0
M  V30 39138 N 3974.61 -0.559265 -1.47343 0
M  V30 39139 C 3975.84 -0.0408976 -2.0686 0
M  V30 39140 C 3976.25 1.25374 -1.41162 0
M  V30 39141 O 3975.61 1.75263 -0.508845 0
M  V30 39142 C 3975.66 0.156235 -3.61162 0
M  V30 39143 O 3975.38 -1.08714 -4.24397 0
M  V30 39144 C 3976.88 0.711648 -4.37551 0
M  V30 39145 H 3974.1 -0.0467764 -0.669368 0
M  V30 39146 H 3976.65 -0.773262 -1.89317 0
M  V30 39147 H 3974.8 0.838736 -3.78212 0
M  V30 39148 H 3975.22 -0.886163 -5.1696 0
M  V30 39149 H 3976.69 0.798865 -5.46189 0
M  V30 39150 H 3977.17 1.72339 -4.03975 0
M  V30 39151 H 3977.77 0.0647786 -4.25251 0
M  V30 39152 N 3976.09 1.54799 -0.295822 0
M  V30 39153 C 3977.5 1.85649 0.197857 0
M  V30 39154 C 3977.85 1.21779 1.53832 0
M  V30 39155 O 3976.98 0.513591 2.10217 0
M  V30 39156 C 3977.57 3.3682 0.365784 0
M  V30 39157 C 3976.13 3.6772 0.803685 0
M  V30 39158 C 3975.28 2.77151 -0.0910059 0
M  V30 39159 H 3978.23 1.50043 -0.516995 0
M  V30 39160 H 3978.25 3.61043 1.20117 0
M  V30 39161 H 3977.76 3.83277 -0.609977 0
M  V30 39162 H 3975.86 3.26777 1.79018 0
M  V30 39163 H 3975.97 4.74984 0.626661 0
M  V30 39164 H 3974.34 2.51064 0.428838 0
M  V30 39165 H 3975.12 3.26427 -1.06303 0
M  V30 39166 N 3977.57 0.0234513 1.57583 0
M  V30 39167 C 3978.8 -0.666762 1.95862 0
M  V30 39168 C 3979.21 -1.65987 0.899645 0
M  V30 39169 O 3978.57 -1.82111 -0.119129 0
M  V30 39170 C 3978.62 -1.37812 3.34201 0
M  V30 39171 O 3978.34 -0.424811 4.36036 0
M  V30 39172 C 3979.84 -2.16068 3.87078 0
M  V30 39173 H 3977.06 -0.184221 0.645216 0
M  V30 39174 H 3979.6 0.0815346 2.04337 0
M  V30 39175 H 3977.76 -2.07786 3.26961 0
M  V30 39176 H 3978.17 -0.929303 5.16202 0
M  V30 39177 H 3979.65 -2.61303 4.86235 0
M  V30 39178 H 3980.12 -2.99735 3.21022 0
M  V30 39179 H 3980.73 -1.51063 3.97568 0
M  V30 39180 N 3979.05 -1.5561 -0.249627 0
M  V30 39181 C 3980.46 -1.67782 -0.818904 0
M  V30 39182 C 3980.81 -0.620407 -1.86133 0
M  V30 39183 O 3979.93 0.233831 -2.15133 0
M  V30 39184 C 3980.53 -3.04172 -1.49213 0
M  V30 39185 C 3979.09 -3.18293 -2.00914 0
M  V30 39186 C 3978.23 -2.6365 -0.859287 0
M  V30 39187 H 3981.18 -1.5868 -0.0254907 0
M  V30 39188 H 3981.21 -2.98465 -2.36006 0
M  V30 39189 H 3980.72 -3.81111 -0.733201 0
M  V30 39190 H 3978.82 -2.46172 -2.79697 0
M  V30 39191 H 3978.93 -4.25166 -2.2084 0
M  V30 39192 H 3977.3 -2.21404 -1.25906 0
M  V30 39193 H 3978.08 -3.43112 -0.113484 0
M  V30 39194 N 3980.52 0.515172 -1.48942 0
M  V30 39195 C 3981.75 1.29454 -1.61398 0
M  V30 39196 C 3982.17 1.86714 -0.27988 0
M  V30 39197 O 3981.52 1.6714 0.732831 0
M  V30 39198 C 3981.57 2.4349 -2.67198 0
M  V30 39199 O 3981.3 1.88586 -3.95432 0
M  V30 39200 C 3982.8 3.35084 -2.9023 0
M  V30 39201 H 3980.02 0.393148 -0.543761 0
M  V30 39202 H 3982.56 0.619961 -1.94876 0
M  V30 39203 H 3980.72 3.06804 -2.36538 0
M  V30 39204 H 3981.13 2.63343 -4.53598 0
M  V30 39205 H 3982.6 4.11414 -3.68026 0
M  V30 39206 H 3983.08 3.9122 -1.99608 0
M  V30 39207 H 3983.69 2.77549 -3.22252 0
M  V30 39208 N 3982 1.37779 0.765169 0
M  V30 39209 C 3983.41 1.29814 1.34184 0
M  V30 39210 C 3983.76 -0.0513081 1.96133 0
M  V30 39211 O 3982.89 -0.953239 1.94274 0
M  V30 39212 C 3983.48 2.35082 2.43971 0
M  V30 39213 C 3982.04 2.30731 2.97389 0
M  V30 39214 C 3981.19 2.18562 1.70663 0
M  V30 39215 H 3984.14 1.48305 0.564922 0
M  V30 39216 H 3984.16 2.00129 3.23618 0
M  V30 39217 H 3983.67 3.33285 1.98853 0
M  V30 39218 H 3981.77 1.36073 3.46864 0
M  V30 39219 H 3981.89 3.2441 3.52555 0
M  V30 39220 H 3980.25 1.65218 1.93843 0
M  V30 39221 H 3981.03 3.18689 1.2764 0
M  V30 39222 N 3983.48 -0.992073 1.22457 0
M  V30 39223 C 3984.71 -1.76721 1.07597 0
M  V30 39224 C 3985.12 -1.8507 -0.373418 0
M  V30 39225 O 3984.48 -1.32144 -1.25873 0
M  V30 39226 C 3984.53 -3.19995 1.68183 0
M  V30 39227 O 3984.25 -3.12097 3.07453 0
M  V30 39228 C 3985.75 -4.13954 1.58609 0
M  V30 39229 H 3982.97 -0.554971 0.377158 0
M  V30 39230 H 3985.52 -1.24718 1.62067 0
M  V30 39231 H 3983.67 -3.69064 1.17775 0
M  V30 39232 H 3984.09 -4.02204 3.36648 0
M  V30 39233 H 3985.56 -5.12232 2.05723 0
M  V30 39234 H 3986.04 -4.35833 0.542788 0
M  V30 39235 H 3986.64 -3.70783 2.08328 0
M  V30 39236 N 3984.96 -1.03439 -1.18904 0
M  V30 39237 C 3986.21 -0.732631 -1.88353 0
M  V30 39238 C 3986.53 0.741442 -1.80354 0
M  V30 39239 O 3985.8 1.53459 -1.21767 0
M  V30 39240 H 3984.38 -0.268007 -0.697267 0
M  V30 39241 H 3987.04 -1.3098 -1.44327 0
M  V30 39242 H 3986.13 -1.03186 -2.94549 0
M  V30 39243 N 3986.44 1.35011 -0.813001 0
M  V30 39244 C 3987.66 2.02816 -0.409049 0
M  V30 39245 C 3988.08 1.61253 0.981976 0
M  V30 39246 O 3987.44 0.813166 1.63383 0
M  V30 39247 C 3987.49 3.58161 -0.49018 0
M  V30 39248 O 3987.21 3.98215 -1.82637 0
M  V30 39249 C 3988.71 4.43228 -0.0798565 0
M  V30 39250 H 3985.93 0.650303 -0.165368 0
M  V30 39251 H 3988.47 1.72497 -1.0984 0
M  V30 39252 H 3986.63 3.87106 0.150989 0
M  V30 39253 H 3987.04 4.92878 -1.79365 0
M  V30 39254 H 3988.52 5.51681 -0.187727 0
M  V30 39255 H 3988.99 4.28229 0.975537 0
M  V30 39256 H 3989.6 4.19592 -0.694433 0
M  V30 39257 N 3987.91 0.567071 1.47044 0
M  V30 39258 C 3988.85 -0.212686 2.28211 0
M  V30 39259 C 3989.86 -0.870183 1.37592 0
M  V30 39260 O 3991.05 -0.742376 1.6233 0
M  V30 39261 C 3988.15 -1.31952 3.12157 0
M  V30 39262 C 3987.32 -0.756934 4.30801 0
M  V30 39263 C 3986.38 -1.74949 4.96265 0
M  V30 39264 O 3985.41 -1.29171 5.5435 0
M  V30 39265 N 3986.61 -3.08318 4.91854 0
M  V30 39266 H 3989.37 0.483604 2.95772 0
M  V30 39267 H 3986.93 0.403795 1.56784 0
M  V30 39268 H 3988.93 -1.98246 3.52818 0
M  V30 39269 H 3987.5 -1.9189 2.46773 0
M  V30 39270 H 3986.72 0.0830573 3.94112 0
M  V30 39271 H 3988 -0.360582 5.07521 0
M  V30 39272 H 3987.4 -3.48147 4.45881 0
M  V30 39273 H 3985.96 -3.70145 5.36504 0
M  V30 39274 N 3989.39 -1.5464 0.304027 0
M  V30 39275 C 3990.62 -2.04611 -0.30688 0
M  V30 39276 C 3991.03 -1.18117 -1.47288 0
M  V30 39277 O 3990.39 -0.207462 -1.81317 0
M  V30 39278 C 3990.44 -3.53416 -0.760201 0
M  V30 39279 O 3990.16 -4.36623 0.359397 0
M  V30 39280 C 3991.66 -4.19399 -1.43595 0
M  V30 39281 H 3988.88 -0.667723 -0.0662353 0
M  V30 39282 H 3991.43 -1.9961 0.444539 0
M  V30 39283 H 3989.58 -3.58769 -1.46164 0
M  V30 39284 H 3990 -5.245 0.00591495 0
M  V30 39285 H 3991.47 -5.25032 -1.70427 0
M  V30 39286 H 3991.95 -3.69319 -2.37698 0
M  V30 39287 H 3992.55 -4.18131 -0.77761 0
M  V30 39288 N 3990.87 -0.0318079 -1.57568 0
M  V30 39289 C 3992.28 0.506647 -1.79694 0
M  V30 39290 C 3992.63 1.72089 -0.94232 0
M  V30 39291 O 3991.76 2.15855 -0.153473 0
M  V30 39292 C 3992.35 0.925921 -3.25902 0
M  V30 39293 C 3990.91 1.40947 -3.49014 0
M  V30 39294 C 3990.06 0.375461 -2.74746 0
M  V30 39295 H 3993.01 -0.257825 -1.56592 0
M  V30 39296 H 3993.03 1.79011 -3.35761 0
M  V30 39297 H 3992.54 0.0419759 -3.88077 0
M  V30 39298 H 3990.64 2.31326 -2.92095 0
M  V30 39299 H 3990.76 1.41499 -4.57728 0
M  V30 39300 H 3989.12 0.844145 -2.40305 0
M  V30 39301 H 3989.9 -0.500064 -3.39638 0
M  V30 39302 N 3992.35 1.55741 0.241371 0
M  V30 39303 C 3993.58 1.81892 0.986043 0
M  V30 39304 C 3993.99 0.608285 1.78733 0
M  V30 39305 O 3993.35 -0.423098 1.77528 0
M  V30 39306 C 3993.4 3.06329 1.9195 0
M  V30 39307 O 3993.12 4.2272 1.15064 0
M  V30 39308 C 3994.62 3.45322 2.77971 0
M  V30 39309 H 3991.84 0.605143 0.289903 0
M  V30 39310 H 3994.39 2.02807 0.262586 0
M  V30 39311 H 3992.54 2.87448 2.59716 0
M  V30 39312 H 3992.95 4.93281 1.78252 0
M  V30 39313 H 3994.43 4.3548 3.39207 0
M  V30 39314 H 3994.91 2.6616 3.49364 0
M  V30 39315 H 3995.51 3.66573 2.15649 0
M  V30 39316 N 3993.83 -0.507266 1.49213 0
M  V30 39317 C 3995.05 -1.28596 1.62082 0
M  V30 39318 C 3995.47 -1.86563 0.289778 0
M  V30 39319 O 3994.83 -1.67526 -0.723957 0
M  V30 39320 C 3994.88 -2.42069 2.68486 0
M  V30 39321 O 3994.6 -1.86486 3.96427 0
M  V30 39322 C 3996.1 -3.3354 2.92003 0
M  V30 39323 H 3993.32 -0.390259 0.545838 0
M  V30 39324 H 3995.86 -0.609618 1.95202 0
M  V30 39325 H 3994.02 -3.05545 2.38162 0
M  V30 39326 H 3994.43 -2.60934 4.54988 0
M  V30 39327 H 3995.91 -4.09456 3.70202 0
M  V30 39328 H 3996.38 -3.90156 2.0168 0
M  V30 39329 H 3996.99 -2.75837 3.23719 0
M  V30 39330 N 3995.3 -1.38182 -0.757851 0
M  V30 39331 C 3996.53 -1.37381 -1.54707 0
M  V30 39332 C 3996.95 0.0374755 -1.88763 0
M  V30 39333 O 3996.3 1.00297 -1.52469 0
M  V30 39334 C 3996.36 -2.2254 -2.84883 0
M  V30 39335 O 3996.08 -3.5817 -2.52281 0
M  V30 39336 C 3997.58 -2.29871 -3.79044 0
M  V30 39337 H 3994.8 -0.47006 -0.478837 0
M  V30 39338 H 3997.34 -1.81706 -0.938251 0
M  V30 39339 H 3995.5 -1.81688 -3.42153 0
M  V30 39340 H 3995.91 -4.02963 -3.3574 0
M  V30 39341 H 3997.38 -2.93752 -4.67348 0
M  V30 39342 H 3997.86 -1.31113 -4.19173 0
M  V30 39343 H 3998.47 -2.71096 -3.277 0
M  V30 39344 N 3996.78 0.985565 -1.22981 0
M  V30 39345 C 3998.19 1.54068 -1.0545 0
M  V30 39346 C 3998.54 1.92489 0.379774 0
M  V30 39347 O 3997.67 1.75518 1.26579 0
M  V30 39348 C 3998.26 2.79967 -1.90799 0
M  V30 39349 C 3996.82 3.31896 -1.77544 0
M  V30 39350 C 3995.97 2.04926 -1.86817 0
M  V30 39351 H 3998.92 0.805826 -1.36719 0
M  V30 39352 H 3998.94 3.52617 -1.42973 0
M  V30 39353 H 3998.45 2.51972 -2.95181 0
M  V30 39354 H 3996.56 3.64783 -0.759242 0
M  V30 39355 H 3996.67 4.02003 -2.60634 0
M  V30 39356 H 3995.03 2.18823 -1.30339 0
M  V30 39357 H 3995.82 1.79319 -2.92745 0
M  V30 39358 N 3998.26 1.04068 1.18353 0
M  V30 39359 C 3999.51 0.739263 1.87664 0
M  V30 39360 C 3999.82 -0.735931 1.81228 0
M  V30 39361 O 4001.03 -1.15087 2.45901 0
M  V30 39362 C 3999.48 1.27208 3.36669 0
M  V30 39363 C 3999.09 2.77591 3.51635 0
M  V30 39364 C 4000.84 1.04719 4.11381 0
M  V30 39365 C 3998.74 3.24231 4.94599 0
M  V30 39366 H 3997.67 0.272842 0.702903 0
M  V30 39367 H 4000.32 1.25652 1.33731 0
M  V30 39368 H 3998.71 0.68269 3.90071 0
M  V30 39369 H 3999.88 3.42288 3.08505 0
M  V30 39370 H 3998.2 2.98493 2.90329 0
M  V30 39371 H 4000.79 1.3708 5.1683 0
M  V30 39372 H 4001.14 -0.0155612 4.16297 0
M  V30 39373 H 4001.67 1.6012 3.64152 0
M  V30 39374 H 3998.41 4.29887 4.94851 0
M  V30 39375 H 3997.93 2.64269 5.38444 0
M  V30 39376 H 3999.61 3.18254 5.63314 0
M  V30 39377 N 3999.74 -1.34578 0.820149 0
M  V30 39378 C 4000.97 -2.02596 0.4198 0
M  V30 39379 C 4001.38 -1.61772 -0.973411 0
M  V30 39380 O 4000.74 -0.821819 -1.62949 0
M  V30 39381 C 4000.79 -3.57896 0.509167 0
M  V30 39382 O 4000.51 -3.97241 1.84746 0
M  V30 39383 C 4002.01 -4.43179 0.103361 0
M  V30 39384 H 3999.23 -0.649417 0.168814 0
M  V30 39385 H 4001.78 -1.71912 1.10754 0
M  V30 39386 H 3999.93 -3.8718 -0.130458 0
M  V30 39387 H 4000.34 -4.9192 1.81976 0
M  V30 39388 H 4001.82 -5.51573 0.216981 0
M  V30 39389 H 4002.3 -4.2874 -0.952813 0
M  V30 39390 H 4002.9 -4.19218 0.716675 0
M  V30 39391 N 4001.22 -0.574861 -1.46742 0
M  V30 39392 C 4002.44 -0.0628355 -2.06805 0
M  V30 39393 C 4002.86 1.2387 -1.42484 0
M  V30 39394 O 4002.22 1.74713 -0.527406 0
M  V30 39395 C 4002.27 0.11792 -3.61308 0
M  V30 39396 O 4001.99 -1.13209 -4.2322 0
M  V30 39397 C 4003.49 0.6652 -4.38281 0
M  V30 39398 H 4000.71 -0.0538734 -0.668834 0
M  V30 39399 H 4003.25 -0.793298 -1.88486 0
M  V30 39400 H 4001.41 0.798574 -3.7908 0
M  V30 39401 H 4001.82 -0.940943 -5.15991 0
M  V30 39402 H 4003.3 0.740889 -5.47005 0
M  V30 39403 H 4003.77 1.68045 -4.0578 0
M  V30 39404 H 4004.38 0.0196714 -4.25295 0
M  V30 39405 N 4002.69 1.54476 -0.312224 0
M  V30 39406 C 4003.92 2.04771 0.296025 0
M  V30 39407 C 4004.34 1.18896 1.4666 0
M  V30 39408 O 4003.69 0.217075 1.81204 0
M  V30 39409 C 4003.75 3.53815 0.741448 0
M  V30 39410 O 4003.47 4.36427 -0.382547 0
M  V30 39411 C 4004.97 4.20155 1.41369 0
M  V30 39412 H 4002.19 0.668065 0.0626932 0
M  V30 39413 H 4004.73 1.99371 -0.455118 0
M  V30 39414 H 4002.89 3.59539 1.44259 0
M  V30 39415 H 4003.3 5.24489 -0.0337304 0
M  V30 39416 H 4004.77 5.25929 1.6764 0
M  V30 39417 H 4005.25 3.70574 2.35736 0
M  V30 39418 H 4005.86 4.18537 0.755424 0
M  V30 39419 N 4004.17 0.0401637 1.57549 0
M  V30 39420 C 4005.4 -0.645951 1.96558 0
M  V30 39421 C 4005.82 -1.65024 0.917199 0
M  V30 39422 O 4005.17 -1.82227 -0.0998075 0
M  V30 39423 C 4005.22 -1.3426 3.35643 0
M  V30 39424 O 4004.94 -0.378539 4.36462 0
M  V30 39425 C 4006.45 -2.1195 3.89348 0
M  V30 39426 H 4003.67 -0.177368 0.647133 0
M  V30 39427 H 4006.21 0.103203 2.04239 0
M  V30 39428 H 4004.36 -2.04307 3.29147 0
M  V30 39429 H 4004.78 -0.874501 5.17158 0
M  V30 39430 H 4006.25 -2.56132 4.88979 0
M  V30 39431 H 4006.73 -2.96313 3.24184 0
M  V30 39432 H 4007.34 -1.46838 3.99148 0
M  V30 39433 N 4005.65 -1.55866 -0.233109 0
M  V30 39434 C 4006.88 -1.82413 -0.976383 0
M  V30 39435 C 4007.29 -0.617755 -1.78407 0
M  V30 39436 O 4006.65 0.413678 -1.7775 0
M  V30 39437 C 4006.7 -3.07343 -1.90323 0
M  V30 39438 O 4006.42 -4.23324 -1.1282 0
M  V30 39439 C 4007.92 -3.46791 -2.76136 0
M  V30 39440 H 4005.14 -0.606671 -0.286689 0
M  V30 39441 H 4007.69 -2.02944 -0.251827 0
M  V30 39442 H 4005.84 -2.88821 -2.58188 0
M  V30 39443 H 4006.26 -4.9422 -1.75634 0
M  V30 39444 H 4007.73 -4.37272 -3.36893 0
M  V30 39445 H 4008.21 -2.68009 -3.47948 0
M  V30 39446 H 4008.81 -3.67711 -2.13702 0
M  V30 39447 N 4007.13 0.499346 -1.4948 0
M  V30 39448 C 4008.38 1.25522 -1.59286 0
M  V30 39449 C 4008.71 1.92179 -0.279444 0
M  V30 39450 O 4007.98 1.80798 0.71711 0
M  V30 39451 C 4008.27 2.32093 -2.75327 0
M  V30 39452 C 4008.12 1.69927 -4.16467 0
M  V30 39453 C 4009.44 3.33641 -2.87004 0
M  V30 39454 H 4006.56 0.455005 -0.579776 0
M  V30 39455 H 4009.2 0.553133 -1.8177 0
M  V30 39456 H 4007.35 2.91975 -2.56287 0
M  V30 39457 H 4009.02 1.13859 -4.47028 0
M  V30 39458 H 4007.26 1.00332 -4.22038 0
M  V30 39459 H 4007.94 2.47233 -4.93538 0
M  V30 39460 H 4010.41 2.83752 -3.04342 0
M  V30 39461 H 4009.29 4.05569 -3.69872 0
M  V30 39462 H 4009.55 3.96067 -1.96426 0
M  V30 39463 N 4008.61 1.38582 0.750513 0
M  V30 39464 C 4009.84 1.38199 1.53976 0
M  V30 39465 C 4010.25 -0.0274645 1.8878 0
M  V30 39466 O 4009.61 -0.994867 1.52999 0
M  V30 39467 C 4009.66 2.24048 2.83699 0
M  V30 39468 O 4009.38 3.59503 2.50378 0
M  V30 39469 C 4010.88 2.31878 3.77819 0
M  V30 39470 H 4008.1 0.472593 0.476337 0
M  V30 39471 H 4010.64 1.82201 0.928602 0
M  V30 39472 H 4008.8 1.835 3.41184 0
M  V30 39473 H 4009.21 4.04738 3.33598 0
M  V30 39474 H 4010.69 2.96226 4.65783 0
M  V30 39475 H 4011.16 1.33334 4.18472 0
M  V30 39476 H 4011.77 2.7283 3.26257 0
M  V30 39477 N 4010.09 -0.979029 1.23502 0
M  V30 39478 C 4011.5 -1.53507 1.06266 0
M  V30 39479 C 4011.85 -1.92688 -0.36956 0
M  V30 39480 O 4010.97 -1.76187 -1.25646 0
M  V30 39481 C 4011.57 -2.78951 1.92281 0
M  V30 39482 C 4010.13 -3.3095 1.79302 0
M  V30 39483 C 4009.27 -2.03932 1.87901 0
M  V30 39484 H 4012.22 -0.798564 1.37145 0
M  V30 39485 H 4012.25 -3.51854 1.44841 0
M  V30 39486 H 4011.76 -2.50403 2.96513 0
M  V30 39487 H 4009.86 -3.64375 0.778576 0
M  V30 39488 H 4009.97 -4.00616 2.62762 0
M  V30 39489 H 4008.34 -2.18129 1.31498 0
M  V30 39490 H 4009.12 -1.77764 2.93692 0
M  V30 39491 N 4011.56 -1.04695 -1.178 0
M  V30 39492 C 4012.79 -0.77428 -1.91866 0
M  V30 39493 C 4013.21 0.669394 -1.76535 0
M  V30 39494 O 4012.56 1.45686 -1.09917 0
M  V30 39495 C 4012.61 -1.1391 -3.43084 0
M  V30 39496 O 4012.34 -2.5261 -3.57938 0
M  V30 39497 C 4013.84 -0.891843 -4.34236 0
M  V30 39498 H 4011.06 -0.281893 -0.608915 0
M  V30 39499 H 4013.6 -1.39629 -1.49412 0
M  V30 39500 H 4011.76 -0.561931 -3.83303 0
M  V30 39501 H 4012.17 -2.66764 -4.51594 0
M  V30 39502 H 4013.64 -1.1969 -5.38868 0
M  V30 39503 H 4014.12 0.173152 -4.38859 0
M  V30 39504 H 4014.73 -1.45261 -3.99724 0
M  V30 39505 N 4013.04 1.34141 -0.827275 0
M  V30 39506 C 4014.45 1.80539 -0.475677 0
M  V30 39507 C 4014.8 1.68546 1.00432 0
M  V30 39508 O 4013.93 1.22798 1.78184 0
M  V30 39509 C 4014.52 3.27791 -0.856645 0
M  V30 39510 C 4013.08 3.72251 -0.557355 0
M  V30 39511 C 4012.23 2.55774 -1.07122 0
M  V30 39512 H 4015.18 1.21827 -1.01705 0
M  V30 39513 H 4015.2 3.80154 -0.162126 0
M  V30 39514 H 4014.71 3.36487 -1.93385 0
M  V30 39515 H 4012.81 3.6909 0.510263 0
M  V30 39516 H 4012.93 4.66196 -1.10447 0
M  V30 39517 H 4011.29 2.49891 -0.492578 0
M  V30 39518 H 4012.07 2.67238 -2.15496 0
M  V30 39519 N 4014.52 0.582635 1.46435 0
M  V30 39520 C 4015.75 0.073802 2.06768 0
M  V30 39521 C 4016.16 -1.23112 1.43139 0
M  V30 39522 O 4015.52 -1.74431 0.536664 0
M  V30 39523 C 4015.57 -0.098757 3.61365 0
M  V30 39524 O 4015.29 1.15452 4.22614 0
M  V30 39525 C 4016.79 -0.641948 4.38627 0
M  V30 39526 H 4014.01 0.0574196 0.668539 0
M  V30 39527 H 4016.56 0.803283 1.88063 0
M  V30 39528 H 4014.71 -0.778459 3.79498 0
M  V30 39529 H 4015.13 0.968294 5.15485 0
M  V30 39530 H 4016.6 -0.71187 5.47391 0
M  V30 39531 H 4017.08 -1.6589 4.06666 0
M  V30 39532 H 4017.68 0.00288328 4.253 0
M  V30 39533 N 4016 -1.54309 0.320412 0
M  V30 39534 C 4017.41 -1.8594 -0.168297 0
M  V30 39535 C 4017.76 -1.24211 -1.51875 0
M  V30 39536 O 4016.88 -0.54697 -2.09373 0
M  V30 39537 C 4017.48 -3.37359 -0.312153 0
M  V30 39538 C 4016.04 -3.68952 -0.745082 0
M  V30 39539 C 4015.19 -2.76971 0.135087 0
M  V30 39540 H 4018.14 -1.49201 0.5408 0
M  V30 39541 H 4018.16 -3.62908 -1.14358 0
M  V30 39542 H 4017.67 -3.82258 0.670876 0
M  V30 39543 H 4015.77 -3.29584 -1.73797 0
M  V30 39544 H 4015.88 -4.75921 -0.551016 0
M  V30 39545 H 4014.25 -2.51714 -0.388841 0
M  V30 39546 H 4015.03 -3.24695 1.11482 0
M  V30 39547 N 4017.48 -0.0485183 -1.57525 0
M  V30 39548 C 4018.7 0.635518 -1.96898 0
M  V30 39549 C 4019.12 1.64535 -0.925938 0
M  V30 39550 O 4018.48 1.82277 0.0901422 0
M  V30 39551 C 4018.53 1.32478 -3.36351 0
M  V30 39552 O 4018.25 0.355387 -4.36656 0
M  V30 39553 C 4019.75 2.09883 -3.90467 0
M  V30 39554 H 4016.97 0.173933 -0.648065 0
M  V30 39555 H 4019.51 -0.114033 -2.04182 0
M  V30 39556 H 4017.67 2.02558 -3.30226 0
M  V30 39557 H 4018.08 0.847062 -5.17615 0
M  V30 39558 H 4019.56 2.53535 -4.90331 0
M  V30 39559 H 4020.03 2.9459 -3.2575 0
M  V30 39560 H 4020.64 1.44719 -3.99921 0
M  V30 39561 N 4018.95 1.55988 0.224839 0
M  V30 39562 C 4020.2 1.78495 0.94784 0
M  V30 39563 C 4020.52 0.616446 1.85 0
M  V30 39564 O 4019.79 -0.366813 1.92435 0
M  V30 39565 H 4018.37 0.658344 0.352976 0
M  V30 39566 H 4021.03 1.93448 0.237485 0
M  V30 39567 H 4020.13 2.70512 1.55659 0
M  V30 39568 N 4020.43 -0.491412 1.49743 0
M  V30 39569 C 4021.66 -1.2687 1.63437 0
M  V30 39570 C 4022.07 -1.86245 0.309549 0
M  V30 39571 O 4021.43 -1.68285 -0.706148 0
M  V30 39572 C 4021.48 -2.39208 2.71038 0
M  V30 39573 O 4021.2 -1.82271 3.98383 0
M  V30 39574 C 4022.7 -3.30425 2.95524 0
M  V30 39575 H 4019.92 -0.384447 0.549947 0
M  V30 39576 H 4022.47 -0.58888 1.95838 0
M  V30 39577 H 4020.62 -3.03002 2.41389 0
M  V30 39578 H 4021.04 -2.56093 4.5773 0
M  V30 39579 H 4022.51 -4.05507 3.74524 0
M  V30 39580 H 4022.99 -3.87995 2.05807 0
M  V30 39581 H 4023.59 -2.72388 3.26627 0
M  V30 39582 N 4021.91 -1.38978 -0.743153 0
M  V30 39583 C 4022.84 -1.32941 -1.86706 0
M  V30 39584 C 4023.86 -0.239672 -1.61026 0
M  V30 39585 O 4025.04 -0.498021 -1.71412 0
M  V30 39586 C 4022.14 -1.03951 -3.22564 0
M  V30 39587 C 4021.32 -2.24041 -3.75665 0
M  V30 39588 C 4020.38 -1.91633 -4.90064 0
M  V30 39589 O 4019.4 -2.64235 -5.04151 0
M  V30 39590 N 4020.6 -0.877566 -5.73828 0
M  V30 39591 H 4023.37 -2.29794 -1.92393 0
M  V30 39592 H 4020.93 -1.32975 -0.923541 0
M  V30 39593 H 4022.92 -0.803047 -3.96653 0
M  V30 39594 H 4021.49 -0.158595 -3.12197 0
M  V30 39595 H 4020.71 -2.63689 -2.93022 0
M  V30 39596 H 4022 -3.04161 -4.07877 0
M  V30 39597 H 4021.4 -0.275703 -5.65028 0
M  V30 39598 H 4019.96 -0.700995 -6.4802 0
M  V30 39599 N 4023.39 0.972465 -1.2402 0
M  V30 39600 C 4024.62 1.74987 -1.10395 0
M  V30 39601 C 4025.03 1.85641 0.343927 0
M  V30 39602 O 4024.39 1.3413 1.23755 0
M  V30 39603 C 4024.44 3.17279 -1.73253 0
M  V30 39604 O 4024.16 3.07166 -3.12379 0
M  V30 39605 C 4025.66 4.11378 -1.65175 0
M  V30 39606 H 4022.88 0.548901 -0.385939 0
M  V30 39607 H 4025.43 1.22124 -1.64031 0
M  V30 39608 H 4023.58 3.67143 -1.23631 0
M  V30 39609 H 4023.99 3.96798 -3.43004 0
M  V30 39610 H 4025.47 5.08895 -2.13846 0
M  V30 39611 H 4025.95 4.34914 -0.612057 0
M  V30 39612 H 4026.55 3.67421 -2.142 0
M  V30 39613 N 4024.87 1.05318 1.17243 0
M  V30 39614 C 4026.28 0.789936 1.69165 0
M  V30 39615 C 4026.63 -0.68773 1.83752 0
M  V30 39616 O 4025.75 -1.53436 1.52599 0
M  V30 39617 C 4026.35 1.42733 3.07266 0
M  V30 39618 C 4024.91 1.21211 3.5635 0
M  V30 39619 C 4024.05 1.51007 2.32577 0
M  V30 39620 H 4027.01 1.21796 1.01742 0
M  V30 39621 H 4027.03 0.837301 3.71173 0
M  V30 39622 H 4026.54 2.50279 2.96618 0
M  V30 39623 H 4024.64 0.155957 3.72273 0
M  V30 39624 H 4024.75 1.91794 4.39035 0
M  V30 39625 H 4023.12 0.930214 2.37106 0
M  V30 39626 H 4023.9 2.59689 2.24536 0
M  V30 39627 N 4026.34 -1.33701 0.834377 0
M  V30 39628 C 4027.57 -2.0214 0.441264 0
M  V30 39629 C 4027.99 -1.62795 -0.956198 0
M  V30 39630 O 4027.34 -0.839056 -1.62068 0
M  V30 39631 C 4027.4 -3.57336 0.547098 0
M  V30 39632 O 4027.12 -3.95259 1.88949 0
M  V30 39633 C 4028.62 -4.43045 0.15036 0
M  V30 39634 H 4025.84 -0.64759 0.175692 0
M  V30 39635 H 4028.38 -1.70728 1.12571 0
M  V30 39636 H 4026.54 -3.87297 -0.0893851 0
M  V30 39637 H 4026.95 -4.89962 1.87183 0
M  V30 39638 H 4028.42 -5.51312 0.275471 0
M  V30 39639 H 4028.9 -4.29727 -0.907286 0
M  V30 39640 H 4029.51 -4.18434 0.761098 0
M  V30 39641 N 4027.82 -0.590393 -1.46124 0
M  V30 39642 C 4029.05 -0.0847664 -2.06726 0
M  V30 39643 C 4029.47 1.22351 -1.4379 0
M  V30 39644 O 4028.82 1.74144 -0.545907 0
M  V30 39645 C 4028.87 0.0795915 -3.61412 0
M  V30 39646 O 4028.59 -1.17691 -4.21996 0
M  V30 39647 C 4030.1 0.618677 -4.38962 0
M  V30 39648 H 4027.32 -0.0609642 -0.668225 0
M  V30 39649 H 4029.86 -0.813245 -1.87634 0
M  V30 39650 H 4028.01 0.758323 -3.79906 0
M  V30 39651 H 4028.43 -0.995618 -5.14964 0
M  V30 39652 H 4029.9 0.68283 -5.4776 0
M  V30 39653 H 4030.38 1.63731 -4.0754 0
M  V30 39654 H 4030.99 -0.0254379 -4.25292 0
M  V30 39655 N 4029.3 1.54136 -0.328591 0
M  V30 39656 C 4030.53 2.05074 0.274289 0
M  V30 39657 C 4030.94 1.20445 1.45391 0
M  V30 39658 O 4030.3 0.236282 1.80964 0
M  V30 39659 C 4030.35 3.54581 0.703879 0
M  V30 39660 O 4030.07 4.35996 -0.428815 0
M  V30 39661 C 4031.57 4.2163 1.36904 0
M  V30 39662 H 4028.79 0.668692 0.055604 0
M  V30 39663 H 4031.34 1.98877 -0.476239 0
M  V30 39664 H 4029.49 3.61049 1.40437 0
M  V30 39665 H 4029.91 5.24424 -0.0893575 0
M  V30 39666 H 4031.38 5.27677 1.62052 0
M  V30 39667 H 4031.86 3.73053 2.31793 0
M  V30 39668 H 4032.46 4.19315 0.71099 0
M  V30 39669 N 4030.78 0.0568716 1.57497 0
M  V30 39670 C 4032.19 -0.477996 1.80477 0
M  V30 39671 C 4032.54 -1.70568 0.969579 0
M  V30 39672 O 4031.67 -2.15584 0.187794 0
M  V30 39673 C 4032.26 -0.873955 3.27334 0
M  V30 39674 C 4030.82 -1.35377 3.51212 0
M  V30 39675 C 4029.97 -0.331704 2.75309 0
M  V30 39676 H 4032.92 0.282705 1.56162 0
M  V30 39677 H 4032.94 -1.73647 3.38566 0
M  V30 39678 H 4032.45 0.0197692 3.88095 0
M  V30 39679 H 4030.55 -2.26649 2.95738 0
M  V30 39680 H 4030.66 -1.342 4.59921 0
M  V30 39681 H 4029.03 -0.805808 2.41617 0
M  V30 39682 H 4029.81 0.554035 3.388 0
M  V30 39683 N 4032.26 -1.56105 -0.216564 0
M  V30 39684 C 4033.51 -1.78547 -0.938289 0
M  V30 39685 C 4033.82 -0.626322 -1.85301 0
M  V30 39686 O 4035.02 -0.734497 -2.61376 0
M  V30 39687 C 4033.48 -3.16212 -1.71866 0
M  V30 39688 C 4033.09 -4.39866 -0.849826 0
M  V30 39689 C 4034.83 -3.47977 -2.4313 0
M  V30 39690 C 4032.74 -5.68556 -1.62783 0
M  V30 39691 H 4031.67 -0.665687 -0.354086 0
M  V30 39692 H 4034.32 -1.82492 -0.192047 0
M  V30 39693 H 4032.7 -3.06457 -2.50799 0
M  V30 39694 H 4033.88 -4.6069 -0.100676 0
M  V30 39695 H 4032.19 -4.15654 -0.249066 0
M  V30 39696 H 4034.79 -4.41352 -3.01848 0
M  V30 39697 H 4035.13 -2.7071 -3.16263 0
M  V30 39698 H 4035.66 -3.59084 -1.71182 0
M  V30 39699 H 4032.4 -6.4873 -0.939687 0
M  V30 39700 H 4031.92 -5.51785 -2.35147 0
M  V30 39701 H 4033.6 -6.08909 -2.18722 0
M  V30 39702 N 4033.73 0.483463 -1.50001 0
M  V30 39703 C 4034.96 1.26001 -1.64108 0
M  V30 39704 C 4035.38 1.86078 -0.319422 0
M  V30 39705 O 4034.73 1.68657 0.697214 0
M  V30 39706 C 4034.79 2.37767 -2.72303 0
M  V30 39707 O 4034.51 1.80156 -3.99344 0
M  V30 39708 C 4036.01 3.28853 -2.97272 0
M  V30 39709 H 4033.23 0.381525 -0.551978 0
M  V30 39710 H 4035.77 0.578486 -1.96147 0
M  V30 39711 H 4033.93 3.01718 -2.42992 0
M  V30 39712 H 4034.34 2.53662 -4.59081 0
M  V30 39713 H 4035.81 4.03515 -3.76669 0
M  V30 39714 H 4036.29 3.86898 -2.07862 0
M  V30 39715 H 4036.9 2.70652 -3.28067 0
M  V30 39716 N 4035.21 1.39371 0.735772 0
M  V30 39717 C 4036.44 1.39824 1.52502 0
M  V30 39718 C 4036.86 -0.00744027 1.88799 0
M  V30 39719 O 4036.21 -0.978584 1.54045 0
M  V30 39720 C 4036.26 2.27044 2.81306 0
M  V30 39721 O 4035.98 3.62138 2.46551 0
M  V30 39722 C 4037.49 2.35873 3.75339 0
M  V30 39723 H 4034.71 0.477619 0.471298 0
M  V30 39724 H 4037.25 1.83176 0.909224 0
M  V30 39725 H 4035.4 1.87108 3.39219 0
M  V30 39726 H 4035.82 4.08253 3.29287 0
M  V30 39727 H 4037.29 3.0115 4.62615 0
M  V30 39728 H 4037.77 1.37765 4.17034 0
M  V30 39729 H 4038.38 2.76275 3.23345 0
M  V30 39730 N 4036.69 -0.965875 1.24534 0
M  V30 39731 C 4037.92 -1.74399 1.11321 0
M  V30 39732 C 4038.33 -1.85821 -0.334078 0
M  V30 39733 O 4037.69 -1.34785 -1.23042 0
M  V30 39734 C 4037.74 -3.16355 1.74933 0
M  V30 39735 O 4037.46 -3.05505 3.14004 0
M  V30 39736 C 4038.96 -4.10497 1.67354 0
M  V30 39737 H 4036.18 -0.546846 0.388845 0
M  V30 39738 H 4038.73 -1.21252 1.64676 0
M  V30 39739 H 4036.88 -3.66482 1.25577 0
M  V30 39740 H 4037.3 -3.94973 3.45104 0
M  V30 39741 H 4038.77 -5.07753 2.16542 0
M  V30 39742 H 4039.25 -4.34584 0.635113 0
M  V30 39743 H 4039.85 -3.6628 2.16146 0
M  V30 39744 N 4038.17 -1.05938 -1.16683 0
M  V30 39745 C 4039.4 -0.794586 -1.91034 0
M  V30 39746 C 4039.81 0.650632 -1.77235 0
M  V30 39747 O 4039.17 1.44512 -1.11456 0
M  V30 39748 C 4039.22 -1.17542 -3.41857 0
M  V30 39749 O 4038.94 -2.56392 -3.55239 0
M  V30 39750 C 4040.44 -0.93785 -4.33266 0
M  V30 39751 H 4037.66 -0.288336 -0.605891 0
M  V30 39752 H 4040.21 -1.41206 -1.47923 0
M  V30 39753 H 4038.36 -0.602553 -3.82685 0
M  V30 39754 H 4038.78 -2.71539 -4.48739 0
M  V30 39755 H 4040.25 -1.25398 -5.37568 0
M  V30 39756 H 4040.73 0.126596 -4.39018 0
M  V30 39757 H 4041.33 -1.49493 -3.98161 0
M  V30 39758 N 4039.65 1.33256 -0.841456 0
M  V30 39759 C 4040.88 2.01903 -0.451978 0
M  V30 39760 C 4041.29 1.633 0.947551 0
M  V30 39761 O 4040.65 0.847639 1.61621 0
M  V30 39762 C 4040.7 3.57041 -0.566041 0
M  V30 39763 O 4040.42 3.94252 -1.91043 0
M  V30 39764 C 4041.92 4.42959 -0.173854 0
M  V30 39765 H 4039.14 0.646649 -0.179124 0
M  V30 39766 H 4041.68 1.70129 -1.13475 0
M  V30 39767 H 4039.84 3.87339 0.0688445 0
M  V30 39768 H 4040.25 4.88962 -1.89779 0
M  V30 39769 H 4041.73 5.51158 -0.304704 0
M  V30 39770 H 4042.2 4.30202 0.884484 0
M  V30 39771 H 4042.81 4.18025 -0.783278 0
M  V30 39772 N 4041.13 0.598134 1.45809 0
M  V30 39773 C 4042.37 0.0897796 2.02601 0
M  V30 39774 C 4042.7 -1.27279 1.46675 0
M  V30 39775 O 4041.98 -1.83747 0.637767 0
M  V30 39776 C 4042.26 0.0406345 3.60077 0
M  V30 39777 C 4042.12 1.4332 4.26356 0
M  V30 39778 C 4043.43 -0.652087 4.35242 0
M  V30 39779 H 4040.55 0.0340995 0.736211 0
M  V30 39780 H 4043.2 0.768294 1.73774 0
M  V30 39781 H 4041.35 -0.537183 3.84768 0
M  V30 39782 H 4043.02 2.05737 4.1288 0
M  V30 39783 H 4041.26 1.99659 3.85121 0
M  V30 39784 H 4041.93 1.35114 5.35209 0
M  V30 39785 H 4044.41 -0.161055 4.15788 0
M  V30 39786 H 4043.28 -0.65555 5.44971 0
M  V30 39787 H 4043.54 -1.71639 4.07422 0
M  V30 39788 N 4042.6 -1.5396 0.33676 0
M  V30 39789 C 4043.83 -2.05216 -0.26341 0
M  V30 39790 C 4044.25 -1.21214 -1.4475 0
M  V30 39791 O 4043.6 -0.245875 -1.80836 0
M  V30 39792 C 4043.65 -3.54949 -0.685065 0
M  V30 39793 O 4043.38 -4.35763 0.451931 0
M  V30 39794 C 4044.88 -4.2235 -1.34666 0
M  V30 39795 H 4042.1 -0.668978 -0.052057 0
M  V30 39796 H 4044.64 -1.98622 0.486779 0
M  V30 39797 H 4042.8 -3.61788 -1.38521 0
M  V30 39798 H 4043.21 -5.24369 0.117168 0
M  V30 39799 H 4044.68 -5.28529 -1.59252 0
M  V30 39800 H 4045.16 -3.74277 -2.29811 0
M  V30 39801 H 4045.77 -4.19686 -0.688743 0
M  V30 39802 N 4044.08 -0.0652232 -1.57465 0
M  V30 39803 C 4045.49 0.468418 -1.80728 0
M  V30 39804 C 4045.84 1.70052 -0.978611 0
M  V30 39805 O 4044.97 2.15481 -0.199224 0
M  V30 39806 C 4045.56 0.856584 -3.27793 0
M  V30 39807 C 4044.12 1.33512 -3.51925 0
M  V30 39808 C 4043.27 0.317099 -2.75481 0
M  V30 39809 H 4046.22 -0.290983 -1.5601 0
M  V30 39810 H 4046.24 1.71849 -3.39482 0
M  V30 39811 H 4045.75 -0.0403505 -3.88079 0
M  V30 39812 H 4043.85 2.25078 -2.96936 0
M  V30 39813 H 4043.97 1.31759 -4.60626 0
M  V30 39814 H 4042.33 0.792983 -2.42041 0
M  V30 39815 H 4043.11 -0.571994 -3.38501 0
M  V30 39816 N 4045.56 1.56218 0.208282 0
M  V30 39817 C 4046.79 1.83943 0.947239 0
M  V30 39818 C 4047.2 0.64606 1.77402 0
M  V30 39819 O 4046.56 -0.385347 1.78385 0
M  V30 39820 C 4046.61 3.10332 1.85409 0
M  V30 39821 O 4046.33 4.25065 1.06071 0
M  V30 39822 C 4047.83 3.5114 2.70584 0
M  V30 39823 H 4045.05 0.611156 0.277001 0
M  V30 39824 H 4047.6 2.03318 0.219509 0
M  V30 39825 H 4045.75 2.92892 2.53561 0
M  V30 39826 H 4046.17 4.96951 1.67749 0
M  V30 39827 H 4047.64 4.42577 3.29894 0
M  V30 39828 H 4048.12 2.73511 3.4364 0
M  V30 39829 H 4048.72 3.71065 2.07825 0
M  V30 39830 N 4047.04 -0.475502 1.50256 0
M  V30 39831 C 4048.45 -1.05648 1.53933 0
M  V30 39832 C 4048.8 -1.93227 0.340259 0
M  V30 39833 O 4047.92 -2.09364 -0.547312 0
M  V30 39834 C 4048.52 -1.92276 2.78954 0
M  V30 39835 C 4047.08 -2.4549 2.85327 0
M  V30 39836 C 4046.23 -1.23725 2.48168 0
M  V30 39837 H 4049.18 -0.258305 1.56584 0
M  V30 39838 H 4049.2 -2.77288 2.6056 0
M  V30 39839 H 4048.71 -1.28508 3.66207 0
M  V30 39840 H 4046.81 -3.12824 2.02416 0
M  V30 39841 H 4046.92 -2.80899 3.88114 0
M  V30 39842 H 4045.29 -1.57063 2.00508 0
M  V30 39843 H 4046.07 -0.616264 3.37723 0
M  V30 39844 N 4048.52 -1.39759 -0.72837 0
M  V30 39845 C 4049.74 -1.40631 -1.51758 0
M  V30 39846 C 4050.16 -0.00257228 -1.888 0
M  V30 39847 O 4049.52 0.9704 -1.54562 0
M  V30 39848 C 4049.57 -2.28533 -2.80098 0
M  V30 39849 O 4049.29 -3.63441 -2.44627 0
M  V30 39850 C 4050.79 -2.3786 -3.74082 0
M  V30 39851 H 4048.01 -0.480111 -0.468758 0
M  V30 39852 H 4050.55 -1.83655 -0.899497 0
M  V30 39853 H 4048.71 -1.88904 -3.38222 0
M  V30 39854 H 4049.12 -4.09994 -3.27117 0
M  V30 39855 H 4050.6 -3.03599 -4.61011 0
M  V30 39856 H 4051.07 -1.39975 -4.16298 0
M  V30 39857 H 4051.68 -2.77986 -3.21875 0
M  V30 39858 N 4049.99 0.959257 -1.25044 0
M  V30 39859 C 4051.4 1.51797 -1.08695 0
M  V30 39860 C 4051.76 1.93252 0.338859 0
M  V30 39861 O 4050.88 1.78164 1.22827 0
M  V30 39862 C 4051.48 2.75856 -1.96694 0
M  V30 39863 C 4050.03 3.28056 -1.84544 0
M  V30 39864 C 4049.18 2.00917 -1.91122 0
M  V30 39865 H 4052.13 0.776645 -1.38398 0
M  V30 39866 H 4052.15 3.49505 -1.5042 0
M  V30 39867 H 4051.67 2.45654 -3.00459 0
M  V30 39868 H 4049.77 3.6309 -0.836447 0
M  V30 39869 H 4049.88 3.96385 -2.69102 0
M  V30 39870 H 4048.24 2.1601 -1.34952 0
M  V30 39871 H 4049.03 1.73069 -2.96483 0
M  V30 39872 N 4051.47 1.06556 1.16119 0
M  V30 39873 C 4052.7 0.804706 1.9061 0
M  V30 39874 C 4053.12 -0.641224 1.77577 0
M  V30 39875 O 4052.47 -1.43919 1.12221 0
M  V30 39876 C 4052.52 1.19354 3.41229 0
M  V30 39877 O 4052.24 2.58272 3.53874 0
M  V30 39878 C 4053.75 0.960814 4.32762 0
M  V30 39879 H 4050.97 0.291545 0.604353 0
M  V30 39880 H 4053.51 1.41989 1.47172 0
M  V30 39881 H 4051.66 0.62284 3.8236 0
M  V30 39882 H 4052.08 2.73915 4.47293 0
M  V30 39883 H 4053.55 1.28248 5.36895 0
M  V30 39884 H 4054.03 -0.103312 4.39078 0
M  V30 39885 H 4054.64 1.51602 3.97362 0
M  V30 39886 N 4052.95 -1.32808 0.848511 0
M  V30 39887 C 4054.2 -1.97072 0.448004 0
M  V30 39888 C 4054.52 -1.67506 -0.998328 0
M  V30 39889 O 4053.79 -0.97904 -1.69681 0
M  V30 39890 H 4052.37 -0.729072 0.162676 0
M  V30 39891 H 4055.03 -1.62001 1.08359 0
M  V30 39892 H 4054.13 -3.06511 0.587992 0
M  V30 39893 N 4054.43 -0.605858 -1.45489 0
M  V30 39894 C 4055.66 -0.106688 -2.06625 0
M  V30 39895 C 4056.07 1.2082 -1.4508 0
M  V30 39896 O 4055.43 1.73555 -0.564346 0
M  V30 39897 C 4055.48 0.0412544 -3.61476 0
M  V30 39898 O 4055.2 -1.22161 -4.20724 0
M  V30 39899 C 4056.7 0.572085 -4.39593 0
M  V30 39900 H 4053.92 -0.0680482 -0.667541 0
M  V30 39901 H 4056.47 -0.8331 -1.86761 0
M  V30 39902 H 4054.62 0.717986 -3.80688 0
M  V30 39903 H 4055.03 -1.05018 -5.13879 0
M  V30 39904 H 4056.51 0.624694 -5.48454 0
M  V30 39905 H 4056.99 1.594 -4.09253 0
M  V30 39906 H 4057.59 -0.0705444 -4.25241 0
M  V30 39907 N 4055.91 1.53779 -0.34492 0
M  V30 39908 C 4056.84 2.22611 0.545607 0
M  V30 39909 C 4057.85 1.23317 1.06286 0
M  V30 39910 O 4059.04 1.49664 0.972775 0
M  V30 39911 C 4056.14 2.89388 1.76374 0
M  V30 39912 C 4055.31 4.15009 1.38154 0
M  V30 39913 C 4054.37 4.65183 2.4595 0
M  V30 39914 O 4053.4 5.29362 2.092 0
M  V30 39915 N 4054.6 4.41228 3.77224 0
M  V30 39916 H 4057.37 2.99668 -0.0438867 0
M  V30 39917 H 4054.93 1.61014 -0.16911 0
M  V30 39918 H 4056.92 3.1987 2.47922 0
M  V30 39919 H 4055.49 2.15909 2.26058 0
M  V30 39920 H 4054.71 3.91057 0.496771 0
M  V30 39921 H 4056 4.96719 1.10219 0
M  V30 39922 H 4055.39 3.89903 4.09868 0
M  V30 39923 H 4053.95 4.76312 4.44938 0
M  V30 39924 N 4057.38 0.0735731 1.57428 0
M  V30 39925 C 4058.61 -0.604113 1.97884 0
M  V30 39926 C 4059.03 -1.63041 0.951997 0
M  V30 39927 O 4058.38 -1.82398 -0.061132 0
M  V30 39928 C 4058.44 -1.2711 3.38416 0
M  V30 39929 O 4058.16 -0.285874 4.37166 0
M  V30 39930 C 4059.66 -2.03644 3.93756 0
M  V30 39931 H 4056.88 -0.163601 0.65075 0
M  V30 39932 H 4059.42 0.146502 2.03975 0
M  V30 39933 H 4057.58 -1.97279 3.33406 0
M  V30 39934 H 4057.99 -0.764607 5.18897 0
M  V30 39935 H 4059.46 -2.45702 4.94302 0
M  V30 39936 H 4059.94 -2.8937 3.30396 0
M  V30 39937 H 4060.55 -1.38338 4.02172 0
M  V30 39938 N 4058.86 -1.56326 -0.199995 0
M  V30 39939 C 4060.27 -1.70302 -0.765111 0
M  V30 39940 C 4060.62 -0.67931 -1.84065 0
M  V30 39941 O 4059.75 0.16527 -2.15768 0
M  V30 39942 C 4060.34 -3.08766 -1.39461 0
M  V30 39943 C 4058.9 -3.24524 -1.90686 0
M  V30 39944 C 4058.05 -2.66251 -0.774974 0
M  V30 39945 H 4061 -1.5868 0.0250049 0
M  V30 39946 H 4061.02 -3.05823 -2.26391 0
M  V30 39947 H 4060.53 -3.83251 -0.611582 0
M  V30 39948 H 4058.64 -2.54946 -2.71723 0
M  V30 39949 H 4058.75 -4.31977 -2.07202 0
M  V30 39950 H 4057.11 -2.25298 -1.18798 0
M  V30 39951 H 4057.9 -3.433 -0.00426816 0
M  V30 39952 N 4060.34 0.467527 -1.50506 0
M  V30 39953 C 4061.57 1.24253 -1.65435 0
M  V30 39954 C 4061.98 1.85729 -0.33914 0
M  V30 39955 O 4061.34 1.69387 0.679286 0
M  V30 39956 C 4061.39 2.34866 -2.7481 0
M  V30 39957 O 4061.11 1.7591 -4.01232 0
M  V30 39958 C 4062.61 3.25681 -3.00743 0
M  V30 39959 H 4059.83 0.375649 -0.555993 0
M  V30 39960 H 4062.38 0.557649 -1.9675 0
M  V30 39961 H 4060.53 2.99123 -2.46179 0
M  V30 39962 H 4060.95 2.48779 -4.61746 0
M  V30 39963 H 4062.42 3.99497 -3.80928 0
M  V30 39964 H 4062.9 3.84672 -2.11953 0
M  V30 39965 H 4063.5 2.67157 -3.30919 0
M  V30 39966 N 4061.82 1.40143 0.720948 0
M  V30 39967 C 4063.05 1.41434 1.5101 0
M  V30 39968 C 4063.46 0.0125848 1.88796 0
M  V30 39969 O 4062.82 -0.96219 1.55075 0
M  V30 39970 C 4062.87 2.30015 2.78882 0
M  V30 39971 O 4062.59 3.64733 2.42696 0
M  V30 39972 C 4064.09 2.3984 3.72816 0
M  V30 39973 H 4061.31 0.48259 0.466205 0
M  V30 39974 H 4063.86 1.8413 0.889745 0
M  V30 39975 H 4062.01 1.90695 3.37215 0
M  V30 39976 H 4062.42 4.11723 3.24938 0
M  V30 39977 H 4063.9 3.0604 4.59395 0
M  V30 39978 H 4064.38 1.42181 4.15549 0
M  V30 39979 H 4064.98 2.79689 3.20397 0
M  V30 39980 N 4063.3 -0.952612 1.25551 0
M  V30 39981 C 4064.52 -1.73209 1.13165 0
M  V30 39982 C 4064.94 -1.86165 -0.31435 0
M  V30 39983 O 4064.3 -1.36082 -1.21605 0
M  V30 39984 C 4064.35 -3.14482 1.78278 0
M  V30 39985 O 4064.07 -3.02157 3.17226 0
M  V30 39986 C 4065.57 -4.08699 1.71699 0
M  V30 39987 H 4062.79 -0.542691 0.394623 0
M  V30 39988 H 4065.33 -1.19499 1.65953 0
M  V30 39989 H 4063.49 -3.6513 1.29457 0
M  V30 39990 H 4063.9 -3.91291 3.49273 0
M  V30 39991 H 4065.38 -5.05428 2.21915 0
M  V30 39992 H 4065.85 -4.33886 0.68117 0
M  V30 39993 H 4066.46 -3.63967 2.20018 0
M  V30 39994 N 4064.77 -1.0717 -1.15553 0
M  V30 39995 C 4066.19 -0.816748 -1.67887 0
M  V30 39996 C 4066.54 0.658409 -1.84823 0
M  V30 39997 O 4065.66 1.50988 -1.55021 0
M  V30 39998 C 4066.26 -1.47604 -3.04957 0
M  V30 39999 C 4064.82 -1.26864 -3.54376 0
M  V30 40000 C 4063.96 -1.54688 -2.30145 0
M  V30 40001 H 4066.91 -1.23399 -0.997917 0
M  V30 40002 H 4066.93 -0.896245 -3.69794 0
M  V30 40003 H 4066.45 -2.54966 -2.92599 0
M  V30 40004 H 4064.55 -0.215162 -3.71978 0
M  V30 40005 H 4064.66 -1.98755 -4.35928 0
M  V30 40006 H 4063.02 -0.967818 -2.35596 0
M  V30 40007 H 4063.81 -2.63229 -2.20376 0
M  V30 40008 N 4066.25 1.32356 -0.855542 0
M  V30 40009 C 4067.5 1.96488 -0.455577 0
M  V30 40010 C 4067.82 1.68451 0.99416 0
M  V30 40011 O 4069.02 2.26328 1.4996 0
M  V30 40012 C 4067.48 3.51703 -0.763739 0
M  V30 40013 C 4067.09 3.88597 -2.22927 0
M  V30 40014 C 4068.83 4.22301 -0.431541 0
M  V30 40015 C 4066.74 5.36861 -2.4806 0
M  V30 40016 H 4065.67 0.735357 -0.16663 0
M  V30 40017 H 4068.32 1.50737 -1.04645 0
M  V30 40018 H 4066.7 3.95868 -0.102294 0
M  V30 40019 H 4067.87 3.55439 -2.93258 0
M  V30 40020 H 4066.19 3.31026 -2.52607 0
M  V30 40021 H 4068.79 5.3136 -0.596734 0
M  V30 40022 H 4069.13 4.11553 0.626907 0
M  V30 40023 H 4069.66 3.83722 -1.04892 0
M  V30 40024 H 4066.4 5.52631 -3.52533 0
M  V30 40025 H 4065.92 5.71423 -1.82308 0
M  V30 40026 H 4067.6 6.03953 -2.32055 0
M  V30 40027 N 4067.73 0.613565 1.45166 0
M  V30 40028 C 4068.96 0.117644 2.06565 0
M  V30 40029 C 4069.37 -1.20048 1.45718 0
M  V30 40030 O 4068.73 -1.73253 0.573542 0
M  V30 40031 C 4068.78 -0.0220839 3.61493 0
M  V30 40032 O 4068.5 1.2439 4.2007 0
M  V30 40033 C 4070 -0.548764 4.3989 0
M  V30 40034 H 4067.22 0.0715874 0.66717 0
M  V30 40035 H 4069.77 0.842993 1.86317 0
M  V30 40036 H 4067.92 -0.697787 3.81064 0
M  V30 40037 H 4068.34 1.07742 5.13315 0
M  V30 40038 H 4069.81 -0.5956 5.48777 0
M  V30 40039 H 4070.29 -1.57227 4.10093 0
M  V30 40040 H 4070.89 0.093095 4.25198 0
M  V30 40041 N 4069.21 -1.53594 0.353071 0
M  V30 40042 C 4070.44 -2.05484 -0.241629 0
M  V30 40043 C 4070.85 -1.22743 -1.43456 0
M  V30 40044 O 4070.21 -0.265042 -1.80565 0
M  V30 40045 C 4070.26 -3.55656 -0.647379 0
M  V30 40046 O 4069.98 -4.35259 0.498124 0
M  V30 40047 C 4071.48 -4.23755 -1.30179 0
M  V30 40048 H 4068.7 -0.669492 -0.0449586 0
M  V30 40049 H 4071.25 -1.98095 0.507818 0
M  V30 40050 H 4069.4 -3.63237 -1.34676 0
M  V30 40051 H 4069.82 -5.24215 0.172778 0
M  V30 40052 H 4071.29 -5.30188 -1.53637 0
M  V30 40053 H 4071.77 -3.76694 -2.25828 0
M  V30 40054 H 4072.37 -4.20393 -0.644191 0
M  V30 40055 N 4070.69 -0.0819208 -1.57387 0
M  V30 40056 C 4071.92 0.59361 -1.98202 0
M  V30 40057 C 4072.33 1.62534 -0.96063 0
M  V30 40058 O 4071.69 1.82427 0.0514582 0
M  V30 40059 C 4071.74 1.25314 -3.39085 0
M  V30 40060 O 4071.46 0.262686 -4.37312 0
M  V30 40061 C 4072.96 2.01553 -3.94831 0
M  V30 40062 H 4070.18 0.160148 -0.651609 0
M  V30 40063 H 4072.72 -0.157317 -2.03894 0
M  V30 40064 H 4070.88 1.95508 -3.34448 0
M  V30 40065 H 4071.29 0.737078 -5.19295 0
M  V30 40066 H 4072.77 2.43077 -4.95598 0
M  V30 40067 H 4073.24 2.87614 -3.31926 0
M  V30 40068 H 4073.85 1.36204 -4.029 0
M  V30 40069 N 4072.17 1.5643 0.191702 0
M  V30 40070 C 4073.39 1.84937 0.927676 0
M  V30 40071 C 4073.81 0.66484 1.76707 0
M  V30 40072 O 4073.17 -0.366405 1.78784 0
M  V30 40073 C 4073.22 3.12281 1.82107 0
M  V30 40074 O 4072.94 4.26166 1.01557 0
M  V30 40075 C 4074.44 3.5399 2.66844 0
M  V30 40076 H 4071.66 0.614059 0.270504 0
M  V30 40077 H 4074.2 2.0354 0.197932 0
M  V30 40078 H 4072.36 2.95565 2.5044 0
M  V30 40079 H 4072.77 4.98702 1.62469 0
M  V30 40080 H 4074.25 4.46051 3.25181 0
M  V30 40081 H 4074.72 2.7714 3.4072 0
M  V30 40082 H 4075.33 3.73248 2.03877 0
M  V30 40083 N 4073.64 -0.459538 1.50751 0
M  V30 40084 C 4074.87 -1.23374 1.66091 0
M  V30 40085 C 4075.29 -1.85547 0.348985 0
M  V30 40086 O 4074.64 -1.69745 -0.670293 0
M  V30 40087 C 4074.69 -2.33405 2.76051 0
M  V30 40088 O 4074.42 -1.7378 4.02159 0
M  V30 40089 C 4075.92 -3.24082 3.02466 0
M  V30 40090 H 4073.14 -0.372696 0.557978 0
M  V30 40091 H 4075.68 -0.547207 1.97043 0
M  V30 40092 H 4073.84 -2.97814 2.47762 0
M  V30 40093 H 4074.25 -2.46327 4.63059 0
M  V30 40094 H 4075.72 -3.97471 3.83041 0
M  V30 40095 H 4076.2 -3.83542 2.13991 0
M  V30 40096 H 4076.81 -2.65398 3.32331 0
M  V30 40097 N 4075.12 -1.40523 -0.713506 0
M  V30 40098 C 4076.37 -1.3912 -1.47559 0
M  V30 40099 C 4076.7 0.00588625 -1.94199 0
M  V30 40100 O 4075.98 0.974912 -1.68302 0
M  V30 40101 C 4076.26 -2.38247 -2.70019 0
M  V30 40102 C 4076.11 -3.86988 -2.2926 0
M  V30 40103 C 4077.43 -2.34881 -3.72181 0
M  V30 40104 H 4074.55 -0.506649 -0.535234 0
M  V30 40105 H 4077.19 -1.71673 -0.814142 0
M  V30 40106 H 4075.34 -2.10617 -3.26455 0
M  V30 40107 H 4077.01 -4.25453 -1.7829 0
M  V30 40108 H 4075.26 -4.02721 -1.61239 0
M  V30 40109 H 4075.93 -4.51867 -3.17049 0
M  V30 40110 H 4078.4 -2.59359 -3.2538 0
M  V30 40111 H 4077.28 -3.06284 -4.55501 0
M  V30 40112 H 4077.54 -1.36116 -4.20624 0
M  V30 40113 N 4076.6 0.94594 -1.26054 0
M  V30 40114 C 4077.83 1.72606 -1.14082 0
M  V30 40115 C 4078.24 1.86329 0.304473 0
M  V30 40116 O 4077.6 1.36725 1.20882 0
M  V30 40117 C 4077.65 3.13532 -1.79944 0
M  V30 40118 O 4077.37 3.00471 -3.18824 0
M  V30 40119 C 4078.87 4.07782 -1.73864 0
M  V30 40120 H 4076.09 0.540591 -0.397495 0
M  V30 40121 H 4078.64 1.18617 -1.66584 0
M  V30 40122 H 4076.79 3.64438 -1.31391 0
M  V30 40123 H 4077.21 3.89433 -3.51344 0
M  V30 40124 H 4078.68 5.04244 -2.24592 0
M  V30 40125 H 4079.16 4.33518 -0.704171 0
M  V30 40126 H 4079.76 3.62795 -2.21945 0
M  V30 40127 N 4078.08 1.07781 1.14983 0
M  V30 40128 C 4079.49 0.82564 1.67452 0
M  V30 40129 C 4079.84 -0.648599 1.85169 0
M  V30 40130 O 4078.96 -1.50164 1.55819 0
M  V30 40131 C 4079.56 1.49219 3.0417 0
M  V30 40132 C 4078.12 1.28742 3.53698 0
M  V30 40133 C 4077.27 1.55907 2.29322 0
M  V30 40134 H 4080.22 1.23926 0.991359 0
M  V30 40135 H 4080.24 0.915844 3.69314 0
M  V30 40136 H 4079.75 2.56514 2.91242 0
M  V30 40137 H 4077.85 0.234886 3.71859 0
M  V30 40138 H 4077.96 2.01064 4.34868 0
M  V30 40139 H 4076.33 0.980298 2.35079 0
M  V30 40140 H 4077.11 2.64394 2.18977 0
M  V30 40141 N 4079.56 -1.31901 0.862549 0
M  V30 40142 C 4080.78 -2.01158 0.484042 0
M  V30 40143 C 4081.2 -1.64787 -0.921451 0
M  V30 40144 O 4080.56 -0.873244 -1.60252 0
M  V30 40145 C 4080.61 -3.56095 0.622771 0
M  V30 40146 O 4080.33 -3.91162 1.97291 0
M  V30 40147 C 4081.83 -4.42626 0.244303 0
M  V30 40148 H 4079.05 -0.643718 0.189389 0
M  V30 40149 H 4081.59 -1.68302 1.16167 0
M  V30 40150 H 4079.75 -3.87399 -0.00721357 0
M  V30 40151 H 4080.16 -4.85881 1.97534 0
M  V30 40152 H 4081.64 -5.50604 0.39235 0
M  V30 40153 H 4082.11 -4.31554 -0.81593 0
M  V30 40154 H 4082.72 -4.16726 0.849683 0
M  V30 40155 N 4081.03 -0.621255 -1.44838 0
M  V30 40156 C 4082.45 -0.205317 -1.85568 0
M  V30 40157 C 4082.8 1.24101 -1.51965 0
M  V30 40158 O 4081.92 1.94289 -0.952922 0
M  V30 40159 C 4082.52 -0.365847 -3.36819 0
M  V30 40160 C 4081.08 -0.00449527 -3.764 0
M  V30 40161 C 4080.22 -0.683886 -2.68735 0
M  V30 40162 H 4083.17 -0.82706 -1.35445 0
M  V30 40163 H 4083.19 0.398056 -3.78412 0
M  V30 40164 H 4082.71 -1.41859 -3.61244 0
M  V30 40165 H 4080.81 1.0469 -3.5759 0
M  V30 40166 H 4080.92 -0.407672 -4.77362 0
M  V30 40167 H 4079.28 -0.120159 -2.54416 0
M  V30 40168 H 4080.07 -1.73903 -2.95994 0
M  V30 40169 N 4082.51 1.53405 -0.361211 0
M  V30 40170 C 4083.74 2.05609 0.230729 0
M  V30 40171 C 4084.16 1.23502 1.42803 0
M  V30 40172 O 4083.51 0.274614 1.80422 0
M  V30 40173 C 4083.56 3.55994 0.628509 0
M  V30 40174 O 4083.28 4.34989 -0.5212 0
M  V30 40175 C 4084.79 4.24439 1.2793 0
M  V30 40176 H 4082.01 0.669721 0.0414075 0
M  V30 40177 H 4084.55 1.97822 -0.518316 0
M  V30 40178 H 4082.7 3.63946 1.32747 0
M  V30 40179 H 4083.12 5.24116 -0.200576 0
M  V30 40180 H 4084.59 5.30996 1.50823 0
M  V30 40181 H 4085.07 3.77886 2.23827 0
M  V30 40182 H 4085.68 4.20729 0.621887 0
M  V30 40183 N 4083.99 0.0902663 1.57341 0
M  V30 40184 C 4085.4 -0.439606 1.81451 0
M  V30 40185 C 4085.75 -1.68473 1.00554 0
M  V30 40186 O 4084.88 -2.15137 0.23348 0
M  V30 40187 C 4085.47 -0.804326 3.29114 0
M  V30 40188 C 4084.03 -1.27897 3.54005 0
M  V30 40189 C 4083.18 -0.273232 2.75951 0
M  V30 40190 H 4086.13 0.315766 1.55527 0
M  V30 40191 H 4086.15 -1.66426 3.42173 0
M  V30 40192 H 4085.66 0.102085 3.87966 0
M  V30 40193 H 4083.76 -2.20325 3.00479 0
M  V30 40194 H 4083.88 -1.24414 4.62664 0
M  V30 40195 H 4082.24 -0.754376 2.43272 0
M  V30 40196 H 4083.02 0.625774 3.37548 0
M  V30 40197 N 4085.47 -1.56529 -0.183403 0
M  V30 40198 C 4086.7 -1.85427 -0.917855 0
M  V30 40199 C 4087.11 -0.674202 -1.76352 0
M  V30 40200 O 4086.47 0.356918 -1.78976 0
M  V30 40201 C 4086.52 -3.13242 -1.80449 0
M  V30 40202 O 4086.24 -4.26699 -0.992953 0
M  V30 40203 C 4087.74 -3.554 -2.64963 0
M  V30 40204 H 4084.96 -0.615485 -0.267243 0
M  V30 40205 H 4087.51 -2.03642 -0.187135 0
M  V30 40206 H 4085.66 -2.96889 -2.48869 0
M  V30 40207 H 4086.07 -4.99557 -1.59822 0
M  V30 40208 H 4087.55 -4.47769 -3.22811 0
M  V30 40209 H 4088.03 -2.78943 -3.39245 0
M  V30 40210 H 4088.63 -3.74324 -2.01895 0
M  V30 40211 N 4086.95 0.451537 -1.50993 0
M  V30 40212 C 4088.19 1.19976 -1.62635 0
M  V30 40213 C 4088.52 1.92048 -0.338005 0
M  V30 40214 O 4087.79 1.84959 0.645509 0
M  V30 40215 H 4086.37 0.445854 -0.599353 0
M  V30 40216 H 4089.03 0.519071 -1.87861 0
M  V30 40217 H 4088.12 1.93707 -2.44712 0
M  V30 40218 N 4088.42 1.409 0.706044 0
M  V30 40219 C 4089.65 1.43028 1.49501 0
M  V30 40220 C 4090.07 0.0326084 1.88772 0
M  V30 40221 O 4089.42 -0.945688 1.56086 0
M  V30 40222 C 4089.48 2.3296 2.76427 0
M  V30 40223 O 4089.2 3.67287 2.38814 0
M  V30 40224 C 4090.7 2.43781 3.70251 0
M  V30 40225 H 4087.92 0.487508 0.461061 0
M  V30 40226 H 4090.46 1.85063 0.870166 0
M  V30 40227 H 4088.62 1.94261 3.35174 0
M  V30 40228 H 4089.03 4.15146 3.20553 0
M  V30 40229 H 4090.5 3.10895 4.56123 0
M  V30 40230 H 4090.98 1.4658 4.14018 0
M  V30 40231 H 4091.59 2.83072 3.17412 0
M  V30 40232 N 4089.9 -0.939242 1.26554 0
M  V30 40233 C 4090.83 -2.04209 1.04073 0
M  V30 40234 C 4091.85 -1.628 0.000534908 0
M  V30 40235 O 4093.04 -1.76868 0.240825 0
M  V30 40236 C 4090.14 -3.34334 0.554406 0
M  V30 40237 C 4089.31 -4.04501 1.66427 0
M  V30 40238 C 4088.37 -5.12898 1.17567 0
M  V30 40239 O 4087.39 -5.37497 1.87312 0
M  V30 40240 N 4088.6 -5.80495 0.0251273 0
M  V30 40241 H 4091.36 -2.24061 1.9904 0
M  V30 40242 H 4088.92 -1.10885 1.17966 0
M  V30 40243 H 4090.91 -4.04146 0.211677 0
M  V30 40244 H 4089.48 -3.1114 -0.301724 0
M  V30 40245 H 4088.7 -3.28578 2.17785 0
M  V30 40246 H 4089.99 -4.48131 2.40947 0
M  V30 40247 H 4089.39 -5.62948 -0.557279 0
M  V30 40248 H 4087.95 -6.51287 -0.258511 0
M  V30 40249 N 4091.38 -1.08389 -1.14409 0
M  V30 40250 C 4092.61 -0.834929 -1.89305 0
M  V30 40251 C 4093.02 0.612892 -1.78575 0
M  V30 40252 O 4092.38 1.42115 -1.14496 0
M  V30 40253 C 4092.43 -1.24767 -3.39287 0
M  V30 40254 O 4092.15 -2.6387 -3.49721 0
M  V30 40255 C 4093.65 -1.02954 -4.31179 0
M  V30 40256 H 4090.87 -0.301123 -0.599638 0
M  V30 40257 H 4093.42 -1.44312 -1.44894 0
M  V30 40258 H 4091.57 -0.683591 -3.81321 0
M  V30 40259 H 4091.99 -2.80996 -4.42879 0
M  V30 40260 H 4093.46 -1.36773 -5.34787 0
M  V30 40261 H 4093.94 0.0334452 -4.39187 0
M  V30 40262 H 4094.54 -1.57904 -3.949 0
M  V30 40263 N 4092.86 1.31442 -0.869532 0
M  V30 40264 C 4094.27 1.78934 -0.532873 0
M  V30 40265 C 4094.62 1.71656 0.95019 0
M  V30 40266 O 4093.75 1.28405 1.74187 0
M  V30 40267 C 4094.34 3.249 -0.960496 0
M  V30 40268 C 4092.9 3.70289 -0.675501 0
M  V30 40269 C 4092.05 2.52236 -1.15205 0
M  V30 40270 H 4095 1.1853 -1.05529 0
M  V30 40271 H 4095.02 3.79446 -0.282987 0
M  V30 40272 H 4094.53 3.30165 -2.03992 0
M  V30 40273 H 4092.63 3.70526 0.392582 0
M  V30 40274 H 4092.74 4.62446 -1.25222 0
M  V30 40275 H 4091.11 2.48198 -0.57183 0
M  V30 40276 H 4091.89 2.60247 -2.23889 0
M  V30 40277 N 4094.34 0.628927 1.44507 0
M  V30 40278 C 4095.56 0.139546 2.06429 0
M  V30 40279 C 4095.98 -1.18496 1.46983 0
M  V30 40280 O 4095.34 -1.72635 0.591886 0
M  V30 40281 C 4095.39 0.0162586 3.61496 0
M  V30 40282 O 4095.11 1.28838 4.18727 0
M  V30 40283 C 4096.61 -0.502077 4.40448 0
M  V30 40284 H 4093.83 0.0786596 0.666374 0
M  V30 40285 H 4096.37 0.862707 1.85412 0
M  V30 40286 H 4094.53 -0.657331 3.81783 0
M  V30 40287 H 4094.94 1.1318 5.12143 0
M  V30 40288 H 4096.42 -0.537361 5.49378 0
M  V30 40289 H 4096.89 -1.52869 4.11738 0
M  V30 40290 H 4097.5 0.138188 4.25075 0
M  V30 40291 N 4095.82 -1.53211 0.369342 0
M  V30 40292 C 4097.04 -2.05729 -0.219821 0
M  V30 40293 C 4097.46 -1.24257 -1.42146 0
M  V30 40294 O 4096.82 -0.284178 -1.80274 0
M  V30 40295 C 4096.87 -3.56323 -0.609621 0
M  V30 40296 O 4096.59 -4.34706 0.544261 0
M  V30 40297 C 4098.09 -4.25112 -1.25677 0
M  V30 40298 H 4095.31 -0.669931 -0.0378552 0
M  V30 40299 H 4097.85 -1.97545 0.5288 0
M  V30 40300 H 4096.01 -3.64645 -1.30815 0
M  V30 40301 H 4096.42 -5.24003 0.228368 0
M  V30 40302 H 4097.9 -5.31788 -1.48005 0
M  V30 40303 H 4098.37 -3.79068 -2.2182 0
M  V30 40304 H 4098.98 -4.21053 -0.599566 0
M  V30 40305 N 4097.29 -0.0986092 -1.57291 0
M  V30 40306 C 4098.52 0.572555 -1.9882 0
M  V30 40307 C 4098.94 1.61506 -0.977815 0
M  V30 40308 O 4098.29 1.82472 0.0321064 0
M  V30 40309 C 4098.34 1.2171 -3.40395 0
M  V30 40310 O 4098.07 0.216289 -4.37566 0
M  V30 40311 C 4099.57 1.97354 -3.96946 0
M  V30 40312 H 4096.79 0.153228 -0.65327 0
M  V30 40313 H 4099.33 -0.178934 -2.03716 0
M  V30 40314 H 4097.49 1.9195 -3.36503 0
M  V30 40315 H 4097.9 0.681958 -5.20048 0
M  V30 40316 H 4099.37 2.37807 -4.98148 0
M  V30 40317 H 4099.85 2.84077 -3.34958 0
M  V30 40318 H 4100.46 1.31923 -4.04322 0
M  V30 40319 N 4098.77 1.56624 0.175099 0
M  V30 40320 C 4100.18 1.71498 0.737921 0
M  V30 40321 C 4100.53 0.708507 1.82961 0
M  V30 40322 O 4099.66 -0.130922 2.16004 0
M  V30 40323 C 4100.25 3.10945 1.34531 0
M  V30 40324 C 4098.81 3.27516 1.85499 0
M  V30 40325 C 4097.96 2.6745 0.732517 0
M  V30 40326 H 4100.91 1.5862 -0.0502464 0
M  V30 40327 H 4100.93 3.09386 2.21497 0
M  V30 40328 H 4100.44 3.84175 0.550533 0
M  V30 40329 H 4098.54 2.59236 2.67633 0
M  V30 40330 H 4098.66 4.35219 2.00303 0
M  V30 40331 H 4097.02 2.27159 1.15199 0
M  V30 40332 H 4097.8 3.43263 -0.0503484 0
M  V30 40333 N 4100.25 -0.443523 1.5123 0
M  V30 40334 C 4101.5 -1.19039 1.62827 0
M  V30 40335 C 4101.81 -1.92491 0.347332 0
M  V30 40336 O 4103.02 -2.6933 0.342584 0
M  V30 40337 C 4101.47 -2.16451 2.87536 0
M  V30 40338 C 4101.08 -1.48674 4.22611 0
M  V30 40339 C 4102.83 -2.91608 3.08488 0
M  V30 40340 C 4100.73 -2.44534 5.38476 0
M  V30 40341 H 4099.66 -0.448031 0.606452 0
M  V30 40342 H 4102.31 -0.458034 1.77692 0
M  V30 40343 H 4100.7 -2.93095 2.66292 0
M  V30 40344 H 4101.87 -0.776309 4.54214 0
M  V30 40345 H 4100.18 -0.856935 4.07487 0
M  V30 40346 H 4102.78 -3.63406 3.92225 0
M  V30 40347 H 4103.12 -3.52597 2.21316 0
M  V30 40348 H 4103.66 -2.22073 3.30043 0
M  V30 40349 H 4100.4 -1.88244 6.27889 0
M  V30 40350 H 4099.92 -3.1365 5.11257 0
M  V30 40351 H 4101.6 -3.05794 5.70175 0
M  V30 40352 N 4101.73 -1.41272 -0.698562 0
M  V30 40353 C 4102.96 -1.43819 -1.48741 0
M  V30 40354 C 4103.37 -0.0426189 -1.88752 0
M  V30 40355 O 4102.73 0.937397 -1.56586 0
M  V30 40356 C 4102.78 -2.34423 -2.75188 0
M  V30 40357 O 4102.5 -3.68548 -2.36863 0
M  V30 40358 C 4104 -2.45741 -3.68953 0
M  V30 40359 H 4101.22 -0.489946 -0.458469 0
M  V30 40360 H 4103.76 -1.85522 -0.860339 0
M  V30 40361 H 4101.92 -1.96036 -3.34139 0
M  V30 40362 H 4102.33 -4.1684 -3.18347 0
M  V30 40363 H 4103.81 -3.1331 -4.54468 0
M  V30 40364 H 4104.28 -1.48774 -4.13235 0
M  V30 40365 H 4104.89 -2.84751 -3.15907 0
M  V30 40366 N 4103.21 0.932517 -1.27051 0
M  V30 40367 C 4104.43 1.71387 -1.15906 0
M  V30 40368 C 4104.85 1.86641 0.284693 0
M  V30 40369 O 4104.21 1.38 1.19425 0
M  V30 40370 C 4104.26 3.11606 -1.83259 0
M  V30 40371 O 4103.98 2.97072 -3.21993 0
M  V30 40372 C 4105.48 4.05915 -1.78179 0
M  V30 40373 H 4102.7 0.536344 -0.403207 0
M  V30 40374 H 4105.24 1.16844 -1.67833 0
M  V30 40375 H 4103.4 3.63024 -1.35249 0
M  V30 40376 H 4103.81 3.85684 -3.55454 0
M  V30 40377 H 4105.29 5.01834 -2.29928 0
M  V30 40378 H 4105.76 4.32747 -0.750112 0
M  V30 40379 H 4106.37 3.60421 -2.25781 0
M  V30 40380 N 4104.68 1.08995 1.13833 0
M  V30 40381 C 4105.91 0.844956 1.8886 0
M  V30 40382 C 4106.33 -0.603413 1.78898 0
M  V30 40383 O 4105.68 -1.41506 1.15249 0
M  V30 40384 C 4105.73 1.26565 3.3862 0
M  V30 40385 O 4105.46 2.65721 3.48316 0
M  V30 40386 C 4106.96 1.05239 4.30627 0
M  V30 40387 H 4104.18 0.304298 0.598033 0
M  V30 40388 H 4106.72 1.45078 1.44127 0
M  V30 40389 H 4104.88 0.703804 3.80953 0
M  V30 40390 H 4105.29 2.83341 4.41382 0
M  V30 40391 H 4106.76 1.39607 5.34054 0
M  V30 40392 H 4107.24 -0.0101536 4.39199 0
M  V30 40393 H 4107.85 1.59997 3.94057 0
M  V30 40394 N 4106.16 -1.30979 0.87649 0
M  V30 40395 C 4107.39 -2.00634 0.50535 0
M  V30 40396 C 4107.8 -1.65755 -0.903922 0
M  V30 40397 O 4107.16 -0.890192 -1.59317 0
M  V30 40398 C 4107.21 -3.55415 0.660505 0
M  V30 40399 O 4106.93 -3.89048 2.01428 0
M  V30 40400 C 4108.43 -4.42342 0.291235 0
M  V30 40401 H 4105.65 -0.641673 0.196206 0
M  V30 40402 H 4108.2 -1.6706 1.17945 0
M  V30 40403 H 4106.35 -3.87385 0.0338757 0
M  V30 40404 H 4106.77 -4.83759 2.02676 0
M  V30 40405 H 4108.24 -5.50157 0.450727 0
M  V30 40406 H 4108.72 -4.32396 -0.770112 0
M  V30 40407 H 4109.32 -4.15801 0.893835 0
M  V30 40408 N 4107.64 -0.636582 -1.44171 0
M  V30 40409 C 4108.87 -0.150492 -2.06352 0
M  V30 40410 C 4109.28 1.17715 -1.4761 0
M  V30 40411 O 4108.64 1.72319 -0.601033 0
M  V30 40412 C 4108.69 -0.0354294 -3.61483 0
M  V30 40413 O 4108.41 -1.31057 -4.18038 0
M  V30 40414 C 4109.91 0.478712 -4.40708 0
M  V30 40415 H 4107.13 -0.0821924 -0.665947 0
M  V30 40416 H 4109.68 -0.872528 -1.84952 0
M  V30 40417 H 4107.83 0.637075 -3.82126 0
M  V30 40418 H 4108.25 -1.15895 -5.11536 0
M  V30 40419 H 4109.72 0.508219 -5.49655 0
M  V30 40420 H 4110.2 1.50683 -4.12542 0
M  V30 40421 H 4110.8 -0.160729 -4.24996 0
M  V30 40422 N 4109.12 1.53013 -0.377462 0
M  V30 40423 C 4110.36 2.01722 0.208803 0
M  V30 40424 C 4110.7 1.26388 1.47444 0
M  V30 40425 O 4109.97 0.360937 1.91122 0
M  V30 40426 C 4110.25 3.56768 0.488737 0
M  V30 40427 C 4110.11 4.42784 -0.791363 0
M  V30 40428 C 4111.43 4.20942 1.28436 0
M  V30 40429 H 4108.55 0.733234 0.0744153 0
M  V30 40430 H 4111.19 1.83174 -0.504697 0
M  V30 40431 H 4109.34 3.72703 1.09656 0
M  V30 40432 H 4111.01 4.38623 -1.42856 0
M  V30 40433 H 4109.25 4.10273 -1.40922 0
M  V30 40434 H 4109.92 5.4925 -0.550296 0
M  V30 40435 H 4112.4 4.08912 0.770075 0
M  V30 40436 H 4111.28 5.2943 1.44897 0
M  V30 40437 H 4111.54 3.7779 2.29625 0
M  V30 40438 N 4110.6 0.106949 1.57237 0
M  V30 40439 C 4111.82 -0.562003 1.99121 0
M  V30 40440 C 4112.24 -1.60985 0.986366 0
M  V30 40441 O 4111.6 -1.82486 -0.0224291 0
M  V30 40442 C 4111.65 -1.19903 3.41036 0
M  V30 40443 O 4111.37 -0.193081 4.37674 0
M  V30 40444 C 4112.87 -1.95246 3.97987 0
M  V30 40445 H 4110.09 -0.149761 0.654074 0
M  V30 40446 H 4112.63 0.189735 2.03618 0
M  V30 40447 H 4110.79 -1.90163 3.37516 0
M  V30 40448 H 4111.2 -0.654369 5.20402 0
M  V30 40449 H 4112.68 -2.35162 4.99403 0
M  V30 40450 H 4113.15 -2.82297 3.36459 0
M  V30 40451 H 4113.76 -1.29776 4.05016 0
M  V30 40452 N 4112.07 -1.56715 -0.166791 0
M  V30 40453 C 4113.49 -1.71887 -0.728815 0
M  V30 40454 C 4113.84 -0.7182 -1.82582 0
M  V30 40455 O 4112.96 0.119465 -2.1607 0
M  V30 40456 C 4113.56 -3.11654 -1.3288 0
M  V30 40457 C 4112.12 -3.28495 -1.8376 0
M  V30 40458 C 4111.26 -2.67835 -0.718323 0
M  V30 40459 H 4114.21 -1.58592 0.0586577 0
M  V30 40460 H 4114.23 -3.10556 -2.19853 0
M  V30 40461 H 4113.75 -3.84462 -0.530151 0
M  V30 40462 H 4111.85 -2.60652 -2.66254 0
M  V30 40463 H 4111.96 -4.36275 -1.97992 0
M  V30 40464 H 4110.32 -2.27767 -1.13992 0
M  V30 40465 H 4111.11 -3.43232 0.0685518 0
M  V30 40466 N 4113.55 0.435497 -1.51463 0
M  V30 40467 C 4114.78 1.20716 -1.68033 0
M  V30 40468 C 4115.2 1.84968 -0.378459 0
M  V30 40469 O 4114.55 1.7079 0.643204 0
M  V30 40470 C 4114.6 2.28984 -2.7973 0
M  V30 40471 O 4114.32 1.6736 -4.04873 0
M  V30 40472 C 4115.83 3.19229 -3.07584 0
M  V30 40473 H 4113.05 0.363771 -0.563836 0
M  V30 40474 H 4115.59 0.51579 -1.97888 0
M  V30 40475 H 4113.74 2.93834 -2.52468 0
M  V30 40476 H 4114.16 2.38928 -4.66919 0
M  V30 40477 H 4115.63 3.91327 -3.89316 0
M  V30 40478 H 4116.11 3.80089 -2.20065 0
M  V30 40479 H 4116.72 2.60077 -3.36511 0
M  V30 40480 N 4115.03 1.41641 0.69106 0
M  V30 40481 C 4116.44 1.36744 1.27114 0
M  V30 40482 C 4116.79 0.0527298 1.96129 0
M  V30 40483 O 4115.92 -0.848918 1.99054 0
M  V30 40484 C 4116.51 2.47684 2.31167 0
M  V30 40485 C 4115.07 2.46171 2.8474 0
M  V30 40486 C 4114.22 2.27301 1.58837 0
M  V30 40487 H 4117.17 1.51091 0.485515 0
M  V30 40488 H 4117.19 2.17002 3.12555 0
M  V30 40489 H 4116.7 3.43357 1.80907 0
M  V30 40490 H 4114.8 1.54268 3.39164 0
M  V30 40491 H 4114.92 3.42642 3.34863 0
M  V30 40492 H 4113.28 1.75261 1.84812 0
M  V30 40493 H 4114.06 3.25007 1.10567 0
M  V30 40494 N 4116.51 -0.925766 1.27543 0
M  V30 40495 C 4117.74 -1.7077 1.16813 0
M  V30 40496 C 4118.15 -1.8679 -0.274791 0
M  V30 40497 O 4117.51 -1.38631 -1.18692 0
M  V30 40498 C 4117.56 -3.1063 1.84909 0
M  V30 40499 O 4117.28 -2.95361 3.23564 0
M  V30 40500 C 4118.78 -4.04965 1.80329 0
M  V30 40501 H 4116 -0.534199 0.406045 0
M  V30 40502 H 4118.55 -1.15952 1.6845 0
M  V30 40503 H 4116.7 -3.62302 1.37172 0
M  V30 40504 H 4117.11 -3.83794 3.57495 0
M  V30 40505 H 4118.59 -5.00607 2.32586 0
M  V30 40506 H 4119.07 -4.32343 0.773051 0
M  V30 40507 H 4119.67 -3.59218 2.27689 0
M  V30 40508 N 4117.99 -1.09597 -1.13253 0
M  V30 40509 C 4119.4 -0.852176 -1.66117 0
M  V30 40510 C 4119.75 0.619058 -1.86178 0
M  V30 40511 O 4118.87 1.47666 -1.58189 0
M  V30 40512 C 4119.47 -1.54039 -3.01757 0
M  V30 40513 C 4118.03 -1.34353 -3.51605 0
M  V30 40514 C 4117.17 -1.59535 -2.26812 0
M  V30 40515 H 4120.13 -1.25488 -0.971517 0
M  V30 40516 H 4120.15 -0.974482 -3.6781 0
M  V30 40517 H 4119.66 -2.61115 -2.87125 0
M  V30 40518 H 4117.76 -0.294016 -3.71438 0
M  V30 40519 H 4117.87 -2.07957 -4.31614 0
M  V30 40520 H 4116.24 -1.01757 -2.3349 0
M  V30 40521 H 4117.02 -2.67844 -2.14743 0
M  V30 40522 N 4119.46 1.30512 -0.883424 0
M  V30 40523 C 4120.69 2.00363 -0.515983 0
M  V30 40524 C 4121.11 1.66232 0.895119 0
M  V30 40525 O 4120.46 0.898628 1.58842 0
M  V30 40526 C 4120.52 3.55059 -0.679344 0
M  V30 40527 O 4120.24 3.87974 -2.03489 0
M  V30 40528 C 4121.74 4.42182 -0.31469 0
M  V30 40529 H 4118.96 0.640623 -0.199606 0
M  V30 40530 H 4121.5 1.66432 -1.1883 0
M  V30 40531 H 4119.66 3.87362 -0.0544192 0
M  V30 40532 H 4120.07 4.82677 -2.05239 0
M  V30 40533 H 4121.54 5.4991 -0.479897 0
M  V30 40534 H 4122.02 4.32798 0.747171 0
M  V30 40535 H 4122.63 4.15321 -0.915873 0
M  V30 40536 N 4120.94 0.644219 1.43832 0
M  V30 40537 C 4122.19 0.153658 2.01515 0
M  V30 40538 C 4122.51 -1.23356 1.51025 0
M  V30 40539 O 4121.78 -1.82222 0.719169 0
M  V30 40540 H 4120.36 0.0538151 0.745059 0
M  V30 40541 H 4123.02 0.833864 1.76161 0
M  V30 40542 H 4122.12 0.131368 3.11823 0
M  V30 40543 N 4122.42 -1.52811 0.385571 0
M  V30 40544 C 4123.65 -2.05951 -0.197989 0
M  V30 40545 C 4124.06 -1.25758 -1.4082 0
M  V30 40546 O 4123.42 -0.303282 -1.79962 0
M  V30 40547 C 4123.47 -3.56949 -0.571794 0
M  V30 40548 O 4123.19 -4.34104 0.590337 0
M  V30 40549 C 4124.69 -4.26421 -1.21161 0
M  V30 40550 H 4121.91 -0.670295 -0.0307476 0
M  V30 40551 H 4124.46 -1.96973 0.549722 0
M  V30 40552 H 4122.61 -3.66012 -1.26941 0
M  V30 40553 H 4123.03 -5.23731 0.283932 0
M  V30 40554 H 4124.5 -5.33328 -1.42356 0
M  V30 40555 H 4124.98 -3.81399 -2.17787 0
M  V30 40556 H 4125.58 -4.21665 -0.554874 0
M  V30 40557 N 4123.9 -0.115287 -1.57178 0
M  V30 40558 C 4124.83 0.86669 -2.12182 0
M  V30 40559 C 4125.84 1.23247 -1.06367 0
M  V30 40560 O 4127.03 1.18207 -1.33751 0
M  V30 40561 C 4124.13 2.1697 -2.6034 0
M  V30 40562 C 4123.31 1.97618 -3.90213 0
M  V30 40563 C 4122.36 3.11614 -4.24008 0
M  V30 40564 O 4121.39 2.84691 -4.92889 0
M  V30 40565 N 4122.59 4.37946 -3.8103 0
M  V30 40566 H 4125.36 0.396783 -2.97062 0
M  V30 40567 H 4122.92 0.069245 -1.61752 0
M  V30 40568 H 4124.91 2.9222 -2.79981 0
M  V30 40569 H 4123.48 2.55321 -1.80361 0
M  V30 40570 H 4122.7 1.06582 -3.79518 0
M  V30 40571 H 4123.99 1.81988 -4.7514 0
M  V30 40572 H 4123.39 4.62696 -3.25467 0
M  V30 40573 H 4121.94 5.10079 -4.05786 0
M  V30 40574 N 4125.38 1.56801 0.158477 0
M  V30 40575 C 4126.61 1.86863 0.888239 0
M  V30 40576 C 4127.02 0.702172 1.75257 0
M  V30 40577 O 4126.38 -0.3284 1.79521 0
M  V30 40578 C 4126.43 3.16073 1.75442 0
M  V30 40579 O 4126.15 4.28225 0.924944 0
M  V30 40580 C 4127.65 3.59571 2.59275 0
M  V30 40581 H 4124.87 0.619659 0.257418 0
M  V30 40582 H 4127.41 2.03914 0.154714 0
M  V30 40583 H 4125.57 3.00811 2.44114 0
M  V30 40584 H 4125.98 5.02036 1.51854 0
M  V30 40585 H 4127.46 4.52848 3.15647 0
M  V30 40586 H 4127.93 2.84305 3.34765 0
M  V30 40587 H 4128.54 3.77489 1.95914 0
M  V30 40588 N 4126.86 -0.427458 1.51692 0
M  V30 40589 C 4128.27 -1.00698 1.57216 0
M  V30 40590 C 4128.62 -1.92047 0.401561 0
M  V30 40591 O 4127.74 -2.11 -0.480427 0
M  V30 40592 C 4128.34 -1.83304 2.8493 0
M  V30 40593 C 4126.9 -2.36288 2.92993 0
M  V30 40594 C 4126.04 -1.15767 2.51979 0
M  V30 40595 H 4128.99 -0.208358 1.57326 0
M  V30 40596 H 4129.02 -2.68858 2.6925 0
M  V30 40597 H 4128.53 -1.16792 3.7011 0
M  V30 40598 H 4126.63 -3.06226 2.12266 0
M  V30 40599 H 4126.74 -2.68409 3.96854 0
M  V30 40600 H 4125.11 -1.50604 2.05403 0
M  V30 40601 H 4125.89 -0.508508 3.39513 0
M  V30 40602 N 4128.33 -1.42005 -0.683539 0
M  V30 40603 C 4129.56 -1.45388 -1.47207 0
M  V30 40604 C 4129.98 -0.0626362 -1.88696 0
M  V30 40605 O 4129.33 0.920736 -1.57571 0
M  V30 40606 C 4129.38 -2.37328 -2.72686 0
M  V30 40607 O 4129.11 -3.71039 -2.32941 0
M  V30 40608 C 4130.61 -2.4964 -3.66326 0
M  V30 40609 H 4127.83 -0.494781 -0.453246 0
M  V30 40610 H 4130.37 -1.86424 -0.840613 0
M  V30 40611 H 4128.53 -1.99569 -3.32041 0
M  V30 40612 H 4128.94 -4.20193 -3.13908 0
M  V30 40613 H 4130.41 -3.18112 -4.51119 0
M  V30 40614 H 4130.89 -1.53148 -4.11634 0
M  V30 40615 H 4131.5 -2.88086 -3.12869 0
M  V30 40616 N 4129.81 0.918989 -1.28033 0
M  V30 40617 C 4131.04 1.70148 -1.17717 0
M  V30 40618 C 4131.45 1.86933 0.264881 0
M  V30 40619 O 4130.81 1.39258 1.17955 0
M  V30 40620 C 4130.86 3.09645 -1.86554 0
M  V30 40621 O 4130.58 2.93641 -3.25126 0
M  V30 40622 C 4132.08 4.04003 -1.82474 0
M  V30 40623 H 4129.3 0.532038 -0.408873 0
M  V30 40624 H 4131.85 1.15057 -1.69063 0
M  V30 40625 H 4130 3.61569 -1.39092 0
M  V30 40626 H 4130.42 3.81893 -3.59525 0
M  V30 40627 H 4131.89 4.99367 -2.35238 0
M  V30 40628 H 4132.37 4.31927 -0.795968 0
M  V30 40629 H 4132.97 3.58006 -2.29591 0
M  V30 40630 N 4131.29 1.10196 1.12671 0
M  V30 40631 C 4132.52 0.86494 1.87953 0
M  V30 40632 C 4132.93 -0.584404 1.79528 0
M  V30 40633 O 4132.29 -1.40276 1.16743 0
M  V30 40634 C 4132.34 1.30149 3.37259 0
M  V30 40635 O 4132.06 2.694 3.45478 0
M  V30 40636 C 4133.56 1.09801 4.29487 0
M  V30 40637 H 4130.78 0.310624 0.594772 0
M  V30 40638 H 4133.33 1.46599 1.4258 0
M  V30 40639 H 4131.48 0.744169 3.80185 0
M  V30 40640 H 4131.9 2.88006 4.38352 0
M  V30 40641 H 4133.37 1.45264 5.32543 0
M  V30 40642 H 4133.85 0.0364299 4.39185 0
M  V30 40643 H 4134.45 1.64167 3.92338 0
M  V30 40644 N 4132.77 -1.30042 0.890333 0
M  V30 40645 C 4134.18 -1.78064 0.561272 0
M  V30 40646 C 4134.53 -1.73146 -0.92276 0
M  V30 40647 O 4133.65 -1.3116 -1.72122 0
M  V30 40648 C 4134.25 -3.23331 1.01206 0
M  V30 40649 C 4132.81 -3.69167 0.734325 0
M  V30 40650 C 4131.96 -2.50371 1.19204 0
M  V30 40651 H 4134.91 -1.16836 1.07402 0
M  V30 40652 H 4134.93 -3.78948 0.343318 0
M  V30 40653 H 4134.44 -3.26878 2.09219 0
M  V30 40654 H 4132.54 -3.71104 -0.333585 0
M  V30 40655 H 4132.65 -4.60395 1.32564 0
M  V30 40656 H 4131.02 -2.47257 0.611243 0
M  V30 40657 H 4131.8 -2.56652 2.28001 0
M  V30 40658 N 4134.25 -0.651838 -1.43488 0
M  V30 40659 C 4135.49 -0.162007 -2.01048 0
M  V30 40660 C 4135.81 1.23082 -1.5202 0
M  V30 40661 O 4137.01 1.81579 -2.01845 0
M  V30 40662 C 4135.47 -0.238824 -3.59107 0
M  V30 40663 C 4135.08 -1.63426 -4.17128 0
M  V30 40664 C 4136.82 0.193474 -4.24059 0
M  V30 40665 C 4134.73 -1.66508 -5.67476 0
M  V30 40666 H 4133.66 -0.0568033 -0.751857 0
M  V30 40667 H 4136.31 -0.81367 -1.64474 0
M  V30 40668 H 4134.69 0.480321 -3.93076 0
M  V30 40669 H 4135.87 -2.37865 -3.94661 0
M  V30 40670 H 4134.18 -2.01241 -3.64542 0
M  V30 40671 H 4136.78 0.190274 -5.34361 0
M  V30 40672 H 4137.12 1.22465 -3.97879 0
M  V30 40673 H 4137.65 -0.473874 -3.94967 0
M  V30 40674 H 4134.39 -2.67531 -5.98421 0
M  V30 40675 H 4133.91 -0.963923 -5.92004 0
M  V30 40676 H 4135.59 -1.4082 -6.31489 0
M  V30 40677 N 4135.72 1.52604 -0.39367 0
M  V30 40678 C 4136.95 2.06053 0.187064 0
M  V30 40679 C 4137.37 1.26503 1.40151 0
M  V30 40680 O 4136.72 0.312822 1.79799 0
M  V30 40681 C 4136.77 3.57247 0.552856 0
M  V30 40682 O 4136.5 4.33785 -0.61335 0
M  V30 40683 C 4138 4.27057 1.18898 0
M  V30 40684 H 4135.22 0.670449 0.0271924 0
M  V30 40685 H 4137.76 1.96679 -0.560161 0
M  V30 40686 H 4135.92 3.6668 1.24998 0
M  V30 40687 H 4136.33 5.23573 -0.311703 0
M  V30 40688 H 4137.8 5.34075 1.39526 0
M  V30 40689 H 4138.28 3.82549 2.15762 0
M  V30 40690 H 4138.89 4.21953 0.532505 0
M  V30 40691 N 4137.2 0.12362 1.57114 0
M  V30 40692 C 4138.43 -0.540852 1.99706 0
M  V30 40693 C 4138.84 -1.5993 1.00339 0
M  V30 40694 O 4138.2 -1.825 -0.00307269 0
M  V30 40695 C 4138.25 -1.16279 3.42288 0
M  V30 40696 O 4137.97 -0.146648 4.37854 0
M  V30 40697 C 4139.47 -1.91014 4.00036 0
M  V30 40698 H 4136.69 -0.142815 0.655626 0
M  V30 40699 H 4139.24 0.211321 2.03405 0
M  V30 40700 H 4137.39 -1.86572 3.39514 0
M  V30 40701 H 4137.81 -0.599137 5.21067 0
M  V30 40702 H 4139.28 -2.29852 5.01869 0
M  V30 40703 H 4139.76 -2.78713 3.39435 0
M  V30 40704 H 4140.36 -1.25473 4.0637 0
M  V30 40705 N 4138.68 -1.56883 -0.15016 0
M  V30 40706 C 4139.91 -1.87332 -0.878317 0
M  V30 40707 C 4140.32 -0.711457 -1.74882 0
M  V30 40708 O 4139.68 0.318875 -1.79693 0
M  V30 40709 C 4139.73 -3.16999 -1.73764 0
M  V30 40710 O 4139.45 -4.28709 -0.902221 0
M  V30 40711 C 4140.95 -3.60941 -2.57365 0
M  V30 40712 H 4138.17 -0.621015 -0.254128 0
M  V30 40713 H 4140.72 -2.03993 -0.143897 0
M  V30 40714 H 4138.87 -3.02101 -2.42516 0
M  V30 40715 H 4139.29 -5.02835 -1.49189 0
M  V30 40716 H 4140.76 -4.54515 -3.13241 0
M  V30 40717 H 4141.24 -2.86076 -3.33252 0
M  V30 40718 H 4141.84 -3.78522 -1.9391 0
M  V30 40719 N 4140.16 0.419408 -1.51917 0
M  V30 40720 C 4141.39 1.18927 -1.69304 0
M  V30 40721 C 4141.8 1.84556 -0.398056 0
M  V30 40722 O 4141.16 1.71462 0.625053 0
M  V30 40723 C 4141.21 2.26004 -2.82143 0
M  V30 40724 O 4140.93 1.63056 -4.06625 0
M  V30 40725 C 4142.43 3.15948 -3.10952 0
M  V30 40726 H 4139.65 0.357771 -0.567663 0
M  V30 40727 H 4142.2 0.494772 -1.98424 0
M  V30 40728 H 4140.35 2.9114 -2.55571 0
M  V30 40729 H 4140.76 2.33963 -4.69427 0
M  V30 40730 H 4142.24 3.87176 -3.93445 0
M  V30 40731 H 4142.72 3.77734 -2.24084 0
M  V30 40732 H 4143.32 2.56494 -3.39251 0
M  V30 40733 N 4141.64 1.42366 0.675998 0
M  V30 40734 C 4142.86 1.46167 1.46434 0
M  V30 40735 C 4143.28 0.0726423 1.8866 0
M  V30 40736 O 4142.64 -0.912367 1.58057 0
M  V30 40737 C 4142.69 2.38771 2.71423 0
M  V30 40738 O 4142.41 3.7227 2.3097 0
M  V30 40739 C 4143.91 2.5158 3.64997 0
M  V30 40740 H 4141.13 0.497178 0.450616 0
M  V30 40741 H 4143.67 1.86867 0.830715 0
M  V30 40742 H 4141.83 2.01327 3.30978 0
M  V30 40743 H 4142.24 4.21852 3.11675 0
M  V30 40744 H 4143.72 3.205 4.49426 0
M  V30 40745 H 4144.19 1.55329 4.10816 0
M  V30 40746 H 4144.8 2.89741 3.11336 0
M  V30 40747 N 4143.11 -0.912187 1.28518 0
M  V30 40748 C 4144.36 -1.66394 1.15935 0
M  V30 40749 C 4144.69 -1.92006 -0.291089 0
M  V30 40750 O 4143.97 -1.52156 -1.21156 0
M  V30 40751 C 4144.25 -3.02087 1.95999 0
M  V30 40752 C 4144.1 -2.83619 3.49114 0
M  V30 40753 C 4145.42 -4.02647 1.77662 0
M  V30 40754 H 4142.54 -0.603852 0.42253 0
M  V30 40755 H 4145.18 -1.05749 1.57852 0
M  V30 40756 H 4143.33 -3.53852 1.60378 0
M  V30 40757 H 4145.01 -2.38852 3.94648 0
M  V30 40758 H 4143.25 -2.18647 3.74668 0
M  V30 40759 H 4143.92 -3.79986 4.00393 0
M  V30 40760 H 4146.4 -3.59948 2.0875 0
M  V30 40761 H 4145.27 -4.95551 2.36051 0
M  V30 40762 H 4145.53 -4.36056 0.728522 0
M  V30 40763 N 4144.59 -1.10792 -1.12085 0
M  V30 40764 C 4145.82 -0.874895 -1.87492 0
M  V30 40765 C 4146.24 0.574875 -1.79835 0
M  V30 40766 O 4145.59 1.39655 -1.17485 0
M  V30 40767 C 4145.64 -1.31936 -3.36564 0
M  V30 40768 O 4145.36 -2.71228 -3.44045 0
M  V30 40769 C 4146.87 -1.12077 -4.28898 0
M  V30 40770 H 4144.09 -0.313774 -0.593116 0
M  V30 40771 H 4146.63 -1.47353 -1.418 0
M  V30 40772 H 4144.78 -0.764321 -3.79785 0
M  V30 40773 H 4145.2 -2.90327 -4.36819 0
M  V30 40774 H 4146.67 -1.48086 -5.31766 0
M  V30 40775 H 4147.15 -0.0597204 -4.39159 0
M  V30 40776 H 4147.76 -1.66245 -3.91462 0
M  V30 40777 N 4146.07 1.29568 -0.897217 0
M  V30 40778 C 4147.48 1.77763 -0.570708 0
M  V30 40779 C 4147.83 1.73633 0.913565 0
M  V30 40780 O 4146.96 1.32071 1.71424 0
M  V30 40781 C 4147.55 3.22789 -1.0292 0
M  V30 40782 C 4146.11 3.68773 -0.753893 0
M  V30 40783 C 4145.26 2.49736 -1.2053 0
M  V30 40784 H 4148.21 1.16264 -1.0802 0
M  V30 40785 H 4148.23 3.78761 -0.36341 0
M  V30 40786 H 4147.74 3.25763 -2.1095 0
M  V30 40787 H 4145.84 3.71275 0.3139 0
M  V30 40788 H 4145.96 4.59686 -1.35003 0
M  V30 40789 H 4144.32 2.46929 -0.624347 0
M  V30 40790 H 4145.1 2.55439 -2.29359 0
M  V30 40791 N 4147.55 0.659438 1.4314 0
M  V30 40792 C 4148.78 0.183302 2.06086 0
M  V30 40793 C 4149.19 -1.15352 1.49464 0
M  V30 40794 O 4148.55 -1.71341 0.628371 0
M  V30 40795 C 4148.6 0.0929336 3.61381 0
M  V30 40796 O 4148.32 1.37691 4.159 0
M  V30 40797 C 4149.82 -0.408538 4.41413 0
M  V30 40798 H 4147.04 0.0927766 0.664555 0
M  V30 40799 H 4149.59 0.901841 1.8354 0
M  V30 40800 H 4147.74 -0.576201 3.83091 0
M  V30 40801 H 4148.15 1.24018 5.09627 0
M  V30 40802 H 4149.63 -0.420709 5.50394 0
M  V30 40803 H 4150.11 -1.44101 4.14888 0
M  V30 40804 H 4150.71 0.228321 4.24687 0
M  V30 40805 N 4149.03 -1.52393 0.401757 0
M  V30 40806 C 4150.44 -1.86571 -0.0694981 0
M  V30 40807 C 4150.79 -1.32087 -1.45077 0
M  V30 40808 O 4149.91 -0.657185 -2.0618 0
M  V30 40809 C 4150.51 -3.38539 -0.132887 0
M  V30 40810 C 4149.07 -3.72383 -0.548462 0
M  V30 40811 C 4148.21 -2.75865 0.281713 0
M  V30 40812 H 4151.17 -1.46125 0.619128 0
M  V30 40813 H 4151.19 -3.6846 -0.949602 0
M  V30 40814 H 4150.7 -3.78164 0.872559 0
M  V30 40815 H 4148.8 -3.38333 -1.56082 0
M  V30 40816 H 4148.91 -4.78173 -0.297966 0
M  V30 40817 H 4147.28 -2.53422 -0.254866 0
M  V30 40818 H 4148.06 -3.18329 1.28537 0
M  V30 40819 N 4150.5 -0.131951 -1.57047 0
M  V30 40820 C 4151.73 0.530253 -1.9999 0
M  V30 40821 C 4152.15 1.59396 -1.01185 0
M  V30 40822 O 4151.5 1.82499 -0.00660576 0
M  V30 40823 C 4151.56 1.14462 -3.429 0
M  V30 40824 O 4151.28 0.123426 -4.37926 0
M  V30 40825 C 4152.78 1.8889 -4.01043 0
M  V30 40826 H 4150 0.139336 -0.656374 0
M  V30 40827 H 4152.54 -0.222105 -2.0329 0
M  V30 40828 H 4150.7 1.84769 -3.40498 0
M  V30 40829 H 4151.11 0.571495 -5.21377 0
M  V30 40830 H 4152.58 2.27187 -5.03081 0
M  V30 40831 H 4153.06 2.76909 -3.40908 0
M  V30 40832 H 4153.67 1.23317 -4.0703 0
M  V30 40833 N 4151.98 1.5696 0.141838 0
M  V30 40834 C 4153.39 1.73025 0.701377 0
M  V30 40835 C 4153.74 0.747156 1.81417 0
M  V30 40836 O 4152.87 -0.0850754 2.16233 0
M  V30 40837 C 4153.46 3.13729 1.27905 0
M  V30 40838 C 4152.02 3.31377 1.78511 0
M  V30 40839 C 4151.17 2.68944 0.675622 0
M  V30 40840 H 4154.12 1.58478 -0.0838808 0
M  V30 40841 H 4154.14 3.14014 2.14884 0
M  V30 40842 H 4153.65 3.85257 0.46892 0
M  V30 40843 H 4151.76 2.64855 2.62074 0
M  V30 40844 H 4151.87 4.3937 1.91027 0
M  V30 40845 H 4150.23 2.29552 1.10354 0
M  V30 40846 H 4151.02 3.43079 -0.123148 0
M  V30 40847 N 4153.46 -0.411345 1.52137 0
M  V30 40848 C 4154.69 -1.18028 1.69932 0
M  V30 40849 C 4155.1 -1.84342 0.407838 0
M  V30 40850 O 4154.46 -1.71791 -0.615951 0
M  V30 40851 C 4154.51 -2.24505 2.83337 0
M  V30 40852 O 4154.23 -1.60898 4.07484 0
M  V30 40853 C 4155.73 -3.14295 3.12624 0
M  V30 40854 H 4152.95 -0.354755 0.569552 0
M  V30 40855 H 4155.5 -0.484243 1.98684 0
M  V30 40856 H 4153.65 -2.8978 2.57111 0
M  V30 40857 H 4154.07 -2.3147 4.70661 0
M  V30 40858 H 4155.54 -3.85084 3.95493 0
M  V30 40859 H 4156.02 -3.7654 2.26084 0
M  V30 40860 H 4156.62 -2.54691 3.40606 0
M  V30 40861 N 4154.94 -1.42722 -0.668439 0
M  V30 40862 C 4156.19 -1.43247 -1.42564 0
M  V30 40863 C 4156.51 -0.0522315 -1.9493 0
M  V30 40864 O 4155.78 0.910201 -1.73471 0
M  V30 40865 H 4154.36 -0.527358 -0.529058 0
M  V30 40866 H 4157.02 -1.78198 -0.789397 0
M  V30 40867 H 4156.12 -2.13603 -2.27552 0
M  V30 40868 N 4156.42 0.905358 -1.29 0
M  V30 40869 C 4157.65 1.6889 -1.19515 0
M  V30 40870 C 4158.06 1.87203 0.24504 0
M  V30 40871 O 4157.42 1.40502 1.16471 0
M  V30 40872 C 4157.47 3.07649 -1.89827 0
M  V30 40873 O 4157.19 2.90176 -3.28222 0
M  V30 40874 C 4158.69 4.02044 -1.86749 0
M  V30 40875 H 4155.91 0.527671 -0.414493 0
M  V30 40876 H 4158.45 1.13257 -1.70273 0
M  V30 40877 H 4156.61 3.60074 -1.42919 0
M  V30 40878 H 4157.02 3.78058 -3.63555 0
M  V30 40879 H 4158.5 4.96844 -2.40521 0
M  V30 40880 H 4158.97 4.31059 -0.841735 0
M  V30 40881 H 4159.58 3.55551 -2.33375 0
M  V30 40882 N 4157.9 1.11385 1.11495 0
M  V30 40883 C 4158.83 0.729469 2.17282 0
M  V30 40884 C 4159.84 -0.238614 1.61042 0
M  V30 40885 O 4161.03 -0.0215958 1.78487 0
M  V30 40886 C 4158.13 0.0572756 3.38852 0
M  V30 40887 C 4157.3 1.05203 4.2456 0
M  V30 40888 C 4156.36 0.409502 5.24604 0
M  V30 40889 O 4155.39 1.06325 5.59181 0
M  V30 40890 N 4156.59 -0.827856 5.74567 0
M  V30 40891 H 4159.35 1.63967 2.50868 0
M  V30 40892 H 4156.92 1.00398 1.27011 0
M  V30 40893 H 4158.91 -0.384285 4.02871 0
M  V30 40894 H 4157.48 -0.755498 3.03333 0
M  V30 40895 H 4156.7 1.67156 3.57005 0
M  V30 40896 H 4157.99 1.72506 4.78664 0
M  V30 40897 H 4157.38 -1.37817 5.48656 0
M  V30 40898 H 4155.94 -1.21241 6.40425 0
M  V30 40899 N 4159.37 -1.2909 0.904076 0
M  V30 40900 C 4160.6 -1.99516 0.547793 0
M  V30 40901 C 4161.02 -1.67635 -0.868559 0
M  V30 40902 O 4160.37 -0.923785 -1.57393 0
M  V30 40903 C 4160.42 -3.53934 0.735745 0
M  V30 40904 O 4160.15 -3.84688 2.09635 0
M  V30 40905 C 4161.65 -4.41625 0.384997 0
M  V30 40906 H 4158.87 -0.637367 0.209773 0
M  V30 40907 H 4161.41 -1.64521 1.21462 0
M  V30 40908 H 4159.57 -3.87226 0.116038 0
M  V30 40909 H 4159.98 -4.79351 2.12892 0
M  V30 40910 H 4161.45 -5.49077 0.567322 0
M  V30 40911 H 4161.93 -4.33932 -0.678222 0
M  V30 40912 H 4162.54 -4.13812 0.981831 0
M  V30 40913 N 4160.85 -0.66702 -1.42789 0
M  V30 40914 C 4162.26 -0.26425 -1.8482 0
M  V30 40915 C 4162.61 1.19203 -1.55836 0
M  V30 40916 O 4161.74 1.91159 -1.01425 0
M  V30 40917 C 4162.33 -0.472819 -3.35485 0
M  V30 40918 C 4160.89 -0.124242 -3.76195 0
M  V30 40919 C 4160.04 -0.769036 -2.66423 0
M  V30 40920 H 4162.99 -0.869732 -1.32745 0
M  V30 40921 H 4163.01 0.277466 -3.79487 0
M  V30 40922 H 4162.52 -1.5328 -3.56548 0
M  V30 40923 H 4160.62 0.932603 -3.6074 0
M  V30 40924 H 4160.74 -0.559335 -4.75824 0
M  V30 40925 H 4159.1 -0.201039 -2.53905 0
M  V30 40926 H 4159.88 -1.83232 -2.90312 0
M  V30 40927 N 4162.33 1.52178 -0.409833 0
M  V30 40928 C 4163.56 2.06239 0.165199 0
M  V30 40929 C 4163.97 1.27983 1.38802 0
M  V30 40930 O 4163.33 0.331875 1.79457 0
M  V30 40931 C 4163.38 3.57814 0.514934 0
M  V30 40932 O 4163.1 4.3311 -0.659324 0
M  V30 40933 C 4164.6 4.28295 1.14362 0
M  V30 40934 H 4161.82 0.670699 0.0200799 0
M  V30 40935 H 4164.37 1.96073 -0.58099 0
M  V30 40936 H 4162.52 3.67985 1.21102 0
M  V30 40937 H 4162.94 5.23213 -0.367218 0
M  V30 40938 H 4164.41 5.35525 1.33853 0
M  V30 40939 H 4164.89 3.84816 2.11692 0
M  V30 40940 H 4165.49 4.22494 0.487721 0
M  V30 40941 N 4163.81 0.140278 1.56974 0
M  V30 40942 C 4165.04 -0.51964 2.00268 0
M  V30 40943 C 4165.45 -1.58857 1.02029 0
M  V30 40944 O 4164.81 -1.82493 0.016284 0
M  V30 40945 C 4164.86 -1.12642 3.43502 0
M  V30 40946 O 4164.58 -0.1002 4.37985 0
M  V30 40947 C 4166.08 -1.8676 4.02039 0
M  V30 40948 H 4163.3 -0.135853 0.657103 0
M  V30 40949 H 4165.84 0.232882 2.0317 0
M  V30 40950 H 4164 -1.82961 3.41474 0
M  V30 40951 H 4164.41 -0.543837 5.21673 0
M  V30 40952 H 4165.89 -2.24516 5.04278 0
M  V30 40953 H 4166.36 -2.75097 3.42372 0
M  V30 40954 H 4166.97 -1.21156 4.07678 0
M  V30 40955 N 4165.29 -1.57033 -0.133512 0
M  V30 40956 C 4166.51 -1.88253 -0.858398 0
M  V30 40957 C 4166.93 -0.729965 -1.74118 0
M  V30 40958 O 4166.29 0.299798 -1.80021 0
M  V30 40959 C 4166.34 -3.18824 -1.70392 0
M  V30 40960 O 4166.06 -4.29642 -0.8567 0
M  V30 40961 C 4167.56 -3.6365 -2.53522 0
M  V30 40962 H 4164.78 -0.623676 -0.247527 0
M  V30 40963 H 4167.32 -2.04134 -0.122253 0
M  V30 40964 H 4165.48 -3.04656 -2.39298 0
M  V30 40965 H 4165.89 -5.04389 -1.43848 0
M  V30 40966 H 4167.37 -4.57812 -3.08402 0
M  V30 40967 H 4167.84 -2.89595 -3.30199 0
M  V30 40968 H 4168.45 -3.80558 -1.89884 0
M  V30 40969 N 4166.76 0.403271 -1.52353 0
M  V30 40970 C 4168.17 0.981836 -1.58798 0
M  V30 40971 C 4168.53 1.91384 -0.432063 0
M  V30 40972 O 4167.65 2.11737 0.446798 0
M  V30 40973 C 4168.25 1.78747 -2.8781 0
M  V30 40974 C 4166.8 2.31597 -2.96715 0
M  V30 40975 C 4165.95 1.11744 -2.53788 0
M  V30 40976 H 4168.9 0.183302 -1.57638 0
M  V30 40977 H 4168.92 2.64541 -2.73493 0
M  V30 40978 H 4168.44 1.10889 -3.71921 0
M  V30 40979 H 4166.54 3.0281 -2.17111 0
M  V30 40980 H 4166.65 2.62061 -4.01074 0
M  V30 40981 H 4165.01 1.47317 -2.07773 0
M  V30 40982 H 4165.8 0.45443 -3.40279 0
M  V30 40983 N 4168.24 1.43075 0.66086 0
M  V30 40984 C 4169.49 1.43575 1.41666 0
M  V30 40985 C 4169.8 0.0608059 1.95505 0
M  V30 40986 O 4171.01 -0.0567615 2.71441 0
M  V30 40987 C 4169.47 2.52622 2.5634 0
M  V30 40988 C 4169.07 3.96187 2.09141 0
M  V30 40989 C 4170.82 2.62306 3.3376 0
M  V30 40990 C 4168.72 4.96715 3.20981 0
M  V30 40991 H 4167.65 0.534061 0.532255 0
M  V30 40992 H 4170.31 1.69036 0.714083 0
M  V30 40993 H 4168.69 2.20349 3.29032 0
M  V30 40994 H 4169.86 4.37883 1.4351 0
M  V30 40995 H 4168.18 3.90479 1.44621 0
M  V30 40996 H 4170.77 3.34588 4.17079 0
M  V30 40997 H 4171.12 1.67121 3.81283 0
M  V30 40998 H 4171.65 2.93842 2.68145 0
M  V30 40999 H 4168.39 5.93426 2.78435 0
M  V30 41000 H 4167.91 4.59638 3.85348 0
M  V30 41001 H 4169.59 5.1907 3.86232 0
M  V30 41002 N 4169.72 -0.898504 1.29478 0
M  V30 41003 C 4170.95 -1.68253 1.20409 0
M  V30 41004 C 4171.36 -1.8733 -0.235108 0
M  V30 41005 O 4170.72 -1.41117 -1.15724 0
M  V30 41006 C 4170.77 -3.06638 1.91456 0
M  V30 41007 O 4170.49 -2.88431 3.29756 0
M  V30 41008 C 4171.99 -4.01048 1.88878 0
M  V30 41009 H 4169.21 -0.525466 0.417285 0
M  V30 41010 H 4171.76 -1.12353 1.70872 0
M  V30 41011 H 4169.91 -3.59311 1.44826 0
M  V30 41012 H 4170.33 -3.76125 3.65555 0
M  V30 41013 H 4171.8 -4.95561 2.43152 0
M  V30 41014 H 4172.28 -4.30606 0.864583 0
M  V30 41015 H 4172.88 -3.54308 2.35257 0
M  V30 41016 N 4171.2 -1.11974 -1.10903 0
M  V30 41017 C 4172.43 -0.894732 -1.86553 0
M  V30 41018 C 4172.84 0.555769 -1.80435 0
M  V30 41019 O 4172.2 1.38401 -1.1896 0
M  V30 41020 C 4172.25 -1.35498 -3.35146 0
M  V30 41021 O 4171.97 -2.74862 -3.41149 0
M  V30 41022 C 4173.47 -1.1662 -4.27685 0
M  V30 41023 H 4170.69 -0.320047 -0.589755 0
M  V30 41024 H 4173.24 -1.48849 -1.4023 0
M  V30 41025 H 4171.39 -0.804559 -3.78953 0
M  V30 41026 H 4171.8 -2.94944 -4.33715 0
M  V30 41027 H 4173.28 -1.53717 -5.30165 0
M  V30 41028 H 4173.76 -0.106296 -4.39071 0
M  V30 41029 H 4174.36 -1.70388 -3.89677 0
M  V30 41030 N 4172.68 1.28609 -0.910909 0
M  V30 41031 C 4173.9 1.99223 -0.558367 0
M  V30 41032 C 4174.32 1.68093 0.859657 0
M  V30 41033 O 4173.68 0.932119 1.56901 0
M  V30 41034 C 4173.73 3.53539 -0.754505 0
M  V30 41035 O 4173.45 3.83571 -2.11673 0
M  V30 41036 C 4174.95 4.41415 -0.408412 0
M  V30 41037 H 4172.17 0.636245 -0.21315 0
M  V30 41038 H 4174.71 1.63874 -1.22333 0
M  V30 41039 H 4172.87 3.87159 -0.136572 0
M  V30 41040 H 4173.28 4.78215 -2.15431 0
M  V30 41041 H 4174.76 5.48768 -0.596433 0
M  V30 41042 H 4175.23 4.34285 0.6552 0
M  V30 41043 H 4175.84 4.13285 -1.00376 0
M  V30 41044 N 4174.15 0.674583 1.42433 0
M  V30 41045 C 4175.38 0.20515 2.0588 0
M  V30 41046 C 4175.8 -1.1376 1.50679 0
M  V30 41047 O 4175.15 -1.70665 0.646509 0
M  V30 41048 C 4175.21 0.131258 3.61262 0
M  V30 41049 O 4174.93 1.42095 4.14416 0
M  V30 41050 C 4176.43 -0.361698 4.41822 0
M  V30 41051 H 4173.65 0.0998199 0.663534 0
M  V30 41052 H 4176.19 0.921258 1.82574 0
M  V30 41053 H 4174.35 -0.535537 3.83681 0
M  V30 41054 H 4174.76 1.29416 5.08283 0
M  V30 41055 H 4176.23 -0.362309 5.5081 0
M  V30 41056 H 4176.71 -1.39692 4.16393 0
M  V30 41057 H 4177.32 0.273352 4.24421 0
M  V30 41058 N 4175.63 -1.51958 0.417898 0
M  V30 41059 C 4176.86 -2.06324 -0.154259 0
M  V30 41060 C 4177.28 -1.28717 -1.38121 0
M  V30 41061 O 4176.63 -0.341387 -1.79279 0
M  V30 41062 C 4176.68 -3.58082 -0.495951 0
M  V30 41063 O 4176.4 -4.32755 0.682284 0
M  V30 41064 C 4177.91 -4.28895 -1.12089 0
M  V30 41065 H 4175.13 -0.670797 -0.0165227 0
M  V30 41066 H 4177.67 -1.95762 0.59138 0
M  V30 41067 H 4175.82 -3.68622 -1.19148 0
M  V30 41068 H 4176.24 -5.23011 0.39496 0
M  V30 41069 H 4177.71 -5.36228 -1.31012 0
M  V30 41070 H 4178.19 -3.85933 -2.09648 0
M  V30 41071 H 4178.8 -4.22747 -0.465308 0
M  V30 41072 N 4177.11 -0.1486 -1.56898 0
M  V30 41073 C 4178.36 0.502856 -1.96467 0
M  V30 41074 C 4178.69 1.6441 -1.03358 0
M  V30 41075 O 4177.96 1.9435 -0.0762753 0
M  V30 41076 C 4178.25 1.00751 -3.45719 0
M  V30 41077 C 4178.1 -0.132356 -4.49605 0
M  V30 41078 C 4179.42 1.88876 -3.97509 0
M  V30 41079 H 4176.54 0.181316 -0.714348 0
M  V30 41080 H 4179.18 -0.23015 -1.88601 0
M  V30 41081 H 4177.33 1.63214 -3.52553 0
M  V30 41082 H 4179 -0.76875 -4.54849 0
M  V30 41083 H 4177.25 -0.791264 -4.26523 0
M  V30 41084 H 4177.92 0.262488 -5.51376 0
M  V30 41085 H 4180.39 1.36239 -3.93164 0
M  V30 41086 H 4179.27 2.21095 -5.02402 0
M  V30 41087 H 4179.53 2.82629 -3.39961 0
M  V30 41088 N 4178.59 1.57102 0.125182 0
M  V30 41089 C 4179.82 1.88705 0.848403 0
M  V30 41090 C 4180.23 0.739189 1.73728 0
M  V30 41091 O 4179.59 -0.290247 1.80177 0
M  V30 41092 C 4179.64 3.19723 1.68699 0
M  V30 41093 O 4179.36 4.3009 0.833903 0
M  V30 41094 C 4180.86 3.64989 2.5159 0
M  V30 41095 H 4178.08 0.62498 0.244216 0
M  V30 41096 H 4180.63 2.04196 0.111426 0
M  V30 41097 H 4178.78 3.05921 2.37679 0
M  V30 41098 H 4179.19 5.05145 1.41171 0
M  V30 41099 H 4180.67 4.59441 3.0597 0
M  V30 41100 H 4181.15 2.91342 3.28659 0
M  V30 41101 H 4181.75 3.81559 1.87863 0
M  V30 41102 N 4180.07 -0.395186 1.52565 0
M  V30 41103 C 4181.48 -0.973401 1.59317 0
M  V30 41104 C 4181.83 -1.91152 0.442207 0
M  V30 41105 O 4180.95 -2.11971 -0.435563 0
M  V30 41106 C 4181.55 -1.77219 2.88754 0
M  V30 41107 C 4180.11 -2.3002 2.97939 0
M  V30 41108 C 4179.25 -1.10396 2.54378 0
M  V30 41109 H 4182.21 -0.17494 1.57733 0
M  V30 41110 H 4182.23 -2.63087 2.74892 0
M  V30 41111 H 4181.74 -1.08915 3.72504 0
M  V30 41112 H 4179.84 -3.01654 2.18713 0
M  V30 41113 H 4179.95 -2.59931 4.02458 0
M  V30 41114 H 4178.32 -1.46213 2.08551 0
M  V30 41115 H 4179.1 -0.436378 3.40515 0
M  V30 41116 N 4181.54 -1.43423 -0.653263 0
M  V30 41117 C 4182.77 -1.48478 -1.4409 0
M  V30 41118 C 4183.19 -0.102647 -1.88521 0
M  V30 41119 O 4182.54 0.887106 -1.59489 0
M  V30 41120 C 4182.6 -2.43059 -2.6759 0
M  V30 41121 O 4182.32 -3.75897 -2.25018 0
M  V30 41122 C 4183.82 -2.57355 -3.60948 0
M  V30 41123 H 4181.04 -0.504284 -0.442649 0
M  V30 41124 H 4183.58 -1.88165 -0.800881 0
M  V30 41125 H 4181.74 -2.06567 -3.27733 0
M  V30 41126 H 4182.15 -4.26757 -3.04924 0
M  V30 41127 H 4183.62 -3.2761 -4.4427 0
M  V30 41128 H 4184.1 -1.61845 -4.08292 0
M  V30 41129 H 4184.71 -2.94657 -3.06688 0
M  V30 41130 N 4183.02 0.891625 -1.29953 0
M  V30 41131 C 4184.43 1.45822 -1.16588 0
M  V30 41132 C 4184.78 1.94776 0.235944 0
M  V30 41133 O 4183.91 1.84424 1.13211 0
M  V30 41134 C 4184.5 2.65042 -2.1104 0
M  V30 41135 C 4183.06 3.17812 -2.01674 0
M  V30 41136 C 4182.21 1.90504 -2.01504 0
M  V30 41137 H 4185.16 0.702191 -1.4232 0
M  V30 41138 H 4185.18 3.41041 -1.68735 0
M  V30 41139 H 4184.69 2.29382 -3.13058 0
M  V30 41140 H 4182.8 3.58146 -1.02774 0
M  V30 41141 H 4182.91 3.81563 -2.89736 0
M  V30 41142 H 4181.27 2.08552 -1.46212 0
M  V30 41143 H 4182.06 1.5711 -3.0524 0
M  V30 41144 N 4184.5 1.12561 1.10308 0
M  V30 41145 C 4185.73 0.904613 1.86076 0
M  V30 41146 C 4186.14 -0.546193 1.80727 0
M  V30 41147 O 4185.5 -1.37768 1.19692 0
M  V30 41148 C 4185.55 1.37274 3.34422 0
M  V30 41149 O 4185.27 2.76667 3.39686 0
M  V30 41150 C 4186.77 1.18886 4.27061 0
M  V30 41151 H 4183.99 0.32317 0.588049 0
M  V30 41152 H 4186.54 1.4959 1.39438 0
M  V30 41153 H 4184.69 0.824645 3.78521 0
M  V30 41154 H 4185.11 2.9724 4.32144 0
M  V30 41155 H 4186.58 1.56527 5.29342 0
M  V30 41156 H 4187.06 0.129579 4.39009 0
M  V30 41157 H 4187.66 1.72452 3.88768 0
M  V30 41158 N 4185.98 -1.28124 0.917717 0
M  V30 41159 C 4187.39 -1.76833 0.598916 0
M  V30 41160 C 4187.74 -1.75064 -0.885826 0
M  V30 41161 O 4186.87 -1.34781 -1.69301 0
M  V30 41162 C 4187.46 -3.21111 1.08042 0
M  V30 41163 C 4186.02 -3.67527 0.812466 0
M  V30 41164 C 4185.17 -2.47787 1.24487 0
M  V30 41165 H 4188.12 -1.14531 1.09856 0
M  V30 41166 H 4188.14 -3.78134 0.423621 0
M  V30 41167 H 4187.65 -3.22366 2.16106 0
M  V30 41168 H 4185.75 -3.71728 -0.254793 0
M  V30 41169 H 4185.87 -4.5748 1.42299 0
M  V30 41170 H 4184.23 -2.45905 0.663553 0
M  V30 41171 H 4185.01 -2.51758 2.33394 0
M  V30 41172 N 4187.46 -0.682127 -1.42073 0
M  V30 41173 C 4188.69 -0.216065 -2.05769 0
M  V30 41174 C 4189.1 1.12959 -1.5128 0
M  V30 41175 O 4188.46 1.7032 -0.655551 0
M  V30 41176 C 4188.51 -0.150414 -3.61187 0
M  V30 41177 O 4188.23 -1.4429 -4.13657 0
M  V30 41178 C 4189.73 0.338262 -4.42008 0
M  V30 41179 H 4186.95 -0.103337 -0.662995 0
M  V30 41180 H 4189.49 -0.930927 -1.82082 0
M  V30 41181 H 4187.65 0.515182 -3.83959 0
M  V30 41182 H 4188.06 -1.3211 -5.0759 0
M  V30 41183 H 4189.54 0.333093 -5.50994 0
M  V30 41184 H 4190.01 1.37482 -4.17128 0
M  V30 41185 H 4190.62 -0.295857 -4.2427 0
M  V30 41186 N 4188.94 1.51735 -0.425951 0
M  V30 41187 C 4190.18 2.01586 0.144022 0
M  V30 41188 C 4190.5 1.31266 1.44202 0
M  V30 41189 O 4189.77 0.443695 1.90809 0
M  V30 41190 H 4188.35 0.744882 0.0562133 0
M  V30 41191 H 4191.02 1.86499 -0.566049 0
M  V30 41192 H 4190.11 3.10371 0.328106 0
M  V30 41193 N 4190.41 0.156919 1.56817 0
M  V30 41194 C 4191.64 -0.49837 2.00808 0
M  V30 41195 C 4192.06 -1.57766 1.03708 0
M  V30 41196 O 4191.41 -1.82465 0.0356389 0
M  V30 41197 C 4191.46 -1.08993 3.44678 0
M  V30 41198 O 4191.19 -0.05374 4.38067 0
M  V30 41199 C 4192.69 -1.82486 4.03997 0
M  V30 41200 H 4189.91 -0.128876 0.658507 0
M  V30 41201 H 4192.45 0.254418 2.02911 0
M  V30 41202 H 4190.61 -1.79328 3.43395 0
M  V30 41203 H 4191.02 -0.488476 5.2222 0
M  V30 41204 H 4192.49 -2.19155 5.06631 0
M  V30 41205 H 4192.97 -2.7145 3.4527 0
M  V30 41206 H 4193.58 -1.16826 4.0894 0
M  V30 41207 N 4191.89 -1.57166 -0.116849 0
M  V30 41208 C 4192.82 -1.97149 -1.16897 0
M  V30 41209 C 4193.84 -0.871087 -1.37535 0
M  V30 41210 O 4195.03 -1.14936 -1.36572 0
M  V30 41211 C 4192.13 -2.25645 -2.52859 0
M  V30 41212 C 4191.3 -3.56951 -2.52794 0
M  V30 41213 C 4190.36 -3.73634 -3.70518 0
M  V30 41214 O 4189.38 -4.45723 -3.54005 0
M  V30 41215 N 4190.59 -3.12565 -4.89166 0
M  V30 41216 H 4193.35 -2.88011 -0.828844 0
M  V30 41217 H 4190.91 -1.5898 -0.306097 0
M  V30 41218 H 4192.9 -2.34019 -3.30178 0
M  V30 41219 H 4191.47 -1.40899 -2.79045 0
M  V30 41220 H 4190.69 -3.59745 -1.61175 0
M  V30 41221 H 4191.98 -4.43253 -2.49809 0
M  V30 41222 H 4191.38 -2.53969 -5.05486 0
M  V30 41223 H 4189.94 -3.26457 -5.64153 0
M  V30 41224 N 4193.37 0.38709 -1.52772 0
M  V30 41225 C 4194.6 1.15309 -1.71789 0
M  V30 41226 C 4195.01 1.8367 -0.437114 0
M  V30 41227 O 4194.37 1.7275 0.588543 0
M  V30 41228 C 4194.42 2.19969 -2.86873 0
M  V30 41229 O 4194.14 1.54395 -4.09993 0
M  V30 41230 C 4195.64 3.09282 -3.17584 0
M  V30 41231 H 4192.86 0.345649 -0.575124 0
M  V30 41232 H 4195.41 0.452572 -1.99429 0
M  V30 41233 H 4193.56 2.85653 -2.61689 0
M  V30 41234 H 4193.98 2.23953 -4.74284 0
M  V30 41235 H 4195.45 3.78743 -4.01569 0
M  V30 41236 H 4195.93 3.72896 -2.32046 0
M  V30 41237 H 4196.53 2.4924 -3.44615 0
M  V30 41238 N 4194.85 1.43768 0.645648 0
M  V30 41239 C 4196.26 1.40719 1.22699 0
M  V30 41240 C 4196.61 0.1151 1.95862 0
M  V30 41241 O 4195.73 -0.785161 2.01654 0
M  V30 41242 C 4196.33 2.54913 2.2317 0
M  V30 41243 C 4194.89 2.55105 2.76764 0
M  V30 41244 C 4194.04 2.3224 1.51526 0
M  V30 41245 H 4196.99 1.52559 0.4372 0
M  V30 41246 H 4197.01 2.26835 3.05493 0
M  V30 41247 H 4196.52 3.48939 1.69892 0
M  V30 41248 H 4194.62 1.6498 3.34084 0
M  V30 41249 H 4194.73 3.53122 3.23793 0
M  V30 41250 H 4193.1 1.81052 1.79143 0
M  V30 41251 H 4193.88 3.2836 1.00172 0
M  V30 41252 N 4196.33 -0.884721 1.30424 0
M  V30 41253 C 4197.55 -1.66967 1.22187 0
M  V30 41254 C 4197.97 -1.87569 -0.215226 0
M  V30 41255 O 4197.33 -1.42337 -1.14221 0
M  V30 41256 C 4197.38 -3.0459 1.94698 0
M  V30 41257 O 4197.1 -2.84917 3.32797 0
M  V30 41258 C 4198.6 -3.99023 1.93121 0
M  V30 41259 H 4195.82 -0.52101 0.422835 0
M  V30 41260 H 4198.36 -1.10534 1.72054 0
M  V30 41261 H 4196.52 -3.57754 1.48629 0
M  V30 41262 H 4196.93 -3.72226 3.69524 0
M  V30 41263 H 4198.41 -4.92954 2.48395 0
M  V30 41264 H 4198.88 -4.29665 0.910206 0
M  V30 41265 H 4199.49 -3.51793 2.39002 0
M  V30 41266 N 4197.8 -1.13144 -1.09709 0
M  V30 41267 C 4199.03 -0.914468 -1.85594 0
M  V30 41268 C 4199.45 0.5366 -1.81014 0
M  V30 41269 O 4198.8 1.37131 -1.20421 0
M  V30 41270 C 4198.85 -1.39045 -3.3369 0
M  V30 41271 O 4198.58 -2.78465 -3.38214 0
M  V30 41272 C 4200.08 -1.21149 -4.26424 0
M  V30 41273 H 4197.3 -0.326284 -0.586327 0
M  V30 41274 H 4199.84 -1.50328 -1.38643 0
M  V30 41275 H 4198 -0.844707 -3.78079 0
M  V30 41276 H 4198.41 -2.99527 -4.30562 0
M  V30 41277 H 4199.88 -1.59332 -5.28505 0
M  V30 41278 H 4200.36 -0.152859 -4.38934 0
M  V30 41279 H 4200.97 -1.74511 -3.87848 0
M  V30 41280 N 4199.28 1.27635 -0.924498 0
M  V30 41281 C 4200.51 1.9862 -0.579466 0
M  V30 41282 C 4200.93 1.68996 0.84178 0
M  V30 41283 O 4200.28 0.948708 1.55903 0
M  V30 41284 C 4200.33 3.52718 -0.79196 0
M  V30 41285 O 4200.05 3.81304 -2.15729 0
M  V30 41286 C 4201.56 4.40957 -0.455207 0
M  V30 41287 H 4198.78 0.633949 -0.219886 0
M  V30 41288 H 4201.32 1.62568 -1.24064 0
M  V30 41289 H 4199.47 3.86993 -0.177628 0
M  V30 41290 H 4199.89 4.75903 -2.20491 0
M  V30 41291 H 4201.36 5.48105 -0.654604 0
M  V30 41292 H 4201.84 4.34956 0.609101 0
M  V30 41293 H 4202.45 4.12197 -1.04754 0
M  V30 41294 N 4200.76 0.689652 1.41709 0
M  V30 41295 C 4202.17 0.293619 1.84377 0
M  V30 41296 C 4202.52 -1.16709 1.57713 0
M  V30 41297 O 4201.65 -1.89522 1.04453 0
M  V30 41298 C 4202.24 0.526132 3.3469 0
M  V30 41299 C 4200.8 0.184075 3.7595 0
M  V30 41300 C 4199.95 0.811324 2.65166 0
M  V30 41301 H 4202.9 0.890741 1.31345 0
M  V30 41302 H 4202.92 -0.217057 3.7988 0
M  V30 41303 H 4202.43 1.58933 3.54065 0
M  V30 41304 H 4200.53 -0.875095 3.62178 0
M  V30 41305 H 4200.65 0.634964 4.74874 0
M  V30 41306 H 4199.01 0.241408 2.53553 0
M  V30 41307 H 4199.79 1.87827 2.8736 0
M  V30 41308 N 4202.24 -1.51507 0.433991 0
M  V30 41309 C 4203.49 -2.01247 -0.135078 0
M  V30 41310 C 4203.8 -1.32291 -1.44078 0
M  V30 41311 O 4205.01 -1.72982 -2.09259 0
M  V30 41312 C 4203.46 -3.58719 -0.291272 0
M  V30 41313 C 4203.07 -4.3661 1.0038 0
M  V30 41314 C 4204.81 -4.16617 -0.814291 0
M  V30 41315 C 4202.72 -5.85779 0.813427 0
M  V30 41316 H 4201.65 -0.752045 -0.0542561 0
M  V30 41317 H 4204.3 -1.74642 0.563242 0
M  V30 41318 H 4202.68 -3.81757 -1.05252 0
M  V30 41319 H 4203.86 -4.2532 1.77311 0
M  V30 41320 H 4202.17 -3.90149 1.45509 0
M  V30 41321 H 4204.77 -5.2577 -0.973154 0
M  V30 41322 H 4205.11 -3.75574 -1.79583 0
M  V30 41323 H 4205.65 -3.97644 -0.111449 0
M  V30 41324 H 4202.39 -6.31228 1.76724 0
M  V30 41325 H 4201.91 -5.99741 0.0838494 0
M  V30 41326 H 4203.58 -6.45325 0.465309 0
M  V30 41327 N 4203.72 -0.165233 -1.56731 0
M  V30 41328 C 4204.94 0.487713 -2.0107 0
M  V30 41329 C 4205.36 1.57214 -1.04544 0
M  V30 41330 O 4204.72 1.82444 -0.045315 0
M  V30 41331 C 4204.77 1.07163 -3.45251 0
M  V30 41332 O 4204.49 0.0305075 -4.38089 0
M  V30 41333 C 4205.99 1.80341 -4.04959 0
M  V30 41334 H 4203.21 0.125382 -0.659182 0
M  V30 41335 H 4205.75 -0.265176 -2.02773 0
M  V30 41336 H 4203.91 1.77505 -3.44341 0
M  V30 41337 H 4204.32 0.460775 -5.22472 0
M  V30 41338 H 4205.8 2.16465 -5.07786 0
M  V30 41339 H 4206.27 2.69615 -3.46705 0
M  V30 41340 H 4206.88 1.14655 -4.09554 0
M  V30 41341 N 4205.19 1.57226 0.108512 0
M  V30 41342 C 4206.42 1.89595 0.82834 0
M  V30 41343 C 4206.84 0.757574 1.72934 0
M  V30 41344 O 4206.19 -0.27112 1.80475 0
M  V30 41345 C 4206.25 3.21495 1.65298 0
M  V30 41346 O 4205.97 4.30951 0.788239 0
M  V30 41347 C 4207.47 3.67637 2.47705 0
M  V30 41348 H 4204.69 0.627535 0.237573 0
M  V30 41349 H 4207.23 2.04303 0.0897616 0
M  V30 41350 H 4205.39 3.08425 2.34421 0
M  V30 41351 H 4205.8 5.06613 1.35805 0
M  V30 41352 H 4207.27 4.62661 3.0108 0
M  V30 41353 H 4207.75 2.94811 3.2555 0
M  V30 41354 H 4208.36 3.8353 1.83806 0
M  V30 41355 N 4206.67 -0.378982 1.52975 0
M  V30 41356 C 4207.9 -1.14397 1.72398 0
M  V30 41357 C 4208.32 -1.83436 0.446848 0
M  V30 41358 O 4207.67 -1.73059 -0.579373 0
M  V30 41359 C 4207.72 -2.18444 2.88035 0
M  V30 41360 O 4207.44 -1.52218 4.10806 0
M  V30 41361 C 4208.95 -3.07593 3.1922 0
M  V30 41362 H 4206.17 -0.342594 0.576949 0
M  V30 41363 H 4208.71 -0.44199 1.99666 0
M  V30 41364 H 4206.86 -2.84262 2.632 0
M  V30 41365 H 4207.28 -2.21434 4.75465 0
M  V30 41366 H 4208.75 -3.76608 4.03572 0
M  V30 41367 H 4209.23 -3.7166 2.3402 0
M  V30 41368 H 4209.84 -2.47409 3.45932 0
M  V30 41369 N 4208.15 -1.44108 -0.638015 0
M  V30 41370 C 4209.38 -1.49998 -1.42507 0
M  V30 41371 C 4209.79 -0.122637 -1.88401 0
M  V30 41372 O 4209.15 0.87014 -1.60421 0
M  V30 41373 C 4209.2 -2.45883 -2.64997 0
M  V30 41374 O 4208.92 -3.78262 -2.21018 0
M  V30 41375 C 4210.42 -2.61168 -3.58198 0
M  V30 41376 H 4207.64 -0.508951 -0.437276 0
M  V30 41377 H 4210.19 -1.89004 -0.780879 0
M  V30 41378 H 4208.34 -2.10032 -3.25523 0
M  V30 41379 H 4208.76 -4.29967 -3.00381 0
M  V30 41380 H 4210.23 -3.32303 -4.4077 0
M  V30 41381 H 4210.71 -1.66167 -4.06553 0
M  V30 41382 H 4211.31 -2.97893 -3.03545 0
M  V30 41383 N 4209.63 0.877792 -1.30891 0
M  V30 41384 C 4210.86 1.66316 -1.23071 0
M  V30 41385 C 4211.27 1.87681 0.205276 0
M  V30 41386 O 4210.63 1.42941 1.13465 0
M  V30 41387 C 4210.68 3.03553 -1.9631 0
M  V30 41388 O 4210.4 2.83148 -3.34303 0
M  V30 41389 C 4211.9 3.97993 -1.95235 0
M  V30 41390 H 4209.12 0.51876 -0.425592 0
M  V30 41391 H 4211.67 1.0962 -1.72637 0
M  V30 41392 H 4209.82 3.56961 -1.50524 0
M  V30 41393 H 4210.23 3.70261 -3.71493 0
M  V30 41394 H 4211.71 4.9163 -2.51006 0
M  V30 41395 H 4212.19 4.29176 -0.932979 0
M  V30 41396 H 4212.79 3.5052 -2.40864 0
M  V30 41397 N 4211.11 1.13725 1.09108 0
M  V30 41398 C 4212.35 0.902351 1.81619 0
M  V30 41399 C 4212.69 -0.569976 1.85647 0
M  V30 41400 O 4211.96 -1.42193 1.32708 0
M  V30 41401 C 4212.24 1.49498 3.27601 0
M  V30 41402 C 4212.1 3.03665 3.31825 0
M  V30 41403 C 4213.42 1.16588 4.24376 0
M  V30 41404 H 4210.53 0.329245 0.659369 0
M  V30 41405 H 4213.18 1.40606 1.27789 0
M  V30 41406 H 4211.33 1.0666 3.73572 0
M  V30 41407 H 4213 3.55281 2.94233 0
M  V30 41408 H 4211.24 3.38486 2.71311 0
M  V30 41409 H 4211.91 3.40232 4.3468 0
M  V30 41410 H 4214.39 1.53611 3.86708 0
M  V30 41411 H 4213.26 1.60697 5.2485 0
M  V30 41412 H 4213.53 0.080079 4.42027 0
M  V30 41413 N 4212.58 -1.27143 0.931254 0
M  V30 41414 C 4213.81 -1.9831 0.589991 0
M  V30 41415 C 4214.23 -1.6944 -0.832806 0
M  V30 41416 O 4213.58 -0.956963 -1.55398 0
M  V30 41417 C 4213.64 -3.52293 0.810654 0
M  V30 41418 O 4213.36 -3.80154 2.17748 0
M  V30 41419 C 4214.86 -4.40709 0.478586 0
M  V30 41420 H 4212.08 -0.632774 0.223245 0
M  V30 41421 H 4214.62 -1.61908 1.24925 0
M  V30 41422 H 4212.78 -3.86893 0.198149 0
M  V30 41423 H 4213.19 -4.74727 2.23012 0
M  V30 41424 H 4214.66 -5.4775 0.683662 0
M  V30 41425 H 4215.14 -4.35273 -0.586026 0
M  V30 41426 H 4215.75 -4.11636 1.06939 0
M  V30 41427 N 4214.06 -0.697157 -1.41342 0
M  V30 41428 C 4215.47 -0.303393 -1.84218 0
M  V30 41429 C 4215.83 1.15871 -1.5833 0
M  V30 41430 O 4214.95 1.88965 -1.05457 0
M  V30 41431 C 4215.55 -0.543874 -3.34406 0
M  V30 41432 C 4214.1 -0.20401 -3.75847 0
M  V30 41433 C 4213.25 -0.825375 -2.64732 0
M  V30 41434 H 4216.2 -0.897694 -1.30871 0
M  V30 41435 H 4216.22 0.196908 -3.7999 0
M  V30 41436 H 4215.74 -1.60809 -3.53217 0
M  V30 41437 H 4213.84 0.855875 -3.62637 0
M  V30 41438 H 4213.95 -0.660138 -4.7453 0
M  V30 41439 H 4212.31 -0.254851 -2.53422 0
M  V30 41440 H 4213.1 -1.89349 -2.8636 0
M  V30 41441 N 4215.54 1.51274 -0.44202 0
M  V30 41442 C 4216.77 2.06543 0.121415 0
M  V30 41443 C 4217.18 1.30898 1.36056 0
M  V30 41444 O 4216.54 0.369865 1.78713 0
M  V30 41445 C 4216.59 3.58826 0.43892 0
M  V30 41446 O 4216.31 4.31614 -0.751045 0
M  V30 41447 C 4217.81 4.30624 1.05252 0
M  V30 41448 H 4215.03 0.670975 0.00584884 0
M  V30 41449 H 4217.58 1.94797 -0.622449 0
M  V30 41450 H 4215.73 3.70471 1.13269 0
M  V30 41451 H 4216.15 5.22316 -0.478116 0
M  V30 41452 H 4217.62 5.38244 1.22464 0
M  V30 41453 H 4218.1 3.89219 2.03482 0
M  V30 41454 H 4218.7 4.23434 0.397994 0
M  V30 41455 N 4217.02 0.173543 1.56642 0
M  V30 41456 C 4218.43 -0.342805 1.83526 0
M  V30 41457 C 4218.78 -1.62906 1.09343 0
M  V30 41458 O 4217.91 -2.13597 0.347191 0
M  V30 41459 C 4218.5 -0.628739 3.32915 0
M  V30 41460 C 4217.06 -1.08952 3.60287 0
M  V30 41461 C 4216.21 -0.126572 2.77011 0
M  V30 41462 H 4219.16 0.397763 1.53634 0
M  V30 41463 H 4219.18 -1.48055 3.50514 0
M  V30 41464 H 4218.69 0.307594 3.86879 0
M  V30 41465 H 4216.79 -2.04088 3.11735 0
M  V30 41466 H 4216.91 -0.99714 4.68609 0
M  V30 41467 H 4215.27 -0.624362 2.46929 0
M  V30 41468 H 4216.05 0.803822 3.33757 0
M  V30 41469 N 4218.5 -1.57281 -0.100172 0
M  V30 41470 C 4219.73 -1.90031 -0.818274 0
M  V30 41471 C 4220.14 -0.766734 -1.7253 0
M  V30 41472 O 4219.5 0.261545 -1.80616 0
M  V30 41473 C 4219.55 -3.22367 -1.63591 0
M  V30 41474 O 4219.27 -4.31363 -0.765374 0
M  V30 41475 C 4220.77 -3.68946 -2.45752 0
M  V30 41476 H 4217.99 -0.628786 -0.234242 0
M  V30 41477 H 4220.53 -2.04348 -0.0789257 0
M  V30 41478 H 4218.69 -3.09663 -2.32782 0
M  V30 41479 H 4219.1 -5.07327 -1.33117 0
M  V30 41480 H 4220.58 -4.64251 -2.98622 0
M  V30 41481 H 4221.05 -2.96534 -3.23982 0
M  V30 41482 H 4221.66 -3.845 -1.81769 0
M  V30 41483 N 4219.98 0.370864 -1.53174 0
M  V30 41484 C 4221.39 0.947932 -1.60845 0
M  V30 41485 C 4221.74 1.90424 -0.472561 0
M  V30 41486 O 4220.86 2.12637 0.401785 0
M  V30 41487 C 4221.46 1.72602 -2.91537 0
M  V30 41488 C 4220.02 2.25251 -3.01561 0
M  V30 41489 C 4219.16 1.06335 -2.56102 0
M  V30 41490 H 4222.11 0.149824 -1.57991 0
M  V30 41491 H 4222.14 2.5868 -2.79043 0
M  V30 41492 H 4221.65 1.02975 -3.74189 0
M  V30 41493 H 4219.75 2.98136 -2.23485 0
M  V30 41494 H 4219.86 2.53495 -4.06543 0
M  V30 41495 H 4218.23 1.42877 -2.10851 0
M  V30 41496 H 4219.01 0.38215 -3.41166 0
M  V30 41497 N 4221.45 1.44444 0.630363 0
M  V30 41498 C 4222.68 1.50751 1.4171 0
M  V30 41499 C 4223.1 0.132626 1.88334 0
M  V30 41500 O 4222.45 -0.861621 1.6088 0
M  V30 41501 C 4222.5 2.47285 2.6369 0
M  V30 41502 O 4222.23 3.79429 2.19009 0
M  V30 41503 C 4223.73 2.63064 3.56808 0
M  V30 41504 H 4220.95 0.511262 0.434571 0
M  V30 41505 H 4223.49 1.89416 0.770844 0
M  V30 41506 H 4221.65 2.11755 3.24405 0
M  V30 41507 H 4222.06 4.31554 2.98096 0
M  V30 41508 H 4223.53 3.34636 4.39002 0
M  V30 41509 H 4224.01 1.6832 4.05666 0
M  V30 41510 H 4224.62 2.99499 3.01961 0
M  V30 41511 N 4222.93 -0.870838 1.31355 0
M  V30 41512 C 4224.18 -1.6206 1.20752 0
M  V30 41513 C 4224.5 -1.93583 -0.234675 0
M  V30 41514 O 4223.77 -1.58219 -1.15515 0
M  V30 41515 H 4222.35 -0.600785 0.443922 0
M  V30 41516 H 4225.01 -1.0426 1.64669 0
M  V30 41517 H 4224.11 -2.56461 1.7786 0
M  V30 41518 N 4224.41 -1.14302 -1.08503 0
M  V30 41519 C 4225.64 -0.934102 -1.84614 0
M  V30 41520 C 4226.05 0.517371 -1.81573 0
M  V30 41521 O 4225.41 1.35846 -1.21869 0
M  V30 41522 C 4225.46 -1.42577 -3.32196 0
M  V30 41523 O 4225.18 -2.82037 -3.35242 0
M  V30 41524 C 4226.68 -1.25665 -4.25115 0
M  V30 41525 H 4223.9 -0.332485 -0.582834 0
M  V30 41526 H 4226.45 -1.5179 -1.37041 0
M  V30 41527 H 4224.6 -0.88476 -3.77161 0
M  V30 41528 H 4225.02 -3.04077 -4.27361 0
M  V30 41529 H 4226.49 -1.64928 -5.26785 0
M  V30 41530 H 4226.97 -0.199405 -4.38747 0
M  V30 41531 H 4227.57 -1.78615 -3.85975 0
M  V30 41532 N 4225.89 1.26648 -0.937984 0
M  V30 41533 C 4226.82 2.2564 -0.402382 0
M  V30 41534 C 4227.83 1.5579 0.472586 0
M  V30 41535 O 4229.02 1.76234 0.283548 0
M  V30 41536 C 4226.12 3.36017 0.441098 0
M  V30 41537 C 4225.29 4.35408 -0.416969 0
M  V30 41538 C 4224.35 5.24929 0.365552 0
M  V30 41539 O 4223.38 5.68734 -0.230315 0
M  V30 41540 N 4224.58 5.56173 1.66288 0
M  V30 41541 H 4227.35 2.72233 -1.25338 0
M  V30 41542 H 4224.91 1.40381 -0.806519 0
M  V30 41543 H 4226.9 3.92856 0.97191 0
M  V30 41544 H 4225.47 2.88945 1.19288 0
M  V30 41545 H 4224.69 3.77686 -1.12901 0
M  V30 41546 H 4225.98 4.98812 -1.00322 0
M  V30 41547 H 4225.38 5.22459 2.16916 0
M  V30 41548 H 4223.93 6.15668 2.14 0
M  V30 41549 N 4227.37 0.704643 1.4097 0
M  V30 41550 C 4228.59 0.248774 2.05399 0
M  V30 41551 C 4229.01 -1.10538 1.53058 0
M  V30 41552 O 4228.37 -1.69255 0.682564 0
M  V30 41553 C 4228.42 0.207857 3.60902 0
M  V30 41554 O 4228.14 1.50853 4.11309 0
M  V30 41555 C 4229.64 -0.267899 4.4249 0
M  V30 41556 H 4226.86 0.113872 0.661267 0
M  V30 41557 H 4229.4 0.959777 1.80578 0
M  V30 41558 H 4227.56 -0.454032 3.8473 0
M  V30 41559 H 4227.97 1.40169 5.05424 0
M  V30 41560 H 4229.45 -0.245392 5.51454 0
M  V30 41561 H 4229.92 -1.30828 4.19262 0
M  V30 41562 H 4230.53 0.363317 4.23745 0
M  V30 41563 N 4228.84 -1.51038 0.450036 0
M  V30 41564 C 4230.26 -1.86697 -0.0101069 0
M  V30 41565 C 4230.61 -1.36636 -1.40802 0
M  V30 41566 O 4229.73 -0.722447 -2.03984 0
M  V30 41567 C 4230.33 -3.38791 -0.0251165 0
M  V30 41568 C 4228.89 -3.73939 -0.429713 0
M  V30 41569 C 4228.03 -2.74829 0.369335 0
M  V30 41570 H 4230.98 -1.44081 0.665303 0
M  V30 41571 H 4231 -3.71295 -0.831899 0
M  V30 41572 H 4230.52 -3.75197 0.992427 0
M  V30 41573 H 4228.62 -3.43127 -1.45239 0
M  V30 41574 H 4228.73 -4.78878 -0.145688 0
M  V30 41575 H 4227.09 -2.54104 -0.174113 0
M  V30 41576 H 4227.88 -3.14078 1.38599 0
M  V30 41577 N 4230.32 -0.181847 -1.56547 0
M  V30 41578 C 4231.55 0.46636 -2.01576 0
M  V30 41579 C 4231.97 1.56096 -1.06205 0
M  V30 41580 O 4231.32 1.82385 -0.064663 0
M  V30 41581 C 4231.37 1.03495 -3.46368 0
M  V30 41582 O 4231.09 -0.0159594 -4.38097 0
M  V30 41583 C 4232.6 1.76035 -4.06849 0
M  V30 41584 H 4229.82 0.118384 -0.660474 0
M  V30 41585 H 4232.36 -0.286667 -2.02481 0
M  V30 41586 H 4230.51 1.73843 -3.46204 0
M  V30 41587 H 4230.93 0.405334 -5.22931 0
M  V30 41588 H 4232.4 2.11067 -5.10054 0
M  V30 41589 H 4232.88 2.65923 -3.49545 0
M  V30 41590 H 4233.49 1.10305 -4.10747 0
M  V30 41591 N 4231.8 1.57332 0.09183 0
M  V30 41592 C 4233.03 1.90463 0.808185 0
M  V30 41593 C 4233.44 0.775873 1.72121 0
M  V30 41594 O 4232.8 -0.251963 1.80752 0
M  V30 41595 C 4232.85 3.2323 1.61879 0
M  V30 41596 O 4232.57 4.31762 0.742487 0
M  V30 41597 C 4234.07 3.70244 2.43792 0
M  V30 41598 H 4231.29 0.630019 0.230904 0
M  V30 41599 H 4233.84 2.04387 0.0680875 0
M  V30 41600 H 4231.99 3.10894 2.31136 0
M  V30 41601 H 4232.41 5.08025 1.30424 0
M  V30 41602 H 4233.88 4.65828 2.96156 0
M  V30 41603 H 4234.36 2.98248 3.22405 0
M  V30 41604 H 4234.96 3.85458 1.79727 0
M  V30 41605 N 4233.28 -0.362736 1.53369 0
M  V30 41606 C 4234.51 -1.12562 1.73601 0
M  V30 41607 C 4234.92 -1.82952 0.466279 0
M  V30 41608 O 4234.28 -1.73664 -0.560985 0
M  V30 41609 C 4234.33 -2.15377 2.90336 0
M  V30 41610 O 4234.05 -1.47852 4.12397 0
M  V30 41611 C 4235.55 -3.0419 3.22464 0
M  V30 41612 H 4232.77 -0.336456 0.58055 0
M  V30 41613 H 4235.32 -0.420788 2.00124 0
M  V30 41614 H 4233.47 -2.81454 2.662 0
M  V30 41615 H 4233.88 -2.16379 4.77787 0
M  V30 41616 H 4235.36 -3.72307 4.07544 0
M  V30 41617 H 4235.84 -3.69157 2.37949 0
M  V30 41618 H 4236.44 -2.43726 3.48537 0
M  V30 41619 N 4234.76 -1.44777 -0.622694 0
M  V30 41620 C 4236.17 -1.42653 -1.20445 0
M  V30 41621 C 4236.52 -0.146246 -1.95654 0
M  V30 41622 O 4235.64 0.752981 -2.02877 0
M  V30 41623 C 4236.24 -2.58431 -2.19086 0
M  V30 41624 C 4234.8 -2.59476 -2.72671 0
M  V30 41625 C 4233.94 -2.34621 -1.47812 0
M  V30 41626 H 4236.9 -1.53235 -0.412874 0
M  V30 41627 H 4236.92 -2.31667 -3.01846 0
M  V30 41628 H 4236.43 -3.51598 -1.64319 0
M  V30 41629 H 4234.53 -1.70274 -3.31417 0
M  V30 41630 H 4234.64 -3.58228 -3.18134 0
M  V30 41631 H 4233.01 -1.83879 -1.7624 0
M  V30 41632 H 4233.79 -3.29912 -0.94935 0
M  V30 41633 N 4236.23 0.863859 -1.31815 0
M  V30 41634 C 4237.48 1.61219 -1.21208 0
M  V30 41635 C 4237.8 1.94278 0.227039 0
M  V30 41636 O 4239 2.67662 0.454875 0
M  V30 41637 C 4237.46 2.90668 -2.12226 0
M  V30 41638 C 4237.07 2.65069 -3.61168 0
M  V30 41639 C 4238.81 3.68671 -2.10433 0
M  V30 41640 C 4236.72 3.90463 -4.44176 0
M  V30 41641 H 4235.65 0.604931 -0.450082 0
M  V30 41642 H 4238.3 0.95464 -1.56713 0
M  V30 41643 H 4236.68 3.57831 -1.69626 0
M  V30 41644 H 4237.85 2.06276 -4.12052 0
M  V30 41645 H 4236.17 2.00411 -3.64999 0
M  V30 41646 H 4238.77 4.61704 -2.69692 0
M  V30 41647 H 4239.11 4.01695 -1.093 0
M  V30 41648 H 4239.64 3.084 -2.51266 0
M  V30 41649 H 4236.38 3.62585 -5.46088 0
M  V30 41650 H 4235.9 4.48686 -3.98047 0
M  V30 41651 H 4237.58 4.58291 -4.56704 0
M  V30 41652 N 4237.71 1.14875 1.07895 0
M  V30 41653 C 4238.94 0.943879 1.84116 0
M  V30 41654 C 4239.36 -0.507735 1.81845 0
M  V30 41655 O 4238.71 -1.35198 1.22587 0
M  V30 41656 C 4238.76 1.44336 3.31435 0
M  V30 41657 O 4238.48 2.8381 3.33741 0
M  V30 41658 C 4239.99 1.27918 4.24443 0
M  V30 41659 H 4237.21 0.335571 0.581062 0
M  V30 41660 H 4239.75 1.52514 1.36234 0
M  V30 41661 H 4237.9 0.904749 3.76687 0
M  V30 41662 H 4238.32 3.06339 4.25742 0
M  V30 41663 H 4239.79 1.6772 5.25903 0
M  V30 41664 H 4240.27 0.22267 4.38635 0
M  V30 41665 H 4240.88 1.8066 3.85022 0
M  V30 41666 N 4239.19 -1.26148 0.944687 0
M  V30 41667 C 4240.42 -1.97673 0.610991 0
M  V30 41668 C 4240.83 -1.70313 -0.814788 0
M  V30 41669 O 4240.19 -0.973391 -1.54374 0
M  V30 41670 C 4240.24 -3.51414 0.847974 0
M  V30 41671 O 4239.96 -3.77824 2.21768 0
M  V30 41672 C 4241.46 -4.40177 0.525302 0
M  V30 41673 H 4238.68 -0.63037 0.229944 0
M  V30 41674 H 4241.23 -1.60573 1.26635 0
M  V30 41675 H 4239.38 -3.86661 0.239173 0
M  V30 41676 H 4239.8 -4.72335 2.28034 0
M  V30 41677 H 4241.27 -5.46994 0.74172 0
M  V30 41678 H 4241.75 -4.3587 -0.539826 0
M  V30 41679 H 4242.35 -4.10479 1.11299 0
M  V30 41680 N 4240.67 -0.712109 -1.40594 0
M  V30 41681 C 4241.9 -0.259663 -2.05264 0
M  V30 41682 C 4242.31 1.09725 -1.53642 0
M  V30 41683 O 4241.67 1.68891 -0.69153 0
M  V30 41684 C 4241.72 -0.226994 -3.60787 0
M  V30 41685 O 4241.44 -1.53032 -4.10503 0
M  V30 41686 C 4242.94 0.244429 -4.42626 0
M  V30 41687 H 4240.16 -0.117377 -0.660654 0
M  V30 41688 H 4242.71 -0.96934 -1.80067 0
M  V30 41689 H 4240.86 0.433622 -3.84966 0
M  V30 41690 H 4241.27 -1.42847 -5.04673 0
M  V30 41691 H 4242.75 0.216144 -5.51577 0
M  V30 41692 H 4243.23 1.28603 -4.1995 0
M  V30 41693 H 4243.83 -0.385784 -4.23547 0
M  V30 41694 N 4242.15 1.50797 -0.45804 0
M  V30 41695 C 4243.37 2.06661 0.0995016 0
M  V30 41696 C 4243.79 1.32334 1.3466 0
M  V30 41697 O 4243.15 0.388799 1.7831 0
M  V30 41698 C 4243.2 3.59271 0.400837 0
M  V30 41699 O 4242.92 4.30793 -0.796781 0
M  V30 41700 C 4244.42 4.31716 1.00678 0
M  V30 41701 H 4241.64 0.670999 -0.00126807 0
M  V30 41702 H 4244.18 1.94126 -0.643075 0
M  V30 41703 H 4242.34 3.71652 1.09333 0
M  V30 41704 H 4242.75 5.2178 -0.533488 0
M  V30 41705 H 4244.23 5.39513 1.16748 0
M  V30 41706 H 4244.7 3.91356 1.99342 0
M  V30 41707 H 4245.31 4.23832 0.353061 0
M  V30 41708 N 4243.63 0.190147 1.56449 0
M  V30 41709 C 4244.85 -0.455663 2.0182 0
M  V30 41710 C 4245.27 -1.5553 1.07031 0
M  V30 41711 O 4244.63 -1.82349 0.0743344 0
M  V30 41712 C 4244.68 -1.01657 3.46912 0
M  V30 41713 O 4244.4 0.0391926 4.38082 0
M  V30 41714 C 4245.9 -1.73875 4.07777 0
M  V30 41715 H 4243.12 -0.114879 0.661093 0
M  V30 41716 H 4245.66 0.297401 2.02326 0
M  V30 41717 H 4243.82 -1.72004 3.47121 0
M  V30 41718 H 4244.23 -0.377596 5.23139 0
M  V30 41719 H 4245.71 -2.08359 5.11166 0
M  V30 41720 H 4246.18 -2.64065 3.5095 0
M  V30 41721 H 4246.79 -1.08125 4.11326 0
M  V30 41722 N 4245.1 -1.57379 -0.083485 0
M  V30 41723 C 4246.35 -1.86949 -0.785998 0
M  V30 41724 C 4246.68 -0.78086 -1.7781 0
M  V30 41725 O 4245.96 0.210041 -1.93363 0
M  V30 41726 C 4246.24 -3.27169 -1.50442 0
M  V30 41727 C 4246.09 -4.46672 -0.529522 0
M  V30 41728 C 4247.41 -3.65453 -2.45219 0
M  V30 41729 H 4244.53 -0.679965 -0.284282 0
M  V30 41730 H 4247.17 -1.89936 -0.0493897 0
M  V30 41731 H 4245.32 -3.24753 -2.13231 0
M  V30 41732 H 4247 -4.61208 0.0922653 0
M  V30 41733 H 4245.24 -4.33519 0.156145 0
M  V30 41734 H 4245.91 -5.41539 -1.06958 0
M  V30 41735 H 4248.39 -3.68887 -1.92514 0
M  V30 41736 H 4247.26 -4.64475 -2.92496 0
M  V30 41737 H 4247.52 -2.94757 -3.29501 0
M  V30 41738 N 4246.58 0.354597 -1.53559 0
M  V30 41739 C 4247.81 1.1164 -1.74196 0
M  V30 41740 C 4248.22 1.82702 -0.475975 0
M  V30 41741 O 4247.58 1.73959 0.551768 0
M  V30 41742 C 4247.63 2.13834 -2.91474 0
M  V30 41743 O 4247.35 1.45663 -4.13175 0
M  V30 41744 C 4248.85 3.02476 -3.24073 0
M  V30 41745 H 4246.07 0.333372 -0.582326 0
M  V30 41746 H 4248.62 0.410169 -2.00344 0
M  V30 41747 H 4246.77 2.80038 -2.67689 0
M  V30 41748 H 4247.19 2.13842 -4.78928 0
M  V30 41749 H 4248.66 3.7014 -4.09512 0
M  V30 41750 H 4249.14 3.6789 -2.39904 0
M  V30 41751 H 4249.74 2.41874 -3.49824 0
M  V30 41752 N 4248.06 1.45105 0.615008 0
M  V30 41753 C 4249.47 1.4329 1.19687 0
M  V30 41754 C 4249.82 0.156619 1.95574 0
M  V30 41755 O 4248.95 -0.742211 2.03274 0
M  V30 41756 C 4249.54 2.5959 2.17712 0
M  V30 41757 C 4248.1 2.60918 2.71291 0
M  V30 41758 C 4247.25 2.35402 1.46565 0
M  V30 41759 H 4250.2 1.53452 0.404742 0
M  V30 41760 H 4250.22 2.33264 3.00613 0
M  V30 41761 H 4249.73 3.52464 1.62452 0
M  V30 41762 H 4247.83 1.7203 3.3051 0
M  V30 41763 H 4247.95 3.5991 3.1623 0
M  V30 41764 H 4246.31 1.84811 1.75262 0
M  V30 41765 H 4247.09 3.30411 0.93184 0
M  V30 41766 N 4249.54 -0.856857 1.32271 0
M  V30 41767 C 4250.77 -1.64337 1.25701 0
M  V30 41768 C 4251.18 -1.87984 -0.175392 0
M  V30 41769 O 4250.54 -1.44728 -1.11176 0
M  V30 41770 C 4250.59 -3.00392 2.01115 0
M  V30 41771 O 4250.31 -2.77794 3.38766 0
M  V30 41772 C 4251.81 -3.94836 2.01542 0
M  V30 41773 H 4249.03 -0.511924 0.433791 0
M  V30 41774 H 4251.57 -1.0686 1.7436 0
M  V30 41775 H 4249.73 -3.54521 1.56184 0
M  V30 41776 H 4250.14 -3.64304 3.77336 0
M  V30 41777 H 4251.62 -4.87575 2.58795 0
M  V30 41778 H 4252.09 -4.27638 1.00114 0
M  V30 41779 H 4252.7 -3.46644 2.4641 0
M  V30 41780 N 4251.02 -1.15446 -1.07285 0
M  V30 41781 C 4252.43 -0.939033 -1.61366 0
M  V30 41782 C 4252.78 0.519499 -1.89197 0
M  V30 41783 O 4251.9 1.39073 -1.65794 0
M  V30 41784 C 4252.5 -1.69818 -2.93168 0
M  V30 41785 C 4251.06 -1.52802 -3.43989 0
M  V30 41786 C 4250.2 -1.71334 -2.18037 0
M  V30 41787 H 4253.15 -1.30461 -0.903633 0
M  V30 41788 H 4253.18 -1.16808 -3.62127 0
M  V30 41789 H 4252.69 -2.75968 -2.7288 0
M  V30 41790 H 4250.79 -0.490494 -3.69357 0
M  V30 41791 H 4250.9 -2.30543 -4.19984 0
M  V30 41792 H 4249.27 -1.13991 -2.27768 0
M  V30 41793 H 4250.05 -2.7885 -2.00243 0
M  V30 41794 N 4252.49 1.25646 -0.951364 0
M  V30 41795 C 4253.72 1.97346 -0.621465 0
M  V30 41796 C 4254.14 1.70743 0.805744 0
M  V30 41797 O 4253.49 0.981564 1.53856 0
M  V30 41798 C 4253.54 3.50959 -0.866598 0
M  V30 41799 O 4253.27 3.76642 -2.23768 0
M  V30 41800 C 4254.77 4.39892 -0.548638 0
M  V30 41801 H 4251.99 0.629142 -0.233284 0
M  V30 41802 H 4254.53 1.599 -1.27485 0
M  V30 41803 H 4252.69 3.86529 -0.259675 0
M  V30 41804 H 4253.1 4.71119 -2.30536 0
M  V30 41805 H 4254.57 5.46593 -0.770718 0
M  V30 41806 H 4255.05 4.3615 0.516703 0
M  V30 41807 H 4255.66 4.09883 -1.13474 0
M  V30 41808 N 4253.97 0.719555 1.40215 0
M  V30 41809 C 4255.38 0.332662 1.83712 0
M  V30 41810 C 4255.73 -1.13338 1.60153 0
M  V30 41811 O 4254.86 -1.87263 1.0845 0
M  V30 41812 C 4255.45 0.597006 3.33499 0
M  V30 41813 C 4254.01 0.263778 3.75475 0
M  V30 41814 C 4253.16 0.867387 2.63385 0
M  V30 41815 H 4256.11 0.918401 1.29426 0
M  V30 41816 H 4256.13 -0.13643 3.80255 0
M  V30 41817 H 4255.64 1.66408 3.50614 0
M  V30 41818 H 4253.74 -0.798075 3.63953 0
M  V30 41819 H 4253.86 0.735549 4.7342 0
M  V30 41820 H 4252.22 0.295136 2.52984 0
M  V30 41821 H 4253 1.93881 2.83311 0
M  V30 41822 N 4255.45 -1.50552 0.466031 0
M  V30 41823 C 4256.68 -2.0671 -0.0885405 0
M  V30 41824 C 4257.09 -1.33046 -1.33956 0
M  V30 41825 O 4256.45 -0.39825 -1.78102 0
M  V30 41826 C 4256.5 -3.59478 -0.381779 0
M  V30 41827 O 4256.22 -4.30365 0.819616 0
M  V30 41828 C 4257.72 -4.32244 -0.983874 0
M  V30 41829 H 4254.94 -0.670983 0.00482652 0
M  V30 41830 H 4257.49 -1.93782 0.653361 0
M  V30 41831 H 4255.64 -3.72226 -1.07361 0
M  V30 41832 H 4256.06 -5.2149 0.561152 0
M  V30 41833 H 4257.53 -5.40124 -1.13886 0
M  V30 41834 H 4258.01 -3.92407 -1.97264 0
M  V30 41835 H 4258.61 -4.24013 -0.330579 0
M  V30 41836 N 4256.93 -0.198441 -1.56346 0
M  V30 41837 C 4258.18 0.438578 -1.97284 0
M  V30 41838 C 4258.5 1.6192 -1.0866 0
M  V30 41839 O 4257.77 1.95257 -0.158595 0
M  V30 41840 H 4256.35 0.165022 -0.728544 0
M  V30 41841 H 4259.01 -0.285953 -1.92791 0
M  V30 41842 H 4258.1 0.780463 -3.02184 0
M  V30 41843 N 4258.41 1.57421 0.0751377 0
M  V30 41844 C 4259.63 1.91309 0.787938 0
M  V30 41845 C 4260.05 0.794085 1.71288 0
M  V30 41846 O 4259.41 -0.232778 1.81009 0
M  V30 41847 C 4259.46 3.24929 1.58441 0
M  V30 41848 O 4259.18 4.32526 0.696651 0
M  V30 41849 C 4260.68 3.72809 2.39851 0
M  V30 41850 H 4257.9 0.632433 0.224209 0
M  V30 41851 H 4260.44 2.04447 0.0464058 0
M  V30 41852 H 4258.6 3.13328 2.27826 0
M  V30 41853 H 4259.01 5.0938 1.25029 0
M  V30 41854 H 4260.49 4.68943 2.91198 0
M  V30 41855 H 4260.96 3.0165 3.19223 0
M  V30 41856 H 4261.57 3.87343 1.75629 0
M  V30 41857 N 4259.88 -0.346449 1.53745 0
M  V30 41858 C 4260.82 -1.44589 1.77839 0
M  V30 41859 C 4261.83 -1.48839 0.659607 0
M  V30 41860 O 4263.02 -1.51974 0.936279 0
M  V30 41861 C 4260.12 -2.83262 1.86054 0
M  V30 41862 C 4259.29 -3.02486 3.15945 0
M  V30 41863 C 4258.35 -4.21384 3.15154 0
M  V30 41864 O 4257.38 -4.15639 3.88887 0
M  V30 41865 N 4258.58 -5.29774 2.37319 0
M  V30 41866 H 4261.34 -1.24292 2.72711 0
M  V30 41867 H 4258.9 -0.536309 1.52759 0
M  V30 41868 H 4260.9 -3.60972 1.82979 0
M  V30 41869 H 4259.47 -2.96715 0.983805 0
M  V30 41870 H 4258.69 -2.12271 3.32167 0
M  V30 41871 H 4259.97 -3.1221 4.01749 0
M  V30 41872 H 4259.37 -5.37309 1.76961 0
M  V30 41873 H 4257.93 -6.05988 2.40045 0
M  V30 41874 N 4261.36 -1.45429 -0.607304 0
M  V30 41875 C 4262.59 -1.52987 -1.39293 0
M  V30 41876 C 4263.01 -0.162572 -1.88099 0
M  V30 41877 O 4262.36 0.835917 -1.6223 0
M  V30 41878 C 4262.41 -2.51449 -2.59722 0
M  V30 41879 O 4262.13 -3.82865 -2.12945 0
M  V30 41880 C 4263.64 -2.68708 -3.52578 0
M  V30 41881 H 4260.86 -0.518111 -0.426382 0
M  V30 41882 H 4263.4 -1.90618 -0.740612 0
M  V30 41883 H 4261.55 -2.16889 -3.20995 0
M  V30 41884 H 4261.97 -4.36242 -2.91193 0
M  V30 41885 H 4263.44 -3.41578 -4.33623 0
M  V30 41886 H 4263.92 -1.74753 -4.02937 0
M  V30 41887 H 4264.53 -3.04265 -2.97158 0
M  V30 41888 N 4262.84 0.84983 -1.32724 0
M  V30 41889 C 4264.25 1.42039 -1.21169 0
M  V30 41890 C 4264.6 1.95428 0.173858 0
M  V30 41891 O 4263.73 1.87933 1.07286 0
M  V30 41892 C 4264.32 2.58194 -2.19366 0
M  V30 41893 C 4262.88 3.11235 -2.11683 0
M  V30 41894 C 4262.03 1.83996 -2.07462 0
M  V30 41895 H 4264.98 0.656558 -1.44482 0
M  V30 41896 H 4265 3.355 -1.795 0
M  V30 41897 H 4264.51 2.19306 -3.20198 0
M  V30 41898 H 4262.61 3.54695 -1.14116 0
M  V30 41899 H 4262.73 3.72152 -3.01728 0
M  V30 41900 H 4261.09 2.03795 -1.52773 0
M  V30 41901 H 4261.87 1.47319 -3.10084 0
M  V30 41902 N 4264.32 1.16013 1.06671 0
M  V30 41903 C 4265.55 0.963354 1.83104 0
M  V30 41904 C 4265.96 -0.488419 1.82373 0
M  V30 41905 O 4265.32 -1.3389 1.24014 0
M  V30 41906 C 4265.37 1.47843 3.29886 0
M  V30 41907 O 4265.09 2.87334 3.30712 0
M  V30 41908 C 4266.59 1.32413 4.23062 0
M  V30 41909 H 4263.81 0.341715 0.57747 0
M  V30 41910 H 4266.36 1.53951 1.34609 0
M  V30 41911 H 4264.51 0.944651 3.75706 0
M  V30 41912 H 4264.92 3.10838 4.22469 0
M  V30 41913 H 4266.4 1.73288 5.24095 0
M  V30 41914 H 4266.88 0.269181 4.38374 0
M  V30 41915 H 4267.48 1.84733 3.83084 0
M  V30 41916 N 4265.8 -1.25139 0.958014 0
M  V30 41917 C 4267.02 -1.97014 0.631922 0
M  V30 41918 C 4267.44 -1.71168 -0.796678 0
M  V30 41919 O 4266.8 -0.98971 -1.53333 0
M  V30 41920 C 4266.85 -3.50495 0.885198 0
M  V30 41921 O 4266.57 -3.7545 2.25763 0
M  V30 41922 C 4268.07 -4.39595 0.571959 0
M  V30 41923 H 4265.29 -0.627896 0.236617 0
M  V30 41924 H 4267.83 -1.59221 1.28331 0
M  V30 41925 H 4265.99 -3.86386 0.28017 0
M  V30 41926 H 4266.4 -4.6989 2.33031 0
M  V30 41927 H 4267.88 -5.46177 0.799694 0
M  V30 41928 H 4268.35 -4.36418 -0.493566 0
M  V30 41929 H 4268.96 -4.09275 1.15646 0
M  V30 41930 N 4267.27 -0.726981 -1.39831 0
M  V30 41931 C 4268.5 -0.281419 -2.04977 0
M  V30 41932 C 4268.92 1.08089 -1.54797 0
M  V30 41933 O 4268.27 1.68148 -0.709405 0
M  V30 41934 C 4268.33 -0.265247 -3.60526 0
M  V30 41935 O 4268.05 -1.57378 -4.08857 0
M  V30 41936 C 4269.55 0.197469 -4.4286 0
M  V30 41937 H 4266.77 -0.124378 -0.659372 0
M  V30 41938 H 4269.31 -0.988384 -1.79029 0
M  V30 41939 H 4267.47 0.392767 -3.85404 0
M  V30 41940 H 4267.88 -1.48192 -5.0313 0
M  V30 41941 H 4269.35 0.15763 -5.51775 0
M  V30 41942 H 4269.83 1.24142 -4.2129 0
M  V30 41943 H 4270.44 -0.430685 -4.23114 0
M  V30 41944 N 4268.75 1.50303 -0.474008 0
M  V30 41945 C 4270.16 1.8669 -0.0195963 0
M  V30 41946 C 4270.51 1.38858 1.3861 0
M  V30 41947 O 4269.64 0.754808 2.02809 0
M  V30 41948 C 4270.23 3.38788 -0.0287853 0
M  V30 41949 C 4268.79 3.74575 0.370168 0
M  V30 41950 C 4267.94 2.74207 -0.413011 0
M  V30 41951 H 4270.89 1.43005 -0.688141 0
M  V30 41952 H 4270.91 3.72571 0.772724 0
M  V30 41953 H 4270.42 3.7357 -1.05199 0
M  V30 41954 H 4268.53 3.45395 1.39762 0
M  V30 41955 H 4268.64 4.7905 0.0694845 0
M  V30 41956 H 4267 2.54349 0.133665 0
M  V30 41957 H 4267.79 3.11833 -1.43579 0
M  V30 41958 N 4270.23 0.20673 1.56238 0
M  V30 41959 C 4271.48 -0.429233 1.9708 0
M  V30 41960 C 4271.79 -1.61948 1.09692 0
M  V30 41961 O 4273 -2.32399 1.40367 0
M  V30 41962 C 4271.45 -0.815049 3.5055 0
M  V30 41963 C 4271.06 0.351554 4.46619 0
M  V30 41964 C 4272.81 -1.41744 4.00136 0
M  V30 41965 C 4270.71 -0.0558706 5.91374 0
M  V30 41966 H 4269.64 -0.164138 0.735918 0
M  V30 41967 H 4272.29 0.300593 1.81021 0
M  V30 41968 H 4270.68 -1.60188 3.62155 0
M  V30 41969 H 4271.85 1.12911 4.46753 0
M  V30 41970 H 4270.17 0.866205 4.07291 0
M  V30 41971 H 4272.76 -1.73492 5.05771 0
M  V30 41972 H 4273.11 -2.32804 3.4512 0
M  V30 41973 H 4273.64 -0.694354 3.91693 0
M  V30 41974 H 4270.38 0.820837 6.5034 0
M  V30 41975 H 4269.9 -0.798043 5.94467 0
M  V30 41976 H 4271.58 -0.487681 6.45159 0
M  V30 41977 N 4271.71 -1.57458 -0.0667882 0
M  V30 41978 C 4272.94 -1.91724 -0.777782 0
M  V30 41979 C 4273.35 -0.803158 -1.70865 0
M  V30 41980 O 4272.71 0.223175 -1.8113 0
M  V30 41981 C 4272.76 -3.25764 -1.56716 0
M  V30 41982 O 4272.48 -4.32889 -0.673703 0
M  V30 41983 C 4273.98 -3.74076 -2.3787 0
M  V30 41984 H 4271.2 -0.633613 -0.220852 0
M  V30 41985 H 4273.75 -2.04469 -0.0355628 0
M  V30 41986 H 4271.9 -3.14531 -2.26161 0
M  V30 41987 H 4272.31 -5.10036 -1.22326 0
M  V30 41988 H 4273.79 -4.70481 -2.88707 0
M  V30 41989 H 4274.27 -3.03339 -3.17619 0
M  V30 41990 H 4274.87 -3.88269 -1.73572 0
M  V30 41991 N 4273.19 0.33829 -1.53926 0
M  V30 41992 C 4274.42 1.09786 -1.7537 0
M  V30 41993 C 4274.83 1.82187 -0.495326 0
M  V30 41994 O 4274.19 1.74535 0.533286 0
M  V30 41995 C 4274.24 2.10731 -2.93726 0
M  V30 41996 O 4273.96 1.41273 -4.14697 0
M  V30 41997 C 4275.46 2.99021 -3.27263 0
M  V30 41998 H 4272.68 0.327177 -0.585829 0
M  V30 41999 H 4275.22 0.388896 -2.00768 0
M  V30 42000 H 4273.38 2.77183 -2.70644 0
M  V30 42001 H 4273.79 2.0875 -4.81169 0
M  V30 42002 H 4275.27 3.65776 -4.13415 0
M  V30 42003 H 4275.74 3.65325 -2.43792 0
M  V30 42004 H 4276.35 2.3815 -3.5237 0
M  V30 42005 N 4274.67 1.45749 0.599583 0
M  V30 42006 C 4275.89 1.53723 1.3848 0
M  V30 42007 C 4276.31 0.172545 1.8801 0
M  V30 42008 O 4275.67 -0.827302 1.62671 0
M  V30 42009 C 4275.72 2.52823 2.58385 0
M  V30 42010 O 4275.44 3.83989 2.10912 0
M  V30 42011 C 4276.94 2.70574 3.51148 0
M  V30 42012 H 4274.16 0.520365 0.423628 0
M  V30 42013 H 4276.7 1.91008 0.730493 0
M  V30 42014 H 4274.86 2.18588 3.1984 0
M  V30 42015 H 4275.27 4.3778 2.88875 0
M  V30 42016 H 4276.75 3.43873 4.31805 0
M  V30 42017 H 4277.22 1.76887 4.02004 0
M  V30 42018 H 4277.83 3.05837 2.9554 0
M  V30 42019 N 4276.14 -0.84278 1.33173 0
M  V30 42020 C 4277.37 -1.62995 1.27437 0
M  V30 42021 C 4277.79 -1.88159 -0.155444 0
M  V30 42022 O 4277.14 -1.45899 -1.09635 0
M  V30 42023 C 4277.19 -2.98242 2.0429 0
M  V30 42024 O 4276.92 -2.74185 3.41693 0
M  V30 42025 C 4278.42 -3.92677 2.05718 0
M  V30 42026 H 4275.64 -0.507294 0.439196 0
M  V30 42027 H 4278.18 -1.05004 1.75483 0
M  V30 42028 H 4276.34 -3.52845 1.59936 0
M  V30 42029 H 4276.75 -3.60282 3.81179 0
M  V30 42030 H 4278.22 -4.84802 2.63952 0
M  V30 42031 H 4278.7 -4.26552 1.04644 0
M  V30 42032 H 4279.31 -3.44011 2.50073 0
M  V30 42033 N 4277.62 -1.16577 -1.06054 0
M  V30 42034 C 4278.85 -0.973051 -1.82591 0
M  V30 42035 C 4279.26 0.478741 -1.82629 0
M  V30 42036 O 4278.62 1.33231 -1.24723 0
M  V30 42037 C 4278.67 -1.49591 -3.29097 0
M  V30 42038 O 4278.39 -2.89084 -3.29184 0
M  V30 42039 C 4279.89 -1.34654 -4.22354 0
M  V30 42040 H 4277.11 -0.344773 -0.57565 0
M  V30 42041 H 4279.66 -1.54662 -1.3379 0
M  V30 42042 H 4277.81 -0.964562 -3.752 0
M  V30 42043 H 4278.23 -3.13074 -4.20815 0
M  V30 42044 H 4279.7 -1.76065 -5.23168 0
M  V30 42045 H 4280.18 -0.292425 -4.38225 0
M  V30 42046 H 4280.78 -1.86762 -3.82099 0
M  V30 42047 N 4279.1 1.2463 -0.964637 0
M  V30 42048 C 4280.35 1.92904 -0.625775 0
M  V30 42049 C 4280.68 1.75261 0.836498 0
M  V30 42050 O 4279.95 1.10381 1.60144 0
M  V30 42051 C 4280.24 3.46008 -0.997534 0
M  V30 42052 C 4280.09 3.72832 -2.51628 0
M  V30 42053 C 4281.41 4.36899 -0.529855 0
M  V30 42054 H 4278.53 0.70058 -0.228816 0
M  V30 42055 H 4281.17 1.47057 -1.20309 0
M  V30 42056 H 4279.32 3.85187 -0.506275 0
M  V30 42057 H 4280.99 3.4323 -3.08206 0
M  V30 42058 H 4279.23 3.1809 -2.9496 0
M  V30 42059 H 4279.91 4.79942 -2.72689 0
M  V30 42060 H 4282.38 4.05077 -0.951397 0
M  V30 42061 H 4281.26 5.42762 -0.818567 0
M  V30 42062 H 4281.52 4.38409 0.570101 0
M  V30 42063 N 4280.58 0.734386 1.39444 0
M  V30 42064 C 4281.81 0.292286 2.04825 0
M  V30 42065 C 4282.22 -1.07267 1.55368 0
M  V30 42066 O 4281.58 -1.67769 0.718312 0
M  V30 42067 C 4281.63 0.284363 3.6038 0
M  V30 42068 O 4281.35 1.59544 4.08016 0
M  V30 42069 C 4282.85 -0.17398 4.42958 0
M  V30 42070 H 4280.07 0.127873 0.658703 0
M  V30 42071 H 4282.61 0.997864 1.78502 0
M  V30 42072 H 4280.77 -0.372323 3.85607 0
M  V30 42073 H 4281.18 1.50858 5.02337 0
M  V30 42074 H 4282.66 -0.128365 5.51851 0
M  V30 42075 H 4283.13 -1.21906 4.21943 0
M  V30 42076 H 4283.74 0.453118 4.22879 0
M  V30 42077 N 4282.06 -1.50049 0.481972 0
M  V30 42078 C 4283.47 -1.86677 0.0294967 0
M  V30 42079 C 4283.82 -1.39592 -1.37872 0
M  V30 42080 O 4282.94 -0.765553 -2.02406 0
M  V30 42081 C 4283.54 -3.38768 0.0467516 0
M  V30 42082 C 4282.1 -3.74766 -0.350299 0
M  V30 42083 C 4281.24 -2.73984 0.427547 0
M  V30 42084 H 4284.19 -1.42638 0.695715 0
M  V30 42085 H 4284.22 -3.72976 -0.752955 0
M  V30 42086 H 4283.73 -3.73007 1.07179 0
M  V30 42087 H 4281.83 -3.46131 -1.37928 0
M  V30 42088 H 4281.94 -4.7908 -0.0440784 0
M  V30 42089 H 4280.31 -2.54416 -0.120175 0
M  V30 42090 H 4281.09 -3.11068 1.4523 0
M  V30 42091 N 4283.53 -0.215012 -1.56126 0
M  V30 42092 C 4284.76 0.423498 -2.02519 0
M  V30 42093 C 4285.18 1.53808 -1.09492 0
M  V30 42094 O 4284.53 1.82207 -0.103335 0
M  V30 42095 C 4284.58 0.961252 -3.48486 0
M  V30 42096 O 4284.31 -0.108883 -4.37965 0
M  V30 42097 C 4285.81 1.67366 -4.10492 0
M  V30 42098 H 4283.03 0.104347 -0.662837 0
M  V30 42099 H 4285.57 -0.329552 -2.01827 0
M  V30 42100 H 4283.73 1.6646 -3.49814 0
M  V30 42101 H 4284.14 0.294321 -5.23674 0
M  V30 42102 H 4285.61 2.002 -5.14416 0
M  V30 42103 H 4286.09 2.58449 -3.55107 0
M  V30 42104 H 4286.7 1.01567 -4.12994 0
M  V30 42105 N 4285.01 1.57492 0.0584368 0
M  V30 42106 C 4286.42 1.76499 0.608674 0
M  V30 42107 C 4286.77 0.842271 1.77201 0
M  V30 42108 O 4285.9 0.0296645 2.1638 0
M  V30 42109 C 4286.49 3.20068 1.11095 0
M  V30 42110 C 4285.05 3.40374 1.60694 0
M  V30 42111 C 4284.2 2.72147 0.532111 0
M  V30 42112 H 4287.15 1.57811 -0.167769 0
M  V30 42113 H 4287.17 3.24963 1.97937 0
M  V30 42114 H 4286.68 3.87201 0.264044 0
M  V30 42115 H 4284.78 2.78374 2.47666 0
M  V30 42116 H 4284.9 4.48878 1.67468 0
M  V30 42117 H 4283.26 2.35079 0.980313 0
M  V30 42118 H 4284.04 3.41944 -0.304834 0
M  V30 42119 N 4286.49 -0.330122 1.54104 0
M  V30 42120 C 4287.72 -1.08854 1.7595 0
M  V30 42121 C 4288.13 -1.81921 0.504981 0
M  V30 42122 O 4287.49 -1.74815 -0.524022 0
M  V30 42123 C 4287.54 -2.0917 2.94839 0
M  V30 42124 O 4287.26 -1.39072 4.1544 0
M  V30 42125 C 4288.76 -2.97282 3.28844 0
M  V30 42126 H 4285.98 -0.324066 0.587556 0
M  V30 42127 H 4288.53 -0.378244 2.00972 0
M  V30 42128 H 4286.68 -2.75744 2.7211 0
M  V30 42129 H 4287.1 -2.06196 4.82269 0
M  V30 42130 H 4288.57 -3.63578 4.15349 0
M  V30 42131 H 4289.05 -3.64027 2.45726 0
M  V30 42132 H 4289.65 -2.36278 3.53628 0
M  V30 42133 N 4287.97 -1.46065 -0.591845 0
M  V30 42134 C 4289.38 -1.45176 -1.17392 0
M  V30 42135 C 4289.73 -0.187714 -1.953 0
M  V30 42136 O 4288.86 0.709778 -2.04429 0
M  V30 42137 C 4289.45 -2.6302 -2.13555 0
M  V30 42138 C 4288.01 -2.65201 -2.67105 0
M  V30 42139 C 4287.16 -2.37703 -1.42802 0
M  V30 42140 H 4290.11 -1.54077 -0.380278 0
M  V30 42141 H 4290.13 -2.38017 -2.96864 0
M  V30 42142 H 4289.64 -3.55004 -1.56824 0
M  V30 42143 H 4287.74 -1.77266 -3.27731 0
M  V30 42144 H 4287.85 -3.64896 -3.10464 0
M  V30 42145 H 4286.22 -1.87576 -1.723 0
M  V30 42146 H 4287 -3.31852 -0.879157 0
M  V30 42147 N 4289.45 0.835705 -1.33618 0
M  V30 42148 C 4290.67 1.62317 -1.283 0
M  V30 42149 C 4291.09 1.88239 0.145463 0
M  V30 42150 O 4290.45 1.46478 1.0886 0
M  V30 42151 C 4290.5 2.97154 -2.05868 0
M  V30 42152 O 4290.22 2.72369 -3.43142 0
M  V30 42153 C 4291.72 3.9158 -2.07798 0
M  V30 42154 H 4288.94 0.504958 -0.441881 0
M  V30 42155 H 4291.48 1.04072 -1.76038 0
M  V30 42156 H 4289.64 3.51991 -1.61805 0
M  V30 42157 H 4290.05 3.58255 -3.83084 0
M  V30 42158 H 4291.53 4.83396 -2.66519 0
M  V30 42159 H 4292 4.25991 -1.06905 0
M  V30 42160 H 4292.61 3.4268 -2.51894 0
M  V30 42161 N 4290.92 1.17138 1.05434 0
M  V30 42162 C 4292.17 0.956363 1.7804 0
M  V30 42163 C 4292.49 -0.516491 1.88036 0
M  V30 42164 O 4291.76 -1.37503 1.39534 0
M  V30 42165 H 4290.34 0.350855 0.659477 0
M  V30 42166 H 4293.01 1.47568 1.27317 0
M  V30 42167 H 4292.1 1.38258 2.79806 0
M  V30 42168 N 4292.4 -1.24116 0.971232 0
M  V30 42169 C 4293.63 -1.96332 0.652783 0
M  V30 42170 C 4294.05 -1.72003 -0.778478 0
M  V30 42171 O 4293.4 -1.00592 -1.52275 0
M  V30 42172 C 4293.45 -3.49536 0.922323 0
M  V30 42173 O 4293.17 -3.73035 2.29732 0
M  V30 42174 C 4294.68 -4.38963 0.618552 0
M  V30 42175 H 4291.9 -0.625351 0.243263 0
M  V30 42176 H 4294.44 -1.57851 1.30013 0
M  V30 42177 H 4292.59 -3.86067 0.321135 0
M  V30 42178 H 4293.01 -4.67392 2.38002 0
M  V30 42179 H 4294.48 -5.45298 0.857578 0
M  V30 42180 H 4294.96 -4.36917 -0.44725 0
M  V30 42181 H 4295.57 -4.08025 1.1998 0
M  V30 42182 N 4293.88 -0.741771 -1.39052 0
M  V30 42183 C 4294.81 -0.0665654 -2.29103 0
M  V30 42184 C 4295.83 0.696305 -1.47158 0
M  V30 42185 O 4297.01 0.539348 -1.70157 0
M  V30 42186 C 4294.11 0.929902 -3.25893 0
M  V30 42187 C 4293.29 0.227142 -4.3681 0
M  V30 42188 C 4292.35 1.13267 -5.13865 0
M  V30 42189 O 4291.37 0.607619 -5.65948 0
M  V30 42190 N 4292.57 2.46182 -5.25713 0
M  V30 42191 H 4295.34 -0.839886 -2.87691 0
M  V30 42192 H 4292.9 -0.591559 -1.50706 0
M  V30 42193 H 4294.89 1.53845 -3.74318 0
M  V30 42194 H 4293.46 1.60438 -2.68288 0
M  V30 42195 H 4292.68 -0.561968 -3.90174 0
M  V30 42196 H 4293.97 -0.259612 -5.08137 0
M  V30 42197 H 4293.37 2.91309 -4.84928 0
M  V30 42198 H 4291.93 3.02116 -5.77554 0
M  V30 42199 N 4295.36 1.49792 -0.489923 0
M  V30 42200 C 4296.59 2.06825 0.0556434 0
M  V30 42201 C 4297 1.3516 1.31822 0
M  V30 42202 O 4296.36 0.426534 1.77446 0
M  V30 42203 C 4296.41 3.6004 0.32454 0
M  V30 42204 O 4296.13 4.29006 -0.887979 0
M  V30 42205 C 4297.63 4.33754 0.914983 0
M  V30 42206 H 4294.85 0.670821 -0.0155007 0
M  V30 42207 H 4297.4 1.92718 -0.684107 0
M  V30 42208 H 4295.55 3.73887 1.01425 0
M  V30 42209 H 4295.96 5.20531 -0.644045 0
M  V30 42210 H 4297.44 5.41868 1.05278 0
M  V30 42211 H 4297.92 3.95496 1.90996 0
M  V30 42212 H 4298.52 4.24486 0.26308 0
M  V30 42213 N 4296.84 0.223289 1.5601 0
M  V30 42214 C 4298.25 -0.284244 1.84524 0
M  V30 42215 C 4298.6 -1.59345 1.14471 0
M  V30 42216 O 4297.72 -2.12384 0.41497 0
M  V30 42217 C 4298.32 -0.522507 3.34747 0
M  V30 42218 C 4296.88 -0.974345 3.6357 0
M  V30 42219 C 4296.02 -0.0383793 2.77273 0
M  V30 42220 H 4298.98 0.446439 1.52291 0
M  V30 42221 H 4299 -1.36828 3.55047 0
M  V30 42222 H 4298.51 0.430521 3.85705 0
M  V30 42223 H 4296.61 -1.94067 3.1807 0
M  V30 42224 H 4296.72 -0.847551 4.71544 0
M  V30 42225 H 4295.09 -0.545488 2.4879 0
M  V30 42226 H 4295.87 0.909597 3.31031 0
M  V30 42227 N 4298.31 -1.5752 -0.0500839 0
M  V30 42228 C 4299.54 -1.92538 -0.757403 0
M  V30 42229 C 4299.96 -0.821235 -1.70003 0
M  V30 42230 O 4299.31 0.203951 -1.81357 0
M  V30 42231 C 4299.37 -3.27408 -1.53252 0
M  V30 42232 O 4299.09 -4.33579 -0.627751 0
M  V30 42233 C 4300.59 -3.76578 -2.33889 0
M  V30 42234 H 4297.81 -0.63592 -0.214119 0
M  V30 42235 H 4300.35 -2.04495 -0.0138741 0
M  V30 42236 H 4298.51 -3.16912 -2.22812 0
M  V30 42237 H 4298.92 -5.11305 -1.16909 0
M  V30 42238 H 4300.39 -4.73516 -2.83701 0
M  V30 42239 H 4300.87 -3.06691 -3.14384 0
M  V30 42240 H 4301.48 -3.90088 -1.69444 0
M  V30 42241 N 4299.79 0.321945 -1.54277 0
M  V30 42242 C 4301.02 1.0792 -1.76525 0
M  V30 42243 C 4301.44 1.81651 -0.514621 0
M  V30 42244 O 4300.79 1.7509 0.514744 0
M  V30 42245 C 4300.84 2.07603 -2.95944 0
M  V30 42246 O 4300.56 1.36866 -4.16172 0
M  V30 42247 C 4302.07 2.95533 -3.30416 0
M  V30 42248 H 4299.29 0.320945 -0.589267 0
M  V30 42249 H 4301.83 0.36758 -2.01169 0
M  V30 42250 H 4299.98 2.74297 -2.73569 0
M  V30 42251 H 4300.4 2.03635 -4.83356 0
M  V30 42252 H 4301.87 3.6137 -4.17271 0
M  V30 42253 H 4302.35 3.62718 -2.47653 0
M  V30 42254 H 4302.96 2.34399 -3.54876 0
M  V30 42255 N 4301.27 1.46377 0.58409 0
M  V30 42256 C 4302.5 1.55184 1.36842 0
M  V30 42257 C 4302.91 0.192476 1.87816 0
M  V30 42258 O 4302.27 -0.810002 1.6354 0
M  V30 42259 C 4302.32 2.55549 2.55689 0
M  V30 42260 O 4302.04 3.86205 2.06827 0
M  V30 42261 C 4303.54 2.74283 3.48258 0
M  V30 42262 H 4300.76 0.524829 0.418085 0
M  V30 42263 H 4303.31 1.91772 0.710193 0
M  V30 42264 H 4301.46 2.21968 3.17504 0
M  V30 42265 H 4301.88 4.40819 2.84216 0
M  V30 42266 H 4303.35 3.48433 4.28134 0
M  V30 42267 H 4303.83 1.81141 4.00106 0
M  V30 42268 H 4304.43 3.08954 2.9228 0
M  V30 42269 N 4302.75 -0.828607 1.34059 0
M  V30 42270 C 4304.16 -1.40093 1.23413 0
M  V30 42271 C 4304.51 -1.9568 -0.142745 0
M  V30 42272 O 4303.64 -1.89616 -1.04283 0
M  V30 42273 C 4304.23 -2.54671 2.23446 0
M  V30 42274 C 4302.79 -3.07828 2.16608 0
M  V30 42275 C 4301.94 -1.80673 2.10363 0
M  V30 42276 H 4304.89 -0.633489 1.45508 0
M  V30 42277 H 4304.91 -3.32602 1.84815 0
M  V30 42278 H 4304.42 -2.14184 3.23646 0
M  V30 42279 H 4302.52 -3.52834 1.19744 0
M  V30 42280 H 4302.64 -3.67305 3.0761 0
M  V30 42281 H 4301 -2.01339 1.55996 0
M  V30 42282 H 4301.78 -1.42367 3.12388 0
M  V30 42283 N 4304.23 -1.17696 -1.04812 0
M  V30 42284 C 4305.48 -0.962107 -1.77275 0
M  V30 42285 C 4305.79 0.509959 -1.88835 0
M  V30 42286 O 4307 0.843121 -2.58077 0
M  V30 42287 C 4305.45 -1.67227 -3.1869 0
M  V30 42288 C 4305.06 -3.18313 -3.15247 0
M  V30 42289 C 4306.8 -1.53995 -3.95583 0
M  V30 42290 C 4304.71 -3.82001 -4.51474 0
M  V30 42291 H 4303.64 -0.356339 -0.664483 0
M  V30 42292 H 4306.29 -1.4099 -1.17449 0
M  V30 42293 H 4304.67 -1.15223 -3.78866 0
M  V30 42294 H 4305.85 -3.77282 -2.64566 0
M  V30 42295 H 4304.16 -3.316 -2.51853 0
M  V30 42296 H 4306.76 -1.98945 -4.96311 0
M  V30 42297 H 4307.1 -0.491075 -4.13393 0
M  V30 42298 H 4307.64 -2.03238 -3.41964 0
M  V30 42299 H 4304.37 -4.86903 -4.38869 0
M  V30 42300 H 4303.89 -3.2782 -5.02289 0
M  V30 42301 H 4305.57 -3.8443 -5.20406 0
M  V30 42302 N 4305.71 1.23599 -0.977801 0
M  V30 42303 C 4306.93 1.95983 -0.663185 0
M  V30 42304 C 4307.35 1.72414 0.769346 0
M  V30 42305 O 4306.71 1.01398 1.51739 0
M  V30 42306 C 4306.76 3.49042 -0.940847 0
M  V30 42307 O 4306.48 3.71811 -2.31707 0
M  V30 42308 C 4307.98 4.38629 -0.641822 0
M  V30 42309 H 4305.2 0.624052 -0.246576 0
M  V30 42310 H 4307.74 1.57159 -1.30848 0
M  V30 42311 H 4305.9 3.85891 -0.341605 0
M  V30 42312 H 4306.31 4.66123 -2.40477 0
M  V30 42313 H 4307.79 5.44835 -0.886485 0
M  V30 42314 H 4308.26 4.37148 0.424073 0
M  V30 42315 H 4308.87 4.07383 -1.22143 0
M  V30 42316 N 4307.18 0.749135 1.38657 0
M  V30 42317 C 4308.41 0.313994 2.04504 0
M  V30 42318 C 4308.83 -1.05613 1.56497 0
M  V30 42319 O 4308.18 -1.66998 0.736066 0
M  V30 42320 C 4308.23 0.32257 3.60058 0
M  V30 42321 O 4307.96 1.63862 4.06301 0
M  V30 42322 C 4309.46 -0.126989 4.43118 0
M  V30 42323 H 4306.68 0.134852 0.65731 0
M  V30 42324 H 4309.22 1.01674 1.77433 0
M  V30 42325 H 4307.38 -0.331403 3.8598 0
M  V30 42326 H 4307.79 1.56177 5.00708 0
M  V30 42327 H 4309.26 -0.069827 5.51956 0
M  V30 42328 H 4309.74 -1.17424 4.23212 0
M  V30 42329 H 4310.35 0.497944 4.22375 0
M  V30 42330 N 4308.66 -1.4953 0.49786 0
M  V30 42331 C 4309.89 -2.06852 -0.0446742 0
M  V30 42332 C 4310.3 -1.35857 -1.31104 0
M  V30 42333 O 4309.66 -0.435939 -1.77217 0
M  V30 42334 C 4309.71 -3.60207 -0.305442 0
M  V30 42335 O 4309.43 -4.2853 0.910718 0
M  V30 42336 C 4310.93 -4.34234 -0.891967 0
M  V30 42337 H 4308.15 -0.670729 0.019058 0
M  V30 42338 H 4310.7 -1.92352 0.694318 0
M  V30 42339 H 4308.85 -3.7442 -0.994409 0
M  V30 42340 H 4309.27 -5.20182 0.671641 0
M  V30 42341 H 4310.74 -5.42418 -1.02403 0
M  V30 42342 H 4311.22 -3.96503 -1.88896 0
M  V30 42343 H 4311.82 -4.24619 -0.240565 0
M  V30 42344 N 4310.14 -0.23156 -1.5589 0
M  V30 42345 C 4311.37 0.401994 -2.02957 0
M  V30 42346 C 4311.78 1.52638 -1.11117 0
M  V30 42347 O 4311.14 1.82087 -0.122655 0
M  V30 42348 C 4311.19 0.924236 -3.49486 0
M  V30 42349 O 4310.91 -0.155329 -4.37825 0
M  V30 42350 C 4312.41 1.63003 -4.12244 0
M  V30 42351 H 4309.63 0.0973113 -0.663906 0
M  V30 42352 H 4312.18 -0.35094 -2.01466 0
M  V30 42353 H 4310.33 1.6274 -3.5156 0
M  V30 42354 H 4310.75 0.238762 -5.23956 0
M  V30 42355 H 4312.22 1.94733 -5.1651 0
M  V30 42356 H 4312.7 2.54668 -3.57828 0
M  V30 42357 H 4313.3 0.971814 -4.14048 0
M  V30 42358 N 4311.62 1.57545 0.0417295 0
M  V30 42359 C 4312.85 1.92937 0.747181 0
M  V30 42360 C 4313.26 0.830239 1.69566 0
M  V30 42361 O 4312.62 -0.194331 1.81462 0
M  V30 42362 C 4312.67 3.28216 1.51514 0
M  V30 42363 O 4312.39 4.33906 0.604749 0
M  V30 42364 C 4313.89 3.77813 2.31889 0
M  V30 42365 H 4311.11 0.637046 0.210744 0
M  V30 42366 H 4313.65 2.045 0.00302902 0
M  V30 42367 H 4311.81 3.1809 2.21128 0
M  V30 42368 H 4312.22 5.11918 1.14196 0
M  V30 42369 H 4313.7 4.75014 2.81186 0
M  V30 42370 H 4314.17 3.08354 3.12753 0
M  V30 42371 H 4314.78 3.90981 1.67373 0
M  V30 42372 N 4313.1 -0.313759 1.54445 0
M  V30 42373 C 4314.34 -1.05209 1.73375 0
M  V30 42374 C 4314.67 -1.87351 0.511198 0
M  V30 42375 O 4313.95 -1.8818 -0.4918 0
M  V30 42376 C 4314.23 -1.96869 3.01521 0
M  V30 42377 C 4314.09 -1.17991 4.34049 0
M  V30 42378 C 4315.4 -2.96242 3.25467 0
M  V30 42379 H 4312.52 -0.381081 0.63083 0
M  V30 42380 H 4315.17 -0.327858 1.8715 0
M  V30 42381 H 4313.32 -2.58623 2.89908 0
M  V30 42382 H 4314.99 -0.586221 4.5756 0
M  V30 42383 H 4313.23 -0.482361 4.3111 0
M  V30 42384 H 4313.9 -1.85346 5.19953 0
M  V30 42385 H 4316.38 -2.44613 3.36606 0
M  V30 42386 H 4315.25 -3.57552 4.16471 0
M  V30 42387 H 4315.51 -3.69225 2.43158 0
M  V30 42388 N 4314.57 -1.46684 -0.576319 0
M  V30 42389 C 4315.8 -1.55907 -1.36017 0
M  V30 42390 C 4316.22 -0.202434 -1.87712 0
M  V30 42391 O 4315.57 0.801317 -1.63967 0
M  V30 42392 C 4315.62 -2.56902 -2.5433 0
M  V30 42393 O 4315.35 -3.87296 -2.04776 0
M  V30 42394 C 4316.85 -2.76126 -3.46799 0
M  V30 42395 H 4314.07 -0.527039 -0.415296 0
M  V30 42396 H 4316.61 -1.92146 -0.700013 0
M  V30 42397 H 4314.77 -2.23649 -3.16322 0
M  V30 42398 H 4315.18 -4.4232 -2.81874 0
M  V30 42399 H 4316.65 -3.50699 -4.2628 0
M  V30 42400 H 4317.13 -1.8326 -3.99139 0
M  V30 42401 H 4317.74 -3.105 -2.90637 0
M  V30 42402 N 4316.05 0.821486 -1.34497 0
M  V30 42403 C 4317.46 1.39437 -1.24154 0
M  V30 42404 C 4317.81 1.95753 0.132366 0
M  V30 42405 O 4316.94 1.90166 1.03276 0
M  V30 42406 C 4317.53 2.53483 -2.24793 0
M  V30 42407 C 4316.09 3.06675 -2.18237 0
M  V30 42408 C 4315.24 1.79554 -2.11318 0
M  V30 42409 H 4318.19 0.625763 -1.45842 0
M  V30 42410 H 4318.21 3.31617 -1.86576 0
M  V30 42411 H 4317.72 2.12465 -3.24777 0
M  V30 42412 H 4315.82 3.52194 -1.21614 0
M  V30 42413 H 4315.94 3.65668 -3.09554 0
M  V30 42414 H 4314.3 2.00509 -1.57062 0
M  V30 42415 H 4315.08 1.40709 -3.13139 0
M  V30 42416 N 4317.53 1.1825 1.04186 0
M  V30 42417 C 4318.76 1.00198 1.81019 0
M  V30 42418 C 4319.17 -0.449625 1.83368 0
M  V30 42419 O 4318.53 -1.3123 1.26827 0
M  V30 42420 C 4318.58 1.54808 3.26676 0
M  V30 42421 O 4318.3 2.94285 3.24543 0
M  V30 42422 C 4319.8 1.41357 4.20159 0
M  V30 42423 H 4317.02 0.353887 0.570092 0
M  V30 42424 H 4319.57 1.56771 1.31313 0
M  V30 42425 H 4317.72 1.02413 3.73618 0
M  V30 42426 H 4318.14 3.19729 4.15781 0
M  V30 42427 H 4319.61 1.84366 5.20301 0
M  V30 42428 H 4320.09 0.362106 4.37705 0
M  V30 42429 H 4320.69 1.92817 3.7908 0
M  V30 42430 N 4319.01 -1.23079 0.984342 0
M  V30 42431 C 4320.42 -1.7341 0.691809 0
M  V30 42432 C 4320.77 -1.79514 -0.791783 0
M  V30 42433 O 4319.9 -1.43566 -1.61919 0
M  V30 42434 C 4320.49 -3.14933 1.24911 0
M  V30 42435 C 4319.05 -3.62703 1.00614 0
M  V30 42436 C 4318.2 -2.40839 1.37447 0
M  V30 42437 H 4321.15 -1.08547 1.15772 0
M  V30 42438 H 4321.17 -3.75357 0.623467 0
M  V30 42439 H 4320.68 -3.10458 2.3289 0
M  V30 42440 H 4318.78 -3.72556 -0.0573901 0
M  V30 42441 H 4318.89 -4.49294 1.66349 0
M  V30 42442 H 4317.26 -2.42042 0.792968 0
M  V30 42443 H 4318.04 -2.39032 2.46411 0
M  V30 42444 N 4320.49 -0.756478 -1.38258 0
M  V30 42445 C 4321.71 -0.324835 -2.04334 0
M  V30 42446 C 4322.13 1.04781 -1.57055 0
M  V30 42447 O 4321.49 1.66605 -0.744912 0
M  V30 42448 C 4321.54 -0.34166 -3.59882 0
M  V30 42449 O 4321.26 -1.66015 -4.05427 0
M  V30 42450 C 4322.76 0.103487 -4.43179 0
M  V30 42451 H 4319.98 -0.138336 -0.656585 0
M  V30 42452 H 4322.52 -1.02614 -1.76892 0
M  V30 42453 H 4320.68 0.310929 -3.8615 0
M  V30 42454 H 4321.09 -1.58831 -4.99873 0
M  V30 42455 H 4322.57 0.0405545 -5.51985 0
M  V30 42456 H 4323.04 1.15178 -4.23829 0
M  V30 42457 H 4323.65 -0.520337 -4.22105 0
M  V30 42458 N 4321.96 1.49264 -0.505783 0
M  V30 42459 C 4323.38 1.86606 -0.0591916 0
M  V30 42460 C 4323.73 1.41767 1.35634 0
M  V30 42461 O 4322.85 0.797657 2.01163 0
M  V30 42462 C 4323.45 3.3865 -0.100641 0
M  V30 42463 C 4322.01 3.75276 0.290632 0
M  V30 42464 C 4321.15 2.73269 -0.471081 0
M  V30 42465 H 4324.1 1.41513 -0.718319 0
M  V30 42466 H 4324.12 3.74126 0.693522 0
M  V30 42467 H 4323.64 3.71255 -1.131 0
M  V30 42468 H 4321.74 3.48281 1.32404 0
M  V30 42469 H 4321.85 4.79089 -0.0321446 0
M  V30 42470 H 4320.21 2.54575 0.0796841 0
M  V30 42471 H 4321 3.08718 -1.50161 0
M  V30 42472 N 4323.44 0.239823 1.55765 0
M  V30 42473 C 4324.67 -0.391225 2.03168 0
M  V30 42474 C 4325.09 -1.52047 1.11925 0
M  V30 42475 O 4324.44 -1.8202 0.13231 0
M  V30 42476 C 4324.49 -0.905689 3.49971 0
M  V30 42477 O 4324.21 0.178545 4.37736 0
M  V30 42478 C 4325.72 -1.60814 4.13103 0
M  V30 42479 H 4322.94 -0.0937891 0.664413 0
M  V30 42480 H 4325.48 0.361619 2.01277 0
M  V30 42481 H 4323.63 -1.60874 3.52418 0
M  V30 42482 H 4324.05 -0.210972 5.24076 0
M  V30 42483 H 4325.52 -1.91991 5.17536 0
M  V30 42484 H 4326 -2.52766 3.59174 0
M  V30 42485 H 4326.61 -0.949842 4.14558 0
M  V30 42486 N 4324.92 -1.57565 -0.0333739 0
M  V30 42487 C 4326.17 -1.88701 -0.723618 0
M  V30 42488 C 4326.49 -0.83696 -1.76125 0
M  V30 42489 O 4325.76 0.129946 -1.95469 0
M  V30 42490 H 4324.34 -0.6964 -0.270251 0
M  V30 42491 H 4327 -1.949 -0.00034676 0
M  V30 42492 H 4326.1 -2.87442 -1.21589 0
M  V30 42493 N 4326.4 0.305564 -1.54609 0
M  V30 42494 C 4327.63 1.06041 -1.77659 0
M  V30 42495 C 4328.04 1.81095 -0.533859 0
M  V30 42496 O 4327.4 1.75626 0.496144 0
M  V30 42497 C 4327.45 2.04453 -2.9813 0
M  V30 42498 O 4327.17 1.32445 -4.176 0
M  V30 42499 C 4328.67 2.92012 -3.33532 0
M  V30 42500 H 4325.89 0.314677 -0.592637 0
M  V30 42501 H 4328.44 0.346223 -2.01548 0
M  V30 42502 H 4326.59 2.7138 -2.76463 0
M  V30 42503 H 4327 1.98497 -4.85489 0
M  V30 42504 H 4328.48 3.56924 -4.21081 0
M  V30 42505 H 4328.96 3.60071 -2.51486 0
M  V30 42506 H 4329.56 2.30622 -3.57342 0
M  V30 42507 N 4327.88 1.46988 0.568532 0
M  V30 42508 C 4328.81 1.5467 1.69144 0
M  V30 42509 C 4329.82 0.433817 1.56914 0
M  V30 42510 O 4331.01 0.702882 1.64079 0
M  V30 42511 C 4328.11 1.42426 3.07519 0
M  V30 42512 C 4327.28 2.68084 3.45615 0
M  V30 42513 C 4326.34 2.49837 4.63107 0
M  V30 42514 O 4325.37 3.23613 4.68255 0
M  V30 42515 N 4326.57 1.56924 5.58887 0
M  V30 42516 H 4329.34 2.51495 1.63004 0
M  V30 42517 H 4326.9 1.43224 0.754885 0
M  V30 42518 H 4328.89 1.2797 3.83935 0
M  V30 42519 H 4327.46 0.537276 3.07948 0
M  V30 42520 H 4326.68 2.97382 2.58761 0
M  V30 42521 H 4327.97 3.51529 3.67838 0
M  V30 42522 H 4327.36 0.96114 5.57475 0
M  V30 42523 H 4325.92 1.48425 6.34676 0
M  V30 42524 N 4329.35 -0.814342 1.3493 0
M  V30 42525 C 4330.58 -1.60255 1.30866 0
M  V30 42526 C 4331 -1.88446 -0.115497 0
M  V30 42527 O 4330.35 -1.48191 -1.06516 0
M  V30 42528 C 4330.41 -2.93841 2.1057 0
M  V30 42529 O 4330.13 -2.66876 3.47432 0
M  V30 42530 C 4331.63 -3.88225 2.14001 0
M  V30 42531 H 4328.85 -0.497864 0.449858 0
M  V30 42532 H 4331.39 -1.01258 1.77671 0
M  V30 42533 H 4329.55 -3.49373 1.67384 0
M  V30 42534 H 4329.96 -3.52115 3.88735 0
M  V30 42535 H 4331.43 -4.79094 2.74176 0
M  V30 42536 H 4331.91 -4.24236 1.13668 0
M  V30 42537 H 4332.52 -3.38629 2.57314 0
M  V30 42538 N 4330.83 -1.18801 -1.03557 0
M  V30 42539 C 4332.24 -0.989895 -1.58297 0
M  V30 42540 C 4332.59 0.459044 -1.90754 0
M  V30 42541 O 4331.72 1.33728 -1.70134 0
M  V30 42542 C 4332.31 -1.79059 -2.87617 0
M  V30 42543 C 4330.87 -1.63668 -3.38954 0
M  V30 42544 C 4330.02 -1.78184 -2.12475 0
M  V30 42545 H 4332.97 -1.3327 -0.86167 0
M  V30 42546 H 4332.99 -1.2827 -3.58228 0
M  V30 42547 H 4332.5 -2.84509 -2.63962 0
M  V30 42548 H 4330.61 -0.607754 -3.6761 0
M  V30 42549 H 4330.72 -2.43788 -4.12437 0
M  V30 42550 H 4329.08 -1.2118 -2.24026 0
M  V30 42551 H 4329.87 -2.8508 -1.9127 0
M  V30 42552 N 4332.31 1.22555 -0.990855 0
M  V30 42553 C 4333.54 1.95269 -0.683935 0
M  V30 42554 C 4333.95 1.7322 0.751016 0
M  V30 42555 O 4333.31 1.03002 1.50655 0
M  V30 42556 C 4333.36 3.48024 -0.977815 0
M  V30 42557 O 4333.08 3.69332 -2.35638 0
M  V30 42558 C 4334.58 4.37924 -0.688309 0
M  V30 42559 H 4331.8 0.621402 -0.253181 0
M  V30 42560 H 4334.35 1.55763 -1.32507 0
M  V30 42561 H 4332.5 3.85507 -0.382514 0
M  V30 42562 H 4332.92 4.63547 -2.45407 0
M  V30 42563 H 4334.39 5.43864 -0.944222 0
M  V30 42564 H 4334.87 4.37573 0.377684 0
M  V30 42565 H 4335.47 4.06065 -1.26457 0
M  V30 42566 N 4333.79 0.763799 1.37855 0
M  V30 42567 C 4335.02 0.335667 2.04159 0
M  V30 42568 C 4335.43 -1.03947 1.57609 0
M  V30 42569 O 4334.79 -1.66208 0.753737 0
M  V30 42570 C 4334.84 0.360741 3.59696 0
M  V30 42571 O 4334.56 1.68162 4.04541 0
M  V30 42572 C 4336.06 -0.0799831 4.43228 0
M  V30 42573 H 4333.28 0.141816 0.655842 0
M  V30 42574 H 4335.83 1.0355 1.76345 0
M  V30 42575 H 4333.98 -0.290446 3.8631 0
M  V30 42576 H 4334.4 1.61479 4.99024 0
M  V30 42577 H 4335.87 -0.0112808 5.51999 0
M  V30 42578 H 4336.35 -1.12928 4.24434 0
M  V30 42579 H 4336.95 0.542715 4.21823 0
M  V30 42580 N 4335.27 -1.48993 0.513692 0
M  V30 42581 C 4336.5 -2.06888 -0.0227323 0
M  V30 42582 C 4336.91 -1.3724 -1.29655 0
M  V30 42583 O 4336.27 -0.45471 -1.76745 0
M  V30 42584 C 4336.32 -3.60511 -0.26722 0
M  V30 42585 O 4336.04 -4.27539 0.956118 0
M  V30 42586 C 4337.54 -4.35155 -0.845861 0
M  V30 42587 H 4334.76 -0.670489 0.0261709 0
M  V30 42588 H 4337.3 -1.91605 0.71468 0
M  V30 42589 H 4335.46 -3.75454 -0.954641 0
M  V30 42590 H 4335.87 -5.1944 0.726776 0
M  V30 42591 H 4337.35 -5.43474 -0.966443 0
M  V30 42592 H 4337.82 -3.98485 -1.8468 0
M  V30 42593 H 4338.43 -4.2485 -0.195515 0
M  V30 42594 N 4336.75 -0.248081 -1.55635 0
M  V30 42595 C 4338.16 0.254852 -1.84952 0
M  V30 42596 C 4338.51 1.57504 -1.16991 0
M  V30 42597 O 4337.63 2.11697 -0.448705 0
M  V30 42598 C 4338.23 0.469185 -3.35536 0
M  V30 42599 C 4336.79 0.916381 -3.65075 0
M  V30 42600 C 4335.93 -0.0057374 -2.77299 0
M  V30 42601 H 4338.88 -0.470611 -1.51562 0
M  V30 42602 H 4338.91 1.31163 -3.57179 0
M  V30 42603 H 4338.42 -0.491829 -3.84971 0
M  V30 42604 H 4336.52 1.88982 -3.21118 0
M  V30 42605 H 4336.63 0.772425 -4.72832 0
M  V30 42606 H 4335 0.505838 -2.49626 0
M  V30 42607 H 4335.78 -0.962146 -3.29542 0
M  V30 42608 N 4338.22 1.5758 0.0250174 0
M  V30 42609 C 4339.47 1.88637 0.714075 0
M  V30 42610 C 4339.79 0.84713 1.76304 0
M  V30 42611 O 4340.99 1.04706 2.50497 0
M  V30 42612 C 4339.45 3.34774 1.32114 0
M  V30 42613 C 4339.06 4.46938 0.308315 0
M  V30 42614 C 4340.8 3.74974 1.98984 0
M  V30 42615 C 4338.71 5.84138 0.923956 0
M  V30 42616 H 4337.64 0.703824 0.27046 0
M  V30 42617 H 4340.29 1.83473 -0.0314235 0
M  V30 42618 H 4338.67 3.34695 2.11648 0
M  V30 42619 H 4339.84 4.58492 -0.460607 0
M  V30 42620 H 4338.16 4.15597 -0.258524 0
M  V30 42621 H 4340.76 4.748 2.45905 0
M  V30 42622 H 4341.1 3.07179 2.80975 0
M  V30 42623 H 4341.63 3.77245 1.2622 0
M  V30 42624 H 4338.37 6.55343 0.143377 0
M  V30 42625 H 4337.89 5.76296 1.66262 0
M  V30 42626 H 4339.57 6.30997 1.43009 0
M  V30 42627 N 4339.7 -0.29736 1.54769 0
M  V30 42628 C 4340.93 -1.05098 1.78219 0
M  V30 42629 C 4341.34 -1.80809 0.543455 0
M  V30 42630 O 4340.7 -1.75887 -0.486824 0
M  V30 42631 C 4340.75 -2.02869 2.9921 0
M  V30 42632 O 4340.47 -1.30228 4.18297 0
M  V30 42633 C 4341.97 -2.90239 3.35076 0
M  V30 42634 H 4339.19 -0.31153 0.594298 0
M  V30 42635 H 4341.74 -0.33553 2.01729 0
M  V30 42636 H 4339.89 -2.6991 2.77898 0
M  V30 42637 H 4340.31 -1.9592 4.86534 0
M  V30 42638 H 4341.78 -3.54686 4.22968 0
M  V30 42639 H 4342.26 -3.58732 2.53392 0
M  V30 42640 H 4342.86 -2.28724 3.5856 0
M  V30 42641 N 4341.18 -1.47287 -0.560729 0
M  V30 42642 C 4342.41 -1.57341 -1.34356 0
M  V30 42643 C 4342.82 -0.222332 -1.87486 0
M  V30 42644 O 4342.18 0.783881 -1.64808 0
M  V30 42645 C 4342.23 -2.59585 -2.51591 0
M  V30 42646 O 4341.95 -3.89446 -2.00657 0
M  V30 42647 C 4343.45 -2.79789 -3.43851 0
M  V30 42648 H 4340.67 -0.531414 -0.409683 0
M  V30 42649 H 4343.22 -1.92878 -0.679594 0
M  V30 42650 H 4341.37 -2.26992 -3.13932 0
M  V30 42651 H 4341.79 -4.45285 -2.77167 0
M  V30 42652 H 4343.26 -3.552 -4.22536 0
M  V30 42653 H 4343.74 -1.87484 -3.97173 0
M  V30 42654 H 4344.34 -3.13565 -2.87328 0
M  V30 42655 N 4342.66 0.807175 -1.3536 0
M  V30 42656 C 4343.89 1.59559 -1.31714 0
M  V30 42657 C 4344.3 1.88505 0.105502 0
M  V30 42658 O 4343.66 1.48754 1.05728 0
M  V30 42659 C 4343.71 2.9272 -2.12125 0
M  V30 42660 O 4343.43 2.6503 -3.48842 0
M  V30 42661 C 4344.93 3.87084 -2.16057 0
M  V30 42662 H 4342.15 0.495471 -0.452492 0
M  V30 42663 H 4344.69 1.00315 -1.78205 0
M  V30 42664 H 4342.85 3.4848 -1.69235 0
M  V30 42665 H 4343.26 3.50049 -3.90597 0
M  V30 42666 H 4344.74 4.77634 -2.76713 0
M  V30 42667 H 4345.21 4.23627 -1.15916 0
M  V30 42668 H 4345.82 3.3726 -2.59106 0
M  V30 42669 N 4344.14 1.19348 1.02926 0
M  V30 42670 C 4345.36 1.02112 1.79947 0
M  V30 42671 C 4345.78 -0.430151 1.83835 0
M  V30 42672 O 4345.14 -1.29877 1.28211 0
M  V30 42673 C 4345.19 1.58264 3.25015 0
M  V30 42674 O 4344.91 2.9771 3.21404 0
M  V30 42675 C 4346.41 1.45805 4.18636 0
M  V30 42676 H 4343.63 0.359914 0.566307 0
M  V30 42677 H 4346.17 1.58155 1.29643 0
M  V30 42678 H 4344.33 1.0637 3.72511 0
M  V30 42679 H 4344.74 3.24121 4.12366 0
M  V30 42680 H 4346.22 1.89874 5.18316 0
M  V30 42681 H 4346.69 0.40851 4.37296 0
M  V30 42682 H 4347.3 1.96827 3.77013 0
M  V30 42683 N 4345.61 -1.22028 0.997341 0
M  V30 42684 C 4346.84 -1.94903 0.694281 0
M  V30 42685 C 4347.26 -1.73616 -0.741819 0
M  V30 42686 O 4346.61 -1.03799 -1.50107 0
M  V30 42687 C 4346.66 -3.47501 0.996257 0
M  V30 42688 O 4346.39 -3.68078 2.37593 0
M  V30 42689 C 4347.89 -4.37553 0.711523 0
M  V30 42690 H 4345.11 -0.62005 0.256473 0
M  V30 42691 H 4347.65 -1.55058 1.33332 0
M  V30 42692 H 4345.81 -3.85299 0.402953 0
M  V30 42693 H 4346.22 -4.62239 2.47862 0
M  V30 42694 H 4347.69 -5.43356 0.973051 0
M  V30 42695 H 4348.17 -4.37767 -0.354473 0
M  V30 42696 H 4348.78 -4.05389 1.28608 0
M  V30 42697 N 4347.09 -0.771099 -1.37448 0
M  V30 42698 C 4348.34 -0.335623 -2.00004 0
M  V30 42699 C 4348.67 1.08487 -1.61072 0
M  V30 42700 O 4347.95 1.74621 -0.856599 0
M  V30 42701 C 4348.23 -0.478449 -3.56907 0
M  V30 42702 C 4348.08 -1.94131 -4.0575 0
M  V30 42703 C 4349.4 0.11767 -4.39943 0
M  V30 42704 H 4346.52 -0.123423 -0.726592 0
M  V30 42705 H 4349.16 -0.974021 -1.63134 0
M  V30 42706 H 4347.31 0.0650333 -3.88446 0
M  V30 42707 H 4348.98 -2.54445 -3.8478 0
M  V30 42708 H 4347.23 -2.45035 -3.57967 0
M  V30 42709 H 4347.9 -1.99231 -5.14792 0
M  V30 42710 H 4350.37 -0.346043 -4.14659 0
M  V30 42711 H 4349.25 -0.0124031 -5.48899 0
M  V30 42712 H 4349.51 1.20791 -4.25279 0
M  V30 42713 N 4348.57 1.48719 -0.521586 0
M  V30 42714 C 4349.8 2.06897 0.0117602 0
M  V30 42715 C 4350.21 1.37926 1.28926 0
M  V30 42716 O 4349.57 0.464077 1.76501 0
M  V30 42717 C 4349.62 3.60648 0.248098 0
M  V30 42718 O 4349.34 4.27026 -0.978778 0
M  V30 42719 C 4350.84 4.35598 0.822772 0
M  V30 42720 H 4348.06 0.670341 -0.0297263 0
M  V30 42721 H 4350.61 1.91224 -0.724831 0
M  V30 42722 H 4348.76 3.75955 0.934717 0
M  V30 42723 H 4349.18 5.19048 -0.754313 0
M  V30 42724 H 4350.65 5.43979 0.937608 0
M  V30 42725 H 4351.13 3.99458 1.82564 0
M  V30 42726 H 4351.73 4.24948 0.172981 0
M  V30 42727 N 4350.05 0.256331 1.55501 0
M  V30 42728 C 4351.46 -0.24504 1.85085 0
M  V30 42729 C 4351.81 -1.56881 1.17825 0
M  V30 42730 O 4350.94 -2.11456 0.459926 0
M  V30 42731 C 4351.53 -0.451385 3.3578 0
M  V30 42732 C 4350.09 -0.897007 3.65555 0
M  V30 42733 C 4349.24 0.0204432 2.77292 0
M  V30 42734 H 4352.19 0.478642 1.5131 0
M  V30 42735 H 4352.21 -1.29267 3.57869 0
M  V30 42736 H 4351.72 0.512238 3.84705 0
M  V30 42737 H 4349.82 -1.87277 3.22115 0
M  V30 42738 H 4349.93 -0.747339 4.73235 0
M  V30 42739 H 4348.3 -0.492593 2.49891 0
M  V30 42740 H 4349.08 0.979609 3.29027 0
M  V30 42741 N 4351.53 -1.57591 -0.0166602 0
M  V30 42742 C 4352.75 -1.94102 -0.716392 0
M  V30 42743 C 4353.17 -0.857111 -1.68223 0
M  V30 42744 O 4352.53 0.165437 -1.81749 0
M  V30 42745 C 4352.58 -3.30585 -1.46273 0
M  V30 42746 O 4352.3 -4.34813 -0.535642 0
M  V30 42747 C 4353.8 -3.81454 -2.25849 0
M  V30 42748 H 4351.02 -0.640319 -0.200582 0
M  V30 42749 H 4353.56 -2.04479 0.0295055 0
M  V30 42750 H 4351.72 -3.21567 -2.1604 0
M  V30 42751 H 4352.13 -5.13669 -1.06037 0
M  V30 42752 H 4353.61 -4.79428 -2.73593 0
M  V30 42753 H 4354.08 -3.1329 -3.07808 0
M  V30 42754 H 4354.69 -3.93594 -1.61132 0
M  V30 42755 N 4353 0.289148 -1.54925 0
M  V30 42756 C 4354.42 0.861339 -1.65644 0
M  V30 42757 C 4354.77 1.87651 -0.572836 0
M  V30 42758 O 4353.89 2.14468 0.288506 0
M  V30 42759 C 4354.49 1.56906 -3.00277 0
M  V30 42760 C 4353.05 2.0895 -3.13077 0
M  V30 42761 C 4352.19 0.926106 -2.61378 0
M  V30 42762 H 4355.14 0.0658655 -1.58563 0
M  V30 42763 H 4355.16 2.43525 -2.92363 0
M  V30 42764 H 4354.68 0.829954 -3.79122 0
M  V30 42765 H 4352.78 2.85871 -2.38974 0
M  V30 42766 H 4352.89 2.31589 -4.19408 0
M  V30 42767 H 4351.25 1.31499 -2.18128 0
M  V30 42768 H 4352.04 0.200768 -3.42712 0
M  V30 42769 N 4354.48 1.47583 0.55291 0
M  V30 42770 C 4355.71 1.58051 1.33519 0
M  V30 42771 C 4356.13 0.232271 1.87366 0
M  V30 42772 O 4355.48 -0.77513 1.65221 0
M  V30 42773 C 4355.53 2.60915 2.50211 0
M  V30 42774 O 4355.25 3.90505 1.98589 0
M  V30 42775 C 4356.76 2.81608 3.42362 0
M  V30 42776 H 4353.98 0.533579 0.406859 0
M  V30 42777 H 4356.52 1.93235 0.669355 0
M  V30 42778 H 4354.67 2.28653 3.12724 0
M  V30 42779 H 4355.09 4.46749 2.74801 0
M  V30 42780 H 4356.56 3.57436 4.20646 0
M  V30 42781 H 4357.04 1.89587 3.96173 0
M  V30 42782 H 4357.65 3.15084 2.85661 0
M  V30 42783 N 4355.96 -0.799985 1.35787 0
M  V30 42784 C 4357.37 -1.37444 1.26357 0
M  V30 42785 C 4357.72 -1.95939 -0.101206 0
M  V30 42786 O 4356.85 -1.91785 -1.00237 0
M  V30 42787 C 4357.44 -2.49874 2.28797 0
M  V30 42788 C 4356 -3.03164 2.23088 0
M  V30 42789 C 4355.15 -1.7617 2.14148 0
M  V30 42790 H 4358.1 -0.602482 1.46819 0
M  V30 42791 H 4358.12 -3.28607 1.91828 0
M  V30 42792 H 4357.63 -2.07271 3.28116 0
M  V30 42793 H 4355.73 -3.50215 1.27201 0
M  V30 42794 H 4355.85 -3.60697 3.15332 0
M  V30 42795 H 4354.21 -1.97985 1.60232 0
M  V30 42796 H 4354.99 -1.35709 3.15338 0
M  V30 42797 N 4357.44 -1.19892 -1.02292 0
M  V30 42798 C 4358.67 -1.03065 -1.79403 0
M  V30 42799 C 4359.08 0.420396 -1.8406 0
M  V30 42800 O 4358.44 1.29196 -1.28898 0
M  V30 42801 C 4358.49 -1.59985 -3.24171 0
M  V30 42802 O 4358.21 -2.9941 -3.1982 0
M  V30 42803 C 4359.71 -1.48023 -4.17857 0
M  V30 42804 H 4356.93 -0.362912 -0.56439 0
M  V30 42805 H 4359.48 -1.5884 -1.28802 0
M  V30 42806 H 4357.63 -1.08344 -3.71941 0
M  V30 42807 H 4358.04 -3.26303 -4.10642 0
M  V30 42808 H 4359.52 -1.9262 -5.17302 0
M  V30 42809 H 4360 -0.431695 -4.37073 0
M  V30 42810 H 4360.6 -1.98824 -3.75964 0
M  V30 42811 N 4358.92 1.21498 -1.0038 0
M  V30 42812 C 4360.16 1.90157 -0.684459 0
M  V30 42813 C 4360.49 1.78409 0.787101 0
M  V30 42814 O 4359.76 1.17822 1.56508 0
M  V30 42815 H 4358.34 0.703862 -0.250176 0
M  V30 42816 H 4361 1.47613 -1.27265 0
M  V30 42817 H 4360.09 2.9708 -0.956565 0
M  V30 42818 N 4360.39 0.778378 1.37037 0
M  V30 42819 C 4361.62 0.357301 2.03791 0
M  V30 42820 C 4362.04 -1.0227 1.58702 0
M  V30 42821 O 4361.39 -1.65399 0.771323 0
M  V30 42822 C 4361.45 0.398871 3.59293 0
M  V30 42823 O 4361.17 1.72444 4.02734 0
M  V30 42824 C 4362.67 -0.0329683 4.43288 0
M  V30 42825 H 4359.89 0.148764 0.654301 0
M  V30 42826 H 4362.43 1.05415 1.75237 0
M  V30 42827 H 4360.59 -0.249457 3.86596 0
M  V30 42828 H 4361 1.66763 4.97283 0
M  V30 42829 H 4362.47 0.0472667 5.5198 0
M  V30 42830 H 4362.95 -1.0842 4.25607 0
M  V30 42831 H 4363.56 0.587424 4.21224 0
M  V30 42832 N 4361.87 -1.4844 0.529465 0
M  V30 42833 C 4362.81 -2.27596 -0.270695 0
M  V30 42834 C 4363.82 -1.35333 -0.904918 0
M  V30 42835 O 4365.01 -1.60388 -0.783447 0
M  V30 42836 C 4362.11 -3.08698 -1.39853 0
M  V30 42837 C 4361.28 -4.28735 -0.866325 0
M  V30 42838 C 4360.34 -4.91652 -1.87522 0
M  V30 42839 O 4359.37 -5.50883 -1.43237 0
M  V30 42840 N 4360.57 -4.83848 -3.20736 0
M  V30 42841 H 4363.33 -2.96907 0.408175 0
M  V30 42842 H 4360.89 -1.5776 0.363764 0
M  V30 42843 H 4362.89 -3.47658 -2.07161 0
M  V30 42844 H 4361.46 -2.4181 -1.98108 0
M  V30 42845 H 4360.68 -3.94196 -0.0172689 0
M  V30 42846 H 4361.96 -5.06439 -0.489626 0
M  V30 42847 H 4361.36 -4.36876 -3.59382 0
M  V30 42848 H 4359.92 -5.2691 -3.83678 0
M  V30 42849 N 4363.35 -0.264574 -1.55363 0
M  V30 42850 C 4364.58 0.358853 -2.03764 0
M  V30 42851 C 4364.99 1.50247 -1.1433 0
M  V30 42852 O 4364.35 1.81786 -0.161251 0
M  V30 42853 C 4364.4 0.849897 -3.51367 0
M  V30 42854 O 4364.12 -0.248163 -4.37397 0
M  V30 42855 C 4365.62 1.54222 -4.15609 0
M  V30 42856 H 4362.84 0.083207 -0.665821 0
M  V30 42857 H 4365.39 -0.393595 -2.00677 0
M  V30 42858 H 4363.54 1.55247 -3.54933 0
M  V30 42859 H 4363.96 0.127569 -5.24345 0
M  V30 42860 H 4365.43 1.83733 -5.20525 0
M  V30 42861 H 4365.91 2.4702 -3.6315 0
M  V30 42862 H 4366.51 0.88377 -4.16016 0
M  V30 42863 N 4364.83 1.57598 0.00830251 0
M  V30 42864 C 4366.24 1.78347 0.552214 0
M  V30 42865 C 4366.59 0.89822 1.74432 0
M  V30 42866 O 4365.72 0.098489 2.16176 0
M  V30 42867 C 4366.31 3.2344 1.00856 0
M  V30 42868 C 4364.87 3.45314 1.49784 0
M  V30 42869 C 4364.02 2.73702 0.445261 0
M  V30 42870 H 4366.97 1.57197 -0.21789 0
M  V30 42871 H 4366.99 3.31096 1.87498 0
M  V30 42872 H 4366.5 3.87845 0.140726 0
M  V30 42873 H 4364.6 2.86113 2.38684 0
M  V30 42874 H 4364.72 4.53978 1.53103 0
M  V30 42875 H 4363.08 2.38078 0.905028 0
M  V30 42876 H 4363.86 3.40801 -0.413466 0
M  V30 42877 N 4366.31 -0.280928 1.55076 0
M  V30 42878 C 4367.54 -1.03201 1.79324 0
M  V30 42879 C 4367.95 -1.80223 0.562602 0
M  V30 42880 O 4367.31 -1.76394 -0.468141 0
M  V30 42881 C 4367.36 -1.99684 3.01345 0
M  V30 42882 O 4367.08 -1.25784 4.19655 0
M  V30 42883 C 4368.58 -2.86669 3.38136 0
M  V30 42884 H 4365.8 -0.305209 0.597569 0
M  V30 42885 H 4368.34 -0.314115 2.02073 0
M  V30 42886 H 4366.5 -2.66948 2.80745 0
M  V30 42887 H 4366.91 -1.90748 4.88585 0
M  V30 42888 H 4368.39 -3.5018 4.26706 0
M  V30 42889 H 4368.86 -3.56025 2.57183 0
M  V30 42890 H 4369.47 -2.24908 3.60966 0
M  V30 42891 N 4367.79 -1.47874 -0.545076 0
M  V30 42892 C 4369.01 -1.58757 -1.32679 0
M  V30 42893 C 4369.43 -0.242205 -1.8724 0
M  V30 42894 O 4368.79 0.766357 -1.6563 0
M  V30 42895 C 4368.84 -2.62238 -2.48824 0
M  V30 42896 O 4368.56 -3.91553 -1.96515 0
M  V30 42897 C 4370.06 -2.8342 -3.40864 0
M  V30 42898 H 4367.28 -0.535729 -0.404023 0
M  V30 42899 H 4369.82 -1.93588 -0.659098 0
M  V30 42900 H 4367.98 -2.30308 -3.11507 0
M  V30 42901 H 4368.39 -4.482 -2.72428 0
M  V30 42902 H 4369.87 -3.59662 -4.18745 0
M  V30 42903 H 4370.34 -1.91686 -3.95162 0
M  V30 42904 H 4370.95 -3.16595 -2.83986 0
M  V30 42905 N 4369.26 0.792773 -1.36209 0
M  V30 42906 C 4370.49 1.58153 -1.33399 0
M  V30 42907 C 4370.91 1.88606 0.0855024 0
M  V30 42908 O 4370.26 1.49867 1.04144 0
M  V30 42909 C 4370.31 2.90454 -2.15218 0
M  V30 42910 O 4370.04 2.61315 -3.51634 0
M  V30 42911 C 4371.54 3.84771 -2.2015 0
M  V30 42912 H 4368.76 0.490644 -0.457722 0
M  V30 42913 H 4371.3 0.98419 -1.79259 0
M  V30 42914 H 4369.46 3.46666 -1.72921 0
M  V30 42915 H 4369.87 3.45886 -3.94288 0
M  V30 42916 H 4371.34 4.74672 -2.81763 0
M  V30 42917 H 4371.82 4.22374 -1.20403 0
M  V30 42918 H 4372.43 3.34493 -2.62669 0
M  V30 42919 N 4370.74 1.20433 1.01654 0
M  V30 42920 C 4372.15 1.01495 1.56702 0
M  V30 42921 C 4372.5 -0.428638 1.91461 0
M  V30 42922 O 4371.63 -1.31005 1.7224 0
M  V30 42923 C 4372.22 1.83612 2.84732 0
M  V30 42924 C 4370.78 1.6904 3.36307 0
M  V30 42925 C 4369.93 1.81542 2.09614 0
M  V30 42926 H 4372.88 1.34624 0.840359 0
M  V30 42927 H 4372.9 1.33953 3.56142 0
M  V30 42928 H 4372.41 2.88673 2.59402 0
M  V30 42929 H 4370.51 0.666161 3.66597 0
M  V30 42930 H 4370.63 2.50319 4.08506 0
M  V30 42931 H 4368.99 1.24728 2.2207 0
M  V30 42932 H 4369.77 2.88087 1.86711 0
M  V30 42933 N 4372.22 -1.20963 1.01023 0
M  V30 42934 C 4373.47 -1.89485 0.691265 0
M  V30 42935 C 4373.78 -1.79296 -0.781814 0
M  V30 42936 O 4374.99 -2.42893 -1.21307 0
M  V30 42937 C 4373.44 -3.39797 1.18599 0
M  V30 42938 C 4373.05 -3.58586 2.68552 0
M  V30 42939 C 4374.8 -4.13913 0.942161 0
M  V30 42940 C 4372.7 -5.0269 3.11539 0
M  V30 42941 H 4371.63 -0.709619 0.254865 0
M  V30 42942 H 4374.28 -1.36885 1.22208 0
M  V30 42943 H 4372.67 -3.91682 0.583198 0
M  V30 42944 H 4373.84 -3.17116 3.34326 0
M  V30 42945 H 4372.15 -2.97831 2.91008 0
M  V30 42946 H 4374.75 -5.20151 1.23882 0
M  V30 42947 H 4375.09 -4.16123 -0.121501 0
M  V30 42948 H 4375.63 -3.68109 1.50801 0
M  V30 42949 H 4372.37 -5.05631 4.17154 0
M  V30 42950 H 4371.89 -5.44995 2.50481 0
M  V30 42951 H 4373.57 -5.71231 3.03815 0
M  V30 42952 N 4373.7 -0.785634 -1.36622 0
M  V30 42953 C 4374.93 -0.368104 -2.03599 0
M  V30 42954 C 4375.34 1.01427 -1.59242 0
M  V30 42955 O 4374.7 1.64988 -0.780084 0
M  V30 42956 C 4374.75 -0.41792 -3.59076 0
M  V30 42957 O 4374.47 -1.74577 -4.01814 0
M  V30 42958 C 4375.97 0.00945924 -4.43299 0
M  V30 42959 H 4373.19 -0.152232 -0.653503 0
M  V30 42960 H 4375.73 -1.06343 -1.74675 0
M  V30 42961 H 4373.89 0.228951 -3.86723 0
M  V30 42962 H 4374.3 -1.69398 -4.96392 0
M  V30 42963 H 4375.78 -0.0765388 -5.51947 0
M  V30 42964 H 4376.25 1.06162 -4.26176 0
M  V30 42965 H 4376.86 -0.609754 -4.20906 0
M  V30 42966 N 4375.18 1.48157 -0.53733 0
M  V30 42967 C 4376.4 2.06897 -0.0101846 0
M  V30 42968 C 4376.82 1.39286 1.27456 0
M  V30 42969 O 4376.18 0.482771 1.75999 0
M  V30 42970 C 4376.23 3.60891 0.209832 0
M  V30 42971 O 4375.95 4.25964 -1.02402 0
M  V30 42972 C 4377.45 4.36446 0.776525 0
M  V30 42973 H 4374.67 0.669988 -0.0368345 0
M  V30 42974 H 4377.21 1.90444 -0.745072 0
M  V30 42975 H 4375.37 3.76925 0.894789 0
M  V30 42976 H 4375.78 5.18218 -0.809322 0
M  V30 42977 H 4377.26 5.44943 0.879859 0
M  V30 42978 H 4377.73 4.01372 1.78317 0
M  V30 42979 H 4378.34 4.25108 0.1279 0
M  V30 42980 N 4376.65 0.272809 1.55221 0
M  V30 42981 C 4377.88 -0.348042 2.03952 0
M  V30 42982 C 4378.3 -1.49638 1.15125 0
M  V30 42983 O 4377.65 -1.81698 0.170889 0
M  V30 42984 C 4377.71 -0.831251 3.51813 0
M  V30 42985 O 4377.43 0.271355 4.37259 0
M  V30 42986 C 4378.93 -1.52015 4.16421 0
M  V30 42987 H 4376.15 -0.0796748 0.666253 0
M  V30 42988 H 4378.69 0.404232 2.00465 0
M  V30 42989 H 4376.85 -1.53362 3.55751 0
M  V30 42990 H 4377.26 -0.09976 5.24405 0
M  V30 42991 H 4378.73 -1.8097 5.21492 0
M  V30 42992 H 4379.21 -2.45091 3.64455 0
M  V30 42993 H 4379.82 -0.861695 4.16479 0
M  V30 42994 N 4378.13 -1.576 5.54043e-05 0
M  V30 42995 C 4379.36 -1.94851 -0.695765 0
M  V30 42996 C 4379.78 -0.874905 -1.67305 0
M  V30 42997 O 4379.13 0.146151 -1.81914 0
M  V30 42998 C 4379.18 -3.32118 -1.42758 0
M  V30 42999 O 4378.9 -4.35357 -0.489494 0
M  V30 43000 C 4380.41 -3.83828 -2.21791 0
M  V30 43001 H 4377.63 -0.64241 -0.193779 0
M  V30 43002 H 4380.17 -2.04436 0.0511915 0
M  V30 43003 H 4378.32 -3.23841 -2.12617 0
M  V30 43004 H 4378.74 -5.14765 -1.00583 0
M  V30 43005 H 4380.21 -4.82302 -2.68493 0
M  V30 43006 H 4380.69 -3.16538 -3.04468 0
M  V30 43007 H 4381.3 -3.95281 -1.56948 0
M  V30 43008 N 4379.61 0.2727 -1.55223 0
M  V30 43009 C 4380.84 1.02249 -1.79869 0
M  V30 43010 C 4381.25 1.79922 -0.572152 0
M  V30 43011 O 4380.61 1.76639 0.45878 0
M  V30 43012 C 4380.66 1.98083 -3.02399 0
M  V30 43013 O 4380.38 1.23557 -4.20316 0
M  V30 43014 C 4381.88 2.84872 -3.39651 0
M  V30 43015 H 4379.1 0.302036 -0.599179 0
M  V30 43016 H 4381.65 0.303394 -2.02237 0
M  V30 43017 H 4379.8 2.65455 -2.82157 0
M  V30 43018 H 4380.22 1.88155 -4.8959 0
M  V30 43019 H 4381.69 3.47912 -4.28557 0
M  V30 43020 H 4382.17 3.54656 -2.59067 0
M  V30 43021 H 4382.77 2.2299 -3.62154 0
M  V30 43022 N 4381.09 1.48161 0.537226 0
M  V30 43023 C 4382.33 1.5604 1.29535 0
M  V30 43024 C 4382.67 0.230445 1.92828 0
M  V30 43025 O 4381.94 -0.76289 1.78914 0
M  V30 43026 C 4382.23 2.69331 2.39025 0
M  V30 43027 C 4382.08 4.12008 1.8047 0
M  V30 43028 C 4383.4 2.7842 3.40837 0
M  V30 43029 H 4380.52 0.568008 0.469612 0
M  V30 43030 H 4383.16 1.80304 0.599213 0
M  V30 43031 H 4381.31 2.48773 2.98403 0
M  V30 43032 H 4382.98 4.43985 1.25199 0
M  V30 43033 H 4381.22 4.19348 1.1104 0
M  V30 43034 H 4381.89 4.87086 2.59713 0
M  V30 43035 H 4384.37 2.97022 2.91405 0
M  V30 43036 H 4383.25 3.59431 4.1485 0
M  V30 43037 H 4383.51 1.86283 4.00938 0
M  V30 43038 N 4382.57 -0.785538 1.36627 0
M  V30 43039 C 4383.79 -1.57443 1.34236 0
M  V30 43040 C 4384.21 -1.88649 -0.075499 0
M  V30 43041 O 4383.57 -1.50417 -1.03348 0
M  V30 43042 C 4383.62 -2.89309 2.16755 0
M  V30 43043 O 4383.34 -2.59446 3.53015 0
M  V30 43044 C 4384.84 -3.83598 2.22188 0
M  V30 43045 H 4382.06 -0.48821 0.460317 0
M  V30 43046 H 4384.6 -0.97467 1.79779 0
M  V30 43047 H 4382.76 -3.45744 1.74757 0
M  V30 43048 H 4383.17 -3.4379 3.96117 0
M  V30 43049 H 4384.65 -4.73171 2.84277 0
M  V30 43050 H 4385.12 -4.21729 1.22641 0
M  V30 43051 H 4385.73 -3.33095 2.64439 0
M  V30 43052 N 4384.04 -1.20971 -1.01014 0
M  V30 43053 C 4385.46 -1.02325 -1.56162 0
M  V30 43054 C 4385.81 0.418479 -1.91685 0
M  V30 43055 O 4384.93 1.3009 -1.72933 0
M  V30 43056 C 4385.53 -1.85119 -2.83754 0
M  V30 43057 C 4384.09 -1.70821 -3.35406 0
M  V30 43058 C 4383.23 -1.82651 -2.08648 0
M  V30 43059 H 4386.18 -1.35068 -0.833208 0
M  V30 43060 H 4386.2 -1.35839 -3.55426 0
M  V30 43061 H 4385.72 -2.90044 -2.57868 0
M  V30 43062 H 4383.82 -0.685593 -3.66238 0
M  V30 43063 H 4383.93 -2.52482 -4.07173 0
M  V30 43064 H 4382.29 -1.25904 -2.21405 0
M  V30 43065 H 4383.08 -2.89073 -1.8518 0
M  V30 43066 N 4385.52 1.20426 -1.01663 0
M  V30 43067 C 4386.75 1.93774 -0.7252 0
M  V30 43068 C 4387.17 1.74774 0.714104 0
M  V30 43069 O 4386.52 1.06174 1.48436 0
M  V30 43070 C 4386.57 3.45872 -1.05142 0
M  V30 43071 O 4386.29 3.64251 -2.43419 0
M  V30 43072 C 4387.8 4.36365 -0.781044 0
M  V30 43073 H 4385.02 0.615892 -0.266305 0
M  V30 43074 H 4387.56 1.52917 -1.35781 0
M  V30 43075 H 4385.71 3.84609 -0.4642 0
M  V30 43076 H 4386.13 4.58237 -2.55185 0
M  V30 43077 H 4387.6 5.41739 -1.05937 0
M  V30 43078 H 4388.08 4.38276 0.284783 0
M  V30 43079 H 4388.69 4.03291 -1.35041 0
M  V30 43080 N 4387 0.792868 1.36203 0
M  V30 43081 C 4388.41 0.429577 1.81691 0
M  V30 43082 C 4388.76 -1.04689 1.65936 0
M  V30 43083 O 4387.89 -1.81251 1.18224 0
M  V30 43084 C 4388.48 0.772947 3.29865 0
M  V30 43085 C 4387.04 0.462438 3.73548 0
M  V30 43086 C 4386.19 1.00578 2.58417 0
M  V30 43087 H 4389.14 0.985716 1.24376 0
M  V30 43088 H 4389.16 0.0653265 3.80444 0
M  V30 43089 H 4388.67 1.84759 3.413 0
M  V30 43090 H 4386.77 -0.604029 3.67671 0
M  V30 43091 H 4386.89 0.985464 4.68855 0
M  V30 43092 H 4385.25 0.428822 2.51064 0
M  V30 43093 H 4386.03 2.08626 2.72636 0
M  V30 43094 N 4388.48 -1.4787 0.54518 0
M  V30 43095 C 4389.71 -2.06889 0.0211567 0
M  V30 43096 C 4390.12 -1.3996 -1.26715 0
M  V30 43097 O 4389.48 -0.492098 -1.7574 0
M  V30 43098 C 4389.53 -3.60997 -0.19069 0
M  V30 43099 O 4389.25 -4.25415 1.04659 0
M  V30 43100 C 4390.75 -4.36852 -0.753368 0
M  V30 43101 H 4387.97 -0.669783 0.0403871 0
M  V30 43102 H 4390.52 -1.90046 0.755162 0
M  V30 43103 H 4388.67 -3.77394 -0.874787 0
M  V30 43104 H 4389.08 -5.17782 0.836793 0
M  V30 43105 H 4390.56 -5.45402 -0.850947 0
M  V30 43106 H 4391.04 -4.02312 -1.76186 0
M  V30 43107 H 4391.64 -4.25169 -0.105354 0
M  V30 43108 N 4389.96 -0.281037 -1.55074 0
M  V30 43109 C 4391.37 0.215563 -1.85451 0
M  V30 43110 C 4391.72 1.54987 -1.20306 0
M  V30 43111 O 4390.84 2.10698 -0.493509 0
M  V30 43112 C 4391.44 0.397908 -3.36455 0
M  V30 43113 C 4390 0.838737 -3.66936 0
M  V30 43114 C 4389.14 -0.0645554 -2.77225 0
M  V30 43115 H 4392.1 -0.502654 -1.50529 0
M  V30 43116 H 4392.12 1.23557 -3.59881 0
M  V30 43117 H 4391.63 -0.573376 -3.83841 0
M  V30 43118 H 4389.73 1.82128 -3.25054 0
M  V30 43119 H 4389.84 0.671957 -4.74364 0
M  V30 43120 H 4388.21 0.452775 -2.50643 0
M  V30 43121 H 4388.99 -1.03183 -3.27427 0
M  V30 43122 N 4391.44 1.57598 -0.00841331 0
M  V30 43123 C 4392.66 1.95217 0.685422 0
M  V30 43124 C 4393.08 0.883765 1.66838 0
M  V30 43125 O 4392.44 -0.136501 1.81989 0
M  V30 43126 C 4392.49 3.3287 1.40995 0
M  V30 43127 O 4392.21 4.3561 0.466399 0
M  V30 43128 C 4393.71 3.84999 2.19752 0
M  V30 43129 H 4390.93 0.643429 0.19037 0
M  V30 43130 H 4393.47 2.04406 -0.0620326 0
M  V30 43131 H 4391.63 3.24964 2.10897 0
M  V30 43132 H 4392.04 5.15291 0.978518 0
M  V30 43133 H 4393.52 4.83719 2.65931 0
M  V30 43134 H 4393.99 3.18148 3.02785 0
M  V30 43135 H 4394.6 3.96108 1.5485 0
M  V30 43136 N 4392.91 -0.264465 1.55365 0
M  V30 43137 C 4394.16 -0.992959 1.76025 0
M  V30 43138 C 4394.48 -1.86509 0.569165 0
M  V30 43139 O 4393.75 -1.91439 -0.415668 0
M  V30 43140 H 4392.33 -0.369616 0.649148 0
M  V30 43141 H 4394.99 -0.286639 1.92781 0
M  V30 43142 H 4394.09 -1.62493 2.66463 0
M  V30 43143 N 4394.39 -1.48444 -0.529361 0
M  V30 43144 C 4395.62 -1.60155 -1.30988 0
M  V30 43145 C 4396.03 -0.26205 -1.86973 0
M  V30 43146 O 4395.39 0.748747 -1.66433 0
M  V30 43147 C 4395.44 -2.64863 -2.46028 0
M  V30 43148 O 4395.16 -3.93615 -1.92351 0
M  V30 43149 C 4396.66 -2.87019 -3.37839 0
M  V30 43150 H 4393.88 -0.539985 -0.398319 0
M  V30 43151 H 4396.43 -1.94276 -0.638529 0
M  V30 43152 H 4394.58 -2.33599 -3.09047 0
M  V30 43153 H 4395 -4.51064 -2.67659 0
M  V30 43154 H 4396.47 -3.64083 -4.14907 0
M  V30 43155 H 4396.95 -1.95866 -3.93107 0
M  V30 43156 H 4397.55 -3.19589 -2.80612 0
M  V30 43157 N 4395.87 0.778281 -1.37042 0
M  V30 43158 C 4396.8 1.90029 -1.28146 0
M  V30 43159 C 4397.81 1.61584 -0.198614 0
M  V30 43160 O 4399 1.72624 -0.454236 0
M  V30 43161 C 4396.1 3.25105 -0.957082 0
M  V30 43162 C 4395.28 3.81246 -2.14408 0
M  V30 43163 C 4394.34 4.94783 -1.79099 0
M  V30 43164 O 4393.36 5.10713 -2.51319 0
M  V30 43165 N 4394.56 5.75876 -0.731245 0
M  V30 43166 H 4397.33 1.98179 -2.24823 0
M  V30 43167 H 4394.89 0.957083 -1.30581 0
M  V30 43168 H 4396.88 3.98568 -0.701841 0
M  V30 43169 H 4395.45 3.125 -0.079091 0
M  V30 43170 H 4394.67 2.99638 -2.56146 0
M  V30 43171 H 4395.96 4.15485 -2.93683 0
M  V30 43172 H 4395.36 5.65546 -0.131817 0
M  V30 43173 H 4393.91 6.49594 -0.53585 0
M  V30 43174 N 4397.35 1.21505 1.00371 0
M  V30 43175 C 4398.58 1.05906 1.7774 0
M  V30 43176 C 4398.99 -0.391061 1.84706 0
M  V30 43177 O 4398.35 -1.27128 1.30937 0
M  V30 43178 C 4398.4 1.65122 3.21585 0
M  V30 43179 O 4398.12 3.04461 3.15016 0
M  V30 43180 C 4399.62 1.54652 4.15449 0
M  V30 43181 H 4396.84 0.371845 0.558545 0
M  V30 43182 H 4399.38 1.60869 1.26259 0
M  V30 43183 H 4397.54 1.14248 3.70171 0
M  V30 43184 H 4397.95 3.32795 4.05399 0
M  V30 43185 H 4399.43 2.00826 5.14172 0
M  V30 43186 H 4399.9 0.501175 4.36331 0
M  V30 43187 H 4400.51 2.0478 3.72754 0
M  V30 43188 N 4398.83 -1.19885 1.023 0
M  V30 43189 C 4400.24 -1.71121 0.746628 0
M  V30 43190 C 4400.59 -1.81942 -0.734271 0
M  V30 43191 O 4399.71 -1.48645 -1.57269 0
M  V30 43192 C 4400.31 -3.10799 1.34867 0
M  V30 43193 C 4398.87 -3.59319 1.12102 0
M  V30 43194 C 4398.01 -2.36345 1.4504 0
M  V30 43195 H 4400.96 -1.04809 1.19167 0
M  V30 43196 H 4400.99 -3.73184 0.742568 0
M  V30 43197 H 4400.5 -3.02891 2.42649 0
M  V30 43198 H 4398.6 -3.7255 0.0611647 0
M  V30 43199 H 4398.71 -4.43774 1.80559 0
M  V30 43200 H 4397.08 -2.39396 0.869571 0
M  V30 43201 H 4397.86 -2.31072 2.53891 0
M  V30 43202 N 4400.3 -0.80008 -1.35781 0
M  V30 43203 C 4401.53 -0.389678 -2.03197 0
M  V30 43204 C 4401.95 0.997318 -1.60309 0
M  V30 43205 O 4401.3 1.64151 -0.797539 0
M  V30 43206 C 4401.35 -0.455981 -3.58613 0
M  V30 43207 O 4401.08 -1.78829 -3.9994 0
M  V30 43208 C 4402.58 -0.0375591 -4.43284 0
M  V30 43209 H 4399.8 -0.159155 -0.651852 0
M  V30 43210 H 4402.34 -1.08189 -1.73538 0
M  V30 43211 H 4400.5 0.187921 -3.86944 0
M  V30 43212 H 4400.91 -1.74653 -4.94567 0
M  V30 43213 H 4402.38 -0.135076 -5.51835 0
M  V30 43214 H 4402.86 1.01635 -4.27278 0
M  V30 43215 H 4403.47 -0.654363 -4.20236 0
M  V30 43216 N 4401.78 1.47579 -0.553014 0
M  V30 43217 C 4403.01 2.06875 -0.0321283 0
M  V30 43218 C 4403.42 1.4063 1.25971 0
M  V30 43219 O 4402.78 0.501411 1.75477 0
M  V30 43220 C 4402.83 3.61093 0.171543 0
M  V30 43221 O 4402.55 4.24854 -1.06914 0
M  V30 43222 C 4404.05 4.37245 0.73019 0
M  V30 43223 H 4401.27 0.66956 -0.0439385 0
M  V30 43224 H 4403.82 1.89643 -0.76523 0
M  V30 43225 H 4401.97 3.77853 0.854761 0
M  V30 43226 H 4402.39 5.17331 -0.86424 0
M  V30 43227 H 4403.86 5.45845 0.822011 0
M  V30 43228 H 4404.34 4.03241 1.7405 0
M  V30 43229 H 4404.94 4.25219 0.0828048 0
M  V30 43230 N 4403.26 0.289257 1.54923 0
M  V30 43231 C 4404.49 -0.326391 2.04309 0
M  V30 43232 C 4404.9 -1.48409 1.16706 0
M  V30 43233 O 4404.26 -1.81507 0.190151 0
M  V30 43234 C 4404.31 -0.79389 3.52675 0
M  V30 43235 O 4404.03 0.317717 4.36946 0
M  V30 43236 C 4405.53 -1.4759 4.1801 0
M  V30 43237 H 4402.75 -0.0726038 0.66706 0
M  V30 43238 H 4405.3 0.425471 2.00025 0
M  V30 43239 H 4403.45 -1.4958 3.57358 0
M  V30 43240 H 4403.87 -0.0441342 5.24481 0
M  V30 43241 H 4405.34 -1.75429 5.23382 0
M  V30 43242 H 4405.82 -2.41212 3.67034 0
M  V30 43243 H 4406.42 -0.817473 4.1737 0
M  V30 43244 N 4404.74 -1.57591 0.016771 0
M  V30 43245 C 4406.15 -1.79202 -0.523771 0
M  V30 43246 C 4406.5 -0.925856 -1.72981 0
M  V30 43247 O 4405.62 -0.132868 -2.15992 0
M  V30 43248 C 4406.22 -3.25004 -0.956977 0
M  V30 43249 C 4404.78 -3.47653 -1.44271 0
M  V30 43250 C 4403.93 -2.74376 -0.401661 0
M  V30 43251 H 4406.88 -1.56831 0.242871 0
M  V30 43252 H 4406.9 -3.34037 -1.82207 0
M  V30 43253 H 4406.41 -3.8802 -0.0790051 0
M  V30 43254 H 4404.51 -2.89874 -2.34102 0
M  V30 43255 H 4404.62 -4.56357 -1.45861 0
M  V30 43256 H 4402.99 -2.39488 -0.867037 0
M  V30 43257 H 4403.77 -3.401 0.467633 0
M  V30 43258 N 4406.22 0.256222 -1.55503 0
M  V30 43259 C 4407.47 0.983425 -1.76101 0
M  V30 43260 C 4407.78 1.86835 -0.578961 0
M  V30 43261 O 4408.98 2.63161 -0.66774 0
M  V30 43262 C 4407.44 1.79857 -3.11736 0
M  V30 43263 C 4407.05 0.961494 -4.37561 0
M  V30 43264 C 4408.79 2.51907 -3.41677 0
M  V30 43265 C 4406.7 1.772 -5.64229 0
M  V30 43266 H 4405.63 0.370913 -0.65646 0
M  V30 43267 H 4408.28 0.238428 -1.81944 0
M  V30 43268 H 4406.66 2.58517 -2.99975 0
M  V30 43269 H 4407.84 0.217886 -4.60285 0
M  V30 43270 H 4406.15 0.354767 -4.14886 0
M  V30 43271 H 4408.75 3.12982 -4.33527 0
M  V30 43272 H 4409.09 3.2305 -2.62573 0
M  V30 43273 H 4409.62 1.80265 -3.54611 0
M  V30 43274 H 4406.36 1.10448 -6.46128 0
M  V30 43275 H 4405.88 2.49113 -5.45621 0
M  V30 43276 H 4407.56 2.34147 -6.03145 0
M  V30 43277 N 4407.69 1.48722 0.521481 0
M  V30 43278 C 4408.92 1.60848 1.30137 0
M  V30 43279 C 4409.34 0.271962 1.86831 0
M  V30 43280 O 4408.69 -0.73991 1.66828 0
M  V30 43281 C 4408.75 2.66164 2.4462 0
M  V30 43282 O 4408.47 3.9463 1.90261 0
M  V30 43283 C 4409.97 2.88807 3.36312 0
M  V30 43284 H 4407.19 0.542089 0.395449 0
M  V30 43285 H 4409.73 1.94612 0.628217 0
M  V30 43286 H 4407.89 2.35235 3.07804 0
M  V30 43287 H 4408.3 4.52477 2.65263 0
M  V30 43288 H 4409.77 3.66278 4.1297 0
M  V30 43289 H 4410.25 1.97948 3.92063 0
M  V30 43290 H 4410.86 3.21073 2.78913 0
M  V30 43291 N 4409.17 -0.771003 1.37453 0
M  V30 43292 C 4410.4 -1.56011 1.35898 0
M  V30 43293 C 4410.82 -1.88718 -0.055486 0
M  V30 43294 O 4410.17 -1.51505 -1.01747 0
M  V30 43295 C 4410.22 -2.86993 2.19811 0
M  V30 43296 O 4409.94 -2.55687 3.55746 0
M  V30 43297 C 4411.45 -3.8122 2.26244 0
M  V30 43298 H 4408.67 -0.4833 0.46547 0
M  V30 43299 H 4411.21 -0.955547 1.80803 0
M  V30 43300 H 4409.36 -3.43871 1.78414 0
M  V30 43301 H 4409.78 -3.3957 3.99741 0
M  V30 43302 H 4411.25 -4.70129 2.89279 0
M  V30 43303 H 4411.73 -4.20405 1.27107 0
M  V30 43304 H 4412.34 -3.30271 2.67957 0
M  V30 43305 N 4410.65 -1.22035 -0.997255 0
M  V30 43306 C 4411.88 -1.06847 -1.77176 0
M  V30 43307 C 4412.29 0.38126 -1.8491 0
M  V30 43308 O 4411.65 1.26432 -1.3161 0
M  V30 43309 C 4411.7 -1.66825 -3.20705 0
M  V30 43310 O 4411.42 -3.06127 -3.13397 0
M  V30 43311 C 4412.92 -1.56853 -4.14623 0
M  V30 43312 H 4410.14 -0.374802 -0.556565 0
M  V30 43313 H 4412.69 -1.61537 -1.25404 0
M  V30 43314 H 4410.84 -1.16209 -3.69559 0
M  V30 43315 H 4411.26 -3.3494 -4.03628 0
M  V30 43316 H 4412.73 -2.0355 -5.131 0
M  V30 43317 H 4413.21 -0.524308 -4.36059 0
M  V30 43318 H 4413.81 -2.06754 -3.71662 0
M  V30 43319 N 4412.13 1.19341 -1.02934 0
M  V30 43320 C 4413.36 1.92994 -0.745712 0
M  V30 43321 C 4413.77 1.75522 0.695527 0
M  V30 43322 O 4413.13 1.07742 1.47302 0
M  V30 43323 C 4413.18 3.44737 -1.08804 0
M  V30 43324 O 4412.9 3.61649 -2.47268 0
M  V30 43325 C 4414.4 4.35512 -0.827282 0
M  V30 43326 H 4411.62 0.613032 -0.272823 0
M  V30 43327 H 4414.17 1.51468 -1.37396 0
M  V30 43328 H 4412.32 3.84095 -0.504967 0
M  V30 43329 H 4412.73 4.55504 -2.60031 0
M  V30 43330 H 4414.21 5.40585 -1.11677 0
M  V30 43331 H 4414.69 4.38553 0.238282 0
M  V30 43332 H 4415.29 4.01836 -1.39311 0
M  V30 43333 N 4413.61 0.80727 1.35355 0
M  V30 43334 C 4414.83 0.400448 2.02988 0
M  V30 43335 C 4415.25 -0.988803 1.60836 0
M  V30 43336 O 4414.61 -1.63726 0.806233 0
M  V30 43337 C 4414.66 0.474993 3.58366 0
M  V30 43338 O 4414.38 1.80947 3.98986 0
M  V30 43339 C 4415.88 0.061067 4.43258 0
M  V30 43340 H 4413.1 0.162609 0.650999 0
M  V30 43341 H 4415.64 1.09108 1.72961 0
M  V30 43342 H 4413.8 -0.167398 3.87038 0
M  V30 43343 H 4414.21 1.77274 4.93634 0
M  V30 43344 H 4415.69 0.164339 5.51755 0
M  V30 43345 H 4416.16 -0.993681 4.27811 0
M  V30 43346 H 4416.77 0.67664 4.19883 0
M  V30 43347 N 4415.08 -1.47283 0.560833 0
M  V30 43348 C 4416.33 -2.02764 0.0381897 0
M  V30 43349 C 4416.66 -1.43389 -1.30971 0
M  V30 43350 O 4415.94 -0.590798 -1.8531 0
M  V30 43351 C 4416.22 -3.60064 -0.0510162 0
M  V30 43352 C 4416.07 -4.29865 1.32423 0
M  V30 43353 C 4417.39 -4.33442 -0.762643 0
M  V30 43354 H 4414.51 -0.73684 0.0153523 0
M  V30 43355 H 4417.15 -1.75673 0.72382 0
M  V30 43356 H 4415.3 -3.83277 -0.63493 0
M  V30 43357 H 4416.98 -4.17982 1.95163 0
M  V30 43358 H 4415.22 -3.90078 1.89794 0
M  V30 43359 H 4415.89 -5.38474 1.2145 0
M  V30 43360 H 4418.37 -4.15244 -0.266819 0
M  V30 43361 H 4417.24 -5.43126 -0.79403 0
M  V30 43362 H 4417.5 -4.02922 -1.81952 0
M  V30 43363 N 4416.56 -0.297469 -1.54767 0
M  V30 43364 C 4417.79 0.315551 -2.0448 0
M  V30 43365 C 4418.21 1.47788 -1.17491 0
M  V30 43366 O 4417.56 1.81403 -0.199774 0
M  V30 43367 C 4417.61 0.775176 -3.53091 0
M  V30 43368 O 4417.33 -0.340885 -4.36772 0
M  V30 43369 C 4418.84 1.45371 -4.18786 0
M  V30 43370 H 4416.06 0.0690652 -0.667436 0
M  V30 43371 H 4418.6 -0.436073 -1.99797 0
M  V30 43372 H 4416.75 1.47683 -3.58146 0
M  V30 43373 H 4417.17 0.0163191 -5.24497 0
M  V30 43374 H 4418.64 1.72651 -5.24305 0
M  V30 43375 H 4419.12 2.39262 -3.68308 0
M  V30 43376 H 4419.73 0.795328 -4.17797 0
M  V30 43377 N 4418.04 1.5758 -0.0251282 0
M  V30 43378 C 4419.45 1.79478 0.51426 0
M  V30 43379 C 4419.8 0.935017 1.72487 0
M  V30 43380 O 4418.93 0.144321 2.15918 0
M  V30 43381 C 4419.52 3.25507 0.939728 0
M  V30 43382 C 4418.08 3.48413 1.42426 0
M  V30 43383 C 4417.23 2.74585 0.387104 0
M  V30 43384 H 4420.18 1.567 -0.251185 0
M  V30 43385 H 4420.2 3.34999 1.80433 0
M  V30 43386 H 4419.71 3.88056 0.0584264 0
M  V30 43387 H 4417.81 2.91111 2.32562 0
M  V30 43388 H 4417.93 4.57124 1.43439 0
M  V30 43389 H 4416.29 2.39945 0.854324 0
M  V30 43390 H 4417.07 3.39847 -0.485662 0
M  V30 43391 N 4419.52 -0.247971 1.55637 0
M  V30 43392 C 4420.75 -0.993744 1.81473 0
M  V30 43393 C 4421.16 -1.78989 0.600703 0
M  V30 43394 O 4420.52 -1.77347 -0.43062 0
M  V30 43395 C 4420.57 -1.93247 3.05512 0
M  V30 43396 O 4420.29 -1.16854 4.22228 0
M  V30 43397 C 4421.79 -2.79432 3.4414 0
M  V30 43398 H 4419.01 -0.292465 0.603908 0
M  V30 43399 H 4421.56 -0.271181 2.02694 0
M  V30 43400 H 4419.71 -2.60933 2.86344 0
M  V30 43401 H 4420.12 -1.80342 4.92521 0
M  V30 43402 H 4421.6 -3.4105 4.34038 0
M  V30 43403 H 4422.08 -3.50489 2.64677 0
M  V30 43404 H 4422.68 -2.17201 3.65656 0
M  V30 43405 N 4421 -1.48997 -0.513587 0
M  V30 43406 C 4422.41 -1.51194 -1.09532 0
M  V30 43407 C 4422.76 -0.290974 -1.9403 0
M  V30 43408 O 4421.88 0.600417 -2.07904 0
M  V30 43409 C 4422.48 -2.73971 -1.99313 0
M  V30 43410 C 4421.04 -2.78987 -2.52672 0
M  V30 43411 C 4420.19 -2.44939 -1.30001 0
M  V30 43412 H 4423.14 -1.55876 -0.298071 0
M  V30 43413 H 4423.16 -2.53419 -2.83829 0
M  V30 43414 H 4422.67 -3.62818 -1.37786 0
M  V30 43415 H 4420.77 -1.94389 -3.17874 0
M  V30 43416 H 4420.88 -3.8084 -2.90685 0
M  V30 43417 H 4419.25 -1.96446 -1.62115 0
M  V30 43418 H 4420.03 -3.36046 -0.702013 0
M  V30 43419 N 4422.48 0.763702 -1.3786 0
M  V30 43420 C 4423.7 1.55288 -1.36724 0
M  V30 43421 C 4424.12 1.88745 0.045477 0
M  V30 43422 O 4423.48 1.52043 1.00942 0
M  V30 43423 C 4423.53 2.85824 -2.2133 0
M  V30 43424 O 4423.25 2.53797 -3.57097 0
M  V30 43425 C 4424.75 3.80015 -2.28262 0
M  V30 43426 H 4421.97 0.480825 -0.468026 0
M  V30 43427 H 4424.51 0.945945 -1.81307 0
M  V30 43428 H 4422.67 3.4292 -1.80236 0
M  V30 43429 H 4423.08 3.37445 -4.01536 0
M  V30 43430 H 4424.56 4.68589 -2.91768 0
M  V30 43431 H 4425.03 4.19725 -1.29335 0
M  V30 43432 H 4425.64 3.28846 -2.69705 0
M  V30 43433 N 4423.95 1.22562 0.990769 0
M  V30 43434 C 4425.36 1.04796 1.54514 0
M  V30 43435 C 4425.72 -0.38793 1.92327 0
M  V30 43436 O 4424.84 -1.27322 1.7498 0
M  V30 43437 C 4425.44 1.8961 2.80773 0
M  V30 43438 C 4423.99 1.76135 3.32646 0
M  V30 43439 C 4423.14 1.85947 2.05716 0
M  V30 43440 H 4426.09 1.36376 0.811614 0
M  V30 43441 H 4426.11 1.41477 3.5322 0
M  V30 43442 H 4425.63 2.9411 2.53221 0
M  V30 43443 H 4423.73 0.743771 3.65101 0
M  V30 43444 H 4423.84 2.58927 4.03105 0
M  V30 43445 H 4422.2 1.29411 2.19374 0
M  V30 43446 H 4422.99 2.91982 1.80558 0
M  V30 43447 N 4425.43 -1.18793 1.03566 0
M  V30 43448 C 4426.66 -1.92596 0.755936 0
M  V30 43449 C 4427.07 -1.75888 -0.686209 0
M  V30 43450 O 4426.43 -1.08522 -1.46728 0
M  V30 43451 C 4426.48 -3.44156 1.10631 0
M  V30 43452 O 4426.2 -3.60332 2.49183 0
M  V30 43453 C 4427.7 -4.35067 0.850367 0
M  V30 43454 H 4424.92 -0.611577 0.27607 0
M  V30 43455 H 4427.47 -1.50738 1.38197 0
M  V30 43456 H 4425.62 -3.83822 0.525329 0
M  V30 43457 H 4426.04 -4.54119 2.62443 0
M  V30 43458 H 4427.51 -5.39985 1.14542 0
M  V30 43459 H 4427.99 -4.38673 -0.215021 0
M  V30 43460 H 4428.59 -4.01092 1.4144 0
M  V30 43461 N 4426.91 -0.814437 -1.34925 0
M  V30 43462 C 4428.16 -0.397706 -1.98148 0
M  V30 43463 C 4428.48 1.04063 -1.64912 0
M  V30 43464 O 4427.75 1.72118 -0.93554 0
M  V30 43465 H 4426.33 -0.144069 -0.732976 0
M  V30 43466 H 4428.99 -1.04201 -1.64706 0
M  V30 43467 H 4428.09 -0.509797 -3.07908 0
M  V30 43468 N 4428.39 1.46984 -0.568636 0
M  V30 43469 C 4429.62 2.06829 -0.0540683 0
M  V30 43470 C 4430.03 1.41958 1.24473 0
M  V30 43471 O 4429.39 0.519995 1.74935 0
M  V30 43472 C 4429.44 3.61254 0.133235 0
M  V30 43473 O 4429.16 4.23696 -1.11414 0
M  V30 43474 C 4430.66 4.37995 0.683773 0
M  V30 43475 H 4427.88 0.669056 -0.0510376 0
M  V30 43476 H 4430.42 1.88821 -0.785301 0
M  V30 43477 H 4428.58 3.78738 0.814636 0
M  V30 43478 H 4428.99 5.16385 -0.919062 0
M  V30 43479 H 4430.47 5.46686 0.76407 0
M  V30 43480 H 4430.94 4.05064 1.69763 0
M  V30 43481 H 4431.55 4.25283 0.0376999 0
M  V30 43482 N 4429.87 0.305673 1.54607 0
M  V30 43483 C 4430.8 -0.602083 2.21151 0
M  V30 43484 C 4431.81 -1.0939 1.20572 0
M  V30 43485 O 4433 -1.01055 1.4714 0
M  V30 43486 C 4430.1 -1.83682 2.84806 0
M  V30 43487 C 4429.27 -1.48671 4.11358 0
M  V30 43488 C 4428.33 -2.57709 4.58773 0
M  V30 43489 O 4427.36 -2.22604 5.23866 0
M  V30 43490 N 4428.56 -3.88331 4.31485 0
M  V30 43491 H 4431.32 -0.0323912 2.99682 0
M  V30 43492 H 4428.89 0.128078 1.61393 0
M  V30 43493 H 4430.88 -2.55983 3.13457 0
M  V30 43494 H 4429.45 -2.31479 2.10086 0
M  V30 43495 H 4428.67 -0.596132 3.89666 0
M  V30 43496 H 4429.96 -1.22824 4.93753 0
M  V30 43497 H 4429.35 -4.19658 3.79346 0
M  V30 43498 H 4427.91 -4.56916 4.64834 0
M  V30 43499 N 4431.34 -1.57564 0.0334847 0
M  V30 43500 C 4432.57 -1.96282 -0.654278 0
M  V30 43501 C 4432.99 -0.910196 -1.65411 0
M  V30 43502 O 4432.34 0.107531 -1.82183 0
M  V30 43503 C 4432.39 -3.35071 -1.35681 0
M  V30 43504 O 4432.12 -4.36297 -0.397038 0
M  V30 43505 C 4433.62 -3.88446 -2.13599 0
M  V30 43506 H 4430.84 -0.646376 -0.180109 0
M  V30 43507 H 4433.38 -2.04281 0.0945439 0
M  V30 43508 H 4431.54 -3.28278 -2.057 0
M  V30 43509 H 4431.95 -5.16783 -0.896416 0
M  V30 43510 H 4433.42 -4.87889 -2.58202 0
M  V30 43511 H 4433.9 -3.22925 -2.97685 0
M  V30 43512 H 4434.51 -3.98521 -1.48529 0
M  V30 43513 N 4432.82 0.239714 -1.55766 0
M  V30 43514 C 4434.23 0.808204 -1.683 0
M  V30 43515 C 4434.58 1.85734 -0.632246 0
M  V30 43516 O 4433.71 2.15277 0.220128 0
M  V30 43517 C 4434.3 1.47273 -3.05116 0
M  V30 43518 C 4432.86 1.98884 -3.19566 0
M  V30 43519 C 4432.01 0.842482 -2.64192 0
M  V30 43520 H 4434.96 0.0153864 -1.58693 0
M  V30 43521 H 4434.98 2.341 -2.99962 0
M  V30 43522 H 4434.49 0.708919 -3.8157 0
M  V30 43523 H 4432.59 2.78123 -2.47948 0
M  V30 43524 H 4432.71 2.18128 -4.26564 0
M  V30 43525 H 4431.07 1.24493 -2.22202 0
M  V30 43526 H 4431.85 0.0916346 -3.43178 0
M  V30 43527 N 4434.3 1.49267 0.505678 0
M  V30 43528 C 4435.53 1.62219 1.28423 0
M  V30 43529 C 4435.94 0.291763 1.86532 0
M  V30 43530 O 4435.3 -0.722174 1.67603 0
M  V30 43531 C 4435.35 2.68743 2.41783 0
M  V30 43532 O 4435.07 3.96625 1.86064 0
M  V30 43533 C 4436.57 2.92358 3.3323 0
M  V30 43534 H 4433.79 0.546253 0.389677 0
M  V30 43535 H 4436.34 1.95267 0.60754 0
M  V30 43536 H 4434.49 2.38487 3.05292 0
M  V30 43537 H 4434.91 4.55265 2.60449 0
M  V30 43538 H 4436.38 3.70638 4.09062 0
M  V30 43539 H 4436.86 2.02095 3.89941 0
M  V30 43540 H 4437.46 3.24013 2.75492 0
M  V30 43541 N 4435.78 -0.756381 1.38263 0
M  V30 43542 C 4437.01 -1.5456 1.37545 0
M  V30 43543 C 4437.42 -1.88767 -0.0354668 0
M  V30 43544 O 4436.78 -1.52576 -1.00134 0
M  V30 43545 C 4436.83 -2.84646 2.22843 0
M  V30 43546 O 4436.55 -2.519 3.58438 0
M  V30 43547 C 4438.05 -3.78799 2.30275 0
M  V30 43548 H 4435.27 -0.478336 0.470569 0
M  V30 43549 H 4437.82 -0.936317 1.81806 0
M  V30 43550 H 4435.97 -3.41959 1.82052 0
M  V30 43551 H 4436.38 -3.35311 4.0332 0
M  V30 43552 H 4437.86 -4.67035 2.94249 0
M  V30 43553 H 4438.34 -4.19033 1.31559 0
M  V30 43554 H 4438.94 -3.27411 2.71445 0
M  V30 43555 N 4437.26 -1.23086 -0.984255 0
M  V30 43556 C 4438.48 -1.0872 -1.76033 0
M  V30 43557 C 4438.9 0.361626 -1.85304 0
M  V30 43558 O 4438.26 1.25029 -1.32943 0
M  V30 43559 C 4438.31 -1.70217 -3.18917 0
M  V30 43560 O 4438.03 -3.09434 -3.10133 0
M  V30 43561 C 4439.53 -1.61242 -4.12936 0
M  V30 43562 H 4436.75 -0.380684 -0.552558 0
M  V30 43563 H 4439.29 -1.62858 -1.23684 0
M  V30 43564 H 4437.45 -1.20122 -3.68306 0
M  V30 43565 H 4437.86 -3.39202 -4.00053 0
M  V30 43566 H 4439.34 -2.0898 -5.10912 0
M  V30 43567 H 4439.81 -0.570528 -4.35479 0
M  V30 43568 H 4440.42 -2.10684 -3.69449 0
M  V30 43569 N 4438.73 1.18243 -1.04194 0
M  V30 43570 C 4440.15 1.69911 -0.773757 0
M  V30 43571 C 4440.5 1.83087 0.705232 0
M  V30 43572 O 4439.62 1.51128 1.54885 0
M  V30 43573 C 4440.22 3.08614 -1.39795 0
M  V30 43574 C 4438.78 3.5749 -1.17805 0
M  V30 43575 C 4437.92 2.34007 -1.48781 0
M  V30 43576 H 4440.87 1.029 -1.20819 0
M  V30 43577 H 4440.89 3.71955 -0.801844 0
M  V30 43578 H 4440.41 2.98993 -2.47437 0
M  V30 43579 H 4438.51 3.72405 -0.120426 0
M  V30 43580 H 4438.62 4.40845 -1.87596 0
M  V30 43581 H 4436.98 2.37983 -0.907547 0
M  V30 43582 H 4437.77 2.27004 -2.57535 0
M  V30 43583 N 4440.21 0.821581 1.34491 0
M  V30 43584 C 4441.46 0.405425 1.97583 0
M  V30 43585 C 4441.77 -1.03671 1.65867 0
M  V30 43586 O 4442.98 -1.55671 2.22438 0
M  V30 43587 C 4441.44 0.673986 3.53533 0
M  V30 43588 C 4441.04 2.12965 3.94145 0
M  V30 43589 C 4442.79 0.323929 4.23262 0
M  V30 43590 C 4440.7 2.34317 5.43 0
M  V30 43591 H 4439.63 0.147862 0.73936 0
M  V30 43592 H 4442.28 1.00774 1.53352 0
M  V30 43593 H 4440.66 0.00151476 3.96 0
M  V30 43594 H 4441.83 2.84117 3.62787 0
M  V30 43595 H 4440.15 2.44101 3.37348 0
M  V30 43596 H 4442.74 0.461313 5.32706 0
M  V30 43597 H 4443.09 -0.731442 4.09824 0
M  V30 43598 H 4443.62 0.950922 3.86267 0
M  V30 43599 H 4440.36 3.38355 5.61423 0
M  V30 43600 H 4439.88 1.67707 5.75877 0
M  V30 43601 H 4441.56 2.16609 6.09663 0
M  V30 43602 N 4441.69 -1.4668 0.576422 0
M  V30 43603 C 4442.92 -2.06798 0.0650362 0
M  V30 43604 C 4443.33 -1.42616 -1.23718 0
M  V30 43605 O 4442.69 -0.529265 -1.74657 0
M  V30 43606 C 4442.74 -3.6132 -0.114075 0
M  V30 43607 O 4442.46 -4.231 1.13659 0
M  V30 43608 C 4443.96 -4.38351 -0.660536 0
M  V30 43609 H 4441.18 -0.668776 0.0545851 0
M  V30 43610 H 4443.73 -1.88402 0.795303 0
M  V30 43611 H 4441.88 -3.79165 -0.79454 0
M  V30 43612 H 4442.3 -5.1589 0.946434 0
M  V30 43613 H 4443.77 -5.47084 -0.735068 0
M  V30 43614 H 4444.25 -4.05959 -1.67613 0
M  V30 43615 H 4444.85 -4.25297 -0.0151456 0
M  V30 43616 N 4443.17 -0.313868 -1.54443 0
M  V30 43617 C 4444.4 0.293846 -2.04803 0
M  V30 43618 C 4444.81 1.46533 -1.19052 0
M  V30 43619 O 4444.17 1.81181 -0.219003 0
M  V30 43620 C 4444.22 0.737682 -3.53893 0
M  V30 43621 O 4443.94 -0.387191 -4.36386 0
M  V30 43622 C 4445.44 1.40921 -4.20305 0
M  V30 43623 H 4442.66 0.0619823 -0.668131 0
M  V30 43624 H 4445.21 -0.45724 -1.99323 0
M  V30 43625 H 4443.36 1.43876 -3.59692 0
M  V30 43626 H 4443.77 -0.0393118 -5.24485 0
M  V30 43627 H 4445.25 1.6708 -5.26107 0
M  V30 43628 H 4445.73 2.35342 -3.70825 0
M  V30 43629 H 4446.33 0.75097 -4.18617 0
M  V30 43630 N 4444.65 1.57544 -0.0418402 0
M  V30 43631 C 4445.87 1.96627 0.643859 0
M  V30 43632 C 4446.29 0.918955 1.64926 0
M  V30 43633 O 4445.65 -0.0978683 1.82237 0
M  V30 43634 C 4445.7 3.35786 1.33903 0
M  V30 43635 O 4445.42 4.36502 0.373895 0
M  V30 43636 C 4446.92 3.89573 2.11536 0
M  V30 43637 H 4444.14 0.647322 0.176679 0
M  V30 43638 H 4446.68 2.04228 -0.105376 0
M  V30 43639 H 4444.84 3.29364 2.03956 0
M  V30 43640 H 4445.25 5.17251 0.868997 0
M  V30 43641 H 4446.73 4.89251 2.55611 0
M  V30 43642 H 4447.2 3.24499 2.95968 0
M  V30 43643 H 4447.81 3.99304 1.46413 0
M  V30 43644 N 4446.12 -0.23145 1.55891 0
M  V30 43645 C 4447.35 -0.974441 1.82516 0
M  V30 43646 C 4447.77 -1.78342 0.619654 0
M  V30 43647 O 4447.12 -1.77794 -0.411786 0
M  V30 43648 C 4447.18 -1.89996 3.07545 0
M  V30 43649 O 4446.9 -1.1237 4.23444 0
M  V30 43650 C 4448.4 -2.75767 3.47085 0
M  V30 43651 H 4445.62 -0.286043 0.606976 0
M  V30 43652 H 4448.16 -0.249668 2.0297 0
M  V30 43653 H 4446.32 -2.57881 2.89096 0
M  V30 43654 H 4446.73 -1.75108 4.94406 0
M  V30 43655 H 4448.2 -3.36428 4.37631 0
M  V30 43656 H 4448.68 -3.47662 2.68379 0
M  V30 43657 H 4449.29 -2.1331 3.67939 0
M  V30 43658 N 4447.6 -1.49533 -0.497755 0
M  V30 43659 C 4448.83 -1.62898 -1.27561 0
M  V30 43660 C 4449.25 -0.301651 -1.86375 0
M  V30 43661 O 4448.6 0.713275 -1.67984 0
M  V30 43662 C 4448.65 -2.70022 -2.40355 0
M  V30 43663 O 4448.37 -3.97606 -1.83958 0
M  V30 43664 C 4449.88 -2.94121 -3.31674 0
M  V30 43665 H 4447.1 -0.548312 -0.386775 0
M  V30 43666 H 4449.64 -1.95586 -0.597176 0
M  V30 43667 H 4447.79 -2.40102 -3.04023 0
M  V30 43668 H 4448.21 -4.5664 -2.58031 0
M  V30 43669 H 4449.68 -3.72802 -4.07091 0
M  V30 43670 H 4450.16 -2.0416 -3.88864 0
M  V30 43671 H 4450.77 -3.25469 -2.7377 0
M  V30 43672 N 4449.08 0.749038 -1.38662 0
M  V30 43673 C 4450.33 1.51051 -1.35319 0
M  V30 43674 C 4450.66 1.94121 0.0553069 0
M  V30 43675 O 4449.93 1.65767 1.01743 0
M  V30 43676 C 4450.22 2.75995 -2.31298 0
M  V30 43677 C 4450.07 2.39034 -3.81029 0
M  V30 43678 C 4451.39 3.78038 -2.25333 0
M  V30 43679 H 4448.51 0.547955 -0.492864 0
M  V30 43680 H 4451.15 0.857568 -1.69546 0
M  V30 43681 H 4449.3 3.31709 -2.02241 0
M  V30 43682 H 4450.97 1.8906 -4.20778 0
M  V30 43683 H 4449.22 1.71435 -3.98488 0
M  V30 43684 H 4449.89 3.28446 -4.43652 0
M  V30 43685 H 4452.36 3.31875 -2.50995 0
M  V30 43686 H 4451.24 4.63148 -2.94593 0
M  V30 43687 H 4451.5 4.23952 -1.25367 0
M  V30 43688 N 4450.56 1.23606 0.977714 0
M  V30 43689 C 4451.79 1.09652 1.75454 0
M  V30 43690 C 4452.2 -0.351794 1.85494 0
M  V30 43691 O 4451.56 -1.24323 1.33604 0
M  V30 43692 C 4451.61 1.71906 3.1801 0
M  V30 43693 O 4451.33 3.11074 3.08487 0
M  V30 43694 C 4452.83 1.63429 4.12075 0
M  V30 43695 H 4450.05 0.383609 0.550532 0
M  V30 43696 H 4452.6 1.63511 1.22818 0
M  V30 43697 H 4450.75 1.22074 3.67664 0
M  V30 43698 H 4451.17 3.41319 3.98248 0
M  V30 43699 H 4452.64 2.11687 5.09797 0
M  V30 43700 H 4453.12 0.593615 4.3517 0
M  V30 43701 H 4453.72 2.12641 3.68326 0
M  V30 43702 N 4452.04 -1.17688 1.0482 0
M  V30 43703 C 4453.45 -1.69499 0.782757 0
M  V30 43704 C 4453.8 -1.83459 -0.695513 0
M  V30 43705 O 4452.92 -1.51947 -1.54081 0
M  V30 43706 C 4453.52 -3.07869 1.4143 0
M  V30 43707 C 4452.08 -3.5686 1.19699 0
M  V30 43708 C 4451.23 -2.33215 1.5002 0
M  V30 43709 H 4454.18 -1.02258 1.21363 0
M  V30 43710 H 4454.2 -3.71525 0.821559 0
M  V30 43711 H 4453.71 -2.97676 2.49019 0
M  V30 43712 H 4451.81 -3.72336 0.140174 0
M  V30 43713 H 4451.92 -4.39844 1.89932 0
M  V30 43714 H 4450.29 -2.37498 0.920155 0
M  V30 43715 H 4451.07 -2.25635 2.58735 0
M  V30 43716 N 4453.52 -0.828702 -1.34053 0
M  V30 43717 C 4454.74 -0.432691 -2.02325 0
M  V30 43718 C 4455.16 0.96309 -1.62388 0
M  V30 43719 O 4454.52 1.62422 -0.832178 0
M  V30 43720 C 4454.57 -0.531945 -3.57565 0
M  V30 43721 O 4454.29 -1.87272 -3.96057 0
M  V30 43722 C 4455.79 -0.131578 -4.43105 0
M  V30 43723 H 4453.01 -0.172946 -0.648329 0
M  V30 43724 H 4455.55 -1.11846 -1.71204 0
M  V30 43725 H 4453.71 0.105802 -3.87255 0
M  V30 43726 H 4454.12 -1.85104 -4.90751 0
M  V30 43727 H 4455.6 -0.252098 -5.51424 0
M  V30 43728 H 4456.07 0.925494 -4.29338 0
M  V30 43729 H 4456.68 -0.743354 -4.18753 0
M  V30 43730 N 4454.99 1.46373 -0.584193 0
M  V30 43731 C 4456.4 1.8603 -0.158024 0
M  V30 43732 C 4456.76 1.48758 1.27928 0
M  V30 43733 O 4455.88 0.903167 1.96652 0
M  V30 43734 C 4456.48 3.37641 -0.280011 0
M  V30 43735 C 4455.03 3.76289 0.0912977 0
M  V30 43736 C 4454.18 2.70388 -0.615273 0
M  V30 43737 H 4457.13 1.37506 -0.792322 0
M  V30 43738 H 4457.15 3.77277 0.494231 0
M  V30 43739 H 4456.67 3.64738 -1.3262 0
M  V30 43740 H 4454.77 3.5481 1.13756 0
M  V30 43741 H 4454.88 4.78245 -0.286054 0
M  V30 43742 H 4453.24 2.5464 -0.0553728 0
M  V30 43743 H 4454.03 3.00324 -1.66314 0
M  V30 43744 N 4456.47 0.322054 1.54274 0
M  V30 43745 C 4457.7 -0.28298 2.04956 0
M  V30 43746 C 4458.11 -1.459 1.19828 0
M  V30 43747 O 4457.47 -1.81063 0.228608 0
M  V30 43748 C 4457.52 -0.718904 3.5428 0
M  V30 43749 O 4457.24 0.410329 4.36174 0
M  V30 43750 C 4458.74 -1.3869 4.21046 0
M  V30 43751 H 4455.96 -0.0584381 0.66845 0
M  V30 43752 H 4458.51 0.467804 1.99077 0
M  V30 43753 H 4456.66 -1.41967 3.6045 0
M  V30 43754 H 4457.08 0.067126 5.24457 0
M  V30 43755 H 4458.55 -1.64288 5.26985 0
M  V30 43756 H 4459.03 -2.33372 3.72067 0
M  V30 43757 H 4459.63 -0.728759 4.1901 0
M  V30 43758 N 4457.95 -1.5752 0.0501946 0
M  V30 43759 C 4459.36 -1.80273 -0.485642 0
M  V30 43760 C 4459.71 -0.96234 -1.70978 0
M  V30 43761 O 4458.84 -0.178653 -2.15661 0
M  V30 43762 C 4459.43 -3.2696 -0.887823 0
M  V30 43763 C 4457.99 -3.50635 -1.36865 0
M  V30 43764 C 4457.14 -2.75166 -0.343371 0
M  V30 43765 H 4460.09 -1.5628 0.276083 0
M  V30 43766 H 4460.11 -3.37827 -1.75081 0
M  V30 43767 H 4459.62 -3.881 0.00331733 0
M  V30 43768 H 4457.72 -2.94774 -2.27901 0
M  V30 43769 H 4457.84 -4.59348 -1.36148 0
M  V30 43770 H 4456.2 -2.41273 -0.816043 0
M  V30 43771 H 4456.98 -3.39032 0.539668 0
M  V30 43772 N 4459.43 0.223179 -1.56012 0
M  V30 43773 C 4460.66 0.964748 -1.83031 0
M  V30 43774 C 4461.07 1.7801 -0.629103 0
M  V30 43775 O 4460.43 1.7801 0.402351 0
M  V30 43776 C 4460.48 1.88362 -3.08548 0
M  V30 43777 O 4460.2 1.10122 -4.24034 0
M  V30 43778 C 4461.7 2.73922 -3.48542 0
M  V30 43779 H 4458.92 0.28282 -0.608485 0
M  V30 43780 H 4461.46 0.2389 -2.031 0
M  V30 43781 H 4459.62 2.56344 -2.90459 0
M  V30 43782 H 4460.03 1.72483 -4.95328 0
M  V30 43783 H 4461.51 3.34102 -4.39409 0
M  V30 43784 H 4461.98 3.46234 -2.70219 0
M  V30 43785 H 4462.59 2.11356 -3.69065 0
M  V30 43786 N 4460.91 1.49795 0.489818 0
M  V30 43787 C 4462.15 1.59529 1.24076 0
M  V30 43788 C 4462.47 0.289021 1.92846 0
M  V30 43789 O 4461.74 -0.692371 1.83257 0
M  V30 43790 H 4460.32 0.587812 0.460962 0
M  V30 43791 H 4462.99 1.86479 0.566713 0
M  V30 43792 H 4462.08 2.39703 1.99872 0
M  V30 43793 N 4462.38 -0.741673 1.39057 0
M  V30 43794 C 4463.61 -1.53093 1.39177 0
M  V30 43795 C 4464.03 -1.88794 -0.0154435 0
M  V30 43796 O 4463.38 -1.53629 -0.985105 0
M  V30 43797 C 4463.43 -2.82266 2.2585 0
M  V30 43798 O 4463.16 -2.48084 3.6109 0
M  V30 43799 C 4464.66 -3.76335 2.34279 0
M  V30 43800 H 4461.88 -0.473318 0.475616 0
M  V30 43801 H 4464.42 -0.916981 1.82789 0
M  V30 43802 H 4462.58 -3.40009 1.85668 0
M  V30 43803 H 4462.99 -3.31014 4.06854 0
M  V30 43804 H 4464.46 -4.63887 2.99186 0
M  V30 43805 H 4464.94 -4.17614 1.35996 0
M  V30 43806 H 4465.55 -3.24513 2.74902 0
M  V30 43807 N 4463.86 -1.24123 -0.971145 0
M  V30 43808 C 4464.79 -0.988422 -2.06792 0
M  V30 43809 C 4465.81 0.0408969 -1.62749 0
M  V30 43810 O 4467 -0.195735 -1.77424 0
M  V30 43811 C 4464.1 -0.469141 -3.35637 0
M  V30 43812 C 4463.27 -1.56079 -4.08605 0
M  V30 43813 C 4462.33 -1.04476 -5.15724 0
M  V30 43814 O 4461.35 -1.73572 -5.4209 0
M  V30 43815 N 4462.56 0.122613 -5.8037 0
M  V30 43816 H 4465.32 -1.93273 -2.29054 0
M  V30 43817 H 4462.88 -1.15106 -1.13852 0
M  V30 43818 H 4464.87 -0.108756 -4.04554 0
M  V30 43819 H 4463.44 0.38081 -3.10272 0
M  V30 43820 H 4462.66 -2.09352 -3.34014 0
M  V30 43821 H 4463.95 -2.29465 -4.54118 0
M  V30 43822 H 4463.35 0.700366 -5.61348 0
M  V30 43823 H 4461.91 0.424176 -6.50418 0
M  V30 43824 N 4465.34 1.17131 -1.05443 0
M  V30 43825 C 4466.57 1.91369 -0.786481 0
M  V30 43826 C 4466.98 1.76958 0.65814 0
M  V30 43827 O 4466.34 1.10843 1.44983 0
M  V30 43828 C 4466.39 3.42352 -1.16092 0
M  V30 43829 O 4466.11 3.56323 -2.54884 0
M  V30 43830 C 4467.61 4.33659 -0.919475 0
M  V30 43831 H 4464.83 0.607108 -0.285765 0
M  V30 43832 H 4467.38 1.4852 -1.40578 0
M  V30 43833 H 4465.53 3.82937 -0.586326 0
M  V30 43834 H 4465.95 4.49886 -2.69634 0
M  V30 43835 H 4467.42 5.38095 -1.23119 0
M  V30 43836 H 4467.9 4.3896 0.145205 0
M  V30 43837 H 4468.5 3.98791 -1.47803 0
M  V30 43838 N 4466.82 0.835799 1.33612 0
M  V30 43839 C 4468.23 0.487163 1.80232 0
M  V30 43840 C 4468.58 -0.993567 1.69182 0
M  V30 43841 O 4467.71 -1.77398 1.2393 0
M  V30 43842 C 4468.3 0.8775 3.27239 0
M  V30 43843 C 4466.86 0.581046 3.71888 0
M  V30 43844 C 4466.01 1.08749 2.55086 0
M  V30 43845 H 4468.96 1.02479 1.21177 0
M  V30 43846 H 4468.98 0.186329 3.80044 0
M  V30 43847 H 4468.49 1.95524 3.35249 0
M  V30 43848 H 4466.59 -0.486752 3.69407 0
M  V30 43849 H 4466.7 1.13413 4.65483 0
M  V30 43850 H 4465.07 0.508479 2.49573 0
M  V30 43851 H 4465.85 2.17194 2.6586 0
M  V30 43852 N 4468.3 -1.46061 0.591947 0
M  V30 43853 C 4469.52 -2.06717 0.0869663 0
M  V30 43854 C 4469.94 -1.4392 -1.22198 0
M  V30 43855 O 4469.3 -0.547759 -1.74086 0
M  V30 43856 C 4469.35 -3.61421 -0.0757454 0
M  V30 43857 O 4469.07 -4.2187 1.1814 0
M  V30 43858 C 4470.57 -4.39027 -0.614005 0
M  V30 43859 H 4467.79 -0.66816 0.0616753 0
M  V30 43860 H 4470.33 -1.87548 0.815241 0
M  V30 43861 H 4468.49 -3.79986 -0.754279 0
M  V30 43862 H 4468.9 -5.14858 1.0011 0
M  V30 43863 H 4470.38 -5.47833 -0.677001 0
M  V30 43864 H 4470.85 -4.07714 -1.63298 0
M  V30 43865 H 4471.46 -4.25289 0.0299637 0
M  V30 43866 N 4469.77 -0.330231 -1.54101 0
M  V30 43867 C 4471 0.272107 -2.05103 0
M  V30 43868 C 4471.42 1.45262 -1.206 0
M  V30 43869 O 4470.77 1.80939 -0.238207 0
M  V30 43870 C 4470.83 0.700105 -3.54656 0
M  V30 43871 O 4470.55 -0.433454 -4.3595 0
M  V30 43872 C 4472.05 1.36455 -4.21776 0
M  V30 43873 H 4469.27 0.0548923 -0.668751 0
M  V30 43874 H 4471.81 -0.478355 -1.98827 0
M  V30 43875 H 4469.97 1.40053 -3.61198 0
M  V30 43876 H 4470.38 -0.0949383 -5.24414 0
M  V30 43877 H 4471.85 1.61491 -5.27849 0
M  V30 43878 H 4472.33 2.31396 -3.733 0
M  V30 43879 H 4472.94 0.706528 -4.1939 0
M  V30 43880 N 4471.25 1.57491 -0.0585476 0
M  V30 43881 C 4472.48 1.97299 0.622968 0
M  V30 43882 C 4472.9 0.936396 1.63942 0
M  V30 43883 O 4472.25 -0.078534 1.82331 0
M  V30 43884 C 4472.3 3.37187 1.30334 0
M  V30 43885 O 4472.02 4.36874 0.327577 0
M  V30 43886 C 4473.53 3.91795 2.07392 0
M  V30 43887 H 4470.75 0.649159 0.169803 0
M  V30 43888 H 4473.29 2.04105 -0.127031 0
M  V30 43889 H 4471.44 3.31509 2.00451 0
M  V30 43890 H 4471.86 5.18144 0.814087 0
M  V30 43891 H 4473.33 4.91935 2.50408 0
M  V30 43892 H 4473.81 3.2762 2.9251 0
M  V30 43893 H 4474.42 4.00834 1.4217 0
M  V30 43894 N 4472.73 -0.214903 1.56128 0
M  V30 43895 C 4474.14 -0.781327 1.69565 0
M  V30 43896 C 4474.49 -1.84705 0.661715 0
M  V30 43897 O 4473.62 -2.156 -0.185852 0
M  V30 43898 C 4474.21 -1.42401 3.07421 0
M  V30 43899 C 4472.77 -1.93774 3.22689 0
M  V30 43900 C 4471.92 -0.800344 2.65499 0
M  V30 43901 H 4474.87 0.00986212 1.58697 0
M  V30 43902 H 4474.89 -2.29299 3.03649 0
M  V30 43903 H 4474.4 -0.648125 3.8265 0
M  V30 43904 H 4472.5 -2.74144 2.52341 0
M  V30 43905 H 4472.62 -2.11315 4.2998 0
M  V30 43906 H 4470.98 -1.20943 2.24154 0
M  V30 43907 H 4471.76 -0.0370264 3.4328 0
M  V30 43908 N 4474.21 -1.50053 -0.481867 0
M  V30 43909 C 4475.46 -1.59745 -1.23144 0
M  V30 43910 C 4475.77 -0.298231 -1.93313 0
M  V30 43911 O 4476.98 -0.27393 -2.70115 0
M  V30 43912 C 4475.43 -2.81934 -2.23699 0
M  V30 43913 C 4475.04 -4.1869 -1.59381 0
M  V30 43914 C 4476.78 -3.00967 -2.99365 0
M  V30 43915 C 4474.69 -5.32079 -2.58159 0
M  V30 43916 H 4473.62 -0.594854 -0.463319 0
M  V30 43917 H 4476.27 -1.76468 -0.503107 0
M  V30 43918 H 4474.65 -2.58746 -2.99777 0
M  V30 43919 H 4475.83 -4.52091 -0.891652 0
M  V30 43920 H 4474.14 -4.05174 -0.96036 0
M  V30 43921 H 4476.74 -3.82849 -3.7327 0
M  V30 43922 H 4477.08 -2.12271 -3.58116 0
M  V30 43923 H 4477.62 -3.24285 -2.304 0
M  V30 43924 H 4474.36 -6.22895 -2.04162 0
M  V30 43925 H 4473.88 -5.0311 -3.26559 0
M  V30 43926 H 4475.55 -5.62208 -3.20206 0
M  V30 43927 N 4475.69 0.734288 -1.39449 0
M  V30 43928 C 4476.91 1.52353 -1.39987 0
M  V30 43929 C 4477.33 1.88799 0.00543113 0
M  V30 43930 O 4476.69 1.54149 0.976944 0
M  V30 43931 C 4476.74 2.81064 -2.27343 0
M  V30 43932 O 4476.46 2.46166 -3.62401 0
M  V30 43933 C 4477.96 3.75087 -2.36272 0
M  V30 43934 H 4475.18 0.470789 -0.47812 0
M  V30 43935 H 4477.72 0.907275 -1.83272 0
M  V30 43936 H 4475.88 3.39019 -1.87469 0
M  V30 43937 H 4476.29 3.28852 -4.08603 0
M  V30 43938 H 4477.77 4.62294 -3.01642 0
M  V30 43939 H 4478.24 4.16887 -1.38209 0
M  V30 43940 H 4478.85 3.23051 -2.76619 0
M  V30 43941 N 4477.16 1.24636 0.964549 0
M  V30 43942 C 4478.39 1.11507 1.74281 0
M  V30 43943 C 4478.81 -0.3321 1.85856 0
M  V30 43944 O 4478.16 -1.22898 1.34916 0
M  V30 43945 C 4478.22 1.75269 3.16169 0
M  V30 43946 O 4477.94 3.14329 3.05171 0
M  V30 43947 C 4479.44 1.67791 4.10318 0
M  V30 43948 H 4476.66 0.389426 0.546432 0
M  V30 43949 H 4479.2 1.64805 1.21077 0
M  V30 43950 H 4477.36 1.25967 3.66348 0
M  V30 43951 H 4477.77 3.45524 3.94606 0
M  V30 43952 H 4479.24 2.17082 5.07523 0
M  V30 43953 H 4479.72 0.639737 4.34516 0
M  V30 43954 H 4480.33 2.16535 3.6605 0
M  V30 43955 N 4478.64 -1.1657 1.06062 0
M  V30 43956 C 4479.87 -1.90949 0.796619 0
M  V30 43957 C 4480.29 -1.77304 -0.648746 0
M  V30 43958 O 4479.64 -1.1161 -1.44393 0
M  V30 43959 C 4479.69 -3.41732 1.17906 0
M  V30 43960 O 4479.41 -3.54966 2.5677 0
M  V30 43961 C 4480.92 -4.33166 0.94246 0
M  V30 43962 H 4478.14 -0.605584 0.28898 0
M  V30 43963 H 4480.68 -1.47772 1.41363 0
M  V30 43964 H 4478.83 -3.82621 0.606625 0
M  V30 43965 H 4479.25 -4.4845 2.72016 0
M  V30 43966 H 4480.72 -5.37434 1.2597 0
M  V30 43967 H 4481.2 -4.39031 -0.121924 0
M  V30 43968 H 4481.81 -3.98002 1.49916 0
M  V30 43969 N 4480.12 -0.842873 -1.33167 0
M  V30 43970 C 4481.35 -0.454126 -2.01855 0
M  V30 43971 C 4481.76 0.945813 -1.63401 0
M  V30 43972 O 4481.12 1.61531 -0.849358 0
M  V30 43973 C 4481.17 -0.56984 -3.5698 0
M  V30 43974 O 4480.89 -1.91462 -3.94048 0
M  V30 43975 C 4482.39 -0.178568 -4.4294 0
M  V30 43976 H 4479.61 -0.179812 -0.646458 0
M  V30 43977 H 4482.16 -1.13656 -1.70008 0
M  V30 43978 H 4480.31 0.0647225 -3.87346 0
M  V30 43979 H 4480.73 -1.90299 -4.8876 0
M  V30 43980 H 4482.2 -0.31057 -5.51126 0
M  V30 43981 H 4482.68 0.879905 -4.30296 0
M  V30 43982 H 4483.28 -0.787726 -4.17941 0
M  V30 43983 N 4481.6 1.45745 -0.599685 0
M  V30 43984 C 4482.83 2.06668 -0.0979277 0
M  V30 43985 C 4483.24 1.44566 1.21433 0
M  V30 43986 O 4482.6 0.556984 1.73793 0
M  V30 43987 C 4482.65 3.61456 0.0565773 0
M  V30 43988 O 4482.37 4.21238 -1.20376 0
M  V30 43989 C 4483.87 4.39347 0.590714 0
M  V30 43990 H 4481.09 0.667823 -0.0652178 0
M  V30 43991 H 4483.64 1.87113 -0.825176 0
M  V30 43992 H 4481.79 3.80381 0.734117 0
M  V30 43993 H 4482.21 5.14319 -1.02839 0
M  V30 43994 H 4483.68 5.48184 0.647938 0
M  V30 43995 H 4484.16 4.08574 1.61133 0
M  V30 43996 H 4484.76 4.25268 -0.0525175 0
M  V30 43997 N 4483.08 0.338398 1.53924 0
M  V30 43998 C 4484.32 -0.260073 2.01125 0
M  V30 43999 C 4484.66 -1.50613 1.22594 0
M  V30 44000 O 4483.93 -1.91978 0.31218 0
M  V30 44001 C 4484.21 -0.579374 3.55409 0
M  V30 44002 C 4484.07 0.678421 4.44654 0
M  V30 44003 C 4485.39 -1.39107 4.17537 0
M  V30 44004 H 4482.51 -0.0930515 0.731102 0
M  V30 44005 H 4485.15 0.457916 1.84399 0
M  V30 44006 H 4483.3 -1.19105 3.69792 0
M  V30 44007 H 4484.97 1.31647 4.42116 0
M  V30 44008 H 4483.21 1.30435 4.13726 0
M  V30 44009 H 4483.88 0.410337 5.50473 0
M  V30 44010 H 4486.36 -0.873892 4.0682 0
M  V30 44011 H 4485.24 -1.58324 5.25571 0
M  V30 44012 H 4485.5 -2.39165 3.71823 0
M  V30 44013 N 4484.56 -1.57458 0.0668989 0
M  V30 44014 C 4485.78 -1.97626 -0.612496 0
M  V30 44015 C 4486.2 -0.945077 -1.63443 0
M  V30 44016 O 4485.56 0.0688635 -1.8237 0
M  V30 44017 C 4485.61 -3.37874 -1.28544 0
M  V30 44018 O 4485.33 -4.37041 -0.304404 0
M  V30 44019 C 4486.83 -3.92889 -2.05311 0
M  V30 44020 H 4484.05 -0.650051 -0.166358 0
M  V30 44021 H 4486.59 -2.04035 0.137854 0
M  V30 44022 H 4484.75 -3.32567 -1.98691 0
M  V30 44023 H 4485.16 -5.18568 -0.786597 0
M  V30 44024 H 4486.64 -4.93256 -2.47795 0
M  V30 44025 H 4487.11 -3.29166 -2.90768 0
M  V30 44026 H 4487.72 -4.01582 -1.40042 0
M  V30 44027 N 4486.03 0.20662 -1.5624 0
M  V30 44028 C 4487.44 0.772323 -1.69977 0
M  V30 44029 C 4487.8 1.84351 -0.671501 0
M  V30 44030 O 4486.92 2.15696 0.174415 0
M  V30 44031 C 4487.52 1.40768 -3.08172 0
M  V30 44032 C 4486.07 1.9206 -3.23713 0
M  V30 44033 C 4485.22 0.786253 -2.6592 0
M  V30 44034 H 4488.17 -0.0182781 -1.58689 0
M  V30 44035 H 4488.19 2.27685 -3.0486 0
M  V30 44036 H 4487.71 0.627823 -3.82988 0
M  V30 44037 H 4485.81 2.72801 -2.53792 0
M  V30 44038 H 4485.92 2.09031 -4.31095 0
M  V30 44039 H 4484.28 1.19752 -2.24792 0
M  V30 44040 H 4485.07 0.0188209 -3.43295 0
M  V30 44041 N 4487.51 1.50306 0.473902 0
M  V30 44042 C 4488.74 1.64907 1.24954 0
M  V30 44043 C 4489.15 0.331263 1.85871 0
M  V30 44044 O 4488.51 -0.68646 1.69098 0
M  V30 44045 C 4488.56 2.73812 2.36029 0
M  V30 44046 O 4488.28 4.00483 1.7761 0
M  V30 44047 C 4489.78 2.9936 3.26953 0
M  V30 44048 H 4487 0.554396 0.378003 0
M  V30 44049 H 4489.55 1.96512 0.565985 0
M  V30 44050 H 4487.7 2.44909 3.00164 0
M  V30 44051 H 4488.12 4.60687 2.50734 0
M  V30 44052 H 4489.59 3.79231 4.01108 0
M  V30 44053 H 4490.07 2.10321 3.85567 0
M  V30 44054 H 4490.67 3.29784 2.68557 0
M  V30 44055 N 4488.99 -0.726883 1.39836 0
M  V30 44056 C 4490.4 -1.30553 1.33465 0
M  V30 44057 C 4490.75 -1.962 0.002799 0
M  V30 44058 O 4489.88 -1.96829 -0.899301 0
M  V30 44059 C 4490.47 -2.37395 2.41721 0
M  V30 44060 C 4489.03 -2.90913 2.38845 0
M  V30 44061 C 4488.18 -1.64571 2.23186 0
M  V30 44062 H 4491.13 -0.523809 1.49806 0
M  V30 44063 H 4491.15 -3.17976 2.08977 0
M  V30 44064 H 4490.66 -1.89587 3.38642 0
M  V30 44065 H 4488.76 -3.4298 1.45587 0
M  V30 44066 H 4488.88 -3.43475 3.34009 0
M  V30 44067 H 4487.24 -1.89213 1.70501 0
M  V30 44068 H 4488.02 -1.18803 3.22088 0
M  V30 44069 N 4490.47 -1.25146 -0.957926 0
M  V30 44070 C 4491.7 -1.1243 -1.73687 0
M  V30 44071 C 4492.11 0.322239 -1.8603 0
M  V30 44072 O 4491.47 1.22181 -1.35565 0
M  V30 44073 C 4491.52 -1.76944 -3.15235 0
M  V30 44074 O 4491.24 -3.15943 -3.03499 0
M  V30 44075 C 4492.74 -1.69965 -4.09423 0
M  V30 44076 H 4489.96 -0.392319 -0.544359 0
M  V30 44077 H 4492.5 -1.65445 -1.20201 0
M  V30 44078 H 4490.66 -1.27908 -3.65675 0
M  V30 44079 H 4491.07 -3.47611 -3.92768 0
M  V30 44080 H 4492.55 -2.19771 -5.06364 0
M  V30 44081 H 4493.02 -0.662771 -4.3417 0
M  V30 44082 H 4493.63 -2.18473 -3.64897 0
M  V30 44083 N 4491.95 1.16006 -1.06679 0
M  V30 44084 C 4493.36 1.68232 -0.809624 0
M  V30 44085 C 4493.71 1.84542 0.666238 0
M  V30 44086 O 4492.83 1.54379 1.51644 0
M  V30 44087 C 4493.43 3.0558 -1.4631 0
M  V30 44088 C 4491.99 3.54911 -1.25361 0
M  V30 44089 C 4491.13 2.30799 -1.53711 0
M  V30 44090 H 4494.08 1.00314 -1.22975 0
M  V30 44091 H 4494.11 3.70171 -0.880561 0
M  V30 44092 H 4493.62 2.93677 -2.53723 0
M  V30 44093 H 4491.72 3.72066 -0.199392 0
M  V30 44094 H 4491.83 4.36767 -1.96905 0
M  V30 44095 H 4490.2 2.36004 -0.957822 0
M  V30 44096 H 4490.98 2.2149 -2.62292 0
M  V30 44097 N 4493.42 0.849923 1.32718 0
M  V30 44098 C 4494.65 0.464825 2.01611 0
M  V30 44099 C 4495.07 -0.937134 1.639 0
M  V30 44100 O 4494.42 -1.61078 0.857913 0
M  V30 44101 C 4494.47 0.588764 3.56673 0
M  V30 44102 O 4494.2 1.93549 3.93027 0
M  V30 44103 C 4495.7 0.202055 4.42839 0
M  V30 44104 H 4492.92 0.183238 0.645496 0
M  V30 44105 H 4495.46 1.14556 1.69403 0
M  V30 44106 H 4493.62 -0.0441797 3.87375 0
M  V30 44107 H 4494.03 1.92888 4.87744 0
M  V30 44108 H 4495.5 0.339793 5.50953 0
M  V30 44109 H 4495.98 -0.857073 4.30756 0
M  V30 44110 H 4496.59 0.80988 4.17518 0
M  V30 44111 N 4494.9 -1.45425 0.607406 0
M  V30 44112 C 4496.15 -2.01841 0.102324 0
M  V30 44113 C 4496.47 -1.47836 -1.27159 0
M  V30 44114 O 4495.74 -0.672562 -1.83993 0
M  V30 44115 H 4494.32 -0.746187 0.0348363 0
M  V30 44116 H 4496.98 -1.78226 0.788762 0
M  V30 44117 H 4496.08 -3.12057 0.0519682 0
M  V30 44118 N 4496.38 -0.346557 -1.53742 0
M  V30 44119 C 4497.61 0.250338 -2.0538 0
M  V30 44120 C 4498.02 1.43975 -1.22134 0
M  V30 44121 O 4497.38 1.80676 -0.257385 0
M  V30 44122 C 4497.43 0.66245 -3.55378 0
M  V30 44123 O 4497.15 -0.479668 -4.35466 0
M  V30 44124 C 4498.65 1.31974 -4.23199 0
M  V30 44125 H 4495.87 0.0477963 -0.669296 0
M  V30 44126 H 4498.42 -0.499416 -1.98308 0
M  V30 44127 H 4496.57 1.36214 -3.62663 0
M  V30 44128 H 4496.99 -0.150554 -5.24284 0
M  V30 44129 H 4498.46 1.55883 -5.29532 0
M  V30 44130 H 4498.94 2.27423 -3.75733 0
M  V30 44131 H 4499.54 0.662006 -4.20116 0
M  V30 44132 N 4497.86 1.5742 -0.0752483 0
M  V30 44133 C 4498.79 2.09907 0.920409 0
M  V30 44134 C 4499.8 1.03196 1.25914 0
M  V30 44135 O 4500.99 1.30699 1.21573 0
M  V30 44136 C 4498.09 2.54734 2.23525 0
M  V30 44137 C 4497.27 3.85057 2.07485 0
M  V30 44138 C 4496.32 4.1594 3.22304 0
M  V30 44139 O 4495.35 4.85484 2.97142 0
M  V30 44140 N 4496.55 3.69761 4.47501 0
M  V30 44141 H 4499.32 2.95956 0.472255 0
M  V30 44142 H 4496.88 1.61523 0.110387 0
M  V30 44143 H 4498.87 2.72454 2.99251 0
M  V30 44144 H 4497.44 1.73804 2.59828 0
M  V30 44145 H 4496.66 3.76683 1.16206 0
M  V30 44146 H 4497.95 4.70354 1.94021 0
M  V30 44147 H 4497.35 3.13586 4.70829 0
M  V30 44148 H 4495.9 3.92674 5.20241 0
M  V30 44149 N 4499.34 -0.198331 1.56347 0
M  V30 44150 C 4500.56 -0.935507 1.84542 0
M  V30 44151 C 4500.98 -1.76987 0.657343 0
M  V30 44152 O 4500.34 -1.78627 -0.37398 0
M  V30 44153 C 4500.39 -1.8343 3.11506 0
M  V30 44154 O 4500.11 -1.03362 4.25732 0
M  V30 44155 C 4501.61 -2.68342 3.52856 0
M  V30 44156 H 4498.83 -0.273104 0.612907 0
M  V30 44157 H 4501.37 -0.206558 2.03454 0
M  V30 44158 H 4499.53 -2.51691 2.94501 0
M  V30 44159 H 4499.94 -1.64581 4.98009 0
M  V30 44160 H 4501.42 -3.27069 4.44668 0
M  V30 44161 H 4501.89 -3.41891 2.75693 0
M  V30 44162 H 4502.5 -2.05458 3.7238 0
M  V30 44163 N 4500.81 -1.50555 -0.465925 0
M  V30 44164 C 4502.23 -1.54602 -1.04666 0
M  V30 44165 C 4502.58 -0.352556 -1.93006 0
M  V30 44166 O 4501.7 0.53397 -2.09709 0
M  V30 44167 C 4502.3 -2.80173 -1.90496 0
M  V30 44168 C 4500.86 -2.86884 -2.43668 0
M  V30 44169 C 4500 -2.48951 -1.22142 0
M  V30 44170 H 4502.95 -1.56745 -0.248329 0
M  V30 44171 H 4502.97 -2.6232 -2.75623 0
M  V30 44172 H 4502.49 -3.67018 -1.26173 0
M  V30 44173 H 4500.59 -2.04404 -3.11528 0
M  V30 44174 H 4500.7 -3.89895 -2.78422 0
M  V30 44175 H 4499.06 -2.01504 -1.55783 0
M  V30 44176 H 4499.85 -3.38109 -0.594748 0
M  V30 44177 N 4502.29 0.719457 -1.4022 0
M  V30 44178 C 4503.52 1.50859 -1.41595 0
M  V30 44179 C 4503.94 1.88794 -0.0145939 0
M  V30 44180 O 4503.29 1.55177 0.960539 0
M  V30 44181 C 4503.34 2.78637 -2.30312 0
M  V30 44182 O 4503.06 2.42308 -3.64991 0
M  V30 44183 C 4504.57 3.7256 -2.40237 0
M  V30 44184 H 4501.79 0.465692 -0.483086 0
M  V30 44185 H 4504.33 0.887785 -1.84224 0
M  V30 44186 H 4502.48 3.37012 -1.91054 0
M  V30 44187 H 4502.9 3.245 -4.12068 0
M  V30 44188 H 4504.37 4.59069 -3.06528 0
M  V30 44189 H 4504.85 4.15398 -1.42623 0
M  V30 44190 H 4505.46 3.20099 -2.8003 0
M  V30 44191 N 4503.77 1.25652 0.951275 0
M  V30 44192 C 4505 1.13349 1.73088 0
M  V30 44193 C 4505.41 -0.312369 1.86198 0
M  V30 44194 O 4504.77 -1.21461 1.36211 0
M  V30 44195 C 4504.82 1.78613 3.14292 0
M  V30 44196 O 4504.54 3.17548 3.0182 0
M  V30 44197 C 4506.04 1.72133 4.08516 0
M  V30 44198 H 4503.26 0.3952 0.542271 0
M  V30 44199 H 4505.81 1.6608 1.19322 0
M  V30 44200 H 4503.96 1.29845 3.64992 0
M  V30 44201 H 4504.38 3.4969 3.90919 0
M  V30 44202 H 4505.85 2.22453 5.05192 0
M  V30 44203 H 4506.33 0.685787 4.33813 0
M  V30 44204 H 4506.93 2.20405 3.63733 0
M  V30 44205 N 4505.25 -1.15438 1.07293 0
M  V30 44206 C 4506.48 -1.90094 0.816827 0
M  V30 44207 C 4506.89 -1.77982 -0.629904 0
M  V30 44208 O 4506.25 -1.13135 -1.43202 0
M  V30 44209 C 4506.3 -3.40462 1.21524 0
M  V30 44210 O 4506.02 -3.52222 2.6052 0
M  V30 44211 C 4507.52 -4.32142 0.98835 0
M  V30 44212 H 4504.74 -0.602484 0.295387 0
M  V30 44213 H 4507.29 -1.46265 1.42923 0
M  V30 44214 H 4505.44 -3.81956 0.647173 0
M  V30 44215 H 4505.85 -4.4554 2.76757 0
M  V30 44216 H 4507.33 -5.36068 1.31664 0
M  V30 44217 H 4507.81 -4.39135 -0.0753519 0
M  V30 44218 H 4508.41 -3.96389 1.54129 0
M  V30 44219 N 4506.73 -0.85695 -1.32265 0
M  V30 44220 C 4508.14 -0.515775 -1.79434 0
M  V30 44221 C 4508.49 0.966526 -1.70742 0
M  V30 44222 O 4507.61 1.75404 -1.26737 0
M  V30 44223 C 4508.21 -0.929449 -3.25802 0
M  V30 44224 C 4506.77 -0.640137 -3.70917 0
M  V30 44225 C 4505.91 -1.12793 -2.53324 0
M  V30 44226 H 4508.87 -1.04393 -1.19531 0
M  V30 44227 H 4508.89 -0.246767 -3.79699 0
M  V30 44228 H 4508.4 -2.00832 -3.32096 0
M  V30 44229 H 4506.5 0.427921 -3.70135 0
M  V30 44230 H 4506.61 -1.20804 -4.6362 0
M  V30 44231 H 4504.98 -0.54812 -2.48732 0
M  V30 44232 H 4505.76 -2.21396 -2.62371 0
M  V30 44233 N 4508.2 1.45101 -0.61511 0
M  V30 44234 C 4509.45 2.01396 -0.110789 0
M  V30 44235 C 4509.77 1.48839 1.26911 0
M  V30 44236 O 4510.97 1.97158 1.86657 0
M  V30 44237 C 4509.43 3.59598 -0.147356 0
M  V30 44238 C 4509.04 4.21152 -1.52757 0
M  V30 44239 C 4510.78 4.23429 0.301332 0
M  V30 44240 C 4508.69 5.7153 -1.52012 0
M  V30 44241 H 4507.62 0.753059 -0.0376505 0
M  V30 44242 H 4510.27 1.66491 -0.771549 0
M  V30 44243 H 4508.65 3.91727 0.580201 0
M  V30 44244 H 4509.82 4.00586 -2.27744 0
M  V30 44245 H 4508.14 3.69545 -1.91899 0
M  V30 44246 H 4510.74 5.33704 0.326204 0
M  V30 44247 H 4511.08 3.94634 1.32551 0
M  V30 44248 H 4511.61 3.96045 -0.373204 0
M  V30 44249 H 4508.35 6.05036 -2.52215 0
M  V30 44250 H 4507.87 5.94265 -0.812949 0
M  V30 44251 H 4509.55 6.34868 -1.24704 0
M  V30 44252 N 4509.68 0.354705 1.53557 0
M  V30 44253 C 4510.91 -0.239442 2.0551 0
M  V30 44254 C 4511.33 -1.43325 1.22895 0
M  V30 44255 O 4510.68 -1.80537 0.266963 0
M  V30 44256 C 4510.73 -0.643594 3.55725 0
M  V30 44257 O 4510.46 0.502755 4.35206 0
M  V30 44258 C 4511.96 -1.29728 4.23893 0
M  V30 44259 H 4509.18 -0.0442462 0.66954 0
M  V30 44260 H 4511.72 0.509926 1.9804 0
M  V30 44261 H 4509.88 -1.34289 3.6338 0
M  V30 44262 H 4510.29 0.178356 5.24197 0
M  V30 44263 H 4511.76 -1.53073 5.30352 0
M  V30 44264 H 4512.24 -2.25427 3.76934 0
M  V30 44265 H 4512.85 -0.639717 4.20461 0
M  V30 44266 N 4511.16 -1.57378 0.0835957 0
M  V30 44267 C 4512.39 -1.98265 -0.591501 0
M  V30 44268 C 4512.8 -0.962359 -1.62432 0
M  V30 44269 O 4512.16 0.0495168 -1.82433 0
M  V30 44270 C 4512.21 -3.39218 -1.24953 0
M  V30 44271 O 4511.93 -4.37339 -0.258032 0
M  V30 44272 C 4513.43 -3.95045 -2.01133 0
M  V30 44273 H 4510.65 -0.651779 -0.159454 0
M  V30 44274 H 4513.2 -2.03877 0.159487 0
M  V30 44275 H 4511.35 -3.34656 -1.95152 0
M  V30 44276 H 4511.77 -5.19373 -0.731551 0
M  V30 44277 H 4513.24 -4.95857 -2.4255 0
M  V30 44278 H 4513.72 -3.32232 -2.87261 0
M  V30 44279 H 4514.32 -4.03045 -1.35775 0
M  V30 44280 N 4512.64 0.190037 -1.5645 0
M  V30 44281 C 4513.87 0.925707 -1.85036 0
M  V30 44282 C 4514.28 1.76636 -0.66672 0
M  V30 44283 O 4513.64 1.78823 0.364502 0
M  V30 44284 C 4513.69 1.81775 -3.12474 0
M  V30 44285 O 4513.41 1.01103 -4.26274 0
M  V30 44286 C 4514.91 2.66467 -3.54274 0
M  V30 44287 H 4512.13 0.26985 -0.614347 0
M  V30 44288 H 4514.68 0.195766 -2.03561 0
M  V30 44289 H 4512.83 2.50125 -2.95831 0
M  V30 44290 H 4513.25 1.61938 -4.98875 0
M  V30 44291 H 4514.72 3.24706 -4.46396 0
M  V30 44292 H 4515.2 3.40425 -2.77503 0
M  V30 44293 H 4515.8 2.0348 -3.73465 0
M  V30 44294 N 4514.12 1.508 0.457934 0
M  V30 44295 C 4515.35 1.66223 1.23198 0
M  V30 44296 C 4515.76 0.350959 1.85509 0
M  V30 44297 O 4515.12 -0.668487 1.69816 0
M  V30 44298 C 4515.17 2.763 2.33111 0
M  V30 44299 O 4514.89 4.02344 1.73352 0
M  V30 44300 C 4516.39 3.02811 3.2376 0
M  V30 44301 H 4513.61 0.558374 0.372102 0
M  V30 44302 H 4516.15 1.97101 0.54511 0
M  V30 44303 H 4514.31 2.48078 2.9755 0
M  V30 44304 H 4514.72 4.63321 2.45834 0
M  V30 44305 H 4516.2 3.83464 3.97063 0
M  V30 44306 H 4516.67 2.14399 3.83314 0
M  V30 44307 H 4517.28 3.32613 2.65044 0
M  V30 44308 N 4515.6 -0.71201 1.40599 0
M  V30 44309 C 4516.82 -1.50106 1.42393 0
M  V30 44310 C 4517.24 -1.88784 0.0246059 0
M  V30 44311 O 4516.6 -1.55684 -0.952296 0
M  V30 44312 C 4516.65 -2.77412 2.31786 0
M  V30 44313 O 4516.37 -2.40369 3.66271 0
M  V30 44314 C 4517.87 -3.71281 2.42209 0
M  V30 44315 H 4515.09 -0.463123 0.485549 0
M  V30 44316 H 4517.63 -0.878003 1.84693 0
M  V30 44317 H 4515.79 -3.35994 1.92839 0
M  V30 44318 H 4516.2 -3.2231 4.13783 0
M  V30 44319 H 4517.68 -4.57437 3.08959 0
M  V30 44320 H 4518.15 -4.14636 1.44824 0
M  V30 44321 H 4518.76 -3.18609 2.81724 0
M  V30 44322 N 4517.07 -1.26155 -0.944598 0
M  V30 44323 C 4518.32 -1.11663 -1.6929 0
M  V30 44324 C 4518.65 0.339859 -1.91203 0
M  V30 44325 O 4517.93 1.24989 -1.49023 0
M  V30 44326 C 4518.21 -1.88247 -3.06977 0
M  V30 44327 C 4518.06 -3.41783 -2.92412 0
M  V30 44328 C 4519.38 -1.67357 -4.07038 0
M  V30 44329 H 4516.5 -0.407026 -0.614409 0
M  V30 44330 H 4519.14 -1.55109 -1.09732 0
M  V30 44331 H 4517.29 -1.51321 -3.57819 0
M  V30 44332 H 4518.97 -3.88442 -2.48818 0
M  V30 44333 H 4517.21 -3.68982 -2.28111 0
M  V30 44334 H 4517.88 -3.90593 -3.90053 0
M  V30 44335 H 4520.36 -1.99522 -3.65144 0
M  V30 44336 H 4519.23 -2.23363 -5.01398 0
M  V30 44337 H 4519.49 -0.617312 -4.37769 0
M  V30 44338 N 4518.55 1.14868 -1.07903 0
M  V30 44339 C 4519.78 1.89658 -0.826896 0
M  V30 44340 C 4520.19 1.78314 0.620456 0
M  V30 44341 O 4519.55 1.13893 1.426 0
M  V30 44342 C 4519.6 3.39812 -1.23328 0
M  V30 44343 O 4519.32 3.50836 -2.62385 0
M  V30 44344 C 4520.82 4.31612 -1.01125 0
M  V30 44345 H 4518.04 0.60091 -0.298578 0
M  V30 44346 H 4520.59 1.45505 -1.43696 0
M  V30 44347 H 4518.74 3.81607 -0.66742 0
M  V30 44348 H 4519.16 4.44066 -2.79116 0
M  V30 44349 H 4520.63 5.35362 -1.34505 0
M  V30 44350 H 4521.11 4.39169 0.0520624 0
M  V30 44351 H 4521.71 3.95566 -1.56229 0
M  V30 44352 N 4520.03 0.863952 1.31809 0
M  V30 44353 C 4521.44 0.525283 1.79158 0
M  V30 44354 C 4521.79 -0.957458 1.71252 0
M  V30 44355 O 4520.92 -1.7473 1.27665 0
M  V30 44356 C 4521.51 0.946714 3.25304 0
M  V30 44357 C 4520.07 0.659798 3.70572 0
M  V30 44358 C 4519.22 1.14135 2.52722 0
M  V30 44359 H 4522.17 1.05026 1.18976 0
M  V30 44360 H 4522.19 0.2669 3.79563 0
M  V30 44361 H 4521.7 2.02591 3.31027 0
M  V30 44362 H 4519.8 -0.408285 3.70356 0
M  V30 44363 H 4519.92 1.23261 4.62973 0
M  V30 44364 H 4518.28 0.561303 2.48438 0
M  V30 44365 H 4519.06 2.22784 2.61194 0
M  V30 44366 N 4521.51 -1.44772 0.622796 0
M  V30 44367 C 4522.74 -2.06486 0.130794 0
M  V30 44368 C 4523.15 -1.4648 -1.19118 0
M  V30 44369 O 4522.51 -0.584562 -1.72885 0
M  V30 44370 C 4522.56 -3.615 0.000934293 0
M  V30 44371 O 4522.28 -4.19269 1.27062 0
M  V30 44372 C 4523.78 -4.40231 -0.520743 0
M  V30 44373 H 4521 -0.666701 0.075834 0
M  V30 44374 H 4523.54 -1.85776 0.854839 0
M  V30 44375 H 4521.7 -3.815 -0.673509 0
M  V30 44376 H 4522.11 -5.12618 1.11008 0
M  V30 44377 H 4523.59 -5.49145 -0.560645 0
M  V30 44378 H 4524.06 -4.11086 -1.54613 0
M  V30 44379 H 4524.67 -4.2513 0.120167 0
M  V30 44380 N 4522.99 -0.362844 -1.53366 0
M  V30 44381 C 4524.4 0.116957 -1.86333 0
M  V30 44382 C 4524.75 1.48392 -1.28352 0
M  V30 44383 O 4523.87 2.07785 -0.604501 0
M  V30 44384 C 4524.47 0.219001 -3.38091 0
M  V30 44385 C 4523.03 0.643053 -3.70866 0
M  V30 44386 C 4522.17 -0.211416 -2.76493 0
M  V30 44387 H 4525.12 -0.581739 -1.47653 0
M  V30 44388 H 4525.15 1.04307 -3.65924 0
M  V30 44389 H 4524.66 -0.776036 -3.80262 0
M  V30 44390 H 4522.76 1.64642 -3.34251 0
M  V30 44391 H 4522.87 0.419562 -4.77259 0
M  V30 44392 H 4521.24 0.319278 -2.52691 0
M  V30 44393 H 4522.02 -1.20394 -3.21497 0
M  V30 44394 N 4524.46 1.57332 -0.0919406 0
M  V30 44395 C 4525.69 1.98576 0.580978 0
M  V30 44396 C 4526.11 0.97096 1.61919 0
M  V30 44397 O 4525.46 -0.0398413 1.82457 0
M  V30 44398 C 4525.52 3.39876 1.23152 0
M  V30 44399 O 4525.24 4.3747 0.234836 0
M  V30 44400 C 4526.74 3.96106 1.99035 0
M  V30 44401 H 4523.96 0.652615 0.155995 0
M  V30 44402 H 4526.5 2.0379 -0.170296 0
M  V30 44403 H 4524.66 3.35686 1.93375 0
M  V30 44404 H 4525.07 5.19754 0.703997 0
M  V30 44405 H 4526.54 4.97136 2.39917 0
M  V30 44406 H 4527.02 3.3375 2.85495 0
M  V30 44407 H 4527.63 4.03759 1.33635 0
M  V30 44408 N 4525.94 -0.181737 1.56549 0
M  V30 44409 C 4527.35 -0.745184 1.71184 0
M  V30 44410 C 4527.7 -1.83259 0.700745 0
M  V30 44411 O 4526.83 -2.15946 -0.140078 0
M  V30 44412 C 4527.42 -1.35848 3.10372 0
M  V30 44413 C 4525.98 -1.86886 3.26727 0
M  V30 44414 C 4525.13 -0.743848 2.67137 0
M  V30 44415 H 4528.08 0.0435219 1.5864 0
M  V30 44416 H 4528.1 -2.22806 3.08444 0
M  V30 44417 H 4527.61 -0.566814 3.83939 0
M  V30 44418 H 4525.72 -2.68729 2.58099 0
M  V30 44419 H 4525.83 -2.02146 4.34366 0
M  V30 44420 H 4524.19 -1.16161 2.26669 0
M  V30 44421 H 4524.98 0.0357967 3.43281 0
M  V30 44422 N 4527.42 -1.51041 -0.44993 0
M  V30 44423 C 4528.65 -1.66874 -1.22314 0
M  V30 44424 C 4529.06 -0.360792 -1.85321 0
M  V30 44425 O 4528.42 0.659472 -1.70168 0
M  V30 44426 C 4528.47 -2.77532 -2.31643 0
M  V30 44427 O 4528.19 -4.03258 -1.71216 0
M  V30 44428 C 4529.69 -3.04524 -3.22149 0
M  V30 44429 H 4526.91 -0.560339 -0.369135 0
M  V30 44430 H 4529.46 -1.97387 -0.53465 0
M  V30 44431 H 4527.61 -2.49653 -2.9623 0
M  V30 44432 H 4528.03 -4.64618 -2.43373 0
M  V30 44433 H 4529.5 -3.85564 -3.95024 0
M  V30 44434 H 4529.98 -2.16428 -3.82172 0
M  V30 44435 H 4530.58 -3.34014 -2.63277 0
M  V30 44436 N 4528.9 0.704544 -1.40975 0
M  V30 44437 C 4530.15 1.46164 -1.39573 0
M  V30 44438 C 4530.47 1.95 -0.002606 0
M  V30 44439 O 4529.74 1.71098 0.954054 0
M  V30 44440 H 4528.32 0.542308 -0.513723 0
M  V30 44441 H 4530.98 0.834491 -1.76131 0
M  V30 44442 H 4530.08 2.32915 -2.07743 0
M  V30 44443 N 4530.38 1.26654 0.937895 0
M  V30 44444 C 4531.6 1.15179 1.71876 0
M  V30 44445 C 4532.02 -0.292602 1.86519 0
M  V30 44446 O 4531.38 -1.20009 1.37492 0
M  V30 44447 C 4531.43 1.81936 3.1238 0
M  V30 44448 O 4531.15 3.20731 2.98435 0
M  V30 44449 C 4532.65 1.76457 4.06667 0
M  V30 44450 H 4529.87 0.400929 0.538049 0
M  V30 44451 H 4532.41 1.67336 1.17554 0
M  V30 44452 H 4530.57 1.33709 3.63594 0
M  V30 44453 H 4530.98 3.53816 3.87188 0
M  V30 44454 H 4532.46 2.27799 5.02804 0
M  V30 44455 H 4532.93 0.73176 4.33061 0
M  V30 44456 H 4533.54 2.24251 3.61375 0
M  V30 44457 N 4531.85 -1.14294 1.08511 0
M  V30 44458 C 4532.79 -2.19068 0.673936 0
M  V30 44459 C 4533.8 -1.60382 -0.279521 0
M  V30 44460 O 4534.99 -1.78374 -0.0670127 0
M  V30 44461 C 4532.09 -3.38888 -0.0289788 0
M  V30 44462 C 4531.26 -4.271 0.943644 0
M  V30 44463 C 4530.32 -5.25476 0.27586 0
M  V30 44464 O 4529.35 -5.61706 0.920599 0
M  V30 44465 N 4530.55 -5.72274 -0.973812 0
M  V30 44466 H 4533.31 -2.5496 1.5753 0
M  V30 44467 H 4530.87 -1.29525 0.971333 0
M  V30 44468 H 4532.87 -4.01763 -0.486689 0
M  V30 44469 H 4531.44 -3.01312 -0.832449 0
M  V30 44470 H 4530.66 -3.61143 1.58017 0
M  V30 44471 H 4531.94 -4.82899 1.60268 0
M  V30 44472 H 4531.34 -5.44971 -1.51735 0
M  V30 44473 H 4529.9 -6.37132 -1.375 0
M  V30 44474 N 4533.33 -0.87093 -1.31349 0
M  V30 44475 C 4534.56 -0.49684 -2.00846 0
M  V30 44476 C 4534.98 0.91094 -1.6537 0
M  V30 44477 O 4534.33 1.59693 -0.88343 0
M  V30 44478 C 4534.38 -0.645433 -3.55691 0
M  V30 44479 O 4534.1 -1.99777 -3.89898 0
M  V30 44480 C 4535.61 -0.272482 -4.42462 0
M  V30 44481 H 4532.83 -0.193484 -0.642499 0
M  V30 44482 H 4535.37 -1.17236 -1.67559 0
M  V30 44483 H 4533.52 -0.0174538 -3.87396 0
M  V30 44484 H 4533.94 -2.00624 -4.84614 0
M  V30 44485 H 4535.41 -0.427402 -5.50343 0
M  V30 44486 H 4535.89 0.788435 -4.32065 0
M  V30 44487 H 4536.5 -0.876201 -4.16176 0
M  V30 44488 N 4534.81 1.4444 -0.630465 0
M  V30 44489 C 4536.22 1.85433 -0.217128 0
M  V30 44490 C 4536.57 1.52752 1.23131 0
M  V30 44491 O 4535.7 0.965273 1.93679 0
M  V30 44492 C 4536.29 3.36579 -0.387287 0
M  V30 44493 C 4534.85 3.76389 -0.028462 0
M  V30 44494 C 4534 2.68294 -0.700984 0
M  V30 44495 H 4536.95 1.34916 -0.835668 0
M  V30 44496 H 4536.97 3.78658 0.373953 0
M  V30 44497 H 4536.48 3.60334 -1.44157 0
M  V30 44498 H 4534.58 3.5825 1.02411 0
M  V30 44499 H 4534.7 4.77093 -0.43806 0
M  V30 44500 H 4533.06 2.54335 -0.136356 0
M  V30 44501 H 4533.84 2.94881 -1.75784 0
M  V30 44502 N 4536.29 0.370972 1.53172 0
M  V30 44503 C 4537.52 -0.217632 2.05752 0
M  V30 44504 C 4537.93 -1.42014 1.24409 0
M  V30 44505 O 4537.29 -1.80244 0.286096 0
M  V30 44506 C 4537.34 -0.605828 3.56387 0
M  V30 44507 O 4537.06 0.548886 4.34648 0
M  V30 44508 C 4538.56 -1.25225 4.25245 0
M  V30 44509 H 4535.78 -0.0371423 0.669971 0
M  V30 44510 H 4538.33 0.530902 1.97488 0
M  V30 44511 H 4536.48 -1.30427 3.64784 0
M  V30 44512 H 4536.89 0.233944 5.23978 0
M  V30 44513 H 4538.37 -1.47439 5.31945 0
M  V30 44514 H 4538.85 -2.21417 3.79304 0
M  V30 44515 H 4539.45 -0.595085 4.21116 0
M  V30 44516 N 4537.77 -1.57281 0.100283 0
M  V30 44517 C 4538.99 -1.98881 -0.570439 0
M  V30 44518 C 4539.41 -0.979533 -1.61402 0
M  V30 44519 O 4538.77 0.0301646 -1.82475 0
M  V30 44520 C 4538.82 -3.40525 -1.21348 0
M  V30 44521 O 4538.54 -4.37589 -0.211632 0
M  V30 44522 C 4540.04 -3.97156 -1.96932 0
M  V30 44523 H 4537.26 -0.653433 -0.152532 0
M  V30 44524 H 4539.8 -2.03697 0.181102 0
M  V30 44525 H 4537.96 -3.36707 -1.91592 0
M  V30 44526 H 4538.37 -5.2012 -0.676424 0
M  V30 44527 H 4539.85 -4.98401 -2.37277 0
M  V30 44528 H 4540.32 -3.3526 -2.83721 0
M  V30 44529 H 4540.93 -4.04462 -1.31492 0
M  V30 44530 N 4539.25 0.173432 -1.56643 0
M  V30 44531 C 4540.47 0.90603 -1.86007 0
M  V30 44532 C 4540.89 1.75919 -0.685417 0
M  V30 44533 O 4540.25 1.79199 0.345515 0
M  V30 44534 C 4540.3 1.78451 -3.14385 0
M  V30 44535 O 4540.02 0.965764 -4.27323 0
M  V30 44536 C 4541.52 2.62695 -3.5708 0
M  V30 44537 H 4538.74 0.263319 -0.617174 0
M  V30 44538 H 4541.28 0.174164 -2.03757 0
M  V30 44539 H 4539.44 2.46974 -2.98467 0
M  V30 44540 H 4539.85 1.56638 -5.00565 0
M  V30 44541 H 4541.33 3.19953 -4.49815 0
M  V30 44542 H 4541.8 3.37462 -2.81098 0
M  V30 44543 H 4542.41 1.99507 -3.75602 0
M  V30 44544 N 4540.72 1.51278 0.441914 0
M  V30 44545 C 4542.13 1.56248 1.02193 0
M  V30 44546 C 4542.49 0.383217 1.92421 0
M  V30 44547 O 4541.61 -0.500539 2.10532 0
M  V30 44548 C 4542.21 2.83168 1.86014 0
M  V30 44549 C 4540.76 2.90725 2.39073 0
M  V30 44550 C 4539.91 2.50862 1.18166 0
M  V30 44551 H 4542.86 1.5712 0.223361 0
M  V30 44552 H 4542.88 2.66672 2.71415 0
M  V30 44553 H 4542.4 3.68978 1.20318 0
M  V30 44554 H 4540.5 2.09334 3.08237 0
M  V30 44555 H 4540.61 3.94275 2.72184 0
M  V30 44556 H 4538.97 2.03957 1.52557 0
M  V30 44557 H 4539.76 3.39012 0.540882 0
M  V30 44558 N 4542.2 -0.697058 1.41347 0
M  V30 44559 C 4543.45 -1.45274 1.39923 0
M  V30 44560 C 4543.76 -1.95597 0.0110312 0
M  V30 44561 O 4544.97 -2.71208 -0.125823 0
M  V30 44562 C 4543.43 -2.62686 2.46016 0
M  V30 44563 C 4543.03 -2.19155 3.90736 0
M  V30 44564 C 4544.78 -3.40327 2.53727 0
M  V30 44565 C 4542.68 -3.33518 4.88385 0
M  V30 44566 H 4541.61 -0.545674 0.520342 0
M  V30 44567 H 4544.27 -0.756871 1.67164 0
M  V30 44568 H 4542.65 -3.34533 2.11904 0
M  V30 44569 H 4543.82 -1.54607 4.34089 0
M  V30 44570 H 4542.14 -1.54512 3.86672 0
M  V30 44571 H 4544.73 -4.25459 3.23865 0
M  V30 44572 H 4545.08 -3.85412 1.57363 0
M  V30 44573 H 4545.61 -2.75536 2.86923 0
M  V30 44574 H 4542.35 -2.93447 5.86148 0
M  V30 44575 H 4541.87 -3.9692 4.49682 0
M  V30 44576 H 4543.55 -3.99317 5.09073 0
M  V30 44577 N 4543.68 -1.2715 -0.931165 0
M  V30 44578 C 4544.91 -1.16088 -1.71263 0
M  V30 44579 C 4545.32 0.282707 -1.86671 0
M  V30 44580 O 4544.68 1.19278 -1.38127 0
M  V30 44581 C 4544.73 -1.83591 -3.11411 0
M  V30 44582 O 4544.45 -3.22309 -2.9673 0
M  V30 44583 C 4545.95 -1.78611 -4.05725 0
M  V30 44584 H 4543.17 -0.403777 -0.535915 0
M  V30 44585 H 4545.72 -1.67957 -1.16665 0
M  V30 44586 H 4543.87 -1.35635 -3.6288 0
M  V30 44587 H 4544.29 -3.55864 -3.85306 0
M  V30 44588 H 4545.76 -2.30462 -5.01589 0
M  V30 44589 H 4546.24 -0.754716 -4.32667 0
M  V30 44590 H 4546.84 -2.26164 -3.6018 0
M  V30 44591 N 4545.16 1.13717 -1.09116 0
M  V30 44592 C 4546.39 1.8877 -0.846966 0
M  V30 44593 C 4546.8 1.78962 0.601509 0
M  V30 44594 O 4546.16 1.15399 1.41384 0
M  V30 44595 C 4546.21 3.38485 -1.26925 0
M  V30 44596 O 4545.93 3.48033 -2.66091 0
M  V30 44597 C 4547.43 4.30515 -1.05697 0
M  V30 44598 H 4544.65 0.597709 -0.304935 0
M  V30 44599 H 4547.19 1.43972 -1.45232 0
M  V30 44600 H 4545.35 3.80878 -0.707857 0
M  V30 44601 H 4545.76 4.4108 -2.8381 0
M  V30 44602 H 4547.24 5.33905 -1.40175 0
M  V30 44603 H 4547.71 4.392 0.00547976 0
M  V30 44604 H 4548.32 3.93887 -1.60416 0
M  V30 44605 N 4546.64 0.877884 1.30885 0
M  V30 44606 C 4547.86 0.507485 2.0058 0
M  V30 44607 C 4548.28 -0.902157 1.65851 0
M  V30 44608 O 4547.64 -1.59222 0.891887 0
M  V30 44609 C 4547.69 0.664287 3.55344 0
M  V30 44610 O 4547.41 2.01842 3.88833 0
M  V30 44611 C 4548.91 0.295943 4.42311 0
M  V30 44612 H 4546.13 0.196889 0.641464 0
M  V30 44613 H 4548.67 1.18123 1.66935 0
M  V30 44614 H 4546.83 0.0379981 3.87381 0
M  V30 44615 H 4547.24 2.03191 4.83543 0
M  V30 44616 H 4548.72 0.456582 5.50108 0
M  V30 44617 H 4549.19 -0.76551 4.32477 0
M  V30 44618 H 4549.8 0.898259 4.15706 0
M  V30 44619 N 4548.11 -1.44104 0.638116 0
M  V30 44620 C 4549.34 -2.06336 0.152688 0
M  V30 44621 C 4549.76 -1.47735 -1.17558 0
M  V30 44622 O 4549.11 -0.602866 -1.72255 0
M  V30 44623 C 4549.16 -3.61479 0.0392761 0
M  V30 44624 O 4548.89 -4.17898 1.31502 0
M  V30 44625 C 4550.39 -4.40758 -0.474022 0
M  V30 44626 H 4547.61 -0.665859 0.082901 0
M  V30 44627 H 4550.15 -1.84859 0.874495 0
M  V30 44628 H 4548.31 -3.82193 -0.633008 0
M  V30 44629 H 4548.72 -5.11412 1.16439 0
M  V30 44630 H 4550.19 -5.49709 -0.502369 0
M  V30 44631 H 4550.67 -4.12703 -1.50244 0
M  V30 44632 H 4551.28 -4.24979 0.165251 0
M  V30 44633 N 4549.59 -0.37909 -1.52973 0
M  V30 44634 C 4550.82 0.206717 -2.05865 0
M  V30 44635 C 4551.23 1.41352 -1.2516 0
M  V30 44636 O 4550.59 1.80089 -0.295651 0
M  V30 44637 C 4550.64 0.58692 -3.56704 0
M  V30 44638 O 4550.36 -0.571929 -4.34351 0
M  V30 44639 C 4551.86 1.22968 -4.25903 0
M  V30 44640 H 4549.08 0.0335888 -0.670159 0
M  V30 44641 H 4551.63 -0.541368 -1.97204 0
M  V30 44642 H 4549.78 1.28491 -3.65471 0
M  V30 44643 H 4550.2 -0.261729 -5.23847 0
M  V30 44644 H 4551.67 1.44616 -5.3272 0
M  V30 44645 H 4552.15 2.19402 -3.80473 0
M  V30 44646 H 4552.75 0.572744 -4.21426 0
M  V30 44647 N 4551.07 1.57225 -0.108623 0
M  V30 44648 C 4552.32 1.95123 0.552692 0
M  V30 44649 C 4552.65 0.991404 1.66987 0
M  V30 44650 O 4551.92 0.0267895 1.94482 0
M  V30 44651 C 4552.21 3.43043 1.09516 0
M  V30 44652 C 4552.06 4.49796 -0.0178914 0
M  V30 44653 C 4553.38 3.92574 1.98932 0
M  V30 44654 H 4550.5 0.709503 0.199437 0
M  V30 44655 H 4553.14 1.89126 -0.182078 0
M  V30 44656 H 4551.29 3.48285 1.72133 0
M  V30 44657 H 4552.96 4.56658 -0.652745 0
M  V30 44658 H 4551.2 4.28398 -0.68246 0
M  V30 44659 H 4551.88 5.50529 0.402725 0
M  V30 44660 H 4554.35 3.8957 1.46201 0
M  V30 44661 H 4553.23 4.96613 2.33809 0
M  V30 44662 H 4553.49 3.32658 2.91189 0
M  V30 44663 N 4552.55 -0.165123 1.56733 0
M  V30 44664 C 4553.78 -0.896153 1.86485 0
M  V30 44665 C 4554.19 -1.75553 0.694737 0
M  V30 44666 O 4553.55 -1.7938 -0.336007 0
M  V30 44667 C 4553.6 -1.76781 3.15327 0
M  V30 44668 O 4553.32 -0.943088 4.27829 0
M  V30 44669 C 4554.82 -2.60797 3.58468 0
M  V30 44670 H 4552.04 -0.260042 0.618562 0
M  V30 44671 H 4554.58 -0.163356 2.03847 0
M  V30 44672 H 4552.74 -2.45387 2.99773 0
M  V30 44673 H 4553.15 -1.53981 5.01388 0
M  V30 44674 H 4554.63 -3.17563 4.51506 0
M  V30 44675 H 4555.1 -3.35967 2.82883 0
M  V30 44676 H 4555.71 -1.97513 3.76655 0
M  V30 44677 N 4554.03 -1.5151 -0.433885 0
M  V30 44678 C 4555.44 -1.56788 -1.01363 0
M  V30 44679 C 4555.79 -0.393416 -1.92215 0
M  V30 44680 O 4554.91 0.489367 -2.10794 0
M  V30 44681 C 4555.51 -2.84151 -1.8451 0
M  V30 44682 C 4554.07 -2.91988 -2.37528 0
M  V30 44683 C 4553.21 -2.51486 -1.16834 0
M  V30 44684 H 4556.17 -1.57237 -0.215025 0
M  V30 44685 H 4556.19 -2.68108 -2.69997 0
M  V30 44686 H 4555.7 -3.69611 -1.1836 0
M  V30 44687 H 4553.8 -2.10966 -3.07123 0
M  V30 44688 H 4553.91 -3.95713 -2.70089 0
M  V30 44689 H 4552.28 -2.04763 -1.51474 0
M  V30 44690 H 4553.06 -3.39294 -0.522896 0
M  V30 44691 N 4555.5 0.689552 -1.41714 0
M  V30 44692 C 4556.73 1.47822 -1.44763 0
M  V30 44693 C 4557.15 1.88721 -0.0546367 0
M  V30 44694 O 4556.5 1.5718 0.927408 0
M  V30 44695 C 4556.56 2.73689 -2.3617 0
M  V30 44696 O 4556.28 2.34511 -3.70049 0
M  V30 44697 C 4557.78 3.67381 -2.48085 0
M  V30 44698 H 4555 0.45534 -0.492856 0
M  V30 44699 H 4557.54 0.848509 -1.86066 0
M  V30 44700 H 4555.7 3.32884 -1.9816 0
M  V30 44701 H 4556.11 3.15686 -4.18859 0
M  V30 44702 H 4557.58 4.52464 -3.16197 0
M  V30 44703 H 4558.06 4.12279 -1.51402 0
M  V30 44704 H 4558.67 3.14087 -2.86757 0
M  V30 44705 N 4556.98 1.27642 0.924409 0
M  V30 44706 C 4558.39 1.1284 1.48742 0
M  V30 44707 C 4558.74 -0.285437 1.94113 0
M  V30 44708 O 4557.87 -1.17868 1.81483 0
M  V30 44709 C 4558.46 2.04227 2.70327 0
M  V30 44710 C 4557.02 1.93521 3.22842 0
M  V30 44711 C 4556.17 1.9659 1.9557 0
M  V30 44712 H 4559.12 1.40487 0.738183 0
M  V30 44713 H 4559.14 1.60001 3.45224 0
M  V30 44714 H 4558.65 3.07119 2.37275 0
M  V30 44715 H 4556.76 0.936258 3.60645 0
M  V30 44716 H 4556.87 2.79931 3.88813 0
M  V30 44717 H 4555.23 1.40857 2.12206 0
M  V30 44718 H 4556.02 3.01143 1.64827 0
M  V30 44719 N 4558.46 -1.13137 1.09717 0
M  V30 44720 C 4559.69 -1.88318 0.856965 0
M  V30 44721 C 4560.1 -1.79278 -0.59201 0
M  V30 44722 O 4559.46 -1.16147 -1.4077 0
M  V30 44723 C 4559.51 -3.37807 1.28718 0
M  V30 44724 O 4559.23 -3.46617 2.67933 0
M  V30 44725 C 4560.73 -4.29948 1.07979 0
M  V30 44726 H 4557.95 -0.596083 0.3081 0
M  V30 44727 H 4560.5 -1.432 1.45993 0
M  V30 44728 H 4558.65 -3.80497 0.728046 0
M  V30 44729 H 4559.07 -4.39569 2.86146 0
M  V30 44730 H 4560.54 -5.33154 1.43005 0
M  V30 44731 H 4561.02 -4.39196 0.0178121 0
M  V30 44732 H 4561.62 -3.93031 1.62502 0
M  V30 44733 N 4559.94 -0.884812 -1.30418 0
M  V30 44734 C 4561.35 -0.553719 -1.783 0
M  V30 44735 C 4561.7 0.930092 -1.72753 0
M  V30 44736 O 4560.83 1.72677 -1.30429 0
M  V30 44737 C 4561.42 -0.998348 -3.23757 0
M  V30 44738 C 4559.98 -0.71867 -3.69475 0
M  V30 44739 C 4559.13 -1.18141 -2.50874 0
M  V30 44740 H 4562.08 -1.06905 -1.1729 0
M  V30 44741 H 4562.1 -0.327251 -3.7909 0
M  V30 44742 H 4561.61 -2.07832 -3.27762 0
M  V30 44743 H 4559.71 0.349313 -3.70959 0
M  V30 44744 H 4559.82 -1.30611 -4.60953 0
M  V30 44745 H 4558.19 -0.600756 -2.47514 0
M  V30 44746 H 4558.97 -2.26911 -2.57616 0
M  V30 44747 N 4561.42 1.43763 -0.645749 0
M  V30 44748 C 4562.64 2.06252 -0.163628 0
M  V30 44749 C 4563.06 1.48356 1.16773 0
M  V30 44750 O 4562.42 0.611993 1.71933 0
M  V30 44751 C 4562.47 3.61453 -0.0584457 0
M  V30 44752 O 4562.19 4.17195 -1.33716 0
M  V30 44753 C 4563.69 4.41004 0.45064 0
M  V30 44754 H 4560.91 0.66541 -0.0864311 0
M  V30 44755 H 4563.45 1.84393 -0.884287 0
M  V30 44756 H 4561.61 3.82524 0.61273 0
M  V30 44757 H 4562.02 5.10787 -1.19149 0
M  V30 44758 H 4563.5 5.49968 0.47321 0
M  V30 44759 H 4563.97 4.13494 1.48053 0
M  V30 44760 H 4564.58 4.24885 -0.187787 0
M  V30 44761 N 4562.89 0.387197 1.5277 0
M  V30 44762 C 4564.14 -0.195278 2.01154 0
M  V30 44763 C 4564.46 -1.47496 1.27554 0
M  V30 44764 O 4563.73 -1.91877 0.394991 0
M  V30 44765 H 4562.31 -0.0751519 0.74321 0
M  V30 44766 H 4564.98 0.518403 1.87879 0
M  V30 44767 H 4564.07 -0.406988 3.09435 0
M  V30 44768 N 4564.37 -1.57165 0.116959 0
M  V30 44769 C 4565.6 -1.99475 -0.549313 0
M  V30 44770 C 4566.02 -0.996597 -1.60354 0
M  V30 44771 O 4565.37 0.010809 -1.82497 0
M  V30 44772 C 4565.42 -3.41792 -1.17729 0
M  V30 44773 O 4565.14 -4.37788 -0.165208 0
M  V30 44774 C 4566.65 -3.99222 -1.92708 0
M  V30 44775 H 4563.87 -0.655014 -0.145593 0
M  V30 44776 H 4566.41 -2.03493 0.202696 0
M  V30 44777 H 4564.56 -3.3872 -1.8801 0
M  V30 44778 H 4564.98 -5.20808 -0.62122 0
M  V30 44779 H 4566.45 -5.0089 -2.31977 0
M  V30 44780 H 4566.93 -3.3825 -2.80149 0
M  V30 44781 H 4567.54 -4.05834 -1.27195 0
M  V30 44782 N 4565.85 0.156809 -1.56818 0
M  V30 44783 C 4566.78 1.21877 -1.9411 0
M  V30 44784 C 4567.8 1.39707 -0.835803 0
M  V30 44785 O 4568.98 1.39453 -1.11423 0
M  V30 44786 C 4566.08 2.5852 -2.19137 0
M  V30 44787 C 4565.26 2.61796 -3.50402 0
M  V30 44788 C 4564.32 3.79907 -3.64084 0
M  V30 44789 O 4563.34 3.65234 -4.36569 0
M  V30 44790 N 4564.54 4.96962 -3.00015 0
M  V30 44791 H 4567.31 0.901873 -2.85808 0
M  V30 44792 H 4564.87 0.346458 -1.5815 0
M  V30 44793 H 4566.86 3.36026 -2.2554 0
M  V30 44794 H 4565.43 2.82541 -1.33752 0
M  V30 44795 H 4564.65 1.70278 -3.55526 0
M  V30 44796 H 4565.94 2.61009 -4.36752 0
M  V30 44797 H 4565.34 5.11786 -2.41022 0
M  V30 44798 H 4563.9 5.72279 -3.11994 0
M  V30 44799 N 4567.33 1.51738 0.425844 0
M  V30 44800 C 4568.56 1.68798 1.19644 0
M  V30 44801 C 4568.97 0.390229 1.84723 0
M  V30 44802 O 4568.33 -0.632316 1.71196 0
M  V30 44803 C 4568.38 2.81182 2.27198 0
M  V30 44804 O 4568.1 4.05931 1.64779 0
M  V30 44805 C 4569.6 3.0961 3.17264 0
M  V30 44806 H 4566.82 0.566141 0.360174 0
M  V30 44807 H 4569.37 1.98213 0.503179 0
M  V30 44808 H 4567.52 2.54334 2.92221 0
M  V30 44809 H 4567.93 4.68431 2.35951 0
M  V30 44810 H 4569.41 3.918 3.8884 0
M  V30 44811 H 4569.89 2.22481 3.7868 0
M  V30 44812 H 4570.49 3.38161 2.57929 0
M  V30 44813 N 4568.81 -0.682027 1.42078 0
M  V30 44814 C 4570.22 -1.26241 1.37551 0
M  V30 44815 C 4570.57 -1.96092 0.0652171 0
M  V30 44816 O 4569.69 -1.9959 -0.836227 0
M  V30 44817 C 4570.29 -2.29585 2.49151 0
M  V30 44818 C 4568.85 -2.83167 2.47979 0
M  V30 44819 C 4568 -1.57387 2.28308 0
M  V30 44820 H 4570.95 -0.475884 1.51397 0
M  V30 44821 H 4570.97 -3.11167 2.18987 0
M  V30 44822 H 4570.48 -1.78717 3.44502 0
M  V30 44823 H 4568.58 -3.38175 1.56425 0
M  V30 44824 H 4568.69 -3.32675 3.44767 0
M  V30 44825 H 4567.06 -1.83693 1.76434 0
M  V30 44826 H 4567.84 -1.08496 3.25705 0
M  V30 44827 N 4570.29 -1.2813 -0.917626 0
M  V30 44828 C 4571.51 -1.17898 -1.70022 0
M  V30 44829 C 4571.93 0.262892 -1.86961 0
M  V30 44830 O 4571.29 1.17806 -1.39384 0
M  V30 44831 C 4571.34 -1.86883 -3.09446 0
M  V30 44832 O 4571.06 -3.25438 -2.93294 0
M  V30 44833 C 4572.56 -1.82904 -4.03808 0
M  V30 44834 H 4569.78 -0.409439 -0.531602 0
M  V30 44835 H 4572.32 -1.69185 -1.14877 0
M  V30 44836 H 4570.48 -1.39477 -3.61421 0
M  V30 44837 H 4570.89 -3.59931 -3.8151 0
M  V30 44838 H 4572.37 -2.35769 -4.99116 0
M  V30 44839 H 4572.84 -0.800564 -4.31842 0
M  V30 44840 H 4573.45 -2.29972 -3.57761 0
M  V30 44841 N 4571.76 1.12553 -1.10316 0
M  V30 44842 C 4572.99 1.87861 -0.866939 0
M  V30 44843 C 4573.41 1.7959 0.582494 0
M  V30 44844 O 4572.76 1.16892 1.40152 0
M  V30 44845 C 4572.81 3.3712 -1.30508 0
M  V30 44846 O 4572.54 3.45191 -2.69767 0
M  V30 44847 C 4574.04 4.29369 -1.10258 0
M  V30 44848 H 4571.26 0.594441 -0.311257 0
M  V30 44849 H 4573.8 1.42424 -1.4675 0
M  V30 44850 H 4571.96 3.80106 -0.748215 0
M  V30 44851 H 4572.37 4.38045 -2.88473 0
M  V30 44852 H 4573.84 5.32389 -1.4583 0
M  V30 44853 H 4574.32 4.39181 -0.0411035 0
M  V30 44854 H 4574.93 3.92163 -1.64584 0
M  V30 44855 N 4573.24 0.891716 1.29947 0
M  V30 44856 C 4574.47 0.52873 2.0003 0
M  V30 44857 C 4574.88 -0.884516 1.66799 0
M  V30 44858 O 4574.24 -1.58267 0.908724 0
M  V30 44859 C 4574.29 0.701938 3.5462 0
M  V30 44860 O 4574.01 2.05955 3.86671 0
M  V30 44861 C 4575.51 0.342839 4.41972 0
M  V30 44862 H 4572.73 0.203681 0.639339 0
M  V30 44863 H 4575.28 1.19887 1.65672 0
M  V30 44864 H 4573.43 0.079083 3.87319 0
M  V30 44865 H 4573.85 2.08308 4.81361 0
M  V30 44866 H 4575.32 0.514902 5.49593 0
M  V30 44867 H 4575.8 -0.719597 4.33265 0
M  V30 44868 H 4576.4 0.9423 4.1473 0
M  V30 44869 N 4574.72 -1.43419 0.653364 0
M  V30 44870 C 4576.13 -1.85064 0.246602 0
M  V30 44871 C 4576.48 -1.54692 -1.20685 0
M  V30 44872 O 4575.61 -0.995964 -1.92119 0
M  V30 44873 C 4576.2 -3.3592 0.440784 0
M  V30 44874 C 4574.76 -3.76296 0.0883387 0
M  V30 44875 C 4573.91 -2.67145 0.743578 0
M  V30 44876 H 4576.86 -1.33569 0.857026 0
M  V30 44877 H 4576.88 -3.79205 -0.313665 0
M  V30 44878 H 4576.39 -3.57995 1.49871 0
M  V30 44879 H 4574.49 -3.59834 -0.966984 0
M  V30 44880 H 4574.61 -4.76336 0.513905 0
M  V30 44881 H 4572.97 -2.54086 0.176802 0
M  V30 44882 H 4573.75 -2.92047 1.80453 0
M  V30 44883 N 4576.2 -0.395293 -1.52562 0
M  V30 44884 C 4577.45 0.186251 -2.00838 0
M  V30 44885 C 4577.76 1.47398 -1.28582 0
M  V30 44886 O 4578.97 2.13594 -1.67601 0
M  V30 44887 C 4577.42 0.38247 -3.57862 0
M  V30 44888 C 4577.03 -0.892356 -4.39023 0
M  V30 44889 C 4578.77 0.920054 -4.1441 0
M  V30 44890 C 4576.68 -0.664086 -5.8766 0
M  V30 44891 H 4575.61 0.0733777 -0.750421 0
M  V30 44892 H 4578.26 -0.518614 -1.76019 0
M  V30 44893 H 4576.64 1.14933 -3.78954 0
M  V30 44894 H 4577.82 -1.6643 -4.29695 0
M  V30 44895 H 4576.13 -1.35533 -3.93725 0
M  V30 44896 H 4578.73 1.10664 -5.23123 0
M  V30 44897 H 4579.07 1.89083 -3.70882 0
M  V30 44898 H 4579.61 0.212611 -3.97231 0
M  V30 44899 H 4576.34 -1.60603 -6.35521 0
M  V30 44900 H 4575.86 0.0688085 -5.99761 0
M  V30 44901 H 4577.54 -0.300927 -6.463 0
M  V30 44902 N 4577.68 1.57101 -0.125292 0
M  V30 44903 C 4578.9 1.99763 0.538726 0
M  V30 44904 C 4579.32 1.00509 1.59823 0
M  V30 44905 O 4578.68 -0.00113059 1.825 0
M  V30 44906 C 4578.73 3.42412 1.15915 0
M  V30 44907 O 4578.45 4.3787 0.141989 0
M  V30 44908 C 4579.95 4.00239 1.90588 0
M  V30 44909 H 4577.17 0.655777 0.142117 0
M  V30 44910 H 4579.71 2.03383 -0.213485 0
M  V30 44911 H 4577.87 3.39712 1.86211 0
M  V30 44912 H 4578.28 5.2113 0.593592 0
M  V30 44913 H 4579.76 5.02113 2.29318 0
M  V30 44914 H 4580.23 3.39731 2.78351 0
M  V30 44915 H 4580.84 4.06503 1.25041 0
M  V30 44916 N 4579.15 -0.14849 1.56899 0
M  V30 44917 C 4580.38 -0.876323 1.87425 0
M  V30 44918 C 4580.8 -1.74806 0.713317 0
M  V30 44919 O 4580.15 -1.79726 -0.316962 0
M  V30 44920 C 4580.2 -1.73426 3.17184 0
M  V30 44921 O 4579.93 -0.897658 4.28805 0
M  V30 44922 C 4581.43 -2.56981 3.61214 0
M  V30 44923 H 4578.65 -0.253467 0.621285 0
M  V30 44924 H 4581.19 -0.141726 2.04008 0
M  V30 44925 H 4579.35 -2.42194 3.02359 0
M  V30 44926 H 4579.76 -1.48654 5.02993 0
M  V30 44927 H 4581.23 -3.12757 4.54849 0
M  V30 44928 H 4581.71 -3.32947 2.86431 0
M  V30 44929 H 4582.32 -1.93507 3.78728 0
M  V30 44930 N 4580.63 -1.51961 -0.417791 0
M  V30 44931 C 4581.86 -1.69431 -1.18747 0
M  V30 44932 C 4582.27 -0.40002 -1.84514 0
M  V30 44933 O 4581.63 0.623228 -1.71529 0
M  V30 44934 C 4581.68 -2.82383 -2.25704 0
M  V30 44935 O 4581.4 -4.06799 -1.62624 0
M  V30 44936 C 4582.9 -3.11289 -3.15617 0
M  V30 44937 H 4580.12 -0.568043 -0.357166 0
M  V30 44938 H 4582.67 -1.98477 -0.492661 0
M  V30 44939 H 4580.82 -2.5588 -2.90868 0
M  V30 44940 H 4581.24 -4.69676 -2.33463 0
M  V30 44941 H 4582.71 -3.93857 -3.86757 0
M  V30 44942 H 4583.19 -2.24486 -3.77495 0
M  V30 44943 H 4583.79 -3.39524 -2.56132 0
M  V30 44944 N 4582.11 0.674483 -1.42438 0
M  V30 44945 C 4583.34 1.46278 -1.46323 0
M  V30 44946 C 4583.75 1.88652 -0.07465 0
M  V30 44947 O 4583.11 1.58154 0.910685 0
M  V30 44948 C 4583.16 2.71169 -2.3906 0
M  V30 44949 O 4582.88 2.30573 -3.72515 0
M  V30 44950 C 4584.38 3.64729 -2.51968 0
M  V30 44951 H 4581.6 0.450087 -0.497657 0
M  V30 44952 H 4584.15 0.828726 -1.86956 0
M  V30 44953 H 4582.3 3.30763 -2.01679 0
M  V30 44954 H 4582.72 3.11226 -4.22183 0
M  V30 44955 H 4584.19 4.49085 -3.20978 0
M  V30 44956 H 4584.67 4.1065 -1.55766 0
M  V30 44957 H 4585.27 3.11028 -2.90072 0
M  V30 44958 N 4583.59 1.28615 0.910818 0
M  V30 44959 C 4584.82 1.18798 1.69395 0
M  V30 44960 C 4585.23 -0.252973 1.87098 0
M  V30 44961 O 4584.59 -1.17066 1.40007 0
M  V30 44962 C 4584.64 1.88522 3.08451 0
M  V30 44963 O 4584.36 3.26989 2.91564 0
M  V30 44964 C 4585.86 1.85043 4.02832 0
M  V30 44965 H 4583.08 0.412252 0.529423 0
M  V30 44966 H 4585.63 1.69792 1.13978 0
M  V30 44967 H 4583.78 1.41391 3.60676 0
M  V30 44968 H 4584.19 3.61949 3.79596 0
M  V30 44969 H 4585.67 2.38413 4.97859 0
M  V30 44970 H 4586.15 0.823454 4.31411 0
M  V30 44971 H 4586.75 2.31866 3.56537 0
M  V30 44972 N 4585.07 -1.11967 1.10911 0
M  V30 44973 C 4586.31 -1.83857 0.855838 0
M  V30 44974 C 4586.65 -1.84137 -0.617038 0
M  V30 44975 O 4585.92 -1.29047 -1.45524 0
M  V30 44976 C 4586.2 -3.313 1.41112 0
M  V30 44977 C 4586.06 -3.39446 2.95122 0
M  V30 44978 C 4587.38 -4.27206 1.05751 0
M  V30 44979 H 4584.49 -0.667534 0.312358 0
M  V30 44980 H 4587.14 -1.31326 1.37308 0
M  V30 44981 H 4585.29 -3.76165 0.971182 0
M  V30 44982 H 4586.96 -3.03179 3.47678 0
M  V30 44983 H 4585.2 -2.79838 3.31471 0
M  V30 44984 H 4585.87 -4.43197 3.29059 0
M  V30 44985 H 4588.35 -3.90492 1.4372 0
M  V30 44986 H 4587.22 -5.2877 1.47288 0
M  V30 44987 H 4587.49 -4.42088 -0.0324404 0
M  V30 44988 N 4586.54 -0.898595 -1.29472 0
M  V30 44989 C 4587.77 -0.539331 -1.99747 0
M  V30 44990 C 4588.19 0.875658 -1.67265 0
M  V30 44991 O 4587.54 1.57783 -0.917105 0
M  V30 44992 C 4587.6 -0.720735 -3.54242 0
M  V30 44993 O 4587.32 -2.08003 -3.85573 0
M  V30 44994 C 4588.82 -0.366273 -4.41784 0
M  V30 44995 H 4586.04 -0.207069 -0.63825 0
M  V30 44996 H 4588.58 -1.20764 -1.65034 0
M  V30 44997 H 4586.74 -0.0996223 -3.87272 0
M  V30 44998 H 4587.15 -2.10858 -4.80249 0
M  V30 44999 H 4588.62 -0.544041 -5.49312 0
M  V30 45000 H 4589.1 0.69661 -4.3364 0
M  V30 45001 H 4589.71 -0.964281 -4.14224 0
M  V30 45002 N 4588.02 1.4307 -0.660961 0
M  V30 45003 C 4589.43 1.84931 -0.256413 0
M  V30 45004 C 4589.78 1.5533 1.19863 0
M  V30 45005 O 4588.91 1.00614 1.91588 0
M  V30 45006 C 4589.5 3.35682 -0.458593 0
M  V30 45007 C 4588.06 3.76244 -0.108293 0
M  V30 45008 C 4587.21 2.66746 -0.757735 0
M  V30 45009 H 4590.16 1.33113 -0.864097 0
M  V30 45010 H 4590.18 3.79366 0.29355 0
M  V30 45011 H 4589.69 3.57195 -1.51767 0
M  V30 45012 H 4587.8 3.60341 0.947887 0
M  V30 45013 H 4587.91 4.76057 -0.539159 0
M  V30 45014 H 4586.27 2.53988 -0.190274 0
M  V30 45015 H 4587.06 2.91086 -1.82 0
M  V30 45016 N 4589.5 0.403378 1.5235 0
M  V30 45017 C 4590.73 -0.17394 2.06168 0
M  V30 45018 C 4591.14 -1.39343 1.27393 0
M  V30 45019 O 4590.5 -1.79596 0.324264 0
M  V30 45020 C 4590.55 -0.530097 3.57592 0
M  V30 45021 O 4590.27 0.640958 4.33386 0
M  V30 45022 C 4591.77 -1.16177 4.27806 0
M  V30 45023 H 4588.99 -0.0229229 0.670608 0
M  V30 45024 H 4591.54 0.572673 1.96318 0
M  V30 45025 H 4589.69 -1.2266 3.67469 0
M  V30 45026 H 4590.11 0.345035 5.23364 0
M  V30 45027 H 4591.58 -1.36122 5.34953 0
M  V30 45028 H 4592.06 -2.13321 3.83915 0
M  V30 45029 H 4592.66 -0.505627 4.22284 0
M  V30 45030 N 4590.98 -1.57033 0.133622 0
M  V30 45031 C 4592.39 -1.82594 -0.3894 0
M  V30 45032 C 4592.74 -1.05162 -1.65636 0
M  V30 45033 O 4591.87 -0.29272 -2.14411 0
M  V30 45034 C 4592.46 -3.31207 -0.713261 0
M  V30 45035 C 4591.02 -3.57397 -1.18086 0
M  V30 45036 C 4590.17 -2.76599 -0.197029 0
M  V30 45037 H 4593.12 -1.54597 0.358535 0
M  V30 45038 H 4593.14 -3.46633 -1.56927 0
M  V30 45039 H 4592.65 -3.87537 0.209036 0
M  V30 45040 H 4590.75 -3.0644 -2.11955 0
M  V30 45041 H 4590.86 -4.65919 -1.11608 0
M  V30 45042 H 4589.23 -2.4526 -0.687002 0
M  V30 45043 H 4590.01 -3.35694 0.718622 0
M  V30 45044 N 4592.46 0.140167 -1.56975 0
M  V30 45045 C 4593.68 0.866371 -1.87887 0
M  V30 45046 C 4594.1 1.74425 -0.722578 0
M  V30 45047 O 4593.46 1.79892 0.307426 0
M  V30 45048 C 4593.51 1.71742 -3.18099 0
M  V30 45049 O 4593.23 0.874905 -4.29275 0
M  V30 45050 C 4594.73 2.55061 -3.62572 0
M  V30 45051 H 4591.95 0.250168 -0.622621 0
M  V30 45052 H 4594.49 0.130905 -2.04081 0
M  V30 45053 H 4592.65 2.40587 -3.03639 0
M  V30 45054 H 4593.06 1.45985 -5.03774 0
M  V30 45055 H 4594.54 3.1034 -4.56501 0
M  V30 45056 H 4595.01 3.31424 -2.88193 0
M  V30 45057 H 4595.62 1.91495 -3.79749 0
M  V30 45058 N 4593.93 1.52181 0.409726 0
M  V30 45059 C 4595.35 1.58381 0.988559 0
M  V30 45060 C 4595.7 0.423946 1.91565 0
M  V30 45061 O 4594.82 -0.45577 2.11546 0
M  V30 45062 C 4595.42 2.8705 1.79966 0
M  V30 45063 C 4593.98 2.9573 2.32853 0
M  V30 45064 C 4593.12 2.53313 1.12819 0
M  V30 45065 H 4596.07 1.57559 0.189983 0
M  V30 45066 H 4596.09 2.72369 2.65698 0
M  V30 45067 H 4595.61 3.71448 1.12465 0
M  V30 45068 H 4593.71 2.15825 3.03727 0
M  V30 45069 H 4593.82 3.9996 2.63759 0
M  V30 45070 H 4592.18 2.07147 1.48197 0
M  V30 45071 H 4592.97 3.40083 0.468851 0
M  V30 45072 N 4595.41 -0.666919 1.42793 0
M  V30 45073 C 4596.64 -1.455 1.47096 0
M  V30 45074 C 4597.06 -1.8861 0.0846536 0
M  V30 45075 O 4596.41 -1.58635 -0.902284 0
M  V30 45076 C 4596.46 -2.69898 2.40494 0
M  V30 45077 O 4596.18 -2.28595 3.73733 0
M  V30 45078 C 4597.69 -3.63387 2.53899 0
M  V30 45079 H 4594.91 -0.447441 0.500037 0
M  V30 45080 H 4597.45 -0.8188 1.87392 0
M  V30 45081 H 4595.6 -3.29689 2.0343 0
M  V30 45082 H 4596.02 -3.08983 4.23828 0
M  V30 45083 H 4597.49 -4.47376 3.23355 0
M  V30 45084 H 4597.97 -4.09818 1.57942 0
M  V30 45085 H 4598.58 -3.09485 2.91717 0
M  V30 45086 N 4596.89 -1.29096 -0.903985 0
M  V30 45087 C 4598.14 -1.16588 -1.65081 0
M  V30 45088 C 4598.46 0.283865 -1.92923 0
M  V30 45089 O 4597.73 1.19504 -1.55228 0
M  V30 45090 H 4596.31 -0.428488 -0.611888 0
M  V30 45091 H 4598.97 -1.61963 -1.08417 0
M  V30 45092 H 4598.07 -1.71276 -2.60904 0
M  V30 45093 N 4598.37 1.11377 -1.11503 0
M  V30 45094 C 4599.6 1.86931 -0.886816 0
M  V30 45095 C 4600.01 1.80197 0.563413 0
M  V30 45096 O 4599.37 1.18372 1.38904 0
M  V30 45097 C 4599.42 3.35717 -1.34076 0
M  V30 45098 O 4599.14 3.42311 -2.73414 0
M  V30 45099 C 4600.64 4.28176 -1.14806 0
M  V30 45100 H 4597.86 0.591106 -0.317544 0
M  V30 45101 H 4600.41 1.40859 -1.48253 0
M  V30 45102 H 4598.56 3.79291 -0.788488 0
M  V30 45103 H 4598.98 4.34961 -2.93102 0
M  V30 45104 H 4600.45 5.30812 -1.51469 0
M  V30 45105 H 4600.93 4.39112 -0.0876822 0
M  V30 45106 H 4601.53 3.90396 -1.68735 0
M  V30 45107 N 4599.85 0.905449 1.28994 0
M  V30 45108 C 4600.78 0.344828 2.26591 0
M  V30 45109 C 4601.79 -0.512081 1.54537 0
M  V30 45110 O 4602.98 -0.328306 1.75455 0
M  V30 45111 C 4600.08 -0.52647 3.34786 0
M  V30 45112 C 4599.25 0.306025 4.36328 0
M  V30 45113 C 4598.31 -0.499025 5.23828 0
M  V30 45114 O 4597.34 0.0855005 5.69136 0
M  V30 45115 N 4598.54 -1.80388 5.51761 0
M  V30 45116 H 4601.31 1.18369 2.75334 0
M  V30 45117 H 4598.87 0.770531 1.42388 0
M  V30 45118 H 4600.86 -1.07157 3.90256 0
M  V30 45119 H 4599.43 -1.26603 2.85815 0
M  V30 45120 H 4598.65 1.03253 3.80437 0
M  V30 45121 H 4599.94 0.875949 5.01203 0
M  V30 45122 H 4599.34 -2.30142 5.1677 0
M  V30 45123 H 4597.89 -2.29599 6.10023 0
M  V30 45124 N 4601.33 -1.42718 0.668539 0
M  V30 45125 C 4602.55 -2.05966 0.19642 0
M  V30 45126 C 4602.97 -1.50195 -1.14398 0
M  V30 45127 O 4602.33 -0.639268 -1.70937 0
M  V30 45128 C 4602.38 -3.61314 0.115942 0
M  V30 45129 O 4602.1 -4.15015 1.40337 0
M  V30 45130 C 4603.6 -4.41665 -0.380423 0
M  V30 45131 H 4600.82 -0.663951 0.0970062 0
M  V30 45132 H 4603.36 -1.82962 0.91351 0
M  V30 45133 H 4601.52 -3.8345 -0.551797 0
M  V30 45134 H 4601.93 -5.08827 1.27261 0
M  V30 45135 H 4603.41 -5.50651 -0.385655 0
M  V30 45136 H 4603.88 -4.15797 -1.41456 0
M  V30 45137 H 4604.49 -4.24533 0.255358 0
M  V30 45138 N 4602.8 -0.411452 -1.52134 0
M  V30 45139 C 4604.21 0.057617 -1.86611 0
M  V30 45140 C 4604.57 1.44233 -1.33008 0
M  V30 45141 O 4603.69 2.05757 -0.6703 0
M  V30 45142 C 4604.29 0.111329 -3.38617 0
M  V30 45143 C 4602.84 0.524739 -3.72724 0
M  V30 45144 C 4601.99 -0.299273 -2.7568 0
M  V30 45145 H 4604.94 -0.62842 -1.45728 0
M  V30 45146 H 4604.96 0.926122 -3.69057 0
M  V30 45147 H 4604.48 -0.896621 -3.77601 0
M  V30 45148 H 4602.58 1.53925 -3.3932 0
M  V30 45149 H 4602.69 0.267513 -4.78353 0
M  V30 45150 H 4601.05 0.238725 -2.53579 0
M  V30 45151 H 4601.84 -1.30561 -3.17504 0
M  V30 45152 N 4604.28 1.56959 -0.141948 0
M  V30 45153 C 4605.51 2.00323 0.517508 0
M  V30 45154 C 4605.92 1.02198 1.58748 0
M  V30 45155 O 4605.28 0.018226 1.82491 0
M  V30 45156 C 4605.33 3.43622 1.12277 0
M  V30 45157 O 4605.05 4.37996 0.0955389 0
M  V30 45158 C 4606.55 4.02238 1.86332 0
M  V30 45159 H 4603.77 0.657248 0.135154 0
M  V30 45160 H 4606.32 2.03145 -0.235044 0
M  V30 45161 H 4604.47 3.41668 1.82597 0
M  V30 45162 H 4604.89 5.21731 0.538285 0
M  V30 45163 H 4606.36 5.04517 2.23979 0
M  V30 45164 H 4606.84 3.42664 2.74732 0
M  V30 45165 H 4607.44 4.07807 1.20722 0
M  V30 45166 N 4605.76 -0.13184 1.57048 0
M  V30 45167 C 4606.99 -0.856395 1.88344 0
M  V30 45168 C 4607.4 -1.7404 0.731818 0
M  V30 45169 O 4606.76 -1.80053 -0.297882 0
M  V30 45170 C 4606.81 -1.70052 3.19005 0
M  V30 45171 O 4606.53 -0.852127 4.29733 0
M  V30 45172 C 4608.03 -2.53135 3.6392 0
M  V30 45173 H 4605.25 -0.246863 0.623939 0
M  V30 45174 H 4607.8 -0.120081 2.04147 0
M  V30 45175 H 4605.95 -2.38973 3.04911 0
M  V30 45176 H 4606.37 -1.43311 5.04542 0
M  V30 45177 H 4607.84 -3.07915 4.5814 0
M  V30 45178 H 4608.32 -3.29891 2.89946 0
M  V30 45179 H 4608.92 -1.89479 3.8076 0
M  V30 45180 N 4607.24 -1.52396 -0.40165 0
M  V30 45181 C 4608.47 -1.70681 -1.16943 0
M  V30 45182 C 4608.88 -0.419568 -1.84079 0
M  V30 45183 O 4608.24 0.605 -1.7218 0
M  V30 45184 C 4608.29 -2.84761 -2.22696 0
M  V30 45185 O 4608.01 -4.08501 -1.583 0
M  V30 45186 C 4609.51 -3.14619 -3.12298 0
M  V30 45187 H 4606.73 -0.571799 -0.351122 0
M  V30 45188 H 4609.27 -1.98988 -0.471582 0
M  V30 45189 H 4607.43 -2.58951 -2.88137 0
M  V30 45190 H 4607.84 -4.72125 -2.28468 0
M  V30 45191 H 4609.32 -3.97937 -3.82558 0
M  V30 45192 H 4609.79 -2.28477 -3.75093 0
M  V30 45193 H 4610.4 -3.42221 -2.52517 0
M  V30 45194 N 4608.72 0.659337 -1.43145 0
M  V30 45195 C 4610.13 1.24036 -1.39542 0
M  V30 45196 C 4610.48 1.95963 -0.0964053 0
M  V30 45197 O 4609.6 2.00895 0.804368 0
M  V30 45198 C 4610.2 2.25592 -2.52772 0
M  V30 45199 C 4608.76 2.79186 -2.52453 0
M  V30 45200 C 4607.9 1.53735 -2.30783 0
M  V30 45201 H 4610.85 0.451738 -1.52135 0
M  V30 45202 H 4610.88 3.07644 -2.2391 0
M  V30 45203 H 4610.39 1.73214 -3.47302 0
M  V30 45204 H 4608.49 3.35643 -1.61785 0
M  V30 45205 H 4608.6 3.27148 -3.50016 0
M  V30 45206 H 4606.97 1.80862 -1.79334 0
M  V30 45207 H 4607.75 1.033 -3.2739 0
M  V30 45208 N 4610.19 1.29574 0.897126 0
M  V30 45209 C 4611.44 1.17065 1.64252 0
M  V30 45210 C 4611.76 -0.276408 1.93637 0
M  V30 45211 O 4612.96 -0.522847 2.66418 0
M  V30 45212 C 4611.42 2.0476 2.95975 0
M  V30 45213 C 4611.03 3.54305 2.74175 0
M  V30 45214 C 4612.77 2.00983 3.73907 0
M  V30 45215 C 4610.68 4.34095 4.01641 0
M  V30 45216 H 4609.61 0.434542 0.61619 0
M  V30 45217 H 4612.26 1.54232 0.994213 0
M  V30 45218 H 4610.64 1.60465 3.62032 0
M  V30 45219 H 4611.81 4.06669 2.16695 0
M  V30 45220 H 4610.13 3.5978 2.09635 0
M  V30 45221 H 4612.73 2.57855 4.68417 0
M  V30 45222 H 4613.07 0.990415 4.04347 0
M  V30 45223 H 4613.6 2.43336 3.14694 0
M  V30 45224 H 4610.34 5.36684 3.76365 0
M  V30 45225 H 4609.86 3.86499 4.5867 0
M  V30 45226 H 4611.54 4.44893 4.69765 0
M  V30 45227 N 4611.67 -1.10784 1.12092 0
M  V30 45228 C 4612.9 -1.86458 0.896717 0
M  V30 45229 C 4613.31 -1.80494 -0.553849 0
M  V30 45230 O 4612.67 -1.19107 -1.38274 0
M  V30 45231 C 4612.72 -3.35001 1.35855 0
M  V30 45232 O 4612.44 -3.40856 2.75225 0
M  V30 45233 C 4613.94 -4.27561 1.17075 0
M  V30 45234 H 4611.16 -0.589414 0.320675 0
M  V30 45235 H 4613.71 -1.40071 1.48998 0
M  V30 45236 H 4611.86 -3.78867 0.808592 0
M  V30 45237 H 4612.28 -4.33401 2.95405 0
M  V30 45238 H 4613.75 -5.30001 1.54282 0
M  V30 45239 H 4614.23 -4.3906 0.110968 0
M  V30 45240 H 4614.83 -3.89495 1.70803 0
M  V30 45241 N 4613.15 -0.912277 -1.28512 0
M  V30 45242 C 4614.38 -0.560486 -1.99164 0
M  V30 45243 C 4614.79 0.857868 -1.68185 0
M  V30 45244 O 4614.15 1.56801 -0.933788 0
M  V30 45245 C 4614.2 -0.758267 -3.53458 0
M  V30 45246 O 4613.92 -2.12081 -3.83345 0
M  V30 45247 C 4615.42 -0.413109 -4.41371 0
M  V30 45248 H 4612.64 -0.213827 -0.636018 0
M  V30 45249 H 4615.19 -1.22508 -1.63744 0
M  V30 45250 H 4613.34 -0.140692 -3.87144 0
M  V30 45251 H 4613.76 -2.1594 -4.77986 0
M  V30 45252 H 4615.23 -0.602273 -5.48705 0
M  V30 45253 H 4615.71 0.650578 -4.34355 0
M  V30 45254 H 4616.31 -1.00816 -4.13178 0
M  V30 45255 N 4614.63 1.42361 -0.676098 0
M  V30 45256 C 4615.86 2.05858 -0.20734 0
M  V30 45257 C 4616.27 1.508 1.136 0
M  V30 45258 O 4615.63 0.648325 1.70596 0
M  V30 45259 C 4615.68 3.61247 -0.135102 0
M  V30 45260 O 4615.4 4.14265 -1.42536 0
M  V30 45261 C 4616.9 4.4186 0.356996 0
M  V30 45262 H 4614.12 0.663427 -0.100526 0
M  V30 45263 H 4616.67 1.82475 -0.9232 0
M  V30 45264 H 4614.82 3.83737 0.531454 0
M  V30 45265 H 4615.23 5.08145 -1.29957 0
M  V30 45266 H 4616.71 5.50848 0.356447 0
M  V30 45267 H 4617.19 4.16541 1.39249 0
M  V30 45268 H 4617.79 4.24391 -0.277869 0
M  V30 45269 N 4616.11 0.419515 1.51914 0
M  V30 45270 C 4617.33 -0.152063 2.0634 0
M  V30 45271 C 4617.75 -1.37984 1.28864 0
M  V30 45272 O 4617.11 -1.79242 0.343295 0
M  V30 45273 C 4617.16 -0.49214 3.58134 0
M  V30 45274 O 4616.88 0.686889 4.32682 0
M  V30 45275 C 4618.38 -1.11633 4.29014 0
M  V30 45276 H 4615.6 -0.0158089 0.670814 0
M  V30 45277 H 4618.14 0.593463 1.95699 0
M  V30 45278 H 4616.3 -1.18756 3.68749 0
M  V30 45279 H 4616.71 0.400525 5.22968 0
M  V30 45280 H 4618.19 -1.30441 5.36367 0
M  V30 45281 H 4618.66 -2.09237 3.86156 0
M  V30 45282 H 4619.27 -0.460809 4.22796 0
M  V30 45283 N 4617.58 -1.56882 0.15027 0
M  V30 45284 C 4618.81 -2.00595 -0.506878 0
M  V30 45285 C 4619.23 -1.03039 -1.58204 0
M  V30 45286 O 4618.58 -0.0279037 -1.82479 0
M  V30 45287 C 4618.64 -3.44213 -1.10453 0
M  V30 45288 O 4618.36 -4.3804 -0.0723096 0
M  V30 45289 C 4619.86 -4.0322 -1.84197 0
M  V30 45290 H 4617.08 -0.657955 -0.131667 0
M  V30 45291 H 4619.62 -2.03017 0.245814 0
M  V30 45292 H 4617.78 -3.42632 -1.80783 0
M  V30 45293 H 4618.19 -5.22009 -0.510609 0
M  V30 45294 H 4619.66 -5.05698 -2.213 0
M  V30 45295 H 4620.14 -3.44116 -2.72911 0
M  V30 45296 H 4620.75 -4.08441 -1.18558 0
M  V30 45297 N 4619.06 0.12351 -1.57115 0
M  V30 45298 C 4620.31 0.833321 -1.84888 0
M  V30 45299 C 4620.64 1.79739 -0.735355 0
M  V30 45300 O 4619.92 1.92765 0.259183 0
M  V30 45301 C 4620.2 1.58719 -3.23234 0
M  V30 45302 C 4620.05 0.643026 -4.4518 0
M  V30 45303 C 4621.37 2.5444 -3.59094 0
M  V30 45304 H 4618.49 0.301495 -0.67251 0
M  V30 45305 H 4621.13 0.0977113 -1.89749 0
M  V30 45306 H 4619.28 2.21427 -3.19221 0
M  V30 45307 H 4620.95 0.0251393 -4.61293 0
M  V30 45308 H 4619.2 -0.0457664 -4.33776 0
M  V30 45309 H 4619.87 1.20705 -5.38641 0
M  V30 45310 H 4622.34 2.0184 -3.63868 0
M  V30 45311 H 4621.22 3.04222 -4.56881 0
M  V30 45312 H 4621.48 3.36896 -2.86276 0
M  V30 45313 N 4620.54 1.52607 0.393562 0
M  V30 45314 C 4621.77 1.71298 1.16037 0
M  V30 45315 C 4622.18 0.429324 1.83854 0
M  V30 45316 O 4621.54 -0.59586 1.72499 0
M  V30 45317 C 4621.59 2.85938 2.21183 0
M  V30 45318 O 4621.31 4.09334 1.56131 0
M  V30 45319 C 4622.81 3.1627 3.10625 0
M  V30 45320 H 4620.03 0.573654 0.348084 0
M  V30 45321 H 4622.58 1.99236 0.461022 0
M  V30 45322 H 4620.73 2.60475 2.8676 0
M  V30 45323 H 4621.15 4.7333 2.25961 0
M  V30 45324 H 4622.62 3.9996 3.80442 0
M  V30 45325 H 4623.1 2.30463 3.73876 0
M  V30 45326 H 4623.7 3.43556 2.50698 0
M  V30 45327 N 4622.02 -0.651737 1.43493 0
M  V30 45328 C 4623.43 -1.23295 1.40197 0
M  V30 45329 C 4623.78 -1.95909 0.106796 0
M  V30 45330 O 4622.91 -2.01319 -0.793702 0
M  V30 45331 C 4623.5 -2.24248 2.53965 0
M  V30 45332 C 4622.06 -2.77843 2.5393 0
M  V30 45333 C 4621.21 -1.52509 2.31595 0
M  V30 45334 H 4624.16 -0.443664 1.52372 0
M  V30 45335 H 4624.18 -3.06452 2.25538 0
M  V30 45336 H 4623.69 -1.7137 3.48216 0
M  V30 45337 H 4621.79 -3.34781 1.63563 0
M  V30 45338 H 4621.9 -3.25287 3.51746 0
M  V30 45339 H 4620.27 -1.79909 1.80291 0
M  V30 45340 H 4621.05 -1.01563 3.27933 0
M  V30 45341 N 4623.5 -1.30048 -0.890242 0
M  V30 45342 C 4624.72 -1.21478 -1.67483 0
M  V30 45343 C 4625.14 0.223175 -1.87476 0
M  V30 45344 O 4624.5 1.14823 -1.41851 0
M  V30 45345 C 4624.55 -1.93405 -3.05412 0
M  V30 45346 O 4624.27 -3.31586 -2.86325 0
M  V30 45347 C 4625.77 -1.91428 -3.99838 0
M  V30 45348 H 4622.99 -0.420623 -0.522798 0
M  V30 45349 H 4625.53 -1.71584 -1.11262 0
M  V30 45350 H 4623.69 -1.47111 -3.58381 0
M  V30 45351 H 4624.1 -3.67943 -3.73789 0
M  V30 45352 H 4625.58 -2.46303 -4.94003 0
M  V30 45353 H 4626.05 -0.891984 -4.30047 0
M  V30 45354 H 4626.66 -2.37509 -3.52803 0
M  V30 45355 N 4624.97 1.10188 -1.12678 0
M  V30 45356 C 4626.39 1.63704 -0.897662 0
M  V30 45357 C 4626.74 1.87814 0.56748 0
M  V30 45358 O 4625.86 1.62201 1.43248 0
M  V30 45359 C 4626.46 2.97394 -1.62302 0
M  V30 45360 C 4625.02 3.47767 -1.43998 0
M  V30 45361 C 4624.16 2.22326 -1.65729 0
M  V30 45362 H 4627.11 0.936542 -1.28119 0
M  V30 45363 H 4627.13 3.64983 -1.07554 0
M  V30 45364 H 4626.65 2.79815 -2.68934 0
M  V30 45365 H 4624.75 3.70486 -0.396336 0
M  V30 45366 H 4624.86 4.25715 -2.1978 0
M  V30 45367 H 4623.22 2.30595 -1.08158 0
M  V30 45368 H 4624.01 2.07275 -2.73664 0
M  V30 45369 N 4626.45 0.919079 1.28026 0
M  V30 45370 C 4627.68 0.571041 1.98864 0
M  V30 45371 C 4628.1 -0.848936 1.68637 0
M  V30 45372 O 4627.45 -1.56304 0.942091 0
M  V30 45373 C 4627.5 0.777001 3.53051 0
M  V30 45374 O 4627.22 2.14111 3.82215 0
M  V30 45375 C 4628.73 0.436511 4.41146 0
M  V30 45376 H 4625.95 0.217197 0.634875 0
M  V30 45377 H 4628.49 1.23374 1.63092 0
M  V30 45378 H 4626.64 0.161221 3.87064 0
M  V30 45379 H 4627.06 2.18471 4.76834 0
M  V30 45380 H 4628.53 0.631363 5.48377 0
M  V30 45381 H 4629.01 -0.627534 4.34694 0
M  V30 45382 H 4629.62 1.03006 4.12638 0
M  V30 45383 N 4627.93 -1.42001 0.683638 0
M  V30 45384 C 4629.34 -1.845 0.285801 0
M  V30 45385 C 4629.69 -1.57217 -1.17377 0
M  V30 45386 O 4628.82 -1.03649 -1.89963 0
M  V30 45387 C 4629.41 -3.3491 0.511939 0
M  V30 45388 C 4627.97 -3.76024 0.168137 0
M  V30 45389 C 4627.12 -2.65507 0.800076 0
M  V30 45390 H 4630.07 -1.31721 0.885165 0
M  V30 45391 H 4630.09 -3.79785 -0.233159 0
M  V30 45392 H 4629.6 -3.54735 1.57431 0
M  V30 45393 H 4627.7 -3.61804 -0.89044 0
M  V30 45394 H 4627.82 -4.75139 0.614828 0
M  V30 45395 H 4626.18 -2.53653 0.230657 0
M  V30 45396 H 4626.96 -2.88154 1.86608 0
M  V30 45397 N 4629.41 -0.427565 -1.51689 0
M  V30 45398 C 4630.64 0.141118 -2.06418 0
M  V30 45399 C 4631.05 1.37299 -1.29594 0
M  V30 45400 O 4630.41 1.79058 -0.352795 0
M  V30 45401 C 4630.46 0.47314 -3.5839 0
M  V30 45402 O 4630.18 -0.709825 -4.32311 0
M  V30 45403 C 4631.68 1.09356 -4.296 0
M  V30 45404 H 4628.9 0.0122512 -0.670888 0
M  V30 45405 H 4631.45 -0.603833 -1.95382 0
M  V30 45406 H 4629.6 1.16799 -3.69374 0
M  V30 45407 H 4630.02 -0.428254 -5.22749 0
M  V30 45408 H 4631.49 1.27595 -5.37051 0
M  V30 45409 H 4631.97 2.07187 -3.8726 0
M  V30 45410 H 4632.57 0.438381 -4.23035 0
M  V30 45411 N 4630.89 1.568 -0.158588 0
M  V30 45412 C 4632.14 1.96104 0.488643 0
M  V30 45413 C 4632.46 1.04504 1.64633 0
M  V30 45414 O 4631.73 0.108852 1.95597 0
M  V30 45415 H 4630.31 0.724109 0.18351 0
M  V30 45416 H 4632.97 1.93456 -0.236796 0
M  V30 45417 H 4632.06 3.001 0.857114 0
M  V30 45418 N 4632.37 -0.115176 1.57179 0
M  V30 45419 C 4633.59 -0.83637 1.89242 0
M  V30 45420 C 4634.01 -1.73254 0.750236 0
M  V30 45421 O 4633.37 -1.80358 -0.278768 0
M  V30 45422 C 4633.42 -1.66659 3.20791 0
M  V30 45423 O 4633.14 -0.8065 4.30613 0
M  V30 45424 C 4634.64 -2.49261 3.66584 0
M  V30 45425 H 4631.86 -0.240231 0.626522 0
M  V30 45426 H 4634.4 -0.0984214 2.04263 0
M  V30 45427 H 4632.56 -2.35726 3.07428 0
M  V30 45428 H 4632.97 -1.37952 5.06033 0
M  V30 45429 H 4634.45 -3.03038 4.6138 0
M  V30 45430 H 4634.92 -3.26797 2.93429 0
M  V30 45431 H 4635.53 -1.8543 3.82748 0
M  V30 45432 N 4633.84 -1.52813 -0.385464 0
M  V30 45433 C 4634.78 -1.74102 -1.49068 0
M  V30 45434 C 4635.79 -0.621515 -1.50469 0
M  V30 45435 O 4636.98 -0.897299 -1.54307 0
M  V30 45436 C 4634.08 -1.78784 -2.87905 0
M  V30 45437 C 4633.25 -3.08145 -3.10428 0
M  V30 45438 C 4632.31 -3.04328 -4.29268 0
M  V30 45439 O 4631.34 -3.78183 -4.25401 0
M  V30 45440 N 4632.54 -2.23759 -5.35642 0
M  V30 45441 H 4635.3 -2.6946 -1.31192 0
M  V30 45442 H 4632.86 -1.51345 -0.575011 0
M  V30 45443 H 4634.86 -1.73734 -3.65512 0
M  V30 45444 H 4633.43 -0.907974 -2.99123 0
M  V30 45445 H 4632.65 -3.26657 -2.20655 0
M  V30 45446 H 4633.93 -3.93673 -3.22333 0
M  V30 45447 H 4633.33 -1.6323 -5.41639 0
M  V30 45448 H 4631.89 -2.24545 -6.11901 0
M  V30 45449 N 4635.32 0.644118 -1.43836 0
M  V30 45450 C 4636.55 1.43142 -1.49392 0
M  V30 45451 C 4636.96 1.88452 -0.114649 0
M  V30 45452 O 4636.32 1.6005 0.876933 0
M  V30 45453 C 4636.37 2.66037 -2.44758 0
M  V30 45454 O 4636.09 2.2262 -3.77322 0
M  V30 45455 C 4637.59 3.59302 -2.59648 0
M  V30 45456 H 4634.81 0.43943 -0.507092 0
M  V30 45457 H 4637.36 0.788884 -1.88671 0
M  V30 45458 H 4635.51 3.26411 -2.0865 0
M  V30 45459 H 4635.93 3.02201 -4.2869 0
M  V30 45460 H 4637.4 4.42175 -3.30432 0
M  V30 45461 H 4637.88 4.07254 -1.64442 0
M  V30 45462 H 4638.48 3.04805 -2.96604 0
M  V30 45463 N 4636.8 1.30518 0.883332 0
M  V30 45464 C 4638.21 1.17514 1.45077 0
M  V30 45465 C 4638.56 -0.223537 1.94922 0
M  V30 45466 O 4637.69 -1.12034 1.85141 0
M  V30 45467 C 4638.28 2.12724 2.63693 0
M  V30 45468 C 4636.84 2.03694 3.16522 0
M  V30 45469 C 4635.99 2.02712 1.89217 0
M  V30 45470 H 4638.94 1.42764 0.693115 0
M  V30 45471 H 4638.96 1.70903 3.39959 0
M  V30 45472 H 4638.47 3.14513 2.27384 0
M  V30 45473 H 4636.57 1.05052 3.57484 0
M  V30 45474 H 4636.69 2.92159 3.7971 0
M  V30 45475 H 4635.05 1.47537 2.07617 0
M  V30 45476 H 4635.83 3.06234 1.55163 0
M  V30 45477 N 4638.28 -1.09589 1.13261 0
M  V30 45478 C 4639.51 -1.85496 0.916443 0
M  V30 45479 C 4639.92 -1.81071 -0.534674 0
M  V30 45480 O 4639.28 -1.20567 -1.37003 0
M  V30 45481 C 4639.33 -3.33541 1.394 0
M  V30 45482 O 4639.05 -3.37918 2.78825 0
M  V30 45483 C 4640.55 -4.26295 1.21603 0
M  V30 45484 H 4637.77 -0.58598 0.326908 0
M  V30 45485 H 4640.31 -1.38483 1.50475 0
M  V30 45486 H 4638.47 -3.77989 0.84873 0
M  V30 45487 H 4638.88 -4.30243 2.99985 0
M  V30 45488 H 4640.36 -5.28335 1.59894 0
M  V30 45489 H 4640.83 -4.38917 0.15753 0
M  V30 45490 H 4641.44 -3.87662 1.74924 0
M  V30 45491 N 4639.76 -0.925856 -1.27537 0
M  V30 45492 C 4640.98 -0.581579 -1.98558 0
M  V30 45493 C 4641.4 0.839981 -1.69085 0
M  V30 45494 O 4640.76 1.55802 -0.950367 0
M  V30 45495 C 4640.81 -0.795713 -3.52634 0
M  V30 45496 O 4640.53 -2.16135 -3.81074 0
M  V30 45497 C 4642.03 -0.459899 -4.40908 0
M  V30 45498 H 4639.25 -0.220561 -0.633714 0
M  V30 45499 H 4641.79 -1.24237 -1.62436 0
M  V30 45500 H 4639.95 -0.181746 -3.86973 0
M  V30 45501 H 4640.36 -2.20997 -4.75668 0
M  V30 45502 H 4641.84 -0.660436 -5.48035 0
M  V30 45503 H 4642.31 0.604472 -4.3502 0
M  V30 45504 H 4642.92 -1.05193 -4.12086 0
M  V30 45505 N 4641.23 1.41636 -0.691159 0
M  V30 45506 C 4642.46 2.05627 -0.229163 0
M  V30 45507 C 4642.88 1.51996 1.11994 0
M  V30 45508 O 4642.23 0.666382 1.69899 0
M  V30 45509 C 4642.28 3.61084 -0.17341 0
M  V30 45510 O 4642.01 4.1273 -1.46921 0
M  V30 45511 C 4643.51 4.42214 0.31011 0
M  V30 45512 H 4640.73 0.662324 -0.107557 0
M  V30 45513 H 4643.27 1.81486 -0.942502 0
M  V30 45514 H 4641.43 3.84279 0.490723 0
M  V30 45515 H 4641.84 5.06738 -1.35339 0
M  V30 45516 H 4643.31 5.51195 0.298002 0
M  V30 45517 H 4643.79 4.17994 1.34823 0
M  V30 45518 H 4644.4 4.24073 -0.322865 0
M  V30 45519 N 4642.71 0.435603 1.5146 0
M  V30 45520 C 4644.12 -0.0279215 1.86679 0
M  V30 45521 C 4644.47 -1.42099 1.35286 0
M  V30 45522 O 4643.6 -2.04665 0.70295 0
M  V30 45523 C 4644.19 -0.0574435 3.38751 0
M  V30 45524 C 4642.75 -0.465376 3.73512 0
M  V30 45525 C 4641.9 0.343093 2.75169 0
M  V30 45526 H 4644.85 0.651524 1.4471 0
M  V30 45527 H 4644.87 -0.867291 3.70484 0
M  V30 45528 H 4644.38 0.95658 3.76127 0
M  V30 45529 H 4642.49 -1.48507 3.41726 0
M  V30 45530 H 4642.6 -0.191377 4.78718 0
M  V30 45531 H 4640.96 -0.198352 2.53926 0
M  V30 45532 H 4641.75 1.35596 3.15386 0
M  V30 45533 N 4644.19 -1.56714 0.166901 0
M  V30 45534 C 4645.44 -1.95924 -0.479249 0
M  V30 45535 C 4645.75 -1.05535 -1.64687 0
M  V30 45536 O 4646.96 -1.34407 -2.35896 0
M  V30 45537 C 4645.41 -3.48362 -0.903998 0
M  V30 45538 C 4645.02 -4.47369 0.237779 0
M  V30 45539 C 4646.77 -3.96399 -1.51882 0
M  V30 45540 C 4644.67 -5.9104 -0.206354 0
M  V30 45541 H 4643.6 -0.731502 -0.182814 0
M  V30 45542 H 4646.25 -1.81728 0.254427 0
M  V30 45543 H 4644.64 -3.57961 -1.69352 0
M  V30 45544 H 4645.81 -4.49481 1.01505 0
M  V30 45545 H 4644.13 -4.09363 0.762272 0
M  V30 45546 H 4646.72 -5.01192 -1.86307 0
M  V30 45547 H 4647.07 -3.39084 -2.41512 0
M  V30 45548 H 4647.6 -3.89799 -0.793813 0
M  V30 45549 H 4644.34 -6.52219 0.655064 0
M  V30 45550 H 4643.86 -5.92244 -0.949073 0
M  V30 45551 H 4645.54 -6.43709 -0.651713 0
M  V30 45552 N 4645.67 0.106839 -1.57237 0
M  V30 45553 C 4646.9 0.826322 -1.89683 0
M  V30 45554 C 4647.31 1.72854 -0.759414 0
M  V30 45555 O 4646.67 1.80504 0.2692 0
M  V30 45556 C 4646.72 1.64956 -3.2167 0
M  V30 45557 O 4646.44 0.783653 -4.31034 0
M  V30 45558 C 4647.94 2.47313 -3.67901 0
M  V30 45559 H 4645.16 0.236905 -0.627787 0
M  V30 45560 H 4647.71 0.0875875 -2.04312 0
M  V30 45561 H 4645.86 2.34092 -3.08674 0
M  V30 45562 H 4646.27 1.35266 -5.06758 0
M  V30 45563 H 4647.75 3.00587 -4.62981 0
M  V30 45564 H 4648.23 3.25236 -2.95158 0
M  V30 45565 H 4648.83 1.83397 -3.83726 0
M  V30 45566 N 4647.15 1.53016 0.377354 0
M  V30 45567 C 4648.37 1.72519 1.14213 0
M  V30 45568 C 4648.79 0.4488 1.83388 0
M  V30 45569 O 4648.15 -0.577531 1.73121 0
M  V30 45570 C 4648.2 2.88268 2.18137 0
M  V30 45571 O 4647.92 4.10967 1.51781 0
M  V30 45572 C 4649.42 3.19547 3.07253 0
M  V30 45573 H 4646.64 0.577313 0.34198 0
M  V30 45574 H 4649.18 1.99713 0.439865 0
M  V30 45575 H 4647.34 2.63502 2.83981 0
M  V30 45576 H 4647.75 4.757 2.20928 0
M  V30 45577 H 4649.23 4.03972 3.76178 0
M  V30 45578 H 4649.7 2.34416 3.71411 0
M  V30 45579 H 4650.31 3.46195 2.4704 0
M  V30 45580 N 4648.62 -0.636481 1.44176 0
M  V30 45581 C 4649.85 -1.42347 1.50149 0
M  V30 45582 C 4650.27 -1.88388 0.124642 0
M  V30 45583 O 4649.62 -1.60513 -0.868433 0
M  V30 45584 C 4649.68 -2.64736 2.46165 0
M  V30 45585 O 4649.4 -2.20616 3.78497 0
M  V30 45586 C 4650.9 -3.5792 2.61549 0
M  V30 45587 H 4648.12 -0.436734 0.509416 0
M  V30 45588 H 4650.66 -0.778867 1.89087 0
M  V30 45589 H 4648.82 -3.253 2.10378 0
M  V30 45590 H 4649.23 -2.99923 4.30286 0
M  V30 45591 H 4650.7 -4.40417 3.32772 0
M  V30 45592 H 4651.18 -4.06376 1.66599 0
M  V30 45593 H 4651.79 -3.03228 2.98216 0
M  V30 45594 N 4650.1 -1.30985 -0.876398 0
M  V30 45595 C 4651.33 -1.23248 -1.66185 0
M  V30 45596 C 4651.75 0.203279 -1.87702 0
M  V30 45597 O 4651.1 1.13312 -1.43061 0
M  V30 45598 C 4651.15 -1.96633 -3.03344 0
M  V30 45599 O 4650.87 -3.34604 -2.82792 0
M  V30 45600 C 4652.38 -1.95658 -3.97785 0
M  V30 45601 H 4649.6 -0.426144 -0.518307 0
M  V30 45602 H 4652.14 -1.72754 -1.09436 0
M  V30 45603 H 4650.29 -1.50904 -3.56801 0
M  V30 45604 H 4650.71 -3.71886 -3.69866 0
M  V30 45605 H 4652.18 -2.51529 -4.91363 0
M  V30 45606 H 4652.66 -0.937546 -4.29077 0
M  V30 45607 H 4653.27 -2.41237 -3.50264 0
M  V30 45608 N 4651.58 1.08987 -1.13841 0
M  V30 45609 C 4652.81 1.85008 -0.926267 0
M  V30 45610 C 4653.22 1.81352 0.525064 0
M  V30 45611 O 4652.58 1.21292 1.36362 0
M  V30 45612 C 4652.63 3.32797 -1.41167 0
M  V30 45613 O 4652.35 3.36434 -2.80613 0
M  V30 45614 C 4653.85 4.25644 -1.23862 0
M  V30 45615 H 4651.07 0.584238 -0.330011 0
M  V30 45616 H 4653.62 1.37683 -1.51207 0
M  V30 45617 H 4651.77 3.77533 -0.868764 0
M  V30 45618 H 4652.19 4.28646 -3.02263 0
M  V30 45619 H 4653.66 5.2748 -1.62694 0
M  V30 45620 H 4654.14 4.38828 -0.180805 0
M  V30 45621 H 4654.74 3.86729 -1.76978 0
M  V30 45622 N 4653.06 0.932607 1.27044 0
M  V30 45623 C 4654.3 0.57648 1.94434 0
M  V30 45624 C 4654.64 -0.88083 1.73075 0
M  V30 45625 O 4653.91 -1.62902 1.0627 0
M  V30 45626 C 4654.2 0.909154 3.48434 0
M  V30 45627 C 4654.05 2.42058 3.79115 0
M  V30 45628 C 4655.37 0.418495 4.38106 0
M  V30 45629 H 4652.49 0.210913 0.706176 0
M  V30 45630 H 4655.13 1.16527 1.50071 0
M  V30 45631 H 4653.28 0.408083 3.86351 0
M  V30 45632 H 4654.95 2.99372 3.50962 0
M  V30 45633 H 4653.19 2.86769 3.25493 0
M  V30 45634 H 4653.86 2.60387 4.86727 0
M  V30 45635 H 4656.34 0.847999 4.07367 0
M  V30 45636 H 4655.22 0.680172 5.4467 0
M  V30 45637 H 4655.48 -0.681489 4.36816 0
M  V30 45638 N 4654.54 -1.41267 0.698661 0
M  V30 45639 C 4655.76 -2.05503 0.240064 0
M  V30 45640 C 4656.18 -1.52588 -1.11186 0
M  V30 45641 O 4655.54 -0.675383 -1.69543 0
M  V30 45642 C 4655.59 -3.60987 0.192556 0
M  V30 45643 O 4655.31 -4.11945 1.49108 0
M  V30 45644 C 4656.81 -4.42372 -0.286654 0
M  V30 45645 H 4654.03 -0.661744 0.111068 0
M  V30 45646 H 4656.57 -1.80984 0.952113 0
M  V30 45647 H 4654.73 -3.84534 -0.470337 0
M  V30 45648 H 4655.14 -5.06013 1.38025 0
M  V30 45649 H 4656.62 -5.51345 -0.268767 0
M  V30 45650 H 4657.09 -4.18704 -1.32604 0
M  V30 45651 H 4657.7 -4.23896 0.345351 0
M  V30 45652 N 4656.01 -0.44363 -1.51227 0
M  V30 45653 C 4657.43 0.018021 -1.86691 0
M  V30 45654 C 4657.78 1.4138 -1.36038 0
M  V30 45655 O 4656.9 2.04289 -0.713794 0
M  V30 45656 C 4657.5 0.0394779 -3.38777 0
M  V30 45657 C 4656.06 0.445561 -3.73754 0
M  V30 45658 C 4655.2 -0.357681 -2.74984 0
M  V30 45659 H 4658.15 -0.659189 -1.44362 0
M  V30 45660 H 4658.17 0.847631 -3.70939 0
M  V30 45661 H 4657.69 -0.976514 -3.75614 0
M  V30 45662 H 4655.79 1.46692 -3.42509 0
M  V30 45663 H 4655.9 0.165987 -4.78812 0
M  V30 45664 H 4654.26 0.184883 -2.54028 0
M  V30 45665 H 4655.05 -1.37267 -3.14663 0
M  V30 45666 N 4657.49 1.56623 -0.175209 0
M  V30 45667 C 4658.72 2.01376 0.474901 0
M  V30 45668 C 4659.14 1.05542 1.56545 0
M  V30 45669 O 4658.49 0.056931 1.82411 0
M  V30 45670 C 4658.54 3.45926 1.04963 0
M  V30 45671 O 4658.27 4.381 0.00261203 0
M  V30 45672 C 4659.77 4.061 1.77758 0
M  V30 45673 H 4656.99 0.659967 0.121182 0
M  V30 45674 H 4659.53 2.026 -0.278082 0
M  V30 45675 H 4657.69 3.45464 1.75309 0
M  V30 45676 H 4658.1 5.22755 0.427497 0
M  V30 45677 H 4659.57 5.09154 2.13227 0
M  V30 45678 H 4660.05 3.48415 2.67402 0
M  V30 45679 H 4660.66 4.10276 1.12045 0
M  V30 45680 N 4658.97 -0.0984986 1.57292 0
M  V30 45681 C 4660.38 -0.653395 1.74893 0
M  V30 45682 C 4660.73 -1.79287 0.796901 0
M  V30 45683 O 4659.86 -2.16385 -0.0254125 0
M  V30 45684 C 4660.45 -1.19205 3.17137 0
M  V30 45685 C 4659.01 -1.69304 3.36174 0
M  V30 45686 C 4658.16 -0.601199 2.70704 0
M  V30 45687 H 4661.11 0.127552 1.58187 0
M  V30 45688 H 4661.13 -2.06143 3.19821 0
M  V30 45689 H 4660.64 -0.362499 3.86403 0
M  V30 45690 H 4658.74 -2.5467 2.71981 0
M  V30 45691 H 4658.86 -1.78837 4.4447 0
M  V30 45692 H 4657.22 -1.03982 2.32508 0
M  V30 45693 H 4658 0.217712 3.42609 0
M  V30 45694 N 4660.45 -1.53214 -0.369234 0
M  V30 45695 C 4661.68 -1.73123 -1.13297 0
M  V30 45696 C 4662.09 -0.458519 -1.83148 0
M  V30 45697 O 4661.45 0.568342 -1.73425 0
M  V30 45698 C 4661.5 -2.89421 -2.16606 0
M  V30 45699 O 4661.22 -4.11767 -1.49599 0
M  V30 45700 C 4662.72 -3.21172 -3.05554 0
M  V30 45701 H 4659.94 -0.579119 -0.338914 0
M  V30 45702 H 4662.49 -1.99944 -0.429267 0
M  V30 45703 H 4660.64 -2.65004 -2.8258 0
M  V30 45704 H 4661.06 -4.76865 -2.18402 0
M  V30 45705 H 4662.53 -4.05962 -3.74031 0
M  V30 45706 H 4663.01 -2.36382 -3.70162 0
M  V30 45707 H 4663.61 -3.475 -2.45201 0
M  V30 45708 N 4661.93 0.628826 -1.44511 0
M  V30 45709 C 4663.34 1.21049 -1.42141 0
M  V30 45710 C 4663.69 1.95714 -0.13795 0
M  V30 45711 O 4662.81 2.02556 0.761574 0
M  V30 45712 C 4663.41 2.2018 -2.575 0
M  V30 45713 C 4661.97 2.73768 -2.58318 0
M  V30 45714 C 4661.12 1.48805 -2.33992 0
M  V30 45715 H 4664.07 0.419366 -1.53059 0
M  V30 45716 H 4664.09 3.02825 -2.30385 0
M  V30 45717 H 4663.6 1.65808 -3.50898 0
M  V30 45718 H 4661.7 3.32136 -1.68868 0
M  V30 45719 H 4661.81 3.1965 -3.56877 0
M  V30 45720 H 4660.18 1.77018 -1.8313 0
M  V30 45721 H 4660.96 0.963326 -3.29507 0
M  V30 45722 N 4663.41 1.31448 0.869439 0
M  V30 45723 C 4664.63 1.24127 1.65529 0
M  V30 45724 C 4665.05 -0.193321 1.87808 0
M  V30 45725 O 4664.41 -1.12552 1.4366 0
M  V30 45726 C 4664.46 1.98239 3.02297 0
M  V30 45727 O 4664.18 3.36099 2.81014 0
M  V30 45728 C 4665.68 1.97765 3.96742 0
M  V30 45729 H 4662.9 0.428887 0.51604 0
M  V30 45730 H 4665.44 1.73332 1.08519 0
M  V30 45731 H 4663.6 1.52794 3.55995 0
M  V30 45732 H 4664.01 3.73843 3.67888 0
M  V30 45733 H 4665.49 2.54131 4.90022 0
M  V30 45734 H 4665.96 0.960288 4.28573 0
M  V30 45735 H 4666.57 2.43091 3.4898 0
M  V30 45736 N 4664.88 -1.08381 1.14417 0
M  V30 45737 C 4666.13 -1.80416 0.910743 0
M  V30 45738 C 4666.45 -1.8666 -0.564178 0
M  V30 45739 O 4665.72 -1.3599 -1.41009 0
M  V30 45740 H 4664.3 -0.668193 0.333958 0
M  V30 45741 H 4666.96 -1.31032 1.4428 0
M  V30 45742 H 4666.06 -2.83233 1.31092 0
M  V30 45743 N 4666.36 -0.939331 -1.26548 0
M  V30 45744 C 4667.59 -0.602606 -1.9793 0
M  V30 45745 C 4668 0.822 -1.69966 0
M  V30 45746 O 4667.36 1.54785 -0.966838 0
M  V30 45747 C 4667.41 -0.83307 -3.5177 0
M  V30 45748 O 4667.13 -2.20164 -3.7876 0
M  V30 45749 C 4668.63 -0.506638 -4.40395 0
M  V30 45750 H 4665.85 -0.22727 -0.631339 0
M  V30 45751 H 4668.4 -1.25953 -1.61109 0
M  V30 45752 H 4666.55 -0.22278 -3.86759 0
M  V30 45753 H 4666.97 -2.2603 -4.73298 0
M  V30 45754 H 4668.44 -0.718525 -5.47304 0
M  V30 45755 H 4668.92 0.558298 -4.35637 0
M  V30 45756 H 4669.52 -1.09557 -4.10947 0
M  V30 45757 N 4667.84 1.40895 -0.706143 0
M  V30 45758 C 4668.77 2.29199 -0.00823834 0
M  V30 45759 C 4669.78 1.45338 0.733531 0
M  V30 45760 O 4670.97 1.68729 0.582477 0
M  V30 45761 C 4668.07 3.23421 1.01254 0
M  V30 45762 C 4667.25 4.3609 0.338234 0
M  V30 45763 C 4666.31 5.10816 1.26308 0
M  V30 45764 O 4665.33 5.64218 0.751453 0
M  V30 45765 N 4666.53 5.19278 2.59482 0
M  V30 45766 H 4669.3 2.89735 -0.766399 0
M  V30 45767 H 4666.86 1.52162 -0.553013 0
M  V30 45768 H 4668.85 3.70281 1.63321 0
M  V30 45769 H 4667.42 2.64118 1.67214 0
M  V30 45770 H 4666.64 3.91478 -0.462489 0
M  V30 45771 H 4667.93 5.08633 -0.13021 0
M  V30 45772 H 4667.33 4.77358 3.03556 0
M  V30 45773 H 4665.88 5.69678 3.16717 0
M  V30 45774 N 4669.32 0.451643 1.5099 0
M  V30 45775 C 4670.55 -0.108261 2.06617 0
M  V30 45776 C 4670.96 -1.3522 1.31762 0
M  V30 45777 O 4670.32 -1.78474 0.381237 0
M  V30 45778 C 4670.37 -0.416064 3.59098 0
M  V30 45779 O 4670.09 0.778512 4.31127 0
M  V30 45780 C 4671.59 -1.02508 4.31285 0
M  V30 45781 H 4668.81 -0.00157636 0.670998 0
M  V30 45782 H 4671.35 0.63484 1.94397 0
M  V30 45783 H 4669.51 -1.10908 3.71185 0
M  V30 45784 H 4669.92 0.511364 5.22001 0
M  V30 45785 H 4671.4 -1.19034 5.39013 0
M  V30 45786 H 4671.87 -2.00999 3.90507 0
M  V30 45787 H 4672.48 -0.371024 4.23679 0
M  V30 45788 N 4670.8 -1.56528 0.183513 0
M  V30 45789 C 4672.21 -1.8374 -0.331112 0
M  V30 45790 C 4672.56 -1.10378 -1.62207 0
M  V30 45791 O 4671.68 -0.360785 -2.13371 0
M  V30 45792 C 4672.28 -3.33308 -0.607529 0
M  V30 45793 C 4670.84 -3.60973 -1.06656 0
M  V30 45794 C 4669.98 -2.77086 -0.108931 0
M  V30 45795 H 4672.93 -1.53378 0.407538 0
M  V30 45796 H 4672.96 -3.5145 -1.4582 0
M  V30 45797 H 4672.47 -3.86675 0.332222 0
M  V30 45798 H 4670.57 -3.13029 -2.02099 0
M  V30 45799 H 4670.68 -4.69234 -0.967282 0
M  V30 45800 H 4669.05 -2.47321 -0.608627 0
M  V30 45801 H 4669.83 -3.33238 0.825057 0
M  V30 45802 N 4672.27 0.0901557 -1.57342 0
M  V30 45803 C 4673.5 0.806157 -1.90548 0
M  V30 45804 C 4673.92 1.72038 -0.777704 0
M  V30 45805 O 4673.27 1.80779 0.25004 0
M  V30 45806 C 4673.33 1.61535 -3.23402 0
M  V30 45807 O 4673.05 0.737892 -4.31841 0
M  V30 45808 C 4674.55 2.43397 -3.70503 0
M  V30 45809 H 4671.77 0.230234 -0.630265 0
M  V30 45810 H 4674.31 0.0659125 -2.04394 0
M  V30 45811 H 4672.47 2.30805 -3.11139 0
M  V30 45812 H 4672.88 1.29884 -5.08164 0
M  V30 45813 H 4674.35 2.9566 -4.66143 0
M  V30 45814 H 4674.83 3.22087 -2.98591 0
M  V30 45815 H 4675.44 1.79317 -3.85649 0
M  V30 45816 N 4673.75 1.53407 0.361103 0
M  V30 45817 C 4674.98 1.73721 1.12377 0
M  V30 45818 C 4675.4 0.468225 1.82902 0
M  V30 45819 O 4674.75 -0.559137 1.73724 0
M  V30 45820 C 4674.8 2.90565 2.15068 0
M  V30 45821 O 4674.52 4.12554 1.47413 0
M  V30 45822 C 4676.03 3.22788 3.03847 0
M  V30 45823 H 4673.25 0.580908 0.335838 0
M  V30 45824 H 4675.79 2.00169 0.418658 0
M  V30 45825 H 4673.94 2.66499 2.81171 0
M  V30 45826 H 4674.36 4.78017 2.1587 0
M  V30 45827 H 4675.83 4.0794 3.71873 0
M  V30 45828 H 4676.31 2.38342 3.68903 0
M  V30 45829 H 4676.92 3.48796 2.43355 0
M  V30 45830 N 4675.23 -0.621153 1.44843 0
M  V30 45831 C 4676.46 -1.40747 1.51651 0
M  V30 45832 C 4676.87 -1.88245 0.144616 0
M  V30 45833 O 4676.23 -1.61425 -0.851359 0
M  V30 45834 C 4676.28 -2.6211 2.48959 0
M  V30 45835 O 4676 -2.16589 3.80816 0
M  V30 45836 C 4677.5 -3.55126 2.65331 0
M  V30 45837 H 4674.72 -0.431307 0.514019 0
M  V30 45838 H 4677.27 -0.758768 1.89903 0
M  V30 45839 H 4675.42 -3.2305 2.13816 0
M  V30 45840 H 4675.84 -2.95342 4.33443 0
M  V30 45841 H 4677.31 -4.36862 3.37425 0
M  V30 45842 H 4677.79 -4.04586 1.709 0
M  V30 45843 H 4678.39 -3.00048 3.01416 0
M  V30 45844 N 4676.71 -1.31907 -0.862456 0
M  V30 45845 C 4678.12 -1.19808 -1.43189 0
M  V30 45846 C 4678.47 0.192498 -1.95253 0
M  V30 45847 O 4677.6 1.09074 -1.869 0
M  V30 45848 C 4678.19 -2.16892 -2.60275 0
M  V30 45849 C 4676.75 -2.08703 -3.13241 0
M  V30 45850 C 4675.9 -2.05697 -1.85968 0
M  V30 45851 H 4678.85 -1.43849 -0.670314 0
M  V30 45852 H 4678.87 -1.7629 -3.37197 0
M  V30 45853 H 4678.38 -3.1809 -2.22351 0
M  V30 45854 H 4676.48 -1.10726 -3.55767 0
M  V30 45855 H 4676.59 -2.98163 -3.75014 0
M  V30 45856 H 4674.96 -1.50822 -2.05244 0
M  V30 45857 H 4675.74 -3.08664 -1.50271 0
M  V30 45858 N 4678.19 1.07773 -1.1499 0
M  V30 45859 C 4679.44 1.79666 -0.91668 0
M  V30 45860 C 4679.75 1.87476 0.557851 0
M  V30 45861 O 4680.95 2.55848 0.908527 0
M  V30 45862 C 4679.41 3.22842 -1.59062 0
M  V30 45863 C 4679.02 3.23246 -3.10187 0
M  V30 45864 C 4680.76 3.99374 -1.43878 0
M  V30 45865 C 4678.67 4.6105 -3.70388 0
M  V30 45866 H 4677.6 0.673337 -0.339313 0
M  V30 45867 H 4680.25 1.20999 -1.37955 0
M  V30 45868 H 4678.63 3.81676 -1.05544 0
M  V30 45869 H 4679.81 2.74082 -3.70427 0
M  V30 45870 H 4678.12 2.60211 -3.25083 0
M  V30 45871 H 4680.72 5.01214 -1.8625 0
M  V30 45872 H 4681.06 4.14509 -0.38571 0
M  V30 45873 H 4681.59 3.47025 -1.94469 0
M  V30 45874 H 4678.33 4.51118 -4.75576 0
M  V30 45875 H 4677.85 5.10469 -3.14931 0
M  V30 45876 H 4679.53 5.30021 -3.71061 0
M  V30 45877 N 4679.66 0.946029 1.26048 0
M  V30 45878 C 4680.89 0.613094 1.97608 0
M  V30 45879 C 4681.31 -0.812975 1.704 0
M  V30 45880 O 4680.66 -1.5427 0.975033 0
M  V30 45881 C 4680.72 0.851713 3.51323 0
M  V30 45882 O 4680.44 2.2217 3.77587 0
M  V30 45883 C 4681.94 0.529986 4.4012 0
M  V30 45884 H 4679.16 0.230615 0.630125 0
M  V30 45885 H 4681.7 1.26806 1.60439 0
M  V30 45886 H 4679.86 0.243287 3.86635 0
M  V30 45887 H 4680.27 2.28537 4.72092 0
M  V30 45888 H 4681.74 0.74754 5.46915 0
M  V30 45889 H 4682.22 -0.535187 4.35927 0
M  V30 45890 H 4682.83 1.11735 4.1036 0
M  V30 45891 N 4681.14 -1.40518 0.713605 0
M  V30 45892 C 4682.37 -2.05236 0.261847 0
M  V30 45893 C 4682.79 -1.53759 -1.09561 0
M  V30 45894 O 4682.14 -0.693327 -1.68817 0
M  V30 45895 C 4682.19 -3.60762 0.230833 0
M  V30 45896 O 4681.91 -4.1034 1.53469 0
M  V30 45897 C 4683.42 -4.42651 -0.239719 0
M  V30 45898 H 4680.64 -0.660529 0.11808 0
M  V30 45899 H 4683.18 -1.79964 0.971256 0
M  V30 45900 H 4681.33 -3.85011 -0.429526 0
M  V30 45901 H 4681.75 -5.04521 1.43384 0
M  V30 45902 H 4683.22 -5.51599 -0.210274 0
M  V30 45903 H 4683.7 -4.20086 -1.28156 0
M  V30 45904 H 4684.31 -4.23505 0.390291 0
M  V30 45905 N 4682.62 -0.459644 -1.50748 0
M  V30 45906 C 4683.85 0.0973023 -2.06671 0
M  V30 45907 C 4684.26 1.34519 -1.32477 0
M  V30 45908 O 4683.62 1.78269 -0.390697 0
M  V30 45909 C 4683.67 0.397014 -3.59313 0
M  V30 45910 O 4683.39 -0.801365 -4.30708 0
M  V30 45911 C 4684.89 1.00219 -4.31823 0
M  V30 45912 H 4682.11 -0.00198213 -0.670997 0
M  V30 45913 H 4684.66 -0.64514 -1.94057 0
M  V30 45914 H 4682.81 1.08938 -3.71768 0
M  V30 45915 H 4683.23 -0.53904 -5.21723 0
M  V30 45916 H 4684.7 1.16174 -5.39637 0
M  V30 45917 H 4685.18 1.98926 -3.91568 0
M  V30 45918 H 4685.78 0.34855 -4.23869 0
M  V30 45919 N 4684.1 1.56428 -0.191812 0
M  V30 45920 C 4685.33 2.01868 0.453515 0
M  V30 45921 C 4685.74 1.07197 1.55416 0
M  V30 45922 O 4685.1 0.0762749 1.82341 0
M  V30 45923 C 4685.15 3.4702 1.01288 0
M  V30 45924 O 4684.87 4.38078 -0.0438545 0
M  V30 45925 C 4686.37 4.07962 1.73441 0
M  V30 45926 H 4683.59 0.661215 0.114176 0
M  V30 45927 H 4686.14 2.02294 -0.299554 0
M  V30 45928 H 4684.29 3.47304 1.71635 0
M  V30 45929 H 4684.7 5.23179 0.372028 0
M  V30 45930 H 4686.18 5.11387 2.07815 0
M  V30 45931 H 4686.66 3.51231 2.63692 0
M  V30 45932 H 4687.26 4.11441 1.07687 0
M  V30 45933 N 4685.58 -0.0818102 1.57388 0
M  V30 45934 C 4686.8 -0.796041 1.90973 0
M  V30 45935 C 4687.22 -1.71624 0.786817 0
M  V30 45936 O 4686.58 -1.80909 -0.240449 0
M  V30 45937 C 4686.63 -1.59817 3.24254 0
M  V30 45938 O 4686.35 -0.71498 4.32226 0
M  V30 45939 C 4687.85 -2.41429 3.71789 0
M  V30 45940 H 4685.07 -0.226888 0.631477 0
M  V30 45941 H 4687.61 -0.0550721 2.04426 0
M  V30 45942 H 4685.77 -2.29152 3.12359 0
M  V30 45943 H 4686.18 -1.27187 5.08846 0
M  V30 45944 H 4687.66 -2.93184 4.67704 0
M  V30 45945 H 4688.13 -3.20499 3.00295 0
M  V30 45946 H 4688.74 -1.77269 3.86595 0
M  V30 45947 N 4687.06 -1.53597 -0.352963 0
M  V30 45948 C 4688.3 -1.70641 -1.09587 0
M  V30 45949 C 4688.63 -0.463352 -1.88591 0
M  V30 45950 O 4687.91 0.539532 -1.86867 0
M  V30 45951 C 4688.19 -2.96413 -2.04478 0
M  V30 45952 C 4688.05 -4.30905 -1.28999 0
M  V30 45953 C 4689.36 -3.17822 -3.04429 0
M  V30 45954 H 4686.48 -0.620927 -0.397012 0
M  V30 45955 H 4689.13 -1.86255 -0.37538 0
M  V30 45956 H 4687.28 -2.83232 -2.65917 0
M  V30 45957 H 4688.95 -4.5592 -0.702478 0
M  V30 45958 H 4687.19 -4.29743 -0.59192 0
M  V30 45959 H 4687.86 -5.15067 -1.98519 0
M  V30 45960 H 4690.34 -3.30272 -2.531 0
M  V30 45961 H 4689.21 -4.07236 -3.68035 0
M  V30 45962 H 4689.47 -2.33682 -3.75293 0
M  V30 45963 N 4688.53 0.613463 -1.4517 0
M  V30 45964 C 4689.76 1.39941 -1.52395 0
M  V30 45965 C 4690.18 1.88166 -0.154597 0
M  V30 45966 O 4689.53 1.61875 0.842786 0
M  V30 45967 C 4689.58 2.60786 -2.50346 0
M  V30 45968 O 4689.31 2.14566 -3.81959 0
M  V30 45969 C 4690.81 3.53714 -2.67211 0
M  V30 45970 H 4688.03 0.428574 -0.516299 0
M  V30 45971 H 4690.57 0.748686 -1.90302 0
M  V30 45972 H 4688.73 3.21912 -2.15526 0
M  V30 45973 H 4689.14 2.9304 -4.35004 0
M  V30 45974 H 4690.61 4.35067 -3.39737 0
M  V30 45975 H 4691.09 4.03674 -1.73043 0
M  V30 45976 H 4691.7 2.98445 -3.03003 0
M  V30 45977 N 4690.01 1.32363 0.855449 0
M  V30 45978 C 4691.42 1.20565 1.42551 0
M  V30 45979 C 4691.77 -0.182141 1.95353 0
M  V30 45980 O 4690.9 -1.08082 1.87476 0
M  V30 45981 C 4691.49 2.18269 2.59122 0
M  V30 45982 C 4690.05 2.10362 3.1213 0
M  V30 45983 C 4689.2 2.0668 1.84874 0
M  V30 45984 H 4692.15 1.44202 0.662676 0
M  V30 45985 H 4692.17 1.78076 3.36258 0
M  V30 45986 H 4691.68 3.19265 2.20661 0
M  V30 45987 H 4689.78 1.12611 3.55175 0
M  V30 45988 H 4689.9 3.00148 3.73428 0
M  V30 45989 H 4688.26 1.51908 2.04441 0
M  V30 45990 H 4689.04 3.09457 1.48632 0
M  V30 45991 N 4691.49 -1.07162 1.1556 0
M  V30 45992 C 4692.72 -1.83511 0.955583 0
M  V30 45993 C 4693.13 -1.82164 -0.496146 0
M  V30 45994 O 4692.49 -1.23446 -1.34415 0
M  V30 45995 C 4692.54 -3.30509 1.46444 0
M  V30 45996 O 4692.26 -3.31927 2.8593 0
M  V30 45997 C 4693.76 -4.2362 1.30618 0
M  V30 45998 H 4690.98 -0.578914 0.339264 0
M  V30 45999 H 4693.53 -1.3526 1.53379 0
M  V30 46000 H 4691.68 -3.76103 0.928716 0
M  V30 46001 H 4692.1 -4.23783 3.09044 0
M  V30 46002 H 4693.57 -5.24825 1.71065 0
M  V30 46003 H 4694.05 -4.38485 0.250596 0
M  V30 46004 H 4694.65 -3.83864 1.83108 0
M  V30 46005 N 4692.97 -0.9527 -1.25544 0
M  V30 46006 C 4694.38 -0.647454 -1.75114 0
M  V30 46007 C 4694.73 0.837211 -1.77441 0
M  V30 46008 O 4693.85 1.6552 -1.39399 0
M  V30 46009 C 4694.45 -1.16856 -3.1801 0
M  V30 46010 C 4693.01 -0.91351 -3.65146 0
M  V30 46011 C 4692.16 -1.31273 -2.44259 0
M  V30 46012 H 4695.11 -1.12972 -1.11458 0
M  V30 46013 H 4695.13 -0.527738 -3.76822 0
M  V30 46014 H 4694.64 -2.24913 -3.16284 0
M  V30 46015 H 4692.74 0.152185 -3.72289 0
M  V30 46016 H 4692.85 -1.54861 -4.53382 0
M  V30 46017 H 4691.22 -0.731113 -2.43981 0
M  V30 46018 H 4692 -2.40248 -2.45226 0
M  V30 46019 N 4694.45 1.40138 -0.721047 0
M  V30 46020 C 4695.67 2.05095 -0.272728 0
M  V30 46021 C 4696.09 1.54338 1.08744 0
M  V30 46022 O 4695.45 0.70227 1.68447 0
M  V30 46023 C 4695.5 3.60635 -0.249962 0
M  V30 46024 O 4695.22 4.0952 -1.55643 0
M  V30 46025 C 4696.72 4.42772 0.21624 0
M  V30 46026 H 4693.94 0.659893 -0.121582 0
M  V30 46027 H 4696.48 1.79446 -0.980786 0
M  V30 46028 H 4694.64 3.85234 0.409101 0
M  V30 46029 H 4695.05 5.03753 -1.46058 0
M  V30 46030 H 4696.53 5.51703 0.181018 0
M  V30 46031 H 4697 4.2076 1.25926 0
M  V30 46032 H 4697.61 4.23292 -0.412745 0
M  V30 46033 N 4695.92 0.467632 1.50502 0
M  V30 46034 C 4697.33 0.0116822 1.86696 0
M  V30 46035 C 4697.69 -1.39198 1.3827 0
M  V30 46036 O 4696.81 -2.03127 0.746204 0
M  V30 46037 C 4697.41 0.0144235 3.38797 0
M  V30 46038 C 4695.96 -0.386044 3.74415 0
M  V30 46039 C 4695.11 0.401383 2.7438 0
M  V30 46040 H 4698.06 0.682073 1.43295 0
M  V30 46041 H 4698.08 -0.788511 3.7224 0
M  V30 46042 H 4697.6 1.03615 3.74013 0
M  V30 46043 H 4695.7 -1.41225 3.44799 0
M  V30 46044 H 4695.81 -0.0897912 4.79016 0
M  V30 46045 H 4694.17 -0.144446 2.5429 0
M  V30 46046 H 4694.96 1.42255 3.12439 0
M  V30 46047 N 4697.4 -1.56324 0.200105 0
M  V30 46048 C 4698.63 -2.02106 -0.442803 0
M  V30 46049 C 4699.04 -1.0802 -1.54846 0
M  V30 46050 O 4698.4 -0.0859438 -1.82298 0
M  V30 46051 C 4698.45 -3.47552 -0.994461 0
M  V30 46052 O 4698.17 -4.38049 0.0670862 0
M  V30 46053 C 4699.67 -4.08876 -1.71275 0
M  V30 46054 H 4696.89 -0.661811 -0.110668 0
M  V30 46055 H 4699.44 -2.02132 0.310278 0
M  V30 46056 H 4697.59 -3.4821 -1.6979 0
M  V30 46057 H 4698.01 -5.23369 -0.344278 0
M  V30 46058 H 4699.48 -5.12482 -2.051 0
M  V30 46059 H 4699.96 -3.52625 -2.61825 0
M  V30 46060 H 4700.56 -4.12006 -1.05504 0
M  V30 46061 N 4698.88 0.0734624 -1.57429 0
M  V30 46062 C 4700.13 0.771407 -1.86799 0
M  V30 46063 C 4700.45 1.78198 -0.791866 0
M  V30 46064 O 4699.72 1.95075 0.17965 0
M  V30 46065 H 4698.3 0.287886 -0.689297 0
M  V30 46066 H 4700.96 0.0499476 -1.94836 0
M  V30 46067 H 4700.06 1.28864 -2.84254 0
M  V30 46068 N 4700.36 1.53782 0.344812 0
M  V30 46069 C 4701.59 1.74903 1.10528 0
M  V30 46070 C 4702 0.487598 1.82395 0
M  V30 46071 O 4701.36 -0.54068 1.74307 0
M  V30 46072 C 4701.41 2.9283 2.11974 0
M  V30 46073 O 4701.13 4.14094 1.4303 0
M  V30 46074 C 4702.63 3.25993 3.00406 0
M  V30 46075 H 4699.85 0.584437 0.329658 0
M  V30 46076 H 4702.39 2.00601 0.397404 0
M  V30 46077 H 4700.55 2.69466 2.78328 0
M  V30 46078 H 4700.96 4.8028 2.10788 0
M  V30 46079 H 4702.44 4.11861 3.67525 0
M  V30 46080 H 4702.91 2.42241 3.66355 0
M  V30 46081 H 4703.52 3.51357 2.39642 0
M  V30 46082 N 4701.84 -0.605756 1.45494 0
M  V30 46083 C 4702.77 -1.73025 1.50316 0
M  V30 46084 C 4703.78 -1.57967 0.393743 0
M  V30 46085 O 4704.97 -1.65814 0.660898 0
M  V30 46086 C 4702.07 -3.11044 1.34554 0
M  V30 46087 C 4701.24 -3.52325 2.59202 0
M  V30 46088 C 4700.3 -4.69315 2.3797 0
M  V30 46089 O 4699.33 -4.76339 3.11592 0
M  V30 46090 N 4700.53 -5.627 1.4265 0
M  V30 46091 H 4703.3 -1.69351 2.47265 0
M  V30 46092 H 4700.86 -0.79109 1.41256 0
M  V30 46093 H 4702.85 -3.87067 1.18158 0
M  V30 46094 H 4701.42 -3.09216 0.458731 0
M  V30 46095 H 4700.64 -2.66246 2.90701 0
M  V30 46096 H 4701.93 -3.76665 3.42054 0
M  V30 46097 H 4701.32 -5.59741 0.818955 0
M  V30 46098 H 4699.88 -6.38247 1.32225 0
M  V30 46099 N 4703.31 -1.32814 -0.848417 0
M  V30 46100 C 4704.54 -1.26745 -1.63534 0
M  V30 46101 C 4704.96 0.163418 -1.88091 0
M  V30 46102 O 4704.31 1.10252 -1.45433 0
M  V30 46103 C 4704.37 -2.03023 -2.99105 0
M  V30 46104 O 4704.09 -3.40528 -2.75631 0
M  V30 46105 C 4705.59 -2.04052 -3.93545 0
M  V30 46106 H 4702.81 -0.437042 -0.509151 0
M  V30 46107 H 4705.35 -1.75036 -1.05747 0
M  V30 46108 H 4703.51 -1.58439 -3.53519 0
M  V30 46109 H 4703.92 -3.79648 -3.61894 0
M  V30 46110 H 4705.39 -2.61895 -4.85917 0
M  V30 46111 H 4705.87 -1.02835 -4.26991 0
M  V30 46112 H 4706.48 -2.48613 -3.45068 0
M  V30 46113 N 4704.79 1.06547 -1.16127 0
M  V30 46114 C 4706.2 1.60765 -0.949289 0
M  V30 46115 C 4706.55 1.89524 0.507441 0
M  V30 46116 O 4705.68 1.66676 1.38015 0
M  V30 46117 C 4706.27 2.9208 -1.71681 0
M  V30 46118 C 4704.83 3.43009 -1.54989 0
M  V30 46119 C 4703.98 2.16941 -1.72719 0
M  V30 46120 H 4706.93 0.895308 -1.31034 0
M  V30 46121 H 4706.95 3.61376 -1.19111 0
M  V30 46122 H 4706.46 2.71117 -2.777 0
M  V30 46123 H 4704.57 3.69038 -0.514003 0
M  V30 46124 H 4704.68 4.18508 -2.33213 0
M  V30 46125 H 4703.04 2.27037 -1.15439 0
M  V30 46126 H 4703.83 1.98464 -2.8012 0
M  V30 46127 N 4706.27 0.959345 1.25037 0
M  V30 46128 C 4707.5 0.634019 1.96946 0
M  V30 46129 C 4707.91 -0.794856 1.71253 0
M  V30 46130 O 4707.27 -1.53228 0.991341 0
M  V30 46131 C 4707.32 0.888928 3.504 0
M  V30 46132 O 4707.04 2.26162 3.7521 0
M  V30 46133 C 4708.54 0.576637 4.39534 0
M  V30 46134 H 4705.76 0.237285 0.627644 0
M  V30 46135 H 4708.31 1.285 1.59085 0
M  V30 46136 H 4706.46 0.284281 3.86356 0
M  V30 46137 H 4706.88 2.33531 4.69642 0
M  V30 46138 H 4708.35 0.805506 5.46091 0
M  V30 46139 H 4708.83 -0.488921 4.3647 0
M  V30 46140 H 4709.43 1.16081 4.09152 0
M  V30 46141 N 4707.75 -1.39754 0.728469 0
M  V30 46142 C 4708.98 -2.04947 0.283601 0
M  V30 46143 C 4709.39 -1.54912 -1.07924 0
M  V30 46144 O 4708.75 -0.711194 -1.68072 0
M  V30 46145 C 4708.8 -3.60497 0.269084 0
M  V30 46146 O 4708.52 -4.08689 1.57813 0
M  V30 46147 C 4710.02 -4.42881 -0.192756 0
M  V30 46148 H 4707.24 -0.659239 0.125079 0
M  V30 46149 H 4709.79 -1.78923 0.990288 0
M  V30 46150 H 4707.94 -3.85445 -0.388666 0
M  V30 46151 H 4708.35 -5.02972 1.48727 0
M  V30 46152 H 4709.83 -5.51791 -0.151758 0
M  V30 46153 H 4710.31 -4.21422 -1.23693 0
M  V30 46154 H 4710.91 -4.23068 0.435187 0
M  V30 46155 N 4709.23 -0.475607 -1.50252 0
M  V30 46156 C 4710.45 0.0753766 -2.06763 0
M  V30 46157 C 4710.87 1.33106 -1.33896 0
M  V30 46158 O 4710.23 1.77845 -0.409583 0
M  V30 46159 C 4710.28 0.358882 -3.59714 0
M  V30 46160 O 4710 -0.847002 -4.29834 0
M  V30 46161 C 4711.5 0.956332 -4.32862 0
M  V30 46162 H 4708.72 -0.00909883 -0.670938 0
M  V30 46163 H 4711.26 -0.665686 -1.93362 0
M  V30 46164 H 4709.42 1.04988 -3.72902 0
M  V30 46165 H 4709.83 -0.594346 -5.21122 0
M  V30 46166 H 4711.31 1.10444 -5.40838 0
M  V30 46167 H 4711.78 1.94761 -3.93655 0
M  V30 46168 H 4712.39 0.303574 -4.24215 0
M  V30 46169 N 4710.7 1.56216 -0.208392 0
M  V30 46170 C 4712.12 1.84244 0.301839 0
M  V30 46171 C 4712.47 1.12945 1.6043 0
M  V30 46172 O 4711.59 0.394685 2.1277 0
M  V30 46173 C 4712.19 3.34233 0.554425 0
M  V30 46174 C 4710.75 3.62624 1.00899 0
M  V30 46175 C 4709.89 2.77224 0.0648356 0
M  V30 46176 H 4712.84 1.5271 -0.431887 0
M  V30 46177 H 4712.86 3.53725 1.4021 0
M  V30 46178 H 4712.38 3.86098 -0.393697 0
M  V30 46179 H 4710.48 3.16204 1.97093 0
M  V30 46180 H 4710.59 4.70713 0.892508 0
M  V30 46181 H 4708.95 2.48258 0.569203 0
M  V30 46182 H 4709.74 3.31883 -0.877968 0
M  V30 46183 N 4712.18 -0.0651125 1.57465 0
M  V30 46184 C 4713.43 -0.76185 1.86758 0
M  V30 46185 C 4713.74 -1.78403 0.801988 0
M  V30 46186 O 4714.95 -2.53081 0.982974 0
M  V30 46187 C 4713.41 -1.40591 3.31304 0
M  V30 46188 C 4713.01 -0.421958 4.46008 0
M  V30 46189 C 4714.76 -2.08463 3.69789 0
M  V30 46190 C 4712.67 -1.07232 5.81597 0
M  V30 46191 H 4711.6 -0.288284 0.696713 0
M  V30 46192 H 4714.25 -0.0152795 1.83494 0
M  V30 46193 H 4712.63 -2.20097 3.29201 0
M  V30 46194 H 4713.8 0.343774 4.59516 0
M  V30 46195 H 4712.12 0.152673 4.1612 0
M  V30 46196 H 4714.71 -2.57909 4.68388 0
M  V30 46197 H 4715.06 -2.88701 2.99929 0
M  V30 46198 H 4715.59 -1.35779 3.7391 0
M  V30 46199 H 4712.33 -0.310112 6.54766 0
M  V30 46200 H 4711.85 -1.80875 5.71878 0
M  V30 46201 H 4713.53 -1.59021 6.27153 0
M  V30 46202 N 4713.66 -1.53962 -0.336652 0
M  V30 46203 C 4714.89 -1.75487 -1.09599 0
M  V30 46204 C 4715.3 -0.497264 -1.82134 0
M  V30 46205 O 4714.66 0.531428 -1.74591 0
M  V30 46206 C 4714.71 -2.9395 -2.10418 0
M  V30 46207 O 4714.43 -4.14847 -1.40831 0
M  V30 46208 C 4715.93 -3.27581 -2.98673 0
M  V30 46209 H 4713.15 -0.586177 -0.326554 0
M  V30 46210 H 4715.7 -2.00809 -0.38676 0
M  V30 46211 H 4713.85 -2.70939 -2.76895 0
M  V30 46212 H 4714.27 -4.81391 -2.08238 0
M  V30 46213 H 4715.74 -4.13804 -3.65336 0
M  V30 46214 H 4716.22 -2.44181 -3.65065 0
M  V30 46215 H 4716.82 -3.52623 -2.37775 0
M  V30 46216 N 4715.14 0.598031 -1.45813 0
M  V30 46217 C 4716.37 1.38316 -1.53871 0
M  V30 46218 C 4716.78 1.87991 -0.174546 0
M  V30 46219 O 4716.14 1.62759 0.82557 0
M  V30 46220 C 4716.19 2.58116 -2.53098 0
M  V30 46221 O 4715.91 2.10503 -3.84214 0
M  V30 46222 C 4717.41 3.5086 -2.70947 0
M  V30 46223 H 4714.63 0.423074 -0.520816 0
M  V30 46224 H 4717.18 0.72846 -1.91086 0
M  V30 46225 H 4715.33 3.19608 -2.18929 0
M  V30 46226 H 4715.74 2.88409 -4.38087 0
M  V30 46227 H 4717.22 4.31439 -3.44332 0
M  V30 46228 H 4717.7 4.01816 -1.77315 0
M  V30 46229 H 4718.3 2.95215 -3.06151 0
M  V30 46230 N 4716.62 1.33262 0.841362 0
M  V30 46231 C 4717.85 1.27611 1.62859 0
M  V30 46232 C 4718.26 -0.153441 1.88175 0
M  V30 46233 O 4717.62 -1.0948 1.46015 0
M  V30 46234 C 4717.67 2.04607 2.98024 0
M  V30 46235 O 4717.39 3.41984 2.73821 0
M  V30 46236 C 4718.89 2.06136 3.92457 0
M  V30 46237 H 4716.11 0.439736 0.506827 0
M  V30 46238 H 4718.65 1.75595 1.04818 0
M  V30 46239 H 4716.81 1.60311 3.52674 0
M  V30 46240 H 4717.22 3.81562 3.59876 0
M  V30 46241 H 4718.7 2.64468 4.84521 0
M  V30 46242 H 4719.17 1.05098 4.2644 0
M  V30 46243 H 4719.78 2.50439 3.43745 0
M  V30 46244 N 4718.1 -1.0593 1.1669 0
M  V30 46245 C 4719.32 -1.82487 0.974993 0
M  V30 46246 C 4719.74 -1.8268 -0.476797 0
M  V30 46247 O 4719.1 -1.24864 -1.33098 0
M  V30 46248 C 4719.15 -3.28938 1.49941 0
M  V30 46249 O 4718.87 -3.28876 2.89434 0
M  V30 46250 C 4720.37 -4.22211 1.35104 0
M  V30 46251 H 4717.59 -0.575283 0.345385 0
M  V30 46252 H 4720.13 -1.33626 1.54805 0
M  V30 46253 H 4718.29 -3.75097 0.968555 0
M  V30 46254 H 4718.7 -4.20481 3.13521 0
M  V30 46255 H 4720.18 -5.22981 1.76622 0
M  V30 46256 H 4720.65 -4.38194 0.297089 0
M  V30 46257 H 4721.26 -3.819 1.87169 0
M  V30 46258 N 4719.57 -0.965962 -1.24527 0
M  V30 46259 C 4720.8 -0.644454 -1.96607 0
M  V30 46260 C 4721.22 0.785763 -1.71672 0
M  V30 46261 O 4720.57 1.527 -0.999453 0
M  V30 46262 C 4720.62 -0.907498 -3.49924 0
M  V30 46263 O 4720.35 -2.28149 -3.74005 0
M  V30 46264 C 4721.85 -0.599938 -4.39222 0
M  V30 46265 H 4719.07 -0.24061 -0.626377 0
M  V30 46266 H 4721.61 -1.29342 -1.58401 0
M  V30 46267 H 4719.77 -0.304767 -3.86199 0
M  V30 46268 H 4720.18 -2.36018 -4.68397 0
M  V30 46269 H 4721.65 -0.834455 -5.45656 0
M  V30 46270 H 4722.13 0.465768 -4.36723 0
M  V30 46271 H 4722.74 -1.1825 -4.0853 0
M  V30 46272 N 4721.05 1.39365 -0.73587 0
M  V30 46273 C 4722.3 2.00793 -0.284615 0
M  V30 46274 C 4722.63 1.58259 1.12551 0
M  V30 46275 O 4721.91 0.811881 1.76745 0
M  V30 46276 C 4722.19 3.58009 -0.387463 0
M  V30 46277 C 4722.04 4.10559 -1.83742 0
M  V30 46278 C 4723.36 4.39501 0.229595 0
M  V30 46279 H 4720.48 0.729498 -0.104892 0
M  V30 46280 H 4723.12 1.6556 -0.932188 0
M  V30 46281 H 4721.27 3.88154 0.163869 0
M  V30 46282 H 4722.94 3.91131 -2.4457 0
M  V30 46283 H 4721.19 3.64087 -2.35845 0
M  V30 46284 H 4721.86 5.19696 -1.86065 0
M  V30 46285 H 4724.33 4.15405 -0.240403 0
M  V30 46286 H 4723.21 5.48752 0.127292 0
M  V30 46287 H 4723.47 4.22067 1.31575 0
M  V30 46288 N 4722.53 0.483569 1.49998 0
M  V30 46289 C 4723.76 -0.0644104 2.068 0
M  V30 46290 C 4724.17 -1.32394 1.346 0
M  V30 46291 O 4723.53 -1.77625 0.419008 0
M  V30 46292 C 4723.58 -0.3398 3.59899 0
M  V30 46293 O 4723.3 0.869786 4.29379 0
M  V30 46294 C 4724.8 -0.933362 4.33363 0
M  V30 46295 H 4722.02 0.0126569 0.670881 0
M  V30 46296 H 4724.57 0.675931 1.93006 0
M  V30 46297 H 4722.72 -1.03009 3.73454 0
M  V30 46298 H 4723.14 0.621974 5.20799 0
M  V30 46299 H 4724.61 -1.07574 5.41416 0
M  V30 46300 H 4725.09 -1.92671 3.94683 0
M  V30 46301 H 4725.69 -0.281072 4.2437 0
M  V30 46302 N 4724.01 -1.56103 0.216674 0
M  V30 46303 C 4725.42 -1.84401 -0.292064 0
M  V30 46304 C 4725.77 -1.13794 -1.59829 0
M  V30 46305 O 4724.89 -0.405963 -2.12558 0
M  V30 46306 C 4725.49 -3.34522 -0.536692 0
M  V30 46307 C 4724.05 -3.63154 -0.989749 0
M  V30 46308 C 4723.2 -2.77255 -0.0501328 0
M  V30 46309 H 4726.15 -1.52479 0.43998 0
M  V30 46310 H 4726.17 -3.54464 -1.38332 0
M  V30 46311 H 4725.68 -3.85884 0.414167 0
M  V30 46312 H 4723.78 -3.17245 -1.95414 0
M  V30 46313 H 4723.89 -4.7118 -0.867533 0
M  V30 46314 H 4722.26 -2.48557 -0.556029 0
M  V30 46315 H 4723.04 -3.31413 0.895556 0
M  V30 46316 N 4725.49 0.0567608 -1.57498 0
M  V30 46317 C 4726.71 0.765558 -1.92216 0
M  V30 46318 C 4727.13 1.7035 -0.814021 0
M  V30 46319 O 4726.49 1.81269 0.211637 0
M  V30 46320 C 4726.54 1.54639 -3.26755 0
M  V30 46321 O 4726.26 0.646126 -4.33309 0
M  V30 46322 C 4727.76 2.35484 -3.75583 0
M  V30 46323 H 4724.98 0.216813 -0.635006 0
M  V30 46324 H 4727.52 0.0225427 -2.04488 0
M  V30 46325 H 4725.68 2.24154 -3.15965 0
M  V30 46326 H 4726.09 1.19075 -5.10805 0
M  V30 46327 H 4727.57 2.85706 -4.72309 0
M  V30 46328 H 4728.04 3.15681 -3.05355 0
M  V30 46329 H 4728.65 1.71097 -3.89366 0
M  V30 46330 N 4726.96 1.54139 0.328482 0
M  V30 46331 C 4728.37 1.63398 0.903215 0
M  V30 46332 C 4728.73 0.524895 1.89048 0
M  V30 46333 O 4727.85 -0.342993 2.13664 0
M  V30 46334 C 4728.45 2.96186 1.64497 0
M  V30 46335 C 4727 3.07658 2.1685 0
M  V30 46336 C 4726.15 2.58937 0.992325 0
M  V30 46337 H 4729.1 1.58344 0.106198 0
M  V30 46338 H 4729.12 2.8607 2.50886 0
M  V30 46339 H 4728.64 3.76887 0.92617 0
M  V30 46340 H 4726.74 2.31621 2.9186 0
M  V30 46341 H 4726.85 4.13379 2.42187 0
M  V30 46342 H 4725.21 2.14711 1.37008 0
M  V30 46343 H 4726 3.4209 0.287921 0
M  V30 46344 N 4728.44 -0.59029 1.46128 0
M  V30 46345 C 4729.67 -1.37498 1.54602 0
M  V30 46346 C 4730.08 -1.87896 0.184513 0
M  V30 46347 O 4729.44 -1.63195 -0.816927 0
M  V30 46348 C 4729.49 -2.5677 2.54463 0
M  V30 46349 O 4729.21 -2.08462 3.85325 0
M  V30 46350 C 4730.71 -3.49418 2.72804 0
M  V30 46351 H 4727.93 -0.420306 0.523052 0
M  V30 46352 H 4730.48 -0.718316 1.91469 0
M  V30 46353 H 4728.63 -3.18442 2.2062 0
M  V30 46354 H 4729.05 -2.86082 4.3961 0
M  V30 46355 H 4730.52 -4.29607 3.46615 0
M  V30 46356 H 4731 -4.0087 1.79443 0
M  V30 46357 H 4731.6 -2.93587 3.07712 0
M  V30 46358 N 4729.92 -1.33707 -0.834283 0
M  V30 46359 C 4731.33 -1.22818 -1.40615 0
M  V30 46360 C 4731.68 0.151039 -1.95618 0
M  V30 46361 O 4730.81 1.05086 -1.89172 0
M  V30 46362 C 4731.4 -2.22364 -2.55616 0
M  V30 46363 C 4729.96 -2.15301 -3.08744 0
M  V30 46364 C 4729.11 -2.09595 -1.81563 0
M  V30 46365 H 4732.06 -1.45238 -0.639651 0
M  V30 46366 H 4732.08 -1.83403 -3.33382 0
M  V30 46367 H 4731.59 -3.22735 -2.15554 0
M  V30 46368 H 4729.69 -1.18247 -3.53339 0
M  V30 46369 H 4729.81 -3.06051 -3.68605 0
M  V30 46370 H 4728.17 -1.55141 -2.01998 0
M  V30 46371 H 4728.95 -3.11782 -1.4369 0
M  V30 46372 N 4731.4 1.0531 -1.1725 0
M  V30 46373 C 4732.63 1.81967 -0.984657 0
M  V30 46374 C 4733.04 1.82931 0.467102 0
M  V30 46375 O 4732.4 1.25569 1.32434 0
M  V30 46376 C 4732.45 3.28138 -1.51683 0
M  V30 46377 O 4732.17 3.27336 -2.91174 0
M  V30 46378 C 4733.67 4.21488 -1.37341 0
M  V30 46379 H 4730.89 0.573443 -0.348431 0
M  V30 46380 H 4733.44 1.32803 -1.55511 0
M  V30 46381 H 4731.59 3.74578 -0.988433 0
M  V30 46382 H 4732 4.18813 -3.15747 0
M  V30 46383 H 4733.48 5.22037 -1.79393 0
M  V30 46384 H 4733.96 4.3803 -0.320323 0
M  V30 46385 H 4734.56 3.80902 -1.89191 0
M  V30 46386 N 4732.88 0.972553 1.24013 0
M  V30 46387 C 4734.12 0.635843 1.91837 0
M  V30 46388 C 4734.45 -0.83225 1.76348 0
M  V30 46389 O 4733.72 -1.59456 1.13801 0
M  V30 46390 H 4732.3 0.232182 0.71 0
M  V30 46391 H 4734.96 1.23467 1.50804 0
M  V30 46392 H 4734.05 0.88065 2.99418 0
M  V30 46393 N 4734.35 -1.38973 0.74325 0
M  V30 46394 C 4735.58 -2.04635 0.305322 0
M  V30 46395 C 4736 -1.56048 -1.06275 0
M  V30 46396 O 4735.35 -0.72898 -1.67308 0
M  V30 46397 C 4735.41 -3.60191 0.307304 0
M  V30 46398 O 4735.13 -4.06992 1.62138 0
M  V30 46399 C 4736.63 -4.4306 -0.145772 0
M  V30 46400 H 4733.85 -0.657875 0.132064 0
M  V30 46401 H 4736.39 -1.77863 1.00921 0
M  V30 46402 H 4734.55 -3.85836 -0.347762 0
M  V30 46403 H 4734.96 -5.01366 1.54053 0
M  V30 46404 H 4736.43 -5.51921 -0.0932243 0
M  V30 46405 H 4736.91 -4.2271 -1.19217 0
M  V30 46406 H 4737.52 -4.22582 0.480035 0
M  V30 46407 N 4735.83 -0.491517 -1.49739 0
M  V30 46408 C 4736.76 0.32853 -2.26833 0
M  V30 46409 C 4737.78 0.939066 -1.32986 0
M  V30 46410 O 4738.97 0.824011 -1.58342 0
M  V30 46411 C 4736.07 1.47664 -3.05039 0
M  V30 46412 C 4735.24 0.975155 -4.26391 0
M  V30 46413 C 4734.3 1.99974 -4.86721 0
M  V30 46414 O 4733.32 1.5721 -5.47059 0
M  V30 46415 N 4734.53 3.32946 -4.75529 0
M  V30 46416 H 4737.29 -0.332482 -2.9785 0
M  V30 46417 H 4734.85 -0.323497 -1.58635 0
M  V30 46418 H 4736.84 2.15942 -3.42274 0
M  V30 46419 H 4735.41 2.04197 -2.3669 0
M  V30 46420 H 4734.63 0.117584 -3.94025 0
M  V30 46421 H 4735.92 0.618354 -5.05029 0
M  V30 46422 H 4735.32 3.70384 -4.27589 0
M  V30 46423 H 4733.88 3.96964 -5.16975 0
M  V30 46424 N 4737.31 1.55986 -0.224949 0
M  V30 46425 C 4738.54 2.02785 0.410594 0
M  V30 46426 C 4738.95 1.10469 1.53108 0
M  V30 46427 O 4738.31 0.114935 1.82138 0
M  V30 46428 C 4738.36 3.49091 0.939043 0
M  V30 46429 O 4738.08 4.37886 -0.136767 0
M  V30 46430 C 4739.58 4.11549 1.64749 0
M  V30 46431 H 4736.8 0.663488 0.100125 0
M  V30 46432 H 4739.35 2.01613 -0.342397 0
M  V30 46433 H 4737.5 3.50867 1.64229 0
M  V30 46434 H 4737.92 5.2385 0.260971 0
M  V30 46435 H 4739.39 5.1568 1.96921 0
M  V30 46436 H 4739.87 3.56745 2.56182 0
M  V30 46437 H 4740.47 4.13632 0.989357 0
M  V30 46438 N 4738.79 -0.0484076 1.57526 0
M  V30 46439 C 4740.2 -0.597424 1.76883 0
M  V30 46440 C 4740.55 -1.76661 0.853537 0
M  V30 46441 O 4739.68 -2.16356 0.0434416 0
M  V30 46442 C 4740.27 -1.09055 3.20769 0
M  V30 46443 C 4738.83 -1.58523 3.4139 0
M  V30 46444 C 4737.98 -0.514772 2.7248 0
M  V30 46445 H 4740.93 0.177814 1.57701 0
M  V30 46446 H 4740.95 -1.95864 3.26217 0
M  V30 46447 H 4740.46 -0.239384 3.87361 0
M  V30 46448 H 4738.56 -2.45888 2.79946 0
M  V30 46449 H 4738.67 -1.64606 4.49935 0
M  V30 46450 H 4737.04 -0.965324 2.35698 0
M  V30 46451 H 4737.82 0.326601 3.41743 0
M  V30 46452 N 4740.27 -1.54311 -0.320303 0
M  V30 46453 C 4741.49 -1.76639 -1.07732 0
M  V30 46454 C 4741.91 -0.516554 -1.81596 0
M  V30 46455 O 4741.27 0.512881 -1.75145 0
M  V30 46456 C 4741.32 -2.96165 -2.07288 0
M  V30 46457 O 4741.04 -4.16317 -1.36424 0
M  V30 46458 C 4742.54 -3.3073 -2.95182 0
M  V30 46459 H 4739.76 -0.589608 -0.320318 0
M  V30 46460 H 4742.3 -2.01208 -0.365439 0
M  V30 46461 H 4740.46 -2.7386 -2.74006 0
M  V30 46462 H 4740.87 -4.83572 -2.03121 0
M  V30 46463 H 4742.35 -4.17656 -3.60926 0
M  V30 46464 H 4742.82 -2.48039 -3.62455 0
M  V30 46465 H 4743.43 -3.55125 -2.34021 0
M  V30 46466 N 4741.74 0.582532 -1.46439 0
M  V30 46467 C 4742.97 1.36677 -1.55329 0
M  V30 46468 C 4743.39 1.87796 -0.194475 0
M  V30 46469 O 4742.74 1.63626 0.808261 0
M  V30 46470 C 4742.8 2.55417 -2.55821 0
M  V30 46471 O 4742.52 2.06416 -3.86425 0
M  V30 46472 C 4744.02 3.47966 -2.74653 0
M  V30 46473 H 4741.24 0.417527 -0.525274 0
M  V30 46474 H 4743.78 0.708152 -1.91847 0
M  V30 46475 H 4741.94 3.17268 -2.22306 0
M  V30 46476 H 4742.35 2.83747 -4.41121 0
M  V30 46477 H 4743.82 4.27763 -3.48889 0
M  V30 46478 H 4744.3 3.99913 -1.81567 0
M  V30 46479 H 4744.91 2.91951 -3.09265 0
M  V30 46480 N 4743.22 1.34147 0.82718 0
M  V30 46481 C 4744.45 1.29331 1.61497 0
M  V30 46482 C 4744.87 -0.133474 1.88328 0
M  V30 46483 O 4744.22 -1.07925 1.47168 0
M  V30 46484 C 4744.27 2.07756 2.95837 0
M  V30 46485 O 4743.99 3.4487 2.70179 0
M  V30 46486 C 4745.5 2.10287 3.90249 0
M  V30 46487 H 4742.72 0.445087 0.502134 0
M  V30 46488 H 4745.26 1.76697 1.02949 0
M  V30 46489 H 4743.41 1.64043 3.50954 0
M  V30 46490 H 4743.83 3.85358 3.55809 0
M  V30 46491 H 4745.3 2.69592 4.81689 0
M  V30 46492 H 4745.78 1.09615 4.25301 0
M  V30 46493 H 4746.39 2.54071 3.41069 0
M  V30 46494 N 4744.7 -1.04686 1.17807 0
M  V30 46495 C 4746.11 -1.59234 0.974745 0
M  V30 46496 C 4746.46 -1.90308 -0.477225 0
M  V30 46497 O 4745.59 -1.6885 -1.35346 0
M  V30 46498 C 4746.18 -2.89312 1.76306 0
M  V30 46499 C 4744.74 -3.405 1.60426 0
M  V30 46500 C 4743.89 -2.14166 1.76148 0
M  V30 46501 H 4746.84 -0.874348 1.32442 0
M  V30 46502 H 4746.86 -3.59435 1.24846 0
M  V30 46503 H 4746.37 -2.66665 2.81978 0
M  V30 46504 H 4744.47 -3.68173 0.572648 0
M  V30 46505 H 4744.59 -4.14744 2.39841 0
M  V30 46506 H 4742.95 -2.25172 1.19036 0
M  V30 46507 H 4743.73 -1.93982 2.83242 0
M  V30 46508 N 4746.18 -0.979116 -1.23495 0
M  V30 46509 C 4747.43 -0.642818 -1.91182 0
M  V30 46510 C 4747.74 0.827191 -1.77248 0
M  V30 46511 O 4748.95 1.2745 -2.39727 0
M  V30 46512 C 4747.4 -1.09913 -3.42706 0
M  V30 46513 C 4747.01 -2.59339 -3.65304 0
M  V30 46514 C 4748.76 -0.836517 -4.16176 0
M  V30 46515 C 4746.66 -2.98645 -5.10456 0
M  V30 46516 H 4745.59 -0.236723 -0.715876 0
M  V30 46517 H 4748.24 -1.18685 -1.39951 0
M  V30 46518 H 4746.63 -0.483328 -3.93039 0
M  V30 46519 H 4747.8 -3.26147 -3.25522 0
M  V30 46520 H 4746.11 -2.83334 -3.05141 0
M  V30 46521 H 4748.71 -1.10605 -5.23135 0
M  V30 46522 H 4749.05 0.227363 -4.15679 0
M  V30 46523 H 4749.59 -1.41384 -3.71827 0
M  V30 46524 H 4746.33 -4.04151 -5.16084 0
M  V30 46525 H 4745.85 -2.3653 -5.51193 0
M  V30 46526 H 4747.53 -2.89179 -5.78778 0
M  V30 46527 N 4747.66 1.38577 -0.75061 0
M  V30 46528 C 4748.89 2.0447 -0.31617 0
M  V30 46529 C 4749.3 1.56609 1.05446 0
M  V30 46530 O 4748.66 0.737842 1.6692 0
M  V30 46531 C 4748.71 3.60023 -0.326401 0
M  V30 46532 O 4748.43 4.06127 -1.64294 0
M  V30 46533 C 4749.93 4.43131 0.122273 0
M  V30 46534 H 4747.15 0.657166 -0.135551 0
M  V30 46535 H 4749.69 1.77325 -1.01863 0
M  V30 46536 H 4747.85 3.86015 0.327296 0
M  V30 46537 H 4748.26 5.00542 -1.5671 0
M  V30 46538 H 4749.74 5.51963 0.0639533 0
M  V30 46539 H 4750.21 4.23337 1.16973 0
M  V30 46540 H 4750.82 4.22322 -0.502439 0
M  V30 46541 N 4749.14 0.499451 1.49477 0
M  V30 46542 C 4750.36 -0.0424729 2.06856 0
M  V30 46543 C 4750.78 -1.30959 1.35997 0
M  V30 46544 O 4750.14 -1.7717 0.437824 0
M  V30 46545 C 4750.19 -0.301609 3.6024 0
M  V30 46546 O 4749.91 0.915278 4.28432 0
M  V30 46547 C 4751.41 -0.887346 4.34328 0
M  V30 46548 H 4748.63 0.0197717 0.670709 0
M  V30 46549 H 4751.17 0.696364 1.92278 0
M  V30 46550 H 4749.33 -0.990424 3.74526 0
M  V30 46551 H 4749.74 0.677176 5.2011 0
M  V30 46552 H 4751.22 -1.01826 5.42527 0
M  V30 46553 H 4751.69 -1.88474 3.96704 0
M  V30 46554 H 4752.3 -0.236046 4.24644 0
M  V30 46555 N 4750.61 -1.55865 0.233218 0
M  V30 46556 C 4751.84 -2.03 -0.399834 0
M  V30 46557 C 4752.26 -1.1128 -1.5252 0
M  V30 46558 O 4751.61 -0.124592 -1.82074 0
M  V30 46559 C 4751.66 -3.49584 -0.920516 0
M  V30 46560 O 4751.39 -4.37808 0.159988 0
M  V30 46561 C 4752.89 -4.12417 -1.62564 0
M  V30 46562 H 4750.11 -0.664009 -0.0966047 0
M  V30 46563 H 4752.65 -2.01429 0.353084 0
M  V30 46564 H 4750.81 -3.51733 -1.62366 0
M  V30 46565 H 4751.22 -5.23981 -0.233186 0
M  V30 46566 H 4752.69 -5.16717 -1.94183 0
M  V30 46567 H 4753.17 -3.58099 -2.54287 0
M  V30 46568 H 4753.78 -4.14151 -0.967407 0
M  V30 46569 N 4752.09 0.0400529 -1.57549 0
M  V30 46570 C 4753.32 0.745128 -1.93017 0
M  V30 46571 C 4753.73 1.69477 -0.832043 0
M  V30 46572 O 4753.09 1.81483 0.1924 0
M  V30 46573 C 4753.14 1.51164 -3.28377 0
M  V30 46574 O 4752.86 0.600131 -4.3397 0
M  V30 46575 C 4754.36 2.31487 -3.78059 0
M  V30 46576 H 4751.58 0.210066 -0.63727 0
M  V30 46577 H 4754.13 0.000852797 -2.045 0
M  V30 46578 H 4752.28 2.2079 -3.18325 0
M  V30 46579 H 4752.7 1.13651 -5.12039 0
M  V30 46580 H 4754.17 2.8068 -4.75313 0
M  V30 46581 H 4754.65 3.12425 -3.08686 0
M  V30 46582 H 4755.25 1.66957 -3.91159 0
M  V30 46583 N 4753.57 1.54478 0.312115 0
M  V30 46584 C 4754.8 1.77208 1.06793 0
M  V30 46585 C 4755.21 0.526177 1.8132 0
M  V30 46586 O 4754.57 -0.503585 1.75415 0
M  V30 46587 C 4754.62 2.9726 2.05715 0
M  V30 46588 O 4754.34 4.17035 1.34214 0
M  V30 46589 C 4755.84 3.32291 2.93424 0
M  V30 46590 H 4753.06 0.591298 0.317187 0
M  V30 46591 H 4755.61 2.01399 0.354764 0
M  V30 46592 H 4753.76 2.7531 2.7255 0
M  V30 46593 H 4754.18 4.84643 2.00553 0
M  V30 46594 H 4755.65 4.19564 3.58706 0
M  V30 46595 H 4756.13 2.49958 3.61134 0
M  V30 46596 H 4756.73 3.56361 2.32135 0
M  V30 46597 N 4755.05 -0.574758 1.46746 0
M  V30 46598 C 4756.29 -1.33464 1.52693 0
M  V30 46599 C 4756.63 -1.93352 0.181297 0
M  V30 46600 O 4755.9 -1.76915 -0.808175 0
M  V30 46601 C 4756.18 -2.45802 2.63161 0
M  V30 46602 C 4756.04 -1.90897 4.07282 0
M  V30 46603 C 4757.36 -3.47813 2.69656 0
M  V30 46604 H 4754.48 -0.483916 0.555873 0
M  V30 46605 H 4757.12 -0.644905 1.7872 0
M  V30 46606 H 4755.27 -3.04637 2.41098 0
M  V30 46607 H 4756.94 -1.36458 4.40655 0
M  V30 46608 H 4755.18 -1.21676 4.16386 0
M  V30 46609 H 4755.85 -2.72025 4.80319 0
M  V30 46610 H 4758.33 -2.9887 2.8951 0
M  V30 46611 H 4757.21 -4.23863 3.48756 0
M  V30 46612 H 4757.47 -4.05549 1.76019 0
M  V30 46613 N 4756.53 -1.34584 -0.820054 0
M  V30 46614 C 4757.75 -1.30185 -1.60808 0
M  V30 46615 C 4758.17 0.123485 -1.88396 0
M  V30 46616 O 4757.53 1.07143 -1.47739 0
M  V30 46617 C 4757.58 -2.09322 -2.94731 0
M  V30 46618 O 4757.3 -3.46297 -2.68346 0
M  V30 46619 C 4758.8 -2.12354 -3.89128 0
M  V30 46620 H 4756.02 -0.447744 -0.499767 0
M  V30 46621 H 4758.56 -1.7724 -1.02011 0
M  V30 46622 H 4756.72 -1.65902 -3.50079 0
M  V30 46623 H 4757.13 -3.87239 -3.5376 0
M  V30 46624 H 4758.61 -2.72143 -4.80252 0
M  V30 46625 H 4759.08 -1.11869 -4.24714 0
M  V30 46626 H 4759.69 -2.55876 -3.39717 0
M  V30 46627 N 4758 1.0406 -1.18361 0
M  V30 46628 C 4759.41 1.58715 -0.983176 0
M  V30 46629 C 4759.77 1.90558 0.467126 0
M  V30 46630 O 4758.89 1.69566 1.34448 0
M  V30 46631 C 4759.49 2.88373 -1.77838 0
M  V30 46632 C 4758.04 3.39645 -1.6223 0
M  V30 46633 C 4757.19 2.13229 -1.77282 0
M  V30 46634 H 4760.14 0.867312 -1.32904 0
M  V30 46635 H 4760.16 3.58768 -1.2675 0
M  V30 46636 H 4759.68 2.65166 -2.83388 0
M  V30 46637 H 4757.78 3.67864 -0.592165 0
M  V30 46638 H 4757.89 4.13467 -2.42038 0
M  V30 46639 H 4756.25 2.24538 -1.20229 0
M  V30 46640 H 4757.04 1.92477 -2.84266 0
M  V30 46641 N 4759.48 0.985651 1.22974 0
M  V30 46642 C 4760.71 0.675651 1.95557 0
M  V30 46643 C 4761.12 -0.758352 1.729 0
M  V30 46644 O 4760.48 -1.5109 1.02362 0
M  V30 46645 C 4760.53 0.963053 3.48436 0
M  V30 46646 O 4760.25 2.3407 3.70328 0
M  V30 46647 C 4761.75 0.669739 4.38212 0
M  V30 46648 H 4758.97 0.250545 0.622469 0
M  V30 46649 H 4761.52 1.31846 1.56323 0
M  V30 46650 H 4759.67 0.366169 3.85666 0
M  V30 46651 H 4760.09 2.4344 4.64583 0
M  V30 46652 H 4761.56 0.921159 5.4426 0
M  V30 46653 H 4762.04 -0.39623 4.37409 0
M  V30 46654 H 4762.64 1.24734 4.06597 0
M  V30 46655 N 4760.96 -1.38177 0.757949 0
M  V30 46656 C 4762.37 -1.82725 0.383198 0
M  V30 46657 C 4762.72 -1.63218 -1.08878 0
M  V30 46658 O 4761.85 -1.13573 -1.84201 0
M  V30 46659 C 4762.44 -3.31725 0.688748 0
M  V30 46660 C 4761 -3.74604 0.367223 0
M  V30 46661 C 4760.15 -2.60893 0.939691 0
M  V30 46662 H 4763.1 -1.26844 0.953743 0
M  V30 46663 H 4763.12 -3.80487 -0.0315154 0
M  V30 46664 H 4762.63 -3.45891 1.76013 0
M  V30 46665 H 4760.73 -3.66015 -0.697404 0
M  V30 46666 H 4760.85 -4.71212 0.865824 0
M  V30 46667 H 4759.21 -2.52074 0.364789 0
M  V30 46668 H 4759.99 -2.77857 2.0162 0
M  V30 46669 N 4762.44 -0.507371 -1.4921 0
M  V30 46670 C 4763.67 0.0315022 -2.06876 0
M  V30 46671 C 4764.08 1.30236 -1.36689 0
M  V30 46672 O 4763.44 1.76936 -0.447214 0
M  V30 46673 C 4763.49 0.2825 -3.60394 0
M  V30 46674 O 4763.21 -0.937986 -4.27941 0
M  V30 46675 C 4764.71 0.8643 -4.34793 0
M  V30 46676 H 4761.93 -0.0233284 -0.670594 0
M  V30 46677 H 4764.48 -0.706551 -1.91906 0
M  V30 46678 H 4762.63 0.970548 -3.75045 0
M  V30 46679 H 4763.04 -0.704749 -5.19744 0
M  V30 46680 H 4764.52 0.989473 -5.43059 0
M  V30 46681 H 4765 1.86368 -3.97698 0
M  V30 46682 H 4765.6 0.213523 -4.24764 0
M  V30 46683 N 4763.92 1.55739 -0.241481 0
M  V30 46684 C 4765.33 1.84843 0.26269 0
M  V30 46685 C 4765.68 1.16322 1.57999 0
M  V30 46686 O 4764.8 0.439727 2.11885 0
M  V30 46687 C 4765.4 3.35334 0.483405 0
M  V30 46688 C 4763.96 3.64683 0.931849 0
M  V30 46689 C 4763.1 2.77299 0.00601761 0
M  V30 46690 H 4766.06 1.5176 -0.464182 0
M  V30 46691 H 4766.08 3.56619 1.32675 0
M  V30 46692 H 4765.59 3.85176 -0.475505 0
M  V30 46693 H 4763.69 3.20314 1.90342 0
M  V30 46694 H 4763.8 4.72501 0.792462 0
M  V30 46695 H 4762.17 2.4941 0.516416 0
M  V30 46696 H 4762.95 3.29946 -0.948168 0
M  V30 46697 N 4765.39 -0.0316971 1.57568 0
M  V30 46698 C 4766.62 -0.734881 1.93409 0
M  V30 46699 C 4767.04 -1.69033 0.841019 0
M  V30 46700 O 4766.39 -1.81582 -0.182772 0
M  V30 46701 C 4766.45 -1.49421 3.29174 0
M  V30 46702 O 4766.17 -0.577108 4.34282 0
M  V30 46703 C 4767.67 -2.29479 3.79281 0
M  V30 46704 H 4764.89 -0.206683 0.638375 0
M  V30 46705 H 4767.43 0.00999235 2.04498 0
M  V30 46706 H 4765.59 -2.19098 3.19491 0
M  V30 46707 H 4766 -1.10934 5.12634 0
M  V30 46708 H 4767.47 -2.78156 4.76795 0
M  V30 46709 H 4767.95 -3.10783 3.10339 0
M  V30 46710 H 4768.56 -1.6488 3.92039 0
M  V30 46711 N 4766.87 -1.54642 -0.303919 0
M  V30 46712 C 4768.12 -1.73441 -1.03743 0
M  V30 46713 C 4768.44 -0.521515 -1.87897 0
M  V30 46714 O 4767.71 0.464253 -1.90319 0
M  V30 46715 H 4766.29 -0.639531 -0.386017 0
M  V30 46716 H 4768.95 -1.91989 -0.335608 0
M  V30 46717 H 4768.05 -2.62241 -1.69222 0
M  V30 46718 N 4768.35 0.566968 -1.47048 0
M  V30 46719 C 4769.58 1.35021 -1.5677 0
M  V30 46720 C 4769.99 1.87579 -0.214382 0
M  V30 46721 O 4769.35 1.64474 0.790861 0
M  V30 46722 C 4769.4 2.52689 -2.58516 0
M  V30 46723 O 4769.12 2.02306 -3.88592 0
M  V30 46724 C 4770.62 3.45034 -2.78328 0
M  V30 46725 H 4767.84 0.411932 -0.529673 0
M  V30 46726 H 4770.39 0.687764 -1.92588 0
M  V30 46727 H 4768.54 3.14892 -2.25659 0
M  V30 46728 H 4768.96 2.79052 -4.44106 0
M  V30 46729 H 4770.43 4.24038 -3.53406 0
M  V30 46730 H 4770.91 3.97964 -1.85798 0
M  V30 46731 H 4771.51 2.88654 -3.12344 0
M  V30 46732 N 4769.83 1.35017 0.812906 0
M  V30 46733 C 4770.76 1.23269 1.93229 0
M  V30 46734 C 4771.77 0.157428 1.62037 0
M  V30 46735 O 4772.96 0.410157 1.73724 0
M  V30 46736 C 4770.06 0.874035 3.27435 0
M  V30 46737 C 4769.24 2.04636 3.86579 0
M  V30 46738 C 4768.29 1.66449 4.9918 0
M  V30 46739 O 4767.32 2.3824 5.16943 0
M  V30 46740 N 4768.52 0.584451 5.7755 0
M  V30 46741 H 4771.29 2.19707 2.03836 0
M  V30 46742 H 4768.85 1.28103 0.990005 0
M  V30 46743 H 4770.84 0.60018 4.00225 0
M  V30 46744 H 4769.41 -0.000464025 3.126 0
M  V30 46745 H 4768.63 2.48437 3.0606 0
M  V30 46746 H 4769.92 2.83014 4.22825 0
M  V30 46747 H 4769.32 -0.0121537 5.65699 0
M  V30 46748 H 4767.87 0.370359 6.50747 0
M  V30 46749 N 4771.31 -1.03431 1.18911 0
M  V30 46750 C 4772.53 -1.80378 1.01348 0
M  V30 46751 C 4772.95 -1.83651 -0.43794 0
M  V30 46752 O 4772.31 -1.2766 -1.3042 0
M  V30 46753 C 4772.36 -3.25683 1.56884 0
M  V30 46754 O 4772.08 -3.22663 2.96345 0
M  V30 46755 C 4773.58 -4.1925 1.44029 0
M  V30 46756 H 4770.8 -0.567827 0.35751 0
M  V30 46757 H 4773.34 -1.30312 1.57604 0
M  V30 46758 H 4771.5 -3.72958 1.0479 0
M  V30 46759 H 4771.91 -4.13737 3.2237 0
M  V30 46760 H 4773.39 -5.19117 1.87675 0
M  V30 46761 H 4773.86 -4.37465 0.389969 0
M  V30 46762 H 4774.47 -3.77844 1.95227 0
M  V30 46763 N 4772.78 -0.992159 -1.2245 0
M  V30 46764 C 4774.2 -0.702837 -1.72966 0
M  V30 46765 C 4774.55 0.780336 -1.80014 0
M  V30 46766 O 4773.67 1.61001 -1.44594 0
M  V30 46767 C 4774.27 -1.26914 -3.14131 0
M  V30 46768 C 4772.83 -1.02922 -3.62055 0
M  V30 46769 C 4771.97 -1.38978 -2.39959 0
M  V30 46770 H 4774.92 -1.16461 -1.07808 0
M  V30 46771 H 4774.94 -0.647354 -3.74953 0
M  V30 46772 H 4774.46 -2.34862 -3.08969 0
M  V30 46773 H 4772.56 0.0336669 -3.72585 0
M  V30 46774 H 4772.67 -1.69207 -4.48225 0
M  V30 46775 H 4771.03 -0.808364 -2.41532 0
M  V30 46776 H 4771.82 -2.47928 -2.37459 0
M  V30 46777 N 4774.26 1.37773 -0.765266 0
M  V30 46778 C 4775.49 2.04123 -0.337839 0
M  V30 46779 C 4775.91 1.57719 1.03779 0
M  V30 46780 O 4775.26 0.755505 1.66128 0
M  V30 46781 C 4775.31 3.59657 -0.364568 0
M  V30 46782 O 4775.03 4.04361 -1.68593 0
M  V30 46783 C 4776.54 4.43236 0.0752663 0
M  V30 46784 H 4773.76 0.655691 -0.142514 0
M  V30 46785 H 4776.3 1.76235 -1.03738 0
M  V30 46786 H 4774.45 3.8634 0.286335 0
M  V30 46787 H 4774.87 4.98852 -1.6201 0
M  V30 46788 H 4776.34 5.52 0.00540662 0
M  V30 46789 H 4776.82 4.24553 1.12477 0
M  V30 46790 H 4777.43 4.21765 -0.547203 0
M  V30 46791 N 4775.74 0.515277 1.48938 0
M  V30 46792 C 4776.97 -0.0205306 2.0689 0
M  V30 46793 C 4777.38 -1.29509 1.37378 0
M  V30 46794 O 4776.74 -1.76696 0.456591 0
M  V30 46795 C 4776.79 -0.263384 3.60539 0
M  V30 46796 O 4776.51 0.960667 4.27437 0
M  V30 46797 C 4778.01 -0.84123 4.35245 0
M  V30 46798 H 4775.23 0.0268844 0.670461 0
M  V30 46799 H 4777.78 0.716719 1.91529 0
M  V30 46800 H 4775.93 -0.950645 3.75555 0
M  V30 46801 H 4776.35 0.732303 5.19363 0
M  V30 46802 H 4777.82 -0.960659 5.43576 0
M  V30 46803 H 4778.3 -1.84256 3.98681 0
M  V30 46804 H 4778.9 -0.190994 4.24871 0
M  V30 46805 N 4777.22 -1.55609 0.249737 0
M  V30 46806 C 4778.45 -2.03413 -0.378281 0
M  V30 46807 C 4778.86 -1.12891 -1.51331 0
M  V30 46808 O 4778.22 -0.143897 -1.81932 0
M  V30 46809 C 4778.27 -3.5054 -0.883387 0
M  V30 46810 O 4777.99 -4.37613 0.206414 0
M  V30 46811 C 4779.49 -4.14118 -1.5818 0
M  V30 46812 H 4776.71 -0.664997 -0.0895566 0
M  V30 46813 H 4779.26 -2.01043 0.374428 0
M  V30 46814 H 4777.41 -3.53435 -1.58626 0
M  V30 46815 H 4777.83 -5.24199 -0.177597 0
M  V30 46816 H 4779.3 -5.18748 -1.88692 0
M  V30 46817 H 4779.78 -3.60776 -2.50474 0
M  V30 46818 H 4780.38 -4.15154 -0.923427 0
M  V30 46819 N 4778.7 0.0233405 -1.57583 0
M  V30 46820 C 4780.11 0.569207 -1.77811 0
M  V30 46821 C 4780.46 1.75281 -0.881534 0
M  V30 46822 O 4779.58 2.1626 -0.0778566 0
M  V30 46823 C 4780.18 1.03938 -3.22463 0
M  V30 46824 C 4778.74 1.53072 -3.43869 0
M  V30 46825 C 4777.89 0.471358 -2.73265 0
M  V30 46826 H 4780.84 -0.20288 -1.57398 0
M  V30 46827 H 4780.86 1.90649 -3.29292 0
M  V30 46828 H 4780.37 0.177728 -3.87693 0
M  V30 46829 H 4778.47 2.41404 -2.83822 0
M  V30 46830 H 4778.58 1.57428 -4.52497 0
M  V30 46831 H 4776.95 0.927705 -2.37204 0
M  V30 46832 H 4777.73 -0.380928 -3.4118 0
M  V30 46833 N 4780.18 1.54801 0.295713 0
M  V30 46834 C 4781.42 1.73541 1.02792 0
M  V30 46835 C 4781.74 0.531225 1.88248 0
M  V30 46836 O 4782.94 0.600551 2.64775 0
M  V30 46837 C 4781.4 3.07058 1.87733 0
M  V30 46838 C 4781.01 4.34972 1.07254 0
M  V30 46839 C 4782.75 3.35155 2.60521 0
M  V30 46840 C 4780.66 5.59537 1.91501 0
M  V30 46841 H 4779.59 0.646808 0.3875 0
M  V30 46842 H 4782.24 1.81279 0.284655 0
M  V30 46843 H 4780.62 2.93299 2.66067 0
M  V30 46844 H 4781.8 4.59581 0.334955 0
M  V30 46845 H 4780.11 4.13849 0.460238 0
M  V30 46846 H 4782.71 4.25422 3.23914 0
M  V30 46847 H 4783.05 2.54267 3.29627 0
M  V30 46848 H 4783.58 3.49909 1.89232 0
M  V30 46849 H 4780.32 6.43108 1.26856 0
M  V30 46850 H 4779.84 5.39105 2.62918 0
M  V30 46851 H 4781.52 5.96991 2.49421 0
M  V30 46852 N 4781.65 -0.559161 1.47347 0
M  V30 46853 C 4782.88 -1.34188 1.57484 0
M  V30 46854 C 4783.3 -1.87463 0.224327 0
M  V30 46855 O 4782.65 -1.64891 -0.782127 0
M  V30 46856 C 4782.7 -2.51315 2.59852 0
M  V30 46857 O 4782.43 -2.00242 3.8966 0
M  V30 46858 C 4783.93 -3.43553 2.80154 0
M  V30 46859 H 4781.15 -0.409117 0.53185 0
M  V30 46860 H 4783.69 -0.677541 1.9295 0
M  V30 46861 H 4781.85 -3.13691 2.27325 0
M  V30 46862 H 4782.26 -2.76693 4.4558 0
M  V30 46863 H 4783.73 -4.22158 3.5565 0
M  V30 46864 H 4784.21 -3.96973 1.87906 0
M  V30 46865 H 4784.82 -2.86994 3.1387 0
M  V30 46866 N 4783.13 -1.35446 -0.805734 0
M  V30 46867 C 4784.36 -1.31884 -1.59419 0
M  V30 46868 C 4784.77 0.103496 -1.88516 0
M  V30 46869 O 4784.13 1.0557 -1.48867 0
M  V30 46870 C 4784.18 -2.12436 -2.92494 0
M  V30 46871 O 4783.9 -3.49124 -2.64658 0
M  V30 46872 C 4785.4 -2.16469 -3.86854 0
M  V30 46873 H 4782.62 -0.453019 -0.49499 0
M  V30 46874 H 4785.17 -1.78312 -1.00125 0
M  V30 46875 H 4783.32 -1.69605 -3.483 0
M  V30 46876 H 4783.74 -3.90969 -3.49633 0
M  V30 46877 H 4785.21 -2.77221 -4.77339 0
M  V30 46878 H 4785.69 -1.16367 -4.23504 0
M  V30 46879 H 4786.29 -2.59465 -3.36984 0
M  V30 46880 N 4784.61 1.02799 -1.19458 0
M  V30 46881 C 4785.84 1.79838 -1.02303 0
M  V30 46882 C 4786.25 1.8388 0.428195 0
M  V30 46883 O 4785.61 1.28349 1.29741 0
M  V30 46884 C 4785.66 3.24847 -1.58609 0
M  V30 46885 O 4785.38 3.21087 -2.98052 0
M  V30 46886 C 4786.88 4.1848 -1.4625 0
M  V30 46887 H 4784.1 0.565923 -0.360516 0
M  V30 46888 H 4786.65 1.29474 -1.58293 0
M  V30 46889 H 4784.8 3.72397 -1.06766 0
M  V30 46890 H 4785.22 4.12021 -3.24559 0
M  V30 46891 H 4786.69 5.18114 -1.90426 0
M  V30 46892 H 4787.17 4.37252 -0.413164 0
M  V30 46893 H 4787.77 3.76804 -1.97228 0
M  V30 46894 N 4786.09 0.998639 1.21922 0
M  V30 46895 C 4787.32 0.696355 1.94829 0
M  V30 46896 C 4787.73 -0.739971 1.73695 0
M  V30 46897 O 4787.09 -1.49996 1.03959 0
M  V30 46898 C 4787.14 0.999955 3.47395 0
M  V30 46899 O 4786.86 2.37985 3.67825 0
M  V30 46900 C 4788.36 0.716179 4.37477 0
M  V30 46901 H 4785.58 0.257133 0.619777 0
M  V30 46902 H 4788.12 1.33496 1.54916 0
M  V30 46903 H 4786.28 0.407053 3.85256 0
M  V30 46904 H 4786.69 2.48354 4.61975 0
M  V30 46905 H 4788.17 0.978833 5.43252 0
M  V30 46906 H 4788.64 -0.349814 4.37805 0
M  V30 46907 H 4789.25 1.2904 4.05252 0
M  V30 46908 N 4787.57 -1.37365 0.772562 0
M  V30 46909 C 4788.79 -2.03941 0.348659 0
M  V30 46910 C 4789.21 -1.58267 -1.02941 0
M  V30 46911 O 4788.57 -0.764305 -1.65725 0
M  V30 46912 C 4788.62 -3.59459 0.383637 0
M  V30 46913 O 4788.34 -4.03462 1.70735 0
M  V30 46914 C 4789.84 -4.4327 -0.0517594 0
M  V30 46915 H 4787.06 -0.654926 0.145989 0
M  V30 46916 H 4789.6 -1.75682 1.04671 0
M  V30 46917 H 4787.76 -3.86487 -0.265842 0
M  V30 46918 H 4788.17 -4.97985 1.64653 0
M  V30 46919 H 4789.65 -5.51995 0.0238673 0
M  V30 46920 H 4790.12 -4.25144 -1.10223 0
M  V30 46921 H 4790.73 -4.21469 0.569563 0
M  V30 46922 N 4789.04 -0.523168 -1.48663 0
M  V30 46923 C 4790.29 0.013425 -2.02796 0
M  V30 46924 C 4790.62 1.34577 -1.40009 0
M  V30 46925 O 4789.9 1.86754 -0.543447 0
M  V30 46926 C 4790.18 0.142634 -3.59817 0
M  V30 46927 C 4790.03 -1.2144 -4.33096 0
M  V30 46928 C 4791.35 0.872704 -4.31361 0
M  V30 46929 H 4788.47 0.00340483 -0.736992 0
M  V30 46930 H 4791.11 -0.678878 -1.77458 0
M  V30 46931 H 4789.26 0.732267 -3.81537 0
M  V30 46932 H 4790.94 -1.84462 -4.22814 0
M  V30 46933 H 4789.18 -1.79805 -3.94782 0
M  V30 46934 H 4789.85 -1.07706 -5.4139 0
M  V30 46935 H 4792.33 0.372409 -4.1443 0
M  V30 46936 H 4791.2 0.931995 -5.4093 0
M  V30 46937 H 4791.46 1.92147 -3.98161 0
M  V30 46938 N 4790.52 1.55474 -0.257986 0
M  V30 46939 C 4791.75 2.0361 0.367488 0
M  V30 46940 C 4792.17 1.13692 1.5073 0
M  V30 46941 O 4791.52 0.153543 1.81853 0
M  V30 46942 C 4791.57 3.51004 0.864784 0
M  V30 46943 O 4791.29 4.37498 -0.229619 0
M  V30 46944 C 4792.8 4.14951 1.55982 0
M  V30 46945 H 4790.02 0.665462 0.0860287 0
M  V30 46946 H 4792.56 2.00842 -0.385085 0
M  V30 46947 H 4790.71 3.54271 1.5675 0
M  V30 46948 H 4791.13 5.24286 0.149795 0
M  V30 46949 H 4792.6 5.19741 1.85938 0
M  V30 46950 H 4793.08 3.62099 2.48557 0
M  V30 46951 H 4793.69 4.15638 0.901397 0
M  V30 46952 N 4792 -0.0149831 1.57593 0
M  V30 46953 C 4793.41 -0.55977 1.78111 0
M  V30 46954 C 4793.76 -1.74811 0.890817 0
M  V30 46955 O 4792.89 -2.16216 0.0893243 0
M  V30 46956 C 4793.48 -1.02226 3.2301 0
M  V30 46957 C 4792.04 -1.51246 3.44676 0
M  V30 46958 C 4791.19 -0.456859 2.73511 0
M  V30 46959 H 4794.14 0.211224 1.57288 0
M  V30 46960 H 4794.16 -1.889 3.30298 0
M  V30 46961 H 4793.67 -0.157166 3.87782 0
M  V30 46962 H 4791.77 -2.39895 2.85098 0
M  V30 46963 H 4791.89 -1.55026 4.53325 0
M  V30 46964 H 4790.25 -0.915112 2.37693 0
M  V30 46965 H 4791.03 0.399016 3.40973 0
M  V30 46966 N 4793.48 -1.54955 -0.2875 0
M  V30 46967 C 4794.71 -1.78885 -1.03961 0
M  V30 46968 C 4795.12 -0.554957 -1.8046 0
M  V30 46969 O 4794.48 0.475614 -1.76194 0
M  V30 46970 C 4794.53 -3.00495 -2.0096 0
M  V30 46971 O 4794.25 -4.19118 -1.27562 0
M  V30 46972 C 4795.75 -3.36917 -2.881 0
M  V30 46973 H 4792.97 -0.59627 -0.30774 0
M  V30 46974 H 4795.52 -2.01938 -0.322678 0
M  V30 46975 H 4793.67 -2.79611 -2.68135 0
M  V30 46976 H 4794.08 -4.87772 -1.92818 0
M  V30 46977 H 4795.56 -4.25218 -3.51986 0
M  V30 46978 H 4796.04 -2.55671 -3.57112 0
M  V30 46979 H 4796.64 -3.60009 -2.26436 0
M  V30 46980 N 4794.96 0.551339 -1.47641 0
M  V30 46981 C 4796.37 1.13344 -1.48358 0
M  V30 46982 C 4796.72 1.94708 -0.2415 0
M  V30 46983 O 4795.84 2.06308 0.653133 0
M  V30 46984 C 4796.44 2.0622 -2.6881 0
M  V30 46985 C 4795 2.5969 -2.72466 0
M  V30 46986 C 4794.14 1.36192 -2.41551 0
M  V30 46987 H 4797.1 0.337644 -1.55067 0
M  V30 46988 H 4797.12 2.90187 -2.46113 0
M  V30 46989 H 4796.63 1.46975 -3.59194 0
M  V30 46990 H 4794.73 3.22718 -1.86236 0
M  V30 46991 H 4794.84 3.00283 -3.73319 0
M  V30 46992 H 4793.21 1.67062 -1.92256 0
M  V30 46993 H 4793.99 0.787308 -3.3415 0
M  V30 46994 N 4796.43 1.35872 0.79854 0
M  V30 46995 C 4797.66 1.32727 1.58717 0
M  V30 46996 C 4798.08 -0.0934969 1.88568 0
M  V30 46997 O 4797.43 -1.04779 1.49424 0
M  V30 46998 C 4797.49 2.13985 2.91364 0
M  V30 46999 O 4797.21 3.50523 2.62803 0
M  V30 47000 C 4798.71 2.18517 3.85701 0
M  V30 47001 H 4795.93 0.455638 0.49258 0
M  V30 47002 H 4798.47 1.78841 0.99178 0
M  V30 47003 H 4796.63 1.7145 3.47396 0
M  V30 47004 H 4797.04 3.92818 3.47555 0
M  V30 47005 H 4798.51 2.79749 4.75862 0
M  V30 47006 H 4798.99 1.18612 4.22881 0
M  V30 47007 H 4799.6 2.61248 3.35603 0
M  V30 47008 N 4797.91 -1.02164 1.20001 0
M  V30 47009 C 4799.32 -1.57131 1.0083 0
M  V30 47010 C 4799.67 -1.91277 -0.436751 0
M  V30 47011 O 4798.8 -1.71683 -1.31734 0
M  V30 47012 C 4799.39 -2.85507 1.82403 0
M  V30 47013 C 4797.95 -3.37021 1.67613 0
M  V30 47014 C 4797.1 -2.10381 1.80651 0
M  V30 47015 H 4800.05 -0.846059 1.34267 0
M  V30 47016 H 4800.07 -3.56706 1.32442 0
M  V30 47017 H 4799.58 -2.60624 2.87571 0
M  V30 47018 H 4797.69 -3.66876 0.650614 0
M  V30 47019 H 4797.8 -4.09564 2.48585 0
M  V30 47020 H 4796.16 -2.22596 1.23786 0
M  V30 47021 H 4796.95 -1.8793 2.87293 0
M  V30 47022 N 4799.39 -1.00509 -1.21391 0
M  V30 47023 C 4800.62 -0.706677 -1.94457 0
M  V30 47024 C 4801.03 0.730749 -1.74085 0
M  V30 47025 O 4800.39 1.49443 -1.04753 0
M  V30 47026 C 4800.44 -1.01836 -3.4686 0
M  V30 47027 O 4800.16 -2.39932 -3.66557 0
M  V30 47028 C 4801.66 -0.73937 -4.37091 0
M  V30 47029 H 4798.88 -0.260416 -0.618405 0
M  V30 47030 H 4801.43 -1.34316 -1.54206 0
M  V30 47031 H 4799.58 -0.427479 -3.85034 0
M  V30 47032 H 4800 -2.50801 -4.60651 0
M  V30 47033 H 4801.47 -1.00763 -5.42725 0
M  V30 47034 H 4801.95 0.326592 -4.37984 0
M  V30 47035 H 4802.55 -1.31187 -4.04562 0
M  V30 47036 N 4800.87 1.36954 -0.779835 0
M  V30 47037 C 4802.12 1.99096 -0.347149 0
M  V30 47038 C 4802.44 1.6221 1.08227 0
M  V30 47039 O 4801.71 0.891434 1.74443 0
M  V30 47040 H 4800.29 0.736405 -0.125368 0
M  V30 47041 H 4802.95 1.67305 -0.999755 0
M  V30 47042 H 4802.05 3.09106 -0.431271 0
M  V30 47043 N 4802.35 0.531045 1.48384 0
M  V30 47044 C 4803.57 0.00141396 2.069 0
M  V30 47045 C 4803.99 -1.28045 1.38744 0
M  V30 47046 O 4803.35 -1.76202 0.475306 0
M  V30 47047 C 4803.4 -0.225129 3.60798 0
M  V30 47048 O 4803.12 1.00595 4.26395 0
M  V30 47049 C 4804.62 -0.795019 4.36113 0
M  V30 47050 H 4801.84 0.033994 0.670138 0
M  V30 47051 H 4804.38 0.736993 1.90758 0
M  V30 47052 H 4802.54 -0.910759 3.76542 0
M  V30 47053 H 4802.95 0.787347 5.18557 0
M  V30 47054 H 4804.43 -0.902952 5.44565 0
M  V30 47055 H 4804.9 -1.80017 4.00613 0
M  V30 47056 H 4805.51 -0.14592 4.2505 0
M  V30 47057 N 4803.82 -1.55335 0.266227 0
M  V30 47058 C 4804.76 -2.19547 -0.65817 0
M  V30 47059 C 4805.77 -1.17749 -1.12423 0
M  V30 47060 O 4806.96 -1.4452 -1.04767 0
M  V30 47061 C 4804.06 -2.80039 -1.9087 0
M  V30 47062 C 4803.23 -4.07441 -1.59092 0
M  V30 47063 C 4802.29 -4.52066 -2.69301 0
M  V30 47064 O 4801.32 -5.18031 -2.35864 0
M  V30 47065 N 4802.52 -4.21462 -3.99186 0
M  V30 47066 H 4805.28 -2.99503 -0.108648 0
M  V30 47067 H 4802.84 -1.61666 0.0869628 0
M  V30 47068 H 4804.84 -3.0684 -2.63877 0
M  V30 47069 H 4803.41 -2.04127 -2.36751 0
M  V30 47070 H 4802.63 -3.88023 -0.695106 0
M  V30 47071 H 4803.91 -4.90467 -1.3535 0
M  V30 47072 H 4803.31 -3.68543 -4.29176 0
M  V30 47073 H 4801.87 -4.53055 -4.68598 0
M  V30 47074 N 4805.3 0.0066254 -1.57599 0
M  V30 47075 C 4806.53 0.704018 -1.94554 0
M  V30 47076 C 4806.95 1.67674 -0.867805 0
M  V30 47077 O 4806.3 1.8185 0.153861 0
M  V30 47078 C 4806.35 1.44165 -3.3151 0
M  V30 47079 O 4806.08 0.507945 -4.35145 0
M  V30 47080 C 4807.58 2.23416 -3.82884 0
M  V30 47081 H 4804.8 0.196501 -0.641583 0
M  V30 47082 H 4807.34 -0.0425249 -2.04456 0
M  V30 47083 H 4805.5 2.13988 -3.22936 0
M  V30 47084 H 4805.91 1.02764 -5.14334 0
M  V30 47085 H 4807.38 2.70535 -4.8116 0
M  V30 47086 H 4807.86 3.05807 -3.15244 0
M  V30 47087 H 4808.47 1.58623 -3.94612 0
M  V30 47088 N 4806.78 1.55106 0.279278 0
M  V30 47089 C 4808.19 1.66189 0.850774 0
M  V30 47090 C 4808.54 0.584773 1.87283 0
M  V30 47091 O 4807.67 -0.274844 2.14648 0
M  V30 47092 C 4808.26 3.01269 1.54991 0
M  V30 47093 C 4806.82 3.14401 2.06952 0
M  V30 47094 C 4805.97 2.61963 0.909444 0
M  V30 47095 H 4808.92 1.58602 0.0557678 0
M  V30 47096 H 4808.94 2.93907 2.41658 0
M  V30 47097 H 4808.45 3.79643 0.805797 0
M  V30 47098 H 4806.55 2.40789 2.84343 0
M  V30 47099 H 4806.67 4.20875 2.28914 0
M  V30 47100 H 4805.03 2.18961 1.30108 0
M  V30 47101 H 4805.81 3.42833 0.178942 0
M  V30 47102 N 4808.26 -0.543502 1.47932 0
M  V30 47103 C 4809.49 -1.3251 1.58898 0
M  V30 47104 C 4809.9 -1.87214 0.244197 0
M  V30 47105 O 4809.26 -1.65711 -0.764594 0
M  V30 47106 C 4809.31 -2.48545 2.62503 0
M  V30 47107 O 4809.03 -1.96098 3.91762 0
M  V30 47108 C 4810.53 -3.40562 2.83782 0
M  V30 47109 H 4807.75 -0.403453 0.536159 0
M  V30 47110 H 4810.3 -0.657038 1.93658 0
M  V30 47111 H 4808.45 -3.11262 2.3064 0
M  V30 47112 H 4808.87 -2.71951 4.48489 0
M  V30 47113 H 4810.34 -4.18362 3.60107 0
M  V30 47114 H 4810.82 -3.94958 1.92106 0
M  V30 47115 H 4811.42 -2.83649 3.16897 0
M  V30 47116 N 4809.74 -1.36293 -0.791323 0
M  V30 47117 C 4810.97 -1.33567 -1.58011 0
M  V30 47118 C 4811.38 0.0834953 -1.88615 0
M  V30 47119 O 4810.74 1.03985 -1.49978 0
M  V30 47120 C 4810.79 -2.15527 -2.90225 0
M  V30 47121 O 4810.51 -3.51912 -2.6094 0
M  V30 47122 C 4812.01 -2.2056 -3.84536 0
M  V30 47123 H 4809.23 -0.458244 -0.490157 0
M  V30 47124 H 4811.77 -1.79364 -0.982282 0
M  V30 47125 H 4809.93 -1.7329 -3.46481 0
M  V30 47126 H 4810.34 -3.94656 -3.45467 0
M  V30 47127 H 4811.82 -2.82268 -4.74372 0
M  V30 47128 H 4812.29 -1.20852 -4.22246 0
M  V30 47129 H 4812.9 -2.63024 -3.34213 0
M  V30 47130 N 4811.22 1.01526 -1.20541 0
M  V30 47131 C 4812.44 1.78743 -1.04205 0
M  V30 47132 C 4812.86 1.84324 0.408668 0
M  V30 47133 O 4812.22 1.29718 1.28372 0
M  V30 47134 C 4812.27 3.23146 -1.62046 0
M  V30 47135 O 4811.99 3.17907 -3.01441 0
M  V30 47136 C 4813.49 4.16906 -1.50681 0
M  V30 47137 H 4810.71 0.562068 -0.366498 0
M  V30 47138 H 4813.25 1.27788 -1.59657 0
M  V30 47139 H 4811.41 3.71244 -1.1071 0
M  V30 47140 H 4811.82 4.08556 -3.28911 0
M  V30 47141 H 4813.3 5.16065 -1.9591 0
M  V30 47142 H 4813.77 4.3679 -0.459517 0
M  V30 47143 H 4814.38 3.74691 -2.01214 0
M  V30 47144 N 4812.69 1.01151 1.20856 0
M  V30 47145 C 4814.1 0.730265 1.71826 0
M  V30 47146 C 4814.46 -0.751599 1.81233 0
M  V30 47147 O 4813.58 -1.58681 1.47137 0
M  V30 47148 C 4814.18 1.31896 3.12072 0
M  V30 47149 C 4812.73 1.08669 3.60372 0
M  V30 47150 C 4811.88 1.42778 2.37718 0
M  V30 47151 H 4814.83 1.18162 1.05941 0
M  V30 47152 H 4814.85 0.706924 3.73875 0
M  V30 47153 H 4814.37 2.39747 3.05193 0
M  V30 47154 H 4812.47 0.0256124 3.72591 0
M  V30 47155 H 4812.58 1.76316 4.45477 0
M  V30 47156 H 4810.94 0.846687 2.40215 0
M  V30 47157 H 4811.73 2.51674 2.33484 0
M  V30 47158 N 4814.17 -1.36538 0.787088 0
M  V30 47159 C 4815.42 -1.98551 0.355009 0
M  V30 47160 C 4815.73 -1.63175 -1.07858 0
M  V30 47161 O 4816.94 -2.18405 -1.61281 0
M  V30 47162 C 4815.4 -3.55134 0.583795 0
M  V30 47163 C 4815 -3.99437 2.02865 0
M  V30 47164 C 4816.75 -4.2395 0.216106 0
M  V30 47165 C 4814.65 -5.48788 2.20422 0
M  V30 47166 H 4813.58 -0.742883 0.128998 0
M  V30 47167 H 4816.24 -1.55867 0.968391 0
M  V30 47168 H 4814.62 -3.95876 -0.0992654 0
M  V30 47169 H 4815.79 -3.699 2.74792 0
M  V30 47170 H 4814.11 -3.43451 2.35437 0
M  V30 47171 H 4816.7 -5.33708 0.325593 0
M  V30 47172 H 4817.05 -4.0783 -0.835503 0
M  V30 47173 H 4817.58 -3.88562 0.852311 0
M  V30 47174 H 4814.32 -5.69853 3.23957 0
M  V30 47175 H 4813.84 -5.79959 1.52997 0
M  V30 47176 H 4815.52 -6.14979 2.01023 0
M  V30 47177 N 4815.65 -0.538906 -1.481 0
M  V30 47178 C 4816.88 -0.0123863 -2.06896 0
M  V30 47179 C 4817.29 1.27307 -1.39421 0
M  V30 47180 O 4816.65 1.75947 -0.484644 0
M  V30 47181 C 4816.7 0.205992 -3.60913 0
M  V30 47182 O 4816.42 -1.02855 -4.25855 0
M  V30 47183 C 4817.92 0.77188 -4.36528 0
M  V30 47184 H 4815.14 -0.0375474 -0.669949 0
M  V30 47185 H 4817.69 -0.747099 -1.90365 0
M  V30 47186 H 4815.84 0.890777 -3.7702 0
M  V30 47187 H 4816.26 -0.814836 -5.18132 0
M  V30 47188 H 4817.73 0.874059 -5.45036 0
M  V30 47189 H 4818.21 1.7789 -4.01562 0
M  V30 47190 H 4818.81 0.123376 -4.25121 0
M  V30 47191 N 4817.13 1.55192 -0.274461 0
M  V30 47192 C 4818.36 2.03989 0.345872 0
M  V30 47193 C 4818.77 1.15284 1.49516 0
M  V30 47194 O 4818.13 0.172822 1.8168 0
M  V30 47195 C 4818.18 3.51901 0.827507 0
M  V30 47196 O 4817.9 4.3723 -0.276008 0
M  V30 47197 C 4819.4 4.16582 1.51572 0
M  V30 47198 H 4816.62 0.666337 0.0789657 0
M  V30 47199 H 4819.16 2.00422 -0.406365 0
M  V30 47200 H 4817.32 3.55914 1.52984 0
M  V30 47201 H 4817.73 5.24415 0.0941794 0
M  V30 47202 H 4819.21 5.21684 1.80415 0
M  V30 47203 H 4819.68 3.64715 2.44703 0
M  V30 47204 H 4820.29 4.16571 0.857262 0
M  V30 47205 N 4818.61 0.00173253 1.576 0
M  V30 47206 C 4819.83 -0.693691 1.94924 0
M  V30 47207 C 4820.25 -1.67211 0.876685 0
M  V30 47208 O 4819.61 -1.81929 -0.144215 0
M  V30 47209 C 4819.66 -1.42405 3.3227 0
M  V30 47210 O 4819.38 -0.484861 4.35409 0
M  V30 47211 C 4820.88 -2.21382 3.84064 0
M  V30 47212 H 4818.1 -0.193096 0.642616 0
M  V30 47213 H 4820.64 0.0533671 2.0443 0
M  V30 47214 H 4818.8 -2.12272 3.24067 0
M  V30 47215 H 4819.21 -1.00035 5.14872 0
M  V30 47216 H 4820.69 -2.67979 4.82588 0
M  V30 47217 H 4821.16 -3.04131 3.16861 0
M  V30 47218 H 4821.77 -1.56528 3.95448 0
M  V30 47219 N 4820.08 -1.55252 -0.271048 0
M  V30 47220 C 4821.31 -1.79977 -1.02057 0
M  V30 47221 C 4821.73 -0.574066 -1.79861 0
M  V30 47222 O 4821.08 0.4569 -1.76688 0
M  V30 47223 C 4821.14 -3.0261 -1.97761 0
M  V30 47224 O 4820.86 -4.20447 -1.2311 0
M  V30 47225 C 4822.36 -3.39954 -2.8451 0
M  V30 47226 H 4819.58 -0.5995 -0.301398 0
M  V30 47227 H 4822.12 -2.02269 -0.301241 0
M  V30 47228 H 4820.28 -2.82439 -2.65155 0
M  V30 47229 H 4820.69 -4.8979 -1.87634 0
M  V30 47230 H 4822.16 -4.28927 -3.47456 0
M  V30 47231 H 4822.64 -2.59445 -3.5438 0
M  V30 47232 H 4823.25 -3.62391 -2.22605 0
M  V30 47233 N 4821.56 0.535649 -1.48218 0
M  V30 47234 C 4822.79 1.31666 -1.59599 0
M  V30 47235 C 4823.21 1.87082 -0.254122 0
M  V30 47236 O 4822.56 1.66114 0.755795 0
M  V30 47237 C 4822.61 2.47149 -2.63817 0
M  V30 47238 O 4822.33 1.94018 -3.92796 0
M  V30 47239 C 4823.84 3.39052 -2.85585 0
M  V30 47240 H 4821.06 0.400604 -0.538291 0
M  V30 47241 H 4823.6 0.646758 -1.94003 0
M  V30 47242 H 4821.75 3.10035 -2.32287 0
M  V30 47243 H 4822.17 2.69569 -4.49925 0
M  V30 47244 H 4823.64 4.16446 -3.62321 0
M  V30 47245 H 4824.12 3.93934 -1.94198 0
M  V30 47246 H 4824.73 2.81964 -3.18397 0
M  V30 47247 N 4823.04 1.36711 0.784084 0
M  V30 47248 C 4824.29 1.31431 1.54446 0
M  V30 47249 C 4824.62 -0.104692 1.93918 0
M  V30 47250 O 4823.89 -1.05928 1.63124 0
M  V30 47251 C 4824.18 2.24199 2.81792 0
M  V30 47252 C 4824.03 3.74822 2.48654 0
M  V30 47253 C 4825.35 2.15639 3.8365 0
M  V30 47254 H 4822.47 0.478759 0.56032 0
M  V30 47255 H 4825.11 1.67308 0.900439 0
M  V30 47256 H 4823.26 1.93734 3.36748 0
M  V30 47257 H 4824.93 4.1583 1.99707 0
M  V30 47258 H 4823.18 3.93996 1.81521 0
M  V30 47259 H 4823.85 4.3515 3.3963 0
M  V30 47260 H 4826.32 2.42467 3.38155 0
M  V30 47261 H 4825.2 2.8271 4.70496 0
M  V30 47262 H 4825.46 1.14537 4.27005 0
M  V30 47263 N 4824.52 -1.00885 1.21078 0
M  V30 47264 C 4825.75 -1.78187 1.05151 0
M  V30 47265 C 4826.16 -1.84538 -0.398887 0
M  V30 47266 O 4825.52 -1.30397 -1.27682 0
M  V30 47267 C 4825.57 -3.22282 1.63757 0
M  V30 47268 O 4825.29 -3.16304 3.03123 0
M  V30 47269 C 4826.79 -4.16101 1.52889 0
M  V30 47270 H 4824.01 -0.560116 0.369474 0
M  V30 47271 H 4826.56 -1.2694 1.60333 0
M  V30 47272 H 4824.71 -3.70652 1.12677 0
M  V30 47273 H 4825.12 -4.06806 3.31073 0
M  V30 47274 H 4826.6 -5.15019 1.98644 0
M  V30 47275 H 4827.08 -4.3654 0.482674 0
M  V30 47276 H 4827.68 -3.73618 2.03198 0
M  V30 47277 N 4826 -1.01791 -1.20318 0
M  V30 47278 C 4827.41 -0.739367 -1.71436 0
M  V30 47279 C 4827.76 0.741977 -1.81629 0
M  V30 47280 O 4826.88 1.57898 -1.47977 0
M  V30 47281 C 4827.48 -1.33549 -3.11368 0
M  V30 47282 C 4826.04 -1.10578 -3.59791 0
M  V30 47283 C 4825.18 -1.44036 -2.36957 0
M  V30 47284 H 4828.14 -1.18722 -1.05313 0
M  V30 47285 H 4828.16 -0.726742 -3.73495 0
M  V30 47286 H 4827.67 -2.41363 -3.03917 0
M  V30 47287 H 4825.77 -0.0453714 -3.72572 0
M  V30 47288 H 4825.88 -1.78676 -4.44535 0
M  V30 47289 H 4824.25 -0.859415 -2.39763 0
M  V30 47290 H 4825.03 -2.52909 -2.32146 0
M  V30 47291 N 4827.47 1.36119 -0.794317 0
M  V30 47292 C 4828.7 2.03361 -0.38106 0
M  V30 47293 C 4829.12 1.59885 1.00411 0
M  V30 47294 O 4828.47 0.790573 1.64488 0
M  V30 47295 C 4828.53 3.58803 -0.440775 0
M  V30 47296 O 4828.25 4.00694 -1.77132 0
M  V30 47297 C 4829.75 4.43296 -0.0187675 0
M  V30 47298 H 4826.97 0.652521 -0.15639 0
M  V30 47299 H 4829.51 1.73995 -1.07453 0
M  V30 47300 H 4827.67 3.86861 0.204322 0
M  V30 47301 H 4828.08 4.95303 -1.72555 0
M  V30 47302 H 4829.55 5.51887 -0.111682 0
M  V30 47303 H 4830.03 4.26844 1.03446 0
M  V30 47304 H 4830.64 4.20509 -0.636543 0
M  V30 47305 N 4828.95 0.546753 1.47812 0
M  V30 47306 C 4830.36 0.110629 1.86372 0
M  V30 47307 C 4830.71 -1.31673 1.45454 0
M  V30 47308 O 4829.84 -1.98886 0.852828 0
M  V30 47309 C 4830.43 0.193992 3.38244 0
M  V30 47310 C 4828.99 -0.187032 3.75935 0
M  V30 47311 C 4828.14 0.546262 2.71866 0
M  V30 47312 H 4831.09 0.757071 1.39478 0
M  V30 47313 H 4831.11 -0.590086 3.75897 0
M  V30 47314 H 4830.62 1.23295 3.67995 0
M  V30 47315 H 4828.73 -1.22749 3.518 0
M  V30 47316 H 4828.84 0.164251 4.78818 0
M  V30 47317 H 4827.2 -0.00944951 2.54698 0
M  V30 47318 H 4827.99 1.58617 3.04459 0
M  V30 47319 N 4830.43 -1.55044 0.282687 0
M  V30 47320 C 4831.66 -2.04169 -0.335049 0
M  V30 47321 C 4832.07 -1.16076 -1.48902 0
M  V30 47322 O 4831.43 -0.182455 -1.81586 0
M  V30 47323 C 4831.48 -3.52335 -0.808833 0
M  V30 47324 O 4831.2 -4.37077 0.299192 0
M  V30 47325 C 4832.7 -4.1738 -1.49361 0
M  V30 47326 H 4829.92 -0.666747 -0.0754309 0
M  V30 47327 H 4832.47 -2.00204 0.416988 0
M  V30 47328 H 4830.62 -3.5672 -1.51094 0
M  V30 47329 H 4831.04 -5.24458 -0.0663671 0
M  V30 47330 H 4832.51 -5.22634 -1.77646 0
M  V30 47331 H 4832.99 -3.66008 -2.42765 0
M  V30 47332 H 4833.59 -4.17019 -0.835159 0
M  V30 47333 N 4831.91 -0.0100904 -1.57597 0
M  V30 47334 C 4833.32 0.531363 -1.78979 0
M  V30 47335 C 4833.67 1.73372 -0.918515 0
M  V30 47336 O 4832.8 2.16046 -0.123711 0
M  V30 47337 C 4833.39 0.970745 -3.24595 0
M  V30 47338 C 4831.95 1.45744 -3.47039 0
M  V30 47339 C 4831.1 0.413288 -2.74203 0
M  V30 47340 H 4834.05 -0.236221 -1.56932 0
M  V30 47341 H 4834.07 1.83621 -3.33262 0
M  V30 47342 H 4833.58 0.0954529 -3.87983 0
M  V30 47343 H 4831.68 2.35329 -2.88879 0
M  V30 47344 H 4831.79 1.47794 -4.55734 0
M  V30 47345 H 4830.16 0.877182 -2.39118 0
M  V30 47346 H 4830.94 -0.453211 -3.40295 0
M  V30 47347 N 4833.39 1.55393 0.262811 0
M  V30 47348 C 4834.61 1.80516 1.01102 0
M  V30 47349 C 4835.03 0.583596 1.79554 0
M  V30 47350 O 4834.39 -0.447523 1.76928 0
M  V30 47351 C 4834.44 3.03655 1.96153 0
M  V30 47352 O 4834.16 4.21094 1.20878 0
M  V30 47353 C 4835.66 3.41458 2.82703 0
M  V30 47354 H 4832.88 0.60109 0.298214 0
M  V30 47355 H 4835.42 2.02426 0.29051 0
M  V30 47356 H 4833.58 2.83841 2.63653 0
M  V30 47357 H 4833.99 4.90778 1.85033 0
M  V30 47358 H 4835.47 4.30764 3.45176 0
M  V30 47359 H 4835.94 2.6132 3.52999 0
M  V30 47360 H 4836.55 3.63566 2.2068 0
M  V30 47361 N 4834.87 -0.527781 1.485 0
M  V30 47362 C 4836.11 -1.28095 1.5632 0
M  V30 47363 C 4836.43 -1.93519 0.239849 0
M  V30 47364 O 4835.7 -1.81435 -0.738785 0
M  V30 47365 H 4834.28 -0.475772 0.57589 0
M  V30 47366 H 4836.95 -0.613987 1.84976 0
M  V30 47367 H 4836.04 -2.05908 2.34539 0
M  V30 47368 N 4836.34 -1.37125 -0.776822 0
M  V30 47369 C 4837.57 -1.35236 -1.56585 0
M  V30 47370 C 4837.99 0.0634854 -1.88693 0
M  V30 47371 O 4837.34 1.02388 -1.51072 0
M  V30 47372 C 4837.39 -2.18593 -2.87923 0
M  V30 47373 O 4837.12 -3.54659 -2.57193 0
M  V30 47374 C 4838.62 -2.24626 -3.82175 0
M  V30 47375 H 4835.84 -0.463417 -0.485269 0
M  V30 47376 H 4838.38 -1.80396 -0.963203 0
M  V30 47377 H 4836.54 -1.76955 -3.44624 0
M  V30 47378 H 4836.95 -3.98298 -3.41261 0
M  V30 47379 H 4838.42 -2.87284 -4.71351 0
M  V30 47380 H 4838.9 -1.25324 -4.2094 0
M  V30 47381 H 4839.51 -2.66554 -3.31404 0
M  V30 47382 N 4837.82 1.00242 -1.21611 0
M  V30 47383 C 4838.75 2.0924 -0.935475 0
M  V30 47384 C 4839.77 1.62592 0.0823023 0
M  V30 47385 O 4840.96 1.77864 -0.150518 0
M  V30 47386 C 4838.06 3.36722 -0.383571 0
M  V30 47387 C 4837.23 4.12445 -1.4563 0
M  V30 47388 C 4836.29 5.18216 -0.913173 0
M  V30 47389 O 4835.31 5.46331 -1.5972 0
M  V30 47390 N 4836.52 5.7987 0.270275 0
M  V30 47391 H 4839.28 2.33898 -1.87381 0
M  V30 47392 H 4836.84 1.16744 -1.12171 0
M  V30 47393 H 4838.83 4.047 -0.00576384 0
M  V30 47394 H 4837.4 3.09202 0.459649 0
M  V30 47395 H 4836.62 3.39234 -2.00784 0
M  V30 47396 H 4837.91 4.59811 -2.17833 0
M  V30 47397 H 4837.31 5.59384 0.842999 0
M  V30 47398 H 4835.87 6.49128 0.589566 0
M  V30 47399 N 4839.3 1.02428 1.19776 0
M  V30 47400 C 4840.53 0.737524 1.93309 0
M  V30 47401 C 4840.94 -0.702961 1.75225 0
M  V30 47402 O 4840.3 -1.47757 1.07117 0
M  V30 47403 C 4840.35 1.07342 3.45196 0
M  V30 47404 O 4840.07 2.45733 3.62694 0
M  V30 47405 C 4841.57 0.808813 4.35859 0
M  V30 47406 H 4838.79 0.270221 0.614183 0
M  V30 47407 H 4841.34 1.36752 1.52049 0
M  V30 47408 H 4839.49 0.48868 3.84305 0
M  V30 47409 H 4839.91 2.58097 4.56603 0
M  V30 47410 H 4841.38 1.09384 5.41054 0
M  V30 47411 H 4841.86 -0.256871 4.38448 0
M  V30 47412 H 4842.46 1.37606 4.02423 0
M  V30 47413 N 4840.78 -1.35696 0.801525 0
M  V30 47414 C 4842.19 -1.81414 0.441137 0
M  V30 47415 C 4842.54 -1.66599 -1.0363 0
M  V30 47416 O 4841.66 -1.19376 -1.80495 0
M  V30 47417 C 4842.26 -3.29366 0.793935 0
M  V30 47418 C 4840.82 -3.73246 0.486214 0
M  V30 47419 C 4839.97 -2.57771 1.02222 0
M  V30 47420 H 4842.92 -1.23746 0.993615 0
M  V30 47421 H 4842.94 -3.80395 0.0895496 0
M  V30 47422 H 4842.45 -3.40117 1.86928 0
M  V30 47423 H 4840.55 -3.68049 -0.580606 0
M  V30 47424 H 4840.66 -4.68218 1.0153 0
M  V30 47425 H 4839.03 -2.50786 0.4448 0
M  V30 47426 H 4839.81 -2.71302 2.10357 0
M  V30 47427 N 4842.26 -0.554584 -1.4752 0
M  V30 47428 C 4843.48 -0.0343298 -2.06872 0
M  V30 47429 C 4843.9 1.25822 -1.40764 0
M  V30 47430 O 4843.26 1.75423 -0.503278 0
M  V30 47431 C 4843.31 0.1677 -3.61111 0
M  V30 47432 O 4843.03 -1.07366 -4.2474 0
M  V30 47433 C 4844.53 0.725536 -4.37322 0
M  V30 47434 H 4841.75 -0.044651 -0.669513 0
M  V30 47435 H 4844.29 -0.767247 -1.89562 0
M  V30 47436 H 4842.45 0.850739 -3.77943 0
M  V30 47437 H 4842.86 -0.869745 -5.17239 0
M  V30 47438 H 4844.34 0.816202 -5.45932 0
M  V30 47439 H 4844.81 1.73621 -4.03426 0
M  V30 47440 H 4845.42 0.0782797 -4.25228 0
M  V30 47441 N 4843.73 1.54892 -0.290906 0
M  V30 47442 C 4844.96 2.04344 0.324216 0
M  V30 47443 C 4845.38 1.16864 1.48285 0
M  V30 47444 O 4844.73 0.192082 1.81486 0
M  V30 47445 C 4844.78 3.52759 0.790136 0
M  V30 47446 O 4844.51 4.36912 -0.322367 0
M  V30 47447 C 4846.01 4.18166 1.47145 0
M  V30 47448 H 4843.23 0.667137 0.0718939 0
M  V30 47449 H 4845.77 1.9998 -0.4276 0
M  V30 47450 H 4843.93 3.57517 1.492 0
M  V30 47451 H 4844.34 5.24486 0.0385529 0
M  V30 47452 H 4845.81 5.23568 1.74872 0
M  V30 47453 H 4846.29 3.6729 2.40821 0
M  V30 47454 H 4846.9 4.17456 0.813031 0
M  V30 47455 N 4845.21 0.018448 1.57589 0
M  V30 47456 C 4846.44 -0.672978 1.95649 0
M  V30 47457 C 4846.85 -1.66272 0.89437 0
M  V30 47458 O 4846.21 -1.82072 -0.124911 0
M  V30 47459 C 4846.26 -1.38873 3.33761 0
M  V30 47460 O 4845.98 -0.438652 4.35898 0
M  V30 47461 C 4847.48 -2.17296 3.8639 0
M  V30 47462 H 4844.7 -0.186269 0.644628 0
M  V30 47463 H 4847.25 0.0750466 2.04362 0
M  V30 47464 H 4845.4 -2.08823 3.263 0
M  V30 47465 H 4845.82 -0.945687 5.15904 0
M  V30 47466 H 4847.29 -2.62846 4.85403 0
M  V30 47467 H 4847.77 -3.00753 3.20069 0
M  V30 47468 H 4848.37 -1.52325 3.97086 0
M  V30 47469 N 4846.69 -1.5553 -0.254567 0
M  V30 47470 C 4848.1 -1.67521 -0.824227 0
M  V30 47471 C 4848.45 -0.614494 -1.86329 0
M  V30 47472 O 4847.58 0.240661 -2.15058 0
M  V30 47473 C 4848.17 -3.03697 -1.50178 0
M  V30 47474 C 4846.73 -3.17653 -2.01924 0
M  V30 47475 C 4845.88 -2.63376 -0.867653 0
M  V30 47476 H 4848.83 -1.58671 -0.0305285 0
M  V30 47477 H 4848.85 -2.97715 -2.36952 0
M  V30 47478 H 4848.36 -3.80877 -0.745297 0
M  V30 47479 H 4846.46 -2.45283 -2.80477 0
M  V30 47480 H 4846.58 -4.24463 -2.22189 0
M  V30 47481 H 4844.94 -2.21003 -1.26608 0
M  V30 47482 H 4845.72 -3.43075 -0.124377 0
M  V30 47483 N 4848.17 0.519898 -1.48778 0
M  V30 47484 C 4849.42 1.27169 -1.56559 0
M  V30 47485 C 4849.73 1.94009 -0.248938 0
M  V30 47486 O 4850.94 2.70724 -0.205099 0
M  V30 47487 C 4849.39 2.30801 -2.7615 0
M  V30 47488 C 4849 1.69985 -4.14499 0
M  V30 47489 C 4850.74 3.06927 -2.93251 0
M  V30 47490 C 4848.65 2.71617 -5.25336 0
M  V30 47491 H 4847.58 0.478308 -0.58287 0
M  V30 47492 H 4850.23 0.547854 -1.75131 0
M  V30 47493 H 4848.61 3.06265 -2.51033 0
M  V30 47494 H 4849.79 1.00642 -4.49675 0
M  V30 47495 H 4848.1 1.06316 -4.02599 0
M  V30 47496 H 4850.7 3.82892 -3.73226 0
M  V30 47497 H 4851.04 3.63402 -2.03088 0
M  V30 47498 H 4851.58 2.38578 -3.18316 0
M  V30 47499 H 4848.31 2.19948 -6.17497 0
M  V30 47500 H 4847.83 3.39257 -4.94636 0
M  V30 47501 H 4849.51 3.3441 -5.53876 0
M  V30 47502 N 4849.65 1.37535 0.769539 0
M  V30 47503 C 4850.87 1.36064 1.55866 0
M  V30 47504 C 4851.29 -0.0534777 1.88724 0
M  V30 47505 O 4850.65 -1.01586 1.51613 0
M  V30 47506 C 4850.7 2.20117 2.86759 0
M  V30 47507 O 4850.42 3.56018 2.55309 0
M  V30 47508 C 4851.92 2.2665 3.80979 0
M  V30 47509 H 4849.14 0.465984 0.482805 0
M  V30 47510 H 4851.68 1.80904 0.953623 0
M  V30 47511 H 4849.84 1.7878 3.43681 0
M  V30 47512 H 4850.25 4.00102 3.39144 0
M  V30 47513 H 4851.73 2.89779 4.69821 0
M  V30 47514 H 4852.2 1.27555 4.20269 0
M  V30 47515 H 4852.81 2.68308 3.29986 0
M  V30 47516 N 4851.12 -0.995956 1.22141 0
M  V30 47517 C 4852.35 -1.77062 1.07035 0
M  V30 47518 C 4852.77 -1.84951 -0.379292 0
M  V30 47519 O 4852.12 -1.31744 -1.26292 0
M  V30 47520 C 4852.18 -3.20527 1.67166 0
M  V30 47521 O 4851.9 -3.13071 3.0646 0
M  V30 47522 C 4853.4 -4.14456 1.57294 0
M  V30 47523 H 4850.62 -0.556166 0.375394 0
M  V30 47524 H 4853.16 -1.25232 1.6167 0
M  V30 47525 H 4851.32 -3.69436 1.16602 0
M  V30 47526 H 4851.73 -4.03271 3.35369 0
M  V30 47527 H 4853.2 -5.12883 2.04096 0
M  V30 47528 H 4853.68 -4.36003 0.528948 0
M  V30 47529 H 4854.29 -3.71442 2.07149 0
M  V30 47530 N 4852.6 -1.03061 -1.19231 0
M  V30 47531 C 4853.83 -0.747765 -1.92915 0
M  V30 47532 C 4854.25 0.693659 -1.75596 0
M  V30 47533 O 4853.6 1.47187 -1.07899 0
M  V30 47534 C 4853.65 -1.09171 -3.44621 0
M  V30 47535 O 4853.37 -2.47653 -3.61386 0
M  V30 47536 C 4854.88 -0.831917 -4.35424 0
M  V30 47537 H 4852.1 -0.273475 -0.612742 0
M  V30 47538 H 4854.64 -1.37557 -1.51322 0
M  V30 47539 H 4852.79 -0.509054 -3.84041 0
M  V30 47540 H 4853.21 -2.60515 -4.55227 0
M  V30 47541 H 4854.68 -1.12252 -5.40466 0
M  V30 47542 H 4855.16 0.233615 -4.38578 0
M  V30 47543 H 4855.77 -1.39739 -4.01688 0
M  V30 47544 N 4854.08 1.35269 -0.80871 0
M  V30 47545 C 4855.31 2.02945 -0.402608 0
M  V30 47546 C 4855.72 1.60941 0.987091 0
M  V30 47547 O 4855.08 0.807975 1.6364 0
M  V30 47548 C 4855.13 3.58315 -0.478806 0
M  V30 47549 O 4854.85 3.98793 -1.81372 0
M  V30 47550 C 4856.35 4.43251 -0.065784 0
M  V30 47551 H 4853.57 0.650825 -0.163302 0
M  V30 47552 H 4856.12 1.72845 -1.09292 0
M  V30 47553 H 4854.27 3.87056 0.163279 0
M  V30 47554 H 4854.69 4.93445 -1.77799 0
M  V30 47555 H 4856.16 5.51738 -0.170211 0
M  V30 47556 H 4856.64 4.27917 0.989128 0
M  V30 47557 H 4857.24 4.19811 -0.681108 0
M  V30 47558 N 4855.56 0.5624 1.47224 0
M  V30 47559 C 4856.79 0.0453002 2.0685 0
M  V30 47560 C 4857.2 -1.25073 1.41429 0
M  V30 47561 O 4856.56 -1.75154 0.512574 0
M  V30 47562 C 4856.61 -0.148547 3.61195 0
M  V30 47563 O 4856.33 1.09617 4.24165 0
M  V30 47564 C 4857.83 -0.702334 4.37701 0
M  V30 47565 H 4855.05 0.048201 0.669267 0
M  V30 47566 H 4857.6 0.777289 1.89152 0
M  V30 47567 H 4855.75 -0.830684 3.78389 0
M  V30 47568 H 4856.16 0.897163 5.1677 0
M  V30 47569 H 4857.64 -0.787238 5.46358 0
M  V30 47570 H 4858.12 -1.71479 4.04341 0
M  V30 47571 H 4858.72 -0.0557277 4.25263 0
M  V30 47572 N 4857.04 -1.54735 0.299116 0
M  V30 47573 C 4858.28 -2.00398 -0.311174 0
M  V30 47574 C 4858.62 -1.18722 -1.53684 0
M  V30 47575 O 4857.89 -0.263222 -1.92711 0
M  V30 47576 C 4858.17 -3.53819 -0.669636 0
M  V30 47577 C 4858.03 -4.46237 0.565039 0
M  V30 47578 C 4859.35 -4.13862 -1.49688 0
M  V30 47579 H 4856.46 -0.728497 -0.111628 0
M  V30 47580 H 4859.11 -1.85505 0.410839 0
M  V30 47581 H 4857.26 -3.66641 -1.28478 0
M  V30 47582 H 4858.93 -4.45323 1.20352 0
M  V30 47583 H 4857.17 -4.16912 1.19863 0
M  V30 47584 H 4857.84 -5.51339 0.270112 0
M  V30 47585 H 4860.32 -4.04464 -0.977142 0
M  V30 47586 H 4859.19 -5.21372 -1.71648 0
M  V30 47587 H 4859.46 -3.65616 -2.4855 0
M  V30 47588 N 4858.51 -0.0268051 -1.57577 0
M  V30 47589 C 4859.74 0.662592 -1.96003 0
M  V30 47590 C 4860.16 1.65796 -0.903176 0
M  V30 47591 O 4859.51 1.82136 0.115253 0
M  V30 47592 C 4859.57 1.37101 -3.34493 0
M  V30 47593 O 4859.29 0.415529 -4.36125 0
M  V30 47594 C 4860.79 2.15244 -3.87537 0
M  V30 47595 H 4858.01 0.182848 -0.645606 0
M  V30 47596 H 4860.55 -0.0858834 -2.0432 0
M  V30 47597 H 4858.71 2.0709 -3.27403 0
M  V30 47598 H 4859.12 0.918314 -5.16398 0
M  V30 47599 H 4860.59 2.60268 -4.8679 0
M  V30 47600 H 4861.07 2.99051 -3.2166 0
M  V30 47601 H 4861.68 1.50217 -3.97888 0
M  V30 47602 N 4859.99 1.55663 0.246315 0
M  V30 47603 C 4861.4 1.67956 0.815331 0
M  V30 47604 C 4861.75 0.624367 1.86 0
M  V30 47605 O 4860.88 -0.229252 2.15182 0
M  V30 47606 C 4861.47 3.04489 1.48565 0
M  V30 47607 C 4860.03 3.1872 2.00236 0
M  V30 47608 C 4859.18 2.63833 0.853674 0
M  V30 47609 H 4862.13 1.58685 0.0221134 0
M  V30 47610 H 4862.15 2.98967 2.3537 0
M  V30 47611 H 4861.66 3.81266 0.725088 0
M  V30 47612 H 4859.77 2.46767 2.79172 0
M  V30 47613 H 4859.88 4.25635 2.19935 0
M  V30 47614 H 4858.24 2.21672 1.25434 0
M  V30 47615 H 4859.03 3.43136 0.106181 0
M  V30 47616 N 4861.47 -0.512001 1.49051 0
M  V30 47617 C 4862.7 -1.2911 1.61673 0
M  V30 47618 C 4863.11 -1.86654 0.283853 0
M  V30 47619 O 4862.47 -1.67296 -0.729272 0
M  V30 47620 C 4862.52 -2.42921 2.67716 0
M  V30 47621 O 4862.24 -1.87744 3.95833 0
M  V30 47622 C 4863.74 -3.34466 2.90942 0
M  V30 47623 H 4860.96 -0.39199 0.544596 0
M  V30 47624 H 4863.51 -0.615812 1.95008 0
M  V30 47625 H 4861.66 -3.063 2.3719 0
M  V30 47626 H 4862.08 -2.62377 4.54157 0
M  V30 47627 H 4863.55 -4.10629 3.689 0
M  V30 47628 H 4864.03 -3.90794 2.0044 0
M  V30 47629 H 4864.63 -2.76863 3.22842 0
M  V30 47630 N 4862.95 -1.37941 -0.762235 0
M  V30 47631 C 4864.36 -1.30099 -1.33907 0
M  V30 47632 C 4864.71 0.0471336 -1.96143 0
M  V30 47633 O 4863.84 0.949102 -1.94476 0
M  V30 47634 C 4864.43 -2.35601 -2.4347 0
M  V30 47635 C 4862.99 -2.31364 -2.96897 0
M  V30 47636 C 4862.14 -2.18925 -1.70197 0
M  V30 47637 H 4865.09 -1.48425 -0.561764 0
M  V30 47638 H 4865.11 -2.00817 -3.23192 0
M  V30 47639 H 4864.62 -3.33708 -1.98144 0
M  V30 47640 H 4862.72 -1.36811 -3.46574 0
M  V30 47641 H 4862.83 -3.25159 -3.51864 0
M  V30 47642 H 4861.2 -1.6563 -1.93491 0
M  V30 47643 H 4861.98 -3.1896 -1.26961 0
M  V30 47644 N 4864.43 0.989464 -1.22668 0
M  V30 47645 C 4865.66 1.76492 -1.07973 0
M  V30 47646 C 4866.07 1.85149 0.369478 0
M  V30 47647 O 4865.43 1.32412 1.25592 0
M  V30 47648 C 4865.48 3.19636 -1.68864 0
M  V30 47649 O 4865.2 3.11442 -3.08116 0
M  V30 47650 C 4866.7 4.13616 -1.5949 0
M  V30 47651 H 4863.92 0.554167 -0.378338 0
M  V30 47652 H 4866.46 1.24373 -1.62332 0
M  V30 47653 H 4864.62 3.68812 -1.1856 0
M  V30 47654 H 4865.03 4.01487 -3.37503 0
M  V30 47655 H 4866.51 5.11793 -2.06813 0
M  V30 47656 H 4866.98 4.35717 -0.552063 0
M  V30 47657 H 4867.59 3.70338 -2.09116 0
M  V30 47658 N 4865.91 1.03692 1.18683 0
M  V30 47659 C 4867.32 0.766548 1.70238 0
M  V30 47660 C 4867.67 -0.712987 1.82787 0
M  V30 47661 O 4866.79 -1.55524 1.5047 0
M  V30 47662 C 4867.39 1.38485 3.09204 0
M  V30 47663 C 4865.95 1.16288 3.57986 0
M  V30 47664 C 4865.09 1.47788 2.34636 0
M  V30 47665 H 4868.04 1.20382 1.03411 0
M  V30 47666 H 4868.07 0.78607 3.72292 0
M  V30 47667 H 4867.58 2.46167 3.00039 0
M  V30 47668 H 4865.68 0.104639 3.72453 0
M  V30 47669 H 4865.79 1.85726 4.41636 0
M  V30 47670 H 4864.16 0.89745 2.38365 0
M  V30 47671 H 4864.94 2.5657 2.28093 0
M  V30 47672 N 4867.38 -1.34838 0.815872 0
M  V30 47673 C 4868.61 -2.02729 0.413365 0
M  V30 47674 C 4869.03 -1.61462 -0.978542 0
M  V30 47675 O 4868.38 -0.816642 -1.63209 0
M  V30 47676 C 4868.43 -3.58056 0.497802 0
M  V30 47677 O 4868.16 -3.97826 1.83484 0
M  V30 47678 C 4869.66 -4.4321 0.0892897 0
M  V30 47679 H 4866.88 -0.64995 0.166751 0
M  V30 47680 H 4869.42 -1.72263 1.10207 0
M  V30 47681 H 4867.58 -3.87137 -0.14275 0
M  V30 47682 H 4867.99 -4.92495 1.80413 0
M  V30 47683 H 4869.46 -5.51639 0.199468 0
M  V30 47684 H 4869.94 -4.28435 -0.96642 0
M  V30 47685 H 4870.55 -4.19444 0.703362 0
M  V30 47686 N 4868.86 -0.570199 -1.46923 0
M  V30 47687 C 4870.11 -0.0509233 -2.02036 0
M  V30 47688 C 4870.43 1.3088 -1.44552 0
M  V30 47689 O 4869.7 1.85645 -0.625519 0
M  V30 47690 H 4868.28 -0.015835 -0.746832 0
M  V30 47691 H 4870.94 -0.743149 -1.80176 0
M  V30 47692 H 4870.04 0.0274652 -3.12088 0
M  V30 47693 N 4870.34 1.54575 -0.307318 0
M  V30 47694 C 4871.57 2.04676 0.302525 0
M  V30 47695 C 4871.98 1.1843 1.47037 0
M  V30 47696 O 4871.34 0.211321 1.81272 0
M  V30 47697 C 4871.39 3.53577 0.752677 0
M  V30 47698 O 4871.11 4.36546 -0.368689 0
M  V30 47699 C 4872.61 4.19704 1.42702 0
M  V30 47700 H 4869.83 0.667862 0.064814 0
M  V30 47701 H 4872.38 1.99515 -0.448786 0
M  V30 47702 H 4870.53 3.59079 1.454 0
M  V30 47703 H 4870.95 5.24497 -0.0170781 0
M  V30 47704 H 4872.42 5.25394 1.69309 0
M  V30 47705 H 4872.9 3.69824 2.36912 0
M  V30 47706 H 4873.5 4.18295 0.768709 0
M  V30 47707 N 4871.82 0.0351614 1.57561 0
M  V30 47708 C 4872.75 -0.973531 2.07497 0
M  V30 47709 C 4873.76 -1.285 0.99958 0
M  V30 47710 O 4874.95 -1.24859 1.27563 0
M  V30 47711 C 4872.05 -2.29936 2.48963 0
M  V30 47712 C 4871.22 -2.17217 3.79652 0
M  V30 47713 C 4870.28 -3.32785 4.07603 0
M  V30 47714 O 4869.31 -3.09402 4.77765 0
M  V30 47715 N 4870.51 -4.56766 3.58252 0
M  V30 47716 H 4873.28 -0.547421 2.94658 0
M  V30 47717 H 4870.84 -0.151458 1.6119 0
M  V30 47718 H 4872.83 -3.06087 2.6475 0
M  V30 47719 H 4871.4 -2.64167 1.67136 0
M  V30 47720 H 4870.62 -1.25755 3.73603 0
M  V30 47721 H 4871.91 -2.05929 4.65264 0
M  V30 47722 H 4871.31 -4.78657 3.01502 0
M  V30 47723 H 4869.86 -5.30066 3.79307 0
M  V30 47724 N 4873.3 -1.55792 -0.238056 0
M  V30 47725 C 4874.52 -1.82102 -0.982169 0
M  V30 47726 C 4874.94 -0.612088 -1.78603 0
M  V30 47727 O 4874.3 0.419319 -1.77617 0
M  V30 47728 C 4874.35 -3.06737 -1.91298 0
M  V30 47729 O 4874.07 -4.22964 -1.14164 0
M  V30 47730 C 4875.57 -3.45912 -2.77235 0
M  V30 47731 H 4872.79 -0.605758 -0.288614 0
M  V30 47732 H 4875.33 -2.02863 -0.258269 0
M  V30 47733 H 4873.49 -2.88 -2.59104 0
M  V30 47734 H 4873.9 -4.93659 -1.77202 0
M  V30 47735 H 4875.38 -4.362 -3.3828 0
M  V30 47736 H 4875.85 -2.66903 -3.48797 0
M  V30 47737 H 4876.46 -3.67031 -2.14868 0
M  V30 47738 N 4874.77 0.504089 -1.49321 0
M  V30 47739 C 4876.18 1.08567 -1.51889 0
M  V30 47740 C 4876.54 1.93841 -0.303323 0
M  V30 47741 O 4875.66 2.08282 0.587166 0
M  V30 47742 C 4876.26 1.97564 -2.75234 0
M  V30 47743 C 4874.81 2.5089 -2.8059 0
M  V30 47744 C 4873.96 1.28439 -2.45762 0
M  V30 47745 H 4876.91 0.288139 -1.56062 0
M  V30 47746 H 4876.93 2.8221 -2.55221 0
M  V30 47747 H 4876.45 1.35473 -3.63688 0
M  V30 47748 H 4874.55 3.16629 -1.96409 0
M  V30 47749 H 4874.66 2.88254 -3.82683 0
M  V30 47750 H 4873.02 1.60861 -1.97474 0
M  V30 47751 H 4873.81 0.680602 -3.36486 0
M  V30 47752 N 4876.25 1.38343 0.754909 0
M  V30 47753 C 4877.48 1.3771 1.54414 0
M  V30 47754 C 4877.89 -0.0334579 1.8877 0
M  V30 47755 O 4877.25 -0.99972 1.52682 0
M  V30 47756 C 4877.3 2.23146 2.84408 0
M  V30 47757 O 4877.02 3.58706 2.51518 0
M  V30 47758 C 4878.52 2.30678 3.78553 0
M  V30 47759 H 4875.74 0.471078 0.477835 0
M  V30 47760 H 4878.29 1.81905 0.934382 0
M  V30 47761 H 4876.44 1.82415 3.41765 0
M  V30 47762 H 4876.86 4.03676 3.34882 0
M  V30 47763 H 4878.33 2.94746 4.66721 0
M  V30 47764 H 4878.81 1.32005 4.18893 0
M  V30 47765 H 4879.41 2.71793 3.27122 0
M  V30 47766 N 4877.73 -0.982945 1.23191 0
M  V30 47767 C 4878.96 -1.75917 1.08907 0
M  V30 47768 C 4879.37 -1.85343 -0.359654 0
M  V30 47769 O 4878.73 -1.33076 -1.24888 0
M  V30 47770 C 4878.78 -3.18736 1.70557 0
M  V30 47771 O 4878.5 -3.09803 3.09764 0
M  V30 47772 C 4880 -4.12764 1.61681 0
M  V30 47773 H 4877.22 -0.552153 0.381272 0
M  V30 47774 H 4879.77 -1.2351 1.62989 0
M  V30 47775 H 4877.92 -3.68178 1.20514 0
M  V30 47776 H 4878.34 -3.99692 3.39628 0
M  V30 47777 H 4879.81 -5.10689 2.09524 0
M  V30 47778 H 4880.29 -4.35418 0.575162 0
M  V30 47779 H 4880.89 -3.69224 2.11077 0
M  V30 47780 N 4879.21 -1.0432 -1.18132 0
M  V30 47781 C 4880.44 -0.768184 -1.92111 0
M  V30 47782 C 4880.85 0.674995 -1.76321 0
M  V30 47783 O 4880.21 1.46034 -1.09454 0
M  V30 47784 C 4880.26 -1.1282 -3.43444 0
M  V30 47785 O 4879.98 -2.51472 -3.58739 0
M  V30 47786 C 4881.48 -0.878052 -4.34517 0
M  V30 47787 H 4878.7 -0.279958 -0.609807 0
M  V30 47788 H 4881.25 -1.39154 -1.49855 0
M  V30 47789 H 4879.4 -0.549758 -3.83479 0
M  V30 47790 H 4879.81 -2.65329 -4.52439 0
M  V30 47791 H 4881.29 -1.17978 -5.39245 0
M  V30 47792 H 4881.77 0.187085 -4.38801 0
M  V30 47793 H 4882.37 -1.43991 -4.00183 0
M  V30 47794 N 4880.69 1.34403 -0.823012 0
M  V30 47795 C 4882.1 1.80689 -0.469942 0
M  V30 47796 C 4882.45 1.68227 1.00967 0
M  V30 47797 O 4881.57 1.22232 1.78573 0
M  V30 47798 C 4882.17 3.28061 -0.846234 0
M  V30 47799 C 4880.73 3.72426 -0.545533 0
M  V30 47800 C 4879.87 2.56112 -1.0631 0
M  V30 47801 H 4882.83 1.22149 -1.01318 0
M  V30 47802 H 4882.85 3.80204 -0.150056 0
M  V30 47803 H 4882.36 3.371 -1.92316 0
M  V30 47804 H 4880.46 3.68926 0.521979 0
M  V30 47805 H 4880.57 4.66544 -1.08966 0
M  V30 47806 H 4878.94 2.50047 -0.484641 0
M  V30 47807 H 4879.72 2.67921 -2.14647 0
M  V30 47808 N 4882.16 0.577983 1.46619 0
M  V30 47809 C 4883.41 0.0594989 2.01612 0
M  V30 47810 C 4883.73 -1.30658 1.45561 0
M  V30 47811 O 4884.93 -1.91614 1.92344 0
M  V30 47812 C 4883.39 0.0557931 3.59857 0
M  V30 47813 C 4883 1.4199 4.24903 0
M  V30 47814 C 4884.74 -0.408994 4.22525 0
M  V30 47815 C 4882.65 1.37417 5.75213 0
M  V30 47816 H 4881.58 0.0184734 0.753774 0
M  V30 47817 H 4884.23 0.728928 1.68401 0
M  V30 47818 H 4882.61 -0.679706 3.90123 0
M  V30 47819 H 4883.78 2.17475 4.06253 0
M  V30 47820 H 4882.1 1.82432 3.74309 0
M  V30 47821 H 4884.7 -0.461923 5.32701 0
M  V30 47822 H 4885.04 -1.42552 3.91133 0
M  V30 47823 H 4885.57 0.272292 3.96867 0
M  V30 47824 H 4882.31 2.36735 6.11258 0
M  V30 47825 H 4881.83 0.661449 5.96142 0
M  V30 47826 H 4883.51 1.08506 6.37836 0
M  V30 47827 N 4883.64 -1.54409 0.315511 0
M  V30 47828 C 4884.87 -2.04834 -0.291666 0
M  V30 47829 C 4885.29 -1.19208 -1.46407 0
M  V30 47830 O 4884.64 -0.220931 -1.81158 0
M  V30 47831 C 4884.69 -3.53972 -0.733916 0
M  V30 47832 O 4884.41 -4.36344 0.391835 0
M  V30 47833 C 4885.92 -4.20454 -1.40474 0
M  V30 47834 H 4883.14 -0.668197 -0.0612712 0
M  V30 47835 H 4885.68 -1.99274 0.45936 0
M  V30 47836 H 4883.83 -3.59845 -1.43493 0
M  V30 47837 H 4884.25 -5.24481 0.0448932 0
M  V30 47838 H 4885.72 -5.26284 -1.6652 0
M  V30 47839 H 4886.2 -3.71075 -2.34947 0
M  V30 47840 H 4886.81 -4.18697 -0.746515 0
M  V30 47841 N 4885.12 -0.0435168 -1.5754 0
M  V30 47842 C 4886.35 0.641766 -1.96695 0
M  V30 47843 C 4886.76 1.64828 -0.92071 0
M  V30 47844 O 4886.12 1.82248 0.0959289 0
M  V30 47845 C 4886.17 1.33545 -3.35928 0
M  V30 47846 O 4885.89 0.369249 -4.36541 0
M  V30 47847 C 4887.39 2.11121 -3.89798 0
M  V30 47848 H 4884.61 0.17599 -0.647509 0
M  V30 47849 H 4887.16 -0.107549 -2.04217 0
M  V30 47850 H 4885.31 2.03606 -3.29581 0
M  V30 47851 H 4885.73 0.863492 -5.17343 0
M  V30 47852 H 4887.2 2.5509 -4.89523 0
M  V30 47853 H 4887.68 2.95623 -3.24813 0
M  V30 47854 H 4888.28 1.45988 -3.99459 0
M  V30 47855 N 4886.6 1.55916 0.229791 0
M  V30 47856 C 4887.83 1.8262 0.972498 0
M  V30 47857 C 4888.24 0.621551 1.78276 0
M  V30 47858 O 4887.6 -0.409893 1.77837 0
M  V30 47859 C 4887.65 3.07747 1.89668 0
M  V30 47860 O 4887.37 4.23563 1.11919 0
M  V30 47861 C 4888.87 3.47378 2.75397 0
M  V30 47862 H 4886.09 0.60728 0.285397 0
M  V30 47863 H 4888.64 2.02997 0.247507 0
M  V30 47864 H 4886.79 2.8937 2.57573 0
M  V30 47865 H 4887.2 4.94592 1.74582 0
M  V30 47866 H 4888.68 4.37988 3.35962 0
M  V30 47867 H 4889.16 2.68749 3.47377 0
M  V30 47868 H 4889.76 3.68165 2.12919 0
M  V30 47869 N 4888.08 -0.496163 1.49586 0
M  V30 47870 C 4889.3 -1.27388 1.63033 0
M  V30 47871 C 4889.72 -1.86342 0.303634 0
M  V30 47872 O 4889.08 -1.6806 -0.711487 0
M  V30 47873 C 4889.13 -2.40067 2.70277 0
M  V30 47874 O 4888.85 -1.83535 3.97802 0
M  V30 47875 C 4890.35 -3.31361 2.94473 0
M  V30 47876 H 4887.57 -0.386191 0.548723 0
M  V30 47877 H 4890.11 -0.595095 1.9565 0
M  V30 47878 H 4888.27 -3.03767 2.40426 0
M  V30 47879 H 4888.68 -2.57545 4.56914 0
M  V30 47880 H 4890.16 -4.06694 3.73235 0
M  V30 47881 H 4890.63 -3.88647 2.04574 0
M  V30 47882 H 4891.24 -2.73423 3.2576 0
M  V30 47883 N 4889.55 -1.38742 -0.747561 0
M  V30 47884 C 4890.78 -1.38527 -1.53682 0
M  V30 47885 C 4891.2 0.0234465 -1.88785 0
M  V30 47886 O 4890.55 0.991609 -1.5321 0
M  V30 47887 C 4890.61 -2.24651 -2.83221 0
M  V30 47888 O 4890.33 -3.60035 -2.49612 0
M  V30 47889 C 4891.83 -2.32682 -3.77325 0
M  V30 47890 H 4889.05 -0.473606 -0.47533 0
M  V30 47891 H 4891.59 -1.82398 -0.924722 0
M  V30 47892 H 4889.75 -1.84225 -3.40793 0
M  V30 47893 H 4890.16 -4.05447 -3.32736 0
M  V30 47894 H 4891.63 -2.97217 -4.65152 0
M  V30 47895 H 4892.11 -1.34225 -4.18187 0
M  V30 47896 H 4892.72 -2.73524 -3.25676 0
M  V30 47897 N 4891.03 0.976398 -1.2371 0
M  V30 47898 C 4892.28 1.72077 -1.07318 0
M  V30 47899 C 4892.61 1.90276 0.388409 0
M  V30 47900 O 4891.89 1.45794 1.28741 0
M  V30 47901 C 4892.17 3.11669 -1.80374 0
M  V30 47902 C 4892.02 3.01015 -3.3423 0
M  V30 47903 C 4893.34 4.11165 -1.56944 0
M  V30 47904 H 4890.46 0.624569 -0.391258 0
M  V30 47905 H 4893.1 1.13644 -1.52267 0
M  V30 47906 H 4891.25 3.61554 -1.42166 0
M  V30 47907 H 4892.92 2.58623 -3.81984 0
M  V30 47908 H 4891.17 2.37428 -3.63057 0
M  V30 47909 H 4891.84 3.99867 -3.8054 0
M  V30 47910 H 4894.31 3.70104 -1.90164 0
M  V30 47911 H 4893.19 5.0692 -2.10531 0
M  V30 47912 H 4893.45 4.39198 -0.505702 0
M  V30 47913 N 4892.51 1.04945 1.17577 0
M  V30 47914 C 4893.74 0.778362 1.91701 0
M  V30 47915 C 4894.15 -0.665635 1.76677 0
M  V30 47916 O 4893.51 -1.45452 1.10227 0
M  V30 47917 C 4893.56 1.1464 3.42841 0
M  V30 47918 O 4893.28 2.53371 3.574 0
M  V30 47919 C 4894.78 0.901083 4.34045 0
M  V30 47920 H 4892 0.283188 0.608314 0
M  V30 47921 H 4894.55 1.39947 1.49114 0
M  V30 47922 H 4892.7 0.570087 3.83182 0
M  V30 47923 H 4893.12 2.67725 4.51025 0
M  V30 47924 H 4894.59 1.20836 5.38612 0
M  V30 47925 H 4895.07 -0.163812 4.38894 0
M  V30 47926 H 4895.67 1.46112 3.99414 0
M  V30 47927 N 4893.99 -1.33965 0.830128 0
M  V30 47928 C 4895.4 -1.80437 0.479518 0
M  V30 47929 C 4895.75 -1.6876 -1.00073 0
M  V30 47930 O 4894.88 -1.23177 -1.77922 0
M  V30 47931 C 4895.47 -3.27608 0.86362 0
M  V30 47932 C 4894.03 -3.72131 0.565276 0
M  V30 47933 C 4893.18 -2.55545 1.07666 0
M  V30 47934 H 4896.13 -1.2161 1.01964 0
M  V30 47935 H 4896.15 -3.80119 0.170217 0
M  V30 47936 H 4895.66 -3.36075 1.94101 0
M  V30 47937 H 4893.76 -3.69197 -0.502407 0
M  V30 47938 H 4893.88 -4.6596 1.11439 0
M  V30 47939 H 4892.24 -2.49786 0.497895 0
M  V30 47940 H 4893.02 -2.66779 2.16065 0
M  V30 47941 N 4895.47 -0.585751 -1.4631 0
M  V30 47942 C 4896.7 -0.0782026 -2.06752 0
M  V30 47943 C 4897.11 1.22807 -1.43401 0
M  V30 47944 O 4896.47 1.74316 -0.540375 0
M  V30 47945 C 4896.52 0.0910657 -3.61385 0
M  V30 47946 O 4896.24 -1.16351 -4.22367 0
M  V30 47947 C 4897.74 0.632611 -4.38763 0
M  V30 47948 H 4894.96 -0.0588423 -0.668415 0
M  V30 47949 H 4897.5 -0.807284 -1.87891 0
M  V30 47950 H 4895.66 0.77038 -3.79663 0
M  V30 47951 H 4896.07 -0.979264 -5.15277 0
M  V30 47952 H 4897.55 0.700218 -5.47541 0
M  V30 47953 H 4898.02 1.65024 -4.07018 0
M  V30 47954 H 4898.63 -0.0119351 -4.25298 0
M  V30 47955 N 4896.95 1.5424 -0.323695 0
M  V30 47956 C 4898.36 1.85975 0.16434 0
M  V30 47957 C 4898.71 1.24534 1.5161 0
M  V30 47958 O 4897.83 0.551425 2.09256 0
M  V30 47959 C 4898.43 3.37425 0.304972 0
M  V30 47960 C 4896.99 3.6911 0.737228 0
M  V30 47961 C 4896.13 2.76941 -0.140981 0
M  V30 47962 H 4899.08 1.49086 -0.543974 0
M  V30 47963 H 4899.11 3.63151 1.13585 0
M  V30 47964 H 4898.62 3.82114 -0.67901 0
M  V30 47965 H 4896.72 3.29953 1.73095 0
M  V30 47966 H 4896.83 4.76037 0.540886 0
M  V30 47967 H 4895.2 2.51797 0.383483 0
M  V30 47968 H 4895.98 3.24457 -1.12173 0
M  V30 47969 N 4898.42 0.0518709 1.57515 0
M  V30 47970 C 4899.65 -0.631326 1.97033 0
M  V30 47971 C 4900.07 -1.64338 0.929438 0
M  V30 47972 O 4899.42 -1.82296 -0.0862625 0
M  V30 47973 C 4899.47 -1.31762 3.36632 0
M  V30 47974 O 4899.2 -0.346093 4.36731 0
M  V30 47975 C 4900.7 -2.09051 3.90912 0
M  V30 47976 H 4897.92 -0.172554 0.648434 0
M  V30 47977 H 4900.46 0.118378 2.04157 0
M  V30 47978 H 4898.62 -2.01855 3.30656 0
M  V30 47979 H 4899.03 -0.836044 5.17794 0
M  V30 47980 H 4900.5 -2.52491 4.90869 0
M  V30 47981 H 4900.98 -2.93896 3.26377 0
M  V30 47982 H 4901.59 -1.43867 4.00228 0
M  V30 47983 N 4899.9 -1.56035 -0.221519 0
M  V30 47984 C 4901.31 -1.69232 -0.788508 0
M  V30 47985 C 4901.66 -0.653879 -1.84983 0
M  V30 47986 O 4900.79 0.194989 -2.1552 0
M  V30 47987 C 4901.38 -3.06814 -1.43703 0
M  V30 47988 C 4899.94 -3.21865 -1.95141 0
M  V30 47989 C 4899.09 -2.65157 -0.811592 0
M  V30 47990 H 4902.04 -1.587 0.00313473 0
M  V30 47991 H 4902.06 -3.02674 -2.30584 0
M  V30 47992 H 4901.57 -3.82372 -0.66434 0
M  V30 47993 H 4899.67 -2.51177 -2.75211 0
M  V30 47994 H 4899.79 -4.29081 -2.13135 0
M  V30 47995 H 4898.15 -2.23639 -1.21892 0
M  V30 47996 H 4898.93 -3.43261 -0.051578 0
M  V30 47997 N 4901.38 0.488223 -1.49847 0
M  V30 47998 C 4902.61 1.26522 -1.63707 0
M  V30 47999 C 4903.02 1.86179 -0.313512 0
M  V30 48000 O 4902.38 1.68435 0.702565 0
M  V30 48001 C 4902.43 2.38631 -2.71547 0
M  V30 48002 O 4902.15 1.81423 -3.9877 0
M  V30 48003 C 4903.65 3.29795 -2.96227 0
M  V30 48004 H 4900.87 0.383276 -0.550764 0
M  V30 48005 H 4903.42 0.58471 -1.95963 0
M  V30 48006 H 4901.57 3.02488 -2.42033 0
M  V30 48007 H 4901.99 2.55118 -4.58274 0
M  V30 48008 H 4903.46 4.04709 -3.75386 0
M  V30 48009 H 4903.94 3.87556 -2.06632 0
M  V30 48010 H 4904.54 2.71692 -3.27206 0
M  V30 48011 N 4902.86 1.39136 0.740193 0
M  V30 48012 C 4904.11 1.35808 1.49668 0
M  V30 48013 C 4904.43 -0.0470212 1.94943 0
M  V30 48014 O 4903.7 -0.997288 1.68615 0
M  V30 48015 H 4902.28 0.499755 0.555206 0
M  V30 48016 H 4904.94 1.73951 0.879045 0
M  V30 48017 H 4904.03 2.01748 2.38126 0
M  V30 48018 N 4904.34 -0.969824 1.24226 0
M  V30 48019 C 4905.56 -1.74752 1.10767 0
M  V30 48020 C 4905.98 -1.85714 -0.339976 0
M  V30 48021 O 4905.34 -1.34393 -1.23469 0
M  V30 48022 C 4905.39 -3.16909 1.73928 0
M  V30 48023 O 4905.11 -3.065 3.13032 0
M  V30 48024 C 4906.61 -4.11026 1.6605 0
M  V30 48025 H 4903.83 -0.548078 0.387107 0
M  V30 48026 H 4906.37 -1.21774 1.6429 0
M  V30 48027 H 4904.53 -3.66879 1.24412 0
M  V30 48028 H 4904.94 -3.96067 3.43848 0
M  V30 48029 H 4906.42 -5.08438 2.14929 0
M  V30 48030 H 4906.89 -4.34783 0.621312 0
M  V30 48031 H 4907.5 -3.66965 2.14982 0
M  V30 48032 N 4905.81 -1.05567 -1.17018 0
M  V30 48033 C 4906.75 -0.617966 -2.20712 0
M  V30 48034 C 4907.76 0.320247 -1.59619 0
M  V30 48035 O 4908.95 0.112386 -1.78146 0
M  V30 48036 C 4906.05 0.115214 -3.38704 0
M  V30 48037 C 4905.22 -0.834644 -4.29363 0
M  V30 48038 C 4904.28 -0.14204 -5.26008 0
M  V30 48039 O 4903.31 -0.777349 -5.63867 0
M  V30 48040 N 4904.51 1.11914 -5.6961 0
M  V30 48041 H 4907.27 -1.5099 -2.58886 0
M  V30 48042 H 4904.83 -0.938055 -1.31955 0
M  V30 48043 H 4906.83 0.588778 -4.00394 0
M  V30 48044 H 4905.4 0.908862 -2.99096 0
M  V30 48045 H 4904.62 -1.48775 -3.65048 0
M  V30 48046 H 4905.9 -1.47927 -4.86821 0
M  V30 48047 H 4905.3 1.65555 -5.40932 0
M  V30 48048 H 4903.86 1.5367 -6.33426 0
M  V30 48049 N 4907.29 1.33523 -0.837221 0
M  V30 48050 C 4908.52 2.02045 -0.445565 0
M  V30 48051 C 4908.93 1.62998 0.952731 0
M  V30 48052 O 4908.29 0.842503 1.61889 0
M  V30 48053 C 4908.34 3.57219 -0.554702 0
M  V30 48054 O 4908.06 3.94856 -1.8979 0
M  V30 48055 C 4909.56 4.43012 -0.159789 0
M  V30 48056 H 4906.78 0.647215 -0.17707 0
M  V30 48057 H 4909.33 1.70488 -1.12934 0
M  V30 48058 H 4907.48 3.87315 0.0811419 0
M  V30 48059 H 4907.9 4.89562 -1.88225 0
M  V30 48060 H 4909.37 5.51252 -0.287204 0
M  V30 48061 H 4909.85 4.29919 0.898138 0
M  V30 48062 H 4910.45 4.18272 -0.770002 0
M  V30 48063 N 4908.77 0.593501 1.45998 0
M  V30 48064 C 4910.18 0.169866 1.85926 0
M  V30 48065 C 4910.53 -1.26978 1.49569 0
M  V30 48066 O 4909.66 -1.96073 0.915671 0
M  V30 48067 C 4910.25 0.301504 3.37456 0
M  V30 48068 C 4908.81 -0.0673361 3.7634 0
M  V30 48069 C 4907.96 0.632477 2.69991 0
M  V30 48070 H 4910.91 0.801062 1.36999 0
M  V30 48071 H 4910.93 -0.470198 3.77584 0
M  V30 48072 H 4910.44 1.3494 3.63886 0
M  V30 48073 H 4908.54 -1.11495 3.55527 0
M  V30 48074 H 4908.66 0.3165 4.78053 0
M  V30 48075 H 4907.02 0.0715856 2.54599 0
M  V30 48076 H 4907.8 1.68223 2.99259 0
M  V30 48077 N 4910.25 -1.54066 0.33187 0
M  V30 48078 C 4911.48 -2.05132 -0.269924 0
M  V30 48079 C 4911.89 -1.20754 -1.45134 0
M  V30 48080 O 4911.25 -0.240133 -1.80913 0
M  V30 48081 C 4911.3 -3.5473 -0.696331 0
M  V30 48082 O 4911.02 -4.35904 0.438093 0
M  V30 48083 C 4912.52 -4.21921 -1.36007 0
M  V30 48084 H 4909.74 -0.668809 -0.0541807 0
M  V30 48085 H 4912.29 -1.98776 0.48047 0
M  V30 48086 H 4910.44 -3.61347 -1.39669 0
M  V30 48087 H 4910.85 -5.24404 0.100519 0
M  V30 48088 H 4912.33 -5.28021 -1.60929 0
M  V30 48089 H 4912.81 -3.73546 -2.30998 0
M  V30 48090 H 4913.41 -4.19465 -0.702064 0
M  V30 48091 N 4911.73 -0.0602235 -1.57485 0
M  V30 48092 C 4912.95 0.620868 -1.97365 0
M  V30 48093 C 4913.37 1.63843 -0.93814 0
M  V30 48094 O 4912.73 1.82339 0.0765937 0
M  V30 48095 C 4912.78 1.29975 -3.37326 0
M  V30 48096 O 4912.5 0.322927 -4.36908 0
M  V30 48097 C 4914 2.06975 -3.92016 0
M  V30 48098 H 4911.22 0.169112 -0.64934 0
M  V30 48099 H 4913.76 -0.129203 -2.04091 0
M  V30 48100 H 4911.92 2.00099 -3.31722 0
M  V30 48101 H 4912.33 0.808572 -5.1823 0
M  V30 48102 H 4913.81 2.49884 -4.92201 0
M  V30 48103 H 4914.28 2.92161 -3.27931 0
M  V30 48104 H 4914.89 1.41743 -4.00985 0
M  V30 48105 N 4913.2 1.56151 0.213241 0
M  V30 48106 C 4914.43 1.83641 0.953074 0
M  V30 48107 C 4914.85 0.640425 1.77606 0
M  V30 48108 O 4914.2 -0.391008 1.78262 0
M  V30 48109 C 4914.26 3.09741 1.86394 0
M  V30 48110 O 4913.98 4.24726 1.0742 0
M  V30 48111 C 4915.48 3.50279 2.71697 0
M  V30 48112 H 4912.7 0.610273 0.27894 0
M  V30 48113 H 4915.24 2.03248 0.225963 0
M  V30 48114 H 4913.4 2.92085 2.54489 0
M  V30 48115 H 4913.81 4.96416 1.69326 0
M  V30 48116 H 4915.28 4.41527 3.31297 0
M  V30 48117 H 4915.76 2.72418 3.44507 0
M  V30 48118 H 4916.37 3.70403 2.09002 0
M  V30 48119 N 4914.68 -0.48027 1.50104 0
M  V30 48120 C 4916.09 -1.06136 1.53597 0
M  V30 48121 C 4916.44 -1.93334 0.334123 0
M  V30 48122 O 4915.57 -2.0919 -0.553956 0
M  V30 48123 C 4916.16 -1.9316 2.78342 0
M  V30 48124 C 4914.72 -2.46395 2.84546 0
M  V30 48125 C 4913.87 -1.24512 2.47774 0
M  V30 48126 H 4916.82 -0.263275 1.56501 0
M  V30 48127 H 4916.84 -2.78114 2.59678 0
M  V30 48128 H 4916.35 -1.2967 3.65797 0
M  V30 48129 H 4914.46 -3.13465 2.01422 0
M  V30 48130 H 4914.57 -2.8213 3.8722 0
M  V30 48131 H 4912.93 -1.57699 2.00008 0
M  V30 48132 H 4913.72 -0.626984 3.37526 0
M  V30 48133 N 4916.16 -1.39527 -0.732804 0
M  V30 48134 C 4917.41 -1.36181 -1.48787 0
M  V30 48135 C 4917.72 0.0387507 -1.95562 0
M  V30 48136 O 4918.93 0.194803 -2.708 0
M  V30 48137 C 4917.38 -2.39251 -2.68862 0
M  V30 48138 C 4916.99 -3.85032 -2.29029 0
M  V30 48139 C 4918.74 -2.44984 -3.46674 0
M  V30 48140 C 4916.64 -4.79739 -3.45839 0
M  V30 48141 H 4915.57 -0.506287 -0.55874 0
M  V30 48142 H 4918.22 -1.65183 -0.799168 0
M  V30 48143 H 4916.61 -2.03322 -3.39818 0
M  V30 48144 H 4917.78 -4.30014 -1.65605 0
M  V30 48145 H 4916.1 -3.82614 -1.64302 0
M  V30 48146 H 4918.69 -3.12933 -4.33563 0
M  V30 48147 H 4919.04 -1.47504 -3.89292 0
M  V30 48148 H 4919.57 -2.79818 -2.82749 0
M  V30 48149 H 4916.31 -5.7849 -3.08269 0
M  V30 48150 H 4915.83 -4.39435 -4.08236 0
M  V30 48151 H 4917.51 -4.98745 -4.12143 0
M  V30 48152 N 4917.64 0.963222 -1.24739 0
M  V30 48153 C 4918.87 1.74162 -1.11692 0
M  V30 48154 C 4919.28 1.85891 0.330122 0
M  V30 48155 O 4918.64 1.35046 1.22755 0
M  V30 48156 C 4918.69 3.15982 -1.75606 0
M  V30 48157 O 4918.41 3.04836 -3.14653 0
M  V30 48158 C 4919.91 4.1014 -1.68227 0
M  V30 48159 H 4917.13 0.546017 -0.390008 0
M  V30 48160 H 4919.68 1.20901 -1.64934 0
M  V30 48161 H 4917.83 3.66214 -1.26356 0
M  V30 48162 H 4918.24 3.94238 -3.45943 0
M  V30 48163 H 4919.72 5.07291 -2.17622 0
M  V30 48164 H 4920.2 4.34448 -0.644361 0
M  V30 48165 H 4920.8 3.65819 -2.16925 0
M  V30 48166 N 4919.12 1.06186 1.16457 0
M  V30 48167 C 4920.34 0.79865 1.90864 0
M  V30 48168 C 4920.76 -0.646859 1.77373 0
M  V30 48169 O 4920.12 -1.44275 1.11764 0
M  V30 48170 C 4920.17 1.1827 3.41606 0
M  V30 48171 O 4919.89 2.57148 3.54692 0
M  V30 48172 C 4921.39 0.947069 4.33065 0
M  V30 48173 H 4918.61 0.289624 0.605276 0
M  V30 48174 H 4921.15 1.41521 1.47622 0
M  V30 48175 H 4919.31 0.610697 3.82556 0
M  V30 48176 H 4919.72 2.72493 4.4816 0
M  V30 48177 H 4921.2 1.26542 5.373 0
M  V30 48178 H 4921.67 -0.117252 4.39043 0
M  V30 48179 H 4922.28 1.5034 3.97842 0
M  V30 48180 N 4920.59 -1.33077 0.84429 0
M  V30 48181 C 4921.82 -2.01806 0.456274 0
M  V30 48182 C 4922.24 -1.63501 -0.944073 0
M  V30 48183 O 4921.59 -0.851077 -1.6144 0
M  V30 48184 C 4921.65 -3.5692 0.573639 0
M  V30 48185 O 4921.37 -3.93844 1.91881 0
M  V30 48186 C 4922.87 -4.42921 0.183281 0
M  V30 48187 H 4920.09 -0.646267 0.1805 0
M  V30 48188 H 4922.63 -1.69887 1.13836 0
M  V30 48189 H 4920.79 -3.87353 -0.0606005 0
M  V30 48190 H 4921.2 -4.88557 1.90819 0
M  V30 48191 H 4922.67 -5.51092 0.316434 0
M  V30 48192 H 4923.15 -4.30389 -0.875325 0
M  V30 48193 H 4923.76 -4.17857 0.792174 0
M  V30 48194 N 4922.07 -0.601236 -1.45681 0
M  V30 48195 C 4923.3 -0.100127 -2.06658 0
M  V30 48196 C 4923.72 1.2128 -1.44695 0
M  V30 48197 O 4923.07 1.73733 -0.558833 0
M  V30 48198 C 4923.12 0.0527308 -3.61462 0
M  V30 48199 O 4922.84 -1.20824 -4.21109 0
M  V30 48200 C 4924.35 0.586038 -4.39409 0
M  V30 48201 H 4921.57 -0.0659285 -0.667753 0
M  V30 48202 H 4924.11 -0.827167 -1.87025 0
M  V30 48203 H 4922.26 0.730069 -3.80459 0
M  V30 48204 H 4922.68 -1.03386 -5.1421 0
M  V30 48205 H 4924.15 0.642104 -5.48253 0
M  V30 48206 H 4924.63 1.60698 -4.08745 0
M  V30 48207 H 4925.24 -0.057043 -4.25262 0
M  V30 48208 N 4923.55 1.53888 -0.340036 0
M  V30 48209 C 4924.78 2.05272 0.259042 0
M  V30 48210 C 4925.19 1.21522 1.44492 0
M  V30 48211 O 4924.55 0.249724 1.80783 0
M  V30 48212 C 4924.6 3.55094 0.677509 0
M  V30 48213 O 4924.32 4.35666 -0.461204 0
M  V30 48214 C 4925.82 4.22636 1.33767 0
M  V30 48215 H 4923.04 0.669087 0.050633 0
M  V30 48216 H 4925.59 1.98518 -0.491005 0
M  V30 48217 H 4923.74 3.62082 1.3775 0
M  V30 48218 H 4924.16 5.24343 -0.128328 0
M  V30 48219 H 4925.63 5.28867 1.58126 0
M  V30 48220 H 4926.11 3.74766 2.29014 0
M  V30 48221 H 4926.71 4.19832 0.679809 0
M  V30 48222 N 4925.03 0.0685745 1.57451 0
M  V30 48223 C 4926.28 -0.602171 1.93654 0
M  V30 48224 C 4926.61 -1.69456 0.948586 0
M  V30 48225 O 4925.88 -1.94487 -0.0227136 0
M  V30 48226 C 4926.17 -1.18211 3.40144 0
M  V30 48227 C 4926.02 -0.096585 4.49696 0
M  V30 48228 C 4927.34 -2.08858 3.87384 0
M  V30 48229 H 4924.46 -0.217428 0.704197 0
M  V30 48230 H 4927.1 0.133887 1.89528 0
M  V30 48231 H 4925.25 -1.80941 3.43791 0
M  V30 48232 H 4926.92 0.536316 4.58172 0
M  V30 48233 H 4925.16 0.573214 4.29996 0
M  V30 48234 H 4925.84 -0.542701 5.49326 0
M  V30 48235 H 4928.31 -1.56067 3.85723 0
M  V30 48236 H 4927.19 -2.46372 4.90502 0
M  V30 48237 H 4927.45 -2.99561 3.2514 0
M  V30 48238 N 4926.51 -1.56262 -0.204957 0
M  V30 48239 C 4927.74 -1.84144 -0.943322 0
M  V30 48240 C 4928.15 -0.649835 -1.77264 0
M  V30 48241 O 4927.51 0.381549 -1.78467 0
M  V30 48242 C 4927.56 -3.10725 -1.84748 0
M  V30 48243 O 4927.28 -4.2529 -1.05166 0
M  V30 48244 C 4928.78 -3.51715 -2.69836 0
M  V30 48245 H 4926 -0.611744 -0.2757 0
M  V30 48246 H 4928.54 -2.03365 -0.215181 0
M  V30 48247 H 4926.7 -2.93431 -2.52937 0
M  V30 48248 H 4927.11 -4.97307 -1.66691 0
M  V30 48249 H 4928.59 -4.43278 -3.28951 0
M  V30 48250 H 4929.06 -2.74242 -3.43057 0
M  V30 48251 H 4929.67 -3.71506 -2.07034 0
M  V30 48252 N 4927.99 0.472303 -1.50356 0
M  V30 48253 C 4929.4 1.0532 -1.54157 0
M  V30 48254 C 4929.75 1.93154 -0.344371 0
M  V30 48255 O 4928.87 2.0948 0.542855 0
M  V30 48256 C 4929.47 1.91682 -2.79363 0
M  V30 48257 C 4928.03 2.44882 -2.85849 0
M  V30 48258 C 4927.17 1.23197 -2.48431 0
M  V30 48259 H 4930.12 0.254971 -1.56638 0
M  V30 48260 H 4930.15 2.76733 -2.6115 0
M  V30 48261 H 4929.66 1.27728 -3.66479 0
M  V30 48262 H 4927.76 3.12392 -2.03081 0
M  V30 48263 H 4927.87 2.80072 -3.88711 0
M  V30 48264 H 4926.24 1.56636 -2.00842 0
M  V30 48265 H 4927.02 0.609075 -3.37854 0
M  V30 48266 N 4929.46 1.39914 0.725394 0
M  V30 48267 C 4930.69 1.40954 1.51458 0
M  V30 48268 C 4931.11 0.00659057 1.88799 0
M  V30 48269 O 4930.46 -0.967109 1.54768 0
M  V30 48270 C 4930.51 2.29128 2.79611 0
M  V30 48271 O 4930.24 3.63961 2.43853 0
M  V30 48272 C 4931.74 2.38655 3.73575 0
M  V30 48273 H 4928.96 0.481108 0.467735 0
M  V30 48274 H 4931.5 1.83846 0.895587 0
M  V30 48275 H 4929.66 1.89624 3.37819 0
M  V30 48276 H 4930.07 4.10689 3.26244 0
M  V30 48277 H 4931.54 3.0458 4.60364 0
M  V30 48278 H 4932.02 1.40861 4.15999 0
M  V30 48279 H 4932.63 2.78671 3.21283 0
M  V30 48280 N 4930.94 -0.956593 1.25248 0
M  V30 48281 C 4932.35 -1.51565 1.09018 0
M  V30 48282 C 4932.7 -1.93323 -0.334745 0
M  V30 48283 O 4931.83 -1.78425 -1.22448 0
M  V30 48284 C 4932.42 -2.75437 1.97281 0
M  V30 48285 C 4930.98 -3.27662 1.85242 0
M  V30 48286 C 4930.13 -2.0051 1.91549 0
M  V30 48287 H 4933.08 -0.773697 1.38563 0
M  V30 48288 H 4933.1 -3.49184 1.51164 0
M  V30 48289 H 4932.61 -2.45014 3.00981 0
M  V30 48290 H 4930.71 -3.62911 0.844172 0
M  V30 48291 H 4930.83 -3.95811 2.69945 0
M  V30 48292 H 4929.19 -2.15722 1.35411 0
M  V30 48293 H 4929.97 -1.72437 2.96851 0
M  V30 48294 N 4932.42 -1.06802 -1.15892 0
M  V30 48295 C 4933.65 -0.808761 -1.90438 0
M  V30 48296 C 4934.06 0.637443 -1.77714 0
M  V30 48297 O 4933.42 1.4368 -1.12527 0
M  V30 48298 C 4933.47 -1.2008 -3.40974 0
M  V30 48299 O 4933.19 -2.59025 -3.53324 0
M  V30 48300 C 4934.69 -0.970022 -4.32557 0
M  V30 48301 H 4931.91 -0.29283 -0.603731 0
M  V30 48302 H 4934.46 -1.42301 -1.46869 0
M  V30 48303 H 4932.61 -0.630976 -3.82227 0
M  V30 48304 H 4933.03 -2.74866 -4.46709 0
M  V30 48305 H 4934.5 -1.2939 -5.36621 0
M  V30 48306 H 4934.98 0.0939666 -4.39099 0
M  V30 48307 H 4935.58 -1.52447 -3.97039 0
M  V30 48308 N 4933.9 1.32627 -0.851335 0
M  V30 48309 C 4935.31 1.79651 -0.508164 0
M  V30 48310 C 4935.66 1.7033 0.973755 0
M  V30 48311 O 4934.78 1.25992 1.7594 0
M  V30 48312 C 4935.38 3.26193 -0.91563 0
M  V30 48313 C 4933.94 3.71185 -0.624407 0
M  V30 48314 C 4933.09 2.538 -1.11718 0
M  V30 48315 H 4936.04 1.19973 -1.03886 0
M  V30 48316 H 4936.06 3.798 -0.230669 0
M  V30 48317 H 4935.57 3.32945 -1.99423 0
M  V30 48318 H 4933.67 3.6995 0.443607 0
M  V30 48319 H 4933.78 4.64128 -1.18837 0
M  V30 48320 H 4932.15 2.48962 -0.537571 0
M  V30 48321 H 4932.93 2.63308 -2.20282 0
M  V30 48322 N 4935.38 0.608953 1.4536 0
M  V30 48323 C 4936.6 0.111085 2.06602 0
M  V30 48324 C 4937.02 -1.2051 1.45336 0
M  V30 48325 O 4936.38 -1.73435 0.568039 0
M  V30 48326 C 4936.43 -0.0335609 3.61484 0
M  V30 48327 O 4936.15 1.23056 4.20463 0
M  V30 48328 C 4937.65 -0.562727 4.39714 0
M  V30 48329 H 4934.87 0.0694688 0.667394 0
M  V30 48330 H 4937.41 0.837073 1.86583 0
M  V30 48331 H 4935.57 -0.709882 3.8084 0
M  V30 48332 H 4935.98 1.06112 5.13654 0
M  V30 48333 H 4937.46 -0.61302 5.48586 0
M  V30 48334 H 4937.93 -1.58528 4.09592 0
M  V30 48335 H 4938.54 0.0795948 4.25226 0
M  V30 48336 N 4936.85 -1.53705 0.348193 0
M  V30 48337 C 4938.1 -2.00592 -0.246407 0
M  V30 48338 C 4938.42 -1.23759 -1.50694 0
M  V30 48339 O 4937.69 -0.346032 -1.9282 0
M  V30 48340 H 4936.27 -0.741057 -0.0940418 0
M  V30 48341 H 4938.93 -1.89138 0.470421 0
M  V30 48342 H 4938.03 -3.08299 -0.485605 0
M  V30 48343 N 4938.33 -0.0769235 -1.57412 0
M  V30 48344 C 4939.56 0.5999 -1.98012 0
M  V30 48345 C 4939.98 1.62838 -0.955465 0
M  V30 48346 O 4939.33 1.8241 0.0572499 0
M  V30 48347 C 4939.38 1.2639 -3.38686 0
M  V30 48348 O 4939.1 0.276569 -4.37226 0
M  V30 48349 C 4940.61 2.02806 -3.94189 0
M  V30 48350 H 4937.83 0.162216 -0.651097 0
M  V30 48351 H 4940.37 -0.150843 -2.03943 0
M  V30 48352 H 4938.52 1.96569 -3.33825 0
M  V30 48353 H 4938.94 0.753561 -5.19058 0
M  V30 48354 H 4940.41 2.44649 -4.94824 0
M  V30 48355 H 4940.89 2.88667 -3.31011 0
M  V30 48356 H 4941.5 1.37482 -4.02466 0
M  V30 48357 N 4939.81 1.56368 0.196667 0
M  V30 48358 C 4940.74 1.90946 1.26777 0
M  V30 48359 C 4941.76 0.799978 1.41789 0
M  V30 48360 O 4942.94 1.07838 1.42243 0
M  V30 48361 C 4940.04 2.12486 2.64013 0
M  V30 48362 C 4939.22 3.43626 2.70629 0
M  V30 48363 C 4938.28 3.54298 3.8905 0
M  V30 48364 O 4937.3 4.27133 3.76226 0
M  V30 48365 N 4938.5 2.8727 5.04436 0
M  V30 48366 H 4941.27 2.8342 0.974318 0
M  V30 48367 H 4938.83 1.57217 0.386594 0
M  V30 48368 H 4940.82 2.16916 3.41657 0
M  V30 48369 H 4939.39 1.26518 2.85853 0
M  V30 48370 H 4938.61 3.51078 1.79271 0
M  V30 48371 H 4939.9 4.29968 2.72039 0
M  V30 48372 H 4939.3 2.2792 5.17754 0
M  V30 48373 H 4937.86 2.97329 5.80034 0
M  V30 48374 N 4941.29 -0.464322 1.50605 0
M  V30 48375 C 4942.52 -1.23901 1.65699 0
M  V30 48376 C 4942.93 -1.85656 0.343092 0
M  V30 48377 O 4942.29 -1.69531 -0.675679 0
M  V30 48378 C 4942.34 -2.3428 2.75309 0
M  V30 48379 O 4942.06 -1.75056 4.01606 0
M  V30 48380 C 4943.56 -3.2504 3.01436 0
M  V30 48381 H 4940.78 -0.374465 0.556791 0
M  V30 48382 H 4943.33 -0.55346 1.96868 0
M  V30 48383 H 4941.48 -2.98599 2.46815 0
M  V30 48384 H 4941.89 -2.47795 4.62274 0
M  V30 48385 H 4943.37 -3.98685 3.81777 0
M  V30 48386 H 4943.85 -3.8422 2.12772 0
M  V30 48387 H 4944.45 -2.66452 3.31487 0
M  V30 48388 N 4942.77 -1.40296 -0.717964 0
M  V30 48389 C 4944.18 -1.34293 -1.297 0
M  V30 48390 C 4944.53 -0.0152918 -1.96194 0
M  V30 48391 O 4943.65 0.88675 -1.97397 0
M  V30 48392 C 4944.25 -2.43228 -2.35851 0
M  V30 48393 C 4942.81 -2.40692 -2.89386 0
M  V30 48394 C 4941.95 -2.24229 -1.63146 0
M  V30 48395 H 4944.91 -1.50137 -0.51426 0
M  V30 48396 H 4944.93 -2.10997 -3.16639 0
M  V30 48397 H 4944.44 -3.39842 -1.87427 0
M  V30 48398 H 4942.54 -1.47768 -3.42046 0
M  V30 48399 H 4942.65 -3.36189 -3.41341 0
M  V30 48400 H 4941.02 -1.71702 -1.88123 0
M  V30 48401 H 4941.8 -3.22838 -1.1675 0
M  V30 48402 N 4944.24 0.949938 -1.25754 0
M  V30 48403 C 4945.47 1.72968 -1.13533 0
M  V30 48404 C 4945.89 1.86231 0.310387 0
M  V30 48405 O 4945.24 1.36341 1.21316 0
M  V30 48406 C 4945.3 3.14102 -1.78947 0
M  V30 48407 O 4945.02 3.01482 -3.17869 0
M  V30 48408 C 4946.52 4.08332 -1.72568 0
M  V30 48409 H 4943.74 0.54185 -0.395777 0
M  V30 48410 H 4946.28 1.19145 -1.66207 0
M  V30 48411 H 4944.44 3.64853 -1.30233 0
M  V30 48412 H 4944.85 3.90546 -3.50105 0
M  V30 48413 H 4946.32 5.04955 -2.2299 0
M  V30 48414 H 4946.8 4.3374 -0.690403 0
M  V30 48415 H 4947.41 3.63498 -2.20792 0
M  V30 48416 N 4945.72 1.07416 1.15324 0
M  V30 48417 C 4946.95 0.818849 1.90007 0
M  V30 48418 C 4947.37 -0.62801 1.78049 0
M  V30 48419 O 4946.72 -1.43081 1.13287 0
M  V30 48420 C 4946.77 1.21886 3.40332 0
M  V30 48421 O 4946.49 2.60895 3.51945 0
M  V30 48422 C 4948 0.992948 4.32036 0
M  V30 48423 H 4945.22 0.296028 0.60217 0
M  V30 48424 H 4947.76 1.43078 1.46112 0
M  V30 48425 H 4945.91 0.651238 3.81887 0
M  V30 48426 H 4946.33 2.77231 4.45245 0
M  V30 48427 H 4947.8 1.32234 5.35927 0
M  V30 48428 H 4948.28 -0.0706787 4.39143 0
M  V30 48429 H 4948.89 1.54551 3.96225 0
M  V30 48430 N 4947.2 -1.32174 0.858357 0
M  V30 48431 C 4948.43 -2.01311 0.477652 0
M  V30 48432 C 4948.84 -1.64493 -0.926679 0
M  V30 48433 O 4948.2 -0.868152 -1.60528 0
M  V30 48434 C 4948.25 -3.56291 0.611462 0
M  V30 48435 O 4947.97 -3.91787 1.96048 0
M  V30 48436 C 4949.47 -4.42702 0.230248 0
M  V30 48437 H 4946.69 -0.644316 0.187345 0
M  V30 48438 H 4949.24 -1.6867 1.15632 0
M  V30 48439 H 4947.39 -3.87395 -0.0195132 0
M  V30 48440 H 4947.81 -4.86506 1.9599 0
M  V30 48441 H 4949.28 -5.50726 0.374867 0
M  V30 48442 H 4949.76 -4.31293 -0.829628 0
M  V30 48443 H 4950.36 -4.16994 0.836448 0
M  V30 48444 N 4948.68 -0.616653 -1.45035 0
M  V30 48445 C 4950.09 -0.199424 -1.85632 0
M  V30 48446 C 4950.44 1.24583 -1.5157 0
M  V30 48447 O 4949.57 1.94591 -0.946748 0
M  V30 48448 C 4950.16 -0.355152 -3.36933 0
M  V30 48449 C 4948.72 0.00745516 -3.76399 0
M  V30 48450 C 4947.87 -0.675351 -2.6895 0
M  V30 48451 H 4950.82 -0.822756 -1.35707 0
M  V30 48452 H 4950.84 0.410068 -3.78284 0
M  V30 48453 H 4950.35 -1.40712 -3.61693 0
M  V30 48454 H 4948.45 1.05825 -3.57256 0
M  V30 48455 H 4948.56 -0.392514 -4.77489 0
M  V30 48456 H 4946.93 -0.112081 -2.54453 0
M  V30 48457 H 4947.71 -1.72963 -2.96545 0
M  V30 48458 N 4950.16 1.53519 -0.356339 0
M  V30 48459 C 4951.41 2.00299 0.237302 0
M  V30 48460 C 4951.72 1.24789 1.50622 0
M  V30 48461 O 4952.92 1.62111 2.1779 0
M  V30 48462 C 4951.38 3.56773 0.47342 0
M  V30 48463 C 4950.99 4.41152 -0.780338 0
M  V30 48464 C 4952.73 4.11934 1.02522 0
M  V30 48465 C 4950.64 5.89159 -0.514315 0
M  V30 48466 H 4949.57 0.748311 0.0924517 0
M  V30 48467 H 4952.22 1.77282 -0.47365 0
M  V30 48468 H 4950.6 3.75907 1.2454 0
M  V30 48469 H 4951.78 4.33791 -1.5544 0
M  V30 48470 H 4950.09 3.97047 -1.25469 0
M  V30 48471 H 4952.69 5.20137 1.23942 0
M  V30 48472 H 4953.03 3.6595 1.9846 0
M  V30 48473 H 4953.56 3.96562 0.313635 0
M  V30 48474 H 4950.3 6.39402 -1.44377 0
M  V30 48475 H 4949.82 5.99391 0.221422 0
M  V30 48476 H 4951.5 6.46856 -0.13635 0
M  V30 48477 N 4951.63 0.0852704 1.57369 0
M  V30 48478 C 4952.86 -0.58939 1.98328 0
M  V30 48479 C 4953.28 -1.62329 0.964087 0
M  V30 48480 O 4952.63 -1.82438 -0.0475754 0
M  V30 48481 C 4952.69 -1.24592 3.39351 0
M  V30 48482 O 4952.41 -0.253378 4.37367 0
M  V30 48483 C 4953.91 -2.00712 3.95259 0
M  V30 48484 H 4951.13 -0.158761 0.651948 0
M  V30 48485 H 4953.67 0.161656 2.0386 0
M  V30 48486 H 4951.83 -1.94796 3.34863 0
M  V30 48487 H 4952.24 -0.726024 5.19451 0
M  V30 48488 H 4953.71 -2.42022 4.96114 0
M  V30 48489 H 4954.19 -2.86907 3.32537 0
M  V30 48490 H 4954.8 -1.35346 4.03189 0
M  V30 48491 N 4953.11 -1.5647 -0.188372 0
M  V30 48492 C 4954.34 -1.85134 -0.923738 0
M  V30 48493 C 4954.76 -0.668599 -1.76565 0
M  V30 48494 O 4954.11 0.362599 -1.78862 0
M  V30 48495 C 4954.16 -3.12667 -1.81442 0
M  V30 48496 O 4953.89 -4.26382 -1.0065 0
M  V30 48497 C 4955.39 -3.54557 -2.6609 0
M  V30 48498 H 4952.61 -0.614634 -0.269196 0
M  V30 48499 H 4955.15 -2.03582 -0.1936 0
M  V30 48500 H 4953.31 -2.96097 -2.4981 0
M  V30 48501 H 4953.72 -4.99047 -1.61407 0
M  V30 48502 H 4955.19 -4.46742 -3.24231 0
M  V30 48503 H 4955.67 -2.77865 -3.40129 0
M  V30 48504 H 4956.28 -3.73681 -2.03082 0
M  V30 48505 N 4954.59 0.456329 -1.50849 0
M  V30 48506 C 4955.82 1.23021 -1.66354 0
M  V30 48507 C 4956.23 1.85472 -0.352933 0
M  V30 48508 O 4955.59 1.69887 0.666679 0
M  V30 48509 C 4955.64 2.32817 -2.76547 0
M  V30 48510 O 4955.36 1.72924 -4.02528 0
M  V30 48511 C 4956.86 3.23437 -3.03155 0
M  V30 48512 H 4954.08 0.371507 -0.55877 0
M  V30 48513 H 4956.63 0.543012 -1.97159 0
M  V30 48514 H 4954.78 2.97286 -2.48395 0
M  V30 48515 H 4955.2 2.4534 -4.63582 0
M  V30 48516 H 4956.67 3.96655 -3.83886 0
M  V30 48517 H 4957.15 3.83086 -2.14806 0
M  V30 48518 H 4957.75 2.6469 -3.32895 0
M  V30 48519 N 4956.07 1.40675 0.710514 0
M  V30 48520 C 4957.3 1.42552 1.49955 0
M  V30 48521 C 4957.71 0.0266148 1.88781 0
M  V30 48522 O 4957.07 -0.950639 1.55785 0
M  V30 48523 C 4957.12 2.32081 2.77165 0
M  V30 48524 O 4956.84 3.66527 2.39979 0
M  V30 48525 C 4958.34 2.42604 3.71023 0
M  V30 48526 H 4955.56 0.486042 0.462606 0
M  V30 48527 H 4958.11 1.84786 0.876037 0
M  V30 48528 H 4956.26 1.93196 3.35789 0
M  V30 48529 H 4956.68 4.14126 3.21869 0
M  V30 48530 H 4958.15 3.09445 4.57108 0
M  V30 48531 H 4958.63 1.45265 4.14481 0
M  V30 48532 H 4959.23 2.82062 3.18309 0
M  V30 48533 N 4957.55 -0.943255 1.26256 0
M  V30 48534 C 4958.78 -1.72363 1.14449 0
M  V30 48535 C 4959.19 -1.86393 -0.300506 0
M  V30 48536 O 4958.55 -1.36982 -1.20591 0
M  V30 48537 C 4958.6 -3.13149 1.80611 0
M  V30 48538 O 4958.32 -2.99792 3.19463 0
M  V30 48539 C 4959.82 -4.07411 1.74731 0
M  V30 48540 H 4957.04 -0.539744 0.398645 0
M  V30 48541 H 4959.58 -1.18262 1.66836 0
M  V30 48542 H 4957.74 -3.64158 1.32166 0
M  V30 48543 H 4958.15 -3.88684 3.52172 0
M  V30 48544 H 4959.63 -5.03765 2.25665 0
M  V30 48545 H 4960.1 -4.33367 0.713396 0
M  V30 48546 H 4960.71 -3.62322 2.22717 0
M  V30 48547 N 4959.03 -1.08026 -1.14753 0
M  V30 48548 C 4960.27 -0.80877 -1.85975 0
M  V30 48549 C 4960.6 0.6637 -1.82507 0
M  V30 48550 O 4959.88 1.48761 -1.25301 0
M  V30 48551 C 4960.16 -1.32635 -3.34783 0
M  V30 48552 C 4960.02 -2.86387 -3.46846 0
M  V30 48553 C 4961.33 -0.948442 -4.29759 0
M  V30 48554 H 4958.45 -0.295268 -0.675267 0
M  V30 48555 H 4961.1 -1.33921 -1.34778 0
M  V30 48556 H 4959.25 -0.875135 -3.78515 0
M  V30 48557 H 4960.92 -3.3985 -3.11929 0
M  V30 48558 H 4959.16 -3.24242 -2.88183 0
M  V30 48559 H 4959.83 -3.17674 -4.51428 0
M  V30 48560 H 4962.31 -1.33735 -3.94023 0
M  V30 48561 H 4961.18 -1.33783 -5.32347 0
M  V30 48562 H 4961.44 0.144939 -4.41862 0
M  V30 48563 N 4960.5 1.31717 -0.865354 0
M  V30 48564 C 4961.73 2.01055 -0.488322 0
M  V30 48565 C 4962.15 1.64983 0.917942 0
M  V30 48566 O 4961.5 0.876653 1.60066 0
M  V30 48567 C 4961.55 3.55962 -0.630349 0
M  V30 48568 O 4961.28 3.90742 -1.98123 0
M  V30 48569 C 4962.78 4.42573 -0.253723 0
M  V30 48570 H 4960 0.643313 -0.190759 0
M  V30 48571 H 4962.54 1.68054 -1.16525 0
M  V30 48572 H 4960.7 3.874 -0.00103161 0
M  V30 48573 H 4961.11 4.8546 -1.98567 0
M  V30 48574 H 4962.58 5.50519 -0.404068 0
M  V30 48575 H 4963.06 4.31727 0.806744 0
M  V30 48576 H 4963.67 4.16544 -0.858551 0
M  V30 48577 N 4961.98 0.624336 1.44706 0
M  V30 48578 C 4963.39 0.209266 1.85523 0
M  V30 48579 C 4963.74 -1.23777 1.52229 0
M  V30 48580 O 4962.87 -1.94086 0.957055 0
M  V30 48581 C 4963.46 0.373015 3.3674 0
M  V30 48582 C 4962.02 0.0125063 3.76398 0
M  V30 48583 C 4961.17 0.689604 2.68588 0
M  V30 48584 H 4964.12 0.829941 1.35269 0
M  V30 48585 H 4964.14 -0.390001 3.78496 0
M  V30 48586 H 4963.65 1.42628 3.60942 0
M  V30 48587 H 4961.75 -1.03928 3.57812 0
M  V30 48588 H 4961.87 0.417831 4.77275 0
M  V30 48589 H 4960.23 0.125574 2.5439 0
M  V30 48590 H 4961.01 1.74533 2.95623 0
M  V30 48591 N 4963.46 -1.53328 0.364476 0
M  V30 48592 C 4964.69 -2.05658 -0.226352 0
M  V30 48593 C 4965.1 -1.23806 -1.4254 0
M  V30 48594 O 4964.46 -0.278453 -1.80363 0
M  V30 48595 C 4964.51 -3.56127 -0.620931 0
M  V30 48596 O 4964.23 -4.34877 0.530456 0
M  V30 48597 C 4965.73 -4.24711 -1.27026 0
M  V30 48598 H 4962.95 -0.669808 -0.039982 0
M  V30 48599 H 4965.5 -1.97712 0.522525 0
M  V30 48600 H 4963.65 -3.64228 -1.31973 0
M  V30 48601 H 4964.07 -5.24072 0.21173 0
M  V30 48602 H 4965.54 -5.31315 -1.49693 0
M  V30 48603 H 4966.02 -3.78362 -2.23023 0
M  V30 48604 H 4966.62 -4.2086 -0.612932 0
M  V30 48605 N 4964.94 -0.0936148 -1.57322 0
M  V30 48606 C 4966.35 0.435743 -1.81544 0
M  V30 48607 C 4966.7 1.68259 -1.00912 0
M  V30 48608 O 4965.82 2.15087 -0.238058 0
M  V30 48609 C 4966.42 0.79732 -3.29284 0
M  V30 48610 C 4964.98 1.27143 -3.54276 0
M  V30 48611 C 4964.13 0.267358 -2.76008 0
M  V30 48612 H 4967.08 -0.319075 -1.55459 0
M  V30 48613 H 4967.1 1.65698 -3.42527 0
M  V30 48614 H 4966.61 -0.110342 -3.87943 0
M  V30 48615 H 4964.71 2.19685 -3.00947 0
M  V30 48616 H 4964.82 1.23429 -4.62928 0
M  V30 48617 H 4963.19 0.749197 -2.43432 0
M  V30 48618 H 4963.97 -0.632957 -3.37414 0
M  V30 48619 N 4966.42 1.56568 0.180071 0
M  V30 48620 C 4967.64 1.85622 0.913907 0
M  V30 48621 C 4968.06 0.677954 1.76208 0
M  V30 48622 O 4967.42 -0.353108 1.79051 0
M  V30 48623 C 4967.47 3.13625 1.79782 0
M  V30 48624 O 4967.19 4.26909 0.98387 0
M  V30 48625 C 4968.69 3.55964 2.64206 0
M  V30 48626 H 4965.91 0.616053 0.265933 0
M  V30 48627 H 4968.45 2.03681 0.1828 0
M  V30 48628 H 4966.61 2.97418 2.48237 0
M  V30 48629 H 4967.02 4.99896 1.58758 0
M  V30 48630 H 4968.5 4.48455 3.21857 0
M  V30 48631 H 4968.97 2.79665 3.38651 0
M  V30 48632 H 4969.58 3.74753 2.01098 0
M  V30 48633 N 4967.89 -0.448323 1.51089 0
M  V30 48634 C 4969.31 -1.02855 1.55813 0
M  V30 48635 C 4969.66 -1.92582 0.375057 0
M  V30 48636 O 4968.78 -2.10318 -0.50946 0
M  V30 48637 C 4969.38 -1.87213 2.82377 0
M  V30 48638 C 4967.94 -2.40304 2.89709 0
M  V30 48639 C 4967.08 -1.19229 2.50359 0
M  V30 48640 H 4970.03 -0.230019 1.57024 0
M  V30 48641 H 4970.05 -2.72543 2.65519 0
M  V30 48642 H 4969.57 -1.21881 3.68465 0
M  V30 48643 H 4967.67 -3.09122 2.08025 0
M  V30 48644 H 4967.78 -2.73853 3.93118 0
M  V30 48645 H 4966.14 -1.53421 2.03308 0
M  V30 48646 H 4966.93 -0.555248 3.3878 0
M  V30 48647 N 4969.37 -1.4105 -0.703043 0
M  V30 48648 C 4970.6 -1.43346 -1.49197 0
M  V30 48649 C 4971.02 -0.036626 -1.88764 0
M  V30 48650 O 4970.37 0.942364 -1.56287 0
M  V30 48651 C 4970.42 -2.33548 -2.75931 0
M  V30 48652 O 4970.14 -3.67794 -2.38032 0
M  V30 48653 C 4971.65 -2.44568 -3.69731 0
M  V30 48654 H 4968.87 -0.488488 -0.460022 0
M  V30 48655 H 4971.41 -1.85248 -0.866225 0
M  V30 48656 H 4969.56 -1.94974 -3.34759 0
M  V30 48657 H 4969.98 -4.15827 -3.19669 0
M  V30 48658 H 4971.45 -3.11865 -4.5546 0
M  V30 48659 H 4971.93 -1.47461 -4.13705 0
M  V30 48660 H 4972.54 -2.83747 -3.16809 0
M  V30 48661 N 4970.85 0.936546 -1.26754 0
M  V30 48662 C 4972.1 1.67994 -1.12349 0
M  V30 48663 C 4972.42 1.92138 0.332871 0
M  V30 48664 O 4971.69 1.52136 1.23415 0
M  V30 48665 H 4970.27 0.622594 -0.412777 0
M  V30 48666 H 4972.93 1.12503 -1.59151 0
M  V30 48667 H 4972.03 2.65179 -1.6458 0
M  V30 48668 N 4972.33 1.08633 1.14178 0
M  V30 48669 C 4973.56 0.838956 1.89127 0
M  V30 48670 C 4973.97 -0.60909 1.78705 0
M  V30 48671 O 4973.33 -1.41871 1.14799 0
M  V30 48672 C 4973.38 1.25489 3.3902 0
M  V30 48673 O 4973.1 2.64613 3.49158 0
M  V30 48674 C 4974.6 1.03872 4.30959 0
M  V30 48675 H 4971.82 0.302398 0.598996 0
M  V30 48676 H 4974.37 1.4462 1.44587 0
M  V30 48677 H 4972.52 0.691705 3.81175 0
M  V30 48678 H 4972.93 2.81938 4.4228 0
M  V30 48679 H 4974.41 1.37911 5.34495 0
M  V30 48680 H 4974.89 -0.0240978 4.39193 0
M  V30 48681 H 4975.49 1.58745 3.94563 0
M  V30 48682 N 4973.81 -1.31256 0.872327 0
M  V30 48683 C 4974.74 -2.27395 0.28705 0
M  V30 48684 C 4975.75 -1.53183 -0.551244 0
M  V30 48685 O 4976.94 -1.74562 -0.372852 0
M  V30 48686 C 4974.04 -3.33337 -0.6115 0
M  V30 48687 C 4973.21 -4.36966 0.194883 0
M  V30 48688 C 4972.27 -5.22389 -0.632174 0
M  V30 48689 O 4971.3 -5.69169 -0.059369 0
M  V30 48690 N 4972.5 -5.46992 -1.94372 0
M  V30 48691 H 4975.27 -2.78257 1.11323 0
M  V30 48692 H 4972.83 -1.44303 0.734045 0
M  V30 48693 H 4974.82 -3.87402 -1.17055 0
M  V30 48694 H 4973.39 -2.82501 -1.33836 0
M  V30 48695 H 4972.61 -3.82942 0.935376 0
M  V30 48696 H 4973.9 -5.0327 0.748112 0
M  V30 48697 H 4973.29 -5.10745 -2.43219 0
M  V30 48698 H 4971.85 -6.03982 -2.45049 0
M  V30 48699 N 4975.28 -0.632002 -1.44373 0
M  V30 48700 C 4976.51 -0.14394 -2.06399 0
M  V30 48701 C 4976.93 1.18183 -1.47235 0
M  V30 48702 O 4976.28 1.72509 -0.595559 0
M  V30 48703 C 4976.34 -0.0239524 -3.61492 0
M  V30 48704 O 4976.06 -1.29729 -4.18452 0
M  V30 48705 C 4977.56 0.492701 -4.40553 0
M  V30 48706 H 4974.78 -0.0800777 -0.666205 0
M  V30 48707 H 4977.32 -0.866651 -1.85228 0
M  V30 48708 H 4975.48 0.649204 -3.81922 0
M  V30 48709 H 4975.89 -1.1427 -5.11901 0
M  V30 48710 H 4977.36 0.525667 -5.49491 0
M  V30 48711 H 4977.84 1.51992 -4.12062 0
M  V30 48712 H 4978.45 -0.147234 -4.25045 0
M  V30 48713 N 4976.76 1.53132 -0.372602 0
M  V30 48714 C 4978.17 1.86404 0.10509 0
M  V30 48715 C 4978.52 1.29294 1.47572 0
M  V30 48716 O 4977.65 0.617719 2.07396 0
M  V30 48717 C 4978.24 3.38224 0.197469 0
M  V30 48718 C 4976.8 3.71268 0.619426 0
M  V30 48719 C 4975.95 2.76353 -0.229017 0
M  V30 48720 H 4978.9 1.4728 -0.591129 0
M  V30 48721 H 4978.92 3.66581 1.01974 0
M  V30 48722 H 4978.43 3.7976 -0.800233 0
M  V30 48723 H 4976.54 3.35293 1.6251 0
M  V30 48724 H 4976.65 4.77517 0.389164 0
M  V30 48725 H 4975.01 2.52889 0.303182 0
M  V30 48726 H 4975.8 3.20724 -1.22439 0
M  V30 48727 N 4978.24 0.101957 1.5727 0
M  V30 48728 C 4979.47 -0.568322 1.98941 0
M  V30 48729 C 4979.88 -1.61298 0.98125 0
M  V30 48730 O 4979.24 -1.82478 -0.0282227 0
M  V30 48731 C 4979.29 -1.20985 3.40653 0
M  V30 48732 O 4979.01 -0.206975 4.37611 0
M  V30 48733 C 4980.51 -1.96509 3.97365 0
M  V30 48734 H 4977.73 -0.151837 0.653595 0
M  V30 48735 H 4980.28 0.183269 2.03677 0
M  V30 48736 H 4978.43 -1.91233 3.3691 0
M  V30 48737 H 4978.85 -0.670888 5.20192 0
M  V30 48738 H 4980.32 -2.36746 4.98653 0
M  V30 48739 H 4980.8 -2.83364 3.35562 0
M  V30 48740 H 4981.4 -1.31062 4.04602 0
M  V30 48741 N 4979.72 -1.56661 -0.171765 0
M  V30 48742 C 4980.95 -1.86104 -0.90405 0
M  V30 48743 C 4981.36 -0.687289 -1.75846 0
M  V30 48744 O 4980.72 0.343608 -1.79236 0
M  V30 48745 C 4980.77 -3.14574 -1.78116 0
M  V30 48746 O 4980.49 -4.27425 -0.961216 0
M  V30 48747 C 4981.99 -3.5736 -2.62315 0
M  V30 48748 H 4979.21 -0.617454 -0.262662 0
M  V30 48749 H 4981.76 -2.03775 -0.171996 0
M  V30 48750 H 4979.91 -2.9873 -2.46656 0
M  V30 48751 H 4980.32 -5.00731 -1.56105 0
M  V30 48752 H 4981.8 -4.50156 -3.19475 0
M  V30 48753 H 4982.28 -2.81457 -3.37163 0
M  V30 48754 H 4982.88 -3.75814 -1.99108 0
M  V30 48755 N 4981.2 0.440304 -1.51324 0
M  V30 48756 C 4982.42 1.21249 -1.67649 0
M  V30 48757 C 4982.84 1.85087 -0.372585 0
M  V30 48758 O 4982.2 1.70585 0.648623 0
M  V30 48759 C 4982.25 2.29871 -2.79001 0
M  V30 48760 O 4981.97 1.68645 -4.0434 0
M  V30 48761 C 4983.47 3.20204 -3.06569 0
M  V30 48762 H 4980.69 0.36556 -0.562678 0
M  V30 48763 H 4983.23 0.52207 -1.97724 0
M  V30 48764 H 4981.39 2.94634 -2.51534 0
M  V30 48765 H 4981.8 2.4041 -4.66158 0
M  V30 48766 H 4983.28 3.92561 -3.88072 0
M  V30 48767 H 4983.75 3.80786 -2.18857 0
M  V30 48768 H 4984.36 2.61144 -3.35684 0
M  V30 48769 N 4982.68 1.41421 0.695553 0
M  V30 48770 C 4984.09 1.3634 1.27548 0
M  V30 48771 C 4984.44 0.0465026 1.96145 0
M  V30 48772 O 4983.56 -0.855234 1.98783 0
M  V30 48773 C 4984.16 2.46949 2.31952 0
M  V30 48774 C 4982.72 2.45266 2.8552 0
M  V30 48775 C 4981.86 2.26796 1.59558 0
M  V30 48776 H 4984.81 1.50936 0.490309 0
M  V30 48777 H 4984.84 2.16008 3.13242 0
M  V30 48778 H 4984.35 3.42781 1.81996 0
M  V30 48779 H 4982.45 1.53191 3.39652 0
M  V30 48780 H 4982.56 3.41577 3.35949 0
M  V30 48781 H 4980.93 1.74674 1.85368 0
M  V30 48782 H 4981.71 3.24655 1.11599 0
M  V30 48783 N 4984.15 -0.929811 1.27249 0
M  V30 48784 C 4985.4 -1.67178 1.12847 0
M  V30 48785 C 4985.72 -1.92871 -0.325598 0
M  V30 48786 O 4986.92 -2.65001 -0.590479 0
M  V30 48787 C 4985.38 -3.0109 1.97162 0
M  V30 48788 C 4984.99 -2.83103 3.47213 0
M  V30 48789 C 4986.73 -3.789 1.91402 0
M  V30 48790 C 4984.64 -4.12558 4.23733 0
M  V30 48791 H 4983.57 -0.627049 0.418719 0
M  V30 48792 H 4986.22 -1.03314 1.51652 0
M  V30 48793 H 4984.6 -3.65998 1.51199 0
M  V30 48794 H 4985.77 -2.26975 4.01023 0
M  V30 48795 H 4984.09 -2.18724 3.54329 0
M  V30 48796 H 4986.69 -4.74828 2.4585 0
M  V30 48797 H 4987.03 -4.06737 0.88719 0
M  V30 48798 H 4987.56 -3.20785 2.35248 0
M  V30 48799 H 4984.3 -3.89902 5.26932 0
M  V30 48800 H 4983.82 -4.68358 3.74701 0
M  V30 48801 H 4985.5 -4.80935 4.32794 0
M  V30 48802 N 4985.63 -1.09237 -1.13601 0
M  V30 48803 C 4986.86 -0.848974 -1.8868 0
M  V30 48804 C 4987.27 0.599604 -1.79026 0
M  V30 48805 O 4986.63 1.41261 -1.15549 0
M  V30 48806 C 4986.68 -1.27285 -3.3835 0
M  V30 48807 O 4986.4 -2.66461 -3.4775 0
M  V30 48808 C 4987.9 -1.06156 -4.30402 0
M  V30 48809 H 4985.12 -0.30557 -0.597384 0
M  V30 48810 H 4987.67 -1.45385 -1.43818 0
M  V30 48811 H 4985.82 -0.71191 -3.80803 0
M  V30 48812 H 4986.24 -2.8428 -4.40778 0
M  V30 48813 H 4987.71 -1.40743 -5.33756 0
M  V30 48814 H 4988.19 0.000805931 -4.392 0
M  V30 48815 H 4988.79 -1.60835 -3.93716 0
M  V30 48816 N 4987.11 1.30792 -0.879276 0
M  V30 48817 C 4988.34 2.00526 -0.509619 0
M  V30 48818 C 4988.75 1.65947 0.900392 0
M  V30 48819 O 4988.11 0.893581 1.59127 0
M  V30 48820 C 4988.16 3.55273 -0.668068 0
M  V30 48821 O 4987.88 3.88618 -2.02256 0
M  V30 48822 C 4989.38 4.42279 -0.300649 0
M  V30 48823 H 4986.6 0.641254 -0.197571 0
M  V30 48824 H 4989.15 1.66809 -1.18301 0
M  V30 48825 H 4987.3 3.87377 -0.0421205 0
M  V30 48826 H 4987.72 4.83326 -2.03705 0
M  V30 48827 H 4989.19 5.5006 -0.462435 0
M  V30 48828 H 4989.67 4.32558 0.760908 0
M  V30 48829 H 4990.27 4.1561 -0.902683 0
M  V30 48830 N 4988.59 0.639649 1.44036 0
M  V30 48831 C 4989.82 0.154883 2.06319 0
M  V30 48832 C 4990.23 -1.17401 1.4786 0
M  V30 48833 O 4989.59 -1.72191 0.604699 0
M  V30 48834 C 4989.64 0.0431229 3.61474 0
M  V30 48835 O 4989.36 1.31947 4.17758 0
M  V30 48836 C 4990.86 -0.469331 4.40809 0
M  V30 48837 H 4988.08 0.0836096 0.665771 0
M  V30 48838 H 4990.62 0.876462 1.84766 0
M  V30 48839 H 4988.78 -0.62894 3.82261 0
M  V30 48840 H 4989.19 1.16983 5.11288 0
M  V30 48841 H 4990.67 -0.496519 5.49762 0
M  V30 48842 H 4991.14 -1.49805 4.12862 0
M  V30 48843 H 4991.75 0.169774 4.24961 0
M  V30 48844 N 4990.07 -1.52932 0.380717 0
M  V30 48845 C 4991.29 -2.05887 -0.204526 0
M  V30 48846 C 4991.71 -1.2531 -1.41219 0
M  V30 48847 O 4991.07 -0.297567 -1.80058 0
M  V30 48848 C 4991.12 -3.56766 -0.583124 0
M  V30 48849 O 4990.84 -4.3429 0.576551 0
M  V30 48850 C 4992.34 -4.26034 -1.22515 0
M  V30 48851 H 4989.56 -0.670194 -0.0328756 0
M  V30 48852 H 4992.1 -1.97146 0.543466 0
M  V30 48853 H 4990.26 -3.65607 -1.28102 0
M  V30 48854 H 4990.67 -5.23818 0.267303 0
M  V30 48855 H 4992.15 -5.32873 -1.44049 0
M  V30 48856 H 4992.62 -3.80706 -2.18997 0
M  V30 48857 H 4993.23 -4.21487 -0.568259 0
M  V30 48858 N 4991.54 -0.110296 -1.57214 0
M  V30 48859 C 4992.77 0.557764 -1.9924 0
M  V30 48860 C 4993.19 1.60775 -0.98979 0
M  V30 48861 O 4992.54 1.82491 0.0185451 0
M  V30 48862 C 4992.59 1.19177 -3.4129 0
M  V30 48863 O 4992.32 0.183765 -4.37714 0
M  V30 48864 C 4993.82 1.94399 -3.98402 0
M  V30 48865 H 4991.04 0.148369 -0.654391 0
M  V30 48866 H 4993.58 -0.194068 -2.03577 0
M  V30 48867 H 4991.74 1.89444 -3.3792 0
M  V30 48868 H 4992.15 0.643292 -5.2054 0
M  V30 48869 H 4993.62 2.34098 -4.99902 0
M  V30 48870 H 4994.1 2.8158 -3.3706 0
M  V30 48871 H 4994.71 1.28914 -4.05292 0
M  V30 48872 N 4993.02 1.5675 0.163455 0
M  V30 48873 C 4994.27 1.82707 0.880104 0
M  V30 48874 C 4994.6 0.689374 1.81552 0
M  V30 48875 O 4993.88 -0.308156 1.92043 0
M  V30 48876 C 4994.16 3.1909 1.66894 0
M  V30 48877 C 4994.01 4.43399 0.756114 0
M  V30 48878 C 4995.33 3.52502 2.63497 0
M  V30 48879 H 4992.45 0.664619 0.318512 0
M  V30 48880 H 4995.09 1.89438 0.14597 0
M  V30 48881 H 4993.24 3.13483 2.29479 0
M  V30 48882 H 4994.91 4.6108 0.142528 0
M  V30 48883 H 4993.16 4.33752 0.0646419 0
M  V30 48884 H 4993.83 5.35395 1.34374 0
M  V30 48885 H 4996.3 3.58613 2.11035 0
M  V30 48886 H 4995.18 4.4899 3.15751 0
M  V30 48887 H 4995.44 2.77609 3.44072 0
M  V30 48888 N 4994.5 -0.432272 1.51556 0
M  V30 48889 C 4995.73 -1.20359 1.6829 0
M  V30 48890 C 4996.14 -1.84887 0.382395 0
M  V30 48891 O 4995.5 -1.70926 -0.639567 0
M  V30 48892 C 4995.55 -2.28388 2.80216 0
M  V30 48893 O 4995.27 -1.66498 4.05228 0
M  V30 48894 C 4996.77 -3.18573 3.08263 0
M  V30 48895 H 4993.99 -0.362571 0.564609 0
M  V30 48896 H 4996.54 -0.511577 1.97998 0
M  V30 48897 H 4994.69 -2.93296 2.53093 0
M  V30 48898 H 4995.11 -2.37934 4.67427 0
M  V30 48899 H 4996.58 -3.90498 3.90148 0
M  V30 48900 H 4997.06 -3.7962 2.20874 0
M  V30 48901 H 4997.66 -2.59361 3.37064 0
M  V30 48902 N 4995.98 -1.41788 -0.688044 0
M  V30 48903 C 4997.39 -1.37014 -1.26823 0
M  V30 48904 C 4997.74 -0.056904 -1.96117 0
M  V30 48905 O 4996.86 0.84468 -1.99234 0
M  V30 48906 C 4997.46 -2.48176 -2.30639 0
M  V30 48907 C 4996.02 -2.46776 -2.84215 0
M  V30 48908 C 4995.17 -2.27639 -1.58353 0
M  V30 48909 H 4998.12 -1.51194 -0.482298 0
M  V30 48910 H 4998.14 -2.17666 -3.12092 0
M  V30 48911 H 4997.65 -3.43742 -1.80176 0
M  V30 48912 H 4995.75 -1.5499 -3.38835 0
M  V30 48913 H 4995.86 -3.43354 -3.34133 0
M  V30 48914 H 4994.23 -1.75654 -1.84439 0
M  V30 48915 H 4995.01 -3.25242 -1.09875 0
M  V30 48916 N 4997.46 0.92305 -1.2774 0
M  V30 48917 C 4998.68 1.70521 -1.17177 0
M  V30 48918 C 4999.1 1.86848 0.270815 0
M  V30 48919 O 4998.46 1.38883 1.18396 0
M  V30 48920 C 4998.51 3.10236 -1.8557 0
M  V30 48921 O 4998.23 2.94671 -3.24192 0
M  V30 48922 C 4999.73 4.0458 -1.81191 0
M  V30 48923 H 4996.95 0.533333 -0.407181 0
M  V30 48924 H 4999.49 1.15593 -1.68696 0
M  V30 48925 H 4997.65 3.62009 -1.37943 0
M  V30 48926 H 4998.06 3.83032 -3.58311 0
M  V30 48927 H 4999.54 5.00111 -2.33651 0
M  V30 48928 H 5000.01 4.32178 -0.782251 0
M  V30 48929 H 5000.62 3.58733 -2.28453 0
M  V30 48930 N 4998.93 1.09838 1.1302 0
M  V30 48931 C 5000.35 0.85571 1.65935 0
M  V30 48932 C 5000.7 -0.615094 1.86309 0
M  V30 48933 O 4999.82 -1.47329 1.58503 0
M  V30 48934 C 5000.42 1.54681 3.01429 0
M  V30 48935 C 4998.98 1.35101 3.51319 0
M  V30 48936 C 4998.12 1.60018 2.26472 0
M  V30 48937 H 5001.07 1.25694 0.968844 0
M  V30 48938 H 5001.09 0.982308 3.67602 0
M  V30 48939 H 5000.61 2.61725 2.86568 0
M  V30 48940 H 4998.71 0.301921 3.71375 0
M  V30 48941 H 4998.82 2.08875 4.31171 0
M  V30 48942 H 4997.18 1.02254 2.33273 0
M  V30 48943 H 4997.97 2.683 2.14172 0
M  V30 48944 N 5000.41 -1.30324 0.8862 0
M  V30 48945 C 5001.64 -2.00252 0.520246 0
M  V30 48946 C 5002.06 -1.66422 -0.891579 0
M  V30 48947 O 5001.41 -0.902007 -1.58651 0
M  V30 48948 C 5001.46 -3.54914 0.6869 0
M  V30 48949 O 5001.18 -3.8754 2.04314 0
M  V30 48950 C 5002.69 -4.42114 0.3241 0
M  V30 48951 H 4999.91 -0.640197 0.200969 0
M  V30 48952 H 5002.45 -1.66179 1.19184 0
M  V30 48953 H 5000.6 -3.87349 0.0626635 0
M  V30 48954 H 5001.02 -4.82239 2.06266 0
M  V30 48955 H 5002.49 -5.49807 0.4916 0
M  V30 48956 H 5002.97 -4.32956 -0.737957 0
M  V30 48957 H 5003.58 -4.15126 0.924711 0
M  V30 48958 N 5001.89 -0.647279 -1.43694 0
M  V30 48959 C 5003.3 -0.238754 -1.85167 0
M  V30 48960 C 5003.65 1.2134 -1.54179 0
M  V30 48961 O 5002.78 1.92539 -0.987811 0
M  V30 48962 C 5003.37 -0.426541 -3.36104 0
M  V30 48963 C 5001.93 -0.0723864 -3.7633 0
M  V30 48964 C 5001.08 -0.732247 -2.67457 0
M  V30 48965 H 5004.03 -0.851356 -1.33931 0
M  V30 48966 H 5004.05 0.329737 -3.79069 0
M  V30 48967 H 5003.56 -1.48352 -3.58627 0
M  V30 48968 H 5001.66 0.982229 -3.5942 0
M  V30 48969 H 5001.78 -0.493709 -4.76549 0
M  V30 48970 H 5000.14 -0.166029 -2.54158 0
M  V30 48971 H 5000.92 -1.79214 -2.92809 0
M  V30 48972 N 5003.37 1.52728 -0.388822 0
M  V30 48973 C 5004.6 2.05992 0.193605 0
M  V30 48974 C 5005.01 1.26058 1.40552 0
M  V30 48975 O 5004.37 0.307112 1.79897 0
M  V30 48976 C 5004.42 3.5707 0.564195 0
M  V30 48977 O 5004.14 4.33978 -0.599574 0
M  V30 48978 C 5005.64 4.26678 1.20254 0
M  V30 48979 H 5002.86 0.670359 0.0293209 0
M  V30 48980 H 5005.41 1.96855 -0.553913 0
M  V30 48981 H 5003.56 3.66281 1.26161 0
M  V30 48982 H 5003.97 5.23669 -0.295079 0
M  V30 48983 H 5005.45 5.3363 1.41221 0
M  V30 48984 H 5005.93 3.81862 2.16975 0
M  V30 48985 H 5006.53 4.21782 0.545899 0
M  V30 48986 N 5004.85 0.118632 1.57153 0
M  V30 48987 C 5006.09 -0.538392 1.94797 0
M  V30 48988 C 5006.42 -1.67239 1.0028 0
M  V30 48989 O 5005.69 -1.95811 0.0590381 0
M  V30 48990 H 5004.27 -0.201878 0.719204 0
M  V30 48991 H 5006.93 0.187486 1.93996 0
M  V30 48992 H 5006.02 -0.93321 2.97821 0
M  V30 48993 N 5006.32 -1.56835 -0.15514 0
M  V30 48994 C 5007.55 -1.87052 -0.88426 0
M  V30 48995 C 5007.97 -0.705901 -1.75107 0
M  V30 48996 O 5007.32 0.324578 -1.7959 0
M  V30 48997 C 5007.38 -3.16446 -1.74769 0
M  V30 48998 O 5007.1 -4.28421 -0.915828 0
M  V30 48999 C 5008.6 -3.60122 -2.5851 0
M  V30 49000 H 5005.82 -0.620205 -0.256098 0
M  V30 49001 H 5008.36 -2.03946 -0.150373 0
M  V30 49002 H 5006.52 -3.01329 -2.43473 0
M  V30 49003 H 5006.93 -5.02359 -1.50785 0
M  V30 49004 H 5008.4 -4.53519 -3.14682 0
M  V30 49005 H 5008.88 -2.85017 -3.34159 0
M  V30 49006 H 5009.49 -3.77905 -1.9511 0
M  V30 49007 N 5007.8 0.424229 -1.51783 0
M  V30 49008 C 5008.73 1.53451 -1.70251 0
M  V30 49009 C 5009.75 1.52002 -0.58302 0
M  V30 49010 O 5010.94 1.56541 -0.857738 0
M  V30 49011 C 5008.04 2.92362 -1.714 0
M  V30 49012 C 5007.21 3.1817 -3.00145 0
M  V30 49013 C 5006.27 4.36874 -2.93305 0
M  V30 49014 O 5005.29 4.34888 -3.67234 0
M  V30 49015 N 5006.5 5.41163 -2.10055 0
M  V30 49016 H 5009.26 1.38008 -2.66034 0
M  V30 49017 H 5006.82 0.613342 -1.49832 0
M  V30 49018 H 5008.81 3.69815 -1.64375 0
M  V30 49019 H 5007.38 3.01337 -0.831555 0
M  V30 49020 H 5006.6 2.28897 -3.20936 0
M  V30 49021 H 5007.89 3.32248 -3.85343 0
M  V30 49022 H 5007.29 5.45617 -1.49392 0
M  V30 49023 H 5005.85 6.17417 -2.089 0
M  V30 49024 N 5009.28 1.4215 0.680515 0
M  V30 49025 C 5010.51 1.45701 1.46897 0
M  V30 49026 C 5010.92 0.0666521 1.88682 0
M  V30 49027 O 5010.28 -0.917381 1.57767 0
M  V30 49028 C 5010.33 2.37908 2.7218 0
M  V30 49029 O 5010.05 3.71534 2.3215 0
M  V30 49030 C 5011.55 2.5042 3.65794 0
M  V30 49031 H 5008.77 0.495745 0.452192 0
M  V30 49032 H 5011.32 1.86603 0.836644 0
M  V30 49033 H 5009.47 2.00275 3.31615 0
M  V30 49034 H 5009.89 4.2086 3.13013 0
M  V30 49035 H 5011.36 3.19072 4.50441 0
M  V30 49036 H 5011.84 1.54024 4.11307 0
M  V30 49037 H 5012.44 2.88751 3.12255 0
M  V30 49038 N 5010.76 -0.916262 1.28228 0
M  V30 49039 C 5012.17 -1.4802 1.13784 0
M  V30 49040 C 5012.52 -1.9429 -0.273071 0
M  V30 49041 O 5011.65 -1.8223 -1.1671 0
M  V30 49042 C 5012.24 -2.69021 2.05944 0
M  V30 49043 C 5010.8 -3.21603 1.95572 0
M  V30 49044 C 5009.95 -1.94314 1.97831 0
M  V30 49045 H 5012.9 -0.729223 1.40954 0
M  V30 49046 H 5012.92 -3.44199 1.62196 0
M  V30 49047 H 5012.43 -2.35314 3.08624 0
M  V30 49048 H 5010.53 -3.60042 0.959203 0
M  V30 49049 H 5010.64 -3.87022 2.82401 0
M  V30 49050 H 5009.01 -2.11305 1.42206 0
M  V30 49051 H 5009.79 -1.62906 3.02186 0
M  V30 49052 N 5012.24 -1.10435 -1.12436 0
M  V30 49053 C 5013.47 -0.868938 -1.87769 0
M  V30 49054 C 5013.88 0.580582 -1.79652 0
M  V30 49055 O 5013.24 1.40027 -1.17041 0
M  V30 49056 C 5013.29 -1.30867 -3.36981 0
M  V30 49057 O 5013.01 -2.70135 -3.44904 0
M  V30 49058 C 5014.51 -1.10715 -4.29252 0
M  V30 49059 H 5011.73 -0.311889 -0.594109 0
M  V30 49060 H 5014.27 -1.46902 -1.42268 0
M  V30 49061 H 5012.43 -0.752259 -3.80026 0
M  V30 49062 H 5012.84 -2.88939 -4.37738 0
M  V30 49063 H 5014.32 -1.46397 -5.32233 0
M  V30 49064 H 5014.79 -0.0457771 -4.39176 0
M  V30 49065 H 5015.4 -1.65002 -3.91988 0
M  V30 49066 N 5013.72 1.29852 -0.893099 0
M  V30 49067 C 5014.94 1.99974 -0.530859 0
M  V30 49068 C 5015.36 1.66893 0.88274 0
M  V30 49069 O 5014.72 0.910408 1.5817 0
M  V30 49070 C 5014.77 3.54545 -0.705712 0
M  V30 49071 O 5014.49 3.86451 -2.06366 0
M  V30 49072 C 5015.99 4.41936 -0.347542 0
M  V30 49073 H 5013.21 0.639122 -0.204362 0
M  V30 49074 H 5015.75 1.65545 -1.20063 0
M  V30 49075 H 5013.91 3.87311 -0.0832047 0
M  V30 49076 H 5014.32 4.81139 -2.0882 0
M  V30 49077 H 5015.8 5.49538 -0.520751 0
M  V30 49078 H 5016.27 4.33341 0.714986 0
M  V30 49079 H 5016.88 4.14629 -0.946713 0
M  V30 49080 N 5015.19 0.65489 1.43349 0
M  V30 49081 C 5016.42 0.176758 2.06144 0
M  V30 49082 C 5016.84 -1.15826 1.49097 0
M  V30 49083 O 5016.19 -1.7154 0.622928 0
M  V30 49084 C 5016.24 0.0814596 3.61408 0
M  V30 49085 O 5015.97 1.3637 4.16335 0
M  V30 49086 C 5017.47 -0.422551 4.41282 0
M  V30 49087 H 5014.69 0.0906663 0.664846 0
M  V30 49088 H 5017.23 0.89601 1.83826 0
M  V30 49089 H 5015.39 -0.588361 3.82906 0
M  V30 49090 H 5015.8 1.22399 5.10018 0
M  V30 49091 H 5017.27 -0.438181 5.50258 0
M  V30 49092 H 5017.75 -1.45417 4.14428 0
M  V30 49093 H 5018.36 0.214837 4.24757 0
M  V30 49094 N 5016.67 -1.5252 0.396917 0
M  V30 49095 C 5018.08 -1.86548 -0.0754212 0
M  V30 49096 C 5018.43 -1.31626 -1.45496 0
M  V30 49097 O 5017.56 -0.650636 -2.06387 0
M  V30 49098 C 5018.15 -3.38495 -0.143635 0
M  V30 49099 C 5016.71 -3.72207 -0.560282 0
M  V30 49100 C 5015.86 -2.75953 0.272953 0
M  V30 49101 H 5018.81 -1.46321 0.614485 0
M  V30 49102 H 5018.83 -3.68157 -0.961296 0
M  V30 49103 H 5018.34 -3.78439 0.860548 0
M  V30 49104 H 5016.44 -3.37836 -1.57155 0
M  V30 49105 H 5016.56 -4.78076 -0.313146 0
M  V30 49106 H 5014.92 -2.53339 -0.262911 0
M  V30 49107 H 5015.7 -3.18735 1.27526 0
M  V30 49108 N 5018.15 -0.126964 -1.57088 0
M  V30 49109 C 5019.4 0.528955 -1.94641 0
M  V30 49110 C 5019.71 1.67319 -1.0131 0
M  V30 49111 O 5020.92 2.3924 -1.2836 0
M  V30 49112 C 5019.37 0.992361 -3.45948 0
M  V30 49113 C 5018.98 -0.123849 -4.47829 0
M  V30 49114 C 5020.73 1.61921 -3.92405 0
M  V30 49115 C 5018.63 0.356703 -5.90323 0
M  V30 49116 H 5017.56 0.201371 -0.726612 0
M  V30 49117 H 5020.21 -0.208096 -1.82316 0
M  V30 49118 H 5018.6 1.78407 -3.53535 0
M  V30 49119 H 5019.77 -0.900327 -4.51919 0
M  V30 49120 H 5018.08 -0.657844 -4.11171 0
M  V30 49121 H 5020.68 1.99002 -4.96288 0
M  V30 49122 H 5021.02 2.50063 -3.32827 0
M  V30 49123 H 5021.56 0.892758 -3.87653 0
M  V30 49124 H 5018.3 -0.488866 -6.53675 0
M  V30 49125 H 5017.82 1.09949 -5.89637 0
M  V30 49126 H 5019.5 0.815322 -6.41842 0
M  V30 49127 N 5019.63 1.56915 0.14682 0
M  V30 49128 C 5020.86 1.87518 0.874328 0
M  V30 49129 C 5021.27 0.715177 1.7473 0
M  V30 49130 O 5020.63 -0.31505 1.7976 0
M  V30 49131 C 5020.68 3.17368 1.73089 0
M  V30 49132 O 5020.4 4.289 0.893094 0
M  V30 49133 C 5021.9 3.61488 2.56596 0
M  V30 49134 H 5019.12 0.621555 0.252806 0
M  V30 49135 H 5021.66 2.04023 0.139555 0
M  V30 49136 H 5019.82 3.02616 2.41872 0
M  V30 49137 H 5020.23 5.03151 1.48119 0
M  V30 49138 H 5021.71 4.55181 3.12273 0
M  V30 49139 H 5022.18 2.86785 3.32642 0
M  V30 49140 H 5022.79 3.78934 1.93104 0
M  V30 49141 N 5021.11 -0.416173 1.52006 0
M  V30 49142 C 5022.33 -1.18567 1.69557 0
M  V30 49143 C 5022.75 -1.84471 0.401983 0
M  V30 49144 O 5022.11 -1.71595 -0.621402 0
M  V30 49145 C 5022.16 -2.25403 2.82623 0
M  V30 49146 O 5021.88 -1.62191 4.06972 0
M  V30 49147 C 5023.38 -3.15286 3.11624 0
M  V30 49148 H 5020.6 -0.356562 0.568423 0
M  V30 49149 H 5023.14 -0.490548 1.98529 0
M  V30 49150 H 5021.3 -2.90595 2.5619 0
M  V30 49151 H 5021.71 -2.32963 4.69924 0
M  V30 49152 H 5023.19 -3.86338 3.94268 0
M  V30 49153 H 5023.66 -3.77256 2.24888 0
M  V30 49154 H 5024.27 -2.55771 3.39796 0
M  V30 49155 N 5022.58 -1.42509 -0.672966 0
M  V30 49156 C 5023.81 -1.46478 -1.46122 0
M  V30 49157 C 5024.23 -0.0766575 -1.88644 0
M  V30 49158 O 5023.58 0.909001 -1.58251 0
M  V30 49159 C 5023.63 -2.39348 -2.70915 0
M  V30 49160 O 5023.36 -3.7276 -2.30177 0
M  V30 49161 C 5024.86 -2.52356 -3.6446 0
M  V30 49162 H 5022.08 -0.498136 -0.449557 0
M  V30 49163 H 5024.62 -1.87044 -0.826736 0
M  V30 49164 H 5022.78 -2.02031 -3.30548 0
M  V30 49165 H 5023.19 -4.22514 -3.10776 0
M  V30 49166 H 5024.66 -3.21456 -4.48743 0
M  V30 49167 H 5025.14 -1.56203 -4.10484 0
M  V30 49168 H 5025.75 -2.90403 -3.10719 0
M  V30 49169 N 5024.06 0.909449 -1.28712 0
M  V30 49170 C 5025.29 1.69268 -1.18979 0
M  V30 49171 C 5025.7 1.87124 0.250982 0
M  V30 49172 O 5025.06 1.40131 1.16917 0
M  V30 49173 C 5025.11 3.0825 -1.8885 0
M  V30 49174 O 5024.83 2.91216 -3.27299 0
M  V30 49175 C 5026.33 4.02635 -1.85471 0
M  V30 49176 H 5023.55 0.528984 -0.412815 0
M  V30 49177 H 5026.1 1.13797 -1.69913 0
M  V30 49178 H 5024.25 3.60525 -1.41775 0
M  V30 49179 H 5024.67 3.7921 -3.62353 0
M  V30 49180 H 5026.14 4.97605 -2.38942 0
M  V30 49181 H 5026.62 4.31324 -0.828045 0
M  V30 49182 H 5027.22 3.5629 -2.32245 0
M  V30 49183 N 5025.54 1.1103 1.11848 0
M  V30 49184 C 5026.77 0.878884 1.87305 0
M  V30 49185 C 5027.18 -0.571047 1.79957 0
M  V30 49186 O 5026.54 -1.39405 1.17782 0
M  V30 49187 C 5026.59 1.32652 3.36282 0
M  V30 49188 O 5026.31 2.7196 3.43467 0
M  V30 49189 C 5027.81 1.12989 4.28659 0
M  V30 49190 H 5025.03 0.315036 0.592447 0
M  V30 49191 H 5027.58 1.47654 1.41487 0
M  V30 49192 H 5025.73 0.772402 3.79622 0
M  V30 49193 H 5026.15 2.91256 4.362 0
M  V30 49194 H 5027.62 1.49217 5.31449 0
M  V30 49195 H 5028.1 0.0690671 4.39146 0
M  V30 49196 H 5028.7 1.67078 3.91107 0
M  V30 49197 N 5027.02 -1.29376 0.899973 0
M  V30 49198 C 5028.26 -1.95838 0.526811 0
M  V30 49199 C 5028.6 -1.70777 -0.924591 0
M  V30 49200 O 5027.87 -1.0209 -1.65553 0
M  V30 49201 C 5028.16 -3.50635 0.820185 0
M  V30 49202 C 5028.01 -3.85152 2.32331 0
M  V30 49203 C 5029.33 -4.39029 0.306864 0
M  V30 49204 H 5026.45 -0.711315 0.192873 0
M  V30 49205 H 5029.09 -1.52988 1.1267 0
M  V30 49206 H 5027.24 -3.87264 0.309627 0
M  V30 49207 H 5028.91 -3.58467 2.90343 0
M  V30 49208 H 5027.15 -3.32686 2.78393 0
M  V30 49209 H 5027.82 -4.93196 2.47915 0
M  V30 49210 H 5030.3 -4.09394 0.744052 0
M  V30 49211 H 5029.18 -5.46224 0.541336 0
M  V30 49212 H 5029.44 -4.3494 -0.792435 0
M  V30 49213 N 5028.5 -0.662483 -1.43 0
M  V30 49214 C 5029.72 -0.187687 -2.06047 0
M  V30 49215 C 5030.14 1.15033 -1.49709 0
M  V30 49216 O 5029.5 1.71207 -0.632017 0
M  V30 49217 C 5029.55 -0.100625 -3.6136 0
M  V30 49218 O 5029.27 -1.38576 -4.15606 0
M  V30 49219 C 5030.77 0.399143 -4.41499 0
M  V30 49220 H 5027.99 -0.0941908 -0.664356 0
M  V30 49221 H 5030.53 -0.905746 -1.83348 0
M  V30 49222 H 5028.69 0.568046 -3.83213 0
M  V30 49223 H 5029.1 -1.25102 -5.09362 0
M  V30 49224 H 5030.58 0.408994 -5.50483 0
M  V30 49225 H 5031.05 1.43217 -4.15193 0
M  V30 49226 H 5031.66 -0.23736 -4.24637 0
M  V30 49227 N 5029.97 1.52307 -0.404999 0
M  V30 49228 C 5031.39 1.86585 0.065527 0
M  V30 49229 C 5031.74 1.32395 1.44796 0
M  V30 49230 O 5030.86 0.661572 2.06039 0
M  V30 49231 C 5031.46 3.38567 0.125682 0
M  V30 49232 C 5030.02 3.72499 0.540535 0
M  V30 49233 C 5029.16 2.75805 -0.287584 0
M  V30 49234 H 5032.11 1.45993 -0.622236 0
M  V30 49235 H 5032.13 3.68661 0.941758 0
M  V30 49236 H 5031.65 3.77977 -0.880606 0
M  V30 49237 H 5029.75 3.38664 1.55362 0
M  V30 49238 H 5029.86 4.78235 0.287788 0
M  V30 49239 H 5028.22 2.53475 0.249472 0
M  V30 49240 H 5029.01 3.18054 -1.29214 0
M  V30 49241 N 5031.45 0.135293 1.57018 0
M  V30 49242 C 5032.68 -0.525996 2.00102 0
M  V30 49243 C 5033.1 -1.5918 1.01524 0
M  V30 49244 O 5032.45 -1.82497 0.0104899 0
M  V30 49245 C 5032.5 -1.13732 3.43143 0
M  V30 49246 O 5032.22 -0.114105 4.37951 0
M  V30 49247 C 5033.73 -1.88036 4.01444 0
M  V30 49248 H 5030.95 -0.137939 0.656669 0
M  V30 49249 H 5033.49 0.226431 2.03243 0
M  V30 49250 H 5031.64 -1.84044 3.40891 0
M  V30 49251 H 5032.06 -0.560397 5.21498 0
M  V30 49252 H 5033.53 -2.26116 5.03563 0
M  V30 49253 H 5034.01 -2.76182 3.41497 0
M  V30 49254 H 5034.62 -1.2245 4.07291 0
M  V30 49255 N 5032.93 -1.5699 -0.138497 0
M  V30 49256 C 5034.34 -1.73174 -0.697693 0
M  V30 49257 C 5034.69 -0.751016 -1.81257 0
M  V30 49258 O 5033.82 0.080473 -2.1625 0
M  V30 49259 C 5034.41 -3.14 -1.27237 0
M  V30 49260 C 5032.97 -3.31757 -1.77805 0
M  V30 49261 C 5032.12 -2.69087 -0.669897 0
M  V30 49262 H 5035.07 -1.5846 0.0872536 0
M  V30 49263 H 5035.09 -3.14471 -2.14215 0
M  V30 49264 H 5034.6 -3.85356 -0.460719 0
M  V30 49265 H 5032.7 -2.65412 -2.6151 0
M  V30 49266 H 5032.82 -4.39775 -1.90091 0
M  V30 49267 H 5031.18 -2.29786 -1.09866 0
M  V30 49268 H 5031.96 -3.43052 0.13045 0
M  V30 49269 N 5034.41 0.408106 -1.52224 0
M  V30 49270 C 5035.64 1.17666 -1.70183 0
M  V30 49271 C 5036.05 1.84255 -0.411761 0
M  V30 49272 O 5035.41 1.71922 0.612293 0
M  V30 49273 C 5035.46 2.23901 -2.83814 0
M  V30 49274 O 5035.18 1.6003 -4.07826 0
M  V30 49275 C 5036.68 3.13629 -3.13292 0
M  V30 49276 H 5033.9 0.353542 -0.570306 0
M  V30 49277 H 5036.45 0.480013 -1.98787 0
M  V30 49278 H 5034.6 2.89233 -2.57727 0
M  V30 49279 H 5035.01 2.30468 -4.71153 0
M  V30 49280 H 5036.49 3.84241 -3.96311 0
M  V30 49281 H 5036.97 3.76058 -2.26885 0
M  V30 49282 H 5037.57 2.53965 -3.41148 0
M  V30 49283 N 5035.89 1.42864 0.665399 0
M  V30 49284 C 5037.3 1.39015 1.24627 0
M  V30 49285 C 5037.65 0.0880974 1.96002 0
M  V30 49286 O 5036.77 -0.812877 2.00552 0
M  V30 49287 C 5037.37 2.51813 2.26661 0
M  V30 49288 C 5035.93 2.51267 2.80253 0
M  V30 49289 C 5035.07 2.30129 1.54712 0
M  V30 49290 H 5038.03 1.51942 0.458183 0
M  V30 49291 H 5038.05 2.22604 3.0859 0
M  V30 49292 H 5037.56 3.46564 1.74685 0
M  V30 49293 H 5035.66 1.60361 3.36326 0
M  V30 49294 H 5035.77 3.48626 3.28629 0
M  V30 49295 H 5034.14 1.78566 1.81621 0
M  V30 49296 H 5034.92 3.26949 1.04687 0
M  V30 49297 N 5037.36 -0.902611 1.29192 0
M  V30 49298 C 5038.59 -1.68635 1.19875 0
M  V30 49299 C 5039.01 -1.87255 -0.241055 0
M  V30 49300 O 5038.36 -1.40749 -1.16172 0
M  V30 49301 C 5038.42 -3.07244 1.90482 0
M  V30 49302 O 5038.14 -2.89476 3.28839 0
M  V30 49303 C 5039.64 -4.01646 1.87604 0
M  V30 49304 H 5036.86 -0.526788 0.415615 0
M  V30 49305 H 5039.4 -1.12895 1.70514 0
M  V30 49306 H 5037.56 -3.59769 1.43685 0
M  V30 49307 H 5037.97 -3.77283 3.64359 0
M  V30 49308 H 5039.44 -4.96331 2.41578 0
M  V30 49309 H 5039.92 -4.30878 0.850907 0
M  V30 49310 H 5040.53 -3.55053 2.34131 0
M  V30 49311 N 5038.84 -1.11622 -1.11258 0
M  V30 49312 C 5040.09 -0.864533 -1.82675 0
M  V30 49313 C 5040.41 0.611499 -1.85164 0
M  V30 49314 O 5039.68 1.44425 -1.32357 0
M  V30 49315 H 5038.26 -0.316844 -0.676475 0
M  V30 49316 H 5040.92 -1.40899 -1.34661 0
M  V30 49317 H 5040.02 -1.23842 -2.86478 0
M  V30 49318 N 5040.32 1.28897 -0.906821 0
M  V30 49319 C 5041.55 1.99399 -0.552039 0
M  V30 49320 C 5041.96 1.67819 0.864989 0
M  V30 49321 O 5041.32 0.927133 1.57196 0
M  V30 49322 C 5041.37 3.53776 -0.743276 0
M  V30 49323 O 5041.09 3.84241 -2.10454 0
M  V30 49324 C 5042.59 4.41542 -0.394396 0
M  V30 49325 H 5039.81 0.636919 -0.211129 0
M  V30 49326 H 5042.36 1.64262 -1.21812 0
M  V30 49327 H 5040.51 3.87201 -0.124279 0
M  V30 49328 H 5040.93 4.78897 -2.13911 0
M  V30 49329 H 5042.4 5.48955 -0.579007 0
M  V30 49330 H 5042.88 4.34075 0.668984 0
M  V30 49331 H 5043.48 4.13602 -0.990637 0
M  V30 49332 N 5041.8 0.670057 1.42646 0
M  V30 49333 C 5042.73 -0.050094 2.29145 0
M  V30 49334 C 5043.74 -0.770281 1.43424 0
M  V30 49335 O 5044.93 -0.625229 1.67192 0
M  V30 49336 C 5042.03 -1.09452 3.20739 0
M  V30 49337 C 5041.21 -0.449107 4.35088 0
M  V30 49338 C 5040.27 -1.39267 5.07436 0
M  V30 49339 O 5039.29 -0.894799 5.62123 0
M  V30 49340 N 5040.49 -2.72613 5.12506 0
M  V30 49341 H 5043.26 0.692415 2.91592 0
M  V30 49342 H 5040.82 0.51411 1.5352 0
M  V30 49343 H 5042.81 -1.72692 3.66005 0
M  V30 49344 H 5041.38 -1.73882 2.59777 0
M  V30 49345 H 5040.6 0.362711 3.92528 0
M  V30 49346 H 5041.89 0.000723644 5.088 0
M  V30 49347 H 5041.29 -3.15606 4.69478 0
M  V30 49348 H 5039.84 -3.31112 5.61434 0
M  V30 49349 N 5043.28 -1.5209 0.413071 0
M  V30 49350 C 5044.51 -2.06274 -0.160809 0
M  V30 49351 C 5044.92 -1.28278 -1.38529 0
M  V30 49352 O 5044.28 -0.335693 -1.79386 0
M  V30 49353 C 5044.33 -3.57923 -0.507317 0
M  V30 49354 O 5044.05 -4.32969 0.668541 0
M  V30 49355 C 5045.55 -4.28537 -1.1345 0
M  V30 49356 H 5042.77 -0.670741 -0.0186524 0
M  V30 49357 H 5045.31 -1.95949 0.585161 0
M  V30 49358 H 5043.47 -3.68242 -1.20318 0
M  V30 49359 H 5043.88 -5.23134 0.378353 0
M  V30 49360 H 5045.36 -5.35809 -1.32713 0
M  V30 49361 H 5045.83 -3.85265 -2.10873 0
M  V30 49362 H 5046.44 -4.22597 -0.478728 0
M  V30 49363 N 5044.76 -0.143618 -1.56944 0
M  V30 49364 C 5046.17 0.377766 -1.82838 0
M  V30 49365 C 5046.52 1.64963 -1.06214 0
M  V30 49366 O 5045.64 2.1422 -0.306366 0
M  V30 49367 C 5046.24 0.692157 -3.31654 0
M  V30 49368 C 5044.8 1.15808 -3.58142 0
M  V30 49369 C 5043.94 0.179413 -2.76719 0
M  V30 49370 H 5046.89 -0.368372 -1.54366 0
M  V30 49371 H 5046.92 1.54717 -3.47625 0
M  V30 49372 H 5046.43 -0.233708 -3.87396 0
M  V30 49373 H 5044.53 2.1 -3.07784 0
M  V30 49374 H 5044.64 1.08639 -4.6662 0
M  V30 49375 H 5043.01 0.671372 -2.45692 0
M  V30 49376 H 5043.79 -0.739983 -3.3523 0
M  V30 49377 N 5046.23 1.57062 0.130169 0
M  V30 49378 C 5047.46 1.88435 0.85439 0
M  V30 49379 C 5047.88 0.73367 1.73962 0
M  V30 49380 O 5047.23 -0.295966 1.80084 0
M  V30 49381 C 5047.28 3.19186 1.69713 0
M  V30 49382 O 5047.01 4.29823 0.847554 0
M  V30 49383 C 5048.51 3.64189 2.52748 0
M  V30 49384 H 5045.73 0.624201 0.246199 0
M  V30 49385 H 5048.27 2.0416 0.117908 0
M  V30 49386 H 5046.43 3.05165 2.38649 0
M  V30 49387 H 5046.84 5.04694 1.42774 0
M  V30 49388 H 5048.31 4.58468 3.07427 0
M  V30 49389 H 5048.79 2.90297 3.29582 0
M  V30 49390 H 5049.4 3.80961 1.89074 0
M  V30 49391 N 5047.71 -0.400028 1.52439 0
M  V30 49392 C 5048.94 -1.16762 1.70805 0
M  V30 49393 C 5049.35 -1.84034 0.421526 0
M  V30 49394 O 5048.71 -1.72244 -0.603167 0
M  V30 49395 C 5048.76 -2.22393 2.84998 0
M  V30 49396 O 5048.48 -1.57865 4.08669 0
M  V30 49397 C 5049.98 -3.11963 3.14951 0
M  V30 49398 H 5047.2 -0.350513 0.572173 0
M  V30 49399 H 5049.75 -0.469464 1.99038 0
M  V30 49400 H 5047.9 -2.87862 2.59257 0
M  V30 49401 H 5048.32 -2.27966 4.72368 0
M  V30 49402 H 5049.79 -3.82134 3.98344 0
M  V30 49403 H 5050.27 -3.7485 2.28876 0
M  V30 49404 H 5050.87 -2.52153 3.4249 0
M  V30 49405 N 5049.19 -1.43215 -0.657814 0
M  V30 49406 C 5050.42 -1.4802 -1.44561 0
M  V30 49407 C 5050.83 -0.0966614 -1.88552 0
M  V30 49408 O 5050.19 0.892165 -1.59206 0
M  V30 49409 C 5050.24 -2.42208 -2.68361 0
M  V30 49410 O 5049.96 -3.75181 -2.2621 0
M  V30 49411 C 5051.46 -2.56207 -3.61763 0
M  V30 49412 H 5048.68 -0.502876 -0.444248 0
M  V30 49413 H 5051.23 -1.8791 -0.806851 0
M  V30 49414 H 5049.38 -2.05526 -3.28387 0
M  V30 49415 H 5049.8 -4.25787 -3.06278 0
M  V30 49416 H 5051.27 -3.26197 -4.45308 0
M  V30 49417 H 5051.75 -1.60548 -4.08804 0
M  V30 49418 H 5052.35 -2.93682 -3.07621 0
M  V30 49419 N 5050.67 0.895746 -1.29669 0
M  V30 49420 C 5052.08 1.46191 -1.16125 0
M  V30 49421 C 5052.43 1.947 0.242127 0
M  V30 49422 O 5051.55 1.84064 1.13796 0
M  V30 49423 C 5052.15 2.65711 -2.10198 0
M  V30 49424 C 5050.71 3.18451 -2.00664 0
M  V30 49425 C 5049.86 1.91142 -2.00898 0
M  V30 49426 H 5052.81 0.706706 -1.42096 0
M  V30 49427 H 5052.83 3.41575 -1.67652 0
M  V30 49428 H 5052.34 2.30375 -3.12329 0
M  V30 49429 H 5050.44 3.5847 -1.01636 0
M  V30 49430 H 5050.55 3.82481 -2.88523 0
M  V30 49431 H 5048.92 2.09016 -1.45549 0
M  V30 49432 H 5049.7 1.58078 -3.0474 0
M  V30 49433 N 5052.15 1.1221 1.10665 0
M  V30 49434 C 5053.39 0.870659 1.81941 0
M  V30 49435 C 5053.71 -0.605382 1.85996 0
M  V30 49436 O 5054.91 -0.973344 2.53453 0
M  V30 49437 C 5053.37 1.50795 3.26786 0
M  V30 49438 C 5052.98 3.0186 3.31035 0
M  V30 49439 C 5054.72 1.33668 4.02906 0
M  V30 49440 C 5052.63 3.58534 4.70327 0
M  V30 49441 H 5051.56 0.322067 0.681754 0
M  V30 49442 H 5054.21 1.34831 1.2447 0
M  V30 49443 H 5052.59 0.95796 3.84238 0
M  V30 49444 H 5053.77 3.63331 2.8342 0
M  V30 49445 H 5052.08 3.18356 2.684 0
M  V30 49446 H 5054.68 1.73434 5.05791 0
M  V30 49447 H 5055.02 0.280095 4.15357 0
M  V30 49448 H 5055.55 1.85575 3.51862 0
M  V30 49449 H 5052.29 4.63942 4.63075 0
M  V30 49450 H 5051.81 3.01838 5.18319 0
M  V30 49451 H 5053.49 3.57453 5.39293 0
M  V30 49452 N 5053.62 -1.28415 0.913644 0
M  V30 49453 C 5054.85 -1.99104 0.562606 0
M  V30 49454 C 5055.27 -1.68276 -0.856077 0
M  V30 49455 O 5054.62 -0.935456 -1.56702 0
M  V30 49456 C 5054.67 -3.53377 0.762027 0
M  V30 49457 O 5054.4 -3.83119 2.12488 0
M  V30 49458 C 5055.9 -4.41327 0.417806 0
M  V30 49459 H 5053.12 -0.63579 0.214504 0
M  V30 49460 H 5055.66 -1.63614 1.22682 0
M  V30 49461 H 5053.82 -3.87129 0.144812 0
M  V30 49462 H 5054.23 -4.77756 2.16448 0
M  V30 49463 H 5055.7 -5.4864 0.608111 0
M  V30 49464 H 5056.18 -4.34424 -0.645955 0
M  V30 49465 H 5056.79 -4.13071 1.01256 0
M  V30 49466 N 5055.1 -0.677613 -1.42289 0
M  V30 49467 C 5056.33 -0.209531 -2.05836 0
M  V30 49468 C 5056.74 1.13439 -1.50921 0
M  V30 49469 O 5056.1 1.70527 -0.65014 0
M  V30 49470 C 5056.15 -0.138946 -3.61233 0
M  V30 49471 O 5055.87 -1.42976 -4.14113 0
M  V30 49472 C 5057.37 0.352293 -4.41898 0
M  V30 49473 H 5054.59 -0.101232 -0.66332 0
M  V30 49474 H 5057.14 -0.925141 -1.82377 0
M  V30 49475 H 5055.29 0.52737 -3.83794 0
M  V30 49476 H 5055.71 -1.30498 -5.08006 0
M  V30 49477 H 5057.18 0.350585 -5.50886 0
M  V30 49478 H 5057.66 1.38806 -4.16689 0
M  V30 49479 H 5058.26 -0.282385 -4.24361 0
M  V30 49480 N 5056.58 1.51869 -0.421131 0
M  V30 49481 C 5057.81 2.06357 0.149867 0
M  V30 49482 C 5058.22 1.29011 1.37847 0
M  V30 49483 O 5057.58 0.345202 1.79205 0
M  V30 49484 C 5057.63 3.58187 0.488328 0
M  V30 49485 O 5057.35 4.32608 -0.691493 0
M  V30 49486 C 5058.85 4.29133 1.11176 0
M  V30 49487 H 5056.07 0.67083 0.015095 0
M  V30 49488 H 5058.62 1.95636 -0.595545 0
M  V30 49489 H 5056.77 3.68875 1.18363 0
M  V30 49490 H 5057.19 5.22926 -0.40609 0
M  V30 49491 H 5058.66 5.36505 1.2987 0
M  V30 49492 H 5059.14 3.86378 2.08826 0
M  V30 49493 H 5059.74 4.22845 0.45631 0
M  V30 49494 N 5058.06 0.151939 1.56866 0
M  V30 49495 C 5059.29 -0.504743 2.00649 0
M  V30 49496 C 5059.7 -1.58094 1.03207 0
M  V30 49497 O 5059.06 -1.82476 0.0298456 0
M  V30 49498 C 5059.11 -1.10087 3.4433 0
M  V30 49499 O 5058.83 -0.0676481 4.38048 0
M  V30 49500 C 5060.33 -1.83767 4.03416 0
M  V30 49501 H 5057.55 -0.130966 0.658095 0
M  V30 49502 H 5060.1 0.247975 2.02991 0
M  V30 49503 H 5058.25 -1.80418 3.42824 0
M  V30 49504 H 5058.66 -0.505054 5.22063 0
M  V30 49505 H 5060.14 -2.20762 5.05933 0
M  V30 49506 H 5060.62 -2.72545 3.44407 0
M  V30 49507 H 5061.22 -1.18123 4.08567 0
M  V30 49508 N 5059.54 -1.57128 -0.121838 0
M  V30 49509 C 5060.76 -1.88886 -0.844385 0
M  V30 49510 C 5061.18 -0.742885 -1.7357 0
M  V30 49511 O 5060.54 0.286411 -1.80239 0
M  V30 49512 C 5060.59 -3.20082 -1.68018 0
M  V30 49513 O 5060.31 -4.30267 -0.824747 0
M  V30 49514 C 5061.81 -3.65524 -2.50813 0
M  V30 49515 H 5059.03 -0.625498 -0.242885 0
M  V30 49516 H 5061.57 -2.04219 -0.107079 0
M  V30 49517 H 5059.73 -3.06426 -2.37027 0
M  V30 49518 H 5060.14 -5.05444 -1.40096 0
M  V30 49519 H 5061.62 -4.60092 -3.04991 0
M  V30 49520 H 5062.09 -2.92041 -3.28038 0
M  V30 49521 H 5062.7 -3.81958 -1.87051 0
M  V30 49522 N 5061.01 0.391938 -1.52649 0
M  V30 49523 C 5062.26 1.13894 -1.67797 0
M  V30 49524 C 5062.59 1.89709 -0.415207 0
M  V30 49525 O 5061.87 1.85433 0.586913 0
M  V30 49526 C 5062.15 2.11956 -2.91113 0
M  V30 49527 C 5062 1.39924 -4.27483 0
M  V30 49528 C 5063.32 3.12419 -3.09972 0
M  V30 49529 H 5060.44 0.412685 -0.610622 0
M  V30 49530 H 5063.08 0.42266 -1.85239 0
M  V30 49531 H 5061.23 2.73039 -2.76373 0
M  V30 49532 H 5062.91 0.818279 -4.53984 0
M  V30 49533 H 5061.15 0.701096 -4.28097 0
M  V30 49534 H 5061.82 2.11563 -5.09848 0
M  V30 49535 H 5064.3 2.61424 -3.23723 0
M  V30 49536 H 5063.17 3.7828 -3.97738 0
M  V30 49537 H 5063.43 3.81119 -2.24056 0
M  V30 49538 N 5062.49 1.43562 0.650209 0
M  V30 49539 C 5063.72 1.48784 1.43774 0
M  V30 49540 C 5064.14 0.106659 1.88498 0
M  V30 49541 O 5063.49 -0.88371 1.59677 0
M  V30 49542 C 5063.54 2.43628 2.67073 0
M  V30 49543 O 5063.26 3.76375 2.24217 0
M  V30 49544 C 5064.77 2.58122 3.604 0
M  V30 49545 H 5061.99 0.505225 0.441575 0
M  V30 49546 H 5064.53 1.88335 0.796874 0
M  V30 49547 H 5062.68 2.07264 3.27292 0
M  V30 49548 H 5063.1 4.27405 3.04015 0
M  V30 49549 H 5064.57 3.28554 4.43572 0
M  V30 49550 H 5065.05 1.62714 4.07947 0
M  V30 49551 H 5065.66 2.95309 3.0606 0
M  V30 49552 N 5063.97 -0.888857 1.30143 0
M  V30 49553 C 5065.38 -1.45573 1.16898 0
M  V30 49554 C 5065.73 -1.94826 -0.231798 0
M  V30 49555 O 5064.86 -1.84665 -1.12818 0
M  V30 49556 C 5065.45 -2.64592 2.11604 0
M  V30 49557 C 5064.01 -3.17382 2.0235 0
M  V30 49558 C 5063.16 -1.90074 2.01909 0
M  V30 49559 H 5066.11 -0.69916 1.42469 0
M  V30 49560 H 5066.13 -3.40681 1.69461 0
M  V30 49561 H 5065.64 -2.28715 3.13546 0
M  V30 49562 H 5063.74 -3.57926 1.03536 0
M  V30 49563 H 5063.86 -3.80945 2.90547 0
M  V30 49564 H 5062.22 -2.08241 1.46656 0
M  V30 49565 H 5063 -1.5646 3.05574 0
M  V30 49566 N 5065.45 -1.12795 -1.10068 0
M  V30 49567 C 5066.68 -0.908571 -1.85883 0
M  V30 49568 C 5067.09 0.542345 -1.80843 0
M  V30 49569 O 5066.45 1.37513 -1.19985 0
M  V30 49570 C 5066.5 -1.37985 -3.34129 0
M  V30 49571 O 5066.22 -2.7739 -3.39097 0
M  V30 49572 C 5067.72 -1.19795 -4.26807 0
M  V30 49573 H 5064.94 -0.324421 -0.58736 0
M  V30 49574 H 5067.49 -1.49887 -1.3912 0
M  V30 49575 H 5065.64 -0.832699 -3.78345 0
M  V30 49576 H 5066.05 -2.98159 -4.31511 0
M  V30 49577 H 5067.53 -1.57653 -5.29008 0
M  V30 49578 H 5068.01 -0.138923 -4.3898 0
M  V30 49579 H 5068.61 -1.73279 -3.884 0
M  V30 49580 N 5066.93 1.27928 -0.920441 0
M  V30 49581 C 5068.34 1.76705 -0.602678 0
M  V30 49582 C 5068.69 1.75253 0.882098 0
M  V30 49583 O 5067.81 1.35141 1.69014 0
M  V30 49584 C 5068.41 3.20881 -1.08725 0
M  V30 49585 C 5066.97 3.67353 -0.820286 0
M  V30 49586 C 5066.11 2.47521 -1.25015 0
M  V30 49587 H 5069.07 1.14297 -1.10099 0
M  V30 49588 H 5069.09 3.78043 -0.431668 0
M  V30 49589 H 5068.6 3.21906 -2.16791 0
M  V30 49590 H 5066.7 3.71781 0.246881 0
M  V30 49591 H 5066.81 4.57176 -1.43273 0
M  V30 49592 H 5065.18 2.45763 -0.668785 0
M  V30 49593 H 5065.96 2.51261 -2.33929 0
M  V30 49594 N 5068.4 0.685149 1.41928 0
M  V30 49595 C 5069.63 0.220444 2.05722 0
M  V30 49596 C 5070.05 -1.12637 1.5152 0
M  V30 49597 O 5069.4 -1.7018 0.659174 0
M  V30 49598 C 5069.46 0.158101 3.61154 0
M  V30 49599 O 5069.18 1.45171 4.13349 0
M  V30 49600 C 5070.68 -0.328853 4.42079 0
M  V30 49601 H 5067.9 0.104748 0.662774 0
M  V30 49602 H 5070.44 0.9348 1.81884 0
M  V30 49603 H 5068.6 -0.507009 3.84068 0
M  V30 49604 H 5069.01 1.3319 5.07307 0
M  V30 49605 H 5070.48 -0.321365 5.51064 0
M  V30 49606 H 5070.96 -1.36594 4.17419 0
M  V30 49607 H 5071.57 0.304886 4.24206 0
M  V30 49608 N 5069.88 -1.51644 0.429179 0
M  V30 49609 C 5071.29 -1.86666 -0.0358347 0
M  V30 49610 C 5071.64 -1.34682 -1.42671 0
M  V30 49611 O 5070.77 -0.694267 -2.04961 0
M  V30 49612 C 5071.36 -3.38724 -0.071803 0
M  V30 49613 C 5069.92 -3.73311 -0.481205 0
M  V30 49614 C 5069.07 -2.75312 0.331425 0
M  V30 49615 H 5072.02 -1.44984 0.645384 0
M  V30 49616 H 5072.04 -3.70113 -0.882988 0
M  V30 49617 H 5071.55 -3.76529 0.940627 0
M  V30 49618 H 5069.66 -3.41093 -1.49954 0
M  V30 49619 H 5069.77 -4.78632 -0.211669 0
M  V30 49620 H 5068.13 -2.5384 -0.209115 0
M  V30 49621 H 5068.92 -3.15958 1.34258 0
M  V30 49622 N 5071.36 -0.160256 -1.56783 0
M  V30 49623 C 5072.59 0.494095 -2.00914 0
M  V30 49624 C 5073 1.57545 -1.04044 0
M  V30 49625 O 5072.36 1.82457 -0.0395223 0
M  V30 49626 C 5072.41 1.08259 -3.44909 0
M  V30 49627 O 5072.13 0.0444164 -4.38077 0
M  V30 49628 C 5073.63 1.81625 -4.04385 0
M  V30 49629 H 5070.85 0.127474 -0.65878 0
M  V30 49630 H 5073.4 -0.258736 -2.02857 0
M  V30 49631 H 5071.55 1.78597 -3.43776 0
M  V30 49632 H 5071.97 0.47736 -5.22323 0
M  V30 49633 H 5073.44 2.18076 -5.07097 0
M  V30 49634 H 5073.92 2.70715 -3.45847 0
M  V30 49635 H 5074.52 1.15955 -4.09188 0
M  V30 49636 N 5072.84 1.57191 0.113503 0
M  V30 49637 C 5074.09 1.84775 0.818696 0
M  V30 49638 C 5074.41 0.74626 1.80155 0
M  V30 49639 O 5073.68 -0.229237 1.94554 0
M  V30 49640 H 5072.26 0.681747 0.305335 0
M  V30 49641 H 5074.92 1.94646 0.099516 0
M  V30 49642 H 5074.02 2.80882 1.36057 0
M  V30 49643 N 5074.32 -0.383837 1.52854 0
M  V30 49644 C 5075.55 -1.14944 1.72034 0
M  V30 49645 C 5075.96 -1.83577 0.441022 0
M  V30 49646 O 5075.32 -1.72874 -0.584865 0
M  V30 49647 C 5075.37 -2.19357 2.8734 0
M  V30 49648 O 5075.09 -1.53522 4.1032 0
M  V30 49649 C 5076.59 -3.08605 3.18242 0
M  V30 49650 H 5073.81 -0.344424 0.575858 0
M  V30 49651 H 5076.35 -0.448327 1.99525 0
M  V30 49652 H 5074.51 -2.85096 2.62296 0
M  V30 49653 H 5074.92 -2.22943 4.7476 0
M  V30 49654 H 5076.4 -3.77888 4.02374 0
M  V30 49655 H 5076.87 -3.72401 2.32839 0
M  V30 49656 H 5077.48 -2.48506 3.45145 0
M  V30 49657 N 5075.8 -1.43905 -0.642587 0
M  V30 49658 C 5076.73 -1.45864 -1.76795 0
M  V30 49659 C 5077.74 -0.353414 -1.58918 0
M  V30 49660 O 5078.93 -0.618485 -1.67443 0
M  V30 49661 C 5076.03 -1.26594 -3.14368 0
M  V30 49662 C 5075.2 -2.50151 -3.58808 0
M  V30 49663 C 5074.26 -2.2595 -4.75219 0
M  V30 49664 O 5073.29 -2.99368 -4.84115 0
M  V30 49665 N 5074.49 -1.28283 -5.66148 0
M  V30 49666 H 5077.25 -2.42876 -1.75589 0
M  V30 49667 H 5074.82 -1.39197 -0.826783 0
M  V30 49668 H 5076.81 -1.08269 -3.89949 0
M  V30 49669 H 5075.38 -0.379889 -3.10283 0
M  V30 49670 H 5074.6 -2.83831 -2.73558 0
M  V30 49671 H 5075.89 -3.32357 -3.85248 0
M  V30 49672 H 5075.28 -0.676239 -5.61644 0
M  V30 49673 H 5073.84 -1.15939 -6.41406 0
M  V30 49674 N 5077.27 0.881943 -1.30612 0
M  V30 49675 C 5078.5 1.66706 -1.22542 0
M  V30 49676 C 5078.92 1.87615 0.211234 0
M  V30 49677 O 5078.27 1.4258 1.13918 0
M  V30 49678 C 5078.32 3.04175 -1.95346 0
M  V30 49679 O 5078.05 2.84208 -3.33403 0
M  V30 49680 C 5079.55 3.98611 -1.9397 0
M  V30 49681 H 5076.77 0.520109 -0.423943 0
M  V30 49682 H 5079.31 1.10168 -1.72289 0
M  V30 49683 H 5077.47 3.57437 -1.4939 0
M  V30 49684 H 5077.88 3.71439 -3.70315 0
M  V30 49685 H 5079.35 4.92425 -2.49443 0
M  V30 49686 H 5079.83 4.2947 -0.919349 0
M  V30 49687 H 5080.44 3.51283 -2.3975 0
M  V30 49688 N 5078.75 1.13378 1.09468 0
M  V30 49689 C 5080.16 0.908067 1.63129 0
M  V30 49690 C 5080.51 -0.55551 1.88172 0
M  V30 49691 O 5079.64 -1.42212 1.63109 0
M  V30 49692 C 5080.23 1.64192 2.96355 0
M  V30 49693 C 5078.79 1.46209 3.46843 0
M  V30 49694 C 5077.94 1.67142 2.21267 0
M  V30 49695 H 5080.89 1.28713 0.928365 0
M  V30 49696 H 5080.91 1.09876 3.6429 0
M  V30 49697 H 5080.42 2.7071 2.78097 0
M  V30 49698 H 5078.52 0.419918 3.70226 0
M  V30 49699 H 5078.64 2.22487 4.24307 0
M  V30 49700 H 5077 1.09624 2.29902 0
M  V30 49701 H 5077.78 2.74978 2.05528 0
M  V30 49702 N 5080.23 -1.27438 0.927213 0
M  V30 49703 C 5081.46 -1.98496 0.583691 0
M  V30 49704 C 5081.87 -1.69174 -0.838181 0
M  V30 49705 O 5081.23 -0.952024 -1.55701 0
M  V30 49706 C 5081.28 -3.52549 0.799465 0
M  V30 49707 O 5081 -3.80844 2.1654 0
M  V30 49708 C 5082.5 -4.40859 0.464591 0
M  V30 49709 H 5079.72 -0.633479 0.221235 0
M  V30 49710 H 5082.27 -1.62303 1.2441 0
M  V30 49711 H 5080.42 -3.86954 0.185864 0
M  V30 49712 H 5080.84 -4.75433 2.21503 0
M  V30 49713 H 5082.31 -5.47964 0.666268 0
M  V30 49714 H 5082.79 -4.35085 -0.599842 0
M  V30 49715 H 5083.39 -4.11973 1.05631 0
M  V30 49716 N 5081.71 -0.692666 -1.41562 0
M  V30 49717 C 5082.94 -0.231351 -2.05602 0
M  V30 49718 C 5083.35 1.11832 -1.52115 0
M  V30 49719 O 5082.71 1.69828 -0.66819 0
M  V30 49720 C 5082.76 -0.177252 -3.61065 0
M  V30 49721 O 5082.48 -1.47361 -4.12573 0
M  V30 49722 C 5083.98 0.305404 -4.42247 0
M  V30 49723 H 5081.2 -0.108262 -0.662209 0
M  V30 49724 H 5083.74 -0.944433 -1.81386 0
M  V30 49725 H 5081.9 0.486633 -3.84331 0
M  V30 49726 H 5082.31 -1.35879 -5.06594 0
M  V30 49727 H 5083.79 0.292136 -5.51226 0
M  V30 49728 H 5084.26 1.34378 -4.18138 0
M  V30 49729 H 5084.87 -0.327378 -4.24038 0
M  V30 49730 N 5083.19 1.51414 -0.437215 0
M  V30 49731 C 5084.41 2.06504 0.127972 0
M  V30 49732 C 5084.83 1.30465 1.36471 0
M  V30 49733 O 5084.19 0.36419 1.78829 0
M  V30 49734 C 5084.24 3.58684 0.450311 0
M  V30 49735 O 5083.96 4.31851 -0.737338 0
M  V30 49736 C 5085.46 4.30288 1.06618 0
M  V30 49737 H 5082.68 0.670953 0.0079791 0
M  V30 49738 H 5085.22 1.94994 -0.616261 0
M  V30 49739 H 5083.38 3.7011 1.14444 0
M  V30 49740 H 5083.79 5.22465 -0.461531 0
M  V30 49741 H 5085.27 5.37852 1.24172 0
M  V30 49742 H 5085.74 3.88571 2.04717 0
M  V30 49743 H 5086.35 4.23305 0.411436 0
M  V30 49744 N 5084.66 0.168568 1.56696 0
M  V30 49745 C 5086.07 -0.34863 1.83416 0
M  V30 49746 C 5086.43 -1.63253 1.08825 0
M  V30 49747 O 5085.55 -2.13706 0.340408 0
M  V30 49748 C 5086.15 -0.639306 3.32714 0
M  V30 49749 C 5084.7 -1.10095 3.59939 0
M  V30 49750 C 5083.85 -0.135367 2.76969 0
M  V30 49751 H 5086.8 0.392883 1.5376 0
M  V30 49752 H 5086.82 -1.49167 3.50042 0
M  V30 49753 H 5086.34 0.295309 3.86975 0
M  V30 49754 H 5084.44 -2.05077 3.11086 0
M  V30 49755 H 5084.55 -1.01201 4.6829 0
M  V30 49756 H 5082.91 -0.632199 2.46729 0
M  V30 49757 H 5083.7 0.793221 3.3401 0
M  V30 49758 N 5086.14 -1.57249 -0.105165 0
M  V30 49759 C 5087.39 -1.84759 -0.809133 0
M  V30 49760 C 5087.7 -0.756325 -1.80386 0
M  V30 49761 O 5088.91 -0.918248 -2.555 0
M  V30 49762 C 5087.37 -3.27618 -1.48977 0
M  V30 49763 C 5086.97 -4.4479 -0.535328 0
M  V30 49764 C 5088.72 -3.64364 -2.17806 0
M  V30 49765 C 5086.63 -5.7868 -1.21998 0
M  V30 49766 H 5085.56 -0.68915 -0.305922 0
M  V30 49767 H 5088.21 -1.83395 -0.0619727 0
M  V30 49768 H 5086.59 -3.23493 -2.28404 0
M  V30 49769 H 5087.76 -4.60242 0.226719 0
M  V30 49770 H 5086.08 -4.16374 0.0467233 0
M  V30 49771 H 5088.67 -4.61673 -2.69745 0
M  V30 49772 H 5089.02 -2.92484 -2.96241 0
M  V30 49773 H 5089.55 -3.70334 -1.45251 0
M  V30 49774 H 5086.29 -6.53765 -0.476645 0
M  V30 49775 H 5085.81 -5.6709 -1.9537 0
M  V30 49776 H 5087.49 -6.22903 -1.7493 0
M  V30 49777 N 5087.62 0.375726 -1.53056 0
M  V30 49778 C 5088.85 1.1403 -1.72641 0
M  V30 49779 C 5089.26 1.8334 -0.450751 0
M  V30 49780 O 5088.62 1.73182 0.575688 0
M  V30 49781 C 5088.67 2.17831 -2.885 0
M  V30 49782 O 5088.39 1.51343 -4.11129 0
M  V30 49783 C 5089.89 3.06913 -3.19874 0
M  V30 49784 H 5087.11 0.341366 -0.577677 0
M  V30 49785 H 5089.66 0.437739 -1.9976 0
M  V30 49786 H 5087.81 2.83701 -2.63804 0
M  V30 49787 H 5088.23 2.20422 -4.75935 0
M  V30 49788 H 5089.7 3.75748 -4.04373 0
M  V30 49789 H 5090.18 3.71161 -2.34811 0
M  V30 49790 H 5090.78 2.46672 -3.46458 0
M  V30 49791 N 5089.1 1.44244 0.634946 0
M  V30 49792 C 5090.33 1.50301 1.42187 0
M  V30 49793 C 5090.74 0.126646 1.88375 0
M  V30 49794 O 5090.1 -0.866724 1.60606 0
M  V30 49795 C 5090.15 2.46447 2.64473 0
M  V30 49796 O 5089.87 3.78732 2.20213 0
M  V30 49797 C 5091.37 2.6193 3.57641 0
M  V30 49798 H 5088.59 0.50988 0.436192 0
M  V30 49799 H 5091.14 1.8917 0.776854 0
M  V30 49800 H 5089.29 2.10724 3.25076 0
M  V30 49801 H 5089.7 4.30605 2.99465 0
M  V30 49802 H 5091.18 3.33241 4.40062 0
M  V30 49803 H 5091.66 1.67032 4.06198 0
M  V30 49804 H 5092.26 2.98539 3.0291 0
M  V30 49805 N 5090.58 -0.875004 1.31078 0
M  V30 49806 C 5091.8 -1.66054 1.23425 0
M  V30 49807 C 5092.22 -1.87724 -0.201281 0
M  V30 49808 O 5091.58 -1.43182 -1.1316 0
M  V30 49809 C 5091.63 -3.03135 1.96956 0
M  V30 49810 O 5091.35 -2.82436 3.34905 0
M  V30 49811 C 5092.85 -3.97576 1.96081 0
M  V30 49812 H 5090.07 -0.517853 0.426695 0
M  V30 49813 H 5092.61 -1.09252 1.7287 0
M  V30 49814 H 5090.77 -3.5664 1.51284 0
M  V30 49815 H 5091.18 -3.6947 3.7228 0
M  V30 49816 H 5092.66 -4.91095 2.52051 0
M  V30 49817 H 5093.13 -4.28977 0.942112 0
M  V30 49818 H 5093.74 -3.50007 2.4161 0
M  V30 49819 N 5092.05 -1.13957 -1.08865 0
M  V30 49820 C 5093.28 -0.928235 -1.84909 0
M  V30 49821 C 5093.7 0.523134 -1.81408 0
M  V30 49822 O 5093.05 1.36233 -1.21437 0
M  V30 49823 C 5093.11 -1.41521 -3.32647 0
M  V30 49824 O 5092.83 -2.80971 -3.36135 0
M  V30 49825 C 5094.33 -1.24315 -4.25512 0
M  V30 49826 H 5091.55 -0.330633 -0.583886 0
M  V30 49827 H 5094.09 -1.51354 -1.37522 0
M  V30 49828 H 5092.25 -0.872781 -3.7744 0
M  V30 49829 H 5092.66 -3.02719 -4.28324 0
M  V30 49830 H 5094.13 -1.63255 -5.27306 0
M  V30 49831 H 5094.61 -0.185475 -4.38808 0
M  V30 49832 H 5095.22 -1.77389 -3.8654 0
M  V30 49833 N 5093.53 1.26945 -0.933958 0
M  V30 49834 C 5094.76 1.98184 -0.59421 0
M  V30 49835 C 5095.18 1.69616 0.829198 0
M  V30 49836 O 5094.53 0.960268 1.55194 0
M  V30 49837 C 5094.58 3.5212 -0.81815 0
M  V30 49838 O 5094.3 3.7969 -2.18557 0
M  V30 49839 C 5095.81 4.40606 -0.487965 0
M  V30 49840 H 5093.03 0.632297 -0.224591 0
M  V30 49841 H 5095.57 1.61641 -1.25269 0
M  V30 49842 H 5093.72 3.8685 -0.206382 0
M  V30 49843 H 5094.14 4.74252 -2.24021 0
M  V30 49844 H 5095.61 5.47603 -0.695318 0
M  V30 49845 H 5096.09 4.35397 0.57676 0
M  V30 49846 H 5096.7 4.11407 -1.07814 0
M  V30 49847 N 5095.01 0.700164 1.41193 0
M  V30 49848 C 5096.26 0.233422 2.01452 0
M  V30 49849 C 5096.59 -1.16542 1.55343 0
M  V30 49850 O 5095.86 -1.78754 0.766638 0
M  V30 49851 C 5096.15 0.296226 3.5888 0
M  V30 49852 C 5096 1.73234 4.15102 0
M  V30 49853 C 5097.32 -0.341371 4.38774 0
M  V30 49854 H 5094.44 0.0862925 0.731931 0
M  V30 49855 H 5097.08 0.889752 1.67879 0
M  V30 49856 H 5095.23 -0.262599 3.87611 0
M  V30 49857 H 5096.9 2.34537 3.97228 0
M  V30 49858 H 5095.15 2.26503 3.69971 0
M  V30 49859 H 5095.82 1.72779 5.24263 0
M  V30 49860 H 5098.29 0.134607 4.15882 0
M  V30 49861 H 5097.17 -0.266905 5.48251 0
M  V30 49862 H 5097.43 -1.42274 4.18582 0
M  V30 49863 N 5096.49 -1.5118 0.445239 0
M  V30 49864 C 5097.72 -2.06569 -0.117019 0
M  V30 49865 C 5098.13 -1.31187 -1.35777 0
M  V30 49866 O 5097.49 -0.373668 -1.78634 0
M  V30 49867 C 5097.54 -3.58918 -0.431282 0
M  V30 49868 O 5097.26 -4.31454 0.760229 0
M  V30 49869 C 5098.76 -4.30847 -1.04335 0
M  V30 49870 H 5095.98 -0.670985 -0.00442077 0
M  V30 49871 H 5098.53 -1.94664 0.626593 0
M  V30 49872 H 5096.68 -3.70711 -1.1248 0
M  V30 49873 H 5097.09 -5.22213 0.489232 0
M  V30 49874 H 5098.57 -5.38503 -1.21318 0
M  V30 49875 H 5099.05 -3.89652 -2.02653 0
M  V30 49876 H 5099.65 -4.23517 -0.388981 0
M  V30 49877 N 5097.97 -0.176876 -1.56604 0
M  V30 49878 C 5099.38 0.338898 -1.83598 0
M  V30 49879 C 5099.73 1.62673 -1.0969 0
M  V30 49880 O 5098.85 2.13522 -0.351736 0
M  V30 49881 C 5099.45 0.621652 -3.33048 0
M  V30 49882 C 5098.01 1.08185 -3.60518 0
M  V30 49883 C 5097.15 0.120676 -2.77037 0
M  V30 49884 H 5100.11 -0.401032 -1.53549 0
M  V30 49885 H 5100.13 1.47308 -3.50828 0
M  V30 49886 H 5099.64 -0.315827 -3.86813 0
M  V30 49887 H 5097.74 2.03424 -3.12169 0
M  V30 49888 H 5097.85 0.987164 -4.6882 0
M  V30 49889 H 5096.22 0.619106 -2.47061 0
M  V30 49890 H 5097 -0.810923 -3.33585 0
M  V30 49891 N 5099.44 1.57302 0.0968247 0
M  V30 49892 C 5100.67 1.90205 0.814228 0
M  V30 49893 C 5101.09 0.770404 1.72367 0
M  V30 49894 O 5100.44 -0.257701 1.80671 0
M  V30 49895 C 5100.5 3.22714 1.62904 0
M  V30 49896 O 5100.22 4.31524 0.756191 0
M  V30 49897 C 5101.72 3.69468 2.44966 0
M  V30 49898 H 5098.94 0.629283 0.232903 0
M  V30 49899 H 5101.48 2.04364 0.0745763 0
M  V30 49900 H 5099.64 3.10158 2.32122 0
M  V30 49901 H 5100.05 5.07609 1.32037 0
M  V30 49902 H 5101.52 4.64885 2.97633 0
M  V30 49903 H 5102 2.97223 3.2335 0
M  V30 49904 H 5102.61 3.84886 1.8095 0
M  V30 49905 N 5100.92 -0.367603 1.53253 0
M  V30 49906 C 5102.33 -0.944506 1.61046 0
M  V30 49907 C 5102.69 -1.90323 0.476613 0
M  V30 49908 O 5101.81 -2.12722 -0.397259 0
M  V30 49909 C 5102.41 -1.71981 2.91904 0
M  V30 49910 C 5100.96 -2.24609 3.02039 0
M  V30 49911 C 5100.11 -1.0579 2.56327 0
M  V30 49912 H 5103.06 -0.146461 1.58023 0
M  V30 49913 H 5103.08 -2.58086 2.79593 0
M  V30 49914 H 5102.6 -1.02179 3.74408 0
M  V30 49915 H 5100.7 -2.9766 2.24119 0
M  V30 49916 H 5100.81 -2.52629 4.07081 0
M  V30 49917 H 5099.17 -1.42428 2.11155 0
M  V30 49918 H 5099.96 -0.374888 3.41247 0
M  V30 49919 N 5102.4 -1.44578 -0.627288 0
M  V30 49920 C 5103.63 -1.51053 -1.41388 0
M  V30 49921 C 5104.04 -0.136634 -1.88305 0
M  V30 49922 O 5103.4 0.858195 -1.61063 0
M  V30 49923 C 5103.45 -2.47846 -2.63163 0
M  V30 49924 O 5103.17 -3.79895 -2.18201 0
M  V30 49925 C 5104.67 -2.63823 -3.56247 0
M  V30 49926 H 5101.89 -0.512186 -0.433482 0
M  V30 49927 H 5104.44 -1.89579 -0.766811 0
M  V30 49928 H 5102.59 -2.12445 -3.23954 0
M  V30 49929 H 5103.01 -4.32187 -2.97177 0
M  V30 49930 H 5104.48 -3.3557 -4.38289 0
M  V30 49931 H 5104.96 -1.69183 -4.05307 0
M  V30 49932 H 5105.56 -3.00141 -3.01323 0
M  V30 49933 N 5103.88 0.86804 -1.3154 0
M  V30 49934 C 5105.29 1.43695 -1.192 0
M  V30 49935 C 5105.64 1.9517 0.200773 0
M  V30 49936 O 5104.77 1.86436 1.09866 0
M  V30 49937 C 5105.36 2.61193 -2.15787 0
M  V30 49938 C 5103.92 3.14123 -2.07374 0
M  V30 49939 C 5103.07 1.86838 -2.04907 0
M  V30 49940 H 5106.02 0.676406 -1.43563 0
M  V30 49941 H 5106.04 3.37942 -1.74859 0
M  V30 49942 H 5105.55 2.23698 -3.17145 0
M  V30 49943 H 5103.65 3.56234 -1.09217 0
M  V30 49944 H 5103.77 3.76275 -2.96571 0
M  V30 49945 H 5102.13 2.05881 -1.4995 0
M  V30 49946 H 5102.91 1.51578 -3.08024 0
M  V30 49947 N 5105.36 1.14532 1.0826 0
M  V30 49948 C 5106.59 0.938029 1.84414 0
M  V30 49949 C 5107 -0.513506 1.81683 0
M  V30 49950 O 5106.36 -1.35587 1.22158 0
M  V30 49951 C 5106.41 1.43283 3.31892 0
M  V30 49952 O 5106.13 2.82749 3.34641 0
M  V30 49953 C 5107.63 1.2657 4.24847 0
M  V30 49954 H 5104.85 0.333724 0.582125 0
M  V30 49955 H 5107.39 1.52081 1.36717 0
M  V30 49956 H 5105.55 0.892785 3.76972 0
M  V30 49957 H 5105.96 3.04986 4.26713 0
M  V30 49958 H 5107.44 1.66049 5.26433 0
M  V30 49959 H 5107.91 0.208743 4.38704 0
M  V30 49960 H 5108.52 1.79436 3.85594 0
M  V30 49961 N 5106.84 -1.26448 0.940677 0
M  V30 49962 C 5108.08 -1.93393 0.586816 0
M  V30 49963 C 5108.4 -1.74173 -0.87686 0
M  V30 49964 O 5107.67 -1.09706 -1.623 0
M  V30 49965 H 5106.25 -0.715679 0.214037 0
M  V30 49966 H 5108.92 -1.53897 1.19589 0
M  V30 49967 H 5108.01 -3.01562 0.804165 0
M  V30 49968 N 5108.31 -0.707642 -1.4082 0
M  V30 49969 C 5109.54 -0.253145 -2.05346 0
M  V30 49970 C 5109.96 1.10212 -1.53293 0
M  V30 49971 O 5109.31 1.6911 -0.686165 0
M  V30 49972 C 5109.36 -0.215538 -3.60857 0
M  V30 49973 O 5109.09 -1.51728 -4.10987 0
M  V30 49974 C 5110.59 0.258481 -4.42546 0
M  V30 49975 H 5107.81 -0.115279 -0.661023 0
M  V30 49976 H 5110.35 -0.963618 -1.80374 0
M  V30 49977 H 5108.51 0.445843 -3.84826 0
M  V30 49978 H 5108.92 -1.41244 -5.05124 0
M  V30 49979 H 5110.39 0.233655 -5.51505 0
M  V30 49980 H 5110.87 1.29936 -4.19539 0
M  V30 49981 H 5111.48 -0.372335 -4.23667 0
M  V30 49982 N 5109.79 1.50942 -0.45325 0
M  V30 49983 C 5110.72 2.25924 0.386151 0
M  V30 49984 C 5111.74 1.30553 0.972606 0
M  V30 49985 O 5112.93 1.56194 0.864042 0
M  V30 49986 C 5110.03 3.01182 1.55379 0
M  V30 49987 C 5109.2 4.23771 1.08335 0
M  V30 49988 C 5108.26 4.81474 2.12296 0
M  V30 49989 O 5107.28 5.42881 1.71082 0
M  V30 49990 N 5108.49 4.66901 3.4494 0
M  V30 49991 H 5111.25 2.986 -0.256573 0
M  V30 49992 H 5108.81 1.59407 -0.283021 0
M  V30 49993 H 5110.8 3.36667 2.24582 0
M  V30 49994 H 5109.37 2.31417 2.10155 0
M  V30 49995 H 5108.59 3.93598 0.217823 0
M  V30 49996 H 5109.88 5.03291 0.74668 0
M  V30 49997 H 5109.28 4.18024 3.81146 0
M  V30 49998 H 5107.84 5.06705 4.09992 0
M  V30 49999 N 5111.27 0.185179 1.56508 0
M  V30 50000 C 5112.5 -0.462068 2.01674 0
M  V30 50001 C 5112.91 -1.55869 1.06537 0
M  V30 50002 O 5112.27 -1.82371 0.0685446 0
M  V30 50003 C 5112.32 -1.02758 3.46588 0
M  V30 50004 O 5112.04 0.0252836 4.38093 0
M  V30 50005 C 5113.54 -1.75169 4.07223 0
M  V30 50006 H 5110.76 -0.116978 0.660725 0
M  V30 50007 H 5113.31 0.290976 2.02419 0
M  V30 50008 H 5111.46 -1.73105 3.46574 0
M  V30 50009 H 5111.88 -0.394203 5.23017 0
M  V30 50010 H 5113.35 -2.09981 5.10502 0
M  V30 50011 H 5113.83 -2.65178 3.5011 0
M  V30 50012 H 5114.43 -1.0943 4.10981 0
M  V30 50013 N 5112.75 -1.57351 -0.0884812 0
M  V30 50014 C 5114.16 -1.75306 -0.642246 0
M  V30 50015 C 5114.51 -0.808301 -1.78776 0
M  V30 50016 O 5113.63 0.0116339 -2.16397 0
M  V30 50017 C 5114.23 -3.17889 -1.17183 0
M  V30 50018 C 5112.79 -3.37245 -1.6716 0
M  V30 50019 C 5111.94 -2.71082 -0.58395 0
M  V30 50020 H 5114.89 -1.58102 0.137622 0
M  V30 50021 H 5114.91 -3.21127 -2.04102 0
M  V30 50022 H 5114.42 -3.86626 -0.337888 0
M  V30 50023 H 5112.52 -2.73597 -2.52933 0
M  V30 50024 H 5112.63 -4.456 -1.76004 0
M  V30 50025 H 5111 -2.33165 -1.025 0
M  V30 50026 H 5111.78 -3.42463 0.239523 0
M  V30 50027 N 5114.23 0.359471 -1.53446 0
M  V30 50028 C 5115.45 1.12192 -1.73841 0
M  V30 50029 C 5115.87 1.82852 -0.470172 0
M  V30 50030 O 5115.23 1.73783 0.557288 0
M  V30 50031 C 5115.28 2.14758 -2.90794 0
M  V30 50032 O 5115 1.46974 -4.12711 0
M  V30 50033 C 5116.5 3.03503 -3.23111 0
M  V30 50034 H 5113.72 0.335219 -0.581265 0
M  V30 50035 H 5116.26 0.416527 -2.00213 0
M  V30 50036 H 5114.42 2.80887 -2.66798 0
M  V30 50037 H 5114.83 2.15362 -4.78246 0
M  V30 50038 H 5116.31 3.71438 -4.08335 0
M  V30 50039 H 5116.78 3.6865 -2.38734 0
M  V30 50040 H 5117.39 2.42983 -3.49055 0
M  V30 50041 N 5115.7 1.44909 0.619611 0
M  V30 50042 C 5116.93 1.518 1.40585 0
M  V30 50043 C 5117.35 0.146619 1.8823 0
M  V30 50044 O 5116.7 -0.849641 1.61516 0
M  V30 50045 C 5116.76 2.49238 2.61845 0
M  V30 50046 O 5116.48 3.81046 2.16183 0
M  V30 50047 C 5117.98 2.65709 3.54843 0
M  V30 50048 H 5115.2 0.514478 0.430759 0
M  V30 50049 H 5117.74 1.89983 0.756746 0
M  V30 50050 H 5115.9 2.1416 3.22822 0
M  V30 50051 H 5116.31 4.33757 2.94881 0
M  V30 50052 H 5117.78 3.37889 4.36503 0
M  V30 50053 H 5118.26 1.7133 4.04404 0
M  V30 50054 H 5118.87 3.01735 2.99727 0
M  V30 50055 N 5117.18 -0.861052 1.31999 0
M  V30 50056 C 5118.41 -1.64736 1.25179 0
M  V30 50057 C 5118.83 -1.87927 -0.181359 0
M  V30 50058 O 5118.18 -1.44374 -1.11635 0
M  V30 50059 C 5118.23 -3.01029 2.0016 0
M  V30 50060 O 5117.95 -2.78868 3.37882 0
M  V30 50061 C 5119.46 -3.95474 2.00287 0
M  V30 50062 H 5116.68 -0.513299 0.432164 0
M  V30 50063 H 5119.22 -1.07413 1.74019 0
M  V30 50064 H 5117.37 -3.55015 1.55058 0
M  V30 50065 H 5117.79 -3.65501 3.76178 0
M  V30 50066 H 5119.26 -4.88394 2.57246 0
M  V30 50067 H 5119.74 -4.27953 0.987557 0
M  V30 50068 H 5120.35 -3.47425 2.45308 0
M  V30 50069 N 5118.66 -1.15105 -1.07651 0
M  V30 50070 C 5120.07 -0.933905 -1.61664 0
M  V30 50071 C 5120.42 0.525503 -1.89031 0
M  V30 50072 O 5119.55 1.39599 -1.65351 0
M  V30 50073 C 5120.14 -1.68886 -2.93705 0
M  V30 50074 C 5118.7 -1.51709 -3.44473 0
M  V30 50075 C 5117.85 -1.70641 -2.1858 0
M  V30 50076 H 5120.8 -1.30174 -0.907771 0
M  V30 50077 H 5120.82 -1.15658 -3.62496 0
M  V30 50078 H 5120.33 -2.751 -2.73755 0
M  V30 50079 H 5118.43 -0.478765 -3.69511 0
M  V30 50080 H 5118.55 -2.29209 -4.20714 0
M  V30 50081 H 5116.91 -1.13267 -2.28128 0
M  V30 50082 H 5117.69 -2.78213 -2.01127 0
M  V30 50083 N 5120.14 1.25947 -0.94737 0
M  V30 50084 C 5121.39 1.92756 -0.593955 0
M  V30 50085 C 5121.7 1.75086 0.872032 0
M  V30 50086 O 5122.91 2.36405 1.33509 0
M  V30 50087 C 5121.36 3.45392 -1.01156 0
M  V30 50088 C 5120.97 3.71786 -2.49959 0
M  V30 50089 C 5122.71 4.1817 -0.730332 0
M  V30 50090 C 5120.62 5.17891 -2.85557 0
M  V30 50091 H 5119.55 0.721668 -0.218428 0
M  V30 50092 H 5122.2 1.42926 -1.15084 0
M  V30 50093 H 5120.58 3.94142 -0.383145 0
M  V30 50094 H 5121.76 3.33717 -3.17757 0
M  V30 50095 H 5120.07 3.12253 -2.75476 0
M  V30 50096 H 5122.67 5.25781 -0.972552 0
M  V30 50097 H 5123.01 4.14965 0.333077 0
M  V30 50098 H 5123.55 3.75305 -1.31875 0
M  V30 50099 H 5120.29 5.26202 -3.90886 0
M  V30 50100 H 5119.81 5.57034 -2.22425 0
M  V30 50101 H 5121.48 5.8595 -2.74356 0
M  V30 50102 N 5121.62 0.7151 1.40442 0
M  V30 50103 C 5122.84 0.264031 2.05208 0
M  V30 50104 C 5123.26 -1.09398 1.53875 0
M  V30 50105 O 5122.62 -1.68743 0.695123 0
M  V30 50106 C 5122.67 0.234672 3.60737 0
M  V30 50107 O 5122.39 1.53906 4.10176 0
M  V30 50108 C 5123.89 -0.235008 4.42677 0
M  V30 50109 H 5121.11 0.118783 0.660403 0
M  V30 50110 H 5123.65 0.97317 1.7986 0
M  V30 50111 H 5121.81 -0.425428 3.85057 0
M  V30 50112 H 5122.22 1.43921 5.04368 0
M  V30 50113 H 5123.7 -0.204404 5.51621 0
M  V30 50114 H 5124.17 -1.27709 4.20223 0
M  V30 50115 H 5124.78 0.394797 4.23464 0
M  V30 50116 N 5123.09 -1.50699 0.461248 0
M  V30 50117 C 5124.32 -2.06681 -0.0951029 0
M  V30 50118 C 5124.74 -1.3262 -1.34378 0
M  V30 50119 O 5124.09 -0.392594 -1.78227 0
M  V30 50120 C 5124.15 -3.59355 -0.39319 0
M  V30 50121 O 5123.87 -4.30623 0.805948 0
M  V30 50122 C 5125.37 -4.31929 -0.997593 0
M  V30 50123 H 5122.59 -0.670995 0.00269618 0
M  V30 50124 H 5125.13 -1.93988 0.647205 0
M  V30 50125 H 5123.29 -3.71884 -1.08542 0
M  V30 50126 H 5123.7 -5.21665 0.544592 0
M  V30 50127 H 5125.17 -5.3976 -1.156 0
M  V30 50128 H 5125.65 -3.91779 -1.98509 0
M  V30 50129 H 5126.26 -4.23906 -0.344039 0
M  V30 50130 N 5124.57 -0.193476 -1.56408 0
M  V30 50131 C 5125.8 0.451367 -2.01917 0
M  V30 50132 C 5126.22 1.55302 -1.07362 0
M  V30 50133 O 5125.57 1.82332 -0.0782153 0
M  V30 50134 C 5125.62 1.00919 -3.47128 0
M  V30 50135 O 5125.34 -0.0485163 -4.38073 0
M  V30 50136 C 5126.85 1.73007 -4.08146 0
M  V30 50137 H 5124.07 0.113472 -0.661336 0
M  V30 50138 H 5126.61 -0.301707 -2.02262 0
M  V30 50139 H 5124.76 1.71265 -3.47487 0
M  V30 50140 H 5125.18 0.366461 -5.23218 0
M  V30 50141 H 5126.65 2.07271 -5.11608 0
M  V30 50142 H 5127.13 2.63318 -3.51512 0
M  V30 50143 H 5127.74 1.07249 -4.11555 0
M  V30 50144 N 5126.05 1.57396 0.0801353 0
M  V30 50145 C 5127.28 1.91058 0.794008 0
M  V30 50146 C 5127.69 0.788643 1.7154 0
M  V30 50147 O 5127.05 -0.238524 1.80935 0
M  V30 50148 C 5127.1 3.24424 1.59472 0
M  V30 50149 O 5126.82 4.32302 0.71038 0
M  V30 50150 C 5128.32 3.72045 2.41033 0
M  V30 50151 H 5125.54 0.631718 0.226216 0
M  V30 50152 H 5128.09 2.04432 0.0528966 0
M  V30 50153 H 5126.24 3.12603 2.28819 0
M  V30 50154 H 5126.66 5.08981 1.26645 0
M  V30 50155 H 5128.13 4.68016 2.92686 0
M  V30 50156 H 5128.61 3.00635 3.2018 0
M  V30 50157 H 5129.21 3.86783 1.76858 0
M  V30 50158 N 5127.53 -0.351328 1.53634 0
M  V30 50159 C 5128.76 -1.11269 1.74433 0
M  V30 50160 C 5129.17 -1.826 0.479862 0
M  V30 50161 O 5128.53 -1.74076 -0.548064 0
M  V30 50162 C 5128.58 -2.13213 2.91929 0
M  V30 50163 O 5128.3 -1.44784 4.13484 0
M  V30 50164 C 5129.8 -3.01785 3.24716 0
M  V30 50165 H 5127.02 -0.332132 0.583034 0
M  V30 50166 H 5129.57 -0.405904 2.00431 0
M  V30 50167 H 5127.72 -2.79468 2.68284 0
M  V30 50168 H 5128.13 -2.12822 4.79382 0
M  V30 50169 H 5129.61 -3.69268 4.10299 0
M  V30 50170 H 5130.09 -3.67378 2.40686 0
M  V30 50171 H 5130.69 -2.41129 3.50338 0
M  V30 50172 N 5129.01 -1.45235 -0.611918 0
M  V30 50173 C 5130.25 -1.49247 -1.37307 0
M  V30 50174 C 5130.59 -0.132031 -1.93751 0
M  V30 50175 O 5129.86 0.852937 -1.74801 0
M  V30 50176 C 5130.14 -2.5682 -2.52419 0
M  V30 50177 C 5130 -4.02291 -2.012 0
M  V30 50178 C 5131.32 -2.60717 -3.54563 0
M  V30 50179 H 5128.43 -0.543378 -0.497905 0
M  V30 50180 H 5131.08 -1.77021 -0.69018 0
M  V30 50181 H 5129.23 -2.33267 -3.10674 0
M  V30 50182 H 5130.9 -4.3704 -1.47628 0
M  V30 50183 H 5129.14 -4.13155 -1.32234 0
M  V30 50184 H 5129.81 -4.7324 -2.84161 0
M  V30 50185 H 5132.29 -2.8181 -3.06141 0
M  V30 50186 H 5131.16 -3.37856 -4.32602 0
M  V30 50187 H 5131.43 -1.65641 -4.09897 0
M  V30 50188 N 5130.49 0.85404 -1.32453 0
M  V30 50189 C 5131.71 1.6407 -1.26051 0
M  V30 50190 C 5132.13 1.8802 0.17139 0
M  V30 50191 O 5131.49 1.44964 1.10868 0
M  V30 50192 C 5131.54 2.99963 -2.01754 0
M  V30 50193 O 5131.26 2.77072 -3.39356 0
M  V30 50194 C 5132.76 3.94407 -2.02382 0
M  V30 50195 H 5129.98 0.511 -0.43488 0
M  V30 50196 H 5132.52 1.06488 -1.74587 0
M  V30 50197 H 5130.68 3.54188 -1.56939 0
M  V30 50198 H 5131.09 3.63501 -3.78111 0
M  V30 50199 H 5132.57 4.87023 -2.59832 0
M  V30 50200 H 5133.04 4.27423 -1.01024 0
M  V30 50201 H 5133.65 3.46119 -2.47148 0
M  V30 50202 N 5131.96 1.15674 1.07039 0
M  V30 50203 C 5133.37 0.942465 1.61166 0
M  V30 50204 C 5133.73 -0.515471 1.89308 0
M  V30 50205 O 5132.85 -1.3872 1.66089 0
M  V30 50206 C 5133.45 1.70442 2.92806 0
M  V30 50207 C 5132 1.53533 3.43663 0
M  V30 50208 C 5131.15 1.71798 2.17672 0
M  V30 50209 H 5134.1 1.30653 0.900854 0
M  V30 50210 H 5134.12 1.17578 3.61878 0
M  V30 50211 H 5133.64 2.76548 2.72292 0
M  V30 50212 H 5131.74 0.498354 3.69252 0
M  V30 50213 H 5131.85 2.31437 4.19492 0
M  V30 50214 H 5130.21 1.14476 2.27525 0
M  V30 50215 H 5131 2.79276 1.99649 0
M  V30 50216 N 5133.44 -1.25443 0.954036 0
M  V30 50217 C 5134.67 -1.97213 0.625664 0
M  V30 50218 C 5135.08 -1.70914 -0.802108 0
M  V30 50219 O 5134.44 -0.984836 -1.53646 0
M  V30 50220 C 5134.49 -3.50774 0.874066 0
M  V30 50221 O 5134.21 -3.76165 2.2457 0
M  V30 50222 C 5135.71 -4.39774 0.557999 0
M  V30 50223 H 5132.93 -0.628644 0.234622 0
M  V30 50224 H 5135.48 -1.59628 1.27825 0
M  V30 50225 H 5133.63 -3.86473 0.267901 0
M  V30 50226 H 5134.05 -4.70628 2.31538 0
M  V30 50227 H 5135.52 -5.46428 0.782349 0
M  V30 50228 H 5136 -4.36259 -0.507419 0
M  V30 50229 H 5136.6 -4.0964 1.14346 0
M  V30 50230 N 5134.92 -0.722538 -1.40061 0
M  V30 50231 C 5136.33 -0.336572 -1.83641 0
M  V30 50232 C 5136.68 1.12996 -1.60394 0
M  V30 50233 O 5135.81 1.87032 -1.08848 0
M  V30 50234 C 5136.4 -0.604102 -3.33371 0
M  V30 50235 C 5134.96 -0.271769 -3.75418 0
M  V30 50236 C 5134.11 -0.872991 -2.632 0
M  V30 50237 H 5137.06 -0.921153 -1.2923 0
M  V30 50238 H 5137.08 0.128337 -3.80284 0
M  V30 50239 H 5136.59 -1.67154 -3.50259 0
M  V30 50240 H 5134.69 0.790327 -3.64122 0
M  V30 50241 H 5134.81 -0.745623 -4.73262 0
M  V30 50242 H 5133.17 -0.30052 -2.52921 0
M  V30 50243 H 5133.95 -1.94483 -2.82898 0
M  V30 50244 N 5136.4 1.50453 -0.469234 0
M  V30 50245 C 5137.63 2.06729 0.0841408 0
M  V30 50246 C 5138.04 1.33331 1.33673 0
M  V30 50247 O 5137.4 0.40204 1.78017 0
M  V30 50248 C 5137.45 3.59559 0.374127 0
M  V30 50249 O 5137.17 4.30189 -0.828774 0
M  V30 50250 C 5138.67 4.32452 0.974672 0
M  V30 50251 H 5135.89 0.670971 -0.00625459 0
M  V30 50252 H 5138.43 1.93642 -0.657484 0
M  V30 50253 H 5136.59 3.72454 1.06568 0
M  V30 50254 H 5137 5.21369 -0.572249 0
M  V30 50255 H 5138.48 5.40365 1.12736 0
M  V30 50256 H 5138.95 3.92826 1.96428 0
M  V30 50257 H 5139.56 4.24083 0.321554 0
M  V30 50258 N 5137.88 0.201768 1.56303 0
M  V30 50259 C 5139.29 -0.309646 1.84114 0
M  V30 50260 C 5139.64 -1.60908 1.12264 0
M  V30 50261 O 5138.76 -2.12936 0.385661 0
M  V30 50262 C 5139.36 -0.568589 3.33995 0
M  V30 50263 C 5137.92 -1.02436 3.62193 0
M  V30 50264 C 5137.06 -0.0765867 2.77194 0
M  V30 50265 H 5140.01 0.42541 1.52892 0
M  V30 50266 H 5140.04 -1.41708 3.53127 0
M  V30 50267 H 5139.55 0.377326 3.86261 0
M  V30 50268 H 5137.65 -1.98432 3.15366 0
M  V30 50269 H 5137.76 -0.912454 4.70331 0
M  V30 50270 H 5136.13 -0.579722 2.48015 0
M  V30 50271 H 5136.91 0.863891 3.32253 0
M  V30 50272 N 5139.35 -1.57436 -0.071787 0
M  V30 50273 C 5140.58 -1.91476 -0.783865 0
M  V30 50274 C 5141 -0.797729 -1.71119 0
M  V30 50275 O 5140.35 0.228925 -1.81059 0
M  V30 50276 C 5140.4 -3.25265 -1.5775 0
M  V30 50277 O 5140.13 -4.32673 -0.687443 0
M  V30 50278 C 5141.63 -3.73319 -2.39057 0
M  V30 50279 H 5138.85 -0.632909 -0.222862 0
M  V30 50280 H 5141.39 -2.04457 -0.0420543 0
M  V30 50281 H 5139.55 -3.13812 -2.27158 0
M  V30 50282 H 5139.96 -5.09645 -1.23944 0
M  V30 50283 H 5141.43 -4.69562 -2.902 0
M  V30 50284 H 5141.91 -3.02329 -3.18581 0
M  V30 50285 H 5142.52 -3.87716 -1.74804 0
M  V30 50286 N 5140.83 0.343176 -1.53818 0
M  V30 50287 C 5142.08 1.08124 -1.70744 0
M  V30 50288 C 5142.4 1.89163 -0.473527 0
M  V30 50289 O 5141.67 1.89076 0.512538 0
M  V30 50290 H 5140.25 0.402167 -0.6295 0
M  V30 50291 H 5142.91 0.384359 -1.91072 0
M  V30 50292 H 5142.01 1.75841 -2.5785 0
M  V30 50293 N 5142.31 1.45558 0.604207 0
M  V30 50294 C 5143.54 1.53283 1.38967 0
M  V30 50295 C 5143.95 0.166575 1.88064 0
M  V30 50296 O 5143.31 -0.832462 1.62408 0
M  V30 50297 C 5143.36 2.52001 2.59186 0
M  V30 50298 O 5143.08 3.83318 2.1213 0
M  V30 50299 C 5144.58 2.69457 3.52005 0
M  V30 50300 H 5141.8 0.519018 0.425278 0
M  V30 50301 H 5144.35 1.90775 0.736554 0
M  V30 50302 H 5142.5 2.17572 3.20533 0
M  V30 50303 H 5142.92 4.36861 2.90264 0
M  V30 50304 H 5144.39 3.425 4.32895 0
M  V30 50305 H 5144.87 1.7561 4.02564 0
M  V30 50306 H 5145.47 3.04897 2.9651 0
M  V30 50307 N 5143.79 -0.847003 1.32905 0
M  V30 50308 C 5144.72 -1.96304 1.18311 0
M  V30 50309 C 5145.73 -1.62385 0.116139 0
M  V30 50310 O 5146.92 -1.74711 0.365813 0
M  V30 50311 C 5144.02 -3.29554 0.790421 0
M  V30 50312 C 5143.19 -3.91661 1.94731 0
M  V30 50313 C 5142.25 -5.03255 1.53692 0
M  V30 50314 O 5141.28 -5.22839 2.25007 0
M  V30 50315 N 5142.48 -5.78851 0.437279 0
M  V30 50316 H 5145.25 -2.09361 2.14448 0
M  V30 50317 H 5142.81 -1.02229 1.25542 0
M  V30 50318 H 5144.8 -4.01623 0.498131 0
M  V30 50319 H 5143.37 -3.12498 -0.0800188 0
M  V30 50320 H 5142.59 -3.12283 2.40568 0
M  V30 50321 H 5143.88 -4.2989 2.72161 0
M  V30 50322 H 5143.28 -5.65485 -0.156117 0
M  V30 50323 H 5141.83 -6.51479 0.204628 0
M  V30 50324 N 5145.27 -1.1624 -1.06424 0
M  V30 50325 C 5146.49 -0.967249 -1.82899 0
M  V30 50326 C 5146.91 0.484537 -1.82477 0
M  V30 50327 O 5146.27 1.33626 -1.24299 0
M  V30 50328 C 5146.32 -1.48545 -3.2957 0
M  V30 50329 O 5146.04 -2.88037 -3.301 0
M  V30 50330 C 5147.54 -1.33313 -4.2278 0
M  V30 50331 H 5144.76 -0.342943 -0.576742 0
M  V30 50332 H 5147.3 -1.54237 -1.34281 0
M  V30 50333 H 5145.46 -0.952645 -3.75504 0
M  V30 50334 H 5145.87 -3.11736 -4.21807 0
M  V30 50335 H 5147.35 -1.74403 -5.23725 0
M  V30 50336 H 5147.82 -0.278511 -4.38316 0
M  V30 50337 H 5148.43 -1.85548 -3.8269 0
M  V30 50338 N 5146.74 1.24935 -0.960675 0
M  V30 50339 C 5148.16 1.74698 -0.658591 0
M  V30 50340 C 5148.51 1.7797 0.825896 0
M  V30 50341 O 5147.63 1.4045 1.64629 0
M  V30 50342 C 5148.23 3.17259 -1.18879 0
M  V30 50343 C 5146.79 3.64557 -0.936742 0
M  V30 50344 C 5145.93 2.43418 -1.32826 0
M  V30 50345 H 5148.88 1.10737 -1.1368 0
M  V30 50346 H 5148.9 3.76479 -0.551721 0
M  V30 50347 H 5148.42 3.14846 -2.26923 0
M  V30 50348 H 5146.52 3.72378 0.128477 0
M  V30 50349 H 5146.63 4.52386 -1.57745 0
M  V30 50350 H 5144.99 2.43511 -0.746634 0
M  V30 50351 H 5145.78 2.43691 -2.41805 0
M  V30 50352 N 5148.22 0.729956 1.39676 0
M  V30 50353 C 5149.45 0.285781 2.04917 0
M  V30 50354 C 5149.87 -1.0776 1.55027 0
M  V30 50355 O 5149.22 -1.67996 0.712982 0
M  V30 50356 C 5149.27 0.27292 3.60468 0
M  V30 50357 O 5148.99 1.58247 4.08521 0
M  V30 50358 C 5150.5 -0.188043 4.42901 0
M  V30 50359 H 5147.72 0.125781 0.659106 0
M  V30 50360 H 5150.26 0.992192 1.78818 0
M  V30 50361 H 5148.41 -0.384564 3.85487 0
M  V30 50362 H 5148.83 1.49262 5.02813 0
M  V30 50363 H 5150.3 -0.145886 5.51807 0
M  V30 50364 H 5150.78 -1.23245 4.21554 0
M  V30 50365 H 5151.39 0.439689 4.23021 0
M  V30 50366 N 5149.7 -1.50202 0.477206 0
M  V30 50367 C 5150.93 -2.06771 -0.0731762 0
M  V30 50368 C 5151.34 -1.34038 -1.32964 0
M  V30 50369 O 5150.7 -0.411475 -1.77801 0
M  V30 50370 C 5150.75 -3.59752 -0.355053 0
M  V30 50371 O 5150.47 -4.29744 0.851576 0
M  V30 50372 C 5151.97 -4.32963 -0.951725 0
M  V30 50373 H 5149.19 -0.670928 0.00981282 0
M  V30 50374 H 5151.74 -1.93291 0.667744 0
M  V30 50375 H 5149.89 -3.73014 -1.04591 0
M  V30 50376 H 5150.31 -5.21058 0.599891 0
M  V30 50377 H 5151.78 -5.40956 -1.09869 0
M  V30 50378 H 5152.26 -3.93863 -1.94342 0
M  V30 50379 H 5152.86 -4.24247 -0.299059 0
M  V30 50380 N 5151.18 -0.210054 -1.56194 0
M  V30 50381 C 5152.41 0.429925 -2.02384 0
M  V30 50382 C 5152.82 1.54155 -1.09003 0
M  V30 50383 O 5152.18 1.82239 -0.0975497 0
M  V30 50384 C 5152.23 0.972311 -3.48179 0
M  V30 50385 O 5151.95 -0.0949771 -4.37997 0
M  V30 50386 C 5153.45 1.68668 -4.09958 0
M  V30 50387 H 5150.67 0.106451 -0.662502 0
M  V30 50388 H 5153.22 -0.323143 -2.01931 0
M  V30 50389 H 5151.37 1.6757 -3.49284 0
M  V30 50390 H 5151.78 0.310946 -5.23577 0
M  V30 50391 H 5153.26 2.01833 -5.13778 0
M  V30 50392 H 5153.74 2.59575 -3.54285 0
M  V30 50393 H 5154.34 1.02878 -4.1267 0
M  V30 50394 N 5152.66 1.57472 0.0634368 0
M  V30 50395 C 5154.07 1.76305 0.614275 0
M  V30 50396 C 5154.42 0.83664 1.77468 0
M  V30 50397 O 5153.54 0.0227945 2.16388 0
M  V30 50398 C 5154.14 3.19713 1.12111 0
M  V30 50399 C 5152.7 3.39862 1.61774 0
M  V30 50400 C 5151.84 2.71976 0.540749 0
M  V30 50401 H 5154.8 1.57863 -0.162758 0
M  V30 50402 H 5154.82 3.24333 1.98968 0
M  V30 50403 H 5154.33 3.87115 0.276336 0
M  V30 50404 H 5152.43 2.77587 2.48549 0
M  V30 50405 H 5152.54 4.48344 1.68892 0
M  V30 50406 H 5150.91 2.34766 0.987771 0
M  V30 50407 H 5151.69 3.42039 -0.293976 0
M  V30 50408 N 5154.13 -0.335013 1.53998 0
M  V30 50409 C 5155.38 -1.07176 1.70869 0
M  V30 50410 C 5155.7 -1.89539 0.483145 0
M  V30 50411 O 5156.9 -2.66217 0.532973 0
M  V30 50412 C 5155.36 -1.95486 3.02181 0
M  V30 50413 C 5154.97 -1.18289 4.32102 0
M  V30 50414 C 5156.71 -2.68966 3.28417 0
M  V30 50415 C 5154.62 -2.05679 5.54482 0
M  V30 50416 H 5153.55 -0.403835 0.636736 0
M  V30 50417 H 5156.2 -0.330697 1.80496 0
M  V30 50418 H 5154.58 -2.73446 2.86432 0
M  V30 50419 H 5155.75 -0.451808 4.5858 0
M  V30 50420 H 5154.07 -0.565411 4.12543 0
M  V30 50421 H 5156.67 -3.34636 4.17041 0
M  V30 50422 H 5157.01 -3.35991 2.45796 0
M  V30 50423 H 5157.54 -1.98075 3.4498 0
M  V30 50424 H 5154.28 -1.43182 6.39671 0
M  V30 50425 H 5153.8 -2.76553 5.32239 0
M  V30 50426 H 5155.48 -2.64533 5.9045 0
M  V30 50427 N 5155.61 -1.45876 -0.596479 0
M  V30 50428 C 5156.84 -1.54018 -1.38153 0
M  V30 50429 C 5157.26 -0.176546 -1.87973 0
M  V30 50430 O 5156.61 0.823838 -1.62847 0
M  V30 50431 C 5156.66 -2.53372 -2.57846 0
M  V30 50432 O 5156.38 -3.84437 -2.10094 0
M  V30 50433 C 5157.89 -2.7132 -3.50571 0
M  V30 50434 H 5155.11 -0.521266 -0.42252 0
M  V30 50435 H 5157.65 -1.91163 -0.726426 0
M  V30 50436 H 5155.8 -2.19269 -3.19374 0
M  V30 50437 H 5156.22 -4.38394 -2.87943 0
M  V30 50438 H 5157.69 -3.44791 -4.31072 0
M  V30 50439 H 5158.17 -1.77742 -4.01627 0
M  V30 50440 H 5158.78 -3.06465 -2.94889 0
M  V30 50441 N 5157.09 0.839943 -1.33352 0
M  V30 50442 C 5158.32 1.62723 -1.27784 0
M  V30 50443 C 5158.73 1.88192 0.151439 0
M  V30 50444 O 5158.09 1.46132 1.09324 0
M  V30 50445 C 5158.14 2.97806 -2.04924 0
M  V30 50446 O 5157.86 2.73457 -3.42276 0
M  V30 50447 C 5159.36 3.92238 -2.06554 0
M  V30 50448 H 5156.58 0.506358 -0.440275 0
M  V30 50449 H 5159.13 1.04631 -1.75706 0
M  V30 50450 H 5157.28 3.52503 -1.60686 0
M  V30 50451 H 5157.7 3.5947 -3.81945 0
M  V30 50452 H 5159.17 4.8424 -2.64983 0
M  V30 50453 H 5159.65 4.26328 -1.05552 0
M  V30 50454 H 5160.25 3.43478 -2.50805 0
M  V30 50455 N 5158.57 1.16803 1.05806 0
M  V30 50456 C 5159.8 0.976935 1.82383 0
M  V30 50457 C 5160.21 -0.474853 1.82731 0
M  V30 50458 O 5159.57 -1.32965 1.25006 0
M  V30 50459 C 5159.62 1.50291 3.28778 0
M  V30 50460 O 5159.34 2.89784 3.28568 0
M  V30 50461 C 5160.84 1.35553 4.22067 0
M  V30 50462 H 5158.06 0.345997 0.574915 0
M  V30 50463 H 5160.61 1.54947 1.33461 0
M  V30 50464 H 5158.76 0.972546 3.74994 0
M  V30 50465 H 5159.17 3.13969 4.20148 0
M  V30 50466 H 5160.65 1.77178 5.22792 0
M  V30 50467 H 5161.13 0.301752 4.38162 0
M  V30 50468 H 5161.73 1.87575 3.81701 0
M  V30 50469 N 5160.05 -1.24424 0.967287 0
M  V30 50470 C 5161.28 -1.96539 0.646546 0
M  V30 50471 C 5161.69 -1.71755 -0.783935 0
M  V30 50472 O 5161.05 -1.00108 -1.52593 0
M  V30 50473 C 5161.1 -3.49827 0.911221 0
M  V30 50474 O 5160.82 -3.73762 2.28547 0
M  V30 50475 C 5162.32 -4.39158 0.604612 0
M  V30 50476 H 5159.54 -0.62612 0.241277 0
M  V30 50477 H 5162.08 -1.58263 1.29511 0
M  V30 50478 H 5160.24 -3.86167 0.308876 0
M  V30 50479 H 5160.65 -4.68145 2.36517 0
M  V30 50480 H 5162.13 -5.45567 0.840261 0
M  V30 50481 H 5162.6 -4.36773 -0.46112 0
M  V30 50482 H 5163.21 -4.08404 1.18684 0
M  V30 50483 N 5161.53 -0.737353 -1.39287 0
M  V30 50484 C 5162.75 -0.296645 -2.04762 0
M  V30 50485 C 5163.17 1.06936 -1.55596 0
M  V30 50486 O 5162.53 1.67616 -0.721881 0
M  V30 50487 C 5162.58 -0.292032 -3.60318 0
M  V30 50488 O 5162.3 -1.60412 -4.07676 0
M  V30 50489 C 5163.8 0.164552 -4.42994 0
M  V30 50490 H 5161.02 -0.129274 -0.658429 0
M  V30 50491 H 5163.56 -1.00166 -1.78289 0
M  V30 50492 H 5161.72 0.364115 -3.85685 0
M  V30 50493 H 5162.13 -1.51927 -5.02014 0
M  V30 50494 H 5163.61 0.11662 -5.51877 0
M  V30 50495 H 5164.08 1.21007 -4.22201 0
M  V30 50496 H 5164.69 -0.462117 -4.22782 0
M  V30 50497 N 5163 1.49946 -0.485165 0
M  V30 50498 C 5164.25 2.02696 0.0650309 0
M  V30 50499 C 5164.58 1.36539 1.38097 0
M  V30 50500 O 5163.86 0.495743 1.88076 0
M  V30 50501 C 5164.14 3.59338 0.234159 0
M  V30 50502 C 5163.99 4.36046 -1.10379 0
M  V30 50503 C 5165.31 4.29 0.9822 0
M  V30 50504 H 5162.43 0.736667 0.0221598 0
M  V30 50505 H 5165.07 1.79128 -0.633496 0
M  V30 50506 H 5163.22 3.79549 0.829128 0
M  V30 50507 H 5164.9 4.27371 -1.73642 0
M  V30 50508 H 5163.14 3.9923 -1.697 0
M  V30 50509 H 5163.81 5.43956 -0.938935 0
M  V30 50510 H 5166.29 4.13348 0.477759 0
M  V30 50511 H 5165.16 5.38383 1.06936 0
M  V30 50512 H 5165.42 3.93142 2.02218 0
M  V30 50513 N 5164.48 0.218335 1.5608 0
M  V30 50514 C 5165.71 -0.419186 2.02609 0
M  V30 50515 C 5166.12 -1.53575 1.09819 0
M  V30 50516 O 5165.48 -1.82185 0.107213 0
M  V30 50517 C 5165.53 -0.953833 3.48689 0
M  V30 50518 O 5165.25 0.118204 4.37941 0
M  V30 50519 C 5166.75 -1.66492 4.10847 0
M  V30 50520 H 5163.97 -0.102936 0.663057 0
M  V30 50521 H 5166.52 0.333847 2.01757 0
M  V30 50522 H 5164.67 -1.65715 3.50167 0
M  V30 50523 H 5165.09 -0.283175 5.23735 0
M  V30 50524 H 5166.56 -1.99105 5.14841 0
M  V30 50525 H 5167.04 -2.57692 3.55656 0
M  V30 50526 H 5167.64 -1.00688 4.13209 0
M  V30 50527 N 5165.96 -1.57504 -0.0550848 0
M  V30 50528 C 5167.37 -1.76629 -0.604917 0
M  V30 50529 C 5167.72 -0.84604 -1.77021 0
M  V30 50530 O 5166.85 -0.0342697 -2.16373 0
M  V30 50531 C 5167.44 -3.20303 -1.10414 0
M  V30 50532 C 5166 -3.40715 -1.59969 0
M  V30 50533 C 5165.15 -2.72259 -0.526318 0
M  V30 50534 H 5168.1 -1.57775 0.171127 0
M  V30 50535 H 5168.12 -3.25384 -1.97245 0
M  V30 50536 H 5167.63 -3.87256 -0.255803 0
M  V30 50537 H 5165.73 -2.78901 -2.47073 0
M  V30 50538 H 5165.85 -4.49233 -1.66512 0
M  V30 50539 H 5164.21 -2.35287 -0.975307 0
M  V30 50540 H 5164.99 -3.41878 0.312111 0
M  V30 50541 N 5167.44 0.326842 -1.54174 0
M  V30 50542 C 5168.67 1.08479 -1.76181 0
M  V30 50543 C 5169.08 1.81813 -0.508851 0
M  V30 50544 O 5168.44 1.74926 0.5203 0
M  V30 50545 C 5168.49 2.08542 -2.95284 0
M  V30 50546 O 5168.21 1.38187 -4.15735 0
M  V30 50547 C 5169.71 2.96581 -3.29476 0
M  V30 50548 H 5166.93 0.322815 -0.588245 0
M  V30 50549 H 5169.47 0.373965 -2.01052 0
M  V30 50550 H 5167.63 2.75164 -2.72696 0
M  V30 50551 H 5168.04 2.05169 -4.82707 0
M  V30 50552 H 5169.52 3.62693 -4.16122 0
M  V30 50553 H 5169.99 3.63503 -2.465 0
M  V30 50554 H 5170.6 2.35525 -3.5413 0
M  V30 50555 N 5168.92 1.46191 0.588735 0
M  V30 50556 C 5170.33 1.45425 1.17083 0
M  V30 50557 C 5170.68 0.19187 1.9526 0
M  V30 50558 O 5169.8 -0.705425 2.04579 0
M  V30 50559 C 5170.4 2.63474 2.12995 0
M  V30 50560 C 5168.96 2.65769 2.6654 0
M  V30 50561 C 5168.1 2.38007 1.42296 0
M  V30 50562 H 5171.05 1.54157 0.376998 0
M  V30 50563 H 5171.08 2.38649 2.96356 0
M  V30 50564 H 5170.59 3.55337 1.56068 0
M  V30 50565 H 5168.69 1.77963 3.27353 0
M  V30 50566 H 5168.8 3.65556 3.09687 0
M  V30 50567 H 5167.17 1.87942 1.719 0
M  V30 50568 H 5167.95 3.32038 0.872092 0
M  V30 50569 N 5170.39 -0.832859 1.33795 0
M  V30 50570 C 5171.62 -1.62043 1.28645 0
M  V30 50571 C 5172.04 -1.88269 -0.141456 0
M  V30 50572 O 5171.39 -1.46709 -1.08548 0
M  V30 50573 C 5171.44 -2.96715 2.065 0
M  V30 50574 O 5171.17 -2.71638 3.43721 0
M  V30 50575 C 5172.67 -3.91137 2.08631 0
M  V30 50576 H 5169.89 -0.504016 0.442954 0
M  V30 50577 H 5172.43 -1.03697 1.76259 0
M  V30 50578 H 5170.59 -3.51646 1.62554 0
M  V30 50579 H 5171 -3.57439 3.83846 0
M  V30 50580 H 5172.47 -4.82827 2.67548 0
M  V30 50581 H 5172.95 -4.25762 1.07811 0
M  V30 50582 H 5173.56 -3.42143 2.52623 0
M  V30 50583 N 5171.87 -1.17362 -1.05185 0
M  V30 50584 C 5173.28 -0.967986 -1.59646 0
M  V30 50585 C 5173.63 0.485288 -1.90104 0
M  V30 50586 O 5172.76 1.3606 -1.68275 0
M  V30 50587 C 5173.35 -1.75078 -2.90057 0
M  V30 50588 C 5171.91 -1.58981 -3.41177 0
M  V30 50589 C 5171.06 -1.75239 -2.14911 0
M  V30 50590 H 5174.01 -1.3207 -0.879955 0
M  V30 50591 H 5174.03 -1.23321 -3.59961 0
M  V30 50592 H 5173.54 -2.80845 -2.67858 0
M  V30 50593 H 5171.64 -0.557036 -3.68413 0
M  V30 50594 H 5171.76 -2.38081 -4.15757 0
M  V30 50595 H 5170.12 -1.18081 -2.25675 0
M  V30 50596 H 5170.9 -2.82417 -1.95181 0
M  V30 50597 N 5173.35 1.23909 -0.973872 0
M  V30 50598 C 5174.58 1.96193 -0.65696 0
M  V30 50599 C 5174.99 1.72169 0.774816 0
M  V30 50600 O 5174.35 1.00916 1.5206 0
M  V30 50601 C 5174.4 3.49339 -0.92976 0
M  V30 50602 O 5174.12 3.72545 -2.30526 0
M  V30 50603 C 5175.62 4.38831 -0.627893 0
M  V30 50604 H 5172.84 0.624832 -0.244594 0
M  V30 50605 H 5175.39 1.57574 -1.30348 0
M  V30 50606 H 5173.54 3.85997 -0.329351 0
M  V30 50607 H 5173.96 4.66885 -2.38996 0
M  V30 50608 H 5175.43 5.45114 -0.869182 0
M  V30 50609 H 5175.91 4.37011 0.43795 0
M  V30 50610 H 5176.51 4.07769 -1.20849 0
M  V30 50611 N 5174.83 0.744729 1.38894 0
M  V30 50612 C 5176.08 0.296368 1.99915 0
M  V30 50613 C 5176.4 -1.1232 1.59403 0
M  V30 50614 O 5175.67 -1.76655 0.846751 0
M  V30 50615 H 5174.25 0.106587 0.739357 0
M  V30 50616 H 5176.91 0.956853 1.69795 0
M  V30 50617 H 5176.01 0.352465 3.10103 0
M  V30 50618 N 5176.31 -1.49687 0.49311 0
M  V30 50619 C 5177.53 -2.06837 -0.0512413 0
M  V30 50620 C 5177.95 -1.3544 -1.31534 0
M  V30 50621 O 5177.31 -0.43031 -1.77354 0
M  V30 50622 C 5177.36 -3.60109 -0.316877 0
M  V30 50623 O 5177.08 -4.28816 0.897108 0
M  V30 50624 C 5178.58 -4.33948 -0.90575 0
M  V30 50625 H 5175.8 -0.670786 0.0169284 0
M  V30 50626 H 5178.34 -1.92572 0.688207 0
M  V30 50627 H 5176.5 -3.74102 -1.00629 0
M  V30 50628 H 5176.91 -5.20393 0.655122 0
M  V30 50629 H 5178.39 -5.4209 -1.04125 0
M  V30 50630 H 5178.86 -3.95902 -1.90154 0
M  V30 50631 H 5179.47 -4.24541 -0.254045 0
M  V30 50632 N 5177.78 -0.226609 -1.55962 0
M  V30 50633 C 5178.72 0.71383 -2.17801 0
M  V30 50634 C 5179.73 1.15383 -1.1485 0
M  V30 50635 O 5180.92 1.08411 -1.41807 0
M  V30 50636 C 5178.02 1.97935 -2.7509 0
M  V30 50637 C 5177.19 1.6941 -4.03261 0
M  V30 50638 C 5176.25 2.80718 -4.45066 0
M  V30 50639 O 5175.28 2.48972 -5.11861 0
M  V30 50640 N 5176.48 4.09783 -4.11167 0
M  V30 50641 H 5179.24 0.184835 -2.99129 0
M  V30 50642 H 5176.8 -0.0457914 -1.61835 0
M  V30 50643 H 5178.8 2.716 -3.00025 0
M  V30 50644 H 5177.37 2.41869 -1.98036 0
M  V30 50645 H 5176.59 0.793631 -3.86128 0
M  V30 50646 H 5177.87 1.47788 -4.86863 0
M  V30 50647 H 5177.27 4.38417 -3.57502 0
M  V30 50648 H 5175.83 4.79976 -4.40983 0
M  V30 50649 N 5179.26 1.57531 0.0467312 0
M  V30 50650 C 5180.49 1.92699 0.753303 0
M  V30 50651 C 5180.91 0.824852 1.69828 0
M  V30 50652 O 5180.26 -0.200091 1.814 0
M  V30 50653 C 5180.31 3.27733 1.52555 0
M  V30 50654 O 5180.03 4.33712 0.618522 0
M  V30 50655 C 5181.54 3.77074 2.33087 0
M  V30 50656 H 5178.76 0.636374 0.212765 0
M  V30 50657 H 5181.3 2.04498 0.00952172 0
M  V30 50658 H 5179.45 3.17386 2.22137 0
M  V30 50659 H 5179.87 5.11552 1.15821 0
M  V30 50660 H 5181.34 4.74119 2.82693 0
M  V30 50661 H 5181.82 3.07359 3.13731 0
M  V30 50662 H 5182.43 3.90448 1.68614 0
M  V30 50663 N 5180.74 -0.318661 1.54345 0
M  V30 50664 C 5182.15 -0.892792 1.6397 0
M  V30 50665 C 5182.5 -1.8871 0.536921 0
M  V30 50666 O 5181.63 -2.13879 -0.329381 0
M  V30 50667 C 5182.22 -1.62608 2.97227 0
M  V30 50668 C 5180.78 -2.14886 3.09032 0
M  V30 50669 C 5179.93 -0.975818 2.59563 0
M  V30 50670 H 5182.88 -0.096113 1.58409 0
M  V30 50671 H 5182.9 -2.4906 2.87662 0
M  V30 50672 H 5182.41 -0.902153 3.77469 0
M  V30 50673 H 5180.51 -2.90379 2.33475 0
M  V30 50674 H 5180.63 -2.3955 4.14913 0
M  V30 50675 H 5178.99 -1.35638 2.15579 0
M  V30 50676 H 5179.77 -0.266133 3.42267 0
M  V30 50677 N 5182.22 -1.46501 -0.580974 0
M  V30 50678 C 5183.45 -1.55474 -1.36511 0
M  V30 50679 C 5183.86 -0.196473 -1.87775 0
M  V30 50680 O 5183.22 0.806519 -1.63712 0
M  V30 50681 C 5183.27 -2.56093 -2.55145 0
M  V30 50682 O 5182.99 -3.86644 -2.06005 0
M  V30 50683 C 5184.49 -2.75023 -3.47674 0
M  V30 50684 H 5181.71 -0.525718 -0.416967 0
M  V30 50685 H 5184.26 -1.91923 -0.70611 0
M  V30 50686 H 5182.41 -2.22644 -3.17031 0
M  V30 50687 H 5182.82 -4.41423 -2.83277 0
M  V30 50688 H 5184.3 -3.49344 -4.27391 0
M  V30 50689 H 5184.78 -1.81992 -3.99719 0
M  V30 50690 H 5185.38 -3.09575 -2.91622 0
M  V30 50691 N 5183.7 0.825752 -1.34235 0
M  V30 50692 C 5184.92 1.61359 -1.29503 0
M  V30 50693 C 5185.34 1.88342 0.13147 0
M  V30 50694 O 5184.7 1.47283 1.07768 0
M  V30 50695 C 5184.75 2.95616 -2.08071 0
M  V30 50696 O 5184.47 2.69812 -3.45157 0
M  V30 50697 C 5185.97 3.90025 -2.10702 0
M  V30 50698 H 5183.19 0.50166 -0.445621 0
M  V30 50699 H 5185.73 1.02761 -1.76806 0
M  V30 50700 H 5183.89 3.50779 -1.64416 0
M  V30 50701 H 5184.3 3.55398 -3.85736 0
M  V30 50702 H 5185.78 4.81402 -2.70104 0
M  V30 50703 H 5186.25 4.25184 -1.10067 0
M  V30 50704 H 5186.86 3.40799 -2.54434 0
M  V30 50705 N 5185.17 1.17918 1.04561 0
M  V30 50706 C 5186.4 0.996224 1.81337 0
M  V30 50707 C 5186.82 -0.455445 1.83224 0
M  V30 50708 O 5186.17 -1.31632 1.26409 0
M  V30 50709 C 5186.23 1.5377 3.27165 0
M  V30 50710 O 5185.95 2.93253 3.25476 0
M  V30 50711 C 5187.45 1.40022 4.20605 0
M  V30 50712 H 5184.67 0.352075 0.571213 0
M  V30 50713 H 5187.21 1.56353 1.3181 0
M  V30 50714 H 5185.37 1.01226 3.73941 0
M  V30 50715 H 5185.78 3.18407 4.16794 0
M  V30 50716 H 5187.25 1.82713 5.20884 0
M  V30 50717 H 5187.73 0.348208 4.37817 0
M  V30 50718 H 5188.34 1.91613 3.7969 0
M  V30 50719 N 5186.65 -1.23391 0.980429 0
M  V30 50720 C 5188.06 -1.73628 0.6863 0
M  V30 50721 C 5188.41 -1.79262 -0.797478 0
M  V30 50722 O 5187.54 -1.43051 -1.62374 0
M  V30 50723 C 5188.13 -3.15328 1.23911 0
M  V30 50724 C 5186.69 -3.63021 0.994621 0
M  V30 50725 C 5185.84 -2.41275 1.36682 0
M  V30 50726 H 5188.79 -1.08914 1.15427 0
M  V30 50727 H 5188.81 -3.75553 0.611546 0
M  V30 50728 H 5188.32 -3.11196 2.31903 0
M  V30 50729 H 5186.43 -3.72536 -0.0692182 0
M  V30 50730 H 5186.54 -4.49819 1.64922 0
M  V30 50731 H 5184.9 -2.42292 0.78528 0
M  V30 50732 H 5185.69 -2.39814 2.45651 0
M  V30 50733 N 5188.13 -0.752084 -1.38497 0
M  V30 50734 C 5189.38 -0.304364 -1.9939 0
M  V30 50735 C 5189.69 1.11976 -1.60377 0
M  V30 50736 O 5190.9 1.66787 -2.14229 0
M  V30 50737 C 5189.35 -0.493227 -3.56504 0
M  V30 50738 C 5188.96 -1.92634 -4.0447 0
M  V30 50739 C 5190.71 -0.108143 -4.24362 0
M  V30 50740 C 5188.61 -2.06384 -5.5422 0
M  V30 50741 H 5187.54 -0.11005 -0.745926 0
M  V30 50742 H 5190.19 -0.928411 -1.58281 0
M  V30 50743 H 5188.58 0.199981 -3.95495 0
M  V30 50744 H 5189.75 -2.65289 -3.76773 0
M  V30 50745 H 5188.07 -2.2662 -3.49331 0
M  V30 50746 H 5190.66 -0.189662 -5.34364 0
M  V30 50747 H 5191.01 0.939023 -4.05571 0
M  V30 50748 H 5191.54 -0.753149 -3.90605 0
M  V30 50749 H 5188.28 -3.0935 -5.77913 0
M  V30 50750 H 5187.8 -1.38188 -5.83664 0
M  V30 50751 H 5189.48 -1.85308 -6.19895 0
M  V30 50752 N 5189.61 1.49423 -0.501041 0
M  V30 50753 C 5190.84 2.06861 0.0402716 0
M  V30 50754 C 5191.25 1.36136 1.30814 0
M  V30 50755 O 5190.61 0.439709 1.77124 0
M  V30 50756 C 5190.66 3.60271 0.297775 0
M  V30 50757 O 5190.38 4.28335 -0.919837 0
M  V30 50758 C 5191.88 4.34422 0.882723 0
M  V30 50759 H 5189.1 0.670687 -0.0204855 0
M  V30 50760 H 5191.65 1.92204 -0.69841 0
M  V30 50761 H 5189.8 3.74631 0.986438 0
M  V30 50762 H 5190.22 5.20038 -0.682711 0
M  V30 50763 H 5191.69 5.42635 1.01248 0
M  V30 50764 H 5192.17 3.96904 1.88052 0
M  V30 50765 H 5192.77 4.24669 0.231527 0
M  V30 50766 N 5191.09 0.234877 1.5584 0
M  V30 50767 C 5192.32 -0.397673 2.03042 0
M  V30 50768 C 5192.73 -1.52401 1.11442 0
M  V30 50769 O 5192.09 -1.82061 0.12653 0
M  V30 50770 C 5192.14 -0.916796 3.49681 0
M  V30 50771 O 5191.86 0.164647 4.37791 0
M  V30 50772 C 5193.36 -1.62125 4.1259 0
M  V30 50773 H 5190.58 -0.0958981 0.664112 0
M  V30 50774 H 5193.12 0.355227 2.01391 0
M  V30 50775 H 5191.28 -1.61992 3.51905 0
M  V30 50776 H 5191.69 -0.22761 5.24006 0
M  V30 50777 H 5193.17 -1.93633 5.16924 0
M  V30 50778 H 5193.64 -2.53905 3.58369 0
M  V30 50779 H 5194.25 -0.963 4.14254 0
M  V30 50780 N 5192.57 -1.57553 -0.0383763 0
M  V30 50781 C 5193.79 -1.93096 -0.743073 0
M  V30 50782 C 5194.21 -0.833846 -1.69388 0
M  V30 50783 O 5193.57 0.190468 -1.81503 0
M  V30 50784 C 5193.62 -3.28538 -1.50815 0
M  V30 50785 O 5193.34 -4.34034 -0.595513 0
M  V30 50786 C 5194.84 -3.78305 -2.31084 0
M  V30 50787 H 5192.06 -0.637493 -0.209387 0
M  V30 50788 H 5194.6 -2.045 0.00132343 0
M  V30 50789 H 5192.76 -3.1856 -2.20451 0
M  V30 50790 H 5193.17 -5.12159 -1.13106 0
M  V30 50791 H 5194.65 -4.75612 -2.80174 0
M  V30 50792 H 5195.12 -3.09019 -3.12096 0
M  V30 50793 H 5195.73 -3.91336 -1.66541 0
M  V30 50794 N 5194.04 0.310471 -1.54512 0
M  V30 50795 C 5195.27 1.06605 -1.77322 0
M  V30 50796 C 5195.69 1.81264 -0.528107 0
M  V30 50797 O 5195.04 1.75468 0.501718 0
M  V30 50798 C 5195.09 2.05398 -2.97479 0
M  V30 50799 O 5194.82 1.3377 -4.17178 0
M  V30 50800 C 5196.32 2.9307 -3.32603 0
M  V30 50801 H 5193.54 0.316557 -0.591635 0
M  V30 50802 H 5196.08 0.35262 -2.01437 0
M  V30 50803 H 5194.24 2.72257 -2.75599 0
M  V30 50804 H 5194.65 2.00038 -4.84856 0
M  V30 50805 H 5196.12 3.58259 -4.19945 0
M  V30 50806 H 5196.6 3.60868 -2.50342 0
M  V30 50807 H 5197.21 2.31755 -3.56608 0
M  V30 50808 N 5195.52 1.46807 0.573196 0
M  V30 50809 C 5196.75 1.56196 1.35685 0
M  V30 50810 C 5197.16 0.206428 1.87668 0
M  V30 50811 O 5196.52 -0.797826 1.64137 0
M  V30 50812 C 5196.57 2.57442 2.53783 0
M  V30 50813 O 5196.29 3.87731 2.03951 0
M  V30 50814 C 5197.79 2.76863 3.4621 0
M  V30 50815 H 5195.01 0.527922 0.414173 0
M  V30 50816 H 5197.56 1.92295 0.695922 0
M  V30 50817 H 5195.71 2.24322 3.15846 0
M  V30 50818 H 5196.13 4.42919 2.80932 0
M  V30 50819 H 5197.6 3.51605 4.25532 0
M  V30 50820 H 5198.08 1.8411 3.98748 0
M  V30 50821 H 5198.68 3.11118 2.89976 0
M  V30 50822 N 5197 -0.818622 1.34671 0
M  V30 50823 C 5198.25 -1.57741 1.27458 0
M  V30 50824 C 5198.58 -1.93588 -0.154009 0
M  V30 50825 O 5197.85 -1.60375 -1.10046 0
M  V30 50826 C 5198.14 -2.87406 2.16955 0
M  V30 50827 C 5197.99 -2.58112 3.68372 0
M  V30 50828 C 5199.31 -3.89014 2.05806 0
M  V30 50829 H 5196.43 -0.572323 0.464344 0
M  V30 50830 H 5199.07 -0.942726 1.64963 0
M  V30 50831 H 5197.22 -3.4157 1.85101 0
M  V30 50832 H 5198.89 -2.10225 4.10613 0
M  V30 50833 H 5197.13 -1.91489 3.89248 0
M  V30 50834 H 5197.81 -3.50595 4.26365 0
M  V30 50835 H 5200.28 -3.44216 2.33783 0
M  V30 50836 H 5199.16 -4.77538 2.70645 0
M  V30 50837 H 5199.42 -4.29782 1.03633 0
M  V30 50838 N 5198.48 -1.18471 -1.03934 0
M  V30 50839 C 5199.71 -1.00583 -1.80806 0
M  V30 50840 C 5200.12 0.445722 -1.83463 0
M  V30 50841 O 5199.48 1.3096 -1.27106 0
M  V30 50842 C 5199.53 -1.55502 -3.26345 0
M  V30 50843 O 5199.25 -2.94975 -3.23916 0
M  V30 50844 C 5200.75 -1.4225 -4.19857 0
M  V30 50845 H 5197.97 -0.3551 -0.569338 0
M  V30 50846 H 5200.51 -1.5705 -1.30979 0
M  V30 50847 H 5198.67 -1.03208 -3.73399 0
M  V30 50848 H 5199.08 -3.20613 -4.15099 0
M  V30 50849 H 5200.56 -1.85473 -5.19907 0
M  V30 50850 H 5201.03 -0.371421 -4.37627 0
M  V30 50851 H 5201.64 -1.93624 -3.78669 0
M  V30 50852 N 5199.96 1.22869 -0.986959 0
M  V30 50853 C 5201.37 1.73262 -0.695499 0
M  V30 50854 C 5201.72 1.79682 0.78796 0
M  V30 50855 O 5200.84 1.4391 1.61613 0
M  V30 50856 C 5201.44 3.14666 -1.25581 0
M  V30 50857 C 5200 3.62488 -1.01386 0
M  V30 50858 C 5199.14 2.40546 -1.37959 0
M  V30 50859 H 5202.09 1.083 -1.16003 0
M  V30 50860 H 5202.12 3.75224 -0.631454 0
M  V30 50861 H 5201.63 3.09961 -2.3355 0
M  V30 50862 H 5199.73 3.72567 0.0494608 0
M  V30 50863 H 5199.84 4.48938 -1.67305 0
M  V30 50864 H 5198.21 2.41872 -0.798118 0
M  V30 50865 H 5198.99 2.38507 -2.46919 0
M  V30 50866 N 5201.43 0.759419 1.38096 0
M  V30 50867 C 5202.66 0.329183 2.04265 0
M  V30 50868 C 5203.08 -1.04447 1.57278 0
M  V30 50869 O 5202.43 -1.66446 0.748456 0
M  V30 50870 C 5202.48 0.349319 3.59808 0
M  V30 50871 O 5202.21 1.66877 4.05072 0
M  V30 50872 C 5203.71 -0.0940548 4.432 0
M  V30 50873 H 5200.93 0.139733 0.656289 0
M  V30 50874 H 5203.47 1.0299 1.76673 0
M  V30 50875 H 5201.63 -0.30271 3.86216 0
M  V30 50876 H 5202.04 1.59894 4.99534 0
M  V30 50877 H 5203.51 -0.0288063 5.51992 0
M  V30 50878 H 5203.99 -1.14275 4.24073 0
M  V30 50879 H 5204.6 0.529319 4.21993 0
M  V30 50880 N 5202.91 -1.49156 0.508959 0
M  V30 50881 C 5204.32 -1.86593 0.0631631 0
M  V30 50882 C 5204.67 -1.42056 -1.35332 0
M  V30 50883 O 5203.8 -0.801937 -2.00992 0
M  V30 50884 C 5204.39 -3.38628 0.107848 0
M  V30 50885 C 5202.95 -3.75337 -0.282644 0
M  V30 50886 C 5202.1 -2.73168 0.476896 0
M  V30 50887 H 5205.05 -1.4136 0.72133 0
M  V30 50888 H 5205.07 -3.74273 -0.685558 0
M  V30 50889 H 5204.58 -3.71013 1.13889 0
M  V30 50890 H 5202.68 -3.48562 -1.31663 0
M  V30 50891 H 5202.8 -4.79081 0.0423412 0
M  V30 50892 H 5201.16 -2.54592 -0.0742657 0
M  V30 50893 H 5201.94 -3.08397 1.50817 0
M  V30 50894 N 5204.39 -0.243138 -1.55713 0
M  V30 50895 C 5205.62 0.3869 -2.0325 0
M  V30 50896 C 5206.03 1.51808 -1.12249 0
M  V30 50897 O 5205.39 1.81991 -0.136183 0
M  V30 50898 C 5205.44 0.898238 -3.50163 0
M  V30 50899 O 5205.16 -0.187861 -4.37697 0
M  V30 50900 C 5206.66 1.59935 -4.13444 0
M  V30 50901 H 5203.88 0.0923748 -0.664611 0
M  V30 50902 H 5206.43 -0.365902 -2.012 0
M  V30 50903 H 5204.58 1.60123 -3.5276 0
M  V30 50904 H 5205 0.199817 -5.24119 0
M  V30 50905 H 5206.47 1.90889 -5.17943 0
M  V30 50906 H 5206.95 2.52001 -3.59711 0
M  V30 50907 H 5207.55 0.941017 -4.14759 0
M  V30 50908 N 5205.87 1.57571 0.0300203 0
M  V30 50909 C 5207.28 1.77569 0.57674 0
M  V30 50910 C 5207.63 0.874096 1.75653 0
M  V30 50911 O 5206.76 0.0686884 2.16291 0
M  V30 50912 C 5207.35 3.22019 1.05304 0
M  V30 50913 C 5205.91 3.43217 1.54528 0
M  V30 50914 C 5205.06 2.73062 0.482937 0
M  V30 50915 H 5208.01 1.57482 -0.196206 0
M  V30 50916 H 5208.03 3.28481 1.92043 0
M  V30 50917 H 5207.54 3.87614 0.194161 0
M  V30 50918 H 5205.64 2.82796 2.42605 0
M  V30 50919 H 5205.75 4.51825 1.59344 0
M  V30 50920 H 5204.12 2.36809 0.937752 0
M  V30 50921 H 5204.9 3.41338 -0.366461 0
M  V30 50922 N 5207.35 -0.302273 1.54674 0
M  V30 50923 C 5208.57 -1.05663 1.77885 0
M  V30 50924 C 5208.99 -1.80981 0.537712 0
M  V30 50925 O 5208.35 -1.75732 -0.492405 0
M  V30 50926 C 5208.4 -2.03818 2.98564 0
M  V30 50927 O 5208.12 -1.31556 4.17881 0
M  V30 50928 C 5209.62 -2.91302 3.34153 0
M  V30 50929 H 5206.84 -0.313415 0.593306 0
M  V30 50930 H 5209.38 -0.341933 2.01621 0
M  V30 50931 H 5207.54 -2.70791 2.77039 0
M  V30 50932 H 5207.95 -1.97463 4.8591 0
M  V30 50933 H 5209.43 -3.56027 4.21839 0
M  V30 50934 H 5209.9 -3.59535 2.52252 0
M  V30 50935 H 5210.51 -2.29861 3.57832 0
M  V30 50936 N 5208.82 -1.47109 -0.565403 0
M  V30 50937 C 5210.07 -1.53009 -1.32032 0
M  V30 50938 C 5210.39 -0.190521 -1.94067 0
M  V30 50939 O 5209.66 0.78472 -1.79496 0
M  V30 50940 H 5208.24 -0.563596 -0.490274 0
M  V30 50941 H 5210.91 -1.83354 -0.660864 0
M  V30 50942 H 5210 -2.29223 -2.1181 0
M  V30 50943 N 5210.3 0.811468 -1.35103 0
M  V30 50944 C 5211.53 1.59976 -1.31207 0
M  V30 50945 C 5211.95 1.88471 0.111486 0
M  V30 50946 O 5211.3 1.48418 1.062 0
M  V30 50947 C 5211.35 2.93392 -2.11195 0
M  V30 50948 O 5211.07 2.66136 -3.47999 0
M  V30 50949 C 5212.58 3.87768 -2.14827 0
M  V30 50950 H 5209.8 0.496906 -0.450917 0
M  V30 50951 H 5212.34 1.0088 -1.77886 0
M  V30 50952 H 5210.49 3.49016 -1.68127 0
M  V30 50953 H 5210.91 3.51287 -3.89484 0
M  V30 50954 H 5212.38 4.7851 -2.75195 0
M  V30 50955 H 5212.86 4.23993 -1.14571 0
M  V30 50956 H 5213.47 3.38081 -2.58034 0
M  V30 50957 N 5211.78 1.19021 1.03304 0
M  V30 50958 C 5212.71 0.881921 2.11553 0
M  V30 50959 C 5213.73 -0.123654 1.6233 0
M  V30 50960 O 5214.91 0.105204 1.7819 0
M  V30 50961 C 5212.01 0.297753 3.37589 0
M  V30 50962 C 5211.19 1.35086 4.16017 0
M  V30 50963 C 5210.25 0.780995 5.20372 0
M  V30 50964 O 5209.27 1.45765 5.50219 0
M  V30 50965 N 5210.47 -0.417761 5.78995 0
M  V30 50966 H 5213.24 1.81368 2.38591 0
M  V30 50967 H 5210.8 1.09164 1.19561 0
M  V30 50968 H 5212.79 -0.0972317 4.04583 0
M  V30 50969 H 5211.36 -0.53819 3.07932 0
M  V30 50970 H 5210.58 1.92086 3.44234 0
M  V30 50971 H 5211.87 2.06061 4.65206 0
M  V30 50972 H 5211.27 -0.985085 5.57057 0
M  V30 50973 H 5209.83 -0.754574 6.47417 0
M  V30 50974 N 5213.26 -1.22344 0.993461 0
M  V30 50975 C 5214.49 -1.95123 0.688089 0
M  V30 50976 C 5214.9 -1.7338 -0.747327 0
M  V30 50977 O 5214.26 -1.03322 -1.50435 0
M  V30 50978 C 5214.31 -3.47816 0.98522 0
M  V30 50979 O 5214.03 -3.6883 2.36423 0
M  V30 50980 C 5215.53 -4.37776 0.697628 0
M  V30 50981 H 5212.75 -0.620862 0.254503 0
M  V30 50982 H 5215.3 -1.5548 1.32839 0
M  V30 50983 H 5213.45 -3.85425 0.390719 0
M  V30 50984 H 5213.86 -4.63023 2.46394 0
M  V30 50985 H 5215.34 -5.43662 0.955795 0
M  V30 50986 H 5215.82 -4.37652 -0.36837 0
M  V30 50987 H 5216.42 -4.05795 1.2732 0
M  V30 50988 N 5214.74 -0.766732 -1.37692 0
M  V30 50989 C 5216.15 -0.394825 -1.82477 0
M  V30 50990 C 5216.5 1.07836 -1.63908 0
M  V30 50991 O 5215.62 1.83475 -1.14743 0
M  V30 50992 C 5216.22 -0.709856 -3.3128 0
M  V30 50993 C 5214.78 -0.391068 -3.74363 0
M  V30 50994 C 5213.92 -0.956284 -2.60289 0
M  V30 50995 H 5216.88 -0.961801 -1.26234 0
M  V30 50996 H 5216.9 0.00728768 -3.80499 0
M  V30 50997 H 5216.41 -1.78212 -3.44764 0
M  V30 50998 H 5214.51 0.674084 -3.66452 0
M  V30 50999 H 5214.62 -0.89581 -4.70651 0
M  V30 51000 H 5212.99 -0.380832 -2.51837 0
M  V30 51001 H 5213.77 -2.03385 -2.76567 0
M  V30 51002 N 5216.21 1.48884 -0.516862 0
M  V30 51003 C 5217.44 2.06892 0.018329 0
M  V30 51004 C 5217.86 1.37516 1.29363 0
M  V30 51005 O 5217.21 0.458471 1.76647 0
M  V30 51006 C 5217.27 3.60567 0.259547 0
M  V30 51007 O 5216.99 4.27335 -0.965216 0
M  V30 51008 C 5218.49 4.35334 0.836598 0
M  V30 51009 H 5215.71 0.670432 -0.0275978 0
M  V30 51010 H 5218.25 1.91453 -0.718757 0
M  V30 51011 H 5216.41 3.75656 0.946648 0
M  V30 51012 H 5216.82 5.19284 -0.737829 0
M  V30 51013 H 5218.29 5.43678 0.954874 0
M  V30 51014 H 5218.77 3.98877 1.83831 0
M  V30 51015 H 5219.38 4.24891 0.186472 0
M  V30 51016 N 5217.69 0.251393 1.55582 0
M  V30 51017 C 5218.92 -0.376116 2.03453 0
M  V30 51018 C 5219.34 -1.51211 1.13052 0
M  V30 51019 O 5218.69 -1.81916 0.145833 0
M  V30 51020 C 5218.74 -0.879656 3.50634 0
M  V30 51021 O 5218.46 0.211071 4.37591 0
M  V30 51022 C 5219.97 -1.5774 4.14286 0
M  V30 51023 H 5217.19 -0.0888489 0.665092 0
M  V30 51024 H 5219.73 0.376567 2.01003 0
M  V30 51025 H 5217.88 -1.5825 3.53604 0
M  V30 51026 H 5218.3 -0.172019 5.24218 0
M  V30 51027 H 5219.77 -1.8814 5.18948 0
M  V30 51028 H 5220.25 -2.5009 3.61042 0
M  V30 51029 H 5220.86 -0.919008 4.15252 0
M  V30 51030 N 5219.17 -1.57585 -0.0216635 0
M  V30 51031 C 5220.4 -1.93873 -0.722551 0
M  V30 51032 C 5220.81 -0.851765 -1.68495 0
M  V30 51033 O 5220.17 0.171207 -1.81695 0
M  V30 51034 C 5220.22 -3.30119 -1.47322 0
M  V30 51035 O 5219.94 -4.34641 -0.549444 0
M  V30 51036 C 5221.44 -3.80735 -2.27059 0
M  V30 51037 H 5218.66 -0.639678 -0.202614 0
M  V30 51038 H 5221.21 -2.04487 0.0230133 0
M  V30 51039 H 5219.36 -3.2088 -2.1706 0
M  V30 51040 H 5219.78 -5.1333 -1.07668 0
M  V30 51041 H 5221.25 -4.78556 -2.75114 0
M  V30 51042 H 5221.73 -3.12312 -3.08801 0
M  V30 51043 H 5222.33 -3.93081 -1.62381 0
M  V30 51044 N 5220.65 0.294066 -1.54832 0
M  V30 51045 C 5222.06 0.866593 -1.65369 0
M  V30 51046 C 5222.41 1.87832 -0.566876 0
M  V30 51047 O 5221.54 2.14376 0.295313 0
M  V30 51048 C 5222.13 1.57858 -2.99777 0
M  V30 51049 C 5220.69 2.09943 -3.12412 0
M  V30 51050 C 5219.84 0.9344 -2.61083 0
M  V30 51051 H 5222.79 0.0708994 -1.58542 0
M  V30 51052 H 5222.81 2.44452 -2.91588 0
M  V30 51053 H 5222.32 0.841987 -3.78856 0
M  V30 51054 H 5220.42 2.86628 -2.38065 0
M  V30 51055 H 5220.54 2.32919 -4.18671 0
M  V30 51056 H 5218.9 1.32191 -2.1771 0
M  V30 51057 H 5219.68 0.211647 -3.42647 0
M  V30 51058 N 5222.13 1.47406 0.557593 0
M  V30 51059 C 5223.38 1.53272 1.31113 0
M  V30 51060 C 5223.69 0.199483 1.9458 0
M  V30 51061 O 5224.9 0.136135 2.71158 0
M  V30 51062 C 5223.35 2.70187 2.37754 0
M  V30 51063 C 5222.96 4.10038 1.80479 0
M  V30 51064 C 5224.7 2.85345 3.14291 0
M  V30 51065 C 5222.61 5.18254 2.84898 0
M  V30 51066 H 5221.54 0.570508 0.492987 0
M  V30 51067 H 5224.19 1.7368 0.592246 0
M  V30 51068 H 5222.57 2.43158 3.12554 0
M  V30 51069 H 5223.75 4.46968 1.12053 0
M  V30 51070 H 5222.06 3.99763 1.16528 0
M  V30 51071 H 5224.66 3.63361 3.92267 0
M  V30 51072 H 5225 1.93774 3.68453 0
M  V30 51073 H 5225.54 3.12141 2.46602 0
M  V30 51074 H 5222.27 6.117 2.35592 0
M  V30 51075 H 5221.79 4.85842 3.51736 0
M  V30 51076 H 5223.47 5.45186 3.48397 0
M  V30 51077 N 5223.61 -0.804292 1.35532 0
M  V30 51078 C 5224.83 -1.59278 1.32053 0
M  V30 51079 C 5225.25 -1.88527 -0.10149 0
M  V30 51080 O 5224.61 -1.48979 -1.05411 0
M  V30 51081 C 5224.66 -2.92268 2.12748 0
M  V30 51082 O 5224.38 -2.64286 3.49406 0
M  V30 51083 C 5225.88 -3.86624 2.1688 0
M  V30 51084 H 5223.1 -0.494507 0.453546 0
M  V30 51085 H 5225.64 -0.999353 1.78419 0
M  V30 51086 H 5223.8 -3.48119 1.69976 0
M  V30 51087 H 5224.21 -3.49217 3.91341 0
M  V30 51088 H 5225.69 -4.77044 2.77729 0
M  V30 51089 H 5226.16 -4.2338 1.16818 0
M  V30 51090 H 5226.77 -3.36708 2.59823 0
M  V30 51091 N 5225.08 -1.19567 -1.02672 0
M  V30 51092 C 5226.31 -1.02495 -1.79729 0
M  V30 51093 C 5226.73 0.426238 -1.83926 0
M  V30 51094 O 5226.08 1.29604 -1.28487 0
M  V30 51095 C 5226.13 -1.58955 -3.24678 0
M  V30 51096 O 5225.86 -2.98394 -3.20769 0
M  V30 51097 C 5227.36 -1.46696 -4.18324 0
M  V30 51098 H 5224.58 -0.361118 -0.565539 0
M  V30 51099 H 5227.12 -1.58431 -1.29306 0
M  V30 51100 H 5225.28 -1.07163 -3.72283 0
M  V30 51101 H 5225.69 -3.24998 -4.11676 0
M  V30 51102 H 5227.16 -1.90977 -5.17911 0
M  V30 51103 H 5227.64 -0.417816 -4.37208 0
M  V30 51104 H 5228.25 -1.97629 -3.76594 0
M  V30 51105 N 5226.56 1.21816 -0.999936 0
M  V30 51106 C 5227.79 1.94755 -0.698427 0
M  V30 51107 C 5228.2 1.73773 0.738122 0
M  V30 51108 O 5227.56 1.04118 1.49885 0
M  V30 51109 C 5227.61 3.47288 -1.00365 0
M  V30 51110 O 5227.33 3.67571 -2.38376 0
M  V30 51111 C 5228.83 4.374 -0.720834 0
M  V30 51112 H 5226.05 0.619503 -0.257792 0
M  V30 51113 H 5228.6 1.54774 -1.33661 0
M  V30 51114 H 5226.75 3.85212 -0.411153 0
M  V30 51115 H 5227.17 4.6171 -2.48846 0
M  V30 51116 H 5228.64 5.43148 -0.984613 0
M  V30 51117 H 5229.12 4.37842 0.345155 0
M  V30 51118 H 5229.72 4.05114 -1.29471 0
M  V30 51119 N 5228.04 0.774023 1.37283 0
M  V30 51120 C 5229.27 0.350829 2.03904 0
M  V30 51121 C 5229.68 -1.02773 1.58377 0
M  V30 51122 O 5229.04 -1.65643 0.766068 0
M  V30 51123 C 5229.09 0.387462 3.59418 0
M  V30 51124 O 5228.81 1.71164 4.0328 0
M  V30 51125 C 5230.31 -0.0470422 4.43275 0
M  V30 51126 H 5227.53 0.146686 0.65477 0
M  V30 51127 H 5230.08 1.04858 1.75571 0
M  V30 51128 H 5228.23 -0.261729 3.86515 0
M  V30 51129 H 5228.65 1.65183 4.9781 0
M  V30 51130 H 5230.12 0.0297415 5.51992 0
M  V30 51131 H 5230.6 -1.09771 4.25261 0
M  V30 51132 H 5231.2 0.574048 4.21408 0
M  V30 51133 N 5229.52 -1.48607 0.52475 0
M  V30 51134 C 5230.75 -2.06899 -0.00735672 0
M  V30 51135 C 5231.16 -1.382 -1.28632 0
M  V30 51136 O 5230.52 -0.467833 -1.76402 0
M  V30 51137 C 5230.57 -3.607 -0.240421 0
M  V30 51138 O 5230.29 -4.26817 0.987865 0
M  V30 51139 C 5231.79 -4.35772 -0.813499 0
M  V30 51140 H 5229.01 -0.670276 0.0311529 0
M  V30 51141 H 5231.55 -1.91069 0.7289 0
M  V30 51142 H 5229.71 -3.76153 -0.926713 0
M  V30 51143 H 5230.12 -5.18886 0.765358 0
M  V30 51144 H 5231.6 -5.44177 -0.926028 0
M  V30 51145 H 5232.07 -3.99846 -1.81714 0
M  V30 51146 H 5232.68 -4.24984 -0.163937 0
M  V30 51147 N 5231 -0.25964 -1.55447 0
M  V30 51148 C 5232.24 0.362073 -1.99542 0
M  V30 51149 C 5232.57 1.56656 -1.14772 0
M  V30 51150 O 5231.85 1.93318 -0.214093 0
M  V30 51151 C 5232.13 0.759464 -3.52 0
M  V30 51152 C 5231.99 -0.451291 -4.4753 0
M  V30 51153 C 5233.3 1.60172 -4.09918 0
M  V30 51154 H 5230.42 0.130131 -0.72542 0
M  V30 51155 H 5233.07 -0.363496 -1.8649 0
M  V30 51156 H 5231.22 1.37767 -3.63253 0
M  V30 51157 H 5232.89 -1.0898 -4.48242 0
M  V30 51158 H 5231.13 -1.09214 -4.19827 0
M  V30 51159 H 5231.8 -0.129712 -5.51848 0
M  V30 51160 H 5234.28 1.07976 -4.01846 0
M  V30 51161 H 5233.15 1.84861 -5.16834 0
M  V30 51162 H 5233.41 2.57774 -3.59173 0
M  V30 51163 N 5232.47 1.57594 0.0133061 0
M  V30 51164 C 5233.7 1.94254 0.712259 0
M  V30 51165 C 5234.12 0.860689 1.6804 0
M  V30 51166 O 5233.47 -0.161568 1.81783 0
M  V30 51167 C 5233.52 3.30896 1.45569 0
M  V30 51168 O 5233.25 4.34926 0.526386 0
M  V30 51169 C 5234.75 3.81934 2.25037 0
M  V30 51170 H 5231.97 0.640744 0.199219 0
M  V30 51171 H 5234.51 2.04472 -0.0338574 0
M  V30 51172 H 5232.67 3.22026 2.15355 0
M  V30 51173 H 5233.08 5.13894 1.04944 0
M  V30 51174 H 5234.55 4.80009 2.72572 0
M  V30 51175 H 5235.03 3.13945 3.0714 0
M  V30 51176 H 5235.64 3.93936 1.60294 0
M  V30 51177 N 5233.95 -0.28585 1.54986 0
M  V30 51178 C 5235.36 -0.857811 1.65827 0
M  V30 51179 C 5235.71 -1.87529 0.576829 0
M  V30 51180 O 5234.84 -2.14529 -0.28394 0
M  V30 51181 C 5235.43 -1.56266 3.0061 0
M  V30 51182 C 5233.99 -2.08283 3.13521 0
M  V30 51183 C 5233.14 -0.920541 2.61575 0
M  V30 51184 H 5236.09 -0.0624906 1.58577 0
M  V30 51185 H 5236.11 -2.42902 2.9288 0
M  V30 51186 H 5235.62 -0.821883 3.79298 0
M  V30 51187 H 5233.73 -2.85362 2.39582 0
M  V30 51188 H 5233.84 -2.30696 4.199 0
M  V30 51189 H 5232.2 -1.31035 2.18408 0
M  V30 51190 H 5232.99 -0.193473 3.42754 0
M  V30 51191 N 5235.43 -1.477 -0.549768 0
M  V30 51192 C 5236.66 -1.58335 -1.33183 0
M  V30 51193 C 5237.07 -0.236259 -1.87316 0
M  V30 51194 O 5236.43 0.771612 -1.65386 0
M  V30 51195 C 5236.48 -2.61447 -2.49655 0
M  V30 51196 O 5236.2 -3.90927 -1.97757 0
M  V30 51197 C 5237.7 -2.82336 -3.41762 0
M  V30 51198 H 5234.92 -0.534444 -0.405722 0
M  V30 51199 H 5237.47 -1.93377 -0.665241 0
M  V30 51200 H 5235.62 -2.29318 -3.12237 0
M  V30 51201 H 5236.04 -4.47333 -2.7385 0
M  V30 51202 H 5237.51 -3.58331 -4.19885 0
M  V30 51203 H 5237.99 -1.9043 -3.95769 0
M  V30 51204 H 5238.59 -3.15692 -2.84989 0
M  V30 51205 N 5236.91 0.797093 -1.35957 0
M  V30 51206 C 5238.32 1.37175 -1.26649 0
M  V30 51207 C 5238.67 1.9596 0.0970357 0
M  V30 51208 O 5237.8 1.91998 0.998288 0
M  V30 51209 C 5238.39 2.49387 -2.29329 0
M  V30 51210 C 5236.95 3.02689 -2.23733 0
M  V30 51211 C 5236.1 1.75714 -2.14523 0
M  V30 51212 H 5239.05 0.599356 -1.46947 0
M  V30 51213 H 5239.07 3.28198 -1.92527 0
M  V30 51214 H 5238.58 2.06572 -3.28557 0
M  V30 51215 H 5236.68 3.49943 -1.27947 0
M  V30 51216 H 5236.79 3.60025 -3.16099 0
M  V30 51217 H 5235.16 1.97643 -1.60653 0
M  V30 51218 H 5235.94 1.35038 -3.15626 0
M  V30 51219 N 5238.39 1.2011 1.02036 0
M  V30 51220 C 5239.61 1.03446 1.79183 0
M  V30 51221 C 5240.03 -0.416478 1.84149 0
M  V30 51222 O 5239.39 -1.28921 1.29173 0
M  V30 51223 C 5239.44 1.60675 3.2383 0
M  V30 51224 O 5239.16 3.0009 3.19182 0
M  V30 51225 C 5240.66 1.48912 4.17541 0
M  V30 51226 H 5237.88 0.364112 0.563616 0
M  V30 51227 H 5240.42 1.59114 1.28464 0
M  V30 51228 H 5238.58 1.09135 3.7171 0
M  V30 51229 H 5238.99 3.27176 4.09946 0
M  V30 51230 H 5240.47 1.93721 5.16891 0
M  V30 51231 H 5240.94 0.440997 4.3698 0
M  V30 51232 H 5241.55 1.99624 3.7554 0
M  V30 51233 N 5239.86 -1.21284 1.00638 0
M  V30 51234 C 5241.28 -1.72134 0.722975 0
M  V30 51235 C 5241.63 -1.80913 -0.759275 0
M  V30 51236 O 5240.75 -1.46463 -1.59303 0
M  V30 51237 C 5241.35 -3.12628 1.30572 0
M  V30 51238 C 5239.91 -3.6083 1.0714 0
M  V30 51239 C 5239.05 -2.38321 1.41769 0
M  V30 51240 H 5242 -1.06441 1.17711 0
M  V30 51241 H 5242.02 -3.74172 0.691069 0
M  V30 51242 H 5241.54 -3.06207 2.38452 0
M  V30 51243 H 5239.64 -3.72599 0.00981769 0
M  V30 51244 H 5239.75 -4.4622 1.74426 0
M  V30 51245 H 5238.11 -2.40572 0.836497 0
M  V30 51246 H 5238.9 -2.34549 2.50682 0
M  V30 51247 N 5241.34 -0.781292 -1.36871 0
M  V30 51248 C 5242.57 -0.361638 -2.03715 0
M  V30 51249 C 5242.99 1.01932 -1.58919 0
M  V30 51250 O 5242.34 1.65235 -0.774841 0
M  V30 51251 C 5242.39 -0.406517 -3.59207 0
M  V30 51252 O 5242.11 -1.733 -4.02366 0
M  V30 51253 C 5243.62 0.0235336 -4.43294 0
M  V30 51254 H 5240.84 -0.150156 -0.653983 0
M  V30 51255 H 5243.38 -1.05788 -1.75012 0
M  V30 51256 H 5241.53 0.241228 -3.86648 0
M  V30 51257 H 5241.95 -1.67821 -4.96927 0
M  V30 51258 H 5243.42 -0.0590145 -5.51968 0
M  V30 51259 H 5243.9 1.07514 -4.25837 0
M  V30 51260 H 5244.51 -0.596388 -4.21098 0
M  V30 51261 N 5242.82 1.48327 -0.532624 0
M  V30 51262 C 5244.07 2.021 0.000510158 0
M  V30 51263 C 5244.39 1.41175 1.34517 0
M  V30 51264 O 5243.66 0.57807 1.87177 0
M  V30 51265 H 5242.24 0.746993 0.00317655 0
M  V30 51266 H 5244.9 1.82009 -0.697055 0
M  V30 51267 H 5244 3.11917 0.106881 0
M  V30 51268 N 5244.3 0.26788 1.55307 0
M  V30 51269 C 5245.53 -0.354516 2.0384 0
M  V30 51270 C 5245.94 -1.50003 1.1465 0
M  V30 51271 O 5245.3 -1.81751 0.165119 0
M  V30 51272 C 5245.35 -0.842417 3.51547 0
M  V30 51273 O 5245.07 0.257471 4.37343 0
M  V30 51274 C 5246.57 -1.53337 4.15936 0
M  V30 51275 H 5243.79 -0.0817897 0.665997 0
M  V30 51276 H 5246.34 0.397865 2.00592 0
M  V30 51277 H 5244.49 -1.54491 3.55262 0
M  V30 51278 H 5244.9 -0.116409 5.24371 0
M  V30 51279 H 5246.38 -1.82625 5.20915 0
M  V30 51280 H 5246.86 -2.46247 3.63675 0
M  V30 51281 H 5247.46 -0.874913 4.16204 0
M  V30 51282 N 5245.78 -1.57599 -0.00494828 0
M  V30 51283 C 5246.71 -2.04952 -1.02602 0
M  V30 51284 C 5247.72 -0.966553 -1.31002 0
M  V30 51285 O 5248.91 -1.24344 -1.28065 0
M  V30 51286 C 5246.01 -2.43031 -2.36197 0
M  V30 51287 C 5245.18 -3.74001 -2.26808 0
M  V30 51288 C 5244.24 -3.99002 -3.43051 0
M  V30 51289 O 5243.27 -4.69736 -3.2146 0
M  V30 51290 N 5244.47 -3.46512 -4.65736 0
M  V30 51291 H 5247.24 -2.93169 -0.622233 0
M  V30 51292 H 5244.8 -1.60752 -0.192431 0
M  V30 51293 H 5246.79 -2.56874 -3.12726 0
M  V30 51294 H 5245.36 -1.60359 -2.68335 0
M  V30 51295 H 5244.58 -3.70282 -1.35222 0
M  V30 51296 H 5245.87 -4.59873 -2.17703 0
M  V30 51297 H 5245.26 -2.89223 -4.86176 0
M  V30 51298 H 5243.82 -3.65694 -5.39547 0
M  V30 51299 N 5247.25 0.277627 -1.55135 0
M  V30 51300 C 5248.48 1.02819 -1.79543 0
M  V30 51301 C 5248.9 1.80103 -0.566436 0
M  V30 51302 O 5248.25 1.76493 0.464386 0
M  V30 51303 C 5248.31 1.99042 -3.01769 0
M  V30 51304 O 5248.03 1.24891 -4.19921 0
M  V30 51305 C 5249.53 2.85949 -3.38745 0
M  V30 51306 H 5246.75 0.303937 -0.598217 0
M  V30 51307 H 5249.29 0.309813 -2.0214 0
M  V30 51308 H 5247.45 2.6635 -2.81312 0
M  V30 51309 H 5247.86 1.89708 -4.8899 0
M  V30 51310 H 5249.33 3.49271 -4.2745 0
M  V30 51311 H 5249.81 3.55477 -2.5794 0
M  V30 51312 H 5250.42 2.24139 -3.61444 0
M  V30 51313 N 5248.73 1.4799 0.541927 0
M  V30 51314 C 5250.14 1.49077 1.12397 0
M  V30 51315 C 5250.5 0.253893 1.9455 0
M  V30 51316 O 5249.62 -0.639983 2.0672 0
M  V30 51317 C 5250.22 2.70117 2.04505 0
M  V30 51318 C 5248.77 2.74114 2.5795 0
M  V30 51319 C 5247.92 2.42413 1.34651 0
M  V30 51320 H 5250.87 1.55278 0.327763 0
M  V30 51321 H 5250.89 2.47956 2.88614 0
M  V30 51322 H 5250.41 3.60122 1.44685 0
M  V30 51323 H 5248.51 1.88288 3.21525 0
M  V30 51324 H 5248.62 3.75223 2.979 0
M  V30 51325 H 5246.98 1.93316 1.65834 0
M  V30 51326 H 5247.77 3.34645 0.766015 0
M  V30 51327 N 5250.21 -0.789872 1.36377 0
M  V30 51328 C 5251.44 -1.57869 1.33735 0
M  V30 51329 C 5251.85 -1.88624 -0.0814881 0
M  V30 51330 O 5251.21 -1.50089 -1.03825 0
M  V30 51331 C 5251.26 -2.89995 2.15836 0
M  V30 51332 O 5250.98 -2.60566 3.52189 0
M  V30 51333 C 5252.48 -3.84301 2.20969 0
M  V30 51334 H 5249.7 -0.489669 0.458765 0
M  V30 51335 H 5252.25 -0.980373 1.79468 0
M  V30 51336 H 5250.4 -3.46297 1.73659 0
M  V30 51337 H 5250.82 -3.45046 3.95023 0
M  V30 51338 H 5252.29 -4.74071 2.82773 0
M  V30 51339 H 5252.77 -4.22117 1.21302 0
M  V30 51340 H 5253.37 -3.33933 2.6338 0
M  V30 51341 N 5251.69 -1.20649 -1.01398 0
M  V30 51342 C 5252.92 -1.04395 -1.78632 0
M  V30 51343 C 5253.33 0.406706 -1.84367 0
M  V30 51344 O 5252.69 1.28234 -1.29855 0
M  V30 51345 C 5252.74 -1.6239 -3.22973 0
M  V30 51346 O 5252.46 -3.01779 -3.17586 0
M  V30 51347 C 5253.96 -1.51124 -4.16745 0
M  V30 51348 H 5251.18 -0.367096 -0.561677 0
M  V30 51349 H 5253.73 -1.59793 -1.27618 0
M  V30 51350 H 5251.88 -1.11105 -3.71126 0
M  V30 51351 H 5252.3 -3.29346 -4.08205 0
M  V30 51352 H 5253.77 -1.96459 -5.15856 0
M  V30 51353 H 5254.25 -0.464165 -4.3674 0
M  V30 51354 H 5254.85 -2.01612 -3.74476 0
M  V30 51355 N 5253.17 1.20748 -1.0128 0
M  V30 51356 C 5254.4 1.94004 -0.719045 0
M  V30 51357 C 5254.81 1.74547 0.719649 0
M  V30 51358 O 5254.17 1.05702 1.48773 0
M  V30 51359 C 5254.22 3.46204 -1.04043 0
M  V30 51360 O 5253.94 3.65022 -2.42261 0
M  V30 51361 C 5255.44 4.36611 -0.767186 0
M  V30 51362 H 5252.66 0.616734 -0.264348 0
M  V30 51363 H 5255.2 1.53347 -1.35295 0
M  V30 51364 H 5253.36 3.84754 -0.451987 0
M  V30 51365 H 5253.77 4.59045 -2.53729 0
M  V30 51366 H 5255.25 5.42073 -1.04217 0
M  V30 51367 H 5255.72 4.38183 0.298697 0
M  V30 51368 H 5256.33 4.03718 -1.3376 0
M  V30 51369 N 5254.65 0.78854 1.36454 0
M  V30 51370 C 5256.06 0.423806 1.81826 0
M  V30 51371 C 5256.41 -1.05215 1.65603 0
M  V30 51372 O 5255.53 -1.81626 1.17648 0
M  V30 51373 C 5256.13 0.76247 3.30109 0
M  V30 51374 C 5254.69 0.450576 3.73693 0
M  V30 51375 C 5253.83 0.997573 2.58735 0
M  V30 51376 H 5256.78 0.981762 1.24688 0
M  V30 51377 H 5256.81 0.0532474 3.80463 0
M  V30 51378 H 5256.32 1.83675 3.41885 0
M  V30 51379 H 5254.42 -0.615699 3.67478 0
M  V30 51380 H 5254.53 0.970573 4.69166 0
M  V30 51381 H 5252.9 0.420849 2.51199 0
M  V30 51382 H 5253.68 2.07759 2.73297 0
M  V30 51383 N 5256.12 -1.48042 0.540482 0
M  V30 51384 C 5257.37 -2.01698 0.00817052 0
M  V30 51385 C 5257.69 -1.42188 -1.3432 0
M  V30 51386 O 5258.89 -1.87405 -1.96447 0
M  V30 51387 C 5257.35 -3.59882 -0.0358064 0
M  V30 51388 C 5256.96 -4.28379 1.3113 0
M  V30 51389 C 5258.7 -4.21347 -0.516392 0
M  V30 51390 C 5256.61 -5.78524 1.22734 0
M  V30 51391 H 5255.54 -0.754 -0.000715667 0
M  V30 51392 H 5258.19 -1.70202 0.685835 0
M  V30 51393 H 5256.57 -3.88267 -0.778769 0
M  V30 51394 H 5257.74 -4.11656 2.07066 0
M  V30 51395 H 5256.06 -3.78831 1.72847 0
M  V30 51396 H 5258.66 -5.31353 -0.597343 0
M  V30 51397 H 5259 -3.87378 -1.5246 0
M  V30 51398 H 5259.53 -3.97431 0.171203 0
M  V30 51399 H 5256.27 -6.17085 2.21102 0
M  V30 51400 H 5255.79 -5.97632 0.50952 0
M  V30 51401 H 5257.47 -6.40391 0.922386 0
M  V30 51402 N 5257.6 -0.276112 -1.55162 0
M  V30 51403 C 5258.83 0.343701 -2.04025 0
M  V30 51404 C 5259.24 1.49393 -1.15444 0
M  V30 51405 O 5258.6 1.81661 -0.174756 0
M  V30 51406 C 5258.65 0.823762 -3.51989 0
M  V30 51407 O 5258.37 -0.280661 -4.372 0
M  V30 51408 C 5259.87 1.51129 -4.16743 0
M  V30 51409 H 5257.09 0.0782566 -0.666421 0
M  V30 51410 H 5259.64 -0.408498 -2.00379 0
M  V30 51411 H 5257.79 1.52605 -3.56077 0
M  V30 51412 H 5258.21 0.0885987 -5.24425 0
M  V30 51413 H 5259.68 1.7986 -5.21876 0
M  V30 51414 H 5260.16 2.44315 -3.64975 0
M  V30 51415 H 5260.76 0.852829 -4.16662 0
M  V30 51416 N 5259.08 1.576 -0.00340966 0
M  V30 51417 C 5260.31 1.94998 0.691616 0
M  V30 51418 C 5260.72 0.878464 1.67118 0
M  V30 51419 O 5260.08 -0.142279 1.81945 0
M  V30 51420 C 5260.13 3.32421 1.42051 0
M  V30 51421 O 5259.85 4.3546 0.480227 0
M  V30 51422 C 5261.35 3.84299 2.20973 0
M  V30 51423 H 5258.57 0.642821 0.192412 0
M  V30 51424 H 5261.12 2.04425 -0.0555425 0
M  V30 51425 H 5259.27 3.24292 2.11927 0
M  V30 51426 H 5259.69 5.14978 0.994873 0
M  V30 51427 H 5261.16 4.82873 2.67466 0
M  V30 51428 H 5261.64 3.17185 3.03793 0
M  V30 51429 H 5262.24 3.95614 1.56107 0
M  V30 51430 N 5260.56 -0.269396 1.5528 0
M  V30 51431 C 5261.79 -1.01866 1.80086 0
M  V30 51432 C 5262.2 -1.798 0.57598 0
M  V30 51433 O 5261.56 -1.76737 -0.455019 0
M  V30 51434 C 5261.61 -1.97439 3.0282 0
M  V30 51435 O 5261.33 -1.22662 4.20578 0
M  V30 51436 C 5262.83 -2.84148 3.40257 0
M  V30 51437 H 5260.05 -0.30076 0.59982 0
M  V30 51438 H 5262.59 -0.299089 2.02301 0
M  V30 51439 H 5260.75 -2.64854 2.82721 0
M  V30 51440 H 5261.16 -1.87112 4.89989 0
M  V30 51441 H 5262.64 -3.46999 4.29296 0
M  V30 51442 H 5263.11 -3.54104 2.59822 0
M  V30 51443 H 5263.72 -2.22219 3.62628 0
M  V30 51444 N 5262.04 -1.48275 -0.534071 0
M  V30 51445 C 5263.26 -1.59739 -1.31496 0
M  V30 51446 C 5263.68 -0.256113 -1.87055 0
M  V30 51447 O 5263.04 0.754027 -1.66195 0
M  V30 51448 C 5263.09 -2.6408 -2.46868 0
M  V30 51449 O 5262.81 -3.93002 -1.936 0
M  V30 51450 C 5264.31 -2.85945 -3.38748 0
M  V30 51451 H 5261.53 -0.538717 -0.400031 0
M  V30 51452 H 5264.07 -1.94072 -0.644694 0
M  V30 51453 H 5262.23 -2.32617 -3.09787 0
M  V30 51454 H 5262.64 -4.50212 -2.6909 0
M  V30 51455 H 5264.12 -3.62764 -4.16061 0
M  V30 51456 H 5264.59 -1.94617 -3.93727 0
M  V30 51457 H 5265.2 -3.18696 -2.81625 0
M  V30 51458 N 5263.51 0.782628 -1.36794 0
M  V30 51459 C 5264.74 1.57157 -1.34571 0
M  V30 51460 C 5265.16 1.88665 0.0714837 0
M  V30 51461 O 5264.51 1.50637 1.03028 0
M  V30 51462 C 5264.57 2.88847 -2.1737 0
M  V30 51463 O 5264.29 2.58694 -3.53566 0
M  V30 51464 C 5265.79 3.83124 -2.23004 0
M  V30 51465 H 5263.01 0.487229 -0.461355 0
M  V30 51466 H 5265.55 0.970841 -1.79986 0
M  V30 51467 H 5263.71 3.45371 -1.75493 0
M  V30 51468 H 5264.12 3.42947 -3.96847 0
M  V30 51469 H 5265.59 4.72565 -2.85283 0
M  V30 51470 H 5266.07 4.21467 -1.23539 0
M  V30 51471 H 5266.68 3.32531 -2.65147 0
M  V30 51472 N 5264.99 1.21185 1.00757 0
M  V30 51473 C 5266.24 1.02904 1.74753 0
M  V30 51474 C 5266.57 -0.436707 1.89226 0
M  V30 51475 O 5265.85 -1.3241 1.42471 0
M  V30 51476 C 5266.13 1.72384 3.16158 0
M  V30 51477 C 5265.98 3.26461 3.09424 0
M  V30 51478 C 5267.3 1.4643 4.15026 0
M  V30 51479 H 5264.42 0.375236 0.634324 0
M  V30 51480 H 5267.06 1.49325 1.17482 0
M  V30 51481 H 5265.21 1.32918 3.65055 0
M  V30 51482 H 5266.88 3.75278 2.68261 0
M  V30 51483 H 5265.13 3.56897 2.4659 0
M  V30 51484 H 5265.8 3.7024 4.09422 0
M  V30 51485 H 5268.27 1.80684 3.74823 0
M  V30 51486 H 5267.15 1.97562 5.12114 0
M  V30 51487 H 5267.41 0.393765 4.40343 0
M  V30 51488 N 5266.47 -1.20209 1.01919 0
M  V30 51489 C 5267.7 -1.93619 0.729323 0
M  V30 51490 C 5268.11 -1.74926 -0.710383 0
M  V30 51491 O 5267.47 -1.0649 -1.4821 0
M  V30 51492 C 5267.52 -3.45648 1.05877 0
M  V30 51493 O 5267.24 -3.63732 2.44194 0
M  V30 51494 C 5268.74 -4.36198 0.79033 0
M  V30 51495 H 5265.96 -0.615323 0.267615 0
M  V30 51496 H 5268.51 -1.52628 1.36107 0
M  V30 51497 H 5266.66 -3.84509 0.472385 0
M  V30 51498 H 5267.08 -4.57693 2.56159 0
M  V30 51499 H 5268.55 -5.41512 1.0709 0
M  V30 51500 H 5269.03 -4.38335 -0.275455 0
M  V30 51501 H 5269.63 -4.03003 1.35899 0
M  V30 51502 N 5267.95 -0.795765 -1.36034 0
M  V30 51503 C 5269.36 -0.433443 -1.81599 0
M  V30 51504 C 5269.71 1.04335 -1.66158 0
M  V30 51505 O 5268.84 1.80999 -1.18609 0
M  V30 51506 C 5269.43 -0.779966 -3.297 0
M  V30 51507 C 5267.99 -0.470388 -3.73449 0
M  V30 51508 C 5267.14 -1.01128 -2.58202 0
M  V30 51509 H 5270.09 -0.98836 -1.24166 0
M  V30 51510 H 5270.11 -0.0734235 -3.80429 0
M  V30 51511 H 5269.62 -1.85485 -3.40906 0
M  V30 51512 H 5267.72 0.596203 -3.67799 0
M  V30 51513 H 5267.83 -0.995441 -4.68645 0
M  V30 51514 H 5266.2 -0.434165 -2.50972 0
M  V30 51515 H 5266.98 -2.09205 -2.72191 0
M  V30 51516 N 5269.43 1.47754 -0.548326 0
M  V30 51517 C 5270.65 2.06884 -0.02556 0
M  V30 51518 C 5271.07 1.40229 1.26417 0
M  V30 51519 O 5270.43 0.495837 1.75635 0
M  V30 51520 C 5270.48 3.61036 0.183007 0
M  V30 51521 O 5270.2 4.25191 -1.05564 0
M  V30 51522 C 5271.7 4.37011 0.744068 0
M  V30 51523 H 5268.92 0.669696 -0.0418125 0
M  V30 51524 H 5271.46 1.89885 -0.759205 0
M  V30 51525 H 5269.62 3.77579 0.866753 0
M  V30 51526 H 5270.03 5.17603 -0.847811 0
M  V30 51527 H 5271.51 5.45581 0.839337 0
M  V30 51528 H 5271.98 4.02686 1.75329 0
M  V30 51529 H 5272.59 4.25191 0.0963047 0
M  V30 51530 N 5270.9 0.284337 1.55014 0
M  V30 51531 C 5272.32 -0.211616 1.85497 0
M  V30 51532 C 5272.67 -1.54731 1.20635 0
M  V30 51533 O 5271.79 -2.10592 0.497992 0
M  V30 51534 C 5272.39 -0.390746 3.36539 0
M  V30 51535 C 5270.95 -0.830926 3.67114 0
M  V30 51536 C 5270.09 0.0704556 2.7721 0
M  V30 51537 H 5273.04 0.505856 1.50422 0
M  V30 51538 H 5273.06 -1.22791 3.60143 0
M  V30 51539 H 5272.58 0.581544 3.83718 0
M  V30 51540 H 5270.68 -1.81436 3.25441 0
M  V30 51541 H 5270.79 -0.661859 4.74506 0
M  V30 51542 H 5269.15 -0.44744 2.50739 0
M  V30 51543 H 5269.94 1.0388 3.27206 0
M  V30 51544 N 5272.38 -1.57596 0.0117675 0
M  V30 51545 C 5273.61 -1.95362 -0.681265 0
M  V30 51546 C 5274.03 -0.887314 -1.6665 0
M  V30 51547 O 5273.38 0.132628 -1.82017 0
M  V30 51548 C 5273.43 -3.3317 -1.40286 0
M  V30 51549 O 5273.15 -4.35709 -0.457127 0
M  V30 51550 C 5274.66 -3.85466 -2.18932 0
M  V30 51551 H 5271.88 -0.643832 -0.189 0
M  V30 51552 H 5274.42 -2.04392 0.0663829 0
M  V30 51553 H 5272.57 -3.25412 -2.10205 0
M  V30 51554 H 5272.99 -5.15499 -0.967549 0
M  V30 51555 H 5274.46 -4.84284 -2.64901 0
M  V30 51556 H 5274.94 -3.18791 -3.02107 0
M  V30 51557 H 5275.55 -3.96437 -1.54006 0
M  V30 51558 N 5273.86 0.261157 -1.55421 0
M  V30 51559 C 5275.27 0.831321 -1.6717 0
M  V30 51560 C 5275.62 1.86588 -0.60659 0
M  V30 51561 O 5274.75 2.14954 0.249775 0
M  V30 51562 C 5275.34 1.51464 -3.03058 0
M  V30 51563 C 5273.9 2.03269 -3.16795 0
M  V30 51564 C 5273.05 0.87881 -2.63006 0
M  V30 51565 H 5276 0.0372544 -1.58656 0
M  V30 51566 H 5276.02 2.38212 -2.96708 0
M  V30 51567 H 5275.53 0.761436 -3.80557 0
M  V30 51568 H 5273.63 2.81514 -2.44092 0
M  V30 51569 H 5273.75 2.23986 -4.23517 0
M  V30 51570 H 5272.11 1.27544 -2.20465 0
M  V30 51571 H 5272.89 0.138919 -3.43019 0
M  V30 51572 N 5275.34 1.48556 0.526201 0
M  V30 51573 C 5276.57 1.60434 1.30647 0
M  V30 51574 C 5276.98 0.266029 1.86916 0
M  V30 51575 O 5276.34 -0.745203 1.66592 0
M  V30 51576 C 5276.39 2.65386 2.45464 0
M  V30 51577 O 5276.11 3.94023 1.91513 0
M  V30 51578 C 5277.61 2.87738 3.37227 0
M  V30 51579 H 5274.83 0.540831 0.397168 0
M  V30 51580 H 5277.38 1.94411 0.634392 0
M  V30 51581 H 5275.53 2.34257 3.08549 0
M  V30 51582 H 5275.94 4.51633 2.66699 0
M  V30 51583 H 5277.42 3.64965 4.14131 0
M  V30 51584 H 5277.9 1.96702 3.92689 0
M  V30 51585 H 5278.5 3.20186 2.79931 0
M  V30 51586 N 5276.82 -0.775363 1.37207 0
M  V30 51587 C 5278.06 -1.53076 1.31955 0
M  V30 51588 C 5278.39 -1.9476 -0.0966179 0
M  V30 51589 O 5277.66 -1.66022 -1.03988 0
M  V30 51590 H 5276.24 -0.567745 0.485463 0
M  V30 51591 H 5278.9 -0.92303 1.71657 0
M  V30 51592 H 5277.99 -2.43184 1.95622 0
M  V30 51593 N 5278.3 -1.21718 -1.00112 0
M  V30 51594 C 5279.52 -1.06284 -1.77514 0
M  V30 51595 C 5279.94 0.387129 -1.84788 0
M  V30 51596 O 5279.3 1.2685 -1.31208 0
M  V30 51597 C 5279.35 -1.65806 -3.21233 0
M  V30 51598 O 5279.07 -3.0513 -3.14368 0
M  V30 51599 C 5280.57 -1.55536 -4.15119 0
M  V30 51600 H 5277.79 -0.373033 -0.557752 0
M  V30 51601 H 5280.33 -1.61138 -1.25916 0
M  V30 51602 H 5278.49 -1.15035 -3.69927 0
M  V30 51603 H 5278.9 -3.33657 -4.04689 0
M  V30 51604 H 5280.38 -2.0192 -5.13744 0
M  V30 51605 H 5280.85 -0.510461 -4.36223 0
M  V30 51606 H 5281.46 -2.05573 -3.72317 0
M  V30 51607 N 5279.77 1.19667 -1.02555 0
M  V30 51608 C 5280.71 2.22213 -0.561596 0
M  V30 51609 C 5281.72 1.58752 0.360765 0
M  V30 51610 O 5282.91 1.77802 0.157687 0
M  V30 51611 C 5280.01 3.38301 0.201375 0
M  V30 51612 C 5279.18 4.31348 -0.725104 0
M  V30 51613 C 5278.24 5.26199 -0.00812832 0
M  V30 51614 O 5277.27 5.65663 -0.633597 0
M  V30 51615 N 5278.47 5.66577 1.26374 0
M  V30 51616 H 5281.23 2.62645 -1.44353 0
M  V30 51617 H 5278.79 1.343 -0.904169 0
M  V30 51618 H 5280.79 3.98766 0.690485 0
M  V30 51619 H 5279.36 2.96686 0.984686 0
M  V30 51620 H 5278.58 3.68716 -1.39436 0
M  V30 51621 H 5279.86 4.90428 -1.3549 0
M  V30 51622 H 5279.26 5.36544 1.79268 0
M  V30 51623 H 5277.82 6.2931 1.69741 0
M  V30 51624 N 5281.25 0.802969 1.3561 0
M  V30 51625 C 5282.48 0.394002 2.03114 0
M  V30 51626 C 5282.89 -0.993904 1.60521 0
M  V30 51627 O 5282.25 -1.63981 0.801031 0
M  V30 51628 C 5282.3 0.463612 3.58515 0
M  V30 51629 O 5282.02 1.7968 3.99558 0
M  V30 51630 C 5283.52 0.0469936 4.43275 0
M  V30 51631 H 5280.74 0.160542 0.651512 0
M  V30 51632 H 5283.29 1.08558 1.73307 0
M  V30 51633 H 5281.44 -0.179685 3.86983 0
M  V30 51634 H 5281.86 1.75705 4.94194 0
M  V30 51635 H 5283.33 0.14682 5.51805 0
M  V30 51636 H 5283.81 -1.00726 4.27494 0
M  V30 51637 H 5284.41 0.663305 4.20096 0
M  V30 51638 N 5282.73 -1.47461 0.556154 0
M  V30 51639 C 5284.14 -1.86298 0.122494 0
M  V30 51640 C 5284.49 -1.46289 -1.30744 0
M  V30 51641 O 5283.62 -0.865475 -1.98339 0
M  V30 51642 C 5284.21 -3.38114 0.215526 0
M  V30 51643 C 5282.77 -3.76047 -0.163091 0
M  V30 51644 C 5281.92 -2.71513 0.563561 0
M  V30 51645 H 5284.87 -1.38993 0.765937 0
M  V30 51646 H 5284.89 -3.76265 -0.566139 0
M  V30 51647 H 5284.4 -3.67202 1.25635 0
M  V30 51648 H 5282.5 -3.52575 -1.20507 0
M  V30 51649 H 5282.62 -4.78704 0.194736 0
M  V30 51650 H 5280.98 -2.54699 0.00676833 0
M  V30 51651 H 5281.76 -3.03443 1.60552 0
M  V30 51652 N 5284.21 -0.292554 -1.54861 0
M  V30 51653 C 5285.44 0.322042 -2.04378 0
M  V30 51654 C 5285.85 1.4816 -1.17022 0
M  V30 51655 O 5285.21 1.81466 -0.194013 0
M  V30 51656 C 5285.26 0.786382 -3.52843 0
M  V30 51657 O 5284.98 -0.327016 -4.36878 0
M  V30 51658 C 5286.48 1.467 -4.18323 0
M  V30 51659 H 5283.7 0.0711839 -0.667213 0
M  V30 51660 H 5286.24 -0.429727 -1.99934 0
M  V30 51661 H 5284.4 1.48819 -3.57675 0
M  V30 51662 H 5284.81 0.0329714 -5.2449 0
M  V30 51663 H 5286.29 1.74315 -5.23754 0
M  V30 51664 H 5286.76 2.4043 -3.67546 0
M  V30 51665 H 5287.37 0.808588 -4.17543 0
M  V30 51666 N 5285.69 1.57587 -0.020125 0
M  V30 51667 C 5286.91 1.95721 0.670895 0
M  V30 51668 C 5287.33 0.896139 1.66177 0
M  V30 51669 O 5286.69 -0.122973 1.82085 0
M  V30 51670 C 5286.74 3.33909 1.38517 0
M  V30 51671 O 5286.46 4.35945 0.434013 0
M  V30 51672 C 5287.96 3.86621 2.16885 0
M  V30 51673 H 5285.18 0.644826 0.185583 0
M  V30 51674 H 5287.72 2.04354 -0.0772213 0
M  V30 51675 H 5285.88 3.26522 2.08476 0
M  V30 51676 H 5286.29 5.16004 0.940197 0
M  V30 51677 H 5287.77 4.85682 2.62329 0
M  V30 51678 H 5288.24 3.20389 3.00412 0
M  V30 51679 H 5288.85 3.97248 1.51902 0
M  V30 51680 N 5287.16 -0.252911 1.55557 0
M  V30 51681 C 5288.39 -0.999501 1.81156 0
M  V30 51682 C 5288.81 -1.79179 0.595017 0
M  V30 51683 O 5288.16 -1.77209 -0.436248 0
M  V30 51684 C 5288.21 -1.94216 3.04897 0
M  V30 51685 O 5287.94 -1.18194 4.21855 0
M  V30 51686 C 5289.44 -2.80524 3.43251 0
M  V30 51687 H 5286.66 -0.294381 0.602977 0
M  V30 51688 H 5289.2 -0.277615 2.02607 0
M  V30 51689 H 5287.36 -2.6184 2.85514 0
M  V30 51690 H 5287.77 -1.81905 4.91946 0
M  V30 51691 H 5289.24 -3.42427 4.32953 0
M  V30 51692 H 5289.72 -3.51328 2.63563 0
M  V30 51693 H 5290.33 -2.18361 3.64964 0
M  V30 51694 N 5288.64 -1.48833 -0.518315 0
M  V30 51695 C 5290.05 -1.50846 -1.10011 0
M  V30 51696 C 5290.4 -0.284812 -1.94122 0
M  V30 51697 O 5289.53 0.607014 -2.07712 0
M  V30 51698 C 5290.12 -2.73336 -2.00181 0
M  V30 51699 C 5288.68 -2.78183 -2.53557 0
M  V30 51700 C 5287.83 -2.44525 -1.30778 0
M  V30 51701 H 5290.78 -1.5578 -0.303018 0
M  V30 51702 H 5290.8 -2.52516 -2.84633 0
M  V30 51703 H 5290.31 -3.62378 -1.38937 0
M  V30 51704 H 5288.41 -1.93379 -3.18489 0
M  V30 51705 H 5288.53 -3.79915 -2.91893 0
M  V30 51706 H 5286.89 -1.9593 -1.62738 0
M  V30 51707 H 5287.67 -3.35821 -0.712679 0
M  V30 51708 N 5290.12 0.768075 -1.37617 0
M  V30 51709 C 5291.37 1.52205 -1.3235 0
M  V30 51710 C 5291.68 1.954 0.0885075 0
M  V30 51711 O 5292.89 2.70217 0.263657 0
M  V30 51712 C 5291.34 2.74864 -2.32331 0
M  V30 51713 C 5290.95 2.38753 -3.79079 0
M  V30 51714 C 5292.7 3.52797 -2.36082 0
M  V30 51715 C 5290.6 3.57936 -4.70782 0
M  V30 51716 H 5289.53 0.571443 -0.491903 0
M  V30 51717 H 5292.18 0.840947 -1.63096 0
M  V30 51718 H 5290.57 3.44882 -1.94608 0
M  V30 51719 H 5291.74 1.76495 -4.2566 0
M  V30 51720 H 5290.05 1.73986 -3.78309 0
M  V30 51721 H 5292.65 4.41387 -3.01798 0
M  V30 51722 H 5292.99 3.9292 -1.37549 0
M  V30 51723 H 5293.53 2.89779 -2.72531 0
M  V30 51724 H 5290.27 3.22891 -5.70457 0
M  V30 51725 H 5289.79 4.19287 -4.28904 0
M  V30 51726 H 5291.47 4.24703 -4.88095 0
M  V30 51727 N 5291.6 1.22247 0.994655 0
M  V30 51728 C 5292.83 1.07224 1.76948 0
M  V30 51729 C 5293.24 -0.377323 1.84991 0
M  V30 51730 O 5292.6 -1.26152 1.31879 0
M  V30 51731 C 5292.65 1.67507 3.20349 0
M  V30 51732 O 5292.37 3.06793 3.12745 0
M  V30 51733 C 5293.87 1.57735 4.14288 0
M  V30 51734 H 5291.09 0.375986 0.555766 0
M  V30 51735 H 5293.63 1.61803 1.2506 0
M  V30 51736 H 5291.79 1.16995 3.69311 0
M  V30 51737 H 5292.2 3.35798 4.02914 0
M  V30 51738 H 5293.68 2.04641 5.12666 0
M  V30 51739 H 5294.15 0.533588 4.35947 0
M  V30 51740 H 5294.76 2.07544 3.71221 0
M  V30 51741 N 5293.08 -1.19122 1.03188 0
M  V30 51742 C 5294.3 -1.92835 0.749818 0
M  V30 51743 C 5294.72 -1.75669 -0.69179 0
M  V30 51744 O 5294.08 -1.08056 -1.47072 0
M  V30 51745 C 5294.13 -3.44505 1.09538 0
M  V30 51746 O 5293.85 -3.61122 2.48038 0
M  V30 51747 C 5295.35 -4.35335 0.83655 0
M  V30 51748 H 5292.57 -0.61245 0.274127 0
M  V30 51749 H 5295.11 -1.51176 1.37718 0
M  V30 51750 H 5293.27 -3.83986 0.513141 0
M  V30 51751 H 5293.68 -4.5495 2.61 0
M  V30 51752 H 5295.16 -5.40346 1.12827 0
M  V30 51753 H 5295.63 -4.38603 -0.228948 0
M  V30 51754 H 5296.24 -4.01539 1.40166 0
M  V30 51755 N 5294.55 -0.810149 -1.35183 0
M  V30 51756 C 5295.78 -0.404768 -2.02902 0
M  V30 51757 C 5296.2 0.985378 -1.61046 0
M  V30 51758 O 5295.55 1.63554 -0.809716 0
M  V30 51759 C 5295.61 -0.482619 -3.58264 0
M  V30 51760 O 5295.33 -1.81796 -3.986 0
M  V30 51761 C 5296.83 -0.0705009 -4.43244 0
M  V30 51762 H 5294.05 -0.163995 -0.650651 0
M  V30 51763 H 5296.59 -1.09476 -1.72729 0
M  V30 51764 H 5294.75 0.15916 -3.87073 0
M  V30 51765 H 5295.16 -1.78324 -4.93255 0
M  V30 51766 H 5296.63 -0.176082 -5.51719 0
M  V30 51767 H 5297.11 0.984573 -4.28022 0
M  V30 51768 H 5297.72 -0.685575 -4.19738 0
M  V30 51769 N 5296.03 1.47164 -0.563966 0
M  V30 51770 C 5297.26 2.06845 -0.0475014 0
M  V30 51771 C 5297.68 1.41562 1.24923 0
M  V30 51772 O 5297.03 0.514438 1.75099 0
M  V30 51773 C 5297.08 3.6121 0.144704 0
M  V30 51774 O 5296.8 4.24048 -1.10068 0
M  V30 51775 C 5298.31 4.37775 0.697676 0
M  V30 51776 H 5295.53 0.669215 -0.0489132 0
M  V30 51777 H 5298.07 1.89069 -0.779302 0
M  V30 51778 H 5296.22 3.78477 0.826657 0
M  V30 51779 H 5296.64 5.16674 -0.902662 0
M  V30 51780 H 5298.11 5.46441 0.781423 0
M  V30 51781 H 5298.59 4.04523 1.71048 0
M  V30 51782 H 5299.2 4.25269 0.0512021 0
M  V30 51783 N 5297.51 0.300763 1.54704 0
M  V30 51784 C 5298.74 -0.311198 2.04546 0
M  V30 51785 C 5299.15 -1.47537 1.17806 0
M  V30 51786 O 5298.51 -1.8136 0.203634 0
M  V30 51787 C 5298.56 -0.767659 3.53255 0
M  V30 51788 O 5298.28 0.35018 4.36698 0
M  V30 51789 C 5299.78 -1.4448 4.19095 0
M  V30 51790 H 5297 -0.0676445 0.667582 0
M  V30 51791 H 5299.55 0.440324 1.99703 0
M  V30 51792 H 5297.7 -1.46921 3.58459 0
M  V30 51793 H 5298.12 -0.00515599 5.245 0
M  V30 51794 H 5299.59 -1.71535 5.24671 0
M  V30 51795 H 5300.07 -2.38477 3.68816 0
M  V30 51796 H 5300.67 -0.786434 4.17966 0
M  V30 51797 N 5298.99 -1.57574 0.028482 0
M  V30 51798 C 5300.23 -1.92058 -0.65126 0
M  V30 51799 C 5300.57 -0.905153 -1.71816 0
M  V30 51800 O 5299.84 0.072202 -1.94366 0
M  V30 51801 C 5300.13 -3.37026 -1.26829 0
M  V30 51802 C 5299.98 -4.49305 -0.210999 0
M  V30 51803 C 5301.3 -3.81943 -2.18649 0
M  V30 51804 H 5298.42 -0.698436 -0.235279 0
M  V30 51805 H 5301.06 -1.89807 0.0856103 0
M  V30 51806 H 5299.21 -3.39075 -1.89632 0
M  V30 51807 H 5300.88 -4.59388 0.419541 0
M  V30 51808 H 5299.12 -4.31316 0.463597 0
M  V30 51809 H 5299.79 -5.47767 -0.682326 0
M  V30 51810 H 5302.27 -3.81626 -1.65833 0
M  V30 51811 H 5301.15 -4.84073 -2.58775 0
M  V30 51812 H 5301.41 -3.17411 -3.07738 0
M  V30 51813 N 5300.47 0.244658 -1.55689 0
M  V30 51814 C 5301.69 0.98988 -1.81684 0
M  V30 51815 C 5302.11 1.78861 -0.604511 0
M  V30 51816 O 5301.47 1.77438 0.426844 0
M  V30 51817 C 5301.52 1.92596 -3.05923 0
M  V30 51818 O 5301.24 1.15956 -4.22476 0
M  V30 51819 C 5302.74 2.78699 -3.44734 0
M  V30 51820 H 5299.96 0.291179 -0.604529 0
M  V30 51821 H 5302.5 0.266867 -2.02751 0
M  V30 51822 H 5300.66 2.60323 -2.86899 0
M  V30 51823 H 5301.07 1.79293 -4.92904 0
M  V30 51824 H 5302.55 3.40126 -4.34763 0
M  V30 51825 H 5303.02 3.49925 -2.65422 0
M  V30 51826 H 5303.63 2.16422 -3.66117 0
M  V30 51827 N 5301.94 1.49106 0.510415 0
M  V30 51828 C 5303.36 1.51427 1.0921 0
M  V30 51829 C 5303.71 0.295103 1.93968 0
M  V30 51830 O 5302.83 -0.59599 2.08031 0
M  V30 51831 C 5303.43 2.74394 1.98729 0
M  V30 51832 C 5301.99 2.79524 2.52078 0
M  V30 51833 C 5301.13 2.45215 1.29479 0
M  V30 51834 H 5304.08 1.55939 0.294752 0
M  V30 51835 H 5304.1 2.54022 2.83289 0
M  V30 51836 H 5303.62 3.6311 1.37013 0
M  V30 51837 H 5301.72 1.95065 3.17459 0
M  V30 51838 H 5301.83 3.81458 2.89874 0
M  V30 51839 H 5300.19 1.9679 1.61696 0
M  V30 51840 H 5300.98 3.36194 0.694859 0
M  V30 51841 N 5303.42 -0.760766 1.38022 0
M  V30 51842 C 5304.65 -1.54996 1.37054 0
M  V30 51843 C 5305.07 -1.88754 -0.0414598 0
M  V30 51844 O 5304.42 -1.52257 -1.00618 0
M  V30 51845 C 5304.47 -2.85352 2.21938 0
M  V30 51846 O 5304.19 -2.53037 3.57637 0
M  V30 51847 C 5305.7 -3.79528 2.29071 0
M  V30 51848 H 5302.92 -0.479828 0.469048 0
M  V30 51849 H 5305.46 -0.942084 1.81508 0
M  V30 51850 H 5303.61 -3.42535 1.80965 0
M  V30 51851 H 5304.03 -3.3659 4.02253 0
M  V30 51852 H 5305.5 -4.67967 2.92765 0
M  V30 51853 H 5305.98 -4.19449 1.30228 0
M  V30 51854 H 5306.59 -3.28271 2.70404 0
M  V30 51855 N 5304.9 -1.22773 -0.988158 0
M  V30 51856 C 5306.31 -1.05125 -1.54291 0
M  V30 51857 C 5306.66 0.383836 -1.92409 0
M  V30 51858 O 5305.79 1.26949 -1.75251 0
M  V30 51859 C 5306.38 -1.90207 -2.80369 0
M  V30 51860 C 5304.94 -1.76843 -3.3227 0
M  V30 51861 C 5304.09 -1.86384 -2.0532 0
M  V30 51862 H 5307.04 -1.36549 -0.80871 0
M  V30 51863 H 5307.06 -1.42228 -3.52918 0
M  V30 51864 H 5306.57 -2.94649 -2.52594 0
M  V30 51865 H 5304.67 -0.75154 -3.64942 0
M  V30 51866 H 5304.79 -2.59785 -4.02553 0
M  V30 51867 H 5303.15 -1.29877 -2.19098 0
M  V30 51868 H 5303.93 -2.92366 -1.79936 0
M  V30 51869 N 5306.38 1.18573 -1.03818 0
M  V30 51870 C 5307.61 1.92435 -0.760034 0
M  V30 51871 C 5308.02 1.76034 0.682464 0
M  V30 51872 O 5307.38 1.08834 1.46497 0
M  V30 51873 C 5307.43 3.43919 -1.11363 0
M  V30 51874 O 5307.15 3.59801 -2.49949 0
M  V30 51875 C 5308.65 4.34885 -0.859625 0
M  V30 51876 H 5305.87 0.610988 -0.277371 0
M  V30 51877 H 5308.42 1.50443 -1.38518 0
M  V30 51878 H 5306.57 3.83709 -0.533497 0
M  V30 51879 H 5306.98 4.53559 -2.63409 0
M  V30 51880 H 5308.46 5.3974 -1.15691 0
M  V30 51881 H 5308.94 4.38718 0.205684 0
M  V30 51882 H 5309.54 4.0079 -1.42294 0
M  V30 51883 N 5307.86 0.817307 1.34751 0
M  V30 51884 C 5309.27 0.462279 1.80886 0
M  V30 51885 C 5309.62 -1.01679 1.67797 0
M  V30 51886 O 5308.74 -1.79089 1.21474 0
M  V30 51887 C 5309.34 0.832319 3.28417 0
M  V30 51888 C 5307.9 0.529741 3.72654 0
M  V30 51889 C 5307.05 1.05223 2.56561 0
M  V30 51890 H 5310 1.00799 1.22578 0
M  V30 51891 H 5310.02 0.133937 3.80264 0
M  V30 51892 H 5309.53 1.90885 3.37912 0
M  V30 51893 H 5307.63 -0.537613 3.68701 0
M  V30 51894 H 5307.74 1.06987 4.67002 0
M  V30 51895 H 5306.11 0.474037 2.5025 0
M  V30 51896 H 5306.89 2.13509 2.68828 0
M  V30 51897 N 5309.34 -1.46863 0.571763 0
M  V30 51898 C 5310.56 -2.06817 0.0584702 0
M  V30 51899 C 5310.98 -1.42222 -1.2417 0
M  V30 51900 O 5310.34 -0.523717 -1.74824 0
M  V30 51901 C 5310.39 -3.61282 -0.125546 0
M  V30 51902 O 5310.11 -4.23458 1.12315 0
M  V30 51903 C 5311.61 -4.38139 -0.67445 0
M  V30 51904 H 5308.83 -0.668946 0.0524615 0
M  V30 51905 H 5311.37 -1.88653 0.789318 0
M  V30 51906 H 5309.53 -3.7891 -0.806574 0
M  V30 51907 H 5309.94 -5.16188 0.93005 0
M  V30 51908 H 5311.42 -5.46848 -0.752433 0
M  V30 51909 H 5311.89 -4.05425 -1.68901 0
M  V30 51910 H 5312.5 -4.2529 -0.0286484 0
M  V30 51911 N 5310.81 -0.308963 -1.54542 0
M  V30 51912 C 5312.06 0.297377 -1.999 0
M  V30 51913 C 5312.38 1.53795 -1.19884 0
M  V30 51914 O 5311.65 1.93638 -0.296848 0
M  V30 51915 H 5310.23 0.112871 -0.738423 0
M  V30 51916 H 5312.89 -0.422134 -1.90274 0
M  V30 51917 H 5311.99 0.563908 -3.06963 0
M  V30 51918 N 5312.29 1.57557 -0.0368381 0
M  V30 51919 C 5313.52 1.96421 0.650099 0
M  V30 51920 C 5313.93 0.913714 1.65217 0
M  V30 51921 O 5313.29 -0.103654 1.82205 0
M  V30 51922 C 5313.34 3.35359 1.34968 0
M  V30 51923 O 5313.06 4.36381 0.387751 0
M  V30 51924 C 5314.56 3.889 2.12772 0
M  V30 51925 H 5311.78 0.646758 0.178733 0
M  V30 51926 H 5314.33 2.04261 -0.0988915 0
M  V30 51927 H 5312.48 3.28715 2.05001 0
M  V30 51928 H 5312.9 5.16973 0.885415 0
M  V30 51929 H 5314.37 4.88437 2.57163 0
M  V30 51930 H 5314.85 3.23557 2.96997 0
M  V30 51931 H 5315.45 3.98837 1.4768 0
M  V30 51932 N 5313.77 -0.236398 1.55817 0
M  V30 51933 C 5314.7 -1.31595 1.87657 0
M  V30 51934 C 5315.71 -1.43779 0.763634 0
M  V30 51935 O 5316.9 -1.44942 1.04183 0
M  V30 51936 C 5314 -2.69335 2.05699 0
M  V30 51937 C 5313.18 -2.79286 3.36627 0
M  V30 51938 C 5312.24 -3.9794 3.44282 0
M  V30 51939 O 5311.26 -3.86974 4.1742 0
M  V30 51940 N 5312.46 -5.11584 2.74339 0
M  V30 51941 H 5315.23 -1.04613 2.80849 0
M  V30 51942 H 5312.79 -0.426479 1.56182 0
M  V30 51943 H 5314.78 -3.47067 2.0815 0
M  V30 51944 H 5313.35 -2.8898 1.19202 0
M  V30 51945 H 5312.57 -1.88147 3.46402 0
M  V30 51946 H 5313.86 -2.82893 4.22905 0
M  V30 51947 H 5313.26 -5.23387 2.14669 0
M  V30 51948 H 5311.81 -5.87413 2.82471 0
M  V30 51949 N 5315.25 -1.49374 -0.5025 0
M  V30 51950 C 5316.48 -1.62492 -1.28078 0
M  V30 51951 C 5316.89 -0.295732 -1.86469 0
M  V30 51952 O 5316.25 0.718605 -1.67757 0
M  V30 51953 C 5316.3 -2.69257 -2.41211 0
M  V30 51954 O 5316.02 -3.9702 -1.8522 0
M  V30 51955 C 5317.52 -2.93066 -3.32607 0
M  V30 51956 H 5314.74 -0.547081 -0.388514 0
M  V30 51957 H 5317.28 -1.95396 -0.603383 0
M  V30 51958 H 5315.44 -2.39136 -3.04783 0
M  V30 51959 H 5315.85 -4.55818 -2.5948 0
M  V30 51960 H 5317.33 -3.71508 -4.08272 0
M  V30 51961 H 5317.8 -2.02925 -3.8951 0
M  V30 51962 H 5318.41 -3.24598 -2.74802 0
M  V30 51963 N 5316.73 0.753436 -1.38424 0
M  V30 51964 C 5318.14 1.33076 -1.30949 0
M  V30 51965 C 5318.49 1.96169 0.0346434 0
M  V30 51966 O 5317.61 1.95077 0.9367 0
M  V30 51967 C 5318.21 2.41965 -2.37147 0
M  V30 51968 C 5316.77 2.95418 -2.3325 0
M  V30 51969 C 5315.91 1.688 -2.20004 0
M  V30 51970 H 5318.86 0.552302 -1.48779 0
M  V30 51971 H 5318.89 3.21906 -2.02871 0
M  V30 51972 H 5318.4 1.96015 -3.34962 0
M  V30 51973 H 5316.5 3.45696 -1.39015 0
M  V30 51974 H 5316.61 3.49786 -3.27393 0
M  V30 51975 H 5314.98 1.92432 -1.66859 0
M  V30 51976 H 5315.76 1.24928 -3.19762 0
M  V30 51977 N 5318.2 1.23295 0.981634 0
M  V30 51978 C 5319.43 1.09095 1.75801 0
M  V30 51979 C 5319.85 -0.357681 1.85381 0
M  V30 51980 O 5319.2 -1.24746 1.33209 0
M  V30 51981 C 5319.25 1.70896 3.18554 0
M  V30 51982 O 5318.98 3.10093 3.09474 0
M  V30 51983 C 5320.48 1.6212 4.12592 0
M  V30 51984 H 5317.7 0.381859 0.551747 0
M  V30 51985 H 5320.24 1.63121 1.23337 0
M  V30 51986 H 5318.4 1.20906 3.6805 0
M  V30 51987 H 5318.81 3.40053 3.9933 0
M  V30 51988 H 5320.28 2.10067 5.10466 0
M  V30 51989 H 5320.76 0.579796 4.35356 0
M  V30 51990 H 5321.37 2.1147 3.68999 0
M  V30 51991 N 5319.68 -1.1802 1.04446 0
M  V30 51992 C 5320.91 -1.92029 0.770228 0
M  V30 51993 C 5321.32 -1.76393 -0.673119 0
M  V30 51994 O 5320.68 -1.09609 -1.45918 0
M  V30 51995 C 5320.73 -3.43324 1.13185 0
M  V30 51996 O 5320.45 -3.58471 2.51854 0
M  V30 51997 C 5321.95 -4.34423 0.882676 0
M  V30 51998 H 5319.17 -0.609509 0.280607 0
M  V30 51999 H 5321.72 -1.49706 1.39313 0
M  V30 52000 H 5319.87 -3.83421 0.553839 0
M  V30 52001 H 5320.29 -4.52156 2.6581 0
M  V30 52002 H 5321.76 -5.39119 1.18552 0
M  V30 52003 H 5322.24 -4.38821 -0.182415 0
M  V30 52004 H 5322.84 -4.0003 1.44417 0
M  V30 52005 N 5321.16 -0.824441 -1.34316 0
M  V30 52006 C 5322.39 -0.426265 -2.02461 0
M  V30 52007 C 5322.8 0.968241 -1.62082 0
M  V30 52008 O 5322.16 1.62686 -0.827017 0
M  V30 52009 C 5322.21 -0.52059 -3.57732 0
M  V30 52010 O 5321.93 -1.86014 -3.96649 0
M  V30 52011 C 5323.43 -0.117509 -4.43144 0
M  V30 52012 H 5320.65 -0.170886 -0.648875 0
M  V30 52013 H 5323.2 -1.11302 -1.71558 0
M  V30 52014 H 5321.35 0.118097 -3.8722 0
M  V30 52015 H 5321.77 -1.83545 -4.91336 0
M  V30 52016 H 5323.24 -0.234589 -5.51501 0
M  V30 52017 H 5323.72 0.939121 -4.29042 0
M  V30 52018 H 5324.32 -0.730055 -4.18987 0
M  V30 52019 N 5322.64 1.46557 -0.579543 0
M  V30 52020 C 5324.05 1.86079 -0.152117 0
M  V30 52021 C 5324.4 1.48351 1.284 0
M  V30 52022 O 5323.53 0.896919 1.96937 0
M  V30 52023 C 5324.12 3.37728 -0.269289 0
M  V30 52024 C 5322.68 3.76258 0.103244 0
M  V30 52025 C 5321.83 2.70582 -0.606686 0
M  V30 52026 H 5324.78 1.37757 -0.787953 0
M  V30 52027 H 5324.8 3.77118 0.506207 0
M  V30 52028 H 5324.31 3.65157 -1.31461 0
M  V30 52029 H 5322.41 3.54447 1.14882 0
M  V30 52030 H 5322.52 4.78334 -0.270869 0
M  V30 52031 H 5320.89 2.54656 -0.0472879 0
M  V30 52032 H 5321.67 3.00851 -1.6536 0
M  V30 52033 N 5324.12 0.317154 1.54376 0
M  V30 52034 C 5325.37 -0.288201 1.9963 0
M  V30 52035 C 5325.68 -1.53749 1.20915 0
M  V30 52036 O 5326.88 -2.21845 1.56516 0
M  V30 52037 C 5325.34 -0.564063 3.55452 0
M  V30 52038 C 5324.95 0.667815 4.42995 0
M  V30 52039 C 5326.69 -1.12972 4.09191 0
M  V30 52040 C 5324.6 0.364211 5.90277 0
M  V30 52041 H 5323.53 -0.111466 0.745715 0
M  V30 52042 H 5326.18 0.428379 1.7843 0
M  V30 52043 H 5324.56 -1.34066 3.72615 0
M  V30 52044 H 5325.74 1.4435 4.37607 0
M  V30 52045 H 5324.05 1.15324 4.00112 0
M  V30 52046 H 5326.65 -1.37139 5.16814 0
M  V30 52047 H 5326.99 -2.07709 3.60781 0
M  V30 52048 H 5327.52 -0.414456 3.95635 0
M  V30 52049 H 5324.26 1.28058 6.4287 0
M  V30 52050 H 5323.78 -0.373892 5.98634 0
M  V30 52051 H 5325.46 -0.0283158 6.46994 0
M  V30 52052 N 5325.59 -1.57535 0.0451932 0
M  V30 52053 C 5326.82 -1.96763 -0.639673 0
M  V30 52054 C 5327.24 -0.922463 -1.6473 0
M  V30 52055 O 5326.59 0.0939894 -1.82258 0
M  V30 52056 C 5326.65 -3.3607 -1.33188 0
M  V30 52057 O 5326.37 -4.3658 -0.364603 0
M  V30 52058 C 5327.87 -3.90023 -2.10706 0
M  V30 52059 H 5325.09 -0.647696 -0.175301 0
M  V30 52060 H 5327.63 -2.04205 0.109723 0
M  V30 52061 H 5325.79 -3.29797 -2.03255 0
M  V30 52062 H 5326.2 -5.17435 -0.857986 0
M  V30 52063 H 5327.67 -4.89794 -2.54569 0
M  V30 52064 H 5328.15 -3.25128 -2.95277 0
M  V30 52065 H 5328.76 -3.99614 -1.45563 0
M  V30 52066 N 5327.07 0.228132 -1.5594 0
M  V30 52067 C 5328.3 0.970554 -1.82723 0
M  V30 52068 C 5328.72 1.78209 -0.623448 0
M  V30 52069 O 5328.07 1.77881 0.408001 0
M  V30 52070 C 5328.12 1.89341 -3.07949 0
M  V30 52071 O 5327.84 1.11468 -4.23682 0
M  V30 52072 C 5329.35 2.75027 -3.47671 0
M  V30 52073 H 5326.57 0.284751 -0.607584 0
M  V30 52074 H 5329.11 0.245347 -2.03023 0
M  V30 52075 H 5327.26 2.57265 -2.89644 0
M  V30 52076 H 5327.68 1.74055 -4.94778 0
M  V30 52077 H 5329.15 3.35495 -4.38346 0
M  V30 52078 H 5329.63 3.4709 -2.69119 0
M  V30 52079 H 5330.24 2.12527 -3.68392 0
M  V30 52080 N 5328.55 1.49639 0.494571 0
M  V30 52081 C 5329.78 1.63169 1.27214 0
M  V30 52082 C 5330.19 0.305617 1.8631 0
M  V30 52083 O 5329.55 -0.709699 1.68135 0
M  V30 52084 C 5329.6 2.70533 2.3978 0
M  V30 52085 O 5329.32 3.97997 1.83112 0
M  V30 52086 C 5330.82 2.94826 3.31048 0
M  V30 52087 H 5328.04 0.549134 0.385607 0
M  V30 52088 H 5330.59 1.95713 0.593012 0
M  V30 52089 H 5328.74 2.40749 3.03511 0
M  V30 52090 H 5329.16 4.57188 2.57059 0
M  V30 52091 H 5330.63 3.73667 4.06296 0
M  V30 52092 H 5331.11 2.04987 3.88429 0
M  V30 52093 H 5331.71 3.26051 2.73076 0
M  V30 52094 N 5330.03 -0.746085 1.38821 0
M  V30 52095 C 5331.26 -1.53534 1.3869 0
M  V30 52096 C 5331.67 -1.88788 -0.0214375 0
M  V30 52097 O 5331.03 -1.53316 -0.989978 0
M  V30 52098 C 5331.08 -2.82982 2.24952 0
M  V30 52099 O 5330.8 -2.49229 3.603 0
M  V30 52100 C 5332.3 -3.77077 2.33083 0
M  V30 52101 H 5329.52 -0.474826 0.474111 0
M  V30 52102 H 5332.07 -0.92278 1.82497 0
M  V30 52103 H 5330.22 -3.40597 1.84588 0
M  V30 52104 H 5330.63 -3.32304 4.05801 0
M  V30 52105 H 5332.11 -4.64835 2.97712 0
M  V30 52106 H 5332.59 -4.18044 1.3467 0
M  V30 52107 H 5333.19 -3.25385 2.7387 0
M  V30 52108 N 5331.51 -1.23814 -0.975081 0
M  V30 52109 C 5332.73 -1.10025 -1.7522 0
M  V30 52110 C 5333.15 0.347845 -1.85568 0
M  V30 52111 O 5332.51 1.24038 -1.33869 0
M  V30 52112 C 5332.56 -1.72583 -3.17644 0
M  V30 52113 O 5332.28 -3.1173 -3.07825 0
M  V30 52114 C 5333.78 -1.64306 -4.11726 0
M  V30 52115 H 5331 -0.38478 -0.549714 0
M  V30 52116 H 5333.54 -1.63772 -1.2247 0
M  V30 52117 H 5331.7 -1.22856 -3.67403 0
M  V30 52118 H 5332.11 -3.42166 -3.97521 0
M  V30 52119 H 5333.59 -2.12771 -5.09345 0
M  V30 52120 H 5334.06 -0.602875 -4.35043 0
M  V30 52121 H 5334.67 -2.13424 -3.67873 0
M  V30 52122 N 5332.98 1.17465 -1.0507 0
M  V30 52123 C 5334.23 1.87973 -0.761179 0
M  V30 52124 C 5334.56 1.80758 0.709932 0
M  V30 52125 O 5333.84 1.21475 1.51902 0
M  V30 52126 C 5334.12 3.38051 -1.24072 0
M  V30 52127 C 5333.97 3.54022 -2.77467 0
M  V30 52128 C 5335.29 4.32033 -0.838764 0
M  V30 52129 H 5332.41 0.682563 -0.277987 0
M  V30 52130 H 5335.05 1.38143 -1.30448 0
M  V30 52131 H 5333.2 3.8062 -0.778522 0
M  V30 52132 H 5334.88 3.20477 -3.31801 0
M  V30 52133 H 5333.12 2.96341 -3.16803 0
M  V30 52134 H 5333.79 4.59367 -3.06082 0
M  V30 52135 H 5336.27 3.97299 -1.23665 0
M  V30 52136 H 5335.14 5.35579 -1.20192 0
M  V30 52137 H 5335.4 4.4135 0.257343 0
M  V30 52138 N 5334.46 0.831553 1.33877 0
M  V30 52139 C 5335.69 0.436996 2.02232 0
M  V30 52140 C 5336.11 -0.959632 1.62593 0
M  V30 52141 O 5335.46 -1.62245 0.835633 0
M  V30 52142 C 5335.51 0.539554 3.57451 0
M  V30 52143 O 5335.23 1.88115 3.95657 0
M  V30 52144 C 5336.74 0.141008 4.43076 0
M  V30 52145 H 5333.96 0.174325 0.64796 0
M  V30 52146 H 5336.5 1.1221 1.70965 0
M  V30 52147 H 5334.65 -0.0975598 3.87277 0
M  V30 52148 H 5335.07 1.86148 4.90356 0
M  V30 52149 H 5336.54 0.263833 5.51369 0
M  V30 52150 H 5337.02 -0.916354 4.29534 0
M  V30 52151 H 5337.63 0.752265 4.18594 0
M  V30 52152 N 5335.94 -1.46248 0.587307 0
M  V30 52153 C 5337.35 -1.85996 0.161983 0
M  V30 52154 C 5337.7 -1.4903 -1.27611 0
M  V30 52155 O 5336.83 -0.907351 -1.96459 0
M  V30 52156 C 5337.42 -3.37581 0.287196 0
M  V30 52157 C 5335.98 -3.76308 -0.0832888 0
M  V30 52158 C 5335.13 -2.70256 0.621027 0
M  V30 52159 H 5338.08 -1.37337 0.795247 0
M  V30 52160 H 5338.1 -3.77381 -0.4862 0
M  V30 52161 H 5337.61 -3.64455 1.33396 0
M  V30 52162 H 5335.71 -3.55051 -1.13001 0
M  V30 52163 H 5335.83 -4.78183 0.296232 0
M  V30 52164 H 5334.19 -2.54627 0.0607923 0
M  V30 52165 H 5334.97 -2.99969 1.66953 0
M  V30 52166 N 5337.42 -0.325336 -1.54205 0
M  V30 52167 C 5338.65 0.278617 -2.05015 0
M  V30 52168 C 5339.06 1.45645 -1.20138 0
M  V30 52169 O 5338.42 1.81013 -0.232461 0
M  V30 52170 C 5338.47 0.711362 -3.54432 0
M  V30 52171 O 5338.19 -0.419611 -4.36086 0
M  V30 52172 C 5339.69 1.37794 -4.2134 0
M  V30 52173 H 5336.91 0.0570153 -0.668573 0
M  V30 52174 H 5339.46 -0.47204 -1.98977 0
M  V30 52175 H 5337.61 1.41199 -3.60751 0
M  V30 52176 H 5338.03 -0.078288 -5.24442 0
M  V30 52177 H 5339.5 1.63166 -5.27334 0
M  V30 52178 H 5339.98 2.3258 -3.72563 0
M  V30 52179 H 5340.58 0.719839 -4.19164 0
M  V30 52180 N 5338.9 1.57509 -0.0535471 0
M  V30 52181 C 5340.31 1.80376 0.481804 0
M  V30 52182 C 5340.66 0.965977 1.70773 0
M  V30 52183 O 5339.78 0.183243 2.15623 0
M  V30 52184 C 5340.38 3.27149 0.880863 0
M  V30 52185 C 5338.94 3.50926 1.36118 0
M  V30 52186 C 5338.09 2.75238 0.337514 0
M  V30 52187 H 5341.04 1.56221 -0.279408 0
M  V30 52188 H 5341.06 3.38199 1.74361 0
M  V30 52189 H 5340.57 3.88098 -0.0115774 0
M  V30 52190 H 5338.67 2.95259 2.27273 0
M  V30 52191 H 5338.78 4.59637 1.3517 0
M  V30 52192 H 5337.15 2.41446 0.810906 0
M  V30 52193 H 5337.93 3.38916 -0.546882 0
M  V30 52194 N 5340.38 -0.219858 1.56059 0
M  V30 52195 C 5341.6 -0.96085 1.83236 0
M  V30 52196 C 5342.02 -1.77876 0.63289 0
M  V30 52197 O 5341.38 -1.78095 -0.398562 0
M  V30 52198 C 5341.43 -1.87705 3.08948 0
M  V30 52199 O 5341.15 -1.0922 4.24267 0
M  V30 52200 C 5342.65 -2.7318 3.49124 0
M  V30 52201 H 5339.87 -0.281525 0.609085 0
M  V30 52202 H 5342.41 -0.234577 2.0315 0
M  V30 52203 H 5340.57 -2.55725 2.91004 0
M  V30 52204 H 5340.98 -1.71429 4.95694 0
M  V30 52205 H 5342.46 -3.33166 4.40119 0
M  V30 52206 H 5342.93 -3.45658 2.70956 0
M  V30 52207 H 5343.54 -2.1057 3.69514 0
M  V30 52208 N 5341.85 -1.49899 -0.486629 0
M  V30 52209 C 5343.26 -1.53145 -1.06787 0
M  V30 52210 C 5343.62 -0.325924 -1.93474 0
M  V30 52211 O 5342.74 0.562819 -2.08953 0
M  V30 52212 C 5343.34 -2.77521 -1.94339 0
M  V30 52213 C 5341.89 -2.83499 -2.47599 0
M  V30 52214 C 5341.04 -2.47244 -1.25562 0
M  V30 52215 H 5343.99 -1.56388 -0.269907 0
M  V30 52216 H 5344.01 -2.58497 -2.79212 0
M  V30 52217 H 5343.53 -3.65244 -1.31219 0
M  V30 52218 H 5341.63 -2.00091 -3.14316 0
M  V30 52219 H 5341.74 -3.86021 -2.83769 0
M  V30 52220 H 5340.1 -1.99338 -1.58545 0
M  V30 52221 H 5340.89 -3.37257 -0.641286 0
M  V30 52222 N 5343.33 0.738712 -1.39215 0
M  V30 52223 C 5344.56 1.52796 -1.39502 0
M  V30 52224 C 5344.97 1.88797 0.0114253 0
M  V30 52225 O 5344.33 1.53839 0.981833 0
M  V30 52226 C 5344.38 2.81785 -2.2645 0
M  V30 52227 O 5344.1 2.47315 -3.61617 0
M  V30 52228 C 5345.6 3.75836 -2.3508 0
M  V30 52229 H 5342.82 0.472305 -0.476623 0
M  V30 52230 H 5345.37 0.913089 -1.82983 0
M  V30 52231 H 5343.52 3.39613 -1.86392 0
M  V30 52232 H 5343.94 3.30148 -4.07557 0
M  V30 52233 H 5345.41 4.6325 -3.00173 0
M  V30 52234 H 5345.89 4.17324 -1.36885 0
M  V30 52235 H 5346.49 3.23928 -2.75592 0
M  V30 52236 N 5344.81 1.24329 0.968501 0
M  V30 52237 C 5346.06 1.08038 1.70799 0
M  V30 52238 C 5346.38 -0.381661 1.91229 0
M  V30 52239 O 5345.65 -1.27247 1.48946 0
M  V30 52240 H 5344.23 0.396799 0.632898 0
M  V30 52241 H 5346.89 1.56236 1.16517 0
M  V30 52242 H 5345.99 1.57778 2.69281 0
M  V30 52243 N 5346.29 -1.16906 1.05692 0
M  V30 52244 C 5347.52 -1.91201 0.790552 0
M  V30 52245 C 5347.93 -1.77097 -0.654372 0
M  V30 52246 O 5347.29 -1.11151 -1.44747 0
M  V30 52247 C 5347.34 -3.42104 1.1682 0
M  V30 52248 O 5347.06 -3.55779 2.55642 0
M  V30 52249 C 5348.56 -4.33463 0.928703 0
M  V30 52250 H 5345.78 -0.606498 0.287056 0
M  V30 52251 H 5348.32 -1.4822 1.40893 0
M  V30 52252 H 5346.48 -3.82812 0.594474 0
M  V30 52253 H 5346.89 -4.49311 2.70591 0
M  V30 52254 H 5348.37 -5.37831 1.24263 0
M  V30 52255 H 5348.84 -4.3899 -0.135862 0
M  V30 52256 H 5349.45 -3.98476 1.48652 0
M  V30 52257 N 5347.77 -0.838641 -1.33434 0
M  V30 52258 C 5348.7 -0.229086 -2.28052 0
M  V30 52259 C 5349.71 0.590049 -1.51731 0
M  V30 52260 O 5350.9 0.417157 -1.73557 0
M  V30 52261 C 5348 0.696134 -3.31673 0
M  V30 52262 C 5347.17 -0.0836144 -4.3732 0
M  V30 52263 C 5346.23 0.764914 -5.20611 0
M  V30 52264 O 5345.26 0.2042 -5.68834 0
M  V30 52265 N 5346.46 2.0823 -5.41868 0
M  V30 52266 H 5349.22 -1.04206 -2.81 0
M  V30 52267 H 5346.79 -0.697083 -1.46124 0
M  V30 52268 H 5348.78 1.26876 -3.84298 0
M  V30 52269 H 5347.35 1.40982 -2.79003 0
M  V30 52270 H 5346.57 -0.837616 -3.85198 0
M  V30 52271 H 5347.86 -0.61979 -5.05011 0
M  V30 52272 H 5347.25 2.56139 -5.0439 0
M  V30 52273 H 5345.81 2.60341 -5.9755 0
M  V30 52274 N 5349.24 1.45934 -0.595055 0
M  V30 52275 C 5350.47 2.06698 -0.0913657 0
M  V30 52276 C 5350.89 1.4418 1.21892 0
M  V30 52277 O 5350.24 0.551463 1.73969 0
M  V30 52278 C 5350.29 3.61436 0.068053 0
M  V30 52279 O 5350.02 4.21618 -1.19038 0
M  V30 52280 C 5351.52 4.39157 0.60466 0
M  V30 52281 H 5348.74 0.668027 -0.0630972 0
M  V30 52282 H 5351.28 1.87374 -0.819231 0
M  V30 52283 H 5349.44 3.80146 0.74619 0
M  V30 52284 H 5349.85 5.14643 -1.01205 0
M  V30 52285 H 5351.32 5.47976 0.665339 0
M  V30 52286 H 5351.8 4.0806 1.62429 0
M  V30 52287 H 5352.41 4.25282 -0.0390153 0
M  V30 52288 N 5350.72 0.33351 1.54031 0
M  V30 52289 C 5352.13 -0.152494 1.86076 0
M  V30 52290 C 5352.48 -1.50814 1.25497 0
M  V30 52291 O 5351.61 -2.08901 0.564738 0
M  V30 52292 C 5352.2 -0.283481 3.37612 0
M  V30 52293 C 5350.76 -0.713711 3.69572 0
M  V30 52294 C 5349.91 0.158612 2.76846 0
M  V30 52295 H 5352.86 0.553456 1.48737 0
M  V30 52296 H 5352.88 -1.11271 3.63867 0
M  V30 52297 H 5352.39 0.703327 3.81674 0
M  V30 52298 H 5350.5 -1.70991 3.31048 0
M  V30 52299 H 5350.61 -0.510564 4.76372 0
M  V30 52300 H 5348.97 -0.367442 2.52036 0
M  V30 52301 H 5349.76 1.14237 3.23736 0
M  V30 52302 N 5352.2 -1.57478 0.0618994 0
M  V30 52303 C 5353.43 -1.97431 -0.618767 0
M  V30 52304 C 5353.84 -0.939883 -1.63743 0
M  V30 52305 O 5353.2 0.0746532 -1.82347 0
M  V30 52306 C 5353.25 -3.37464 -1.29616 0
M  V30 52307 O 5352.97 -4.36942 -0.318278 0
M  V30 52308 C 5354.47 -3.92236 -2.06558 0
M  V30 52309 H 5351.69 -0.649519 -0.168421 0
M  V30 52310 H 5354.24 -2.04078 0.131375 0
M  V30 52311 H 5352.39 -3.31935 -1.99745 0
M  V30 52312 H 5352.81 -5.18316 -0.803057 0
M  V30 52313 H 5354.28 -4.92467 -2.4936 0
M  V30 52314 H 5354.76 -3.28241 -2.91812 0
M  V30 52315 H 5355.36 -4.01136 -1.41316 0
M  V30 52316 N 5353.68 0.211579 -1.56173 0
M  V30 52317 C 5354.91 0.951119 -1.83743 0
M  V30 52318 C 5355.32 1.77538 -0.642314 0
M  V30 52319 O 5354.68 1.78304 0.389111 0
M  V30 52320 C 5354.73 1.86064 -3.09939 0
M  V30 52321 O 5354.45 1.06968 -4.2484 0
M  V30 52322 C 5355.95 2.71324 -3.50568 0
M  V30 52323 H 5353.17 0.278291 -0.61057 0
M  V30 52324 H 5355.72 0.2238 -2.03272 0
M  V30 52325 H 5353.87 2.54178 -2.92356 0
M  V30 52326 H 5354.28 1.68798 -4.96596 0
M  V30 52327 H 5355.76 3.30827 -4.41879 0
M  V30 52328 H 5356.24 3.44217 -2.72785 0
M  V30 52329 H 5356.84 2.08607 -3.70625 0
M  V30 52330 N 5355.16 1.50155 0.478672 0
M  V30 52331 C 5356.38 1.64509 1.25477 0
M  V30 52332 C 5356.8 0.32536 1.85975 0
M  V30 52333 O 5356.16 -0.691826 1.68879 0
M  V30 52334 C 5356.21 2.73061 2.36897 0
M  V30 52335 O 5355.93 3.99917 1.7888 0
M  V30 52336 C 5357.43 2.98321 3.27902 0
M  V30 52337 H 5354.65 0.553193 0.379761 0
M  V30 52338 H 5357.19 1.96331 0.572221 0
M  V30 52339 H 5355.35 2.43954 3.0094 0
M  V30 52340 H 5355.76 4.59889 2.52195 0
M  V30 52341 H 5357.24 3.77956 4.0231 0
M  V30 52342 H 5357.71 2.09096 3.86233 0
M  V30 52343 H 5358.32 3.28929 2.69603 0
M  V30 52344 N 5356.63 -0.731319 1.39605 0
M  V30 52345 C 5358.05 -1.30976 1.3305 0
M  V30 52346 C 5358.4 -1.962 -0.00343021 0
M  V30 52347 O 5357.52 -1.96542 -0.905546 0
M  V30 52348 C 5358.12 -2.38161 2.40966 0
M  V30 52349 C 5356.68 -2.91669 2.3792 0
M  V30 52350 C 5355.82 -1.65278 2.22662 0
M  V30 52351 H 5358.77 -0.528563 1.49639 0
M  V30 52352 H 5358.79 -3.18638 2.07966 0
M  V30 52353 H 5358.31 -1.90661 3.38038 0
M  V30 52354 H 5356.41 -3.4344 1.44497 0
M  V30 52355 H 5356.52 -3.44534 3.32917 0
M  V30 52356 H 5354.88 -1.89753 1.69899 0
M  V30 52357 H 5355.67 -1.19825 3.21709 0
M  V30 52358 N 5358.11 -1.24841 -0.961894 0
M  V30 52359 C 5359.36 -1.08556 -1.69995 0
M  V30 52360 C 5359.67 0.374577 -1.9198 0
M  V30 52361 O 5360.88 0.657729 -2.63413 0
M  V30 52362 C 5359.34 -1.89435 -3.0601 0
M  V30 52363 C 5358.94 -3.39895 -2.91848 0
M  V30 52364 C 5360.69 -1.81697 -3.83649 0
M  V30 52365 C 5358.6 -4.13097 -4.23208 0
M  V30 52366 H 5357.53 -0.402625 -0.637502 0
M  V30 52367 H 5360.18 -1.48974 -1.0714 0
M  V30 52368 H 5358.56 -1.41836 -3.69728 0
M  V30 52369 H 5359.73 -3.95116 -2.37107 0
M  V30 52370 H 5358.05 -3.48648 -2.2767 0
M  V30 52371 H 5360.64 -2.33687 -4.80931 0
M  V30 52372 H 5360.99 -0.78339 -4.08863 0
M  V30 52373 H 5361.52 -2.27008 -3.26668 0
M  V30 52374 H 5358.26 -5.16838 -4.03185 0
M  V30 52375 H 5357.78 -3.6266 -4.77742 0
M  V30 52376 H 5359.46 -4.20414 -4.91794 0
M  V30 52377 N 5359.59 1.16344 -1.0631 0
M  V30 52378 C 5360.82 1.90779 -0.800681 0
M  V30 52379 C 5361.23 1.77442 0.644971 0
M  V30 52380 O 5360.59 1.11917 1.44156 0
M  V30 52381 C 5360.64 3.4148 -1.18633 0
M  V30 52382 O 5360.36 3.54419 -2.57525 0
M  V30 52383 C 5361.86 4.32964 -0.951677 0
M  V30 52384 H 5359.08 0.604967 -0.290268 0
M  V30 52385 H 5361.63 1.47471 -1.41678 0
M  V30 52386 H 5359.78 3.82491 -0.614767 0
M  V30 52387 H 5360.2 4.4787 -2.7297 0
M  V30 52388 H 5361.67 5.37165 -1.27114 0
M  V30 52389 H 5362.15 4.39056 0.11258 0
M  V30 52390 H 5362.75 3.97682 -1.50763 0
M  V30 52391 N 5361.07 0.845705 1.32987 0
M  V30 52392 C 5362.3 0.458421 2.01758 0
M  V30 52393 C 5362.71 -0.942333 1.63602 0
M  V30 52394 O 5362.07 -1.6135 0.852794 0
M  V30 52395 C 5362.12 0.577437 3.56858 0
M  V30 52396 O 5361.84 1.923 3.9364 0
M  V30 52397 C 5363.34 0.187994 4.42901 0
M  V30 52398 H 5360.56 0.181188 0.646074 0
M  V30 52399 H 5363.11 1.14017 1.69766 0
M  V30 52400 H 5361.26 -0.0564784 3.87359 0
M  V30 52401 H 5361.67 1.91339 4.88354 0
M  V30 52402 H 5363.15 0.322299 5.51058 0
M  V30 52403 H 5363.63 -0.870745 4.30482 0
M  V30 52404 H 5364.23 0.79662 4.17773 0
M  V30 52405 N 5362.55 -1.45617 0.602786 0
M  V30 52406 C 5363.77 -2.06647 0.102326 0
M  V30 52407 C 5364.19 -1.44824 -1.21125 0
M  V30 52408 O 5363.55 -0.560682 -1.73674 0
M  V30 52409 C 5363.6 -3.61467 -0.0488842 0
M  V30 52410 O 5363.32 -4.20981 1.21272 0
M  V30 52411 C 5364.82 -4.39471 -0.581362 0
M  V30 52412 H 5362.04 -0.667683 0.066639 0
M  V30 52413 H 5364.58 -1.86936 0.829156 0
M  V30 52414 H 5362.74 -3.80536 -0.72602 0
M  V30 52415 H 5363.15 -5.14099 1.03933 0
M  V30 52416 H 5364.63 -5.48321 -0.63627 0
M  V30 52417 H 5365.1 -4.08916 -1.60263 0
M  V30 52418 H 5365.71 -4.25255 0.0615685 0
M  V30 52419 N 5364.02 -0.341674 -1.53852 0
M  V30 52420 C 5365.25 0.256857 -2.05299 0
M  V30 52421 C 5365.67 1.44362 -1.21676 0
M  V30 52422 O 5365.02 1.80757 -0.251647 0
M  V30 52423 C 5365.08 0.67373 -3.55166 0
M  V30 52424 O 5364.8 -0.46584 -4.35616 0
M  V30 52425 C 5366.3 1.33317 -4.22778 0
M  V30 52426 H 5363.52 0.049921 -0.66914 0
M  V30 52427 H 5366.06 -0.493117 -1.98466 0
M  V30 52428 H 5364.22 1.37365 -3.62229 0
M  V30 52429 H 5364.63 -0.133908 -5.24329 0
M  V30 52430 H 5366.1 1.57564 -5.29035 0
M  V30 52431 H 5366.58 2.28615 -3.75009 0
M  V30 52432 H 5367.19 0.675341 -4.19904 0
M  V30 52433 N 5365.5 1.57443 -0.07025 0
M  V30 52434 C 5366.73 1.97756 0.608288 0
M  V30 52435 C 5367.15 0.948554 1.63242 0
M  V30 52436 O 5366.5 -0.0649819 1.82384 0
M  V30 52437 C 5366.55 3.38147 1.27824 0
M  V30 52438 O 5366.28 4.37105 0.295101 0
M  V30 52439 C 5367.78 3.93325 2.04475 0
M  V30 52440 H 5365 0.650403 0.164974 0
M  V30 52441 H 5367.54 2.04005 -0.142196 0
M  V30 52442 H 5365.7 3.32989 1.97982 0
M  V30 52443 H 5366.11 5.18734 0.775558 0
M  V30 52444 H 5367.58 4.93782 2.46745 0
M  V30 52445 H 5368.06 3.29784 2.90067 0
M  V30 52446 H 5368.67 4.01879 1.39187 0
M  V30 52447 N 5366.98 -0.203294 1.56283 0
M  V30 52448 C 5368.23 -0.926317 1.80408 0
M  V30 52449 C 5368.56 -1.83248 0.642947 0
M  V30 52450 O 5367.84 -1.91197 -0.35693 0
M  V30 52451 C 5368.12 -1.7496 3.14739 0
M  V30 52452 C 5367.97 -0.868711 4.41331 0
M  V30 52453 C 5369.29 -2.72382 3.45682 0
M  V30 52454 H 5366.41 -0.335323 0.656298 0
M  V30 52455 H 5369.05 -0.194133 1.89006 0
M  V30 52456 H 5367.2 -2.37383 3.07541 0
M  V30 52457 H 5368.87 -0.259824 4.60568 0
M  V30 52458 H 5367.12 -0.175008 4.33447 0
M  V30 52459 H 5367.79 -1.47956 5.31802 0
M  V30 52460 H 5370.26 -2.20093 3.53126 0
M  V30 52461 H 5369.14 -3.27075 4.40809 0
M  V30 52462 H 5369.4 -3.51026 2.68763 0
M  V30 52463 N 5368.46 -1.50407 -0.470702 0
M  V30 52464 C 5369.69 -1.65172 -1.24602 0
M  V30 52465 C 5370.1 -0.335219 -1.858 0
M  V30 52466 O 5369.46 0.68286 -1.69243 0
M  V30 52467 C 5369.51 -2.74313 -2.35445 0
M  V30 52468 O 5369.23 -4.0086 -1.76757 0
M  V30 52469 C 5370.73 -3.00055 -3.26315 0
M  V30 52470 H 5367.95 -0.555199 -0.376822 0
M  V30 52471 H 5370.5 -1.96632 -0.561801 0
M  V30 52472 H 5368.65 -2.45547 -2.99642 0
M  V30 52473 H 5369.07 -4.6122 -2.49753 0
M  V30 52474 H 5370.54 -3.80084 -4.003 0
M  V30 52475 H 5371.02 -2.11141 -3.85118 0
M  V30 52476 H 5371.62 -3.30354 -2.67855 0
M  V30 52477 N 5369.94 0.723905 -1.39991 0
M  V30 52478 C 5371.35 1.30269 -1.33742 0
M  V30 52479 C 5371.7 1.96199 -0.00697479 0
M  V30 52480 O 5370.82 1.9702 0.89511 0
M  V30 52481 C 5371.42 2.3688 -2.42226 0
M  V30 52482 C 5369.98 2.90404 -2.39463 0
M  V30 52483 C 5369.13 1.64095 -2.23535 0
M  V30 52484 H 5372.08 0.52062 -1.49917 0
M  V30 52485 H 5372.1 3.17531 -2.09653 0
M  V30 52486 H 5371.61 1.88866 -3.39045 0
M  V30 52487 H 5369.71 3.42669 -1.46316 0
M  V30 52488 H 5369.82 3.42763 -3.34739 0
M  V30 52489 H 5368.19 1.88849 -1.70903 0
M  V30 52490 H 5368.97 1.18117 -3.2234 0
M  V30 52491 N 5371.42 1.2535 0.95526 0
M  V30 52492 C 5372.64 1.12799 1.73447 0
M  V30 52493 C 5373.06 -0.318279 1.86098 0
M  V30 52494 O 5372.42 -1.21892 1.35825 0
M  V30 52495 C 5372.47 1.77614 3.14858 0
M  V30 52496 O 5372.19 3.16588 3.02826 0
M  V30 52497 C 5373.69 1.70836 4.0906 0
M  V30 52498 H 5370.91 0.393477 0.543523 0
M  V30 52499 H 5373.45 1.657 1.19849 0
M  V30 52500 H 5371.61 1.28686 3.65402 0
M  V30 52501 H 5372.02 3.48447 3.92027 0
M  V30 52502 H 5373.5 2.20848 5.05896 0
M  V30 52503 H 5373.97 0.672011 4.34028 0
M  V30 52504 H 5374.58 2.1925 3.64431 0
M  V30 52505 N 5372.89 -1.15778 1.06926 0
M  V30 52506 C 5374.3 -1.68059 0.813203 0
M  V30 52507 C 5374.66 -1.84683 -0.662309 0
M  V30 52508 O 5373.78 -1.54702 -1.51315 0
M  V30 52509 C 5374.38 -3.05268 1.4696 0
M  V30 52510 C 5372.93 -3.54643 1.26116 0
M  V30 52511 C 5372.08 -2.30471 1.54202 0
M  V30 52512 H 5375.03 -1.00052 1.23188 0
M  V30 52513 H 5375.05 -3.69982 0.888438 0
M  V30 52514 H 5374.57 -2.93136 2.54348 0
M  V30 52515 H 5372.67 -3.72023 0.20731 0
M  V30 52516 H 5372.78 -4.36347 1.97834 0
M  V30 52517 H 5371.14 -2.358 0.962843 0
M  V30 52518 H 5371.93 -2.20931 2.62763 0
M  V30 52519 N 5374.37 -0.852746 -1.32537 0
M  V30 52520 C 5375.6 -0.469114 -2.01512 0
M  V30 52521 C 5376.01 0.933643 -1.64099 0
M  V30 52522 O 5375.37 1.60895 -0.861339 0
M  V30 52523 C 5375.42 -0.596353 -3.56547 0
M  V30 52524 O 5375.14 -1.94385 -3.92614 0
M  V30 52525 C 5376.64 -0.21148 -4.42795 0
M  V30 52526 H 5373.86 -0.184612 -0.645104 0
M  V30 52527 H 5376.41 -1.14916 -1.69159 0
M  V30 52528 H 5374.56 0.035935 -3.87383 0
M  V30 52529 H 5374.98 -1.93926 -4.87332 0
M  V30 52530 H 5376.45 -0.351518 -5.5088 0
M  V30 52531 H 5376.93 0.847903 -4.30938 0
M  V30 52532 H 5377.53 -0.818764 -4.17344 0
M  V30 52533 N 5375.85 1.45295 -0.6105 0
M  V30 52534 C 5377.26 1.85715 -0.191553 0
M  V30 52535 C 5377.61 1.51041 1.25224 0
M  V30 52536 O 5376.74 0.938491 1.94991 0
M  V30 52537 C 5377.33 3.37081 -0.340866 0
M  V30 52538 C 5375.89 3.76393 0.023411 0
M  V30 52539 C 5375.04 2.69234 -0.663943 0
M  V30 52540 H 5377.99 1.36055 -0.816996 0
M  V30 52541 H 5378.01 3.78107 0.4261 0
M  V30 52542 H 5377.52 3.62286 -1.39177 0
M  V30 52543 H 5375.62 3.56804 1.07338 0
M  V30 52544 H 5375.74 4.77652 -0.37227 0
M  V30 52545 H 5374.1 2.54498 -0.101294 0
M  V30 52546 H 5374.88 2.97275 -1.71704 0
M  V30 52547 N 5377.33 0.349828 1.53668 0
M  V30 52548 C 5378.56 -0.245966 2.05433 0
M  V30 52549 C 5378.97 -1.43715 1.2244 0
M  V30 52550 O 5378.33 -1.80621 0.26123 0
M  V30 52551 C 5378.38 -0.654885 3.55519 0
M  V30 52552 O 5378.1 0.488935 4.35363 0
M  V30 52553 C 5379.6 -1.31073 4.23479 0
M  V30 52554 H 5376.82 -0.0463717 0.669396 0
M  V30 52555 H 5379.36 0.503636 1.98201 0
M  V30 52556 H 5377.52 -1.35442 3.62952 0
M  V30 52557 H 5377.93 0.161712 5.24251 0
M  V30 52558 H 5379.41 -1.54756 5.29863 0
M  V30 52559 H 5379.88 -2.26623 3.76216 0
M  V30 52560 H 5380.49 -0.653063 4.20256 0
M  V30 52561 N 5378.81 -1.57404 0.0785986 0
M  V30 52562 C 5380.05 -1.93363 -0.587792 0
M  V30 52563 C 5380.37 -0.959916 -1.69737 0
M  V30 52564 O 5379.64 -0.00918617 -1.95898 0
M  V30 52565 H 5378.22 -0.713833 -0.220116 0
M  V30 52566 H 5380.89 -1.9441 0.138055 0
M  V30 52567 H 5379.98 -2.9535 -1.0087 0
M  V30 52568 N 5380.28 0.195003 -1.56389 0
M  V30 52569 C 5381.51 0.931577 -1.84741 0
M  V30 52570 C 5381.93 1.76847 -0.661109 0
M  V30 52571 O 5381.28 1.78706 0.370178 0
M  V30 52572 C 5381.34 1.82766 -3.11895 0
M  V30 52573 O 5381.06 1.02456 -4.25951 0
M  V30 52574 C 5382.56 2.67591 -3.53426 0
M  V30 52575 H 5379.78 0.271799 -0.613487 0
M  V30 52576 H 5382.32 0.202228 -2.03498 0
M  V30 52577 H 5380.48 2.51063 -2.95036 0
M  V30 52578 H 5380.89 1.63521 -4.98358 0
M  V30 52579 H 5382.36 3.26122 -4.45363 0
M  V30 52580 H 5382.84 3.41304 -2.7642 0
M  V30 52581 H 5383.45 2.04665 -3.72817 0
M  V30 52582 N 5381.76 1.50654 0.462719 0
M  V30 52583 C 5382.69 1.66291 1.57734 0
M  V30 52584 C 5383.71 0.544148 1.53437 0
M  V30 52585 O 5384.9 0.817622 1.58673 0
M  V30 52586 C 5382 1.63904 2.96629 0
M  V30 52587 C 5381.17 2.9195 3.25705 0
M  V30 52588 C 5380.23 2.82092 4.44196 0
M  V30 52589 O 5379.25 3.56048 4.44093 0
M  V30 52590 N 5380.46 1.96215 5.46333 0
M  V30 52591 H 5383.22 2.62435 1.44733 0
M  V30 52592 H 5380.78 1.48223 0.651274 0
M  V30 52593 H 5382.77 1.5491 3.73878 0
M  V30 52594 H 5381.34 0.754597 3.03356 0
M  V30 52595 H 5380.56 3.15006 2.36991 0
M  V30 52596 H 5381.85 3.76762 3.41947 0
M  V30 52597 H 5381.25 1.35458 5.49243 0
M  V30 52598 H 5379.81 1.93119 6.22534 0
M  V30 52599 N 5383.24 -0.716471 1.40373 0
M  V30 52600 C 5384.47 -1.50558 1.41915 0
M  V30 52601 C 5384.88 -1.88791 0.018612 0
M  V30 52602 O 5384.24 -1.55381 -0.957234 0
M  V30 52603 C 5384.29 -2.78147 2.30904 0
M  V30 52604 O 5384.01 -2.41531 3.65506 0
M  V30 52605 C 5385.51 -3.72048 2.41029 0
M  V30 52606 H 5382.73 -0.464662 0.484076 0
M  V30 52607 H 5385.28 -0.883862 1.84413 0
M  V30 52608 H 5383.43 -3.36605 1.91771 0
M  V30 52609 H 5383.85 -3.23622 4.12758 0
M  V30 52610 H 5385.32 -4.58416 3.07505 0
M  V30 52611 H 5385.8 -4.15093 1.43507 0
M  V30 52612 H 5386.4 -3.19502 2.80711 0
M  V30 52613 N 5384.72 -1.25855 -0.948599 0
M  V30 52614 C 5386.13 -1.0998 -1.50868 0
M  V30 52615 C 5386.48 0.322428 -1.93533 0
M  V30 52616 O 5385.61 1.21309 -1.79201 0
M  V30 52617 C 5386.2 -1.99031 -2.74175 0
M  V30 52618 C 5384.76 -1.87324 -3.26476 0
M  V30 52619 C 5383.91 -1.92822 -1.99286 0
M  V30 52620 H 5386.86 -1.39053 -0.764859 0
M  V30 52621 H 5386.88 -1.53384 -3.48215 0
M  V30 52622 H 5386.39 -3.02535 -2.43092 0
M  V30 52623 H 5384.49 -0.867263 -3.62366 0
M  V30 52624 H 5384.6 -2.7246 -3.94084 0
M  V30 52625 H 5382.97 -1.36782 -2.14855 0
M  V30 52626 H 5383.75 -2.97942 -1.70544 0
M  V30 52627 N 5386.2 1.1521 -1.07538 0
M  V30 52628 C 5387.42 1.89919 -0.820871 0
M  V30 52629 C 5387.84 1.78116 0.626114 0
M  V30 52630 O 5387.2 1.1344 1.4296 0
M  V30 52631 C 5387.25 3.40202 -1.22248 0
M  V30 52632 O 5386.97 3.51667 -2.6127 0
M  V30 52633 C 5388.47 4.3193 -0.997545 0
M  V30 52634 H 5385.69 0.601854 -0.296669 0
M  V30 52635 H 5388.23 1.4596 -1.43234 0
M  V30 52636 H 5386.39 3.81817 -0.655301 0
M  V30 52637 H 5386.8 4.4495 -2.77705 0
M  V30 52638 H 5388.28 5.35786 -1.32804 0
M  V30 52639 H 5388.75 4.3915 0.0660055 0
M  V30 52640 H 5389.36 3.9606 -1.54972 0
M  V30 52641 N 5387.67 0.859763 1.32083 0
M  V30 52642 C 5388.9 0.479794 2.0126 0
M  V30 52643 C 5389.32 -0.924928 1.64592 0
M  V30 52644 O 5388.67 -1.60436 0.86986 0
M  V30 52645 C 5388.73 0.615254 3.56226 0
M  V30 52646 O 5388.45 1.96465 3.91578 0
M  V30 52647 C 5389.95 0.234959 4.42677 0
M  V30 52648 H 5387.17 0.18803 0.644116 0
M  V30 52649 H 5389.71 1.15811 1.68547 0
M  V30 52650 H 5387.87 -0.0153906 3.87397 0
M  V30 52651 H 5388.28 1.96508 4.86297 0
M  V30 52652 H 5389.75 0.380728 5.50685 0
M  V30 52653 H 5390.23 -0.825038 4.31381 0
M  V30 52654 H 5390.84 0.840885 4.16904 0
M  V30 52655 N 5389.15 -1.44969 0.618196 0
M  V30 52656 C 5390.38 -2.06527 0.124238 0
M  V30 52657 C 5390.8 -1.46101 -1.19583 0
M  V30 52658 O 5390.15 -0.57907 -1.73069 0
M  V30 52659 C 5390.2 -3.61498 -0.0105431 0
M  V30 52660 O 5389.92 -4.19671 1.2573 0
M  V30 52661 C 5391.43 -4.40063 -0.534718 0
M  V30 52662 H 5388.65 -0.666938 0.0737169 0
M  V30 52663 H 5391.19 -1.86047 0.848937 0
M  V30 52664 H 5389.34 -3.81285 -0.685618 0
M  V30 52665 H 5389.76 -5.12968 1.0938 0
M  V30 52666 H 5391.23 -5.48965 -0.578077 0
M  V30 52667 H 5391.71 -4.10593 -1.55917 0
M  V30 52668 H 5392.32 -4.25166 0.106669 0
M  V30 52669 N 5390.63 -0.357973 -1.53481 0
M  V30 52670 C 5392.04 0.122872 -1.86295 0
M  V30 52671 C 5392.39 1.48799 -1.2788 0
M  V30 52672 O 5391.52 2.07976 -0.597901 0
M  V30 52673 C 5392.11 0.229734 -3.3802 0
M  V30 52674 C 5390.67 0.654825 -3.7066 0
M  V30 52675 C 5389.82 -0.202636 -2.76559 0
M  V30 52676 H 5392.77 -0.577048 -1.47837 0
M  V30 52677 H 5392.79 1.05468 -3.65591 0
M  V30 52678 H 5392.3 -0.763959 -3.80507 0
M  V30 52679 H 5390.4 1.65702 -3.33727 0
M  V30 52680 H 5390.52 0.434712 -4.77124 0
M  V30 52681 H 5388.88 0.327299 -2.52588 0
M  V30 52682 H 5389.66 -1.19373 -3.21877 0
M  V30 52683 N 5392.11 1.5736 -0.086945 0
M  V30 52684 C 5393.36 1.93231 0.578319 0
M  V30 52685 C 5393.67 0.970187 1.69843 0
M  V30 52686 O 5394.88 1.2223 2.42429 0
M  V30 52687 C 5393.33 3.43311 1.08008 0
M  V30 52688 C 5392.94 4.47999 -0.00983885 0
M  V30 52689 C 5394.68 3.88158 1.71855 0
M  V30 52690 C 5392.59 5.89224 0.506821 0
M  V30 52691 H 5391.52 0.721252 0.219798 0
M  V30 52692 H 5394.17 1.82787 -0.16163 0
M  V30 52693 H 5392.55 3.4888 1.87347 0
M  V30 52694 H 5393.73 4.54064 -0.785024 0
M  V30 52695 H 5392.04 4.12712 -0.55299 0
M  V30 52696 H 5394.64 4.91063 2.11568 0
M  V30 52697 H 5394.98 3.26356 2.58452 0
M  V30 52698 H 5395.52 3.85255 0.991124 0
M  V30 52699 H 5392.26 6.54707 -0.322351 0
M  V30 52700 H 5391.78 5.86647 1.24919 0
M  V30 52701 H 5393.45 6.39559 0.978403 0
M  V30 52702 N 5393.59 -0.186707 1.5649 0
M  V30 52703 C 5394.81 -0.921767 1.85232 0
M  V30 52704 C 5395.23 -1.76494 0.670478 0
M  V30 52705 O 5394.59 -1.789 -0.360695 0
M  V30 52706 C 5394.64 -1.8111 3.1286 0
M  V30 52707 O 5394.36 -1.00196 4.26488 0
M  V30 52708 C 5395.86 -2.65713 3.5484 0
M  V30 52709 H 5393.08 -0.268542 0.61492 0
M  V30 52710 H 5395.62 -0.191433 2.03602 0
M  V30 52711 H 5393.78 -2.49495 2.96363 0
M  V30 52712 H 5394.19 -1.60876 4.99219 0
M  V30 52713 H 5395.67 -3.23755 4.47087 0
M  V30 52714 H 5396.14 -3.39833 2.78227 0
M  V30 52715 H 5396.75 -2.02685 3.73897 0
M  V30 52716 N 5395.07 -1.50897 -0.454723 0
M  V30 52717 C 5396.29 -1.66484 -1.22844 0
M  V30 52718 C 5396.71 -0.354906 -1.85434 0
M  V30 52719 O 5396.07 0.664871 -1.69958 0
M  V30 52720 C 5396.12 -2.76795 -2.32523 0
M  V30 52721 O 5395.84 -4.02712 -1.72495 0
M  V30 52722 C 5397.34 -3.03499 -3.23114 0
M  V30 52723 H 5394.56 -0.559165 -0.370912 0
M  V30 52724 H 5397.1 -1.97217 -0.540914 0
M  V30 52725 H 5395.26 -2.48711 -2.97021 0
M  V30 52726 H 5395.67 -4.63843 -2.44847 0
M  V30 52727 H 5397.15 -3.84308 -3.96246 0
M  V30 52728 H 5397.62 -2.15214 -3.82857 0
M  V30 52729 H 5398.23 -3.33177 -2.64336 0
M  V30 52730 N 5396.54 0.709016 -1.40751 0
M  V30 52731 C 5397.77 1.49803 -1.42712 0
M  V30 52732 C 5398.19 1.88778 -0.0286238 0
M  V30 52733 O 5397.54 1.55887 0.948981 0
M  V30 52734 C 5397.59 2.76918 -2.32376 0
M  V30 52735 O 5397.32 2.39589 -3.66782 0
M  V30 52736 C 5398.82 3.70765 -2.42999 0
M  V30 52737 H 5396.04 0.462089 -0.486534 0
M  V30 52738 H 5398.58 0.87407 -1.84879 0
M  V30 52739 H 5396.74 3.35583 -1.93553 0
M  V30 52740 H 5397.15 3.21428 -4.14468 0
M  V30 52741 H 5398.62 4.56778 -3.09932 0
M  V30 52742 H 5399.1 4.14326 -1.45706 0
M  V30 52743 H 5399.71 3.18009 -2.82401 0
M  V30 52744 N 5398.02 1.26356 0.941911 0
M  V30 52745 C 5399.25 1.14632 1.72241 0
M  V30 52746 C 5399.66 -0.298523 1.86425 0
M  V30 52747 O 5399.02 -1.20445 1.3711 0
M  V30 52748 C 5399.07 1.80944 3.12956 0
M  V30 52749 O 5398.79 3.19782 2.99451 0
M  V30 52750 C 5400.29 1.75165 4.07225 0
M  V30 52751 H 5397.51 0.399219 0.539319 0
M  V30 52752 H 5400.06 1.66962 1.18085 0
M  V30 52753 H 5398.21 1.32554 3.64017 0
M  V30 52754 H 5398.63 3.52585 3.88309 0
M  V30 52755 H 5400.1 2.26201 5.03525 0
M  V30 52756 H 5400.58 0.718007 4.33291 0
M  V30 52757 H 5401.18 2.23102 3.62085 0
M  V30 52758 N 5399.5 -1.14638 1.08148 0
M  V30 52759 C 5400.73 -1.89481 0.830931 0
M  V30 52760 C 5401.14 -1.78445 -0.61666 0
M  V30 52761 O 5400.5 -1.14196 -1.42357 0
M  V30 52762 C 5400.55 -3.39549 1.24051 0
M  V30 52763 O 5400.27 -3.50277 2.63131 0
M  V30 52764 C 5401.77 -4.31395 1.02044 0
M  V30 52765 H 5398.99 -0.600273 0.299856 0
M  V30 52766 H 5401.54 -1.45198 1.44006 0
M  V30 52767 H 5399.69 -3.81465 0.675541 0
M  V30 52768 H 5400.11 -4.43471 2.80061 0
M  V30 52769 H 5401.58 -5.35075 1.35644 0
M  V30 52770 H 5402.06 -4.39179 -0.0427153 0
M  V30 52771 H 5402.66 -3.95233 1.57071 0
M  V30 52772 N 5400.98 -0.866756 -1.31625 0
M  V30 52773 C 5402.22 -0.476801 -1.97115 0
M  V30 52774 C 5402.56 0.967754 -1.68369 0
M  V30 52775 O 5401.83 1.68098 -0.978437 0
M  V30 52776 C 5402.11 -0.730685 -3.52609 0
M  V30 52777 C 5401.97 -2.22454 -3.9094 0
M  V30 52778 C 5403.29 -0.195034 -4.39668 0
M  V30 52779 H 5400.41 -0.174707 -0.715993 0
M  V30 52780 H 5403.05 -1.08741 -1.55806 0
M  V30 52781 H 5401.2 -0.21097 -3.87927 0
M  V30 52782 H 5402.87 -2.81126 -3.6574 0
M  V30 52783 H 5401.11 -2.69836 -3.39663 0
M  V30 52784 H 5401.78 -2.35284 -4.99345 0
M  V30 52785 H 5404.26 -0.639623 -4.11155 0
M  V30 52786 H 5403.14 -0.40215 -5.47425 0
M  V30 52787 H 5403.4 0.902868 -4.32783 0
M  V30 52788 N 5402.46 1.44639 -0.625876 0
M  V30 52789 C 5403.68 2.06458 -0.135189 0
M  V30 52790 C 5404.1 1.46733 1.18806 0
M  V30 52791 O 5403.46 0.588241 1.7276 0
M  V30 52792 C 5403.51 3.61499 -0.00862823 0
M  V30 52793 O 5403.23 4.18998 -1.27954 0
M  V30 52794 C 5404.73 4.40341 0.511372 0
M  V30 52795 H 5401.95 0.666538 -0.0772528 0
M  V30 52796 H 5404.49 1.85594 -0.858791 0
M  V30 52797 H 5402.65 3.81643 0.665388 0
M  V30 52798 H 5403.06 5.12381 -1.12099 0
M  V30 52799 H 5404.54 5.49264 0.548956 0
M  V30 52800 H 5405.01 4.11414 1.53737 0
M  V30 52801 H 5405.62 4.25104 -0.129215 0
M  V30 52802 N 5403.93 0.366107 1.53289 0
M  V30 52803 C 5405.34 -0.112991 1.86358 0
M  V30 52804 C 5405.7 -1.48118 1.28668 0
M  V30 52805 O 5404.82 -2.07656 0.608922 0
M  V30 52806 C 5405.42 -0.211805 3.38137 0
M  V30 52807 C 5403.97 -0.635158 3.71002 0
M  V30 52808 C 5403.12 0.2173 2.76447 0
M  V30 52809 H 5406.07 0.584881 1.47529 0
M  V30 52810 H 5406.09 -1.03528 3.66145 0
M  V30 52811 H 5405.61 0.784127 3.80096 0
M  V30 52812 H 5403.71 -1.6393 3.34601 0
M  V30 52813 H 5403.82 -0.409403 4.77348 0
M  V30 52814 H 5402.18 -0.313899 2.52758 0
M  V30 52815 H 5402.97 1.21078 3.2124 0
M  V30 52816 N 5405.41 -1.57312 0.095289 0
M  V30 52817 C 5406.64 -1.98699 -0.57675 0
M  V30 52818 C 5407.05 -0.974404 -1.61712 0
M  V30 52819 O 5406.41 0.0359579 -1.82465 0
M  V30 52820 C 5406.46 -3.40138 -1.22428 0
M  V30 52821 O 5406.18 -4.37519 -0.225524 0
M  V30 52822 C 5407.68 -3.96529 -1.98191 0
M  V30 52823 H 5404.9 -0.652946 -0.154606 0
M  V30 52824 H 5407.45 -2.03753 0.174633 0
M  V30 52825 H 5405.6 -3.36097 -1.9266 0
M  V30 52826 H 5406.02 -5.19903 -0.692934 0
M  V30 52827 H 5407.49 -4.97645 -2.38858 0
M  V30 52828 H 5407.97 -3.34357 -2.84784 0
M  V30 52829 H 5408.57 -4.04043 -1.32776 0
M  V30 52830 N 5406.89 0.178405 -1.56587 0
M  V30 52831 C 5408.3 0.741539 -1.71342 0
M  V30 52832 C 5408.65 1.8311 -0.704643 0
M  V30 52833 O 5407.78 2.15975 0.135481 0
M  V30 52834 C 5408.37 1.35187 -3.10661 0
M  V30 52835 C 5406.93 1.8619 -3.27124 0
M  V30 52836 C 5406.08 0.738161 -2.67295 0
M  V30 52837 H 5409.03 -0.0468982 -1.58631 0
M  V30 52838 H 5409.05 2.22149 -3.08917 0
M  V30 52839 H 5408.56 0.558641 -3.84058 0
M  V30 52840 H 5406.66 2.68179 -2.58671 0
M  V30 52841 H 5406.78 2.01222 -4.34795 0
M  V30 52842 H 5405.14 1.15678 -2.26916 0
M  V30 52843 H 5405.92 -0.0431028 -3.43273 0
M  V30 52844 N 5408.37 1.51136 0.446714 0
M  V30 52845 C 5409.6 1.67134 1.21959 0
M  V30 52846 C 5410.01 0.364735 1.85243 0
M  V30 52847 O 5409.37 -0.655848 1.70308 0
M  V30 52848 C 5409.42 2.78024 2.31051 0
M  V30 52849 O 5409.14 4.03621 1.70357 0
M  V30 52850 C 5410.64 3.05209 3.215 0
M  V30 52851 H 5407.86 0.561124 0.367942 0
M  V30 52852 H 5410.4 1.97501 0.530447 0
M  V30 52853 H 5408.56 2.50283 2.95698 0
M  V30 52854 H 5408.97 4.65135 2.42384 0
M  V30 52855 H 5410.45 3.86404 3.94203 0
M  V30 52856 H 5410.92 2.17241 3.8171 0
M  V30 52857 H 5411.53 3.34574 2.62565 0
M  V30 52858 N 5409.85 -0.701542 1.41125 0
M  V30 52859 C 5411.26 -1.28124 1.35798 0
M  V30 52860 C 5411.61 -1.96163 0.0381874 0
M  V30 52861 O 5410.73 -1.98419 -0.863653 0
M  V30 52862 C 5411.33 -2.32997 2.45964 0
M  V30 52863 C 5409.89 -2.86557 2.44053 0
M  V30 52864 C 5409.03 -1.60518 2.26118 0
M  V30 52865 H 5411.99 -0.496703 1.50727 0
M  V30 52866 H 5412.01 -3.14155 2.14678 0
M  V30 52867 H 5411.52 -1.83448 3.42007 0
M  V30 52868 H 5409.62 -3.40298 1.51749 0
M  V30 52869 H 5409.73 -3.37394 3.4015 0
M  V30 52870 H 5408.1 -1.86107 1.73886 0
M  V30 52871 H 5408.88 -1.12974 3.24179 0
M  V30 52872 N 5411.32 -1.26854 -0.935197 0
M  V30 52873 C 5412.55 -1.15544 -1.71631 0
M  V30 52874 C 5412.97 0.288632 -1.86581 0
M  V30 52875 O 5412.32 1.19716 -1.37747 0
M  V30 52876 C 5412.38 -1.82601 -3.11992 0
M  V30 52877 O 5412.1 -3.21365 -2.97751 0
M  V30 52878 C 5413.6 -1.77322 -4.0629 0
M  V30 52879 H 5410.82 -0.402074 -0.537194 0
M  V30 52880 H 5413.36 -1.67586 -1.17198 0
M  V30 52881 H 5411.52 -1.34483 -3.63309 0
M  V30 52882 H 5411.93 -3.54639 -3.86434 0
M  V30 52883 H 5413.4 -2.28868 -5.02318 0
M  V30 52884 H 5413.88 -0.740976 -4.32904 0
M  V30 52885 H 5414.49 -2.2502 -3.60897 0
M  V30 52886 N 5412.8 1.14063 -1.08754 0
M  V30 52887 C 5414.05 1.84816 -0.817763 0
M  V30 52888 C 5414.37 1.83548 0.658424 0
M  V30 52889 O 5413.64 1.28639 1.47746 0
M  V30 52890 H 5412.22 0.68432 -0.299526 0
M  V30 52891 H 5414.88 1.38203 -1.37426 0
M  V30 52892 H 5413.98 2.89537 -1.16511 0
M  V30 52893 N 5414.28 0.873724 1.31163 0
M  V30 52894 C 5415.51 0.501114 2.0074 0
M  V30 52895 C 5415.92 -0.907418 1.65564 0
M  V30 52896 O 5415.28 -1.59504 0.886827 0
M  V30 52897 C 5415.33 0.653002 3.55553 0
M  V30 52898 O 5415.05 2.00607 3.89472 0
M  V30 52899 C 5416.55 0.281898 4.42403 0
M  V30 52900 H 5413.77 0.194851 0.642086 0
M  V30 52901 H 5416.32 1.17592 1.67309 0
M  V30 52902 H 5414.47 0.0256989 3.87391 0
M  V30 52903 H 5414.89 2.01655 4.84186 0
M  V30 52904 H 5416.36 0.439114 5.50251 0
M  V30 52905 H 5416.84 -0.779237 4.32232 0
M  V30 52906 H 5417.44 0.885056 4.15989 0
M  V30 52907 N 5415.76 -1.44305 0.633538 0
M  V30 52908 C 5416.69 -2.28944 -0.108394 0
M  V30 52909 C 5417.7 -1.41417 -0.806532 0
M  V30 52910 O 5418.89 -1.65547 -0.667576 0
M  V30 52911 C 5415.99 -3.1785 -1.17579 0
M  V30 52912 C 5415.17 -4.33804 -0.559689 0
M  V30 52913 C 5414.22 -5.03727 -1.52136 0
M  V30 52914 O 5413.25 -5.59663 -1.03757 0
M  V30 52915 N 5414.45 -5.05402 -2.85568 0
M  V30 52916 H 5417.22 -2.93259 0.617982 0
M  V30 52917 H 5414.78 -1.54779 0.474873 0
M  V30 52918 H 5416.77 -3.61492 -1.8195 0
M  V30 52919 H 5415.34 -2.55267 -1.80436 0
M  V30 52920 H 5414.56 -3.93324 0.262697 0
M  V30 52921 H 5415.85 -5.08637 -0.128763 0
M  V30 52922 H 5415.25 -4.61294 -3.27452 0
M  V30 52923 H 5413.8 -5.52825 -3.45293 0
M  V30 52924 N 5417.24 -0.374231 -1.53092 0
M  V30 52925 C 5418.46 0.213252 -2.05798 0
M  V30 52926 C 5418.88 1.41749 -1.24711 0
M  V30 52927 O 5418.24 1.80182 -0.289932 0
M  V30 52928 C 5418.29 0.598242 -3.56516 0
M  V30 52929 O 5418.01 -0.558136 -4.3453 0
M  V30 52930 C 5419.51 1.2432 -4.25511 0
M  V30 52931 H 5416.73 0.0357163 -0.670049 0
M  V30 52932 H 5419.27 -0.535104 -1.97375 0
M  V30 52933 H 5417.43 1.29651 -3.65061 0
M  V30 52934 H 5417.84 -0.245095 -5.23927 0
M  V30 52935 H 5419.32 1.46306 -5.32258 0
M  V30 52936 H 5419.79 2.20609 -3.79774 0
M  V30 52937 H 5420.4 0.586121 -4.21242 0
M  V30 52938 N 5418.71 1.57259 -0.10363 0
M  V30 52939 C 5420.13 1.81818 0.424175 0
M  V30 52940 C 5420.48 1.01982 1.67613 0
M  V30 52941 O 5419.6 0.251749 2.14931 0
M  V30 52942 C 5420.2 3.29785 0.776337 0
M  V30 52943 C 5418.76 3.55079 1.24885 0
M  V30 52944 C 5417.9 2.76173 0.249778 0
M  V30 52945 H 5420.85 1.55253 -0.328967 0
M  V30 52946 H 5420.87 3.43575 1.63513 0
M  V30 52947 H 5420.39 3.87865 -0.135042 0
M  V30 52948 H 5418.49 3.0234 2.17765 0
M  V30 52949 H 5418.6 4.63704 1.20479 0
M  V30 52950 H 5416.96 2.43904 0.733681 0
M  V30 52951 H 5417.75 3.37005 -0.654429 0
M  V30 52952 N 5420.19 -0.170098 1.56679 0
M  V30 52953 C 5421.42 -0.902069 1.862 0
M  V30 52954 C 5421.84 -1.75773 0.68916 0
M  V30 52955 O 5421.19 -1.79273 -0.3417 0
M  V30 52956 C 5421.24 -1.77781 3.14764 0
M  V30 52957 O 5420.96 -0.956667 4.27527 0
M  V30 52958 C 5422.47 -2.61934 3.57639 0
M  V30 52959 H 5419.69 -0.262005 0.617733 0
M  V30 52960 H 5422.23 -0.169827 2.03794 0
M  V30 52961 H 5420.38 -2.46338 2.98992 0
M  V30 52962 H 5420.8 -1.55572 5.00897 0
M  V30 52963 H 5422.27 -3.18995 4.50495 0
M  V30 52964 H 5422.75 -3.36863 2.81815 0
M  V30 52965 H 5423.36 -1.98708 3.76026 0
M  V30 52966 N 5421.67 -1.51371 -0.438693 0
M  V30 52967 C 5422.9 -1.67778 -1.21071 0
M  V30 52968 C 5423.31 -0.374554 -1.85047 0
M  V30 52969 O 5422.67 0.646807 -1.70654 0
M  V30 52970 C 5422.72 -2.79246 -2.29574 0
M  V30 52971 O 5422.44 -4.04519 -1.68214 0
M  V30 52972 C 5423.94 -3.06909 -3.19877 0
M  V30 52973 H 5421.16 -0.563067 -0.364961 0
M  V30 52974 H 5423.71 -1.97779 -0.519966 0
M  V30 52975 H 5421.86 -2.51847 -2.94366 0
M  V30 52976 H 5422.28 -4.66414 -2.39913 0
M  V30 52977 H 5423.75 -3.88489 -3.92148 0
M  V30 52978 H 5424.23 -2.19263 -3.80553 0
M  V30 52979 H 5424.83 -3.35962 -2.60787 0
M  V30 52980 N 5423.15 0.694048 -1.41495 0
M  V30 52981 C 5424.38 1.48281 -1.44293 0
M  V30 52982 C 5424.79 1.88737 -0.0486446 0
M  V30 52983 O 5424.15 1.56884 0.932393 0
M  V30 52984 C 5424.2 2.74438 -2.353 0
M  V30 52985 O 5423.92 2.35685 -3.69302 0
M  V30 52986 C 5425.42 3.68166 -2.46918 0
M  V30 52987 H 5422.64 0.456902 -0.491407 0
M  V30 52988 H 5425.19 0.854412 -1.85796 0
M  V30 52989 H 5423.34 3.33511 -1.97102 0
M  V30 52990 H 5423.75 3.17014 -4.17854 0
M  V30 52991 H 5425.23 4.53465 -3.14759 0
M  V30 52992 H 5425.71 4.12758 -1.50092 0
M  V30 52993 H 5426.31 3.14996 -2.85758 0
M  V30 52994 N 5424.63 1.27348 0.928456 0
M  V30 52995 C 5426.04 1.12367 1.49099 0
M  V30 52996 C 5426.39 -0.291598 1.94021 0
M  V30 52997 O 5425.51 -1.18443 1.81108 0
M  V30 52998 C 5426.11 2.03368 2.70974 0
M  V30 52999 C 5424.67 1.92495 3.23454 0
M  V30 53000 C 5423.82 1.95968 1.96193 0
M  V30 53001 H 5426.77 1.40252 0.74264 0
M  V30 53002 H 5426.79 1.58904 3.45731 0
M  V30 53003 H 5426.3 3.06365 2.38249 0
M  V30 53004 H 5424.4 0.924803 3.60941 0
M  V30 53005 H 5424.51 2.78695 3.897 0
M  V30 53006 H 5422.88 1.40183 2.12652 0
M  V30 53007 H 5423.66 3.00618 1.65782 0
M  V30 53008 N 5426.11 -1.13484 1.09357 0
M  V30 53009 C 5427.35 -1.84098 0.824074 0
M  V30 53010 C 5427.67 -1.84395 -0.652521 0
M  V30 53011 O 5428.87 -2.50893 -1.03753 0
M  V30 53012 C 5427.33 -3.30518 1.42429 0
M  V30 53013 C 5426.94 -3.3861 2.93338 0
M  V30 53014 C 5428.68 -4.06177 1.23371 0
M  V30 53015 C 5426.59 -4.79299 3.46449 0
M  V30 53016 H 5425.52 -0.68973 0.304613 0
M  V30 53017 H 5428.17 -1.27861 1.3162 0
M  V30 53018 H 5426.55 -3.86552 0.859863 0
M  V30 53019 H 5427.73 -2.92575 3.56001 0
M  V30 53020 H 5426.04 -2.76415 3.11422 0
M  V30 53021 H 5428.64 -5.10041 1.60506 0
M  V30 53022 H 5428.98 -4.15935 0.174298 0
M  V30 53023 H 5429.51 -3.56471 1.7656 0
M  V30 53024 H 5426.25 -4.74732 4.52006 0
M  V30 53025 H 5425.77 -5.25832 2.88549 0
M  V30 53026 H 5427.45 -5.48215 3.43612 0
M  V30 53027 N 5427.58 -0.880667 -1.30698 0
M  V30 53028 C 5428.81 -0.511752 -2.00471 0
M  V30 53029 C 5429.23 0.898625 -1.66043 0
M  V30 53030 O 5428.58 1.59032 -0.895274 0
M  V30 53031 C 5428.63 -0.671848 -3.55202 0
M  V30 53032 O 5428.36 -2.02669 -3.88403 0
M  V30 53033 C 5429.86 -0.305356 -4.42247 0
M  V30 53034 H 5427.08 -0.198254 -0.641043 0
M  V30 53035 H 5429.62 -1.18478 -1.66683 0
M  V30 53036 H 5427.78 -0.0462428 -3.87372 0
M  V30 53037 H 5428.19 -2.04219 -4.83109 0
M  V30 53038 H 5429.66 -0.468289 -5.5001 0
M  V30 53039 H 5430.14 0.756304 -4.32639 0
M  V30 53040 H 5430.75 -0.907105 -4.15514 0
M  V30 53041 N 5429.06 1.43967 -0.641182 0
M  V30 53042 C 5430.29 2.06303 -0.157079 0
M  V30 53043 C 5430.7 1.47985 1.17243 0
M  V30 53044 O 5430.06 0.606531 1.72126 0
M  V30 53045 C 5430.11 3.61469 -0.0469695 0
M  V30 53046 O 5429.83 4.17617 -1.32391 0
M  V30 53047 C 5431.33 4.40858 0.46464 0
M  V30 53048 H 5428.55 0.665681 -0.084318 0
M  V30 53049 H 5431.1 1.84672 -0.878428 0
M  V30 53050 H 5429.25 3.82327 0.624872 0
M  V30 53051 H 5429.67 5.11163 -1.17527 0
M  V30 53052 H 5431.14 5.49815 0.490668 0
M  V30 53053 H 5431.62 4.13021 1.49365 0
M  V30 53054 H 5432.22 4.24943 -0.174296 0
M  V30 53055 N 5430.54 0.382345 1.52892 0
M  V30 53056 C 5431.77 -0.202335 2.05908 0
M  V30 53057 C 5432.18 -1.41085 1.25461 0
M  V30 53058 O 5431.54 -1.80026 0.299483 0
M  V30 53059 C 5431.59 -0.579327 3.56828 0
M  V30 53060 O 5431.31 0.581172 4.34228 0
M  V30 53061 C 5432.81 -1.22061 4.26164 0
M  V30 53062 H 5430.03 -0.0321624 0.670229 0
M  V30 53063 H 5432.58 0.545564 1.97088 0
M  V30 53064 H 5430.73 -1.27713 3.65743 0
M  V30 53065 H 5431.15 0.272877 5.2379 0
M  V30 53066 H 5432.62 -1.43482 5.33026 0
M  V30 53067 H 5433.1 -2.18592 3.80939 0
M  V30 53068 H 5433.7 -0.563774 4.21547 0
M  V30 53069 N 5432.02 -1.57202 0.111969 0
M  V30 53070 C 5433.25 -1.99299 -0.555643 0
M  V30 53071 C 5433.66 -0.991501 -1.6067 0
M  V30 53072 O 5433.02 0.0166031 -1.82492 0
M  V30 53073 C 5433.07 -3.41417 -1.18814 0
M  V30 53074 O 5432.79 -4.37734 -0.179107 0
M  V30 53075 C 5434.29 -3.98609 -1.93975 0
M  V30 53076 H 5431.51 -0.654549 -0.147672 0
M  V30 53077 H 5434.05 -2.03556 0.196234 0
M  V30 53078 H 5432.21 -3.38121 -1.89084 0
M  V30 53079 H 5432.62 -5.20608 -0.637752 0
M  V30 53080 H 5434.1 -5.00151 -2.33566 0
M  V30 53081 H 5434.57 -3.37359 -2.81222 0
M  V30 53082 H 5435.18 -4.05428 -1.28483 0
M  V30 53083 N 5433.5 0.161787 -1.56767 0
M  V30 53084 C 5434.72 0.892181 -1.86675 0
M  V30 53085 C 5435.14 1.75405 -0.698472 0
M  V30 53086 O 5434.5 1.79451 0.332188 0
M  V30 53087 C 5434.55 1.76109 -3.15702 0
M  V30 53088 O 5434.27 0.93398 -4.28029 0
M  V30 53089 C 5435.77 2.60034 -3.59023 0
M  V30 53090 H 5432.99 0.258725 -0.619114 0
M  V30 53091 H 5435.53 0.159017 -2.03881 0
M  V30 53092 H 5433.69 2.44749 -3.00295 0
M  V30 53093 H 5434.1 1.52913 -5.01715 0
M  V30 53094 H 5435.58 3.16602 -4.52181 0
M  V30 53095 H 5436.05 3.35364 -2.83598 0
M  V30 53096 H 5436.66 1.96711 -3.77074 0
M  V30 53097 N 5434.97 1.51602 0.430659 0
M  V30 53098 C 5436.22 1.64844 1.18128 0
M  V30 53099 C 5436.55 0.366792 1.90705 0
M  V30 53100 O 5435.83 -0.633915 1.8388 0
M  V30 53101 C 5436.11 2.85625 2.19296 0
M  V30 53102 C 5435.96 4.23783 1.50758 0
M  V30 53103 C 5437.28 3.01921 3.20206 0
M  V30 53104 H 5434.4 0.599922 0.428092 0
M  V30 53105 H 5437.04 1.84104 0.469665 0
M  V30 53106 H 5435.19 2.69335 2.79984 0
M  V30 53107 H 5436.87 4.51755 0.933551 0
M  V30 53108 H 5435.11 4.26174 0.809817 0
M  V30 53109 H 5435.78 5.04299 2.24469 0
M  V30 53110 H 5438.26 3.16966 2.69578 0
M  V30 53111 H 5437.13 3.87982 3.8828 0
M  V30 53112 H 5437.39 2.14284 3.86697 0
M  V30 53113 N 5436.45 -0.686534 1.41861 0
M  V30 53114 C 5437.68 -1.47514 1.45077 0
M  V30 53115 C 5438.09 -1.88709 0.0586531 0
M  V30 53116 O 5437.45 -1.57377 -0.92406 0
M  V30 53117 C 5437.5 -2.73186 2.36752 0
M  V30 53118 O 5437.22 -2.33723 3.70547 0
M  V30 53119 C 5438.72 -3.66852 2.48867 0
M  V30 53120 H 5435.94 -0.45429 0.493824 0
M  V30 53121 H 5438.49 -0.844547 1.86246 0
M  V30 53122 H 5436.64 -3.32461 1.98868 0
M  V30 53123 H 5437.06 -3.14794 4.1953 0
M  V30 53124 H 5438.53 -4.5179 3.17159 0
M  V30 53125 H 5439.01 -4.11956 1.52279 0
M  V30 53126 H 5439.61 -3.13476 2.87425 0
M  V30 53127 N 5437.93 -1.27838 -0.92169 0
M  V30 53128 C 5439.34 -1.13156 -1.48501 0
M  V30 53129 C 5439.69 0.281305 -1.94173 0
M  V30 53130 O 5438.82 1.17481 -1.81734 0
M  V30 53131 C 5439.41 -2.04802 -2.69892 0
M  V30 53132 C 5437.97 -1.94207 -3.22429 0
M  V30 53133 C 5437.12 -1.97006 -1.95151 0
M  V30 53134 H 5440.07 -1.40644 -0.735192 0
M  V30 53135 H 5440.09 -1.60736 -3.44883 0
M  V30 53136 H 5439.6 -3.07624 -2.3662 0
M  V30 53137 H 5437.7 -0.943931 -3.60445 0
M  V30 53138 H 5437.82 -2.80758 -3.88216 0
M  V30 53139 H 5436.18 -1.41309 -2.11906 0
M  V30 53140 H 5436.96 -3.01493 -1.64186 0
M  V30 53141 N 5439.41 1.12903 -1.09958 0
M  V30 53142 C 5440.64 1.88135 -0.860971 0
M  V30 53143 C 5441.05 1.79404 0.588193 0
M  V30 53144 O 5440.41 1.16447 1.40522 0
M  V30 53145 C 5440.46 3.37533 -1.29437 0
M  V30 53146 O 5440.18 3.46046 -2.6867 0
M  V30 53147 C 5441.68 4.29717 -1.08894 0
M  V30 53148 H 5438.9 0.595426 -0.309368 0
M  V30 53149 H 5441.45 1.42889 -1.46298 0
M  V30 53150 H 5439.6 3.80342 -0.736143 0
M  V30 53151 H 5440.01 4.38959 -2.8708 0
M  V30 53152 H 5441.49 5.32849 -1.44139 0
M  V30 53153 H 5441.97 4.39192 -0.0271597 0
M  V30 53154 H 5442.57 3.92684 -1.63339 0
M  V30 53155 N 5440.89 0.887586 1.30229 0
M  V30 53156 C 5442.3 0.557513 1.78182 0
M  V30 53157 C 5442.65 -0.926413 1.72951 0
M  V30 53158 O 5441.77 -1.72399 1.30796 0
M  V30 53159 C 5442.37 1.00524 3.23544 0
M  V30 53160 C 5440.93 0.726532 3.69322 0
M  V30 53161 C 5440.07 1.18675 2.50622 0
M  V30 53162 H 5443.03 1.07155 1.17062 0
M  V30 53163 H 5443.05 0.335319 3.7902 0
M  V30 53164 H 5442.56 2.08529 3.27318 0
M  V30 53165 H 5440.66 -0.341417 3.71032 0
M  V30 53166 H 5440.77 1.31592 4.60674 0
M  V30 53167 H 5439.14 0.606023 2.47385 0
M  V30 53168 H 5439.92 2.27459 2.57133 0
M  V30 53169 N 5442.36 -1.43625 0.648807 0
M  V30 53170 C 5443.59 -2.06217 0.168017 0
M  V30 53171 C 5444.01 -1.48604 -1.16457 0
M  V30 53172 O 5443.36 -0.615651 -1.71802 0
M  V30 53173 C 5443.42 -3.61439 0.0661385 0
M  V30 53174 O 5443.14 -4.16909 1.34604 0
M  V30 53175 C 5444.64 -4.41098 -0.441253 0
M  V30 53176 H 5441.86 -0.665225 0.0878471 0
M  V30 53177 H 5444.4 -1.84204 0.888209 0
M  V30 53178 H 5442.56 -3.82653 -0.604588 0
M  V30 53179 H 5442.97 -5.10533 1.20236 0
M  V30 53180 H 5444.44 -5.50067 -0.461503 0
M  V30 53181 H 5444.92 -4.13808 -1.47173 0
M  V30 53182 H 5445.53 -4.24844 0.196829 0
M  V30 53183 N 5443.84 -0.390448 -1.52687 0
M  V30 53184 C 5445.25 0.0833284 -1.86514 0
M  V30 53185 C 5445.6 1.46053 -1.31008 0
M  V30 53186 O 5444.73 2.06661 -0.641881 0
M  V30 53187 C 5445.32 0.157983 -3.38431 0
M  V30 53188 C 5443.88 0.576055 -3.71966 0
M  V30 53189 C 5443.03 -0.261253 -2.76067 0
M  V30 53190 H 5445.98 -0.608277 -1.4658 0
M  V30 53191 H 5446 0.976894 -3.67746 0
M  V30 53192 H 5445.51 -0.844498 -3.78801 0
M  V30 53193 H 5443.62 1.58586 -3.37166 0
M  V30 53194 H 5443.73 0.333409 -4.77938 0
M  V30 53195 H 5442.09 0.273648 -2.53226 0
M  V30 53196 H 5442.88 -1.26173 -3.19273 0
M  V30 53197 N 5445.32 1.5714 -0.120304 0
M  V30 53198 C 5446.55 1.99591 0.545066 0
M  V30 53199 C 5446.96 1.00001 1.60141 0
M  V30 53200 O 5446.32 -0.00692482 1.82499 0
M  V30 53201 C 5446.37 3.42042 1.17002 0
M  V30 53202 O 5446.09 4.37823 0.15589 0
M  V30 53203 C 5447.59 3.99632 1.91858 0
M  V30 53204 H 5444.81 0.655323 0.144199 0
M  V30 53205 H 5447.36 2.03449 -0.207027 0
M  V30 53206 H 5445.51 3.39119 1.87288 0
M  V30 53207 H 5445.93 5.20939 0.610134 0
M  V30 53208 H 5447.4 5.01382 2.30911 0
M  V30 53209 H 5447.88 3.38846 2.79428 0
M  V30 53210 H 5448.48 4.06104 1.26331 0
M  V30 53211 N 5446.8 -0.153471 1.56851 0
M  V30 53212 C 5448.05 -0.865455 1.82632 0
M  V30 53213 C 5448.37 -1.81996 0.700169 0
M  V30 53214 O 5447.64 -1.93908 -0.278675 0
M  V30 53215 H 5446.22 -0.322586 0.673756 0
M  V30 53216 H 5448.88 -0.14902 1.94329 0
M  V30 53217 H 5447.98 -1.43161 2.77329 0
M  V30 53218 N 5448.28 -1.51828 -0.422613 0
M  V30 53219 C 5449.5 -1.69053 -1.19285 0
M  V30 53220 C 5449.92 -0.39416 -1.8464 0
M  V30 53221 O 5449.28 0.628671 -1.7133 0
M  V30 53222 C 5449.33 -2.81665 -2.26599 0
M  V30 53223 O 5449.05 -4.0628 -1.63914 0
M  V30 53224 C 5450.55 -3.10285 -3.16604 0
M  V30 53225 H 5447.77 -0.566906 -0.358968 0
M  V30 53226 H 5450.31 -1.9832 -0.49896 0
M  V30 53227 H 5448.47 -2.54955 -2.91679 0
M  V30 53228 H 5448.88 -4.68932 -2.34953 0
M  V30 53229 H 5450.36 -3.92627 -3.88005 0
M  V30 53230 H 5450.83 -2.23286 -3.78206 0
M  V30 53231 H 5451.44 -3.38709 -2.57209 0
M  V30 53232 N 5449.75 0.679002 -1.42223 0
M  V30 53233 C 5450.69 1.8045 -1.41317 0
M  V30 53234 C 5451.7 1.59766 -0.312855 0
M  V30 53235 O 5452.89 1.68962 -0.575671 0
M  V30 53236 C 5449.99 3.17488 -1.18553 0
M  V30 53237 C 5449.16 3.65058 -2.40939 0
M  V30 53238 C 5448.22 4.80816 -2.13782 0
M  V30 53239 O 5447.25 4.91577 -2.86951 0
M  V30 53240 N 5448.45 5.69229 -1.13833 0
M  V30 53241 H 5451.21 1.81713 -2.38328 0
M  V30 53242 H 5448.77 0.86194 -1.37048 0
M  V30 53243 H 5450.77 3.92578 -0.983096 0
M  V30 53244 H 5449.34 3.11149 -0.300801 0
M  V30 53245 H 5448.56 2.80692 -2.76777 0
M  V30 53246 H 5449.84 3.93582 -3.22445 0
M  V30 53247 H 5449.24 5.63183 -0.533085 0
M  V30 53248 H 5447.8 6.44149 -0.995781 0
M  V30 53249 N 5451.23 1.28325 0.914897 0
M  V30 53250 C 5452.46 1.1826 1.69771 0
M  V30 53251 C 5452.88 -0.258912 1.87016 0
M  V30 53252 O 5452.23 -1.1751 1.39634 0
M  V30 53253 C 5452.28 1.87541 3.09048 0
M  V30 53254 O 5452 3.26062 2.92601 0
M  V30 53255 C 5453.51 1.83763 4.03418 0
M  V30 53256 H 5450.73 0.410569 0.53073 0
M  V30 53257 H 5453.27 1.69429 1.14517 0
M  V30 53258 H 5451.42 1.40245 3.61123 0
M  V30 53259 H 5451.84 3.60742 3.80743 0
M  V30 53260 H 5453.31 2.36831 4.98613 0
M  V30 53261 H 5453.79 0.809753 4.31671 0
M  V30 53262 H 5454.4 2.30733 3.57271 0
M  V30 53263 N 5452.71 -1.12318 1.10555 0
M  V30 53264 C 5454.12 -1.65387 0.866258 0
M  V30 53265 C 5454.47 -1.86697 -0.603218 0
M  V30 53266 O 5453.6 -1.59437 -1.46317 0
M  V30 53267 C 5454.19 -3.00438 1.56597 0
M  V30 53268 C 5452.75 -3.50451 1.37335 0
M  V30 53269 C 5451.9 -2.25449 1.61457 0
M  V30 53270 H 5454.85 -0.960821 1.26309 0
M  V30 53271 H 5454.87 -3.66969 1.0057 0
M  V30 53272 H 5454.38 -2.84896 2.63545 0
M  V30 53273 H 5452.48 -3.71175 0.325562 0
M  V30 53274 H 5452.6 -4.29832 2.11616 0
M  V30 53275 H 5450.96 -2.32617 1.03737 0
M  V30 53276 H 5451.74 -2.1246 2.69659 0
M  V30 53277 N 5454.19 -0.89448 -1.29757 0
M  V30 53278 C 5455.42 -0.532986 -1.99917 0
M  V30 53279 C 5455.83 0.880964 -1.66986 0
M  V30 53280 O 5455.19 1.58073 -0.912091 0
M  V30 53281 C 5455.24 -0.709484 -3.54469 0
M  V30 53282 O 5454.96 -2.06778 -3.86231 0
M  V30 53283 C 5456.46 -0.352245 -4.41898 0
M  V30 53284 H 5453.68 -0.205042 -0.638904 0
M  V30 53285 H 5456.23 -1.20239 -1.65417 0
M  V30 53286 H 5454.38 -0.0873262 -3.87302 0
M  V30 53287 H 5454.8 -2.09332 -4.80916 0
M  V30 53288 H 5456.27 -0.526598 -5.49482 0
M  V30 53289 H 5456.75 0.710374 -4.33417 0
M  V30 53290 H 5457.35 -0.951125 -4.14528 0
M  V30 53291 N 5455.67 1.43279 -0.656415 0
M  V30 53292 C 5456.9 2.06125 -0.178951 0
M  V30 53293 C 5457.31 1.4922 1.15667 0
M  V30 53294 O 5456.67 0.624753 1.71473 0
M  V30 53295 C 5456.72 3.61399 -0.0853056 0
M  V30 53296 O 5456.44 4.1619 -1.36813 0
M  V30 53297 C 5457.94 4.41326 0.417855 0
M  V30 53298 H 5455.16 0.664749 -0.0913737 0
M  V30 53299 H 5457.7 1.8373 -0.897965 0
M  V30 53300 H 5455.86 3.82968 0.584286 0
M  V30 53301 H 5456.27 5.09888 -1.22942 0
M  V30 53302 H 5457.75 5.50304 0.432326 0
M  V30 53303 H 5458.22 4.14582 1.44976 0
M  V30 53304 H 5458.83 4.24734 -0.219357 0
M  V30 53305 N 5457.15 0.398539 1.52478 0
M  V30 53306 C 5458.37 -0.180485 2.06111 0
M  V30 53307 C 5458.79 -1.39747 1.2695 0
M  V30 53308 O 5458.15 -1.79698 0.318561 0
M  V30 53309 C 5458.2 -0.541448 3.57422 0
M  V30 53310 O 5457.92 0.627195 4.33587 0
M  V30 53311 C 5459.42 -1.17534 4.27435 0
M  V30 53312 H 5456.64 -0.0250519 0.670532 0
M  V30 53313 H 5459.18 0.566437 1.96499 0
M  V30 53314 H 5457.34 -1.23826 3.67077 0
M  V30 53315 H 5457.75 0.328417 5.23471 0
M  V30 53316 H 5459.23 -1.3782 5.34518 0
M  V30 53317 H 5459.7 -2.14539 3.83236 0
M  V30 53318 H 5460.31 -0.519031 4.22121 0
M  V30 53319 N 5458.62 -1.57074 0.128636 0
M  V30 53320 C 5460.03 -1.82469 -0.395195 0
M  V30 53321 C 5460.39 -1.04635 -1.65969 0
M  V30 53322 O 5459.51 -0.285911 -2.14503 0
M  V30 53323 C 5460.11 -3.30979 -0.723773 0
M  V30 53324 C 5458.66 -3.5702 -1.1922 0
M  V30 53325 C 5457.81 -2.76535 -0.20581 0
M  V30 53326 H 5460.76 -1.5471 0.353625 0
M  V30 53327 H 5460.78 -3.46133 -1.58027 0
M  V30 53328 H 5460.3 -3.87601 0.196731 0
M  V30 53329 H 5458.4 -3.05766 -2.12927 0
M  V30 53330 H 5458.51 -4.65562 -1.13086 0
M  V30 53331 H 5456.87 -2.4504 -0.694785 0
M  V30 53332 H 5457.66 -3.35921 0.707961 0
M  V30 53333 N 5460.1 0.14515 -1.5693 0
M  V30 53334 C 5461.35 0.855891 -1.8264 0
M  V30 53335 C 5461.66 1.82252 -0.710173 0
M  V30 53336 O 5462.87 2.57755 -0.852927 0
M  V30 53337 C 5461.33 1.57267 -3.23721 0
M  V30 53338 C 5460.93 0.648351 -4.43284 0
M  V30 53339 C 5462.68 2.27008 -3.58702 0
M  V30 53340 C 5460.58 1.36686 -5.75388 0
M  V30 53341 H 5459.51 0.323361 -0.681141 0
M  V30 53342 H 5462.17 0.108626 -1.83178 0
M  V30 53343 H 5460.55 2.36563 -3.17575 0
M  V30 53344 H 5461.72 -0.109516 -4.6067 0
M  V30 53345 H 5460.04 0.0592566 -4.16358 0
M  V30 53346 H 5462.63 2.81407 -4.54658 0
M  V30 53347 H 5462.98 3.03588 -2.8485 0
M  V30 53348 H 5463.51 1.54629 -3.66517 0
M  V30 53349 H 5460.25 0.64287 -6.5234 0
M  V30 53350 H 5459.77 2.09739 -5.61934 0
M  V30 53351 H 5461.45 1.90726 -6.1825 0
M  V30 53352 N 5461.58 1.5205 0.414556 0
M  V30 53353 C 5462.81 1.69683 1.18386 0
M  V30 53354 C 5463.22 0.403946 1.84428 0
M  V30 53355 O 5462.58 -0.619576 1.71661 0
M  V30 53356 C 5462.63 2.82863 2.25102 0
M  V30 53357 O 5462.35 4.07144 1.61757 0
M  V30 53358 C 5463.85 3.1196 3.14954 0
M  V30 53359 H 5461.07 0.568802 0.355957 0
M  V30 53360 H 5463.62 1.98581 0.488435 0
M  V30 53361 H 5461.77 2.56499 2.90323 0
M  V30 53362 H 5462.19 4.70172 2.32463 0
M  V30 53363 H 5463.66 3.94679 3.85918 0
M  V30 53364 H 5464.14 2.25289 3.77017 0
M  V30 53365 H 5464.74 3.40068 2.55409 0
M  V30 53366 N 5463.06 -0.67145 1.42581 0
M  V30 53367 C 5464.29 -1.45966 1.46634 0
M  V30 53368 C 5464.7 -1.88636 0.0786649 0
M  V30 53369 O 5464.06 -1.58348 -0.907316 0
M  V30 53370 C 5464.11 -2.7066 2.39636 0
M  V30 53371 O 5463.83 -2.2978 3.73005 0
M  V30 53372 C 5465.33 -3.64192 2.52744 0
M  V30 53373 H 5462.55 -0.449027 0.498614 0
M  V30 53374 H 5465.09 -0.824745 1.87132 0
M  V30 53375 H 5463.25 -3.30333 2.02383 0
M  V30 53376 H 5463.66 -3.10327 4.22845 0
M  V30 53377 H 5465.14 -4.484 3.21933 0
M  V30 53378 H 5465.61 -4.10318 1.5664 0
M  V30 53379 H 5466.22 -3.1041 2.90733 0
M  V30 53380 N 5464.54 -1.28809 -0.908079 0
M  V30 53381 C 5465.76 -1.19159 -1.69141 0
M  V30 53382 C 5466.18 0.24899 -1.87151 0
M  V30 53383 O 5465.54 1.16767 -1.40256 0
M  V30 53384 C 5465.59 -1.89178 -3.08049 0
M  V30 53385 O 5465.31 -3.27609 -2.90868 0
M  V30 53386 C 5466.81 -1.859 -4.02438 0
M  V30 53387 H 5464.03 -0.413378 -0.528545 0
M  V30 53388 H 5466.57 -1.70034 -1.13616 0
M  V30 53389 H 5464.73 -1.42159 -3.60374 0
M  V30 53390 H 5465.14 -3.62756 -3.78825 0
M  V30 53391 H 5466.62 -2.39472 -4.9735 0
M  V30 53392 H 5467.09 -0.832634 -4.31235 0
M  V30 53393 H 5467.7 -2.32624 -3.56042 0
M  V30 53394 N 5466.01 1.1173 -1.11149 0
M  V30 53395 C 5467.24 1.87212 -0.880877 0
M  V30 53396 C 5467.66 1.80018 0.569131 0
M  V30 53397 O 5467.01 1.1793 1.39279 0
M  V30 53398 C 5467.06 3.36141 -1.3301 0
M  V30 53399 O 5466.79 3.43177 -2.72325 0
M  V30 53400 C 5468.29 4.28538 -1.13446 0
M  V30 53401 H 5465.51 0.592112 -0.315666 0
M  V30 53402 H 5468.05 1.41329 -1.47805 0
M  V30 53403 H 5466.21 3.79539 -0.776442 0
M  V30 53404 H 5466.62 4.3589 -2.9172 0
M  V30 53405 H 5468.09 5.3129 -1.49783 0
M  V30 53406 H 5468.57 4.39138 -0.0737403 0
M  V30 53407 H 5469.18 3.90929 -1.67494 0
M  V30 53408 N 5467.49 0.901349 1.29281 0
M  V30 53409 C 5468.72 0.543581 1.99632 0
M  V30 53410 C 5469.13 -0.872096 1.67451 0
M  V30 53411 O 5468.49 -1.57587 0.920461 0
M  V30 53412 C 5468.54 0.728273 3.54088 0
M  V30 53413 O 5468.26 2.08823 3.85129 0
M  V30 53414 C 5469.76 0.375675 4.41705 0
M  V30 53415 H 5466.98 0.208427 0.637808 0
M  V30 53416 H 5469.53 1.21115 1.64777 0
M  V30 53417 H 5467.68 0.107865 3.8725 0
M  V30 53418 H 5468.1 2.11879 4.79799 0
M  V30 53419 H 5469.57 0.555731 5.49195 0
M  V30 53420 H 5470.05 -0.687379 4.33788 0
M  V30 53421 H 5470.65 0.973095 4.14018 0
M  V30 53422 N 5468.97 -1.42929 0.664004 0
M  V30 53423 C 5470.22 -2.01981 0.182078 0
M  V30 53424 C 5470.55 -1.52327 -1.20458 0
M  V30 53425 O 5469.82 -0.720897 -1.80647 0
M  V30 53426 C 5470.11 -3.59517 0.204798 0
M  V30 53427 C 5469.96 -4.19377 1.62614 0
M  V30 53428 C 5471.28 -4.37763 -0.452926 0
M  V30 53429 H 5468.4 -0.73389 0.0676373 0
M  V30 53430 H 5471.04 -1.70089 0.84674 0
M  V30 53431 H 5469.19 -3.86818 -0.361159 0
M  V30 53432 H 5470.86 -4.03068 2.24351 0
M  V30 53433 H 5469.11 -3.75616 2.17014 0
M  V30 53434 H 5469.78 -5.2849 1.59381 0
M  V30 53435 H 5472.25 -4.1609 0.0287237 0
M  V30 53436 H 5471.13 -5.47394 -0.406346 0
M  V30 53437 H 5471.39 -4.14825 -1.52881 0
M  V30 53438 N 5470.45 -0.40662 -1.52264 0
M  V30 53439 C 5471.68 0.169552 -2.06204 0
M  V30 53440 C 5472.09 1.39072 -1.27689 0
M  V30 53441 O 5471.45 1.79527 -0.328086 0
M  V30 53442 C 5471.5 0.522485 -3.57704 0
M  V30 53443 O 5471.22 -0.650181 -4.33248 0
M  V30 53444 C 5472.72 1.15266 -4.28052 0
M  V30 53445 H 5469.94 0.0214955 -0.670656 0
M  V30 53446 H 5472.49 -0.57685 -1.96196 0
M  V30 53447 H 5470.64 1.21878 -3.67729 0
M  V30 53448 H 5471.05 -0.356173 -5.23289 0
M  V30 53449 H 5472.53 1.34984 -5.35241 0
M  V30 53450 H 5473.01 2.12504 -3.84368 0
M  V30 53451 H 5473.61 0.496638 -4.2239 0
M  V30 53452 N 5471.93 1.57004 -0.136964 0
M  V30 53453 C 5473.34 1.82676 0.385513 0
M  V30 53454 C 5473.69 1.05514 1.65412 0
M  V30 53455 O 5472.81 0.297282 2.14348 0
M  V30 53456 C 5473.41 3.31358 0.70621 0
M  V30 53457 C 5471.97 3.57648 1.17325 0
M  V30 53458 C 5471.11 2.7664 0.191142 0
M  V30 53459 H 5474.07 1.5452 -0.361825 0
M  V30 53460 H 5474.09 3.46966 1.56189 0
M  V30 53461 H 5473.6 3.87491 -0.217284 0
M  V30 53462 H 5471.7 3.06891 2.11303 0
M  V30 53463 H 5471.81 4.66156 1.10616 0
M  V30 53464 H 5470.18 2.45405 0.681781 0
M  V30 53465 H 5470.96 3.35541 -0.725765 0
M  V30 53466 N 5473.4 -0.136826 1.57005 0
M  V30 53467 C 5474.63 -0.86237 1.88071 0
M  V30 53468 C 5475.05 -1.74271 0.726289 0
M  V30 53469 O 5474.4 -1.79957 -0.303597 0
M  V30 53470 C 5474.46 -1.71064 3.18464 0
M  V30 53471 O 5474.18 -0.865767 4.2946 0
M  V30 53472 C 5475.68 -2.54289 3.63114 0
M  V30 53473 H 5472.9 -0.248843 0.623152 0
M  V30 53474 H 5475.44 -0.126562 2.04108 0
M  V30 53475 H 5473.6 -2.3994 3.0415 0
M  V30 53476 H 5474.01 -1.44912 5.04084 0
M  V30 53477 H 5475.48 -3.09368 4.5716 0
M  V30 53478 H 5475.96 -3.3081 2.88897 0
M  V30 53479 H 5476.57 -1.90687 3.80156 0
M  V30 53480 N 5474.88 -1.52268 -0.406486 0
M  V30 53481 C 5476.29 -1.58591 -0.985186 0
M  V30 53482 C 5476.64 -0.428022 -1.91474 0
M  V30 53483 O 5475.77 0.451266 -2.11642 0
M  V30 53484 C 5476.36 -2.87432 -1.79355 0
M  V30 53485 C 5474.92 -2.96225 -2.32223 0
M  V30 53486 C 5474.07 -2.53552 -1.12279 0
M  V30 53487 H 5477.02 -1.57599 -0.186629 0
M  V30 53488 H 5477.04 -2.72934 -2.65117 0
M  V30 53489 H 5476.55 -3.71686 -1.11674 0
M  V30 53490 H 5474.66 -2.16471 -3.03267 0
M  V30 53491 H 5474.77 -4.0052 -2.62907 0
M  V30 53492 H 5473.13 -2.07462 -1.47756 0
M  V30 53493 H 5473.92 -3.40182 -0.461612 0
M  V30 53494 N 5476.36 0.663879 -1.42935 0
M  V30 53495 C 5477.59 1.45187 -1.47406 0
M  V30 53496 C 5478 1.88592 -0.0886677 0
M  V30 53497 O 5477.36 1.58827 0.898906 0
M  V30 53498 C 5477.41 2.69385 -2.41068 0
M  V30 53499 O 5477.13 2.27799 -3.74218 0
M  V30 53500 C 5478.63 3.62846 -2.54671 0
M  V30 53501 H 5475.85 0.446376 -0.500988 0
M  V30 53502 H 5478.4 0.81481 -1.87566 0
M  V30 53503 H 5476.55 3.29255 -2.04132 0
M  V30 53504 H 5476.97 3.0808 -4.24485 0
M  V30 53505 H 5478.44 4.46687 -3.24307 0
M  V30 53506 H 5478.92 4.09481 -1.58814 0
M  V30 53507 H 5479.52 3.08864 -2.92375 0
M  V30 53508 N 5477.84 1.29288 0.901235 0
M  V30 53509 C 5479.25 1.15504 1.46682 0
M  V30 53510 C 5479.6 -0.250378 1.94596 0
M  V30 53511 O 5478.73 -1.14575 1.8358 0
M  V30 53512 C 5479.32 2.0907 2.666 0
M  V30 53513 C 5477.88 1.99312 3.19299 0
M  V30 53514 C 5477.03 2.00086 1.91992 0
M  V30 53515 H 5479.98 1.41795 0.712723 0
M  V30 53516 H 5480 1.66202 3.42282 0
M  V30 53517 H 5479.51 3.11349 2.31696 0
M  V30 53518 H 5477.61 1.00116 3.58898 0
M  V30 53519 H 5477.72 2.86899 3.837 0
M  V30 53520 H 5476.09 1.44662 2.09631 0
M  V30 53521 H 5476.87 3.04067 1.59368 0
M  V30 53522 N 5479.32 -1.11139 1.1174 0
M  V30 53523 C 5480.54 -1.86742 0.890792 0
M  V30 53524 C 5480.96 -1.80317 -0.559577 0
M  V30 53525 O 5480.32 -1.18667 -1.38652 0
M  V30 53526 C 5480.37 -3.35431 1.3479 0
M  V30 53527 O 5480.09 -3.41728 2.74141 0
M  V30 53528 C 5481.59 -4.27931 1.15717 0
M  V30 53529 H 5478.81 -0.590429 0.318802 0
M  V30 53530 H 5481.35 -1.40544 1.48552 0
M  V30 53531 H 5479.51 -3.79122 0.796559 0
M  V30 53532 H 5479.92 -4.34336 2.94028 0
M  V30 53533 H 5481.4 -5.30488 1.52598 0
M  V30 53534 H 5481.87 -4.39093 0.0970278 0
M  V30 53535 H 5482.48 -3.90036 1.69565 0
M  V30 53536 N 5480.79 -0.908192 -1.28801 0
M  V30 53537 C 5482.04 -0.537409 -1.94824 0
M  V30 53538 C 5482.36 0.920902 -1.71885 0
M  V30 53539 O 5481.63 1.6504 -1.0554 0
M  V30 53540 H 5480.21 -0.195754 -0.720895 0
M  V30 53541 H 5482.88 -1.15634 -1.56891 0
M  V30 53542 H 5481.97 -0.727158 -3.03511 0
M  V30 53543 N 5482.27 1.42575 -0.671575 0
M  V30 53544 C 5483.5 2.05923 -0.200803 0
M  V30 53545 C 5483.92 1.50438 1.14078 0
M  V30 53546 O 5483.27 0.642905 1.70801 0
M  V30 53547 C 5483.32 3.61289 -0.123632 0
M  V30 53548 O 5483.04 4.14715 -1.4122 0
M  V30 53549 C 5484.55 4.41745 0.371023 0
M  V30 53550 H 5481.77 0.663743 -0.0984191 0
M  V30 53551 H 5484.31 1.82768 -0.917402 0
M  V30 53552 H 5482.46 3.83567 0.543634 0
M  V30 53553 H 5482.88 5.08555 -1.28343 0
M  V30 53554 H 5484.35 5.50732 0.373934 0
M  V30 53555 H 5484.83 4.16097 1.40571 0
M  V30 53556 H 5485.44 4.24477 -0.264393 0
M  V30 53557 N 5483.75 0.414689 1.52046 0
M  V30 53558 C 5484.68 -0.443522 2.24868 0
M  V30 53559 C 5485.7 -1.00552 1.28036 0
M  V30 53560 O 5486.89 -0.903512 1.53944 0
M  V30 53561 C 5483.99 -1.62994 2.9713 0
M  V30 53562 C 5483.16 -1.19085 4.20877 0
M  V30 53563 C 5482.22 -2.2448 4.75915 0
M  V30 53564 O 5481.24 -1.84842 5.38351 0
M  V30 53565 N 5482.45 -3.5671 4.57971 0
M  V30 53566 H 5485.21 0.180498 2.99156 0
M  V30 53567 H 5482.77 0.242361 1.60076 0
M  V30 53568 H 5484.76 -2.33078 3.30843 0
M  V30 53569 H 5483.33 -2.15976 2.25993 0
M  V30 53570 H 5482.55 -0.317921 3.92916 0
M  V30 53571 H 5483.84 -0.874523 5.01228 0
M  V30 53572 H 5483.24 -3.91661 4.08189 0
M  V30 53573 H 5481.8 -4.22754 4.96107 0
M  V30 53574 N 5485.23 -1.56929 0.145288 0
M  V30 53575 C 5486.46 -2.00433 -0.513244 0
M  V30 53576 C 5486.87 -1.02536 -1.5853 0
M  V30 53577 O 5486.23 -0.02211 -1.82487 0
M  V30 53578 C 5486.28 -3.4386 -1.11545 0
M  V30 53579 O 5486 -4.38015 -0.0862167 0
M  V30 53580 C 5487.5 -4.02633 -1.85476 0
M  V30 53581 H 5484.72 -0.657534 -0.133755 0
M  V30 53582 H 5487.27 -2.03094 0.239367 0
M  V30 53583 H 5485.42 -3.42056 -1.81869 0
M  V30 53584 H 5485.84 -5.21844 -0.52718 0
M  V30 53585 H 5487.31 -5.04993 -2.22905 0
M  V30 53586 H 5487.79 -3.43248 -2.74002 0
M  V30 53587 H 5488.39 -4.08063 -1.19854 0
M  V30 53588 N 5486.71 0.128498 -1.57075 0
M  V30 53589 C 5488.12 0.686652 -1.73614 0
M  V30 53590 C 5488.47 1.80775 -0.762542 0
M  V30 53591 O 5487.59 2.16297 0.0667019 0
M  V30 53592 C 5488.19 1.25235 -3.14804 0
M  V30 53593 C 5486.75 1.75689 -3.32882 0
M  V30 53594 C 5485.9 0.652749 -2.69508 0
M  V30 53595 H 5488.85 -0.0973416 -1.58401 0
M  V30 53596 H 5488.87 2.12209 -3.15829 0
M  V30 53597 H 5488.38 0.436173 -3.85641 0
M  V30 53598 H 5486.48 2.59814 -2.67072 0
M  V30 53599 H 5486.59 1.87287 -4.40977 0
M  V30 53600 H 5484.96 1.084 -2.30481 0
M  V30 53601 H 5485.74 -0.152291 -3.42962 0
M  V30 53602 N 5488.19 1.52481 0.398405 0
M  V30 53603 C 5489.41 1.70929 1.1658 0
M  V30 53604 C 5489.83 0.423485 1.83989 0
M  V30 53605 O 5489.19 -0.601334 1.72309 0
M  V30 53606 C 5489.24 2.85234 2.22089 0
M  V30 53607 O 5488.96 4.08837 1.5743 0
M  V30 53608 C 5490.46 3.15283 3.11628 0
M  V30 53609 H 5487.68 0.572545 0.349904 0
M  V30 53610 H 5490.22 1.99088 0.467346 0
M  V30 53611 H 5488.38 2.59564 2.87586 0
M  V30 53612 H 5488.79 4.72611 2.27463 0
M  V30 53613 H 5490.27 3.9875 3.8171 0
M  V30 53614 H 5490.74 2.29275 3.74606 0
M  V30 53615 H 5491.35 3.42758 2.51788 0
M  V30 53616 N 5489.66 -0.656289 1.43285 0
M  V30 53617 C 5490.89 -1.44403 1.48173 0
M  V30 53618 C 5491.31 -1.88542 0.0986679 0
M  V30 53619 O 5490.66 -1.59301 -0.890471 0
M  V30 53620 C 5490.71 -2.68103 2.42494 0
M  V30 53621 O 5490.44 -2.25811 3.75421 0
M  V30 53622 C 5491.94 -3.6149 2.56592 0
M  V30 53623 H 5489.16 -0.443713 0.503349 0
M  V30 53624 H 5491.7 -0.804851 1.87996 0
M  V30 53625 H 5489.86 -3.28168 2.05875 0
M  V30 53626 H 5490.27 -3.05824 4.26112 0
M  V30 53627 H 5491.74 -4.44961 3.26671 0
M  V30 53628 H 5492.22 -4.08633 1.60983 0
M  V30 53629 H 5492.83 -3.07309 2.94009 0
M  V30 53630 N 5491.14 -1.29765 -0.894366 0
M  V30 53631 C 5492.37 -1.20946 -1.67868 0
M  V30 53632 C 5492.78 0.229127 -1.87405 0
M  V30 53633 O 5492.14 1.15273 -1.41486 0
M  V30 53634 C 5492.19 -1.92434 -3.06025 0
M  V30 53635 O 5491.91 -3.30675 -2.87377 0
M  V30 53636 C 5493.41 -1.90158 -4.00443 0
M  V30 53637 H 5490.63 -0.418961 -0.524131 0
M  V30 53638 H 5493.18 -1.71229 -1.11807 0
M  V30 53639 H 5491.33 -1.45973 -3.58846 0
M  V30 53640 H 5491.75 -3.66754 -3.74956 0
M  V30 53641 H 5493.22 -2.44733 -4.94782 0
M  V30 53642 H 5493.7 -0.878326 -4.30328 0
M  V30 53643 H 5494.3 -2.36387 -3.53555 0
M  V30 53644 N 5492.62 1.10545 -1.12328 0
M  V30 53645 C 5494.03 1.63988 -0.89246 0
M  V30 53646 C 5494.38 1.87633 0.57344 0
M  V30 53647 O 5493.51 1.61745 1.43762 0
M  V30 53648 C 5494.1 2.97908 -1.61357 0
M  V30 53649 C 5492.66 3.48222 -1.42893 0
M  V30 53650 C 5491.81 2.22851 -1.65023 0
M  V30 53651 H 5494.76 0.940605 -1.27821 0
M  V30 53652 H 5494.78 3.65322 -1.06395 0
M  V30 53653 H 5494.29 2.80667 -2.68044 0
M  V30 53654 H 5492.39 3.7061 -0.384571 0
M  V30 53655 H 5492.51 4.26411 -2.18428 0
M  V30 53656 H 5490.87 2.30937 -1.07425 0
M  V30 53657 H 5491.65 2.08143 -2.73005 0
M  V30 53658 N 5494.1 0.91501 1.28317 0
M  V30 53659 C 5495.35 0.544707 1.94206 0
M  V30 53660 C 5495.66 -0.916307 1.7281 0
M  V30 53661 O 5496.87 -1.39482 2.32931 0
M  V30 53662 C 5495.32 0.923331 3.47854 0
M  V30 53663 C 5494.93 2.40416 3.78027 0
M  V30 53664 C 5496.67 0.623674 4.19894 0
M  V30 53665 C 5494.58 2.72285 5.24991 0
M  V30 53666 H 5493.51 0.199991 0.726993 0
M  V30 53667 H 5496.16 1.1141 1.45808 0
M  V30 53668 H 5494.54 0.282714 3.9499 0
M  V30 53669 H 5495.72 3.09161 3.41695 0
M  V30 53670 H 5494.03 2.6744 3.19162 0
M  V30 53671 H 5496.63 0.838429 5.28086 0
M  V30 53672 H 5496.97 -0.438575 4.13983 0
M  V30 53673 H 5497.51 1.22281 3.78539 0
M  V30 53674 H 5494.24 3.77368 5.35979 0
M  V30 53675 H 5493.76 2.08177 5.62514 0
M  V30 53676 H 5495.44 2.59355 5.92743 0
M  V30 53677 N 5495.58 -1.42217 0.679127 0
M  V30 53678 C 5496.8 -2.05814 0.211721 0
M  V30 53679 C 5497.22 -1.51041 -1.13278 0
M  V30 53680 O 5496.58 -0.651954 -1.70458 0
M  V30 53681 C 5496.63 -3.61218 0.14279 0
M  V30 53682 O 5496.35 -4.1396 1.43417 0
M  V30 53683 C 5497.85 -4.41935 -0.347591 0
M  V30 53684 H 5495.07 -0.663212 0.101938 0
M  V30 53685 H 5497.61 -1.82278 0.927082 0
M  V30 53686 H 5495.77 -3.8385 -0.523285 0
M  V30 53687 H 5496.18 -5.07867 1.31038 0
M  V30 53688 H 5497.66 -5.50923 -0.344722 0
M  V30 53689 H 5498.13 -4.16836 -1.38362 0
M  V30 53690 H 5498.74 -4.24331 0.286901 0
M  V30 53691 N 5497.05 -0.422747 -1.51824 0
M  V30 53692 C 5498.28 0.147671 -2.06372 0
M  V30 53693 C 5498.7 1.37709 -1.29157 0
M  V30 53694 O 5498.05 1.79169 -0.347109 0
M  V30 53695 C 5498.1 0.484516 -3.58238 0
M  V30 53696 O 5497.83 -0.696096 -4.32535 0
M  V30 53697 C 5499.33 1.10719 -4.29251 0
M  V30 53698 H 5496.55 0.0143811 -0.670846 0
M  V30 53699 H 5499.09 -0.597626 -1.95573 0
M  V30 53700 H 5497.25 1.17971 -3.69001 0
M  V30 53701 H 5497.66 -0.411655 -5.22882 0
M  V30 53702 H 5499.13 1.29299 -5.36643 0
M  V30 53703 H 5499.61 2.08415 -3.866 0
M  V30 53704 H 5500.22 0.45181 -4.22893 0
M  V30 53705 N 5498.53 1.5685 -0.153609 0
M  V30 53706 C 5499.76 2.00702 0.502607 0
M  V30 53707 C 5500.18 1.03375 1.57984 0
M  V30 53708 O 5499.53 0.0317874 1.82472 0
M  V30 53709 C 5499.58 3.44447 1.0972 0
M  V30 53710 O 5499.3 4.38055 0.0629865 0
M  V30 53711 C 5500.81 4.03611 1.83338 0
M  V30 53712 H 5498.03 0.658234 0.130266 0
M  V30 53713 H 5500.57 2.02964 -0.250135 0
M  V30 53714 H 5498.72 3.43016 1.80053 0
M  V30 53715 H 5499.14 5.22116 0.499498 0
M  V30 53716 H 5500.61 5.06168 2.20224 0
M  V30 53717 H 5501.09 3.44696 2.72178 0
M  V30 53718 H 5501.7 4.08692 1.17688 0
M  V30 53719 N 5500.01 -0.120166 1.57141 0
M  V30 53720 C 5501.24 -0.842374 1.88975 0
M  V30 53721 C 5501.65 -1.73491 0.744732 0
M  V30 53722 O 5501.01 -1.80269 -0.284493 0
M  V30 53723 C 5501.06 -1.67677 3.2026 0
M  V30 53724 O 5500.78 -0.820168 4.30354 0
M  V30 53725 C 5502.28 -2.50424 3.65791 0
M  V30 53726 H 5499.5 -0.242219 0.625756 0
M  V30 53727 H 5502.05 -0.104906 2.04231 0
M  V30 53728 H 5500.2 -2.36701 3.06678 0
M  V30 53729 H 5500.62 -1.39558 5.05593 0
M  V30 53730 H 5502.09 -3.04502 4.60416 0
M  V30 53731 H 5502.57 -3.27727 2.9239 0
M  V30 53732 H 5503.17 -1.86644 3.82157 0
M  V30 53733 N 5501.49 -1.5269 -0.390313 0
M  V30 53734 C 5502.72 -1.71545 -1.15672 0
M  V30 53735 C 5503.13 -0.433236 -1.83762 0
M  V30 53736 O 5502.49 0.592188 -1.72625 0
M  V30 53737 C 5502.54 -2.86408 -2.20574 0
M  V30 53738 O 5502.26 -4.09666 -1.5526 0
M  V30 53739 C 5503.76 -3.16931 -3.09951 0
M  V30 53740 H 5500.98 -0.574393 -0.346863 0
M  V30 53741 H 5503.53 -1.99333 -0.456781 0
M  V30 53742 H 5501.68 -2.61085 -2.86205 0
M  V30 53743 H 5502.09 -4.7381 -2.24953 0
M  V30 53744 H 5503.57 -4.00769 -3.7959 0
M  V30 53745 H 5504.05 -2.31259 -3.73385 0
M  V30 53746 H 5504.65 -3.44088 -2.49967 0
M  V30 53747 N 5502.97 0.648681 -1.43631 0
M  V30 53748 C 5504.21 1.41061 -1.45704 0
M  V30 53749 C 5504.55 1.94024 -0.0826802 0
M  V30 53750 O 5503.82 1.72573 0.897147 0
M  V30 53751 C 5504.1 2.58873 -2.50313 0
M  V30 53752 C 5503.96 2.11373 -3.97041 0
M  V30 53753 C 5505.28 3.61083 -2.51609 0
M  V30 53754 H 5502.39 0.511573 -0.53053 0
M  V30 53755 H 5505.04 0.735007 -1.75207 0
M  V30 53756 H 5503.19 3.1651 -2.25285 0
M  V30 53757 H 5504.86 1.58702 -4.33141 0
M  V30 53758 H 5503.1 1.42706 -4.09655 0
M  V30 53759 H 5503.77 2.96113 -4.65855 0
M  V30 53760 H 5506.25 3.13214 -2.73928 0
M  V30 53761 H 5505.12 4.4106 -3.26738 0
M  V30 53762 H 5505.39 4.1398 -1.55156 0
M  V30 53763 N 5504.44 1.30237 0.887472 0
M  V30 53764 C 5505.67 1.21835 1.67224 0
M  V30 53765 C 5506.09 -0.219185 1.87523 0
M  V30 53766 O 5505.44 -1.14521 1.42095 0
M  V30 53767 C 5505.5 1.94054 3.05 0
M  V30 53768 O 5505.22 3.32195 2.85619 0
M  V30 53769 C 5506.72 1.92279 3.99429 0
M  V30 53770 H 5503.94 0.421734 0.521901 0
M  V30 53771 H 5506.48 1.7182 1.10897 0
M  V30 53772 H 5504.64 1.47874 3.58067 0
M  V30 53773 H 5505.05 3.68737 3.73005 0
M  V30 53774 H 5506.52 2.47354 4.93478 0
M  V30 53775 H 5507 0.901135 4.29856 0
M  V30 53776 H 5507.61 2.38259 3.52296 0
M  V30 53777 N 5505.92 -1.09948 1.12913 0
M  V30 53778 C 5507.33 -1.63512 0.901144 0
M  V30 53779 C 5507.68 -1.87934 -0.563481 0
M  V30 53780 O 5506.81 -1.62505 -1.42902 0
M  V30 53781 C 5507.4 -2.97048 1.62935 0
M  V30 53782 C 5505.96 -3.47459 1.44738 0
M  V30 53783 C 5505.11 -2.21973 1.66202 0
M  V30 53784 H 5508.06 -0.933813 1.28318 0
M  V30 53785 H 5508.08 -3.64753 1.08331 0
M  V30 53786 H 5507.59 -2.79242 2.69529 0
M  V30 53787 H 5505.7 -3.70401 0.40422 0
M  V30 53788 H 5505.81 -4.25246 2.20686 0
M  V30 53789 H 5504.17 -2.30364 1.08648 0
M  V30 53790 H 5504.96 -2.06692 2.74105 0
M  V30 53791 N 5507.4 -0.921802 -1.2783 0
M  V30 53792 C 5508.63 -0.575272 -1.98742 0
M  V30 53793 C 5509.04 0.845345 -1.68818 0
M  V30 53794 O 5508.4 1.56103 -0.945415 0
M  V30 53795 C 5508.45 -0.784513 -3.52885 0
M  V30 53796 O 5508.17 -2.14924 -3.81758 0
M  V30 53797 C 5509.67 -0.445899 -4.41052 0
M  V30 53798 H 5506.89 -0.218548 -0.634411 0
M  V30 53799 H 5509.44 -1.23721 -1.62829 0
M  V30 53800 H 5507.59 -0.169459 -3.87029 0
M  V30 53801 H 5508.01 -2.19486 -4.76368 0
M  V30 53802 H 5509.48 -0.643033 -5.48242 0
M  V30 53803 H 5509.96 0.61828 -4.34826 0
M  V30 53804 H 5510.56 -1.03884 -4.12418 0
M  V30 53805 N 5508.88 1.41855 -0.686659 0
M  V30 53806 C 5510.29 1.84438 -0.289727 0
M  V30 53807 C 5510.64 1.57466 1.17042 0
M  V30 53808 O 5509.77 1.04053 1.89742 0
M  V30 53809 C 5510.36 3.348 -0.519066 0
M  V30 53810 C 5508.92 3.75988 -0.17614 0
M  V30 53811 C 5508.07 2.65336 -0.805725 0
M  V30 53812 H 5511.02 1.31533 -0.887967 0
M  V30 53813 H 5511.04 3.79834 0.225075 0
M  V30 53814 H 5510.55 3.54399 -1.58186 0
M  V30 53815 H 5508.65 3.61992 0.882738 0
M  V30 53816 H 5508.76 4.75007 -0.624939 0
M  V30 53817 H 5507.13 2.53604 -0.236055 0
M  V30 53818 H 5507.91 2.87756 -1.8722 0
M  V30 53819 N 5510.36 0.430792 1.51598 0
M  V30 53820 C 5511.58 -0.136725 2.06448 0
M  V30 53821 C 5512 -1.37022 1.29886 0
M  V30 53822 O 5511.36 -1.78982 0.356606 0
M  V30 53823 C 5511.41 -0.465511 3.5849 0
M  V30 53824 O 5511.13 0.719024 4.32159 0
M  V30 53825 C 5512.63 -1.08441 4.29832 0
M  V30 53826 H 5509.85 -0.0108233 0.670913 0
M  V30 53827 H 5512.39 0.60799 1.95253 0
M  V30 53828 H 5510.55 -1.16012 3.69621 0
M  V30 53829 H 5510.96 0.439379 5.22656 0
M  V30 53830 H 5512.44 -1.26451 5.37321 0
M  V30 53831 H 5512.91 -2.06362 3.877 0
M  V30 53832 H 5513.52 -0.429376 4.23127 0
M  V30 53833 N 5511.83 -1.56766 0.161924 0
M  V30 53834 C 5513.25 -1.83267 -0.356402 0
M  V30 53835 C 5513.6 -1.08132 -1.63713 0
M  V30 53836 O 5512.72 -0.331346 -2.13848 0
M  V30 53837 C 5513.32 -3.3244 -0.653404 0
M  V30 53838 C 5511.88 -3.59469 -1.1162 0
M  V30 53839 C 5511.02 -2.7691 -0.147106 0
M  V30 53840 H 5513.97 -1.53925 0.386362 0
M  V30 53841 H 5513.99 -3.49407 -1.50649 0
M  V30 53842 H 5513.51 -3.87097 0.278903 0
M  V30 53843 H 5511.61 -3.10214 -2.06393 0
M  V30 53844 H 5511.72 -4.67856 -1.03186 0
M  V30 53845 H 5510.08 -2.46459 -0.642652 0
M  V30 53846 H 5510.87 -3.34344 0.779055 0
M  V30 53847 N 5513.31 0.11183 -1.57203 0
M  V30 53848 C 5514.54 0.83234 -1.89419 0
M  V30 53849 C 5514.96 1.73094 -0.753922 0
M  V30 53850 O 5514.31 1.80417 0.274929 0
M  V30 53851 C 5514.36 1.65976 -3.21145 0
M  V30 53852 O 5514.09 0.797334 -4.30783 0
M  V30 53853 C 5515.59 2.4848 -3.67114 0
M  V30 53854 H 5512.81 0.238897 -0.627032 0
M  V30 53855 H 5515.35 0.0940738 -2.04284 0
M  V30 53856 H 5513.51 2.35071 -3.07929 0
M  V30 53857 H 5513.92 1.36874 -5.06326 0
M  V30 53858 H 5515.39 3.02056 -4.62024 0
M  V30 53859 H 5515.87 3.26172 -2.94124 0
M  V30 53860 H 5516.48 1.84615 -3.83142 0
M  V30 53861 N 5514.79 1.52895 0.38221 0
M  V30 53862 C 5516.04 1.67937 1.12434 0
M  V30 53863 C 5516.36 0.425233 1.90307 0
M  V30 53864 O 5515.63 -0.560491 1.87711 0
M  V30 53865 H 5514.21 0.619061 0.418058 0
M  V30 53866 H 5516.87 1.90032 0.432862 0
M  V30 53867 H 5515.97 2.53291 1.82346 0
M  V30 53868 N 5516.27 -0.641055 1.43973 0
M  V30 53869 C 5517.5 -1.42823 1.49697 0
M  V30 53870 C 5517.91 -1.88427 0.11866 0
M  V30 53871 O 5517.27 -1.60237 -0.873524 0
M  V30 53872 C 5517.32 -2.65516 2.45323 0
M  V30 53873 O 5517.04 -2.21816 3.77795 0
M  V30 53874 C 5518.54 -3.58749 2.60412 0
M  V30 53875 H 5515.76 -0.438349 0.508026 0
M  V30 53876 H 5518.31 -0.784866 1.88839 0
M  V30 53877 H 5516.46 -3.25966 2.09344 0
M  V30 53878 H 5516.88 -3.01288 4.29332 0
M  V30 53879 H 5518.35 -4.41471 3.31372 0
M  V30 53880 H 5518.83 -4.06903 1.65308 0
M  V30 53881 H 5519.43 -3.04173 2.97252 0
M  V30 53882 N 5517.75 -1.30706 -0.880552 0
M  V30 53883 C 5518.68 -1.13277 -1.99251 0
M  V30 53884 C 5519.69 -0.0747758 -1.62628 0
M  V30 53885 O 5520.88 -0.321231 -1.75586 0
M  V30 53886 C 5517.98 -0.706296 -3.31458 0
M  V30 53887 C 5517.15 -1.84701 -3.9649 0
M  V30 53888 C 5516.21 -1.40834 -5.07003 0
M  V30 53889 O 5515.24 -2.11629 -5.28396 0
M  V30 53890 N 5516.44 -0.289823 -5.79776 0
M  V30 53891 H 5519.21 -2.0905 -2.14751 0
M  V30 53892 H 5516.77 -1.229 -1.05391 0
M  V30 53893 H 5518.76 -0.395759 -4.0276 0
M  V30 53894 H 5517.33 0.159522 -3.12193 0
M  V30 53895 H 5516.55 -2.32542 -3.18304 0
M  V30 53896 H 5517.84 -2.61133 -4.36677 0
M  V30 53897 H 5517.24 0.299979 -5.64904 0
M  V30 53898 H 5515.79 -0.0387637 -6.51788 0
M  V30 53899 N 5519.23 1.09347 -1.13494 0
M  V30 53900 C 5520.45 1.85301 -0.920389 0
M  V30 53901 C 5520.87 1.81184 0.530819 0
M  V30 53902 O 5520.23 1.20858 1.36746 0
M  V30 53903 C 5520.28 3.33244 -1.4011 0
M  V30 53904 O 5520 3.37323 -2.79543 0
M  V30 53905 C 5521.5 4.26035 -1.2251 0
M  V30 53906 H 5518.72 0.585283 -0.328154 0
M  V30 53907 H 5521.26 1.38162 -1.50769 0
M  V30 53908 H 5519.42 3.77807 -0.856773 0
M  V30 53909 H 5519.83 4.29604 -3.009 0
M  V30 53910 H 5521.31 5.27993 -1.61018 0
M  V30 53911 H 5521.78 4.38883 -0.166871 0
M  V30 53912 H 5522.39 3.87289 -1.75749 0
M  V30 53913 N 5520.7 0.928568 1.2734 0
M  V30 53914 C 5522.11 0.613918 1.76318 0
M  V30 53915 C 5522.47 -0.870921 1.75811 0
M  V30 53916 O 5521.59 -1.6815 1.36215 0
M  V30 53917 C 5522.19 1.10766 3.20182 0
M  V30 53918 C 5520.74 0.843661 3.66823 0
M  V30 53919 C 5519.89 1.26588 2.4672 0
M  V30 53920 H 5522.84 1.10825 1.13594 0
M  V30 53921 H 5522.86 0.455731 3.77761 0
M  V30 53922 H 5522.38 2.18837 3.20519 0
M  V30 53923 H 5520.48 -0.223203 3.71931 0
M  V30 53924 H 5520.59 1.46181 4.56254 0
M  V30 53925 H 5518.95 0.68442 2.45332 0
M  V30 53926 H 5519.74 2.35524 2.49766 0
M  V30 53927 N 5522.18 -1.41489 0.694172 0
M  V30 53928 C 5523.41 -2.05578 0.233539 0
M  V30 53929 C 5523.82 -1.52234 -1.1167 0
M  V30 53930 O 5523.18 -0.669997 -1.69757 0
M  V30 53931 C 5523.23 -3.61046 0.181094 0
M  V30 53932 O 5522.95 -4.12416 1.478 0
M  V30 53933 C 5524.45 -4.42279 -0.300698 0
M  V30 53934 H 5521.67 -0.662093 0.108966 0
M  V30 53935 H 5524.22 -1.81285 0.946363 0
M  V30 53936 H 5522.37 -3.84383 -0.482543 0
M  V30 53937 H 5522.79 -5.06449 1.36418 0
M  V30 53938 H 5524.26 -5.51257 -0.28627 0
M  V30 53939 H 5524.74 -4.1828 -1.33933 0
M  V30 53940 H 5525.34 -4.24003 0.33189 0
M  V30 53941 N 5523.66 -0.438826 -1.51367 0
M  V30 53942 C 5524.89 0.125774 -2.06517 0
M  V30 53943 C 5525.3 1.36332 -1.3061 0
M  V30 53944 O 5524.66 1.7879 -0.366092 0
M  V30 53945 C 5524.71 0.446493 -3.58732 0
M  V30 53946 O 5524.43 -0.741933 -4.31772 0
M  V30 53947 C 5525.93 1.0616 -4.30401 0
M  V30 53948 H 5523.15 0.00726509 -0.670961 0
M  V30 53949 H 5525.7 -0.618336 -1.94928 0
M  V30 53950 H 5523.85 1.14051 -3.70231 0
M  V30 53951 H 5524.27 -0.46709 -5.22416 0
M  V30 53952 H 5525.74 1.236 -5.37984 0
M  V30 53953 H 5526.22 2.04303 -3.88789 0
M  V30 53954 H 5526.82 0.406931 -4.23349 0
M  V30 53955 N 5525.14 1.56678 -0.170236 0
M  V30 53956 C 5526.37 2.01224 0.481292 0
M  V30 53957 C 5526.78 1.05045 1.56879 0
M  V30 53958 O 5526.14 0.0511393 1.82428 0
M  V30 53959 C 5526.19 3.45591 1.06061 0
M  V30 53960 O 5525.91 4.38097 0.0165214 0
M  V30 53961 C 5527.41 4.05533 1.79047 0
M  V30 53962 H 5524.63 0.659578 0.123277 0
M  V30 53963 H 5527.17 2.02688 -0.271648 0
M  V30 53964 H 5525.33 3.44906 1.76405 0
M  V30 53965 H 5525.74 5.22617 0.444092 0
M  V30 53966 H 5527.22 5.08475 2.14843 0
M  V30 53967 H 5527.69 3.47564 2.68507 0
M  V30 53968 H 5528.3 4.09918 1.13347 0
M  V30 53969 N 5526.62 -0.103492 1.5726 0
M  V30 53970 C 5528.03 -0.658945 1.74685 0
M  V30 53971 C 5528.38 -1.79539 0.791205 0
M  V30 53972 O 5527.5 -2.16376 -0.0322824 0
M  V30 53973 C 5528.1 -1.20211 3.16757 0
M  V30 53974 C 5526.66 -1.70371 3.35635 0
M  V30 53975 C 5525.8 -0.60979 2.70512 0
M  V30 53976 H 5528.75 0.12253 1.58226 0
M  V30 53977 H 5528.78 -2.07157 3.19165 0
M  V30 53978 H 5528.29 -0.374765 3.86286 0
M  V30 53979 H 5526.39 -2.55532 2.71171 0
M  V30 53980 H 5526.5 -1.80248 4.439 0
M  V30 53981 H 5524.87 -1.0472 2.32176 0
M  V30 53982 H 5525.65 0.206834 3.42676 0
M  V30 53983 N 5528.09 -1.53096 -0.374097 0
M  V30 53984 C 5529.34 -1.68086 -1.11489 0
M  V30 53985 C 5529.66 -0.434752 -1.90707 0
M  V30 53986 O 5530.86 -0.46505 -2.67487 0
M  V30 53987 C 5529.32 -2.97108 -2.03113 0
M  V30 53988 C 5528.93 -4.28951 -1.29247 0
M  V30 53989 C 5530.67 -3.21465 -2.77237 0
M  V30 53990 C 5528.58 -5.49068 -2.19724 0
M  V30 53991 H 5527.51 -0.626253 -0.419909 0
M  V30 53992 H 5530.16 -1.79595 -0.376525 0
M  V30 53993 H 5528.54 -2.79381 -2.80646 0
M  V30 53994 H 5529.71 -4.57281 -0.568367 0
M  V30 53995 H 5528.03 -4.10971 -0.670218 0
M  V30 53996 H 5530.63 -4.08389 -3.45141 0
M  V30 53997 H 5530.97 -2.37165 -3.42138 0
M  V30 53998 H 5531.5 -3.39827 -2.06791 0
M  V30 53999 H 5528.24 -6.3582 -1.59414 0
M  V30 54000 H 5527.76 -5.25029 -2.90008 0
M  V30 54001 H 5529.44 -5.83526 -2.79474 0
M  V30 54002 N 5529.57 0.633411 -1.44311 0
M  V30 54003 C 5530.8 1.42027 -1.50452 0
M  V30 54004 C 5531.22 1.88361 -0.128651 0
M  V30 54005 O 5530.57 1.60698 0.865014 0
M  V30 54006 C 5530.62 2.64211 -2.46728 0
M  V30 54007 O 5530.34 2.1981 -3.78966 0
M  V30 54008 C 5531.85 3.57363 -2.62311 0
M  V30 54009 H 5529.07 0.435649 -0.510344 0
M  V30 54010 H 5531.61 0.774841 -1.89252 0
M  V30 54011 H 5529.76 3.24851 -2.1107 0
M  V30 54012 H 5530.18 2.99007 -4.30924 0
M  V30 54013 H 5531.65 4.39707 -3.33709 0
M  V30 54014 H 5532.13 4.0602 -1.67464 0
M  V30 54015 H 5532.74 3.02592 -2.98861 0
M  V30 54016 N 5531.05 1.31171 0.873608 0
M  V30 54017 C 5532.28 1.23601 1.65923 0
M  V30 54018 C 5532.69 -0.199283 1.87745 0
M  V30 54019 O 5532.05 -1.13008 1.43302 0
M  V30 54020 C 5532.1 1.97279 3.02925 0
M  V30 54021 O 5531.82 3.35206 2.8208 0
M  V30 54022 C 5533.32 1.96504 3.97367 0
M  V30 54023 H 5530.54 0.427246 0.517399 0
M  V30 54024 H 5533.09 1.72987 1.09068 0
M  V30 54025 H 5531.24 1.51663 3.56479 0
M  V30 54026 H 5531.66 3.72673 3.69074 0
M  V30 54027 H 5533.13 2.52574 4.90826 0
M  V30 54028 H 5533.61 0.946676 4.28876 0
M  V30 54029 H 5534.21 2.41982 3.4975 0
M  V30 54030 N 5532.53 -1.08744 1.14072 0
M  V30 54031 C 5533.76 -1.8481 0.930203 0
M  V30 54032 C 5534.17 -1.81463 -0.521203 0
M  V30 54033 O 5533.53 -1.21582 -1.36103 0
M  V30 54034 C 5533.58 -3.32496 1.41875 0
M  V30 54035 O 5533.3 -3.35836 2.81328 0
M  V30 54036 C 5534.8 -4.2538 1.24768 0
M  V30 54037 H 5532.02 -0.583534 0.331254 0
M  V30 54038 H 5534.57 -1.37361 1.515 0
M  V30 54039 H 5532.72 -3.77347 0.876797 0
M  V30 54040 H 5533.13 -4.28002 3.03174 0
M  V30 54041 H 5534.61 -5.27132 1.63816 0
M  V30 54042 H 5535.09 -4.38788 0.190144 0
M  V30 54043 H 5535.69 -3.86351 1.778 0
M  V30 54044 N 5534.01 -0.935308 -1.26845 0
M  V30 54045 C 5535.23 -0.596319 -1.9812 0
M  V30 54046 C 5535.65 0.827392 -1.69705 0
M  V30 54047 O 5535.01 1.55091 -0.961919 0
M  V30 54048 C 5535.06 -0.821897 -3.52033 0
M  V30 54049 O 5534.78 -2.18961 -3.79457 0
M  V30 54050 C 5536.28 -0.492653 -4.40554 0
M  V30 54051 H 5533.5 -0.225264 -0.632058 0
M  V30 54052 H 5536.04 -1.25441 -1.61508 0
M  V30 54053 H 5534.2 -0.210499 -3.86828 0
M  V30 54054 H 5534.61 -2.24526 -4.74013 0
M  V30 54055 H 5536.09 -0.701145 -5.47529 0
M  V30 54056 H 5536.56 0.572127 -4.35458 0
M  V30 54057 H 5537.17 -1.08252 -4.11293 0
M  V30 54058 N 5535.48 1.41118 -0.701666 0
M  V30 54059 C 5536.71 2.05451 -0.244438 0
M  V30 54060 C 5537.13 1.52824 1.10861 0
M  V30 54061 O 5536.48 0.67899 1.69399 0
M  V30 54062 C 5536.54 3.60945 -0.200239 0
M  V30 54063 O 5536.26 4.11626 -1.49985 0
M  V30 54064 C 5537.76 4.42432 0.277238 0
M  V30 54065 H 5534.98 0.661506 -0.112476 0
M  V30 54066 H 5537.52 1.80781 -0.955963 0
M  V30 54067 H 5535.68 3.84633 0.462152 0
M  V30 54068 H 5536.09 5.05718 -1.39102 0
M  V30 54069 H 5537.56 5.51401 0.257032 0
M  V30 54070 H 5538.04 4.18985 1.31713 0
M  V30 54071 H 5538.65 4.23821 -0.354372 0
M  V30 54072 N 5536.96 0.446847 1.51133 0
M  V30 54073 C 5538.21 -0.116595 2.02465 0
M  V30 54074 C 5538.54 -1.41527 1.3298 0
M  V30 54075 O 5537.82 -1.89277 0.447718 0
M  V30 54076 C 5538.1 -0.325533 3.58626 0
M  V30 54077 C 5537.95 0.992462 4.38714 0
M  V30 54078 C 5539.27 -1.09106 4.26361 0
M  V30 54079 H 5536.39 -0.0409003 0.735864 0
M  V30 54080 H 5539.03 0.587704 1.80682 0
M  V30 54081 H 5537.18 -0.925453 3.77316 0
M  V30 54082 H 5538.85 1.62709 4.31652 0
M  V30 54083 H 5537.1 1.59485 4.03419 0
M  V30 54084 H 5537.77 0.800197 5.46169 0
M  V30 54085 H 5540.24 -0.582799 4.11998 0
M  V30 54086 H 5539.12 -1.20603 5.35487 0
M  V30 54087 H 5539.38 -2.12157 3.87868 0
M  V30 54088 N 5538.44 -1.56585 0.178542 0
M  V30 54089 C 5539.67 -2.01477 -0.470613 0
M  V30 54090 C 5540.08 -1.05875 -1.5632 0
M  V30 54091 O 5539.44 -0.0608132 -1.82399 0
M  V30 54092 C 5539.49 -3.46149 -1.04226 0
M  V30 54093 O 5539.21 -4.38099 0.00671222 0
M  V30 54094 C 5540.71 -4.06477 -1.76894 0
M  V30 54095 H 5537.93 -0.660223 -0.119778 0
M  V30 54096 H 5540.48 -2.02541 0.282393 0
M  V30 54097 H 5538.63 -3.45837 -1.74573 0
M  V30 54098 H 5539.05 -5.22845 -0.41637 0
M  V30 54099 H 5540.52 -5.09607 -2.12143 0
M  V30 54100 H 5541 -3.48983 -2.6666 0
M  V30 54101 H 5541.6 -4.10513 -1.11172 0
M  V30 54102 N 5539.92 0.0951507 -1.57313 0
M  V30 54103 C 5541.33 0.649672 -1.75032 0
M  V30 54104 C 5541.68 1.79117 -0.800715 0
M  V30 54105 O 5540.81 2.1639 0.020807 0
M  V30 54106 C 5541.4 1.18529 -3.1739 0
M  V30 54107 C 5539.96 1.68588 -3.36534 0
M  V30 54108 C 5539.11 0.595436 -2.70832 0
M  V30 54109 H 5542.06 -0.130919 -1.58159 0
M  V30 54110 H 5542.08 2.05462 -3.20259 0
M  V30 54111 H 5541.59 0.354274 -3.8648 0
M  V30 54112 H 5539.69 2.54091 -2.72523 0
M  V30 54113 H 5539.8 1.77891 -4.4485 0
M  V30 54114 H 5538.17 1.03487 -2.32728 0
M  V30 54115 H 5538.95 -0.225004 -3.42562 0
M  V30 54116 N 5541.4 1.53292 0.365972 0
M  V30 54117 C 5542.62 1.73363 1.12928 0
M  V30 54118 C 5543.04 0.462416 1.8305 0
M  V30 54119 O 5542.4 -0.56465 1.73545 0
M  V30 54120 C 5542.45 2.89881 2.15989 0
M  V30 54121 O 5542.17 4.12084 1.48723 0
M  V30 54122 C 5543.67 3.21822 3.0487 0
M  V30 54123 H 5540.89 0.579839 0.337681 0
M  V30 54124 H 5543.43 2.00035 0.425011 0
M  V30 54125 H 5541.59 2.65605 2.82015 0
M  V30 54126 H 5542 4.77329 2.17387 0
M  V30 54127 H 5543.48 4.06757 3.73166 0
M  V30 54128 H 5543.95 2.37169 3.69658 0
M  V30 54129 H 5544.56 3.48022 2.44461 0
M  V30 54130 N 5542.88 -0.625749 1.44645 0
M  V30 54131 C 5544.29 -1.20746 1.42398 0
M  V30 54132 C 5544.64 -1.95685 0.142115 0
M  V30 54133 O 5543.76 -2.02718 -0.757261 0
M  V30 54134 C 5544.36 -2.19631 2.57968 0
M  V30 54135 C 5542.92 -2.73218 2.589 0
M  V30 54136 C 5542.06 -1.48307 2.34308 0
M  V30 54137 H 5545.01 -0.416108 1.53148 0
M  V30 54138 H 5545.04 -3.02334 2.31029 0
M  V30 54139 H 5544.55 -1.65061 3.5125 0
M  V30 54140 H 5542.65 -3.31776 1.69575 0
M  V30 54141 H 5542.76 -3.18889 3.57556 0
M  V30 54142 H 5541.13 -1.76628 1.83507 0
M  V30 54143 H 5541.91 -0.956311 3.29711 0
M  V30 54144 N 5544.35 -1.31632 -0.86664 0
M  V30 54145 C 5545.58 -1.24479 -1.65265 0
M  V30 54146 C 5546 0.189324 -1.87848 0
M  V30 54147 O 5545.35 1.12246 -1.43899 0
M  V30 54148 C 5545.4 -1.98882 -3.01874 0
M  V30 54149 O 5545.13 -3.36697 -2.80298 0
M  V30 54150 C 5546.63 -1.98609 -3.9632 0
M  V30 54151 H 5543.85 -0.429984 -0.515126 0
M  V30 54152 H 5546.39 -1.73563 -1.08149 0
M  V30 54153 H 5544.55 -1.53552 -3.55669 0
M  V30 54154 H 5544.96 -3.74625 -3.67092 0
M  V30 54155 H 5546.43 -2.55173 -4.8948 0
M  V30 54156 H 5546.91 -0.969407 -4.28368 0
M  V30 54157 H 5547.52 -2.43834 -3.48461 0
M  V30 54158 N 5545.83 1.08138 -1.14647 0
M  V30 54159 C 5547.24 1.62058 -0.927043 0
M  V30 54160 C 5547.59 1.88807 0.533511 0
M  V30 54161 O 5546.72 1.64758 1.40299 0
M  V30 54162 C 5547.31 2.94419 -1.6764 0
M  V30 54163 C 5545.87 3.45113 -1.50247 0
M  V30 54164 C 5545.02 2.19301 -1.69713 0
M  V30 54165 H 5547.97 0.913281 -1.29788 0
M  V30 54166 H 5547.99 3.62983 -1.1412 0
M  V30 54167 H 5547.5 2.74918 -2.73937 0
M  V30 54168 H 5545.6 3.69711 -0.463097 0
M  V30 54169 H 5545.72 4.21682 -2.27423 0
M  V30 54170 H 5544.08 2.28607 -1.12299 0
M  V30 54171 H 5544.86 2.02305 -2.77358 0
M  V30 54172 N 5547.31 0.942022 1.26348 0
M  V30 54173 C 5548.54 0.606817 1.97801 0
M  V30 54174 C 5548.95 -0.818381 1.70141 0
M  V30 54175 O 5548.31 -1.54579 0.97013 0
M  V30 54176 C 5548.36 0.840555 3.51592 0
M  V30 54177 O 5548.08 2.2097 3.78291 0
M  V30 54178 C 5549.58 0.51601 4.40287 0
M  V30 54179 H 5546.8 0.228613 0.630854 0
M  V30 54180 H 5549.35 1.26296 1.6084 0
M  V30 54181 H 5547.5 0.231011 3.86711 0
M  V30 54182 H 5547.92 2.27037 4.72816 0
M  V30 54183 H 5549.39 0.730172 5.47149 0
M  V30 54184 H 5549.87 -0.549025 4.35755 0
M  V30 54185 H 5550.47 1.10432 4.10713 0
M  V30 54186 N 5548.79 -1.40744 0.70914 0
M  V30 54187 C 5550.04 -2.00605 0.245395 0
M  V30 54188 C 5550.36 -1.56493 -1.1634 0
M  V30 54189 O 5549.63 -0.801519 -1.78753 0
M  V30 54190 H 5548.21 -0.74183 0.0877359 0
M  V30 54191 H 5550.87 -1.72175 0.913331 0
M  V30 54192 H 5549.96 -3.109 0.273432 0
M  V30 54193 N 5550.27 -0.454856 -1.50893 0
M  V30 54194 C 5551.49 0.103863 -2.06639 0
M  V30 54195 C 5551.91 1.34939 -1.32049 0
M  V30 54196 O 5551.27 1.78392 -0.385035 0
M  V30 54197 C 5551.32 0.40842 -3.59185 0
M  V30 54198 O 5551.04 -0.787686 -4.30961 0
M  V30 54199 C 5552.54 1.01589 -4.31503 0
M  V30 54200 H 5549.76 0.00014825 -0.671 0
M  V30 54201 H 5552.3 -0.638976 -1.94261 0
M  V30 54202 H 5550.46 1.10117 -3.7142 0
M  V30 54203 H 5550.87 -0.522473 -5.21891 0
M  V30 54204 H 5552.35 1.17887 -5.39265 0
M  V30 54205 H 5552.82 2.00168 -3.90934 0
M  V30 54206 H 5553.43 0.362006 -4.23757 0
M  V30 54207 N 5551.74 1.56489 -0.186844 0
M  V30 54208 C 5552.68 2.15913 0.769028 0
M  V30 54209 C 5553.69 1.11877 1.18269 0
M  V30 54210 O 5554.88 1.39002 1.11985 0
M  V30 54211 C 5551.98 2.69964 2.04872 0
M  V30 54212 C 5551.15 3.98819 1.79617 0
M  V30 54213 C 5550.21 4.37778 2.91954 0
M  V30 54214 O 5549.24 5.05359 2.61918 0
M  V30 54215 N 5550.44 4.00605 4.20114 0
M  V30 54216 H 5553.2 2.98562 0.260902 0
M  V30 54217 H 5550.76 1.61899 -0.00459049 0
M  V30 54218 H 5552.76 2.93016 2.79148 0
M  V30 54219 H 5551.33 1.91816 2.4683 0
M  V30 54220 H 5550.55 3.83984 0.891641 0
M  V30 54221 H 5551.83 4.82945 1.60131 0
M  V30 54222 H 5551.23 3.46228 4.47373 0
M  V30 54223 H 5549.79 4.28625 4.91043 0
M  V30 54224 N 5553.22 -0.0868067 1.57361 0
M  V30 54225 C 5554.45 -0.8021 1.9072 0
M  V30 54226 C 5554.86 -1.71872 0.781364 0
M  V30 54227 O 5554.22 -1.80832 -0.246191 0
M  V30 54228 C 5554.27 -1.60846 3.23745 0
M  V30 54229 O 5553.99 -0.728699 4.31997 0
M  V30 54230 C 5555.49 -2.42608 3.7102 0
M  V30 54231 H 5552.71 -0.228892 0.630753 0
M  V30 54232 H 5555.26 -0.0615621 2.04407 0
M  V30 54233 H 5553.41 -2.30142 3.1163 0
M  V30 54234 H 5553.83 -1.28802 5.08439 0
M  V30 54235 H 5555.3 -2.94667 4.66771 0
M  V30 54236 H 5555.78 -3.21451 2.99275 0
M  V30 54237 H 5556.38 -1.78496 3.8603 0
M  V30 54238 N 5554.7 -1.53484 -0.357838 0
M  V30 54239 C 5556.11 -1.61645 -0.934233 0
M  V30 54240 C 5556.46 -0.488722 -1.90016 0
M  V30 54241 O 5555.59 0.383706 -2.12971 0
M  V30 54242 C 5556.18 -2.92993 -1.70119 0
M  V30 54243 C 5554.74 -3.03463 -2.22681 0
M  V30 54244 C 5553.89 -2.56996 -1.04156 0
M  V30 54245 H 5556.84 -1.58113 -0.136396 0
M  V30 54246 H 5556.86 -2.8123 -2.563 0
M  V30 54247 H 5556.37 -3.75051 -0.997924 0
M  V30 54248 H 5554.47 -2.2601 -2.96227 0
M  V30 54249 H 5554.59 -4.08682 -2.50032 0
M  V30 54250 H 5552.95 -2.12057 -1.41081 0
M  V30 54251 H 5553.73 -3.41479 -0.353152 0
M  V30 54252 N 5556.18 0.618069 -1.44975 0
M  V30 54253 C 5557.41 1.40424 -1.5195 0
M  V30 54254 C 5557.82 1.88214 -0.148622 0
M  V30 54255 O 5557.18 1.61606 0.847922 0
M  V30 54256 C 5557.23 2.61579 -2.49517 0
M  V30 54257 O 5556.95 2.15778 -3.81276 0
M  V30 54258 C 5558.45 3.5456 -2.66086 0
M  V30 54259 H 5555.67 0.430212 -0.514936 0
M  V30 54260 H 5558.21 0.754724 -1.90064 0
M  V30 54261 H 5556.37 3.22594 -2.14503 0
M  V30 54262 H 5556.78 2.94419 -4.34071 0
M  V30 54263 H 5558.26 4.36143 -3.38354 0
M  V30 54264 H 5558.73 4.04221 -1.71761 0
M  V30 54265 H 5559.34 2.99406 -3.02054 0
M  V30 54266 N 5557.66 1.3209 0.859647 0
M  V30 54267 C 5558.88 1.25354 1.64602 0
M  V30 54268 C 5559.3 -0.179359 1.87946 0
M  V30 54269 O 5558.66 -1.11481 1.44493 0
M  V30 54270 C 5558.71 2.0048 3.00815 0
M  V30 54271 O 5558.43 3.38178 2.78508 0
M  V30 54272 C 5559.93 2.00708 3.95261 0
M  V30 54273 H 5557.15 0.43271 0.512838 0
M  V30 54274 H 5559.69 1.74134 1.07227 0
M  V30 54275 H 5557.85 1.55436 3.5485 0
M  V30 54276 H 5558.26 3.76566 3.651 0
M  V30 54277 H 5559.74 2.57765 4.8812 0
M  V30 54278 H 5560.21 0.992111 4.27848 0
M  V30 54279 H 5560.82 2.45678 3.47163 0
M  V30 54280 N 5559.13 -1.07528 1.15219 0
M  V30 54281 C 5560.36 -1.83813 0.949752 0
M  V30 54282 C 5560.78 -1.82006 -0.501927 0
M  V30 54283 O 5560.13 -1.23018 -1.34806 0
M  V30 54284 C 5560.19 -3.30973 1.45394 0
M  V30 54285 O 5559.91 -3.32833 2.84874 0
M  V30 54286 C 5561.41 -4.24032 1.29272 0
M  V30 54287 H 5558.63 -0.579988 0.337424 0
M  V30 54288 H 5561.17 -1.35746 1.52948 0
M  V30 54289 H 5559.33 -3.76396 0.91677 0
M  V30 54290 H 5559.74 -4.24762 3.07697 0
M  V30 54291 H 5561.21 -5.25365 1.69398 0
M  V30 54292 H 5561.69 -4.38562 0.236673 0
M  V30 54293 H 5562.3 -3.84444 1.81888 0
M  V30 54294 N 5560.61 -0.948709 -1.25846 0
M  V30 54295 C 5562.02 -0.641891 -1.75319 0
M  V30 54296 C 5562.37 0.842841 -1.77174 0
M  V30 54297 O 5561.5 1.65962 -1.38873 0
M  V30 54298 C 5562.09 -1.15846 -3.18379 0
M  V30 54299 C 5560.65 -0.901912 -3.65435 0
M  V30 54300 C 5559.8 -1.30497 -2.44675 0
M  V30 54301 H 5562.75 -1.12618 -1.11816 0
M  V30 54302 H 5562.77 -0.515772 -3.76988 0
M  V30 54303 H 5562.28 -2.23908 -3.16997 0
M  V30 54304 H 5560.39 0.164004 -3.72239 0
M  V30 54305 H 5560.5 -1.53421 -4.53871 0
M  V30 54306 H 5558.86 -0.723364 -2.44212 0
M  V30 54307 H 5559.65 -2.39468 -2.45988 0
M  V30 54308 N 5562.09 1.40366 -0.716594 0
M  V30 54309 C 5563.34 2.001 -0.253522 0
M  V30 54310 C 5563.65 1.57475 1.16021 0
M  V30 54311 O 5564.86 2.09915 1.72185 0
M  V30 54312 C 5563.31 3.57644 -0.402339 0
M  V30 54313 C 5562.92 4.09242 -1.82278 0
M  V30 54314 C 5564.67 4.245 -0.00011038 0
M  V30 54315 C 5562.57 5.59293 -1.92213 0
M  V30 54316 H 5561.5 0.748485 -0.091031 0
M  V30 54317 H 5564.15 1.60592 -0.887828 0
M  V30 54318 H 5562.54 3.94858 0.300568 0
M  V30 54319 H 5563.71 3.83403 -2.55615 0
M  V30 54320 H 5562.03 3.54986 -2.17656 0
M  V30 54321 H 5564.62 5.34673 -0.0536081 0
M  V30 54322 H 5564.97 4.0305 1.04193 0
M  V30 54323 H 5565.5 3.92396 -0.653498 0
M  V30 54324 H 5562.24 5.85598 -2.94542 0
M  V30 54325 H 5561.76 5.86992 -1.23289 0
M  V30 54326 H 5563.44 6.2441 -1.69472 0
M  V30 54327 N 5563.57 0.462852 1.5065 0
M  V30 54328 C 5564.8 -0.0929034 2.06691 0
M  V30 54329 C 5565.21 -1.34237 1.32763 0
M  V30 54330 O 5564.57 -1.78185 0.39449 0
M  V30 54331 C 5564.62 -0.389366 3.59397 0
M  V30 54332 O 5564.34 0.81053 4.30537 0
M  V30 54333 C 5565.84 -0.992996 4.32035 0
M  V30 54334 H 5563.06 0.00341023 0.670991 0
M  V30 54335 H 5565.61 0.649269 1.93919 0
M  V30 54336 H 5563.76 -1.08146 3.71999 0
M  V30 54337 H 5564.17 0.550143 5.21607 0
M  V30 54338 H 5565.65 -1.15025 5.39883 0
M  V30 54339 H 5566.13 -1.98092 3.9199 0
M  V30 54340 H 5566.73 -0.339528 4.23943 0
M  V30 54341 N 5565.05 -1.56387 0.19514 0
M  V30 54342 C 5566.27 -2.01964 -0.449218 0
M  V30 54343 C 5566.69 -1.07527 -1.55188 0
M  V30 54344 O 5566.05 -0.0801556 -1.82324 0
M  V30 54345 C 5566.1 -3.47235 -1.00549 0
M  V30 54346 O 5565.82 -4.38068 0.0531781 0
M  V30 54347 C 5567.32 -4.0833 -1.72573 0
M  V30 54348 H 5564.54 -0.661456 -0.112768 0
M  V30 54349 H 5567.08 -2.0223 0.303859 0
M  V30 54350 H 5565.24 -3.47669 -1.70895 0
M  V30 54351 H 5565.65 -5.23257 -0.360892 0
M  V30 54352 H 5567.13 -5.11828 -2.06726 0
M  V30 54353 H 5567.6 -3.51792 -2.62943 0
M  V30 54354 H 5568.21 -4.11669 -1.06811 0
M  V30 54355 N 5566.52 0.0784603 -1.57405 0
M  V30 54356 C 5567.75 0.791975 -1.91142 0
M  V30 54357 C 5568.17 1.71456 -0.790468 0
M  V30 54358 O 5567.52 1.8096 0.236598 0
M  V30 54359 C 5567.58 1.59127 -3.24593 0
M  V30 54360 O 5567.3 0.705779 -4.32378 0
M  V30 54361 C 5568.8 2.40637 -3.72302 0
M  V30 54362 H 5566.02 0.225543 -0.631958 0
M  V30 54363 H 5568.56 0.0507211 -2.04437 0
M  V30 54364 H 5566.72 2.28487 -3.12846 0
M  V30 54365 H 5567.13 1.26104 -5.09115 0
M  V30 54366 H 5568.6 2.92188 -4.68327 0
M  V30 54367 H 5569.08 3.19859 -3.00976 0
M  V30 54368 H 5569.69 1.76446 -3.86971 0
M  V30 54369 N 5568 1.53671 0.349693 0
M  V30 54370 C 5569.23 1.74551 1.11083 0
M  V30 54371 C 5569.65 0.481805 1.82549 0
M  V30 54372 O 5569 -0.546211 1.74134 0
M  V30 54373 C 5569.05 2.92155 2.12902 0
M  V30 54374 O 5568.77 4.13638 1.44344 0
M  V30 54375 C 5570.28 3.25037 3.01439 0
M  V30 54376 H 5567.5 0.583388 0.331512 0
M  V30 54377 H 5570.04 2.00474 0.403771 0
M  V30 54378 H 5568.19 2.68581 2.79182 0
M  V30 54379 H 5568.61 4.79608 2.12312 0
M  V30 54380 H 5570.08 4.10692 3.68831 0
M  V30 54381 H 5570.56 2.41077 3.67122 0
M  V30 54382 H 5571.17 3.50595 2.40756 0
M  V30 54383 N 5569.48 -0.610372 1.453 0
M  V30 54384 C 5570.71 -1.39616 1.52693 0
M  V30 54385 C 5571.12 -1.88133 0.158601 0
M  V30 54386 O 5570.48 -1.62054 -0.839339 0
M  V30 54387 C 5570.53 -2.60252 2.509 0
M  V30 54388 O 5570.25 -2.13753 3.82415 0
M  V30 54389 C 5571.75 -3.53144 2.67963 0
M  V30 54390 H 5568.97 -0.427475 0.51721 0
M  V30 54391 H 5571.52 -0.744634 1.90461 0
M  V30 54392 H 5569.67 -3.21452 2.16211 0
M  V30 54393 H 5570.09 -2.92113 4.35626 0
M  V30 54394 H 5571.56 -4.34343 3.40662 0
M  V30 54395 H 5572.04 -4.03305 1.73902 0
M  V30 54396 H 5572.64 -2.978 3.03637 0
M  V30 54397 N 5570.96 -1.32544 -0.85263 0
M  V30 54398 C 5572.2 -1.23402 -1.60934 0
M  V30 54399 C 5572.54 0.203226 -1.93134 0
M  V30 54400 O 5571.81 1.14091 -1.57523 0
M  V30 54401 C 5572.1 -2.09571 -2.92835 0
M  V30 54402 C 5571.95 -3.61684 -2.67403 0
M  V30 54403 C 5573.27 -1.95839 -3.94126 0
M  V30 54404 H 5570.39 -0.449628 -0.583955 0
M  V30 54405 H 5573.03 -1.6251 -0.984403 0
M  V30 54406 H 5571.18 -1.76348 -3.4617 0
M  V30 54407 H 5572.85 -4.0513 -2.20607 0
M  V30 54408 H 5571.09 -3.84249 -2.01333 0
M  V30 54409 H 5571.76 -4.17305 -3.61332 0
M  V30 54410 H 5574.24 -2.24947 -3.50054 0
M  V30 54411 H 5573.12 -2.58404 -4.84271 0
M  V30 54412 H 5573.38 -0.926618 -4.3228 0
M  V30 54413 N 5572.44 1.06915 -1.15788 0
M  V30 54414 C 5573.67 1.83307 -0.959487 0
M  V30 54415 C 5574.08 1.82269 0.492268 0
M  V30 54416 O 5573.44 1.23732 1.34152 0
M  V30 54417 C 5573.49 3.30197 -1.47147 0
M  V30 54418 O 5573.21 3.31318 -2.86636 0
M  V30 54419 C 5574.71 4.23341 -1.31519 0
M  V30 54420 H 5571.93 0.57819 -0.340495 0
M  V30 54421 H 5574.47 1.34933 -1.53666 0
M  V30 54422 H 5572.63 3.75905 -0.936719 0
M  V30 54423 H 5573.04 4.23124 -3.09945 0
M  V30 54424 H 5574.52 5.24459 -1.72182 0
M  V30 54425 H 5574.99 4.3843 -0.259927 0
M  V30 54426 H 5575.6 3.83474 -1.83924 0
M  V30 54427 N 5573.92 0.95537 1.25341 0
M  V30 54428 C 5575.33 0.651179 1.74976 0
M  V30 54429 C 5575.68 -0.833433 1.77619 0
M  V30 54430 O 5574.8 -1.65223 1.39751 0
M  V30 54431 C 5575.4 1.17533 3.1776 0
M  V30 54432 C 5573.96 0.92128 3.64951 0
M  V30 54433 C 5573.1 1.31793 2.43979 0
M  V30 54434 H 5576.05 1.13209 1.11218 0
M  V30 54435 H 5576.08 0.535757 3.76709 0
M  V30 54436 H 5575.59 2.25586 3.15805 0
M  V30 54437 H 5573.69 -0.144261 3.72321 0
M  V30 54438 H 5573.8 1.55826 4.53051 0
M  V30 54439 H 5572.17 0.736305 2.43825 0
M  V30 54440 H 5572.95 2.40769 2.44714 0
M  V30 54441 N 5575.39 -1.39984 0.724028 0
M  V30 54442 C 5576.62 -2.05036 0.277092 0
M  V30 54443 C 5577.04 -1.54569 -1.08416 0
M  V30 54444 O 5576.39 -0.705854 -1.68297 0
M  V30 54445 C 5576.44 -3.60581 0.257637 0
M  V30 54446 O 5576.17 -4.09188 1.56514 0
M  V30 54447 C 5577.67 -4.42817 -0.206816 0
M  V30 54448 H 5574.89 -0.659633 0.122986 0
M  V30 54449 H 5577.43 -1.79237 0.984603 0
M  V30 54450 H 5575.59 -3.8532 -0.400901 0
M  V30 54451 H 5576 -5.03441 1.47129 0
M  V30 54452 H 5577.47 -5.5174 -0.169276 0
M  V30 54453 H 5577.95 -4.21027 -1.25031 0
M  V30 54454 H 5578.56 -4.23204 0.421753 0
M  V30 54455 N 5576.87 -0.470835 -1.50402 0
M  V30 54456 C 5578.28 -0.0156557 -1.86693 0
M  V30 54457 C 5578.63 1.38903 -1.38566 0
M  V30 54458 O 5577.76 2.02968 -0.750525 0
M  V30 54459 C 5578.35 -0.0216343 -3.38793 0
M  V30 54460 C 5576.91 0.378074 -3.74496 0
M  V30 54461 C 5576.06 -0.407222 -2.74294 0
M  V30 54462 H 5579.01 -0.685121 -1.4315 0
M  V30 54463 H 5579.03 0.780586 -3.72407 0
M  V30 54464 H 5578.54 -1.0441 -3.73791 0
M  V30 54465 H 5576.64 1.40491 -3.45099 0
M  V30 54466 H 5576.76 0.0795959 -4.79034 0
M  V30 54467 H 5575.12 0.139034 -2.5432 0
M  V30 54468 H 5575.9 -1.4292 -3.12136 0
M  V30 54469 N 5578.35 1.56282 -0.203431 0
M  V30 54470 C 5579.58 2.022 0.438501 0
M  V30 54471 C 5579.99 1.08349 1.54616 0
M  V30 54472 O 5579.35 0.0898235 1.82279 0
M  V30 54473 C 5579.4 3.47763 0.987062 0
M  V30 54474 O 5579.12 4.38033 -0.0764092 0
M  V30 54475 C 5580.62 4.0924 1.70405 0
M  V30 54476 H 5577.84 0.662045 0.109259 0
M  V30 54477 H 5580.39 2.02066 -0.31458 0
M  V30 54478 H 5578.54 3.4857 1.69049 0
M  V30 54479 H 5578.96 5.23441 0.333138 0
M  V30 54480 H 5580.43 5.12918 2.04009 0
M  V30 54481 H 5580.91 3.53181 2.61074 0
M  V30 54482 H 5581.51 4.1223 1.04627 0
M  V30 54483 N 5579.83 -0.0701116 1.57444 0
M  V30 54484 C 5581.24 -0.621743 1.76043 0
M  V30 54485 C 5581.59 -1.77821 0.82911 0
M  V30 54486 O 5580.71 -2.16396 0.0136214 0
M  V30 54487 C 5581.31 -1.13465 3.19235 0
M  V30 54488 C 5579.87 -1.63213 3.39173 0
M  V30 54489 C 5579.02 -0.552274 2.71745 0
M  V30 54490 H 5581.97 0.156064 1.57931 0
M  V30 54491 H 5581.99 -2.00341 3.23487 0
M  V30 54492 H 5581.5 -0.292744 3.86994 0
M  V30 54493 H 5579.6 -2.49723 2.76531 0
M  V30 54494 H 5579.71 -1.70791 4.47624 0
M  V30 54495 H 5578.08 -0.997714 2.34345 0
M  V30 54496 H 5578.86 0.279474 3.42161 0
M  V30 54497 N 5581.31 -1.53855 -0.341539 0
M  V30 54498 C 5582.53 -1.75138 -1.10156 0
M  V30 54499 C 5582.95 -0.491479 -1.82291 0
M  V30 54500 O 5582.31 0.536969 -1.74422 0
M  V30 54501 C 5582.36 -2.9328 -2.1135 0
M  V30 54502 O 5582.08 -4.14398 -1.42148 0
M  V30 54503 C 5583.58 -3.26631 -2.99711 0
M  V30 54504 H 5580.8 -0.585137 -0.328413 0
M  V30 54505 H 5583.34 -2.00686 -0.393133 0
M  V30 54506 H 5581.5 -2.70058 -2.77754 0
M  V30 54507 H 5581.91 -4.80727 -2.09766 0
M  V30 54508 H 5583.39 -4.12642 -3.66648 0
M  V30 54509 H 5583.86 -2.4302 -3.65838 0
M  V30 54510 H 5584.47 -3.51867 -2.38893 0
M  V30 54511 N 5582.78 0.602658 -1.45622 0
M  V30 54512 C 5584.03 1.35883 -1.496 0
M  V30 54513 C 5584.35 1.94489 -0.141071 0
M  V30 54514 O 5583.62 1.77441 0.830146 0
M  V30 54515 H 5582.2 0.504459 -0.550936 0
M  V30 54516 H 5584.86 0.707312 -1.81613 0
M  V30 54517 H 5583.96 2.17575 -2.23758 0
M  V30 54518 N 5584.26 1.32995 0.845589 0
M  V30 54519 C 5585.49 1.27093 1.63264 0
M  V30 54520 C 5585.9 -0.159415 1.88126 0
M  V30 54521 O 5585.26 -1.09943 1.45667 0
M  V30 54522 C 5585.31 2.0366 2.98672 0
M  V30 54523 O 5585.03 3.41113 2.74906 0
M  V30 54524 C 5586.53 2.04889 3.9311 0
M  V30 54525 H 5583.75 0.438125 0.50822 0
M  V30 54526 H 5586.3 1.75261 1.05374 0
M  V30 54527 H 5584.45 1.59191 3.53181 0
M  V30 54528 H 5584.87 3.80417 3.61086 0
M  V30 54529 H 5586.34 2.62928 4.85358 0
M  V30 54530 H 5586.82 1.03743 4.26772 0
M  V30 54531 H 5587.42 2.49346 3.44538 0
M  V30 54532 N 5585.74 -1.063 1.16353 0
M  V30 54533 C 5586.67 -2.13729 0.827797 0
M  V30 54534 C 5587.68 -1.61962 -0.164926 0
M  V30 54535 O 5588.87 -1.784 0.0598218 0
M  V30 54536 C 5585.97 -3.38238 0.211742 0
M  V30 54537 C 5585.15 -4.19321 1.24455 0
M  V30 54538 C 5584.21 -5.22191 0.64831 0
M  V30 54539 O 5583.23 -5.53751 1.31715 0
M  V30 54540 N 5584.43 -5.77744 -0.564976 0
M  V30 54541 H 5587.2 -2.4313 1.75237 0
M  V30 54542 H 5584.76 -1.22301 1.06086 0
M  V30 54543 H 5586.75 -4.04205 -0.200164 0
M  V30 54544 H 5585.32 -3.06463 -0.616383 0
M  V30 54545 H 5584.54 -3.4901 1.83263 0
M  V30 54546 H 5585.83 -4.70299 1.94155 0
M  V30 54547 H 5585.23 -5.5437 -1.12653 0
M  V30 54548 H 5583.78 -6.45287 -0.919094 0
M  V30 54549 N 5587.22 -0.962004 -1.24833 0
M  V30 54550 C 5588.45 -0.638209 -1.96811 0
M  V30 54551 C 5588.86 0.791209 -1.71421 0
M  V30 54552 O 5588.22 1.53016 -0.9946 0
M  V30 54553 C 5588.27 -0.896383 -3.5021 0
M  V30 54554 O 5587.99 -2.2696 -3.74727 0
M  V30 54555 C 5589.49 -0.58599 -4.3941 0
M  V30 54556 H 5586.71 -0.23862 -0.627137 0
M  V30 54557 H 5589.26 -1.28839 -1.58811 0
M  V30 54558 H 5587.41 -0.292504 -3.86294 0
M  V30 54559 H 5587.82 -2.3453 -4.69144 0
M  V30 54560 H 5589.3 -0.817127 -5.45919 0
M  V30 54561 H 5589.78 0.479631 -4.36573 0
M  V30 54562 H 5590.38 -1.16952 -4.08904 0
M  V30 54563 N 5588.7 1.39598 -0.731441 0
M  V30 54564 C 5590.11 1.83423 -0.348258 0
M  V30 54565 C 5590.46 1.6111 1.11973 0
M  V30 54566 O 5589.58 1.10037 1.86335 0
M  V30 54567 C 5590.18 3.32979 -0.625317 0
M  V30 54568 C 5588.74 3.75237 -0.295668 0
M  V30 54569 C 5587.88 2.62639 -0.889732 0
M  V30 54570 H 5590.84 1.28641 -0.929363 0
M  V30 54571 H 5590.86 3.80358 0.10412 0
M  V30 54572 H 5590.37 3.49187 -1.6938 0
M  V30 54573 H 5588.47 3.64618 0.767126 0
M  V30 54574 H 5588.58 4.72778 -0.775742 0
M  V30 54575 H 5586.95 2.52724 -0.316618 0
M  V30 54576 H 5587.73 2.81654 -1.9628 0
M  V30 54577 N 5590.17 0.478804 1.50151 0
M  V30 54578 C 5591.4 -0.0709758 2.06778 0
M  V30 54579 C 5591.82 -1.32821 1.34179 0
M  V30 54580 O 5591.17 -1.77757 0.413367 0
M  V30 54581 C 5591.23 -0.351225 3.5979 0
M  V30 54582 O 5590.95 0.856149 4.29653 0
M  V30 54583 C 5592.45 -0.947117 4.33064 0
M  V30 54584 H 5589.67 0.0105268 0.670917 0
M  V30 54585 H 5592.21 0.6698 1.9322 0
M  V30 54586 H 5590.37 -1.04194 3.73125 0
M  V30 54587 H 5590.78 0.605435 5.20994 0
M  V30 54588 H 5592.25 -1.09293 5.41072 0
M  V30 54589 H 5592.73 -1.93923 3.94069 0
M  V30 54590 H 5593.34 -0.294544 4.24279 0
M  V30 54591 N 5591.65 -1.56171 0.211716 0
M  V30 54592 C 5592.88 -2.0243 -0.427771 0
M  V30 54593 C 5593.3 -1.09167 -1.54039 0
M  V30 54594 O 5592.65 -0.0994889 -1.82229 0
M  V30 54595 C 5592.7 -3.48282 -0.968605 0
M  V30 54596 O 5592.42 -4.37987 0.0996381 0
M  V30 54597 C 5593.93 -4.10138 -1.68232 0
M  V30 54598 H 5591.15 -0.662615 -0.105746 0
M  V30 54599 H 5593.69 -2.01896 0.325291 0
M  V30 54600 H 5591.84 -3.49462 -1.67198 0
M  V30 54601 H 5592.26 -5.2361 -0.305374 0
M  V30 54602 H 5593.73 -5.13992 -2.01286 0
M  V30 54603 H 5594.21 -3.54561 -2.59197 0
M  V30 54604 H 5594.82 -4.12779 -1.02439 0
M  V30 54605 N 5593.13 0.061761 -1.57479 0
M  V30 54606 C 5594.36 0.771657 -1.91972 0
M  V30 54607 C 5594.77 1.70608 -0.808609 0
M  V30 54608 O 5594.13 1.81201 0.217392 0
M  V30 54609 C 5594.18 1.55675 -3.26263 0
M  V30 54610 O 5593.9 0.65988 -4.33102 0
M  V30 54611 C 5595.4 2.36675 -3.74833 0
M  V30 54612 H 5592.62 0.218828 -0.634315 0
M  V30 54613 H 5595.17 0.0290349 -2.04479 0
M  V30 54614 H 5593.32 2.25156 -3.15252 0
M  V30 54615 H 5593.74 1.20697 -5.10424 0
M  V30 54616 H 5595.21 2.87204 -4.714 0
M  V30 54617 H 5595.69 3.16649 -3.04352 0
M  V30 54618 H 5596.29 1.72332 -3.88821 0
M  V30 54619 N 5594.61 1.54034 0.333374 0
M  V30 54620 C 5596.02 1.6311 0.908398 0
M  V30 54621 C 5596.37 0.51889 1.89214 0
M  V30 54622 O 5595.5 -0.349775 2.13555 0
M  V30 54623 C 5596.09 2.95662 1.65436 0
M  V30 54624 C 5594.65 3.06968 2.17825 0
M  V30 54625 C 5593.8 2.5862 1.00054 0
M  V30 54626 H 5596.75 1.5831 0.111224 0
M  V30 54627 H 5596.77 2.85272 2.51793 0
M  V30 54628 H 5596.28 3.76591 0.938131 0
M  V30 54629 H 5594.38 2.30694 2.92594 0
M  V30 54630 H 5594.49 4.12608 2.43499 0
M  V30 54631 H 5592.86 2.14275 1.37689 0
M  V30 54632 H 5593.64 3.41997 0.298781 0
M  V30 54633 N 5596.09 -0.594927 1.4594 0
M  V30 54634 C 5597.34 -1.34971 1.49886 0
M  V30 54635 C 5597.65 -1.95025 0.149899 0
M  V30 54636 O 5598.85 -2.71417 0.0670822 0
M  V30 54637 C 5597.31 -2.44553 2.64049 0
M  V30 54638 C 5596.92 -1.90856 4.05312 0
M  V30 54639 C 5598.66 -3.21451 2.77254 0
M  V30 54640 C 5596.57 -2.97995 5.10835 0
M  V30 54641 H 5595.5 -0.507346 0.557777 0
M  V30 54642 H 5598.15 -0.636255 1.72116 0
M  V30 54643 H 5596.53 -3.18641 2.35125 0
M  V30 54644 H 5597.71 -1.23392 4.43972 0
M  V30 54645 H 5596.02 -1.26664 3.96668 0
M  V30 54646 H 5598.62 -4.01387 3.5326 0
M  V30 54647 H 5598.96 -3.73265 1.84334 0
M  V30 54648 H 5599.49 -2.54466 3.05765 0
M  V30 54649 H 5596.23 -2.51083 6.05506 0
M  V30 54650 H 5595.75 -3.63986 4.76733 0
M  V30 54651 H 5597.43 -3.62159 5.36143 0
M  V30 54652 N 5597.56 -1.33441 -0.838524 0
M  V30 54653 C 5598.79 -1.27957 -1.62587 0
M  V30 54654 C 5599.21 0.149436 -1.88208 0
M  V30 54655 O 5598.56 1.09169 -1.46248 0
M  V30 54656 C 5598.62 -2.05241 -2.97588 0
M  V30 54657 O 5598.34 -3.42567 -2.73093 0
M  V30 54658 C 5599.84 -2.06971 -3.92018 0
M  V30 54659 H 5597.06 -0.440814 -0.50589 0
M  V30 54660 H 5599.6 -1.75818 -1.04444 0
M  V30 54661 H 5597.76 -1.61061 -3.52332 0
M  V30 54662 H 5598.17 -3.82327 -3.59063 0
M  V30 54663 H 5599.64 -2.65498 -4.83957 0
M  V30 54664 H 5600.12 -1.06005 -4.26215 0
M  V30 54665 H 5600.73 -2.5117 -3.43211 0
M  V30 54666 N 5599.04 1.05681 -1.16915 0
M  V30 54667 C 5600.27 1.82279 -0.978875 0
M  V30 54668 C 5600.69 1.82781 0.472908 0
M  V30 54669 O 5600.04 1.25147 1.32832 0
M  V30 54670 C 5600.09 3.28618 -1.50641 0
M  V30 54671 O 5599.81 3.28259 -2.90134 0
M  V30 54672 C 5601.32 4.21922 -1.36002 0
M  V30 54673 H 5598.54 0.574546 -0.346609 0
M  V30 54674 H 5601.08 1.33296 -1.55089 0
M  V30 54675 H 5599.23 3.7489 -0.976536 0
M  V30 54676 H 5599.65 4.19813 -3.14415 0
M  V30 54677 H 5601.12 5.22604 -1.77735 0
M  V30 54678 H 5601.6 4.3813 -0.306414 0
M  V30 54679 H 5602.21 3.81501 -1.87981 0
M  V30 54680 N 5600.52 0.96861 1.24321 0
M  V30 54681 C 5601.75 0.648637 1.9647 0
M  V30 54682 C 5602.16 -0.782107 1.71839 0
M  V30 54683 O 5601.52 -1.52487 1.0027 0
M  V30 54684 C 5601.57 0.914943 3.4973 0
M  V30 54685 O 5601.29 2.28944 3.73519 0
M  V30 54686 C 5602.79 0.609285 4.39093 0
M  V30 54687 H 5600.01 0.241943 0.625863 0
M  V30 54688 H 5602.56 1.29679 1.58125 0
M  V30 54689 H 5600.71 0.312986 3.86134 0
M  V30 54690 H 5601.13 2.37015 4.67893 0
M  V30 54691 H 5602.6 0.846066 5.45478 0
M  V30 54692 H 5603.08 -0.456472 4.36821 0
M  V30 54693 H 5603.68 1.19119 4.08278 0
M  V30 54694 N 5602 -1.39208 0.738834 0
M  V30 54695 C 5603.23 -2.04731 0.298823 0
M  V30 54696 C 5603.64 -1.5571 -1.0677 0
M  V30 54697 O 5603 -0.723664 -1.67539 0
M  V30 54698 C 5603.05 -3.60287 0.295867 0
M  V30 54699 O 5602.77 -4.07505 1.60845 0
M  V30 54700 C 5604.27 -4.43012 -0.159838 0
M  V30 54701 H 5601.49 -0.658291 0.129975 0
M  V30 54702 H 5604.04 -1.78182 1.00356 0
M  V30 54703 H 5602.19 -3.85724 -0.36001 0
M  V30 54704 H 5602.61 -5.01853 1.52461 0
M  V30 54705 H 5604.08 -5.51889 -0.110747 0
M  V30 54706 H 5604.56 -4.2233 -1.20558 0
M  V30 54707 H 5605.16 -4.22733 0.466616 0
M  V30 54708 N 5603.48 -0.48676 -1.49895 0
M  V30 54709 C 5604.71 0.0600089 -2.06813 0
M  V30 54710 C 5605.12 1.32107 -1.34882 0
M  V30 54711 O 5604.48 1.77535 -0.422788 0
M  V30 54712 C 5604.53 0.332139 -3.59971 0
M  V30 54713 O 5604.25 -0.878922 -4.29193 0
M  V30 54714 C 5605.75 0.924137 -4.3356 0
M  V30 54715 H 5602.97 -0.0140847 -0.670852 0
M  V30 54716 H 5605.51 -0.680038 -1.92862 0
M  V30 54717 H 5603.67 1.02214 -3.73672 0
M  V30 54718 H 5604.08 -0.633057 -5.20666 0
M  V30 54719 H 5605.56 1.06422 -5.41644 0
M  V30 54720 H 5606.03 1.91831 -3.95092 0
M  V30 54721 H 5606.64 0.27204 -4.24429 0
M  V30 54722 N 5604.96 1.56057 -0.219996 0
M  V30 54723 C 5606.2 1.98556 0.412738 0
M  V30 54724 C 5606.53 1.10748 1.59526 0
M  V30 54725 O 5605.81 0.164825 1.938 0
M  V30 54726 C 5606.09 3.49953 0.8488 0
M  V30 54727 C 5605.95 4.48534 -0.337251 0
M  V30 54728 C 5607.26 4.05709 1.70552 0
M  V30 54729 H 5604.38 0.721874 0.148551 0
M  V30 54730 H 5607.03 1.87355 -0.315918 0
M  V30 54731 H 5605.18 3.59629 1.46967 0
M  V30 54732 H 5606.85 4.5087 -0.975375 0
M  V30 54733 H 5605.09 4.2247 -0.984947 0
M  V30 54734 H 5605.76 5.51999 0.0107725 0
M  V30 54735 H 5608.24 3.98968 1.18168 0
M  V30 54736 H 5607.11 5.11962 1.97954 0
M  V30 54737 H 5607.37 3.52496 2.66831 0
M  V30 54738 N 5606.43 -0.0534086 1.57509 0
M  V30 54739 C 5607.66 -0.761465 1.92378 0
M  V30 54740 C 5608.08 -1.70176 0.817645 0
M  V30 54741 O 5607.43 -1.81313 -0.207779 0
M  V30 54742 C 5607.48 -1.53943 3.27084 0
M  V30 54743 O 5607.21 -0.636902 4.33446 0
M  V30 54744 C 5608.71 -2.34684 3.76083 0
M  V30 54745 H 5605.93 -0.215461 0.635466 0
M  V30 54746 H 5608.47 -0.0181905 2.04492 0
M  V30 54747 H 5606.63 -2.23481 3.16441 0
M  V30 54748 H 5607.04 -1.17988 5.11057 0
M  V30 54749 H 5608.51 -2.847 4.72916 0
M  V30 54750 H 5608.99 -3.15031 3.06027 0
M  V30 54751 H 5609.6 -1.70267 3.89729 0
M  V30 54752 N 5607.91 -1.54208 -0.325201 0
M  V30 54753 C 5609.32 -1.6359 -0.899735 0
M  V30 54754 C 5609.67 -0.528917 -1.88936 0
M  V30 54755 O 5608.8 0.338445 -2.13737 0
M  V30 54756 C 5609.39 -2.96536 -1.63866 0
M  V30 54757 C 5607.95 -3.08118 -2.16194 0
M  V30 54758 C 5607.1 -2.59147 -0.986812 0
M  V30 54759 H 5610.05 -1.58367 -0.102827 0
M  V30 54760 H 5610.07 -2.86604 -2.50277 0
M  V30 54761 H 5609.58 -3.77083 -0.918146 0
M  V30 54762 H 5607.68 -2.32242 -2.91366 0
M  V30 54763 H 5607.8 -4.13893 -2.41307 0
M  V30 54764 H 5606.16 -2.15002 -1.36551 0
M  V30 54765 H 5606.94 -3.42151 -0.280639 0
M  V30 54766 N 5609.39 0.587179 -1.46253 0
M  V30 54767 C 5610.62 1.37169 -1.54894 0
M  V30 54768 C 5611.03 1.87857 -0.188511 0
M  V30 54769 O 5610.39 1.63368 0.813452 0
M  V30 54770 C 5610.44 2.56228 -2.55009 0
M  V30 54771 O 5610.16 2.07642 -3.85767 0
M  V30 54772 C 5611.66 3.48836 -2.73547 0
M  V30 54773 H 5608.88 0.419192 -0.523946 0
M  V30 54774 H 5611.43 0.714239 -1.91622 0
M  V30 54775 H 5609.58 3.17972 -2.21298 0
M  V30 54776 H 5610 2.85146 -4.40218 0
M  V30 54777 H 5611.47 4.28868 -3.47529 0
M  V30 54778 H 5611.95 4.00487 -1.80296 0
M  V30 54779 H 5612.55 2.92931 -3.08336 0
M  V30 54780 N 5610.87 1.33884 0.831435 0
M  V30 54781 C 5612.28 1.23117 1.40354 0
M  V30 54782 C 5612.63 -0.146875 1.95649 0
M  V30 54783 O 5611.75 -1.04683 1.89395 0
M  V30 54784 C 5612.35 2.22908 2.55142 0
M  V30 54785 C 5610.91 2.15957 3.08285 0
M  V30 54786 C 5610.06 2.09981 1.81116 0
M  V30 54787 H 5613.01 1.45374 0.636559 0
M  V30 54788 H 5613.03 1.84112 3.32991 0
M  V30 54789 H 5612.54 3.23193 2.14867 0
M  V30 54790 H 5610.64 1.18999 3.53086 0
M  V30 54791 H 5610.75 3.06834 3.67953 0
M  V30 54792 H 5609.12 1.55571 2.01668 0
M  V30 54793 H 5609.9 3.12087 1.43026 0
M  V30 54794 N 5612.35 -1.0506 1.17474 0
M  V30 54795 C 5613.57 -1.81757 0.988528 0
M  V30 54796 C 5613.99 -1.8303 -0.463208 0
M  V30 54797 O 5613.35 -1.2585 -1.32167 0
M  V30 54798 C 5613.4 -3.27814 1.52381 0
M  V30 54799 O 5613.12 -3.26716 2.9187 0
M  V30 54800 C 5614.62 -4.21195 1.38238 0
M  V30 54801 H 5611.84 -0.5727 0.349651 0
M  V30 54802 H 5614.38 -1.32471 1.55793 0
M  V30 54803 H 5612.54 -3.74367 0.996403 0
M  V30 54804 H 5612.95 -4.1814 3.16637 0
M  V30 54805 H 5614.43 -5.21654 1.80504 0
M  V30 54806 H 5614.9 -4.37961 0.329645 0
M  V30 54807 H 5615.51 -3.80499 1.90002 0
M  V30 54808 N 5613.82 -0.97519 -1.23806 0
M  V30 54809 C 5615.23 -0.678934 -1.73918 0
M  V30 54810 C 5615.59 0.80507 -1.78922 0
M  V30 54811 O 5614.71 1.62979 -1.42362 0
M  V30 54812 C 5615.31 -1.22573 -3.1585 0
M  V30 54813 C 5613.86 -0.979223 -3.63439 0
M  V30 54814 C 5613.01 -1.35658 -2.41852 0
M  V30 54815 H 5615.96 -1.14964 -1.09402 0
M  V30 54816 H 5615.98 -0.595621 -3.75809 0
M  V30 54817 H 5615.5 -2.30582 -3.12176 0
M  V30 54818 H 5613.6 0.0850097 -3.72503 0
M  V30 54819 H 5613.71 -1.63014 -4.50515 0
M  V30 54820 H 5612.07 -0.775002 -2.42623 0
M  V30 54821 H 5612.86 -2.44632 -2.40853 0
M  V30 54822 N 5615.3 1.38815 -0.746207 0
M  V30 54823 C 5616.53 2.04569 -0.309677 0
M  V30 54824 C 5616.94 1.56274 1.05943 0
M  V30 54825 O 5616.3 0.732539 1.67153 0
M  V30 54826 C 5616.35 3.60125 -0.314969 0
M  V30 54827 O 5616.07 4.06646 -1.63004 0
M  V30 54828 C 5617.57 4.4309 0.136342 0
M  V30 54829 H 5614.79 0.657593 -0.133464 0
M  V30 54830 H 5617.34 1.77648 -1.01299 0
M  V30 54831 H 5615.49 3.85909 0.33955 0
M  V30 54832 H 5615.91 5.01037 -1.5512 0
M  V30 54833 H 5617.38 5.5194 0.0814774 0
M  V30 54834 H 5617.86 4.22963 1.18317 0
M  V30 54835 H 5618.46 4.22479 -0.489028 0
M  V30 54836 N 5616.78 0.494703 1.49634 0
M  V30 54837 C 5618.03 -0.0519433 2.02033 0
M  V30 54838 C 5618.35 -1.38066 1.37706 0
M  V30 54839 O 5617.62 -1.88587 0.530248 0
M  V30 54840 H 5616.2 -0.0221861 0.74667 0
M  V30 54841 H 5618.86 0.650509 1.83724 0
M  V30 54842 H 5617.96 -0.186227 3.11544 0
M  V30 54843 N 5618.26 -1.55938 0.228269 0
M  V30 54844 C 5619.49 -2.02872 -0.406277 0
M  V30 54845 C 5619.9 -1.10795 -1.52872 0
M  V30 54846 O 5619.26 -0.118811 -1.82113 0
M  V30 54847 C 5619.31 -3.4929 -0.931611 0
M  V30 54848 O 5619.03 -4.37856 0.146087 0
M  V30 54849 C 5620.53 -4.11899 -1.63872 0
M  V30 54850 H 5617.75 -0.663699 -0.0987124 0
M  V30 54851 H 5620.3 -2.0154 0.346687 0
M  V30 54852 H 5618.45 -3.51216 -1.63482 0
M  V30 54853 H 5618.86 -5.23905 -0.249821 0
M  V30 54854 H 5620.34 -5.16098 -1.95823 0
M  V30 54855 H 5620.82 -3.5729 -2.55422 0
M  V30 54856 H 5621.42 -4.13842 -0.980551 0
M  V30 54857 N 5619.74 0.0450548 -1.57536 0
M  V30 54858 C 5620.67 1.07785 -2.02275 0
M  V30 54859 C 5621.68 1.3342 -0.932901 0
M  V30 54860 O 5622.87 1.31188 -1.21045 0
M  V30 54861 C 5619.97 2.42306 -2.36941 0
M  V30 54862 C 5619.14 2.36253 -3.68108 0
M  V30 54863 C 5618.2 3.53094 -3.90142 0
M  V30 54864 O 5617.23 3.33311 -4.61403 0
M  V30 54865 N 5618.43 4.74403 -3.34547 0
M  V30 54866 H 5621.2 0.696641 -2.91491 0
M  V30 54867 H 5618.76 0.23328 -1.60211 0
M  V30 54868 H 5620.75 3.19162 -2.48833 0
M  V30 54869 H 5619.32 2.7233 -1.53478 0
M  V30 54870 H 5618.54 1.44602 -3.66721 0
M  V30 54871 H 5619.83 2.29336 -4.54184 0
M  V30 54872 H 5619.22 4.93379 -2.76756 0
M  V30 54873 H 5617.78 5.48679 -3.51844 0
M  V30 54874 N 5621.21 1.54379 0.317018 0
M  V30 54875 C 5622.44 1.76868 1.07355 0
M  V30 54876 C 5622.86 0.520418 1.81486 0
M  V30 54877 O 5622.21 -0.509152 1.75254 0
M  V30 54878 C 5622.27 2.96606 2.06657 0
M  V30 54879 O 5621.99 4.16607 1.35537 0
M  V30 54880 C 5623.49 3.31358 2.94477 0
M  V30 54881 H 5620.71 0.590288 0.319062 0
M  V30 54882 H 5623.25 2.01286 0.361156 0
M  V30 54883 H 5621.41 2.74443 2.73422 0
M  V30 54884 H 5621.82 4.84004 2.02091 0
M  V30 54885 H 5623.29 4.18423 3.60036 0
M  V30 54886 H 5623.77 2.4881 3.61926 0
M  V30 54887 H 5624.38 3.55623 2.33265 0
M  V30 54888 N 5622.69 -0.579414 1.46562 0
M  V30 54889 C 5624.1 -1.16154 1.46168 0
M  V30 54890 C 5624.45 -1.95133 0.204299 0
M  V30 54891 O 5623.58 -2.05024 -0.692385 0
M  V30 54892 C 5624.17 -2.11313 2.64825 0
M  V30 54893 C 5622.73 -2.64843 2.67461 0
M  V30 54894 C 5621.88 -1.40777 2.38908 0
M  V30 54895 H 5624.83 -0.367174 1.54394 0
M  V30 54896 H 5624.85 -2.94831 2.40531 0
M  V30 54897 H 5624.36 -1.53803 3.56323 0
M  V30 54898 H 5622.47 -3.26213 1.80044 0
M  V30 54899 H 5622.58 -3.07353 3.6752 0
M  V30 54900 H 5620.94 -1.707 1.89033 0
M  V30 54901 H 5621.73 -0.850932 3.32587 0
M  V30 54902 N 5624.17 -1.34323 -0.824323 0
M  V30 54903 C 5625.4 -1.29674 -1.61221 0
M  V30 54904 C 5625.81 0.129465 -1.88356 0
M  V30 54905 O 5625.17 1.07611 -1.47398 0
M  V30 54906 C 5625.22 -2.08385 -2.95394 0
M  V30 54907 O 5624.94 -3.45444 -2.69444 0
M  V30 54908 C 5626.44 -2.11117 -3.89801 0
M  V30 54909 H 5623.66 -0.446155 -0.501186 0
M  V30 54910 H 5626.21 -1.76915 -1.02573 0
M  V30 54911 H 5624.36 -1.64789 -3.50604 0
M  V30 54912 H 5624.78 -3.86114 -3.54988 0
M  V30 54913 H 5626.25 -2.70616 -4.81114 0
M  V30 54914 H 5626.73 -1.1052 -4.25067 0
M  V30 54915 H 5627.33 -2.54796 -3.40528 0
M  V30 54916 N 5625.65 1.04435 -1.1803 0
M  V30 54917 C 5626.88 1.81231 -0.998153 0
M  V30 54918 C 5627.29 1.83273 0.453495 0
M  V30 54919 O 5626.65 1.26549 1.31497 0
M  V30 54920 C 5626.7 3.27002 -1.54118 0
M  V30 54921 O 5626.42 3.25164 -2.93599 0
M  V30 54922 C 5627.92 4.20456 -1.40469 0
M  V30 54923 H 5625.14 0.570838 -0.352683 0
M  V30 54924 H 5627.69 1.31643 -1.56494 0
M  V30 54925 H 5625.84 3.73833 -1.01624 0
M  V30 54926 H 5626.25 4.16455 -3.1885 0
M  V30 54927 H 5627.73 5.20689 -1.83267 0
M  V30 54928 H 5628.21 4.3778 -0.352866 0
M  V30 54929 H 5628.81 3.79486 -1.92017 0
M  V30 54930 N 5627.13 0.981742 1.23287 0
M  V30 54931 C 5628.35 0.669439 1.95771 0
M  V30 54932 C 5628.77 -0.763837 1.72659 0
M  V30 54933 O 5628.13 -1.51415 1.01882 0
M  V30 54934 C 5628.18 0.951985 3.4874 0
M  V30 54935 O 5627.9 2.32893 3.71069 0
M  V30 54936 C 5629.4 0.655822 4.38422 0
M  V30 54937 H 5626.62 0.248567 0.623262 0
M  V30 54938 H 5629.16 1.31349 1.56741 0
M  V30 54939 H 5627.32 0.353923 3.8578 0
M  V30 54940 H 5627.73 2.41964 4.65353 0
M  V30 54941 H 5629.21 0.903874 5.44549 0
M  V30 54942 H 5629.68 -0.410115 4.37281 0
M  V30 54943 H 5630.29 1.23442 4.06991 0
M  V30 54944 N 5628.6 -1.38417 0.753558 0
M  V30 54945 C 5630.02 -1.82846 0.377395 0
M  V30 54946 C 5630.37 -1.62871 -1.09396 0
M  V30 54947 O 5629.49 -1.12987 -1.84561 0
M  V30 54948 C 5630.09 -3.31942 0.678212 0
M  V30 54949 C 5628.65 -3.74719 0.355327 0
M  V30 54950 C 5627.79 -2.6119 0.931403 0
M  V30 54951 H 5630.74 -1.27146 0.949711 0
M  V30 54952 H 5630.76 -3.80475 -0.0435954 0
M  V30 54953 H 5630.28 -3.46449 1.74914 0
M  V30 54954 H 5628.38 -3.65792 -0.709021 0
M  V30 54955 H 5628.49 -4.71484 0.850859 0
M  V30 54956 H 5626.85 -2.52189 0.356784 0
M  V30 54957 H 5627.64 -2.78496 2.00736 0
M  V30 54958 N 5630.08 -0.502631 -1.4937 0
M  V30 54959 C 5631.33 0.0431632 -2.01654 0
M  V30 54960 C 5631.64 1.37895 -1.38724 0
M  V30 54961 O 5632.85 2.01153 -1.82345 0
M  V30 54962 C 5631.31 0.127383 -3.59675 0
M  V30 54963 C 5630.91 -1.20186 -4.31578 0
M  V30 54964 C 5632.66 0.623455 -4.19897 0
M  V30 54965 C 5630.57 -1.07971 -5.8146 0
M  V30 54966 H 5629.5 0.0199043 -0.753737 0
M  V30 54967 H 5632.15 -0.642297 -1.71892 0
M  V30 54968 H 5630.53 0.877329 -3.86159 0
M  V30 54969 H 5631.7 -1.96522 -4.16792 0
M  V30 54970 H 5630.02 -1.6315 -3.83107 0
M  V30 54971 H 5632.61 0.732375 -5.29661 0
M  V30 54972 H 5632.96 1.62269 -3.83373 0
M  V30 54973 H 5633.49 -0.0700039 -3.97738 0
M  V30 54974 H 5630.23 -2.05326 -6.22512 0
M  V30 54975 H 5629.75 -0.357261 -5.98735 0
M  V30 54976 H 5631.43 -0.759111 -6.42531 0
M  V30 54977 N 5631.56 1.55815 -0.236535 0
M  V30 54978 C 5632.79 2.03084 0.395512 0
M  V30 54979 C 5633.2 1.11604 1.52282 0
M  V30 54980 O 5632.56 0.128467 1.82047 0
M  V30 54981 C 5632.61 3.49779 0.913074 0
M  V30 54982 O 5632.33 4.37773 -0.169305 0
M  V30 54983 C 5633.83 4.12762 1.61686 0
M  V30 54984 H 5631.05 0.664214 0.0951913 0
M  V30 54985 H 5633.6 2.01353 -0.35737 0
M  V30 54986 H 5631.75 3.52078 1.61617 0
M  V30 54987 H 5632.17 5.2403 0.222033 0
M  V30 54988 H 5633.64 5.1713 1.93083 0
M  V30 54989 H 5634.12 3.58639 2.53524 0
M  V30 54990 H 5634.72 4.14356 0.958591 0
M  V30 54991 N 5633.04 -0.0366996 1.57557 0
M  V30 54992 C 5634.27 -0.741018 1.93175 0
M  V30 54993 C 5634.68 -1.693 0.835648 0
M  V30 54994 O 5634.04 -1.81524 -0.188537 0
M  V30 54995 C 5634.09 -1.50465 3.28698 0
M  V30 54996 O 5633.81 -0.590893 4.34097 0
M  V30 54997 C 5635.31 -2.30682 3.78551 0
M  V30 54998 H 5632.53 -0.208709 0.637716 0
M  V30 54999 H 5635.08 0.00349965 2.045 0
M  V30 55000 H 5633.23 -2.20112 3.18794 0
M  V30 55001 H 5633.65 -1.12561 5.12279 0
M  V30 55002 H 5635.12 -2.79668 4.75909 0
M  V30 55003 H 5635.6 -3.11767 3.09351 0
M  V30 55004 H 5636.2 -1.66124 3.91513 0
M  V30 55005 N 5634.52 -1.54545 -0.308827 0
M  V30 55006 C 5635.75 -1.77435 -1.06416 0
M  V30 55007 C 5636.16 -0.530035 -1.81207 0
M  V30 55008 O 5635.52 0.49985 -1.75521 0
M  V30 55009 C 5635.57 -2.97697 -2.05082 0
M  V30 55010 O 5635.29 -4.1732 -1.33326 0
M  V30 55011 C 5636.79 -3.32915 -2.92716 0
M  V30 55012 H 5634.01 -0.591972 -0.315928 0
M  V30 55013 H 5636.55 -2.01474 -0.350476 0
M  V30 55014 H 5634.71 -2.75889 -2.71963 0
M  V30 55015 H 5635.12 -4.85068 -1.99522 0
M  V30 55016 H 5636.6 -4.20326 -3.57812 0
M  V30 55017 H 5637.07 -2.50726 -3.60601 0
M  V30 55018 H 5637.68 -3.56855 -2.31376 0
M  V30 55019 N 5636 0.571634 -1.46868 0
M  V30 55020 C 5637.22 1.35518 -1.56341 0
M  V30 55021 C 5637.64 1.87646 -0.208425 0
M  V30 55022 O 5637 1.64222 0.796079 0
M  V30 55023 C 5637.05 2.53509 -2.57712 0
M  V30 55024 O 5636.77 2.03539 -3.87948 0
M  V30 55025 C 5638.27 3.45915 -2.77232 0
M  V30 55026 H 5635.49 0.413611 -0.528362 0
M  V30 55027 H 5638.03 0.693875 -1.92368 0
M  V30 55028 H 5636.19 3.15607 -2.24658 0
M  V30 55029 H 5636.6 2.8046 -4.43218 0
M  V30 55030 H 5638.08 4.25158 -3.52058 0
M  V30 55031 H 5638.55 3.98552 -1.84534 0
M  V30 55032 H 5639.16 2.89644 -3.11426 0
M  V30 55033 N 5637.47 1.34758 0.817188 0
M  V30 55034 C 5638.7 1.30527 1.60531 0
M  V30 55035 C 5639.12 -0.119475 1.88422 0
M  V30 55036 O 5638.47 -1.06828 1.47966 0
M  V30 55037 C 5638.52 2.09949 2.94285 0
M  V30 55038 O 5638.25 3.46868 2.67609 0
M  V30 55039 C 5639.75 2.13181 3.88675 0
M  V30 55040 H 5636.97 0.448806 0.498813 0
M  V30 55041 H 5639.51 1.77457 1.01633 0
M  V30 55042 H 5637.67 1.66646 3.49725 0
M  V30 55043 H 5638.08 3.87991 3.52935 0
M  V30 55044 H 5639.55 2.73164 4.79672 0
M  V30 55045 H 5640.03 1.12773 4.24475 0
M  V30 55046 H 5640.64 2.56598 3.39172 0
M  V30 55047 N 5638.95 -1.03808 1.18582 0
M  V30 55048 C 5640.2 -1.77315 0.984236 0
M  V30 55049 C 5640.53 -1.88053 -0.484723 0
M  V30 55050 O 5639.81 -1.39055 -1.35993 0
M  V30 55051 C 5640.09 -3.20443 1.64282 0
M  V30 55052 C 5639.94 -3.17632 3.18481 0
M  V30 55053 C 5641.26 -4.18618 1.3582 0
M  V30 55054 H 5638.38 -0.643668 0.358971 0
M  V30 55055 H 5641.02 -1.21244 1.46287 0
M  V30 55056 H 5639.17 -3.68319 1.23585 0
M  V30 55057 H 5640.84 -2.77725 3.6833 0
M  V30 55058 H 5639.09 -2.55593 3.50506 0
M  V30 55059 H 5639.76 -4.18712 3.597 0
M  V30 55060 H 5642.23 -3.793 1.71086 0
M  V30 55061 H 5641.11 -5.16976 1.84465 0
M  V30 55062 H 5641.37 -4.41202 0.281573 0
M  V30 55063 N 5640.43 -0.988266 -1.22764 0
M  V30 55064 C 5641.66 -0.679812 -1.95413 0
M  V30 55065 C 5642.07 0.75467 -1.73061 0
M  V30 55066 O 5641.43 1.50872 -1.02683 0
M  V30 55067 C 5641.48 -0.970467 -3.4823 0
M  V30 55068 O 5641.2 -2.34858 -3.69829 0
M  V30 55069 C 5642.7 -0.679064 -4.38068 0
M  V30 55070 H 5639.92 -0.251869 -0.621935 0
M  V30 55071 H 5642.47 -1.32178 -1.56042 0
M  V30 55072 H 5640.62 -0.374377 -3.85587 0
M  V30 55073 H 5641.04 -2.44429 -4.64064 0
M  V30 55074 H 5642.51 -0.93274 -5.44062 0
M  V30 55075 H 5642.99 0.386919 -4.37492 0
M  V30 55076 H 5643.59 -1.25599 -4.06331 0
M  V30 55077 N 5641.91 1.38015 -0.760888 0
M  V30 55078 C 5643.32 1.82643 -0.387086 0
M  V30 55079 C 5643.67 1.63449 1.0853 0
M  V30 55080 O 5642.79 1.13965 1.83959 0
M  V30 55081 C 5643.39 3.31578 -0.695806 0
M  V30 55082 C 5641.95 3.74525 -0.375195 0
M  V30 55083 C 5641.1 2.60692 -0.945241 0
M  V30 55084 H 5644.05 1.26641 -0.956441 0
M  V30 55085 H 5644.07 3.80493 0.0234173 0
M  V30 55086 H 5643.58 3.45516 -1.76749 0
M  V30 55087 H 5641.68 3.66163 0.689612 0
M  V30 55088 H 5641.79 4.71026 -0.875851 0
M  V30 55089 H 5640.16 2.51996 -0.370153 0
M  V30 55090 H 5640.94 2.77427 -2.02211 0
M  V30 55091 N 5643.39 0.510546 1.49101 0
M  V30 55092 C 5644.61 -0.0270991 2.06882 0
M  V30 55093 C 5645.03 -1.29945 1.36966 0
M  V30 55094 O 5644.39 -1.7684 0.450979 0
M  V30 55095 C 5644.44 -0.274829 3.60454 0
M  V30 55096 O 5644.16 0.947092 4.2774 0
M  V30 55097 C 5645.66 -0.855044 4.34976 0
M  V30 55098 H 5642.88 0.0247556 0.670543 0
M  V30 55099 H 5645.42 0.710634 1.91756 0
M  V30 55100 H 5643.58 -0.962564 3.75251 0
M  V30 55101 H 5643.99 0.71581 5.19593 0
M  V30 55102 H 5645.47 -0.977912 5.43269 0
M  V30 55103 H 5645.94 -1.85521 3.98094 0
M  V30 55104 H 5646.55 -0.204482 4.24808 0
M  V30 55105 N 5644.86 -1.55687 0.244795 0
M  V30 55106 C 5646.27 -1.84898 -0.258755 0
M  V30 55107 C 5646.63 -1.16658 -1.57751 0
M  V30 55108 O 5645.75 -0.444236 -2.11791 0
M  V30 55109 C 5646.35 -3.35436 -0.476267 0
M  V30 55110 C 5644.9 -3.6488 -0.924085 0
M  V30 55111 C 5644.05 -2.773 -0.000115735 0
M  V30 55112 H 5647 -1.51661 0.467411 0
M  V30 55113 H 5647.02 -3.56901 -1.31916 0
M  V30 55114 H 5646.54 -3.85074 0.483702 0
M  V30 55115 H 5644.64 -3.20718 -1.8966 0
M  V30 55116 H 5644.75 -4.72668 -0.782404 0
M  V30 55117 H 5643.11 -2.49519 -0.511106 0
M  V30 55118 H 5643.9 -3.29744 0.955188 0
M  V30 55119 N 5646.34 0.0283435 -1.57575 0
M  V30 55120 C 5647.57 0.730763 -1.93565 0
M  V30 55121 C 5647.99 1.68854 -0.844615 0
M  V30 55122 O 5647.34 1.81621 0.178907 0
M  V30 55123 C 5647.39 1.4872 -3.29492 0
M  V30 55124 O 5647.11 0.567864 -4.34404 0
M  V30 55125 C 5648.62 2.28671 -3.79769 0
M  V30 55126 H 5645.84 0.205324 -0.638814 0
M  V30 55127 H 5648.38 -0.0143447 -2.04495 0
M  V30 55128 H 5646.53 2.18418 -3.19957 0
M  V30 55129 H 5646.95 1.09843 -5.12869 0
M  V30 55130 H 5648.42 2.7714 -4.77386 0
M  V30 55131 H 5648.9 3.10122 -3.11 0
M  V30 55132 H 5649.51 1.64046 -3.92389 0
M  V30 55133 N 5647.82 1.54706 0.300627 0
M  V30 55134 C 5649.23 1.65001 0.873596 0
M  V30 55135 C 5649.58 0.558908 1.88071 0
M  V30 55136 O 5648.71 -0.304398 2.14248 0
M  V30 55137 C 5649.3 2.99105 1.59128 0
M  V30 55138 C 5647.86 3.11519 2.11265 0
M  V30 55139 C 5647.01 2.60684 0.945459 0
M  V30 55140 H 5649.96 1.5851 0.0776195 0
M  V30 55141 H 5649.98 2.90549 2.45686 0
M  V30 55142 H 5649.49 3.78496 0.858039 0
M  V30 55143 H 5647.59 2.36848 2.87635 0
M  V30 55144 H 5647.71 4.1768 2.34692 0
M  V30 55145 H 5646.07 2.17147 1.33113 0
M  V30 55146 H 5646.85 3.42554 0.226171 0
M  V30 55147 N 5649.3 -0.563837 1.47169 0
M  V30 55148 C 5650.53 -1.34687 1.57057 0
M  V30 55149 C 5650.94 -1.87533 0.218374 0
M  V30 55150 O 5650.3 -1.64642 -0.787358 0
M  V30 55151 C 5650.35 -2.52138 2.59053 0
M  V30 55152 O 5650.07 -2.01478 3.89022 0
M  V30 55153 C 5651.57 -3.4444 2.79062 0
M  V30 55154 H 5648.79 -0.410804 0.530548 0
M  V30 55155 H 5651.34 -0.683663 1.92734 0
M  V30 55156 H 5649.49 -3.14411 2.26328 0
M  V30 55157 H 5649.9 -2.78106 4.44699 0
M  V30 55158 H 5651.38 -4.23285 3.54308 0
M  V30 55159 H 5651.86 -3.97568 1.86645 0
M  V30 55160 H 5652.46 -2.87989 3.12958 0
M  V30 55161 N 5650.78 -1.3519 -0.81003 0
M  V30 55162 C 5652.02 -1.28017 -1.56385 0
M  V30 55163 C 5652.35 0.146152 -1.94452 0
M  V30 55164 O 5651.62 1.08179 -1.63322 0
M  V30 55165 H 5650.2 -0.470857 -0.579916 0
M  V30 55166 H 5652.86 -1.69252 -0.966417 0
M  V30 55167 H 5651.95 -1.8937 -2.48083 0
M  V30 55168 N 5652.25 1.03178 -1.19131 0
M  V30 55169 C 5653.48 1.80162 -1.01732 0
M  V30 55170 C 5653.9 1.83743 0.434031 0
M  V30 55171 O 5653.25 1.27937 1.30148 0
M  V30 55172 C 5653.31 3.25349 -1.57577 0
M  V30 55173 O 5653.03 3.22031 -2.97031 0
M  V30 55174 C 5654.53 4.18942 -1.44921 0
M  V30 55175 H 5651.75 0.567065 -0.358718 0
M  V30 55176 H 5654.29 1.29976 -1.57881 0
M  V30 55177 H 5652.45 3.72734 -1.05584 0
M  V30 55178 H 5652.86 4.1305 -3.2325 0
M  V30 55179 H 5654.33 5.18716 -1.8878 0
M  V30 55180 H 5654.81 4.37381 -0.399279 0
M  V30 55181 H 5655.42 3.77428 -1.96031 0
M  V30 55182 N 5653.73 0.994763 1.22238 0
M  V30 55183 C 5654.66 0.504862 2.23571 0
M  V30 55184 C 5655.68 -0.40105 1.57783 0
M  V30 55185 O 5656.87 -0.202885 1.77343 0
M  V30 55186 C 5653.97 -0.287406 3.37679 0
M  V30 55187 C 5653.14 0.615093 4.33054 0
M  V30 55188 C 5652.2 -0.125789 5.2605 0
M  V30 55189 O 5651.22 0.489434 5.67092 0
M  V30 55190 N 5652.43 -1.40752 5.63178 0
M  V30 55191 H 5655.19 1.37622 2.66234 0
M  V30 55192 H 5652.75 0.869698 1.36557 0
M  V30 55193 H 5654.74 -0.791745 3.9688 0
M  V30 55194 H 5653.31 -1.05987 2.94084 0
M  V30 55195 H 5652.53 1.30007 3.72145 0
M  V30 55196 H 5653.82 1.22965 4.93718 0
M  V30 55197 H 5653.22 -1.92865 5.31808 0
M  V30 55198 H 5651.78 -1.85701 6.24787 0
M  V30 55199 N 5655.21 -1.3761 0.768196 0
M  V30 55200 C 5656.44 -2.04051 0.342183 0
M  V30 55201 C 5656.85 -1.5794 -1.03443 0
M  V30 55202 O 5656.21 -0.759039 -1.65966 0
M  V30 55203 C 5656.26 -3.59579 0.372222 0
M  V30 55204 O 5655.98 -4.04002 1.69453 0
M  V30 55205 C 5657.48 -4.43251 -0.0658326 0
M  V30 55206 H 5654.7 -0.655386 0.143909 0
M  V30 55207 H 5657.25 -1.76014 1.04113 0
M  V30 55208 H 5655.4 -3.864 -0.278112 0
M  V30 55209 H 5655.82 -4.98506 1.63072 0
M  V30 55210 H 5657.29 -5.52 0.00634181 0
M  V30 55211 H 5657.77 -4.24792 -1.11573 0
M  V30 55212 H 5658.37 -4.21648 0.556179 0
M  V30 55213 N 5656.69 -0.518446 -1.48828 0
M  V30 55214 C 5658.1 -0.0750429 -1.86549 0
M  V30 55215 C 5658.45 1.34424 -1.42914 0
M  V30 55216 O 5657.58 2.00478 -0.814718 0
M  V30 55217 C 5658.17 -0.129408 -3.38553 0
M  V30 55218 C 5656.73 0.258739 -3.7551 0
M  V30 55219 C 5655.88 -0.49428 -2.72859 0
M  V30 55220 H 5658.83 -0.730316 -1.40897 0
M  V30 55221 H 5658.85 0.661713 -3.74702 0
M  V30 55222 H 5658.36 -1.1625 -3.70281 0
M  V30 55223 H 5656.46 1.2944 -3.49394 0
M  V30 55224 H 5656.57 -0.0728453 -4.79045 0
M  V30 55225 H 5654.94 0.0580533 -2.54634 0
M  V30 55226 H 5655.72 -1.52778 -3.07431 0
M  V30 55227 N 5658.17 1.55555 -0.253048 0
M  V30 55228 C 5659.39 2.03493 0.37395 0
M  V30 55229 C 5659.81 1.13213 1.5109 0
M  V30 55230 O 5659.17 0.147769 1.81901 0
M  V30 55231 C 5659.22 3.50728 0.875924 0
M  V30 55232 O 5658.94 4.37569 -0.215727 0
M  V30 55233 C 5660.44 4.14454 1.57299 0
M  V30 55234 H 5657.66 0.665186 0.088141 0
M  V30 55235 H 5660.2 2.00963 -0.378706 0
M  V30 55236 H 5658.36 3.53772 1.57874 0
M  V30 55237 H 5658.77 5.24236 0.16644 0
M  V30 55238 H 5660.25 5.19148 1.87587 0
M  V30 55239 H 5660.72 3.61308 2.49706 0
M  V30 55240 H 5661.33 4.1535 0.914589 0
M  V30 55241 N 5659.64 -0.0199865 1.57587 0
M  V30 55242 C 5660.87 -0.720488 1.9395 0
M  V30 55243 C 5661.29 -1.68404 0.853558 0
M  V30 55244 O 5660.64 -1.81713 -0.169273 0
M  V30 55245 C 5660.7 -1.4697 3.30276 0
M  V30 55246 O 5660.42 -0.544818 4.34699 0
M  V30 55247 C 5661.92 -2.26654 3.80976 0
M  V30 55248 H 5659.14 -0.201933 0.639894 0
M  V30 55249 H 5661.68 0.0251894 2.04484 0
M  V30 55250 H 5659.84 -2.16718 3.21111 0
M  V30 55251 H 5660.25 -1.07121 5.13445 0
M  V30 55252 H 5661.72 -2.74605 4.78849 0
M  V30 55253 H 5662.2 -3.08469 3.1264 0
M  V30 55254 H 5662.81 -1.61962 3.93253 0
M  V30 55255 N 5661.12 -1.54863 -0.292418 0
M  V30 55256 C 5662.35 -1.78554 -1.04528 0
M  V30 55257 C 5662.77 -0.549225 -1.80635 0
M  V30 55258 O 5662.12 0.481206 -1.76042 0
M  V30 55259 C 5662.17 -2.99856 -2.01913 0
M  V30 55260 O 5661.9 -4.1871 -1.28892 0
M  V30 55261 C 5663.4 -3.36001 -2.89168 0
M  V30 55262 H 5660.62 -0.595289 -0.309631 0
M  V30 55263 H 5663.16 -2.01835 -0.329088 0
M  V30 55264 H 5661.32 -2.78758 -2.69022 0
M  V30 55265 H 5661.73 -4.87157 -1.94366 0
M  V30 55266 H 5663.2 -4.24098 -3.53334 0
M  V30 55267 H 5663.68 -2.54536 -3.57922 0
M  V30 55268 H 5664.29 -3.59289 -2.27578 0
M  V30 55269 N 5662.6 0.556024 -1.47466 0
M  V30 55270 C 5664.01 1.13814 -1.47997 0
M  V30 55271 C 5664.36 1.94784 -0.235317 0
M  V30 55272 O 5663.49 2.061 0.659679 0
M  V30 55273 C 5664.08 2.07073 -2.68153 0
M  V30 55274 C 5662.64 2.60554 -2.71641 0
M  V30 55275 C 5661.79 1.36959 -2.41118 0
M  V30 55276 H 5664.74 0.342565 -1.54959 0
M  V30 55277 H 5664.76 2.90967 -2.45191 0
M  V30 55278 H 5664.27 1.48114 -3.58725 0
M  V30 55279 H 5662.37 3.23307 -1.85211 0
M  V30 55280 H 5662.49 3.01467 -3.72363 0
M  V30 55281 H 5660.85 1.67671 -1.91725 0
M  V30 55282 H 5661.63 0.797913 -3.33899 0
M  V30 55283 N 5664.08 1.35617 0.802849 0
M  V30 55284 C 5665.33 1.28434 1.55524 0
M  V30 55285 C 5665.64 -0.138207 1.95111 0
M  V30 55286 O 5666.85 -0.332341 2.69458 0
M  V30 55287 C 5665.3 2.25261 2.80688 0
M  V30 55288 C 5664.91 3.7288 2.48323 0
M  V30 55289 C 5666.66 2.27027 3.58691 0
M  V30 55290 C 5664.56 4.6152 3.69801 0
M  V30 55291 H 5663.49 0.477201 0.583777 0
M  V30 55292 H 5666.14 1.60903 0.882182 0
M  V30 55293 H 5664.53 1.85768 3.49723 0
M  V30 55294 H 5665.7 4.2103 1.8727 0
M  V30 55295 H 5664.01 3.73759 1.83558 0
M  V30 55296 H 5666.61 2.90467 4.48924 0
M  V30 55297 H 5666.95 1.27505 3.96293 0
M  V30 55298 H 5667.49 2.65068 2.9662 0
M  V30 55299 H 5664.23 5.62055 3.37305 0
M  V30 55300 H 5663.75 4.18094 4.30067 0
M  V30 55301 H 5665.43 4.77128 4.36987 0
M  V30 55302 N 5665.56 -1.02544 1.19676 0
M  V30 55303 C 5666.79 -1.7962 1.02686 0
M  V30 55304 C 5667.2 -1.83971 -0.42428 0
M  V30 55305 O 5666.56 -1.28625 -1.29467 0
M  V30 55306 C 5666.61 -3.24508 1.593 0
M  V30 55307 O 5666.33 -3.20451 2.98735 0
M  V30 55308 C 5667.83 -4.18168 1.47141 0
M  V30 55309 H 5665.05 -0.565155 0.36172 0
M  V30 55310 H 5667.59 -1.29137 1.58568 0
M  V30 55311 H 5665.75 -3.72169 1.07559 0
M  V30 55312 H 5666.16 -4.1133 3.25436 0
M  V30 55313 H 5667.64 -5.17707 1.91528 0
M  V30 55314 H 5668.11 -4.37163 0.422469 0
M  V30 55315 H 5668.72 -3.76383 1.9803 0
M  V30 55316 N 5667.04 -1.00123 -1.21709 0
M  V30 55317 C 5668.26 -0.7005 -1.94681 0
M  V30 55318 C 5668.68 0.736272 -1.73852 0
M  V30 55319 O 5668.04 1.49775 -1.04278 0
M  V30 55320 C 5668.09 -1.00735 -3.47181 0
M  V30 55321 O 5667.81 -2.38767 -3.67317 0
M  V30 55322 C 5669.31 -0.725488 -4.37323 0
M  V30 55323 H 5666.53 -0.258451 -0.619228 0
M  V30 55324 H 5669.07 -1.33826 -1.54631 0
M  V30 55325 H 5667.23 -0.415252 -3.85168 0
M  V30 55326 H 5667.64 -2.49337 -4.61445 0
M  V30 55327 H 5669.12 -0.990393 -5.43043 0
M  V30 55328 H 5669.59 0.340496 -4.37878 0
M  V30 55329 H 5670.2 -1.29902 -4.04976 0
M  V30 55330 N 5668.51 1.37201 -0.775483 0
M  V30 55331 C 5669.74 2.03866 -0.352999 0
M  V30 55332 C 5670.16 1.58486 1.02604 0
M  V30 55333 O 5669.51 0.76783 1.65562 0
M  V30 55334 C 5669.56 3.59376 -0.391286 0
M  V30 55335 O 5669.29 4.03097 -1.71593 0
M  V30 55336 C 5670.79 4.4328 0.042325 0
M  V30 55337 H 5668.01 0.654614 -0.147383 0
M  V30 55338 H 5670.55 1.75459 -1.05045 0
M  V30 55339 H 5668.71 3.86542 0.257616 0
M  V30 55340 H 5669.12 4.97634 -1.65713 0
M  V30 55341 H 5670.59 5.51989 -0.0356156 0
M  V30 55342 H 5671.07 4.25378 1.09318 0
M  V30 55343 H 5671.68 4.21347 -0.578532 0
M  V30 55344 N 5669.99 0.526331 1.48551 0
M  V30 55345 C 5671.22 -0.00515496 2.06899 0
M  V30 55346 C 5671.63 -1.28485 1.38337 0
M  V30 55347 O 5670.99 -1.76352 0.46971 0
M  V30 55348 C 5671.04 -0.236583 3.60725 0
M  V30 55349 O 5670.76 0.992406 4.26712 0
M  V30 55350 C 5672.26 -0.808861 4.35858 0
M  V30 55351 H 5669.48 0.0318662 0.670243 0
M  V30 55352 H 5672.03 0.730933 1.90991 0
M  V30 55353 H 5670.18 -0.922709 3.76251 0
M  V30 55354 H 5670.6 0.770879 5.18804 0
M  V30 55355 H 5672.07 -0.920236 5.44275 0
M  V30 55356 H 5672.55 -1.81288 4.00039 0
M  V30 55357 H 5673.15 -0.159414 4.25001 0
M  V30 55358 N 5671.47 -1.55419 0.261294 0
M  V30 55359 C 5672.7 -2.03688 -0.363153 0
M  V30 55360 C 5673.11 -1.14013 -1.50488 0
M  V30 55361 O 5672.47 -0.157413 -1.8182 0
M  V30 55362 C 5672.52 -3.51187 -0.857312 0
M  V30 55363 O 5672.24 -4.37448 0.23893 0
M  V30 55364 C 5673.74 -4.15282 -1.55099 0
M  V30 55365 H 5670.96 -0.665644 -0.0846122 0
M  V30 55366 H 5673.51 -2.00759 0.389358 0
M  V30 55367 H 5671.66 -3.54604 -1.55996 0
M  V30 55368 H 5672.08 -5.24317 -0.138636 0
M  V30 55369 H 5673.55 -5.20136 -1.84832 0
M  V30 55370 H 5674.03 -3.62627 -2.47786 0
M  V30 55371 H 5674.63 -4.15829 -0.892549 0
M  V30 55372 N 5672.95 0.011629 -1.57596 0
M  V30 55373 C 5674.19 0.699927 -1.90339 0
M  V30 55374 C 5674.53 1.74064 -0.861133 0
M  V30 55375 O 5673.8 1.94119 0.121644 0
M  V30 55376 C 5674.08 1.35365 -3.33689 0
M  V30 55377 C 5673.94 0.325276 -4.48622 0
M  V30 55378 C 5675.26 2.28298 -3.76255 0
M  V30 55379 H 5672.38 0.252978 -0.692222 0
M  V30 55380 H 5675.02 -0.0372777 -1.89963 0
M  V30 55381 H 5673.17 1.982 -3.34139 0
M  V30 55382 H 5674.84 -0.302493 -4.60307 0
M  V30 55383 H 5673.08 -0.353679 -4.32356 0
M  V30 55384 H 5673.75 0.821508 -5.45853 0
M  V30 55385 H 5676.23 1.75492 -3.77282 0
M  V30 55386 H 5675.11 2.71011 -4.7733 0
M  V30 55387 H 5675.37 3.15716 -3.09476 0
M  V30 55388 N 5674.43 1.55016 0.284201 0
M  V30 55389 C 5675.65 1.79106 1.0358 0
M  V30 55390 C 5676.07 0.558797 1.80341 0
M  V30 55391 O 5675.43 -0.471863 1.76294 0
M  V30 55392 C 5675.48 3.00922 2.0032 0
M  V30 55393 O 5675.2 4.19388 1.2667 0
M  V30 55394 C 5676.7 3.3753 2.87382 0
M  V30 55395 H 5673.92 0.596923 0.30647 0
M  V30 55396 H 5676.46 2.02006 0.318379 0
M  V30 55397 H 5674.62 2.80181 2.6754 0
M  V30 55398 H 5675.03 4.88181 1.91779 0
M  V30 55399 H 5676.51 4.25966 3.5108 0
M  V30 55400 H 5676.98 2.56431 3.56567 0
M  V30 55401 H 5677.59 3.60491 2.25669 0
M  V30 55402 N 5675.9 -0.548196 1.47758 0
M  V30 55403 C 5677.32 -1.13028 1.48599 0
M  V30 55404 C 5677.67 -1.94656 0.245644 0
M  V30 55405 O 5676.79 -2.06447 -0.64874 0
M  V30 55406 C 5677.39 -2.05648 2.69248 0
M  V30 55407 C 5675.95 -2.5911 2.73018 0
M  V30 55408 C 5675.09 -1.35678 2.4184 0
M  V30 55409 H 5678.04 -0.334342 1.55138 0
M  V30 55410 H 5678.06 -2.89662 2.4673 0
M  V30 55411 H 5677.58 -1.4621 3.59506 0
M  V30 55412 H 5675.68 -3.22321 1.86923 0
M  V30 55413 H 5675.79 -2.99488 3.73957 0
M  V30 55414 H 5674.15 -1.66652 1.92611 0
M  V30 55415 H 5674.94 -0.780194 3.34317 0
M  V30 55416 N 5677.38 -1.36041 -0.795646 0
M  V30 55417 C 5678.61 -1.33065 -1.58434 0
M  V30 55418 C 5679.03 0.0894833 -1.88588 0
M  V30 55419 O 5678.38 1.04461 -1.49647 0
M  V30 55420 C 5678.43 -2.14604 -2.90908 0
M  V30 55421 O 5678.15 -3.51081 -2.62056 0
M  V30 55422 C 5679.66 -2.19338 -3.85235 0
M  V30 55423 H 5676.88 -0.456685 -0.491609 0
M  V30 55424 H 5679.42 -1.79051 -0.987972 0
M  V30 55425 H 5677.57 -1.72189 -3.4703 0
M  V30 55426 H 5677.99 -3.93557 -3.46718 0
M  V30 55427 H 5679.46 -2.80761 -4.75266 0
M  V30 55428 H 5679.94 -1.19511 -4.22627 0
M  V30 55429 H 5680.55 -2.61962 -3.35046 0
M  V30 55430 N 5678.86 1.01908 -1.20218 0
M  V30 55431 C 5680.27 1.56916 -1.01164 0
M  V30 55432 C 5680.62 1.9137 0.432679 0
M  V30 55433 O 5679.75 1.71963 1.31368 0
M  V30 55434 C 5680.34 2.85118 -1.83011 0
M  V30 55435 C 5678.9 3.36663 -1.6833 0
M  V30 55436 C 5678.05 2.09997 -1.81099 0
M  V30 55437 H 5681 0.843199 -1.34446 0
M  V30 55438 H 5681.02 3.56424 -1.33201 0
M  V30 55439 H 5680.53 2.60011 -2.88125 0
M  V30 55440 H 5678.63 3.66736 -0.658421 0
M  V30 55441 H 5678.75 4.09034 -2.49456 0
M  V30 55442 H 5677.11 2.22332 -1.24259 0
M  V30 55443 H 5677.89 1.87318 -2.87692 0
M  V30 55444 N 5680.34 1.00767 1.21176 0
M  V30 55445 C 5681.57 0.710814 1.94307 0
M  V30 55446 C 5681.98 -0.727042 1.7424 0
M  V30 55447 O 5681.34 -1.49219 1.05071 0
M  V30 55448 C 5681.39 1.02574 3.46642 0
M  V30 55449 O 5681.11 2.40712 3.66046 0
M  V30 55450 C 5682.61 0.748671 4.36932 0
M  V30 55451 H 5679.83 0.261732 0.617849 0
M  V30 55452 H 5682.38 1.34644 1.5392 0
M  V30 55453 H 5680.53 0.435673 3.84942 0
M  V30 55454 H 5680.94 2.5178 4.60116 0
M  V30 55455 H 5682.42 1.01918 5.4251 0
M  V30 55456 H 5682.9 -0.317269 4.38053 0
M  V30 55457 H 5683.5 1.32048 4.04281 0
M  V30 55458 N 5681.82 -1.36787 0.782749 0
M  V30 55459 C 5683.23 -1.82004 0.416094 0
M  V30 55460 C 5683.58 -1.65155 -1.05916 0
M  V30 55461 O 5682.7 -1.16877 -1.82123 0
M  V30 55462 C 5683.3 -3.30429 0.748469 0
M  V30 55463 C 5681.86 -3.73881 0.434731 0
M  V30 55464 C 5681 -2.59156 0.986596 0
M  V30 55465 H 5683.96 -1.25103 0.976467 0
M  V30 55466 H 5683.98 -3.80482 0.0371188 0
M  V30 55467 H 5683.49 -3.4266 1.82224 0
M  V30 55468 H 5681.59 -3.67213 -0.631272 0
M  V30 55469 H 5681.7 -4.69573 0.950676 0
M  V30 55470 H 5680.07 -2.51375 0.410197 0
M  V30 55471 H 5680.85 -2.74175 2.06599 0
M  V30 55472 N 5683.29 -0.534202 -1.4827 0
M  V30 55473 C 5684.52 -0.00581748 -2.06899 0
M  V30 55474 C 5684.94 1.27749 -1.39016 0
M  V30 55475 O 5684.29 1.761 -0.479055 0
M  V30 55476 C 5684.35 0.217449 -3.60845 0
M  V30 55477 O 5684.07 -1.01502 -4.26179 0
M  V30 55478 C 5685.57 0.785735 -4.36281 0
M  V30 55479 H 5682.79 -0.0354202 -0.670064 0
M  V30 55480 H 5685.33 -0.741051 -1.90601 0
M  V30 55481 H 5683.49 0.902743 -3.76735 0
M  V30 55482 H 5683.9 -0.798382 -5.18388 0
M  V30 55483 H 5685.37 0.891359 -5.44756 0
M  V30 55484 H 5685.85 1.79164 -4.00995 0
M  V30 55485 H 5686.46 0.136873 -4.2508 0
M  V30 55486 N 5684.77 1.55278 -0.269533 0
M  V30 55487 C 5686.02 1.99079 0.348154 0
M  V30 55488 C 5686.34 1.15931 1.56796 0
M  V30 55489 O 5685.61 0.247473 1.94331 0
M  V30 55490 H 5684.19 0.735312 0.131627 0
M  V30 55491 H 5686.85 1.91286 -0.373574 0
M  V30 55492 H 5685.95 3.05429 0.641846 0
M  V30 55493 N 5686.25 -0.00327115 1.576 0
M  V30 55494 C 5687.48 -0.699876 1.94703 0
M  V30 55495 C 5687.89 -1.67489 0.871371 0
M  V30 55496 O 5687.25 -1.81883 -0.14999 0
M  V30 55497 C 5687.3 -1.43459 3.31816 0
M  V30 55498 O 5687.02 -0.498682 4.35253 0
M  V30 55499 C 5688.52 -2.226 3.83359 0
M  V30 55500 H 5685.74 -0.195135 0.641999 0
M  V30 55501 H 5688.29 0.0468763 2.04446 0
M  V30 55502 H 5686.44 -2.133 3.23391 0
M  V30 55503 H 5686.86 -1.01669 5.14552 0
M  V30 55504 H 5688.33 -2.6951 4.81735 0
M  V30 55505 H 5688.81 -3.05135 3.15894 0
M  V30 55506 H 5689.41 -1.57782 3.94949 0
M  V30 55507 N 5687.73 -1.55165 -0.275976 0
M  V30 55508 C 5688.66 -1.84248 -1.36329 0
M  V30 55509 C 5689.67 -0.726796 -1.45676 0
M  V30 55510 O 5690.86 -1.00461 -1.47546 0
M  V30 55511 C 5687.96 -1.98778 -2.74483 0
M  V30 55512 C 5687.14 -3.2941 -2.87763 0
M  V30 55513 C 5686.19 -3.34043 -4.06573 0
M  V30 55514 O 5685.22 -4.07437 -3.97472 0
M  V30 55515 N 5686.42 -2.61231 -5.184 0
M  V30 55516 H 5689.19 -2.78096 -1.11727 0
M  V30 55517 H 5686.75 -1.55046 -0.466088 0
M  V30 55518 H 5688.74 -1.9925 -3.52252 0
M  V30 55519 H 5687.31 -1.11809 -2.9192 0
M  V30 55520 H 5686.53 -3.41501 -1.96902 0
M  V30 55521 H 5687.82 -4.15569 -2.93565 0
M  V30 55522 H 5687.22 -2.0128 -5.2868 0
M  V30 55523 H 5685.77 -2.6743 -5.94411 0
M  V30 55524 N 5689.21 0.540352 -1.48047 0
M  V30 55525 C 5690.43 1.32172 -1.5918 0
M  V30 55526 C 5690.85 1.87162 -0.248181 0
M  V30 55527 O 5690.21 1.65874 0.761066 0
M  V30 55528 C 5690.26 2.47985 -2.63031 0
M  V30 55529 O 5689.98 1.95264 -3.92178 0
M  V30 55530 C 5691.48 3.39957 -2.84507 0
M  V30 55531 H 5688.7 0.402311 -0.537017 0
M  V30 55532 H 5691.24 0.652915 -1.93797 0
M  V30 55533 H 5689.4 3.1077 -2.31302 0
M  V30 55534 H 5689.81 2.70996 -4.49067 0
M  V30 55535 H 5691.29 4.17595 -3.60997 0
M  V30 55536 H 5691.76 3.94548 -1.92946 0
M  V30 55537 H 5692.37 2.82973 -3.175 0
M  V30 55538 N 5690.69 1.36461 0.78842 0
M  V30 55539 C 5692.1 1.2752 1.36366 0
M  V30 55540 C 5692.45 -0.0845562 1.96018 0
M  V30 55541 O 5691.57 -0.986042 1.9263 0
M  V30 55542 C 5692.17 2.30912 2.47922 0
M  V30 55543 C 5690.73 2.25656 3.01258 0
M  V30 55544 C 5689.87 2.15637 1.74344 0
M  V30 55545 H 5692.82 1.47326 0.589987 0
M  V30 55546 H 5692.85 1.94613 3.26965 0
M  V30 55547 H 5692.36 3.29865 2.04476 0
M  V30 55548 H 5690.46 1.30172 3.49122 0
M  V30 55549 H 5690.57 3.18385 3.58005 0
M  V30 55550 H 5688.94 1.61908 1.96616 0
M  V30 55551 H 5689.72 3.16479 1.33025 0
M  V30 55552 N 5692.16 -1.01269 1.20757 0
M  V30 55553 C 5693.39 -1.7852 1.04585 0
M  V30 55554 C 5693.81 -1.84411 -0.404744 0
M  V30 55555 O 5693.16 -1.29991 -1.28096 0
M  V30 55556 C 5693.21 -3.228 1.62733 0
M  V30 55557 O 5692.94 -3.17265 3.02117 0
M  V30 55558 C 5694.44 -4.16584 1.51568 0
M  V30 55559 H 5691.66 -0.561286 0.367694 0
M  V30 55560 H 5694.2 -1.27448 1.59929 0
M  V30 55561 H 5692.36 -3.71007 1.115 0
M  V30 55562 H 5692.77 -4.07855 3.2978 0
M  V30 55563 H 5694.24 -5.15647 1.97008 0
M  V30 55564 H 5694.72 -4.36691 0.468812 0
M  V30 55565 H 5695.33 -3.74262 2.02011 0
M  V30 55566 N 5693.64 -1.01408 -1.2064 0
M  V30 55567 C 5694.87 -0.721109 -1.93927 0
M  V30 55568 C 5695.28 0.717792 -1.74623 0
M  V30 55569 O 5694.64 1.4866 -1.0586 0
M  V30 55570 C 5694.69 -1.04411 -3.46093 0
M  V30 55571 O 5694.41 -2.42649 -3.64764 0
M  V30 55572 C 5695.91 -0.771832 -4.36529 0
M  V30 55573 H 5693.13 -0.265005 -0.616452 0
M  V30 55574 H 5695.68 -1.35458 -1.53203 0
M  V30 55575 H 5693.83 -0.456081 -3.84706 0
M  V30 55576 H 5694.25 -2.54217 -4.58774 0
M  V30 55577 H 5695.72 -1.04793 -5.41962 0
M  V30 55578 H 5696.2 0.294034 -4.38215 0
M  V30 55579 H 5696.8 -1.3419 -4.03576 0
M  V30 55580 N 5695.12 1.3637 -0.789992 0
M  V30 55581 C 5696.35 2.03481 -0.374602 0
M  V30 55582 C 5696.76 1.59565 1.00918 0
M  V30 55583 O 5696.12 0.785347 1.64738 0
M  V30 55584 C 5696.17 3.58941 -0.429381 0
M  V30 55585 O 5695.89 4.01255 -1.75859 0
M  V30 55586 C 5697.39 4.433 -0.00469314 0
M  V30 55587 H 5694.61 0.653014 -0.154318 0
M  V30 55588 H 5697.16 1.74335 -1.069 0
M  V30 55589 H 5695.31 3.86794 0.216604 0
M  V30 55590 H 5695.73 4.95848 -1.70982 0
M  V30 55591 H 5697.2 5.5192 -0.0941594 0
M  V30 55592 H 5697.68 4.26513 1.04801 0
M  V30 55593 H 5698.28 4.20709 -0.623189 0
M  V30 55594 N 5696.6 0.542057 1.47985 0
M  V30 55595 C 5698.01 0.104712 1.86406 0
M  V30 55596 C 5698.36 -1.32134 1.45035 0
M  V30 55597 O 5697.48 -1.99156 0.846509 0
M  V30 55598 C 5698.08 0.183252 3.38304 0
M  V30 55599 C 5696.64 -0.198966 3.75874 0
M  V30 55600 C 5695.79 0.537627 2.72038 0
M  V30 55601 H 5698.74 0.752639 1.39718 0
M  V30 55602 H 5698.76 -0.602017 3.75707 0
M  V30 55603 H 5698.27 1.22126 3.68384 0
M  V30 55604 H 5696.37 -1.23866 3.51409 0
M  V30 55605 H 5696.48 0.149048 4.78868 0
M  V30 55606 H 5694.85 -0.0175359 2.54694 0
M  V30 55607 H 5695.63 1.5765 3.04961 0
M  V30 55608 N 5698.08 -1.55133 0.277764 0
M  V30 55609 C 5699.32 -1.98832 -0.338912 0
M  V30 55610 C 5699.64 -1.16963 -1.56777 0
M  V30 55611 O 5700.84 -1.50819 -2.25756 0
M  V30 55612 C 5699.3 -3.53902 -0.654341 0
M  V30 55613 C 5698.91 -4.44551 0.554859 0
M  V30 55614 C 5700.65 -4.06184 -1.23349 0
M  V30 55615 C 5698.56 -5.91013 0.213871 0
M  V30 55616 H 5697.49 -0.742637 -0.130408 0
M  V30 55617 H 5700.14 -1.79462 0.382831 0
M  V30 55618 H 5698.52 -3.69083 -1.43506 0
M  V30 55619 H 5699.7 -4.41139 1.33166 0
M  V30 55620 H 5698.01 -4.02917 1.05104 0
M  V30 55621 H 5700.61 -5.13157 -1.50247 0
M  V30 55622 H 5700.95 -3.55378 -2.16824 0
M  V30 55623 H 5701.48 -3.94452 -0.515009 0
M  V30 55624 H 5698.22 -6.4592 1.11656 0
M  V30 55625 H 5697.74 -5.97488 -0.526119 0
M  V30 55626 H 5699.42 -6.46712 -0.192963 0
M  V30 55627 N 5699.55 -0.00508679 -1.57599 0
M  V30 55628 C 5700.78 0.689541 -1.95072 0
M  V30 55629 C 5701.2 1.67025 -0.880241 0
M  V30 55630 O 5700.55 1.8196 0.140343 0
M  V30 55631 C 5700.6 1.41697 -3.32572 0
M  V30 55632 O 5700.33 0.475592 -4.35511 0
M  V30 55633 C 5701.83 2.20564 -3.84534 0
M  V30 55634 H 5699.05 0.191728 -0.643025 0
M  V30 55635 H 5701.59 -0.0577179 -2.04419 0
M  V30 55636 H 5699.75 2.11582 -3.24518 0
M  V30 55637 H 5700.16 0.989392 -5.15084 0
M  V30 55638 H 5701.63 2.66952 -4.83157 0
M  V30 55639 H 5702.11 3.03456 -3.17508 0
M  V30 55640 H 5702.72 1.55686 -3.9578 0
M  V30 55641 N 5701.03 1.55309 0.267743 0
M  V30 55642 C 5702.26 1.80194 1.01674 0
M  V30 55643 C 5702.67 0.577893 1.79738 0
M  V30 55644 O 5702.03 -0.453138 1.76785 0
M  V30 55645 C 5702.08 3.0303 1.97117 0
M  V30 55646 O 5701.8 4.20708 1.22215 0
M  V30 55647 C 5703.3 3.40559 2.83786 0
M  V30 55648 H 5700.52 0.60014 0.300121 0
M  V30 55649 H 5703.07 2.02333 0.296936 0
M  V30 55650 H 5701.22 2.83003 2.64553 0
M  V30 55651 H 5701.64 4.90188 1.86591 0
M  V30 55652 H 5703.11 4.29665 3.46542 0
M  V30 55653 H 5703.59 2.60198 3.53827 0
M  V30 55654 H 5704.19 3.62864 2.21833 0
M  V30 55655 N 5702.51 -0.532493 1.48332 0
M  V30 55656 C 5703.74 -1.31326 1.59879 0
M  V30 55657 C 5704.15 -1.87027 0.258103 0
M  V30 55658 O 5703.51 -1.66275 -0.752258 0
M  V30 55659 C 5703.56 -2.46587 2.64343 0
M  V30 55660 O 5703.28 -1.93181 3.93208 0
M  V30 55661 C 5704.78 -3.38444 2.86305 0
M  V30 55662 H 5702 -0.399457 0.539143 0
M  V30 55663 H 5704.55 -0.642628 1.94141 0
M  V30 55664 H 5702.7 -3.09539 2.32947 0
M  V30 55665 H 5703.12 -2.68611 4.50498 0
M  V30 55666 H 5704.59 -4.15674 3.63206 0
M  V30 55667 H 5705.07 -3.9352 1.95036 0
M  V30 55668 H 5705.67 -2.81286 3.18996 0
M  V30 55669 N 5703.99 -1.36878 -0.781172 0
M  V30 55670 C 5705.22 -1.34738 -1.57014 0
M  V30 55671 C 5705.63 0.069476 -1.88672 0
M  V30 55672 O 5704.99 1.02867 -1.50747 0
M  V30 55673 C 5705.04 -2.17678 -2.88615 0
M  V30 55674 O 5704.76 -3.53841 -2.58318 0
M  V30 55675 C 5706.26 -2.23411 -3.82887 0
M  V30 55676 H 5703.48 -0.461874 -0.486738 0
M  V30 55677 H 5706.02 -1.80089 -0.968925 0
M  V30 55678 H 5704.18 -1.7586 -3.45184 0
M  V30 55679 H 5704.59 -3.97212 -3.42524 0
M  V30 55680 H 5706.07 -2.85786 -4.72261 0
M  V30 55681 H 5706.54 -1.23987 -4.21336 0
M  V30 55682 H 5707.15 -2.65501 -3.32249 0
M  V30 55683 N 5705.47 1.00628 -1.21292 0
M  V30 55684 C 5706.69 1.77963 -1.0553 0
M  V30 55685 C 5707.11 1.84623 0.394958 0
M  V30 55686 O 5706.47 1.30669 1.27405 0
M  V30 55687 C 5706.52 3.21933 -1.64443 0
M  V30 55688 O 5706.24 3.15658 -3.03795 0
M  V30 55689 C 5707.74 4.15774 -1.53775 0
M  V30 55690 H 5704.96 0.559328 -0.370665 0
M  V30 55691 H 5707.5 1.26598 -1.60603 0
M  V30 55692 H 5705.66 3.70411 -1.13466 0
M  V30 55693 H 5706.07 4.061 -3.31938 0
M  V30 55694 H 5707.55 5.14595 -1.9974 0
M  V30 55695 H 5708.02 4.36436 -0.491964 0
M  V30 55696 H 5708.63 3.73185 -2.03993 0
M  V30 55697 N 5706.94 1.02047 1.20101 0
M  V30 55698 C 5708.19 0.713094 1.89849 0
M  V30 55699 C 5708.52 -0.755704 1.78893 0
M  V30 55700 O 5707.8 -1.54944 1.1757 0
M  V30 55701 C 5708.08 1.15429 3.41099 0
M  V30 55702 C 5707.93 2.68368 3.60969 0
M  V30 55703 C 5709.25 0.728542 4.34028 0
M  V30 55704 H 5706.37 0.260526 0.689416 0
M  V30 55705 H 5709.01 1.2689 1.41418 0
M  V30 55706 H 5707.16 0.681404 3.82478 0
M  V30 55707 H 5708.84 3.23538 3.28817 0
M  V30 55708 H 5707.08 3.09159 3.04308 0
M  V30 55709 H 5707.75 2.94292 4.67008 0
M  V30 55710 H 5710.23 1.13513 4.00317 0
M  V30 55711 H 5709.1 1.06523 5.38465 0
M  V30 55712 H 5709.36 -0.369581 4.40553 0
M  V30 55713 N 5708.42 -1.3595 0.797213 0
M  V30 55714 C 5709.65 -2.03279 0.385388 0
M  V30 55715 C 5710.07 -1.60098 -1.0007 0
M  V30 55716 O 5709.42 -0.794072 -1.64319 0
M  V30 55717 C 5709.47 -3.58708 0.448411 0
M  V30 55718 O 5709.19 -4.00316 1.77984 0
M  V30 55719 C 5710.7 -4.43291 0.0282023 0
M  V30 55720 H 5707.92 -0.652186 0.157779 0
M  V30 55721 H 5710.46 -1.73766 1.07823 0
M  V30 55722 H 5708.61 -3.86903 -0.196088 0
M  V30 55723 H 5709.03 -4.94935 1.73609 0
M  V30 55724 H 5710.5 -5.51862 0.123428 0
M  V30 55725 H 5710.98 -4.27063 -1.02537 0
M  V30 55726 H 5711.59 -4.20373 0.645491 0
M  V30 55727 N 5709.9 -0.549898 -1.47695 0
M  V30 55728 C 5711.31 -0.114596 -1.86348 0
M  V30 55729 C 5711.66 1.31363 -1.45734 0
M  V30 55730 O 5710.79 1.98704 -0.857059 0
M  V30 55731 C 5711.38 -0.201191 -3.38202 0
M  V30 55732 C 5709.94 0.17903 -3.75974 0
M  V30 55733 C 5709.09 -0.552047 -2.71749 0
M  V30 55734 H 5712.04 -0.760038 -1.39317 0
M  V30 55735 H 5712.06 0.582084 -3.76021 0
M  V30 55736 H 5711.57 -1.24078 -3.67731 0
M  V30 55737 H 5709.67 1.22 -3.52061 0
M  V30 55738 H 5709.79 -0.174441 -4.78782 0
M  V30 55739 H 5708.15 0.00402865 -2.547 0
M  V30 55740 H 5708.93 -1.59265 -3.04121 0
M  V30 55741 N 5711.38 1.54983 -0.285987 0
M  V30 55742 C 5712.61 2.0424 0.330702 0
M  V30 55743 C 5713.02 1.16392 1.48655 0
M  V30 55744 O 5712.38 0.186319 1.81546 0
M  V30 55745 C 5712.43 3.52507 0.801332 0
M  V30 55746 O 5712.15 4.37013 -0.308494 0
M  V30 55747 C 5713.65 4.17697 1.48472 0
M  V30 55748 H 5710.87 0.666906 0.0740116 0
M  V30 55749 H 5713.42 2.00114 -0.421248 0
M  V30 55750 H 5711.57 3.57041 1.50334 0
M  V30 55751 H 5711.98 5.24471 0.0552047 0
M  V30 55752 H 5713.46 5.23011 1.76533 0
M  V30 55753 H 5713.94 3.66524 2.41986 0
M  V30 55754 H 5714.54 4.17196 0.826281 0
M  V30 55755 N 5712.86 0.0134446 1.57594 0
M  V30 55756 C 5714.27 -0.527553 1.79092 0
M  V30 55757 C 5714.62 -1.73176 0.922203 0
M  V30 55758 O 5713.74 -2.16019 0.128309 0
M  V30 55759 C 5714.34 -0.963835 3.24801 0
M  V30 55760 C 5712.9 -1.45005 3.47348 0
M  V30 55761 C 5712.04 -0.407451 2.7429 0
M  V30 55762 H 5715 0.23956 1.56881 0
M  V30 55763 H 5715.02 -1.82912 3.33652 0
M  V30 55764 H 5714.53 -0.0871951 3.88002 0
M  V30 55765 H 5712.63 -2.34714 2.89379 0
M  V30 55766 H 5712.74 -1.46824 4.56048 0
M  V30 55767 H 5711.11 -0.87209 2.39305 0
M  V30 55768 H 5711.89 0.460453 3.40198 0
M  V30 55769 N 5714.33 -1.55449 -0.259503 0
M  V30 55770 C 5715.56 -1.80731 -1.00717 0
M  V30 55771 C 5715.98 -0.587417 -1.79429 0
M  V30 55772 O 5715.33 0.443757 -1.77023 0
M  V30 55773 C 5715.39 -3.04071 -1.95507 0
M  V30 55774 O 5715.11 -4.2135 -1.19982 0
M  V30 55775 C 5716.61 -3.42059 -2.81976 0
M  V30 55776 H 5713.83 -0.601723 -0.296934 0
M  V30 55777 H 5716.37 -2.02487 -0.286201 0
M  V30 55778 H 5714.53 -2.84402 -2.63048 0
M  V30 55779 H 5714.94 -4.91171 -1.83988 0
M  V30 55780 H 5716.41 -4.31497 -3.44259 0
M  V30 55781 H 5716.89 -2.62071 -3.52442 0
M  V30 55782 H 5717.5 -3.64035 -2.19906 0
M  V30 55783 N 5715.81 0.524619 -1.48612 0
M  V30 55784 C 5717.22 1.10649 -1.50378 0
M  V30 55785 C 5717.57 1.94241 -0.276581 0
M  V30 55786 O 5716.7 2.07453 0.615814 0
M  V30 55787 C 5717.29 2.01338 -2.72485 0
M  V30 55788 C 5715.85 2.54733 -2.77106 0
M  V30 55789 C 5715 1.31813 -2.43968 0
M  V30 55790 H 5717.95 0.309619 -1.5565 0
M  V30 55791 H 5717.97 2.85701 -2.51308 0
M  V30 55792 H 5717.48 1.40472 -3.61786 0
M  V30 55793 H 5715.59 3.19306 -1.92027 0
M  V30 55794 H 5715.7 2.93501 -3.78674 0
M  V30 55795 H 5714.06 1.63567 -1.95238 0
M  V30 55796 H 5714.85 0.726908 -3.35516 0
M  V30 55797 N 5717.29 1.3729 0.773902 0
M  V30 55798 C 5718.52 1.35569 1.56297 0
M  V30 55799 C 5718.93 -0.0594693 1.88706 0
M  V30 55800 O 5718.29 -1.02067 1.5129 0
M  V30 55801 C 5718.34 2.19205 2.87457 0
M  V30 55802 O 5718.06 3.55206 2.56438 0
M  V30 55803 C 5719.56 2.25439 3.81697 0
M  V30 55804 H 5716.78 0.464448 0.484282 0
M  V30 55805 H 5719.33 1.806 0.959361 0
M  V30 55806 H 5717.48 1.77688 3.44247 0
M  V30 55807 H 5717.9 3.99023 3.40413 0
M  V30 55808 H 5719.37 2.88286 4.70739 0
M  V30 55809 H 5719.85 1.2622 4.20672 0
M  V30 55810 H 5720.45 2.67259 3.30836 0
M  V30 55811 N 5718.77 -0.999829 1.21824 0
M  V30 55812 C 5720.02 -1.73493 1.03656 0
M  V30 55813 C 5720.34 -1.90195 -0.430204 0
M  V30 55814 O 5719.61 -1.45659 -1.30997 0
M  V30 55815 H 5718.19 -0.642791 0.380564 0
M  V30 55816 H 5720.85 -1.20455 1.5322 0
M  V30 55817 H 5719.95 -2.73209 1.50874 0
M  V30 55818 N 5720.25 -1.02682 -1.19558 0
M  V30 55819 C 5721.48 -0.741637 -1.93151 0
M  V30 55820 C 5721.89 0.69923 -1.75374 0
M  V30 55821 O 5721.25 1.47529 -1.07431 0
M  V30 55822 C 5721.3 -1.08076 -3.44966 0
M  V30 55823 O 5721.02 -2.46505 -3.6217 0
M  V30 55824 C 5722.52 -0.818088 -4.35686 0
M  V30 55825 H 5719.74 -0.271528 -0.613607 0
M  V30 55826 H 5722.28 -1.37076 -1.51758 0
M  V30 55827 H 5720.44 -0.496859 -3.84201 0
M  V30 55828 H 5720.85 -2.59069 -4.56052 0
M  V30 55829 H 5722.33 -1.10536 -5.4082 0
M  V30 55830 H 5722.8 0.247539 -4.38502 0
M  V30 55831 H 5723.41 -1.38463 -4.0213 0
M  V30 55832 N 5721.73 1.35525 -0.804411 0
M  V30 55833 C 5722.66 2.28561 -0.170974 0
M  V30 55834 C 5723.67 1.5018 0.628473 0
M  V30 55835 O 5724.86 1.72439 0.461191 0
M  V30 55836 C 5721.96 3.29794 0.780318 0
M  V30 55837 C 5721.13 4.37391 0.0277082 0
M  V30 55838 C 5720.19 5.18495 0.897159 0
M  V30 55839 O 5719.22 5.6813 0.348899 0
M  V30 55840 N 5720.42 5.36393 2.21952 0
M  V30 55841 H 5723.18 2.83561 -0.970208 0
M  V30 55842 H 5720.75 1.47851 -0.659669 0
M  V30 55843 H 5722.74 3.80944 1.36615 0
M  V30 55844 H 5721.31 2.75325 1.48037 0
M  V30 55845 H 5720.53 3.87205 -0.739314 0
M  V30 55846 H 5721.82 5.06425 -0.491067 0
M  V30 55847 H 5721.21 4.97708 2.68892 0
M  V30 55848 H 5719.77 5.90731 2.75464 0
M  V30 55849 N 5723.2 0.557723 1.47402 0
M  V30 55850 C 5724.43 0.0387326 2.06864 0
M  V30 55851 C 5724.85 -1.25522 1.41031 0
M  V30 55852 O 5724.2 -1.75316 0.507011 0
M  V30 55853 C 5724.25 -0.160014 3.61146 0
M  V30 55854 O 5723.98 1.08269 4.24511 0
M  V30 55855 C 5725.48 -0.716227 4.37476 0
M  V30 55856 H 5722.7 0.0460759 0.669416 0
M  V30 55857 H 5725.24 0.77128 1.89398 0
M  V30 55858 H 5723.4 -0.842693 3.78124 0
M  V30 55859 H 5723.81 0.880752 5.17052 0
M  V30 55860 H 5725.28 -0.804581 5.46105 0
M  V30 55861 H 5725.76 -1.72762 4.03795 0
M  V30 55862 H 5726.37 -0.0692292 4.25244 0
M  V30 55863 N 5724.68 -1.5483 0.294202 0
M  V30 55864 C 5726.09 -1.85628 -0.1998 0
M  V30 55865 C 5726.44 -1.21618 -1.53959 0
M  V30 55866 O 5725.57 -0.511391 -2.10271 0
M  V30 55867 C 5726.16 -3.36781 -0.369309 0
M  V30 55868 C 5724.72 -3.67635 -0.807533 0
M  V30 55869 C 5723.87 -2.7716 0.0881052 0
M  V30 55870 H 5726.82 -1.50097 0.515424 0
M  V30 55871 H 5726.84 -3.60917 -1.20495 0
M  V30 55872 H 5726.35 -3.8334 0.605965 0
M  V30 55873 H 5724.45 -3.2659 -1.7936 0
M  V30 55874 H 5724.57 -4.74918 -0.631632 0
M  V30 55875 H 5722.93 -2.51019 -0.431465 0
M  V30 55876 H 5723.71 -3.26538 1.05961 0
M  V30 55877 N 5726.16 -0.021802 -1.57585 0
M  V30 55878 C 5727.39 0.668812 -1.95792 0
M  V30 55879 C 5727.8 1.66082 -0.897907 0
M  V30 55880 O 5727.16 1.82098 0.121035 0
M  V30 55881 C 5727.21 1.38162 -3.34056 0
M  V30 55882 O 5726.93 0.429374 -4.35991 0
M  V30 55883 C 5728.43 2.16473 -3.86852 0
M  V30 55884 H 5725.65 0.184897 -0.645023 0
M  V30 55885 H 5728.2 -0.079396 -2.04346 0
M  V30 55886 H 5726.35 2.08128 -3.26744 0
M  V30 55887 H 5726.77 0.934705 -5.16104 0
M  V30 55888 H 5728.24 2.61812 -4.85961 0
M  V30 55889 H 5728.72 3.00071 -3.20709 0
M  V30 55890 H 5729.32 1.51479 -3.97409 0
M  V30 55891 N 5727.64 1.55584 0.251256 0
M  V30 55892 C 5728.87 1.81263 0.997573 0
M  V30 55893 C 5729.28 0.596924 1.79115 0
M  V30 55894 O 5728.64 -0.434362 1.77256 0
M  V30 55895 C 5728.69 3.05104 1.93891 0
M  V30 55896 O 5728.41 4.21981 1.17745 0
M  V30 55897 C 5729.91 3.4355 2.80158 0
M  V30 55898 H 5727.13 0.60329 0.293739 0
M  V30 55899 H 5729.67 2.02636 0.275459 0
M  V30 55900 H 5727.83 2.85793 2.61536 0
M  V30 55901 H 5728.24 4.92139 1.81381 0
M  V30 55902 H 5729.72 4.33317 3.41966 0
M  V30 55903 H 5730.19 2.63936 3.51047 0
M  V30 55904 H 5730.8 3.65196 2.17972 0
M  V30 55905 N 5729.12 -0.516731 1.48888 0
M  V30 55906 C 5730.34 -1.29623 1.61262 0
M  V30 55907 C 5730.76 -1.86743 0.277925 0
M  V30 55908 O 5730.12 -1.67063 -0.73458 0
M  V30 55909 C 5730.17 -2.43769 2.66943 0
M  V30 55910 O 5729.89 -1.89 3.95235 0
M  V30 55911 C 5731.39 -3.35388 2.89879 0
M  V30 55912 H 5728.61 -0.393717 0.543349 0
M  V30 55913 H 5731.15 -0.622001 1.94811 0
M  V30 55914 H 5729.31 -3.07051 2.36217 0
M  V30 55915 H 5729.72 -2.63818 4.53322 0
M  V30 55916 H 5731.2 -4.11799 3.67595 0
M  V30 55917 H 5731.67 -3.91429 1.99199 0
M  V30 55918 H 5732.28 -2.77887 3.21961 0
M  V30 55919 N 5730.59 -1.37698 -0.766611 0
M  V30 55920 C 5732 -1.29673 -1.3432 0
M  V30 55921 C 5732.36 0.0533608 -1.96127 0
M  V30 55922 O 5731.48 0.955272 -1.94174 0
M  V30 55923 C 5732.08 -2.34827 -2.44217 0
M  V30 55924 C 5730.63 -2.3042 -2.9763 0
M  V30 55925 C 5729.78 -2.18384 -1.70892 0
M  V30 55926 H 5732.73 -1.48246 -0.566474 0
M  V30 55927 H 5732.75 -1.9979 -3.23828 0
M  V30 55928 H 5732.27 -3.33077 -1.99202 0
M  V30 55929 H 5730.37 -1.3571 -3.47007 0
M  V30 55930 H 5730.48 -3.24041 -3.52895 0
M  V30 55931 H 5728.84 -1.65015 -1.94016 0
M  V30 55932 H 5729.63 -3.18556 -1.27973 0
M  V30 55933 N 5732.07 0.993354 -1.22353 0
M  V30 55934 C 5733.32 1.72703 -1.04195 0
M  V30 55935 C 5733.63 1.90964 0.423314 0
M  V30 55936 O 5734.84 2.61653 0.724553 0
M  V30 55937 C 5733.3 3.10732 -1.81586 0
M  V30 55938 C 5732.9 3.00403 -3.32358 0
M  V30 55939 C 5734.65 3.88149 -1.71875 0
M  V30 55940 C 5732.55 4.33584 -4.02192 0
M  V30 55941 H 5731.48 0.647542 -0.386271 0
M  V30 55942 H 5734.14 1.10897 -1.46199 0
M  V30 55943 H 5732.52 3.73218 -1.3238 0
M  V30 55944 H 5733.69 2.47086 -3.88954 0
M  V30 55945 H 5732.01 2.3647 -3.42741 0
M  V30 55946 H 5734.6 4.86722 -2.21372 0
M  V30 55947 H 5734.95 4.10724 -0.679084 0
M  V30 55948 H 5735.48 3.3234 -2.18621 0
M  V30 55949 H 5732.22 4.16208 -5.0641 0
M  V30 55950 H 5731.74 4.86817 -3.50385 0
M  V30 55951 H 5733.42 5.02334 -4.07762 0
M  V30 55952 N 5733.55 1.03315 1.19012 0
M  V30 55953 C 5734.78 0.751869 1.92755 0
M  V30 55954 C 5735.19 -0.68992 1.75743 0
M  V30 55955 O 5734.55 -1.46957 1.08212 0
M  V30 55956 C 5734.6 1.09904 3.44388 0
M  V30 55957 O 5734.32 2.48422 3.60858 0
M  V30 55958 C 5735.82 0.841182 4.35246 0
M  V30 55959 H 5733.04 0.274778 0.612158 0
M  V30 55960 H 5735.59 1.37879 1.51029 0
M  V30 55961 H 5733.74 0.517227 3.83932 0
M  V30 55962 H 5734.16 2.61484 4.54672 0
M  V30 55963 H 5735.63 1.13402 5.40226 0
M  V30 55964 H 5736.11 -0.22428 4.38627 0
M  V30 55965 H 5736.71 1.40593 4.0139 0
M  V30 55966 N 5735.03 -1.35096 0.811587 0
M  V30 55967 C 5736.26 -2.02859 0.406927 0
M  V30 55968 C 5736.67 -1.61151 -0.983663 0
M  V30 55969 O 5736.03 -0.811456 -1.63468 0
M  V30 55970 C 5736.08 -3.58212 0.486431 0
M  V30 55971 O 5735.8 -3.98406 1.8222 0
M  V30 55972 C 5737.3 -4.43236 0.0752177 0
M  V30 55973 H 5734.52 -0.650476 0.164687 0
M  V30 55974 H 5737.07 -1.72612 1.0966 0
M  V30 55975 H 5735.22 -3.8709 -0.155041 0
M  V30 55976 H 5735.63 -4.93065 1.78849 0
M  V30 55977 H 5737.11 -5.517 0.181953 0
M  V30 55978 H 5737.59 -4.28126 -0.980018 0
M  V30 55979 H 5738.19 -4.19665 0.690041 0
M  V30 55980 N 5736.51 -0.565532 -1.47104 0
M  V30 55981 C 5737.73 -0.0497026 -2.0684 0
M  V30 55982 C 5738.15 1.24772 -1.41695 0
M  V30 55983 O 5737.51 1.75045 -0.516301 0
M  V30 55984 C 5737.56 0.14086 -3.61225 0
M  V30 55985 O 5737.28 -1.10519 -4.23931 0
M  V30 55986 C 5738.78 0.693017 -4.37849 0
M  V30 55987 H 5736 -0.0496253 -0.669162 0
M  V30 55988 H 5738.54 -0.781314 -1.88986 0
M  V30 55989 H 5736.7 0.822629 -3.78565 0
M  V30 55990 H 5737.11 -0.90816 -5.16578 0
M  V30 55991 H 5738.59 0.775608 -5.46524 0
M  V30 55992 H 5739.06 1.70618 -4.04705 0
M  V30 55993 H 5739.67 0.0466765 -4.25274 0
M  V30 55994 N 5737.98 1.54671 -0.302409 0
M  V30 55995 C 5739.21 2.04579 0.309022 0
M  V30 55996 C 5739.63 1.17963 1.47412 0
M  V30 55997 O 5738.98 0.205564 1.81339 0
M  V30 55998 C 5739.04 3.53337 0.763899 0
M  V30 55999 O 5738.76 4.36661 -0.354827 0
M  V30 56000 C 5740.26 4.19248 1.44034 0
M  V30 56001 H 5737.48 0.667653 0.066934 0
M  V30 56002 H 5740.02 1.99656 -0.442449 0
M  V30 56003 H 5738.18 3.58616 1.46539 0
M  V30 56004 H 5738.59 5.245 -0.000425576 0
M  V30 56005 H 5740.06 5.24853 1.70976 0
M  V30 56006 H 5740.54 3.6907 2.38085 0
M  V30 56007 H 5741.15 4.18049 0.781985 0
M  V30 56008 N 5739.46 0.0301588 1.57571 0
M  V30 56009 C 5740.69 -0.658419 1.96144 0
M  V30 56010 C 5741.11 -1.65603 0.906702 0
M  V30 56011 O 5740.46 -1.8216 -0.111377 0
M  V30 56012 C 5740.51 -1.36388 3.34784 0
M  V30 56013 O 5740.23 -0.406246 4.36212 0
M  V30 56014 C 5741.74 -2.14419 3.87994 0
M  V30 56015 H 5738.96 -0.181473 0.645994 0
M  V30 56016 H 5741.5 0.0902318 2.04301 0
M  V30 56017 H 5739.65 -2.06393 3.27843 0
M  V30 56018 H 5740.07 -0.907322 5.16593 0
M  V30 56019 H 5741.54 -2.59231 4.87343 0
M  V30 56020 H 5742.02 -2.98366 3.22295 0
M  V30 56021 H 5742.63 -1.49369 3.98207 0
M  V30 56022 N 5740.94 -1.55715 -0.243001 0
M  V30 56023 C 5742.19 -1.77993 -0.97193 0
M  V30 56024 C 5742.52 -0.596103 -1.84825 0
M  V30 56025 O 5741.79 0.405473 -1.90227 0
M  V30 56026 C 5742.08 -3.10185 -1.82914 0
M  V30 56027 C 5741.93 -4.38978 -0.980746 0
M  V30 56028 C 5743.25 -3.38638 -2.81091 0
M  V30 56029 H 5740.37 -0.647552 -0.351917 0
M  V30 56030 H 5743.01 -1.8845 -0.242171 0
M  V30 56031 H 5741.16 -3.014 -2.45133 0
M  V30 56032 H 5742.83 -4.59757 -0.376951 0
M  V30 56033 H 5741.08 -4.32861 -0.285261 0
M  V30 56034 H 5741.75 -5.27864 -1.61442 0
M  V30 56035 H 5744.22 -3.47411 -2.29009 0
M  V30 56036 H 5743.1 -4.32343 -3.38188 0
M  V30 56037 H 5743.36 -2.59742 -3.57752 0
M  V30 56038 N 5742.42 0.508828 -1.4916 0
M  V30 56039 C 5743.65 1.28766 -1.61948 0
M  V30 56040 C 5744.06 1.86593 -0.287825 0
M  V30 56041 O 5743.42 1.67451 0.72571 0
M  V30 56042 C 5743.47 2.4235 -2.68232 0
M  V30 56043 O 5743.19 1.86901 -3.96232 0
M  V30 56044 C 5744.69 3.33846 -2.91654 0
M  V30 56045 H 5741.91 0.39083 -0.545429 0
M  V30 56046 H 5744.46 0.611661 -1.95138 0
M  V30 56047 H 5742.61 3.05794 -2.37842 0
M  V30 56048 H 5743.02 2.6141 -4.54714 0
M  V30 56049 H 5744.5 4.09843 -3.69773 0
M  V30 56050 H 5744.98 3.90367 -2.01272 0
M  V30 56051 H 5745.58 2.76175 -3.23431 0
M  V30 56052 N 5743.9 1.38103 0.759297 0
M  V30 56053 C 5745.31 1.30384 1.3363 0
M  V30 56054 C 5745.66 -0.0429589 1.96153 0
M  V30 56055 O 5744.78 -0.944961 1.94678 0
M  V30 56056 C 5745.38 2.36119 2.42968 0
M  V30 56057 C 5743.94 2.31995 2.96404 0
M  V30 56058 C 5743.08 2.19287 1.69731 0
M  V30 56059 H 5746.04 1.48544 0.558604 0
M  V30 56060 H 5746.06 2.01504 3.22763 0
M  V30 56061 H 5745.57 3.34128 1.97433 0
M  V30 56062 H 5743.67 1.37548 3.46282 0
M  V30 56063 H 5743.78 3.25907 3.51171 0
M  V30 56064 H 5742.15 1.66042 1.93138 0
M  V30 56065 H 5742.93 3.1923 1.26282 0
M  V30 56066 N 5745.37 -0.986851 1.22878 0
M  V30 56067 C 5746.6 -1.76262 1.08348 0
M  V30 56068 C 5747.02 -1.85228 -0.365537 0
M  V30 56069 O 5746.37 -1.32679 -1.2531 0
M  V30 56070 C 5746.43 -3.19276 1.69544 0
M  V30 56071 O 5746.15 -3.10785 3.08778 0
M  V30 56072 C 5747.65 -4.13275 1.6037 0
M  V30 56073 H 5744.87 -0.553361 0.379517 0
M  V30 56074 H 5747.41 -1.24027 1.62596 0
M  V30 56075 H 5745.57 -3.68559 1.19345 0
M  V30 56076 H 5745.98 -4.00768 3.38357 0
M  V30 56077 H 5747.45 -5.11352 2.07901 0
M  V30 56078 H 5747.93 -4.35598 0.561335 0
M  V30 56079 H 5748.54 -3.69892 2.09904 0
M  V30 56080 N 5746.85 -1.03945 -1.18462 0
M  V30 56081 C 5748.26 -0.770169 -1.70074 0
M  V30 56082 C 5748.61 0.709095 -1.82938 0
M  V30 56083 O 5747.74 1.55203 -1.50801 0
M  V30 56084 C 5748.33 -1.39143 -3.08909 0
M  V30 56085 C 5746.89 -1.1705 -3.57738 0
M  V30 56086 C 5746.04 -1.48287 -2.34321 0
M  V30 56087 H 5748.99 -1.20602 -1.03155 0
M  V30 56088 H 5749.01 -0.793992 -3.72124 0
M  V30 56089 H 5748.52 -2.46805 -2.99514 0
M  V30 56090 H 5746.63 -0.112566 -3.7243 0
M  V30 56091 H 5746.74 -1.86665 -4.4124 0
M  V30 56092 H 5745.1 -0.902521 -2.38174 0
M  V30 56093 H 5745.89 -2.57055 -2.27547 0
M  V30 56094 N 5748.33 1.34664 -0.81874 0
M  V30 56095 C 5749.56 2.0264 -0.417679 0
M  V30 56096 C 5749.97 1.6167 0.975103 0
M  V30 56097 O 5749.33 0.820113 1.63035 0
M  V30 56098 C 5749.38 3.57949 -0.505421 0
M  V30 56099 O 5749.1 3.97434 -1.84331 0
M  V30 56100 C 5750.6 4.4319 -0.0987225 0
M  V30 56101 H 5747.82 0.649594 -0.168134 0
M  V30 56102 H 5750.37 1.72028 -1.10574 0
M  V30 56103 H 5748.52 3.87166 0.13451 0
M  V30 56104 H 5748.94 4.9211 -1.81461 0
M  V30 56105 H 5750.41 5.51596 -0.211209 0
M  V30 56106 H 5750.89 4.2864 0.9573 0
M  V30 56107 H 5751.49 4.19293 -0.712287 0
M  V30 56108 N 5749.81 0.573325 1.46802 0
M  V30 56109 C 5751.22 0.144228 1.86142 0
M  V30 56110 C 5751.57 -1.29028 1.47805 0
M  V30 56111 O 5750.7 -1.97316 0.888563 0
M  V30 56112 C 5751.29 0.25497 3.37839 0
M  V30 56113 C 5749.85 -0.119193 3.76211 0
M  V30 56114 C 5749 0.59521 2.70837 0
M  V30 56115 H 5751.95 0.782106 1.3809 0
M  V30 56116 H 5751.97 -0.522188 3.769 0
M  V30 56117 H 5751.48 1.29912 3.65711 0
M  V30 56118 H 5749.58 -1.16384 3.53957 0
M  V30 56119 H 5749.7 0.250589 4.78444 0
M  V30 56120 H 5748.06 0.0364924 2.54674 0
M  V30 56121 H 5748.84 1.64083 3.01549 0
M  V30 56122 N 5751.29 -1.54509 0.310607 0
M  V30 56123 C 5752.52 -2.0474 -0.298168 0
M  V30 56124 C 5752.93 -1.18743 -1.46784 0
M  V30 56125 O 5752.29 -0.215178 -1.81227 0
M  V30 56126 C 5752.34 -3.53737 -0.74515 0
M  V30 56127 O 5752.06 -4.36466 0.37798 0
M  V30 56128 C 5753.56 -4.20006 -1.41808 0
M  V30 56129 H 5750.78 -0.667999 -0.0633924 0
M  V30 56130 H 5753.32 -1.99419 0.453031 0
M  V30 56131 H 5751.48 -3.59388 -1.44635 0
M  V30 56132 H 5751.89 -5.24492 0.0282411 0
M  V30 56133 H 5753.37 -5.25753 -1.6819 0
M  V30 56134 H 5753.84 -3.70327 -2.36124 0
M  V30 56135 H 5754.45 -4.18458 -0.759804 0
M  V30 56136 N 5752.77 -0.0385148 -1.57553 0
M  V30 56137 C 5754.01 0.636812 -1.91805 0
M  V30 56138 C 5754.33 1.72125 -0.916408 0
M  V30 56139 O 5753.6 1.95858 0.0406717 0
M  V30 56140 H 5752.18 0.238212 -0.708 0
M  V30 56141 H 5754.85 -0.0885335 -1.94699 0
M  V30 56142 H 5753.94 1.08354 -2.92687 0
M  V30 56143 N 5754.24 1.55842 0.23474 0
M  V30 56144 C 5755.47 1.8231 0.978291 0
M  V30 56145 C 5755.89 0.615888 1.78472 0
M  V30 56146 O 5755.24 -0.415538 1.77706 0
M  V30 56147 C 5755.29 3.07143 1.90645 0
M  V30 56148 O 5755.02 4.23206 1.13263 0
M  V30 56149 C 5756.52 3.46502 2.76499 0
M  V30 56150 H 5753.74 0.606371 0.287324 0
M  V30 56151 H 5756.28 2.02917 0.253951 0
M  V30 56152 H 5754.44 2.88551 2.5849 0
M  V30 56153 H 5754.85 4.94035 1.76151 0
M  V30 56154 H 5756.32 4.36919 3.37351 0
M  V30 56155 H 5756.8 2.67645 3.48228 0
M  V30 56156 H 5757.41 3.67488 2.14086 0
M  V30 56157 N 5755.72 -0.50091 1.49428 0
M  V30 56158 C 5756.65 -1.61915 1.62223 0
M  V30 56159 C 5757.67 -1.54772 0.504923 0
M  V30 56160 O 5758.86 -1.60703 0.776976 0
M  V30 56161 C 5755.96 -3.00704 1.56301 0
M  V30 56162 C 5755.13 -3.3303 2.83566 0
M  V30 56163 C 5754.19 -4.51232 2.70696 0
M  V30 56164 O 5753.21 -4.5301 3.44631 0
M  V30 56165 N 5754.42 -5.5115 1.82248 0
M  V30 56166 H 5757.18 -1.51365 2.58667 0
M  V30 56167 H 5754.74 -0.688785 1.46517 0
M  V30 56168 H 5756.73 -3.77699 1.45345 0
M  V30 56169 H 5755.3 -3.05178 0.67715 0
M  V30 56170 H 5754.52 -2.44931 3.08873 0
M  V30 56171 H 5755.81 -3.51424 3.67938 0
M  V30 56172 H 5755.21 -5.52512 1.21436 0
M  V30 56173 H 5753.77 -6.27247 1.77214 0
M  V30 56174 N 5757.2 -1.38504 -0.751963 0
M  V30 56175 C 5758.43 -1.38038 -1.54121 0
M  V30 56176 C 5758.84 0.0294402 -1.88777 0
M  V30 56177 O 5758.2 0.996468 -1.52895 0
M  V30 56178 C 5758.25 -2.23751 -2.83933 0
M  V30 56179 O 5757.97 -3.59241 -2.50754 0
M  V30 56180 C 5759.47 -2.31483 -3.78062 0
M  V30 56181 H 5756.69 -0.472094 -0.476831 0
M  V30 56182 H 5759.24 -1.82104 -0.930508 0
M  V30 56183 H 5757.39 -1.83142 -3.41376 0
M  V30 56184 H 5757.81 -4.04388 -3.34022 0
M  V30 56185 H 5759.28 -2.95739 -4.66093 0
M  V30 56186 H 5759.76 -1.32896 -4.18611 0
M  V30 56187 H 5760.36 -2.72489 -3.26543 0
M  V30 56188 N 5758.68 0.980321 -1.234 0
M  V30 56189 C 5760.09 1.53618 -1.06105 0
M  V30 56190 C 5760.44 1.92649 0.371577 0
M  V30 56191 O 5759.56 1.76056 1.25831 0
M  V30 56192 C 5760.16 2.79152 -1.91989 0
M  V30 56193 C 5758.72 3.31138 -1.78955 0
M  V30 56194 C 5757.87 2.04129 -1.87688 0
M  V30 56195 H 5760.82 0.799999 -1.37061 0
M  V30 56196 H 5760.84 3.52006 -1.44472 0
M  V30 56197 H 5760.35 2.50713 -2.96251 0
M  V30 56198 H 5758.45 3.64456 -0.774762 0
M  V30 56199 H 5758.56 4.0089 -2.62343 0
M  V30 56200 H 5756.93 2.18267 -1.3127 0
M  V30 56201 H 5757.71 1.78071 -2.93506 0
M  V30 56202 N 5760.16 1.04571 1.17909 0
M  V30 56203 C 5761.38 0.772271 1.91947 0
M  V30 56204 C 5761.8 -0.671241 1.76465 0
M  V30 56205 O 5761.16 -1.45801 1.09765 0
M  V30 56206 C 5761.21 1.13551 3.43203 0
M  V30 56207 O 5760.93 2.52235 3.58202 0
M  V30 56208 C 5762.43 0.887298 4.34329 0
M  V30 56209 H 5759.65 0.281256 0.60921 0
M  V30 56210 H 5762.19 1.39473 1.49558 0
M  V30 56211 H 5760.35 0.557919 3.83361 0
M  V30 56212 H 5760.76 2.66291 4.51873 0
M  V30 56213 H 5762.24 1.19126 5.38993 0
M  V30 56214 H 5762.71 -0.177745 4.3884 0
M  V30 56215 H 5763.32 1.44843 3.99876 0
M  V30 56216 N 5761.63 -1.34228 0.82587 0
M  V30 56217 C 5762.86 -2.02416 0.42842 0
M  V30 56218 C 5763.28 -1.62185 -0.966516 0
M  V30 56219 O 5762.63 -0.828748 -1.62598 0
M  V30 56220 C 5762.68 -3.57676 0.524397 0
M  V30 56221 O 5762.41 -3.96451 1.86436 0
M  V30 56222 C 5763.91 -4.43131 0.122225 0
M  V30 56223 H 5761.13 -0.648693 0.171577 0
M  V30 56224 H 5763.67 -1.71439 1.11484 0
M  V30 56225 H 5761.83 -3.87232 -0.113976 0
M  V30 56226 H 5762.24 -4.91141 1.84068 0
M  V30 56227 H 5763.71 -5.51476 0.240458 0
M  V30 56228 H 5764.19 -4.29142 -0.934554 0
M  V30 56229 H 5764.8 -4.18909 0.734513 0
M  V30 56230 N 5763.11 -0.581102 -1.46496 0
M  V30 56231 C 5764.34 -0.0716379 -2.06776 0
M  V30 56232 C 5764.75 1.23262 -1.4301 0
M  V30 56233 O 5764.11 1.74487 -0.534838 0
M  V30 56234 C 5764.16 0.102539 -3.61355 0
M  V30 56235 O 5763.88 -1.15009 -4.22734 0
M  V30 56236 C 5765.38 0.646538 -4.3856 0
M  V30 56237 H 5762.6 -0.0567199 -0.668598 0
M  V30 56238 H 5765.15 -0.801314 -1.88147 0
M  V30 56239 H 5763.3 0.782431 -3.79416 0
M  V30 56240 H 5763.72 -0.962899 -5.15586 0
M  V30 56241 H 5765.19 0.717598 -5.47316 0
M  V30 56242 H 5765.67 1.66316 -4.06492 0
M  V30 56243 H 5766.27 0.00156788 -4.253 0
M  V30 56244 N 5764.59 1.54342 -0.318797 0
M  V30 56245 C 5766 1.85922 0.170243 0
M  V30 56246 C 5766.35 1.24052 1.52005 0
M  V30 56247 O 5765.48 0.544778 2.0943 0
M  V30 56248 C 5766.07 3.37326 0.315684 0
M  V30 56249 C 5764.63 3.68874 0.748943 0
M  V30 56250 C 5763.78 2.76985 -0.132188 0
M  V30 56251 H 5766.73 1.49258 -0.539238 0
M  V30 56252 H 5766.75 3.62789 1.14738 0
M  V30 56253 H 5766.26 3.82328 -0.666875 0
M  V30 56254 H 5764.36 3.29402 1.74142 0
M  V30 56255 H 5764.48 4.75863 0.555997 0
M  V30 56256 H 5762.84 2.51674 0.391476 0
M  V30 56257 H 5763.62 3.24811 -1.11143 0
M  V30 56258 N 5766.07 0.0468696 1.5753 0
M  V30 56259 C 5767.32 -0.627308 1.91697 0
M  V30 56260 C 5767.63 -1.72257 0.926649 0
M  V30 56261 O 5768.84 -2.45462 1.16021 0
M  V30 56262 C 5767.29 -1.1671 3.40451 0
M  V30 56263 C 5766.9 -0.104177 4.47879 0
M  V30 56264 C 5768.64 -1.81677 3.83658 0
M  V30 56265 C 5766.55 -0.656611 5.87744 0
M  V30 56266 H 5765.48 -0.238082 0.715425 0
M  V30 56267 H 5768.13 0.11506 1.83139 0
M  V30 56268 H 5766.51 -1.96165 3.43999 0
M  V30 56269 H 5767.69 0.669213 4.55915 0
M  V30 56270 H 5766 0.447778 4.13985 0
M  V30 56271 H 5768.6 -2.23997 4.8552 0
M  V30 56272 H 5768.94 -2.66674 3.19672 0
M  V30 56273 H 5769.48 -1.08885 3.82608 0
M  V30 56274 H 5766.22 0.155627 6.55315 0
M  V30 56275 H 5765.74 -1.39809 5.83278 0
M  V30 56276 H 5767.41 -1.14085 6.36862 0
M  V30 56277 N 5767.55 -1.55964 -0.226472 0
M  V30 56278 C 5768.77 -1.82827 -0.968609 0
M  V30 56279 C 5769.19 -0.625344 -1.78143 0
M  V30 56280 O 5768.55 0.406108 -1.77924 0
M  V30 56281 C 5768.6 -3.0815 -1.89013 0
M  V30 56282 O 5768.32 -4.238 -1.11017 0
M  V30 56283 C 5769.82 -3.47963 -2.74657 0
M  V30 56284 H 5767.04 -0.607886 -0.284104 0
M  V30 56285 H 5769.58 -2.03049 -0.243186 0
M  V30 56286 H 5767.74 -2.89917 -2.56957 0
M  V30 56287 H 5768.15 -4.94963 -1.73529 0
M  V30 56288 H 5769.63 -4.38702 -3.35029 0
M  V30 56289 H 5770.1 -2.69488 -3.46804 0
M  V30 56290 H 5770.71 -3.68618 -2.12134 0
M  V30 56291 N 5769.02 0.492978 -1.49691 0
M  V30 56292 C 5770.25 1.27041 -1.63304 0
M  V30 56293 C 5770.67 1.86277 -0.307599 0
M  V30 56294 O 5770.02 1.68211 0.707909 0
M  V30 56295 C 5770.08 2.39492 -2.70788 0
M  V30 56296 O 5769.8 1.82688 -3.98192 0
M  V30 56297 C 5771.3 3.30734 -2.95178 0
M  V30 56298 H 5768.52 0.385023 -0.549544 0
M  V30 56299 H 5771.06 0.590929 -1.95776 0
M  V30 56300 H 5769.22 3.03254 -2.41072 0
M  V30 56301 H 5769.63 2.56572 -4.57461 0
M  V30 56302 H 5771.1 4.05898 -3.741 0
M  V30 56303 H 5771.58 3.8821 -2.05401 0
M  V30 56304 H 5772.19 2.72729 -3.26342 0
M  V30 56305 N 5770.5 1.38901 0.744607 0
M  V30 56306 C 5771.73 1.38853 1.53386 0
M  V30 56307 C 5772.15 -0.0194285 1.8879 0
M  V30 56308 O 5771.5 -0.988345 1.53421 0
M  V30 56309 C 5771.55 2.25253 2.82742 0
M  V30 56310 O 5771.27 3.60566 2.48846 0
M  V30 56311 C 5772.78 2.33484 3.76829 0
M  V30 56312 H 5770 0.474616 0.474321 0
M  V30 56313 H 5772.54 1.82595 0.920837 0
M  V30 56314 H 5770.69 1.8495 3.404 0
M  V30 56315 H 5771.11 4.06154 3.31872 0
M  V30 56316 H 5772.58 2.98206 4.64518 0
M  V30 56317 H 5773.06 1.35114 4.179 0
M  V30 56318 H 5773.67 2.74216 3.25093 0
M  V30 56319 N 5771.98 -0.973763 1.23918 0
M  V30 56320 C 5773.21 -1.75103 1.10212 0
M  V30 56321 C 5773.62 -1.85605 -0.34587 0
M  V30 56322 O 5772.98 -1.34001 -1.23895 0
M  V30 56323 C 5773.03 -3.1746 1.72921 0
M  V30 56324 O 5772.75 -3.07493 3.12057 0
M  V30 56325 C 5774.25 -4.11551 1.64744 0
M  V30 56326 H 5771.47 -0.549304 0.385365 0
M  V30 56327 H 5774.02 -1.22295 1.63903 0
M  V30 56328 H 5772.17 -3.67272 1.23247 0
M  V30 56329 H 5772.59 -3.97157 3.42589 0
M  V30 56330 H 5774.06 -5.09118 2.13313 0
M  V30 56331 H 5774.54 -4.34978 0.607505 0
M  V30 56332 H 5775.14 -3.67645 2.13815 0
M  V30 56333 N 5773.46 -1.05195 -1.17353 0
M  V30 56334 C 5774.69 -0.78244 -1.91535 0
M  V30 56335 C 5775.1 0.661873 -1.76818 0
M  V30 56336 O 5774.46 1.45217 -1.10536 0
M  V30 56337 C 5774.51 -1.15369 -3.42596 0
M  V30 56338 O 5774.23 -2.54131 -3.5686 0
M  V30 56339 C 5775.73 -0.910319 -4.33853 0
M  V30 56340 H 5772.95 -0.284482 -0.607709 0
M  V30 56341 H 5775.5 -1.40264 -1.48816 0
M  V30 56342 H 5773.65 -0.578241 -3.8306 0
M  V30 56343 H 5774.06 -2.68684 -4.50454 0
M  V30 56344 H 5775.54 -1.21982 -5.38353 0
M  V30 56345 H 5776.02 0.15447 -4.38928 0
M  V30 56346 H 5776.62 -1.46961 -3.99102 0
M  V30 56347 N 5774.94 1.33788 -0.832977 0
M  V30 56348 C 5776.18 1.98265 -0.426481 0
M  V30 56349 C 5776.52 1.65852 1.01029 0
M  V30 56350 O 5775.79 0.93534 1.70533 0
M  V30 56351 C 5776.07 3.54354 -0.640711 0
M  V30 56352 C 5775.93 3.96475 -2.12433 0
M  V30 56353 C 5777.25 4.40022 -0.0830784 0
M  V30 56354 H 5774.36 0.720208 -0.156429 0
M  V30 56355 H 5777.01 1.58523 -1.0474 0
M  V30 56356 H 5775.16 3.88338 -0.112177 0
M  V30 56357 H 5776.83 3.72776 -2.71727 0
M  V30 56358 H 5775.07 3.4642 -2.61104 0
M  V30 56359 H 5775.74 5.05171 -2.22499 0
M  V30 56360 H 5778.22 4.12649 -0.534779 0
M  V30 56361 H 5777.09 5.48271 -0.262704 0
M  V30 56362 H 5777.36 4.30345 1.01272 0
M  V30 56363 N 5776.41 0.588863 1.46185 0
M  V30 56364 C 5777.64 0.0826028 2.06735 0
M  V30 56365 C 5778.06 -1.22502 1.43662 0
M  V30 56366 O 5777.41 -1.74201 0.544084 0
M  V30 56367 C 5777.47 -0.083374 3.61404 0
M  V30 56368 O 5777.19 1.1725 4.22119 0
M  V30 56369 C 5778.69 -0.623271 4.38897 0
M  V30 56370 H 5775.91 0.0602648 0.668288 0
M  V30 56371 H 5778.45 0.811281 1.87719 0
M  V30 56372 H 5776.61 -0.762298 3.79826 0
M  V30 56373 H 5777.02 0.990228 5.15068 0
M  V30 56374 H 5778.49 -0.688563 5.47689 0
M  V30 56375 H 5778.97 -1.64158 4.07368 0
M  V30 56376 H 5779.58 0.0209868 4.25295 0
M  V30 56377 N 5777.89 -1.54171 0.326977 0
M  V30 56378 C 5779.3 -1.8601 -0.160381 0
M  V30 56379 C 5779.65 -1.24856 -1.51345 0
M  V30 56380 O 5778.78 -0.555877 -2.09139 0
M  V30 56381 C 5779.37 -3.37489 -0.29779 0
M  V30 56382 C 5777.93 -3.69266 -0.729371 0
M  V30 56383 C 5777.08 -2.76911 0.146875 0
M  V30 56384 H 5780.03 -1.4897 0.547146 0
M  V30 56385 H 5780.05 -3.63392 -1.12812 0
M  V30 56386 H 5779.56 -3.81969 0.687141 0
M  V30 56387 H 5777.67 -3.30321 -1.72392 0
M  V30 56388 H 5777.78 -4.76151 -0.530753 0
M  V30 56389 H 5776.14 -2.51878 -0.378123 0
M  V30 56390 H 5776.93 -3.24217 1.12864 0
M  V30 56391 N 5779.37 -0.0552232 -1.57503 0
M  V30 56392 C 5780.6 0.627131 -1.97167 0
M  V30 56393 C 5781.01 1.6414 -0.932933 0
M  V30 56394 O 5780.37 1.82314 0.0823824 0
M  V30 56395 C 5780.42 1.31045 -3.36912 0
M  V30 56396 O 5780.14 0.336797 -4.36803 0
M  V30 56397 C 5781.64 2.08219 -3.91356 0
M  V30 56398 H 5778.86 0.171173 -0.648799 0
M  V30 56399 H 5781.41 -0.122723 -2.04131 0
M  V30 56400 H 5779.56 2.01151 -3.31085 0
M  V30 56401 H 5779.98 0.825021 -5.17971 0
M  V30 56402 H 5781.45 2.51445 -4.91405 0
M  V30 56403 H 5781.93 2.93201 -3.27001 0
M  V30 56404 H 5782.53 1.43015 -4.00533 0
M  V30 56405 N 5780.85 1.56082 0.218198 0
M  V30 56406 C 5782.26 1.69399 0.784904 0
M  V30 56407 C 5782.61 0.657815 1.84844 0
M  V30 56408 O 5781.74 -0.190402 2.15561 0
M  V30 56409 C 5782.33 3.07119 1.43049 0
M  V30 56410 C 5780.89 3.2228 1.94455 0
M  V30 56411 C 5780.04 2.6533 0.805947 0
M  V30 56412 H 5782.99 1.58699 -0.00651239 0
M  V30 56413 H 5783.01 3.03164 2.29939 0
M  V30 56414 H 5782.52 3.82512 0.6562 0
M  V30 56415 H 5780.62 2.51762 2.74676 0
M  V30 56416 H 5780.74 4.29533 2.12222 0
M  V30 56417 H 5779.1 2.23898 1.21415 0
M  V30 56418 H 5779.88 3.43271 0.0442721 0
M  V30 56419 N 5782.33 -0.485033 1.49951 0
M  V30 56420 C 5783.56 -1.26173 1.63976 0
M  V30 56421 C 5783.97 -1.86112 0.317474 0
M  V30 56422 O 5783.33 -1.68584 -0.698978 0
M  V30 56423 C 5783.38 -2.38052 2.72054 0
M  V30 56424 O 5783.1 -1.80574 3.99155 0
M  V30 56425 C 5784.6 -3.29164 2.96928 0
M  V30 56426 H 5781.82 -0.382103 0.551578 0
M  V30 56427 H 5784.36 -0.580538 1.96087 0
M  V30 56428 H 5782.52 -3.01972 2.42676 0
M  V30 56429 H 5782.93 -2.54143 4.58816 0
M  V30 56430 H 5784.41 -4.03909 3.76247 0
M  V30 56431 H 5784.88 -3.87115 2.07457 0
M  V30 56432 H 5785.49 -2.70995 3.27783 0
M  V30 56433 N 5783.81 -1.39293 -0.73723 0
M  V30 56434 C 5785.22 -1.32493 -1.31539 0
M  V30 56435 C 5785.57 0.0117473 -1.96196 0
M  V30 56436 O 5784.69 0.913869 -1.96157 0
M  V30 56437 C 5785.29 -2.39954 -2.39181 0
M  V30 56438 C 5783.85 -2.36681 -2.92675 0
M  V30 56439 C 5782.99 -2.21959 -1.66221 0
M  V30 56440 H 5785.94 -1.49414 -0.534901 0
M  V30 56441 H 5785.97 -2.06614 -3.19517 0
M  V30 56442 H 5785.48 -3.37227 -1.92092 0
M  V30 56443 H 5783.58 -1.4304 -3.4405 0
M  V30 56444 H 5783.69 -3.31453 -3.45942 0
M  V30 56445 H 5782.06 -1.69094 -1.90472 0
M  V30 56446 H 5782.84 -3.21198 -1.21188 0
M  V30 56447 N 5785.28 0.967178 -1.24432 0
M  V30 56448 C 5786.51 1.74516 -1.11139 0
M  V30 56449 C 5786.93 1.85786 0.336022 0
M  V30 56450 O 5786.28 1.34656 1.23183 0
M  V30 56451 C 5786.33 3.16538 -1.74602 0
M  V30 56452 O 5786.06 3.05834 -3.13684 0
M  V30 56453 C 5787.56 4.10672 -1.66924 0
M  V30 56454 H 5784.78 0.547253 -0.388272 0
M  V30 56455 H 5787.32 1.21425 -1.64549 0
M  V30 56456 H 5785.48 3.66614 -1.25193 0
M  V30 56457 H 5785.89 3.95334 -3.4469 0
M  V30 56458 H 5787.36 5.0798 -2.1601 0
M  V30 56459 H 5787.84 4.3465 -0.630564 0
M  V30 56460 H 5788.45 3.66506 -2.15762 0
M  V30 56461 N 5786.76 1.05816 1.16794 0
M  V30 56462 C 5788.01 0.770464 1.86838 0
M  V30 56463 C 5788.33 -0.704922 1.81813 0
M  V30 56464 O 5787.6 -1.50972 1.24837 0
M  V30 56465 H 5786.18 0.282013 0.691721 0
M  V30 56466 H 5788.84 1.33864 1.41656 0
M  V30 56467 H 5787.94 1.09105 2.92408 0
M  V30 56468 N 5788.24 -1.33344 0.84006 0
M  V30 56469 C 5789.47 -2.0195 0.449864 0
M  V30 56470 C 5789.88 -1.63201 -0.949259 0
M  V30 56471 O 5789.24 -0.845947 -1.6171 0
M  V30 56472 C 5789.29 -3.571 0.562304 0
M  V30 56473 O 5789.01 -3.94451 1.9063 0
M  V30 56474 C 5790.51 -4.42977 0.169218 0
M  V30 56475 H 5787.73 -0.646837 0.178447 0
M  V30 56476 H 5790.28 -1.70247 1.13296 0
M  V30 56477 H 5788.43 -3.87331 -0.0728983 0
M  V30 56478 H 5788.85 -4.89161 1.89267 0
M  V30 56479 H 5790.32 -5.5119 0.298936 0
M  V30 56480 H 5790.8 -4.30109 -0.888986 0
M  V30 56481 H 5791.4 -4.18107 0.778903 0
M  V30 56482 N 5789.72 -0.596607 -1.45871 0
M  V30 56483 C 5790.65 0.166624 -2.28594 0
M  V30 56484 C 5791.66 0.842261 -1.39319 0
M  V30 56485 O 5792.85 0.709491 -1.63794 0
M  V30 56486 C 5789.95 1.2563 -3.14754 0
M  V30 56487 C 5789.12 0.669908 -4.3224 0
M  V30 56488 C 5788.18 1.64906 -4.99692 0
M  V30 56489 O 5787.21 1.17966 -5.56842 0
M  V30 56490 N 5788.41 2.98337 -4.97971 0
M  V30 56491 H 5791.18 -0.543149 -2.94737 0
M  V30 56492 H 5788.74 -0.435329 -1.55937 0
M  V30 56493 H 5790.73 1.91091 -3.56744 0
M  V30 56494 H 5789.3 1.86874 -2.50593 0
M  V30 56495 H 5788.52 -0.162514 -3.93865 0
M  V30 56496 H 5789.81 0.258167 -5.08145 0
M  V30 56497 H 5789.21 3.39085 -4.52811 0
M  V30 56498 H 5787.76 3.59251 -5.43859 0
M  V30 56499 N 5791.2 1.53995 -0.335149 0
M  V30 56500 C 5792.42 2.05189 0.265558 0
M  V30 56501 C 5792.84 1.21063 1.44877 0
M  V30 56502 O 5792.2 0.243983 1.80862 0
M  V30 56503 C 5792.25 3.54878 0.688779 0
M  V30 56504 O 5791.97 4.3581 -0.44737 0
M  V30 56505 C 5793.47 4.22209 1.35108 0
M  V30 56506 H 5790.69 0.668923 0.0527571 0
M  V30 56507 H 5793.23 1.98673 -0.4847 0
M  V30 56508 H 5791.39 3.61643 1.38899 0
M  V30 56509 H 5791.8 5.24381 -0.11168 0
M  V30 56510 H 5793.28 5.28362 1.59805 0
M  V30 56511 H 5793.75 3.74037 2.30203 0
M  V30 56512 H 5794.36 4.19614 0.693135 0
M  V30 56513 N 5792.67 0.0635752 1.57472 0
M  V30 56514 C 5794.08 -0.470309 1.80679 0
M  V30 56515 C 5794.44 -1.70154 0.976831 0
M  V30 56516 O 5793.56 -2.15502 0.196969 0
M  V30 56517 C 5794.16 -0.860014 3.27703 0
M  V30 56518 C 5792.71 -1.33881 3.51785 0
M  V30 56519 C 5791.86 -0.319982 2.75448 0
M  V30 56520 H 5794.81 0.28935 1.5604 0
M  V30 56521 H 5794.83 -1.72204 3.39302 0
M  V30 56522 H 5794.35 0.0362889 3.88083 0
M  V30 56523 H 5792.45 -2.25388 2.967 0
M  V30 56524 H 5792.56 -1.32241 4.60488 0
M  V30 56525 H 5790.92 -0.795516 2.41958 0
M  V30 56526 H 5791.71 0.568451 3.38561 0
M  V30 56527 N 5794.15 -1.56196 -0.209917 0
M  V30 56528 C 5795.38 -1.83844 -0.949163 0
M  V30 56529 C 5795.8 -0.644203 -1.7747 0
M  V30 56530 O 5795.15 0.387214 -1.78345 0
M  V30 56531 C 5795.2 -3.10137 -1.85734 0
M  V30 56532 O 5794.92 -4.24954 -1.06516 0
M  V30 56533 C 5796.43 -3.50857 -2.70951 0
M  V30 56534 H 5793.65 -0.610865 -0.277641 0
M  V30 56535 H 5796.19 -2.03295 -0.221637 0
M  V30 56536 H 5794.34 -2.92626 -2.53867 0
M  V30 56537 H 5794.76 -4.96775 -1.68269 0
M  V30 56538 H 5796.23 -4.42231 -3.30357 0
M  V30 56539 H 5796.71 -2.73151 -3.43926 0
M  V30 56540 H 5797.32 -3.70847 -2.08213 0
M  V30 56541 N 5795.63 0.477074 -1.50206 0
M  V30 56542 C 5796.86 1.25301 -1.64642 0
M  V30 56543 C 5797.27 1.85941 -0.327339 0
M  V30 56544 O 5796.63 1.68952 0.690028 0
M  V30 56545 C 5796.68 2.36606 -2.73313 0
M  V30 56546 O 5796.4 1.78455 -4.00107 0
M  V30 56547 C 5797.9 3.27584 -2.98669 0
M  V30 56548 H 5795.12 0.379172 -0.553597 0
M  V30 56549 H 5797.67 0.570131 -1.96392 0
M  V30 56550 H 5795.82 3.0068 -2.44274 0
M  V30 56551 H 5796.24 2.51706 -4.60157 0
M  V30 56552 H 5797.71 4.01908 -3.78384 0
M  V30 56553 H 5798.19 3.8601 -2.09507 0
M  V30 56554 H 5798.79 2.69253 -3.29216 0
M  V30 56555 N 5797.11 1.39683 0.729833 0
M  V30 56556 C 5798.34 1.40472 1.51905 0
M  V30 56557 C 5798.75 0.000596315 1.888 0
M  V30 56558 O 5798.11 -0.972018 1.54461 0
M  V30 56559 C 5798.16 2.28239 2.80337 0
M  V30 56560 O 5797.88 3.63185 2.45007 0
M  V30 56561 C 5799.38 2.37468 3.74331 0
M  V30 56562 H 5796.6 0.47962 0.46926 0
M  V30 56563 H 5799.15 1.83561 0.901419 0
M  V30 56564 H 5797.3 1.8855 3.38419 0
M  V30 56565 H 5797.71 4.09651 3.27546 0
M  V30 56566 H 5799.19 3.03117 4.61329 0
M  V30 56567 H 5799.67 1.39539 4.16444 0
M  V30 56568 H 5800.27 2.77649 3.22166 0
M  V30 56569 N 5798.59 -0.960565 1.24944 0
M  V30 56570 C 5800 -1.51911 1.08536 0
M  V30 56571 C 5800.35 -1.93216 -0.340881 0
M  V30 56572 O 5799.47 -1.78035 -1.23014 0
M  V30 56573 C 5800.07 -2.76062 1.96406 0
M  V30 56574 C 5798.63 -3.28249 1.84201 0
M  V30 56575 C 5797.77 -2.01117 1.90912 0
M  V30 56576 H 5800.73 -0.778093 1.38316 0
M  V30 56577 H 5800.75 -3.49663 1.50054 0
M  V30 56578 H 5800.26 -2.45968 3.00202 0
M  V30 56579 H 5798.36 -3.63177 0.832646 0
M  V30 56580 H 5798.47 -3.96666 2.68687 0
M  V30 56581 H 5796.84 -2.16151 1.34726 0
M  V30 56582 H 5797.62 -1.73379 2.96302 0
M  V30 56583 N 5800.06 -1.06434 -1.16231 0
M  V30 56584 C 5801.31 -0.776956 -1.86135 0
M  V30 56585 C 5801.63 0.699237 -1.82675 0
M  V30 56586 O 5802.83 1.10105 -2.48172 0
M  V30 56587 C 5801.29 -1.33972 -3.34035 0
M  V30 56588 C 5800.9 -2.84625 -3.45966 0
M  V30 56589 C 5802.64 -1.12994 -4.09185 0
M  V30 56590 C 5800.55 -3.34139 -4.8796 0
M  V30 56591 H 5799.48 -0.286961 -0.697259 0
M  V30 56592 H 5802.13 -1.28323 -1.3117 0
M  V30 56593 H 5800.51 -0.761209 -3.88615 0
M  V30 56594 H 5801.68 -3.4844 -3.0154 0
M  V30 56595 H 5800 -3.04287 -2.84251 0
M  V30 56596 H 5802.6 -1.47474 -5.13961 0
M  V30 56597 H 5802.94 -0.0683888 -4.16244 0
M  V30 56598 H 5803.47 -1.67431 -3.60849 0
M  V30 56599 H 5800.21 -4.39778 -4.86082 0
M  V30 56600 H 5799.73 -2.75073 -5.33005 0
M  V30 56601 H 5801.41 -3.29549 -5.56782 0
M  V30 56602 N 5801.54 1.32897 -0.84712 0
M  V30 56603 C 5802.77 2.01709 -0.460568 0
M  V30 56604 C 5803.19 1.63702 0.940591 0
M  V30 56605 O 5802.54 0.854511 1.61259 0
M  V30 56606 C 5802.59 3.56797 -0.581234 0
M  V30 56607 O 5802.31 3.93435 -1.92719 0
M  V30 56608 C 5803.82 4.42881 -0.192707 0
M  V30 56609 H 5801.04 0.645881 -0.181875 0
M  V30 56610 H 5803.58 1.69644 -1.14198 0
M  V30 56611 H 5801.73 3.87365 0.0523562 0
M  V30 56612 H 5802.15 4.8815 -1.91858 0
M  V30 56613 H 5803.62 5.51024 -0.328163 0
M  V30 56614 H 5804.1 4.30574 0.866163 0
M  V30 56615 H 5804.71 4.17688 -0.801065 0
M  V30 56616 N 5803.02 0.604335 1.45553 0
M  V30 56617 C 5804.25 0.104525 2.06636 0
M  V30 56618 C 5804.66 -1.20971 1.44953 0
M  V30 56619 O 5804.02 -1.73614 0.562529 0
M  V30 56620 C 5804.07 -0.0450376 3.61472 0
M  V30 56621 O 5803.79 1.2172 4.20851 0
M  V30 56622 C 5805.29 -0.576685 4.39533 0
M  V30 56623 H 5802.51 0.0673495 0.667611 0
M  V30 56624 H 5805.06 0.831145 1.86848 0
M  V30 56625 H 5803.21 -0.72197 3.80613 0
M  V30 56626 H 5803.63 1.0448 5.13988 0
M  V30 56627 H 5805.1 -0.630434 5.48388 0
M  V30 56628 H 5805.58 -1.59828 4.09086 0
M  V30 56629 H 5806.18 0.0660939 4.25249 0
M  V30 56630 N 5804.5 -1.53815 0.343311 0
M  V30 56631 C 5805.73 -2.05327 -0.254672 0
M  V30 56632 C 5806.14 -1.21829 -1.44233 0
M  V30 56633 O 5805.5 -0.253571 -1.8073 0
M  V30 56634 C 5805.55 -3.55238 -0.66995 0
M  V30 56635 O 5805.27 -4.35566 0.470476 0
M  V30 56636 C 5806.77 -4.2292 -1.32867 0
M  V30 56637 H 5803.99 -0.669193 -0.0492089 0
M  V30 56638 H 5806.54 -1.98413 0.495229 0
M  V30 56639 H 5804.69 -3.62375 -1.36979 0
M  V30 56640 H 5805.1 -5.24314 0.139487 0
M  V30 56641 H 5806.58 -5.29202 -1.57 0
M  V30 56642 H 5807.06 -3.75252 -2.28216 0
M  V30 56643 H 5807.66 -4.19975 -0.670872 0
M  V30 56644 N 5805.98 -0.0719254 -1.57436 0
M  V30 56645 C 5807.2 0.606184 -1.97821 0
M  V30 56646 C 5807.62 1.63141 -0.95029 0
M  V30 56647 O 5806.98 1.82391 0.063041 0
M  V30 56648 C 5807.03 1.27464 -3.38283 0
M  V30 56649 O 5806.75 0.290449 -4.37136 0
M  V30 56650 C 5808.25 2.04056 -3.93543 0
M  V30 56651 H 5805.47 0.164282 -0.650578 0
M  V30 56652 H 5808.01 -0.144367 -2.0399 0
M  V30 56653 H 5806.17 1.97628 -3.332 0
M  V30 56654 H 5806.58 0.770037 -5.18817 0
M  V30 56655 H 5808.06 2.46219 -4.94045 0
M  V30 56656 H 5808.53 2.89716 -3.30093 0
M  V30 56657 H 5809.14 1.38759 -4.02027 0
M  V30 56658 N 5807.45 1.56305 0.201631 0
M  V30 56659 C 5808.68 1.84344 0.9394 0
M  V30 56660 C 5809.1 0.653606 1.77125 0
M  V30 56661 O 5808.45 -0.37775 1.78548 0
M  V30 56662 C 5808.51 3.11118 1.84087 0
M  V30 56663 O 5808.23 4.25513 1.04261 0
M  V30 56664 C 5809.73 3.52289 2.69087 0
M  V30 56665 H 5806.95 0.612329 0.274397 0
M  V30 56666 H 5809.49 2.0341 0.210852 0
M  V30 56667 H 5807.65 2.93969 2.52312 0
M  V30 56668 H 5808.06 4.97661 1.65632 0
M  V30 56669 H 5809.53 4.43977 3.28007 0
M  V30 56670 H 5810.01 2.74971 3.42473 0
M  V30 56671 H 5810.62 3.71946 2.06243 0
M  V30 56672 N 5808.93 -0.469102 1.50457 0
M  V30 56673 C 5810.18 -1.22285 1.61785 0
M  V30 56674 C 5810.51 -1.91576 0.31814 0
M  V30 56675 O 5809.79 -1.82207 -0.680506 0
M  V30 56676 C 5810.07 -2.26494 2.79951 0
M  V30 56677 C 5809.92 -1.61494 4.19809 0
M  V30 56678 C 5811.24 -3.27786 2.93674 0
M  V30 56679 H 5808.36 -0.443221 0.588833 0
M  V30 56680 H 5811 -0.516366 1.82849 0
M  V30 56681 H 5809.15 -2.86748 2.62122 0
M  V30 56682 H 5810.83 -1.04822 4.49233 0
M  V30 56683 H 5809.07 -0.918013 4.23975 0
M  V30 56684 H 5809.74 -2.37231 4.98423 0
M  V30 56685 H 5812.22 -2.77557 3.10002 0
M  V30 56686 H 5811.09 -3.98028 3.77975 0
M  V30 56687 H 5811.35 -3.92025 2.04373 0
M  V30 56688 N 5810.41 -1.40068 -0.722415 0
M  V30 56689 C 5811.64 -1.41276 -1.51158 0
M  V30 56690 C 5812.05 -0.0106088 -1.88797 0
M  V30 56691 O 5811.41 0.963812 -1.54974 0
M  V30 56692 C 5811.46 -2.29723 -2.79123 0
M  V30 56693 O 5811.18 -3.64479 -2.43078 0
M  V30 56694 C 5812.68 -2.3945 -3.73067 0
M  V30 56695 H 5809.9 -0.482102 -0.46671 0
M  V30 56696 H 5812.45 -1.84037 -0.891672 0
M  V30 56697 H 5810.6 -1.90342 -3.37415 0
M  V30 56698 H 5811.02 -4.11382 -3.25369 0
M  V30 56699 H 5812.49 -3.05559 -4.59715 0
M  V30 56700 H 5812.97 -1.41746 -4.15698 0
M  V30 56701 H 5813.57 -2.79354 -3.20689 0
M  V30 56702 N 5811.89 0.953925 -1.25451 0
M  V30 56703 C 5813.3 1.51333 -1.0934 0
M  V30 56704 C 5813.65 1.93394 0.33063 0
M  V30 56705 O 5812.78 1.78685 1.22068 0
M  V30 56706 C 5813.37 2.75017 -1.97867 0
M  V30 56707 C 5811.93 3.27267 -1.85939 0
M  V30 56708 C 5811.08 2.00102 -1.91976 0
M  V30 56709 H 5814.03 0.770746 -1.38727 0
M  V30 56710 H 5814.05 3.48862 -1.51907 0
M  V30 56711 H 5813.56 2.44373 -3.01502 0
M  V30 56712 H 5811.66 3.62731 -0.851894 0
M  V30 56713 H 5811.78 3.95235 -2.70787 0
M  V30 56714 H 5810.14 2.15433 -1.3587 0
M  V30 56715 H 5810.92 1.71805 -2.97217 0
M  V30 56716 N 5813.37 1.07049 1.15665 0
M  V30 56717 C 5814.6 0.812812 1.90266 0
M  V30 56718 C 5815.01 -0.633659 1.77849 0
M  V30 56719 O 5814.37 -1.4344 1.12833 0
M  V30 56720 C 5814.42 1.20805 3.40718 0
M  V30 56721 O 5814.14 2.59776 3.52772 0
M  V30 56722 C 5815.64 0.979226 4.32349 0
M  V30 56723 H 5812.86 0.294115 0.603107 0
M  V30 56724 H 5815.4 1.42614 1.46566 0
M  V30 56725 H 5813.56 0.63911 3.82092 0
M  V30 56726 H 5813.97 2.75816 4.46123 0
M  V30 56727 H 5815.45 1.30532 5.36345 0
M  V30 56728 H 5815.92 -0.0846208 4.39118 0
M  V30 56729 H 5816.53 1.53292 3.96714 0
M  V30 56730 N 5814.85 -1.32446 0.854156 0
M  V30 56731 C 5816.26 -1.79543 0.511986 0
M  V30 56732 C 5816.61 -1.70537 -0.970128 0
M  V30 56733 O 5815.73 -1.26366 -1.75671 0
M  V30 56734 C 5816.33 -3.25997 0.92257 0
M  V30 56735 C 5814.89 -3.71051 0.632306 0
M  V30 56736 C 5814.03 -2.53561 1.12258 0
M  V30 56737 H 5816.98 -1.19751 1.04141 0
M  V30 56738 H 5817.01 -3.7975 0.238752 0
M  V30 56739 H 5816.52 -3.32519 2.00131 0
M  V30 56740 H 5814.62 -3.70043 -0.435732 0
M  V30 56741 H 5814.73 -4.63874 1.19825 0
M  V30 56742 H 5813.1 -2.48847 0.542869 0
M  V30 56743 H 5813.88 -2.62838 2.20842 0
M  V30 56744 N 5816.32 -0.612045 -1.4523 0
M  V30 56745 C 5817.55 -0.115482 -2.06577 0
M  V30 56746 C 5817.97 1.20201 -1.45593 0
M  V30 56747 O 5817.32 1.73313 -0.571729 0
M  V30 56748 C 5817.37 0.0258672 -3.61491 0
M  V30 56749 O 5817.1 -1.2395 -4.202 0
M  V30 56750 C 5818.6 0.553367 -4.39833 0
M  V30 56751 H 5815.82 -0.0708891 -0.667245 0
M  V30 56752 H 5818.36 -0.841043 -1.86405 0
M  V30 56753 H 5816.52 0.701775 -3.80991 0
M  V30 56754 H 5816.93 -1.07205 -5.13427 0
M  V30 56755 H 5818.4 0.601343 -5.48715 0
M  V30 56756 H 5818.88 1.57656 -4.09928 0
M  V30 56757 H 5819.49 -0.0886449 -4.25208 0
M  V30 56758 N 5817.8 1.53631 -0.351463 0
M  V30 56759 C 5819.21 1.86241 0.130768 0
M  V30 56760 C 5819.56 1.27248 1.4934 0
M  V30 56761 O 5818.69 0.589079 2.08228 0
M  V30 56762 C 5819.28 3.3792 0.244061 0
M  V30 56763 C 5817.84 3.70379 0.670531 0
M  V30 56764 C 5816.99 2.76642 -0.190911 0
M  V30 56765 H 5819.94 1.4808 -0.570776 0
M  V30 56766 H 5819.96 3.65141 1.07017 0
M  V30 56767 H 5819.47 3.80827 -0.747822 0
M  V30 56768 H 5817.57 3.33021 1.67115 0
M  V30 56769 H 5817.69 4.76935 0.454934 0
M  V30 56770 H 5816.05 2.52447 0.338004 0
M  V30 56771 H 5816.83 3.2238 -1.18007 0
M  V30 56772 N 5819.28 0.0802736 1.57395 0
M  V30 56773 C 5820.51 -0.595684 1.98139 0
M  V30 56774 C 5820.92 -1.62635 0.958929 0
M  V30 56775 O 5820.28 -1.82422 -0.0533674 0
M  V30 56776 C 5820.33 -1.25668 3.38954 0
M  V30 56777 O 5820.05 -0.267263 4.37284 0
M  V30 56778 C 5821.55 -2.01966 3.94619 0
M  V30 56779 H 5818.77 -0.16083 0.651441 0
M  V30 56780 H 5821.32 0.155183 2.0391 0
M  V30 56781 H 5819.47 -1.95858 3.34243 0
M  V30 56782 H 5819.89 -0.742512 5.19218 0
M  V30 56783 H 5821.36 -2.43596 4.95343 0
M  V30 56784 H 5821.84 -2.87961 3.31625 0
M  V30 56785 H 5822.44 -1.36625 4.02758 0
M  V30 56786 N 5820.76 -1.5641 -0.193339 0
M  V30 56787 C 5822.01 -1.8037 -0.911653 0
M  V30 56788 C 5822.33 -0.653626 -1.83719 0
M  V30 56789 O 5821.6 0.327934 -1.93136 0
M  V30 56790 H 5820.18 -0.665328 -0.339628 0
M  V30 56791 H 5822.84 -1.93887 -0.198427 0
M  V30 56792 H 5821.93 -2.73596 -1.50173 0
M  V30 56793 N 5822.24 0.461116 -1.50703 0
M  V30 56794 C 5823.46 1.23548 -1.65962 0
M  V30 56795 C 5823.88 1.85583 -0.347042 0
M  V30 56796 O 5823.24 1.69675 0.67207 0
M  V30 56797 C 5823.29 2.33694 -2.75807 0
M  V30 56798 O 5823.01 1.74201 -4.01977 0
M  V30 56799 C 5824.51 3.24398 -3.02127 0
M  V30 56800 H 5821.73 0.373279 -0.557587 0
M  V30 56801 H 5824.27 0.549269 -1.96985 0
M  V30 56802 H 5822.43 2.98073 -2.4745 0
M  V30 56803 H 5822.84 2.46811 -4.62801 0
M  V30 56804 H 5824.32 3.97872 -3.82625 0
M  V30 56805 H 5824.79 3.83766 -2.13589 0
M  V30 56806 H 5825.4 2.65746 -3.32053 0
M  V30 56807 N 5823.71 1.40449 0.714977 0
M  V30 56808 C 5824.65 1.36679 1.83988 0
M  V30 56809 C 5825.66 0.272095 1.6051 0
M  V30 56810 O 5826.85 0.532485 1.70373 0
M  V30 56811 C 5823.95 1.10434 3.20402 0
M  V30 56812 C 5823.12 2.3157 3.71071 0
M  V30 56813 C 5822.18 2.01477 4.861 0
M  V30 56814 O 5821.21 2.74348 4.9872 0
M  V30 56815 N 5822.41 0.9931 5.71942 0
M  V30 56816 H 5825.17 2.33627 1.8772 0
M  V30 56817 H 5822.73 1.3481 0.896539 0
M  V30 56818 H 5824.73 0.882869 3.94953 0
M  V30 56819 H 5823.3 0.221518 3.11814 0
M  V30 56820 H 5822.52 2.69544 2.87645 0
M  V30 56821 H 5823.8 3.12324 4.0166 0
M  V30 56822 H 5823.2 0.389585 5.64357 0
M  V30 56823 H 5821.76 0.831526 6.46474 0
M  V30 56824 N 5825.19 -0.947259 1.25955 0
M  V30 56825 C 5826.42 -1.72726 1.13901 0
M  V30 56826 C 5826.84 -1.86297 -0.306423 0
M  V30 56827 O 5826.19 -1.36599 -1.21025 0
M  V30 56828 C 5826.24 -3.1372 1.79615 0
M  V30 56829 O 5825.96 -3.00804 3.1851 0
M  V30 56830 C 5827.47 -4.07964 1.73437 0
M  V30 56831 H 5824.69 -0.541007 0.396929 0
M  V30 56832 H 5827.23 -1.18791 1.6646 0
M  V30 56833 H 5825.38 -3.64575 1.3101 0
M  V30 56834 H 5825.8 -3.898 3.50936 0
M  V30 56835 H 5827.27 -5.04479 2.24065 0
M  V30 56836 H 5827.75 -4.33592 0.699633 0
M  V30 56837 H 5828.36 -3.63027 2.21566 0
M  V30 56838 N 5826.67 -1.07661 -1.15095 0
M  V30 56839 C 5828.08 -0.823887 -1.67538 0
M  V30 56840 C 5828.43 0.650536 -1.85101 0
M  V30 56841 O 5827.56 1.50327 -1.55662 0
M  V30 56842 C 5828.15 -1.489 -3.04326 0
M  V30 56843 C 5826.71 -1.28372 -3.53833 0
M  V30 56844 C 5825.86 -1.55667 -2.29485 0
M  V30 56845 H 5828.81 -1.23823 -0.992655 0
M  V30 56846 H 5828.83 -0.911978 -3.69409 0
M  V30 56847 H 5828.34 -2.56209 -2.91511 0
M  V30 56848 H 5826.44 -0.230994 -3.71883 0
M  V30 56849 H 5826.56 -2.00609 -4.35078 0
M  V30 56850 H 5824.92 -0.977837 -2.35182 0
M  V30 56851 H 5825.7 -2.64164 -2.19253 0
M  V30 56852 N 5828.15 1.31991 -0.861168 0
M  V30 56853 C 5829.38 2.01209 -0.481936 0
M  V30 56854 C 5829.79 1.6469 0.923175 0
M  V30 56855 O 5829.15 0.871567 1.60343 0
M  V30 56856 C 5829.2 3.5616 -0.619044 0
M  V30 56857 O 5828.92 3.91369 -1.96881 0
M  V30 56858 C 5830.42 4.42652 -0.23967 0
M  V30 56859 H 5827.64 0.643916 -0.188715 0
M  V30 56860 H 5830.19 1.68423 -1.15991 0
M  V30 56861 H 5828.34 3.87398 0.0112681 0
M  V30 56862 H 5828.75 4.86088 -1.97025 0
M  V30 56863 H 5830.23 5.50645 -0.386588 0
M  V30 56864 H 5830.71 4.31469 0.820446 0
M  V30 56865 H 5831.31 4.16815 -0.845321 0
M  V30 56866 N 5829.63 0.619739 1.44903 0
M  V30 56867 C 5830.85 0.126436 2.06513 0
M  V30 56868 C 5831.27 -1.19427 1.46228 0
M  V30 56869 O 5830.63 -1.73008 0.580912 0
M  V30 56870 C 5830.68 -0.0066961 3.61499 0
M  V30 56871 O 5830.4 1.26177 4.19537 0
M  V30 56872 C 5831.9 -0.530034 4.4012 0
M  V30 56873 H 5829.12 0.0744266 0.66686 0
M  V30 56874 H 5831.66 0.850916 1.85956 0
M  V30 56875 H 5829.82 -0.68156 3.81357 0
M  V30 56876 H 5830.23 1.09926 5.12851 0
M  V30 56877 H 5831.71 -0.572235 5.49026 0
M  V30 56878 H 5832.18 -1.5548 4.10759 0
M  V30 56879 H 5832.79 0.111193 4.25155 0
M  V30 56880 N 5831.1 -1.53442 0.359606 0
M  V30 56881 C 5832.33 -2.05585 -0.23288 0
M  V30 56882 C 5832.75 -1.23352 -1.42932 0
M  V30 56883 O 5832.1 -0.272725 -1.80451 0
M  V30 56884 C 5832.16 -3.55928 -0.632234 0
M  V30 56885 O 5831.88 -4.35043 0.516647 0
M  V30 56886 C 5833.38 -4.24305 -1.28374 0
M  V30 56887 H 5830.6 -0.669677 -0.0421084 0
M  V30 56888 H 5833.14 -1.97877 0.516246 0
M  V30 56889 H 5831.3 -3.63807 -1.33128 0
M  V30 56890 H 5831.71 -5.24137 0.19509 0
M  V30 56891 H 5833.18 -5.30838 -1.51379 0
M  V30 56892 H 5833.66 -3.77652 -2.24223 0
M  V30 56893 H 5834.27 -4.20663 -0.62629 0
M  V30 56894 N 5832.58 -0.0886195 -1.57351 0
M  V30 56895 C 5833.99 0.441505 -1.81405 0
M  V30 56896 C 5834.34 1.68579 -1.00378 0
M  V30 56897 O 5833.47 2.15161 -0.231228 0
M  V30 56898 C 5834.06 0.80777 -3.2903 0
M  V30 56899 C 5832.62 1.28267 -3.53871 0
M  V30 56900 C 5831.77 0.27612 -2.75922 0
M  V30 56901 H 5834.72 -0.314138 -1.5556 0
M  V30 56902 H 5834.74 1.66785 -3.41999 0
M  V30 56903 H 5834.25 -0.098025 -3.87976 0
M  V30 56904 H 5832.36 2.2064 -3.00248 0
M  V30 56905 H 5832.47 1.24898 -4.62534 0
M  V30 56906 H 5830.83 0.756922 -2.43193 0
M  V30 56907 H 5831.62 -0.622241 -3.37614 0
M  V30 56908 N 5834.06 1.5651 0.185041 0
M  V30 56909 C 5835.31 1.80403 0.902094 0
M  V30 56910 C 5835.62 0.663561 1.84001 0
M  V30 56911 O 5836.83 0.787054 2.59842 0
M  V30 56912 C 5835.28 3.19614 1.65454 0
M  V30 56913 C 5834.89 4.4149 0.760954 0
M  V30 56914 C 5836.64 3.52809 2.36064 0
M  V30 56915 C 5834.54 5.71723 1.51285 0
M  V30 56916 H 5833.47 0.672692 0.340591 0
M  V30 56917 H 5836.12 1.82842 0.155208 0
M  V30 56918 H 5834.51 3.11452 2.44568 0
M  V30 56919 H 5835.68 4.60799 0.00775679 0
M  V30 56920 H 5834 4.16072 0.165198 0
M  V30 56921 H 5836.59 4.47349 2.92887 0
M  V30 56922 H 5836.94 2.77032 3.10739 0
M  V30 56923 H 5837.47 3.62463 1.63906 0
M  V30 56924 H 5834.21 6.50493 0.808679 0
M  V30 56925 H 5833.73 5.56414 2.23972 0
M  V30 56926 H 5835.41 6.13195 2.06399 0
M  V30 56927 N 5835.54 -0.453117 1.50946 0
M  V30 56928 C 5836.77 -1.22666 1.66615 0
M  V30 56929 C 5837.18 -1.85396 0.35688 0
M  V30 56930 O 5836.54 -1.70029 -0.663062 0
M  V30 56931 C 5836.59 -2.32228 2.77042 0
M  V30 56932 O 5836.31 -1.72067 4.02895 0
M  V30 56933 C 5837.81 -3.22791 3.03843 0
M  V30 56934 H 5835.03 -0.370317 0.559559 0
M  V30 56935 H 5837.58 -0.538815 1.97274 0
M  V30 56936 H 5835.73 -2.96756 2.49027 0
M  V30 56937 H 5836.14 -2.44353 4.64103 0
M  V30 56938 H 5837.62 -3.95837 3.8473 0
M  V30 56939 H 5838.1 -3.82628 2.15621 0
M  V30 56940 H 5838.7 -2.63981 3.33458 0
M  V30 56941 N 5837.02 -1.40826 -0.707518 0
M  V30 56942 C 5838.24 -1.42871 -1.49651 0
M  V30 56943 C 5838.66 -0.0306327 -1.88775 0
M  V30 56944 O 5838.02 0.947321 -1.55987 0
M  V30 56945 C 5838.07 -2.32671 -2.76671 0
M  V30 56946 O 5837.79 -3.67036 -2.39198 0
M  V30 56947 C 5839.29 -2.43393 -3.70506 0
M  V30 56948 H 5836.51 -0.487025 -0.461571 0
M  V30 56949 H 5839.05 -1.84972 -0.872102 0
M  V30 56950 H 5837.21 -1.9391 -3.35377 0
M  V30 56951 H 5837.62 -4.1481 -3.20987 0
M  V30 56952 H 5839.1 -3.10417 -4.56448 0
M  V30 56953 H 5839.57 -1.46147 -4.14171 0
M  V30 56954 H 5840.18 -2.82739 -3.17708 0
M  V30 56955 N 5838.5 0.940566 -1.26456 0
M  V30 56956 C 5839.72 1.72119 -1.14816 0
M  V30 56957 C 5840.14 1.86457 0.296539 0
M  V30 56958 O 5839.5 1.37238 1.20299 0
M  V30 56959 C 5839.55 3.12764 -1.81277 0
M  V30 56960 O 5839.27 2.99111 -3.201 0
M  V30 56961 C 5840.77 4.07038 -1.75598 0
M  V30 56962 H 5837.99 0.538894 -0.399793 0
M  V30 56963 H 5840.53 1.17907 -1.67087 0
M  V30 56964 H 5838.69 3.63876 -1.32941 0
M  V30 56965 H 5839.1 3.87934 -3.52998 0
M  V30 56966 H 5840.58 5.03284 -2.26737 0
M  V30 56967 H 5841.05 4.33215 -0.722618 0
M  V30 56968 H 5841.66 3.61847 -2.23488 0
M  V30 56969 N 5839.97 1.0827 1.14523 0
M  V30 56970 C 5841.2 0.832947 1.89393 0
M  V30 56971 C 5841.62 -0.61476 1.78511 0
M  V30 56972 O 5840.97 -1.42235 1.14348 0
M  V30 56973 C 5841.02 1.24412 3.39417 0
M  V30 56974 O 5840.75 2.63503 3.49996 0
M  V30 56975 C 5842.25 1.02503 4.31287 0
M  V30 56976 H 5839.47 0.300495 0.599953 0
M  V30 56977 H 5842.01 1.4416 1.45045 0
M  V30 56978 H 5840.17 0.6796 3.81392 0
M  V30 56979 H 5840.58 2.80532 4.43172 0
M  V30 56980 H 5842.05 1.36213 5.3493 0
M  V30 56981 H 5842.53 -0.0380417 4.39184 0
M  V30 56982 H 5843.14 1.57491 3.95065 0
M  V30 56983 N 5841.45 -1.31533 0.868156 0
M  V30 56984 C 5842.68 -2.0095 0.4926 0
M  V30 56985 C 5843.09 -1.65178 -0.914429 0
M  V30 56986 O 5842.45 -0.880058 -1.59879 0
M  V30 56987 C 5842.5 -3.55827 0.637923 0
M  V30 56988 O 5842.22 -3.90319 1.98954 0
M  V30 56989 C 5843.72 -4.42518 0.263142 0
M  V30 56990 H 5840.94 -0.642906 0.192128 0
M  V30 56991 H 5843.49 -1.67806 1.16882 0
M  V30 56992 H 5841.64 -3.87399 0.00927679 0
M  V30 56993 H 5842.06 -4.85036 1.996 0
M  V30 56994 H 5843.53 -5.50432 0.415784 0
M  V30 56995 H 5844.01 -4.31898 -0.797553 0
M  V30 56996 H 5844.61 -4.1636 0.867414 0
M  V30 56997 N 5842.93 -0.627415 -1.44573 0
M  V30 56998 C 5844.18 -0.130616 -2.02379 0
M  V30 56999 C 5844.51 1.24296 -1.49212 0
M  V30 57000 O 5843.78 1.82423 -0.67469 0
M  V30 57001 C 5844.07 -0.113236 -3.59922 0
M  V30 57002 C 5843.92 -1.51888 -4.23379 0
M  V30 57003 C 5845.24 0.564187 -4.36469 0
M  V30 57004 H 5842.36 -0.0489383 -0.735373 0
M  V30 57005 H 5845 -0.803179 -1.72189 0
M  V30 57006 H 5843.15 0.459485 -3.85773 0
M  V30 57007 H 5844.82 -2.14021 -4.08647 0
M  V30 57008 H 5843.06 -2.07385 -3.81017 0
M  V30 57009 H 5843.74 -1.45879 -5.32375 0
M  V30 57010 H 5846.21 0.0771781 -4.16028 0
M  V30 57011 H 5845.09 0.545523 -5.46182 0
M  V30 57012 H 5845.35 1.63388 -4.108 0
M  V30 57013 N 5844.41 1.5325 -0.367738 0
M  V30 57014 C 5845.64 2.05706 0.221974 0
M  V30 57015 C 5846.05 1.24109 1.42276 0
M  V30 57016 O 5845.41 0.282291 1.80304 0
M  V30 57017 C 5845.46 3.56259 0.61335 0
M  V30 57018 O 5845.18 4.34763 -0.539711 0
M  V30 57019 C 5846.68 4.2498 1.26122 0
M  V30 57020 H 5843.9 0.669891 0.0385564 0
M  V30 57021 H 5846.44 1.976 -0.526732 0
M  V30 57022 H 5844.6 3.64508 1.31197 0
M  V30 57023 H 5845.01 5.24026 -0.222884 0
M  V30 57024 H 5846.49 5.31633 1.48561 0
M  V30 57025 H 5846.96 3.78835 2.22217 0
M  V30 57026 H 5847.57 4.2099 0.603973 0
M  V30 57027 N 5845.89 0.096963 1.57301 0
M  V30 57028 C 5847.3 -0.431878 1.81636 0
M  V30 57029 C 5847.65 -1.68044 1.0127 0
M  V30 57030 O 5846.77 -2.15035 0.242636 0
M  V30 57031 C 5847.37 -0.79031 3.29453 0
M  V30 57032 C 5845.93 -1.26389 3.54546 0
M  V30 57033 C 5845.07 -0.261483 2.76064 0
M  V30 57034 H 5848.02 0.322383 1.55391 0
M  V30 57035 H 5848.05 -1.64968 3.42878 0
M  V30 57036 H 5847.56 0.118599 3.87919 0
M  V30 57037 H 5845.66 -2.19044 3.01414 0
M  V30 57038 H 5845.77 -1.22443 4.63189 0
M  V30 57039 H 5844.14 -0.744014 2.43591 0
M  V30 57040 H 5844.92 0.640137 3.37279 0
M  V30 57041 N 5847.36 -1.56606 -0.176738 0
M  V30 57042 C 5848.59 -1.85816 -0.909954 0
M  V30 57043 C 5849.01 -0.681702 -1.76063 0
M  V30 57044 O 5848.36 0.349297 -1.79126 0
M  V30 57045 C 5848.41 -3.14007 -1.79114 0
M  V30 57046 O 5848.14 -4.27118 -0.974781 0
M  V30 57047 C 5849.64 -3.56525 -2.63448 0
M  V30 57048 H 5846.86 -0.616617 -0.264621 0
M  V30 57049 H 5849.4 -2.0372 -0.178465 0
M  V30 57050 H 5847.56 -2.97945 -2.47603 0
M  V30 57051 H 5847.97 -5.00233 -1.57694 0
M  V30 57052 H 5849.44 -4.49139 -3.20902 0
M  V30 57053 H 5849.92 -2.80385 -3.38055 0
M  V30 57054 H 5850.53 -3.7518 -2.003 0
M  V30 57055 N 5848.84 0.445106 -1.51184 0
M  V30 57056 C 5850.25 1.02523 -1.56032 0
M  V30 57057 C 5850.6 1.92502 -0.379155 0
M  V30 57058 O 5849.73 2.10425 0.504982 0
M  V30 57059 C 5850.32 1.86611 -2.82775 0
M  V30 57060 C 5848.88 2.39687 -2.90219 0
M  V30 57061 C 5848.03 1.18696 -2.50612 0
M  V30 57062 H 5850.98 0.226677 -1.57073 0
M  V30 57063 H 5851 2.71978 -2.66099 0
M  V30 57064 H 5850.51 1.21097 -3.68724 0
M  V30 57065 H 5848.61 3.08678 -2.08683 0
M  V30 57066 H 5848.73 2.73015 -3.937 0
M  V30 57067 H 5847.09 1.52988 -2.03634 0
M  V30 57068 H 5847.87 0.548037 -3.38897 0
M  V30 57069 N 5850.32 1.41199 0.70004 0
M  V30 57070 C 5851.55 1.43663 1.48891 0
M  V30 57071 C 5851.96 0.0406435 1.88756 0
M  V30 57072 O 5851.32 -0.939035 1.56488 0
M  V30 57073 C 5851.37 2.34135 2.75433 0
M  V30 57074 O 5851.09 3.683 2.37248 0
M  V30 57075 C 5852.59 2.45355 3.6921 0
M  V30 57076 H 5849.81 0.489466 0.458981 0
M  V30 57077 H 5852.36 1.85432 0.86228 0
M  V30 57078 H 5850.51 1.95686 3.34344 0
M  V30 57079 H 5850.93 4.16507 3.18783 0
M  V30 57080 H 5852.4 3.12834 4.54796 0
M  V30 57081 H 5852.88 1.48341 4.1339 0
M  V30 57082 H 5853.48 2.8442 3.16204 0
M  V30 57083 N 5851.8 -0.933846 1.26953 0
M  V30 57084 C 5853.21 -1.49574 1.11734 0
M  V30 57085 C 5853.56 -1.93896 -0.29982 0
M  V30 57086 O 5852.68 -1.80604 -1.1921 0
M  V30 57087 C 5853.28 -2.71834 2.02217 0
M  V30 57088 C 5851.84 -3.24268 1.91122 0
M  V30 57089 C 5850.99 -1.97022 1.95135 0
M  V30 57090 H 5853.94 -0.748579 1.39936 0
M  V30 57091 H 5853.96 -3.46401 1.57437 0
M  V30 57092 H 5853.47 -2.39545 3.05352 0
M  V30 57093 H 5851.57 -3.61329 0.909494 0
M  V30 57094 H 5851.68 -3.90877 2.77041 0
M  V30 57095 H 5850.05 -2.13244 1.3928 0
M  V30 57096 H 5850.83 -1.67055 2.99913 0
M  V30 57097 N 5853.28 -1.08875 -1.13947 0
M  V30 57098 C 5854.5 -0.842979 -1.88948 0
M  V30 57099 C 5854.92 0.605285 -1.78834 0
M  V30 57100 O 5854.28 1.41627 -1.151 0
M  V30 57101 C 5854.33 -1.2621 -3.38752 0
M  V30 57102 O 5854.05 -2.65356 -3.48594 0
M  V30 57103 C 5855.55 -1.04789 -4.30737 0
M  V30 57104 H 5852.77 -0.303672 -0.598351 0
M  V30 57105 H 5855.31 -1.44927 -1.44279 0
M  V30 57106 H 5853.47 -0.699816 -3.81027 0
M  V30 57107 H 5853.88 -2.82879 -4.41678 0
M  V30 57108 H 5855.36 -1.39048 -5.342 0
M  V30 57109 H 5855.83 0.0147502 -4.39198 0
M  V30 57110 H 5856.44 -1.59584 -3.94225 0
M  V30 57111 N 5854.75 1.3107 -0.875119 0
M  V30 57112 C 5856 1.96128 -0.487653 0
M  V30 57113 C 5856.32 1.69486 0.964347 0
M  V30 57114 O 5855.59 1.01306 1.67672 0
M  V30 57115 H 5854.17 0.725643 -0.177345 0
M  V30 57116 H 5856.84 1.59783 -1.11604 0
M  V30 57117 H 5855.93 3.05263 -0.649681 0
M  V30 57118 N 5856.23 0.635073 1.44238 0
M  V30 57119 C 5857.46 0.148332 2.06368 0
M  V30 57120 C 5857.88 -1.17869 1.47486 0
M  V30 57121 O 5857.23 -1.72382 0.599229 0
M  V30 57122 C 5857.28 0.0316461 3.61486 0
M  V30 57123 O 5857 1.3062 4.18175 0
M  V30 57124 C 5858.51 -0.483324 4.40657 0
M  V30 57125 H 5855.73 0.0814954 0.666033 0
M  V30 57126 H 5858.27 0.870591 1.85043 0
M  V30 57127 H 5856.42 -0.641074 3.82059 0
M  V30 57128 H 5856.84 1.15359 5.11657 0
M  V30 57129 H 5858.31 -0.513971 5.49602 0
M  V30 57130 H 5858.79 -1.51115 4.12385 0
M  V30 57131 H 5859.4 0.156281 4.25013 0
M  V30 57132 N 5857.71 -1.53052 0.37586 0
M  V30 57133 C 5858.64 -2.23666 -0.500606 0
M  V30 57134 C 5859.66 -1.25436 -1.03778 0
M  V30 57135 O 5860.84 -1.51595 -0.942398 0
M  V30 57136 C 5857.94 -2.92886 -1.70503 0
M  V30 57137 C 5857.12 -4.1771 -1.29757 0
M  V30 57138 C 5856.18 -4.70048 -2.36519 0
M  V30 57139 O 5855.2 -5.33473 -1.98483 0
M  V30 57140 N 5856.4 -4.48745 -3.6825 0
M  V30 57141 H 5859.17 -2.99518 0.104306 0
M  V30 57142 H 5856.73 -1.60641 0.201544 0
M  V30 57143 H 5858.72 -3.24804 -2.41422 0
M  V30 57144 H 5857.29 -2.20424 -2.21658 0
M  V30 57145 H 5856.51 -3.9198 -0.417813 0
M  V30 57146 H 5857.8 -4.9884 -1.0018 0
M  V30 57147 H 5857.2 -3.98089 -4.01922 0
M  V30 57148 H 5855.76 -4.85187 -4.35243 0
M  V30 57149 N 5859.19 -0.105304 -1.57248 0
M  V30 57150 C 5860.42 0.564087 -1.99062 0
M  V30 57151 C 5860.83 1.61088 -0.984681 0
M  V30 57152 O 5860.19 1.82484 0.0243389 0
M  V30 57153 C 5860.24 1.2026 -3.4091 0
M  V30 57154 O 5859.96 0.197661 -4.37654 0
M  V30 57155 C 5861.46 1.95663 -3.97783 0
M  V30 57156 H 5858.68 0.150445 -0.653917 0
M  V30 57157 H 5861.23 -0.187604 -2.03638 0
M  V30 57158 H 5859.38 1.90516 -3.37317 0
M  V30 57159 H 5859.79 0.659815 -5.20333 0
M  V30 57160 H 5861.27 2.35684 -4.99156 0
M  V30 57161 H 5861.75 2.82649 -3.36164 0
M  V30 57162 H 5862.35 1.302 -4.0488 0
M  V30 57163 N 5860.67 1.56697 0.168431 0
M  V30 57164 C 5862.08 1.71811 0.730614 0
M  V30 57165 C 5862.43 0.716288 1.82657 0
M  V30 57166 O 5861.55 -0.121727 2.16057 0
M  V30 57167 C 5862.15 3.11515 1.33206 0
M  V30 57168 C 5860.71 3.28303 1.84104 0
M  V30 57169 C 5859.85 2.67759 0.721126 0
M  V30 57170 H 5862.81 1.58598 -0.0569979 0
M  V30 57171 H 5862.83 3.10326 2.20178 0
M  V30 57172 H 5862.34 3.84406 0.534175 0
M  V30 57173 H 5860.44 2.60373 2.66527 0
M  V30 57174 H 5860.55 4.36067 1.98449 0
M  V30 57175 H 5858.92 2.27648 1.14231 0
M  V30 57176 H 5859.7 3.43239 -0.0649595 0
M  V30 57177 N 5862.14 -0.437082 1.51418 0
M  V30 57178 C 5863.37 -1.20892 1.67907 0
M  V30 57179 C 5863.79 -1.85007 0.376523 0
M  V30 57180 O 5863.14 -1.70722 -0.644991 0
M  V30 57181 C 5863.2 -2.29276 2.7949 0
M  V30 57182 O 5862.92 -1.67784 4.04698 0
M  V30 57183 C 5864.42 -3.19551 3.0725 0
M  V30 57184 H 5861.64 -0.364361 0.563455 0
M  V30 57185 H 5864.18 -0.517861 1.97834 0
M  V30 57186 H 5862.34 -2.94098 2.52161 0
M  V30 57187 H 5862.75 -2.39417 4.66669 0
M  V30 57188 H 5864.22 -3.91734 3.88907 0
M  V30 57189 H 5864.7 -3.80319 2.19667 0
M  V30 57190 H 5865.31 -2.60429 3.36239 0
M  V30 57191 N 5863.62 -1.41568 -0.692542 0
M  V30 57192 C 5864.85 -1.4445 -1.48127 0
M  V30 57193 C 5865.27 -0.0506531 -1.88732 0
M  V30 57194 O 5864.62 0.930723 -1.56983 0
M  V30 57195 C 5864.67 -2.35592 -2.74187 0
M  V30 57196 O 5864.39 -3.69553 -2.35292 0
M  V30 57197 C 5865.9 -2.47309 -3.67904 0
M  V30 57198 H 5863.12 -0.491893 -0.456379 0
M  V30 57199 H 5865.66 -1.85887 -0.852434 0
M  V30 57200 H 5863.81 -1.97456 -3.33301 0
M  V30 57201 H 5864.23 -4.18191 -3.1657 0
M  V30 57202 H 5865.7 -3.15241 -4.5313 0
M  V30 57203 H 5866.18 -1.50531 -4.12598 0
M  V30 57204 H 5866.79 -2.86093 -3.14692 0
M  V30 57205 N 5865.1 0.927101 -1.27446 0
M  V30 57206 C 5866.33 1.70892 -1.16635 0
M  V30 57207 C 5866.74 1.86761 0.276746 0
M  V30 57208 O 5866.1 1.38507 1.18837 0
M  V30 57209 C 5866.15 3.10823 -1.84584 0
M  V30 57210 O 5865.87 2.95699 -3.23255 0
M  V30 57211 C 5867.37 4.05153 -1.79905 0
M  V30 57212 H 5864.59 0.534623 -0.405486 0
M  V30 57213 H 5867.14 1.16128 -1.68329 0
M  V30 57214 H 5865.29 3.62445 -1.36793 0
M  V30 57215 H 5865.71 3.84168 -3.57093 0
M  V30 57216 H 5867.18 5.00851 -2.32062 0
M  V30 57217 H 5867.66 4.32424 -0.768525 0
M  V30 57218 H 5868.26 3.59456 -2.27313 0
M  V30 57219 N 5866.58 1.09478 1.13368 0
M  V30 57220 C 5867.99 0.850437 1.66206 0
M  V30 57221 C 5868.34 -0.621006 1.86113 0
M  V30 57222 O 5867.47 -1.47832 1.58034 0
M  V30 57223 C 5868.06 1.53723 3.01918 0
M  V30 57224 C 5866.62 1.33985 3.51746 0
M  V30 57225 C 5865.77 1.59298 2.26979 0
M  V30 57226 H 5868.72 1.25386 0.97283 0
M  V30 57227 H 5868.74 0.970632 3.67912 0
M  V30 57228 H 5868.25 2.60814 2.87398 0
M  V30 57229 H 5866.35 0.290128 3.71469 0
M  V30 57230 H 5866.46 2.07505 4.31832 0
M  V30 57231 H 5864.83 1.01513 2.33596 0
M  V30 57232 H 5865.61 2.67619 2.15023 0
M  V30 57233 N 5868.06 -1.30604 0.882058 0
M  V30 57234 C 5869.31 -1.95529 0.495106 0
M  V30 57235 C 5869.62 -1.70422 -0.95999 0
M  V30 57236 O 5870.83 -2.29306 -1.45365 0
M  V30 57237 C 5869.28 -3.50091 0.834505 0
M  V30 57238 C 5868.89 -3.84023 2.30718 0
M  V30 57239 C 5870.63 -4.21345 0.516611 0
M  V30 57240 C 5868.54 -5.3175 2.58836 0
M  V30 57241 H 5867.47 -0.731848 0.181425 0
M  V30 57242 H 5870.12 -1.48597 1.07663 0
M  V30 57243 H 5868.5 -3.95581 0.1821 0
M  V30 57244 H 5869.68 -3.49453 3.00365 0
M  V30 57245 H 5867.99 -3.25865 2.59231 0
M  V30 57246 H 5870.59 -5.30048 0.703762 0
M  V30 57247 H 5870.93 -4.12733 -0.54379 0
M  V30 57248 H 5871.47 -3.81529 1.12608 0
M  V30 57249 H 5868.2 -5.45409 3.63605 0
M  V30 57250 H 5867.72 -5.6763 1.93794 0
M  V30 57251 H 5869.4 -5.99151 2.44186 0
M  V30 57252 N 5869.54 -0.642713 -1.43899 0
M  V30 57253 C 5870.76 -0.159274 -2.06286 0
M  V30 57254 C 5871.18 1.17086 -1.48109 0
M  V30 57255 O 5870.54 1.72062 -0.608362 0
M  V30 57256 C 5870.59 -0.0508162 -3.61464 0
M  V30 57257 O 5870.31 -1.32835 -4.17476 0
M  V30 57258 C 5871.81 0.459948 -4.40907 0
M  V30 57259 H 5869.03 -0.0850264 -0.665591 0
M  V30 57260 H 5871.57 -0.880392 -1.84579 0
M  V30 57261 H 5869.73 0.620803 -3.82394 0
M  V30 57262 H 5870.14 -1.18071 -5.11038 0
M  V30 57263 H 5871.62 0.484817 -5.49867 0
M  V30 57264 H 5872.09 1.48925 -4.1318 0
M  V30 57265 H 5872.7 -0.178818 -4.24924 0
M  V30 57266 N 5871.01 1.52851 -0.383971 0
M  V30 57267 C 5872.24 2.0593 0.200144 0
M  V30 57268 C 5872.66 1.25611 1.40952 0
M  V30 57269 O 5872.01 0.301399 1.79994 0
M  V30 57270 C 5872.06 3.56889 0.575529 0
M  V30 57271 O 5871.79 4.34166 -0.585793 0
M  V30 57272 C 5873.29 4.26294 1.21608 0
M  V30 57273 H 5870.51 0.670263 0.0314491 0
M  V30 57274 H 5873.05 1.9703 -0.547661 0
M  V30 57275 H 5871.21 3.65879 1.27324 0
M  V30 57276 H 5871.62 5.2376 -0.278451 0
M  V30 57277 H 5873.09 5.33179 1.42914 0
M  V30 57278 H 5873.57 3.81171 2.18186 0
M  V30 57279 H 5874.18 4.21607 0.559287 0
M  V30 57280 N 5872.49 0.113641 1.5719 0
M  V30 57281 C 5873.72 -0.553522 1.99358 0
M  V30 57282 C 5874.13 -1.60564 0.99321 0
M  V30 57283 O 5873.49 -1.82494 -0.014661 0
M  V30 57284 C 5873.54 -1.1845 3.41543 0
M  V30 57285 O 5873.26 -0.174448 4.37753 0
M  V30 57286 C 5874.76 -1.9355 3.98815 0
M  V30 57287 H 5871.98 -0.146975 0.654705 0
M  V30 57288 H 5874.53 0.1984 2.03535 0
M  V30 57289 H 5872.68 -1.88724 3.38322 0
M  V30 57290 H 5873.1 -0.632212 5.20676 0
M  V30 57291 H 5874.57 -2.33034 5.00399 0
M  V30 57292 H 5875.05 -2.80862 3.37658 0
M  V30 57293 H 5875.65 -1.28051 4.05565 0
M  V30 57294 N 5873.97 -1.56785 -0.160118 0
M  V30 57295 C 5875.2 -1.8677 -0.890194 0
M  V30 57296 C 5875.61 -0.700338 -1.7533 0
M  V30 57297 O 5874.97 0.330278 -1.79487 0
M  V30 57298 C 5875.02 -3.15889 -1.75773 0
M  V30 57299 O 5874.74 -4.28128 -0.929425 0
M  V30 57300 C 5876.24 -3.59299 -2.59652 0
M  V30 57301 H 5873.46 -0.619389 -0.258066 0
M  V30 57302 H 5876.01 -2.03898 -0.156848 0
M  V30 57303 H 5874.16 -3.00555 -2.44429 0
M  V30 57304 H 5874.58 -5.01877 -1.52379 0
M  V30 57305 H 5876.05 -4.52517 -3.1612 0
M  V30 57306 H 5876.53 -2.83955 -3.35062 0
M  V30 57307 H 5877.13 -3.77283 -1.96309 0
M  V30 57308 N 5875.45 0.429046 -1.51647 0
M  V30 57309 C 5876.68 1.2 -1.68546 0
M  V30 57310 C 5877.09 1.84805 -0.386329 0
M  V30 57311 O 5876.45 1.71062 0.635928 0
M  V30 57312 C 5876.5 2.27791 -2.80702 0
M  V30 57313 O 5876.22 1.65635 -4.05582 0
M  V30 57314 C 5877.72 3.17917 -3.0894 0
M  V30 57315 H 5874.94 0.361368 -0.56538 0
M  V30 57316 H 5877.48 0.507362 -1.98106 0
M  V30 57317 H 5875.64 2.92757 -2.53717 0
M  V30 57318 H 5876.05 2.36939 -4.67932 0
M  V30 57319 H 5877.53 3.89666 -3.90979 0
M  V30 57320 H 5878 3.79149 -2.21681 0
M  V30 57321 H 5878.61 2.58643 -3.37615 0
M  V30 57322 N 5876.93 1.41934 0.685024 0
M  V30 57323 C 5878.17 1.42067 1.44723 0
M  V30 57324 C 5878.5 0.0332754 1.94171 0
M  V30 57325 O 5877.78 -0.940775 1.70234 0
M  V30 57326 C 5878.06 2.43644 2.6516 0
M  V30 57327 C 5877.92 3.91533 2.21409 0
M  V30 57328 C 5879.23 2.42338 3.67369 0
M  V30 57329 H 5876.35 0.517339 0.524909 0
M  V30 57330 H 5879 1.7328 0.779358 0
M  V30 57331 H 5877.15 2.17157 3.22141 0
M  V30 57332 H 5878.82 4.28962 1.69674 0
M  V30 57333 H 5877.06 4.05891 1.53085 0
M  V30 57334 H 5877.73 4.58169 3.07873 0
M  V30 57335 H 5880.21 2.65868 3.20083 0
M  V30 57336 H 5879.08 3.15407 4.49232 0
M  V30 57337 H 5879.34 1.4457 4.17794 0
M  V30 57338 N 5878.4 -0.920329 1.27936 0
M  V30 57339 C 5879.63 -1.70271 1.17539 0
M  V30 57340 C 5880.05 -1.86905 -0.266837 0
M  V30 57341 O 5879.4 -1.39135 -1.181 0
M  V30 57342 C 5879.45 -3.0984 1.8623 0
M  V30 57343 O 5879.18 -2.93981 3.24818 0
M  V30 57344 C 5880.68 -4.04193 1.82051 0
M  V30 57345 H 5877.9 -0.532465 0.408316 0
M  V30 57346 H 5880.44 -1.15234 1.68942 0
M  V30 57347 H 5878.6 -3.61714 1.38713 0
M  V30 57348 H 5879.01 -3.82269 3.59125 0
M  V30 57349 H 5880.48 -4.99613 2.34715 0
M  V30 57350 H 5880.96 -4.3201 0.791447 0
M  V30 57351 H 5881.57 -3.58246 2.29216 0
M  V30 57352 N 5879.88 -1.10078 -1.12786 0
M  V30 57353 C 5881.29 -0.859239 -1.65753 0
M  V30 57354 C 5881.64 0.611127 -1.86439 0
M  V30 57355 O 5880.77 1.46992 -1.58816 0
M  V30 57356 C 5881.36 -1.55322 -3.01099 0
M  V30 57357 C 5879.92 -1.35848 -3.5103 0
M  V30 57358 C 5879.07 -1.60499 -2.26131 0
M  V30 57359 H 5882.02 -1.259 -0.966167 0
M  V30 57360 H 5882.04 -0.99013 -3.67392 0
M  V30 57361 H 5881.55 -2.62335 -2.86011 0
M  V30 57362 H 5879.65 -0.309824 -3.7131 0
M  V30 57363 H 5879.77 -2.09792 -4.30725 0
M  V30 57364 H 5878.13 -1.0275 -2.33055 0
M  V30 57365 H 5878.91 -2.68756 -2.13601 0
M  V30 57366 N 5881.36 1.30135 -0.888972 0
M  V30 57367 C 5882.59 2.00141 -0.524507 0
M  V30 57368 C 5883 1.66611 0.888034 0
M  V30 57369 O 5882.36 0.905382 1.58458 0
M  V30 57370 C 5882.41 3.54767 -0.694452 0
M  V30 57371 O 5882.13 3.87104 -2.05138 0
M  V30 57372 C 5883.63 4.42044 -0.333509 0
M  V30 57373 H 5880.85 0.639768 -0.202331 0
M  V30 57374 H 5883.4 1.65925 -1.19537 0
M  V30 57375 H 5881.55 3.87335 -0.0709074 0
M  V30 57376 H 5881.97 4.81799 -2.07291 0
M  V30 57377 H 5883.44 5.49701 -0.5033 0
M  V30 57378 H 5883.92 4.33112 0.728741 0
M  V30 57379 H 5884.52 4.14928 -0.933544 0
M  V30 57380 N 5882.84 0.650335 1.43556 0
M  V30 57381 C 5884.25 0.242695 1.85116 0
M  V30 57382 C 5884.6 -1.21011 1.54437 0
M  V30 57383 O 5883.73 -1.92328 0.991906 0
M  V30 57384 C 5884.32 0.433693 3.36013 0
M  V30 57385 C 5882.88 0.0803958 3.76314 0
M  V30 57386 C 5882.03 0.737938 2.67301 0
M  V30 57387 H 5884.98 0.854205 1.3375 0
M  V30 57388 H 5885 -0.321668 3.79138 0
M  V30 57389 H 5884.51 1.49115 3.5831 0
M  V30 57390 H 5882.61 -0.974577 3.59629 0
M  V30 57391 H 5882.72 0.50385 4.76443 0
M  V30 57392 H 5881.09 0.171438 2.54122 0
M  V30 57393 H 5881.87 1.79837 2.92427 0
M  V30 57394 N 5884.32 -1.52645 0.392072 0
M  V30 57395 C 5885.54 -2.06033 -0.18922 0
M  V30 57396 C 5885.96 -1.26356 -1.40284 0
M  V30 57397 O 5885.32 -0.31094 -1.79832 0
M  V30 57398 C 5885.37 -3.57189 -0.556594 0
M  V30 57399 O 5885.09 -4.33849 0.60881 0
M  V30 57400 C 5886.59 -4.26933 -1.19345 0
M  V30 57401 H 5883.81 -0.67042 -0.0278941 0
M  V30 57402 H 5886.35 -1.96737 0.558102 0
M  V30 57403 H 5884.51 -3.66549 -1.25381 0
M  V30 57404 H 5884.92 -5.23605 0.306223 0
M  V30 57405 H 5886.4 -5.33929 -1.40085 0
M  V30 57406 H 5886.87 -3.82323 -2.16162 0
M  V30 57407 H 5887.48 -4.21897 -0.536921 0
M  V30 57408 N 5885.79 -0.121976 -1.57127 0
M  V30 57409 C 5887.21 0.402927 -1.823 0
M  V30 57410 C 5887.56 1.66412 -1.03931 0
M  V30 57411 O 5886.68 2.14622 -0.276815 0
M  V30 57412 C 5887.28 0.737797 -3.30669 0
M  V30 57413 C 5885.84 1.20732 -3.56512 0
M  V30 57414 C 5884.98 0.21753 -2.76445 0
M  V30 57415 H 5887.93 -0.347064 -1.54859 0
M  V30 57416 H 5887.95 1.59493 -3.4546 0
M  V30 57417 H 5887.47 -0.180298 -3.87681 0
M  V30 57418 H 5885.57 2.14221 -3.04861 0
M  V30 57419 H 5885.68 1.15059 -4.65079 0
M  V30 57420 H 5884.04 0.705167 -2.44744 0
M  V30 57421 H 5884.83 -0.693714 -3.36218 0
M  V30 57422 N 5887.27 1.56867 0.151801 0
M  V30 57423 C 5888.5 1.8724 0.880277 0
M  V30 57424 C 5888.92 0.709626 1.74956 0
M  V30 57425 O 5888.27 -0.320755 1.79659 0
M  V30 57426 C 5888.32 3.16817 1.74095 0
M  V30 57427 O 5888.04 4.28615 0.906707 0
M  V30 57428 C 5889.55 3.60671 2.57743 0
M  V30 57429 H 5886.77 0.620749 0.254778 0
M  V30 57430 H 5889.31 2.03978 0.146032 0
M  V30 57431 H 5887.46 3.01847 2.42832 0
M  V30 57432 H 5887.88 5.02678 1.49716 0
M  V30 57433 H 5889.35 4.54187 3.13716 0
M  V30 57434 H 5889.83 2.85727 3.33551 0
M  V30 57435 H 5890.44 3.78319 1.94306 0
M  V30 57436 N 5888.75 -0.420997 1.51873 0
M  V30 57437 C 5890 -1.16672 1.65022 0
M  V30 57438 C 5890.32 -1.91328 0.376663 0
M  V30 57439 O 5889.59 -1.86223 -0.608081 0
M  V30 57440 H 5888.17 -0.433677 0.608221 0
M  V30 57441 H 5890.83 -0.481083 1.88869 0
M  V30 57442 H 5889.93 -1.88733 2.48568 0
M  V30 57443 N 5890.23 -1.42295 -0.677488 0
M  V30 57444 C 5891.46 -1.46013 -1.46587 0
M  V30 57445 C 5891.87 -0.0706678 -1.88668 0
M  V30 57446 O 5891.23 0.914021 -1.57962 0
M  V30 57447 C 5891.28 -2.38487 -2.71673 0
M  V30 57448 O 5891 -3.72028 -2.31359 0
M  V30 57449 C 5892.5 -2.51198 -3.6526 0
M  V30 57450 H 5889.72 -0.496706 -0.451136 0
M  V30 57451 H 5892.27 -1.8678 -0.83267 0
M  V30 57452 H 5890.42 -2.0098 -3.31188 0
M  V30 57453 H 5890.83 -4.21525 -3.12116 0
M  V30 57454 H 5892.31 -3.2003 -4.49761 0
M  V30 57455 H 5892.79 -1.54899 -4.10978 0
M  V30 57456 H 5893.39 -2.89415 -3.1164 0
M  V30 57457 N 5891.71 0.913531 -1.28423 0
M  V30 57458 C 5892.64 2.02069 -1.0817 0
M  V30 57459 C 5893.65 1.62766 -0.0333636 0
M  V30 57460 O 5894.84 1.76346 -0.276442 0
M  V30 57461 C 5891.94 3.33149 -0.621713 0
M  V30 57462 C 5891.11 4.01062 -1.7455 0
M  V30 57463 C 5890.17 5.10423 -1.27886 0
M  V30 57464 O 5889.2 5.3361 -1.98113 0
M  V30 57465 N 5890.4 5.80326 -0.14218 0
M  V30 57466 H 5893.17 2.20002 -2.03517 0
M  V30 57467 H 5890.73 1.08484 -1.20178 0
M  V30 57468 H 5892.72 4.03637 -0.293131 0
M  V30 57469 H 5891.29 3.11686 0.238921 0
M  V30 57470 H 5890.51 3.24119 -2.24366 0
M  V30 57471 H 5891.8 4.43182 -2.49935 0
M  V30 57472 H 5891.19 5.63958 0.443646 0
M  V30 57473 H 5889.75 6.51676 0.127125 0
M  V30 57474 N 5893.18 1.10674 1.122 0
M  V30 57475 C 5894.41 0.872933 1.87583 0
M  V30 57476 C 5894.83 -0.576757 1.79775 0
M  V30 57477 O 5894.18 -1.39778 1.17339 0
M  V30 57478 C 5894.24 1.31583 3.36702 0
M  V30 57479 O 5893.96 2.70868 3.44328 0
M  V30 57480 C 5895.46 1.11628 4.29015 0
M  V30 57481 H 5892.68 0.313153 0.593444 0
M  V30 57482 H 5895.22 1.47204 1.41955 0
M  V30 57483 H 5893.38 0.760346 3.79865 0
M  V30 57484 H 5893.79 2.8987 4.37122 0
M  V30 57485 H 5895.26 1.47529 5.3192 0
M  V30 57486 H 5895.74 0.0551242 4.39165 0
M  V30 57487 H 5896.35 1.65836 3.91636 0
M  V30 57488 N 5894.66 -1.29661 0.89586 0
M  V30 57489 C 5896.07 -1.77823 0.568847 0
M  V30 57490 C 5896.42 -1.73537 -0.915382 0
M  V30 57491 O 5895.55 -1.31891 -1.71562 0
M  V30 57492 C 5896.14 -3.22897 1.02582 0
M  V30 57493 C 5894.7 -3.68852 0.750033 0
M  V30 57494 C 5893.85 -2.49862 1.20268 0
M  V30 57495 H 5896.8 -1.16377 1.07898 0
M  V30 57496 H 5896.82 -3.78798 0.359446 0
M  V30 57497 H 5896.33 -3.25984 2.10609 0
M  V30 57498 H 5894.44 -3.71242 -0.317785 0
M  V30 57499 H 5894.55 -4.59827 1.34522 0
M  V30 57500 H 5892.91 -2.46994 0.621763 0
M  V30 57501 H 5893.7 -2.55679 2.29092 0
M  V30 57502 N 5896.14 -0.657939 -1.43209 0
M  V30 57503 C 5897.37 -0.181145 -2.06105 0
M  V30 57504 C 5897.78 1.15508 -1.49343 0
M  V30 57505 O 5897.14 1.71407 -0.626578 0
M  V30 57506 C 5897.19 -0.0891514 -3.6139 0
M  V30 57507 O 5896.91 -1.37256 -4.16044 0
M  V30 57508 C 5898.41 0.413158 -4.4137 0
M  V30 57509 H 5895.63 -0.0920811 -0.664652 0
M  V30 57510 H 5898.18 -0.89992 -1.83635 0
M  V30 57511 H 5896.33 0.58021 -3.8303 0
M  V30 57512 H 5896.75 -1.23485 -5.09757 0
M  V30 57513 H 5898.22 0.426469 -5.5035 0
M  V30 57514 H 5898.7 1.44535 -4.14736 0
M  V30 57515 H 5899.3 -0.223877 -4.2471 0
M  V30 57516 N 5897.62 1.52435 -0.400162 0
M  V30 57517 C 5898.85 2.0613 0.178291 0
M  V30 57518 C 5899.26 1.27099 1.39612 0
M  V30 57519 O 5898.62 0.320473 1.79664 0
M  V30 57520 C 5898.67 3.5748 0.537644 0
M  V30 57521 O 5898.39 4.3352 -0.631809 0
M  V30 57522 C 5899.89 4.2756 1.17079 0
M  V30 57523 H 5897.11 0.670558 0.0243383 0
M  V30 57524 H 5899.66 1.96438 -0.568528 0
M  V30 57525 H 5897.81 3.67209 1.23436 0
M  V30 57526 H 5898.23 5.23436 -0.333987 0
M  V30 57527 H 5899.7 5.34664 1.37251 0
M  V30 57528 H 5900.18 3.83464 2.14131 0
M  V30 57529 H 5900.78 4.22176 0.514539 0
M  V30 57530 N 5899.1 0.130307 1.5706 0
M  V30 57531 C 5900.33 -0.532346 1.99934 0
M  V30 57532 C 5900.74 -1.59501 1.01018 0
M  V30 57533 O 5900.1 -1.82499 0.00469573 0
M  V30 57534 C 5900.15 -1.14821 3.4278 0
M  V30 57535 O 5899.87 -0.128009 4.37913 0
M  V30 57536 C 5901.37 -1.89309 4.00845 0
M  V30 57537 H 5898.59 -0.140023 0.656227 0
M  V30 57538 H 5901.13 0.219977 2.03313 0
M  V30 57539 H 5899.29 -1.85125 3.40305 0
M  V30 57540 H 5899.7 -0.576951 5.21317 0
M  V30 57541 H 5901.18 -2.27713 5.02843 0
M  V30 57542 H 5901.65 -2.77265 3.40618 0
M  V30 57543 H 5902.26 -1.23743 4.069 0
M  V30 57544 N 5900.58 -1.56946 -0.14348 0
M  V30 57545 C 5901.99 -1.72951 -0.703188 0
M  V30 57546 C 5902.34 -0.745257 -1.81495 0
M  V30 57547 O 5901.46 0.0873384 -2.16224 0
M  V30 57548 C 5902.06 -3.13595 -1.28233 0
M  V30 57549 C 5900.62 -3.3119 -1.78857 0
M  V30 57550 C 5899.76 -2.68873 -0.678437 0
M  V30 57551 H 5902.71 -1.58487 0.0822222 0
M  V30 57552 H 5902.74 -3.13789 -2.15213 0
M  V30 57553 H 5902.25 -3.85207 -0.472952 0
M  V30 57554 H 5900.35 -2.6458 -2.62351 0
M  V30 57555 H 5900.46 -4.39169 -1.91486 0
M  V30 57556 H 5898.83 -2.29436 -1.10595 0
M  V30 57557 H 5899.61 -3.43092 0.119558 0
M  V30 57558 N 5902.05 0.412937 -1.52094 0
M  V30 57559 C 5903.3 1.15731 -1.65195 0
M  V30 57560 C 5903.62 1.91752 -0.386077 0
M  V30 57561 O 5904.82 2.68584 -0.396825 0
M  V30 57562 C 5903.28 2.10609 -2.91842 0
M  V30 57563 C 5902.89 1.40122 -4.25523 0
M  V30 57564 C 5904.63 2.85328 -3.14306 0
M  V30 57565 C 5902.54 2.33626 -5.43298 0
M  V30 57566 H 5901.47 0.43571 -0.615364 0
M  V30 57567 H 5904.12 0.422109 -1.78579 0
M  V30 57568 H 5902.5 2.87666 -2.72148 0
M  V30 57569 H 5903.67 0.684559 -4.55687 0
M  V30 57570 H 5901.99 0.77459 -4.09132 0
M  V30 57571 H 5904.59 3.55422 -3.99473 0
M  V30 57572 H 5904.93 3.48063 -2.28381 0
M  V30 57573 H 5905.46 2.15372 -3.34454 0
M  V30 57574 H 5902.2 1.75544 -6.31557 0
M  V30 57575 H 5901.72 3.03276 -5.17478 0
M  V30 57576 H 5903.4 2.94234 -5.76225 0
M  V30 57577 N 5903.53 1.42652 0.669932 0
M  V30 57578 C 5904.76 1.46789 1.4581 0
M  V30 57579 C 5905.17 0.0806723 1.88628 0
M  V30 57580 O 5904.53 -0.905631 1.58444 0
M  V30 57581 C 5904.58 2.39924 2.70405 0
M  V30 57582 O 5904.3 3.73249 2.29383 0
M  V30 57583 C 5905.8 2.53131 3.63922 0
M  V30 57584 H 5903.02 0.499092 0.448496 0
M  V30 57585 H 5905.57 1.87219 0.822753 0
M  V30 57586 H 5903.72 2.02734 3.30118 0
M  V30 57587 H 5904.14 4.23175 3.09876 0
M  V30 57588 H 5905.61 3.2241 4.48058 0
M  V30 57589 H 5906.09 1.57077 4.10151 0
M  V30 57590 H 5906.69 2.91063 3.101 0
M  V30 57591 N 5905.01 -0.906708 1.28905 0
M  V30 57592 C 5906.24 -1.69014 1.19339 0
M  V30 57593 C 5906.65 -1.87177 -0.246999 0
M  V30 57594 O 5906.01 -1.4038 -1.16618 0
M  V30 57595 C 5906.06 -3.07847 1.89505 0
M  V30 57596 O 5905.78 -2.90519 3.27918 0
M  V30 57597 C 5907.28 -4.0224 1.86328 0
M  V30 57598 H 5904.5 -0.528105 0.41394 0
M  V30 57599 H 5907.05 -1.13435 1.70155 0
M  V30 57600 H 5905.2 -3.60223 1.42542 0
M  V30 57601 H 5905.62 -3.78438 3.63159 0
M  V30 57602 H 5907.09 -4.97095 2.40001 0
M  V30 57603 H 5907.57 -4.31146 0.837223 0
M  V30 57604 H 5908.17 -3.55795 2.33003 0
M  V30 57605 N 5906.49 -1.11268 -1.11612 0
M  V30 57606 C 5907.72 -0.882868 -1.87118 0
M  V30 57607 C 5908.13 0.567215 -1.80078 0
M  V30 57608 O 5907.49 1.39154 -1.18079 0
M  V30 57609 C 5907.54 -1.33367 -3.35999 0
M  V30 57610 O 5907.26 -2.7269 -3.42887 0
M  V30 57611 C 5908.76 -1.13902 -4.28417 0
M  V30 57612 H 5905.98 -0.316296 -0.591775 0
M  V30 57613 H 5908.52 -1.47955 -1.41172 0
M  V30 57614 H 5906.68 -0.78048 -3.79457 0
M  V30 57615 H 5907.09 -2.92184 -4.35579 0
M  V30 57616 H 5908.57 -1.50348 -5.3113 0
M  V30 57617 H 5909.04 -0.0784134 -4.3913 0
M  V30 57618 H 5909.65 -1.6791 -3.90751 0
M  V30 57619 N 5907.97 1.29185 -0.902724 0
M  V30 57620 C 5909.19 1.99574 -0.545705 0
M  V30 57621 C 5909.61 1.67544 0.870313 0
M  V30 57622 O 5908.97 0.922137 1.57489 0
M  V30 57623 C 5909.02 3.5401 -0.73204 0
M  V30 57624 O 5908.74 3.84907 -2.09233 0
M  V30 57625 C 5910.24 4.41665 -0.380375 0
M  V30 57626 H 5907.46 0.637586 -0.209106 0
M  V30 57627 H 5910 1.64648 -1.2129 0
M  V30 57628 H 5908.16 3.87238 -0.111985 0
M  V30 57629 H 5908.57 4.79574 -2.1239 0
M  V30 57630 H 5910.05 5.49136 -0.561575 0
M  V30 57631 H 5910.52 4.33861 0.682763 0
M  V30 57632 H 5911.13 4.13914 -0.9775 0
M  V30 57633 N 5909.44 0.665525 1.42858 0
M  V30 57634 C 5910.67 0.192072 2.06007 0
M  V30 57635 C 5911.09 -1.14714 1.49953 0
M  V30 57636 O 5910.44 -1.71072 0.635659 0
M  V30 57637 C 5910.49 0.108316 3.61338 0
M  V30 57638 O 5910.22 1.3946 4.1531 0
M  V30 57639 C 5911.72 -0.389745 4.41583 0
M  V30 57640 H 5908.94 0.0956046 0.664154 0
M  V30 57641 H 5911.48 0.909646 1.83155 0
M  V30 57642 H 5909.64 -0.559889 3.83333 0
M  V30 57643 H 5910.05 1.26186 5.09095 0
M  V30 57644 H 5911.52 -0.397277 5.50569 0
M  V30 57645 H 5912 -1.42333 4.15497 0
M  V30 57646 H 5912.61 0.246397 4.24586 0
M  V30 57647 N 5910.92 -1.52221 0.40824 0
M  V30 57648 C 5912.17 -2.02102 -0.168083 0
M  V30 57649 C 5912.5 -1.29335 -1.44866 0
M  V30 57650 O 5911.78 -0.399403 -1.90355 0
M  V30 57651 C 5912.06 -3.57681 -0.416695 0
M  V30 57652 C 5911.91 -4.41098 0.88049 0
M  V30 57653 C 5913.23 -4.23446 -1.19921 0
M  V30 57654 H 5910.35 -0.734585 -0.0596144 0
M  V30 57655 H 5912.99 -1.82119 0.541531 0
M  V30 57656 H 5911.14 -3.74839 -1.02118 0
M  V30 57657 H 5912.81 -4.35653 1.51672 0
M  V30 57658 H 5911.06 -4.07347 1.49166 0
M  V30 57659 H 5911.73 -5.48029 0.660941 0
M  V30 57660 H 5914.2 -4.10382 -0.687461 0
M  V30 57661 H 5913.08 -5.32244 -1.34191 0
M  V30 57662 H 5913.34 -3.82343 -2.2196 0
M  V30 57663 N 5912.4 -0.138635 -1.56989 0
M  V30 57664 C 5913.63 0.521736 -2.00214 0
M  V30 57665 C 5914.04 1.58964 -1.01863 0
M  V30 57666 O 5913.4 1.82494 -0.0143741 0
M  V30 57667 C 5913.45 1.13002 -3.43384 0
M  V30 57668 O 5913.17 0.104784 -4.37975 0
M  V30 57669 C 5914.67 1.87181 -4.01843 0
M  V30 57670 H 5911.89 0.136541 -0.656961 0
M  V30 57671 H 5914.44 -0.230756 -2.03194 0
M  V30 57672 H 5912.59 1.83318 -3.41282 0
M  V30 57673 H 5913.01 0.549297 -5.21616 0
M  V30 57674 H 5914.48 2.25043 -5.04043 0
M  V30 57675 H 5914.96 2.75455 -3.42084 0
M  V30 57676 H 5915.56 1.21583 -4.07551 0
M  V30 57677 N 5913.88 1.57019 0.135155 0
M  V30 57678 C 5915.29 1.73322 0.694006 0
M  V30 57679 C 5915.64 0.754872 1.81097 0
M  V30 57680 O 5914.77 -0.0758703 2.16267 0
M  V30 57681 C 5915.36 3.1427 1.26568 0
M  V30 57682 C 5913.92 3.32134 1.77098 0
M  V30 57683 C 5913.07 2.69229 0.664168 0
M  V30 57684 H 5916.02 1.58441 -0.0906259 0
M  V30 57685 H 5916.04 3.14926 2.13546 0
M  V30 57686 H 5915.55 3.85453 0.452516 0
M  V30 57687 H 5913.65 2.65968 2.60944 0
M  V30 57688 H 5913.76 4.40179 1.89155 0
M  V30 57689 H 5912.13 2.30019 1.09376 0
M  V30 57690 H 5912.91 3.43024 -0.137751 0
M  V30 57691 N 5915.36 -0.404866 1.52311 0
M  V30 57692 C 5916.58 -1.17303 1.70433 0
M  V30 57693 C 5917 -1.84167 0.415681 0
M  V30 57694 O 5916.36 -1.72052 -0.608633 0
M  V30 57695 C 5916.41 -2.23296 2.8429 0
M  V30 57696 O 5916.13 -1.59162 4.08166 0
M  V30 57697 C 5917.63 -3.12961 3.13959 0
M  V30 57698 H 5914.85 -0.352328 0.571057 0
M  V30 57699 H 5917.39 -0.475781 1.98888 0
M  V30 57700 H 5915.55 -2.88683 2.58342 0
M  V30 57701 H 5915.96 -2.29464 4.71642 0
M  V30 57702 H 5917.44 -3.83397 3.97128 0
M  V30 57703 H 5917.91 -3.75574 2.27685 0
M  V30 57704 H 5918.52 -2.53239 3.41687 0
M  V30 57705 N 5916.83 -1.43006 -0.662357 0
M  V30 57706 C 5918.25 -1.39279 -1.24331 0
M  V30 57707 C 5918.6 -0.0922687 -1.95983 0
M  V30 57708 O 5917.72 0.808606 -2.00725 0
M  V30 57709 C 5918.32 -2.52295 -2.26125 0
M  V30 57710 C 5916.88 -2.51863 -2.79718 0
M  V30 57711 C 5916.02 -2.30458 -1.54222 0
M  V30 57712 H 5918.97 -1.52039 -0.454948 0
M  V30 57713 H 5918.99 -2.2326 -3.08115 0
M  V30 57714 H 5918.51 -3.46935 -1.73947 0
M  V30 57715 H 5916.61 -1.61076 -3.35984 0
M  V30 57716 H 5916.72 -3.49325 -3.27886 0
M  V30 57717 H 5915.08 -1.78952 -1.81241 0
M  V30 57718 H 5915.87 -3.27171 -1.03991 0
M  V30 57719 N 5918.31 0.899859 -1.29384 0
M  V30 57720 C 5919.54 1.68379 -1.20233 0
M  V30 57721 C 5919.96 1.87306 0.237069 0
M  V30 57722 O 5919.31 1.40996 1.15872 0
M  V30 57723 C 5919.36 3.06838 -1.91135 0
M  V30 57724 O 5919.08 2.88776 -3.29454 0
M  V30 57725 C 5920.59 4.01246 -1.88459 0
M  V30 57726 H 5917.81 0.525902 -0.416735 0
M  V30 57727 H 5920.35 1.12531 -1.70754 0
M  V30 57728 H 5918.5 3.59462 -1.4445 0
M  V30 57729 H 5918.92 3.76507 -3.65161 0
M  V30 57730 H 5920.39 4.95815 -2.42634 0
M  V30 57731 H 5920.87 4.30696 -0.860076 0
M  V30 57732 H 5921.48 3.54554 -2.34886 0
M  V30 57733 N 5919.79 1.11858 1.1102 0
M  V30 57734 C 5921.2 0.8855 1.64365 0
M  V30 57735 C 5921.55 -0.581389 1.87388 0
M  V30 57736 O 5920.68 -1.44446 1.61134 0
M  V30 57737 C 5921.27 1.60093 2.9859 0
M  V30 57738 C 5919.83 1.41416 3.48825 0
M  V30 57739 C 5918.98 1.64077 2.23549 0
M  V30 57740 H 5921.93 1.27422 0.946015 0
M  V30 57741 H 5921.95 1.04845 3.6577 0
M  V30 57742 H 5921.46 2.66852 2.81801 0
M  V30 57743 H 5919.56 0.368857 3.7077 0
M  V30 57744 H 5919.68 2.16618 4.27333 0
M  V30 57745 H 5918.04 1.06445 2.3139 0
M  V30 57746 H 5918.82 2.7212 2.09298 0
M  V30 57747 N 5921.27 -1.28704 0.909562 0
M  V30 57748 C 5922.5 -1.99282 0.556281 0
M  V30 57749 C 5922.91 -1.68003 -0.861416 0
M  V30 57750 O 5922.27 -0.930476 -1.56998 0
M  V30 57751 C 5922.32 -3.53617 0.750804 0
M  V30 57752 O 5922.04 -3.83792 2.11271 0
M  V30 57753 C 5923.54 -4.41457 0.403792 0
M  V30 57754 H 5920.76 -0.636468 0.212484 0
M  V30 57755 H 5923.31 -1.64002 1.22162 0
M  V30 57756 H 5921.46 -3.87173 0.13252 0
M  V30 57757 H 5921.87 -4.7844 2.1493 0
M  V30 57758 H 5923.35 -5.4883 0.590689 0
M  V30 57759 H 5923.83 -4.34217 -0.659744 0
M  V30 57760 H 5924.43 -4.1339 0.999437 0
M  V30 57761 N 5922.75 -0.673092 -1.42503 0
M  V30 57762 C 5923.99 -0.194262 -2.01164 0
M  V30 57763 C 5924.32 1.20285 -1.53481 0
M  V30 57764 O 5923.59 1.80734 -0.755768 0
M  V30 57765 H 5922.17 -0.0688283 -0.743822 0
M  V30 57766 H 5924.83 -0.869218 -1.74444 0
M  V30 57767 H 5923.92 -0.194221 -3.11495 0
M  V30 57768 N 5924.22 1.52002 -0.416307 0
M  V30 57769 C 5925.45 2.06308 0.156418 0
M  V30 57770 C 5925.87 1.28572 1.38256 0
M  V30 57771 O 5925.22 0.33951 1.79314 0
M  V30 57772 C 5925.28 3.5803 0.499698 0
M  V30 57773 O 5925 4.32826 -0.677754 0
M  V30 57774 C 5926.5 4.28777 1.12538 0
M  V30 57775 H 5923.72 0.670779 0.0172248 0
M  V30 57776 H 5926.26 1.95824 -0.589331 0
M  V30 57777 H 5924.42 3.68497 1.19534 0
M  V30 57778 H 5924.83 5.23052 -0.389486 0
M  V30 57779 H 5926.3 5.3609 1.31573 0
M  V30 57780 H 5926.78 3.85713 2.10052 0
M  V30 57781 H 5927.39 4.22698 0.469732 0
M  V30 57782 N 5925.7 0.146958 1.56913 0
M  V30 57783 C 5926.63 -0.823728 2.13886 0
M  V30 57784 C 5927.65 -1.21077 1.08831 0
M  V30 57785 O 5928.84 -1.15486 1.36108 0
M  V30 57786 C 5925.94 -2.11676 2.64663 0
M  V30 57787 C 5925.11 -1.89709 3.94118 0
M  V30 57788 C 5924.17 -3.03001 4.30206 0
M  V30 57789 O 5923.19 -2.74694 4.9853 0
M  V30 57790 N 5924.4 -4.30173 3.89784 0
M  V30 57791 H 5927.16 -0.3368 2.97802 0
M  V30 57792 H 5924.72 -0.0366134 1.61859 0
M  V30 57793 H 5926.71 -2.86515 2.85817 0
M  V30 57794 H 5925.28 -2.51632 1.85472 0
M  V30 57795 H 5924.5 -0.989074 3.8159 0
M  V30 57796 H 5925.79 -1.7237 4.78713 0
M  V30 57797 H 5925.19 -4.56039 3.34731 0
M  V30 57798 H 5923.75 -5.01793 4.1599 0
M  V30 57799 N 5927.18 -1.57089 -0.126826 0
M  V30 57800 C 5928.41 -1.88617 -0.850377 0
M  V30 57801 C 5928.82 -0.73737 -1.73805 0
M  V30 57802 O 5928.18 0.292132 -1.80147 0
M  V30 57803 C 5928.23 -3.19547 -1.69033 0
M  V30 57804 O 5927.95 -4.30003 -0.838404 0
M  V30 57805 C 5929.45 -3.64726 -2.51972 0
M  V30 57806 H 5926.67 -0.624724 -0.24487 0
M  V30 57807 H 5929.22 -2.04184 -0.113563 0
M  V30 57808 H 5927.37 -3.05672 -2.37999 0
M  V30 57809 H 5927.79 -5.04997 -1.417 0
M  V30 57810 H 5929.26 -4.59121 -3.06451 0
M  V30 57811 H 5929.74 -2.90998 -3.28963 0
M  V30 57812 H 5930.34 -3.81363 -1.88262 0
M  V30 57813 N 5928.66 0.396782 -1.52523 0
M  V30 57814 C 5930.07 0.975068 -1.59215 0
M  V30 57815 C 5930.42 1.91198 -0.440206 0
M  V30 57816 O 5929.55 2.11926 0.437781 0
M  V30 57817 C 5930.14 1.77521 -2.88569 0
M  V30 57818 C 5928.7 2.30332 -2.97698 0
M  V30 57819 C 5927.85 1.10663 -2.54262 0
M  V30 57820 H 5930.8 0.176591 -1.57714 0
M  V30 57821 H 5930.82 2.63374 -2.74617 0
M  V30 57822 H 5930.33 1.09305 -3.7239 0
M  V30 57823 H 5928.43 3.01883 -2.18398 0
M  V30 57824 H 5928.55 2.60352 -4.02186 0
M  V30 57825 H 5926.91 1.46432 -2.08398 0
M  V30 57826 H 5927.69 0.439942 -3.40469 0
M  V30 57827 N 5930.14 1.43355 0.654764 0
M  V30 57828 C 5931.37 1.48327 1.44245 0
M  V30 57829 C 5931.78 0.100674 1.88531 0
M  V30 57830 O 5931.14 -0.888775 1.59396 0
M  V30 57831 C 5931.19 2.42779 2.67845 0
M  V30 57832 O 5930.91 3.75661 2.25411 0
M  V30 57833 C 5932.41 2.56977 3.61217 0
M  V30 57834 H 5929.63 0.503821 0.443177 0
M  V30 57835 H 5932.17 1.88081 0.80285 0
M  V30 57836 H 5930.33 2.06224 3.27949 0
M  V30 57837 H 5930.74 4.26438 3.05371 0
M  V30 57838 H 5932.22 3.27144 4.44613 0
M  V30 57839 H 5932.69 1.61418 4.08462 0
M  V30 57840 H 5933.3 2.94336 3.06996 0
M  V30 57841 N 5931.62 -0.892985 1.2986 0
M  V30 57842 C 5932.84 -1.67739 1.21125 0
M  V30 57843 C 5933.26 -1.87429 -0.227132 0
M  V30 57844 O 5932.62 -1.41609 -1.15123 0
M  V30 57845 C 5932.67 -3.0582 1.9276 0
M  V30 57846 O 5932.39 -2.87025 3.30981 0
M  V30 57847 C 5933.89 -4.00241 1.90584 0
M  V30 57848 H 5931.11 -0.523685 0.419518 0
M  V30 57849 H 5933.65 -1.11624 1.71348 0
M  V30 57850 H 5931.81 -3.58691 1.46355 0
M  V30 57851 H 5932.22 -3.74565 3.67153 0
M  V30 57852 H 5933.7 -4.94522 2.4526 0
M  V30 57853 H 5934.17 -4.30234 0.882905 0
M  V30 57854 H 5934.78 -3.53303 2.36763 0
M  V30 57855 N 5933.09 -1.12445 -1.10425 0
M  V30 57856 C 5934.32 -0.902665 -1.86171 0
M  V30 57857 C 5934.74 0.548084 -1.8067 0
M  V30 57858 O 5934.09 1.37893 -1.19548 0
M  V30 57859 C 5934.14 -1.36923 -3.34566 0
M  V30 57860 O 5933.87 -2.76312 -3.39976 0
M  V30 57861 C 5935.37 -1.18439 -4.27185 0
M  V30 57862 H 5932.59 -0.322555 -0.588387 0
M  V30 57863 H 5935.13 -1.49444 -1.39595 0
M  V30 57864 H 5933.29 -0.820683 -3.78607 0
M  V30 57865 H 5933.7 -2.96787 -4.32455 0
M  V30 57866 H 5935.17 -1.55973 -5.29506 0
M  V30 57867 H 5935.65 -0.124985 -4.39022 0
M  V30 57868 H 5936.26 -1.72045 -3.88948 0
M  V30 57869 N 5934.57 1.2822 -0.916375 0
M  V30 57870 C 5935.98 1.76896 -0.597065 0
M  V30 57871 C 5936.33 1.74972 0.887658 0
M  V30 57872 O 5935.46 1.34604 1.69442 0
M  V30 57873 C 5936.05 3.21224 -1.07706 0
M  V30 57874 C 5934.61 3.67612 -0.808619 0
M  V30 57875 C 5933.76 2.47917 -1.24228 0
M  V30 57876 H 5936.71 1.14646 -1.09736 0
M  V30 57877 H 5936.73 3.78179 -0.419664 0
M  V30 57878 H 5936.24 3.22592 -2.15768 0
M  V30 57879 H 5934.34 3.71701 0.258684 0
M  V30 57880 H 5934.46 4.57628 -1.41821 0
M  V30 57881 H 5932.82 2.45974 -0.660979 0
M  V30 57882 H 5933.6 2.52002 -2.3313 0
M  V30 57883 N 5936.05 0.68064 1.42144 0
M  V30 57884 C 5937.3 0.202516 2.00681 0
M  V30 57885 C 5937.61 -1.19991 1.54471 0
M  V30 57886 O 5938.82 -1.77472 2.05465 0
M  V30 57887 C 5937.27 0.31119 3.58552 0
M  V30 57888 C 5936.88 1.71804 4.13748 0
M  V30 57889 C 5938.63 -0.107922 4.24363 0
M  V30 57890 C 5936.53 1.77917 5.64003 0
M  V30 57891 H 5935.46 0.071953 0.750559 0
M  V30 57892 H 5938.11 0.846671 1.628 0
M  V30 57893 H 5936.5 -0.400959 3.93965 0
M  V30 57894 H 5937.67 2.45775 3.89784 0
M  V30 57895 H 5935.98 2.08552 3.6041 0
M  V30 57896 H 5938.58 -0.0824805 5.34636 0
M  V30 57897 H 5938.92 -1.14417 4.00268 0
M  V30 57898 H 5939.46 0.553424 3.93932 0
M  V30 57899 H 5936.2 2.79544 5.92904 0
M  V30 57900 H 5935.72 1.08311 5.8994 0
M  V30 57901 H 5937.4 1.53526 6.28521 0
M  V30 57902 N 5937.53 -1.51779 0.424362 0
M  V30 57903 C 5938.76 -2.06388 -0.145475 0
M  V30 57904 C 5939.17 -1.29304 -1.37572 0
M  V30 57905 O 5938.53 -0.349015 -1.79132 0
M  V30 57906 C 5938.58 -3.5829 -0.480704 0
M  V30 57907 O 5938.3 -4.3246 0.700698 0
M  V30 57908 C 5939.8 -4.29368 -1.10262 0
M  V30 57909 H 5937.02 -0.670861 -0.0136672 0
M  V30 57910 H 5939.56 -1.95509 0.599707 0
M  V30 57911 H 5937.72 -3.69126 -1.17578 0
M  V30 57912 H 5938.13 -5.22838 0.417219 0
M  V30 57913 H 5939.61 -5.3678 -1.28728 0
M  V30 57914 H 5940.08 -3.86822 -2.08004 0
M  V30 57915 H 5940.69 -4.22941 -0.447309 0
M  V30 57916 N 5939.01 -0.155278 -1.56833 0
M  V30 57917 C 5940.23 0.500471 -2.00756 0
M  V30 57918 C 5940.65 1.57874 -1.03543 0
M  V30 57919 O 5940.01 1.82469 -0.0337292 0
M  V30 57920 C 5940.06 1.09353 -3.44564 0
M  V30 57921 O 5939.78 0.0583248 -4.38061 0
M  V30 57922 C 5941.28 1.82908 -4.03806 0
M  V30 57923 H 5938.5 0.129565 -0.658372 0
M  V30 57924 H 5941.04 -0.252294 -2.02938 0
M  V30 57925 H 5939.2 1.79688 -3.43207 0
M  V30 57926 H 5939.61 0.493941 -5.22169 0
M  V30 57927 H 5941.09 2.19685 -5.06402 0
M  V30 57928 H 5941.56 2.71811 -3.44986 0
M  V30 57929 H 5942.17 1.17253 -4.08817 0
M  V30 57930 N 5940.48 1.57154 0.118493 0
M  V30 57931 C 5941.71 1.89065 0.840363 0
M  V30 57932 C 5942.13 0.746577 1.73412 0
M  V30 57933 O 5941.48 -0.282575 1.80299 0
M  V30 57934 C 5941.53 3.20439 1.67336 0
M  V30 57935 O 5941.26 4.30441 0.815588 0
M  V30 57936 C 5942.76 3.66057 2.50034 0
M  V30 57937 H 5939.98 0.626014 0.241553 0
M  V30 57938 H 5942.52 2.04242 0.102733 0
M  V30 57939 H 5940.68 3.0693 2.36374 0
M  V30 57940 H 5941.09 5.05741 1.39019 0
M  V30 57941 H 5942.56 4.6074 3.04012 0
M  V30 57942 H 5943.04 2.92738 3.27416 0
M  V30 57943 H 5943.65 3.82356 1.86237 0
M  V30 57944 N 5941.96 -0.388688 1.52732 0
M  V30 57945 C 5943.19 -1.15489 1.71668 0
M  V30 57946 C 5943.61 -1.83716 0.435191 0
M  V30 57947 O 5942.96 -1.72688 -0.59035 0
M  V30 57948 C 5943.01 -2.20269 2.86643 0
M  V30 57949 O 5942.73 -1.54824 4.09831 0
M  V30 57950 C 5944.24 -3.09614 3.1726 0
M  V30 57951 H 5941.46 -0.346251 0.574762 0
M  V30 57952 H 5944 -0.454659 1.99382 0
M  V30 57953 H 5942.15 -2.85927 2.61389 0
M  V30 57954 H 5942.57 -2.24449 4.74049 0
M  V30 57955 H 5944.04 -3.79163 4.01172 0
M  V30 57956 H 5944.52 -3.73138 2.31656 0
M  V30 57957 H 5945.13 -2.496 3.44354 0
M  V30 57958 N 5943.44 -1.437 -0.647152 0
M  V30 57959 C 5944.67 -1.4909 -1.43457 0
M  V30 57960 C 5945.08 -0.110671 -1.88475 0
M  V30 57961 O 5944.44 0.880309 -1.59865 0
M  V30 57962 C 5944.49 -2.44196 -2.66553 0
M  V30 57963 O 5944.21 -3.76851 -2.23416 0
M  V30 57964 C 5945.71 -2.58889 -3.59849 0
M  V30 57965 H 5942.93 -0.506164 -0.440499 0
M  V30 57966 H 5945.48 -1.88504 -0.792864 0
M  V30 57967 H 5943.63 -2.0796 -3.26851 0
M  V30 57968 H 5944.05 -4.28051 -3.03105 0
M  V30 57969 H 5945.52 -3.29498 -4.42872 0
M  V30 57970 H 5946 -1.63582 -4.076 0
M  V30 57971 H 5946.6 -2.9596 -3.0543 0
M  V30 57972 N 5944.92 0.886085 -1.30331 0
M  V30 57973 C 5946.16 1.64022 -1.19267 0
M  V30 57974 C 5946.5 1.92554 0.252312 0
M  V30 57975 O 5945.77 1.54568 1.18063 0
M  V30 57976 C 5946.06 2.98073 -2.0205 0
M  V30 57977 C 5945.91 2.76521 -3.54762 0
M  V30 57978 C 5947.23 3.98982 -1.85745 0
M  V30 57979 H 5944.35 0.595209 -0.434621 0
M  V30 57980 H 5946.99 1.02544 -1.59952 0
M  V30 57981 H 5945.14 3.50546 -1.67481 0
M  V30 57982 H 5946.81 2.30845 -3.99385 0
M  V30 57983 H 5945.05 2.11047 -3.79001 0
M  V30 57984 H 5945.72 3.71835 -4.07974 0
M  V30 57985 H 5948.2 3.55666 -2.15966 0
M  V30 57986 H 5947.08 4.9069 -2.45996 0
M  V30 57987 H 5947.34 4.34498 -0.816305 0
M  V30 57988 N 5946.4 1.13029 1.09828 0
M  V30 57989 C 5947.62 0.912525 1.85689 0
M  V30 57990 C 5948.04 -0.538495 1.80958 0
M  V30 57991 O 5947.4 -1.37257 1.20277 0
M  V30 57992 C 5947.45 1.38696 3.33835 0
M  V30 57993 O 5947.17 2.78111 3.38505 0
M  V30 57994 C 5948.67 1.20703 4.26551 0
M  V30 57995 H 5945.89 0.32567 0.586668 0
M  V30 57996 H 5948.43 1.50182 1.388 0
M  V30 57997 H 5946.59 0.84075 3.78167 0
M  V30 57998 H 5947 2.99076 4.30875 0
M  V30 57999 H 5948.48 1.58779 5.28671 0
M  V30 58000 H 5948.95 0.148265 4.3895 0
M  V30 58001 H 5949.56 1.74105 3.8803 0
M  V30 58002 N 5947.87 -1.27732 0.923162 0
M  V30 58003 C 5949.29 -1.76576 0.606438 0
M  V30 58004 C 5949.64 -1.7544 -0.878366 0
M  V30 58005 O 5948.76 -1.35501 -1.68726 0
M  V30 58006 C 5949.36 -3.20648 1.09408 0
M  V30 58007 C 5947.92 -3.67178 0.828103 0
M  V30 58008 C 5947.06 -2.47254 1.25541 0
M  V30 58009 H 5950.01 -1.14063 1.10342 0
M  V30 58010 H 5950.03 -3.77951 0.439713 0
M  V30 58011 H 5949.55 -3.21443 2.17476 0
M  V30 58012 H 5947.65 -3.71833 -0.238968 0
M  V30 58013 H 5947.76 -4.5687 1.44245 0
M  V30 58014 H 5946.12 -2.4562 0.674014 0
M  V30 58015 H 5946.91 -2.50762 2.34464 0
M  V30 58016 N 5949.35 -0.688168 -1.41782 0
M  V30 58017 C 5950.58 -0.224822 -2.05675 0
M  V30 58018 C 5951 1.12314 -1.51759 0
M  V30 58019 O 5950.35 1.70039 -0.662795 0
M  V30 58020 C 5950.4 -0.165788 -3.6112 0
M  V30 58021 O 5950.12 -1.4605 -4.13039 0
M  V30 58022 C 5951.63 0.319444 -4.42148 0
M  V30 58023 H 5948.85 -0.106159 -0.662549 0
M  V30 58024 H 5951.39 -0.938669 -1.81684 0
M  V30 58025 H 5949.54 0.498833 -3.84175 0
M  V30 58026 H 5949.96 -1.34269 -5.07023 0
M  V30 58027 H 5951.43 0.309636 -5.51131 0
M  V30 58028 H 5951.91 1.35705 -4.17709 0
M  V30 58029 H 5952.52 -0.313914 -4.2414 0
M  V30 58030 N 5950.83 1.51552 -0.432405 0
M  V30 58031 C 5952.24 1.86673 0.0318617 0
M  V30 58032 C 5952.59 1.34986 1.42384 0
M  V30 58033 O 5951.72 0.698628 2.04812 0
M  V30 58034 C 5952.31 3.38738 0.0645936 0
M  V30 58035 C 5950.87 3.73413 0.473259 0
M  V30 58036 C 5950.02 2.75241 -0.337284 0
M  V30 58037 H 5952.97 1.44847 -0.648468 0
M  V30 58038 H 5952.99 3.703 0.875109 0
M  V30 58039 H 5952.5 3.76328 -0.948639 0
M  V30 58040 H 5950.6 3.41412 1.49228 0
M  V30 58041 H 5950.72 4.78676 0.201482 0
M  V30 58042 H 5949.08 2.53884 0.203712 0
M  V30 58043 H 5949.86 3.15672 -1.3493 0
M  V30 58044 N 5952.31 0.163593 1.56749 0
M  V30 58045 C 5953.54 -0.489817 2.01018 0
M  V30 58046 C 5953.95 -1.57323 1.04379 0
M  V30 58047 O 5953.31 -1.82448 0.0434055 0
M  V30 58048 C 5953.36 -1.07525 3.45139 0
M  V30 58049 O 5953.08 -0.0350925 4.38086 0
M  V30 58050 C 5954.58 -1.80764 4.0477 0
M  V30 58051 H 5951.8 -0.126072 0.65905 0
M  V30 58052 H 5954.35 0.263053 2.02801 0
M  V30 58053 H 5952.5 -1.77865 3.44155 0
M  V30 58054 H 5952.91 -0.466243 5.22424 0
M  V30 58055 H 5954.39 -2.16996 5.0756 0
M  V30 58056 H 5954.87 -2.69978 3.46423 0
M  V30 58057 H 5955.47 -1.15084 4.09434 0
M  V30 58058 N 5953.79 -1.57215 -0.110157 0
M  V30 58059 C 5955.2 -1.74404 -0.666344 0
M  V30 58060 C 5955.55 -0.783587 -1.79873 0
M  V30 58061 O 5954.67 0.0414545 -2.1636 0
M  V30 58062 C 5955.27 -3.16244 -1.21553 0
M  V30 58063 C 5953.83 -3.3491 -1.71792 0
M  V30 58064 C 5952.97 -2.70251 -0.621252 0
M  V30 58065 H 5955.93 -1.58277 0.115821 0
M  V30 58066 H 5955.95 -3.18284 -2.08508 0
M  V30 58067 H 5955.46 -3.86124 -0.391137 0
M  V30 58068 H 5953.56 -2.70086 -2.5668 0
M  V30 58069 H 5953.67 -4.43132 -1.82128 0
M  V30 58070 H 5952.04 -2.3173 -1.05703 0
M  V30 58071 H 5952.82 -3.42761 0.192305 0
M  V30 58072 N 5955.26 0.380583 -1.52936 0
M  V30 58073 C 5956.49 1.14577 -1.72278 0
M  V30 58074 C 5956.91 1.83483 -0.444928 0
M  V30 58075 O 5956.26 1.72999 0.581184 0
M  V30 58076 C 5956.32 2.18745 -2.87807 0
M  V30 58077 O 5956.04 1.52648 -4.10646 0
M  V30 58078 C 5957.54 3.07927 -3.18898 0
M  V30 58079 H 5954.76 0.343198 -0.57659 0
M  V30 58080 H 5957.3 0.444079 -1.9962 0
M  V30 58081 H 5955.46 2.84537 -2.62902 0
M  V30 58082 H 5955.87 2.21932 -4.75233 0
M  V30 58083 H 5957.34 3.7703 -4.03178 0
M  V30 58084 H 5957.82 3.71905 -2.33631 0
M  V30 58085 H 5958.43 2.47771 -3.45673 0
M  V30 58086 N 5956.74 1.44041 0.639523 0
M  V30 58087 C 5957.99 1.46093 1.39647 0
M  V30 58088 C 5958.31 0.0915287 1.94785 0
M  V30 58089 O 5957.58 -0.875035 1.75271 0
M  V30 58090 H 5956.16 0.537919 0.518316 0
M  V30 58091 H 5958.82 1.79754 0.753302 0
M  V30 58092 H 5957.92 2.18148 2.23199 0
M  V30 58093 N 5958.22 -0.879161 1.308 0
M  V30 58094 C 5959.45 -1.66445 1.22897 0
M  V30 58095 C 5959.86 -1.87659 -0.20724 0
M  V30 58096 O 5959.22 -1.42822 -1.13614 0
M  V30 58097 C 5959.27 -3.03758 1.95993 0
M  V30 58098 O 5958.99 -2.83498 3.34007 0
M  V30 58099 C 5960.49 -3.98197 1.94818 0
M  V30 58100 H 5957.71 -0.519206 0.425049 0
M  V30 58101 H 5960.26 -1.09801 1.72523 0
M  V30 58102 H 5958.41 -3.57118 1.50151 0
M  V30 58103 H 5958.83 -3.7065 3.71105 0
M  V30 58104 H 5960.3 -4.91893 2.50491 0
M  V30 58105 H 5960.78 -4.29274 0.928487 0
M  V30 58106 H 5961.38 -3.50772 2.40497 0
M  V30 58107 N 5959.7 -1.1361 -1.09227 0
M  V30 58108 C 5960.63 -0.773136 -2.15767 0
M  V30 58109 C 5961.64 0.206091 -1.6149 0
M  V30 58110 O 5962.83 -0.0144007 -1.78494 0
M  V30 58111 C 5959.93 -0.125594 -3.38667 0
M  V30 58112 C 5959.11 -1.13743 -4.22352 0
M  V30 58113 C 5958.17 -0.515206 -5.23672 0
M  V30 58114 O 5957.19 -1.17579 -5.56923 0
M  V30 58115 N 5958.39 0.711826 -5.76119 0
M  V30 58116 H 5961.16 -1.68993 -2.47511 0
M  V30 58117 H 5958.72 -1.02939 -1.24961 0
M  V30 58118 H 5960.71 0.302967 -4.03564 0
M  V30 58119 H 5959.28 0.694177 -3.04795 0
M  V30 58120 H 5958.5 -1.74321 -3.53561 0
M  V30 58121 H 5959.79 -1.82123 -4.75088 0
M  V30 58122 H 5959.19 1.26725 -5.51323 0
M  V30 58123 H 5957.74 1.08302 -6.42739 0
M  V30 58124 N 5961.18 1.27241 -0.929923 0
M  V30 58125 C 5962.41 1.98371 -0.587915 0
M  V30 58126 C 5962.82 1.69352 0.834579 0
M  V30 58127 O 5962.18 0.955336 1.55498 0
M  V30 58128 C 5962.23 3.52378 -0.806967 0
M  V30 58129 O 5961.95 3.80382 -2.1735 0
M  V30 58130 C 5963.45 4.40759 -0.473973 0
M  V30 58131 H 5960.67 0.633007 -0.222583 0
M  V30 58132 H 5963.21 1.62038 -1.24755 0
M  V30 58133 H 5961.37 3.86913 -0.194099 0
M  V30 58134 H 5961.78 4.74961 -2.22515 0
M  V30 58135 H 5963.26 5.47821 -0.677929 0
M  V30 58136 H 5963.73 4.35211 0.590581 0
M  V30 58137 H 5964.34 4.11748 -1.06508 0
M  V30 58138 N 5962.66 0.695678 1.41415 0
M  V30 58139 C 5964.07 0.301465 1.8425 0
M  V30 58140 C 5964.42 -1.16037 1.58208 0
M  V30 58141 O 5963.54 -1.89075 1.05259 0
M  V30 58142 C 5964.14 0.540373 3.34463 0
M  V30 58143 C 5962.7 0.200077 3.75868 0
M  V30 58144 C 5961.84 0.822604 2.64818 0
M  V30 58145 H 5964.79 0.896324 1.30965 0
M  V30 58146 H 5964.82 -0.200885 3.79969 0
M  V30 58147 H 5964.33 1.60439 3.53385 0
M  V30 58148 H 5962.43 -0.85967 3.62547 0
M  V30 58149 H 5962.54 0.655172 4.74599 0
M  V30 58150 H 5960.91 0.252198 2.53448 0
M  V30 58151 H 5961.69 1.89049 2.86558 0
M  V30 58152 N 5964.13 -1.51321 0.440437 0
M  V30 58153 C 5965.36 -2.06531 -0.123577 0
M  V30 58154 C 5965.78 -1.30755 -1.36193 0
M  V30 58155 O 5965.13 -0.367995 -1.78751 0
M  V30 58156 C 5965.18 -3.58779 -0.442675 0
M  V30 58157 O 5964.91 -4.31693 0.746527 0
M  V30 58158 C 5966.41 -4.30514 -1.05702 0
M  V30 58159 H 5963.63 -0.670968 -0.00655107 0
M  V30 58160 H 5966.17 -1.94862 0.62041 0
M  V30 58161 H 5964.33 -3.70352 -1.13656 0
M  V30 58162 H 5964.74 -5.22366 0.472649 0
M  V30 58163 H 5966.21 -5.38115 -1.23027 0
M  V30 58164 H 5966.69 -3.89006 -2.03889 0
M  V30 58165 H 5967.3 -4.23392 -0.402425 0
M  V30 58166 N 5965.61 -0.171903 -1.5666 0
M  V30 58167 C 5966.84 0.47915 -2.01275 0
M  V30 58168 C 5967.25 1.56767 -1.05212 0
M  V30 58169 O 5966.61 1.82423 -0.0530806 0
M  V30 58170 C 5966.66 1.05693 -3.45704 0
M  V30 58171 O 5966.38 0.0118593 -4.38098 0
M  V30 58172 C 5967.88 1.78615 -4.05723 0
M  V30 58173 H 5965.1 0.122575 -0.659709 0
M  V30 58174 H 5967.65 -0.273805 -2.02659 0
M  V30 58175 H 5965.8 1.76037 -3.45094 0
M  V30 58176 H 5966.22 0.438531 -5.22664 0
M  V30 58177 H 5967.69 2.14301 -5.08703 0
M  V30 58178 H 5968.17 2.68137 -3.47849 0
M  V30 58179 H 5968.77 1.12911 -4.10038 0
M  V30 58180 N 5967.09 1.57271 0.101818 0
M  V30 58181 C 5968.32 1.89946 0.820262 0
M  V30 58182 C 5968.73 0.764928 1.7261 0
M  V30 58183 O 5968.09 -0.263436 1.80589 0
M  V30 58184 C 5968.14 3.22195 1.63928 0
M  V30 58185 O 5967.86 4.31282 0.769888 0
M  V30 58186 C 5969.36 3.68688 2.46138 0
M  V30 58187 H 5966.58 0.62854 0.2349 0
M  V30 58188 H 5969.13 2.04339 0.0810643 0
M  V30 58189 H 5967.28 3.0942 2.33106 0
M  V30 58190 H 5967.7 5.07187 1.33648 0
M  V30 58191 H 5969.17 4.63938 2.99108 0
M  V30 58192 H 5969.65 2.96194 3.24292 0
M  V30 58193 H 5970.25 3.84309 1.82171 0
M  V30 58194 N 5968.57 -0.372467 1.53135 0
M  V30 58195 C 5969.98 -0.949615 1.60746 0
M  V30 58196 C 5970.33 -1.90473 0.470568 0
M  V30 58197 O 5969.45 -2.12595 -0.40401 0
M  V30 58198 C 5970.05 -1.72907 2.91356 0
M  V30 58199 C 5968.61 -2.25567 3.01325 0
M  V30 58200 C 5967.76 -1.06603 2.5599 0
M  V30 58201 H 5970.71 -0.151477 1.57975 0
M  V30 58202 H 5970.73 -2.58972 2.78772 0
M  V30 58203 H 5970.24 -1.03367 3.74081 0
M  V30 58204 H 5968.34 -2.9837 2.23173 0
M  V30 58205 H 5968.45 -2.5392 4.06277 0
M  V30 58206 H 5966.82 -1.43098 2.10702 0
M  V30 58207 H 5967.6 -0.38572 3.41126 0
M  V30 58208 N 5970.05 -1.44378 -0.631875 0
M  V30 58209 C 5971.29 -1.46402 -1.38742 0
M  V30 58210 C 5971.61 -0.100217 -1.95343 0
M  V30 58211 O 5972.81 0.00201364 -2.715 0
M  V30 58212 C 5971.27 -2.57739 -2.51194 0
M  V30 58213 C 5970.88 -4.00324 -2.01109 0
M  V30 58214 C 5972.62 -2.68983 -3.28403 0
M  V30 58215 C 5970.53 -5.03086 -3.10899 0
M  V30 58216 H 5969.46 -0.544685 -0.521377 0
M  V30 58217 H 5972.11 -1.70441 -0.679852 0
M  V30 58218 H 5970.49 -2.26939 -3.24522 0
M  V30 58219 H 5971.67 -4.40688 -1.34651 0
M  V30 58220 H 5969.98 -3.93316 -1.36718 0
M  V30 58221 H 5972.58 -3.42931 -4.10247 0
M  V30 58222 H 5972.92 -1.74775 -3.77835 0
M  V30 58223 H 5973.45 -2.99189 -2.62165 0
M  V30 58224 H 5970.19 -5.9892 -2.66412 0
M  V30 58225 H 5969.71 -4.67315 -3.76001 0
M  V30 58226 H 5971.39 -5.26753 -3.75686 0
M  V30 58227 N 5971.52 0.872212 -1.31264 0
M  V30 58228 C 5972.75 1.65791 -1.23778 0
M  V30 58229 C 5973.17 1.87766 0.197285 0
M  V30 58230 O 5972.52 1.43422 1.12855 0
M  V30 58231 C 5972.58 3.02715 -1.97601 0
M  V30 58232 O 5972.3 2.81723 -3.35505 0
M  V30 58233 C 5973.8 3.97158 -1.96927 0
M  V30 58234 H 5971.02 0.516944 -0.427796 0
M  V30 58235 H 5973.56 1.08884 -1.73103 0
M  V30 58236 H 5971.72 3.56317 -1.52043 0
M  V30 58237 H 5972.13 3.68677 -3.73065 0
M  V30 58238 H 5973.6 4.90557 -2.53096 0
M  V30 58239 H 5974.08 4.28775 -0.95124 0
M  V30 58240 H 5974.69 3.49492 -2.42354 0
M  V30 58241 N 5973 1.14188 1.08623 0
M  V30 58242 C 5974.23 0.932169 1.84711 0
M  V30 58243 C 5974.65 -0.519271 1.81519 0
M  V30 58244 O 5974 -1.35974 1.21726 0
M  V30 58245 C 5974.05 1.42229 3.32345 0
M  V30 58246 O 5973.77 2.81686 3.35537 0
M  V30 58247 C 5975.28 1.2522 4.25247 0
M  V30 58248 H 5972.5 0.331875 0.583181 0
M  V30 58249 H 5975.04 1.51646 1.372 0
M  V30 58250 H 5973.19 0.880812 3.77254 0
M  V30 58251 H 5973.61 3.0363 4.27679 0
M  V30 58252 H 5975.08 1.64377 5.26957 0
M  V30 58253 H 5975.56 0.194813 4.38768 0
M  V30 58254 H 5976.17 1.78211 3.86162 0
M  V30 58255 N 5974.48 -1.26746 0.936658 0
M  V30 58256 C 5975.71 -1.98057 0.598427 0
M  V30 58257 C 5976.12 -1.69793 -0.825586 0
M  V30 58258 O 5975.48 -0.963569 -1.54989 0
M  V30 58259 C 5975.53 -3.51945 0.825643 0
M  V30 58260 O 5975.25 -3.79224 2.19364 0
M  V30 58261 C 5976.75 -4.40501 0.497341 0
M  V30 58262 H 5973.97 -0.631818 0.225937 0
M  V30 58263 H 5976.52 -1.61374 1.25613 0
M  V30 58264 H 5974.67 -3.86805 0.214615 0
M  V30 58265 H 5975.09 -4.73774 2.2503 0
M  V30 58266 H 5976.56 -5.47454 0.706972 0
M  V30 58267 H 5977.04 -4.35518 -0.567492 0
M  V30 58268 H 5977.64 -4.11177 1.0869 0
M  V30 58269 N 5975.96 -0.703167 -1.41044 0
M  V30 58270 C 5977.19 -0.246624 -2.05425 0
M  V30 58271 C 5977.6 1.10698 -1.52942 0
M  V30 58272 O 5976.96 1.69327 -0.680792 0
M  V30 58273 C 5977.01 -0.20408 -3.60923 0
M  V30 58274 O 5976.73 -1.50423 -4.11466 0
M  V30 58275 C 5978.23 0.27253 -4.42461 0
M  V30 58276 H 5975.45 -0.11318 -0.661386 0
M  V30 58277 H 5978 -0.957886 -1.80679 0
M  V30 58278 H 5976.15 0.458058 -3.84682 0
M  V30 58279 H 5976.56 -1.3964 -5.0557 0
M  V30 58280 H 5978.04 0.251164 -5.51428 0
M  V30 58281 H 5978.52 1.31267 -4.19125 0
M  V30 58282 H 5979.12 -0.358882 -4.23783 0
M  V30 58283 N 5977.44 1.51085 -0.448455 0
M  V30 58284 C 5978.66 2.06593 0.112622 0
M  V30 58285 C 5979.08 1.31476 1.35497 0
M  V30 58286 O 5978.44 0.377469 1.78554 0
M  V30 58287 C 5978.49 3.59009 0.423642 0
M  V30 58288 O 5978.21 4.31291 -0.76941 0
M  V30 58289 C 5979.71 4.31068 1.03418 0
M  V30 58290 H 5976.93 0.670993 0.00299268 0
M  V30 58291 H 5979.47 1.9453 -0.630735 0
M  V30 58292 H 5977.63 3.7095 1.11691 0
M  V30 58293 H 5978.04 5.22108 -0.500345 0
M  V30 58294 H 5979.52 5.3876 1.20172 0
M  V30 58295 H 5979.99 3.90082 2.01823 0
M  V30 58296 H 5980.6 4.23599 0.379966 0
M  V30 58297 N 5978.91 0.180209 1.56566 0
M  V30 58298 C 5980.16 -0.463136 1.97441 0
M  V30 58299 C 5980.49 -1.62293 1.06652 0
M  V30 58300 O 5979.77 -1.94157 0.115451 0
M  V30 58301 C 5980.05 -0.937586 3.4768 0
M  V30 58302 C 5979.9 0.222993 4.49247 0
M  V30 58303 C 5981.22 -1.80822 4.01237 0
M  V30 58304 H 5978.34 -0.166874 0.717859 0
M  V30 58305 H 5980.98 0.268135 1.88098 0
M  V30 58306 H 5979.13 -1.56072 3.55772 0
M  V30 58307 H 5980.81 0.860315 4.53207 0
M  V30 58308 H 5979.05 0.877112 4.2484 0
M  V30 58309 H 5979.72 -0.15125 5.51793 0
M  V30 58310 H 5982.2 -1.28283 3.95832 0
M  V30 58311 H 5981.07 -2.10919 5.06759 0
M  V30 58312 H 5981.33 -2.75716 3.45591 0
M  V30 58313 N 5980.39 -1.57323 -0.0934766 0
M  V30 58314 C 5981.62 -1.90378 -0.810178 0
M  V30 58315 C 5982.04 -0.774071 -1.72202 0
M  V30 58316 O 5981.39 0.253855 -1.80726 0
M  V30 58317 C 5981.44 -3.2306 -1.62217 0
M  V30 58318 O 5981.16 -4.31684 -0.747005 0
M  V30 58319 C 5982.67 -3.69989 -2.44179 0
M  V30 58320 H 5979.89 -0.629777 -0.231563 0
M  V30 58321 H 5982.43 -2.04379 -0.0702266 0
M  V30 58322 H 5980.58 -3.10652 -2.31461 0
M  V30 58323 H 5981 -5.07889 -1.30956 0
M  V30 58324 H 5982.47 -4.65518 -2.96643 0
M  V30 58325 H 5982.95 -2.9791 -3.22717 0
M  V30 58326 H 5983.56 -3.8527 -1.80131 0
M  V30 58327 N 5981.87 0.364341 -1.53331 0
M  V30 58328 C 5983.28 0.941077 -1.61247 0
M  V30 58329 C 5983.63 1.90221 -0.480663 0
M  V30 58330 O 5982.76 2.12806 0.39273 0
M  V30 58331 C 5983.35 1.7136 -2.92269 0
M  V30 58332 C 5981.91 2.23966 -3.02517 0
M  V30 58333 C 5981.06 1.05244 -2.56552 0
M  V30 58334 H 5984.01 0.143097 -1.58054 0
M  V30 58335 H 5984.03 2.5749 -2.80141 0
M  V30 58336 H 5983.54 1.01381 -3.74624 0
M  V30 58337 H 5981.64 2.97182 -2.24752 0
M  V30 58338 H 5981.76 2.51762 -4.07618 0
M  V30 58339 H 5980.12 1.41978 -2.11457 0
M  V30 58340 H 5980.9 0.367624 -3.41326 0
M  V30 58341 N 5983.35 1.44711 0.624209 0
M  V30 58342 C 5984.58 1.51353 1.41067 0
M  V30 58343 C 5984.99 0.140642 1.88275 0
M  V30 58344 O 5984.35 -0.854765 1.61245 0
M  V30 58345 C 5984.4 2.48405 2.62635 0
M  V30 58346 O 5984.12 3.80358 2.17392 0
M  V30 58347 C 5985.62 2.64581 3.55685 0
M  V30 58348 H 5982.84 0.513108 0.432391 0
M  V30 58349 H 5985.39 1.89742 0.762774 0
M  V30 58350 H 5983.54 2.13134 3.23501 0
M  V30 58351 H 5983.95 4.32819 2.96257 0
M  V30 58352 H 5985.43 3.36502 4.37574 0
M  V30 58353 H 5985.91 1.70046 4.04946 0
M  V30 58354 H 5986.51 3.00782 3.00683 0
M  V30 58355 N 5984.83 -0.865239 1.31725 0
M  V30 58356 C 5986.24 -1.43441 1.19505 0
M  V30 58357 C 5986.59 -1.95212 -0.196619 0
M  V30 58358 O 5985.71 -1.8667 -1.09469 0
M  V30 58359 C 5986.31 -2.60733 2.16342 0
M  V30 58360 C 5984.87 -3.13681 2.08042 0
M  V30 58361 C 5984.01 -1.86401 2.05304 0
M  V30 58362 H 5986.97 -0.673349 1.43707 0
M  V30 58363 H 5986.99 -3.37569 1.75578 0
M  V30 58364 H 5986.5 -2.23022 3.1762 0
M  V30 58365 H 5984.6 -3.56 1.09975 0
M  V30 58366 H 5984.71 -3.75643 2.97371 0
M  V30 58367 H 5983.08 -2.05562 1.50388 0
M  V30 58368 H 5983.86 -1.50922 3.08346 0
M  V30 58369 N 5986.31 -1.14762 -1.08016 0
M  V30 58370 C 5987.53 -0.941951 -1.84214 0
M  V30 58371 C 5987.95 0.509638 -1.81791 0
M  V30 58372 O 5987.31 1.35327 -1.22446 0
M  V30 58373 C 5987.36 -1.43989 -3.31586 0
M  V30 58374 O 5987.08 -2.83461 -3.34038 0
M  V30 58375 C 5988.58 -1.27474 -4.24577 0
M  V30 58376 H 5985.8 -0.334963 -0.581413 0
M  V30 58377 H 5988.34 -1.52372 -1.36393 0
M  V30 58378 H 5986.5 -0.900806 -3.76781 0
M  V30 58379 H 5986.91 -3.05893 -4.26063 0
M  V30 58380 H 5988.39 -1.67169 -5.26078 0
M  V30 58381 H 5988.86 -0.21808 -4.38658 0
M  V30 58382 H 5989.47 -1.80257 -3.85211 0
M  V30 58383 N 5987.78 1.26247 -0.943366 0
M  V30 58384 C 5989.19 1.75589 -0.634453 0
M  V30 58385 C 5989.55 1.76815 0.850344 0
M  V30 58386 O 5988.67 1.38168 1.66549 0
M  V30 58387 C 5989.27 3.18867 -1.14495 0
M  V30 58388 C 5987.82 3.65814 -0.886413 0
M  V30 58389 C 5986.97 2.45226 -1.29459 0
M  V30 58390 H 5989.92 1.12293 -1.12143 0
M  V30 58391 H 5989.94 3.77203 -0.499786 0
M  V30 58392 H 5989.46 3.17943 -2.22562 0
M  V30 58393 H 5987.56 3.72166 0.179782 0
M  V30 58394 H 5987.67 4.54517 -1.51496 0
M  V30 58395 H 5986.03 2.44517 -0.713005 0
M  V30 58396 H 5986.82 2.47 -2.38423 0
M  V30 58397 N 5989.26 0.710637 1.40669 0
M  V30 58398 C 5990.49 0.257515 2.05291 0
M  V30 58399 C 5990.9 -1.09886 1.53527 0
M  V30 58400 O 5990.26 -1.68963 0.689762 0
M  V30 58401 C 5990.31 0.223218 3.6081 0
M  V30 58402 O 5990.03 1.52603 4.10663 0
M  V30 58403 C 5991.53 -0.249061 4.426 0
M  V30 58404 H 5988.75 0.116686 0.660776 0
M  V30 58405 H 5991.3 0.967455 1.80168 0
M  V30 58406 H 5989.45 -0.437651 3.8492 0
M  V30 58407 H 5989.87 1.42319 5.04822 0
M  V30 58408 H 5991.34 -0.221916 5.51554 0
M  V30 58409 H 5991.82 -1.29043 4.19815 0
M  V30 58410 H 5992.42 0.381351 4.23587 0
M  V30 58411 N 5990.74 -1.50845 0.456461 0
M  V30 58412 C 5991.99 -2.01836 -0.103343 0
M  V30 58413 C 5992.31 -1.34147 -1.41526 0
M  V30 58414 O 5991.58 -0.482082 -1.89876 0
M  V30 58415 H 5990.16 -0.745864 -0.0411812 0
M  V30 58416 H 5992.82 -1.8532 0.603542 0
M  V30 58417 H 5991.92 -3.10969 -0.265453 0
M  V30 58418 N 5992.22 -0.188509 -1.56469 0
M  V30 58419 C 5993.45 0.457775 -2.01772 0
M  V30 58420 C 5993.86 1.55642 -1.06869 0
M  V30 58421 O 5993.22 1.82356 -0.072426 0
M  V30 58422 C 5993.27 1.0202 -3.46806 0
M  V30 58423 O 5992.99 -0.0346076 -4.38086 0
M  V30 58424 C 5994.49 1.74302 -4.07595 0
M  V30 58425 H 5991.71 0.115571 -0.660972 0
M  V30 58426 H 5994.25 -0.295284 -2.02357 0
M  V30 58427 H 5992.41 1.72367 -3.46941 0
M  V30 58428 H 5992.82 0.38307 -5.23099 0
M  V30 58429 H 5994.3 2.08894 -5.10948 0
M  V30 58430 H 5994.77 2.64432 -3.50674 0
M  V30 58431 H 5995.38 1.08555 -4.11213 0
M  V30 58432 N 5993.7 1.5737 0.0851321 0
M  V30 58433 C 5994.63 1.99466 1.12898 0
M  V30 58434 C 5995.64 0.898644 1.35751 0
M  V30 58435 O 5996.83 1.17667 1.34226 0
M  V30 58436 C 5993.93 2.30698 2.48257 0
M  V30 58437 C 5993.1 3.61976 2.45545 0
M  V30 58438 C 5992.16 3.8103 3.62909 0
M  V30 58439 O 5991.19 4.52771 3.44945 0
M  V30 58440 N 5992.39 3.22365 4.82764 0
M  V30 58441 H 5995.15 2.89624 0.770598 0
M  V30 58442 H 5992.72 1.59565 0.273977 0
M  V30 58443 H 5994.71 2.40629 3.25391 0
M  V30 58444 H 5993.28 1.46497 2.76147 0
M  V30 58445 H 5992.5 3.62922 1.53888 0
M  V30 58446 H 5993.79 4.482 2.4082 0
M  V30 58447 H 5993.18 2.6411 5.00262 0
M  V30 58448 H 5991.74 3.37767 5.57456 0
M  V30 58449 N 5995.17 -0.356204 1.53522 0
M  V30 58450 C 5996.4 -1.11822 1.74079 0
M  V30 58451 C 5996.82 -1.82751 0.474062 0
M  V30 58452 O 5996.17 -1.73901 -0.553588 0
M  V30 58453 C 5996.22 -2.14139 2.9125 0
M  V30 58454 O 5995.95 -1.46096 4.13023 0
M  V30 58455 C 5997.45 -3.02815 3.23756 0
M  V30 58456 H 5994.67 -0.333982 0.581977 0
M  V30 58457 H 5997.21 -0.412265 2.00301 0
M  V30 58458 H 5995.37 -2.80318 2.67396 0
M  V30 58459 H 5995.78 -2.14343 4.78704 0
M  V30 58460 H 5997.25 -3.70568 4.09125 0
M  V30 58461 H 5997.73 -3.68141 2.39518 0
M  V30 58462 H 5998.34 -2.4224 3.49571 0
M  V30 58463 N 5996.65 -1.4504 -0.616526 0
M  V30 58464 C 5998.06 -1.43164 -1.19837 0
M  V30 58465 C 5998.41 -0.154573 -1.9559 0
M  V30 58466 O 5997.54 0.744338 -2.03196 0
M  V30 58467 C 5998.13 -2.59362 -2.17984 0
M  V30 58468 C 5996.69 -2.60634 -2.71564 0
M  V30 58469 C 5995.84 -2.35248 -1.46812 0
M  V30 58470 H 5998.79 -1.5341 -0.406348 0
M  V30 58471 H 5998.81 -2.3295 -3.00857 0
M  V30 58472 H 5998.32 -3.52294 -1.62821 0
M  V30 58473 H 5996.42 -1.71684 -3.30689 0
M  V30 58474 H 5996.54 -3.59579 -3.16606 0
M  V30 58475 H 5994.9 -1.84628 -1.75456 0
M  V30 58476 H 5995.68 -3.30314 -0.935298 0
M  V30 58477 N 5998.13 0.858241 -1.32182 0
M  V30 58478 C 5999.36 1.64469 -1.25529 0
M  V30 58479 C 5999.77 1.87965 0.177359 0
M  V30 58480 O 5999.13 1.44611 1.11328 0
M  V30 58481 C 5999.18 3.00602 -2.008 0
M  V30 58482 O 5998.9 2.78148 -3.38475 0
M  V30 58483 C 6000.4 3.95047 -2.01128 0
M  V30 58484 H 5997.62 0.512378 -0.433255 0
M  V30 58485 H 6000.17 1.07042 -1.74248 0
M  V30 58486 H 5998.32 3.54684 -1.55813 0
M  V30 58487 H 5998.74 3.64699 -3.76955 0
M  V30 58488 H 6000.21 4.87845 -2.58285 0
M  V30 58489 H 6000.69 4.27742 -0.996663 0
M  V30 58490 H 6001.29 3.46902 -2.46047 0
M  V30 58491 N 5999.61 1.15334 1.07405 0
M  V30 58492 C 6000.84 0.951708 1.83712 0
M  V30 58493 C 6001.25 -0.49999 1.82059 0
M  V30 58494 O 6000.61 -1.34675 1.23162 0
M  V30 58495 C 6000.66 1.45746 3.30818 0
M  V30 58496 O 6000.38 2.85229 3.3253 0
M  V30 58497 C 6001.88 1.29723 4.23895 0
M  V30 58498 H 5999.1 0.338041 0.579628 0
M  V30 58499 H 6001.64 1.53093 1.35583 0
M  V30 58500 H 5999.8 0.920775 3.76298 0
M  V30 58501 H 6000.21 3.08149 4.24435 0
M  V30 58502 H 6001.69 1.69957 5.25184 0
M  V30 58503 H 6002.16 0.24134 4.38536 0
M  V30 58504 H 6002.77 1.82297 3.8425 0
M  V30 58505 N 6001.09 -1.25745 0.950048 0
M  V30 58506 C 6002.31 -1.97411 0.6194 0
M  V30 58507 C 6002.73 -1.70659 -0.807531 0
M  V30 58508 O 6002.09 -0.979953 -1.53958 0
M  V30 58509 C 6002.14 -3.5105 0.862925 0
M  V30 58510 O 6001.86 -3.76876 2.23374 0
M  V30 58511 C 6003.36 -4.39949 0.544034 0
M  V30 58512 H 6000.58 -0.629386 0.232625 0
M  V30 58513 H 6003.12 -1.60033 1.27317 0
M  V30 58514 H 6001.28 -3.86556 0.255629 0
M  V30 58515 H 6001.69 -4.7136 2.30043 0
M  V30 58516 H 6003.17 -5.46673 0.764997 0
M  V30 58517 H 6003.64 -4.36096 -0.521268 0
M  V30 58518 H 6004.25 -4.10001 1.13045 0
M  V30 58519 N 6002.56 -0.718087 -1.4029 0
M  V30 58520 C 6003.98 -0.33074 -1.83747 0
M  V30 58521 C 6004.33 1.13505 -1.60034 0
M  V30 58522 O 6003.45 1.87377 -1.08254 0
M  V30 58523 C 6004.05 -0.593515 -3.33561 0
M  V30 58524 C 6002.61 -0.259849 -3.75502 0
M  V30 58525 C 6001.75 -0.86463 -2.63476 0
M  V30 58526 H 6004.7 -0.917046 -1.29522 0
M  V30 58527 H 6004.72 0.14041 -3.80241 0
M  V30 58528 H 6004.24 -1.66041 -3.50788 0
M  V30 58529 H 6002.34 0.801883 -3.63869 0
M  V30 58530 H 6002.45 -0.730593 -4.73497 0
M  V30 58531 H 6000.81 -0.292488 -2.53015 0
M  V30 58532 H 6001.6 -1.93584 -2.83514 0
M  V30 58533 N 6004.04 1.50601 -0.464455 0
M  V30 58534 C 6005.29 2.01479 0.0944689 0
M  V30 58535 C 6005.6 1.3517 1.41381 0
M  V30 58536 O 6006.81 1.77167 2.05728 0
M  V30 58537 C 6005.27 3.59234 0.218877 0
M  V30 58538 C 6004.87 4.34497 -1.09163 0
M  V30 58539 C 6006.62 4.18174 0.730115 0
M  V30 58540 C 6004.53 5.8402 -0.931385 0
M  V30 58541 H 6003.46 0.752987 0.03908 0
M  V30 58542 H 6006.11 1.73471 -0.598344 0
M  V30 58543 H 6004.49 3.83801 0.97532 0
M  V30 58544 H 6005.66 4.21658 -1.85852 0
M  V30 58545 H 6003.98 3.87135 -1.53347 0
M  V30 58546 H 6006.57 5.27625 0.866934 0
M  V30 58547 H 6006.92 3.79119 1.71973 0
M  V30 58548 H 6007.45 3.97788 0.0312409 0
M  V30 58549 H 6004.19 6.27536 -1.89417 0
M  V30 58550 H 6003.71 5.9945 -0.204771 0
M  V30 58551 H 6005.39 6.44255 -0.595344 0
M  V30 58552 N 6005.52 0.196805 1.56366 0
M  V30 58553 C 6006.75 -0.447068 2.02012 0
M  V30 58554 C 6007.16 -1.55073 1.07693 0
M  V30 58555 O 6006.52 -1.82315 0.0820957 0
M  V30 58556 C 6006.57 -1.00179 3.47342 0
M  V30 58557 O 6006.29 0.0578399 4.38062 0
M  V30 58558 C 6007.79 -1.72138 4.08514 0
M  V30 58559 H 6005.01 -0.112064 0.661576 0
M  V30 58560 H 6007.56 0.306011 2.02197 0
M  V30 58561 H 6005.71 -1.70525 3.4785 0
M  V30 58562 H 6006.13 -0.355324 5.23295 0
M  V30 58563 H 6007.6 -2.06181 5.12048 0
M  V30 58564 H 6008.08 -2.62569 3.52071 0
M  V30 58565 H 6008.68 -1.06373 4.11783 0
M  V30 58566 N 6007 -1.57413 -0.0767852 0
M  V30 58567 C 6008.23 -1.91226 -0.78994 0
M  V30 58568 C 6008.64 -0.792292 -1.71371 0
M  V30 58569 O 6008 0.234672 -1.80985 0
M  V30 58570 C 6008.05 -3.24763 -1.58781 0
M  V30 58571 O 6007.77 -4.32452 -0.701177 0
M  V30 58572 C 6009.27 -3.72558 -2.40241 0
M  V30 58573 H 6006.49 -0.632198 -0.224871 0
M  V30 58574 H 6009.04 -2.04442 -0.0485455 0
M  V30 58575 H 6007.19 -3.13089 -2.28154 0
M  V30 58576 H 6007.6 -5.09249 -1.25562 0
M  V30 58577 H 6009.08 -4.68638 -2.91689 0
M  V30 58578 H 6009.56 -3.01316 -3.19539 0
M  V30 58579 H 6010.16 -3.87159 -1.76034 0
M  V30 58580 N 6008.48 0.348057 -1.53709 0
M  V30 58581 C 6009.7 1.10897 -1.7467 0
M  V30 58582 C 6010.12 1.82497 -0.483747 0
M  V30 58583 O 6009.48 1.74192 0.544358 0
M  V30 58584 C 6009.53 2.12591 -2.92382 0
M  V30 58585 O 6009.25 1.43903 -4.13792 0
M  V30 58586 C 6010.75 3.01093 -3.25358 0
M  V30 58587 H 6007.97 0.330891 -0.58374 0
M  V30 58588 H 6010.51 0.401637 -2.00517 0
M  V30 58589 H 6008.67 2.78896 -2.68878 0
M  V30 58590 H 6009.08 2.11802 -4.79834 0
M  V30 58591 H 6010.56 3.68394 -4.11084 0
M  V30 58592 H 6011.03 3.66865 -2.41467 0
M  V30 58593 H 6011.64 2.40383 -3.50851 0
M  V30 58594 N 6009.95 1.45365 0.608825 0
M  V30 58595 C 6011.18 1.52841 1.39453 0
M  V30 58596 C 6011.6 0.160603 1.88116 0
M  V30 58597 O 6010.95 -0.837614 1.62143 0
M  V30 58598 C 6011.01 2.51177 2.59985 0
M  V30 58599 O 6010.73 3.82642 2.13346 0
M  V30 58600 C 6012.23 2.68338 3.52859 0
M  V30 58601 H 6009.45 0.517665 0.426924 0
M  V30 58602 H 6011.99 1.9054 0.742607 0
M  V30 58603 H 6010.15 2.16553 3.21222 0
M  V30 58604 H 6010.56 4.35937 2.91649 0
M  V30 58605 H 6012.03 3.41124 4.3398 0
M  V30 58606 H 6012.51 1.74331 4.03119 0
M  V30 58607 H 6013.12 3.03954 2.97476 0
M  V30 58608 N 6011.43 -0.851219 1.32635 0
M  V30 58609 C 6012.66 -1.63801 1.264 0
M  V30 58610 C 6013.08 -1.88057 -0.167388 0
M  V30 58611 O 6012.43 -1.452 -1.10559 0
M  V30 58612 C 6012.48 -2.99533 2.02392 0
M  V30 58613 O 6012.2 -2.76349 3.39945 0
M  V30 58614 C 6013.71 -3.93975 2.03221 0
M  V30 58615 H 6010.93 -0.510073 0.435966 0
M  V30 58616 H 6013.47 -1.06116 1.74813 0
M  V30 58617 H 6011.62 -3.53853 1.57692 0
M  V30 58618 H 6012.04 -3.62695 3.78883 0
M  V30 58619 H 6013.51 -4.86469 2.60868 0
M  V30 58620 H 6013.99 -4.27207 1.01933 0
M  V30 58621 H 6014.6 -3.45592 2.47884 0
M  V30 58622 N 6012.91 -1.15902 -1.06792 0
M  V30 58623 C 6014.16 -0.938791 -1.79762 0
M  V30 58624 C 6014.49 0.532424 -1.86759 0
M  V30 58625 O 6013.76 1.39488 -1.35549 0
M  V30 58626 C 6014.05 -1.56073 -3.2452 0
M  V30 58627 C 6013.9 -3.10294 -3.25634 0
M  V30 58628 C 6015.22 -1.25122 -4.21939 0
M  V30 58629 H 6012.34 -0.342474 -0.652595 0
M  V30 58630 H 6014.98 -1.43154 -1.24928 0
M  V30 58631 H 6013.13 -1.14171 -3.71345 0
M  V30 58632 H 6014.8 -3.61142 -2.87008 0
M  V30 58633 H 6013.05 -3.43888 -2.64431 0
M  V30 58634 H 6013.72 -3.48928 -4.2773 0
M  V30 58635 H 6016.19 -1.61378 -3.83531 0
M  V30 58636 H 6015.07 -1.71248 -5.21503 0
M  V30 58637 H 6015.33 -0.169198 -4.41776 0
M  V30 58638 N 6014.39 1.2524 -0.956703 0
M  V30 58639 C 6015.62 1.9708 -0.62986 0
M  V30 58640 C 6016.03 1.71085 0.798469 0
M  V30 58641 O 6015.39 0.988104 1.53436 0
M  V30 58642 C 6015.44 3.50587 -0.88153 0
M  V30 58643 O 6015.16 3.75686 -2.2537 0
M  V30 58644 C 6016.66 4.39654 -0.567358 0
M  V30 58645 H 6013.88 0.628143 -0.23596 0
M  V30 58646 H 6016.43 1.59355 -1.28164 0
M  V30 58647 H 6014.58 3.86415 -0.276126 0
M  V30 58648 H 6014.99 4.70134 -2.32539 0
M  V30 58649 H 6016.47 5.4626 -0.793977 0
M  V30 58650 H 6016.95 4.36366 0.498133 0
M  V30 58651 H 6017.55 4.09396 -1.15218 0
M  V30 58652 N 6015.87 0.725517 1.39907 0
M  V30 58653 C 6017.28 0.340479 1.83569 0
M  V30 58654 C 6017.63 -1.12655 1.60634 0
M  V30 58655 O 6016.75 -1.868 1.09246 0
M  V30 58656 C 6017.35 0.611196 3.33241 0
M  V30 58657 C 6015.91 0.279759 3.75359 0
M  V30 58658 C 6015.06 0.878591 2.63013 0
M  V30 58659 H 6018.01 0.923902 1.29034 0
M  V30 58660 H 6018.03 -0.120243 3.8031 0
M  V30 58661 H 6017.54 1.67899 3.49902 0
M  V30 58662 H 6015.64 -0.782575 3.64289 0
M  V30 58663 H 6015.75 0.755694 4.73103 0
M  V30 58664 H 6014.12 0.305902 2.52856 0
M  V30 58665 H 6014.9 1.95085 2.82483 0
M  V30 58666 N 6017.35 -1.50352 0.472435 0
M  V30 58667 C 6018.57 -2.06746 -0.0797407 0
M  V30 58668 C 6018.99 -1.33615 -1.33389 0
M  V30 58669 O 6018.35 -0.405828 -1.77931 0
M  V30 58670 C 6018.4 -3.59638 -0.366473 0
M  V30 58671 O 6018.12 -4.30012 0.837928 0
M  V30 58672 C 6019.62 -4.32659 -0.965466 0
M  V30 58673 H 6016.84 -0.670956 0.00768263 0
M  V30 58674 H 6019.38 -1.93502 0.661603 0
M  V30 58675 H 6017.54 -3.7268 -1.05775 0
M  V30 58676 H 6017.95 -5.21246 0.583345 0
M  V30 58677 H 6019.43 -5.40604 -1.11585 0
M  V30 58678 H 6019.9 -3.93244 -1.95592 0
M  V30 58679 H 6020.51 -4.2415 -0.312527 0
M  V30 58680 N 6018.82 -0.205094 -1.5626 0
M  V30 58681 C 6020.23 0.305727 -1.8418 0
M  V30 58682 C 6020.59 1.60668 -1.12606 0
M  V30 58683 O 6019.71 2.12853 -0.390193 0
M  V30 58684 C 6020.31 0.561479 -3.34115 0
M  V30 58685 C 6018.86 1.01665 -3.6241 0
M  V30 58686 C 6018.01 0.0706869 -2.7721 0
M  V30 58687 H 6020.96 -0.428663 -1.52801 0
M  V30 58688 H 6020.98 1.40956 -3.53428 0
M  V30 58689 H 6020.5 -0.385546 -3.8618 0
M  V30 58690 H 6018.6 1.9776 -3.15787 0
M  V30 58691 H 6018.71 0.902442 -4.70524 0
M  V30 58692 H 6017.07 0.574442 -2.48138 0
M  V30 58693 H 6017.86 -0.870961 -3.32068 0
M  V30 58694 N 6020.3 1.57451 0.0684361 0
M  V30 58695 C 6021.53 1.91643 0.779788 0
M  V30 58696 C 6021.94 0.801369 1.70949 0
M  V30 58697 O 6021.3 -0.225071 1.81107 0
M  V30 58698 C 6021.35 3.256 1.57057 0
M  V30 58699 O 6021.07 4.32818 0.678233 0
M  V30 58700 C 6022.57 3.73826 2.38262 0
M  V30 58701 H 6019.79 0.633382 0.221515 0
M  V30 58702 H 6022.34 2.04465 0.0377027 0
M  V30 58703 H 6020.49 3.14295 2.2649 0
M  V30 58704 H 6020.91 5.09908 1.22859 0
M  V30 58705 H 6022.38 4.70178 2.892 0
M  V30 58706 H 6022.86 3.03007 3.17937 0
M  V30 58707 H 6023.46 3.88087 1.73979 0
M  V30 58708 N 6021.78 -0.339901 1.53891 0
M  V30 58709 C 6023.19 -0.915304 1.62724 0
M  V30 58710 C 6023.54 -1.89432 0.510864 0
M  V30 58711 O 6022.67 -2.13404 -0.358825 0
M  V30 58712 C 6023.26 -1.66688 2.94958 0
M  V30 58713 C 6021.82 -2.19125 3.06041 0
M  V30 58714 C 6020.97 -1.0115 2.58194 0
M  V30 58715 H 6023.92 -0.117934 1.58261 0
M  V30 58716 H 6023.94 -2.53001 2.84202 0
M  V30 58717 H 6023.45 -0.954086 3.7619 0
M  V30 58718 H 6021.55 -2.93569 2.29451 0
M  V30 58719 H 6021.67 -2.45246 4.11572 0
M  V30 58720 H 6020.03 -1.38596 2.13689 0
M  V30 58721 H 6020.81 -0.313275 3.41868 0
M  V30 58722 N 6023.26 -1.45686 -0.601108 0
M  V30 58723 C 6024.49 -1.53578 -1.38641 0
M  V30 58724 C 6024.9 -0.170577 -1.88028 0
M  V30 58725 O 6024.26 0.829004 -1.62585 0
M  V30 58726 C 6024.31 -2.52552 -2.5865 0
M  V30 58727 O 6024.03 -3.83768 -2.11313 0
M  V30 58728 C 6025.53 -2.70206 -3.51431 0
M  V30 58729 H 6022.75 -0.519922 -0.424173 0
M  V30 58730 H 6025.29 -1.90931 -0.732492 0
M  V30 58731 H 6023.45 -2.18253 -3.20069 0
M  V30 58732 H 6023.86 -4.37477 -2.89333 0
M  V30 58733 H 6025.34 -3.43421 -4.32165 0
M  V30 58734 H 6025.81 -1.76466 -4.02189 0
M  V30 58735 H 6026.42 -3.05527 -2.9586 0
M  V30 58736 N 6024.74 0.844173 -1.33084 0
M  V30 58737 C 6025.98 1.59592 -1.23995 0
M  V30 58738 C 6026.3 1.94017 0.195591 0
M  V30 58739 O 6025.57 1.60516 1.12301 0
M  V30 58740 H 6024.15 0.591711 -0.455946 0
M  V30 58741 H 6026.82 1.00918 -1.66738 0
M  V30 58742 H 6025.91 2.52822 -1.82995 0
M  V30 58743 N 6026.21 1.16466 1.06176 0
M  V30 58744 C 6027.44 0.971139 1.82692 0
M  V30 58745 C 6027.86 -0.480652 1.82579 0
M  V30 58746 O 6027.21 -1.33361 1.24583 0
M  V30 58747 C 6027.26 1.49246 3.29253 0
M  V30 58748 O 6026.99 2.88739 3.29486 0
M  V30 58749 C 6028.49 1.34212 4.22495 0
M  V30 58750 H 6025.71 0.34417 0.57601 0
M  V30 58751 H 6028.25 1.54522 1.33952 0
M  V30 58752 H 6026.41 0.960635 3.75301 0
M  V30 58753 H 6026.82 3.12633 4.21142 0
M  V30 58754 H 6028.29 1.75518 5.23352 0
M  V30 58755 H 6028.77 0.287839 4.38256 0
M  V30 58756 H 6029.38 1.86362 3.82295 0
M  V30 58757 N 6027.69 -1.2473 0.963332 0
M  V30 58758 C 6028.62 -2.24783 0.447801 0
M  V30 58759 C 6029.64 -1.56711 -0.441075 0
M  V30 58760 O 6030.83 -1.76769 -0.247953 0
M  V30 58761 C 6027.93 -3.36838 -0.37325 0
M  V30 58762 C 6027.1 -4.34479 0.504684 0
M  V30 58763 C 6026.16 -5.25559 -0.259625 0
M  V30 58764 O 6025.18 -5.68154 0.344954 0
M  V30 58765 N 6026.39 -5.59413 -1.55039 0
M  V30 58766 H 6029.15 -2.6965 1.30802 0
M  V30 58767 H 6026.71 -1.38726 0.834663 0
M  V30 58768 H 6028.7 -3.94736 -0.892492 0
M  V30 58769 H 6027.27 -2.91292 -1.13437 0
M  V30 58770 H 6026.49 -3.75333 1.20494 0
M  V30 58771 H 6027.78 -4.96687 1.1036 0
M  V30 58772 H 6027.18 -5.26727 -2.06337 0
M  V30 58773 H 6025.74 -6.19858 -2.01541 0
M  V30 58774 N 6029.17 -0.732927 -1.3952 0
M  V30 58775 C 6030.4 -0.290142 -2.04856 0
M  V30 58776 C 6030.81 1.07429 -1.55256 0
M  V30 58777 O 6030.17 1.67844 -0.716556 0
M  V30 58778 C 6030.22 -0.280591 -3.60409 0
M  V30 58779 O 6029.94 -1.59117 -4.08183 0
M  V30 58780 C 6031.44 0.178616 -4.4294 0
M  V30 58781 H 6028.66 -0.127183 -0.658836 0
M  V30 58782 H 6031.21 -0.995996 -1.78606 0
M  V30 58783 H 6029.36 0.376358 -3.85568 0
M  V30 58784 H 6029.78 -1.50332 -5.02494 0
M  V30 58785 H 6031.25 0.134141 -5.51837 0
M  V30 58786 H 6031.73 1.22347 -4.21815 0
M  V30 58787 H 6032.33 -0.448692 -4.22927 0
M  V30 58788 N 6030.65 1.501 -0.480402 0
M  V30 58789 C 6032.06 1.8668 -0.0275429 0
M  V30 58790 C 6032.41 1.39447 1.38018 0
M  V30 58791 O 6031.54 0.763434 2.02486 0
M  V30 58792 C 6032.13 3.38772 -0.0432061 0
M  V30 58793 C 6030.69 3.7473 0.354221 0
M  V30 58794 C 6029.84 2.74029 -0.424679 0
M  V30 58795 H 6032.79 1.4271 -0.694222 0
M  V30 58796 H 6032.81 3.72897 0.756858 0
M  V30 58797 H 6032.32 3.73119 -1.06788 0
M  V30 58798 H 6030.42 3.45986 1.3829 0
M  V30 58799 H 6030.53 4.79075 0.0490924 0
M  V30 58800 H 6028.9 2.54404 0.122837 0
M  V30 58801 H 6029.68 3.11219 -1.44905 0
M  V30 58802 N 6032.13 0.213378 1.56149 0
M  V30 58803 C 6033.35 -0.425617 2.02475 0
M  V30 58804 C 6033.77 -1.53922 1.09331 0
M  V30 58805 O 6033.13 -1.82218 0.101428 0
M  V30 58806 C 6033.18 -0.964898 3.48385 0
M  V30 58807 O 6032.9 0.104299 4.37976 0
M  V30 58808 C 6034.4 -1.67795 4.10316 0
M  V30 58809 H 6031.62 -0.105041 0.662727 0
M  V30 58810 H 6034.16 0.32744 2.01862 0
M  V30 58811 H 6032.32 -1.66826 3.4964 0
M  V30 58812 H 6032.73 -0.299801 5.23642 0
M  V30 58813 H 6034.21 -2.00739 5.14206 0
M  V30 58814 H 6034.68 -2.5882 3.54836 0
M  V30 58815 H 6035.29 -1.02 4.12888 0
M  V30 58816 N 6033.6 -1.57485 -0.0600851 0
M  V30 58817 C 6034.83 -1.92054 -0.769613 0
M  V30 58818 C 6035.25 -0.810424 -1.70521 0
M  V30 58819 O 6034.6 0.215463 -1.81224 0
M  V30 58820 C 6034.66 -3.26428 -1.55328 0
M  V30 58821 O 6034.38 -4.33172 -0.65527 0
M  V30 58822 C 6035.88 -3.75085 -2.36276 0
M  V30 58823 H 6033.1 -0.634547 -0.218153 0
M  V30 58824 H 6035.64 -2.04482 -0.0268589 0
M  V30 58825 H 6033.8 -3.15491 -2.2482 0
M  V30 58826 H 6034.21 -5.10552 -1.20153 0
M  V30 58827 H 6035.68 -4.71705 -2.86702 0
M  V30 58828 H 6036.16 -3.04688 -3.16325 0
M  V30 58829 H 6036.77 -3.89004 -1.71918 0
M  V30 58830 N 6035.08 0.331735 -1.54069 0
M  V30 58831 C 6036.31 1.09038 -1.75836 0
M  V30 58832 C 6036.73 1.81974 -0.503076 0
M  V30 58833 O 6036.08 1.7476 0.525852 0
M  V30 58834 C 6036.13 2.09478 -2.9462 0
M  V30 58835 O 6035.85 1.39506 -4.15295 0
M  V30 58836 C 6037.36 2.97626 -3.28533 0
M  V30 58837 H 6034.58 0.324681 -0.587217 0
M  V30 58838 H 6037.12 0.380347 -2.00932 0
M  V30 58839 H 6035.27 2.76029 -2.71821 0
M  V30 58840 H 6035.69 2.067 -4.82053 0
M  V30 58841 H 6037.16 3.64013 -4.14968 0
M  V30 58842 H 6037.64 3.64284 -2.45345 0
M  V30 58843 H 6038.25 2.36648 -3.53381 0
M  V30 58844 N 6036.56 1.46003 0.593373 0
M  V30 58845 C 6037.97 1.45053 1.17544 0
M  V30 58846 C 6038.32 0.18567 1.9532 0
M  V30 58847 O 6037.45 -0.711917 2.04354 0
M  V30 58848 C 6038.04 2.62797 2.1383 0
M  V30 58849 C 6036.6 2.64922 2.67383 0
M  V30 58850 C 6035.75 2.37554 1.4305 0
M  V30 58851 H 6038.7 1.54037 0.38189 0
M  V30 58852 H 6038.72 2.37706 2.97113 0
M  V30 58853 H 6038.23 3.5484 1.57196 0
M  V30 58854 H 6036.33 1.76923 3.27916 0
M  V30 58855 H 6036.45 3.64571 3.10846 0
M  V30 58856 H 6034.81 1.87396 1.72496 0
M  V30 58857 H 6035.59 3.3176 0.882629 0
M  V30 58858 N 6038.04 -0.837103 1.3353 0
M  V30 58859 C 6039.29 -1.58742 1.24434 0
M  V30 58860 C 6039.6 -1.94696 -0.187817 0
M  V30 58861 O 6040.81 -2.68525 -0.400809 0
M  V30 58862 C 6039.26 -2.86329 2.18045 0
M  V30 58863 C 6038.87 -2.57732 3.6644 0
M  V30 58864 C 6040.61 -3.64352 2.17825 0
M  V30 58865 C 6038.52 -3.81427 4.5196 0
M  V30 58866 H 6037.45 -0.595732 0.462189 0
M  V30 58867 H 6040.1 -0.922845 1.58606 0
M  V30 58868 H 6038.48 -3.54338 1.76807 0
M  V30 58869 H 6039.66 -1.97925 4.16128 0
M  V30 58870 H 6037.97 -1.9301 3.68966 0
M  V30 58871 H 6040.57 -4.56171 2.78948 0
M  V30 58872 H 6040.91 -3.9941 1.17378 0
M  V30 58873 H 6041.45 -3.0327 2.57434 0
M  V30 58874 H 6038.19 -3.51499 5.53289 0
M  V30 58875 H 6037.71 -4.40568 4.07014 0
M  V30 58876 H 6039.38 -4.48988 4.65853 0
M  V30 58877 N 6039.52 -1.17028 -1.05557 0
M  V30 58878 C 6040.74 -0.980814 -1.82175 0
M  V30 58879 C 6041.16 0.470962 -1.82832 0
M  V30 58880 O 6040.52 1.32699 -1.25289 0
M  V30 58881 C 6040.57 -1.5099 -3.28457 0
M  V30 58882 O 6040.29 -2.90483 -3.2795 0
M  V30 58883 C 6041.79 -1.36451 -4.21777 0
M  V30 58884 H 6039.01 -0.34722 -0.574177 0
M  V30 58885 H 6041.55 -1.5523 -1.33131 0
M  V30 58886 H 6039.71 -0.980525 -3.74786 0
M  V30 58887 H 6040.12 -3.14862 -4.19478 0
M  V30 58888 H 6041.6 -1.78291 -5.22414 0
M  V30 58889 H 6042.07 -0.311076 -4.38097 0
M  V30 58890 H 6042.68 -1.88387 -3.81301 0
M  V30 58891 N 6040.99 1.24218 -0.969933 0
M  V30 58892 C 6042.22 1.964 -0.650728 0
M  V30 58893 C 6042.64 1.71922 0.780278 0
M  V30 58894 O 6041.99 1.00432 1.5238 0
M  V30 58895 C 6042.05 3.49632 -0.918665 0
M  V30 58896 O 6041.77 3.73275 -2.29342 0
M  V30 58897 C 6043.27 4.39028 -0.613957 0
M  V30 58898 H 6040.49 0.625605 -0.242609 0
M  V30 58899 H 6043.03 1.57987 -1.29847 0
M  V30 58900 H 6041.19 3.861 -0.317095 0
M  V30 58901 H 6041.6 4.67641 -2.37513 0
M  V30 58902 H 6043.07 5.45387 -0.851871 0
M  V30 58903 H 6043.55 4.3687 0.451823 0
M  V30 58904 H 6044.16 4.08151 -1.19553 0
M  V30 58905 N 6042.47 0.740315 1.3913 0
M  V30 58906 C 6043.7 0.301002 2.04699 0
M  V30 58907 C 6044.12 -1.06605 1.55823 0
M  V30 58908 O 6043.47 -1.67462 0.725447 0
M  V30 58909 C 6043.52 0.299701 3.60256 0
M  V30 58910 O 6043.24 1.61279 4.07334 0
M  V30 58911 C 6044.75 -0.155123 4.43029 0
M  V30 58912 H 6041.97 0.130676 0.658153 0
M  V30 58913 H 6044.51 1.00545 1.78075 0
M  V30 58914 H 6042.66 -0.355906 3.85762 0
M  V30 58915 H 6043.08 1.52995 5.0169 0
M  V30 58916 H 6044.55 -0.104874 5.519 0
M  V30 58917 H 6045.03 -1.20109 4.22458 0
M  V30 58918 H 6045.64 0.471114 4.22683 0
M  V30 58919 N 6043.95 -1.49843 0.488355 0
M  V30 58920 C 6045.18 -2.06819 -0.057808 0
M  V30 58921 C 6045.59 -1.35022 -1.31964 0
M  V30 58922 O 6044.95 -0.424677 -1.7749 0
M  V30 58923 C 6045 -3.60006 -0.328308 0
M  V30 58924 O 6044.72 -4.29099 0.883489 0
M  V30 58925 C 6046.22 -4.33658 -0.919523 0
M  V30 58926 H 6043.44 -0.670837 0.0147986 0
M  V30 58927 H 6045.99 -1.92789 0.68209 0
M  V30 58928 H 6044.14 -3.73781 -1.01816 0
M  V30 58929 H 6044.56 -5.20598 0.638597 0
M  V30 58930 H 6046.03 -5.41757 -1.05845 0
M  V30 58931 H 6046.51 -3.95296 -1.9141 0
M  V30 58932 H 6047.11 -4.24458 -0.267523 0
M  V30 58933 N 6045.43 -0.221656 -1.56033 0
M  V30 58934 C 6046.66 0.414873 -2.02698 0
M  V30 58935 C 6047.07 1.5334 -1.10146 0
M  V30 58936 O 6046.43 1.82162 -0.11109 0
M  V30 58937 C 6046.48 0.946409 -3.48892 0
M  V30 58938 O 6046.2 -0.127524 -4.37914 0
M  V30 58939 C 6047.7 1.65617 -4.11201 0
M  V30 58940 H 6044.92 0.101525 -0.663275 0
M  V30 58941 H 6047.47 -0.33814 -2.01685 0
M  V30 58942 H 6045.62 1.64969 -3.50519 0
M  V30 58943 H 6046.04 0.272027 -5.23794 0
M  V30 58944 H 6047.51 1.98009 -5.15264 0
M  V30 58945 H 6047.99 2.56935 -3.56204 0
M  V30 58946 H 6048.59 0.998086 -4.13423 0
M  V30 58947 N 6046.91 1.57515 0.0517324 0
M  V30 58948 C 6048.15 1.88496 0.74814 0
M  V30 58949 C 6048.49 0.816556 1.76199 0
M  V30 58950 O 6047.76 -0.171006 1.93747 0
M  V30 58951 C 6048.04 3.30136 1.43814 0
M  V30 58952 C 6047.9 4.47649 0.439342 0
M  V30 58953 C 6049.22 3.70323 2.378 0
M  V30 58954 H 6046.34 0.68556 0.270513 0
M  V30 58955 H 6048.98 1.89997 0.0110789 0
M  V30 58956 H 6047.13 3.28987 2.06639 0
M  V30 58957 H 6048.8 4.60928 -0.18525 0
M  V30 58958 H 6047.04 4.33116 -0.243533 0
M  V30 58959 H 6047.71 5.43585 0.960159 0
M  V30 58960 H 6050.19 3.72694 1.85037 0
M  V30 58961 H 6049.07 4.70279 2.83071 0
M  V30 58962 H 6049.33 3.01341 3.2349 0
M  V30 58963 N 6048.39 -0.32356 1.54243 0
M  V30 58964 C 6049.61 -1.08104 1.76412 0
M  V30 58965 C 6050.03 -1.81705 0.51272 0
M  V30 58966 O 6049.39 -1.75036 -0.516576 0
M  V30 58967 C 6049.44 -2.07913 2.95727 0
M  V30 58968 O 6049.16 -1.37302 4.16029 0
M  V30 58969 C 6050.66 -2.95879 3.30107 0
M  V30 58970 H 6047.88 -0.321562 0.58893 0
M  V30 58971 H 6050.42 -0.369686 2.01131 0
M  V30 58972 H 6048.58 -2.74583 2.73281 0
M  V30 58973 H 6048.99 -2.04141 4.83142 0
M  V30 58974 H 6050.47 -3.61807 4.16893 0
M  V30 58975 H 6050.94 -3.62977 2.47273 0
M  V30 58976 H 6051.55 -2.34771 3.54631 0
M  V30 58977 N 6049.86 -1.46316 -0.585622 0
M  V30 58978 C 6051.27 -1.45674 -1.16773 0
M  V30 58979 C 6051.63 -0.196025 -1.95218 0
M  V30 58980 O 6050.75 0.70107 -2.04729 0
M  V30 58981 C 6051.35 -2.63927 -2.12433 0
M  V30 58982 C 6049.9 -2.66336 -2.65974 0
M  V30 58983 C 6049.05 -2.38309 -1.41789 0
M  V30 58984 H 6052 -1.54237 -0.373716 0
M  V30 58985 H 6052.02 -2.39279 -2.95848 0
M  V30 58986 H 6051.54 -3.55668 -1.55312 0
M  V30 58987 H 6049.64 -1.78659 -3.26973 0
M  V30 58988 H 6049.75 -3.66214 -3.08908 0
M  V30 58989 H 6048.11 -1.88308 -1.715 0
M  V30 58990 H 6048.9 -3.32223 -0.865023 0
M  V30 58991 N 6051.34 0.83001 -1.33972 0
M  V30 58992 C 6052.57 1.61769 -1.2899 0
M  V30 58993 C 6052.98 1.88299 0.137449 0
M  V30 58994 O 6052.34 1.4694 1.08235 0
M  V30 58995 C 6052.39 2.96275 -2.07131 0
M  V30 58996 O 6052.11 2.70906 -3.44298 0
M  V30 58997 C 6053.61 3.90692 -2.09463 0
M  V30 58998 H 6050.83 0.503072 -0.444026 0
M  V30 58999 H 6053.38 1.03322 -1.76479 0
M  V30 59000 H 6051.53 3.513 -1.63302 0
M  V30 59001 H 6051.95 3.56621 -3.84606 0
M  V30 59002 H 6053.42 4.82257 -2.68575 0
M  V30 59003 H 6053.9 4.25532 -1.08717 0
M  V30 59004 H 6054.5 3.41605 -2.5335 0
M  V30 59005 N 6052.82 1.17586 1.04935 0
M  V30 59006 C 6054.23 0.971382 1.5944 0
M  V30 59007 C 6054.58 -0.481241 1.90206 0
M  V30 59008 O 6053.71 -1.35702 1.68564 0
M  V30 59009 C 6054.3 1.75695 2.89684 0
M  V30 59010 C 6052.86 1.59707 3.40838 0
M  V30 59011 C 6052.01 1.75696 2.14537 0
M  V30 59012 H 6054.96 1.32257 0.877142 0
M  V30 59013 H 6054.98 1.24087 3.59698 0
M  V30 59014 H 6054.49 2.81414 2.67259 0
M  V30 59015 H 6052.59 0.564876 3.68293 0
M  V30 59016 H 6052.71 2.38965 4.1525 0
M  V30 59017 H 6051.07 1.18561 2.25423 0
M  V30 59018 H 6051.85 2.82832 1.94579 0
M  V30 59019 N 6054.3 -1.23702 0.976507 0
M  V30 59020 C 6055.53 -1.96053 0.661134 0
M  V30 59021 C 6055.94 -1.72333 -0.77115 0
M  V30 59022 O 6055.3 -1.01239 -1.51845 0
M  V30 59023 C 6055.35 -3.4914 0.937193 0
M  V30 59024 O 6055.07 -3.72053 2.31318 0
M  V30 59025 C 6056.57 -4.38696 0.637231 0
M  V30 59026 H 6053.79 -0.62431 0.245923 0
M  V30 59027 H 6056.33 -1.57296 1.30683 0
M  V30 59028 H 6054.49 -3.85926 0.337566 0
M  V30 59029 H 6054.9 -4.66375 2.39989 0
M  V30 59030 H 6056.38 -5.44928 0.880782 0
M  V30 59031 H 6056.85 -4.37103 -0.428648 0
M  V30 59032 H 6057.46 -4.07511 1.21716 0
M  V30 59033 N 6055.78 -0.747683 -1.38735 0
M  V30 59034 C 6057.19 -0.369641 -1.83004 0
M  V30 59035 C 6057.54 1.10085 -1.62406 0
M  V30 59036 O 6056.66 1.85038 -1.12204 0
M  V30 59037 C 6057.26 -0.664135 -3.32227 0
M  V30 59038 C 6055.82 -0.33944 -3.74866 0
M  V30 59039 C 6054.96 -0.920323 -2.61582 0
M  V30 59040 H 6057.91 -0.944313 -1.27548 0
M  V30 59041 H 6057.94 0.0597237 -3.80453 0
M  V30 59042 H 6057.45 -1.73444 -3.47187 0
M  V30 59043 H 6055.55 0.724521 -3.65488 0
M  V30 59044 H 6055.66 -0.830865 -4.7184 0
M  V30 59045 H 6054.03 -0.34609 -2.52338 0
M  V30 59046 H 6054.81 -1.99554 -2.79344 0
M  V30 59047 N 6057.25 1.49582 -0.496295 0
M  V30 59048 C 6058.48 2.06847 0.046839 0
M  V30 59049 C 6058.9 1.3572 1.31246 0
M  V30 59050 O 6058.25 0.434084 1.77262 0
M  V30 59051 C 6058.3 3.60175 0.309212 0
M  V30 59052 O 6058.03 4.28625 -0.906233 0
M  V30 59053 C 6059.53 4.3414 0.896512 0
M  V30 59054 H 6056.75 0.670749 -0.018356 0
M  V30 59055 H 6059.29 1.92425 -0.692304 0
M  V30 59056 H 6057.45 3.74316 0.998327 0
M  V30 59057 H 6057.86 5.20252 -0.666197 0
M  V30 59058 H 6059.33 5.42311 1.02971 0
M  V30 59059 H 6059.81 3.96305 1.89311 0
M  V30 59060 H 6060.42 4.24594 0.245009 0
M  V30 59061 N 6058.73 0.229928 1.55914 0
M  V30 59062 C 6059.98 -0.398706 1.98128 0
M  V30 59063 C 6060.3 -1.59696 1.11903 0
M  V30 59064 O 6059.57 -1.94897 0.197936 0
M  V30 59065 H 6058.15 -0.150297 0.731724 0
M  V30 59066 H 6060.81 0.324771 1.92175 0
M  V30 59067 H 6059.91 -0.719368 3.03696 0
M  V30 59068 N 6060.21 -1.5754 -0.0433783 0
M  V30 59069 C 6061.44 -1.92859 -0.7492 0
M  V30 59070 C 6061.85 -0.828464 -1.69652 0
M  V30 59071 O 6061.21 0.19623 -1.81442 0
M  V30 59072 C 6061.26 -3.28057 -1.51857 0
M  V30 59073 O 6060.98 -4.33842 -0.60929 0
M  V30 59074 C 6062.48 -3.7757 -2.32284 0
M  V30 59075 H 6059.7 -0.636825 -0.21141 0
M  V30 59076 H 6062.25 -2.04499 -0.0051693 0
M  V30 59077 H 6060.4 -3.17858 -2.21461 0
M  V30 59078 H 6060.82 -5.11798 -1.14732 0
M  V30 59079 H 6062.29 -4.7472 -2.81683 0
M  V30 59080 H 6062.77 -3.08026 -3.13076 0
M  V30 59081 H 6063.37 -3.90806 -1.67782 0
M  V30 59082 N 6061.69 0.315375 -1.54412 0
M  V30 59083 C 6062.62 1.40973 -1.80718 0
M  V30 59084 C 6063.63 1.47479 -0.689487 0
M  V30 59085 O 6064.82 1.50055 -0.966734 0
M  V30 59086 C 6061.92 2.79452 -1.91728 0
M  V30 59087 C 6061.1 2.96053 -3.2198 0
M  V30 59088 C 6060.15 4.14943 -3.23588 0
M  V30 59089 O 6059.18 4.07712 -3.97189 0
M  V30 59090 N 6060.38 5.2488 -2.47953 0
M  V30 59091 H 6063.15 1.18768 -2.75162 0
M  V30 59092 H 6060.71 0.505396 -1.53809 0
M  V30 59093 H 6062.7 3.57209 -1.90221 0
M  V30 59094 H 6061.27 2.94671 -1.04344 0
M  V30 59095 H 6060.49 2.05529 -3.3638 0
M  V30 59096 H 6061.78 3.04045 -4.07963 0
M  V30 59097 H 6061.18 5.33632 -1.8776 0
M  V30 59098 H 6059.73 6.01024 -2.52216 0
M  V30 59099 N 6063.17 1.46624 0.577854 0
M  V30 59100 C 6064.39 1.55765 1.3618 0
M  V30 59101 C 6064.81 0.200469 1.87733 0
M  V30 59102 O 6064.17 -0.803033 1.63883 0
M  V30 59103 C 6064.22 2.56635 2.54599 0
M  V30 59104 O 6063.94 3.87082 2.05181 0
M  V30 59105 C 6065.44 2.75763 3.47088 0
M  V30 59106 H 6062.66 0.526604 0.415848 0
M  V30 59107 H 6065.2 1.92073 0.702023 0
M  V30 59108 H 6063.36 2.23318 3.16556 0
M  V30 59109 H 6063.77 4.42025 2.82337 0
M  V30 59110 H 6065.25 3.50252 4.26647 0
M  V30 59111 H 6065.72 1.82843 3.99331 0
M  V30 59112 H 6066.33 3.10195 2.90962 0
M  V30 59113 N 6064.64 -0.822893 1.34411 0
M  V30 59114 C 6066.06 -1.39567 1.24008 0
M  V30 59115 C 6066.41 -1.95739 -0.134414 0
M  V30 59116 O 6065.53 -1.90058 -1.03475 0
M  V30 59117 C 6066.13 -2.53718 2.24528 0
M  V30 59118 C 6064.69 -3.06903 2.17916 0
M  V30 59119 C 6063.83 -1.79776 2.1113 0
M  V30 59120 H 6066.78 -0.627289 1.45776 0
M  V30 59121 H 6066.8 -3.31812 1.86229 0
M  V30 59122 H 6066.32 -2.12805 3.24555 0
M  V30 59123 H 6064.42 -3.52321 1.21245 0
M  V30 59124 H 6064.53 -3.65992 3.09171 0
M  V30 59125 H 6062.89 -2.00673 1.56852 0
M  V30 59126 H 6063.68 -1.41036 3.12991 0
M  V30 59127 N 6066.12 -1.18141 -1.0431 0
M  V30 59128 C 6067.35 -1.00008 -1.81124 0
M  V30 59129 C 6067.77 0.451544 -1.83321 0
M  V30 59130 O 6067.12 1.31362 -1.26689 0
M  V30 59131 C 6067.17 -1.54466 -3.26837 0
M  V30 59132 O 6066.89 -2.93945 -3.24851 0
M  V30 59133 C 6068.4 -1.40917 -4.20306 0
M  V30 59134 H 6065.62 -0.35329 -0.570462 0
M  V30 59135 H 6068.16 -1.56634 -1.31477 0
M  V30 59136 H 6066.31 -1.02022 -3.73725 0
M  V30 59137 H 6066.73 -3.19293 -4.16115 0
M  V30 59138 H 6068.2 -1.83821 -5.20494 0
M  V30 59139 H 6068.68 -0.357525 -4.37742 0
M  V30 59140 H 6069.29 -1.92421 -3.79281 0
M  V30 59141 N 6067.6 1.23182 -0.983053 0
M  V30 59142 C 6068.83 1.95699 -0.671522 0
M  V30 59143 C 6069.24 1.7274 0.762 0
M  V30 59144 O 6068.6 1.02043 1.51306 0
M  V30 59145 C 6068.65 3.48638 -0.955696 0
M  V30 59146 O 6068.37 3.70821 -2.33288 0
M  V30 59147 C 6069.87 4.38352 -0.660488 0
M  V30 59148 H 6067.09 0.622997 -0.24923 0
M  V30 59149 H 6069.64 1.56601 -1.31516 0
M  V30 59150 H 6067.79 3.85742 -0.358028 0
M  V30 59151 H 6068.21 4.65096 -2.42459 0
M  V30 59152 H 6069.68 5.44453 -0.909668 0
M  V30 59153 H 6070.16 4.37324 0.405461 0
M  V30 59154 H 6070.76 4.0686 -1.23876 0
M  V30 59155 N 6069.08 0.75503 1.38337 0
M  V30 59156 C 6070.31 0.322696 2.04368 0
M  V30 59157 C 6070.72 -1.04946 1.56945 0
M  V30 59158 O 6070.08 -1.66683 0.743168 0
M  V30 59159 C 6070.13 0.337894 3.59917 0
M  V30 59160 O 6069.85 1.6559 4.056 0
M  V30 59161 C 6071.35 -0.108126 4.43168 0
M  V30 59162 H 6068.57 0.137649 0.65673 0
M  V30 59163 H 6071.12 1.02428 1.76999 0
M  V30 59164 H 6069.27 -0.31497 3.86117 0
M  V30 59165 H 6069.68 1.58307 5.00039 0
M  V30 59166 H 6071.16 -0.0463315 5.51981 0
M  V30 59167 H 6071.64 -1.15621 4.23708 0
M  V30 59168 H 6072.24 0.515919 4.22159 0
M  V30 59169 N 6070.56 -1.49316 0.50422 0
M  V30 59170 C 6071.97 -1.86612 0.0572385 0
M  V30 59171 C 6072.32 -1.41625 -1.35782 0
M  V30 59172 O 6071.44 -0.795551 -2.01246 0
M  V30 59173 C 6072.04 -3.38661 0.0970964 0
M  V30 59174 C 6070.6 -3.75246 -0.29456 0
M  V30 59175 C 6069.74 -2.73318 0.468221 0
M  V30 59176 H 6072.7 -1.41588 0.716838 0
M  V30 59177 H 6072.72 -3.74054 -0.697437 0
M  V30 59178 H 6072.23 -3.71373 1.12711 0
M  V30 59179 H 6070.33 -3.48143 -1.32769 0
M  V30 59180 H 6070.44 -4.79092 0.0271305 0
M  V30 59181 H 6068.81 -2.54567 -0.0823484 0
M  V30 59182 H 6069.59 -3.08875 1.49837 0
M  V30 59183 N 6072.03 -0.238193 -1.5579 0
M  V30 59184 C 6073.28 0.389404 -1.97905 0
M  V30 59185 C 6073.6 1.59703 -1.12935 0
M  V30 59186 O 6074.8 2.29521 -1.45025 0
M  V30 59187 C 6073.26 0.744195 -3.52122 0
M  V30 59188 C 6072.87 -0.441544 -4.45819 0
M  V30 59189 C 6074.61 1.33647 -4.02913 0
M  V30 59190 C 6072.52 -0.0633919 -5.91366 0
M  V30 59191 H 6071.45 0.149265 -0.739078 0
M  V30 59192 H 6074.1 -0.337035 -1.80378 0
M  V30 59193 H 6072.48 1.52852 -3.65311 0
M  V30 59194 H 6073.65 -1.21897 -4.44385 0
M  V30 59195 H 6071.97 -0.94816 -4.05461 0
M  V30 59196 H 6074.57 1.63258 -5.09167 0
M  V30 59197 H 6074.91 2.25797 -3.49744 0
M  V30 59198 H 6075.44 0.615228 -3.93014 0
M  V30 59199 H 6072.18 -0.951812 -6.48553 0
M  V30 59200 H 6071.7 0.678006 -5.95956 0
M  V30 59201 H 6073.38 0.357485 -6.46012 0
M  V30 59202 N 6073.51 1.57561 0.0350229 0
M  V30 59203 C 6074.74 1.93254 0.738962 0
M  V30 59204 C 6075.16 0.83745 1.69211 0
M  V30 59205 O 6074.51 -0.186605 1.81543 0
M  V30 59206 C 6074.56 3.28858 1.50115 0
M  V30 59207 O 6074.28 4.34159 0.586273 0
M  V30 59208 C 6075.79 3.78796 2.30279 0
M  V30 59209 H 6073.01 0.637938 0.20803 0
M  V30 59210 H 6075.55 2.04499 -0.00567587 0
M  V30 59211 H 6073.7 3.19028 2.19772 0
M  V30 59212 H 6074.12 5.12399 1.12016 0
M  V30 59213 H 6075.59 4.76207 2.79161 0
M  V30 59214 H 6076.07 3.09682 3.11438 0
M  V30 59215 H 6076.68 3.9169 1.65708 0
M  V30 59216 N 6074.99 -0.307182 1.54577 0
M  V30 59217 C 6076.22 -1.06227 1.77548 0
M  V30 59218 C 6076.63 -1.81151 0.531963 0
M  V30 59219 O 6075.99 -1.75574 -0.497982 0
M  V30 59220 C 6076.04 -2.04765 2.97916 0
M  V30 59221 O 6075.76 -1.32882 4.17461 0
M  V30 59222 C 6077.26 -2.92361 3.33226 0
M  V30 59223 H 6074.48 -0.315297 0.592308 0
M  V30 59224 H 6077.03 -0.348332 2.01512 0
M  V30 59225 H 6075.18 -2.71669 2.76178 0
M  V30 59226 H 6075.6 -1.99005 4.85281 0
M  V30 59227 H 6077.07 -3.57365 4.20707 0
M  V30 59228 H 6077.55 -3.60334 2.51109 0
M  V30 59229 H 6078.15 -2.30996 3.57101 0
M  V30 59230 N 6076.47 -1.46928 -0.57007 0
M  V30 59231 C 6077.7 -1.56485 -1.35352 0
M  V30 59232 C 6078.11 -0.210422 -1.87624 0
M  V30 59233 O 6077.47 0.794331 -1.64307 0
M  V30 59234 C 6077.52 -2.57982 -2.53234 0
M  V30 59235 O 6077.24 -3.88164 -2.03126 0
M  V30 59236 C 6078.74 -2.776 -3.4562 0
M  V30 59237 H 6075.96 -0.528802 -0.413049 0
M  V30 59238 H 6078.51 -1.92442 -0.691827 0
M  V30 59239 H 6076.66 -2.24994 -3.15368 0
M  V30 59240 H 6077.08 -4.43516 -2.79989 0
M  V30 59241 H 6078.55 -3.5251 -4.24783 0
M  V30 59242 H 6079.03 -1.84958 -3.98356 0
M  V30 59243 H 6079.63 -3.11734 -2.89313 0
M  V30 59244 N 6077.95 0.815754 -1.34845 0
M  V30 59245 C 6079.18 1.60392 -1.30698 0
M  V30 59246 C 6079.59 1.88434 0.117469 0
M  V30 59247 O 6078.95 1.4808 1.06671 0
M  V30 59248 C 6079 2.94061 -2.10262 0
M  V30 59249 O 6078.72 2.67239 -3.47152 0
M  V30 59250 C 6080.22 3.88448 -2.13595 0
M  V30 59251 H 6077.44 0.498335 -0.449337 0
M  V30 59252 H 6079.98 1.01444 -1.77565 0
M  V30 59253 H 6078.14 3.49548 -1.67018 0
M  V30 59254 H 6078.55 3.52522 -3.88366 0
M  V30 59255 H 6080.03 4.79381 -2.73674 0
M  V30 59256 H 6080.5 4.24355 -1.13224 0
M  V30 59257 H 6081.11 3.38898 -2.56959 0
M  V30 59258 N 6079.43 1.18692 1.03682 0
M  V30 59259 C 6080.65 1.00967 1.80591 0
M  V30 59260 C 6081.07 -0.441816 1.83558 0
M  V30 59261 O 6080.43 -1.30689 1.27384 0
M  V30 59262 C 6080.48 1.56197 3.26014 0
M  V30 59263 O 6080.2 2.95663 3.23287 0
M  V30 59264 C 6081.7 1.43144 4.19553 0
M  V30 59265 H 6078.92 0.356311 0.56858 0
M  V30 59266 H 6081.46 1.57329 1.30644 0
M  V30 59267 H 6079.62 1.04003 3.73179 0
M  V30 59268 H 6080.03 3.21496 4.14416 0
M  V30 59269 H 6081.51 1.86579 5.19512 0
M  V30 59270 H 6081.98 0.380734 4.37547 0
M  V30 59271 H 6082.59 1.94429 3.78256 0
M  V30 59272 N 6080.9 -1.22659 0.989572 0
M  V30 59273 C 6082.15 -1.91603 0.664547 0
M  V30 59274 C 6082.48 -1.76912 -0.800986 0
M  V30 59275 O 6081.76 -1.13588 -1.57886 0
M  V30 59276 C 6082.04 -3.43926 1.0671 0
M  V30 59277 C 6081.89 -3.67682 2.59095 0
M  V30 59278 C 6083.21 -4.35741 0.617848 0
M  V30 59279 H 6080.33 -0.695823 0.242897 0
M  V30 59280 H 6082.97 -1.44601 1.2325 0
M  V30 59281 H 6081.12 -3.84088 0.583845 0
M  V30 59282 H 6082.8 -3.36945 3.15065 0
M  V30 59283 H 6081.04 -3.12077 3.01314 0
M  V30 59284 H 6081.71 -4.74346 2.82312 0
M  V30 59285 H 6084.19 -4.03076 1.03289 0
M  V30 59286 H 6083.06 -5.41001 0.927849 0
M  V30 59287 H 6083.32 -4.39469 -0.481579 0
M  V30 59288 N 6082.38 -0.762356 -1.37934 0
M  V30 59289 C 6083.61 -0.33353 -2.04194 0
M  V30 59290 C 6084.02 1.04112 -1.575 0
M  V30 59291 O 6083.38 1.66287 -0.751997 0
M  V30 59292 C 6083.43 -0.356976 -3.59733 0
M  V30 59293 O 6083.15 -1.67739 -4.04716 0
M  V30 59294 C 6084.65 0.0846218 -4.43219 0
M  V30 59295 H 6081.87 -0.14113 -0.65599 0
M  V30 59296 H 6084.42 -1.03366 -1.76453 0
M  V30 59297 H 6082.57 0.294489 -3.86279 0
M  V30 59298 H 6082.99 -1.60957 -4.99192 0
M  V30 59299 H 6084.46 0.017058 -5.51997 0
M  V30 59300 H 6084.94 1.13372 -4.24315 0
M  V30 59301 H 6085.54 -0.5383 -4.2188 0
M  V30 59302 N 6083.86 1.49047 -0.512132 0
M  V30 59303 C 6085.27 1.86579 -0.0671342 0
M  V30 59304 C 6085.62 1.42343 1.35029 0
M  V30 59305 O 6084.75 0.806212 2.00821 0
M  V30 59306 C 6085.34 3.38605 -0.115055 0
M  V30 59307 C 6083.9 3.75397 0.274655 0
M  V30 59308 C 6083.05 2.73066 -0.482709 0
M  V30 59309 H 6086 1.41206 -0.724337 0
M  V30 59310 H 6086.02 3.74418 0.677591 0
M  V30 59311 H 6085.53 3.7077 -1.14679 0
M  V30 59312 H 6083.63 3.48842 1.3092 0
M  V30 59313 H 6083.75 4.79071 -0.0525376 0
M  V30 59314 H 6082.11 2.54607 0.0688469 0
M  V30 59315 H 6082.89 3.08076 -1.51473 0
M  V30 59316 N 6085.34 0.246452 1.55661 0
M  V30 59317 C 6086.57 -0.382573 2.03332 0
M  V30 59318 C 6086.98 -1.51569 1.12572 0
M  V30 59319 O 6086.34 -1.81962 0.140056 0
M  V30 59320 C 6086.39 -0.890784 3.50353 0
M  V30 59321 O 6086.11 0.197177 4.37656 0
M  V30 59322 C 6087.61 -1.59054 4.13783 0
M  V30 59323 H 6084.83 -0.09096 0.664806 0
M  V30 59324 H 6087.37 0.370184 2.01122 0
M  V30 59325 H 6085.53 -1.59372 3.531 0
M  V30 59326 H 6085.94 -0.188662 5.24161 0
M  V30 59327 H 6087.42 -1.89786 5.18348 0
M  V30 59328 H 6087.89 -2.51235 3.60246 0
M  V30 59329 H 6088.5 -0.932188 4.14958 0
M  V30 59330 N 6086.82 -1.57577 -0.0266666 0
M  V30 59331 C 6088.23 -1.77691 -0.572959 0
M  V30 59332 C 6088.58 -0.877832 -1.75467 0
M  V30 59333 O 6087.7 -0.0732917 -2.16276 0
M  V30 59334 C 6088.3 -3.22243 -1.04618 0
M  V30 59335 C 6086.86 -3.43545 -1.53798 0
M  V30 59336 C 6086 -2.73164 -0.477124 0
M  V30 59337 H 6088.95 -1.5744 0.199557 0
M  V30 59338 H 6088.98 -3.28889 -1.91344 0
M  V30 59339 H 6088.49 -3.87654 -0.185911 0
M  V30 59340 H 6086.59 -2.83312 -2.42002 0
M  V30 59341 H 6086.7 -4.52164 -1.58382 0
M  V30 59342 H 6085.07 -2.37008 -0.932709 0
M  V30 59343 H 6085.85 -3.4126 0.373725 0
M  V30 59344 N 6088.29 0.29898 -1.54738 0
M  V30 59345 C 6089.52 1.05284 -1.78109 0
M  V30 59346 C 6089.94 1.80866 -0.541563 0
M  V30 59347 O 6089.29 1.75836 0.488664 0
M  V30 59348 C 6089.34 2.03182 -2.98997 0
M  V30 59349 O 6089.07 1.30666 -4.1816 0
M  V30 59350 C 6090.57 2.9059 -3.34772 0
M  V30 59351 H 6087.79 0.312152 -0.593972 0
M  V30 59352 H 6090.33 0.337641 -2.01693 0
M  V30 59353 H 6088.49 2.70201 -2.77615 0
M  V30 59354 H 6088.9 1.96429 -4.86329 0
M  V30 59355 H 6090.37 3.55129 -4.22596 0
M  V30 59356 H 6090.85 3.58997 -2.53017 0
M  V30 59357 H 6091.46 2.29099 -3.58321 0
M  V30 59358 N 6089.77 1.47229 0.56227 0
M  V30 59359 C 6091.18 1.47513 1.14441 0
M  V30 59360 C 6091.53 0.227058 1.94882 0
M  V30 59361 O 6090.66 -0.66841 2.05818 0
M  V30 59362 C 6091.25 2.67273 2.08208 0
M  V30 59363 C 6089.81 2.70534 2.61703 0
M  V30 59364 C 6088.96 2.40535 1.37979 0
M  V30 59365 H 6091.91 1.54812 0.349131 0
M  V30 59366 H 6091.93 2.43955 2.92004 0
M  V30 59367 H 6091.44 3.58094 1.49634 0
M  V30 59368 H 6089.55 1.83839 3.2409 0
M  V30 59369 H 6089.66 3.71082 3.03043 0
M  V30 59370 H 6088.02 1.91012 1.68482 0
M  V30 59371 H 6088.81 3.33557 0.81206 0
M  V30 59372 N 6091.25 -0.808591 1.35276 0
M  V30 59373 C 6092.48 -1.59697 1.31547 0
M  V30 59374 C 6092.89 -1.88494 -0.107475 0
M  V30 59375 O 6092.25 -1.48643 -1.05884 0
M  V30 59376 C 6092.3 -2.92942 2.11819 0
M  V30 59377 O 6092.02 -2.65394 3.48565 0
M  V30 59378 C 6093.52 -3.8731 2.15652 0
M  V30 59379 H 6090.74 -0.495945 0.451973 0
M  V30 59380 H 6093.29 -1.00501 1.781 0
M  V30 59381 H 6091.44 -3.48657 1.6887 0
M  V30 59382 H 6091.86 -3.50457 3.9023 0
M  V30 59383 H 6093.33 -4.77923 2.76213 0
M  V30 59384 H 6093.81 -4.23748 1.15473 0
M  V30 59385 H 6094.41 -3.37531 2.58753 0
M  V30 59386 N 6092.73 -1.1924 -1.03051 0
M  V30 59387 C 6093.98 -0.99207 -1.76075 0
M  V30 59388 C 6094.3 0.478468 -1.89039 0
M  V30 59389 O 6093.57 1.34661 -1.42279 0
M  V30 59390 H 6092.15 -0.364082 -0.652268 0
M  V30 59391 H 6094.81 -1.50105 -1.24316 0
M  V30 59392 H 6093.91 -1.43872 -2.76961 0
M  V30 59393 N 6094.21 1.22132 -0.996063 0
M  V30 59394 C 6095.43 1.94976 -0.692241 0
M  V30 59395 C 6095.85 1.73538 0.743635 0
M  V30 59396 O 6095.21 1.03642 1.50215 0
M  V30 59397 C 6095.26 3.47605 -0.99262 0
M  V30 59398 O 6094.98 3.68326 -2.37208 0
M  V30 59399 C 6096.48 4.37627 -0.706943 0
M  V30 59400 H 6093.7 0.620318 -0.255824 0
M  V30 59401 H 6096.24 1.55197 -1.33169 0
M  V30 59402 H 6094.4 3.85341 -0.398921 0
M  V30 59403 H 6094.81 4.62498 -2.47378 0
M  V30 59404 H 6096.29 5.43458 -0.967364 0
M  V30 59405 H 6096.76 4.3773 0.359055 0
M  V30 59406 H 6097.37 4.05523 -1.28184 0
M  V30 59407 N 6095.68 0.76966 1.37528 0
M  V30 59408 C 6096.62 0.112751 2.28923 0
M  V30 59409 C 6097.63 -0.666489 1.48532 0
M  V30 59410 O 6098.82 -0.504926 1.7121 0
M  V30 59411 C 6095.92 -0.863996 3.27702 0
M  V30 59412 C 6095.09 -0.139013 4.37179 0
M  V30 59413 C 6094.15 -1.02882 5.16044 0
M  V30 59414 O 6093.18 -0.493371 5.67058 0
M  V30 59415 N 6094.38 -2.35531 5.30571 0
M  V30 59416 H 6097.14 0.897729 2.85939 0
M  V30 59417 H 6094.7 0.621828 1.49482 0
M  V30 59418 H 6096.7 -1.46265 3.77344 0
M  V30 59419 H 6095.27 -1.54996 2.71468 0
M  V30 59420 H 6094.49 0.640533 3.88961 0
M  V30 59421 H 6095.77 0.362026 5.0751 0
M  V30 59422 H 6095.17 -2.81471 4.90704 0
M  V30 59423 H 6093.73 -2.90409 5.83529 0
M  V30 59424 N 6097.16 -1.48773 0.520029 0
M  V30 59425 C 6098.39 -2.06895 -0.0139256 0
M  V30 59426 C 6098.81 -1.37791 -1.2907 0
M  V30 59427 O 6098.16 -0.46223 -1.76549 0
M  V30 59428 C 6098.21 -3.60621 -0.251872 0
M  V30 59429 O 6097.93 -4.27129 0.974309 0
M  V30 59430 C 6099.44 -4.35511 -0.82733 0
M  V30 59431 H 6096.66 -0.670372 0.0290247 0
M  V30 59432 H 6099.2 -1.91299 0.72283 0
M  V30 59433 H 6097.35 -3.75856 -0.938651 0
M  V30 59434 H 6097.77 -5.19126 0.74888 0
M  V30 59435 H 6099.24 -5.4388 -0.943301 0
M  V30 59436 H 6099.72 -3.99267 -1.82982 0
M  V30 59437 H 6100.33 -4.2493 -0.177429 0
M  V30 59438 N 6098.64 -0.254703 -1.55528 0
M  V30 59439 C 6100.05 0.246977 -1.85059 0
M  V30 59440 C 6100.4 1.57005 -1.1766 0
M  V30 59441 O 6099.53 2.11504 -0.457713 0
M  V30 59442 C 6100.12 0.454899 -3.35732 0
M  V30 59443 C 6098.68 0.900833 -3.65461 0
M  V30 59444 C 6097.83 -0.0175411 -2.77294 0
M  V30 59445 H 6100.78 -0.477058 -1.5136 0
M  V30 59446 H 6100.8 1.29641 -3.57734 0
M  V30 59447 H 6100.31 -0.508211 -3.84758 0
M  V30 59448 H 6098.41 1.87614 -3.21919 0
M  V30 59449 H 6098.53 0.752291 -4.73157 0
M  V30 59450 H 6096.89 0.495208 -2.4984 0
M  V30 59451 H 6097.67 -0.976165 -3.29129 0
M  V30 59452 N 6100.12 1.57589 0.0183095 0
M  V30 59453 C 6101.35 1.94027 0.718423 0
M  V30 59454 C 6101.76 0.85535 1.68313 0
M  V30 59455 O 6101.12 -0.167339 1.81731 0
M  V30 59456 C 6101.17 3.30432 1.46619 0
M  V30 59457 O 6100.89 4.34757 0.540192 0
M  V30 59458 C 6102.39 3.81217 2.26248 0
M  V30 59459 H 6099.61 0.640108 0.201252 0
M  V30 59460 H 6102.16 2.04482 -0.0273654 0
M  V30 59461 H 6100.31 3.21341 2.16376 0
M  V30 59462 H 6100.72 5.13558 1.06575 0
M  V30 59463 H 6102.2 4.79141 2.74095 0
M  V30 59464 H 6102.68 3.12968 3.08136 0
M  V30 59465 H 6103.28 3.93426 1.61544 0
M  V30 59466 N 6101.6 -0.29077 1.54894 0
M  V30 59467 C 6102.82 -1.04338 1.78665 0
M  V30 59468 C 6103.24 -1.80576 0.551147 0
M  V30 59469 O 6102.6 -1.76093 -0.479332 0
M  V30 59470 C 6102.65 -2.01593 3.00071 0
M  V30 59471 O 6102.37 -1.28446 4.18847 0
M  V30 59472 C 6103.87 -2.88811 3.36308 0
M  V30 59473 H 6101.09 -0.308997 0.595619 0
M  V30 59474 H 6103.63 -0.32694 2.0187 0
M  V30 59475 H 6101.79 -2.68725 2.79044 0
M  V30 59476 H 6102.2 -1.93847 4.87364 0
M  V30 59477 H 6103.68 -3.52883 4.24474 0
M  V30 59478 H 6104.15 -3.57651 2.54917 0
M  V30 59479 H 6104.76 -2.27195 3.59531 0
M  V30 59480 N 6103.07 -1.47525 -0.554454 0
M  V30 59481 C 6104.3 -1.57911 -1.33685 0
M  V30 59482 C 6104.72 -0.23031 -1.8739 0
M  V30 59483 O 6104.07 0.776859 -1.6514 0
M  V30 59484 C 6104.13 -2.60653 -2.50484 0
M  V30 59485 O 6103.85 -3.90297 -1.98997 0
M  V30 59486 C 6105.35 -2.8125 -3.42657 0
M  V30 59487 H 6102.57 -0.533153 -0.407417 0
M  V30 59488 H 6105.11 -1.93165 -0.671377 0
M  V30 59489 H 6103.27 -2.28326 -3.12963 0
M  V30 59490 H 6103.68 -4.46461 -2.75269 0
M  V30 59491 H 6105.15 -3.56996 -4.2102 0
M  V30 59492 H 6105.63 -1.89172 -3.96372 0
M  V30 59493 H 6106.24 -3.14785 -2.8599 0
M  V30 59494 N 6104.55 0.801406 -1.35703 0
M  V30 59495 C 6105.96 1.37576 -1.26213 0
M  V30 59496 C 6106.32 1.95928 0.103257 0
M  V30 59497 O 6105.44 1.9168 1.00438 0
M  V30 59498 C 6106.04 2.50114 -2.28536 0
M  V30 59499 C 6104.59 3.03398 -2.22771 0
M  V30 59500 C 6103.74 1.76394 -2.13964 0
M  V30 59501 H 6106.69 0.604018 -1.46756 0
M  V30 59502 H 6106.71 3.28807 -1.91484 0
M  V30 59503 H 6106.23 2.07614 -3.27899 0
M  V30 59504 H 6104.33 3.50348 -1.26835 0
M  V30 59505 H 6104.44 3.61027 -3.14955 0
M  V30 59506 H 6102.8 1.98152 -1.60024 0
M  V30 59507 H 6103.59 1.36039 -3.15196 0
M  V30 59508 N 6106.03 1.19785 1.02417 0
M  V30 59509 C 6107.28 0.997659 1.75299 0
M  V30 59510 C 6107.59 -0.471776 1.89825 0
M  V30 59511 O 6108.8 -0.790908 2.59725 0
M  V30 59512 C 6107.26 1.73619 3.15253 0
M  V30 59513 C 6106.86 3.24605 3.08764 0
M  V30 59514 C 6108.61 1.61941 3.92397 0
M  V30 59515 C 6106.51 3.91028 4.43679 0
M  V30 59516 H 6105.44 0.369666 0.657163 0
M  V30 59517 H 6108.1 1.43329 1.14582 0
M  V30 59518 H 6106.48 1.22839 3.76466 0
M  V30 59519 H 6107.65 3.8254 2.56904 0
M  V30 59520 H 6105.97 3.36612 2.45115 0
M  V30 59521 H 6108.56 2.08913 4.92199 0
M  V30 59522 H 6108.91 0.574337 4.12319 0
M  V30 59523 H 6109.44 2.10092 3.37796 0
M  V30 59524 H 6106.18 4.95654 4.28961 0
M  V30 59525 H 6105.7 3.37882 4.95576 0
M  V30 59526 H 6107.38 3.94846 5.12548 0
M  V30 59527 N 6107.51 -1.21603 1.00253 0
M  V30 59528 C 6108.74 -1.94606 0.702571 0
M  V30 59529 C 6109.15 -1.7393 -0.734422 0
M  V30 59530 O 6108.51 -1.04437 -1.49663 0
M  V30 59531 C 6108.56 -3.47074 1.01104 0
M  V30 59532 O 6108.28 -3.67063 2.39158 0
M  V30 59533 C 6109.78 -4.37246 0.730142 0
M  V30 59534 H 6107 -0.618953 0.25911 0
M  V30 59535 H 6109.55 -1.54489 1.3399 0
M  V30 59536 H 6107.7 -3.85124 0.419351 0
M  V30 59537 H 6108.12 -4.61179 2.49828 0
M  V30 59538 H 6109.59 -5.42937 0.996171 0
M  V30 59539 H 6110.07 -4.37914 -0.335836 0
M  V30 59540 H 6110.67 -4.04838 1.30333 0
M  V30 59541 N 6108.99 -0.776943 -1.37118 0
M  V30 59542 C 6110.22 -0.355168 -2.03829 0
M  V30 59543 C 6110.63 1.02436 -1.58595 0
M  V30 59544 O 6109.99 1.6548 -0.769591 0
M  V30 59545 C 6110.04 -0.395111 -3.59334 0
M  V30 59546 O 6109.76 -1.72022 -4.02914 0
M  V30 59547 C 6111.26 0.0376077 -4.43284 0
M  V30 59548 H 6108.48 -0.148079 -0.654457 0
M  V30 59549 H 6111.02 -1.05231 -1.75347 0
M  V30 59550 H 6109.18 0.253503 -3.8657 0
M  V30 59551 H 6109.59 -1.66242 -4.97457 0
M  V30 59552 H 6111.07 -0.0414897 -5.51984 0
M  V30 59553 H 6111.54 1.08866 -4.25494 0
M  V30 59554 H 6112.15 -0.583015 -4.21285 0
M  V30 59555 N 6110.47 1.48495 -0.527912 0
M  V30 59556 C 6111.69 2.069 0.0029532 0
M  V30 59557 C 6112.11 1.38473 1.28338 0
M  V30 59558 O 6111.47 0.471586 1.76302 0
M  V30 59559 C 6111.52 3.6075 0.232744 0
M  V30 59560 O 6111.24 4.26606 -0.996946 0
M  V30 59561 C 6112.74 4.35944 0.804222 0
M  V30 59562 H 6109.96 0.670209 -0.0325794 0
M  V30 59563 H 6112.5 1.90913 -0.732965 0
M  V30 59564 H 6110.66 3.76349 0.918705 0
M  V30 59565 H 6111.07 5.18722 -0.7764 0
M  V30 59566 H 6112.55 5.44373 0.914444 0
M  V30 59567 H 6113.02 4.00232 1.80862 0
M  V30 59568 H 6113.63 4.25018 0.154891 0
M  V30 59569 N 6111.94 0.262948 1.55391 0
M  V30 59570 C 6113.17 -0.360986 2.03727 0
M  V30 59571 C 6113.59 -1.50366 1.14173 0
M  V30 59572 O 6112.94 -1.81803 0.159348 0
M  V30 59573 C 6112.99 -0.853574 3.51278 0
M  V30 59574 O 6112.72 0.243585 4.37422 0
M  V30 59575 C 6114.22 -1.54657 4.15447 0
M  V30 59576 H 6111.44 -0.0839038 0.665734 0
M  V30 59577 H 6113.98 0.391495 2.00718 0
M  V30 59578 H 6112.14 -1.55618 3.5477 0
M  V30 59579 H 6112.55 -0.133057 5.24331 0
M  V30 59580 H 6114.02 -1.84278 5.20332 0
M  V30 59581 H 6114.5 -2.474 3.62891 0
M  V30 59582 H 6115.11 -0.888123 4.15924 0
M  V30 59583 N 6113.42 -1.57597 -0.00995191 0
M  V30 59584 C 6114.65 -1.94405 -0.708123 0
M  V30 59585 C 6115.06 -0.864264 -1.67857 0
M  V30 59586 O 6114.42 0.157699 -1.81817 0
M  V30 59587 C 6114.47 -3.31205 -1.44864 0
M  V30 59588 O 6114.19 -4.35037 -0.517128 0
M  V30 59589 C 6115.69 -3.82412 -2.24223 0
M  V30 59590 H 6112.91 -0.641167 -0.197855 0
M  V30 59591 H 6115.46 -2.04464 0.0382092 0
M  V30 59592 H 6113.61 -3.22484 -2.14669 0
M  V30 59593 H 6114.03 -5.14116 -1.0385 0
M  V30 59594 H 6115.5 -4.80588 -2.7155 0
M  V30 59595 H 6115.98 -3.14598 -3.06472 0
M  V30 59596 H 6116.58 -3.94277 -1.59455 0
M  V30 59597 N 6114.9 0.282551 -1.55046 0
M  V30 59598 C 6116.15 1.01691 -1.75461 0
M  V30 59599 C 6116.48 1.86282 -0.548873 0
M  V30 59600 O 6115.75 1.89133 0.453754 0
M  V30 59601 C 6116.04 1.90748 -3.05429 0
M  V30 59602 C 6115.89 1.09215 -4.3634 0
M  V30 59603 C 6117.21 2.89619 -3.31375 0
M  V30 59604 H 6114.33 0.368283 -0.638386 0
M  V30 59605 H 6116.97 0.290052 -1.87773 0
M  V30 59606 H 6115.12 2.52724 -2.95064 0
M  V30 59607 H 6116.79 0.493835 -4.58649 0
M  V30 59608 H 6115.03 0.39533 -4.31995 0
M  V30 59609 H 6115.71 1.74824 -5.23584 0
M  V30 59610 H 6118.18 2.37776 -3.4147 0
M  V30 59611 H 6117.06 3.49081 -4.23596 0
M  V30 59612 H 6117.32 3.64246 -2.50554 0
M  V30 59613 N 6116.38 1.47817 0.546623 0
M  V30 59614 C 6117.61 1.58618 1.32845 0
M  V30 59615 C 6118.02 0.240245 1.87265 0
M  V30 59616 O 6117.38 -0.76809 1.65549 0
M  V30 59617 C 6117.43 2.61978 2.49098 0
M  V30 59618 O 6117.15 3.91347 1.96925 0
M  V30 59619 C 6118.65 2.83063 3.4116 0
M  V30 59620 H 6115.87 0.535306 0.404584 0
M  V30 59621 H 6118.41 1.93518 0.661124 0
M  V30 59622 H 6116.57 2.29982 3.11748 0
M  V30 59623 H 6116.98 4.47914 2.72897 0
M  V30 59624 H 6118.46 3.59223 4.19121 0
M  V30 59625 H 6118.93 1.91272 3.95363 0
M  V30 59626 H 6119.54 3.16297 2.84317 0
M  V30 59627 N 6117.86 -0.794198 1.36126 0
M  V30 59628 C 6119.27 -1.36905 1.26941 0
M  V30 59629 C 6119.62 -1.9598 -0.0928648 0
M  V30 59630 O 6118.74 -1.9221 -0.994199 0
M  V30 59631 C 6119.34 -2.48898 2.29859 0
M  V30 59632 C 6117.9 -3.02212 2.24377 0
M  V30 59633 C 6117.04 -1.75257 2.14896 0
M  V30 59634 H 6119.99 -0.596227 1.47074 0
M  V30 59635 H 6120.02 -3.27787 1.93225 0
M  V30 59636 H 6119.53 -2.05872 3.28996 0
M  V30 59637 H 6117.63 -3.4967 1.28691 0
M  V30 59638 H 6117.74 -3.59352 3.16865 0
M  V30 59639 H 6116.11 -1.97301 1.61073 0
M  V30 59640 H 6116.89 -1.34365 3.15913 0
M  V30 59641 N 6119.33 -1.20327 -1.0178 0
M  V30 59642 C 6120.56 -1.03828 -1.78962 0
M  V30 59643 C 6120.98 0.412557 -1.84237 0
M  V30 59644 O 6120.33 1.28646 -1.29447 0
M  V30 59645 C 6120.39 -1.61363 -3.23487 0
M  V30 59646 O 6120.11 -3.00769 -3.18543 0
M  V30 59647 C 6121.61 -1.498 -4.17223 0
M  V30 59648 H 6118.83 -0.365311 -0.56284 0
M  V30 59649 H 6121.37 -1.59387 -1.28125 0
M  V30 59650 H 6119.53 -1.09926 -3.71477 0
M  V30 59651 H 6119.94 -3.28048 -4.09249 0
M  V30 59652 H 6121.41 -1.94821 -5.16477 0
M  V30 59653 H 6121.89 -0.450296 -4.36886 0
M  V30 59654 H 6122.5 -2.00422 -3.75115 0
M  V30 59655 N 6120.81 1.21069 -1.00896 0
M  V30 59656 C 6122.22 1.71979 -0.726637 0
M  V30 59657 C 6122.57 1.81074 0.755422 0
M  V30 59658 O 6121.7 1.46802 1.58991 0
M  V30 59659 C 6122.29 3.1235 -1.31237 0
M  V30 59660 C 6120.85 3.60601 -1.07908 0
M  V30 59661 C 6120 2.38019 -1.42276 0
M  V30 59662 H 6122.95 1.0619 -1.17938 0
M  V30 59663 H 6122.97 3.74024 -0.699031 0
M  V30 59664 H 6122.48 3.05698 -2.39103 0
M  V30 59665 H 6120.59 3.72596 -0.0177478 0
M  V30 59666 H 6120.7 4.45848 -1.75376 0
M  V30 59667 H 6119.06 2.40393 -0.841615 0
M  V30 59668 H 6119.85 2.34015 -2.51181 0
M  V30 59669 N 6122.29 0.784204 1.36704 0
M  V30 59670 C 6123.52 0.365973 2.03638 0
M  V30 59671 C 6123.93 -1.01593 1.59136 0
M  V30 59672 O 6123.29 -1.65069 0.778356 0
M  V30 59673 C 6123.34 0.414161 3.5912 0
M  V30 59674 O 6123.06 1.74156 4.01996 0
M  V30 59675 C 6124.56 -0.0140988 4.43298 0
M  V30 59676 H 6121.78 0.151548 0.653662 0
M  V30 59677 H 6124.33 1.0616 1.74787 0
M  V30 59678 H 6122.48 -0.232998 3.86699 0
M  V30 59679 H 6122.9 1.68878 4.96569 0
M  V30 59680 H 6124.37 0.0707622 5.51955 0
M  V30 59681 H 6124.85 -1.06608 4.26065 0
M  V30 59682 H 6125.45 0.605349 4.2097 0
M  V30 59683 N 6123.77 -1.48213 0.535779 0
M  V30 59684 C 6125.18 -1.86449 0.0968089 0
M  V30 59685 C 6125.53 -1.44474 -1.32747 0
M  V30 59686 O 6124.66 -0.838059 -1.99513 0
M  V30 59687 C 6125.25 -3.38379 0.16891 0
M  V30 59688 C 6123.81 -3.75786 -0.214898 0
M  V30 59689 C 6122.96 -2.72264 0.526091 0
M  V30 59690 H 6125.91 -1.40035 0.74671 0
M  V30 59691 H 6125.93 -3.75449 -0.617938 0
M  V30 59692 H 6125.44 -3.68899 1.20563 0
M  V30 59693 H 6123.54 -3.5088 -1.25354 0
M  V30 59694 H 6123.65 -4.78927 0.128747 0
M  V30 59695 H 6122.02 -2.54684 -0.0283325 0
M  V30 59696 H 6122.8 -3.05627 1.56355 0
M  V30 59697 N 6125.25 -0.271185 -1.55249 0
M  V30 59698 C 6126.47 0.350176 -2.03915 0
M  V30 59699 C 6126.89 1.49759 -1.14969 0
M  V30 59700 O 6126.25 1.81716 -0.168987 0
M  V30 59701 C 6126.3 0.834933 -3.51726 0
M  V30 59702 O 6126.02 -0.266779 -4.37287 0
M  V30 59703 C 6127.52 1.52451 -4.16261 0
M  V30 59704 H 6124.74 0.080372 -0.666169 0
M  V30 59705 H 6127.28 -0.402134 -2.00507 0
M  V30 59706 H 6125.44 1.53734 -3.5559 0
M  V30 59707 H 6125.85 0.105248 -5.24394 0
M  V30 59708 H 6127.33 1.81516 -5.21302 0
M  V30 59709 H 6127.8 2.45472 -3.64198 0
M  V30 59710 H 6128.41 0.866053 -4.16389 0
M  V30 59711 N 6126.72 1.576 0.00159402 0
M  V30 59712 C 6127.97 1.90122 0.685419 0
M  V30 59713 C 6128.29 0.872306 1.74401 0
M  V30 59714 O 6127.56 -0.0905032 1.95691 0
M  V30 59715 H 6126.14 0.701708 0.256153 0
M  V30 59716 H 6128.81 1.94861 -0.0389551 0
M  V30 59717 H 6127.9 2.89835 1.15768 0
M  V30 59718 N 6128.2 -0.274325 1.55194 0
M  V30 59719 C 6129.43 -1.02437 1.79762 0
M  V30 59720 C 6129.85 -1.79982 0.570268 0
M  V30 59721 O 6129.2 -1.76591 -0.460628 0
M  V30 59722 C 6129.25 -1.98399 3.02192 0
M  V30 59723 O 6128.97 -1.23997 4.20186 0
M  V30 59724 C 6130.48 -2.85227 3.39353 0
M  V30 59725 H 6127.7 -0.302663 0.598862 0
M  V30 59726 H 6130.24 -0.30551 2.02205 0
M  V30 59727 H 6128.39 -2.6575 2.81879 0
M  V30 59728 H 6128.81 -1.88667 4.89393 0
M  V30 59729 H 6130.28 -3.48361 4.28193 0
M  V30 59730 H 6130.76 -3.54927 2.58696 0
M  V30 59731 H 6131.37 -2.23369 3.6192 0
M  V30 59732 N 6129.68 -1.48105 -0.538776 0
M  V30 59733 C 6130.61 -1.5805 -1.65991 0
M  V30 59734 C 6131.63 -0.46537 -1.56007 0
M  V30 59735 O 6132.81 -0.735826 -1.62628 0
M  V30 59736 C 6129.91 -1.48598 -3.04585 0
M  V30 59737 C 6129.09 -2.74999 -3.40138 0
M  V30 59738 C 6128.15 -2.59125 -4.57975 0
M  V30 59739 O 6127.17 -3.3299 -4.61634 0
M  V30 59740 N 6128.37 -1.68162 -5.55609 0
M  V30 59741 H 6131.14 -2.54731 -1.57899 0
M  V30 59742 H 6128.7 -1.44717 -0.72585 0
M  V30 59743 H 6130.69 -1.35686 -3.81276 0
M  V30 59744 H 6129.26 -0.599265 -3.06802 0
M  V30 59745 H 6128.48 -3.0254 -2.52712 0
M  V30 59746 H 6129.77 -3.58875 -3.60674 0
M  V30 59747 H 6129.17 -1.07336 -5.55424 0
M  V30 59748 H 6127.73 -1.61193 -6.31554 0
M  V30 59749 N 6131.16 0.786968 -1.36545 0
M  V30 59750 C 6132.39 1.57584 -1.34071 0
M  V30 59751 C 6132.8 1.88641 0.0774733 0
M  V30 59752 O 6132.16 1.50309 1.03506 0
M  V30 59753 C 6132.21 2.89535 -2.16452 0
M  V30 59754 O 6131.93 2.59815 -3.52743 0
M  V30 59755 C 6133.43 3.8383 -2.21786 0
M  V30 59756 H 6130.65 0.488691 -0.459806 0
M  V30 59757 H 6133.2 0.976551 -1.79677 0
M  V30 59758 H 6131.35 3.45926 -1.74395 0
M  V30 59759 H 6131.76 3.44205 -3.95757 0
M  V30 59760 H 6133.24 4.73468 -2.83781 0
M  V30 59761 H 6133.72 4.21858 -1.222 0
M  V30 59762 H 6134.32 3.33372 -2.6409 0
M  V30 59763 N 6132.64 1.20865 1.01141 0
M  V30 59764 C 6134.05 1.02161 1.56269 0
M  V30 59765 C 6134.4 -0.420485 1.91641 0
M  V30 59766 O 6133.52 -1.3027 1.72796 0
M  V30 59767 C 6134.12 1.84822 2.83947 0
M  V30 59768 C 6132.68 1.7047 3.35585 0
M  V30 59769 C 6131.82 1.82432 2.08839 0
M  V30 59770 H 6134.78 1.34981 0.834621 0
M  V30 59771 H 6134.8 1.35467 3.55568 0
M  V30 59772 H 6134.31 2.89774 2.58171 0
M  V30 59773 H 6132.41 0.681759 3.6631 0
M  V30 59774 H 6132.52 2.52055 4.07437 0
M  V30 59775 H 6130.89 1.25672 2.21537 0
M  V30 59776 H 6131.67 2.88879 1.85483 0
M  V30 59777 N 6134.12 -1.20532 1.01537 0
M  V30 59778 C 6135.34 -1.9385 0.723172 0
M  V30 59779 C 6135.76 -1.74699 -0.715933 0
M  V30 59780 O 6135.12 -1.06019 -1.48547 0
M  V30 59781 C 6135.17 -3.45982 1.0478 0
M  V30 59782 O 6134.89 -3.64506 2.43037 0
M  V30 59783 C 6136.39 -4.36447 0.776477 0
M  V30 59784 H 6133.61 -0.61617 0.26566 0
M  V30 59785 H 6136.15 -1.53059 1.35621 0
M  V30 59786 H 6134.31 -3.84657 0.460175 0
M  V30 59787 H 6134.72 -4.58504 2.54705 0
M  V30 59788 H 6136.2 -5.4185 1.0537 0
M  V30 59789 H 6136.67 -4.38246 -0.28937 0
M  V30 59790 H 6137.28 -4.03432 1.34619 0
M  V30 59791 N 6135.59 -0.791442 -1.36286 0
M  V30 59792 C 6136.82 -0.376767 -2.03441 0
M  V30 59793 C 6137.24 1.00748 -1.59673 0
M  V30 59794 O 6136.59 1.64654 -0.787099 0
M  V30 59795 C 6136.64 -0.433201 -3.58895 0
M  V30 59796 O 6136.37 -1.76286 -4.01067 0
M  V30 59797 C 6137.87 -0.00941059 -4.43299 0
M  V30 59798 H 6135.09 -0.155012 -0.652849 0
M  V30 59799 H 6137.63 -1.07085 -1.74221 0
M  V30 59800 H 6135.79 0.212487 -3.86817 0
M  V30 59801 H 6136.2 -1.71509 -4.95666 0
M  V30 59802 H 6137.67 -0.100033 -5.51909 0
M  V30 59803 H 6138.15 1.04347 -4.26624 0
M  V30 59804 H 6138.76 -0.627665 -4.20643 0
M  V30 59805 N 6137.07 1.47927 -0.543632 0
M  V30 59806 C 6138.3 2.06891 -0.0189915 0
M  V30 59807 C 6138.71 1.39827 1.26862 0
M  V30 59808 O 6138.07 0.490259 1.75792 0
M  V30 59809 C 6138.12 3.60977 0.194468 0
M  V30 59810 O 6137.84 4.25525 -1.04214 0
M  V30 59811 C 6139.34 4.36772 0.757939 0
M  V30 59812 H 6136.56 0.669825 -0.0396861 0
M  V30 59813 H 6139.11 1.90125 -0.753172 0
M  V30 59814 H 6137.26 3.77302 0.878736 0
M  V30 59815 H 6137.68 5.17869 -0.831373 0
M  V30 59816 H 6139.15 5.45312 0.856654 0
M  V30 59817 H 6139.63 4.02128 1.76607 0
M  V30 59818 H 6140.23 4.25158 0.109804 0
M  V30 59819 N 6138.55 0.279414 1.55103 0
M  V30 59820 C 6139.96 -0.217504 1.85429 0
M  V30 59821 C 6140.31 -1.55113 1.20143 0
M  V30 59822 O 6139.44 -2.10749 0.491303 0
M  V30 59823 C 6140.03 -0.401429 3.36413 0
M  V30 59824 C 6138.59 -0.842577 3.66848 0
M  V30 59825 C 6137.74 0.061654 2.77231 0
M  V30 59826 H 6140.69 0.501078 1.50582 0
M  V30 59827 H 6140.71 -1.23933 3.59751 0
M  V30 59828 H 6140.22 0.569359 3.83901 0
M  V30 59829 H 6138.32 -1.82468 3.24863 0
M  V30 59830 H 6138.44 -0.676921 4.74294 0
M  V30 59831 H 6136.8 -0.455398 2.50596 0
M  V30 59832 H 6137.58 1.0284 3.27534 0
M  V30 59833 N 6140.03 -1.57599 0.00676391 0
M  V30 59834 C 6141.28 -1.90038 -0.675891 0
M  V30 59835 C 6141.59 -0.88251 -1.7456 0
M  V30 59836 O 6142.8 -1.09736 -2.48335 0
M  V30 59837 C 6141.25 -3.3737 -1.25337 0
M  V30 59838 C 6140.86 -4.47469 -0.218126 0
M  V30 59839 C 6142.6 -3.7891 -1.91382 0
M  V30 59840 C 6140.51 -5.85882 -0.805976 0
M  V30 59841 H 6139.44 -0.709134 -0.256212 0
M  V30 59842 H 6142.09 -1.83372 0.0684147 0
M  V30 59843 H 6140.47 -3.38895 -2.04856 0
M  V30 59844 H 6141.65 -4.5747 0.552969 0
M  V30 59845 H 6139.96 -4.14991 0.342277 0
M  V30 59846 H 6142.56 -4.79662 -2.3628 0
M  V30 59847 H 6142.9 -3.12782 -2.74723 0
M  V30 59848 H 6143.44 -3.79713 -1.18587 0
M  V30 59849 H 6140.17 -6.55499 -0.011197 0
M  V30 59850 H 6139.69 -5.79531 -1.54607 0
M  V30 59851 H 6141.37 -6.33753 -1.30256 0
M  V30 59852 N 6141.51 0.266091 -1.55337 0
M  V30 59853 C 6142.73 1.01482 -1.80302 0
M  V30 59854 C 6143.15 1.79677 -0.579805 0
M  V30 59855 O 6142.51 1.76833 0.451257 0
M  V30 59856 C 6142.56 1.96794 -3.0324 0
M  V30 59857 O 6142.28 1.21767 -4.20838 0
M  V30 59858 C 6143.78 2.83424 -3.40861 0
M  V30 59859 H 6141 0.299483 -0.600459 0
M  V30 59860 H 6143.54 0.294782 -2.02364 0
M  V30 59861 H 6141.7 2.64252 -2.83284 0
M  V30 59862 H 6142.11 1.86069 -4.90386 0
M  V30 59863 H 6143.59 3.46085 -4.30034 0
M  V30 59864 H 6144.06 3.5355 -2.60575 0
M  V30 59865 H 6144.67 2.21447 -3.631 0
M  V30 59866 N 6142.98 1.48388 0.530914 0
M  V30 59867 C 6144.21 1.60018 1.31156 0
M  V30 59868 C 6144.63 0.260093 1.87 0
M  V30 59869 O 6143.98 -0.750488 1.66355 0
M  V30 59870 C 6144.03 2.64605 2.46305 0
M  V30 59871 O 6143.76 3.93413 1.92763 0
M  V30 59872 C 6145.26 2.86665 3.38139 0
M  V30 59873 H 6142.48 0.539567 0.398884 0
M  V30 59874 H 6145.02 1.94209 0.640562 0
M  V30 59875 H 6143.18 2.33276 3.09291 0
M  V30 59876 H 6143.59 4.50784 2.68131 0
M  V30 59877 H 6145.06 3.63649 4.15288 0
M  V30 59878 H 6145.54 1.95454 3.93312 0
M  V30 59879 H 6146.15 3.19295 2.80946 0
M  V30 59880 N 6144.46 -0.779715 1.36961 0
M  V30 59881 C 6145.69 -1.5687 1.34905 0
M  V30 59882 C 6146.1 -1.88679 -0.0674682 0
M  V30 59883 O 6145.46 -1.50856 -1.02707 0
M  V30 59884 C 6145.51 -2.88383 2.17985 0
M  V30 59885 O 6145.23 -2.57941 3.54116 0
M  V30 59886 C 6146.73 -3.82649 2.23819 0
M  V30 59887 H 6143.95 -0.486246 0.462391 0
M  V30 59888 H 6146.5 -0.967008 1.80192 0
M  V30 59889 H 6144.65 -3.44997 1.76227 0
M  V30 59890 H 6145.07 -3.42101 3.97576 0
M  V30 59891 H 6146.54 -4.71957 2.86288 0
M  V30 59892 H 6147.02 -4.21204 1.24435 0
M  V30 59893 H 6147.62 -3.31966 2.65854 0
M  V30 59894 N 6145.94 -1.21399 -1.00498 0
M  V30 59895 C 6147.17 -1.0572 -1.77851 0
M  V30 59896 C 6147.58 0.392993 -1.84665 0
M  V30 59897 O 6146.94 1.27265 -1.30804 0
M  V30 59898 C 6146.99 -1.64785 -3.21758 0
M  V30 59899 O 6146.71 -3.04131 -3.15335 0
M  V30 59900 C 6148.21 -1.54217 -4.1561 0
M  V30 59901 H 6145.43 -0.37126 -0.558934 0
M  V30 59902 H 6147.98 -1.60737 -1.26427 0
M  V30 59903 H 6146.13 -1.1386 -3.7029 0
M  V30 59904 H 6146.55 -3.3237 -4.05747 0
M  V30 59905 H 6148.02 -2.00288 -5.14382 0
M  V30 59906 H 6148.5 -0.496608 -4.36383 0
M  V30 59907 H 6149.1 -2.0439 -3.72968 0
M  V30 59908 N 6147.42 1.19992 -1.02175 0
M  V30 59909 C 6148.65 1.93464 -0.733442 0
M  V30 59910 C 6149.06 1.75077 0.706658 0
M  V30 59911 O 6148.42 1.06805 1.47983 0
M  V30 59912 C 6148.47 3.45421 -1.06613 0
M  V30 59913 O 6148.19 3.63212 -2.44967 0
M  V30 59914 C 6149.69 4.36029 -0.799612 0
M  V30 59915 H 6146.91 0.614753 -0.268924 0
M  V30 59916 H 6149.45 1.52338 -1.36431 0
M  V30 59917 H 6147.61 3.84408 -0.480567 0
M  V30 59918 H 6148.02 4.57146 -2.57133 0
M  V30 59919 H 6149.5 5.41283 -1.08242 0
M  V30 59920 H 6149.97 4.38393 0.266125 0
M  V30 59921 H 6150.58 4.02713 -1.36757 0
M  V30 59922 N 6148.9 0.798659 1.35865 0
M  V30 59923 C 6150.14 0.375886 1.99286 0
M  V30 59924 C 6150.48 -1.05217 1.63227 0
M  V30 59925 O 6149.75 -1.72859 0.891637 0
M  V30 59926 C 6150.03 0.550322 3.5587 0
M  V30 59927 C 6149.89 2.02274 4.01753 0
M  V30 59928 C 6151.21 -0.0289314 4.4009 0
M  V30 59929 H 6148.32 0.13805 0.723955 0
M  V30 59930 H 6150.97 1.00672 1.61137 0
M  V30 59931 H 6149.12 0.0133104 3.88498 0
M  V30 59932 H 6150.79 2.62152 3.79571 0
M  V30 59933 H 6149.03 2.52203 3.52953 0
M  V30 59934 H 6149.7 2.09571 5.1067 0
M  V30 59935 H 6152.18 0.429589 4.13876 0
M  V30 59936 H 6151.05 0.123087 5.48762 0
M  V30 59937 H 6151.32 -1.12191 4.27628 0
M  V30 59938 N 6150.37 -1.47637 0.551469 0
M  V30 59939 C 6151.6 -2.06878 0.0299631 0
M  V30 59940 C 6152.02 -1.40498 -1.26118 0
M  V30 59941 O 6151.37 -0.499574 -1.75529 0
M  V30 59942 C 6151.43 -3.61075 -0.175322 0
M  V30 59943 O 6151.15 -4.24966 1.06469 0
M  V30 59944 C 6152.65 -4.37168 -0.734766 0
M  V30 59945 H 6149.87 -0.669605 0.0432377 0
M  V30 59946 H 6152.41 -1.89723 0.763244 0
M  V30 59947 H 6150.57 -3.77763 -0.858715 0
M  V30 59948 H 6150.98 -5.17421 0.858826 0
M  V30 59949 H 6152.45 -5.45759 -0.827723 0
M  V30 59950 H 6152.93 -4.03059 -1.74472 0
M  V30 59951 H 6153.54 -4.2521 -0.087255 0
M  V30 59952 N 6151.85 -0.287636 -1.54953 0
M  V30 59953 C 6153.26 0.207667 -1.85541 0
M  V30 59954 C 6153.61 1.54474 -1.20964 0
M  V30 59955 O 6152.74 2.10486 -0.502473 0
M  V30 59956 C 6153.33 0.383582 -3.36622 0
M  V30 59957 C 6151.89 0.82311 -3.6729 0
M  V30 59958 C 6151.04 -0.0763554 -2.77195 0
M  V30 59959 H 6153.99 -0.509057 -1.50314 0
M  V30 59960 H 6154.01 1.22024 -3.60403 0
M  V30 59961 H 6153.52 -0.58971 -3.83594 0
M  V30 59962 H 6151.63 1.80743 -3.25826 0
M  V30 59963 H 6151.74 0.651759 -4.74646 0
M  V30 59964 H 6150.1 0.442102 -2.50834 0
M  V30 59965 H 6150.89 -1.04576 -3.26984 0
M  V30 59966 N 6153.33 1.57593 -0.0151216 0
M  V30 59967 C 6154.56 1.95507 0.677106 0
M  V30 59968 C 6154.97 0.890859 1.66461 0
M  V30 59969 O 6154.33 -0.128754 1.82045 0
M  V30 59970 C 6154.38 3.33467 1.39577 0
M  V30 59971 O 6154.1 4.35805 0.447852 0
M  V30 59972 C 6155.6 3.85931 2.18111 0
M  V30 59973 H 6152.82 0.644233 0.187629 0
M  V30 59974 H 6155.37 2.04378 -0.0707329 0
M  V30 59975 H 6153.52 3.25858 2.09511 0
M  V30 59976 H 6153.94 5.15703 0.956575 0
M  V30 59977 H 6155.41 4.84847 2.6387 0
M  V30 59978 H 6155.89 3.19434 3.01428 0
M  V30 59979 H 6156.49 3.96764 1.53162 0
M  V30 59980 N 6154.81 -0.257849 1.55476 0
M  V30 59981 C 6156.22 -0.827761 1.67347 0
M  V30 59982 C 6156.57 -1.86458 0.61056 0
M  V30 59983 O 6155.7 -2.15006 -0.245199 0
M  V30 59984 C 6156.29 -1.50819 3.03379 0
M  V30 59985 C 6154.85 -2.02594 3.17227 0
M  V30 59986 C 6154 -0.873211 2.63193 0
M  V30 59987 H 6156.95 -0.0338776 1.58664 0
M  V30 59988 H 6156.97 -2.3758 2.97214 0
M  V30 59989 H 6156.48 -0.753335 3.80718 0
M  V30 59990 H 6154.58 -2.80994 2.4469 0
M  V30 59991 H 6154.69 -2.23084 4.23993 0
M  V30 59992 H 6153.06 -1.27074 2.20736 0
M  V30 59993 H 6153.84 -0.131618 3.43048 0
M  V30 59994 N 6156.29 -1.48668 -0.523038 0
M  V30 59995 C 6157.51 -1.60712 -1.30305 0
M  V30 59996 C 6157.93 -0.270007 -1.86859 0
M  V30 59997 O 6157.29 0.741656 -1.6675 0
M  V30 59998 C 6157.34 -2.65908 -2.44899 0
M  V30 59999 O 6157.06 -3.9443 -1.90674 0
M  V30 60000 C 6158.56 -2.88455 -3.36614 0
M  V30 60001 H 6155.78 -0.541675 -0.396016 0
M  V30 60002 H 6158.32 -1.94546 -0.630253 0
M  V30 60003 H 6156.48 -2.34913 -3.0805 0
M  V30 60004 H 6156.89 -4.52199 -2.65737 0
M  V30 60005 H 6158.37 -3.65846 -4.13353 0
M  V30 60006 H 6158.84 -1.97538 -3.9227 0
M  V30 60007 H 6159.45 -3.20781 -2.79249 0
M  V30 60008 N 6157.76 0.772441 -1.37372 0
M  V30 60009 C 6159.18 1.34868 -1.29103 0
M  V30 60010 C 6159.53 1.96103 0.0616743 0
M  V30 60011 O 6158.65 1.93767 0.963494 0
M  V30 60012 C 6159.25 2.4521 -2.33789 0
M  V30 60013 C 6157.81 2.98604 -2.29156 0
M  V30 60014 C 6156.95 1.71816 -2.17657 0
M  V30 60015 H 6159.9 0.572753 -1.48004 0
M  V30 60016 H 6159.92 3.24672 -1.98415 0
M  V30 60017 H 6159.44 2.00612 -3.32229 0
M  V30 60018 H 6157.54 3.47579 -1.34238 0
M  V30 60019 H 6157.65 3.54265 -3.22542 0
M  V30 60020 H 6156.01 1.94713 -1.64191 0
M  V30 60021 H 6156.8 1.29323 -3.1801 0
M  V30 60022 N 6159.24 1.21931 0.998532 0
M  V30 60023 C 6160.47 1.06662 1.77288 0
M  V30 60024 C 6160.89 -0.383195 1.8487 0
M  V30 60025 O 6160.24 -1.2657 1.31477 0
M  V30 60026 C 6160.29 1.66489 3.20879 0
M  V30 60027 O 6160.01 3.05799 3.13718 0
M  V30 60028 C 6161.52 1.56419 4.14787 0
M  V30 60029 H 6158.74 0.374219 0.556957 0
M  V30 60030 H 6161.28 1.61405 1.25573 0
M  V30 60031 H 6159.43 1.15822 3.69681 0
M  V30 60032 H 6159.85 3.34517 4.03978 0
M  V30 60033 H 6161.32 2.03013 5.13313 0
M  V30 60034 H 6161.8 0.519744 4.36114 0
M  V30 60035 H 6162.41 2.06365 3.71879 0
M  V30 60036 N 6160.72 -1.19449 1.02809 0
M  V30 60037 C 6161.97 -1.88738 0.722665 0
M  V30 60038 C 6162.29 -1.7996 -0.750964 0
M  V30 60039 O 6161.56 -1.20954 -1.541 0
M  V30 60040 H 6160.14 -0.698674 0.264318 0
M  V30 60041 H 6162.8 -1.45017 1.30216 0
M  V30 60042 H 6161.9 -2.9509 1.01628 0
M  V30 60043 N 6162.2 -0.805853 -1.35439 0
M  V30 60044 C 6163.43 -0.398324 -2.0303 0
M  V30 60045 C 6163.84 0.990486 -1.60732 0
M  V30 60046 O 6163.2 1.6381 -0.804519 0
M  V30 60047 C 6163.25 -0.471242 -3.58415 0
M  V30 60048 O 6162.97 -1.8053 -3.99175 0
M  V30 60049 C 6164.47 -0.0564278 -4.43264 0
M  V30 60050 H 6161.69 -0.161928 -0.651168 0
M  V30 60051 H 6164.24 -1.08927 -1.73076 0
M  V30 60052 H 6162.39 0.171448 -3.8702 0
M  V30 60053 H 6162.8 -1.76757 -4.93819 0
M  V30 60054 H 6164.28 -0.158564 -5.51772 0
M  V30 60055 H 6164.76 0.998158 -4.27707 0
M  V30 60056 H 6165.36 -0.672245 -4.19954 0
M  V30 60057 N 6163.68 1.47342 -0.559291 0
M  V30 60058 C 6164.61 2.28095 0.224745 0
M  V30 60059 C 6165.62 1.3713 0.877444 0
M  V30 60060 O 6166.81 1.61935 0.750945 0
M  V30 60061 C 6163.91 3.11455 1.336 0
M  V30 60062 C 6163.08 4.30395 0.779694 0
M  V30 60063 C 6162.14 4.95334 1.7757 0
M  V30 60064 O 6161.17 5.53659 1.32099 0
M  V30 60065 N 6162.37 4.90217 3.10914 0
M  V30 60066 H 6165.14 2.96024 -0.467964 0
M  V30 60067 H 6162.7 1.56995 -0.395503 0
M  V30 60068 H 6164.69 3.51765 2.00108 0
M  V30 60069 H 6163.26 2.45756 1.93191 0
M  V30 60070 H 6162.48 3.94151 -0.0622247 0
M  V30 60071 H 6163.77 5.07323 0.387403 0
M  V30 60072 H 6163.17 4.44035 3.50499 0
M  V30 60073 H 6161.72 5.3454 3.72975 0
M  V30 60074 N 6165.16 0.295849 1.54798 0
M  V30 60075 C 6166.38 -0.317691 2.04446 0
M  V30 60076 C 6166.8 -1.47911 1.17337 0
M  V30 60077 O 6166.16 -1.81424 0.197875 0
M  V30 60078 C 6166.21 -0.778871 3.5301 0
M  V30 60079 O 6165.93 0.336314 4.36807 0
M  V30 60080 C 6167.43 -1.4581 4.18634 0
M  V30 60081 H 6164.65 -0.0697637 0.667363 0
M  V30 60082 H 6167.19 0.433982 1.99842 0
M  V30 60083 H 6165.35 -1.48058 3.57991 0
M  V30 60084 H 6165.76 -0.0218084 5.24495 0
M  V30 60085 H 6167.24 -1.73199 5.24124 0
M  V30 60086 H 6167.71 -2.39647 3.68057 0
M  V30 60087 H 6168.32 -0.7997 4.17714 0
M  V30 60088 N 6166.63 -1.57583 0.023479 0
M  V30 60089 C 6168.04 -1.79424 -0.516138 0
M  V30 60090 C 6168.4 -0.933211 -1.72585 0
M  V30 60091 O 6167.52 -0.142061 -2.15933 0
M  V30 60092 C 6168.12 -3.25408 -0.943134 0
M  V30 60093 C 6166.67 -3.48264 -1.4279 0
M  V30 60094 C 6165.82 -2.74544 -0.389978 0
M  V30 60095 H 6168.77 -1.56726 0.249545 0
M  V30 60096 H 6168.79 -3.3481 -1.80784 0
M  V30 60097 H 6168.31 -3.8805 -0.0624877 0
M  V30 60098 H 6166.41 -2.90868 -2.32866 0
M  V30 60099 H 6166.52 -4.56973 -1.43917 0
M  V30 60100 H 6164.88 -2.39855 -0.856835 0
M  V30 60101 H 6165.67 -3.39898 0.482105 0
M  V30 60102 N 6168.11 0.2496 -1.55611 0
M  V30 60103 C 6169.34 0.995643 -1.81369 0
M  V30 60104 C 6169.75 1.79052 -0.59883 0
M  V30 60105 O 6169.11 1.77302 0.432476 0
M  V30 60106 C 6169.16 1.93567 -3.0531 0
M  V30 60107 O 6168.88 1.17296 -4.22106 0
M  V30 60108 C 6170.38 2.79792 -3.43848 0
M  V30 60109 H 6167.6 0.293097 -0.603602 0
M  V30 60110 H 6170.15 0.273302 -2.02666 0
M  V30 60111 H 6168.3 2.61232 -2.86071 0
M  V30 60112 H 6168.72 1.80857 -4.92332 0
M  V30 60113 H 6170.19 3.41504 -4.3368 0
M  V30 60114 H 6170.67 3.50766 -2.6431 0
M  V30 60115 H 6171.27 2.17583 -3.65428 0
M  V30 60116 N 6169.59 1.48943 0.515146 0
M  V30 60117 C 6170.82 1.614 1.29451 0
M  V30 60118 C 6171.23 0.279913 1.86713 0
M  V30 60119 O 6170.59 -0.732802 1.67141 0
M  V30 60120 C 6170.64 2.67203 2.43485 0
M  V30 60121 O 6170.36 3.95436 1.88579 0
M  V30 60122 C 6171.86 2.90236 3.35079 0
M  V30 60123 H 6169.08 0.543768 0.393138 0
M  V30 60124 H 6171.63 1.94877 0.619927 0
M  V30 60125 H 6169.78 2.36543 3.068 0
M  V30 60126 H 6170.2 4.53602 2.63335 0
M  V30 60127 H 6171.67 3.68033 4.11407 0
M  V30 60128 H 6172.15 1.99615 3.91217 0
M  V30 60129 H 6172.75 3.22257 2.77544 0
M  V30 60130 N 6171.07 -0.765145 1.3778 0
M  V30 60131 C 6172.3 -1.55431 1.36561 0
M  V30 60132 C 6172.71 -1.8874 -0.0474524 0
M  V30 60133 O 6172.07 -1.51937 -1.01101 0
M  V30 60134 C 6172.12 -2.86055 2.21031 0
M  V30 60135 O 6171.84 -2.54171 3.56832 0
M  V30 60136 C 6173.34 -3.80253 2.27865 0
M  V30 60137 H 6170.56 -0.481314 0.467523 0
M  V30 60138 H 6173.1 -0.947842 1.81208 0
M  V30 60139 H 6171.26 -3.43108 1.79877 0
M  V30 60140 H 6171.67 -3.37865 4.01182 0
M  V30 60141 H 6173.15 -4.68894 2.91278 0
M  V30 60142 H 6173.62 -4.1986 1.28896 0
M  V30 60143 H 6174.23 -3.29128 2.6936 0
M  V30 60144 N 6172.55 -1.22459 -0.992051 0
M  V30 60145 C 6173.96 -1.04635 -1.54624 0
M  V30 60146 C 6174.31 0.389943 -1.92286 0
M  V30 60147 O 6173.43 1.27505 -1.74847 0
M  V30 60148 C 6174.03 -1.89316 -2.80971 0
M  V30 60149 C 6172.59 -1.75787 -3.3283 0
M  V30 60150 C 6171.73 -1.85732 -2.0591 0
M  V30 60151 H 6174.68 -1.36291 -0.813041 0
M  V30 60152 H 6174.71 -1.41107 -3.53368 0
M  V30 60153 H 6174.22 -2.93845 -2.53528 0
M  V30 60154 H 6172.32 -0.73995 -3.65179 0
M  V30 60155 H 6172.43 -2.58505 -4.03375 0
M  V30 60156 H 6170.8 -1.29181 -2.19509 0
M  V30 60157 H 6171.58 -2.91793 -1.80864 0
M  V30 60158 N 6174.02 1.18902 -1.03441 0
M  V30 60159 C 6175.27 1.88052 -0.729334 0
M  V30 60160 C 6175.59 1.80836 0.7455 0
M  V30 60161 O 6176.79 2.45289 1.16385 0
M  V30 60162 C 6175.25 3.37337 -1.25427 0
M  V30 60163 C 6174.86 3.53097 -2.75729 0
M  V30 60164 C 6176.6 4.11928 -1.02544 0
M  V30 60165 C 6174.51 4.96306 -3.21612 0
M  V30 60166 H 6173.44 0.704336 -0.269123 0
M  V30 60167 H 6176.09 1.34393 -1.24943 0
M  V30 60168 H 6174.47 3.90426 -0.662063 0
M  V30 60169 H 6175.64 3.1031 -3.40653 0
M  V30 60170 H 6173.96 2.91903 -2.96954 0
M  V30 60171 H 6176.56 5.17547 -1.34346 0
M  V30 60172 H 6176.9 4.16283 0.037565 0
M  V30 60173 H 6177.43 3.64993 -1.58193 0
M  V30 60174 H 6174.17 4.97116 -4.27265 0
M  V30 60175 H 6173.69 5.39833 -2.6142 0
M  V30 60176 H 6175.37 5.64989 -3.15272 0
M  V30 60177 N 6175.5 0.813024 1.3501 0
M  V30 60178 C 6176.73 0.409085 2.02815 0
M  V30 60179 C 6177.14 -0.981948 1.61255 0
M  V30 60180 O 6176.5 -1.63381 0.813195 0
M  V30 60181 C 6176.55 0.490243 3.5816 0
M  V30 60182 O 6176.27 1.82644 3.98212 0
M  V30 60183 C 6177.77 0.0799344 4.43228 0
M  V30 60184 H 6174.99 0.165379 0.650301 0
M  V30 60185 H 6177.54 1.09843 1.72495 0
M  V30 60186 H 6175.69 -0.150921 3.87106 0
M  V30 60187 H 6176.11 1.79373 4.92875 0
M  V30 60188 H 6177.58 0.187824 5.5168 0
M  V30 60189 H 6178.06 -0.975462 4.28231 0
M  V30 60190 H 6178.66 0.694507 4.19591 0
M  V30 60191 N 6176.98 -1.47043 0.567097 0
M  V30 60192 C 6178.21 -2.06835 0.0519037 0
M  V30 60193 C 6178.62 -1.41827 -1.24621 0
M  V30 60194 O 6177.98 -0.518163 -1.74989 0
M  V30 60195 C 6178.03 -3.6124 -0.137016 0
M  V30 60196 O 6177.75 -4.23813 1.1097 0
M  V30 60197 C 6179.25 -4.37923 -0.688357 0
M  V30 60198 H 6176.47 -0.669109 0.0503374 0
M  V30 60199 H 6179.02 -1.88903 0.783324 0
M  V30 60200 H 6177.17 -3.78652 -0.8186 0
M  V30 60201 H 6177.59 -5.16481 0.913657 0
M  V30 60202 H 6179.06 -5.46606 -0.769792 0
M  V30 60203 H 6179.54 -4.04886 -1.70187 0
M  V30 60204 H 6180.14 -4.25279 -0.0421509 0
M  V30 60205 N 6178.46 -0.304054 -1.54639 0
M  V30 60206 C 6179.69 0.306844 -2.04612 0
M  V30 60207 C 6180.1 1.47286 -1.18119 0
M  V30 60208 O 6179.46 1.81317 -0.207494 0
M  V30 60209 C 6179.51 0.760139 -3.53418 0
M  V30 60210 O 6179.23 -0.359474 -4.36623 0
M  V30 60211 C 6180.73 1.43587 -4.19401 0
M  V30 60212 H 6177.95 0.0662235 -0.667724 0
M  V30 60213 H 6180.5 -0.444574 -1.99609 0
M  V30 60214 H 6178.65 1.46157 -3.58771 0
M  V30 60215 H 6179.06 -0.00600714 -5.245 0
M  V30 60216 H 6180.54 1.70417 -5.25035 0
M  V30 60217 H 6181.02 2.37692 -3.69323 0
M  V30 60218 H 6181.62 0.777536 -4.18132 0
M  V30 60219 N 6179.94 1.57568 -0.0318356 0
M  V30 60220 C 6181.16 1.96214 0.656332 0
M  V30 60221 C 6181.58 0.908464 1.65506 0
M  V30 60222 O 6180.94 -0.109438 1.82172 0
M  V30 60223 C 6180.99 3.34929 1.36032 0
M  V30 60224 O 6180.71 4.36255 0.401604 0
M  V30 60225 C 6182.21 3.88222 2.14005 0
M  V30 60226 H 6179.43 0.646187 0.180786 0
M  V30 60227 H 6181.97 2.04291 -0.0924059 0
M  V30 60228 H 6180.13 3.28062 2.06044 0
M  V30 60229 H 6180.54 5.16689 0.901824 0
M  V30 60230 H 6182.02 4.87619 2.58713 0
M  V30 60231 H 6182.49 3.22613 2.98023 0
M  V30 60232 H 6183.1 3.98366 1.48946 0
M  V30 60233 N 6181.41 -0.241344 1.55741 0
M  V30 60234 C 6182.64 -0.986011 1.81894 0
M  V30 60235 C 6183.06 -1.78731 0.608317 0
M  V30 60236 O 6182.41 -1.77529 -0.423067 0
M  V30 60237 C 6182.47 -1.91945 3.06332 0
M  V30 60238 O 6182.19 -1.15056 4.22722 0
M  V30 60239 C 6183.69 -2.77965 3.45327 0
M  V30 60240 H 6180.91 -0.289892 0.605148 0
M  V30 60241 H 6183.45 -0.262551 2.02808 0
M  V30 60242 H 6181.61 -2.59711 2.87452 0
M  V30 60243 H 6182.02 -1.78244 4.93284 0
M  V30 60244 H 6183.49 -3.392 4.35485 0
M  V30 60245 H 6183.97 -3.4936 2.66166 0
M  V30 60246 H 6184.58 -2.15642 3.66577 0
M  V30 60247 N 6182.89 -1.49214 -0.50724 0
M  V30 60248 C 6184.14 -1.5862 -1.26362 0
M  V30 60249 C 6184.47 -0.269282 -1.92324 0
M  V30 60250 O 6183.75 0.726656 -1.80416 0
M  V30 60251 C 6184.03 -2.74096 -2.33545 0
M  V30 60252 C 6183.88 -4.15563 -1.72125 0
M  V30 60253 C 6185.2 -2.85237 -3.35154 0
M  V30 60254 H 6182.32 -0.577363 -0.458063 0
M  V30 60255 H 6184.96 -1.81475 -0.562733 0
M  V30 60256 H 6183.11 -2.5474 -2.93326 0
M  V30 60257 H 6184.78 -4.4642 -1.16221 0
M  V30 60258 H 6183.03 -4.21502 -1.02562 0
M  V30 60259 H 6183.7 -4.92224 -2.49839 0
M  V30 60260 H 6186.17 -3.02838 -2.85356 0
M  V30 60261 H 6185.05 -3.67723 -4.07518 0
M  V30 60262 H 6185.31 -1.9433 -3.971 0
M  V30 60263 N 6184.37 0.757827 -1.38184 0
M  V30 60264 C 6185.6 1.54704 -1.37383 0
M  V30 60265 C 6186.01 1.88763 0.0374424 0
M  V30 60266 O 6185.37 1.52471 1.00294 0
M  V30 60267 C 6185.42 2.84879 -2.22545 0
M  V30 60268 O 6185.14 2.52275 -3.58175 0
M  V30 60269 C 6186.64 3.7904 -2.29878 0
M  V30 60270 H 6183.86 0.478828 -0.470069 0
M  V30 60271 H 6186.41 0.938219 -1.81708 0
M  V30 60272 H 6184.56 3.42149 -1.81694 0
M  V30 60273 H 6184.98 3.35733 -4.02969 0
M  V30 60274 H 6186.45 4.67342 -2.9376 0
M  V30 60275 H 6186.93 4.19171 -1.31121 0
M  V30 60276 H 6187.53 3.27695 -2.71102 0
M  V30 60277 N 6185.85 1.22983 0.985543 0
M  V30 60278 C 6187.26 1.05453 1.54067 0
M  V30 60279 C 6187.61 -0.37974 1.9249 0
M  V30 60280 O 6186.74 -1.26576 1.75521 0
M  V30 60281 C 6187.33 1.90804 2.79963 0
M  V30 60282 C 6185.89 1.7755 3.31893 0
M  V30 60283 C 6185.04 1.86821 2.04923 0
M  V30 60284 H 6187.99 1.36721 0.805802 0
M  V30 60285 H 6188.01 1.42979 3.52615 0
M  V30 60286 H 6187.52 2.95185 2.51967 0
M  V30 60287 H 6185.62 0.759306 3.64781 0
M  V30 60288 H 6185.73 2.60641 4.01999 0
M  V30 60289 H 6184.1 1.30343 2.18821 0
M  V30 60290 H 6184.88 2.92748 1.79314 0
M  V30 60291 N 6187.33 -1.18352 1.04071 0
M  V30 60292 C 6188.55 -1.92272 0.764128 0
M  V30 60293 C 6188.97 -1.76179 -0.678716 0
M  V30 60294 O 6188.33 -1.09146 -1.46265 0
M  V30 60295 C 6188.38 -3.43682 1.12095 0
M  V30 60296 O 6188.1 -3.59269 2.50714 0
M  V30 60297 C 6189.6 -4.34701 0.868879 0
M  V30 60298 H 6186.82 -0.610396 0.278671 0
M  V30 60299 H 6189.36 -1.50148 1.38837 0
M  V30 60300 H 6187.52 -3.83595 0.541663 0
M  V30 60301 H 6187.93 -4.52998 2.64373 0
M  V30 60302 H 6189.41 -5.39493 1.1684 0
M  V30 60303 H 6189.88 -4.38761 -0.196347 0
M  V30 60304 H 6190.49 -4.00486 1.43146 0
M  V30 60305 N 6188.8 -0.820173 -1.34577 0
M  V30 60306 C 6190.22 -0.466128 -1.80788 0
M  V30 60307 C 6190.57 1.01321 -1.68013 0
M  V30 60308 O 6189.69 1.78831 -1.21855 0
M  V30 60309 C 6190.29 -0.839307 -3.28239 0
M  V30 60310 C 6188.85 -0.537671 -3.7254 0
M  V30 60311 C 6187.99 -1.05769 -2.56336 0
M  V30 60312 H 6190.94 -1.0106 -1.22363 0
M  V30 60313 H 6190.96 -0.14203 -3.80235 0
M  V30 60314 H 6190.48 -1.91604 -3.37505 0
M  V30 60315 H 6188.58 0.529765 -3.68815 0
M  V30 60316 H 6188.69 -1.07981 -4.66773 0
M  V30 60317 H 6187.05 -0.479363 -2.50148 0
M  V30 60318 H 6187.84 -2.14081 -2.68373 0
M  V30 60319 N 6190.28 1.46741 -0.574887 0
M  V30 60320 C 6191.51 2.06804 -0.0628719 0
M  V30 60321 C 6191.93 1.42486 1.23867 0
M  V30 60322 O 6191.28 0.527436 1.74712 0
M  V30 60323 C 6191.33 3.61308 0.117856 0
M  V30 60324 O 6191.05 4.23218 -1.13216 0
M  V30 60325 C 6192.56 4.38282 0.665123 0
M  V30 60326 H 6189.78 0.668833 -0.0538851 0
M  V30 60327 H 6192.32 1.88485 -0.793331 0
M  V30 60328 H 6190.47 3.79081 0.798507 0
M  V30 60329 H 6190.89 5.15989 -0.941034 0
M  V30 60330 H 6192.36 5.47007 0.740793 0
M  V30 60331 H 6192.84 4.05783 1.68038 0
M  V30 60332 H 6193.45 4.25295 0.0195967 0
M  V30 60333 N 6191.76 0.312251 1.54476 0
M  V30 60334 C 6193.17 -0.178123 1.85848 0
M  V30 60335 C 6193.52 -1.5253 1.23407 0
M  V30 60336 O 6192.65 -2.0966 0.535896 0
M  V30 60337 C 6193.24 -0.32998 3.37189 0
M  V30 60338 C 6191.8 -0.764574 3.68553 0
M  V30 60339 C 6190.95 0.120445 2.77038 0
M  V30 60340 H 6193.9 0.532906 1.49485 0
M  V30 60341 H 6193.92 -1.16275 3.62299 0
M  V30 60342 H 6193.43 0.650662 3.82607 0
M  V30 60343 H 6191.53 -1.75536 3.2866 0
M  V30 60344 H 6191.65 -0.576164 4.75623 0
M  V30 60345 H 6190.01 -0.402141 2.51505 0
M  V30 60346 H 6190.79 1.09765 3.25279 0
M  V30 60347 N 6193.24 -1.57549 0.0401914 0
M  V30 60348 C 6194.47 -1.96559 -0.645917 0
M  V30 60349 C 6194.88 -0.917228 -1.65022 0
M  V30 60350 O 6194.24 0.0997755 -1.82227 0
M  V30 60351 C 6194.29 -3.35646 -1.34254 0
M  V30 60352 O 6194.01 -4.36462 -0.378463 0
M  V30 60353 C 6195.51 -3.89352 -2.11944 0
M  V30 60354 H 6192.73 -0.647137 -0.177356 0
M  V30 60355 H 6195.28 -2.04239 0.103239 0
M  V30 60356 H 6193.43 -3.2915 -2.04301 0
M  V30 60357 H 6193.85 -5.1716 -0.87441 0
M  V30 60358 H 6195.32 -4.88984 -2.56123 0
M  V30 60359 H 6195.8 -3.24189 -2.96308 0
M  V30 60360 H 6196.4 -3.9915 -1.46831 0
M  V30 60361 N 6194.72 0.233081 -1.55867 0
M  V30 60362 C 6195.97 0.957261 -1.77991 0
M  V30 60363 C 6196.29 1.85323 -0.606659 0
M  V30 60364 O 6195.56 1.92239 0.376979 0
M  V30 60365 H 6194.14 0.356451 -0.656469 0
M  V30 60366 H 6196.8 0.247706 -1.93319 0
M  V30 60367 H 6195.89 1.57087 -2.69685 0
M  V30 60368 N 6196.2 1.49481 0.49932 0
M  V30 60369 C 6197.42 1.62764 1.27732 0
M  V30 60370 C 6197.84 0.2997 1.86406 0
M  V30 60371 O 6197.2 -0.715033 1.67909 0
M  V30 60372 C 6197.25 2.6977 2.40637 0
M  V30 60373 O 6196.97 3.97414 1.84375 0
M  V30 60374 C 6198.47 2.93773 3.31982 0
M  V30 60375 H 6195.69 0.547907 0.387349 0
M  V30 60376 H 6198.23 1.95524 0.599223 0
M  V30 60377 H 6196.39 2.39784 3.04274 0
M  V30 60378 H 6196.8 4.5637 2.58509 0
M  V30 60379 H 6198.28 3.72376 4.07481 0
M  V30 60380 H 6198.75 2.03753 3.89077 0
M  V30 60381 H 6199.36 3.25183 2.7411 0
M  V30 60382 N 6197.67 -0.750488 1.38584 0
M  V30 60383 C 6198.61 -1.87407 1.31952 0
M  V30 60384 C 6199.62 -1.61151 0.231158 0
M  V30 60385 O 6200.81 -1.71673 0.488953 0
M  V30 60386 C 6197.91 -3.23109 1.02245 0
M  V30 60387 C 6197.08 -3.76844 2.22052 0
M  V30 60388 C 6196.14 -4.9107 1.8904 0
M  V30 60389 O 6195.17 -5.05541 2.61567 0
M  V30 60390 N 6196.37 -5.74284 0.847223 0
M  V30 60391 H 6199.13 -1.93605 2.28773 0
M  V30 60392 H 6196.69 -0.930557 1.32485 0
M  V30 60393 H 6198.69 -3.97071 0.78207 0
M  V30 60394 H 6197.26 -3.12277 0.142091 0
M  V30 60395 H 6196.48 -2.94412 2.62136 0
M  V30 60396 H 6197.76 -4.09479 3.02001 0
M  V30 60397 H 6197.16 -5.65166 0.245834 0
M  V30 60398 H 6195.72 -6.48381 0.666733 0
M  V30 60399 N 6199.15 -1.23504 -0.979007 0
M  V30 60400 C 6200.38 -1.09468 -1.75568 0
M  V30 60401 C 6200.79 0.353735 -1.85457 0
M  V30 60402 O 6200.15 1.24462 -1.33474 0
M  V30 60403 C 6200.2 -1.71573 -3.1819 0
M  V30 60404 O 6199.92 -3.10751 -3.08813 0
M  V30 60405 C 6201.42 -1.62998 -4.12246 0
M  V30 60406 H 6198.64 -0.383033 -0.550933 0
M  V30 60407 H 6201.19 -1.63383 -1.22989 0
M  V30 60408 H 6199.34 -1.21689 -3.67791 0
M  V30 60409 H 6199.76 -3.40902 -3.98605 0
M  V30 60410 H 6201.23 -2.11153 -5.10018 0
M  V30 60411 H 6201.71 -0.58906 -4.35232 0
M  V30 60412 H 6202.31 -2.12255 -3.68548 0
M  V30 60413 N 6200.63 1.17798 -1.04697 0
M  V30 60414 C 6201.88 1.87564 -0.7526 0
M  V30 60415 C 6202.2 1.81132 0.722239 0
M  V30 60416 O 6201.47 1.23391 1.52156 0
M  V30 60417 H 6200.05 0.69438 -0.2754 0
M  V30 60418 H 6202.71 1.42927 -1.32506 0
M  V30 60419 H 6201.81 2.93436 -1.06309 0
M  V30 60420 N 6202.11 0.827298 1.3414 0
M  V30 60421 C 6203.52 0.475709 1.80538 0
M  V30 60422 C 6203.87 -1.00429 1.68548 0
M  V30 60423 O 6202.99 -1.78182 1.22802 0
M  V30 60424 C 6203.59 0.856703 3.2779 0
M  V30 60425 C 6202.15 0.55742 3.7225 0
M  V30 60426 C 6201.3 1.07127 2.55772 0
M  V30 60427 H 6204.25 1.01707 1.21825 0
M  V30 60428 H 6204.27 0.162193 3.80154 0
M  V30 60429 H 6203.78 1.93391 3.36484 0
M  V30 60430 H 6201.88 -0.510198 3.6909 0
M  V30 60431 H 6201.99 1.10455 4.66194 0
M  V30 60432 H 6200.36 0.492622 2.49891 0
M  V30 60433 H 6201.14 2.15501 2.67234 0
M  V30 60434 N 6203.59 -1.46434 0.582661 0
M  V30 60435 C 6205 -1.86046 0.156077 0
M  V30 60436 C 6205.35 -1.48624 -1.28084 0
M  V30 60437 O 6204.47 -0.901109 -1.96746 0
M  V30 60438 C 6205.07 -3.3767 0.276477 0
M  V30 60439 C 6203.63 -3.76279 -0.0952359 0
M  V30 60440 C 6202.77 -2.70452 0.612443 0
M  V30 60441 H 6205.72 -1.37589 0.790883 0
M  V30 60442 H 6205.75 -3.77225 -0.498179 0
M  V30 60443 H 6205.26 -3.64876 1.32238 0
M  V30 60444 H 6203.36 -3.54691 -1.14128 0
M  V30 60445 H 6203.47 -4.78275 0.281049 0
M  V30 60446 H 6201.84 -2.54645 0.0527077 0
M  V30 60447 H 6202.62 -3.00498 1.66 0
M  V30 60448 N 6205.06 -0.320439 -1.54308 0
M  V30 60449 C 6206.29 0.285125 -2.04926 0
M  V30 60450 C 6206.71 1.46025 -1.19675 0
M  V30 60451 O 6206.06 1.81086 -0.226713 0
M  V30 60452 C 6206.11 0.722611 -3.54204 0
M  V30 60453 O 6205.84 -0.405763 -4.36217 0
M  V30 60454 C 6207.34 1.39131 -4.20901 0
M  V30 60455 H 6204.56 0.0591377 -0.668389 0
M  V30 60456 H 6207.1 -0.46572 -1.99126 0
M  V30 60457 H 6205.26 1.42344 -3.60301 0
M  V30 60458 H 6205.67 -0.061637 -5.24464 0
M  V30 60459 H 6207.14 1.64839 -5.26813 0
M  V30 60460 H 6207.62 2.33761 -3.71823 0
M  V30 60461 H 6208.23 0.733144 -4.18933 0
M  V30 60462 N 6206.54 1.57525 -0.048546 0
M  V30 60463 C 6207.49 2.07886 0.936334 0
M  V30 60464 C 6208.48 0.983457 1.27346 0
M  V30 60465 O 6209.67 1.24682 1.25632 0
M  V30 60466 C 6206.8 2.62528 2.2121 0
M  V30 60467 C 6205.88 3.79033 1.90249 0
M  V30 60468 N 6206.27 4.88905 1.29636 0
M  V30 60469 C 6204.57 3.87888 2.20133 0
M  V30 60470 C 6205.27 5.69967 1.16245 0
M  V30 60471 N 6204.25 5.17491 1.66447 0
M  V30 60472 H 6208.05 2.9023 0.462989 0
M  V30 60473 H 6205.56 1.61649 0.155975 0
M  V30 60474 H 6207.56 2.9691 2.92661 0
M  V30 60475 H 6206.22 1.81622 2.69154 0
M  V30 60476 H 6207.23 5.08756 0.968903 0
M  V30 60477 H 6203.91 3.17921 2.70615 0
M  V30 60478 H 6205.3 6.68326 0.692116 0
M  V30 60479 N 6208.02 -0.224812 1.55988 0
M  V30 60480 C 6209.25 -0.966663 1.8293 0
M  V30 60481 C 6209.66 -1.78076 0.627239 0
M  V30 60482 O 6209.02 -1.77967 -0.404214 0
M  V30 60483 C 6209.07 -1.88685 3.08351 0
M  V30 60484 O 6208.79 -1.10566 4.23918 0
M  V30 60485 C 6210.29 -2.74287 3.48255 0
M  V30 60486 H 6207.51 -0.283457 0.608188 0
M  V30 60487 H 6210.06 -0.241026 2.03075 0
M  V30 60488 H 6208.21 -2.56648 2.90191 0
M  V30 60489 H 6208.63 -1.73002 4.95147 0
M  V30 60490 H 6210.1 -3.34562 4.39059 0
M  V30 60491 H 6210.58 -3.46517 2.69857 0
M  V30 60492 H 6211.18 -2.11742 3.68843 0
M  V30 60493 N 6209.5 -1.49744 -0.491385 0
M  V30 60494 C 6210.72 -1.63707 -1.27337 0
M  V30 60495 C 6211.15 -0.312144 -1.85492 0
M  V30 60496 O 6210.51 0.721486 -1.66326 0
M  V30 60497 C 6210.55 -2.71557 -2.37253 0
M  V30 60498 O 6209.66 -2.31399 -3.41363 0
M  V30 60499 H 6209 -0.547618 -0.375514 0
M  V30 60500 H 6211.53 -1.95993 -0.587174 0
M  V30 60501 H 6211.54 -2.94019 -2.82873 0
M  V30 60502 H 6210.21 -3.67727 -1.94293 0
M  V30 60503 H 6208.79 -2.19305 -3.01595 0
M  V30 60504 N 6210.98 0.743128 -1.3898 0
M  V30 60505 C 6212.2 1.53238 -1.39016 0
M  V30 60506 C 6212.62 1.88792 0.0174194 0
M  V30 60507 O 6211.98 1.53526 0.986712 0
M  V30 60508 C 6212.03 2.82502 -2.25554 0
M  V30 60509 O 6211.75 2.48462 -3.6083 0
M  V30 60510 C 6213.25 3.7658 -2.33885 0
M  V30 60511 H 6210.47 0.473816 -0.475121 0
M  V30 60512 H 6213.01 0.918894 -1.82693 0
M  V30 60513 H 6211.17 3.40203 -1.85312 0
M  V30 60514 H 6211.58 3.3144 -4.06507 0
M  V30 60515 H 6213.06 4.642 -2.98701 0
M  V30 60516 H 6213.53 4.17756 -1.35559 0
M  V30 60517 H 6214.14 3.24801 -2.74562 0
M  V30 60518 N 6212.45 1.24021 0.972444 0
M  V30 60519 C 6213.42 1.02948 2.04779 0
M  V30 60520 C 6214.42 -0.0115296 1.60796 0
M  V30 60521 O 6215.61 0.228983 1.72688 0
M  V30 60522 C 6212.74 0.559364 3.3628 0
M  V30 60523 H 6213.93 1.98387 2.24906 0
M  V30 60524 H 6211.49 1.06177 1.147 0
M  V30 60525 H 6212.22 -0.398432 3.21843 0
M  V30 60526 H 6212.01 1.31067 3.69545 0
M  V30 60527 H 6213.5 0.432815 4.15351 0
M  V30 60528 N 6213.93 -1.17241 1.0532 0
M  V30 60529 C 6215.34 -1.69164 0.789965 0
M  V30 60530 C 6215.69 -1.83753 -0.687697 0
M  V30 60531 O 6214.82 -1.52602 -1.53433 0
M  V30 60532 C 6215.41 -3.07264 1.42739 0
M  V30 60533 C 6213.97 -3.56347 1.21217 0
M  V30 60534 C 6213.12 -2.32574 1.51012 0
M  V30 60535 H 6216.07 -1.0174 1.21798 0
M  V30 60536 H 6216.09 -3.71172 0.837366 0
M  V30 60537 H 6215.6 -2.96614 2.50284 0
M  V30 60538 H 6213.71 -3.72273 0.156022 0
M  V30 60539 H 6213.82 -4.39032 1.91802 0
M  V30 60540 H 6212.18 -2.37104 0.930256 0
M  V30 60541 H 6212.97 -2.24531 2.59693 0
M  V30 60542 N 6215.41 -0.8344 -1.33699 0
M  V30 60543 C 6216.66 -0.424295 -1.97187 0
M  V30 60544 C 6216.97 1.0208 -1.6685 0
M  V30 60545 O 6218.18 1.53537 -2.23916 0
M  V30 60546 C 6216.63 -0.707752 -3.52872 0
M  V30 60547 C 6216.24 -2.16723 -3.92091 0
M  V30 60548 C 6217.99 -0.364377 -4.22933 0
M  V30 60549 C 6215.89 -2.39497 -5.40736 0
M  V30 60550 H 6214.82 -0.154923 -0.737912 0
M  V30 60551 H 6217.47 -1.02236 -1.52381 0
M  V30 60552 H 6215.86 -0.0393715 -3.9598 0
M  V30 60553 H 6217.03 -2.87572 -3.60054 0
M  V30 60554 H 6215.35 -2.47315 -3.34999 0
M  V30 60555 H 6217.94 -0.512218 -5.32241 0
M  V30 60556 H 6218.29 0.69223 -4.10504 0
M  V30 60557 H 6218.82 -0.987805 -3.8534 0
M  V30 60558 H 6215.56 -3.43706 -5.58163 0
M  V30 60559 H 6215.08 -1.73205 -5.74248 0
M  V30 60560 H 6216.76 -2.22428 -6.07565 0
M  V30 60561 N 6216.89 1.46123 -0.590418 0
M  V30 60562 C 6217.85 2.28841 0.128288 0
M  V30 60563 C 6218.85 1.3882 0.811511 0
M  V30 60564 O 6220.04 1.61119 0.66229 0
M  V30 60565 C 6217.17 3.19406 1.19133 0
M  V30 60566 H 6218.37 2.93862 -0.598745 0
M  V30 60567 H 6215.92 1.5236 -0.348713 0
M  V30 60568 H 6216.65 2.59148 1.94969 0
M  V30 60569 H 6216.44 3.85695 0.705837 0
M  V30 60570 H 6217.93 3.81646 1.69518 0
M  V30 60571 N 6218.37 0.328618 1.54136 0
M  V30 60572 C 6219.28 -0.543842 2.28209 0
M  V30 60573 C 6220.29 -1.12485 1.32752 0
M  V30 60574 O 6221.47 -1.14374 1.65773 0
M  V30 60575 C 6218.53 -1.68629 3.02928 0
M  V30 60576 C 6217.59 -1.13657 4.13981 0
M  V30 60577 C 6216.83 -2.22457 4.85127 0
M  V30 60578 O 6217.05 -3.42898 4.55825 0
M  V30 60579 O 6215.98 -1.87591 5.71921 0
M  V30 60580 H 6219.81 0.0578669 3.03645 0
M  V30 60581 H 6217.4 0.0941419 1.49103 0
M  V30 60582 H 6219.28 -2.35131 3.49702 0
M  V30 60583 H 6217.95 -2.27409 2.30363 0
M  V30 60584 H 6216.86 -0.436494 3.71545 0
M  V30 60585 H 6218.19 -0.593841 4.88605 0
M  V30 60586 N 6219.84 -1.57497 0.0568993 0
M  V30 60587 C 6220.77 -2.14896 -0.913352 0
M  V30 60588 C 6221.76 -1.0721 -1.32061 0
M  V30 60589 O 6222.94 -1.35177 -1.39431 0
M  V30 60590 C 6220.07 -2.69857 -2.1862 0
M  V30 60591 C 6219.02 -3.82577 -1.91882 0
M  V30 60592 C 6218.35 -4.24079 -3.2567 0
M  V30 60593 C 6219.65 -5.07467 -1.23588 0
M  V30 60594 H 6221.34 -2.9622 -0.435243 0
M  V30 60595 H 6218.89 -1.42491 -0.20791 0
M  V30 60596 H 6220.84 -3.08653 -2.869 0
M  V30 60597 H 6219.57 -1.85733 -2.68646 0
M  V30 60598 H 6218.23 -3.44262 -1.26012 0
M  V30 60599 H 6217.87 -3.36898 -3.73509 0
M  V30 60600 H 6217.57 -5.00054 -3.08577 0
M  V30 60601 H 6219.1 -4.6548 -3.95172 0
M  V30 60602 H 6220.51 -5.43673 -1.81912 0
M  V30 60603 H 6218.91 -5.88623 -1.16802 0
M  V30 60604 H 6219.98 -4.84433 -0.212747 0
M  V30 60605 N 6221.32 0.216536 -1.56105 0
M  V30 60606 C 6222.55 0.956948 -1.8344 0
M  V30 60607 C 6222.97 1.77741 -0.636674 0
M  V30 60608 O 6222.32 1.78179 0.39477 0
M  V30 60609 C 6222.37 1.87047 -3.09347 0
M  V30 60610 O 6222.09 1.08316 -4.24499 0
M  V30 60611 C 6223.6 2.72436 -3.49705 0
M  V30 60612 H 6220.82 0.280228 -0.609683 0
M  V30 60613 H 6223.36 0.230253 -2.032 0
M  V30 60614 H 6221.51 2.55105 -2.91548 0
M  V30 60615 H 6221.93 1.70373 -4.96058 0
M  V30 60616 H 6223.4 3.32229 -4.40827 0
M  V30 60617 H 6223.88 3.45081 -2.71691 0
M  V30 60618 H 6224.49 2.09783 -3.69961 0
M  V30 60619 N 6222.8 1.50002 0.483437 0
M  V30 60620 C 6224.03 1.6411 1.25998 0
M  V30 60621 C 6224.44 0.319454 1.86078 0
M  V30 60622 O 6223.8 -0.697184 1.68658 0
M  V30 60623 C 6223.85 2.72307 2.37763 0
M  V30 60624 O 6223.57 3.99347 1.80149 0
M  V30 60625 C 6225.07 2.97278 3.28848 0
M  V30 60626 H 6222.29 0.551984 0.381516 0
M  V30 60627 H 6224.84 1.96148 0.578451 0
M  V30 60628 H 6222.99 2.42998 3.01713 0
M  V30 60629 H 6223.41 4.59086 2.53654 0
M  V30 60630 H 6224.88 3.76677 4.03508 0
M  V30 60631 H 6225.36 2.07868 3.86895 0
M  V30 60632 H 6225.96 3.28072 2.70646 0
M  V30 60633 N 6224.28 -0.735747 1.39372 0
M  V30 60634 C 6225.5 -1.53008 1.40012 0
M  V30 60635 C 6225.93 -1.881 -0.00361764 0
M  V30 60636 O 6225.29 -1.51857 -0.990416 0
M  V30 60637 C 6225.34 -2.79466 2.27884 0
M  V30 60638 O 6224.44 -3.75358 1.70821 0
M  V30 60639 H 6223.78 -0.4621 0.476822 0
M  V30 60640 H 6226.31 -0.907804 1.83358 0
M  V30 60641 H 6226.32 -3.28208 2.4237 0
M  V30 60642 H 6225 -2.53257 3.299 0
M  V30 60643 H 6223.57 -3.34125 1.65574 0
M  V30 60644 N 6225.76 -1.24535 -0.965853 0
M  V30 60645 C 6226.71 -1.03707 -2.08201 0
M  V30 60646 C 6227.7 0.0285712 -1.69376 0
M  V30 60647 O 6228.91 -0.126136 -1.79558 0
M  V30 60648 H 6225.28 -0.318355 -0.681289 0
M  V30 60649 H 6227.25 -1.98356 -2.2293 0
M  V30 60650 C 6226 -0.660531 -3.41368 0
M  V30 60651 H 6225.32 -1.47229 -3.71704 0
M  V30 60652 H 6226.76 -0.554412 -4.2036 0
M  V30 60653 C 6225.22 0.632517 -3.30909 0
M  V30 60654 O 6225.75 1.67773 -3.64986 0
M  V30 60655 N 6223.96 0.61393 -2.84041 0
M  V30 60656 H 6223.51 -0.236999 -2.56507 0
M  V30 60657 H 6223.46 1.47928 -2.77425 0
M  V30 60658 N 6227.24 1.16681 -1.0594 0
M  V30 60659 C 6228.65 1.68743 -0.798925 0
M  V30 60660 C 6229 1.84115 0.677943 0
M  V30 60661 O 6228.12 1.53413 1.52621 0
M  V30 60662 C 6228.72 3.06503 -1.44366 0
M  V30 60663 C 6227.28 3.557 -1.23105 0
M  V30 60664 C 6226.42 2.3177 -1.52243 0
M  V30 60665 H 6229.37 1.01093 -1.22335 0
M  V30 60666 H 6229.4 3.70722 -0.857038 0
M  V30 60667 H 6228.91 2.95282 -2.51853 0
M  V30 60668 H 6227.01 3.72185 -0.175762 0
M  V30 60669 H 6227.12 4.38008 -1.94128 0
M  V30 60670 H 6225.49 2.36607 -0.942817 0
M  V30 60671 H 6226.27 2.23151 -2.6088 0
M  V30 60672 N 6228.71 0.841479 1.33255 0
M  V30 60673 C 6230.12 0.49483 1.80023 0
M  V30 60674 C 6230.48 -0.986357 1.69604 0
M  V30 60675 O 6229.6 -1.76869 1.24684 0
M  V30 60676 C 6230.2 0.891421 3.26863 0
M  V30 60677 C 6228.75 0.596871 3.71637 0
M  V30 60678 C 6227.9 1.09833 2.54621 0
M  V30 60679 H 6230.85 1.02993 1.2074 0
M  V30 60680 H 6230.87 0.202504 3.79961 0
M  V30 60681 H 6230.39 1.96949 3.34414 0
M  V30 60682 H 6228.49 -0.471023 3.69611 0
M  V30 60683 H 6228.6 1.15393 4.64996 0
M  V30 60684 H 6226.96 0.519098 2.49354 0
M  V30 60685 H 6227.75 2.18323 2.64934 0
M  V30 60686 N 6230.19 -1.45807 0.598159 0
M  V30 60687 C 6231.6 -1.8587 0.175801 0
M  V30 60688 C 6231.95 -1.49974 -1.265 0
M  V30 60689 O 6231.08 -0.921926 -1.95779 0
M  V30 60690 C 6231.67 -3.37358 0.312276 0
M  V30 60691 C 6230.23 -3.76359 -0.0553211 0
M  V30 60692 C 6229.38 -2.69787 0.641094 0
M  V30 60693 H 6232.33 -1.36742 0.805431 0
M  V30 60694 H 6232.35 -3.77732 -0.458141 0
M  V30 60695 H 6231.86 -3.63453 1.36101 0
M  V30 60696 H 6229.96 -3.55881 -1.10359 0
M  V30 60697 H 6230.08 -4.7795 0.33176 0
M  V30 60698 H 6228.44 -2.54575 0.0797133 0
M  V30 60699 H 6229.22 -2.9872 1.69177 0
M  V30 60700 N 6231.67 -0.336787 -1.53959 0
M  V30 60701 C 6232.58 0.531732 -2.28495 0
M  V30 60702 C 6233.6 1.1178 -1.33347 0
M  V30 60703 O 6234.77 1.13493 -1.66377 0
M  V30 60704 C 6231.84 1.6702 -3.03818 0
M  V30 60705 C 6230.9 1.1146 -4.14578 0
M  V30 60706 C 6230.13 2.19881 -4.863 0
M  V30 60707 O 6230.35 3.40476 -4.57637 0
M  V30 60708 O 6229.29 1.84556 -5.72907 0
M  V30 60709 H 6233.11 -0.0739691 -3.0361 0
M  V30 60710 H 6230.7 -0.102048 -1.49051 0
M  V30 60711 H 6232.58 2.33273 -3.50944 0
M  V30 60712 H 6231.26 2.26184 -2.31566 0
M  V30 60713 H 6230.16 0.416784 -3.71771 0
M  V30 60714 H 6231.5 0.56792 -4.88913 0
M  V30 60715 N 6233.15 1.57465 -0.0652509 0
M  V30 60716 C 6234.37 1.97978 0.618029 0
M  V30 60717 C 6234.8 0.943125 1.62748 0
M  V30 60718 O 6234.16 -0.0920408 1.81066 0
M  V30 60719 C 6234.2 3.37537 1.2689 0
M  V30 60720 O 6233.31 3.3646 2.38471 0
M  V30 60721 H 6232.65 0.644558 0.159501 0
M  V30 60722 H 6235.18 2.04135 -0.137826 0
M  V30 60723 H 6235.19 3.74577 1.61729 0
M  V30 60724 H 6233.86 4.1252 0.529189 0
M  V30 60725 H 6232.44 3.11182 2.05475 0
M  V30 60726 N 6234.63 -0.208255 1.56218 0
M  V30 60727 C 6235.85 -0.951339 1.84294 0
M  V30 60728 C 6236.28 -1.76614 0.64723 0
M  V30 60729 O 6235.63 -1.76741 -0.404019 0
M  V30 60730 C 6235.68 -1.83392 3.10483 0
M  V30 60731 O 6234.79 -2.93103 2.90111 0
M  V30 60732 H 6234.13 -0.268647 0.607227 0
M  V30 60733 H 6236.66 -0.217546 2.0344 0
M  V30 60734 H 6236.67 -2.24115 3.40934 0
M  V30 60735 H 6235.34 -1.23514 3.97136 0
M  V30 60736 H 6233.92 -2.5623 2.70925 0
M  V30 60737 N 6236.1 -1.50256 -0.475475 0
M  V30 60738 C 6237.33 -1.64776 -1.25126 0
M  V30 60739 C 6237.75 -0.329318 -1.85906 0
M  V30 60740 O 6237.1 0.68823 -1.69026 0
M  V30 60741 C 6237.15 -2.73564 -2.36315 0
M  V30 60742 O 6236.88 -4.00297 -1.78029 0
M  V30 60743 C 6238.38 -2.99018 -3.27266 0
M  V30 60744 H 6235.6 -0.554 -0.378583 0
M  V30 60745 H 6238.14 -1.96452 -0.568041 0
M  V30 60746 H 6236.3 -2.44594 -3.0042 0
M  V30 60747 H 6236.71 -4.60425 -2.51216 0
M  V30 60748 H 6238.18 -3.78811 -4.01505 0
M  V30 60749 H 6238.66 -2.09917 -3.85787 0
M  V30 60750 H 6239.27 -3.29502 -2.68902 0
M  V30 60751 N 6237.58 0.728346 -1.3976 0
M  V30 60752 C 6238.99 1.30693 -1.33328 0
M  V30 60753 C 6239.34 1.962 -0.000745588 0
M  V30 60754 O 6238.47 1.96734 0.901361 0
M  V30 60755 C 6239.06 2.37648 -2.41472 0
M  V30 60756 C 6237.62 2.91162 -2.3854 0
M  V30 60757 C 6236.77 1.64804 -2.23013 0
M  V30 60758 H 6239.72 0.525377 -1.49751 0
M  V30 60759 H 6239.74 3.18195 -2.08644 0
M  V30 60760 H 6239.25 1.89941 -3.38443 0
M  V30 60761 H 6237.36 3.43132 -1.45228 0
M  V30 60762 H 6237.47 3.43824 -3.33649 0
M  V30 60763 H 6235.83 1.89391 -1.70303 0
M  V30 60764 H 6236.62 1.1914 -3.21964 0
M  V30 60765 N 6239.06 1.25046 0.959235 0
M  V30 60766 C 6239.99 1.00815 2.05837 0
M  V30 60767 C 6241.01 -0.0253366 1.6278 0
M  V30 60768 O 6242.19 0.212687 1.77228 0
M  V30 60769 C 6239.29 0.501205 3.35173 0
M  V30 60770 C 6238.47 1.59978 4.07094 0
M  V30 60771 C 6237.53 1.09402 5.14702 0
M  V30 60772 O 6236.55 1.78747 5.40406 0
M  V30 60773 N 6237.75 -0.0671255 5.80461 0
M  V30 60774 H 6240.52 1.95454 2.27196 0
M  V30 60775 H 6238.08 1.16189 1.12746 0
M  V30 60776 H 6240.07 0.147425 4.04431 0
M  V30 60777 H 6238.64 -0.351131 3.10622 0
M  V30 60778 H 6237.86 2.12536 3.31997 0
M  V30 60779 H 6239.15 2.33795 4.51904 0
M  V30 60780 H 6238.55 -0.64667 5.61992 0
M  V30 60781 H 6237.11 -0.361978 6.50794 0
M  V30 60782 N 6240.54 -1.16117 1.06558 0
M  V30 60783 C 6241.77 -1.90608 0.80474 0
M  V30 60784 C 6242.18 -1.77579 -0.641193 0
M  V30 60785 O 6241.54 -1.12224 -1.43917 0
M  V30 60786 C 6241.59 -3.41227 1.1936 0
M  V30 60787 O 6241.31 -3.5387 2.58279 0
M  V30 60788 C 6242.81 -4.32761 0.96089 0
M  V30 60789 H 6240.03 -0.604348 0.291555 0
M  V30 60790 H 6242.58 -1.47169 1.41991 0
M  V30 60791 H 6240.73 -3.82359 0.622907 0
M  V30 60792 H 6241.14 -4.47288 2.73923 0
M  V30 60793 H 6242.62 -5.36893 1.28257 0
M  V30 60794 H 6243.1 -4.39079 -0.103235 0
M  V30 60795 H 6243.7 -3.9736 1.51609 0
M  V30 60796 N 6242.02 -0.848534 -1.32807 0
M  V30 60797 C 6243.24 -0.461811 -2.02193 0
M  V30 60798 C 6243.67 0.932102 -1.63381 0
M  V30 60799 O 6243.02 1.61117 -0.831323 0
M  V30 60800 C 6243.07 -0.601359 -3.5555 0
M  V30 60801 O 6242.18 0.368404 -4.10751 0
M  V30 60802 H 6241.52 -0.186401 -0.637299 0
M  V30 60803 H 6244.05 -1.14604 -1.69491 0
M  V30 60804 H 6244.06 -0.486599 -4.05088 0
M  V30 60805 H 6242.73 -1.61786 -3.83142 0
M  V30 60806 H 6241.31 0.210394 -3.72306 0
M  V30 60807 N 6243.49 1.45488 -0.605884 0
M  V30 60808 C 6244.91 1.5731 -0.269394 0
M  V30 60809 C 6245.11 1.59751 1.22809 0
M  V30 60810 O 6244.17 1.52689 2.01103 0
M  V30 60811 C 6245.48 2.85661 -0.939064 0
M  V30 60812 C 6247.03 2.99333 -0.914822 0
M  V30 60813 C 6247.5 4.30451 -1.56447 0
M  V30 60814 N 6248.99 4.37206 -1.52988 0
M  V30 60815 C 6249.73 5.37326 -2.00171 0
M  V30 60816 N 6249.22 6.43992 -2.55432 0
M  V30 60817 N 6251.02 5.28673 -1.90949 0
M  V30 60818 H 6243.17 1.42147 -1.57822 0
M  V30 60819 H 6245.43 0.679519 -0.661028 0
M  V30 60820 H 6245.14 2.89752 -1.9934 0
M  V30 60821 H 6245.01 3.74369 -0.46131 0
M  V30 60822 H 6247.4 2.94809 0.130966 0
M  V30 60823 H 6247.48 2.1204 -1.43083 0
M  V30 60824 H 6247.12 4.35733 -2.60958 0
M  V30 60825 H 6247.05 5.16558 -1.0235 0
M  V30 60826 H 6249.54 3.60729 -1.12617 0
M  V30 60827 H 6249.86 7.16634 -2.89233 0
M  V30 60828 H 6248.2 6.44748 -2.5947 0
M  V30 60829 H 6251.39 4.44248 -1.47518 0
M  V30 60830 H 6251.57 6.06551 -2.28034 0
M  V30 60831 N 6244.97 0.344947 1.53779 0
M  V30 60832 C 6246.2 -0.255156 2.05824 0
M  V30 60833 C 6246.62 -1.43325 1.21817 0
M  V30 60834 O 6245.98 -1.79806 0.232254 0
M  V30 60835 C 6246.03 -0.646781 3.54752 0
M  V30 60836 O 6245.13 -1.74664 3.73586 0
M  V30 60837 H 6244.47 -0.0420286 0.662669 0
M  V30 60838 H 6247 0.499568 1.98407 0
M  V30 60839 H 6247.01 -0.923546 3.9741 0
M  V30 60840 H 6245.69 0.214765 4.15345 0
M  V30 60841 H 6244.27 -1.46703 3.4283 0
M  V30 60842 N 6246.45 -1.57428 0.0736007 0
M  V30 60843 C 6247.68 -1.97885 -0.604078 0
M  V30 60844 C 6248.09 -0.952026 -1.6304 0
M  V30 60845 O 6247.45 0.0611 -1.82398 0
M  V30 60846 C 6247.5 -3.38418 -1.27104 0
M  V30 60847 O 6247.22 -4.37167 -0.285797 0
M  V30 60848 C 6248.72 -3.9376 -2.03637 0
M  V30 60849 H 6245.94 -0.650753 -0.16359 0
M  V30 60850 H 6248.49 -2.03974 0.146538 0
M  V30 60851 H 6246.64 -3.3341 -1.97273 0
M  V30 60852 H 6247.06 -5.18898 -0.764516 0
M  V30 60853 H 6248.53 -4.94306 -2.45693 0
M  V30 60854 H 6249.01 -3.30401 -2.89365 0
M  V30 60855 H 6249.61 -4.02175 -1.38331 0
M  V30 60856 N 6247.93 0.199967 -1.56326 0
M  V30 60857 C 6249.15 0.941552 -1.84796 0
M  V30 60858 C 6249.58 1.76268 -0.656587 0
M  V30 60859 O 6248.94 1.76953 0.394641 0
M  V30 60860 C 6248.98 1.81743 -3.11451 0
M  V30 60861 O 6248.09 2.91561 -2.91661 0
M  V30 60862 H 6247.43 0.265423 -0.608643 0
M  V30 60863 H 6249.96 0.206754 -2.03553 0
M  V30 60864 H 6249.97 2.22304 -3.42118 0
M  V30 60865 H 6248.64 1.21406 -3.97786 0
M  V30 60866 H 6247.22 2.5479 -2.7228 0
M  V30 60867 N 6249.41 1.50506 0.4675 0
M  V30 60868 C 6250.63 1.65712 1.24717 0
M  V30 60869 C 6251.06 0.341615 1.84972 0
M  V30 60870 O 6250.41 -0.694934 1.67453 0
M  V30 60871 C 6250.46 2.75297 2.32903 0
M  V30 60872 O 6249.57 2.368 3.37638 0
M  V30 60873 H 6248.91 0.553523 0.366754 0
M  V30 60874 H 6251.44 1.96903 0.555919 0
M  V30 60875 H 6251.45 2.98482 2.78159 0
M  V30 60876 H 6250.12 3.70771 1.88418 0
M  V30 60877 H 6248.7 2.24076 2.98068 0
M  V30 60878 N 6250.88 -0.720924 1.40144 0
M  V30 60879 C 6252.3 -1.29984 1.34019 0
M  V30 60880 C 6252.65 -1.96197 0.0111505 0
M  V30 60881 O 6251.77 -1.9721 -0.890915 0
M  V30 60882 C 6252.37 -2.36364 2.42729 0
M  V30 60883 C 6250.93 -2.89893 2.40081 0
M  V30 60884 C 6250.07 -1.63619 2.23884 0
M  V30 60885 H 6253.02 -0.517428 1.50028 0
M  V30 60886 H 6253.04 -3.17084 2.10329 0
M  V30 60887 H 6252.56 -1.88144 3.39446 0
M  V30 60888 H 6250.66 -3.42357 1.47045 0
M  V30 60889 H 6250.77 -3.4205 3.35468 0
M  V30 60890 H 6249.13 -1.88485 1.71305 0
M  V30 60891 H 6249.92 -1.17431 3.22591 0
M  V30 60892 N 6252.36 -1.25553 -0.95259 0
M  V30 60893 C 6253.29 -1.08599 -2.06709 0
M  V30 60894 C 6254.27 0.00554592 -1.70099 0
M  V30 60895 O 6255.46 -0.164367 -1.93503 0
M  V30 60896 C 6252.59 -0.706103 -3.40046 0
M  V30 60897 C 6251.54 -1.7481 -3.90673 0
M  V30 60898 C 6250.87 -1.22285 -5.20529 0
M  V30 60899 C 6252.17 -3.14732 -4.16823 0
M  V30 60900 H 6253.86 -2.01824 -2.2115 0
M  V30 60901 H 6251.41 -0.971761 -1.06268 0
M  V30 60902 H 6253.36 -0.574427 -4.17467 0
M  V30 60903 H 6252.09 0.261849 -3.25549 0
M  V30 60904 H 6250.75 -1.86826 -3.15423 0
M  V30 60905 H 6250.39 -0.245063 -5.02403 0
M  V30 60906 H 6250.09 -1.9193 -5.55371 0
M  V30 60907 H 6251.62 -1.1036 -6.00544 0
M  V30 60908 H 6253.03 -3.05859 -4.84895 0
M  V30 60909 H 6251.43 -3.81865 -4.62924 0
M  V30 60910 H 6252.5 -3.6164 -3.23024 0
M  V30 60911 N 6253.84 1.15551 -1.07172 0
M  V30 60912 C 6255.07 1.90179 -0.814837 0
M  V30 60913 C 6255.48 1.77916 0.631766 0
M  V30 60914 O 6254.84 1.12985 1.4332 0
M  V30 60915 C 6254.89 3.40589 -1.21167 0
M  V30 60916 O 6254.61 3.52495 -2.60152 0
M  V30 60917 C 6256.11 4.32245 -0.983827 0
M  V30 60918 H 6253.33 0.602793 -0.294756 0
M  V30 60919 H 6255.88 1.46414 -1.4277 0
M  V30 60920 H 6254.03 3.82024 -0.643175 0
M  V30 60921 H 6254.45 4.45829 -2.76291 0
M  V30 60922 H 6255.92 5.36205 -1.31102 0
M  V30 60923 H 6256.4 4.39127 0.0799478 0
M  V30 60924 H 6257 3.9655 -1.53714 0
M  V30 60925 N 6255.32 0.855565 1.32355 0
M  V30 60926 C 6256.23 0.303778 2.32625 0
M  V30 60927 C 6257.25 -0.578869 1.64089 0
M  V30 60928 O 6258.42 -0.479022 1.9562 0
M  V30 60929 C 6255.49 -0.498031 3.43104 0
M  V30 60930 C 6254.55 0.410864 4.27329 0
M  V30 60931 C 6253.78 -0.352773 5.32533 0
M  V30 60932 O 6254 -1.58262 5.48005 0
M  V30 60933 O 6252.94 0.281901 6.01239 0
M  V30 60934 H 6256.76 1.13453 2.81713 0
M  V30 60935 H 6254.35 0.618527 1.35995 0
M  V30 60936 H 6256.23 -0.953096 4.1048 0
M  V30 60937 H 6254.91 -1.30556 2.96204 0
M  V30 60938 H 6253.81 0.914124 3.6276 0
M  V30 60939 H 6255.15 1.1836 4.77757 0
M  V30 60940 N 6256.8 -1.45165 0.613591 0
M  V30 60941 C 6258.02 -2.07076 0.115894 0
M  V30 60942 C 6258.45 -1.45419 -1.1931 0
M  V30 60943 O 6257.81 -0.549107 -1.72785 0
M  V30 60944 C 6257.85 -3.606 -0.00393563 0
M  V30 60945 O 6256.96 -3.98741 -1.05259 0
M  V30 60946 H 6256.3 -0.659545 0.0767911 0
M  V30 60947 H 6258.83 -1.86322 0.845302 0
M  V30 60948 H 6258.84 -4.07508 -0.200213 0
M  V30 60949 H 6257.51 -4.04862 0.951837 0
M  V30 60950 H 6256.09 -3.63493 -0.832296 0
M  V30 60951 N 6258.28 -0.353098 -1.53594 0
M  V30 60952 C 6259.5 0.241593 -2.05485 0
M  V30 60953 C 6259.92 1.43454 -1.22745 0
M  V30 60954 O 6259.28 1.80565 -0.265073 0
M  V30 60955 C 6259.33 0.647317 -3.55657 0
M  V30 60956 O 6259.05 -0.4982 -4.35258 0
M  V30 60957 C 6260.55 1.30172 -4.23757 0
M  V30 60958 H 6257.77 0.0449469 -0.669493 0
M  V30 60959 H 6260.31 -0.507853 -1.98094 0
M  V30 60960 H 6258.47 1.34669 -3.6324 0
M  V30 60961 H 6258.88 -0.17287 -5.24215 0
M  V30 60962 H 6260.36 1.53628 -5.30191 0
M  V30 60963 H 6260.83 2.25822 -3.76698 0
M  V30 60964 H 6261.44 0.644117 -4.20394 0
M  V30 60965 N 6259.75 1.57387 -0.0819485 0
M  V30 60966 C 6260.98 1.98203 0.593575 0
M  V30 60967 C 6261.4 0.960659 1.62532 0
M  V30 60968 O 6260.75 -0.0514261 1.82428 0
M  V30 60969 C 6260.8 3.39087 1.25308 0
M  V30 60970 O 6260.53 4.37312 0.262609 0
M  V30 60971 C 6262.03 3.94834 2.01546 0
M  V30 60972 H 6259.25 0.651611 0.160136 0
M  V30 60973 H 6261.79 2.03894 -0.157353 0
M  V30 60974 H 6259.95 3.34451 1.95502 0
M  V30 60975 H 6260.36 5.19296 0.736987 0
M  V30 60976 H 6261.83 4.95602 2.43068 0
M  V30 60977 H 6262.31 3.31931 2.87608 0
M  V30 60978 H 6262.92 4.02903 1.36196 0
M  V30 60979 N 6261.23 -0.191674 1.5643 0
M  V30 60980 C 6262.16 -1.24017 1.97844 0
M  V30 60981 C 6263.14 -1.47288 0.850905 0
M  V30 60982 O 6264.33 -1.58967 1.11549 0
M  V30 60983 C 6261.46 -2.58365 2.32088 0
M  V30 60984 C 6260.41 -2.497 3.47612 0
M  V30 60985 C 6259.74 -3.88352 3.67541 0
M  V30 60986 C 6261.04 -2.01912 4.81694 0
M  V30 60987 H 6262.73 -0.896 2.85678 0
M  V30 60988 H 6260.28 -0.429568 1.37444 0
M  V30 60989 H 6262.23 -3.31899 2.59655 0
M  V30 60990 H 6260.95 -2.94529 1.4114 0
M  V30 60991 H 6259.61 -1.78621 3.20141 0
M  V30 60992 H 6259.26 -4.21875 2.73918 0
M  V30 60993 H 6258.96 -3.83428 4.4526 0
M  V30 60994 H 6260.49 -4.63504 3.97488 0
M  V30 60995 H 6261.9 -2.65207 5.0827 0
M  V30 60996 H 6260.3 -2.07983 5.62906 0
M  V30 60997 H 6261.37 -0.972482 4.75048 0
M  V30 60998 N 6262.71 -1.50752 -0.459512 0
M  V30 60999 C 6263.64 -1.73395 -1.56386 0
M  V30 61000 C 6264.62 -0.583158 -1.59791 0
M  V30 61001 O 6265.81 -0.823536 -1.75874 0
M  V30 61002 C 6262.94 -1.83872 -2.94633 0
M  V30 61003 C 6261.89 -2.99151 -3.06092 0
M  V30 61004 C 6261.22 -2.94784 -4.46101 0
M  V30 61005 C 6262.52 -4.39481 -2.82231 0
M  V30 61006 H 6264.21 -2.65861 -1.3769 0
M  V30 61007 H 6261.76 -1.27935 -0.660956 0
M  V30 61008 H 6263.71 -1.98296 -3.71829 0
M  V30 61009 H 6262.43 -0.880365 -3.14511 0
M  V30 61010 H 6261.09 -2.84396 -2.31332 0
M  V30 61011 H 6260.74 -1.96771 -4.62915 0
M  V30 61012 H 6260.44 -3.72182 -4.54703 0
M  V30 61013 H 6261.96 -3.11272 -5.25302 0
M  V30 61014 H 6263.38 -4.54701 -3.4917 0
M  V30 61015 H 6261.77 -5.18417 -3.02265 0
M  V30 61016 H 6262.84 -4.51049 -1.77996 0
M  V30 61017 N 6264.19 0.713481 -1.40525 0
M  V30 61018 C 6265.41 1.50761 -1.42429 0
M  V30 61019 C 6265.84 1.88082 -0.0263078 0
M  V30 61020 O 6265.2 1.53413 0.966131 0
M  V30 61021 C 6265.24 2.75805 -2.32301 0
M  V30 61022 O 6264.35 3.72593 -1.76771 0
M  V30 61023 H 6263.69 0.454456 -0.484114 0
M  V30 61024 H 6266.22 0.878518 -1.84779 0
M  V30 61025 H 6266.23 3.24311 -2.47561 0
M  V30 61026 H 6264.9 2.47976 -3.33887 0
M  V30 61027 H 6263.48 3.31449 -1.70869 0
M  V30 61028 N 6265.67 1.26056 0.945918 0
M  V30 61029 C 6266.89 1.14085 1.72604 0
M  V30 61030 C 6267.31 -0.30444 1.86329 0
M  V30 61031 O 6266.67 -1.2088 1.36727 0
M  V30 61032 C 6266.72 1.79949 3.13529 0
M  V30 61033 O 6266.44 3.18829 3.00465 0
M  V30 61034 C 6267.94 1.73871 4.07779 0
M  V30 61035 H 6265.16 0.397505 0.540584 0
M  V30 61036 H 6267.7 1.66586 1.18614 0
M  V30 61037 H 6265.86 1.31398 3.64436 0
M  V30 61038 H 6266.27 3.5135 3.89427 0
M  V30 61039 H 6267.75 2.24601 5.0424 0
M  V30 61040 H 6268.22 0.704247 4.33517 0
M  V30 61041 H 6268.83 2.21952 3.62791 0
M  V30 61042 N 6267.14 -1.14981 1.07783 0
M  V30 61043 C 6268.07 -2.22004 0.723642 0
M  V30 61044 C 6269.06 -1.67593 -0.290965 0
M  V30 61045 O 6270.24 -1.93517 -0.162744 0
M  V30 61046 C 6267.37 -3.47074 0.125345 0
M  V30 61047 C 6266.32 -4.14471 1.06759 0
M  V30 61048 C 6265.65 -5.33669 0.331831 0
M  V30 61049 C 6266.95 -4.63735 2.40306 0
M  V30 61050 H 6268.64 -2.51887 1.61843 0
M  V30 61051 H 6266.19 -1.2107 0.779613 0
M  V30 61052 H 6268.14 -4.21186 -0.134407 0
M  V30 61053 H 6266.87 -3.16535 -0.804542 0
M  V30 61054 H 6265.53 -3.42306 1.31234 0
M  V30 61055 H 6265.17 -4.99389 -0.601657 0
M  V30 61056 H 6264.87 -5.79706 0.959925 0
M  V30 61057 H 6266.4 -6.10548 0.0799815 0
M  V30 61058 H 6267.81 -5.29352 2.20134 0
M  V30 61059 H 6266.21 -5.2045 2.9875 0
M  V30 61060 H 6267.28 -3.7914 3.02293 0
M  V30 61061 N 6268.62 -0.862572 -1.31899 0
M  V30 61062 C 6270.03 -0.523408 -1.79213 0
M  V30 61063 C 6270.38 0.959249 -1.71152 0
M  V30 61064 O 6269.51 1.74863 -1.27483 0
M  V30 61065 C 6270.1 -0.943309 -3.25403 0
M  V30 61066 C 6268.66 -0.655919 -3.70641 0
M  V30 61067 C 6267.81 -1.1387 -2.52842 0
M  V30 61068 H 6270.76 -1.04901 -1.19086 0
M  V30 61069 H 6270.78 -0.262927 -3.7959 0
M  V30 61070 H 6270.29 -2.02244 -3.31238 0
M  V30 61071 H 6268.4 0.412161 -3.70313 0
M  V30 61072 H 6268.51 -1.22776 -4.63101 0
M  V30 61073 H 6266.87 -0.558703 -2.48497 0
M  V30 61074 H 6267.66 -2.22511 -2.61427 0
M  V30 61075 N 6270.1 1.44837 -0.62128 0
M  V30 61076 C 6271.51 1.85567 -0.205349 0
M  V30 61077 C 6271.86 1.51967 1.24098 0
M  V30 61078 O 6270.99 0.952956 1.94288 0
M  V30 61079 C 6271.58 3.36818 -0.365907 0
M  V30 61080 C 6270.14 3.764 -0.00456143 0
M  V30 61081 C 6269.29 2.68733 -0.683933 0
M  V30 61082 H 6272.24 1.35444 -0.827084 0
M  V30 61083 H 6272.26 3.78413 0.39799 0
M  V30 61084 H 6271.77 3.61242 -1.41866 0
M  V30 61085 H 6269.87 3.57592 1.04684 0
M  V30 61086 H 6269.99 4.77362 -0.407756 0
M  V30 61087 H 6268.35 2.54416 -0.120204 0
M  V30 61088 H 6269.13 2.95991 -1.73908 0
M  V30 61089 N 6271.58 0.361238 1.53404 0
M  V30 61090 C 6272.54 -0.474947 2.24225 0
M  V30 61091 C 6273.54 -1.01326 1.24858 0
M  V30 61092 O 6274.73 -0.899703 1.49168 0
M  V30 61093 C 6271.86 -1.6634 2.97563 0
M  V30 61094 H 6273.06 0.1447 2.99551 0
M  V30 61095 H 6270.61 0.112857 1.55892 0
M  V30 61096 H 6271.34 -2.32126 2.26469 0
M  V30 61097 H 6271.13 -1.28441 3.70466 0
M  V30 61098 H 6272.62 -2.25608 3.51413 0
M  V30 61099 N 6273.06 -1.57341 0.090294 0
M  V30 61100 C 6274.31 -1.93354 -0.574205 0
M  V30 61101 C 6274.62 -0.9738 -1.69636 0
M  V30 61102 O 6275.82 -1.22746 -2.42169 0
M  V30 61103 C 6274.28 -3.4354 -1.07277 0
M  V30 61104 C 6273.89 -4.47996 0.0193737 0
M  V30 61105 C 6275.63 -3.88522 -1.71028 0
M  V30 61106 C 6273.54 -5.89331 -0.49428 0
M  V30 61107 H 6272.47 -0.721719 -0.218262 0
M  V30 61108 H 6275.12 -1.82752 0.16552 0
M  V30 61109 H 6273.5 -3.49278 -1.86604 0
M  V30 61110 H 6274.68 -4.53896 0.794686 0
M  V30 61111 H 6272.99 -4.12593 0.561773 0
M  V30 61112 H 6275.59 -4.91512 -2.10522 0
M  V30 61113 H 6275.93 -3.26905 -2.57757 0
M  V30 61114 H 6276.46 -3.85465 -0.982922 0
M  V30 61115 H 6273.2 -6.54637 0.336284 0
M  V30 61116 H 6272.72 -5.86912 -1.2367 0
M  V30 61117 H 6274.4 -6.39766 -0.964789 0
M  V30 61118 N 6274.53 0.183375 -1.5653 0
M  V30 61119 C 6275.44 1.24739 -1.98689 0
M  V30 61120 C 6276.46 1.49136 -0.896353 0
M  V30 61121 O 6277.64 1.61521 -1.20304 0
M  V30 61122 C 6274.7 2.56919 -2.32795 0
M  V30 61123 C 6273.76 2.40491 -3.55616 0
M  V30 61124 C 6273 3.66367 -3.88086 0
M  V30 61125 O 6273.22 4.71036 -3.21685 0
M  V30 61126 O 6272.15 3.61197 -4.81477 0
M  V30 61127 H 6275.98 0.919575 -2.89443 0
M  V30 61128 H 6273.56 0.389301 -1.44239 0
M  V30 61129 H 6275.45 3.34914 -2.55755 0
M  V30 61130 H 6274.12 2.89304 -1.45206 0
M  V30 61131 H 6273.03 1.60568 -3.37889 0
M  V30 61132 H 6274.36 2.13034 -4.43709 0
M  V30 61133 N 6276.01 1.50994 0.451511 0
M  V30 61134 C 6276.95 1.65947 1.56642 0
M  V30 61135 C 6277.92 0.507213 1.54487 0
M  V30 61136 O 6279.11 0.729248 1.73822 0
M  V30 61137 C 6276.23 1.66005 2.95229 0
M  V30 61138 C 6275.28 2.87027 3.15464 0
M  V30 61139 S 6276.11 4.48054 2.93271 0
M  V30 61140 C 6277.27 4.50835 4.34164 0
M  V30 61141 H 6277.5 2.60252 1.43722 0
M  V30 61142 H 6275.04 1.40501 0.640226 0
M  V30 61143 H 6276.99 1.66723 3.75118 0
M  V30 61144 H 6275.65 0.729018 3.05523 0
M  V30 61145 H 6274.85 2.83428 4.16755 0
M  V30 61146 H 6274.45 2.83977 2.43378 0
M  V30 61147 H 6276.74 4.25603 5.27132 0
M  V30 61148 H 6277.68 5.52569 4.42801 0
M  V30 61149 H 6278.09 3.80316 4.17157 0
M  V30 61150 N 6277.49 -0.706019 1.40901 0
M  V30 61151 C 6278.72 -1.49499 1.4303 0
M  V30 61152 C 6279.13 -1.88772 0.0326416 0
M  V30 61153 O 6278.49 -1.56088 -0.945661 0
M  V30 61154 C 6278.54 -2.76423 2.32965 0
M  V30 61155 O 6278.26 -2.38808 3.67291 0
M  V30 61156 C 6279.76 -3.70247 2.43787 0
M  V30 61157 H 6276.98 -0.461052 0.487516 0
M  V30 61158 H 6279.53 -0.870133 1.85065 0
M  V30 61159 H 6277.68 -3.3517 1.94267 0
M  V30 61160 H 6278.1 -3.20546 4.15151 0
M  V30 61161 H 6279.57 -4.56118 3.10903 0
M  V30 61162 H 6280.05 -4.14015 1.46588 0
M  V30 61163 H 6280.65 -3.17407 2.83077 0
M  V30 61164 N 6278.97 -1.26556 -0.93922 0
M  V30 61165 C 6280.19 -1.15104 -1.72528 0
M  V30 61166 C 6280.62 0.289746 -1.85855 0
M  V30 61167 O 6279.98 1.20992 -1.35021 0
M  V30 61168 C 6280.02 -1.82714 -3.10883 0
M  V30 61169 O 6279.13 -1.11726 -3.96977 0
M  V30 61170 H 6278.47 -0.400969 -0.529264 0
M  V30 61171 H 6281 -1.67412 -1.17619 0
M  V30 61172 H 6281.01 -1.89616 -3.61261 0
M  V30 61173 H 6279.68 -2.8753 -3.00499 0
M  V30 61174 H 6278.26 -1.12814 -3.55426 0
M  V30 61175 N 6280.45 1.14407 -1.08391 0
M  V30 61176 C 6281.67 1.89304 -0.834962 0
M  V30 61177 C 6282.09 1.78576 0.61286 0
M  V30 61178 O 6281.45 1.14499 1.42113 0
M  V30 61179 C 6281.5 3.39284 -1.24773 0
M  V30 61180 O 6281.22 3.49716 -2.63876 0
M  V30 61181 C 6282.72 4.31177 -1.02962 0
M  V30 61182 H 6279.94 0.599633 -0.301133 0
M  V30 61183 H 6282.48 1.44892 -1.44314 0
M  V30 61184 H 6280.64 3.8132 -0.683658 0
M  V30 61185 H 6281.05 4.42874 -2.81004 0
M  V30 61186 H 6282.53 5.34785 -1.36782 0
M  V30 61187 H 6283 4.39187 0.033368 0
M  V30 61188 H 6283.61 3.94898 -1.57911 0
M  V30 61189 N 6281.93 0.869555 1.3144 0
M  V30 61190 C 6282.89 0.329949 2.26813 0
M  V30 61191 C 6283.89 -0.518841 1.52199 0
M  V30 61192 O 6285.08 -0.328207 1.7108 0
M  V30 61193 C 6282.21 -0.531472 3.36732 0
M  V30 61194 H 6283.4 1.17189 2.76056 0
M  V30 61195 H 6280.96 0.645111 1.42366 0
M  V30 61196 H 6281.69 -1.39463 2.92781 0
M  V30 61197 H 6281.48 0.0762931 3.92026 0
M  V30 61198 H 6282.97 -0.901304 4.07758 0
M  V30 61199 N 6283.4 -1.44506 0.628953 0
M  V30 61200 C 6284.81 -1.85456 0.215187 0
M  V30 61201 C 6285.17 -1.52623 -1.23291 0
M  V30 61202 O 6284.29 -0.963246 -1.9378 0
M  V30 61203 C 6284.89 -3.3662 0.383764 0
M  V30 61204 C 6283.44 -3.76392 0.0245228 0
M  V30 61205 C 6282.59 -2.68367 0.698175 0
M  V30 61206 H 6285.54 -1.35003 0.834255 0
M  V30 61207 H 6285.56 -3.78619 -0.377916 0
M  V30 61208 H 6285.08 -3.60485 1.43779 0
M  V30 61209 H 6283.18 -3.58142 -1.02786 0
M  V30 61210 H 6283.29 -4.77139 0.433066 0
M  V30 61211 H 6281.65 -2.54349 0.133695 0
M  V30 61212 H 6282.44 -2.95065 1.75476 0
M  V30 61213 N 6284.88 -0.369369 -1.5321 0
M  V30 61214 C 6286.29 0.109024 -1.86381 0
M  V30 61215 C 6286.64 1.47844 -1.28983 0
M  V30 61216 O 6285.77 2.07526 -0.61334 0
M  V30 61217 C 6286.36 0.204607 -3.38182 0
M  V30 61218 C 6284.92 0.627261 -3.71137 0
M  V30 61219 C 6284.07 -0.223183 -2.764 0
M  V30 61220 H 6287.02 -0.588019 -1.47404 0
M  V30 61221 H 6287.04 1.02748 -3.66365 0
M  V30 61222 H 6286.55 -0.792215 -3.79928 0
M  V30 61223 H 6284.65 1.63218 -3.34949 0
M  V30 61224 H 6284.77 0.399243 -4.77434 0
M  V30 61225 H 6283.13 0.308519 -2.52825 0
M  V30 61226 H 6283.91 -1.21762 -3.20981 0
M  V30 61227 N 6286.36 1.57291 -0.0986369 0
M  V30 61228 C 6287.58 1.99244 0.575896 0
M  V30 61229 C 6288.01 0.977434 1.6071 0
M  V30 61230 O 6287.37 -0.0536133 1.81221 0
M  V30 61231 C 6287.42 3.40153 1.19702 0
M  V30 61232 O 6286.52 3.41442 2.31281 0
M  V30 61233 H 6285.86 0.647796 0.145794 0
M  V30 61234 H 6288.39 2.03797 -0.181095 0
M  V30 61235 H 6288.4 3.77923 1.53747 0
M  V30 61236 H 6287.08 4.13549 0.441568 0
M  V30 61237 H 6285.65 3.15471 1.98828 0
M  V30 61238 N 6287.84 -0.175072 1.56625 0
M  V30 61239 C 6289.07 -0.907976 1.85912 0
M  V30 61240 C 6289.48 -1.75991 0.683576 0
M  V30 61241 O 6288.84 -1.79163 -0.34739 0
M  V30 61242 C 6288.89 -1.78779 3.14198 0
M  V30 61243 O 6288.61 -0.970235 4.27221 0
M  V30 61244 C 6290.11 -2.63068 3.56805 0
M  V30 61245 H 6287.33 -0.263965 0.616898 0
M  V30 61246 H 6289.87 -0.176297 2.03739 0
M  V30 61247 H 6288.03 -2.47286 2.98209 0
M  V30 61248 H 6288.44 -1.57161 5.004 0
M  V30 61249 H 6289.92 -3.20424 4.4948 0
M  V30 61250 H 6290.39 -3.37756 2.80744 0
M  V30 61251 H 6291 -1.999 3.75393 0
M  V30 61252 N 6289.32 -1.51231 -0.443497 0
M  V30 61253 C 6290.73 -1.56141 -1.02357 0
M  V30 61254 C 6291.08 -0.381203 -1.92461 0
M  V30 61255 O 6290.2 0.502743 -2.10479 0
M  V30 61256 C 6290.8 -2.82973 -1.8631 0
M  V30 61257 C 6289.36 -2.90474 -2.39378 0
M  V30 61258 C 6288.5 -2.50739 -1.18429 0
M  V30 61259 H 6291.45 -1.57097 -0.225005 0
M  V30 61260 H 6291.48 -2.66388 -2.71694 0
M  V30 61261 H 6290.99 -3.68852 -1.20704 0
M  V30 61262 H 6289.09 -2.09011 -3.08456 0
M  V30 61263 H 6289.2 -3.9399 -2.72596 0
M  V30 61264 H 6287.57 -2.03797 -1.52771 0
M  V30 61265 H 6288.35 -3.38956 -0.54443 0
M  V30 61266 N 6290.79 0.698537 -1.41274 0
M  V30 61267 C 6292.02 1.48738 -1.43821 0
M  V30 61268 C 6292.44 1.88752 -0.0426521 0
M  V30 61269 O 6291.79 1.56587 0.93737 0
M  V30 61270 C 6291.84 2.75184 -2.34427 0
M  V30 61271 O 6291.57 2.36856 -3.68552 0
M  V30 61272 C 6293.07 3.68949 -2.45748 0
M  V30 61273 H 6290.29 0.45846 -0.489954 0
M  V30 61274 H 6292.83 0.860306 -1.85524 0
M  V30 61275 H 6290.99 3.34135 -1.96042 0
M  V30 61276 H 6291.4 3.18339 -4.16846 0
M  V30 61277 H 6292.87 4.54462 -3.13318 0
M  V30 61278 H 6293.35 4.13232 -1.48781 0
M  V30 61279 H 6293.96 3.15902 -2.84757 0
M  V30 61280 N 6292.27 1.27052 0.932495 0
M  V30 61281 C 6293.23 1.09411 2.014 0
M  V30 61282 C 6294.23 0.0396322 1.60751 0
M  V30 61283 O 6295.42 0.283807 1.71873 0
M  V30 61284 C 6292.56 0.666065 3.3433 0
M  V30 61285 H 6293.75 2.05441 2.18481 0
M  V30 61286 H 6291.3 1.09772 1.11264 0
M  V30 61287 H 6292.04 -0.295838 3.22948 0
M  V30 61288 H 6291.82 1.42757 3.65189 0
M  V30 61289 H 6293.31 0.564736 4.13764 0
M  V30 61290 N 6293.75 -1.13831 1.08997 0
M  V30 61291 C 6295.16 -1.66565 0.843384 0
M  V30 61292 C 6295.51 -1.85848 -0.62889 0
M  V30 61293 O 6294.64 -1.57406 -1.485 0
M  V30 61294 C 6295.23 -3.02567 1.52442 0
M  V30 61295 C 6293.79 -3.52311 1.32492 0
M  V30 61296 C 6292.94 -2.27652 1.58334 0
M  V30 61297 H 6295.89 -0.978137 1.24973 0
M  V30 61298 H 6295.91 -3.6832 0.955028 0
M  V30 61299 H 6295.42 -2.88501 2.59594 0
M  V30 61300 H 6293.52 -3.71588 0.274379 0
M  V30 61301 H 6293.64 -4.32707 2.05673 0
M  V30 61302 H 6292 -2.34024 1.00522 0
M  V30 61303 H 6292.78 -2.16156 2.66705 0
M  V30 61304 N 6295.23 -0.876513 -1.30977 0
M  V30 61305 C 6296.46 -0.505385 -2.00633 0
M  V30 61306 C 6296.87 0.903893 -1.65757 0
M  V30 61307 O 6296.23 1.59315 -0.89022 0
M  V30 61308 C 6296.28 -0.660567 -3.55414 0
M  V30 61309 O 6296 -2.01435 -3.89044 0
M  V30 61310 C 6297.5 -0.291313 -4.42342 0
M  V30 61311 H 6294.72 -0.196217 -0.641669 0
M  V30 61312 H 6297.26 -1.17948 -1.67058 0
M  V30 61313 H 6295.42 -0.0339438 -3.87385 0
M  V30 61314 H 6295.83 -2.02685 -4.83755 0
M  V30 61315 H 6297.31 -0.450824 -5.50156 0
M  V30 61316 H 6297.78 0.770036 -4.32397 0
M  V30 61317 H 6298.39 -0.893908 -4.158 0
M  V30 61318 N 6296.71 1.4417 -0.636607 0
M  V30 61319 C 6297.93 2.06352 -0.150528 0
M  V30 61320 C 6298.35 1.47612 1.17712 0
M  V30 61321 O 6297.71 0.601063 1.72318 0
M  V30 61322 C 6297.76 3.61483 -0.0354929 0
M  V30 61323 O 6297.48 4.18036 -1.31065 0
M  V30 61324 C 6298.98 4.40709 0.478634 0
M  V30 61325 H 6296.2 0.665946 -0.0822041 0
M  V30 61326 H 6298.74 1.8495 -0.87256 0
M  V30 61327 H 6296.9 3.82127 0.637008 0
M  V30 61328 H 6297.31 5.11534 -1.15904 0
M  V30 61329 H 6298.79 5.49656 0.508122 0
M  V30 61330 H 6299.26 4.12545 1.50676 0
M  V30 61331 H 6299.87 4.24996 -0.160803 0
M  V30 61332 N 6298.18 0.377489 1.53012 0
M  V30 61333 C 6299.41 -0.208872 2.05843 0
M  V30 61334 C 6299.83 -1.41483 1.25012 0
M  V30 61335 O 6299.18 -1.8012 0.293766 0
M  V30 61336 C 6299.24 -0.590653 3.56642 0
M  V30 61337 O 6298.96 0.567383 4.3441 0
M  V30 61338 C 6300.46 -1.23414 4.25775 0
M  V30 61339 H 6297.68 -0.0342901 0.670123 0
M  V30 61340 H 6300.22 0.539303 1.97261 0
M  V30 61341 H 6298.38 -1.28873 3.65336 0
M  V30 61342 H 6298.79 0.256246 5.23874 0
M  V30 61343 H 6300.26 -1.45173 5.32568 0
M  V30 61344 H 6300.74 -2.198 3.80243 0
M  V30 61345 H 6301.35 -0.577155 4.21366 0
M  V30 61346 N 6299.66 -1.57237 0.106977 0
M  V30 61347 C 6300.89 -1.99547 -0.565322 0
M  V30 61348 C 6301.31 -0.985943 -1.6019 0
M  V30 61349 O 6300.67 0.044002 -1.81247 0
M  V30 61350 C 6300.72 -3.40783 -1.17896 0
M  V30 61351 O 6299.82 -3.42664 -2.29467 0
M  V30 61352 H 6299.16 -0.648561 -0.142356 0
M  V30 61353 H 6301.69 -2.03698 0.1919 0
M  V30 61354 H 6301.7 -3.78733 -1.5174 0
M  V30 61355 H 6300.38 -4.13778 -0.419631 0
M  V30 61356 H 6298.96 -3.16521 -1.97152 0
M  V30 61357 N 6301.14 0.166763 -1.56715 0
M  V30 61358 C 6302.39 0.880908 -1.81891 0
M  V30 61359 C 6302.71 1.82583 -0.684715 0
M  V30 61360 O 6301.98 1.93665 0.295105 0
M  V30 61361 H 6300.56 0.328287 -0.670997 0
M  V30 61362 H 6303.22 0.16549 -1.94196 0
M  V30 61363 H 6302.32 1.45507 -2.76105 0
M  V30 61364 N 6302.62 1.51464 0.43547 0
M  V30 61365 C 6303.87 1.63901 1.18241 0
M  V30 61366 C 6304.19 0.358389 1.91678 0
M  V30 61367 O 6303.46 -0.625823 1.85635 0
M  V30 61368 H 6302.04 0.604056 0.439461 0
M  V30 61369 H 6304.7 1.88402 0.499084 0
M  V30 61370 H 6303.8 2.46756 1.91096 0
M  V30 61371 N 6304.1 -0.691035 1.41642 0
M  V30 61372 C 6305.05 -1.79713 1.40312 0
M  V30 61373 C 6306.03 -1.58501 0.276806 0
M  V30 61374 O 6307.22 -1.69256 0.51782 0
M  V30 61375 C 6304.35 -3.18054 1.29215 0
M  V30 61376 C 6303.44 -3.44945 2.46726 0
M  V30 61377 N 6303.83 -3.42509 3.72184 0
M  V30 61378 C 6302.13 -3.75513 2.40637 0
M  V30 61379 C 6302.83 -3.68431 4.50148 0
M  V30 61380 N 6301.8 -3.88399 3.80325 0
M  V30 61381 H 6305.61 -1.76199 2.35226 0
M  V30 61382 H 6303.12 -0.891213 1.35761 0
M  V30 61383 H 6305.12 -3.97295 1.26343 0
M  V30 61384 H 6303.78 -3.22777 0.352888 0
M  V30 61385 H 6304.79 -3.22785 4.05007 0
M  V30 61386 H 6301.46 -3.87579 1.55207 0
M  V30 61387 H 6302.85 -3.72646 5.59093 0
M  V30 61388 N 6305.57 -1.27545 -0.925744 0
M  V30 61389 C 6306.8 -1.16816 -1.70767 0
M  V30 61390 C 6307.22 0.274758 -1.8679 0
M  V30 61391 O 6306.57 1.18689 -1.38633 0
M  V30 61392 C 6306.63 -1.84914 -3.10627 0
M  V30 61393 O 6306.35 -3.23569 -2.95355 0
M  V30 61394 C 6307.85 -1.80336 -4.04961 0
M  V30 61395 H 6305.07 -0.406055 -0.534191 0
M  V30 61396 H 6307.61 -1.68452 -1.15949 0
M  V30 61397 H 6305.77 -1.37179 -3.62299 0
M  V30 61398 H 6306.18 -3.57501 -3.83788 0
M  V30 61399 H 6307.65 -2.32595 -5.00603 0
M  V30 61400 H 6308.13 -0.773127 -4.32342 0
M  V30 61401 H 6308.74 -2.27695 -3.59214 0
M  V30 61402 N 6307.05 1.13251 -1.09599 0
M  V30 61403 C 6307.98 2.20824 -0.758869 0
M  V30 61404 C 6308.96 1.68035 0.264266 0
M  V30 61405 O 6310.15 1.93751 0.131937 0
M  V30 61406 C 6307.28 3.4683 -0.180546 0
M  V30 61407 C 6306.23 4.1272 -1.1334 0
M  V30 61408 C 6305.56 5.33074 -0.416691 0
M  V30 61409 C 6306.86 4.59853 -2.47653 0
M  V30 61410 H 6308.55 2.49281 -1.6583 0
M  V30 61411 H 6306.1 1.19815 -0.798776 0
M  V30 61412 H 6308.05 4.21346 0.0673832 0
M  V30 61413 H 6306.78 3.17775 0.754083 0
M  V30 61414 H 6305.43 3.40175 -1.36663 0
M  V30 61415 H 6305.08 5.00283 0.522132 0
M  V30 61416 H 6304.78 5.78106 -1.05203 0
M  V30 61417 H 6306.31 6.10343 -0.177104 0
M  V30 61418 H 6307.72 5.25783 -2.28527 0
M  V30 61419 H 6306.12 5.15631 -3.06992 0
M  V30 61420 H 6307.19 3.74283 -3.08286 0
M  V30 61421 N 6308.53 0.883447 1.3051 0
M  V30 61422 C 6309.76 0.515256 2.00898 0
M  V30 61423 C 6310.18 -0.888457 1.65795 0
M  V30 61424 O 6309.54 -1.58856 0.873748 0
M  V30 61425 C 6309.59 0.695415 3.53831 0
M  V30 61426 O 6308.69 -0.259371 4.11584 0
M  V30 61427 H 6308.03 0.203232 0.632133 0
M  V30 61428 H 6310.56 1.19057 1.66393 0
M  V30 61429 H 6310.57 0.59383 4.03655 0
M  V30 61430 H 6309.25 1.71888 3.78718 0
M  V30 61431 H 6307.82 -0.11161 3.72733 0
M  V30 61432 N 6310.01 -1.43831 0.644244 0
M  V30 61433 C 6311.42 -1.85217 0.234845 0
M  V30 61434 C 6311.77 -1.53922 -1.21665 0
M  V30 61435 O 6310.9 -0.983745 -1.92747 0
M  V30 61436 C 6311.49 -3.36194 0.419445 0
M  V30 61437 C 6310.05 -3.76345 0.0644428 0
M  V30 61438 C 6309.2 -2.67611 0.7266 0
M  V30 61439 H 6312.15 -1.34111 0.848527 0
M  V30 61440 H 6312.17 -3.78998 -0.337737 0
M  V30 61441 H 6311.68 -3.58939 1.47595 0
M  V30 61442 H 6309.78 -3.59212 -0.989813 0
M  V30 61443 H 6309.89 -4.76653 0.483649 0
M  V30 61444 H 6308.26 -2.54193 0.160664 0
M  V30 61445 H 6309.04 -2.93187 1.78595 0
M  V30 61446 N 6311.49 -0.385598 -1.5281 0
M  V30 61447 C 6312.9 0.0892497 -1.86487 0
M  V30 61448 C 6313.25 1.46468 -1.30543 0
M  V30 61449 O 6312.37 2.06864 -0.635317 0
M  V30 61450 C 6312.97 0.168727 -3.3838 0
M  V30 61451 C 6311.53 0.587862 -3.71781 0
M  V30 61452 C 6310.68 -0.252486 -2.76148 0
M  V30 61453 H 6313.63 -0.60362 -1.46772 0
M  V30 61454 H 6313.65 0.988564 -3.67434 0
M  V30 61455 H 6313.16 -0.832467 -3.79067 0
M  V30 61456 H 6311.26 1.59656 -3.36661 0
M  V30 61457 H 6311.37 0.348582 -4.7783 0
M  V30 61458 H 6309.74 0.281686 -2.53138 0
M  V30 61459 H 6310.52 -1.25159 -3.19672 0
M  V30 61460 N 6312.97 1.57178 -0.115314 0
M  V30 61461 C 6314.38 1.82128 0.410651 0
M  V30 61462 C 6314.73 1.03225 1.66851 0
M  V30 61463 O 6313.85 0.267715 2.14738 0
M  V30 61464 C 6314.45 3.30353 0.751807 0
M  V30 61465 C 6313.01 3.55997 1.22242 0
M  V30 61466 C 6312.15 2.76351 0.229247 0
M  V30 61467 H 6315.1 1.55004 -0.340496 0
M  V30 61468 H 6315.13 3.4478 1.60956 0
M  V30 61469 H 6314.64 3.87754 -0.163863 0
M  V30 61470 H 6312.74 3.0395 2.15512 0
M  V30 61471 H 6312.85 4.64587 1.17029 0
M  V30 61472 H 6311.22 2.44443 0.715535 0
M  V30 61473 H 6312 3.36509 -0.679455 0
M  V30 61474 N 6314.44 -0.15845 1.56801 0
M  V30 61475 C 6315.67 -0.892226 1.87227 0
M  V30 61476 C 6316.09 -1.74466 0.70309 0
M  V30 61477 O 6315.45 -1.77937 -0.347586 0
M  V30 61478 C 6315.5 -1.73422 3.1616 0
M  V30 61479 O 6314.6 -2.83725 2.99289 0
M  V30 61480 H 6313.94 -0.249192 0.615467 0
M  V30 61481 H 6316.47 -0.152713 2.04029 0
M  V30 61482 H 6316.48 -2.13155 3.47892 0
M  V30 61483 H 6315.16 -1.10817 4.00865 0
M  V30 61484 H 6313.74 -2.47481 2.7894 0
M  V30 61485 N 6315.92 -1.51693 -0.427432 0
M  V30 61486 C 6317.15 -1.68673 -1.19821 0
M  V30 61487 C 6317.56 -0.388296 -1.84764 0
M  V30 61488 O 6316.92 0.634107 -1.7113 0
M  V30 61489 C 6316.97 -2.80944 -2.27492 0
M  V30 61490 O 6316.69 -4.05758 -1.65203 0
M  V30 61491 C 6318.19 -3.09278 -3.17588 0
M  V30 61492 H 6315.41 -0.565764 -0.360766 0
M  V30 61493 H 6317.96 -1.9816 -0.505254 0
M  V30 61494 H 6316.11 -2.54028 -2.92487 0
M  V30 61495 H 6316.53 -4.68184 -2.36441 0
M  V30 61496 H 6318 -3.91393 -3.8925 0
M  V30 61497 H 6318.48 -2.22085 -3.78913 0
M  V30 61498 H 6319.08 -3.3789 -2.58283 0
M  V30 61499 N 6317.4 0.683514 -1.42007 0
M  V30 61500 C 6318.63 1.47204 -1.45391 0
M  V30 61501 C 6319.04 1.88696 -0.0626694 0
M  V30 61502 O 6318.4 1.57573 0.920709 0
M  V30 61503 C 6318.45 2.72682 -2.37333 0
M  V30 61504 O 6318.17 2.32934 -3.71044 0
M  V30 61505 C 6319.67 3.66321 -2.49647 0
M  V30 61506 H 6316.89 0.453238 -0.494789 0
M  V30 61507 H 6319.44 0.840581 -1.86426 0
M  V30 61508 H 6317.59 3.32037 -1.99575 0
M  V30 61509 H 6318.01 3.139 -4.20199 0
M  V30 61510 H 6319.48 4.51114 -3.1812 0
M  V30 61511 H 6319.96 4.11631 -1.53156 0
M  V30 61512 H 6320.56 3.12864 -2.88091 0
M  V30 61513 N 6318.88 1.28034 0.918967 0
M  V30 61514 C 6320.11 1.1772 1.70146 0
M  V30 61515 C 6320.52 -0.264848 1.86933 0
M  V30 61516 O 6319.88 -1.17952 1.39261 0
M  V30 61517 C 6319.93 1.86559 3.09642 0
M  V30 61518 O 6319.65 3.25131 2.93635 0
M  V30 61519 C 6321.15 1.82481 4.03999 0
M  V30 61520 H 6318.37 0.408882 0.532031 0
M  V30 61521 H 6320.91 1.69065 1.15054 0
M  V30 61522 H 6319.07 1.39098 3.61567 0
M  V30 61523 H 6319.48 3.59532 3.81886 0
M  V30 61524 H 6320.96 2.35246 4.99363 0
M  V30 61525 H 6321.43 0.796044 4.31926 0
M  V30 61526 H 6322.04 2.29597 3.58002 0
M  V30 61527 N 6320.36 -1.12669 1.10198 0
M  V30 61528 C 6321.58 -1.88492 0.865179 0
M  V30 61529 C 6322.01 -1.78979 -0.578628 0
M  V30 61530 O 6321.36 -1.14297 -1.40733 0
M  V30 61531 C 6321.41 -3.35763 1.31511 0
M  V30 61532 O 6320.52 -4.09614 0.478591 0
M  V30 61533 H 6319.86 -0.585771 0.312679 0
M  V30 61534 H 6322.39 -1.425 1.46816 0
M  V30 61535 H 6322.4 -3.86601 1.30399 0
M  V30 61536 H 6321.07 -3.42005 2.36655 0
M  V30 61537 H 6319.65 -3.68751 0.554719 0
M  V30 61538 N 6321.83 -0.890356 -1.3004 0
M  V30 61539 C 6323.24 -0.561304 -1.78063 0
M  V30 61540 C 6323.6 0.92273 -1.73148 0
M  V30 61541 O 6322.72 1.7212 -1.31163 0
M  V30 61542 C 6323.32 -1.01212 -3.23329 0
M  V30 61543 C 6321.87 -0.73439 -3.69166 0
M  V30 61544 C 6321.02 -1.19208 -2.50369 0
M  V30 61545 H 6323.97 -1.07404 -1.16834 0
M  V30 61546 H 6323.99 -0.343385 -3.78947 0
M  V30 61547 H 6323.51 -2.09225 -3.26874 0
M  V30 61548 H 6321.61 0.33352 -3.71104 0
M  V30 61549 H 6321.72 -1.32572 -4.60393 0
M  V30 61550 H 6320.08 -0.611287 -2.47256 0
M  V30 61551 H 6320.87 -2.28006 -2.56648 0
M  V30 61552 N 6323.31 1.43487 -0.651863 0
M  V30 61553 C 6324.72 1.8509 -0.244665 0
M  V30 61554 C 6325.07 1.54565 1.20847 0
M  V30 61555 O 6324.2 0.993953 1.92223 0
M  V30 61556 C 6324.79 3.35966 -0.437269 0
M  V30 61557 C 6323.35 3.76305 -0.0844004 0
M  V30 61558 C 6322.5 2.67222 -0.740782 0
M  V30 61559 H 6325.45 1.33659 -0.855628 0
M  V30 61560 H 6325.47 3.79172 0.317633 0
M  V30 61561 H 6324.98 3.58151 -1.49496 0
M  V30 61562 H 6323.08 3.59732 0.970749 0
M  V30 61563 H 6323.2 4.76389 -0.50892 0
M  V30 61564 H 6321.56 2.54104 -0.174142 0
M  V30 61565 H 6322.34 2.92236 -1.80148 0
M  V30 61566 N 6324.79 0.393696 1.52603 0
M  V30 61567 C 6326.04 -0.186714 2.01236 0
M  V30 61568 C 6326.36 -1.46952 1.2818 0
M  V30 61569 O 6325.63 -1.91707 0.403155 0
M  V30 61570 H 6324.21 -0.0719876 0.743523 0
M  V30 61571 H 6326.87 0.526396 1.87657 0
M  V30 61572 H 6325.97 -0.393812 3.09605 0
M  V30 61573 N 6326.27 -1.57114 0.123648 0
M  V30 61574 C 6327.5 -1.99707 -0.540817 0
M  V30 61575 C 6327.91 -1.00341 -1.59928 0
M  V30 61576 O 6327.27 0.00304061 -1.825 0
M  V30 61577 C 6327.32 -3.4229 -1.16273 0
M  V30 61578 O 6327.04 -4.37855 -0.146571 0
M  V30 61579 C 6328.54 -4.00039 -1.91007 0
M  V30 61580 H 6325.76 -0.655628 -0.142804 0
M  V30 61581 H 6328.31 -2.03405 0.211356 0
M  V30 61582 H 6326.46 -3.39517 -1.86566 0
M  V30 61583 H 6326.87 -5.21068 -0.599045 0
M  V30 61584 H 6328.35 -5.01873 -2.29843 0
M  V30 61585 H 6328.83 -3.3944 -2.78707 0
M  V30 61586 H 6329.43 -4.06372 -1.25466 0
M  V30 61587 N 6327.75 0.150132 -1.56883 0
M  V30 61588 C 6329.16 0.710513 -1.72652 0
M  V30 61589 C 6329.51 1.81809 -0.737557 0
M  V30 61590 O 6328.63 2.16185 0.0965035 0
M  V30 61591 C 6329.23 1.29561 -3.13048 0
M  V30 61592 C 6327.79 1.8026 -3.30429 0
M  V30 61593 C 6326.93 0.689828 -2.68583 0
M  V30 61594 H 6329.89 -0.075503 -1.5852 0
M  V30 61595 H 6329.91 2.16541 -3.12874 0
M  V30 61596 H 6329.42 0.489277 -3.85003 0
M  V30 61597 H 6327.52 2.6347 -2.63466 0
M  V30 61598 H 6327.63 1.93346 -4.38354 0
M  V30 61599 H 6326 1.11566 -2.28965 0
M  V30 61600 H 6326.78 -0.105013 -3.43139 0
M  V30 61601 N 6329.22 1.51918 0.419381 0
M  V30 61602 C 6330.45 1.69306 1.18924 0
M  V30 61603 C 6330.87 0.398089 1.84555 0
M  V30 61604 O 6330.22 -0.625023 1.71463 0
M  V30 61605 C 6330.28 2.82147 2.25999 0
M  V30 61606 O 6330 4.06628 1.63049 0
M  V30 61607 C 6331.5 3.10958 3.15943 0
M  V30 61608 H 6328.72 0.567669 0.357761 0
M  V30 61609 H 6331.26 1.98425 0.494738 0
M  V30 61610 H 6329.42 2.55576 2.91135 0
M  V30 61611 H 6329.83 4.69431 2.33954 0
M  V30 61612 H 6331.3 3.93452 3.87169 0
M  V30 61613 H 6331.78 2.24091 3.7773 0
M  V30 61614 H 6332.39 3.39255 2.56488 0
M  V30 61615 N 6330.7 -0.675973 1.42367 0
M  V30 61616 C 6332.12 -0.988957 1.25267 0
M  V30 61617 C 6332.32 -2.00895 0.156012 0
M  V30 61618 O 6331.37 -2.48027 -0.473142 0
M  V30 61619 C 6332.69 -1.49488 2.60909 0
M  V30 61620 C 6334.24 -1.61272 2.68254 0
M  V30 61621 C 6334.71 -2.15261 4.04261 0
M  V30 61622 N 6336.2 -2.22596 4.06209 0
M  V30 61623 C 6336.94 -2.65442 5.0826 0
M  V30 61624 N 6336.43 -3.07749 6.20695 0
M  V30 61625 N 6338.23 -2.6518 4.95617 0
M  V30 61626 H 6330.38 -0.00062326 2.124 0
M  V30 61627 H 6332.64 -0.0628002 0.945918 0
M  V30 61628 H 6332.35 -0.819912 3.42009 0
M  V30 61629 H 6332.22 -2.47382 2.84749 0
M  V30 61630 H 6334.61 -2.27876 1.87501 0
M  V30 61631 H 6334.69 -0.618706 2.48205 0
M  V30 61632 H 6334.33 -1.49266 4.85471 0
M  V30 61633 H 6334.26 -3.15451 4.21661 0
M  V30 61634 H 6336.75 -1.92764 3.25039 0
M  V30 61635 H 6337.07 -3.39126 6.94416 0
M  V30 61636 H 6335.41 -3.05609 6.24202 0
M  V30 61637 H 6338.6 -2.31489 4.06854 0
M  V30 61638 H 6338.77 -2.98252 5.75283 0
M  V30 61639 N 6332.18 -1.2852 -0.912164 0
M  V30 61640 C 6333.43 -1.15538 -1.65818 0
M  V30 61641 C 6333.75 0.29611 -1.92739 0
M  V30 61642 O 6333.02 1.20487 -1.54466 0
M  V30 61643 H 6331.6 -0.424594 -0.614596 0
M  V30 61644 H 6334.26 -1.61271 -1.09443 0
M  V30 61645 H 6333.36 -1.69615 -2.61987 0
M  V30 61646 N 6333.66 1.12083 -1.10794 0
M  V30 61647 C 6334.89 1.8749 -0.874928 0
M  V30 61648 C 6335.3 1.79836 0.574844 0
M  V30 61649 O 6334.66 1.17488 1.39653 0
M  V30 61650 C 6334.71 3.36561 -1.31942 0
M  V30 61651 O 6334.43 3.4404 -2.71234 0
M  V30 61652 C 6335.93 4.28896 -1.12084 0
M  V30 61653 H 6333.15 0.593111 -0.313784 0
M  V30 61654 H 6335.7 1.41798 -1.47355 0
M  V30 61655 H 6333.85 3.79784 -0.764388 0
M  V30 61656 H 6334.26 4.36814 -2.90335 0
M  V30 61657 H 6335.74 5.31763 -1.48095 0
M  V30 61658 H 6336.22 4.39159 -0.0597976 0
M  V30 61659 H 6336.82 3.91459 -1.66252 0
M  V30 61660 N 6335.14 0.89724 1.29566 0
M  V30 61661 C 6336.36 0.53724 1.99803 0
M  V30 61662 C 6336.78 -0.877408 1.67174 0
M  V30 61663 O 6336.14 -1.57879 0.915453 0
M  V30 61664 C 6336.19 0.717027 3.54318 0
M  V30 61665 O 6335.91 2.07599 3.8579 0
M  V30 61666 C 6337.41 0.361649 4.41822 0
M  V30 61667 H 6334.63 0.206401 0.638467 0
M  V30 61668 H 6337.17 1.20591 1.65161 0
M  V30 61669 H 6335.33 0.0955691 3.87282 0
M  V30 61670 H 6335.74 2.10355 4.8047 0
M  V30 61671 H 6337.22 0.538292 5.49369 0
M  V30 61672 H 6337.69 -0.701148 4.33567 0
M  V30 61673 H 6338.3 0.959945 4.14325 0
M  V30 61674 N 6336.61 -1.43139 0.659463 0
M  V30 61675 C 6337.84 -2.06086 0.183338 0
M  V30 61676 C 6338.26 -1.49466 -1.15349 0
M  V30 61677 O 6337.61 -0.628401 -1.7134 0
M  V30 61678 C 6337.67 -3.6138 0.0929972 0
M  V30 61679 O 6337.39 -4.15897 1.37699 0
M  V30 61680 C 6338.89 -4.41414 -0.408461 0
M  V30 61681 H 6336.11 -0.664553 0.0927883 0
M  V30 61682 H 6338.65 -1.83539 0.901874 0
M  V30 61683 H 6336.81 -3.83092 -0.576134 0
M  V30 61684 H 6337.22 -5.09625 1.24027 0
M  V30 61685 H 6338.69 -5.50395 -0.420612 0
M  V30 61686 H 6339.17 -4.1489 -1.44093 0
M  V30 61687 H 6339.78 -4.24686 0.228396 0
M  V30 61688 N 6338.09 -0.401784 -1.52392 0
M  V30 61689 C 6339.34 0.176039 -2.01332 0
M  V30 61690 C 6339.66 1.4627 -1.28958 0
M  V30 61691 O 6338.93 1.9149 -0.413316 0
M  V30 61692 H 6337.51 0.0680435 -0.743895 0
M  V30 61693 H 6340.17 -0.53634 -1.87375 0
M  V30 61694 H 6339.27 0.377388 -3.0981 0
M  V30 61695 N 6339.57 1.57046 -0.131978 0
M  V30 61696 C 6340.8 2.00421 0.533504 0
M  V30 61697 C 6341.22 1.0113 1.58601 0
M  V30 61698 O 6340.58 -0.0151616 1.81294 0
M  V30 61699 C 6340.63 3.42615 1.1246 0
M  V30 61700 O 6339.73 3.46271 2.23986 0
M  V30 61701 H 6339.07 0.650743 0.13202 0
M  V30 61702 H 6341.6 2.03367 -0.224283 0
M  V30 61703 H 6341.61 3.81099 1.45696 0
M  V30 61704 H 6340.29 4.14393 0.353749 0
M  V30 61705 H 6338.86 3.19617 1.92092 0
M  V30 61706 N 6341.05 -0.14181 1.56961 0
M  V30 61707 C 6342.27 -0.872317 1.88163 0
M  V30 61708 C 6342.7 -1.7371 0.721555 0
M  V30 61709 O 6342.06 -1.78296 -0.328694 0
M  V30 61710 C 6342.11 -1.70058 3.17982 0
M  V30 61711 O 6341.21 -2.80535 3.02281 0
M  V30 61712 H 6340.55 -0.242651 0.618075 0
M  V30 61713 H 6343.08 -0.131065 2.0418 0
M  V30 61714 H 6343.09 -2.09453 3.50133 0
M  V30 61715 H 6341.77 -1.06559 4.02017 0
M  V30 61716 H 6340.34 -2.44509 2.81549 0
M  V30 61717 N 6342.53 -1.52138 -0.411319 0
M  V30 61718 C 6343.75 -1.70227 -1.1848 0
M  V30 61719 C 6344.18 -0.410031 -1.83577 0
M  V30 61720 O 6343.54 0.632306 -1.69916 0
M  V30 61721 C 6343.58 -2.83752 -2.22525 0
M  V30 61722 O 6342.69 -2.49168 -3.28617 0
M  V30 61723 H 6342.03 -0.566753 -0.345958 0
M  V30 61724 H 6344.56 -1.9883 -0.482456 0
M  V30 61725 H 6344.57 -3.086 -2.6689 0
M  V30 61726 H 6343.24 -3.77509 -1.74527 0
M  V30 61727 H 6341.82 -2.34984 -2.89546 0
M  V30 61728 N 6344.01 0.668413 -1.42723 0
M  V30 61729 C 6344.97 1.76359 -1.4639 0
M  V30 61730 C 6345.97 1.56931 -0.350609 0
M  V30 61731 O 6347.16 1.63106 -0.611715 0
M  V30 61732 C 6344.29 3.15067 -1.30176 0
M  V30 61733 H 6345.48 1.74494 -2.43909 0
M  V30 61734 H 6343.04 0.87865 -1.29265 0
M  V30 61735 H 6343.77 3.22554 -0.336039 0
M  V30 61736 H 6343.56 3.30573 -2.10865 0
M  V30 61737 H 6345.05 3.94958 -1.35639 0
M  V30 61738 N 6345.48 1.29002 0.905335 0
M  V30 61739 C 6346.89 1.15038 1.47048 0
M  V30 61740 C 6347.25 -0.256555 1.94515 0
M  V30 61741 O 6346.37 -1.15157 1.83215 0
M  V30 61742 C 6346.97 2.08222 2.67262 0
M  V30 61743 C 6345.52 1.98297 3.1993 0
M  V30 61744 C 6344.67 1.99475 1.92627 0
M  V30 61745 H 6347.62 1.41568 0.717222 0
M  V30 61746 H 6347.64 1.65115 3.42808 0
M  V30 61747 H 6347.16 3.10612 2.32684 0
M  V30 61748 H 6345.26 0.989756 3.59214 0
M  V30 61749 H 6345.37 2.85679 3.84609 0
M  V30 61750 H 6343.73 1.43996 2.10089 0
M  V30 61751 H 6344.52 3.03559 1.60333 0
M  V30 61752 N 6346.96 -1.11493 1.11387 0
M  V30 61753 C 6348.19 -1.87024 0.884859 0
M  V30 61754 C 6348.6 -1.80138 -0.565299 0
M  V30 61755 O 6347.96 -1.18227 -1.39028 0
M  V30 61756 C 6348.01 -3.35857 1.33725 0
M  V30 61757 O 6347.73 -3.42597 2.73055 0
M  V30 61758 C 6349.23 -4.28296 1.14357 0
M  V30 61759 H 6346.45 -0.591438 0.316925 0
M  V30 61760 H 6349 -1.41014 1.48105 0
M  V30 61761 H 6347.15 -3.79373 0.784518 0
M  V30 61762 H 6347.57 -4.35268 2.92647 0
M  V30 61763 H 6349.04 -5.3097 1.50913 0
M  V30 61764 H 6349.52 -4.39121 0.0830865 0
M  V30 61765 H 6350.12 -3.90572 1.68326 0
M  V30 61766 N 6348.44 -0.904098 -1.29088 0
M  V30 61767 C 6349.85 -0.580158 -1.77457 0
M  V30 61768 C 6350.2 0.904313 -1.74117 0
M  V30 61769 O 6349.33 1.70719 -1.32981 0
M  V30 61770 C 6349.92 -1.04636 -3.22237 0
M  V30 61771 C 6348.48 -0.773504 -3.68366 0
M  V30 61772 C 6347.63 -1.21857 -2.49091 0
M  V30 61773 H 6350.58 -1.08637 -1.15688 0
M  V30 61774 H 6350.6 -0.383558 -3.78562 0
M  V30 61775 H 6350.11 -2.1268 -3.24636 0
M  V30 61776 H 6348.21 0.29414 -3.71437 0
M  V30 61777 H 6348.33 -1.37447 -4.58961 0
M  V30 61778 H 6346.69 -0.637477 -2.46593 0
M  V30 61779 H 6347.47 -2.30715 -2.54215 0
M  V30 61780 N 6349.92 1.42788 -0.667045 0
M  V30 61781 C 6351.14 2.06503 -0.192669 0
M  V30 61782 C 6351.57 1.49747 1.13831 0
M  V30 61783 O 6350.93 0.612857 1.70628 0
M  V30 61784 C 6350.97 3.60366 -0.129901 0
M  V30 61785 O 6350.08 4.02373 0.903877 0
M  V30 61786 H 6349.42 0.65624 -0.101217 0
M  V30 61787 H 6351.95 1.83056 -0.913871 0
M  V30 61788 H 6351.96 4.07971 0.0488305 0
M  V30 61789 H 6350.63 4.0105 -1.10144 0
M  V30 61790 H 6349.21 3.66332 0.696814 0
M  V30 61791 N 6351.4 0.40986 1.52177 0
M  V30 61792 C 6352.62 -0.165162 2.0624 0
M  V30 61793 C 6353.04 -1.38799 1.27985 0
M  V30 61794 O 6352.4 -1.79456 0.331906 0
M  V30 61795 C 6352.45 -0.514871 3.57815 0
M  V30 61796 O 6352.17 0.6594 4.33109 0
M  V30 61797 C 6353.67 -1.14355 4.28297 0
M  V30 61798 H 6350.89 -0.0200681 0.6707 0
M  V30 61799 H 6353.43 0.581024 1.96072 0
M  V30 61800 H 6351.59 -1.21095 3.67987 0
M  V30 61801 H 6352 0.36731 5.23212 0
M  V30 61802 H 6353.48 -1.33844 5.35528 0
M  V30 61803 H 6353.95 -2.11685 3.84819 0
M  V30 61804 H 6354.56 -0.487647 4.22495 0
M  V30 61805 N 6352.87 -1.56974 0.140305 0
M  V30 61806 C 6354.12 -1.96198 -0.513233 0
M  V30 61807 C 6354.45 -1.02488 -1.64954 0
M  V30 61808 O 6353.73 -0.0660015 -1.94388 0
M  V30 61809 C 6354.01 -3.45181 -1.02577 0
M  V30 61810 C 6353.86 -4.49669 0.10859 0
M  V30 61811 C 6355.18 -3.96506 -1.90975 0
M  V30 61812 H 6352.3 -0.71338 -0.185089 0
M  V30 61813 H 6354.94 -1.8872 0.220178 0
M  V30 61814 H 6353.09 -3.51685 -1.65075 0
M  V30 61815 H 6354.77 -4.55249 0.744698 0
M  V30 61816 H 6353.01 -4.26935 0.768708 0
M  V30 61817 H 6353.68 -5.51229 -0.291629 0
M  V30 61818 H 6356.16 -3.92439 -1.38315 0
M  V30 61819 H 6355.03 -5.01227 -2.23747 0
M  V30 61820 H 6355.29 -3.38462 -2.84422 0
M  V30 61821 N 6354.35 0.133484 -1.57034 0
M  V30 61822 C 6355.28 1.18978 -1.959 0
M  V30 61823 C 6356.3 1.3845 -0.856475 0
M  V30 61824 O 6357.49 1.37781 -1.13484 0
M  V30 61825 C 6354.59 2.55234 -2.22955 0
M  V30 61826 C 6353.76 2.56559 -3.54254 0
M  V30 61827 C 6352.82 3.74454 -3.6969 0
M  V30 61828 O 6351.84 3.58705 -4.4195 0
M  V30 61829 N 6353.05 4.92448 -3.07368 0
M  V30 61830 H 6355.81 0.859295 -2.87117 0
M  V30 61831 H 6353.37 0.322914 -1.58647 0
M  V30 61832 H 6355.36 3.32637 -2.3051 0
M  V30 61833 H 6353.93 2.80522 -1.37936 0
M  V30 61834 H 6353.15 1.64975 -3.58018 0
M  V30 61835 H 6354.44 2.54488 -4.40583 0
M  V30 61836 H 6353.84 5.08147 -2.48602 0
M  V30 61837 H 6352.4 5.67579 -3.20465 0
M  V30 61838 N 6355.83 1.52354 0.403245 0
M  V30 61839 C 6357.06 1.70558 1.17122 0
M  V30 61840 C 6357.47 0.417641 1.84123 0
M  V30 61841 O 6356.83 -0.606802 1.72117 0
M  V30 61842 C 6356.88 2.84528 2.22994 0
M  V30 61843 O 6356.6 4.08335 1.58727 0
M  V30 61844 C 6358.1 3.14292 3.12627 0
M  V30 61845 H 6355.32 0.571432 0.35172 0
M  V30 61846 H 6357.87 1.98939 0.473664 0
M  V30 61847 H 6356.02 2.58649 2.88408 0
M  V30 61848 H 6356.44 4.71886 2.28962 0
M  V30 61849 H 6357.91 3.97536 3.82974 0
M  V30 61850 H 6358.39 2.28085 3.75332 0
M  V30 61851 H 6358.99 3.41957 2.52875 0
M  V30 61852 N 6357.31 -0.660835 1.43076 0
M  V30 61853 C 6358.54 -1.44873 1.47714 0
M  V30 61854 C 6358.95 -1.88572 0.0926813 0
M  V30 61855 O 6358.31 -1.59018 -0.895524 0
M  V30 61856 C 6358.36 -2.68871 2.41641 0
M  V30 61857 O 6358.08 -2.27002 3.74702 0
M  V30 61858 C 6359.58 -3.62303 2.55443 0
M  V30 61859 H 6356.8 -0.445309 0.501937 0
M  V30 61860 H 6359.35 -0.810816 1.87739 0
M  V30 61861 H 6357.5 -3.2882 2.04832 0
M  V30 61862 H 6357.91 -3.07176 4.25139 0
M  V30 61863 H 6359.39 -4.45996 3.25257 0
M  V30 61864 H 6359.87 -4.09142 1.59685 0
M  V30 61865 H 6360.47 -3.08241 2.93032 0
M  V30 61866 N 6358.79 -1.2948 -0.898481 0
M  V30 61867 C 6360.01 -1.20412 -1.68251 0
M  V30 61868 C 6360.43 0.235075 -1.87331 0
M  V30 61869 O 6359.79 1.15722 -1.41119 0
M  V30 61870 C 6359.84 -1.91462 -3.06634 0
M  V30 61871 O 6359.56 -3.29761 -2.88425 0
M  V30 61872 C 6361.06 -1.88885 -4.01045 0
M  V30 61873 H 6358.28 -0.417294 -0.525458 0
M  V30 61874 H 6360.82 -1.70874 -1.1235 0
M  V30 61875 H 6358.98 -1.44833 -3.59308 0
M  V30 61876 H 6359.39 -3.65562 -3.76118 0
M  V30 61877 H 6360.87 -2.43161 -4.95557 0
M  V30 61878 H 6361.34 -0.864659 -4.30605 0
M  V30 61879 H 6361.95 -2.35264 -3.54304 0
M  V30 61880 N 6360.26 1.10901 -1.11976 0
M  V30 61881 C 6361.49 1.86552 -0.894765 0
M  V30 61882 C 6361.91 1.80436 0.555737 0
M  V30 61883 O 6361.26 1.18962 1.38399 0
M  V30 61884 C 6361.32 3.35143 -1.35504 0
M  V30 61885 O 6361.04 3.41144 -2.74868 0
M  V30 61886 C 6362.54 4.27683 -1.16627 0
M  V30 61887 H 6359.76 0.589749 -0.320057 0
M  V30 61888 H 6362.3 1.40227 -1.48851 0
M  V30 61889 H 6360.46 3.78952 -0.804626 0
M  V30 61890 H 6360.87 4.3371 -2.94951 0
M  V30 61891 H 6362.34 5.30162 -1.53727 0
M  V30 61892 H 6362.82 4.39071 -0.106373 0
M  V30 61893 H 6363.43 3.89674 -1.70395 0
M  V30 61894 N 6361.74 0.910931 1.28607 0
M  V30 61895 C 6362.97 0.557754 1.9976 0
M  V30 61896 C 6363.39 -0.853089 1.67642 0
M  V30 61897 O 6362.75 -1.56967 0.907247 0
M  V30 61898 C 6362.8 0.770312 3.52276 0
M  V30 61899 O 6361.9 -0.17201 4.12041 0
M  V30 61900 H 6361.24 0.216595 0.62768 0
M  V30 61901 H 6363.77 1.2256 1.6383 0
M  V30 61902 H 6363.78 0.679317 4.02305 0
M  V30 61903 H 6362.46 1.79882 3.74987 0
M  V30 61904 H 6361.04 -0.0325224 3.72886 0
M  V30 61905 N 6363.22 -1.42432 0.674608 0
M  V30 61906 C 6364.18 -2.29199 0.0053512 0
M  V30 61907 C 6365.18 -1.43316 -0.729195 0
M  V30 61908 O 6366.37 -1.64706 -0.567227 0
M  V30 61909 C 6363.51 -3.25808 -1.00308 0
M  V30 61910 H 6364.7 -2.89872 0.769056 0
M  V30 61911 H 6362.25 -1.50068 0.436951 0
M  V30 61912 H 6362.99 -2.70074 -1.79528 0
M  V30 61913 H 6362.77 -3.89154 -0.479765 0
M  V30 61914 H 6364.26 -3.9088 -1.46979 0
M  V30 61915 N 6364.7 -0.417924 -1.51958 0
M  V30 61916 C 6365.94 0.147557 -2.02864 0
M  V30 61917 C 6366.3 1.42057 -1.2976 0
M  V30 61918 O 6365.59 1.87423 -0.397886 0
M  V30 61919 C 6365.79 0.440654 -3.54673 0
M  V30 61920 C 6365.62 -0.802402 -4.42483 0
M  V30 61921 C 6364.39 -1.33021 -4.87477 0
M  V30 61922 C 6366.58 -1.68304 -4.85982 0
M  V30 61923 N 6364.57 -2.52783 -5.59441 0
M  V30 61924 C 6365.94 -2.72684 -5.56815 0
M  V30 61925 C 6367.99 -1.69976 -4.67988 0
M  V30 61926 C 6366.69 -3.78658 -6.11564 0
M  V30 61927 C 6368.72 -2.74873 -5.2364 0
M  V30 61928 C 6368.08 -3.77974 -5.94403 0
M  V30 61929 H 6364.18 0.0153332 -0.78185 0
M  V30 61930 H 6366.77 -0.574245 -1.86039 0
M  V30 61931 H 6364.94 1.1315 -3.71553 0
M  V30 61932 H 6366.67 0.995788 -3.92258 0
M  V30 61933 H 6363.42 -0.886952 -4.65221 0
M  V30 61934 H 6363.85 -3.1346 -6.0006 0
M  V30 61935 H 6368.49 -0.916035 -4.12757 0
M  V30 61936 H 6366.21 -4.57881 -6.65861 0
M  V30 61937 H 6369.79 -2.77085 -5.11581 0
M  V30 61938 H 6368.67 -4.57809 -6.36695 0
M  V30 61939 N 6366.18 1.56898 -0.148628 0
M  V30 61940 C 6367.4 2.00542 0.508977 0
M  V30 61941 C 6367.82 1.02873 1.58312 0
M  V30 61942 O 6367.18 0.0259939 1.82481 0
M  V30 61943 C 6367.23 3.44097 1.10813 0
M  V30 61944 O 6366.95 4.38033 0.0768941 0
M  V30 61945 C 6368.45 4.03027 1.84619 0
M  V30 61946 H 6365.67 0.657817 0.132355 0
M  V30 61947 H 6368.21 2.03043 -0.243689 0
M  V30 61948 H 6366.37 3.42442 1.81141 0
M  V30 61949 H 6366.78 5.21955 0.516072 0
M  V30 61950 H 6368.26 5.05466 2.21829 0
M  V30 61951 H 6368.73 3.43831 2.73271 0
M  V30 61952 H 6369.34 4.08317 1.18985 0
M  V30 61953 N 6367.65 -0.125154 1.57102 0
M  V30 61954 C 6369.07 -0.682956 1.7376 0
M  V30 61955 C 6369.42 -1.80613 0.766387 0
M  V30 61956 O 6368.54 -2.16311 -0.0620982 0
M  V30 61957 C 6369.14 -1.24565 3.1507 0
M  V30 61958 C 6367.7 -1.7498 3.33255 0
M  V30 61959 C 6366.84 -0.647012 2.69646 0
M  V30 61960 H 6369.79 0.100713 1.5838 0
M  V30 61961 H 6369.81 -2.11536 3.1628 0
M  V30 61962 H 6369.33 -0.427964 3.85733 0
M  V30 61963 H 6367.43 -2.59245 2.67624 0
M  V30 61964 H 6367.54 -1.86348 4.41374 0
M  V30 61965 H 6365.9 -1.07909 2.30711 0
M  V30 61966 H 6366.69 0.15959 3.42929 0
M  V30 61967 N 6369.13 -1.52566 -0.395159 0
M  V30 61968 C 6370.36 -1.71177 -1.16216 0
M  V30 61969 C 6370.78 -0.4274 -1.83899 0
M  V30 61970 O 6370.13 0.597665 -1.72436 0
M  V30 61971 C 6370.18 -2.85706 -2.21482 0
M  V30 61972 O 6369.9 -4.09171 -1.5656 0
M  V30 61973 C 6371.41 -3.15945 -3.10956 0
M  V30 61974 H 6368.63 -0.573289 -0.348684 0
M  V30 61975 H 6371.17 -1.99187 -0.463107 0
M  V30 61976 H 6369.32 -2.60175 -2.87033 0
M  V30 61977 H 6369.74 -4.73094 -2.26457 0
M  V30 61978 H 6371.21 -3.99561 -3.8086 0
M  V30 61979 H 6371.69 -2.30072 -3.74117 0
M  V30 61980 H 6372.3 -3.43293 -2.51058 0
M  V30 61981 N 6370.61 0.653238 -1.43424 0
M  V30 61982 C 6372.02 1.23441 -1.40068 0
M  V30 61983 C 6372.37 1.9592 -0.104746 0
M  V30 61984 O 6371.5 2.01236 0.795809 0
M  V30 61985 C 6372.09 2.24514 -2.5373 0
M  V30 61986 C 6370.65 2.78109 -2.53639 0
M  V30 61987 C 6369.8 1.52751 -2.31436 0
M  V30 61988 H 6372.75 0.445258 -1.52326 0
M  V30 61989 H 6372.77 3.06688 -2.25218 0
M  V30 61990 H 6372.28 1.71734 -3.48036 0
M  V30 61991 H 6370.38 3.34952 -1.63212 0
M  V30 61992 H 6370.5 3.25655 -3.51405 0
M  V30 61993 H 6368.86 1.80097 -1.80103 0
M  V30 61994 H 6369.64 1.01906 -3.27826 0
M  V30 61995 N 6372.09 1.29955 0.891602 0
M  V30 61996 C 6373.32 1.21303 1.6761 0
M  V30 61997 C 6373.73 -0.225137 1.87453 0
M  V30 61998 O 6373.09 -1.14972 1.41731 0
M  V30 61999 C 6373.14 1.93085 3.05615 0
M  V30 62000 O 6372.86 3.31286 2.86672 0
M  V30 62001 C 6374.36 1.9101 4.00038 0
M  V30 62002 H 6371.58 0.420075 0.523238 0
M  V30 62003 H 6374.13 1.71467 1.11442 0
M  V30 62004 H 6372.28 1.46736 3.58535 0
M  V30 62005 H 6372.7 3.67551 3.74174 0
M  V30 62006 H 6374.17 2.45786 4.9426 0
M  V30 62007 H 6374.65 0.887483 4.3014 0
M  V30 62008 H 6375.25 2.37139 3.53051 0
M  V30 62009 N 6373.57 -1.10306 1.12563 0
M  V30 62010 C 6374.98 -1.63798 0.895948 0
M  V30 62011 C 6375.33 -1.87755 -0.569445 0
M  V30 62012 O 6374.45 -1.62051 -1.43417 0
M  V30 62013 C 6375.05 -2.97564 1.61991 0
M  V30 62014 C 6373.61 -3.47917 1.43634 0
M  V30 62015 C 6372.76 -2.225 1.65497 0
M  V30 62016 H 6375.71 -0.937882 1.28021 0
M  V30 62017 H 6375.73 -3.65095 1.07172 0
M  V30 62018 H 6375.24 -2.80096 2.68641 0
M  V30 62019 H 6373.34 -3.70527 0.392458 0
M  V30 62020 H 6373.45 -4.25945 2.19335 0
M  V30 62021 H 6371.82 -2.30708 1.07916 0
M  V30 62022 H 6372.6 -2.07561 2.73447 0
M  V30 62023 N 6375.05 -0.917739 -1.28122 0
M  V30 62024 C 6375.98 -0.426259 -2.29576 0
M  V30 62025 C 6376.96 0.508232 -1.6233 0
M  V30 62026 O 6378.14 0.415114 -1.89711 0
M  V30 62027 C 6375.27 0.330885 -3.4572 0
M  V30 62028 C 6374.23 -0.51484 -4.24892 0
M  V30 62029 C 6373.55 0.370882 -5.33412 0
M  V30 62030 C 6374.85 -1.77417 -4.91244 0
M  V30 62031 H 6376.55 -1.27413 -2.70936 0
M  V30 62032 H 6374.09 -0.614111 -1.30249 0
M  V30 62033 H 6376.04 0.685584 -4.15786 0
M  V30 62034 H 6374.77 1.21269 -3.03251 0
M  V30 62035 H 6373.43 -0.852111 -3.56559 0
M  V30 62036 H 6373.08 1.25135 -4.87186 0
M  V30 62037 H 6372.78 -0.191416 -5.87288 0
M  V30 62038 H 6374.3 0.721374 -6.06324 0
M  V30 62039 H 6375.71 -1.48814 -5.53649 0
M  V30 62040 H 6374.11 -2.27919 -5.55133 0
M  V30 62041 H 6375.18 -2.49962 -4.15508 0
M  V30 62042 N 6376.52 1.42072 -0.682152 0
M  V30 62043 C 6377.75 2.06287 -0.214561 0
M  V30 62044 C 6378.17 1.50946 1.12236 0
M  V30 62045 O 6377.53 0.63092 1.69968 0
M  V30 62046 C 6377.58 3.60208 -0.168116 0
M  V30 62047 O 6376.68 4.03309 0.861149 0
M  V30 62048 H 6376.02 0.65513 -0.108171 0
M  V30 62049 H 6378.55 1.82077 -0.933235 0
M  V30 62050 H 6378.56 4.08 0.00555695 0
M  V30 62051 H 6377.24 3.99859 -1.14392 0
M  V30 62052 H 6375.82 3.6705 0.657921 0
M  V30 62053 N 6378 0.425977 1.51734 0
M  V30 62054 C 6379.23 -0.143279 2.06403 0
M  V30 62055 C 6379.64 -1.37434 1.2945 0
M  V30 62056 O 6379 -1.79094 0.350921 0
M  V30 62057 C 6379.05 -0.476891 3.58341 0
M  V30 62058 O 6378.77 0.7053 4.32385 0
M  V30 62059 C 6380.27 -1.09805 4.29485 0
M  V30 62060 H 6377.49 -0.0129533 0.670875 0
M  V30 62061 H 6380.04 0.601787 1.95445 0
M  V30 62062 H 6378.19 -1.17185 3.69251 0
M  V30 62063 H 6378.61 0.422783 5.22793 0
M  V30 62064 H 6380.08 -1.28157 5.36917 0
M  V30 62065 H 6380.56 -2.07592 3.87043 0
M  V30 62066 H 6381.16 -0.442808 4.22989 0
M  V30 62067 N 6379.48 -1.56817 0.156946 0
M  V30 62068 C 6380.89 -1.83153 -0.362219 0
M  V30 62069 C 6381.24 -1.07612 -1.64055 0
M  V30 62070 O 6380.37 -0.324554 -2.13952 0
M  V30 62071 C 6380.96 -3.3223 -0.663956 0
M  V30 62072 C 6379.52 -3.59113 -1.12761 0
M  V30 62073 C 6378.67 -2.76861 -0.155897 0
M  V30 62074 H 6381.62 -1.54047 0.381473 0
M  V30 62075 H 6381.64 -3.48927 -1.51758 0
M  V30 62076 H 6381.15 -3.87183 0.266611 0
M  V30 62077 H 6379.25 -3.09557 -2.07377 0
M  V30 62078 H 6379.37 -4.67526 -1.0467 0
M  V30 62079 H 6377.73 -2.46254 -0.650474 0
M  V30 62080 H 6378.51 -3.34589 0.768436 0
M  V30 62081 N 6380.96 0.116821 -1.57166 0
M  V30 62082 C 6382.18 0.842272 -1.89527 0
M  V30 62083 C 6382.61 1.7254 -0.7491 0
M  V30 62084 O 6381.97 1.78796 0.300287 0
M  V30 62085 C 6382.01 1.64978 -3.20647 0
M  V30 62086 O 6381.12 2.7569 -3.06706 0
M  V30 62087 H 6380.46 0.232787 -0.621857 0
M  V30 62088 H 6382.99 0.0985648 -2.04362 0
M  V30 62089 H 6383 2.03857 -3.53421 0
M  V30 62090 H 6381.67 1.0015 -4.03662 0
M  V30 62091 H 6380.25 2.39999 -2.85403 0
M  V30 62092 N 6382.44 1.52773 0.387063 0
M  V30 62093 C 6383.68 1.67135 1.1291 0
M  V30 62094 C 6384 0.418568 1.91069 0
M  V30 62095 O 6385.2 0.442355 2.67872 0
M  V30 62096 C 6383.66 2.95375 2.05625 0
M  V30 62097 C 6383.27 4.2784 1.32879 0
M  V30 62098 C 6385.01 3.19103 2.79952 0
M  V30 62099 C 6382.92 5.47185 2.24371 0
M  V30 62100 H 6381.85 0.62267 0.425203 0
M  V30 62101 H 6384.5 1.7927 0.391738 0
M  V30 62102 H 6382.88 2.76991 2.83005 0
M  V30 62103 H 6384.06 4.56783 0.607116 0
M  V30 62104 H 6382.37 4.10388 0.705036 0
M  V30 62105 H 6384.97 4.05448 3.48591 0
M  V30 62106 H 6385.31 2.34256 3.44136 0
M  V30 62107 H 6385.84 3.38062 2.09664 0
M  V30 62108 H 6382.58 6.34446 1.64799 0
M  V30 62109 H 6382.1 5.22551 2.94449 0
M  V30 62110 H 6383.78 5.81136 2.84412 0
M  V30 62111 N 6383.91 -0.645623 1.43769 0
M  V30 62112 C 6385.16 -1.40132 1.45072 0
M  V30 62113 C 6385.48 -1.9543 0.0815728 0
M  V30 62114 O 6386.68 -2.71486 -0.0279207 0
M  V30 62115 C 6385.14 -2.53642 2.55331 0
M  V30 62116 C 6384.75 -2.0492 3.98387 0
M  V30 62117 C 6386.49 -3.30954 2.65837 0
M  V30 62118 C 6384.4 -3.15685 5.00097 0
M  V30 62119 H 6383.33 -0.526551 0.539685 0
M  V30 62120 H 6385.98 -0.696085 1.69785 0
M  V30 62121 H 6384.36 -3.26673 2.23832 0
M  V30 62122 H 6385.53 -1.3885 4.39383 0
M  V30 62123 H 6383.85 -1.40465 3.91993 0
M  V30 62124 H 6386.45 -4.13501 3.39 0
M  V30 62125 H 6386.79 -3.79486 1.71162 0
M  V30 62126 H 6387.32 -2.65008 2.96674 0
M  V30 62127 H 6384.06 -2.72115 5.96351 0
M  V30 62128 H 6383.58 -3.80443 4.63706 0
M  V30 62129 H 6385.26 -3.80696 5.23144 0
M  V30 62130 N 6385.39 -1.30426 -0.884698 0
M  V30 62131 C 6386.81 -1.08763 -1.16802 0
M  V30 62132 C 6387.01 0.151441 -2.0093 0
M  V30 62133 O 6386.06 0.844977 -2.37942 0
M  V30 62134 C 6387.38 -2.35129 -1.87442 0
M  V30 62135 C 6388.93 -2.40596 -2.00206 0
M  V30 62136 C 6389.4 -3.66805 -2.74259 0
M  V30 62137 N 6390.89 -3.67615 -2.81804 0
M  V30 62138 C 6391.63 -4.6196 -3.39677 0
M  V30 62139 N 6391.12 -5.66649 -3.98598 0
M  V30 62140 N 6392.92 -4.49504 -3.37495 0
M  V30 62141 H 6385.07 -2.09918 -0.323756 0
M  V30 62142 H 6387.33 -0.925352 -0.205979 0
M  V30 62143 H 6387.04 -3.25554 -1.33069 0
M  V30 62144 H 6386.91 -2.43798 -2.87824 0
M  V30 62145 H 6389.3 -1.5065 -2.53749 0
M  V30 62146 H 6389.38 -2.35903 -0.989116 0
M  V30 62147 H 6389.02 -4.57111 -2.21387 0
M  V30 62148 H 6388.95 -3.68761 -3.75929 0
M  V30 62149 H 6391.44 -2.91929 -2.39971 0
M  V30 62150 H 6391.76 -6.34739 -4.40825 0
M  V30 62151 H 6390.1 -5.70441 -3.97016 0
M  V30 62152 H 6393.29 -3.669 -2.90692 0
M  V30 62153 H 6393.46 -5.23211 -3.82302 0
M  V30 62154 N 6386.87 1.09707 -1.13146 0
M  V30 62155 C 6388.1 1.85592 -0.914501 0
M  V30 62156 C 6388.51 1.81015 0.536569 0
M  V30 62157 O 6387.87 1.20423 1.37129 0
M  V30 62158 C 6387.92 3.33687 -1.39051 0
M  V30 62159 O 6387.64 3.38209 -2.78471 0
M  V30 62160 C 6389.14 4.26422 -1.21157 0
M  V30 62161 H 6386.36 0.586321 -0.326295 0
M  V30 62162 H 6388.91 1.3864 -1.5033 0
M  V30 62163 H 6387.06 3.78077 -0.844774 0
M  V30 62164 H 6387.48 4.30557 -2.99535 0
M  V30 62165 H 6388.95 5.28502 -1.59341 0
M  V30 62166 H 6389.43 4.38934 -0.152936 0
M  V30 62167 H 6390.03 3.87845 -1.74518 0
M  V30 62168 N 6388.35 0.924521 1.27634 0
M  V30 62169 C 6389.58 0.5795 1.98619 0
M  V30 62170 C 6389.99 -0.84175 1.68997 0
M  V30 62171 O 6389.35 -1.55901 0.948735 0
M  V30 62172 C 6389.4 0.792022 3.52717 0
M  V30 62173 O 6389.12 2.15736 3.813 0
M  V30 62174 C 6390.62 0.455285 4.40956 0
M  V30 62175 H 6387.84 0.219897 0.633945 0
M  V30 62176 H 6390.39 1.24067 1.62566 0
M  V30 62177 H 6388.54 0.177696 3.86992 0
M  V30 62178 H 6388.95 2.20499 4.759 0
M  V30 62179 H 6390.43 0.6547 5.48104 0
M  V30 62180 H 6390.91 -0.609024 4.34957 0
M  V30 62181 H 6391.51 1.04761 4.12196 0
M  V30 62182 N 6389.83 -1.41708 0.689677 0
M  V30 62183 C 6391.07 -2.00924 0.217726 0
M  V30 62184 C 6391.4 -1.54875 -1.18486 0
M  V30 62185 O 6390.67 -0.776809 -1.7984 0
M  V30 62186 H 6389.25 -0.742968 0.0775044 0
M  V30 62187 H 6391.91 -1.73417 0.889517 0
M  V30 62188 H 6391 -3.11247 0.23056 0
M  V30 62189 N 6391.3 -0.434018 -1.51506 0
M  V30 62190 C 6392.23 0.369708 -2.30555 0
M  V30 62191 C 6393.22 1.024 -1.35824 0
M  V30 62192 O 6394.4 1.02827 -1.64743 0
M  V30 62193 C 6391.53 1.47301 -3.14515 0
M  V30 62194 C 6390.48 0.942385 -4.17496 0
M  V30 62195 C 6389.81 2.14118 -4.89957 0
M  V30 62196 C 6391.11 -0.0208794 -5.22296 0
M  V30 62197 H 6392.8 -0.289956 -2.97993 0
M  V30 62198 H 6390.35 -0.140891 -1.43309 0
M  V30 62199 H 6392.3 2.04246 -3.68594 0
M  V30 62200 H 6391.03 2.16091 -2.44892 0
M  V30 62201 H 6389.69 0.395168 -3.64464 0
M  V30 62202 H 6389.33 2.8152 -4.1684 0
M  V30 62203 H 6389.03 1.79254 -5.59591 0
M  V30 62204 H 6390.56 2.71623 -5.46858 0
M  V30 62205 H 6391.97 0.458165 -5.71466 0
M  V30 62206 H 6390.37 -0.281929 -5.99437 0
M  V30 62207 H 6391.44 -0.958583 -4.75331 0
M  V30 62208 N 6392.78 1.56731 -0.165261 0
M  V30 62209 C 6394.2 1.58453 0.190975 0
M  V30 62210 C 6394.4 1.18036 1.63309 0
M  V30 62211 O 6393.45 0.889139 2.36327 0
M  V30 62212 C 6394.77 3.00582 -0.0843471 0
M  V30 62213 C 6396.32 3.12992 -0.0220786 0
M  V30 62214 C 6396.79 4.57202 -0.27031 0
M  V30 62215 N 6398.28 4.62687 -0.217873 0
M  V30 62216 C 6399.02 5.72111 -0.384199 0
M  V30 62217 N 6398.51 6.90116 -0.60925 0
M  V30 62218 N 6400.31 5.61185 -0.320526 0
M  V30 62219 H 6392.46 1.81292 -1.10666 0
M  V30 62220 H 6394.72 0.83997 -0.439493 0
M  V30 62221 H 6394.43 3.34607 -1.08311 0
M  V30 62222 H 6394.3 3.71956 0.6268 0
M  V30 62223 H 6396.69 2.78798 0.96726 0
M  V30 62224 H 6396.77 2.44067 -0.765841 0
M  V30 62225 H 6396.41 4.92104 -1.25683 0
M  V30 62226 H 6396.34 5.24278 0.493993 0
M  V30 62227 H 6398.83 3.77868 -0.0493294 0
M  V30 62228 H 6399.15 7.69384 -0.725778 0
M  V30 62229 H 6397.49 6.91993 -0.645792 0
M  V30 62230 H 6400.68 4.67874 -0.14534 0
M  V30 62231 H 6400.85 6.46411 -0.453578 0
M  V30 62232 N 6394.26 -0.108484 1.57226 0
M  V30 62233 C 6395.67 -0.664488 1.74475 0
M  V30 62234 C 6396.02 -1.7979 0.785501 0
M  V30 62235 O 6395.15 -2.16365 -0.039152 0
M  V30 62236 C 6395.74 -1.21216 3.16373 0
M  V30 62237 C 6394.3 -1.71435 3.35092 0
M  V30 62238 C 6393.45 -0.618376 2.70317 0
M  V30 62239 H 6396.4 0.117505 1.58264 0
M  V30 62240 H 6396.42 -2.0817 3.18505 0
M  V30 62241 H 6395.93 -0.387028 3.86165 0
M  V30 62242 H 6394.03 -2.56392 2.70359 0
M  V30 62243 H 6394.15 -1.81656 4.43326 0
M  V30 62244 H 6392.51 -1.05456 2.31843 0
M  V30 62245 H 6393.29 0.195953 3.4274 0
M  V30 62246 N 6395.74 -1.52976 -0.378955 0
M  V30 62247 C 6396.97 -1.7215 -1.14228 0
M  V30 62248 C 6397.38 -0.44415 -1.83913 0
M  V30 62249 O 6396.72 0.591855 -1.73904 0
M  V30 62250 C 6396.78 -2.82267 -2.22633 0
M  V30 62251 C 6396.45 -4.23059 -1.7283 0
M  V30 62252 C 6397.44 -5.05871 -1.19959 0
M  V30 62253 C 6395.13 -4.69419 -1.78748 0
M  V30 62254 C 6397.12 -6.33129 -0.736672 0
M  V30 62255 C 6394.81 -5.96658 -1.32068 0
M  V30 62256 C 6395.81 -6.78344 -0.796158 0
M  V30 62257 O 6395.49 -8.03197 -0.336201 0
M  V30 62258 H 6395.23 -0.579521 -0.348039 0
M  V30 62259 H 6397.78 -2.00457 -0.44791 0
M  V30 62260 H 6396.01 -2.49404 -2.95524 0
M  V30 62261 H 6397.7 -2.89747 -2.84256 0
M  V30 62262 H 6398.47 -4.71233 -1.14736 0
M  V30 62263 H 6394.34 -4.05921 -2.18516 0
M  V30 62264 H 6397.89 -6.96835 -0.326591 0
M  V30 62265 H 6393.79 -6.30798 -1.3698 0
M  V30 62266 H 6394.55 -8.17225 -0.456759 0
M  V30 62267 N 6397.22 0.637989 -1.44109 0
M  V30 62268 C 6398.63 1.21949 -1.4137 0
M  V30 62269 C 6398.98 1.95798 -0.12552 0
M  V30 62270 O 6398.1 2.02069 0.77442 0
M  V30 62271 C 6398.7 2.2181 -2.56097 0
M  V30 62272 C 6397.26 2.75403 -2.56574 0
M  V30 62273 C 6396.4 1.50288 -2.33043 0
M  V30 62274 H 6399.36 0.429077 -1.52789 0
M  V30 62275 H 6399.38 3.04282 -2.28458 0
M  V30 62276 H 6398.89 1.68033 -3.49838 0
M  V30 62277 H 6396.99 3.33202 -1.66756 0
M  V30 62278 H 6397.1 3.21909 -3.5484 0
M  V30 62279 H 6395.47 1.78177 -1.82003 0
M  V30 62280 H 6396.25 0.98423 -3.28889 0
M  V30 62281 N 6398.69 1.30893 0.877769 0
M  V30 62282 C 6399.92 1.23205 1.66839 0
M  V30 62283 C 6400.34 -0.200742 1.87026 0
M  V30 62284 O 6399.7 -1.14412 1.4064 0
M  V30 62285 C 6399.75 1.97339 3.01811 0
M  V30 62286 O 6398.85 1.30539 3.91195 0
M  V30 62287 H 6398.2 0.425764 0.50953 0
M  V30 62288 H 6400.73 1.72833 1.09498 0
M  V30 62289 H 6400.74 2.06636 3.51803 0
M  V30 62290 H 6399.41 3.01539 2.86438 0
M  V30 62291 H 6397.99 1.29643 3.49639 0
M  V30 62292 N 6400.17 -1.09106 1.13726 0
M  V30 62293 C 6401.4 -1.85645 0.924708 0
M  V30 62294 C 6401.82 -1.80729 -0.521394 0
M  V30 62295 O 6401.18 -1.18717 -1.37026 0
M  V30 62296 C 6401.23 -3.3141 1.42127 0
M  V30 62297 O 6400.33 -4.07884 0.608664 0
M  V30 62298 H 6399.67 -0.575527 0.331156 0
M  V30 62299 H 6402.2 -1.37757 1.51275 0
M  V30 62300 H 6402.21 -3.82257 1.42632 0
M  V30 62301 H 6400.89 -3.34303 2.47416 0
M  V30 62302 H 6399.47 -3.668 0.671753 0
M  V30 62303 N 6401.65 -0.931276 -1.27142 0
M  V30 62304 C 6402.9 -0.574445 -1.94494 0
M  V30 62305 C 6403.23 0.882641 -1.72983 0
M  V30 62306 O 6402.51 1.63013 -1.061 0
M  V30 62307 C 6402.79 -0.905507 -3.48529 0
M  V30 62308 C 6402.64 -2.41661 -3.79368 0
M  V30 62309 C 6403.96 -0.41391 -4.38149 0
M  V30 62310 H 6401.08 -0.210173 -0.706397 0
M  V30 62311 H 6403.72 -1.1637 -1.50193 0
M  V30 62312 H 6401.87 -0.404039 -3.86393 0
M  V30 62313 H 6403.54 -2.99004 -3.51275 0
M  V30 62314 H 6401.79 -2.86428 -3.25793 0
M  V30 62315 H 6402.46 -2.59877 -4.86999 0
M  V30 62316 H 6404.93 -0.843736 -4.07456 0
M  V30 62317 H 6403.81 -0.674471 -5.4474 0
M  V30 62318 H 6404.07 0.68606 -4.36744 0
M  V30 62319 N 6403.13 1.4134 -0.697182 0
M  V30 62320 C 6404.06 2.33452 -0.0472678 0
M  V30 62321 C 6405.04 1.51905 0.765435 0
M  V30 62322 O 6406.23 1.80436 0.718083 0
M  V30 62323 C 6403.36 3.35738 0.888663 0
M  V30 62324 C 6402.31 4.27609 0.182938 0
M  V30 62325 C 6401.64 5.20282 1.23334 0
M  V30 62326 C 6402.94 5.13555 -0.951739 0
M  V30 62327 H 6404.63 2.88049 -0.816597 0
M  V30 62328 H 6402.18 1.38501 -0.394137 0
M  V30 62329 H 6404.13 3.99103 1.35258 0
M  V30 62330 H 6402.85 2.79495 1.68968 0
M  V30 62331 H 6401.51 3.6567 -0.260962 0
M  V30 62332 H 6401.16 4.60353 2.02692 0
M  V30 62333 H 6400.86 5.82584 0.766132 0
M  V30 62334 H 6402.38 5.86523 1.69773 0
M  V30 62335 H 6403.8 5.70479 -0.568035 0
M  V30 62336 H 6402.19 5.84807 -1.34614 0
M  V30 62337 H 6403.26 4.50625 -1.79069 0
M  V30 62338 N 6404.61 0.442047 1.51274 0
M  V30 62339 C 6405.86 -0.124368 2.01316 0
M  V30 62340 C 6406.17 -1.43372 1.33056 0
M  V30 62341 O 6407.38 -2.08336 1.74093 0
M  V30 62342 C 6405.83 -0.272181 3.58869 0
M  V30 62343 C 6405.44 1.02701 4.36069 0
M  V30 62344 C 6407.18 -0.792112 4.17044 0
M  V30 62345 C 6405.09 0.844584 5.85338 0
M  V30 62346 H 6404.02 -0.0502539 0.752323 0
M  V30 62347 H 6406.67 0.572526 1.7434 0
M  V30 62348 H 6405.05 -1.03219 3.82311 0
M  V30 62349 H 6406.23 1.79572 4.24371 0
M  V30 62350 H 6404.54 1.47583 3.89369 0
M  V30 62351 H 6407.14 -0.945165 5.2628 0
M  V30 62352 H 6407.48 -1.77582 3.76524 0
M  V30 62353 H 6408.02 -0.0902894 3.97698 0
M  V30 62354 H 6404.75 1.8008 6.30279 0
M  V30 62355 H 6404.27 0.115759 5.99688 0
M  V30 62356 H 6405.95 0.499639 6.45068 0
M  V30 62357 N 6406.09 -1.56641 0.17357 0
M  V30 62358 C 6407.33 -1.98846 -0.473233 0
M  V30 62359 C 6407.69 -1.05727 -1.60268 0
M  V30 62360 O 6408.89 -1.37081 -2.31219 0
M  V30 62361 C 6407.16 -3.4477 -0.941729 0
M  V30 62362 S 6408.72 -4.09003 -1.5894 0
M  V30 62363 H 6405.54 -0.694533 -0.152137 0
M  V30 62364 H 6408.14 -1.93605 0.271562 0
M  V30 62365 H 6406.84 -4.10254 -0.109329 0
M  V30 62366 H 6406.38 -3.53782 -1.72051 0
M  V30 62367 H 6408.39 -4.04237 -2.87761 0
M  V30 62368 N 6407.56 0.100145 -1.57281 0
M  V30 62369 C 6408.8 0.810231 -1.87656 0
M  V30 62370 C 6409.17 1.76148 -0.763938 0
M  V30 62371 O 6410.37 2.51454 -0.949956 0
M  V30 62372 C 6408.64 1.5242 -3.23269 0
M  V30 62373 S 6410.2 2.27327 -3.75324 0
M  V30 62374 H 6407.02 0.270042 -0.657722 0
M  V30 62375 H 6409.62 0.0676031 -1.95383 0
M  V30 62376 H 6408.32 0.817698 -4.02171 0
M  V30 62377 H 6407.85 2.30683 -3.18667 0
M  V30 62378 H 6409.87 3.53379 -3.48335 0
M  V30 62379 N 6409.04 1.53175 0.370837 0
M  V30 62380 C 6410.29 1.69353 1.11568 0
M  V30 62381 C 6410.62 0.441345 1.89118 0
M  V30 62382 O 6409.9 -0.56127 1.86226 0
M  V30 62383 C 6410.18 2.9401 2.07919 0
M  V30 62384 C 6410.03 4.29373 1.34012 0
M  V30 62385 C 6411.35 3.14253 3.08112 0
M  V30 62386 H 6408.47 0.616259 0.40422 0
M  V30 62387 H 6411.11 1.85805 0.397059 0
M  V30 62388 H 6409.26 2.80114 2.69199 0
M  V30 62389 H 6410.93 4.5507 0.755558 0
M  V30 62390 H 6409.18 4.29024 0.641957 0
M  V30 62391 H 6409.85 5.12719 2.04507 0
M  V30 62392 H 6412.32 3.273 2.56932 0
M  V30 62393 H 6411.2 4.0292 3.72756 0
M  V30 62394 H 6411.46 2.29293 3.77991 0
M  V30 62395 N 6410.52 -0.630338 1.44445 0
M  V30 62396 C 6411.45 -1.75343 1.54198 0
M  V30 62397 C 6412.43 -1.65451 0.394945 0
M  V30 62398 O 6413.62 -1.84199 0.615168 0
M  V30 62399 C 6410.75 -3.13876 1.48658 0
M  V30 62400 C 6409.7 -3.38556 2.61846 0
M  V30 62401 C 6409.03 -4.77127 2.41358 0
M  V30 62402 C 6410.33 -3.31041 4.03992 0
M  V30 62403 H 6412.02 -1.67438 2.48203 0
M  V30 62404 H 6409.57 -0.804117 1.19457 0
M  V30 62405 H 6411.52 -3.9222 1.54082 0
M  V30 62406 H 6410.24 -3.22567 0.511698 0
M  V30 62407 H 6408.9 -2.62593 2.55814 0
M  V30 62408 H 6408.55 -4.82522 1.4206 0
M  V30 62409 H 6408.25 -4.94599 3.17247 0
M  V30 62410 H 6409.77 -5.57701 2.48601 0
M  V30 62411 H 6411.19 -3.99289 4.11389 0
M  V30 62412 H 6409.58 -3.60047 4.8009 0
M  V30 62413 H 6410.65 -2.28837 4.27506 0
M  V30 62414 N 6412 -1.31357 -0.870815 0
M  V30 62415 C 6412.95 -1.18865 -1.99935 0
M  V30 62416 C 6413.94 -0.0971464 -1.69121 0
M  V30 62417 O 6415.15 -0.25898 -1.78127 0
M  V30 62418 H 6411.52 -0.368014 -0.655797 0
M  V30 62419 H 6413.49 -2.14346 -2.07602 0
M  V30 62420 C 6412.24 -0.91193 -3.35528 0
M  V30 62421 H 6411.56 -1.74395 -3.59759 0
M  V30 62422 H 6413 -0.864697 -4.15089 0
M  V30 62423 C 6411.46 0.385314 -3.34689 0
M  V30 62424 O 6411.99 1.40237 -3.76426 0
M  V30 62425 N 6410.2 0.401544 -2.87812 0
M  V30 62426 H 6409.75 -0.426617 -2.54043 0
M  V30 62427 H 6409.7 1.26942 -2.87634 0
M  V30 62428 N 6413.48 1.08501 -1.14303 0
M  V30 62429 C 6414.75 1.77513 -0.821502 0
M  V30 62430 C 6415.13 1.99671 0.685183 0
M  V30 62431 O 6414.48 1.60574 1.62567 0
M  V30 62432 C 6414.69 3.09168 -1.61914 0
M  V30 62433 C 6416.04 3.83716 -1.81789 0
M  V30 62434 O 6417.06 3.18947 -1.58592 0
M  V30 62435 O 6415.92 5.00015 -2.20561 0
M  V30 62436 H 6413.02 0.770304 -0.300933 0
M  V30 62437 H 6415.56 1.14972 -1.24818 0
M  V30 62438 H 6414.33 2.88584 -2.64263 0
M  V30 62439 H 6413.96 3.79436 -1.18803 0
M  V30 62440 N 6414.95 0.938006 1.26646 0
M  V30 62441 C 6416.18 0.600534 1.97993 0
M  V30 62442 C 6416.6 -0.823779 1.6988 0
M  V30 62443 O 6415.95 -1.54886 0.965218 0
M  V30 62444 C 6416.01 0.829388 3.51857 0
M  V30 62445 O 6415.73 2.19768 3.7899 0
M  V30 62446 C 6417.23 0.502028 4.40448 0
M  V30 62447 H 6414.45 0.226609 0.631577 0
M  V30 62448 H 6416.99 1.25785 1.61241 0
M  V30 62449 H 6415.15 0.218732 3.86782 0
M  V30 62450 H 6415.56 2.25534 4.73534 0
M  V30 62451 H 6417.03 0.712797 5.47378 0
M  V30 62452 H 6417.51 -0.562857 4.35578 0
M  V30 62453 H 6418.12 1.09127 4.11061 0
M  V30 62454 N 6416.43 -1.40969 0.704668 0
M  V30 62455 C 6417.66 -2.05101 0.248449 0
M  V30 62456 C 6418.07 -1.53162 -1.11076 0
M  V30 62457 O 6417.41 -0.678555 -1.70708 0
M  V30 62458 C 6417.48 -3.59233 0.138545 0
M  V30 62459 C 6417.14 -4.34009 1.43127 0
M  V30 62460 C 6418.14 -4.62688 2.37099 0
M  V30 62461 C 6415.82 -4.73117 1.68717 0
M  V30 62462 C 6417.82 -5.29447 3.54915 0
M  V30 62463 C 6415.5 -5.39611 2.86816 0
M  V30 62464 C 6416.5 -5.67704 3.79738 0
M  V30 62465 O 6416.19 -6.32827 4.95768 0
M  V30 62466 H 6415.92 -0.666758 0.1114 0
M  V30 62467 H 6418.47 -1.81564 0.960403 0
M  V30 62468 H 6416.7 -3.81546 -0.629259 0
M  V30 62469 H 6418.39 -4.04921 -0.28168 0
M  V30 62470 H 6419.16 -4.32948 2.18589 0
M  V30 62471 H 6415.04 -4.50626 0.972484 0
M  V30 62472 H 6418.58 -5.51292 4.27461 0
M  V30 62473 H 6414.48 -5.6877 3.05239 0
M  V30 62474 H 6415.25 -6.51323 4.95702 0
M  V30 62475 N 6417.91 -0.450063 -1.51037 0
M  V30 62476 C 6419.14 0.110263 -2.06306 0
M  V30 62477 C 6419.55 1.35908 -1.31627 0
M  V30 62478 O 6418.89 1.79876 -0.372875 0
M  V30 62479 C 6418.95 0.485262 -3.5621 0
M  V30 62480 C 6418.62 -0.65854 -4.5223 0
M  V30 62481 C 6419.61 -1.53444 -4.9674 0
M  V30 62482 C 6417.3 -0.842892 -4.95177 0
M  V30 62483 C 6419.29 -2.57929 -5.82882 0
M  V30 62484 C 6416.98 -1.89099 -5.81107 0
M  V30 62485 C 6417.98 -2.75756 -6.24858 0
M  V30 62486 O 6417.67 -3.78765 -7.09079 0
M  V30 62487 H 6417.4 0.00567554 -0.675976 0
M  V30 62488 H 6419.95 -0.631682 -1.95445 0
M  V30 62489 H 6418.18 1.2801 -3.64898 0
M  V30 62490 H 6419.87 0.978218 -3.93936 0
M  V30 62491 H 6420.64 -1.40361 -4.64245 0
M  V30 62492 H 6416.52 -0.177921 -4.60657 0
M  V30 62493 H 6420.06 -3.256 -6.16953 0
M  V30 62494 H 6415.96 -2.02197 -6.13014 0
M  V30 62495 H 6416.73 -3.75499 -7.27285 0
M  V30 62496 N 6419.39 1.56547 -0.181875 0
M  V30 62497 C 6420.35 2.1725 0.730421 0
M  V30 62498 C 6421.35 1.12337 1.15052 0
M  V30 62499 O 6422.54 1.37794 1.06576 0
M  V30 62500 C 6419.67 2.7639 1.99554 0
M  V30 62501 H 6420.87 2.9922 0.201799 0
M  V30 62502 H 6418.42 1.56153 0.0677185 0
M  V30 62503 H 6419.15 1.98182 2.56699 0
M  V30 62504 H 6418.94 3.53178 1.70317 0
M  V30 62505 H 6420.43 3.23043 2.64637 0
M  V30 62506 N 6420.87 -0.0918024 1.57332 0
M  V30 62507 C 6422.28 -0.645945 1.7517 0
M  V30 62508 C 6422.63 -1.78946 0.804526 0
M  V30 62509 O 6421.75 -2.16394 -0.0162015 0
M  V30 62510 C 6422.35 -1.17854 3.17641 0
M  V30 62511 C 6420.91 -1.67872 3.36892 0
M  V30 62512 C 6420.05 -0.58967 2.70958 0
M  V30 62513 H 6423.01 0.134285 1.58131 0
M  V30 62514 H 6423.03 -2.0478 3.20695 0
M  V30 62515 H 6422.54 -0.346048 3.86554 0
M  V30 62516 H 6420.64 -2.5351 2.73063 0
M  V30 62517 H 6420.75 -1.76944 4.45228 0
M  V30 62518 H 6419.12 -1.02991 2.32948 0
M  V30 62519 H 6419.9 0.232294 3.42513 0
M  V30 62520 N 6422.34 -1.53369 -0.362709 0
M  V30 62521 C 6423.59 -1.69356 -1.10286 0
M  V30 62522 C 6423.91 -0.449433 -1.8975 0
M  V30 62523 O 6423.18 0.536541 -1.88409 0
M  V30 62524 H 6421.76 -0.624335 -0.41014 0
M  V30 62525 H 6424.43 -1.90568 -0.408627 0
M  V30 62526 H 6423.52 -2.55593 -1.79106 0
M  V30 62527 N 6423.82 0.622669 -1.44778 0
M  V30 62528 C 6424.73 1.76277 -1.54802 0
M  V30 62529 C 6425.75 1.68521 -0.433223 0
M  V30 62530 O 6426.92 1.89146 -0.69178 0
M  V30 62531 C 6423.99 3.12692 -1.49748 0
M  V30 62532 C 6423.05 3.32016 -2.72147 0
M  V30 62533 C 6422.28 4.61923 -2.67325 0
M  V30 62534 O 6422.51 5.43276 -1.73802 0
M  V30 62535 O 6421.44 4.83633 -3.58305 0
M  V30 62536 H 6425.27 1.70772 -2.51139 0
M  V30 62537 H 6422.85 0.784929 -1.27119 0
M  V30 62538 H 6424.73 3.93996 -1.49483 0
M  V30 62539 H 6423.41 3.18721 -0.565583 0
M  V30 62540 H 6422.32 2.50359 -2.77977 0
M  V30 62541 H 6423.65 3.30855 -3.64412 0
M  V30 62542 N 6425.3 1.31817 0.863836 0
M  V30 62543 C 6426.21 1.21958 2.00408 0
M  V30 62544 C 6427.23 0.135031 1.73475 0
M  V30 62545 O 6428.4 0.353989 1.98265 0
M  V30 62546 C 6425.47 0.933716 3.3389 0
M  V30 62547 C 6424.53 2.10579 3.74106 0
M  V30 62548 C 6423.76 1.83346 5.01218 0
M  V30 62549 O 6423.98 0.771558 5.65158 0
M  V30 62550 O 6422.92 2.69196 5.38346 0
M  V30 62551 H 6426.74 2.17794 2.11659 0
M  V30 62552 H 6424.33 1.11616 0.993086 0
M  V30 62553 H 6426.21 0.790397 4.13921 0
M  V30 62554 H 6424.89 0.00544493 3.237 0
M  V30 62555 H 6423.79 2.30454 2.9469 0
M  V30 62556 H 6425.13 3.01652 3.8893 0
M  V30 62557 N 6426.78 -1.07893 1.14877 0
M  V30 62558 C 6428.02 -1.8065 0.921595 0
M  V30 62559 C 6428.36 -1.86242 -0.550221 0
M  V30 62560 O 6427.63 -1.34211 -1.40775 0
M  V30 62561 C 6427.92 -3.25994 1.5297 0
M  V30 62562 C 6427.77 -3.2858 3.07173 0
M  V30 62563 C 6429.09 -4.23114 1.2109 0
M  V30 62564 H 6426.21 -0.655833 0.336231 0
M  V30 62565 H 6428.85 -1.26288 1.41955 0
M  V30 62566 H 6427 -3.72418 1.10623 0
M  V30 62567 H 6428.67 -2.90442 3.58387 0
M  V30 62568 H 6426.91 -2.677 3.41349 0
M  V30 62569 H 6427.58 -4.3104 3.44831 0
M  V30 62570 H 6430.06 -3.85054 1.57711 0
M  V30 62571 H 6428.94 -5.23113 1.66264 0
M  V30 62572 H 6429.2 -4.41917 0.127035 0
M  V30 62573 N 6428.26 -0.944709 -1.26147 0
M  V30 62574 C 6429.49 -0.61014 -1.97385 0
M  V30 62575 C 6429.89 0.819896 -1.70512 0
M  V30 62576 O 6429.24 1.55875 -0.972037 0
M  V30 62577 C 6429.3 -0.776797 -3.51007 0
M  V30 62578 C 6428.96 -2.18213 -4.01537 0
M  V30 62579 C 6429.96 -3.15792 -4.13003 0
M  V30 62580 C 6427.65 -2.50365 -4.35457 0
M  V30 62581 C 6429.64 -4.43623 -4.57687 0
M  V30 62582 C 6427.33 -3.78427 -4.79829 0
M  V30 62583 C 6428.32 -4.74869 -4.90906 0
M  V30 62584 O 6428.01 -6.0065 -5.34298 0
M  V30 62585 H 6427.74 -0.22849 -0.636214 0
M  V30 62586 H 6430.3 -1.26872 -1.61532 0
M  V30 62587 H 6428.53 -0.0610757 -3.86652 0
M  V30 62588 H 6430.22 -0.444762 -4.03456 0
M  V30 62589 H 6430.98 -2.92276 -3.87039 0
M  V30 62590 H 6426.86 -1.76032 -4.26068 0
M  V30 62591 H 6430.41 -5.18901 -4.66248 0
M  V30 62592 H 6426.3 -4.01754 -5.05237 0
M  V30 62593 H 6427.07 -6.03883 -5.5251 0
M  V30 62594 N 6429.74 1.40593 -0.712134 0
M  V30 62595 C 6430.68 2.32554 -0.0461706 0
M  V30 62596 C 6431.68 1.51855 0.750756 0
M  V30 62597 O 6432.88 1.67679 0.654513 0
M  V30 62598 H 6429.26 0.75199 0.00387198 0
M  V30 62599 H 6431.23 2.86376 -0.838547 0
M  V30 62600 C 6429.98 3.36792 0.864094 0
M  V30 62601 H 6429.3 3.98952 0.260281 0
M  V30 62602 H 6430.74 4.03641 1.29809 0
M  V30 62603 C 6429.2 2.71996 1.98796 0
M  V30 62604 O 6429.73 2.58059 3.07845 0
M  V30 62605 N 6427.94 2.30433 1.77056 0
M  V30 62606 H 6427.48 2.41969 0.883665 0
M  V30 62607 H 6427.44 1.87417 2.52433 0
M  V30 62608 N 6431.21 0.458066 1.50796 0
M  V30 62609 C 6432.46 -0.101195 2.01846 0
M  V30 62610 C 6432.78 -1.41383 1.34298 0
M  V30 62611 O 6432.05 -1.89824 0.484102 0
M  V30 62612 H 6430.63 -0.0403875 0.745907 0
M  V30 62613 H 6433.29 0.605514 1.85255 0
M  V30 62614 H 6432.39 -0.262144 3.10997 0
M  V30 62615 N 6432.69 -1.56448 0.190174 0
M  V30 62616 C 6433.92 -2.01821 -0.455628 0
M  V30 62617 C 6434.33 -1.07034 -1.55529 0
M  V30 62618 O 6433.69 -0.0743665 -1.82348 0
M  V30 62619 C 6433.74 -3.46914 -1.01651 0
M  V30 62620 O 6433.46 -4.38082 0.0392696 0
M  V30 62621 C 6434.96 -4.0778 -1.73868 0
M  V30 62622 H 6432.18 -0.661095 -0.114868 0
M  V30 62623 H 6434.73 -2.02325 0.297437 0
M  V30 62624 H 6432.88 -3.47124 -1.71998 0
M  V30 62625 H 6433.3 -5.2314 -0.377504 0
M  V30 62626 H 6434.77 -5.1117 -2.0835 0
M  V30 62627 H 6435.25 -3.50955 -2.64059 0
M  V30 62628 H 6435.85 -4.11328 -1.08118 0
M  V30 62629 N 6434.17 0.0834573 -1.57379 0
M  V30 62630 C 6435.4 0.796882 -1.90613 0
M  V30 62631 C 6435.81 1.72227 -0.78324 0
M  V30 62632 O 6435.15 1.81949 0.253036 0
M  V30 62633 C 6435.21 1.65365 -3.19209 0
M  V30 62634 C 6434.88 0.898869 -4.48073 0
M  V30 62635 C 6435.87 0.223384 -5.1942 0
M  V30 62636 C 6433.56 0.869499 -4.94717 0
M  V30 62637 C 6435.55 -0.471373 -6.35655 0
M  V30 62638 C 6433.24 0.170963 -6.10861 0
M  V30 62639 C 6434.24 -0.498284 -6.8118 0
M  V30 62640 O 6433.93 -1.18559 -7.95109 0
M  V30 62641 H 6433.66 0.232421 -0.634788 0
M  V30 62642 H 6436.21 0.0615696 -2.05308 0
M  V30 62643 H 6434.44 2.43148 -3.00692 0
M  V30 62644 H 6436.13 2.24469 -3.38184 0
M  V30 62645 H 6436.9 0.237458 -4.84418 0
M  V30 62646 H 6432.78 1.37987 -4.39864 0
M  V30 62647 H 6436.32 -0.99431 -6.90478 0
M  V30 62648 H 6432.22 0.154776 -6.45314 0
M  V30 62649 H 6432.98 -1.09367 -8.1116 0
M  V30 62650 N 6435.65 1.5356 0.35457 0
M  V30 62651 C 6436.9 1.69938 1.09387 0
M  V30 62652 C 6437.22 0.45949 1.89509 0
M  V30 62653 O 6436.49 -0.526542 1.88691 0
M  V30 62654 H 6435.07 0.626501 0.406823 0
M  V30 62655 H 6437.73 1.90782 0.398515 0
M  V30 62656 H 6436.82 2.56539 1.77748 0
M  V30 62657 N 6437.13 -0.614982 1.45106 0
M  V30 62658 C 6438.4 -1.37404 1.3921 0
M  V30 62659 C 6438.78 -2.11018 0.0589505 0
M  V30 62660 O 6438.13 -2.07405 -0.958924 0
M  V30 62661 C 6438.34 -2.32703 2.60097 0
M  V30 62662 C 6439.69 -2.95539 3.04864 0
M  V30 62663 O 6440.71 -2.43026 2.60417 0
M  V30 62664 O 6439.57 -3.9084 3.81976 0
M  V30 62665 H 6436.67 -0.615747 0.552073 0
M  V30 62666 H 6439.21 -0.638688 1.57222 0
M  V30 62667 H 6437.98 -1.77517 3.48717 0
M  V30 62668 H 6437.61 -3.1363 2.44381 0
M  V30 62669 N 6438.6 -1.32273 -0.856834 0
M  V30 62670 C 6439.83 -1.25704 -1.64335 0
M  V30 62671 C 6440.25 0.175359 -1.87984 0
M  V30 62672 O 6439.6 1.11174 -1.4473 0
M  V30 62673 C 6439.65 -2.0112 -3.00388 0
M  V30 62674 O 6439.38 -3.3877 -2.77788 0
M  V30 62675 C 6440.88 -2.01549 -3.94833 0
M  V30 62676 H 6438.1 -0.4338 -0.511916 0
M  V30 62677 H 6440.64 -1.74361 -1.06857 0
M  V30 62678 H 6438.8 -1.56191 -3.54518 0
M  V30 62679 H 6439.21 -3.77343 -3.64298 0
M  V30 62680 H 6440.68 -2.58804 -4.8757 0
M  V30 62681 H 6441.16 -1.00121 -4.27636 0
M  V30 62682 H 6441.77 -2.46416 -3.4664 0
M  V30 62683 N 6440.08 1.07283 -1.15448 0
M  V30 62684 C 6441.32 1.81486 -0.940324 0
M  V30 62685 C 6441.69 1.84736 0.523141 0
M  V30 62686 O 6442.89 2.54818 0.855648 0
M  V30 62687 C 6441.16 3.22587 -1.53859 0
M  V30 62688 S 6442.72 4.13528 -1.46765 0
M  V30 62689 H 6439.53 0.625306 -0.338399 0
M  V30 62690 H 6442.14 1.28874 -1.4701 0
M  V30 62691 H 6440.84 3.17811 -2.59662 0
M  V30 62692 H 6440.37 3.80275 -1.00771 0
M  V30 62693 H 6442.39 4.94054 -0.461007 0
M  V30 62694 N 6441.56 0.951386 1.25644 0
M  V30 62695 C 6442.79 0.620599 1.97059 0
M  V30 62696 C 6443.2 -0.810842 1.70944 0
M  V30 62697 O 6442.54 -1.55358 0.98029 0
M  V30 62698 C 6442.6 0.795401 3.5059 0
M  V30 62699 C 6442.27 2.20339 4.00375 0
M  V30 62700 C 6443.26 3.17978 4.11322 0
M  V30 62701 C 6440.95 2.52671 4.34123 0
M  V30 62702 C 6442.94 4.46044 4.55328 0
M  V30 62703 C 6440.63 3.80967 4.77815 0
M  V30 62704 C 6441.63 4.77466 4.8838 0
M  V30 62705 O 6441.32 6.03476 5.31105 0
M  V30 62706 H 6441.05 0.231861 0.634993 0
M  V30 62707 H 6443.6 1.27727 1.60857 0
M  V30 62708 H 6441.83 0.08158 3.86614 0
M  V30 62709 H 6443.52 0.466152 4.03214 0
M  V30 62710 H 6444.29 2.94325 3.85484 0
M  V30 62711 H 6440.17 1.78289 4.25128 0
M  V30 62712 H 6443.71 5.21367 4.63489 0
M  V30 62713 H 6439.61 4.04428 5.03099 0
M  V30 62714 H 6440.37 6.06805 5.49299 0
M  V30 62715 N 6443.04 -1.40213 0.71958 0
M  V30 62716 C 6444.28 -2.00813 0.260811 0
M  V30 62717 C 6444.61 -1.57064 -1.14722 0
M  V30 62718 O 6443.87 -0.783578 -1.79328 0
M  V30 62719 C 6444.17 -3.56195 0.293289 0
M  V30 62720 C 6443.83 -4.1954 1.65217 0
M  V30 62721 C 6442.49 -4.36557 2.02414 0
M  V30 62722 C 6444.85 -4.54835 2.54508 0
M  V30 62723 C 6442.17 -4.86153 3.28439 0
M  V30 62724 C 6444.53 -5.05832 3.79891 0
M  V30 62725 C 6443.19 -5.21058 4.17199 0
M  V30 62726 H 6442.46 -0.734828 0.0954375 0
M  V30 62727 H 6445.11 -1.67767 0.923396 0
M  V30 62728 H 6443.41 -3.89174 -0.452869 0
M  V30 62729 H 6445.11 -4.00921 -0.0795759 0
M  V30 62730 H 6441.7 -4.06686 1.35293 0
M  V30 62731 H 6445.88 -4.41321 2.27045 0
M  V30 62732 H 6441.14 -4.96125 3.57309 0
M  V30 62733 H 6445.31 -5.32118 4.49248 0
M  V30 62734 H 6442.94 -5.59249 5.14921 0
M  V30 62735 N 6444.52 -0.466057 -1.50551 0
M  V30 62736 C 6445.76 0.0908024 -2.02597 0
M  V30 62737 C 6446.1 1.39822 -1.34772 0
M  V30 62738 O 6445.37 1.88691 -0.471785 0
M  V30 62739 C 6445.65 0.279837 -3.59011 0
M  V30 62740 C 6445.51 -1.04825 -4.37415 0
M  V30 62741 C 6446.83 1.03668 -4.27716 0
M  V30 62742 H 6443.94 0.0315261 -0.736325 0
M  V30 62743 H 6446.59 -0.610666 -1.79919 0
M  V30 62744 H 6444.74 0.877328 -3.78464 0
M  V30 62745 H 6446.41 -1.68193 -4.29545 0
M  V30 62746 H 6444.65 -1.64609 -4.01356 0
M  V30 62747 H 6445.32 -0.869684 -5.45106 0
M  V30 62748 H 6447.8 0.530285 -4.12707 0
M  V30 62749 H 6446.67 1.13774 -5.36979 0
M  V30 62750 H 6446.94 2.07201 -3.90538 0
M  V30 62751 N 6445.99 1.56345 -0.198468 0
M  V30 62752 C 6446.94 2.20591 0.737713 0
M  V30 62753 C 6447.94 1.17811 1.21724 0
M  V30 62754 O 6449.14 1.35948 1.17975 0
M  V30 62755 H 6445.52 0.706991 0.256257 0
M  V30 62756 H 6447.49 2.97903 0.17218 0
M  V30 62757 C 6446.24 2.88194 1.94524 0
M  V30 62758 H 6445.56 3.67025 1.58532 0
M  V30 62759 H 6447 3.36579 2.57857 0
M  V30 62760 C 6445.46 1.89411 2.78613 0
M  V30 62761 O 6445.99 1.39651 3.76644 0
M  V30 62762 N 6444.2 1.57566 2.44175 0
M  V30 62763 H 6443.74 1.98224 1.64514 0
M  V30 62764 H 6443.7 0.917284 3.00721 0
M  V30 62765 N 6447.47 -0.07511 1.57421 0
M  V30 62766 C 6448.71 -0.780274 1.88921 0
M  V30 62767 C 6449.08 -1.7491 0.791865 0
M  V30 62768 O 6450.28 -2.49911 0.98984 0
M  V30 62769 C 6448.55 -1.47258 3.25653 0
M  V30 62770 S 6450.11 -2.21327 3.78893 0
M  V30 62771 H 6446.93 -0.259544 0.661935 0
M  V30 62772 H 6449.53 -0.0365108 1.95466 0
M  V30 62773 H 6448.23 -0.753612 4.03421 0
M  V30 62774 H 6447.76 -2.25584 3.22297 0
M  V30 62775 H 6449.78 -3.47793 3.53913 0
M  V30 62776 N 6448.95 -1.53746 -0.346422 0
M  V30 62777 C 6450.18 -1.75099 -1.11154 0
M  V30 62778 C 6450.6 -0.487523 -1.81672 0
M  V30 62779 O 6449.96 0.55967 -1.72445 0
M  V30 62780 C 6450.01 -2.92935 -2.1029 0
M  V30 62781 O 6449.11 -2.62882 -3.17753 0
M  V30 62782 H 6448.45 -0.580916 -0.321609 0
M  V30 62783 H 6450.98 -2.00698 -0.397691 0
M  V30 62784 H 6450.99 -3.19642 -2.53561 0
M  V30 62785 H 6449.67 -3.84572 -1.58359 0
M  V30 62786 H 6448.24 -2.47053 -2.79319 0
M  V30 62787 N 6450.43 0.607278 -1.4543 0
M  V30 62788 C 6451.36 1.72868 -1.56968 0
M  V30 62789 C 6452.34 1.64802 -0.421217 0
M  V30 62790 O 6453.52 1.83197 -0.644395 0
M  V30 62791 C 6450.65 3.11471 -1.53633 0
M  V30 62792 C 6449.61 3.34348 -2.67199 0
M  V30 62793 C 6448.93 4.73227 -2.48918 0
M  V30 62794 C 6450.23 3.24572 -4.09207 0
M  V30 62795 H 6451.93 1.63468 -2.50836 0
M  V30 62796 H 6449.47 0.785011 -1.20721 0
M  V30 62797 H 6451.43 3.89719 -1.60302 0
M  V30 62798 H 6450.15 3.21712 -0.562951 0
M  V30 62799 H 6448.81 2.5849 -2.59959 0
M  V30 62800 H 6448.46 4.80201 -1.49719 0
M  V30 62801 H 6448.16 4.89489 -3.25076 0
M  V30 62802 H 6449.68 5.53675 -2.57442 0
M  V30 62803 H 6451.1 3.92694 -4.17689 0
M  V30 62804 H 6449.49 3.52364 -4.85757 0
M  V30 62805 H 6450.56 2.22007 -4.31093 0
M  V30 62806 N 6451.91 1.32725 0.849807 0
M  V30 62807 C 6453.13 1.26716 1.64189 0
M  V30 62808 C 6453.56 -0.161026 1.87409 0
M  V30 62809 O 6452.91 -1.11403 1.43035 0
M  V30 62810 C 6452.96 2.03696 2.97557 0
M  V30 62811 O 6452.07 1.38808 3.88338 0
M  V30 62812 H 6451.41 0.436476 0.500384 0
M  V30 62813 H 6453.94 1.75117 1.05807 0
M  V30 62814 H 6453.95 2.14052 3.47341 0
M  V30 62815 H 6452.62 3.07547 2.79978 0
M  V30 62816 H 6451.2 1.3703 3.4681 0
M  V30 62817 N 6453.38 -1.06669 1.16015 0
M  V30 62818 C 6454.62 -1.80985 0.949936 0
M  V30 62819 C 6454.99 -1.8501 -0.513336 0
M  V30 62820 O 6456.19 -2.55268 -0.842122 0
M  V30 62821 C 6454.46 -3.21766 1.55568 0
M  V30 62822 S 6456.02 -4.12744 1.48956 0
M  V30 62823 H 6452.84 -0.623502 0.34171 0
M  V30 62824 H 6455.44 -1.28092 1.47691 0
M  V30 62825 H 6454.14 -3.16429 2.61344 0
M  V30 62826 H 6453.67 -3.79735 1.02786 0
M  V30 62827 H 6455.69 -4.93802 0.487201 0
M  V30 62828 N 6454.86 -0.958036 -1.25138 0
M  V30 62829 C 6456.09 -0.631957 -1.97012 0
M  V30 62830 C 6456.51 0.796648 -1.71169 0
M  V30 62831 O 6455.86 1.53331 -0.989736 0
M  V30 62832 C 6455.91 -0.88526 -3.50493 0
M  V30 62833 O 6455.63 -2.25769 -3.75446 0
M  V30 62834 C 6457.14 -0.572036 -4.39594 0
M  V30 62835 H 6454.36 -0.236628 -0.627892 0
M  V30 62836 H 6456.9 -1.28334 -1.59219 0
M  V30 62837 H 6455.05 -0.280238 -3.86385 0
M  V30 62838 H 6455.47 -2.33039 -4.69886 0
M  V30 62839 H 6456.94 -0.79979 -5.46175 0
M  V30 62840 H 6457.42 0.493489 -4.36419 0
M  V30 62841 H 6458.03 -1.15653 -4.09273 0
M  V30 62842 N 6456.34 1.3983 -0.727006 0
M  V30 62843 C 6457.27 2.33299 -0.0967758 0
M  V30 62844 C 6458.25 1.53494 0.733042 0
M  V30 62845 O 6459.44 1.81919 0.679648 0
M  V30 62846 C 6456.57 3.37548 0.817248 0
M  V30 62847 C 6455.52 4.27901 0.0921943 0
M  V30 62848 C 6454.85 5.22781 1.1227 0
M  V30 62849 C 6456.15 5.11421 -1.06046 0
M  V30 62850 H 6457.84 2.86252 -0.877513 0
M  V30 62851 H 6455.39 1.37634 -0.423427 0
M  V30 62852 H 6457.34 4.01882 1.26762 0
M  V30 62853 H 6456.06 2.83016 1.63001 0
M  V30 62854 H 6454.72 3.65034 -0.338467 0
M  V30 62855 H 6454.37 4.64549 1.92882 0
M  V30 62856 H 6454.07 5.84078 0.642385 0
M  V30 62857 H 6455.59 5.89992 1.57293 0
M  V30 62858 H 6457.01 5.69146 -0.688915 0
M  V30 62859 H 6455.41 5.8182 -1.46988 0
M  V30 62860 H 6456.48 4.46725 -1.88587 0
M  V30 62861 N 6457.82 0.474035 1.50302 0
M  V30 62862 C 6458.73 -0.323851 2.32354 0
M  V30 62863 C 6459.74 -0.993201 1.42869 0
M  V30 62864 O 6460.92 -0.980527 1.75919 0
M  V30 62865 C 6457.99 -1.38988 3.17621 0
M  V30 62866 C 6457.05 -0.736816 4.2293 0
M  V30 62867 C 6456.28 -1.75205 5.04122 0
M  V30 62868 O 6456.5 -2.97891 4.86433 0
M  V30 62869 O 6455.44 -1.32225 5.87197 0
M  V30 62870 H 6459.26 0.347019 3.01711 0
M  V30 62871 H 6456.85 0.235829 1.47527 0
M  V30 62872 H 6458.73 -2.00729 3.70521 0
M  V30 62873 H 6457.4 -2.04417 2.50989 0
M  V30 62874 H 6456.31 -0.0803732 3.74014 0
M  V30 62875 H 6457.64 -0.125429 4.9204 0
M  V30 62876 N 6459.3 -1.56238 0.206757 0
M  V30 62877 C 6460.54 -1.97905 -0.428921 0
M  V30 62878 C 6460.87 -1.094 -1.60816 0
M  V30 62879 O 6460.13 -0.135642 -1.95229 0
M  V30 62880 C 6460.43 -3.45348 -0.92029 0
M  V30 62881 C 6460.09 -4.50661 0.146833 0
M  V30 62882 C 6458.75 -4.79184 0.440021 0
M  V30 62883 C 6461.11 -5.139 0.869295 0
M  V30 62884 C 6458.43 -5.68232 1.46044 0
M  V30 62885 C 6460.79 -6.04052 1.87895 0
M  V30 62886 C 6459.45 -6.30925 2.17921 0
M  V30 62887 H 6458.72 -0.724187 -0.156953 0
M  V30 62888 H 6461.37 -1.89037 0.306172 0
M  V30 62889 H 6459.67 -3.51346 -1.73387 0
M  V30 62890 H 6461.37 -3.7495 -1.42173 0
M  V30 62891 H 6457.96 -4.28502 -0.0918408 0
M  V30 62892 H 6462.14 -4.91945 0.656021 0
M  V30 62893 H 6457.4 -5.87323 1.69886 0
M  V30 62894 H 6461.57 -6.52109 2.44392 0
M  V30 62895 H 6459.2 -6.99725 2.97135 0
M  V30 62896 N 6460.78 0.0667605 -1.57459 0
M  V30 62897 C 6462.01 0.77662 -1.91448 0
M  V30 62898 C 6462.41 1.71386 -0.801463 0
M  V30 62899 O 6461.76 1.82207 0.233724 0
M  V30 62900 C 6461.82 1.6197 -3.20945 0
M  V30 62901 C 6461.48 0.851295 -4.49001 0
M  V30 62902 C 6462.48 0.16828 -5.19628 0
M  V30 62903 C 6460.16 0.816979 -4.95611 0
M  V30 62904 C 6462.16 -0.538766 -6.35119 0
M  V30 62905 C 6459.85 0.106164 -6.11008 0
M  V30 62906 C 6460.84 -0.570504 -6.80613 0
M  V30 62907 O 6460.53 -1.26986 -7.93807 0
M  V30 62908 H 6460.26 0.225675 -0.637218 0
M  V30 62909 H 6462.82 0.0397905 -2.05361 0
M  V30 62910 H 6461.05 2.39945 -3.03254 0
M  V30 62911 H 6462.74 2.2087 -3.40546 0
M  V30 62912 H 6463.5 0.186065 -4.84643 0
M  V30 62913 H 6459.38 1.33313 -4.41303 0
M  V30 62914 H 6462.93 -1.06749 -6.89384 0
M  V30 62915 H 6458.82 0.0863228 -6.45442 0
M  V30 62916 H 6459.59 -1.17965 -8.09955 0
M  V30 62917 N 6462.25 1.53927 0.338263 0
M  V30 62918 C 6463.2 1.82991 1.43586 0
M  V30 62919 C 6464.2 0.700754 1.54226 0
M  V30 62920 O 6465.4 0.884179 1.56787 0
M  V30 62921 H 6461.78 0.579825 0.47886 0
M  V30 62922 H 6463.75 2.74808 1.1629 0
M  V30 62923 C 6462.5 2.06102 2.80031 0
M  V30 62924 H 6461.82 2.92443 2.72612 0
M  V30 62925 H 6463.26 2.30401 3.55938 0
M  V30 62926 C 6461.72 0.848117 3.2605 0
M  V30 62927 O 6462.25 0.0501278 4.01669 0
M  V30 62928 N 6460.45 0.663859 2.82916 0
M  V30 62929 H 6460 1.31441 2.21542 0
M  V30 62930 H 6459.96 -0.146209 3.1406 0
M  V30 62931 N 6463.73 -0.599557 1.4575 0
M  V30 62932 C 6464.98 -1.35832 1.51397 0
M  V30 62933 C 6465.33 -1.91761 0.156701 0
M  V30 62934 O 6464.63 -1.7257 -0.83247 0
M  V30 62935 C 6464.82 -2.51926 2.53512 0
M  V30 62936 C 6464.65 -2.07367 3.99035 0
M  V30 62937 C 6463.42 -1.93165 4.66921 0
M  V30 62938 C 6465.62 -1.64348 4.87334 0
M  V30 62939 N 6463.6 -1.42501 5.97132 0
M  V30 62940 C 6464.97 -1.25156 6.07236 0
M  V30 62941 C 6467.02 -1.52012 4.74127 0
M  V30 62942 C 6465.73 -0.74859 7.15394 0
M  V30 62943 C 6467.75 -1.03119 5.8234 0
M  V30 62944 C 6467.12 -0.648963 7.01404 0
M  V30 62945 H 6463.21 -0.490658 0.608916 0
M  V30 62946 H 6465.8 -0.684531 1.8227 0
M  V30 62947 H 6463.97 -3.1689 2.24578 0
M  V30 62948 H 6465.7 -3.18831 2.49257 0
M  V30 62949 H 6462.46 -2.14597 4.22191 0
M  V30 62950 H 6462.88 -1.19378 6.66392 0
M  V30 62951 H 6467.52 -1.80187 3.82482 0
M  V30 62952 H 6465.24 -0.454403 8.06821 0
M  V30 62953 H 6468.83 -0.939896 5.74158 0
M  V30 62954 H 6467.71 -0.276458 7.83713 0
M  V30 62955 N 6465.21 -1.33174 -0.842756 0
M  V30 62956 C 6466.43 -1.27585 -1.63514 0
M  V30 62957 C 6466.86 0.151085 -1.87492 0
M  V30 62958 O 6466.22 1.10643 -1.43624 0
M  V30 62959 C 6466.27 -2.05271 -2.96473 0
M  V30 62960 O 6465.37 -1.40865 -3.87596 0
M  V30 62961 H 6464.71 -0.439124 -0.498063 0
M  V30 62962 H 6467.24 -1.75676 -1.04877 0
M  V30 62963 H 6467.25 -2.15891 -3.46201 0
M  V30 62964 H 6465.93 -3.09028 -2.78343 0
M  V30 62965 H 6464.5 -1.38867 -3.46078 0
M  V30 62966 N 6466.69 1.06052 -1.16579 0
M  V30 62967 C 6467.93 1.80479 -0.959521 0
M  V30 62968 C 6468.29 1.8528 0.503518 0
M  V30 62969 O 6469.49 2.55711 0.828573 0
M  V30 62970 C 6467.76 3.20937 -1.57272 0
M  V30 62971 S 6469.32 4.11948 -1.51143 0
M  V30 62972 H 6466.14 0.621681 -0.345012 0
M  V30 62973 H 6468.74 1.27307 -1.48368 0
M  V30 62974 H 6467.45 3.15039 -2.63018 0
M  V30 62975 H 6466.98 3.79184 -1.04799 0
M  V30 62976 H 6468.99 4.93537 -0.513382 0
M  V30 62977 N 6468.17 0.964658 1.24628 0
M  V30 62978 C 6469.58 0.664164 1.74487 0
M  V30 62979 C 6469.93 -0.82021 1.78233 0
M  V30 62980 O 6469.05 -1.6418 1.40975 0
M  V30 62981 C 6469.65 1.19891 3.16878 0
M  V30 62982 C 6468.21 0.948376 3.64257 0
M  V30 62983 C 6467.35 1.33602 2.42993 0
M  V30 62984 H 6470.3 1.14033 1.10373 0
M  V30 62985 H 6470.33 0.563738 3.76301 0
M  V30 62986 H 6469.84 2.27927 3.14119 0
M  V30 62987 H 6467.94 -0.116588 3.72418 0
M  V30 62988 H 6468.05 1.59188 4.5188 0
M  V30 62989 H 6466.42 0.754404 2.43271 0
M  V30 62990 H 6467.2 2.42581 2.42918 0
M  V30 62991 N 6469.64 -1.39442 0.734411 0
M  V30 62992 C 6470.87 -2.05349 0.290975 0
M  V30 62993 C 6471.29 -1.55007 -1.06557 0
M  V30 62994 O 6470.65 -0.693567 -1.67509 0
M  V30 62995 C 6470.7 -3.59336 0.301689 0
M  V30 62996 O 6469.8 -4.06227 -0.71087 0
M  V30 62997 H 6469.14 -0.650664 0.132412 0
M  V30 62998 H 6471.67 -1.78487 1.00017 0
M  V30 62999 H 6471.68 -4.07739 0.145873 0
M  V30 63000 H 6470.36 -3.95338 1.29154 0
M  V30 63001 H 6468.94 -3.69239 -0.521239 0
M  V30 63002 N 6471.12 -0.481999 -1.50048 0
M  V30 63003 C 6472.35 0.0665747 -2.06793 0
M  V30 63004 C 6472.76 1.32535 -1.34462 0
M  V30 63005 O 6472.12 1.77669 -0.417149 0
M  V30 63006 C 6472.17 0.343566 -3.59864 0
M  V30 63007 O 6471.89 -0.865291 -4.2947 0
M  V30 63008 C 6473.39 0.937897 -4.33265 0
M  V30 63009 H 6470.61 -0.0119547 -0.670893 0
M  V30 63010 H 6473.16 -0.673911 -1.93077 0
M  V30 63011 H 6471.31 1.034 -3.73346 0
M  V30 63012 H 6471.73 -0.616523 -5.20864 0
M  V30 63013 H 6473.2 1.08141 -5.41304 0
M  V30 63014 H 6473.68 1.93084 -3.94481 0
M  V30 63015 H 6474.28 0.285514 -4.24341 0
M  V30 63016 N 6472.6 1.56126 -0.21504 0
M  V30 63017 C 6474.01 1.84371 0.293993 0
M  V30 63018 C 6474.36 1.13627 1.59948 0
M  V30 63019 O 6473.49 0.403738 2.126 0
M  V30 63020 C 6474.08 3.34466 0.540193 0
M  V30 63021 C 6472.64 3.6305 0.993549 0
M  V30 63022 C 6471.79 2.77249 0.0530345 0
M  V30 63023 H 6474.74 1.52525 -0.438384 0
M  V30 63024 H 6474.76 3.54319 1.38703 0
M  V30 63025 H 6474.27 3.85927 -0.410128 0
M  V30 63026 H 6472.37 3.1704 1.95745 0
M  V30 63027 H 6472.49 4.71089 0.872463 0
M  V30 63028 H 6470.85 2.48498 0.55863 0
M  V30 63029 H 6471.63 3.31507 -0.892087 0
M  V30 63030 N 6474.08 -0.0584092 1.57492 0
M  V30 63031 C 6475.3 -0.77135 1.92523 0
M  V30 63032 C 6475.73 -1.69641 0.812621 0
M  V30 63033 O 6475.09 -1.79787 -0.233721 0
M  V30 63034 C 6475.13 -1.52964 3.26549 0
M  V30 63035 O 6474.24 -2.64117 3.16727 0
M  V30 63036 H 6473.58 -0.209547 0.630068 0
M  V30 63037 H 6476.11 -0.0226491 2.04587 0
M  V30 63038 H 6476.12 -1.90599 3.60744 0
M  V30 63039 H 6474.79 -0.850993 4.07101 0
M  V30 63040 H 6473.37 -2.29241 2.94114 0
M  V30 63041 N 6475.56 -1.54104 -0.330095 0
M  V30 63042 C 6476.97 -1.63303 -0.904925 0
M  V30 63043 C 6477.32 -0.522916 -1.89103 0
M  V30 63044 O 6476.44 0.345229 -2.13628 0
M  V30 63045 C 6477.04 -2.96014 -1.64807 0
M  V30 63046 C 6475.6 -3.07431 -2.17171 0
M  V30 63047 C 6474.74 -2.58833 -0.995035 0
M  V30 63048 H 6477.7 -1.58333 -0.107855 0
M  V30 63049 H 6477.72 -2.85808 -2.51186 0
M  V30 63050 H 6477.23 -3.7679 -0.930114 0
M  V30 63051 H 6475.33 -2.31316 -2.92102 0
M  V30 63052 H 6475.44 -4.13125 -2.4262 0
M  V30 63053 H 6473.81 -2.14568 -1.37233 0
M  V30 63054 H 6474.59 -3.4206 -0.291501 0
M  V30 63055 N 6477.03 0.591819 -1.46066 0
M  V30 63056 C 6478.26 1.3766 -1.54458 0
M  V30 63057 C 6478.68 1.87915 -0.182546 0
M  V30 63058 O 6478.03 1.63109 0.818634 0
M  V30 63059 C 6478.09 2.57036 -2.54194 0
M  V30 63060 O 6477.81 2.08866 -3.85106 0
M  V30 63061 C 6479.31 3.49703 -2.72438 0
M  V30 63062 H 6476.53 0.420854 -0.522612 0
M  V30 63063 H 6479.07 0.720319 -1.91394 0
M  V30 63064 H 6477.23 3.18673 -2.20287 0
M  V30 63065 H 6477.64 2.86542 -4.39311 0
M  V30 63066 H 6479.11 4.29969 -3.46165 0
M  V30 63067 H 6479.59 4.01058 -1.79024 0
M  V30 63068 H 6480.2 2.93909 -3.07405 0
M  V30 63069 N 6478.51 1.33619 0.835682 0
M  V30 63070 C 6479.92 1.22671 1.40744 0
M  V30 63071 C 6480.27 -0.153086 1.95602 0
M  V30 63072 O 6479.4 -1.05283 1.89062 0
M  V30 63073 C 6479.99 2.22096 2.55849 0
M  V30 63074 C 6478.55 2.14977 3.08969 0
M  V30 63075 C 6477.7 2.09405 1.81782 0
M  V30 63076 H 6480.65 1.45171 0.641171 0
M  V30 63077 H 6480.67 1.83054 3.33574 0
M  V30 63078 H 6480.18 3.22509 2.15892 0
M  V30 63079 H 6478.29 1.17878 3.53462 0
M  V30 63080 H 6478.4 3.05665 3.68925 0
M  V30 63081 H 6476.76 1.5493 2.02161 0
M  V30 63082 H 6477.55 3.11631 1.44016 0
M  V30 63083 N 6479.99 -1.05432 1.1714 0
M  V30 63084 C 6481.22 -1.8207 0.982752 0
M  V30 63085 C 6481.63 -1.82882 -0.469016 0
M  V30 63086 O 6480.99 -1.2543 -1.32565 0
M  V30 63087 C 6481.04 -3.28296 1.5134 0
M  V30 63088 O 6480.76 -3.27641 2.90832 0
M  V30 63089 C 6482.26 -4.21632 1.369 0
M  V30 63090 H 6479.48 -0.573807 0.347831 0
M  V30 63091 H 6482.03 -1.32965 1.55372 0
M  V30 63092 H 6480.18 -3.74681 0.984512 0
M  V30 63093 H 6480.6 -4.19143 3.15308 0
M  V30 63094 H 6482.07 -5.22224 1.78846 0
M  V30 63095 H 6482.55 -4.38064 0.315738 0
M  V30 63096 H 6483.15 -3.811 1.88793 0
M  V30 63097 N 6481.47 -0.971254 -1.24115 0
M  V30 63098 C 6482.88 -0.673409 -1.74132 0
M  V30 63099 C 6483.23 0.810746 -1.78665 0
M  V30 63100 O 6482.36 1.6343 -1.41844 0
M  V30 63101 C 6482.95 -1.2157 -3.16238 0
M  V30 63102 C 6481.51 -0.96768 -3.63748 0
M  V30 63103 C 6480.66 -1.34889 -2.42281 0
M  V30 63104 H 6483.61 -1.14616 -1.09767 0
M  V30 63105 H 6483.63 -0.583686 -3.75996 0
M  V30 63106 H 6483.14 -2.29589 -3.12906 0
M  V30 63107 H 6481.24 0.096836 -3.72474 0
M  V30 63108 H 6481.35 -1.61583 -4.5103 0
M  V30 63109 H 6479.72 -0.767295 -2.42868 0
M  V30 63110 H 6480.5 -2.43866 -2.41628 0
M  V30 63111 N 6482.95 1.39051 -0.741796 0
M  V30 63112 C 6484.17 2.05192 -0.301861 0
M  V30 63113 C 6484.6 1.5557 1.05733 0
M  V30 63114 O 6483.95 0.702441 1.67139 0
M  V30 63115 C 6484 3.59171 -0.320741 0
M  V30 63116 O 6483.11 4.06598 0.689317 0
M  V30 63117 H 6482.45 0.649952 -0.13586 0
M  V30 63118 H 6484.98 1.77955 -1.00962 0
M  V30 63119 H 6484.99 4.07656 -0.167495 0
M  V30 63120 H 6483.66 3.94648 -1.31248 0
M  V30 63121 H 6482.24 3.6951 0.50165 0
M  V30 63122 N 6484.42 0.489949 1.49791 0
M  V30 63123 C 6485.37 -0.294342 2.28915 0
M  V30 63124 C 6486.34 -0.970337 1.3481 0
M  V30 63125 O 6487.53 -0.979137 1.63761 0
M  V30 63126 C 6484.67 -1.35938 3.17199 0
M  V30 63127 C 6483.78 -0.696269 4.26352 0
M  V30 63128 C 6482.91 -1.7408 5.01866 0
M  V30 63129 C 6481.95 -1.05896 6.0287 0
M  V30 63130 N 6481.09 -2.04719 6.71591 0
M  V30 63131 H 6485.93 0.386666 2.95481 0
M  V30 63132 H 6483.47 0.20253 1.45699 0
M  V30 63133 H 6485.43 -1.98873 3.6675 0
M  V30 63134 H 6484.06 -2.00929 2.5264 0
M  V30 63135 H 6483.11 0.0461051 3.80372 0
M  V30 63136 H 6484.42 -0.158988 4.98547 0
M  V30 63137 H 6483.57 -2.44548 5.55231 0
M  V30 63138 H 6482.31 -2.31192 4.2942 0
M  V30 63139 H 6481.32 -0.339997 5.48748 0
M  V30 63140 H 6482.54 -0.494487 6.77297 0
M  V30 63141 H 6480.49 -2.60813 6.01924 0
M  V30 63142 H 6480.41 -1.56027 7.39724 0
M  V30 63143 H 6481.67 -2.7451 7.29565 0
M  V30 63144 N 6485.9 -1.5601 0.223316 0
M  V30 63145 C 6487.13 -2.0319 -0.415745 0
M  V30 63146 C 6487.55 -1.10205 -1.52435 0
M  V30 63147 O 6486.91 -0.0905636 -1.81074 0
M  V30 63148 C 6486.96 -3.48589 -0.922931 0
M  V30 63149 O 6486.06 -3.58741 -2.03417 0
M  V30 63150 H 6485.4 -0.657333 -0.0938552 0
M  V30 63151 H 6487.93 -2.01713 0.34247 0
M  V30 63152 H 6487.94 -3.88946 -1.23229 0
M  V30 63153 H 6486.62 -4.1575 -0.111544 0
M  V30 63154 H 6485.2 -3.30273 -1.73131 0
M  V30 63155 N 6487.38 0.0500562 -1.5752 0
M  V30 63156 C 6488.61 0.757369 -1.9254 0
M  V30 63157 C 6489.02 1.70002 -0.821265 0
M  V30 63158 O 6488.38 1.81357 0.20392 0
M  V30 63159 C 6488.43 1.53246 -3.27411 0
M  V30 63160 O 6488.15 0.627675 -4.3358 0
M  V30 63161 C 6489.65 2.33883 -3.76582 0
M  V30 63162 H 6486.87 0.214108 -0.635924 0
M  V30 63163 H 6489.42 0.0138382 -2.04495 0
M  V30 63164 H 6487.57 2.22807 -3.16916 0
M  V30 63165 H 6487.99 1.169 -5.11307 0
M  V30 63166 H 6489.46 2.83693 -4.73521 0
M  V30 63167 H 6489.94 3.14379 -3.06696 0
M  V30 63168 H 6490.54 1.69438 -3.90091 0
M  V30 63169 N 6488.86 1.54277 0.321918 0
M  V30 63170 C 6490.27 1.63781 0.896251 0
M  V30 63171 C 6490.62 0.532937 1.88823 0
M  V30 63172 O 6489.75 -0.333895 2.13809 0
M  V30 63173 C 6490.34 2.96884 1.63235 0
M  V30 63174 C 6488.9 3.08578 2.15538 0
M  V30 63175 C 6488.05 2.59357 0.981294 0
M  V30 63176 H 6491 1.58388 0.0994564 0
M  V30 63177 H 6491.02 2.87136 2.49667 0
M  V30 63178 H 6490.53 3.77278 0.910118 0
M  V30 63179 H 6488.63 2.32862 2.90871 0
M  V30 63180 H 6488.75 4.14406 2.40426 0
M  V30 63181 H 6487.11 2.15292 1.36093 0
M  V30 63182 H 6487.89 3.4221 0.273357 0
M  V30 63183 N 6490.34 -0.584065 1.46378 0
M  V30 63184 C 6491.57 -1.36839 1.55186 0
M  V30 63185 C 6491.98 -1.87816 0.192509 0
M  V30 63186 O 6491.34 -1.63541 -0.809973 0
M  V30 63187 C 6491.39 -2.55685 2.55554 0
M  V30 63188 O 6491.11 -2.0682 3.86208 0
M  V30 63189 C 6492.61 -3.48253 2.74289 0
M  V30 63190 H 6489.83 -0.418076 0.524837 0
M  V30 63191 H 6492.37 -0.710159 1.91773 0
M  V30 63192 H 6490.53 -3.175 2.21974 0
M  V30 63193 H 6490.94 -2.84208 4.40824 0
M  V30 63194 H 6492.42 -4.28127 3.48441 0
M  V30 63195 H 6492.89 -4.00102 1.81148 0
M  V30 63196 H 6493.5 -2.92274 3.08959 0
M  V30 63197 N 6491.82 -1.34061 -0.828584 0
M  V30 63198 C 6493.23 -1.23415 -1.40091 0
M  V30 63199 C 6493.58 0.142711 -1.9568 0
M  V30 63200 O 6492.7 1.04279 -1.89617 0
M  V30 63201 C 6493.3 -2.2345 -2.54667 0
M  V30 63202 C 6491.86 -2.16613 -3.07824 0
M  V30 63203 C 6491 -2.10366 -1.80669 0
M  V30 63204 H 6493.95 -1.45509 -0.633463 0
M  V30 63205 H 6493.98 -1.8482 -3.32598 0
M  V30 63206 H 6493.49 -3.2365 -2.14178 0
M  V30 63207 H 6491.59 -1.1975 -3.52832 0
M  V30 63208 H 6491.7 -3.07617 -3.67299 0
M  V30 63209 H 6490.07 -1.56 -2.01336 0
M  V30 63210 H 6490.85 -3.12391 -1.42362 0
M  V30 63211 N 6493.29 1.0481 -1.17698 0
M  V30 63212 C 6494.52 1.82085 -0.992972 0
M  V30 63213 C 6494.94 1.8254 0.453958 0
M  V30 63214 O 6494.3 1.2372 1.32525 0
M  V30 63215 C 6494.35 3.25906 -1.54329 0
M  V30 63216 O 6493.45 4.05344 -0.759628 0
M  V30 63217 H 6492.79 0.56284 -0.352288 0
M  V30 63218 H 6495.32 1.32048 -1.56283 0
M  V30 63219 H 6495.33 3.76699 -1.56721 0
M  V30 63220 H 6494.01 3.2489 -2.59653 0
M  V30 63221 H 6492.59 3.64054 -0.807426 0
M  V30 63222 N 6494.77 0.977823 1.23598 0
M  V30 63223 C 6495.72 0.515629 2.24966 0
M  V30 63224 C 6496.69 -0.444144 1.60052 0
M  V30 63225 O 6497.87 -0.352262 1.8752 0
M  V30 63226 C 6495.01 -0.178299 3.44639 0
M  V30 63227 C 6494.13 0.821432 4.24118 0
M  V30 63228 C 6493.26 0.102574 5.31101 0
M  V30 63229 C 6492.3 1.09169 6.02286 0
M  V30 63230 N 6491.44 0.402161 7.00947 0
M  V30 63231 H 6496.28 1.38485 2.63867 0
M  V30 63232 H 6493.81 0.693992 1.297 0
M  V30 63233 H 6495.77 -0.597409 4.12901 0
M  V30 63234 H 6494.4 -1.0114 3.06546 0
M  V30 63235 H 6493.45 1.35894 3.55298 0
M  V30 63236 H 6494.77 1.57526 4.73273 0
M  V30 63237 H 6493.92 -0.374029 6.05546 0
M  V30 63238 H 6492.66 -0.683879 4.82881 0
M  V30 63239 H 6491.66 1.57907 5.26636 0
M  V30 63240 H 6492.89 1.87876 6.52594 0
M  V30 63241 H 6490.84 -0.36513 6.54983 0
M  V30 63242 H 6490.75 1.09469 7.48032 0
M  V30 63243 H 6492.02 -0.0521397 7.79483 0
M  V30 63244 N 6496.25 -1.38656 0.749159 0
M  V30 63245 C 6497.66 -1.82965 0.371588 0
M  V30 63246 C 6498.01 -1.62523 -1.09912 0
M  V30 63247 O 6497.14 -1.12401 -1.84919 0
M  V30 63248 C 6497.73 -3.32156 0.66767 0
M  V30 63249 C 6496.29 -3.7483 0.343429 0
M  V30 63250 C 6495.44 -2.61484 0.923106 0
M  V30 63251 H 6498.39 -1.27447 0.94567 0
M  V30 63252 H 6498.41 -3.80459 -0.055675 0
M  V30 63253 H 6497.92 -3.47002 1.73813 0
M  V30 63254 H 6496.02 -3.65565 -0.720631 0
M  V30 63255 H 6496.14 -4.71752 0.835885 0
M  V30 63256 H 6494.5 -2.52301 0.348775 0
M  V30 63257 H 6495.28 -2.79131 1.99851 0
M  V30 63258 N 6497.73 -0.497886 -1.49529 0
M  V30 63259 C 6498.95 0.0468192 -2.07347 0
M  V30 63260 C 6499.38 1.30344 -1.35617 0
M  V30 63261 O 6498.74 1.76558 -0.411946 0
M  V30 63262 C 6498.78 0.286649 -3.59459 0
M  V30 63263 O 6497.89 1.36198 -3.89261 0
M  V30 63264 H 6497.23 -0.0248436 -0.663535 0
M  V30 63265 H 6499.76 -0.696615 -1.92376 0
M  V30 63266 H 6499.77 0.5191 -4.04684 0
M  V30 63267 H 6498.44 -0.631478 -4.11078 0
M  V30 63268 H 6497.02 1.11473 -3.55849 0
M  V30 63269 N 6499.21 1.55889 -0.231587 0
M  V30 63270 C 6500.43 2.03408 0.404964 0
M  V30 63271 C 6500.86 1.11012 1.51848 0
M  V30 63272 O 6500.21 0.100165 1.81023 0
M  V30 63273 C 6500.26 3.49074 0.904431 0
M  V30 63274 O 6499.37 3.59815 2.01511 0
M  V30 63275 H 6498.71 0.657822 0.0903679 0
M  V30 63276 H 6501.24 2.01529 -0.353163 0
M  V30 63277 H 6501.25 3.89594 1.21165 0
M  V30 63278 H 6499.92 4.15804 0.0894945 0
M  V30 63279 H 6498.5 3.31186 1.71377 0
M  V30 63280 N 6500.68 -0.0417018 1.57545 0
M  V30 63281 C 6501.91 -0.747148 1.92939 0
M  V30 63282 C 6502.33 -1.69564 0.830269 0
M  V30 63283 O 6501.68 -1.81463 -0.194299 0
M  V30 63284 C 6501.73 -1.51508 3.28219 0
M  V30 63285 O 6501.46 -0.604673 4.33907 0
M  V30 63286 C 6502.96 -2.31882 3.77817 0
M  V30 63287 H 6500.18 -0.210732 0.63705 0
M  V30 63288 H 6502.72 -0.00299308 2.045 0
M  V30 63289 H 6500.88 -2.21123 3.18094 0
M  V30 63290 H 6501.29 -1.14187 5.1192 0
M  V30 63291 H 6502.76 -2.81177 4.75019 0
M  V30 63292 H 6503.24 -3.12748 3.08359 0
M  V30 63293 H 6503.85 -1.67366 3.90984 0
M  V30 63294 N 6502.16 -1.54446 -0.313732 0
M  V30 63295 C 6503.57 -1.64254 -0.887553 0
M  V30 63296 C 6503.92 -0.542943 -1.88538 0
M  V30 63297 O 6503.05 0.322552 -2.13983 0
M  V30 63298 C 6503.64 -2.97745 -1.61658 0
M  V30 63299 C 6502.2 -3.09717 -2.13899 0
M  V30 63300 C 6501.35 -2.59873 -0.967526 0
M  V30 63301 H 6504.3 -1.58439 -0.0910553 0
M  V30 63302 H 6504.32 -2.88456 -2.4814 0
M  V30 63303 H 6503.83 -3.77755 -0.890098 0
M  V30 63304 H 6501.93 -2.34401 -2.89632 0
M  V30 63305 H 6502.05 -4.15675 -2.38225 0
M  V30 63306 H 6500.41 -2.16011 -1.34949 0
M  V30 63307 H 6501.19 -3.4235 -0.255205 0
M  V30 63308 N 6503.64 0.576294 -1.46685 0
M  V30 63309 C 6504.87 1.36499 -1.5615 0
M  V30 63310 C 6505.29 1.86975 -0.205456 0
M  V30 63311 O 6504.65 1.61923 0.815509 0
M  V30 63312 C 6504.7 2.52408 -2.57532 0
M  V30 63313 O 6503.8 3.54048 -2.1148 0
M  V30 63314 H 6503.14 0.406244 -0.525225 0
M  V30 63315 H 6505.67 0.698399 -1.92311 0
M  V30 63316 H 6505.68 2.99239 -2.77345 0
M  V30 63317 H 6504.36 2.15023 -3.56003 0
M  V30 63318 H 6502.93 3.13654 -2.01682 0
M  V30 63319 N 6505.12 1.34498 0.821463 0
M  V30 63320 C 6506.07 1.26195 1.93245 0
M  V30 63321 C 6507.04 0.13688 1.65535 0
M  V30 63322 O 6508.22 0.318101 1.8813 0
M  V30 63323 C 6505.36 1.02479 3.29533 0
M  V30 63324 C 6504.47 2.23773 3.69527 0
M  V30 63325 C 6503.61 1.93328 4.9477 0
M  V30 63326 C 6502.65 3.10757 5.27348 0
M  V30 63327 N 6501.78 2.80187 6.4377 0
M  V30 63328 H 6506.62 2.21206 1.99679 0
M  V30 63329 H 6504.16 1.09978 0.976897 0
M  V30 63330 H 6506.12 0.867661 4.08078 0
M  V30 63331 H 6504.75 0.111349 3.22608 0
M  V30 63332 H 6503.8 2.50401 2.86362 0
M  V30 63333 H 6505.11 3.11505 3.89572 0
M  V30 63334 H 6504.27 1.7436 5.81105 0
M  V30 63335 H 6503.01 1.02859 4.7673 0
M  V30 63336 H 6502.01 3.3032 4.3951 0
M  V30 63337 H 6503.24 4.02007 5.47327 0
M  V30 63338 H 6501.18 1.92295 6.27183 0
M  V30 63339 H 6501.1 3.61451 6.63995 0
M  V30 63340 H 6502.37 2.64726 7.33172 0
M  V30 63341 N 6506.6 -1.04184 1.18252 0
M  V30 63342 C 6508.01 -1.58818 0.981514 0
M  V30 63343 C 6508.36 -1.90509 -0.46912 0
M  V30 63344 O 6507.48 -1.69425 -1.34626 0
M  V30 63345 C 6508.08 -2.88559 1.77536 0
M  V30 63346 C 6506.64 -3.39814 1.61874 0
M  V30 63347 C 6505.78 -2.13414 1.77058 0
M  V30 63348 H 6508.74 -0.868703 1.32813 0
M  V30 63349 H 6508.76 -3.58901 1.26374 0
M  V30 63350 H 6508.27 -2.65462 2.8311 0
M  V30 63351 H 6506.37 -3.67926 0.588315 0
M  V30 63352 H 6506.48 -4.1372 2.41605 0
M  V30 63353 H 6504.85 -2.24663 1.19994 0
M  V30 63354 H 6505.63 -1.92775 2.84065 0
M  V30 63355 N 6508.07 -0.984364 -1.23077 0
M  V30 63356 C 6509.3 -0.673604 -1.95628 0
M  V30 63357 C 6509.72 0.760161 -1.72821 0
M  V30 63358 O 6509.07 1.51197 -1.02204 0
M  V30 63359 C 6509.13 -0.959406 -3.48536 0
M  V30 63360 O 6508.85 -2.33682 -3.70573 0
M  V30 63361 C 6510.35 -0.665152 -4.38281 0
M  V30 63362 H 6507.57 -0.249893 -0.622731 0
M  V30 63363 H 6510.11 -1.31682 -1.56461 0
M  V30 63364 H 6508.27 -0.362133 -3.85704 0
M  V30 63365 H 6508.68 -2.42954 -4.64837 0
M  V30 63366 H 6510.15 -0.915462 -5.44356 0
M  V30 63367 H 6510.63 0.400807 -4.37367 0
M  V30 63368 H 6511.24 -1.24308 -4.06728 0
M  V30 63369 N 6509.55 1.38256 -0.756502 0
M  V30 63370 C 6510.96 1.82765 -0.381286 0
M  V30 63371 C 6511.31 1.63104 1.09049 0
M  V30 63372 O 6510.44 1.1338 1.8432 0
M  V30 63373 C 6511.03 3.31797 -0.685275 0
M  V30 63374 C 6509.59 3.74643 -0.363302 0
M  V30 63375 C 6508.74 2.60991 -0.93696 0
M  V30 63376 H 6511.69 1.26944 -0.952415 0
M  V30 63377 H 6511.71 3.80483 0.0354975 0
M  V30 63378 H 6511.22 3.46076 -1.75651 0
M  V30 63379 H 6509.33 3.65942 0.701234 0
M  V30 63380 H 6509.44 4.71302 -0.860892 0
M  V30 63381 H 6507.8 2.52112 -0.362151 0
M  V30 63382 H 6508.59 2.78068 -2.01329 0
M  V30 63383 N 6511.03 0.505809 1.49263 0
M  V30 63384 C 6512.28 -0.0369277 2.02066 0
M  V30 63385 C 6512.6 -1.37039 1.38728 0
M  V30 63386 O 6511.87 -1.88188 0.544248 0
M  V30 63387 H 6510.45 -0.0166366 0.746815 0
M  V30 63388 H 6513.11 0.664145 1.83235 0
M  V30 63389 H 6512.21 -0.16307 3.11674 0
M  V30 63390 N 6512.51 -1.55764 0.239851 0
M  V30 63391 C 6513.74 -2.03168 -0.391189 0
M  V30 63392 C 6514.15 -1.11928 -1.52045 0
M  V30 63393 O 6513.51 -0.132342 -1.8202 0
M  V30 63394 C 6513.56 -3.49972 -0.905627 0
M  V30 63395 O 6513.28 -4.37736 0.178622 0
M  V30 63396 C 6514.78 -4.13105 -1.60807 0
M  V30 63397 H 6512 -0.664415 -0.0937774 0
M  V30 63398 H 6514.55 -2.01277 0.361655 0
M  V30 63399 H 6512.7 -3.52421 -1.60868 0
M  V30 63400 H 6513.11 -5.24076 -0.21088 0
M  V30 63401 H 6514.59 -5.17539 -1.91982 0
M  V30 63402 H 6515.07 -3.59178 -2.5276 0
M  V30 63403 H 6515.67 -4.14559 -0.94977 0
M  V30 63404 N 6513.99 0.0333462 -1.57565 0
M  V30 63405 C 6514.93 1.03529 -2.06277 0
M  V30 63406 C 6515.9 1.36178 -0.951037 0
M  V30 63407 O 6517.09 1.46589 -1.22132 0
M  V30 63408 C 6514.23 2.33247 -2.54342 0
M  V30 63409 C 6513.34 2.06793 -3.79289 0
M  V30 63410 C 6512.48 3.30351 -4.15983 0
M  V30 63411 C 6511.52 2.99433 -5.3386 0
M  V30 63412 N 6510.65 4.15429 -5.66006 0
M  V30 63413 H 6515.49 0.612932 -2.91628 0
M  V30 63414 H 6513.03 0.291032 -1.44192 0
M  V30 63415 H 6514.99 3.09034 -2.80275 0
M  V30 63416 H 6513.62 2.73213 -1.71914 0
M  V30 63417 H 6512.67 1.21523 -3.60467 0
M  V30 63418 H 6513.98 1.79983 -4.65196 0
M  V30 63419 H 6513.14 4.14508 -4.43021 0
M  V30 63420 H 6511.87 3.60271 -3.28719 0
M  V30 63421 H 6510.88 2.13677 -5.06579 0
M  V30 63422 H 6512.1 2.70795 -6.22773 0
M  V30 63423 H 6510.05 4.45309 -4.81701 0
M  V30 63424 H 6509.97 3.92028 -6.46413 0
M  V30 63425 H 6511.24 5.00473 -5.97618 0
M  V30 63426 N 6515.46 1.5461 0.305537 0
M  V30 63427 C 6516.88 1.64722 0.87883 0
M  V30 63428 C 6517.23 0.552934 1.88247 0
M  V30 63429 O 6516.35 -0.311199 2.14151 0
M  V30 63430 C 6516.95 2.98598 1.60077 0
M  V30 63431 C 6515.51 3.10847 2.12253 0
M  V30 63432 C 6514.65 2.60383 0.953731 0
M  V30 63433 H 6517.6 1.58485 0.0826517 0
M  V30 63434 H 6517.62 2.89768 2.46607 0
M  V30 63435 H 6517.14 3.78222 0.870052 0
M  V30 63436 H 6515.24 2.35934 2.88385 0
M  V30 63437 H 6515.35 4.16933 2.36017 0
M  V30 63438 H 6513.71 2.16724 1.33802 0
M  V30 63439 H 6514.5 3.42481 0.237045 0
M  V30 63440 N 6516.94 -0.568506 1.46989 0
M  V30 63441 C 6518.35 -1.15065 1.47027 0
M  V30 63442 C 6518.7 -1.94976 0.218795 0
M  V30 63443 O 6517.83 -2.05533 -0.677129 0
M  V30 63444 C 6518.42 -2.09339 2.66388 0
M  V30 63445 C 6516.98 -2.62848 2.69422 0
M  V30 63446 C 6516.13 -1.38998 2.39948 0
M  V30 63447 H 6519.08 -0.35569 1.54663 0
M  V30 63448 H 6519.1 -2.93035 2.42715 0
M  V30 63449 H 6518.61 -1.5115 3.57457 0
M  V30 63450 H 6516.72 -3.24866 1.82463 0
M  V30 63451 H 6516.83 -3.04613 3.69794 0
M  V30 63452 H 6515.19 -1.69291 1.90297 0
M  V30 63453 H 6515.98 -0.826192 3.3321 0
M  V30 63454 N 6518.42 -1.34932 -0.814318 0
M  V30 63455 C 6519.33 -1.29312 -1.95744 0
M  V30 63456 C 6520.35 -0.199322 -1.72855 0
M  V30 63457 O 6521.52 -0.42733 -1.96814 0
M  V30 63458 C 6518.59 -1.05699 -3.30195 0
M  V30 63459 C 6517.65 -2.24318 -3.66033 0
M  V30 63460 C 6516.88 -2.01823 -4.94068 0
M  V30 63461 O 6517.11 -0.980781 -5.61905 0
M  V30 63462 O 6516.04 -2.88991 -5.27984 0
M  V30 63463 H 6519.87 -2.25499 -2.0343 0
M  V30 63464 H 6517.45 -1.15225 -0.950977 0
M  V30 63465 H 6519.33 -0.943477 -4.10702 0
M  V30 63466 H 6518.01 -0.12558 -3.23456 0
M  V30 63467 H 6516.91 -2.41232 -2.85933 0
M  V30 63468 H 6518.25 -3.1588 -3.77466 0
M  V30 63469 N 6519.9 1.03555 -1.18803 0
M  V30 63470 C 6521.14 1.78403 -0.997587 0
M  V30 63471 C 6521.5 1.86306 0.464104 0
M  V30 63472 O 6522.7 2.57411 0.774147 0
M  V30 63473 C 6520.98 3.17528 -1.64044 0
M  V30 63474 S 6522.53 4.0865 -1.59847 0
M  V30 63475 H 6519.35 0.614223 -0.358121 0
M  V30 63476 H 6521.95 1.24131 -1.51035 0
M  V30 63477 H 6520.66 3.09389 -2.69642 0
M  V30 63478 H 6520.19 3.76876 -1.12818 0
M  V30 63479 H 6522.2 4.92337 -0.617953 0
M  V30 63480 N 6521.38 0.990877 1.22554 0
M  V30 63481 C 6522.79 0.701026 1.73039 0
M  V30 63482 C 6523.14 -0.78222 1.79933 0
M  V30 63483 O 6522.26 -1.61153 1.44426 0
M  V30 63484 C 6522.86 1.26585 3.14264 0
M  V30 63485 C 6521.42 1.02543 3.62163 0
M  V30 63486 C 6520.57 1.38727 2.40105 0
M  V30 63487 H 6523.52 1.16348 1.0793 0
M  V30 63488 H 6523.54 0.64343 3.7502 0
M  V30 63489 H 6523.05 2.34538 3.09214 0
M  V30 63490 H 6521.15 -0.0375663 3.72581 0
M  V30 63491 H 6521.26 1.68738 4.48402 0
M  V30 63492 H 6519.63 0.805836 2.41616 0
M  V30 63493 H 6520.41 2.47679 2.37718 0
M  V30 63494 N 6522.86 -1.37853 0.763824 0
M  V30 63495 C 6524.13 -1.94 0.249634 0
M  V30 63496 C 6524.51 -1.69822 -1.25394 0
M  V30 63497 O 6523.86 -1.04252 -2.03332 0
M  V30 63498 C 6524.07 -3.43549 0.61442 0
M  V30 63499 C 6525.42 -4.20623 0.579774 0
M  V30 63500 O 6526.44 -3.51876 0.553329 0
M  V30 63501 O 6525.3 -5.43199 0.599797 0
M  V30 63502 H 6522.4 -0.825146 0.0553461 0
M  V30 63503 H 6524.94 -1.47187 0.84464 0
M  V30 63504 H 6523.71 -3.54697 1.65243 0
M  V30 63505 H 6523.34 -3.97599 -0.00805558 0
M  V30 63506 N 6524.33 -0.513718 -1.48992 0
M  V30 63507 C 6525.58 0.026263 -2.02483 0
M  V30 63508 C 6525.91 1.35812 -1.39231 0
M  V30 63509 O 6525.16 1.88619 -0.521666 0
M  V30 63510 C 6525.46 0.214203 -3.56758 0
M  V30 63511 C 6525.13 -1.04125 -4.38713 0
M  V30 63512 C 6523.79 -1.38536 -4.60827 0
M  V30 63513 C 6526.14 -1.87516 -4.86299 0
M  V30 63514 C 6523.47 -2.56266 -5.27773 0
M  V30 63515 C 6525.82 -3.04411 -5.54542 0
M  V30 63516 C 6524.49 -3.39187 -5.74899 0
M  V30 63517 H 6523.76 0.0096103 -0.740938 0
M  V30 63518 H 6526.4 -0.676451 -1.79155 0
M  V30 63519 H 6524.71 0.999552 -3.78835 0
M  V30 63520 H 6526.41 0.646662 -3.95752 0
M  V30 63521 H 6523 -0.763231 -4.2175 0
M  V30 63522 H 6527.18 -1.62245 -4.69031 0
M  V30 63523 H 6522.44 -2.83432 -5.41734 0
M  V30 63524 H 6526.61 -3.69346 -5.90387 0
M  V30 63525 H 6524.24 -4.30514 -6.26547 0
M  V30 63526 N 6525.81 1.55635 -0.248108 0
M  V30 63527 C 6527.09 1.90889 0.426692 0
M  V30 63528 C 6527.47 1.169 1.75777 0
M  V30 63529 O 6526.82 0.286883 2.26692 0
M  V30 63530 C 6527.03 3.43915 0.593588 0
M  V30 63531 C 6528.37 4.15191 0.888913 0
M  V30 63532 O 6529.4 3.49661 0.679407 0
M  V30 63533 O 6528.26 5.31106 1.28797 0
M  V30 63534 H 6525.35 0.794584 0.229272 0
M  V30 63535 H 6527.9 1.67164 -0.292264 0
M  V30 63536 H 6526.67 3.89783 -0.344237 0
M  V30 63537 H 6526.29 3.73506 1.36304 0
M  V30 63538 N 6527.29 -0.0249897 1.5758 0
M  V30 63539 C 6528.7 -0.571068 1.77752 0
M  V30 63540 C 6529.05 -1.75373 0.879699 0
M  V30 63541 O 6528.18 -2.16268 0.0755932 0
M  V30 63542 C 6528.77 -1.04275 3.22354 0
M  V30 63543 C 6527.33 -1.53432 3.43709 0
M  V30 63544 C 6526.48 -0.474217 2.73215 0
M  V30 63545 H 6529.43 0.201233 1.57419 0
M  V30 63546 H 6529.45 -1.90994 3.29092 0
M  V30 63547 H 6528.96 -0.181786 3.87674 0
M  V30 63548 H 6527.06 -2.41701 2.83569 0
M  V30 63549 H 6527.18 -1.57901 4.52332 0
M  V30 63550 H 6525.54 -0.930187 2.37107 0
M  V30 63551 H 6526.32 0.377357 3.4122 0
M  V30 63552 N 6528.77 -1.5477 -0.297333 0
M  V30 63553 C 6530.18 -1.65186 -0.870082 0
M  V30 63554 C 6530.53 -0.56291 -1.87951 0
M  V30 63555 O 6529.65 0.299838 -2.14313 0
M  V30 63556 C 6530.25 -2.99443 -1.58491 0
M  V30 63557 C 6528.81 -3.11968 -2.10602 0
M  V30 63558 C 6527.96 -2.60885 -0.939909 0
M  V30 63559 H 6530.91 -1.58526 -0.0742457 0
M  V30 63560 H 6530.93 -2.91071 -2.45067 0
M  V30 63561 H 6530.44 -3.78678 -0.849982 0
M  V30 63562 H 6528.54 -2.3746 -2.8713 0
M  V30 63563 H 6528.65 -4.18178 -2.33802 0
M  V30 63564 H 6527.02 -2.1743 -1.32651 0
M  V30 63565 H 6527.8 -3.42602 -0.218879 0
M  V30 63566 N 6530.25 0.560703 -1.47288 0
M  V30 63567 C 6531.66 0.886286 -1.3273 0
M  V30 63568 C 6531.86 1.9902 -0.31516 0
M  V30 63569 O 6530.92 2.51003 0.27455 0
M  V30 63570 C 6532.23 1.28282 -2.71963 0
M  V30 63571 C 6533.78 1.39445 -2.80222 0
M  V30 63572 C 6534.25 1.82456 -4.20088 0
M  V30 63573 N 6535.74 1.89612 -4.22613 0
M  V30 63574 C 6536.48 2.24213 -5.27746 0
M  V30 63575 N 6535.98 2.57453 -6.43187 0
M  V30 63576 N 6537.77 2.24957 -5.15122 0
M  V30 63577 H 6529.92 -0.168163 -2.11733 0
M  V30 63578 H 6532.18 -0.0125659 -0.947917 0
M  V30 63579 H 6531.89 0.545541 -3.47443 0
M  V30 63580 H 6531.76 2.23973 -3.03506 0
M  V30 63581 H 6534.15 2.12255 -2.05016 0
M  V30 63582 H 6534.23 0.419513 -2.52337 0
M  V30 63583 H 6533.87 1.10216 -4.95797 0
M  V30 63584 H 6533.8 2.80946 -4.45395 0
M  V30 63585 H 6536.3 1.66325 -3.39329 0
M  V30 63586 H 6536.61 2.82872 -7.19169 0
M  V30 63587 H 6534.95 2.55041 -6.46513 0
M  V30 63588 H 6538.14 1.98426 -4.23963 0
M  V30 63589 H 6538.32 2.51593 -5.97164 0
M  V30 63590 N 6531.72 1.35362 0.807151 0
M  V30 63591 C 6532.66 1.2409 1.92703 0
M  V30 63592 C 6533.67 0.164324 1.61969 0
M  V30 63593 O 6534.86 0.417548 1.73548 0
M  V30 63594 C 6531.96 0.887965 3.2706 0
M  V30 63595 C 6531.13 2.06279 3.85704 0
M  V30 63596 C 6530.19 1.68573 4.98467 0
M  V30 63597 O 6529.22 2.40439 5.15924 0
M  V30 63598 N 6530.42 0.60903 5.77296 0
M  V30 63599 H 6533.18 2.20572 2.02899 0
M  V30 63600 H 6530.74 1.28524 0.984544 0
M  V30 63601 H 6532.74 0.617211 3.99966 0
M  V30 63602 H 6531.31 0.0128423 3.12597 0
M  V30 63603 H 6530.53 2.49738 3.04999 0
M  V30 63604 H 6531.81 2.84811 4.21616 0
M  V30 63605 H 6531.21 0.0119263 5.65699 0
M  V30 63606 H 6529.77 0.398056 6.50583 0
M  V30 63607 N 6533.2 -1.02924 1.1935 0
M  V30 63608 C 6534.11 -2.14671 0.946237 0
M  V30 63609 C 6535.13 -1.73748 -0.0936284 0
M  V30 63610 O 6536.3 -2.01195 0.0909305 0
M  V30 63611 C 6533.37 -3.43251 0.487794 0
M  V30 63612 C 6532.43 -3.9849 1.597 0
M  V30 63613 C 6531.66 -5.20934 1.16034 0
M  V30 63614 O 6531.89 -5.70395 0.0237546 0
M  V30 63615 O 6530.82 -5.68999 1.96274 0
M  V30 63616 H 6534.65 -2.38392 1.88156 0
M  V30 63617 H 6532.23 -1.13088 0.97629 0
M  V30 63618 H 6534.11 -4.20712 0.24076 0
M  V30 63619 H 6532.79 -3.20975 -0.419098 0
M  V30 63620 H 6531.7 -3.22366 1.89818 0
M  V30 63621 H 6533.03 -4.2513 2.48044 0
M  V30 63622 N 6534.68 -0.997362 -1.22026 0
M  V30 63623 C 6535.63 -0.544354 -2.26141 0
M  V30 63624 C 6536.62 0.40724 -1.64432 0
M  V30 63625 O 6537.83 0.27927 -1.7782 0
M  V30 63626 H 6534.2 -0.15766 -0.735287 0
M  V30 63627 H 6536.17 -1.4338 -2.61696 0
M  V30 63628 C 6534.92 0.120903 -3.4749 0
M  V30 63629 H 6534.25 -0.60228 -3.95237 0
M  V30 63630 H 6535.69 0.401262 -4.22097 0
M  V30 63631 C 6534.15 1.35767 -3.08333 0
M  V30 63632 O 6534.68 2.45266 -3.18132 0
M  V30 63633 N 6532.88 1.23457 -2.63072 0
M  V30 63634 H 6532.43 0.343588 -2.55298 0
M  V30 63635 H 6532.39 2.06311 -2.37241 0
M  V30 63636 N 6536.16 1.37446 -0.771123 0
M  V30 63637 C 6537.07 2.34069 -0.157713 0
M  V30 63638 C 6538.08 1.60148 0.680348 0
M  V30 63639 O 6539.26 1.92242 0.600414 0
M  V30 63640 C 6536.33 3.39318 0.711614 0
M  V30 63641 C 6535.39 4.29062 -0.142833 0
M  V30 63642 C 6534.62 5.29285 0.685098 0
M  V30 63643 O 6534.84 5.37035 1.92222 0
M  V30 63644 O 6533.78 6.01826 0.0946315 0
M  V30 63645 H 6537.6 2.88256 -0.956138 0
M  V30 63646 H 6535.19 1.39597 -0.532273 0
M  V30 63647 H 6537.07 4.03717 1.20792 0
M  V30 63648 H 6535.74 2.8746 1.48824 0
M  V30 63649 H 6534.65 3.67766 -0.685486 0
M  V30 63650 H 6535.98 4.84223 -0.882526 0
M  V30 63651 N 6537.64 0.521612 1.48718 0
M  V30 63652 C 6538.86 -0.0117238 2.06897 0
M  V30 63653 C 6539.28 -1.28923 1.37928 0
M  V30 63654 O 6538.64 -1.765 0.464108 0
M  V30 63655 C 6538.69 -0.248034 3.60648 0
M  V30 63656 O 6538.41 0.978853 4.27025 0
M  V30 63657 C 6539.91 -0.822695 4.35599 0
M  V30 63658 H 6537.13 0.0297381 0.670341 0
M  V30 63659 H 6539.67 0.724865 1.91222 0
M  V30 63660 H 6537.83 -0.93465 3.75956 0
M  V30 63661 H 6538.24 0.754404 5.19046 0
M  V30 63662 H 6539.72 -0.937512 5.4398 0
M  V30 63663 H 6540.19 -1.82557 3.99462 0
M  V30 63664 H 6540.8 -0.172907 4.24948 0
M  V30 63665 N 6539.11 -1.55501 0.256358 0
M  V30 63666 C 6540.36 -2.002 -0.359363 0
M  V30 63667 C 6540.72 -1.14156 -1.54875 0
M  V30 63668 O 6540.01 -0.19926 -1.90561 0
M  V30 63669 C 6540.2 -3.48101 -0.809954 0
M  V30 63670 C 6540.03 -4.48456 0.334223 0
M  V30 63671 C 6538.8 -4.98734 0.811967 0
M  V30 63672 C 6541 -5.00945 1.16442 0
M  V30 63673 N 6538.98 -5.82853 1.92757 0
M  V30 63674 C 6540.35 -5.82328 2.12824 0
M  V30 63675 C 6542.41 -4.83225 1.19991 0
M  V30 63676 C 6541.11 -6.47882 3.12475 0
M  V30 63677 C 6543.14 -5.49565 2.18478 0
M  V30 63678 C 6542.5 -6.30744 3.13594 0
M  V30 63679 H 6538.6 -0.775937 -0.0971931 0
M  V30 63680 H 6541.18 -1.91033 0.376098 0
M  V30 63681 H 6539.35 -3.57648 -1.51468 0
M  V30 63682 H 6541.08 -3.79661 -1.40142 0
M  V30 63683 H 6537.84 -4.71954 0.394477 0
M  V30 63684 H 6538.26 -6.29608 2.48842 0
M  V30 63685 H 6542.91 -4.20085 0.478386 0
M  V30 63686 H 6540.62 -7.10183 3.85571 0
M  V30 63687 H 6544.21 -5.37804 2.21941 0
M  V30 63688 H 6543.09 -6.8117 3.88557 0
M  V30 63689 N 6540.59 0.0166325 -1.57591 0
M  V30 63690 C 6541.84 0.700422 -1.9096 0
M  V30 63691 C 6542.19 1.72294 -0.856298 0
M  V30 63692 O 6541.49 1.91134 0.133547 0
M  V30 63693 C 6541.68 1.40018 -3.28831 0
M  V30 63694 C 6541.51 0.446954 -4.47473 0
M  V30 63695 C 6540.28 0.0634327 -5.0526 0
M  V30 63696 C 6542.48 -0.279878 -5.13538 0
M  V30 63697 N 6540.46 -0.889749 -6.07418 0
M  V30 63698 C 6541.83 -1.0883 -6.10374 0
M  V30 63699 C 6543.89 -0.345495 -4.967 0
M  V30 63700 C 6542.59 -1.95633 -6.92185 0
M  V30 63701 C 6544.61 -1.20069 -5.79083 0
M  V30 63702 C 6543.98 -1.997 -6.75499 0
M  V30 63703 H 6540.08 0.230016 -0.747407 0
M  V30 63704 H 6542.66 -0.039806 -1.94659 0
M  V30 63705 H 6540.83 2.1108 -3.26037 0
M  V30 63706 H 6542.56 2.03735 -3.49677 0
M  V30 63707 H 6539.32 0.428277 -4.7166 0
M  V30 63708 H 6539.74 -1.36122 -6.63174 0
M  V30 63709 H 6544.38 0.255865 -4.22025 0
M  V30 63710 H 6542.1 -2.56843 -7.66197 0
M  V30 63711 H 6545.69 -1.25516 -5.681 0
M  V30 63712 H 6544.57 -2.64805 -7.38138 0
M  V30 63713 N 6542.07 1.54925 0.289121 0
M  V30 63714 C 6543 1.89701 1.36146 0
M  V30 63715 C 6543.98 0.757135 1.5232 0
M  V30 63716 O 6545.17 1.0139 1.65631 0
M  V30 63717 C 6542.3 2.15478 2.72372 0
M  V30 63718 C 6541.25 3.31317 2.70949 0
M  V30 63719 C 6540.58 3.42537 4.10576 0
M  V30 63720 C 6541.88 4.68125 2.31639 0
M  V30 63721 H 6543.57 2.79516 1.07289 0
M  V30 63722 H 6541.12 1.34488 0.514676 0
M  V30 63723 H 6543.07 2.38392 3.47487 0
M  V30 63724 H 6541.79 1.22445 3.02778 0
M  V30 63725 H 6540.45 3.08344 1.98291 0
M  V30 63726 H 6540.1 2.47 4.38178 0
M  V30 63727 H 6539.8 4.20411 4.10522 0
M  V30 63728 H 6541.32 3.67725 4.87453 0
M  V30 63729 H 6542.74 4.9069 2.96472 0
M  V30 63730 H 6541.14 5.48798 2.42776 0
M  V30 63731 H 6542.21 4.68037 1.26765 0
M  V30 63732 N 6543.55 -0.552884 1.47584 0
M  V30 63733 C 6544.79 -1.32059 1.56012 0
M  V30 63734 C 6545.15 -1.90746 0.219084 0
M  V30 63735 O 6546.35 -2.68208 0.178232 0
M  V30 63736 C 6544.62 -2.39785 2.65025 0
M  V30 63737 S 6546.18 -3.26586 2.93065 0
M  V30 63738 H 6543 -0.449523 0.550863 0
M  V30 63739 H 6545.6 -0.63247 1.84987 0
M  V30 63740 H 6544.31 -1.95112 3.61053 0
M  V30 63741 H 6543.84 -3.13333 2.37878 0
M  V30 63742 H 6545.85 -4.39356 2.3061 0
M  V30 63743 N 6545.03 -1.35788 -0.799961 0
M  V30 63744 C 6546.3 -1.19989 -1.54473 0
M  V30 63745 C 6546.68 0.218284 -2.09968 0
M  V30 63746 O 6546.03 1.22263 -1.93039 0
M  V30 63747 C 6546.24 -2.27334 -2.64802 0
M  V30 63748 C 6547.59 -2.63475 -3.32966 0
M  V30 63749 O 6548.61 -2.26298 -2.75078 0
M  V30 63750 O 6547.47 -3.27423 -4.37557 0
M  V30 63751 H 6544.57 -0.466558 -0.682827 0
M  V30 63752 H 6547.11 -1.47489 -0.839351 0
M  V30 63753 H 6545.88 -3.22426 -2.21714 0
M  V30 63754 H 6545.51 -2.01141 -3.42969 0
M  V30 63755 N 6546.5 1.0229 -1.19894 0
M  V30 63756 C 6547.74 1.77335 -1.01645 0
M  V30 63757 C 6548.11 1.86788 0.444317 0
M  V30 63758 O 6549.31 2.58218 0.746801 0
M  V30 63759 C 6547.58 3.15771 -1.67403 0
M  V30 63760 S 6549.14 4.06931 -1.64172 0
M  V30 63761 H 6545.96 0.61039 -0.364616 0
M  V30 63762 H 6548.56 1.22522 -1.52343 0
M  V30 63763 H 6547.26 3.06512 -2.72908 0
M  V30 63764 H 6546.79 3.75658 -1.16809 0
M  V30 63765 H 6548.81 4.91654 -0.670137 0
M  V30 63766 N 6547.98 1.00382 1.21496 0
M  V30 63767 C 6549.23 0.685847 1.90532 0
M  V30 63768 C 6549.56 -0.783271 1.78031 0
M  V30 63769 O 6548.81 -1.58324 1.1503 0
M  V30 63770 C 6549.11 1.05115 3.41593 0
M  V30 63771 C 6548.78 2.51434 3.74288 0
M  V30 63772 C 6547.44 2.91416 3.82923 0
M  V30 63773 C 6549.79 3.4622 3.89591 0
M  V30 63774 C 6547.12 4.25151 4.04306 0
M  V30 63775 C 6549.47 4.79627 4.12481 0
M  V30 63776 C 6548.14 5.19335 4.19341 0
M  V30 63777 H 6547.41 0.250969 0.697205 0
M  V30 63778 H 6550.05 1.26204 1.44031 0
M  V30 63779 H 6548.36 0.393191 3.89822 0
M  V30 63780 H 6550.06 0.782999 3.93281 0
M  V30 63781 H 6546.65 2.19448 3.68158 0
M  V30 63782 H 6550.83 3.16496 3.82287 0
M  V30 63783 H 6546.09 4.55489 4.07848 0
M  V30 63784 H 6550.26 5.53011 4.23264 0
M  V30 63785 H 6547.89 6.22978 4.35663 0
M  V30 63786 N 6549.46 -1.37035 0.778402 0
M  V30 63787 C 6550.39 -2.27908 0.115375 0
M  V30 63788 C 6551.37 -1.46665 -0.702007 0
M  V30 63789 O 6552.56 -1.75987 -0.675348 0
M  V30 63790 C 6549.68 -3.28051 -0.842615 0
M  V30 63791 C 6548.73 -4.26362 -0.108403 0
M  V30 63792 S 6549.56 -5.21692 1.2082 0
M  V30 63793 C 6550.72 -6.25385 0.253924 0
M  V30 63794 H 6550.95 -2.83794 0.885908 0
M  V30 63795 H 6548.48 -1.4341 0.5721 0
M  V30 63796 H 6550.44 -3.86253 -1.38992 0
M  V30 63797 H 6549.1 -2.711 -1.58631 0
M  V30 63798 H 6548.3 -4.97037 -0.834888 0
M  V30 63799 H 6547.9 -3.72184 0.368094 0
M  V30 63800 H 6550.19 -6.75087 -0.571263 0
M  V30 63801 H 6551.13 -7.01979 0.929035 0
M  V30 63802 H 6551.54 -5.64332 -0.137834 0
M  V30 63803 N 6550.94 -0.529492 -1.48439 0
M  V30 63804 C 6551.9 0.222804 -2.28114 0
M  V30 63805 C 6552.9 0.86822 -1.35346 0
M  V30 63806 O 6554.09 0.728347 -1.58243 0
M  V30 63807 C 6551.22 1.32239 -3.14207 0
M  V30 63808 H 6552.42 -0.47672 -2.96087 0
M  V30 63809 H 6549.97 -0.285414 -1.53672 0
M  V30 63810 H 6550.71 2.05518 -2.50864 0
M  V30 63811 H 6550.49 0.864719 -3.82446 0
M  V30 63812 H 6551.98 1.85154 -3.7431 0
M  V30 63813 N 6552.42 1.55363 -0.264601 0
M  V30 63814 C 6553.65 2.03765 0.358817 0
M  V30 63815 C 6554.06 1.14333 1.50245 0
M  V30 63816 O 6553.42 0.161283 1.81786 0
M  V30 63817 C 6553.47 3.51369 0.849835 0
M  V30 63818 O 6553.19 4.37396 -0.24824 0
M  V30 63819 C 6554.69 4.15611 1.54214 0
M  V30 63820 H 6551.91 0.665822 0.0831953 0
M  V30 63821 H 6554.45 2.00676 -0.39363 0
M  V30 63822 H 6552.61 3.54935 1.5524 0
M  V30 63823 H 6553.02 5.24345 0.127477 0
M  V30 63824 H 6554.5 5.20528 1.83724 0
M  V30 63825 H 6554.97 3.63154 2.47014 0
M  V30 63826 H 6555.58 4.16018 0.883697 0
M  V30 63827 N 6553.9 -0.00827481 1.57598 0
M  V30 63828 C 6555.14 -0.699444 1.9206 0
M  V30 63829 C 6555.5 -1.71394 0.865338 0
M  V30 63830 O 6556.7 -2.45488 1.09495 0
M  V30 63831 C 6554.97 -1.33314 3.31606 0
M  V30 63832 S 6556.53 -2.05058 3.87939 0
M  V30 63833 H 6553.35 -0.231236 0.672347 0
M  V30 63834 H 6555.95 0.0464258 1.95445 0
M  V30 63835 H 6554.65 -0.581829 4.06255 0
M  V30 63836 H 6554.19 -2.11711 3.31575 0
M  V30 63837 H 6556.2 -3.32469 3.68346 0
M  V30 63838 N 6555.37 -1.55076 -0.280901 0
M  V30 63839 C 6556.32 -1.87414 -1.34702 0
M  V30 63840 C 6557.29 -0.724873 -1.49448 0
M  V30 63841 O 6558.48 -0.975405 -1.63983 0
M  V30 63842 C 6555.62 -2.14465 -2.70368 0
M  V30 63843 C 6554.73 -3.42018 -2.63908 0
M  V30 63844 C 6553.86 -3.5881 -3.917 0
M  V30 63845 C 6552.9 -4.80083 -3.79719 0
M  V30 63846 N 6552.04 -4.93574 -4.99329 0
M  V30 63847 H 6556.88 -2.78348 -1.06425 0
M  V30 63848 H 6554.42 -1.37815 -0.514331 0
M  V30 63849 H 6556.37 -2.28148 -3.49291 0
M  V30 63850 H 6555 -1.26774 -2.96864 0
M  V30 63851 H 6554.06 -3.3685 -1.76738 0
M  V30 63852 H 6555.37 -4.31074 -2.50952 0
M  V30 63853 H 6554.52 -3.72267 -4.79064 0
M  V30 63854 H 6553.26 -2.67925 -4.07514 0
M  V30 63855 H 6552.27 -4.66638 -2.90738 0
M  V30 63856 H 6553.49 -5.72396 -3.65431 0
M  V30 63857 H 6551.44 -4.05617 -5.15568 0
M  V30 63858 H 6551.35 -5.76662 -4.88873 0
M  V30 63859 H 6552.62 -5.11408 -5.88287 0
M  V30 63860 N 6556.85 0.54505 -1.47875 0
M  V30 63861 C 6558.08 1.32484 -1.58529 0
M  V30 63862 C 6558.49 1.87684 -0.238998 0
M  V30 63863 O 6557.83 1.66332 0.779693 0
M  V30 63864 C 6557.89 2.52353 -2.56044 0
M  V30 63865 C 6557.56 2.1835 -4.01463 0
M  V30 63866 C 6558.56 1.74917 -4.89592 0
M  V30 63867 C 6556.24 2.29336 -4.4689 0
M  V30 63868 C 6558.23 1.42915 -6.21172 0
M  V30 63869 C 6555.92 1.96946 -5.78494 0
M  V30 63870 C 6556.92 1.53805 -6.65457 0
M  V30 63871 O 6556.61 1.21832 -7.94614 0
M  V30 63872 H 6556.34 0.409718 -0.537687 0
M  V30 63873 H 6558.89 0.665852 -1.94308 0
M  V30 63874 H 6557.12 3.21183 -2.15356 0
M  V30 63875 H 6558.81 3.14424 -2.56695 0
M  V30 63876 H 6559.58 1.65913 -4.55739 0
M  V30 63877 H 6555.46 2.61872 -3.79399 0
M  V30 63878 H 6559 1.09169 -6.89005 0
M  V30 63879 H 6554.9 2.05586 -6.11886 0
M  V30 63880 H 6555.67 1.35359 -8.0723 0
M  V30 63881 N 6558.33 1.3621 0.792749 0
M  V30 63882 C 6559.28 1.30319 1.92665 0
M  V30 63883 C 6560.27 0.195584 1.68267 0
M  V30 63884 O 6561.48 0.362393 1.76314 0
M  V30 63885 H 6557.85 0.405623 0.633225 0
M  V30 63886 H 6559.82 2.26085 1.94752 0
M  V30 63887 C 6558.57 1.106 3.29641 0
M  V30 63888 H 6557.9 1.95074 3.48979 0
M  V30 63889 H 6559.34 1.10524 4.09342 0
M  V30 63890 C 6557.79 -0.189525 3.36366 0
M  V30 63891 O 6558.32 -1.18052 3.83962 0
M  V30 63892 N 6556.53 -0.233058 2.89664 0
M  V30 63893 H 6556.08 0.574006 2.51123 0
M  V30 63894 H 6556.04 -1.09956 2.94546 0
M  V30 63895 N 6559.81 -1.01652 1.20435 0
M  V30 63896 C 6560.76 -2.12311 0.950088 0
M  V30 63897 C 6561.75 -1.69113 -0.098584 0
M  V30 63898 O 6562.96 -1.79926 0.0517808 0
M  V30 63899 H 6559.33 -0.69387 0.289911 0
M  V30 63900 H 6561.3 -2.30941 1.88968 0
M  V30 63901 C 6560.05 -3.43808 0.518809 0
M  V30 63902 H 6559.37 -3.77474 1.31733 0
M  V30 63903 H 6560.81 -4.22293 0.380118 0
M  V30 63904 C 6559.27 -3.28011 -0.768807 0
M  V30 63905 O 6559.8 -3.57737 -1.82722 0
M  V30 63906 N 6558.01 -2.81259 -0.730857 0
M  V30 63907 H 6557.56 -2.57268 0.13073 0
M  V30 63908 H 6557.51 -2.71071 -1.59273 0
M  V30 63909 N 6561.29 -1.01025 -1.20962 0
M  V30 63910 C 6562.51 -0.714948 -1.94155 0
M  V30 63911 C 6562.93 0.723332 -1.74394 0
M  V30 63912 O 6562.29 1.48995 -1.05388 0
M  V30 63913 C 6562.34 -1.03312 -3.46423 0
M  V30 63914 O 6562.06 -2.4149 -3.65533 0
M  V30 63915 C 6563.56 -0.757968 -4.36772 0
M  V30 63916 H 6560.78 -0.263046 -0.617291 0
M  V30 63917 H 6563.32 -1.34971 -1.53633 0
M  V30 63918 H 6561.48 -0.443865 -3.84849 0
M  V30 63919 H 6561.89 -2.52759 -4.59579 0
M  V30 63920 H 6563.37 -1.03072 -5.42292 0
M  V30 63921 H 6563.84 0.307945 -4.38119 0
M  V30 63922 H 6564.45 -1.32908 -4.04 0
M  V30 63923 N 6562.76 1.36621 -0.785658 0
M  V30 63924 C 6564.01 1.99636 -0.356853 0
M  V30 63925 C 6564.34 1.62215 1.0677 0
M  V30 63926 O 6563.62 0.875102 1.73702 0
M  V30 63927 C 6563.9 3.56379 -0.516339 0
M  V30 63928 C 6563.75 4.03665 -1.98431 0
M  V30 63929 C 6565.07 4.40043 0.0709245 0
M  V30 63930 H 6562.19 0.72524 -0.131135 0
M  V30 63931 H 6564.83 1.6209 -0.991297 0
M  V30 63932 H 6562.98 3.88493 0.0237615 0
M  V30 63933 H 6564.66 3.82055 -2.58518 0
M  V30 63934 H 6562.9 3.55344 -2.48824 0
M  V30 63935 H 6563.57 5.12647 -2.04689 0
M  V30 63936 H 6566.05 4.14268 -0.390077 0
M  V30 63937 H 6564.92 5.48854 -0.070717 0
M  V30 63938 H 6565.18 4.26538 1.16266 0
M  V30 63939 N 6564.24 0.537356 1.48156 0
M  V30 63940 C 6565.15 -0.22501 2.33518 0
M  V30 63941 C 6566.17 -0.931712 1.46953 0
M  V30 63942 O 6567.34 -0.905031 1.7992 0
M  V30 63943 C 6564.41 -1.25391 3.2323 0
M  V30 63944 C 6563.47 -0.556774 4.25674 0
M  V30 63945 C 6562.7 -1.53666 5.11099 0
M  V30 63946 O 6562.93 -2.76991 4.9863 0
M  V30 63947 O 6561.86 -1.07201 5.92277 0
M  V30 63948 H 6565.69 0.474673 2.99968 0
M  V30 63949 H 6563.27 0.298188 1.46394 0
M  V30 63950 H 6565.15 -1.84833 3.78701 0
M  V30 63951 H 6563.83 -1.93587 2.59433 0
M  V30 63952 H 6562.74 0.0783311 3.74018 0
M  V30 63953 H 6564.07 0.0833751 4.92129 0
M  V30 63954 N 6565.72 -1.5522 0.272837 0
M  V30 63955 C 6566.97 -1.98724 -0.345223 0
M  V30 63956 C 6567.28 -1.16465 -1.57147 0
M  V30 63957 O 6568.49 -1.50102 -2.26234 0
M  V30 63958 C 6566.94 -3.53692 -0.665574 0
M  V30 63959 C 6566.55 -4.44725 0.540742 0
M  V30 63960 C 6568.3 -4.0579 -1.24638 0
M  V30 63961 C 6566.2 -5.91078 0.195105 0
M  V30 63962 H 6565.13 -0.742219 -0.132765 0
M  V30 63963 H 6567.78 -1.79583 0.377132 0
M  V30 63964 H 6566.17 -3.68625 -1.44677 0
M  V30 63965 H 6567.34 -4.41559 1.31765 0
M  V30 63966 H 6565.66 -4.03249 1.03824 0
M  V30 63967 H 6568.25 -5.12677 -1.51875 0
M  V30 63968 H 6568.6 -3.54687 -2.17951 0
M  V30 63969 H 6569.13 -3.94287 -0.52753 0
M  V30 63970 H 6565.87 -6.46272 1.09604 0
M  V30 63971 H 6565.39 -5.97318 -0.545086 0
M  V30 63972 H 6567.07 -6.46648 -0.213494 0
M  V30 63973 N 6567.2 -8.31064e-05 -1.576 0
M  V30 63974 C 6568.44 0.685762 -1.90854 0
M  V30 63975 C 6568.78 1.73419 -0.874045 0
M  V30 63976 O 6568.05 1.94204 0.107214 0
M  V30 63977 C 6568.34 1.32882 -3.34686 0
M  V30 63978 C 6568.19 0.291927 -4.48852 0
M  V30 63979 C 6569.51 2.25496 -3.77941 0
M  V30 63980 H 6566.63 0.247827 -0.694083 0
M  V30 63981 H 6569.27 -0.0513939 -1.8993 0
M  V30 63982 H 6567.42 1.95711 -3.35603 0
M  V30 63983 H 6569.09 -0.336693 -4.6007 0
M  V30 63984 H 6567.33 -0.3858 -4.32081 0
M  V30 63985 H 6568 0.78092 -5.46448 0
M  V30 63986 H 6570.48 1.72683 -3.78576 0
M  V30 63987 H 6569.36 2.67456 -4.79331 0
M  V30 63988 H 6569.62 3.13408 -3.11814 0
M  V30 63989 N 6568.68 1.55223 0.272673 0
M  V30 63990 C 6569.62 1.88126 1.33706 0
M  V30 63991 C 6570.59 0.732788 1.49062 0
M  V30 63992 O 6571.78 0.984088 1.63464 0
M  V30 63993 C 6568.92 2.15896 2.69227 0
M  V30 63994 C 6568.03 3.43413 2.6209 0
M  V30 63995 C 6567.17 3.60882 3.89792 0
M  V30 63996 C 6566.21 4.8209 3.77167 0
M  V30 63997 N 6565.34 4.96215 4.96704 0
M  V30 63998 H 6570.18 2.78909 1.04947 0
M  V30 63999 H 6567.72 1.38086 0.507015 0
M  V30 64000 H 6569.68 2.29997 3.48077 0
M  V30 64001 H 6568.31 1.28347 2.96187 0
M  V30 64002 H 6567.36 3.37783 1.74949 0
M  V30 64003 H 6568.67 4.32399 2.48662 0
M  V30 64004 H 6567.83 3.74802 4.77083 0
M  V30 64005 H 6566.56 2.70082 4.06088 0
M  V30 64006 H 6565.57 4.68174 2.88259 0
M  V30 64007 H 6566.79 5.74326 3.6239 0
M  V30 64008 H 6564.74 4.08346 5.1341 0
M  V30 64009 H 6564.66 5.79247 4.85808 0
M  V30 64010 H 6565.93 5.14521 5.85567 0
M  V30 64011 N 6570.15 -0.5372 1.48162 0
M  V30 64012 C 6571.4 -1.29533 1.56042 0
M  V30 64013 C 6571.73 -1.92827 0.230479 0
M  V30 64014 O 6571.01 -1.78915 -0.762858 0
M  V30 64015 C 6571.29 -2.3902 2.69335 0
M  V30 64016 C 6571.14 -1.80463 4.12011 0
M  V30 64017 C 6572.46 -3.40832 2.78426 0
M  V30 64018 H 6569.58 -0.469602 0.568017 0
M  V30 64019 H 6572.22 -0.599182 1.80305 0
M  V30 64020 H 6570.37 -2.98398 2.48778 0
M  V30 64021 H 6572.05 -1.25191 4.43987 0
M  V30 64022 H 6570.29 -1.11033 4.1935 0
M  V30 64023 H 6570.96 -2.59705 4.87091 0
M  V30 64024 H 6573.44 -2.914 2.97027 0
M  V30 64025 H 6572.31 -4.14844 3.59438 0
M  V30 64026 H 6572.57 -4.00934 1.8629 0
M  V30 64027 N 6571.63 -1.36629 -0.785514 0
M  V30 64028 C 6572.54 -1.33435 -1.92957 0
M  V30 64029 C 6573.56 -0.235942 -1.72393 0
M  V30 64030 O 6574.73 -0.468981 -1.95864 0
M  V30 64031 C 6571.8 -1.1268 -3.27878 0
M  V30 64032 C 6570.86 -2.32032 -3.61192 0
M  V30 64033 C 6570.09 -2.12257 -4.89676 0
M  V30 64034 O 6570.32 -1.09975 -5.59698 0
M  V30 64035 O 6569.25 -3.00126 -5.21736 0
M  V30 64036 H 6573.08 -2.29764 -1.98601 0
M  V30 64037 H 6570.66 -1.17216 -0.926322 0
M  V30 64038 H 6572.54 -1.03038 -4.08609 0
M  V30 64039 H 6571.22 -0.194162 -3.23117 0
M  V30 64040 H 6570.13 -2.47243 -2.80752 0
M  V30 64041 H 6571.46 -3.23815 -3.70681 0
M  V30 64042 N 6573.11 1.01012 -1.20972 0
M  V30 64043 C 6574.35 1.76247 -1.0352 0
M  V30 64044 C 6574.71 1.87249 0.424481 0
M  V30 64045 O 6575.92 2.58995 0.719372 0
M  V30 64046 C 6574.19 3.13977 -1.70742 0
M  V30 64047 S 6575.75 4.05167 -1.68479 0
M  V30 64048 H 6572.56 0.606489 -0.371069 0
M  V30 64049 H 6575.17 1.209 -1.53634 0
M  V30 64050 H 6573.87 3.036 -2.76144 0
M  V30 64051 H 6573.4 3.74398 -1.20787 0
M  V30 64052 H 6575.42 4.90916 -0.722246 0
M  V30 64053 N 6574.59 1.01665 1.20424 0
M  V30 64054 C 6575.5 0.596603 2.26887 0
M  V30 64055 C 6576.51 -0.365901 1.70109 0
M  V30 64056 O 6577.69 -0.226836 2.00118 0
M  V30 64057 C 6574.76 -0.0584831 3.46651 0
M  V30 64058 C 6573.82 0.949971 4.18657 0
M  V30 64059 C 6573.05 0.326051 5.32703 0
M  V30 64060 O 6573.27 -0.874211 5.63661 0
M  V30 64061 O 6572.21 1.0428 5.92798 0
M  V30 64062 H 6576.03 1.48294 2.65033 0
M  V30 64063 H 6573.62 0.786149 1.27044 0
M  V30 64064 H 6575.5 -0.424343 4.19258 0
M  V30 64065 H 6574.17 -0.919016 3.1038 0
M  V30 64066 H 6573.08 1.3672 3.48222 0
M  V30 64067 H 6574.41 1.78047 4.58868 0
M  V30 64068 N 6576.07 -1.36202 0.792892 0
M  V30 64069 C 6577.48 -1.8169 0.429609 0
M  V30 64070 C 6577.83 -1.65938 -1.04686 0
M  V30 64071 O 6576.95 -1.18227 -1.81249 0
M  V30 64072 C 6577.55 -3.29864 0.773005 0
M  V30 64073 C 6576.11 -3.73548 0.462504 0
M  V30 64074 C 6575.25 -2.58415 1.00583 0
M  V30 64075 H 6578.21 -1.24374 0.985737 0
M  V30 64076 H 6578.23 -3.80444 0.0653934 0
M  V30 64077 H 6577.74 -3.41297 1.84765 0
M  V30 64078 H 6575.84 -3.67672 -0.603965 0
M  V30 64079 H 6575.95 -4.68854 0.985547 0
M  V30 64080 H 6574.32 -2.51063 0.428866 0
M  V30 64081 H 6575.1 -2.72632 2.0863 0
M  V30 64082 N 6577.55 -0.545206 -1.47869 0
M  V30 64083 C 6578.96 -0.108679 -1.86383 0
M  V30 64084 C 6579.31 1.31825 -1.45316 0
M  V30 64085 O 6578.43 1.98976 -0.850746 0
M  V30 64086 C 6579.03 -0.190452 -3.38264 0
M  V30 64087 C 6577.59 0.190966 -3.75915 0
M  V30 64088 C 6576.73 -0.543416 -2.71923 0
M  V30 64089 H 6579.68 -0.755611 -1.39557 0
M  V30 64090 H 6579.71 0.594019 -3.75835 0
M  V30 64091 H 6579.22 -1.22909 -3.68123 0
M  V30 64092 H 6577.32 1.23117 -3.51672 0
M  V30 64093 H 6577.43 -0.15924 -4.78835 0
M  V30 64094 H 6575.8 0.0121151 -2.54697 0
M  V30 64095 H 6576.58 -1.58298 -3.04625 0
M  V30 64096 N 6579.02 1.55073 -0.281065 0
M  V30 64097 C 6580.43 1.85452 0.215531 0
M  V30 64098 C 6580.79 1.20308 1.54985 0
M  V30 64099 O 6579.91 0.493546 2.10697 0
M  V30 64100 C 6580.51 3.36456 0.397849 0
M  V30 64101 C 6579.06 3.66938 0.838673 0
M  V30 64102 C 6578.21 2.77225 -0.0646041 0
M  V30 64103 H 6581.16 1.50528 -0.50268 0
M  V30 64104 H 6581.18 3.59883 1.2355 0
M  V30 64105 H 6580.7 3.8384 -0.573444 0
M  V30 64106 H 6578.8 3.25057 1.82123 0
M  V30 64107 H 6578.91 4.74366 0.671873 0
M  V30 64108 H 6577.27 2.50644 0.452731 0
M  V30 64109 H 6578.06 3.27425 -1.03189 0
M  V30 64110 N 6580.5 0.00844102 1.57598 0
M  V30 64111 C 6581.43 -1.01441 2.04414 0
M  V30 64112 C 6582.41 -1.3298 0.935679 0
M  V30 64113 O 6583.6 -1.45001 1.20445 0
M  V30 64114 C 6580.72 -2.33986 2.44884 0
M  V30 64115 C 6579.77 -2.1805 3.66547 0
M  V30 64116 S 6580.6 -1.49863 5.14103 0
M  V30 64117 C 6581.76 -2.83821 5.5785 0
M  V30 64118 H 6581.99 -0.615808 2.90852 0
M  V30 64119 H 6579.52 -0.202672 1.53064 0
M  V30 64120 H 6581.48 -3.10194 2.68868 0
M  V30 64121 H 6580.14 -2.70984 1.58829 0
M  V30 64122 H 6579.34 -3.15987 3.92642 0
M  V30 64123 H 6578.94 -1.49986 3.42608 0
M  V30 64124 H 6581.23 -3.80106 5.60826 0
M  V30 64125 H 6582.17 -2.62415 6.57681 0
M  V30 64126 H 6582.58 -2.88118 4.85436 0
M  V30 64127 N 6581.98 -1.55366 -0.264437 0
M  V30 64128 C 6583.39 -1.66995 -0.834848 0
M  V30 64129 C 6583.74 -0.60265 -1.86715 0
M  V30 64130 O 6582.87 0.254311 -2.149 0
M  V30 64131 C 6583.46 -3.02737 -1.52104 0
M  V30 64132 C 6582.02 -3.16365 -2.03937 0
M  V30 64133 C 6581.17 -2.6282 -0.88436 0
M  V30 64134 H 6584.12 -1.58648 -0.0406032 0
M  V30 64135 H 6584.14 -2.96204 -2.38838 0
M  V30 64136 H 6583.65 -3.80396 -0.769467 0
M  V30 64137 H 6581.75 -2.43497 -2.82029 0
M  V30 64138 H 6581.87 -4.23044 -2.2488 0
M  V30 64139 H 6580.23 -2.20195 -1.28009 0
M  V30 64140 H 6581.01 -3.42989 -0.146159 0
M  V30 64141 N 6583.46 0.529335 -1.48445 0
M  V30 64142 C 6584.69 1.30985 -1.60158 0
M  V30 64143 C 6585.1 1.86972 -0.262083 0
M  V30 64144 O 6584.46 1.66435 0.748718 0
M  V30 64145 C 6584.51 2.46024 -2.64867 0
M  V30 64146 O 6584.23 1.92344 -3.93618 0
M  V30 64147 C 6585.73 3.37833 -2.87025 0
M  V30 64148 H 6582.95 0.398309 -0.539992 0
M  V30 64149 H 6585.49 0.638495 -1.94277 0
M  V30 64150 H 6583.65 3.09043 -2.33605 0
M  V30 64151 H 6584.06 2.67651 -4.51069 0
M  V30 64152 H 6585.54 4.149 -3.6409 0
M  V30 64153 H 6586.01 3.93104 -1.95873 0
M  V30 64154 H 6586.62 2.80606 -3.19594 0
M  V30 64155 N 6584.94 1.37043 0.778257 0
M  V30 64156 C 6586.18 1.33285 1.54966 0
M  V30 64157 C 6586.54 -0.0838364 1.91817 0
M  V30 64158 O 6587.74 -0.246087 2.67671 0
M  V30 64159 C 6586.01 2.23985 2.78505 0
M  V30 64160 S 6587.57 2.38016 3.68638 0
M  V30 64161 H 6584.39 0.473254 0.530614 0
M  V30 64162 H 6586.99 1.72728 0.915715 0
M  V30 64163 H 6585.69 3.25848 2.49502 0
M  V30 64164 H 6585.23 1.85603 3.46865 0
M  V30 64165 H 6587.24 1.58592 4.70173 0
M  V30 64166 N 6586.41 -1.00369 1.21506 0
M  V30 64167 C 6587.64 -1.78274 1.05987 0
M  V30 64168 C 6588.06 -1.84099 -0.385897 0
M  V30 64169 O 6587.42 -1.28554 -1.27842 0
M  V30 64170 C 6587.47 -3.19954 1.66318 0
M  V30 64171 O 6586.57 -4.02245 0.909545 0
M  V30 64172 H 6585.91 -0.549377 0.372935 0
M  V30 64173 H 6588.44 -1.26157 1.61077 0
M  V30 64174 H 6588.45 -3.70623 1.70594 0
M  V30 64175 H 6587.13 -3.15029 2.71532 0
M  V30 64176 H 6585.71 -3.60806 0.941986 0
M  V30 64177 N 6587.89 -1.02302 -1.19883 0
M  V30 64178 C 6588.84 -0.592199 -2.24935 0
M  V30 64179 C 6589.83 0.372269 -1.65259 0
M  V30 64180 O 6591.04 0.241489 -1.78373 0
M  V30 64181 H 6587.41 -0.173221 -0.731778 0
M  V30 64182 H 6589.39 -1.48899 -2.58596 0
M  V30 64183 C 6588.13 0.0471677 -3.47668 0
M  V30 64184 H 6587.46 -0.68598 -3.93871 0
M  V30 64185 H 6588.9 0.311639 -4.22853 0
M  V30 64186 C 6587.36 1.29196 -3.11143 0
M  V30 64187 O 6587.89 2.38462 -3.23262 0
M  V30 64188 N 6586.09 1.17849 -2.65631 0
M  V30 64189 H 6585.64 0.289358 -2.5597 0
M  V30 64190 H 6585.6 2.01232 -2.41563 0
M  V30 64191 N 6589.37 1.3578 -0.800104 0
M  V30 64192 C 6590.62 1.98558 -0.376702 0
M  V30 64193 C 6590.94 1.638 1.05804 0
M  V30 64194 O 6590.21 0.917263 1.73099 0
M  V30 64195 H 6588.79 0.73446 -0.136299 0
M  V30 64196 H 6591.45 1.658 -1.02451 0
M  V30 64197 H 6590.55 3.08431 -0.477164 0
M  V30 64198 N 6590.85 0.55304 1.47578 0
M  V30 64199 C 6591.78 -0.185329 2.32763 0
M  V30 64200 C 6592.76 -0.912829 1.43532 0
M  V30 64201 O 6593.94 -0.89411 1.72393 0
M  V30 64202 C 6591.07 -1.21842 3.25226 0
M  V30 64203 C 6590.03 -0.60764 4.23665 0
M  V30 64204 C 6589.35 -1.74506 5.05422 0
M  V30 64205 C 6590.65 0.435857 5.20478 0
M  V30 64206 H 6592.35 0.525839 2.94746 0
M  V30 64207 H 6589.89 0.254326 1.41736 0
M  V30 64208 H 6591.85 -1.7431 3.83659 0
M  V30 64209 H 6590.57 -1.95948 2.61289 0
M  V30 64210 H 6589.23 -0.104296 3.66452 0
M  V30 64211 H 6588.88 -2.47506 4.37893 0
M  V30 64212 H 6588.58 -1.34219 5.72066 0
M  V30 64213 H 6590.1 -2.27308 5.66713 0
M  V30 64214 H 6591.52 -0.00259926 5.733 0
M  V30 64215 H 6589.91 0.757381 5.95301 0
M  V30 64216 H 6590.98 1.33327 4.6621 0
M  V30 64217 N 6592.33 -1.54922 0.289285 0
M  V30 64218 C 6593.26 -2.20501 -0.625467 0
M  V30 64219 C 6594.27 -1.19407 -1.1066 0
M  V30 64220 O 6595.46 -1.46062 -1.02607 0
M  V30 64221 C 6592.56 -2.82845 -1.86687 0
M  V30 64222 C 6591.73 -4.09761 -1.53019 0
M  V30 64223 C 6590.79 -4.56018 -2.62552 0
M  V30 64224 O 6589.82 -5.2148 -2.28139 0
M  V30 64225 N 6591.02 -4.27349 -3.92878 0
M  V30 64226 H 6593.79 -2.99631 -0.0641221 0
M  V30 64227 H 6591.35 -1.61519 0.110981 0
M  V30 64228 H 6593.34 -3.10728 -2.59287 0
M  V30 64229 H 6591.91 -2.07623 -2.33691 0
M  V30 64230 H 6591.13 -3.89013 -0.637359 0
M  V30 64231 H 6592.42 -4.92424 -1.28046 0
M  V30 64232 H 6591.81 -3.74881 -4.23651 0
M  V30 64233 H 6590.37 -4.5997 -4.61813 0
M  V30 64234 N 6593.8 -0.0167987 -1.57591 0
M  V30 64235 C 6595.22 0.52374 -1.79203 0
M  V30 64236 C 6595.57 1.72979 -0.925887 0
M  V30 64237 O 6594.69 2.15991 -0.132906 0
M  V30 64238 C 6595.29 0.95692 -3.25005 0
M  V30 64239 C 6593.85 1.44265 -3.47656 0
M  V30 64240 C 6592.99 0.401612 -2.74376 0
M  V30 64241 H 6595.94 -0.242899 -1.5683 0
M  V30 64242 H 6595.96 1.82201 -3.3404 0
M  V30 64243 H 6595.48 0.0789369 -3.8802 0
M  V30 64244 H 6593.58 2.34097 -2.89878 0
M  V30 64245 H 6593.69 1.45853 -4.56359 0
M  V30 64246 H 6592.05 0.866995 -2.3949 0
M  V30 64247 H 6592.84 -0.467692 -3.40099 0
M  V30 64248 N 6595.28 1.55504 0.256194 0
M  V30 64249 C 6596.53 1.77162 0.986986 0
M  V30 64250 C 6596.86 0.580412 1.85324 0
M  V30 64251 O 6596.14 -0.421586 1.89876 0
M  V30 64252 C 6596.42 3.08623 1.85537 0
M  V30 64253 C 6596.27 4.3813 1.01793 0
M  V30 64254 C 6597.59 3.36243 2.83952 0
M  V30 64255 H 6594.71 0.644545 0.357394 0
M  V30 64256 H 6597.35 1.88238 0.25814 0
M  V30 64257 H 6595.5 2.99311 2.47679 0
M  V30 64258 H 6597.17 4.59421 0.415916 0
M  V30 64259 H 6595.42 4.32604 0.321949 0
M  V30 64260 H 6596.09 5.26476 1.65912 0
M  V30 64261 H 6598.56 3.45457 2.31946 0
M  V30 64262 H 6597.44 4.2946 3.41841 0
M  V30 64263 H 6597.7 2.567 3.59941 0
M  V30 64264 N 6596.76 -0.521455 1.48723 0
M  V30 64265 C 6598.18 -0.850784 1.35033 0
M  V30 64266 C 6598.38 -1.98115 0.367816 0
M  V30 64267 O 6597.43 -2.51643 -0.207905 0
M  V30 64268 C 6598.75 -1.21027 2.75269 0
M  V30 64269 C 6600.29 -1.31966 2.8382 0
M  V30 64270 C 6600.77 -1.71254 4.24778 0
M  V30 64271 N 6602.26 -1.78341 4.27491 0
M  V30 64272 C 6602.99 -2.10142 5.33505 0
M  V30 64273 N 6602.49 -2.40309 6.49787 0
M  V30 64274 N 6604.28 -2.11221 5.20905 0
M  V30 64275 H 6596.43 0.224241 2.11213 0
M  V30 64276 H 6598.7 0.0376938 0.94725 0
M  V30 64277 H 6598.4 -0.453231 3.48767 0
M  V30 64278 H 6598.28 -2.15847 3.09338 0
M  V30 64279 H 6600.66 -2.06745 2.10572 0
M  V30 64280 H 6600.75 -0.352462 2.5336 0
M  V30 64281 H 6600.39 -0.970325 4.98545 0
M  V30 64282 H 6600.32 -2.69038 4.52687 0
M  V30 64283 H 6602.81 -1.5727 3.4362 0
M  V30 64284 H 6603.12 -2.63705 7.26416 0
M  V30 64285 H 6601.47 -2.3781 6.53048 0
M  V30 64286 H 6604.66 -1.87116 4.29075 0
M  V30 64287 H 6604.83 -2.35672 6.03625 0
M  V30 64288 N 6598.24 -1.37454 -0.770978 0
M  V30 64289 C 6599.48 -1.32902 -1.53183 0
M  V30 64290 C 6599.82 0.0861488 -1.94009 0
M  V30 64291 O 6599.09 1.04364 -1.64129 0
M  V30 64292 C 6599.38 -2.26883 -2.79636 0
M  V30 64293 C 6599.23 -3.77182 -2.45059 0
M  V30 64294 C 6600.55 -2.19297 -3.81571 0
M  V30 64295 H 6597.67 -0.484093 -0.555718 0
M  V30 64296 H 6600.31 -1.68162 -0.884403 0
M  V30 64297 H 6598.46 -1.96944 -3.34881 0
M  V30 64298 H 6600.13 -4.1772 -1.95723 0
M  V30 64299 H 6598.37 -3.95713 -1.77746 0
M  V30 64300 H 6599.04 -4.38376 -3.35455 0
M  V30 64301 H 6601.52 -2.45689 -3.35822 0
M  V30 64302 H 6600.4 -2.87195 -4.67771 0
M  V30 64303 H 6600.66 -1.18614 -4.25891 0
M  V30 64304 N 6599.72 0.997234 -1.22037 0
M  V30 64305 C 6600.63 2.12086 -1.00282 0
M  V30 64306 C 6601.64 1.73935 0.0475293 0
M  V30 64307 O 6602.82 2.00883 -0.144242 0
M  V30 64308 C 6599.88 3.41837 -0.578629 0
M  V30 64309 C 6598.94 3.94116 -1.70209 0
M  V30 64310 C 6598.18 5.17674 -1.29805 0
M  V30 64311 O 6598.4 5.70132 -0.174976 0
M  V30 64312 O 6597.33 5.63596 -2.11291 0
M  V30 64313 H 6601.16 2.3332 -1.94411 0
M  V30 64314 H 6598.75 1.1046 -1.00593 0
M  V30 64315 H 6600.63 4.19925 -0.35222 0
M  V30 64316 H 6599.3 3.21974 0.333849 0
M  V30 64317 H 6598.21 3.1722 -1.98298 0
M  V30 64318 H 6599.54 4.18404 -2.59228 0
M  V30 64319 N 6601.19 1.02936 1.19339 0
M  V30 64320 C 6602.47 0.640739 1.84808 0
M  V30 64321 C 6602.85 -0.880518 1.9186 0
M  V30 64322 O 6602.2 -1.77742 1.43596 0
M  V30 64323 C 6602.41 1.30338 3.23748 0
M  V30 64324 C 6603.76 1.42694 3.99905 0
M  V30 64325 O 6604.78 1.26059 3.33148 0
M  V30 64326 O 6603.64 1.69698 5.19485 0
M  V30 64327 H 6600.73 0.222768 0.796432 0
M  V30 64328 H 6603.28 1.12755 1.26825 0
M  V30 64329 H 6602.05 2.34227 3.13454 0
M  V30 64330 H 6601.68 0.804467 3.89377 0
M  V30 64331 N 6602.67 -1.35353 0.807294 0
M  V30 64332 C 6604.08 -1.81224 0.448855 0
M  V30 64333 C 6604.43 -1.67039 -1.0292 0
M  V30 64334 O 6603.56 -1.20143 -1.79985 0
M  V30 64335 C 6604.15 -3.29025 0.807948 0
M  V30 64336 C 6602.71 -3.73036 0.502098 0
M  V30 64337 C 6601.86 -2.57334 1.03318 0
M  V30 64338 H 6604.81 -1.23322 0.998873 0
M  V30 64339 H 6604.83 -3.80353 0.105741 0
M  V30 64340 H 6604.34 -3.39318 1.88375 0
M  V30 64341 H 6602.45 -3.68292 -0.564934 0
M  V30 64342 H 6602.56 -4.67782 1.03522 0
M  V30 64343 H 6600.92 -2.50594 0.455471 0
M  V30 64344 H 6601.71 -2.70404 2.1151 0
M  V30 64345 N 6604.15 -0.560859 -1.47283 0
M  V30 64346 C 6605.43 0.0276767 -1.9558 0
M  V30 64347 C 6605.81 1.48184 -1.50348 0
M  V30 64348 O 6605.16 2.16048 -0.743996 0
M  V30 64349 C 6605.37 -0.121601 -3.48788 0
M  V30 64350 C 6606.71 0.0218673 -4.24594 0
M  V30 64351 O 6607.74 -0.0493317 -3.56166 0
M  V30 64352 O 6606.6 0.17567 -5.46218 0
M  V30 64353 H 6603.69 0.0620907 -0.824666 0
M  V30 64354 H 6606.24 -0.627639 -1.57667 0
M  V30 64355 H 6605.01 -1.13336 -3.74527 0
M  V30 64356 H 6604.63 0.571158 -3.93476 0
M  V30 64357 N 6605.63 1.54767 -0.297496 0
M  V30 64358 C 6606.88 1.99674 0.312189 0
M  V30 64359 C 6607.2 1.1874 1.5468 0
M  V30 64360 O 6606.47 0.282484 1.93853 0
M  V30 64361 H 6605.05 0.737566 0.118342 0
M  V30 64362 H 6607.71 1.90581 -0.408016 0
M  V30 64363 H 6606.81 3.06537 0.586651 0
M  V30 64364 N 6607.11 0.0251559 1.5758 0
M  V30 64365 C 6608.35 -0.658548 1.93501 0
M  V30 64366 C 6608.71 -1.6952 0.901498 0
M  V30 64367 O 6609.91 -2.4311 1.14677 0
M  V30 64368 C 6608.18 -1.2625 3.34359 0
M  V30 64369 S 6609.74 -1.96783 3.92202 0
M  V30 64370 H 6606.56 -0.216922 0.677101 0
M  V30 64371 H 6609.16 0.0878721 1.95302 0
M  V30 64372 H 6607.87 -0.495526 4.07397 0
M  V30 64373 H 6607.4 -2.04631 3.35991 0
M  V30 64374 H 6609.41 -3.24581 3.75315 0
M  V30 64375 N 6608.59 -1.55637 -0.247944 0
M  V30 64376 C 6609.83 -1.79183 -0.983498 0
M  V30 64377 C 6610.19 -0.59451 -1.82564 0
M  V30 64378 O 6611.39 -0.70872 -2.59289 0
M  V30 64379 C 6609.66 -3.07463 -1.82211 0
M  V30 64380 S 6611.22 -3.52226 -2.61691 0
M  V30 64381 H 6608.04 -0.629341 -0.330833 0
M  V30 64382 H 6610.64 -1.93876 -0.25146 0
M  V30 64383 H 6609.34 -3.92674 -1.19312 0
M  V30 64384 H 6608.88 -2.95506 -2.59692 0
M  V30 64385 H 6610.89 -3.13477 -3.84638 0
M  V30 64386 N 6610.06 0.513561 -1.48998 0
M  V30 64387 C 6611.31 1.26774 -1.59059 0
M  V30 64388 C 6611.66 1.90521 -0.268236 0
M  V30 64389 O 6610.96 1.7713 0.73044 0
M  V30 64390 C 6611.15 2.36717 -2.67768 0
M  V30 64391 C 6610.98 1.8375 -4.10446 0
M  V30 64392 C 6609.75 1.65614 -4.77389 0
M  V30 64393 C 6611.95 1.35655 -4.96087 0
M  V30 64394 N 6609.93 1.07444 -6.04425 0
M  V30 64395 C 6611.3 0.895392 -6.135 0
M  V30 64396 C 6613.36 1.24111 -4.82183 0
M  V30 64397 C 6612.06 0.330221 -7.18542 0
M  V30 64398 C 6614.09 0.689919 -5.87362 0
M  V30 64399 C 6613.45 0.238921 -7.03995 0
M  V30 64400 H 6609.55 0.454322 -0.636487 0
M  V30 64401 H 6612.13 0.577098 -1.85951 0
M  V30 64402 H 6610.3 3.03258 -2.42671 0
M  V30 64403 H 6612.03 3.03756 -2.67422 0
M  V30 64404 H 6608.79 1.89617 -4.33984 0
M  V30 64405 H 6609.21 0.803224 -6.72218 0
M  V30 64406 H 6613.85 1.57581 -3.92337 0
M  V30 64407 H 6611.57 -0.0167696 -8.08098 0
M  V30 64408 H 6615.16 0.603547 -5.78661 0
M  V30 64409 H 6614.04 -0.18094 -7.83991 0
M  V30 64410 N 6611.54 1.37861 0.763678 0
M  V30 64411 C 6612.49 1.30787 1.86758 0
M  V30 64412 C 6613.48 0.194099 1.59725 0
M  V30 64413 O 6614.67 0.429201 1.71717 0
M  V30 64414 C 6611.8 1.12519 3.24337 0
M  V30 64415 C 6610.88 2.28475 3.57295 0
M  V30 64416 N 6611.27 3.5389 3.6138 0
M  V30 64417 C 6609.57 2.20806 3.87506 0
M  V30 64418 C 6610.27 4.30402 3.91317 0
M  V30 64419 N 6609.25 3.59637 4.0763 0
M  V30 64420 H 6613.05 2.25756 1.8818 0
M  V30 64421 H 6610.56 1.30949 0.960531 0
M  V30 64422 H 6612.56 1.05535 4.03321 0
M  V30 64423 H 6611.22 0.184745 3.24174 0
M  V30 64424 H 6612.23 3.87693 3.43387 0
M  V30 64425 H 6608.91 1.34864 3.95118 0
M  V30 64426 H 6610.3 5.38981 4.01185 0
M  V30 64427 N 6613.02 -0.990748 1.22564 0
M  V30 64428 C 6614.27 -1.73405 1.06312 0
M  V30 64429 C 6614.62 -1.88252 -0.397342 0
M  V30 64430 O 6613.91 -1.41618 -1.29054 0
M  V30 64431 C 6614.11 -3.13822 1.71028 0
M  V30 64432 C 6613.94 -3.12668 3.23216 0
M  V30 64433 C 6612.71 -3.18441 3.92331 0
M  V30 64434 C 6614.9 -2.96651 4.20122 0
M  V30 64435 N 6612.89 -3.07063 5.31587 0
M  V30 64436 C 6614.26 -2.93325 5.46224 0
M  V30 64437 C 6616.31 -2.81058 4.10987 0
M  V30 64438 C 6615.02 -2.76004 6.6424 0
M  V30 64439 C 6617.04 -2.65098 5.28656 0
M  V30 64440 C 6616.4 -2.62461 6.53677 0
M  V30 64441 H 6612.5 -0.644092 0.443474 0
M  V30 64442 H 6615.09 -1.17646 1.55137 0
M  V30 64443 H 6613.26 -3.67821 1.2475 0
M  V30 64444 H 6614.99 -3.76727 1.47848 0
M  V30 64445 H 6611.74 -3.26209 3.43344 0
M  V30 64446 H 6612.17 -3.04678 6.04566 0
M  V30 64447 H 6616.81 -2.81893 3.15113 0
M  V30 64448 H 6614.53 -2.73914 7.60261 0
M  V30 64449 H 6618.11 -2.54012 5.23421 0
M  V30 64450 H 6616.99 -2.50262 7.43195 0
M  V30 64451 N 6614.5 -1.03568 -1.18792 0
M  V30 64452 C 6615.41 -0.632624 -2.25909 0
M  V30 64453 C 6616.42 0.338792 -1.7067 0
M  V30 64454 O 6617.6 0.194971 -2.00454 0
M  V30 64455 C 6614.66 0.0033266 -3.467 0
M  V30 64456 C 6613.73 -1.01646 -4.17093 0
M  V30 64457 C 6612.96 -0.410759 -5.32117 0
M  V30 64458 O 6613.18 0.784427 -5.6498 0
M  V30 64459 O 6612.12 -1.13698 -5.91064 0
M  V30 64460 H 6615.94 -1.52492 -2.6264 0
M  V30 64461 H 6613.53 -0.806261 -1.25777 0
M  V30 64462 H 6615.41 0.357589 -4.1988 0
M  V30 64463 H 6614.08 0.869521 -3.11803 0
M  V30 64464 H 6612.99 -1.42242 -3.46003 0
M  V30 64465 H 6614.32 -1.85325 -4.55978 0
M  V30 64466 N 6615.98 1.34923 -0.814461 0
M  V30 64467 C 6617.22 2.00362 -0.404271 0
M  V30 64468 C 6617.58 1.63191 1.01157 0
M  V30 64469 O 6618.78 2.21409 1.52419 0
M  V30 64470 C 6617.05 3.52481 -0.590904 0
M  V30 64471 S 6618.61 4.37954 -0.272306 0
M  V30 64472 H 6615.43 0.694311 -0.153146 0
M  V30 64473 H 6618.03 1.6437 -1.05843 0
M  V30 64474 H 6616.73 3.77022 -1.62119 0
M  V30 64475 H 6616.27 3.93322 0.0782939 0
M  V30 64476 H 6618.28 4.8765 0.917147 0
M  V30 64477 N 6617.45 0.568661 1.46983 0
M  V30 64478 C 6618.73 -0.0173042 1.95592 0
M  V30 64479 C 6619.11 -1.47385 1.51132 0
M  V30 64480 O 6618.46 -2.15651 0.755443 0
M  V30 64481 C 6618.67 0.140097 3.48719 0
M  V30 64482 C 6620.02 0.000650278 4.246 0
M  V30 64483 O 6621.04 0.0682194 3.56135 0
M  V30 64484 O 6619.9 -0.1467 5.46303 0
M  V30 64485 H 6616.99 -0.0577164 0.824984 0
M  V30 64486 H 6619.54 0.635992 1.57332 0
M  V30 64487 H 6618.31 1.1532 3.73921 0
M  V30 64488 H 6617.93 -0.550283 3.93774 0
M  V30 64489 N 6618.93 -1.54607 0.3057 0
M  V30 64490 C 6620.17 -2.02142 -0.303007 0
M  V30 64491 C 6620.54 -1.18929 -1.50731 0
M  V30 64492 O 6621.74 -1.56184 -2.1877 0
M  V30 64493 C 6620.01 -3.51511 -0.646147 0
M  V30 64494 S 6621.57 -4.21002 -1.23705 0
M  V30 64495 H 6618.38 -0.704927 -0.0927272 0
M  V30 64496 H 6620.99 -1.90607 0.434666 0
M  V30 64497 H 6619.69 -4.09705 0.238757 0
M  V30 64498 H 6619.22 -3.67091 -1.41449 0
M  V30 64499 H 6621.24 -4.27171 -2.52467 0
M  V30 64500 N 6620.41 -0.0335124 -1.57564 0
M  V30 64501 C 6621.64 0.653295 -1.95999 0
M  V30 64502 C 6622.05 1.65942 -0.908836 0
M  V30 64503 O 6621.39 1.83325 0.117374 0
M  V30 64504 C 6621.45 1.41231 -3.30596 0
M  V30 64505 C 6621.12 0.564023 -4.53506 0
M  V30 64506 C 6622.11 -0.162524 -5.19646 0
M  V30 64507 C 6619.8 0.500135 -4.99804 0
M  V30 64508 C 6621.79 -0.941588 -6.30407 0
M  V30 64509 C 6619.48 -0.282629 -6.10446 0
M  V30 64510 C 6620.48 -1.00219 -6.75607 0
M  V30 64511 O 6620.17 -1.77212 -7.84124 0
M  V30 64512 H 6619.9 0.184694 -0.65028 0
M  V30 64513 H 6622.45 -0.0908923 -2.05199 0
M  V30 64514 H 6620.68 2.20174 -3.179 0
M  V30 64515 H 6622.37 1.98765 -3.53903 0
M  V30 64516 H 6623.14 -0.122526 -4.84845 0
M  V30 64517 H 6619.02 1.04978 -4.48888 0
M  V30 64518 H 6622.56 -1.50375 -6.812 0
M  V30 64519 H 6618.46 -0.324329 -6.44685 0
M  V30 64520 H 6619.22 -1.69236 -8.00813 0
M  V30 64521 N 6621.89 1.55767 0.239687 0
M  V30 64522 C 6623.13 1.79702 0.973981 0
M  V30 64523 C 6623.49 0.604184 1.82246 0
M  V30 64524 O 6624.69 0.722461 2.58909 0
M  V30 64525 C 6622.96 3.08425 1.80578 0
M  V30 64526 S 6624.52 3.53609 2.59819 0
M  V30 64527 H 6621.34 0.631087 0.327491 0
M  V30 64528 H 6623.94 1.94007 0.241174 0
M  V30 64529 H 6622.65 3.93301 1.17228 0
M  V30 64530 H 6622.18 2.96879 2.58121 0
M  V30 64531 H 6624.19 3.15512 3.82971 0
M  V30 64532 N 6623.37 -0.505652 1.49268 0
M  V30 64533 C 6624.59 -1.28421 1.62221 0
M  V30 64534 C 6625.01 -1.86531 0.291796 0
M  V30 64535 O 6624.37 -1.67605 -0.722145 0
M  V30 64536 C 6624.42 -2.41779 2.68748 0
M  V30 64537 O 6624.14 -1.86058 3.96629 0
M  V30 64538 C 6625.64 -3.33224 2.92363 0
M  V30 64539 H 6622.86 -0.389668 0.54626 0
M  V30 64540 H 6625.4 -0.607506 1.95268 0
M  V30 64541 H 6623.56 -3.05287 2.38492 0
M  V30 64542 H 6623.97 -2.60441 4.5527 0
M  V30 64543 H 6625.45 -4.09055 3.70645 0
M  V30 64544 H 6625.92 -3.89938 2.02102 0
M  V30 64545 H 6626.53 -2.75486 3.24018 0
M  V30 64546 N 6624.84 -1.38264 -0.756356 0
M  V30 64547 C 6626.09 -1.34055 -1.51241 0
M  V30 64548 C 6626.41 0.0697345 -1.94875 0
M  V30 64549 O 6625.68 1.01687 -1.67441 0
M  V30 64550 H 6624.26 -0.493251 -0.560992 0
M  V30 64551 H 6626.93 -1.72914 -0.899256 0
M  V30 64552 H 6626.02 -1.98959 -2.40461 0
M  V30 64553 N 6626.32 0.984234 -1.23088 0
M  V30 64554 C 6627.57 1.72839 -1.0723 0
M  V30 64555 C 6627.92 1.8846 0.387353 0
M  V30 64556 O 6627.22 1.423 1.28301 0
M  V30 64557 C 6627.41 3.1291 -1.7269 0
M  V30 64558 C 6627.24 3.1095 -3.2487 0
M  V30 64559 C 6626.01 3.16355 -3.94014 0
M  V30 64560 C 6628.21 2.94419 -4.2169 0
M  V30 64561 N 6626.19 3.0424 -5.33208 0
M  V30 64562 C 6627.56 2.90424 -5.47772 0
M  V30 64563 C 6629.62 2.78875 -4.12472 0
M  V30 64564 C 6628.32 2.72477 -6.65694 0
M  V30 64565 C 6630.34 2.62291 -5.30054 0
M  V30 64566 C 6629.71 2.58991 -6.5506 0
M  V30 64567 H 6625.81 0.641731 -0.446884 0
M  V30 64568 H 6628.39 1.16821 -1.55759 0
M  V30 64569 H 6626.56 3.67154 -1.26698 0
M  V30 64570 H 6628.29 3.75937 -1.49844 0
M  V30 64571 H 6625.05 3.24383 -3.45069 0
M  V30 64572 H 6625.47 3.01468 -6.06173 0
M  V30 64573 H 6630.11 2.80218 -3.16603 0
M  V30 64574 H 6627.83 2.69879 -7.61703 0
M  V30 64575 H 6631.42 2.51232 -5.2476 0
M  V30 64576 H 6630.3 2.46317 -7.44511 0
M  V30 64577 N 6627.8 1.04196 1.18241 0
M  V30 64578 C 6629.05 0.744642 1.87882 0
M  V30 64579 C 6629.37 -0.729911 1.80824 0
M  V30 64580 O 6628.64 -1.52678 1.22744 0
M  V30 64581 H 6627.22 0.272454 0.695541 0
M  V30 64582 H 6629.88 1.31899 1.43487 0
M  V30 64583 H 6628.98 1.05065 2.93884 0
M  V30 64584 N 6629.28 -1.34489 0.821604 0
M  V30 64585 C 6630.56 -1.92767 0.331692 0
M  V30 64586 C 6630.94 -1.74988 -1.18079 0
M  V30 64587 O 6630.28 -1.12782 -1.98727 0
M  V30 64588 C 6630.49 -3.40634 0.759578 0
M  V30 64589 C 6631.84 -4.17786 0.757653 0
M  V30 64590 O 6632.87 -3.49212 0.702074 0
M  V30 64591 O 6631.72 -5.40166 0.829646 0
M  V30 64592 H 6628.82 -0.822056 0.0902935 0
M  V30 64593 H 6631.36 -1.43472 0.906306 0
M  V30 64594 H 6630.14 -3.4737 1.80139 0
M  V30 64595 H 6629.76 -3.97276 0.160587 0
M  V30 64596 N 6630.76 -0.576448 -1.46679 0
M  V30 64597 C 6632.17 -0.148189 -1.86111 0
M  V30 64598 C 6632.52 1.28713 -1.48079 0
M  V30 64599 O 6631.64 1.97126 -0.89276 0
M  V30 64600 C 6632.24 -0.26216 -3.37784 0
M  V30 64601 C 6630.8 0.111186 -3.76236 0
M  V30 64602 C 6629.94 -0.600973 -2.70709 0
M  V30 64603 H 6632.9 -0.785043 -1.37923 0
M  V30 64604 H 6632.92 0.514166 -3.7701 0
M  V30 64605 H 6632.43 -1.3069 -3.65434 0
M  V30 64606 H 6630.53 1.1563 -3.54204 0
M  V30 64607 H 6630.64 -0.260772 -4.7839 0
M  V30 64608 H 6629.01 -0.0419126 -2.54666 0
M  V30 64609 H 6629.79 -1.64724 -3.01199 0
M  V30 64610 N 6632.23 1.54442 -0.313895 0
M  V30 64611 C 6633.18 2.20714 0.571781 0
M  V30 64612 C 6634.17 1.18441 1.08907 0
M  V30 64613 O 6635.36 1.44109 1.02769 0
M  V30 64614 C 6632.49 2.96117 1.73694 0
M  V30 64615 C 6631.58 4.0572 1.235 0
M  V30 64616 N 6631.97 5.03776 0.452023 0
M  V30 64617 C 6630.26 4.19495 1.5146 0
M  V30 64618 C 6630.97 5.81412 0.183131 0
M  V30 64619 N 6629.94 5.38168 0.766561 0
M  V30 64620 H 6633.74 2.93881 -0.0338352 0
M  V30 64621 H 6631.26 1.61961 -0.119277 0
M  V30 64622 H 6633.25 3.42072 2.38311 0
M  V30 64623 H 6631.91 2.2447 2.34613 0
M  V30 64624 H 6632.93 5.17811 0.09574 0
M  V30 64625 H 6629.6 3.59058 2.13034 0
M  V30 64626 H 6630.99 6.70414 -0.44657 0
M  V30 64627 N 6633.71 0.0418679 1.57544 0
M  V30 64628 C 6634.94 -0.642891 1.96343 0
M  V30 64629 C 6635.35 -1.65458 0.917624 0
M  V30 64630 O 6634.69 -1.83384 -0.10765 0
M  V30 64631 C 6634.76 -1.39476 3.31341 0
M  V30 64632 C 6634.42 -0.539965 4.53799 0
M  V30 64633 C 6635.42 0.19008 5.19552 0
M  V30 64634 C 6633.1 -0.473622 5.00062 0
M  V30 64635 C 6635.1 0.975006 6.29899 0
M  V30 64636 C 6632.78 0.314999 6.10288 0
M  V30 64637 C 6633.78 1.03801 6.75066 0
M  V30 64638 O 6633.47 1.81368 7.83174 0
M  V30 64639 H 6633.2 -0.181243 0.65125 0
M  V30 64640 H 6635.75 0.101773 2.05148 0
M  V30 64641 H 6633.98 -2.18485 3.19063 0
M  V30 64642 H 6635.67 -1.96886 3.54952 0
M  V30 64643 H 6636.44 0.148237 4.84773 0
M  V30 64644 H 6632.32 -1.02596 4.49439 0
M  V30 64645 H 6635.86 1.53985 6.80393 0
M  V30 64646 H 6631.76 0.358514 6.44504 0
M  V30 64647 H 6632.53 1.7348 7.99904 0
M  V30 64648 N 6635.19 -1.55892 -0.231423 0
M  V30 64649 C 6636.44 -1.7871 -0.958676 0
M  V30 64650 C 6636.77 -0.609822 -1.84377 0
M  V30 64651 O 6636.04 0.391325 -1.90523 0
M  V30 64652 C 6636.33 -3.11536 -1.80604 0
M  V30 64653 C 6636.18 -4.39694 -0.948096 0
M  V30 64654 C 6637.5 -3.40717 -2.78567 0
M  V30 64655 H 6634.62 -0.650149 -0.347095 0
M  V30 64656 H 6637.26 -1.88625 -0.22816 0
M  V30 64657 H 6635.41 -3.03214 -2.42886 0
M  V30 64658 H 6637.08 -4.60025 -0.342774 0
M  V30 64659 H 6635.33 -4.33061 -0.253085 0
M  V30 64660 H 6636 -5.29049 -1.57515 0
M  V30 64661 H 6638.47 -3.49103 -2.2642 0
M  V30 64662 H 6637.35 -4.34844 -3.34966 0
M  V30 64663 H 6637.61 -2.62394 -3.55812 0
M  V30 64664 N 6636.67 0.497729 -1.49534 0
M  V30 64665 C 6637.9 1.27559 -1.629 0
M  V30 64666 C 6638.31 1.86374 -0.301684 0
M  V30 64667 O 6637.67 1.67985 0.713246 0
M  V30 64668 C 6637.72 2.4035 -2.70026 0
M  V30 64669 O 6637.44 1.83951 -3.9761 0
M  V30 64670 C 6638.94 3.31669 -2.94127 0
M  V30 64671 H 6636.16 0.386765 -0.548319 0
M  V30 64672 H 6638.71 0.597142 -1.95587 0
M  V30 64673 H 6636.86 3.04018 -2.40108 0
M  V30 64674 H 6637.28 2.58023 -4.56645 0
M  V30 64675 H 6638.75 4.07084 -3.72809 0
M  V30 64676 H 6639.23 3.8886 -2.04167 0
M  V30 64677 H 6639.83 2.73764 -3.25474 0
M  V30 64678 N 6638.15 1.38663 0.749013 0
M  V30 64679 C 6639.39 1.35122 1.50826 0
M  V30 64680 C 6639.72 -0.0573023 1.94416 0
M  V30 64681 O 6638.98 -1.03533 1.66071 0
M  V30 64682 C 6639.28 2.25711 2.77108 0
M  V30 64683 C 6638.94 3.73599 2.52458 0
M  V30 64684 C 6637.6 4.13897 2.45444 0
M  V30 64685 C 6639.96 4.67193 2.31041 0
M  V30 64686 C 6637.28 5.45873 2.15035 0
M  V30 64687 C 6639.64 5.99431 2.02152 0
M  V30 64688 C 6638.3 6.38808 1.93597 0
M  V30 64689 H 6637.57 0.494445 0.55191 0
M  V30 64690 H 6640.22 1.71058 0.860889 0
M  V30 64691 H 6638.52 1.82846 3.46518 0
M  V30 64692 H 6640.22 2.20272 3.35084 0
M  V30 64693 H 6636.81 3.41652 2.58789 0
M  V30 64694 H 6640.99 4.36902 2.35436 0
M  V30 64695 H 6636.25 5.75319 2.06924 0
M  V30 64696 H 6640.42 6.71492 1.84585 0
M  V30 64697 H 6638.05 7.40994 1.698 0
M  V30 64698 N 6639.63 -0.977692 1.23608 0
M  V30 64699 C 6640.9 -1.69395 0.977986 0
M  V30 64700 C 6641.28 -2.05029 -0.502629 0
M  V30 64701 O 6640.63 -1.74559 -1.4745 0
M  V30 64702 C 6640.84 -2.93335 1.89092 0
M  V30 64703 C 6642.19 -3.65791 2.15598 0
M  V30 64704 O 6643.21 -3.03373 1.86664 0
M  V30 64705 O 6642.07 -4.78127 2.64683 0
M  V30 64706 H 6639.17 -0.740082 0.369064 0
M  V30 64707 H 6641.71 -1.03267 1.34662 0
M  V30 64708 H 6640.48 -2.63619 2.89172 0
M  V30 64709 H 6640.11 -3.67199 1.52482 0
M  V30 64710 N 6641.1 -1.04822 -1.17686 0
M  V30 64711 C 6642.35 -0.754596 -1.87484 0
M  V30 64712 C 6642.67 0.720311 -1.81208 0
M  V30 64713 O 6641.94 1.52025 -1.23552 0
M  V30 64714 H 6640.52 -0.276139 -0.694087 0
M  V30 64715 H 6643.18 -1.32658 -1.42786 0
M  V30 64716 H 6642.28 -1.06622 -2.93323 0
M  V30 64717 N 6642.58 1.34052 -0.828725 0
M  V30 64718 C 6643.51 2.31939 -0.269565 0
M  V30 64719 C 6644.49 1.58509 0.617164 0
M  V30 64720 O 6645.68 1.86459 0.542832 0
M  V30 64721 C 6642.81 3.4268 0.564612 0
M  V30 64722 C 6641.76 4.27406 -0.225466 0
M  V30 64723 C 6641.09 5.29668 0.731821 0
M  V30 64724 C 6642.39 5.02146 -1.4369 0
M  V30 64725 H 6644.08 2.78954 -1.08743 0
M  V30 64726 H 6641.63 1.34114 -0.524354 0
M  V30 64727 H 6643.58 4.10178 0.966017 0
M  V30 64728 H 6642.3 2.94328 1.41559 0
M  V30 64729 H 6640.96 3.61518 -0.608308 0
M  V30 64730 H 6640.61 4.77577 1.57891 0
M  V30 64731 H 6640.31 5.87234 0.20736 0
M  V30 64732 H 6641.84 6.00035 1.13096 0
M  V30 64733 H 6643.25 5.62468 -1.1092 0
M  V30 64734 H 6641.65 5.69314 -1.89741 0
M  V30 64735 H 6642.72 4.31505 -2.21204 0
M  V30 64736 N 6644.06 0.584219 1.46372 0
M  V30 64737 C 6645.29 0.0759284 2.0646 0
M  V30 64738 C 6645.7 -1.23505 1.43329 0
M  V30 64739 O 6645.04 -1.75788 0.533309 0
M  V30 64740 C 6645.1 -0.162583 3.59132 0
M  V30 64741 C 6644.77 1.06302 4.44465 0
M  V30 64742 C 6645.76 1.97544 4.80908 0
M  V30 64743 C 6643.45 1.28529 4.85577 0
M  V30 64744 C 6645.44 3.0936 5.57293 0
M  V30 64745 C 6643.13 2.4065 5.61721 0
M  V30 64746 C 6644.13 3.30894 5.97493 0
M  V30 64747 O 6643.82 4.41067 6.72097 0
M  V30 64748 H 6643.55 0.055208 0.673742 0
M  V30 64749 H 6646.1 0.805083 1.88964 0
M  V30 64750 H 6644.33 -0.946368 3.74941 0
M  V30 64751 H 6646.02 -0.619571 4.01144 0
M  V30 64752 H 6646.79 1.81589 4.49723 0
M  V30 64753 H 6642.67 0.591943 4.57184 0
M  V30 64754 H 6646.21 3.79824 5.85132 0
M  V30 64755 H 6642.11 2.56568 5.9232 0
M  V30 64756 H 6642.87 4.39454 6.90524 0
M  V30 64757 N 6645.54 -1.54274 0.322081 0
M  V30 64758 C 6646.77 -2.04659 -0.282534 0
M  V30 64759 C 6647.18 -1.19791 -1.46447 0
M  V30 64760 O 6646.52 -0.221028 -1.82365 0
M  V30 64761 C 6646.58 -3.50899 -0.781672 0
M  V30 64762 C 6646.24 -4.56155 0.277758 0
M  V30 64763 C 6647.24 -5.07839 1.11334 0
M  V30 64764 C 6644.93 -5.00494 0.42552 0
M  V30 64765 C 6646.92 -6.02423 2.08242 0
M  V30 64766 C 6644.61 -5.94894 1.39803 0
M  V30 64767 C 6645.61 -6.45744 2.22494 0
M  V30 64768 O 6645.29 -7.3829 3.18093 0
M  V30 64769 H 6645.03 -0.67313 -0.0622282 0
M  V30 64770 H 6647.58 -2.00046 0.465898 0
M  V30 64771 H 6645.81 -3.52905 -1.58099 0
M  V30 64772 H 6647.5 -3.84367 -1.30447 0
M  V30 64773 H 6648.26 -4.74364 1.01016 0
M  V30 64774 H 6644.14 -4.60529 -0.208227 0
M  V30 64775 H 6647.69 -6.42038 2.72825 0
M  V30 64776 H 6643.58 -6.27786 1.50185 0
M  V30 64777 H 6644.35 -7.56159 3.13315 0
M  V30 64778 N 6647.02 -0.0502223 -1.5752 0
M  V30 64779 C 6648.24 0.636893 -1.97379 0
M  V30 64780 C 6648.67 1.6364 -0.927552 0
M  V30 64781 O 6648.02 1.8097 0.109314 0
M  V30 64782 C 6648.07 1.30105 -3.36311 0
M  V30 64783 O 6647.18 2.41671 -3.34169 0
M  V30 64784 H 6646.52 0.165645 -0.643007 0
M  V30 64785 H 6649.05 -0.118341 -2.04257 0
M  V30 64786 H 6649.06 1.65296 -3.73017 0
M  V30 64787 H 6647.73 0.568528 -4.11996 0
M  V30 64788 H 6646.31 2.08435 -3.09207 0
M  V30 64789 N 6648.49 1.56012 0.223152 0
M  V30 64790 C 6649.72 1.82767 0.963317 0
M  V30 64791 C 6650.13 0.626898 1.78512 0
M  V30 64792 O 6649.47 -0.413919 1.78976 0
M  V30 64793 C 6649.54 3.0323 1.9311 0
M  V30 64794 C 6649.2 4.38298 1.29397 0
M  V30 64795 C 6650.2 5.15372 0.684644 0
M  V30 64796 C 6647.88 4.85019 1.30622 0
M  V30 64797 C 6649.88 6.37328 0.096061 0
M  V30 64798 C 6647.56 6.06917 0.71379 0
M  V30 64799 C 6648.56 6.82912 0.109762 0
M  V30 64800 O 6648.25 8.02505 -0.473453 0
M  V30 64801 H 6647.98 0.611592 0.287979 0
M  V30 64802 H 6650.54 2.03946 0.243995 0
M  V30 64803 H 6648.77 2.77866 2.68938 0
M  V30 64804 H 6650.45 3.16871 2.53668 0
M  V30 64805 H 6651.22 4.80384 0.66752 0
M  V30 64806 H 6647.1 4.25843 1.76576 0
M  V30 64807 H 6650.64 6.96586 -0.376024 0
M  V30 64808 H 6646.54 6.41378 0.728321 0
M  V30 64809 H 6647.31 8.17674 -0.367617 0
M  V30 64810 N 6649.97 -0.489791 1.49796 0
M  V30 64811 C 6650.9 -1.60705 1.63422 0
M  V30 64812 C 6651.92 -1.54392 0.516411 0
M  V30 64813 O 6653.11 -1.60121 0.788897 0
M  V30 64814 C 6650.21 -2.99534 1.58532 0
M  V30 64815 C 6649.38 -3.30913 2.86034 0
M  V30 64816 C 6648.44 -4.49208 2.74042 0
M  V30 64817 O 6647.46 -4.50437 3.47988 0
M  V30 64818 N 6648.67 -5.4978 1.86338 0
M  V30 64819 H 6651.43 -1.49439 2.59785 0
M  V30 64820 H 6648.99 -0.677878 1.47025 0
M  V30 64821 H 6650.98 -3.76609 1.48148 0
M  V30 64822 H 6649.55 -3.04666 0.699811 0
M  V30 64823 H 6648.77 -2.42628 3.10685 0
M  V30 64824 H 6650.06 -3.4868 3.70539 0
M  V30 64825 H 6649.46 -5.51594 1.25539 0
M  V30 64826 H 6648.02 -6.25913 1.8187 0
M  V30 64827 N 6651.45 -1.39059 -0.741649 0
M  V30 64828 C 6652.7 -1.35651 -1.4981 0
M  V30 64829 C 6653.02 0.0490614 -1.94938 0
M  V30 64830 O 6652.29 0.999052 -1.6851 0
M  V30 64831 H 6650.87 -0.499174 -0.555729 0
M  V30 64832 H 6653.53 -1.73858 -0.880865 0
M  V30 64833 H 6652.63 -2.01499 -2.38337 0
M  V30 64834 N 6652.93 0.971123 -1.24125 0
M  V30 64835 C 6653.88 2.08639 -1.02823 0
M  V30 64836 C 6654.87 1.69362 0.035751 0
M  V30 64837 O 6656.08 1.79609 -0.118523 0
M  V30 64838 H 6652.45 0.682632 -0.315464 0
M  V30 64839 H 6654.42 2.23768 -1.97409 0
M  V30 64840 C 6653.17 3.41645 -0.646054 0
M  V30 64841 H 6652.49 3.72325 -1.45652 0
M  V30 64842 H 6653.93 4.20591 -0.536588 0
M  V30 64843 C 6652.39 3.30638 0.646538 0
M  V30 64844 O 6652.92 3.64272 1.69319 0
M  V30 64845 N 6651.13 2.83778 0.625965 0
M  V30 64846 H 6650.68 2.56606 -0.226123 0
M  V30 64847 H 6650.63 2.76796 1.49103 0
M  V30 64848 N 6654.41 1.05445 1.17129 0
M  V30 64849 C 6655.65 0.77512 1.89133 0
M  V30 64850 C 6656.01 -0.685432 1.79348 0
M  V30 64851 O 6657.21 -1.07898 2.46194 0
M  V30 64852 C 6655.48 1.24547 3.34997 0
M  V30 64853 S 6657.04 1.0939 4.24946 0
M  V30 64854 H 6653.86 0.281421 0.652934 0
M  V30 64855 H 6656.46 1.3496 1.41442 0
M  V30 64856 H 6655.17 2.30356 3.39653 0
M  V30 64857 H 6654.7 0.665371 3.87732 0
M  V30 64858 H 6656.71 0.0196013 4.96196 0
M  V30 64859 N 6655.88 -1.3361 0.835823 0
M  V30 64860 C 6657.11 -2.02092 0.44345 0
M  V30 64861 C 6657.53 -1.62899 -0.954436 0
M  V30 64862 O 6656.88 -0.840809 -1.61977 0
M  V30 64863 C 6656.94 -3.57277 0.550963 0
M  V30 64864 O 6656.66 -3.95055 1.89377 0
M  V30 64865 C 6658.16 -4.43028 0.155153 0
M  V30 64866 H 6655.38 -0.6474 0.176393 0
M  V30 64867 H 6657.92 -1.70606 1.12755 0
M  V30 64868 H 6656.08 -3.87306 -0.0851955 0
M  V30 64869 H 6656.49 -4.89759 1.87713 0
M  V30 64870 H 6657.96 -5.51282 0.281435 0
M  V30 64871 H 6658.44 -4.29825 -0.902637 0
M  V30 64872 H 6659.05 -4.18352 0.765624 0
M  V30 64873 N 6657.36 -0.591973 -1.4606 0
M  V30 64874 C 6658.59 -0.0868764 -2.06417 0
M  V30 64875 C 6659 1.22743 -1.43982 0
M  V30 64876 O 6658.34 1.75503 -0.542624 0
M  V30 64877 C 6658.41 0.143536 -3.59213 0
M  V30 64878 C 6658.07 -1.08658 -4.43895 0
M  V30 64879 C 6659.07 -2.00092 -4.79853 0
M  V30 64880 C 6656.75 -1.31103 -4.84889 0
M  V30 64881 C 6658.75 -3.12311 -5.55644 0
M  V30 64882 C 6656.43 -2.43625 -5.60437 0
M  V30 64883 C 6657.43 -3.34058 -5.9573 0
M  V30 64884 O 6657.12 -4.44625 -6.69749 0
M  V30 64885 H 6656.85 -0.0587802 -0.67344 0
M  V30 64886 H 6659.4 -0.815093 -1.88535 0
M  V30 64887 H 6657.63 0.92647 -3.75438 0
M  V30 64888 H 6659.32 0.598289 -4.01466 0
M  V30 64889 H 6660.09 -1.83971 -4.48753 0
M  V30 64890 H 6655.97 -0.616181 -4.56863 0
M  V30 64891 H 6659.51 -3.82922 -5.8311 0
M  V30 64892 H 6655.41 -2.59705 -5.90951 0
M  V30 64893 H 6656.18 -4.43109 -6.88183 0
M  V30 64894 N 6658.84 1.54101 -0.330258 0
M  V30 64895 C 6660.09 2.00985 0.2707 0
M  V30 64896 C 6660.42 1.21797 1.51259 0
M  V30 64897 O 6659.69 0.302029 1.92141 0
M  V30 64898 C 6659.98 3.55097 0.598152 0
M  V30 64899 C 6659.83 4.45007 -0.654908 0
M  V30 64900 C 6661.15 4.16796 1.41312 0
M  V30 64901 H 6658.27 0.7306 0.0969146 0
M  V30 64902 H 6660.91 1.84639 -0.448163 0
M  V30 64903 H 6659.06 3.69157 1.21058 0
M  V30 64904 H 6660.73 4.42806 -1.29308 0
M  V30 64905 H 6658.98 4.1441 -1.28246 0
M  V30 64906 H 6659.65 5.50682 -0.381235 0
M  V30 64907 H 6662.12 4.06352 0.895383 0
M  V30 64908 H 6661 5.24727 1.61099 0
M  V30 64909 H 6661.26 3.70554 2.41127 0
M  V30 64910 N 6660.32 0.0585753 1.57491 0
M  V30 64911 C 6661.25 -0.911065 2.14993 0
M  V30 64912 C 6662.23 -1.31947 1.0735 0
M  V30 64913 O 6663.41 -1.39287 1.35325 0
M  V30 64914 C 6660.54 -2.18332 2.70089 0
M  V30 64915 C 6659.5 -1.91475 3.82781 0
M  V30 64916 C 6658.82 -3.25219 4.24425 0
M  V30 64917 C 6660.12 -1.23048 5.07599 0
M  V30 64918 H 6661.82 -0.43209 2.96266 0
M  V30 64919 H 6659.36 -0.206394 1.42513 0
M  V30 64920 H 6661.32 -2.86571 3.08958 0
M  V30 64921 H 6660.04 -2.68449 1.86019 0
M  V30 64922 H 6658.7 -1.25646 3.44396 0
M  V30 64923 H 6658.35 -3.7315 3.37295 0
M  V30 64924 H 6658.05 -3.08044 5.00382 0
M  V30 64925 H 6659.57 -3.94677 4.659 0
M  V30 64926 H 6660.99 -1.81334 5.43867 0
M  V30 64927 H 6659.38 -1.16176 5.88747 0
M  V30 64928 H 6660.45 -0.207592 4.84455 0
M  V30 64929 N 6661.8 -1.56128 -0.214875 0
M  V30 64930 C 6663.04 -1.79717 -0.939667 0
M  V30 64931 C 6663.38 -0.629343 -1.8372 0
M  V30 64932 O 6662.65 0.371096 -1.90927 0
M  V30 64933 C 6662.93 -3.13434 -1.77289 0
M  V30 64934 C 6662.79 -4.40675 -0.901407 0
M  V30 64935 C 6664.11 -3.43653 -2.74938 0
M  V30 64936 H 6661.22 -0.653794 -0.34018 0
M  V30 64937 H 6663.87 -1.88856 -0.208141 0
M  V30 64938 H 6662.02 -3.05773 -2.39657 0
M  V30 64939 H 6663.69 -4.60362 -0.293963 0
M  V30 64940 H 6661.93 -4.33305 -0.207139 0
M  V30 64941 H 6662.6 -5.3069 -1.51895 0
M  V30 64942 H 6665.08 -3.51485 -2.22705 0
M  V30 64943 H 6663.95 -4.38372 -3.30335 0
M  V30 64944 H 6664.22 -2.66153 -3.53009 0
M  V30 64945 N 6663.27 0.481841 -1.50054 0
M  V30 64946 C 6664.18 1.60719 -1.70899 0
M  V30 64947 C 6665.2 1.63624 -0.591874 0
M  V30 64948 O 6666.38 1.81692 -0.868913 0
M  V30 64949 C 6663.44 2.96995 -1.7887 0
M  V30 64950 C 6662.5 3.04565 -3.02553 0
M  V30 64951 C 6661.74 4.34341 -3.10135 0
M  V30 64952 O 6661.96 5.24237 -2.24793 0
M  V30 64953 O 6660.89 4.4728 -4.0277 0
M  V30 64954 H 6664.72 1.46058 -2.66272 0
M  V30 64955 H 6662.3 0.660193 -1.34022 0
M  V30 64956 H 6664.19 3.77954 -1.86356 0
M  V30 64957 H 6662.86 3.11879 -0.866793 0
M  V30 64958 H 6661.77 2.22724 -3.00574 0
M  V30 64959 H 6663.1 2.94615 -3.94288 0
M  V30 64960 N 6664.75 1.3945 0.734264 0
M  V30 64961 C 6665.66 1.40505 1.87871 0
M  V30 64962 C 6666.68 0.299762 1.71398 0
M  V30 64963 O 6667.85 0.541351 1.93988 0
M  V30 64964 C 6664.92 1.24771 3.2347 0
M  V30 64965 C 6663.98 2.45277 3.52331 0
M  V30 64966 C 6663.21 2.30285 4.81461 0
M  V30 64967 O 6663.44 1.30672 5.55231 0
M  V30 64968 O 6662.37 3.19283 5.10237 0
M  V30 64969 H 6666.2 2.36976 1.89937 0
M  V30 64970 H 6663.78 1.20573 0.882179 0
M  V30 64971 H 6665.66 1.18132 4.04503 0
M  V30 64972 H 6664.34 0.313951 3.22174 0
M  V30 64973 H 6663.25 2.57492 2.71382 0
M  V30 64974 H 6664.58 3.3735 3.58408 0
M  V30 64975 N 6666.23 -0.964527 1.24638 0
M  V30 64976 C 6667.48 -1.70224 1.08197 0
M  V30 64977 C 6667.79 -1.919 -0.378629 0
M  V30 64978 O 6669 -2.63273 -0.663288 0
M  V30 64979 C 6667.46 -3.0641 1.88789 0
M  V30 64980 C 6667.06 -2.92564 3.39279 0
M  V30 64981 C 6668.81 -3.84031 1.80887 0
M  V30 64982 C 6666.71 -4.24079 4.12202 0
M  V30 64983 H 6665.64 -0.63835 0.401279 0
M  V30 64984 H 6668.3 -1.07454 1.48747 0
M  V30 64985 H 6666.68 -3.70026 1.41055 0
M  V30 64986 H 6667.85 -2.3794 3.94615 0
M  V30 64987 H 6666.17 -2.28406 3.48166 0
M  V30 64988 H 6668.76 -4.81423 2.32671 0
M  V30 64989 H 6669.11 -4.09027 0.774759 0
M  V30 64990 H 6669.64 -3.27147 2.26318 0
M  V30 64991 H 6666.38 -4.04275 5.15986 0
M  V30 64992 H 6665.9 -4.78507 3.61651 0
M  V30 64993 H 6667.58 -4.9268 4.19375 0
M  V30 64994 N 6667.71 -1.06064 -1.16568 0
M  V30 64995 C 6668.93 -0.796663 -1.91489 0
M  V30 64996 C 6669.36 0.642775 -1.76777 0
M  V30 64997 O 6668.72 1.44762 -1.09149 0
M  V30 64998 C 6668.77 -1.19321 -3.40286 0
M  V30 64999 O 6667.87 -0.330611 -4.11073 0
M  V30 65000 H 6667.21 -0.291358 -0.596663 0
M  V30 65001 H 6669.74 -1.41583 -1.47701 0
M  V30 65002 H 6669.75 -1.16377 -3.9105 0
M  V30 65003 H 6668.43 -2.24172 -3.50314 0
M  V30 65004 H 6667 -0.42142 -3.70511 0
M  V30 65005 N 6669.19 1.33165 -0.842897 0
M  V30 65006 C 6670.6 1.7997 -0.496746 0
M  V30 65007 C 6670.95 1.69709 0.984551 0
M  V30 65008 O 6670.07 1.24873 1.76737 0
M  V30 65009 C 6670.67 3.26767 -0.894899 0
M  V30 65010 C 6669.23 3.71574 -0.600825 0
M  V30 65011 C 6668.38 2.54504 -1.10104 0
M  V30 65012 H 6671.33 1.2063 -1.03122 0
M  V30 65013 H 6671.35 3.79939 -0.206548 0
M  V30 65014 H 6670.86 3.34204 -1.97305 0
M  V30 65015 H 6668.96 3.69661 0.467089 0
M  V30 65016 H 6669.07 4.64873 -1.15888 0
M  V30 65017 H 6667.44 2.49299 -0.521752 0
M  V30 65018 H 6668.22 2.64701 -2.18605 0
M  V30 65019 N 6670.67 0.599711 1.45744 0
M  V30 65020 C 6671.89 0.0961291 2.07177 0
M  V30 65021 C 6672.32 -1.20692 1.44274 0
M  V30 65022 O 6671.67 -1.73301 0.532595 0
M  V30 65023 C 6671.72 -0.0383447 3.6058 0
M  V30 65024 O 6670.83 -1.09059 3.97718 0
M  V30 65025 H 6670.17 0.0704941 0.660247 0
M  V30 65026 H 6672.7 0.827484 1.8712 0
M  V30 65027 H 6672.71 -0.239089 4.07299 0
M  V30 65028 H 6671.38 0.913161 4.05751 0
M  V30 65029 H 6669.96 -0.866943 3.62682 0
M  V30 65030 N 6672.14 -1.53923 0.338426 0
M  V30 65031 C 6673.39 -2.01126 -0.260037 0
M  V30 65032 C 6673.72 -1.22597 -1.50611 0
M  V30 65033 O 6673 -0.312214 -1.91978 0
M  V30 65034 C 6673.28 -3.5541 -0.579312 0
M  V30 65035 C 6673.13 -4.44653 0.678499 0
M  V30 65036 C 6674.45 -4.1754 -1.391 0
M  V30 65037 H 6671.57 -0.731104 -0.0930387 0
M  V30 65038 H 6674.21 -1.84399 0.457949 0
M  V30 65039 H 6672.36 -3.69794 -1.19099 0
M  V30 65040 H 6674.04 -4.42114 1.31654 0
M  V30 65041 H 6672.28 -4.13724 1.30442 0
M  V30 65042 H 6672.95 -5.50472 0.410433 0
M  V30 65043 H 6675.43 -4.06821 -0.87382 0
M  V30 65044 H 6674.3 -5.25574 -1.58314 0
M  V30 65045 H 6674.56 -3.71828 -2.39158 0
M  V30 65046 N 6673.62 -0.0669266 -1.57458 0
M  V30 65047 C 6674.9 0.644035 -1.84693 0
M  V30 65048 C 6675.28 1.88088 -0.958442 0
M  V30 65049 O 6674.63 2.28488 -0.0234784 0
M  V30 65050 C 6674.84 0.986333 -3.34772 0
M  V30 65051 C 6676.18 1.3619 -4.02166 0
M  V30 65052 O 6677.21 1.07821 -3.3949 0
M  V30 65053 O 6676.07 1.892 -5.12704 0
M  V30 65054 H 6673.16 0.319397 -0.762833 0
M  V30 65055 H 6675.71 -0.097488 -1.6942 0
M  V30 65056 H 6674.48 0.107677 -3.91152 0
M  V30 65057 H 6674.1 1.78478 -3.5529 0
M  V30 65058 N 6675.1 1.5624 0.206592 0
M  V30 65059 C 6676.05 1.94502 1.27561 0
M  V30 65060 C 6677.04 0.82894 1.47733 0
M  V30 65061 O 6678.25 1.01388 1.4873 0
M  V30 65062 H 6674.62 0.618323 0.427997 0
M  V30 65063 H 6676.59 2.83675 0.925811 0
M  V30 65064 C 6675.34 2.29093 2.61556 0
M  V30 65065 H 6674.67 3.14495 2.46846 0
M  V30 65066 H 6676.11 2.59738 3.3513 0
M  V30 65067 C 6674.56 1.12139 3.17689 0
M  V30 65068 O 6675.09 0.390364 3.99799 0
M  V30 65069 N 6673.3 0.901243 2.76272 0
M  V30 65070 H 6672.85 1.49744 2.09605 0
M  V30 65071 H 6672.81 0.120485 3.14169 0
M  V30 65072 N 6676.58 -0.473876 1.50307 0
M  V30 65073 C 6677.82 -1.22616 1.61157 0
M  V30 65074 C 6678.15 -1.92004 0.310619 0
M  V30 65075 O 6677.41 -1.82625 -0.703323 0
M  V30 65076 C 6677.71 -2.29534 2.7395 0
M  V30 65077 C 6677.37 -1.77418 4.14528 0
M  V30 65078 C 6676.03 -1.62925 4.52779 0
M  V30 65079 C 6678.39 -1.38723 5.024 0
M  V30 65080 C 6675.71 -1.08157 5.76645 0
M  V30 65081 C 6678.07 -0.853979 6.26809 0
M  V30 65082 C 6676.73 -0.695661 6.63865 0
M  V30 65083 H 6676 -0.448684 0.589715 0
M  V30 65084 H 6678.65 -0.522608 1.84231 0
M  V30 65085 H 6676.95 -3.05786 2.44953 0
M  V30 65086 H 6678.65 -2.87494 2.7955 0
M  V30 65087 H 6675.24 -1.89665 3.8435 0
M  V30 65088 H 6679.42 -1.48755 4.73482 0
M  V30 65089 H 6674.68 -0.946347 6.04032 0
M  V30 65090 H 6678.85 -0.545477 6.9426 0
M  V30 65091 H 6676.48 -0.269119 7.59723 0
M  V30 65092 N 6678.06 -1.39838 -0.726858 0
M  V30 65093 C 6679.3 -1.37233 -1.48363 0
M  V30 65094 C 6679.62 0.0283828 -1.94979 0
M  V30 65095 O 6678.89 0.981123 -1.69561 0
M  V30 65096 H 6677.47 -0.50504 -0.550403 0
M  V30 65097 H 6680.14 -1.74783 -0.862376 0
M  V30 65098 H 6679.23 -2.04015 -2.36187 0
M  V30 65099 N 6679.53 0.957904 -1.25148 0
M  V30 65100 C 6680.78 1.70463 -1.09864 0
M  V30 65101 C 6681.11 1.90832 0.360086 0
M  V30 65102 O 6680.39 1.47691 1.2656 0
M  V30 65103 C 6680.67 3.08953 -1.84986 0
M  V30 65104 C 6680.52 2.96015 -3.38667 0
M  V30 65105 C 6681.84 4.08787 -1.63038 0
M  V30 65106 H 6678.96 0.618685 -0.400497 0
M  V30 65107 H 6681.6 1.11368 -1.53939 0
M  V30 65108 H 6679.75 3.59401 -1.47524 0
M  V30 65109 H 6681.43 2.52918 -3.85785 0
M  V30 65110 H 6679.67 2.32005 -3.66546 0
M  V30 65111 H 6680.34 3.94167 -3.86441 0
M  V30 65112 H 6682.82 3.67236 -1.95644 0
M  V30 65113 H 6681.69 5.03735 -2.18042 0
M  V30 65114 H 6681.95 4.38398 -0.570923 0
M  V30 65115 N 6681.01 1.06681 1.16004 0
M  V30 65116 C 6682.24 0.805598 1.90246 0
M  V30 65117 C 6682.65 -0.644216 1.77895 0
M  V30 65118 O 6681.99 -1.45307 1.1239 0
M  V30 65119 C 6682.06 1.12594 3.41413 0
M  V30 65120 C 6681.72 2.57497 3.7755 0
M  V30 65121 C 6682.72 3.55735 3.79142 0
M  V30 65122 C 6680.4 2.92898 4.08064 0
M  V30 65123 C 6682.4 4.87412 4.10741 0
M  V30 65124 C 6680.08 4.24775 4.39329 0
M  V30 65125 C 6681.08 5.21841 4.40648 0
M  V30 65126 O 6680.77 6.5135 4.71167 0
M  V30 65127 H 6680.5 0.291329 0.610003 0
M  V30 65128 H 6683.05 1.42478 1.4795 0
M  V30 65129 H 6681.28 0.449705 3.84076 0
M  V30 65130 H 6682.97 0.848349 3.96936 0
M  V30 65131 H 6683.74 3.29727 3.55676 0
M  V30 65132 H 6679.62 2.17998 4.06199 0
M  V30 65133 H 6683.16 5.6317 4.11686 0
M  V30 65134 H 6679.06 4.50539 4.62261 0
M  V30 65135 H 6679.83 6.56398 4.88962 0
M  V30 65136 N 6682.49 -1.32716 0.849947 0
M  V30 65137 C 6683.74 -1.96678 0.447278 0
M  V30 65138 C 6684.05 -1.6803 -1.00126 0
M  V30 65139 O 6685.26 -2.25693 -1.50914 0
M  V30 65140 C 6683.71 -3.52022 0.748885 0
M  V30 65141 C 6683.32 -3.89535 2.21284 0
M  V30 65142 C 6685.07 -4.22479 0.41371 0
M  V30 65143 C 6682.97 -5.37904 2.45792 0
M  V30 65144 H 6681.9 -0.736054 0.163525 0
M  V30 65145 H 6684.55 -1.51178 1.04007 0
M  V30 65146 H 6682.94 -3.95908 0.0855815 0
M  V30 65147 H 6684.11 -3.56673 2.91754 0
M  V30 65148 H 6682.43 -3.3209 2.51208 0
M  V30 65149 H 6685.02 -5.31607 0.574298 0
M  V30 65150 H 6685.37 -4.11284 -0.644275 0
M  V30 65151 H 6685.9 -3.84161 1.03271 0
M  V30 65152 H 6682.64 -5.54114 3.50197 0
M  V30 65153 H 6682.16 -5.72187 1.79895 0
M  V30 65154 H 6683.84 -6.04928 2.29503 0
M  V30 65155 N 6683.97 -0.607431 -1.45424 0
M  V30 65156 C 6685.25 -0.0345597 -1.95569 0
M  V30 65157 C 6685.63 1.43326 -1.54986 0
M  V30 65158 O 6684.97 2.13572 -0.812354 0
M  V30 65159 C 6685.18 -0.232504 -3.48225 0
M  V30 65160 C 6686.53 -0.113225 -4.24449 0
M  V30 65161 O 6687.56 -0.162618 -3.55829 0
M  V30 65162 O 6686.41 0.00180623 -5.465 0
M  V30 65163 H 6683.51 0.0358231 -0.826224 0
M  V30 65164 H 6686.05 -0.677482 -1.5559 0
M  V30 65165 H 6684.83 -1.25194 -3.70732 0
M  V30 65166 H 6684.45 0.445687 -3.95094 0
M  V30 65167 N 6685.45 1.53742 -0.346584 0
M  V30 65168 C 6686.39 2.26619 0.5241 0
M  V30 65169 C 6687.39 1.28877 1.09941 0
M  V30 65170 O 6688.59 1.46574 1.0448 0
M  V30 65171 H 6684.97 0.728197 0.187704 0
M  V30 65172 H 6686.94 2.98188 -0.112547 0
M  V30 65173 C 6685.69 3.05423 1.66169 0
M  V30 65174 H 6685.01 3.80465 1.22828 0
M  V30 65175 H 6686.45 3.59624 2.24603 0
M  V30 65176 C 6684.91 2.15104 2.59291 0
M  V30 65177 O 6685.44 1.74914 3.61618 0
M  V30 65178 N 6683.65 1.80122 2.28045 0
M  V30 65179 H 6683.19 2.13002 1.44872 0
M  V30 65180 H 6683.15 1.19974 2.90609 0
M  V30 65181 N 6686.92 0.075276 1.5742 0
M  V30 65182 C 6688.15 -0.601099 1.97662 0
M  V30 65183 C 6688.56 -1.63474 0.952513 0
M  V30 65184 O 6687.91 -1.83571 -0.0687273 0
M  V30 65185 C 6687.97 -1.32417 3.34225 0
M  V30 65186 C 6687.63 -0.443586 4.54842 0
M  V30 65187 C 6688.63 0.300242 5.19032 0
M  V30 65188 C 6686.31 -0.367445 5.00954 0
M  V30 65189 C 6688.31 1.1084 6.27689 0
M  V30 65190 C 6685.99 0.444379 6.09482 0
M  V30 65191 C 6686.99 1.18097 6.72713 0
M  V30 65192 O 6686.68 1.97939 7.7915 0
M  V30 65193 H 6686.41 -0.167388 0.654948 0
M  V30 65194 H 6688.97 0.145265 2.04886 0
M  V30 65195 H 6687.2 -2.11668 3.23626 0
M  V30 65196 H 6688.89 -1.89312 3.59048 0
M  V30 65197 H 6689.65 0.251031 4.8435 0
M  V30 65198 H 6685.53 -0.930399 4.51514 0
M  V30 65199 H 6689.07 1.68383 6.76973 0
M  V30 65200 H 6684.97 0.495142 6.43598 0
M  V30 65201 H 6685.74 1.90409 7.96044 0
M  V30 65202 N 6688.4 -1.56347 -0.198304 0
M  V30 65203 C 6689.35 -1.90693 -1.2498 0
M  V30 65204 C 6690.34 -0.772292 -1.41154 0
M  V30 65205 O 6691.53 -1.0351 -1.43578 0
M  V30 65206 C 6688.66 -2.24719 -2.59531 0
M  V30 65207 C 6687.74 -3.44632 -2.47163 0
M  V30 65208 N 6688.13 -4.62629 -2.04471 0
M  V30 65209 C 6686.43 -3.48707 -2.78064 0
M  V30 65210 C 6687.13 -5.44787 -2.03917 0
M  V30 65211 N 6686.11 -4.85108 -2.45298 0
M  V30 65212 H 6689.91 -2.79424 -0.911002 0
M  V30 65213 H 6687.43 -1.57224 -0.406757 0
M  V30 65214 H 6689.42 -2.47509 -3.35477 0
M  V30 65215 H 6688.08 -1.37313 -2.94237 0
M  V30 65216 H 6689.09 -4.87355 -1.75231 0
M  V30 65217 H 6685.77 -2.71708 -3.16987 0
M  V30 65218 H 6687.16 -6.4929 -1.72837 0
M  V30 65219 N 6689.88 0.465898 -1.50556 0
M  V30 65220 C 6691.12 1.22739 -1.63446 0
M  V30 65221 C 6691.48 1.89144 -0.329921 0
M  V30 65222 O 6692.69 2.66713 -0.334302 0
M  V30 65223 C 6690.96 2.23925 -2.78554 0
M  V30 65224 S 6692.52 3.08944 -3.11608 0
M  V30 65225 H 6689.33 0.416641 -0.576135 0
M  V30 65226 H 6691.94 0.523542 -1.88359 0
M  V30 65227 H 6690.64 1.7373 -3.71815 0
M  V30 65228 H 6690.17 2.98931 -2.55742 0
M  V30 65229 H 6692.19 4.25163 -2.55834 0
M  V30 65230 N 6691.36 1.40221 0.719432 0
M  V30 65231 C 6692.64 1.28791 1.47215 0
M  V30 65232 C 6693.02 -0.0954955 2.10884 0
M  V30 65233 O 6692.36 -1.108 1.99839 0
M  V30 65234 C 6692.57 2.42386 2.51097 0
M  V30 65235 C 6693.92 2.82439 3.17038 0
M  V30 65236 O 6694.95 2.41951 2.61416 0
M  V30 65237 O 6693.8 3.52377 4.17723 0
M  V30 65238 H 6690.9 0.505575 0.654464 0
M  V30 65239 H 6693.44 1.52132 0.751933 0
M  V30 65240 H 6692.22 3.34804 2.02539 0
M  V30 65241 H 6691.84 2.20795 3.30659 0
M  V30 65242 N 6692.84 -0.951253 1.25654 0
M  V30 65243 C 6694.25 -1.511 1.09662 0
M  V30 65244 C 6694.6 -1.93464 -0.326513 0
M  V30 65245 O 6693.72 -1.78945 -1.21687 0
M  V30 65246 C 6694.32 -2.74595 1.98452 0
M  V30 65247 C 6692.88 -3.26871 1.86635 0
M  V30 65248 C 6692.02 -1.99693 1.92401 0
M  V30 65249 H 6694.98 -0.767792 1.38891 0
M  V30 65250 H 6695 -3.48538 1.52649 0
M  V30 65251 H 6694.51 -2.4373 3.02022 0
M  V30 65252 H 6692.61 -3.62549 0.859613 0
M  V30 65253 H 6692.72 -3.94658 2.71628 0
M  V30 65254 H 6691.09 -2.15143 1.36328 0
M  V30 65255 H 6691.87 -1.71172 2.97582 0
M  V30 65256 N 6694.31 -1.07295 -1.15437 0
M  V30 65257 C 6695.26 -0.687069 -2.22221 0
M  V30 65258 C 6696.26 0.301843 -1.66689 0
M  V30 65259 O 6697.46 0.165617 -1.79236 0
M  V30 65260 H 6693.84 -0.204102 -0.723772 0
M  V30 65261 H 6695.81 -1.59733 -2.52048 0
M  V30 65262 C 6694.56 -0.100333 -3.47555 0
M  V30 65263 H 6693.88 -0.852417 -3.90607 0
M  V30 65264 H 6695.32 0.132012 -4.23794 0
M  V30 65265 C 6693.78 1.15883 -3.16343 0
M  V30 65266 O 6694.31 2.24537 -3.33085 0
M  V30 65267 N 6692.52 1.06477 -2.70391 0
M  V30 65268 H 6692.06 0.180532 -2.56967 0
M  V30 65269 H 6692.02 1.90806 -2.49881 0
M  V30 65270 N 6695.79 1.32264 -0.856973 0
M  V30 65271 C 6697.07 1.9182 -0.382684 0
M  V30 65272 C 6697.45 1.78057 1.13398 0
M  V30 65273 O 6696.8 1.18011 1.95667 0
M  V30 65274 C 6697.01 3.385 -0.849624 0
M  V30 65275 C 6698.36 4.1563 -0.868155 0
M  V30 65276 O 6699.38 3.47228 -0.794415 0
M  V30 65277 O 6698.24 5.37776 -0.97257 0
M  V30 65278 H 6695.33 0.819373 -0.112057 0
M  V30 65279 H 6697.88 1.41019 -0.944027 0
M  V30 65280 H 6696.65 3.42472 -1.89285 0
M  V30 65281 H 6696.27 3.9671 -0.265861 0
M  V30 65282 N 6697.27 0.615135 1.45099 0
M  V30 65283 C 6698.22 -0.0992762 2.30586 0
M  V30 65284 C 6699.19 -0.852594 1.42548 0
M  V30 65285 O 6700.37 -0.836827 1.7147 0
M  V30 65286 C 6697.51 -1.08566 3.27578 0
M  V30 65287 C 6696.63 -0.332429 4.30719 0
M  V30 65288 C 6695.76 -1.3092 5.14814 0
M  V30 65289 C 6694.8 -0.544216 6.09676 0
M  V30 65290 N 6693.94 -1.47065 6.86525 0
M  V30 65291 H 6698.78 0.635696 2.91141 0
M  V30 65292 H 6696.31 0.325282 1.43458 0
M  V30 65293 H 6698.27 -1.67075 3.82285 0
M  V30 65294 H 6696.9 -1.78795 2.6876 0
M  V30 65295 H 6695.95 0.368306 3.78613 0
M  V30 65296 H 6697.27 0.264105 4.981 0
M  V30 65297 H 6696.42 -1.96613 5.73959 0
M  V30 65298 H 6695.16 -1.93967 4.47469 0
M  V30 65299 H 6694.16 0.126293 5.49655 0
M  V30 65300 H 6695.39 0.0813051 6.79051 0
M  V30 65301 H 6693.34 -2.08862 6.21862 0
M  V30 65302 H 6693.25 -0.927741 7.50286 0
M  V30 65303 H 6694.52 -2.11691 7.50205 0
M  V30 65304 N 6698.75 -1.53556 0.354732 0
M  V30 65305 C 6700 -2.0139 -0.23869 0
M  V30 65306 C 6700.33 -1.24188 -1.49302 0
M  V30 65307 O 6699.6 -0.332558 -1.91636 0
M  V30 65308 C 6699.89 -3.56004 -0.541583 0
M  V30 65309 C 6699.74 -4.43909 0.725622 0
M  V30 65310 C 6701.06 -4.18991 -1.34663 0
M  V30 65311 H 6698.18 -0.73205 -0.0852791 0
M  V30 65312 H 6700.82 -1.83902 0.477481 0
M  V30 65313 H 6698.97 -3.71037 -1.1517 0
M  V30 65314 H 6700.64 -4.40693 1.36336 0
M  V30 65315 H 6698.88 -4.12317 1.34823 0
M  V30 65316 H 6699.56 -5.50006 0.468795 0
M  V30 65317 H 6702.03 -4.07725 -0.830622 0
M  V30 65318 H 6700.91 -5.27223 -1.52731 0
M  V30 65319 H 6701.17 -3.74343 -2.35201 0
M  V30 65320 N 6700.23 -0.0836233 -1.57378 0
M  V30 65321 C 6701.45 0.594882 -1.98685 0
M  V30 65322 C 6701.88 1.61636 -0.962054 0
M  V30 65323 O 6701.24 1.81161 0.0709033 0
M  V30 65324 C 6701.28 1.22942 -3.38995 0
M  V30 65325 O 6700.39 2.34529 -3.3922 0
M  V30 65326 H 6699.73 0.151968 -0.646376 0
M  V30 65327 H 6702.26 -0.16164 -2.0396 0
M  V30 65328 H 6702.27 1.57346 -3.76439 0
M  V30 65329 H 6700.94 0.48101 -4.13109 0
M  V30 65330 H 6699.52 2.01829 -3.13559 0
M  V30 65331 N 6701.71 1.5645 0.190009 0
M  V30 65332 C 6702.95 1.8271 0.916317 0
M  V30 65333 C 6703.31 0.661858 1.80232 0
M  V30 65334 O 6704.51 0.804465 2.5648 0
M  V30 65335 C 6702.78 3.14014 1.70675 0
M  V30 65336 S 6704.34 3.61696 2.48438 0
M  V30 65337 H 6701.16 0.641186 0.307248 0
M  V30 65338 H 6703.76 1.94676 0.17933 0
M  V30 65339 H 6702.46 3.96832 1.04656 0
M  V30 65340 H 6702 3.0494 2.48546 0
M  V30 65341 H 6704.01 3.27536 3.72739 0
M  V30 65342 N 6703.18 -0.457907 1.50801 0
M  V30 65343 C 6704.59 -1.03842 1.55157 0
M  V30 65344 C 6704.95 -1.92816 0.362821 0
M  V30 65345 O 6704.07 -2.0999 -0.522804 0
M  V30 65346 C 6704.67 -1.89002 2.81183 0
M  V30 65347 C 6703.22 -2.42138 2.88177 0
M  V30 65348 C 6702.37 -1.20816 2.49597 0
M  V30 65349 H 6705.32 -0.239985 1.56875 0
M  V30 65350 H 6705.34 -2.74224 2.63783 0
M  V30 65351 H 6704.86 -1.24219 3.67684 0
M  V30 65352 H 6702.96 -3.10436 2.06058 0
M  V30 65353 H 6703.07 -2.76343 3.91371 0
M  V30 65354 H 6701.43 -1.54708 2.0233 0
M  V30 65355 H 6702.22 -0.576749 3.38421 0
M  V30 65356 N 6704.66 -1.40601 -0.711986 0
M  V30 65357 C 6706.08 -1.22709 -1.02052 0
M  V30 65358 C 6706.28 -0.104835 -2.01227 0
M  V30 65359 O 6705.33 0.53611 -2.46743 0
M  V30 65360 C 6706.65 -2.5702 -1.5608 0
M  V30 65361 C 6708.19 -2.64063 -1.68046 0
M  V30 65362 C 6708.67 -3.98651 -2.2548 0
M  V30 65363 N 6710.16 -4.00412 -2.32861 0
M  V30 65364 C 6710.9 -5.0134 -2.78291 0
M  V30 65365 N 6710.39 -6.12662 -3.23446 0
M  V30 65366 N 6712.18 -4.88708 -2.77707 0
M  V30 65367 H 6704.34 -2.1233 -0.0546776 0
M  V30 65368 H 6706.6 -0.944013 -0.0868529 0
M  V30 65369 H 6706.3 -3.39812 -0.906686 0
M  V30 65370 H 6706.18 -2.78361 -2.54549 0
M  V30 65371 H 6708.57 -1.81641 -2.32574 0
M  V30 65372 H 6708.65 -2.4655 -0.681672 0
M  V30 65373 H 6708.29 -4.81515 -1.61573 0
M  V30 65374 H 6708.22 -4.13497 -3.2608 0
M  V30 65375 H 6710.71 -3.20028 -2.00974 0
M  V30 65376 H 6711.02 -6.8556 -3.56689 0
M  V30 65377 H 6709.37 -6.16222 -3.21396 0
M  V30 65378 H 6712.56 -4.00831 -2.41768 0
M  V30 65379 H 6712.73 -5.67506 -3.12796 0
M  V30 65380 N 6706.14 0.944576 -1.26157 0
M  V30 65381 C 6707.37 1.72483 -1.14269 0
M  V30 65382 C 6707.78 1.86362 0.302457 0
M  V30 65383 O 6707.14 1.36856 1.20734 0
M  V30 65384 C 6707.19 3.13337 -1.80283 0
M  V30 65385 O 6706.91 3.00126 -3.19149 0
M  V30 65386 C 6708.41 4.07594 -1.74305 0
M  V30 65387 H 6705.63 0.54016 -0.39808 0
M  V30 65388 H 6708.18 1.18437 -1.66712 0
M  V30 65389 H 6706.33 3.64296 -1.31785 0
M  V30 65390 H 6706.75 3.89053 -3.51765 0
M  V30 65391 H 6708.22 5.04001 -2.25138 0
M  V30 65392 H 6708.7 4.33442 -0.70886 0
M  V30 65393 H 6709.3 3.62555 -2.22338 0
M  V30 65394 N 6707.62 1.07905 1.14866 0
M  V30 65395 C 6708.55 0.726004 2.21927 0
M  V30 65396 C 6709.53 -0.289182 1.67624 0
M  V30 65397 O 6710.71 -0.160685 1.93534 0
M  V30 65398 C 6707.84 0.129039 3.4706 0
M  V30 65399 C 6706.8 1.072 4.14357 0
M  V30 65400 C 6706.12 0.33751 5.33634 0
M  V30 65401 C 6707.42 2.408 4.63479 0
M  V30 65402 H 6709.12 1.62111 2.51715 0
M  V30 65403 H 6706.66 0.780901 1.20987 0
M  V30 65404 H 6708.62 -0.129925 4.212 0
M  V30 65405 H 6707.34 -0.801174 3.16621 0
M  V30 65406 H 6706 1.31598 3.42166 0
M  V30 65407 H 6705.65 -0.596342 4.99452 0
M  V30 65408 H 6705.35 0.966094 5.79604 0
M  V30 65409 H 6706.87 0.0864787 6.10539 0
M  V30 65410 H 6708.29 2.20697 5.29118 0
M  V30 65411 H 6706.68 2.99304 5.20132 0
M  V30 65412 H 6707.75 3.02696 3.78818 0
M  V30 65413 N 6709.1 -1.31808 0.863975 0
M  V30 65414 C 6710.34 -1.96193 0.468114 0
M  V30 65415 C 6710.66 -1.69083 -0.983384 0
M  V30 65416 O 6711.86 -2.27281 -1.48511 0
M  V30 65417 C 6710.32 -3.51208 0.78618 0
M  V30 65418 C 6709.93 -3.87166 2.25403 0
M  V30 65419 C 6711.67 -4.22017 0.458496 0
M  V30 65420 C 6709.58 -5.35267 2.51483 0
M  V30 65421 H 6708.51 -0.734278 0.171322 0
M  V30 65422 H 6711.16 -1.50066 1.05605 0
M  V30 65423 H 6709.54 -3.95794 0.127568 0
M  V30 65424 H 6710.72 -3.53559 2.95521 0
M  V30 65425 H 6709.03 -3.29407 2.54716 0
M  V30 65426 H 6711.63 -5.30968 0.630649 0
M  V30 65427 H 6711.97 -4.11945 -0.600617 0
M  V30 65428 H 6712.5 -3.83044 1.0734 0
M  V30 65429 H 6709.24 -5.50369 3.56054 0
M  V30 65430 H 6708.76 -5.70247 1.85953 0
M  V30 65431 H 6710.44 -6.02459 2.35906 0
M  V30 65432 N 6710.57 -0.622821 -1.44771 0
M  V30 65433 C 6711.82 -0.12419 -2.02419 0
M  V30 65434 C 6712.15 1.24769 -1.48817 0
M  V30 65435 O 6711.43 1.82636 -0.668895 0
M  V30 65436 C 6711.71 -0.101808 -3.59956 0
M  V30 65437 C 6711.56 -1.50543 -4.23859 0
M  V30 65438 C 6712.88 0.578042 -4.36287 0
M  V30 65439 H 6710 -0.0466033 -0.735525 0
M  V30 65440 H 6712.64 -0.797708 -1.72443 0
M  V30 65441 H 6710.79 0.471731 -3.85625 0
M  V30 65442 H 6712.47 -2.12722 -4.09325 0
M  V30 65443 H 6710.71 -2.06174 -3.81674 0
M  V30 65444 H 6711.38 -1.44188 -5.32836 0
M  V30 65445 H 6713.86 0.0903863 -4.16002 0
M  V30 65446 H 6712.73 0.562861 -5.46006 0
M  V30 65447 H 6712.99 1.64691 -4.10279 0
M  V30 65448 N 6712.05 1.53366 -0.362871 0
M  V30 65449 C 6713.47 1.59596 -0.0117023 0
M  V30 65450 C 6713.67 1.37811 1.47005 0
M  V30 65451 O 6712.72 1.18193 2.23129 0
M  V30 65452 C 6714.04 2.9708 -0.465208 0
M  V30 65453 C 6715.59 3.1018 -0.419197 0
M  V30 65454 C 6716.06 4.50072 -0.848472 0
M  V30 65455 N 6717.55 4.56179 -0.803423 0
M  V30 65456 C 6718.29 5.62607 -1.1073 0
M  V30 65457 N 6717.78 6.768 -1.48032 0
M  V30 65458 N 6719.58 5.52577 -1.03027 0
M  V30 65459 H 6711.73 1.65778 -1.32783 0
M  V30 65460 H 6713.99 0.777389 -0.542559 0
M  V30 65461 H 6713.7 3.18151 -1.49909 0
M  V30 65462 H 6713.57 3.76903 0.149587 0
M  V30 65463 H 6715.96 2.8882 0.605544 0
M  V30 65464 H 6716.04 2.32371 -1.06945 0
M  V30 65465 H 6715.68 4.7217 -1.87132 0
M  V30 65466 H 6715.61 5.26307 -0.175496 0
M  V30 65467 H 6718.1 3.74185 -0.528577 0
M  V30 65468 H 6718.42 7.53948 -1.69653 0
M  V30 65469 H 6716.76 6.78198 -1.51895 0
M  V30 65470 H 6719.95 4.62245 -0.738061 0
M  V30 65471 H 6720.12 6.35424 -1.27043 0
M  V30 65472 N 6713.53 0.0919683 1.57331 0
M  V30 65473 C 6714.48 -0.878649 2.1039 0
M  V30 65474 C 6715.46 -1.24585 1.0182 0
M  V30 65475 O 6716.66 -1.22146 1.28099 0
M  V30 65476 C 6713.79 -2.13886 2.68528 0
M  V30 65477 C 6712.87 -1.79724 3.84136 0
M  V30 65478 N 6713.26 -1.16104 4.92294 0
M  V30 65479 C 6711.56 -2.09352 3.93812 0
M  V30 65480 C 6712.26 -1.00483 5.72956 0
M  V30 65481 N 6711.24 -1.52113 5.21884 0
M  V30 65482 H 6715.04 -0.382776 2.91397 0
M  V30 65483 H 6712.55 -0.111337 1.62018 0
M  V30 65484 H 6714.55 -2.84362 3.04867 0
M  V30 65485 H 6713.21 -2.64043 1.88975 0
M  V30 65486 H 6714.22 -0.828234 5.11234 0
M  V30 65487 H 6710.9 -2.61745 3.25263 0
M  V30 65488 H 6712.29 -0.507549 6.6998 0
M  V30 65489 N 6715.01 -1.56549 -0.18171 0
M  V30 65490 C 6715.92 -1.98821 -1.24528 0
M  V30 65491 C 6716.93 -0.897939 -1.4904 0
M  V30 65492 O 6718.11 -1.20476 -1.61393 0
M  V30 65493 C 6715.18 -2.33068 -2.56671 0
M  V30 65494 C 6714.24 -3.55871 -2.40112 0
M  V30 65495 C 6713.47 -3.88475 -3.65954 0
M  V30 65496 O 6713.69 -3.22186 -4.70694 0
M  V30 65497 O 6712.63 -4.81861 -3.60684 0
M  V30 65498 H 6716.45 -2.89541 -0.916494 0
M  V30 65499 H 6714.04 -1.4428 -0.387766 0
M  V30 65500 H 6715.92 -2.56112 -3.34641 0
M  V30 65501 H 6714.59 -1.45514 -2.8915 0
M  V30 65502 H 6713.5 -3.38059 -1.60208 0
M  V30 65503 H 6714.83 -4.43935 -2.12562 0
M  V30 65504 N 6716.49 0.449904 -1.51042 0
M  V30 65505 C 6717.71 1.22311 -1.66876 0
M  V30 65506 C 6718.13 1.8532 -0.360825 0
M  V30 65507 O 6717.49 1.70169 0.659442 0
M  V30 65508 C 6717.54 2.31638 -2.77536 0
M  V30 65509 O 6717.26 1.71209 -4.03261 0
M  V30 65510 C 6718.76 3.22144 -3.04529 0
M  V30 65511 H 6715.98 0.369125 -0.560346 0
M  V30 65512 H 6718.52 0.534615 -1.97388 0
M  V30 65513 H 6716.68 2.96226 -2.49658 0
M  V30 65514 H 6717.09 2.43365 -4.64622 0
M  V30 65515 H 6718.57 3.95017 -3.85571 0
M  V30 65516 H 6719.04 3.82168 -2.16435 0
M  V30 65517 H 6719.65 2.63271 -3.34019 0
M  V30 65518 N 6717.96 1.40976 0.704519 0
M  V30 65519 C 6718.9 1.38043 1.82967 0
M  V30 65520 C 6719.91 0.284016 1.60303 0
M  V30 65521 O 6721.1 0.545131 1.69972 0
M  V30 65522 C 6718.2 1.12812 3.19573 0
M  V30 65523 C 6717.37 2.34322 3.6934 0
M  V30 65524 C 6716.43 2.05083 4.8459 0
M  V30 65525 O 6715.46 2.78046 4.96668 0
M  V30 65526 N 6716.66 1.03558 5.71188 0
M  V30 65527 H 6719.42 2.35015 1.85978 0
M  V30 65528 H 6716.98 1.35473 0.886495 0
M  V30 65529 H 6718.98 0.912195 3.94286 0
M  V30 65530 H 6717.55 0.244684 3.11641 0
M  V30 65531 H 6716.77 2.71674 2.85634 0
M  V30 65532 H 6718.05 3.15301 3.99328 0
M  V30 65533 H 6717.45 0.431515 5.64052 0
M  V30 65534 H 6716.01 0.879546 6.45838 0
M  V30 65535 N 6719.44 -0.937872 1.26656 0
M  V30 65536 C 6720.35 -2.0706 1.10287 0
M  V30 65537 C 6721.37 -1.73964 0.0355115 0
M  V30 65538 O 6722.54 -1.99966 0.239921 0
M  V30 65539 C 6719.61 -3.38687 0.741065 0
M  V30 65540 C 6718.67 -3.85546 1.88819 0
M  V30 65541 C 6717.9 -5.10891 1.54356 0
M  V30 65542 O 6718.13 -5.68647 0.446794 0
M  V30 65543 O 6717.06 -5.52873 2.3794 0
M  V30 65544 H 6720.89 -2.23779 2.05321 0
M  V30 65545 H 6718.47 -1.05535 1.05749 0
M  V30 65546 H 6720.35 -4.17767 0.552171 0
M  V30 65547 H 6719.03 -3.232 -0.179851 0
M  V30 65548 H 6717.94 -3.07398 2.13208 0
M  V30 65549 H 6719.27 -4.05559 2.78895 0
M  V30 65550 N 6720.92 -1.08513 -1.14292 0
M  V30 65551 C 6722.17 -0.816679 -1.85629 0
M  V30 65552 C 6722.5 0.655925 -1.82787 0
M  V30 65553 O 6721.77 1.48226 -1.25933 0
M  V30 65554 C 6722.06 -1.34059 -3.34216 0
M  V30 65555 C 6721.91 -2.87861 -3.45624 0
M  V30 65556 C 6723.23 -0.966727 -4.29351 0
M  V30 65557 H 6720.35 -0.29814 -0.674004 0
M  V30 65558 H 6722.99 -1.34494 -1.34207 0
M  V30 65559 H 6721.14 -0.89124 -3.78139 0
M  V30 65560 H 6722.81 -3.41175 -3.1048 0
M  V30 65561 H 6721.06 -3.25466 -2.868 0
M  V30 65562 H 6721.73 -3.19592 -4.50072 0
M  V30 65563 H 6724.2 -1.35411 -3.9345 0
M  V30 65564 H 6723.08 -1.36048 -5.31773 0
M  V30 65565 H 6723.34 0.126129 -4.4192 0
M  V30 65566 N 6722.4 1.31347 -0.870953 0
M  V30 65567 C 6723.33 2.30964 -0.343218 0
M  V30 65568 C 6724.31 1.60392 0.566423 0
M  V30 65569 O 6725.49 1.88092 0.483237 0
M  V30 65570 C 6722.62 3.44303 0.455305 0
M  V30 65571 C 6721.58 4.26472 -0.361328 0
M  V30 65572 C 6720.9 5.31728 0.562941 0
M  V30 65573 C 6722.2 4.9732 -1.59592 0
M  V30 65574 H 6723.9 2.75353 -1.17563 0
M  V30 65575 H 6721.44 1.32378 -0.566756 0
M  V30 65576 H 6723.4 4.13044 0.835033 0
M  V30 65577 H 6722.12 2.98682 1.32123 0
M  V30 65578 H 6720.78 3.594 -0.723014 0
M  V30 65579 H 6720.43 4.82358 1.42617 0
M  V30 65580 H 6720.13 5.87596 0.020431 0
M  V30 65581 H 6721.65 6.03329 0.93949 0
M  V30 65582 H 6723.07 5.58654 -1.28758 0
M  V30 65583 H 6721.46 5.62989 -2.07758 0
M  V30 65584 H 6722.53 4.24249 -2.3482 0
M  V30 65585 N 6723.88 0.63049 1.44439 0
M  V30 65586 C 6725.13 0.132179 2.01266 0
M  V30 65587 C 6725.44 -1.25323 1.50179 0
M  V30 65588 O 6726.64 -1.84552 1.9913 0
M  V30 65589 C 6725.1 0.185552 3.59421 0
M  V30 65590 C 6724.71 1.57223 4.19506 0
M  V30 65591 C 6726.45 -0.25633 4.23725 0
M  V30 65592 C 6724.36 1.58075 5.69883 0
M  V30 65593 H 6723.29 0.0456489 0.752617 0
M  V30 65594 H 6725.94 0.789193 1.65662 0
M  V30 65595 H 6724.32 -0.538552 3.92321 0
M  V30 65596 H 6725.5 2.31987 3.98144 0
M  V30 65597 H 6723.81 1.95814 3.67486 0
M  V30 65598 H 6726.41 -0.269485 5.3402 0
M  V30 65599 H 6726.75 -1.28351 3.9602 0
M  V30 65600 H 6727.28 0.415259 3.95627 0
M  V30 65601 H 6724.02 2.58628 6.02322 0
M  V30 65602 H 6723.54 0.876038 5.93368 0
M  V30 65603 H 6725.22 1.31441 6.33508 0
M  V30 65604 N 6725.36 -1.53171 0.370999 0
M  V30 65605 C 6726.3 -2.25903 -0.472916 0
M  V30 65606 C 6727.27 -1.26787 -1.07305 0
M  V30 65607 O 6728.46 -1.5558 -1.10452 0
M  V30 65608 C 6725.6 -3.05564 -1.60389 0
M  V30 65609 C 6724.71 -4.19581 -1.0284 0
M  V30 65610 C 6723.85 -4.86673 -2.12893 0
M  V30 65611 C 6722.88 -5.92712 -1.52838 0
M  V30 65612 N 6722.02 -6.53473 -2.56745 0
M  V30 65613 H 6726.86 -2.97603 0.153806 0
M  V30 65614 H 6724.4 -1.46839 0.087672 0
M  V30 65615 H 6726.36 -3.50028 -2.27015 0
M  V30 65616 H 6724.99 -2.36109 -2.20119 0
M  V30 65617 H 6724.04 -3.79563 -0.252265 0
M  V30 65618 H 6725.35 -4.95765 -0.549381 0
M  V30 65619 H 6724.5 -5.34348 -2.87328 0
M  V30 65620 H 6723.24 -4.09972 -2.64149 0
M  V30 65621 H 6722.25 -5.44393 -0.769192 0
M  V30 65622 H 6723.47 -6.71335 -1.02399 0
M  V30 65623 H 6721.42 -5.79622 -3.07204 0
M  V30 65624 H 6721.34 -7.25214 -2.13545 0
M  V30 65625 H 6722.6 -7.05796 -3.30866 0
M  V30 65626 N 6726.83 -0.100311 -1.5728 0
M  V30 65627 C 6728.06 0.570404 -1.98882 0
M  V30 65628 C 6728.48 1.614 -0.979562 0
M  V30 65629 O 6727.83 1.82475 0.0301325 0
M  V30 65630 C 6727.88 1.21342 -3.40527 0
M  V30 65631 O 6727.61 0.211555 -4.37589 0
M  V30 65632 C 6729.11 1.96925 -3.97159 0
M  V30 65633 H 6726.33 0.152521 -0.653436 0
M  V30 65634 H 6728.87 -0.181137 -2.03696 0
M  V30 65635 H 6727.03 1.91586 -3.3671 0
M  V30 65636 H 6727.44 0.676332 -5.20121 0
M  V30 65637 H 6728.91 2.37268 -4.98405 0
M  V30 65638 H 6729.39 2.83715 -3.35265 0
M  V30 65639 H 6730 1.31485 -4.04465 0
M  V30 65640 N 6728.31 1.56643 0.173405 0
M  V30 65641 C 6729.56 1.82145 0.891688 0
M  V30 65642 C 6729.89 0.677832 1.81986 0
M  V30 65643 O 6729.17 -0.320344 1.91844 0
M  V30 65644 C 6729.45 3.18024 1.68917 0
M  V30 65645 C 6729.3 4.4291 0.784253 0
M  V30 65646 C 6730.62 3.50822 2.6573 0
M  V30 65647 H 6727.74 0.662584 0.322726 0
M  V30 65648 H 6730.38 1.89342 0.157996 0
M  V30 65649 H 6728.53 3.12019 2.31465 0
M  V30 65650 H 6730.2 4.6098 0.171802 0
M  V30 65651 H 6728.45 4.33702 0.092183 0
M  V30 65652 H 6729.12 5.34531 1.37771 0
M  V30 65653 H 6731.59 3.57266 2.13308 0
M  V30 65654 H 6730.47 4.46976 3.18596 0
M  V30 65655 H 6730.73 2.75419 3.45828 0
M  V30 65656 N 6729.79 -0.441887 1.51278 0
M  V30 65657 C 6730.74 -1.53434 1.68648 0
M  V30 65658 C 6731.72 -1.51549 0.540524 0
M  V30 65659 O 6732.92 -1.58079 0.79624 0
M  V30 65660 C 6730.04 -2.91662 1.81075 0
M  V30 65661 C 6729.13 -2.9832 3.0144 0
M  V30 65662 N 6729.52 -2.7473 4.24685 0
M  V30 65663 C 6727.82 -3.29477 3.00601 0
M  V30 65664 C 6728.52 -2.87112 5.05906 0
M  V30 65665 N 6727.5 -3.18586 4.40459 0
M  V30 65666 H 6731.3 -1.3394 2.61605 0
M  V30 65667 H 6728.81 -0.649122 1.48863 0
M  V30 65668 H 6730.81 -3.70249 1.91628 0
M  V30 65669 H 6729.47 -3.1218 0.89296 0
M  V30 65670 H 6730.48 -2.49746 4.53704 0
M  V30 65671 H 6727.16 -3.55798 2.18436 0
M  V30 65672 H 6728.55 -2.72867 6.13998 0
M  V30 65673 N 6731.27 -1.41348 -0.697033 0
M  V30 65674 C 6732.2 -1.37496 -1.82127 0
M  V30 65675 C 6733.18 -0.242435 -1.60782 0
M  V30 65676 O 6734.36 -0.429109 -1.83551 0
M  V30 65677 C 6731.49 -1.14438 -3.18781 0
M  V30 65678 C 6730.54 -2.30389 -3.58919 0
M  V30 65679 S 6731.37 -3.92862 -3.63895 0
M  V30 65680 C 6732.52 -3.72104 -5.03278 0
M  V30 65681 H 6732.76 -2.32635 -1.85117 0
M  V30 65682 H 6730.29 -1.27854 -0.865603 0
M  V30 65683 H 6732.25 -1.01821 -3.97672 0
M  V30 65684 H 6730.91 -0.209215 -3.13402 0
M  V30 65685 H 6730.1 -2.09946 -4.58191 0
M  V30 65686 H 6729.7 -2.39406 -2.87334 0
M  V30 65687 H 6732 -3.3172 -5.90735 0
M  V30 65688 H 6732.94 -4.70973 -5.28763 0
M  V30 65689 H 6733.35 -3.05409 -4.74748 0
M  V30 65690 N 6732.75 0.931142 -1.27151 0
M  V30 65691 C 6733.68 2.03175 -1.039 0
M  V30 65692 C 6734.66 1.62552 0.0394858 0
M  V30 65693 O 6735.84 1.88208 -0.104966 0
M  V30 65694 C 6732.97 3.33777 -0.575403 0
M  V30 65695 C 6732.01 3.93376 -1.64795 0
M  V30 65696 S 6732.85 4.26396 -3.23955 0
M  V30 65697 C 6734 5.60083 -2.79388 0
M  V30 65698 H 6734.24 2.22585 -1.97086 0
M  V30 65699 H 6731.77 1.07382 -1.10944 0
M  V30 65700 H 6733.73 4.09293 -0.3146 0
M  V30 65701 H 6732.39 3.12294 0.336341 0
M  V30 65702 H 6731.58 4.87611 -1.2748 0
M  V30 65703 H 6731.18 3.24432 -1.86065 0
M  V30 65704 H 6733.47 6.39231 -2.24477 0
M  V30 65705 H 6734.42 6.02294 -3.72354 0
M  V30 65706 H 6734.83 5.2044 -2.18637 0
M  V30 65707 N 6734.22 1.09118 1.13715 0
M  V30 65708 C 6735.63 0.845156 1.66475 0
M  V30 65709 C 6735.99 -0.626912 1.85915 0
M  V30 65710 O 6735.11 -1.48333 1.57564 0
M  V30 65711 C 6735.71 1.52764 3.02405 0
M  V30 65712 C 6734.26 1.32867 3.52169 0
M  V30 65713 C 6733.41 1.58576 2.27484 0
M  V30 65714 H 6736.36 1.25077 0.976806 0
M  V30 65715 H 6736.38 0.958947 3.68218 0
M  V30 65716 H 6735.9 2.59901 2.88224 0
M  V30 65717 H 6734 0.278333 3.71559 0
M  V30 65718 H 6734.11 2.06133 4.32488 0
M  V30 65719 H 6732.47 1.00771 2.33917 0
M  V30 65720 H 6733.26 2.66935 2.15872 0
M  V30 65721 N 6735.7 -1.30884 0.877907 0
M  V30 65722 C 6736.63 -2.26424 0.284114 0
M  V30 65723 C 6737.61 -1.51468 -0.591281 0
M  V30 65724 O 6738.8 -1.80511 -0.542945 0
M  V30 65725 C 6735.92 -3.33398 -0.596953 0
M  V30 65726 C 6734.97 -4.25992 0.208161 0
M  V30 65727 S 6735.8 -5.11293 1.59185 0
M  V30 65728 C 6736.96 -6.21778 0.717119 0
M  V30 65729 H 6737.19 -2.76441 1.09398 0
M  V30 65730 H 6734.72 -1.38771 0.676901 0
M  V30 65731 H 6736.68 -3.95499 -1.09958 0
M  V30 65732 H 6735.34 -2.8212 -1.38084 0
M  V30 65733 H 6734.54 -5.01861 -0.463898 0
M  V30 65734 H 6734.14 -3.68428 0.643157 0
M  V30 65735 H 6736.43 -6.77465 -0.0689261 0
M  V30 65736 H 6737.37 -6.93154 1.44719 0
M  V30 65737 H 6737.78 -5.63799 0.281153 0
M  V30 65738 N 6737.18 -0.638141 -1.44102 0
M  V30 65739 C 6738.11 0.101084 -2.28977 0
M  V30 65740 C 6739.12 0.802013 -1.41674 0
M  V30 65741 O 6740.31 0.662288 -1.65759 0
M  V30 65742 C 6737.41 1.16564 -3.18223 0
M  V30 65743 C 6736.59 0.545837 -4.33981 0
M  V30 65744 C 6735.65 1.50527 -5.0421 0
M  V30 65745 O 6734.67 1.01969 -5.59992 0
M  V30 65746 N 6735.87 2.83953 -5.06311 0
M  V30 65747 H 6738.64 -0.627341 -2.93061 0
M  V30 65748 H 6736.2 -0.479812 -1.54627 0
M  V30 65749 H 6738.19 1.80795 -3.62071 0
M  V30 65750 H 6736.76 1.79621 -2.55842 0
M  V30 65751 H 6735.98 -0.275253 -3.93238 0
M  V30 65752 H 6737.27 0.112524 -5.08676 0
M  V30 65753 H 6736.67 3.25978 -4.62337 0
M  V30 65754 H 6735.22 3.43527 -5.53925 0
M  V30 65755 N 6738.66 1.52972 -0.379117 0
M  V30 65756 C 6739.9 2.01745 0.206621 0
M  V30 65757 C 6740.24 1.26547 1.47307 0
M  V30 65758 O 6739.51 0.363004 1.91083 0
M  V30 65759 C 6739.79 3.56821 0.484878 0
M  V30 65760 C 6739.65 4.42698 -0.796152 0
M  V30 65761 C 6740.97 4.21081 1.2798 0
M  V30 65762 H 6738.09 0.733314 0.073622 0
M  V30 65763 H 6740.73 1.8312 -0.506678 0
M  V30 65764 H 6738.88 3.72822 1.09252 0
M  V30 65765 H 6740.55 4.38468 -1.4333 0
M  V30 65766 H 6738.79 4.1012 -1.41365 0
M  V30 65767 H 6739.46 5.4919 -0.556237 0
M  V30 65768 H 6741.94 4.08995 0.765651 0
M  V30 65769 H 6740.82 5.29586 1.44324 0
M  V30 65770 H 6741.08 3.78038 2.29216 0
M  V30 65771 N 6740.14 0.10865 1.57225 0
M  V30 65772 C 6741.07 -0.87564 2.11814 0
M  V30 65773 C 6742.08 -1.23695 1.05846 0
M  V30 65774 O 6743.27 -1.18771 1.33251 0
M  V30 65775 C 6740.37 -2.18067 2.59422 0
M  V30 65776 C 6739.54 -1.99263 3.89375 0
M  V30 65777 C 6738.6 -3.13402 4.22689 0
M  V30 65778 O 6737.63 -2.86769 4.91683 0
M  V30 65779 N 6738.83 -4.3955 3.79178 0
M  V30 65780 H 6741.6 -0.40932 2.96892 0
M  V30 65781 H 6739.16 -0.0760727 1.61721 0
M  V30 65782 H 6741.15 -2.93399 2.78745 0
M  V30 65783 H 6739.72 -2.5608 1.79281 0
M  V30 65784 H 6738.94 -1.08183 3.79065 0
M  V30 65785 H 6740.23 -1.83992 4.74367 0
M  V30 65786 H 6739.62 -4.64066 3.23511 0
M  V30 65787 H 6738.18 -5.11788 4.03629 0
M  V30 65788 N 6741.61 -1.56733 -0.165095 0
M  V30 65789 C 6742.86 -1.82615 -0.882016 0
M  V30 65790 C 6743.19 -0.687474 -1.81624 0
M  V30 65791 O 6742.47 0.310166 -1.92011 0
M  V30 65792 C 6742.75 -3.18915 -1.67228 0
M  V30 65793 C 6742.6 -4.4332 -0.760754 0
M  V30 65794 C 6743.92 -3.52226 -2.63865 0
M  V30 65795 H 6741.04 -0.664286 -0.319207 0
M  V30 65796 H 6743.68 -1.89423 -0.147952 0
M  V30 65797 H 6741.83 -3.13242 -2.29807 0
M  V30 65798 H 6743.51 -4.61065 -0.147353 0
M  V30 65799 H 6741.75 -4.33745 -0.0691815 0
M  V30 65800 H 6742.42 -5.35254 -1.34934 0
M  V30 65801 H 6744.9 -3.58392 -2.1141 0
M  V30 65802 H 6743.77 -4.4866 -3.16221 0
M  V30 65803 H 6744.03 -2.77249 -3.44362 0
M  V30 65804 N 6743.09 0.433858 -1.5151 0
M  V30 65805 C 6744.02 1.54529 -1.69274 0
M  V30 65806 C 6745.04 1.52369 -0.573356 0
M  V30 65807 O 6746.23 1.57083 -0.847781 0
M  V30 65808 C 6743.33 2.93444 -1.6954 0
M  V30 65809 C 6742.5 3.20069 -2.98118 0
M  V30 65810 C 6741.56 4.38727 -2.90525 0
M  V30 65811 O 6740.58 4.37211 -3.64466 0
M  V30 65812 N 6741.79 5.42486 -2.06615 0
M  V30 65813 H 6744.55 1.39694 -2.65152 0
M  V30 65814 H 6742.11 0.622843 -1.4944 0
M  V30 65815 H 6744.1 3.70851 -1.62024 0
M  V30 65816 H 6742.67 3.01859 -0.812404 0
M  V30 65817 H 6741.89 2.3093 -3.19476 0
M  V30 65818 H 6743.18 3.34688 -3.83225 0
M  V30 65819 H 6742.58 5.46555 -1.45925 0
M  V30 65820 H 6741.14 6.18731 -2.04975 0
M  V30 65821 N 6744.57 1.41715 0.689527 0
M  V30 65822 C 6745.82 1.41607 1.45174 0
M  V30 65823 C 6746.15 0.0271105 1.94181 0
M  V30 65824 O 6745.42 -0.946175 1.69935 0
M  V30 65825 C 6745.71 2.42801 2.65932 0
M  V30 65826 C 6745.56 3.90828 2.22651 0
M  V30 65827 C 6746.88 2.41171 3.68137 0
M  V30 65828 H 6744 0.51567 0.526549 0
M  V30 65829 H 6746.64 1.73032 0.784856 0
M  V30 65830 H 6744.79 2.16134 3.22829 0
M  V30 65831 H 6746.46 4.28421 1.71035 0
M  V30 65832 H 6744.71 4.05403 1.54373 0
M  V30 65833 H 6745.38 4.57189 3.09326 0
M  V30 65834 H 6747.85 2.6485 3.20926 0
M  V30 65835 H 6746.73 3.13979 4.50231 0
M  V30 65836 H 6746.99 1.43243 4.18251 0
M  V30 65837 N 6746.05 -0.924386 1.27643 0
M  V30 65838 C 6747 -2.04679 1.10496 0
M  V30 65839 C 6747.99 -1.69378 0.0271314 0
M  V30 65840 O 6749.2 -1.79046 0.185103 0
M  V30 65841 H 6745.57 -0.670454 0.340582 0
M  V30 65842 H 6747.54 -2.16288 2.05578 0
M  V30 65843 C 6746.29 -3.39012 0.772408 0
M  V30 65844 H 6745.61 -3.66662 1.5937 0
M  V30 65845 H 6747.05 -4.1831 0.692318 0
M  V30 65846 C 6745.51 -3.3281 -0.523379 0
M  V30 65847 O 6746.04 -3.70305 -1.55683 0
M  V30 65848 N 6744.25 -2.85906 -0.520212 0
M  V30 65849 H 6743.8 -2.5559 0.321205 0
M  V30 65850 H 6743.75 -2.82139 -1.38727 0
M  V30 65851 N 6747.53 -1.09719 -1.13135 0
M  V30 65852 C 6748.94 -0.827495 -1.36472 0
M  V30 65853 C 6749.14 0.556715 -1.93657 0
M  V30 65854 O 6748.2 1.31101 -2.15798 0
M  V30 65855 C 6749.51 -1.92119 -2.31324 0
M  V30 65856 C 6751.06 -1.94877 -2.44933 0
M  V30 65857 C 6751.53 -3.03398 -3.43094 0
M  V30 65858 N 6753.03 -3.02657 -3.50647 0
M  V30 65859 C 6753.76 -3.83268 -4.26489 0
M  V30 65860 N 6753.26 -4.73795 -5.0546 0
M  V30 65861 N 6755.05 -3.71515 -4.21821 0
M  V30 65862 H 6747.2 -1.98954 -0.743703 0
M  V30 65863 H 6749.46 -0.864163 -0.389777 0
M  V30 65864 H 6749.17 -2.91708 -1.96467 0
M  V30 65865 H 6749.04 -1.80201 -3.31372 0
M  V30 65866 H 6751.43 -0.959246 -2.79074 0
M  V30 65867 H 6751.51 -2.10872 -1.44799 0
M  V30 65868 H 6751.16 -4.02565 -3.09683 0
M  V30 65869 H 6751.09 -2.84646 -4.4304 0
M  V30 65870 H 6753.58 -2.37054 -2.94302 0
M  V30 65871 H 6753.89 -5.31879 -5.60646 0
M  V30 65872 H 6752.23 -4.77829 -5.04683 0
M  V30 65873 H 6755.43 -3.0015 -3.59204 0
M  V30 65874 H 6755.6 -4.34576 -4.80675 0
M  V30 65875 N 6749 1.30416 -0.884835 0
M  V30 65876 C 6749.94 2.27111 -0.308775 0
M  V30 65877 C 6750.95 1.53703 0.536574 0
M  V30 65878 O 6752.14 1.74911 0.356147 0
M  V30 65879 C 6749.24 3.33907 0.579606 0
M  V30 65880 C 6748.41 4.36759 -0.236647 0
M  V30 65881 C 6747.47 5.22969 0.582206 0
M  V30 65882 O 6746.5 5.692 0.00495487 0
M  V30 65883 N 6747.7 5.48825 1.89134 0
M  V30 65884 H 6750.46 2.7718 -1.13978 0
M  V30 65885 H 6748.02 1.43595 -0.747806 0
M  V30 65886 H 6750.02 3.88503 1.13346 0
M  V30 65887 H 6748.59 2.83767 1.31129 0
M  V30 65888 H 6747.81 3.8203 -0.971941 0
M  V30 65889 H 6749.09 5.02532 -0.796189 0
M  V30 65890 H 6748.49 5.13047 2.38325 0
M  V30 65891 H 6747.05 6.06297 2.39264 0
M  V30 65892 N 6750.48 0.645774 1.43762 0
M  V30 65893 C 6751.45 -0.0408279 2.29164 0
M  V30 65894 C 6752.45 -0.757921 1.41817 0
M  V30 65895 O 6753.64 -0.600296 1.6353 0
M  V30 65896 C 6750.77 -1.06852 3.23721 0
M  V30 65897 H 6751.96 0.710498 2.91362 0
M  V30 65898 H 6749.51 0.406627 1.50918 0
M  V30 65899 H 6750.25 -1.84933 2.66402 0
M  V30 65900 H 6750.03 -0.558073 3.88108 0
M  V30 65901 H 6751.52 -1.54824 3.87839 0
M  V30 65902 N 6751.96 -1.52769 0.387224 0
M  V30 65903 C 6753.21 -2.01851 -0.195919 0
M  V30 65904 C 6753.54 -1.27327 -1.46634 0
M  V30 65905 O 6752.81 -0.373132 -1.90887 0
M  V30 65906 C 6753.1 -3.57073 -0.465948 0
M  V30 65907 C 6752.95 -4.42269 0.819618 0
M  V30 65908 C 6754.27 -4.21754 -1.25745 0
M  V30 65909 H 6751.39 -0.733694 -0.0697321 0
M  V30 65910 H 6754.03 -1.82848 0.516382 0
M  V30 65911 H 6752.18 -3.73396 -1.07274 0
M  V30 65912 H 6753.85 -4.37702 1.45653 0
M  V30 65913 H 6752.1 -4.09364 1.43538 0
M  V30 65914 H 6752.77 -5.48888 0.585354 0
M  V30 65915 H 6755.24 -4.09395 -0.743951 0
M  V30 65916 H 6754.12 -5.30344 -1.41513 0
M  V30 65917 H 6754.38 -3.79248 -2.27208 0
M  V30 65918 N 6753.44 -0.116987 -1.57165 0
M  V30 65919 C 6754.4 0.81963 -2.14044 0
M  V30 65920 C 6755.4 1.19599 -1.07483 0
M  V30 65921 O 6756.59 1.12183 -1.33269 0
M  V30 65922 C 6753.72 2.10812 -2.67902 0
M  V30 65923 H 6754.92 0.325354 -2.9813 0
M  V30 65924 H 6752.47 0.13223 -1.5574 0
M  V30 65925 H 6753.2 2.64675 -1.87398 0
M  V30 65926 H 6752.99 1.84775 -3.45833 0
M  V30 65927 H 6754.48 2.77769 -3.11824 0
M  V30 65928 N 6754.92 1.56818 0.156781 0
M  V30 65929 C 6755.85 2.00557 1.19579 0
M  V30 65930 C 6756.83 0.883503 1.45356 0
M  V30 65931 O 6758.01 1.15062 1.56443 0
M  V30 65932 C 6755.14 2.37786 2.53131 0
M  V30 65933 C 6754.1 3.53088 2.41895 0
M  V30 65934 C 6753.42 3.76101 3.80069 0
M  V30 65935 C 6754.72 4.86072 1.91132 0
M  V30 65936 H 6756.42 2.87603 0.832142 0
M  V30 65937 H 6753.96 1.38366 0.398845 0
M  V30 65938 H 6755.92 2.66984 3.26033 0
M  V30 65939 H 6754.64 1.47665 2.91312 0
M  V30 65940 H 6753.3 3.2404 1.71445 0
M  V30 65941 H 6752.95 2.83247 4.15668 0
M  V30 65942 H 6752.65 4.5369 3.73415 0
M  V30 65943 H 6754.17 4.07714 4.54534 0
M  V30 65944 H 6755.59 5.14051 2.53819 0
M  V30 65945 H 6753.98 5.67399 1.95392 0
M  V30 65946 H 6755.05 4.77097 0.866422 0
M  V30 65947 N 6756.4 -0.425817 1.51738 0
M  V30 65948 C 6757.81 -1.00527 1.57325 0
M  V30 65949 C 6758.16 -1.92003 0.403638 0
M  V30 65950 O 6757.28 -2.11052 -0.478144 0
M  V30 65951 C 6757.88 -1.82995 2.85128 0
M  V30 65952 C 6756.44 -2.35971 2.93248 0
M  V30 65953 C 6755.58 -1.15495 2.52104 0
M  V30 65954 H 6758.53 -0.206656 1.57349 0
M  V30 65955 H 6758.56 -2.68567 2.6954 0
M  V30 65956 H 6758.07 -1.16392 3.70236 0
M  V30 65957 H 6756.17 -3.05996 2.12597 0
M  V30 65958 H 6756.28 -2.6798 3.97144 0
M  V30 65959 H 6754.65 -1.50382 2.05566 0
M  V30 65960 H 6755.43 -0.504835 3.39568 0
M  V30 65961 N 6757.87 -1.42079 -0.682002 0
M  V30 65962 C 6759.1 -1.45336 -1.46836 0
M  V30 65963 C 6759.51 -0.0610325 -1.89102 0
M  V30 65964 O 6758.85 0.932998 -1.58243 0
M  V30 65965 C 6758.92 -2.31119 -2.75362 0
M  V30 65966 C 6758.58 -3.79095 -2.55218 0
M  V30 65967 C 6759.58 -4.70925 -2.20285 0
M  V30 65968 C 6757.26 -4.23284 -2.70436 0
M  V30 65969 C 6759.26 -6.04936 -2.00827 0
M  V30 65970 C 6756.94 -5.57356 -2.50595 0
M  V30 65971 C 6757.94 -6.47998 -2.15842 0
M  V30 65972 O 6757.63 -7.79594 -1.96186 0
M  V30 65973 H 6757.36 -0.496675 -0.458574 0
M  V30 65974 H 6759.92 -1.87167 -0.846032 0
M  V30 65975 H 6758.15 -1.84125 -3.40051 0
M  V30 65976 H 6759.83 -2.25916 -3.37219 0
M  V30 65977 H 6760.6 -4.38072 -2.08129 0
M  V30 65978 H 6756.48 -3.53028 -2.96467 0
M  V30 65979 H 6760.02 -6.75648 -1.73625 0
M  V30 65980 H 6755.92 -5.89785 -2.62344 0
M  V30 65981 H 6756.69 -7.90878 -2.10842 0
M  V30 65982 N 6759.35 0.917604 -1.28132 0
M  V30 65983 C 6760.3 2.01955 -1.11727 0
M  V30 65984 C 6761.27 1.66093 -0.0154805 0
M  V30 65985 O 6762.45 1.89952 -0.179696 0
M  V30 65986 C 6759.59 3.36144 -0.781105 0
M  V30 65987 C 6758.71 3.84899 -1.96155 0
M  V30 65988 C 6757.84 5.07581 -1.56635 0
M  V30 65989 C 6756.88 5.48658 -2.71368 0
M  V30 65990 N 6756.02 6.62533 -2.32367 0
M  V30 65991 H 6760.86 2.15318 -2.06015 0
M  V30 65992 H 6758.39 1.05469 -1.02541 0
M  V30 65993 H 6760.35 4.1333 -0.566968 0
M  V30 65994 H 6758.98 3.22559 0.124828 0
M  V30 65995 H 6758.03 3.03904 -2.28793 0
M  V30 65996 H 6759.35 4.11305 -2.82187 0
M  V30 65997 H 6758.5 5.92299 -1.31405 0
M  V30 65998 H 6757.24 4.82974 -0.677268 0
M  V30 65999 H 6756.24 4.62485 -2.973 0
M  V30 66000 H 6757.47 5.75255 -3.60913 0
M  V30 66001 H 6755.42 6.39564 -1.45923 0
M  V30 66002 H 6755.33 6.88645 -3.11935 0
M  V30 66003 H 6756.6 7.50565 -2.1041 0
M  V30 66004 N 6760.83 1.10318 1.12551 0
M  V30 66005 C 6761.78 0.750896 2.18243 0
M  V30 66006 C 6762.75 -0.272206 1.63854 0
M  V30 66007 O 6763.93 -0.151761 1.90195 0
M  V30 66008 C 6761.07 0.187561 3.4459 0
M  V30 66009 C 6760.18 1.26582 4.13039 0
M  V30 66010 C 6759.32 0.664256 5.2703 0
M  V30 66011 C 6758.36 1.72318 5.87344 0
M  V30 66012 N 6757.5 1.14197 6.92751 0
M  V30 66013 H 6762.34 1.65641 2.47724 0
M  V30 66014 H 6759.87 0.827401 1.21624 0
M  V30 66015 H 6761.83 -0.156928 4.16905 0
M  V30 66016 H 6760.46 -0.681189 3.15531 0
M  V30 66017 H 6759.51 1.72745 3.38915 0
M  V30 66018 H 6760.82 2.06745 4.53936 0
M  V30 66019 H 6759.98 0.269144 6.06103 0
M  V30 66020 H 6758.72 -0.168825 4.87408 0
M  V30 66021 H 6757.72 2.12773 5.06959 0
M  V30 66022 H 6758.95 2.55908 6.29037 0
M  V30 66023 H 6756.89 0.33033 6.55168 0
M  V30 66024 H 6756.81 1.88045 7.3224 0
M  V30 66025 H 6758.08 0.773365 7.75654 0
M  V30 66026 N 6762.31 -1.29945 0.891739 0
M  V30 66027 C 6763.54 -1.99739 0.527999 0
M  V30 66028 C 6763.95 -1.66976 -0.889702 0
M  V30 66029 O 6763.29 -0.906751 -1.59761 0
M  V30 66030 C 6763.35 -3.53919 0.63099 0
M  V30 66031 C 6763.01 -4.10217 2.01422 0
M  V30 66032 C 6764.01 -4.25708 2.98444 0
M  V30 66033 C 6761.7 -4.45437 2.32144 0
M  V30 66034 C 6763.69 -4.7564 4.24318 0
M  V30 66035 C 6761.38 -4.95067 3.58263 0
M  V30 66036 C 6762.38 -5.10122 4.54164 0
M  V30 66037 O 6762.06 -5.58678 5.78043 0
M  V30 66038 H 6761.8 -0.645118 0.201987 0
M  V30 66039 H 6764.35 -1.6664 1.20084 0
M  V30 66040 H 6762.58 -3.86574 -0.0988577 0
M  V30 66041 H 6764.27 -4.0495 0.277552 0
M  V30 66042 H 6765.03 -3.98794 2.76022 0
M  V30 66043 H 6760.91 -4.32982 1.58263 0
M  V30 66044 H 6764.46 -4.87306 4.99178 0
M  V30 66045 H 6760.35 -5.21417 3.80519 0
M  V30 66046 H 6761.12 -5.77008 5.80521 0
M  V30 66047 N 6763.79 -0.653389 -1.43418 0
M  V30 66048 C 6765.03 -0.166521 -2.01413 0
M  V30 66049 C 6765.35 1.22389 -1.51809 0
M  V30 66050 O 6764.62 1.81759 -0.730789 0
M  V30 66051 H 6763.2 -0.0585712 -0.7447 0
M  V30 66052 H 6765.87 -0.845095 -1.75625 0
M  V30 66053 H 6764.96 -0.151275 -3.11733 0
M  V30 66054 N 6765.26 1.52561 -0.39532 0
M  V30 66055 C 6766.19 2.29539 0.428263 0
M  V30 66056 C 6767.17 1.33174 1.05824 0
M  V30 66057 O 6768.36 1.62072 1.06987 0
M  V30 66058 C 6765.49 3.10665 1.55257 0
M  V30 66059 C 6764.44 4.14963 1.04833 0
M  V30 66060 C 6763.77 4.84349 2.26518 0
M  V30 66061 C 6765.07 5.2218 0.112049 0
M  V30 66062 H 6766.76 2.98634 -0.214024 0
M  V30 66063 H 6764.31 1.43621 -0.104374 0
M  V30 66064 H 6766.26 3.63277 2.1356 0
M  V30 66065 H 6764.99 2.39313 2.22254 0
M  V30 66066 H 6763.65 3.6334 0.487794 0
M  V30 66067 H 6763.29 4.0954 2.92037 0
M  V30 66068 H 6762.99 5.54848 1.93437 0
M  V30 66069 H 6764.52 5.39768 2.85452 0
M  V30 66070 H 6765.93 5.70115 0.603451 0
M  V30 66071 H 6764.33 5.99961 -0.129284 0
M  V30 66072 H 6765.4 4.77616 -0.837304 0
M  V30 66073 N 6766.74 0.12532 1.57101 0
M  V30 66074 C 6767.65 -0.836084 2.19196 0
M  V30 66075 C 6768.67 -1.28798 1.16991 0
M  V30 66076 O 6769.84 -1.34966 1.49486 0
M  V30 66077 C 6766.91 -2.06602 2.78418 0
M  V30 66078 C 6765.97 -1.66544 3.95679 0
M  V30 66079 C 6765.2 -2.83674 4.52067 0
M  V30 66080 O 6765.43 -3.9928 4.07347 0
M  V30 66081 O 6764.36 -2.60395 5.42658 0
M  V30 66082 H 6768.19 -0.337617 3.01818 0
M  V30 66083 H 6765.77 -0.100617 1.49061 0
M  V30 66084 H 6767.65 -2.78624 3.16144 0
M  V30 66085 H 6766.33 -2.55443 1.98823 0
M  V30 66086 H 6765.23 -0.916105 3.6271 0
M  V30 66087 H 6766.57 -1.22439 4.76728 0
M  V30 66088 N 6768.22 -1.56899 -0.148462 0
M  V30 66089 C 6769.47 -1.8354 -0.862598 0
M  V30 66090 C 6769.8 -0.706699 -1.80885 0
M  V30 66091 O 6769.07 0.289783 -1.92329 0
M  V30 66092 C 6769.36 -3.20671 -1.63836 0
M  V30 66093 C 6769.21 -4.44102 -0.713691 0
M  V30 66094 C 6770.53 -3.55005 -2.60115 0
M  V30 66095 H 6767.65 -0.667634 -0.312144 0
M  V30 66096 H 6770.29 -1.89569 -0.127853 0
M  V30 66097 H 6768.44 -3.15662 -2.26472 0
M  V30 66098 H 6770.11 -4.61195 -0.0984428 0
M  V30 66099 H 6768.35 -4.33794 -0.0231731 0
M  V30 66100 H 6769.03 -5.36655 -1.2925 0
M  V30 66101 H 6771.5 -3.60614 -2.07597 0
M  V30 66102 H 6770.38 -4.51988 -3.11444 0
M  V30 66103 H 6770.64 -2.80886 -3.41402 0
M  V30 66104 N 6769.7 0.417764 -1.51962 0
M  V30 66105 C 6770.93 1.18572 -1.69187 0
M  V30 66106 C 6771.34 1.84984 -0.397201 0
M  V30 66107 O 6770.68 1.72342 0.635921 0
M  V30 66108 C 6770.74 2.29745 -2.7651 0
M  V30 66109 C 6770.41 1.83541 -4.18523 0
M  V30 66110 C 6771.4 1.32795 -5.02655 0
M  V30 66111 C 6769.09 1.90637 -4.64718 0
M  V30 66112 C 6771.08 0.897561 -6.31049 0
M  V30 66113 C 6768.77 1.4721 -5.93104 0
M  V30 66114 C 6769.77 0.968535 -6.76098 0
M  V30 66115 O 6769.45 0.540501 -8.02081 0
M  V30 66116 H 6769.19 0.362675 -0.570476 0
M  V30 66117 H 6771.74 0.49878 -1.99252 0
M  V30 66118 H 6769.97 3.01776 -2.41802 0
M  V30 66119 H 6771.66 2.91538 -2.82419 0
M  V30 66120 H 6772.43 1.26692 -4.6816 0
M  V30 66121 H 6768.3 2.28776 -4.00228 0
M  V30 66122 H 6771.85 0.503825 -6.95778 0
M  V30 66123 H 6767.75 1.52989 -6.27108 0
M  V30 66124 H 6768.51 0.66459 -8.15797 0
M  V30 66125 N 6771.18 1.42439 0.674458 0
M  V30 66126 C 6772.11 1.41892 1.79998 0
M  V30 66127 C 6773.12 0.317954 1.59665 0
M  V30 66128 O 6774.31 0.581062 1.68778 0
M  V30 66129 C 6771.41 1.19566 3.17108 0
M  V30 66130 C 6770.58 2.42103 3.64287 0
M  V30 66131 C 6769.64 2.15316 4.80131 0
M  V30 66132 O 6768.67 2.88519 4.90658 0
M  V30 66133 N 6769.87 1.1565 5.68863 0
M  V30 66134 H 6772.64 2.38907 1.80952 0
M  V30 66135 H 6770.2 1.37323 0.85756 0
M  V30 66136 H 6772.19 0.995624 3.92262 0
M  V30 66137 H 6770.76 0.310733 3.11052 0
M  V30 66138 H 6769.98 2.77672 2.79807 0
M  V30 66139 H 6771.27 3.237 3.9255 0
M  V30 66140 H 6770.66 0.551062 5.6301 0
M  V30 66141 H 6769.22 1.01634 6.43827 0
M  V30 66142 N 6772.65 -0.910796 1.28617 0
M  V30 66143 C 6773.88 -1.69921 1.18919 0
M  V30 66144 C 6774.3 -1.86454 -0.248274 0
M  V30 66145 O 6773.66 -1.37683 -1.17954 0
M  V30 66146 C 6773.71 -3.06735 1.89594 0
M  V30 66147 O 6772.81 -3.9439 1.20542 0
M  V30 66148 H 6772.16 -0.5202 0.412659 0
M  V30 66149 H 6774.69 -1.13861 1.69991 0
M  V30 66150 H 6774.7 -3.56948 1.97616 0
M  V30 66151 H 6773.37 -2.94019 2.94152 0
M  V30 66152 H 6771.95 -3.52825 1.20703 0
M  V30 66153 N 6774.13 -1.10913 -1.11965 0
M  V30 66154 C 6775.38 -0.852916 -1.83221 0
M  V30 66155 C 6775.7 0.623244 -1.84772 0
M  V30 66156 O 6774.97 1.45262 -1.31437 0
M  V30 66157 H 6773.55 -0.312543 -0.678473 0
M  V30 66158 H 6776.21 -1.40041 -1.35553 0
M  V30 66159 H 6775.31 -1.2202 -2.87259 0
M  V30 66160 N 6775.61 1.29471 -0.898618 0
M  V30 66161 C 6776.86 1.94883 -0.519966 0
M  V30 66162 C 6777.17 1.7163 0.938209 0
M  V30 66163 O 6778.38 2.31139 1.42433 0
M  V30 66164 C 6776.83 3.49 -0.87902 0
M  V30 66165 C 6776.44 3.81053 -2.35589 0
M  V30 66166 C 6778.19 4.20653 -0.570226 0
M  V30 66167 C 6776.09 5.28411 -2.65586 0
M  V30 66168 H 6775.02 0.729478 -0.19073 0
M  V30 66169 H 6777.67 1.47213 -1.09547 0
M  V30 66170 H 6776.06 3.95317 -0.232461 0
M  V30 66171 H 6777.23 3.45599 -3.04791 0
M  V30 66172 H 6775.55 3.22538 -2.6336 0
M  V30 66173 H 6778.14 5.29109 -0.771204 0
M  V30 66174 H 6778.49 4.13392 0.491186 0
M  V30 66175 H 6779.02 3.80064 -1.17458 0
M  V30 66176 H 6775.76 5.40735 -3.70521 0
M  V30 66177 H 6775.28 5.65116 -2.01007 0
M  V30 66178 H 6776.96 5.95993 -2.51796 0
M  V30 66179 N 6777.09 0.660986 1.43069 0
M  V30 66180 C 6778.04 -0.0376973 2.32569 0
M  V30 66181 C 6779.03 -0.805013 1.4905 0
M  V30 66182 O 6780.24 -0.714537 1.6521 0
M  V30 66183 H 6776.61 -0.0309794 0.751362 0
M  V30 66184 H 6778.58 0.734761 2.89212 0
M  V30 66185 C 6777.33 -0.984948 3.33458 0
M  V30 66186 H 6776.65 -0.403938 3.97754 0
M  V30 66187 H 6778.09 -1.44276 3.98698 0
M  V30 66188 C 6776.55 -2.08472 2.64653 0
M  V30 66189 O 6777.08 -3.16948 2.46793 0
M  V30 66190 N 6775.29 -1.85248 2.23901 0
M  V30 66191 H 6774.84 -0.970323 2.38626 0
M  V30 66192 H 6774.79 -2.59025 1.78195 0
M  V30 66193 N 6778.57 -1.5235 0.403405 0
M  V30 66194 C 6779.8 -2.05869 -0.173651 0
M  V30 66195 C 6780.2 -1.27386 -1.39891 0
M  V30 66196 O 6779.55 -0.317385 -1.80937 0
M  V30 66197 C 6779.61 -3.54549 -0.594569 0
M  V30 66198 C 6779.27 -4.54041 0.519165 0
M  V30 66199 C 6780.27 -5.01224 1.38097 0
M  V30 66200 C 6777.96 -4.97535 0.690223 0
M  V30 66201 C 6779.95 -5.90538 2.39883 0
M  V30 66202 C 6777.64 -5.86647 1.7114 0
M  V30 66203 C 6778.63 -6.33042 2.56411 0
M  V30 66204 O 6778.32 -7.20391 3.56781 0
M  V30 66205 H 6778.05 -0.675482 -0.0264595 0
M  V30 66206 H 6780.61 -1.97296 0.571283 0
M  V30 66207 H 6778.84 -3.60789 -1.3917 0
M  V30 66208 H 6780.53 -3.90742 -1.09889 0
M  V30 66209 H 6781.29 -4.68342 1.26019 0
M  V30 66210 H 6777.17 -4.60986 0.0361821 0
M  V30 66211 H 6780.72 -6.26673 3.06474 0
M  V30 66212 H 6776.61 -6.18942 1.83251 0
M  V30 66213 H 6777.38 -7.38488 3.52957 0
M  V30 66214 N 6780.04 -0.13365 -1.57032 0
M  V30 66215 C 6781.29 0.521546 -1.95979 0
M  V30 66216 C 6781.62 1.65387 -1.01787 0
M  V30 66217 O 6780.9 1.94414 -0.0577606 0
M  V30 66218 C 6781.18 1.04039 -3.44743 0
M  V30 66219 C 6781.03 -0.0895269 -4.49711 0
M  V30 66220 C 6782.35 1.92654 -3.95692 0
M  V30 66221 H 6779.47 0.188111 -0.712589 0
M  V30 66222 H 6782.11 -0.212176 -1.88812 0
M  V30 66223 H 6780.26 1.66565 -3.50982 0
M  V30 66224 H 6781.94 -0.725393 -4.55561 0
M  V30 66225 H 6780.18 -0.750603 -4.27257 0
M  V30 66226 H 6780.85 0.314993 -5.51101 0
M  V30 66227 H 6783.33 1.39977 -3.91849 0
M  V30 66228 H 6782.2 2.2587 -5.00274 0
M  V30 66229 H 6782.46 2.85854 -3.37254 0
M  V30 66230 N 6781.52 1.56976 0.14014 0
M  V30 66231 C 6782.77 1.83995 0.852852 0
M  V30 66232 C 6783.1 0.716282 1.80508 0
M  V30 66233 O 6782.38 -0.279579 1.9248 0
M  V30 66234 C 6782.66 3.21535 1.62133 0
M  V30 66235 C 6782.51 4.44474 0.690129 0
M  V30 66236 C 6783.83 3.56379 2.58228 0
M  V30 66237 H 6780.95 0.66928 0.308599 0
M  V30 66238 H 6783.59 1.89634 0.117798 0
M  V30 66239 H 6781.74 3.16859 2.24795 0
M  V30 66240 H 6783.41 4.61241 0.0739831 0
M  V30 66241 H 6781.66 4.338 0.000167679 0
M  V30 66242 H 6782.33 5.37333 1.26402 0
M  V30 66243 H 6784.8 3.6171 2.05682 0
M  V30 66244 H 6783.68 4.53634 3.09043 0
M  V30 66245 H 6783.94 2.82692 3.39908 0
M  V30 66246 N 6783 -0.409699 1.52182 0
M  V30 66247 C 6784.28 -1.16965 1.56775 0
M  V30 66248 C 6784.66 -2.08205 0.348432 0
M  V30 66249 O 6784.01 -2.18617 -0.664747 0
M  V30 66250 C 6784.22 -1.94744 2.89613 0
M  V30 66251 C 6785.56 -2.5083 3.42592 0
M  V30 66252 O 6786.59 -2.04925 2.91349 0
M  V30 66253 O 6785.45 -3.34629 4.32072 0
M  V30 66254 H 6782.54 -0.534021 0.631467 0
M  V30 66255 H 6785.09 -0.416526 1.64509 0
M  V30 66256 H 6783.86 -1.27901 3.69807 0
M  V30 66257 H 6783.48 -2.77064 2.85169 0
M  V30 66258 N 6784.48 -1.42795 -0.666894 0
M  V30 66259 C 6785.73 -1.42976 -1.4227 0
M  V30 66260 C 6786.04 -0.052552 -1.95529 0
M  V30 66261 O 6787.25 0.0682199 -2.71414 0
M  V30 66262 C 6785.7 -2.51537 -2.57404 0
M  V30 66263 C 6785.31 -3.95301 -2.10811 0
M  V30 66264 C 6787.06 -2.60895 -3.34864 0
M  V30 66265 C 6784.96 -4.95355 -3.23075 0
M  V30 66266 H 6783.89 -0.531809 -0.534505 0
M  V30 66267 H 6786.54 -1.68733 -0.721213 0
M  V30 66268 H 6784.93 -2.18958 -3.2996 0
M  V30 66269 H 6786.1 -4.37273 -1.45357 0
M  V30 66270 H 6784.41 -3.89865 -1.46268 0
M  V30 66271 H 6787.01 -3.32824 -4.18488 0
M  V30 66272 H 6787.35 -1.6551 -3.81985 0
M  V30 66273 H 6787.89 -2.92707 -2.69383 0
M  V30 66274 H 6784.63 -5.92245 -2.80937 0
M  V30 66275 H 6784.15 -4.58007 -3.87285 0
M  V30 66276 H 6785.83 -5.17435 -3.8842 0
M  V30 66277 N 6785.96 0.903962 -1.29098 0
M  V30 66278 C 6787.37 1.46926 -1.15194 0
M  V30 66279 C 6787.72 1.94543 0.254485 0
M  V30 66280 O 6786.84 1.83338 1.14962 0
M  V30 66281 C 6787.44 2.6704 -2.08506 0
M  V30 66282 C 6786 3.19719 -1.98638 0
M  V30 66283 C 6785.15 1.92414 -1.9968 0
M  V30 66284 H 6788.1 0.715715 -1.41645 0
M  V30 66285 H 6788.12 3.42632 -1.65479 0
M  V30 66286 H 6787.63 2.32353 -3.10859 0
M  V30 66287 H 6785.73 3.59108 -0.993578 0
M  V30 66288 H 6785.84 3.84305 -2.86088 0
M  V30 66289 H 6784.21 2.09936 -1.44219 0
M  V30 66290 H 6784.99 1.6001 -3.0373 0
M  V30 66291 N 6787.44 1.11505 1.11375 0
M  V30 66292 C 6788.35 0.786745 2.21015 0
M  V30 66293 C 6789.36 -0.220416 1.72598 0
M  V30 66294 O 6790.54 -0.0564189 2.01321 0
M  V30 66295 C 6787.6 0.235515 3.45899 0
M  V30 66296 C 6786.66 1.30137 4.091 0
M  V30 66297 C 6785.9 0.776347 5.28023 0
M  V30 66298 O 6786.12 -0.393361 5.69042 0
M  V30 66299 O 6785.05 1.54145 5.81827 0
M  V30 66300 H 6788.88 1.70222 2.51512 0
M  V30 66301 H 6786.46 0.890991 1.19924 0
M  V30 66302 H 6788.35 -0.0674928 4.21346 0
M  V30 66303 H 6787.02 -0.652661 3.17052 0
M  V30 66304 H 6785.93 1.6574 3.35382 0
M  V30 66305 H 6787.26 2.16296 4.42128 0
M  V30 66306 N 6788.91 -1.28992 0.905472 0
M  V30 66307 C 6789.84 -2.29973 0.404333 0
M  V30 66308 C 6790.82 -1.61838 -0.523699 0
M  V30 66309 O 6792.01 -1.89307 -0.433198 0
M  V30 66310 C 6789.14 -3.45389 -0.36386 0
M  V30 66311 C 6788.09 -4.25364 0.474272 0
M  V30 66312 C 6787.42 -5.33034 -0.421764 0
M  V30 66313 C 6788.72 -4.92914 1.72722 0
M  V30 66314 H 6790.41 -2.72139 1.24822 0
M  V30 66315 H 6787.96 -1.30829 0.601654 0
M  V30 66316 H 6789.91 -4.15113 -0.725228 0
M  V30 66317 H 6788.64 -3.0208 -1.24158 0
M  V30 66318 H 6787.3 -3.57356 0.818048 0
M  V30 66319 H 6786.94 -4.8597 -1.29778 0
M  V30 66320 H 6786.64 -5.87444 0.135367 0
M  V30 66321 H 6788.17 -6.05608 -0.779197 0
M  V30 66322 H 6789.58 -5.55044 1.43524 0
M  V30 66323 H 6787.98 -5.57283 2.22611 0
M  V30 66324 H 6789.05 -4.17874 2.45986 0
M  V30 66325 N 6790.39 -0.668564 -1.42716 0
M  V30 66326 C 6791.64 -0.187875 -2.01225 0
M  V30 66327 C 6791.96 1.20772 -1.53099 0
M  V30 66328 O 6791.23 1.80974 -0.750026 0
M  V30 66329 H 6789.81 -0.0664664 -0.744037 0
M  V30 66330 H 6792.47 -0.863675 -1.74719 0
M  V30 66331 H 6791.57 -0.18433 -3.11555 0
M  V30 66332 N 6791.87 1.52134 -0.411479 0
M  V30 66333 C 6793.12 2.02138 0.163781 0
M  V30 66334 C 6793.45 1.29643 1.4459 0
M  V30 66335 O 6792.72 0.403454 1.9027 0
M  V30 66336 C 6793.01 3.57769 0.409082 0
M  V30 66337 C 6792.86 4.4091 -0.889876 0
M  V30 66338 C 6794.18 4.23701 1.1902 0
M  V30 66339 H 6791.3 0.73471 0.0580508 0
M  V30 66340 H 6793.94 1.82004 -0.545406 0
M  V30 66341 H 6792.09 3.75055 1.0132 0
M  V30 66342 H 6793.76 4.35329 -1.52598 0
M  V30 66343 H 6792 4.07029 -1.50033 0
M  V30 66344 H 6792.68 5.47887 -0.672603 0
M  V30 66345 H 6795.15 4.10527 0.678725 0
M  V30 66346 H 6794.03 5.32529 1.33058 0
M  V30 66347 H 6794.29 3.82815 2.21145 0
M  V30 66348 N 6793.35 0.141976 1.56959 0
M  V30 66349 C 6794.28 -0.795821 2.1952 0
M  V30 66350 C 6795.26 -1.26071 1.14194 0
M  V30 66351 O 6796.44 -1.31918 1.42518 0
M  V30 66352 C 6793.57 -2.03709 2.81283 0
M  V30 66353 C 6792.53 -1.70916 3.92393 0
M  V30 66354 C 6791.85 -3.02264 4.41068 0
M  V30 66355 C 6793.15 -0.959683 5.13408 0
M  V30 66356 H 6794.85 -0.274439 2.9814 0
M  V30 66357 H 6792.39 -0.130561 1.43407 0
M  V30 66358 H 6794.35 -2.69791 3.23714 0
M  V30 66359 H 6793.07 -2.58211 1.99987 0
M  V30 66360 H 6791.73 -1.07214 3.50572 0
M  V30 66361 H 6791.38 -3.54746 3.56601 0
M  V30 66362 H 6791.08 -2.81087 5.16008 0
M  V30 66363 H 6792.6 -3.69426 4.86166 0
M  V30 66364 H 6794.02 -1.52249 5.52714 0
M  V30 66365 H 6792.41 -0.848044 5.94078 0
M  V30 66366 H 6793.48 0.0494991 4.84875 0
M  V30 66367 N 6794.83 -1.57048 -0.131813 0
M  V30 66368 C 6796.07 -1.84445 -0.843082 0
M  V30 66369 C 6796.4 -0.725844 -1.80125 0
M  V30 66370 O 6795.68 0.269368 -1.92626 0
M  V30 66371 C 6795.96 -3.22391 -1.60425 0
M  V30 66372 C 6795.82 -4.44834 -0.666548 0
M  V30 66373 C 6797.13 -3.57744 -2.56335 0
M  V30 66374 H 6794.25 -0.670907 -0.305045 0
M  V30 66375 H 6796.9 -1.89694 -0.107739 0
M  V30 66376 H 6795.05 -3.18047 -2.23111 0
M  V30 66377 H 6796.72 -4.61273 -0.0495214 0
M  V30 66378 H 6794.96 -4.33794 0.0228378 0
M  V30 66379 H 6795.63 -5.37996 -1.2355 0
M  V30 66380 H 6798.11 -3.62796 -2.0376 0
M  V30 66381 H 6796.98 -4.55266 -3.06633 0
M  V30 66382 H 6797.24 -2.84491 -3.38404 0
M  V30 66383 N 6796.3 0.401623 -1.52397 0
M  V30 66384 C 6797.53 1.17394 -1.70978 0
M  V30 66385 C 6797.95 1.83312 -0.421711 0
M  V30 66386 O 6797.31 1.70316 0.621474 0
M  V30 66387 C 6797.36 2.20713 -2.85163 0
M  V30 66388 O 6796.46 3.27024 -2.51256 0
M  V30 66389 H 6795.8 0.342342 -0.568945 0
M  V30 66390 H 6798.33 0.469786 -1.99134 0
M  V30 66391 H 6798.34 2.64919 -3.10293 0
M  V30 66392 H 6797.02 1.7212 -3.78613 0
M  V30 66393 H 6795.6 2.88044 -2.36823 0
M  V30 66394 N 6797.78 1.43146 0.659312 0
M  V30 66395 C 6799.01 1.47654 1.44506 0
M  V30 66396 C 6799.42 0.0911092 1.88981 0
M  V30 66397 O 6798.76 -0.907705 1.59707 0
M  V30 66398 C 6798.82 2.3547 2.71651 0
M  V30 66399 C 6798.49 3.83107 2.49155 0
M  V30 66400 C 6799.49 4.7437 2.12765 0
M  V30 66401 C 6797.17 4.27533 2.63668 0
M  V30 66402 C 6799.16 6.08054 1.91177 0
M  V30 66403 C 6796.85 5.61272 2.41696 0
M  V30 66404 C 6797.85 6.5135 2.05506 0
M  V30 66405 O 6797.54 7.82616 1.83759 0
M  V30 66406 H 6797.27 0.503908 0.450614 0
M  V30 66407 H 6799.82 1.88489 0.816148 0
M  V30 66408 H 6798.05 1.89511 3.37079 0
M  V30 66409 H 6799.74 2.31252 3.33582 0
M  V30 66410 H 6800.51 4.41328 2.01134 0
M  V30 66411 H 6796.39 3.577 2.90813 0
M  V30 66412 H 6799.93 6.78325 1.62854 0
M  V30 66413 H 6795.83 5.93884 2.52928 0
M  V30 66414 H 6796.6 7.94132 1.98233 0
M  V30 66415 N 6799.26 -0.897103 1.29576 0
M  V30 66416 C 6800.21 -2.02289 1.14812 0
M  V30 66417 C 6801.2 -1.69283 0.0630529 0
M  V30 66418 O 6802.41 -1.78613 0.223039 0
M  V30 66419 H 6798.78 -0.663079 0.354726 0
M  V30 66420 H 6800.75 -2.11878 2.10119 0
M  V30 66421 C 6799.5 -3.37297 0.844144 0
M  V30 66422 H 6798.83 -3.63199 1.67112 0
M  V30 66423 H 6800.27 -4.16747 0.780892 0
M  V30 66424 C 6798.73 -3.33845 -0.452667 0
M  V30 66425 O 6799.26 -3.73524 -1.47793 0
M  V30 66426 N 6797.46 -2.86945 -0.45945 0
M  V30 66427 H 6797.01 -2.54851 0.375347 0
M  V30 66428 H 6796.97 -2.85018 -1.32711 0
M  V30 66429 N 6800.74 -1.12094 -1.10782 0
M  V30 66430 C 6801.99 -0.872301 -1.82306 0
M  V30 66431 C 6802.31 0.603611 -1.85423 0
M  V30 66432 O 6801.58 1.4386 -1.3297 0
M  V30 66433 H 6800.16 -0.319721 -0.67512 0
M  V30 66434 H 6802.82 -1.4147 -1.3406 0
M  V30 66435 H 6801.92 -1.2506 -2.85948 0
M  V30 66436 N 6802.22 1.2851 -0.9123 0
M  V30 66437 C 6803.15 2.29755 -0.416524 0
M  V30 66438 C 6804.13 1.62113 0.515109 0
M  V30 66439 O 6805.31 1.89534 0.423153 0
M  V30 66440 C 6802.44 3.45577 0.345538 0
M  V30 66441 C 6801.4 4.25107 -0.496824 0
M  V30 66442 C 6800.72 5.3325 0.39349 0
M  V30 66443 C 6802.02 4.91991 -1.75333 0
M  V30 66444 H 6803.72 2.71474 -1.26263 0
M  V30 66445 H 6801.26 1.30508 -0.608584 0
M  V30 66446 H 6803.22 4.15491 0.703203 0
M  V30 66447 H 6801.94 3.02734 1.22554 0
M  V30 66448 H 6800.6 3.56917 -0.836988 0
M  V30 66449 H 6800.25 4.86651 1.27199 0
M  V30 66450 H 6799.95 5.87364 -0.166519 0
M  V30 66451 H 6801.47 6.06013 0.74707 0
M  V30 66452 H 6802.88 5.54275 -1.46466 0
M  V30 66453 H 6801.28 5.56094 -2.25564 0
M  V30 66454 H 6802.35 4.16564 -2.48198 0
M  V30 66455 N 6803.69 0.676123 1.4236 0
M  V30 66456 C 6804.92 0.205814 2.06376 0
M  V30 66457 C 6805.34 -1.12875 1.50469 0
M  V30 66458 O 6804.7 -1.70234 0.623709 0
M  V30 66459 C 6804.75 0.152845 3.60276 0
M  V30 66460 O 6803.85 -0.878238 4.0294 0
M  V30 66461 H 6803.2 0.105393 0.655582 0
M  V30 66462 H 6805.73 0.925509 1.82471 0
M  V30 66463 H 6805.74 -0.0228524 4.07994 0
M  V30 66464 H 6804.41 1.12696 4.0034 0
M  V30 66465 H 6802.99 -0.673474 3.66768 0
M  V30 66466 N 6805.17 -1.51913 0.419541 0
M  V30 66467 C 6806.42 -2.01922 -0.152833 0
M  V30 66468 C 6806.75 -1.30465 -1.44253 0
M  V30 66469 O 6806 -0.402694 -1.91512 0
M  V30 66470 C 6806.3 -3.5472 -0.43688 0
M  V30 66471 C 6805.97 -4.44365 0.764866 0
M  V30 66472 C 6804.63 -4.68588 1.09448 0
M  V30 66473 C 6806.98 -4.97074 1.56739 0
M  V30 66474 C 6804.31 -5.42766 2.22761 0
M  V30 66475 C 6806.66 -5.72493 2.69137 0
M  V30 66476 C 6805.33 -5.94984 3.02572 0
M  V30 66477 H 6804.6 -0.738887 -0.0559254 0
M  V30 66478 H 6807.24 -1.83034 0.563094 0
M  V30 66479 H 6805.55 -3.71843 -1.2345 0
M  V30 66480 H 6807.24 -3.90933 -0.892877 0
M  V30 66481 H 6803.83 -4.25697 0.498 0
M  V30 66482 H 6808.02 -4.78259 1.32597 0
M  V30 66483 H 6803.27 -5.58398 2.49001 0
M  V30 66484 H 6807.45 -6.12328 3.31703 0
M  V30 66485 H 6805.08 -6.52243 3.90491 0
M  V30 66486 N 6806.65 -0.150297 -1.56882 0
M  V30 66487 C 6807.88 0.510078 -2.0103 0
M  V30 66488 C 6808.3 1.5741 -1.02974 0
M  V30 66489 O 6807.66 1.81299 -0.00599718 0
M  V30 66490 C 6807.71 1.08454 -3.43904 0
M  V30 66491 O 6806.81 2.1993 -3.48862 0
M  V30 66492 H 6806.15 0.124417 -0.65224 0
M  V30 66493 H 6808.68 -0.248001 -2.03091 0
M  V30 66494 H 6808.69 1.41238 -3.82774 0
M  V30 66495 H 6807.37 0.305363 -4.14777 0
M  V30 66496 H 6805.94 1.88349 -3.21837 0
M  V30 66497 N 6808.13 1.57116 0.123482 0
M  V30 66498 C 6809.37 1.8489 0.833289 0
M  V30 66499 C 6809.71 0.735387 1.79738 0
M  V30 66500 O 6808.98 -0.259149 1.92766 0
M  V30 66501 C 6809.27 3.23237 1.58713 0
M  V30 66502 C 6809.12 4.45181 0.642948 0
M  V30 66503 C 6810.44 3.59098 2.54434 0
M  V30 66504 H 6807.56 0.672515 0.301483 0
M  V30 66505 H 6810.2 1.89749 0.0976779 0
M  V30 66506 H 6808.35 3.19225 2.21421 0
M  V30 66507 H 6810.02 4.61293 0.0250582 0
M  V30 66508 H 6808.26 4.33776 -0.0458426 0
M  V30 66509 H 6808.93 5.38643 1.20696 0
M  V30 66510 H 6811.41 3.63871 2.01834 0
M  V30 66511 H 6810.29 4.56886 3.04214 0
M  V30 66512 H 6810.55 2.86282 3.36891 0
M  V30 66513 N 6809.61 -0.393535 1.52608 0
M  V30 66514 C 6811.02 -0.733282 1.41757 0
M  V30 66515 C 6811.22 -1.94284 0.534396 0
M  V30 66516 O 6810.28 -2.52499 0.00611185 0
M  V30 66517 C 6811.59 -0.972621 2.84536 0
M  V30 66518 C 6813.14 -1.07437 2.93983 0
M  V30 66519 C 6813.61 -1.34637 4.37763 0
M  V30 66520 N 6815.11 -1.41469 4.41068 0
M  V30 66521 C 6815.84 -1.64171 5.49395 0
M  V30 66522 N 6815.34 -1.84375 6.67816 0
M  V30 66523 N 6817.13 -1.66314 5.36932 0
M  V30 66524 H 6809.28 0.402438 2.08553 0
M  V30 66525 H 6811.54 0.117838 0.940648 0
M  V30 66526 H 6811.25 -0.156018 3.51354 0
M  V30 66527 H 6811.12 -1.88854 3.26518 0
M  V30 66528 H 6813.51 -1.88155 2.27336 0
M  V30 66529 H 6813.59 -0.13647 2.55436 0
M  V30 66530 H 6813.24 -0.544314 5.04975 0
M  V30 66531 H 6813.17 -2.29705 4.7386 0
M  V30 66532 H 6815.66 -1.27583 3.55712 0
M  V30 66533 H 6815.97 -2.01192 7.46151 0
M  V30 66534 H 6814.31 -1.81608 6.70853 0
M  V30 66535 H 6817.51 -1.50079 4.43389 0
M  V30 66536 H 6817.68 -1.83667 6.21426 0
M  V30 66537 N 6811.08 -1.43494 -0.651711 0
M  V30 66538 C 6812.01 -1.51578 -1.77613 0
M  V30 66539 C 6813 -0.37034 -1.6602 0
M  V30 66540 O 6814.18 -0.587756 -1.85092 0
M  V30 66541 C 6811.31 -1.43982 -3.16048 0
M  V30 66542 C 6810.26 -2.56792 -3.42406 0
M  V30 66543 C 6809.59 -2.34249 -4.80658 0
M  V30 66544 C 6810.89 -3.99033 -3.37002 0
M  V30 66545 H 6812.58 -2.45691 -1.71104 0
M  V30 66546 H 6810.13 -1.1825 -0.821762 0
M  V30 66547 H 6812.08 -1.48242 -3.94465 0
M  V30 66548 H 6810.81 -0.463757 -3.23291 0
M  V30 66549 H 6809.47 -2.51887 -2.66361 0
M  V30 66550 H 6809.11 -1.34882 -4.84578 0
M  V30 66551 H 6808.81 -3.0987 -4.99254 0
M  V30 66552 H 6810.34 -2.40294 -5.6133 0
M  V30 66553 H 6811.75 -4.05416 -4.05352 0
M  V30 66554 H 6810.15 -4.74692 -3.67134 0
M  V30 66555 H 6811.22 -4.24062 -2.35158 0
M  V30 66556 N 6812.56 0.890219 -1.30049 0
M  V30 66557 C 6813.97 1.45696 -1.16746 0
M  V30 66558 C 6814.32 1.94802 0.233837 0
M  V30 66559 O 6813.45 1.84547 1.13011 0
M  V30 66560 C 6814.04 2.64814 -2.11327 0
M  V30 66561 C 6812.6 3.17594 -2.02018 0
M  V30 66562 C 6811.75 1.90285 -2.0171 0
M  V30 66563 H 6814.7 0.700651 -1.42396 0
M  V30 66564 H 6814.72 3.40858 -1.69104 0
M  V30 66565 H 6814.23 2.29043 -3.13306 0
M  V30 66566 H 6812.34 3.58034 -1.03161 0
M  V30 66567 H 6812.45 3.81249 -2.90148 0
M  V30 66568 H 6810.81 2.08394 -1.46438 0
M  V30 66569 H 6811.6 1.56779 -3.0541 0
M  V30 66570 N 6814.04 1.1268 1.10186 0
M  V30 66571 C 6815.27 0.905311 1.85709 0
M  V30 66572 C 6815.68 -0.549013 1.81059 0
M  V30 66573 O 6815.02 -1.39145 1.19935 0
M  V30 66574 C 6815.08 1.30533 3.34965 0
M  V30 66575 C 6814.75 2.77148 3.6337 0
M  V30 66576 C 6815.75 3.75332 3.59752 0
M  V30 66577 C 6813.43 3.14117 3.91964 0
M  V30 66578 C 6815.42 5.08499 3.84327 0
M  V30 66579 C 6813.11 4.47465 4.16195 0
M  V30 66580 C 6814.11 5.44466 4.12367 0
M  V30 66581 O 6813.8 6.7541 4.35978 0
M  V30 66582 H 6813.53 0.323255 0.593702 0
M  V30 66583 H 6816.08 1.5012 1.4019 0
M  V30 66584 H 6814.31 0.652664 3.81152 0
M  V30 66585 H 6816 1.05756 3.91881 0
M  V30 66586 H 6816.77 3.48117 3.37698 0
M  V30 66587 H 6812.65 2.39223 3.94073 0
M  V30 66588 H 6816.19 5.84201 3.81255 0
M  V30 66589 H 6812.09 4.74409 4.37729 0
M  V30 66590 H 6812.86 6.81394 4.5348 0
M  V30 66591 N 6815.52 -1.28025 0.919102 0
M  V30 66592 C 6816.47 -2.24765 0.382692 0
M  V30 66593 C 6817.45 -1.52663 -0.508205 0
M  V30 66594 O 6818.65 -1.73564 -0.347054 0
M  V30 66595 C 6815.77 -3.41287 -0.371252 0
M  V30 66596 C 6814.86 -4.20703 0.53567 0
M  V30 66597 N 6815.25 -4.78073 1.65166 0
M  V30 66598 C 6813.55 -4.44725 0.337059 0
M  V30 66599 C 6814.25 -5.37877 2.21503 0
M  V30 66600 N 6813.23 -5.22333 1.50564 0
M  V30 66601 H 6817.03 -2.66697 1.23491 0
M  V30 66602 H 6814.54 -1.42857 0.772374 0
M  V30 66603 H 6816.54 -4.09682 -0.772422 0
M  V30 66604 H 6815.2 -3.00888 -1.22051 0
M  V30 66605 H 6816.21 -4.76279 2.03418 0
M  V30 66606 H 6812.89 -4.14821 -0.472241 0
M  V30 66607 H 6814.28 -5.93267 3.1541 0
M  V30 66608 N 6817 -0.683663 -1.41999 0
M  V30 66609 C 6818.41 -0.354058 -1.55623 0
M  V30 66610 C 6818.61 1.13991 -1.66157 0
M  V30 66611 O 6817.67 1.92552 -1.6334 0
M  V30 66612 C 6818.98 -1.09215 -2.80165 0
M  V30 66613 C 6820.53 -1.07533 -2.93948 0
M  V30 66614 C 6821.01 -1.79493 -4.21362 0
M  V30 66615 N 6822.5 -1.76404 -4.28294 0
M  V30 66616 C 6823.23 -2.28932 -5.25716 0
M  V30 66617 N 6822.73 -2.8988 -6.29239 0
M  V30 66618 N 6824.52 -2.19256 -5.17575 0
M  V30 66619 H 6816.67 -1.65277 -1.33406 0
M  V30 66620 H 6818.93 -0.696803 -0.642783 0
M  V30 66621 H 6818.64 -2.14716 -2.7855 0
M  V30 66622 H 6818.51 -0.663057 -3.71327 0
M  V30 66623 H 6820.9 -0.0286307 -2.95086 0
M  V30 66624 H 6820.98 -1.54338 -2.03993 0
M  V30 66625 H 6820.63 -2.84136 -4.20986 0
M  V30 66626 H 6820.56 -1.30131 -5.10268 0
M  V30 66627 H 6823.05 -1.31957 -3.54113 0
M  V30 66628 H 6823.36 -3.27559 -6.99947 0
M  V30 66629 H 6821.71 -2.93953 -6.29775 0
M  V30 66630 H 6824.9 -1.71322 -4.35622 0
M  V30 66631 H 6825.07 -2.60497 -5.93334 0
M  V30 66632 N 6818.48 1.51689 -0.427592 0
M  V30 66633 C 6819.72 2.02001 0.142122 0
M  V30 66634 C 6820.05 1.31229 1.43559 0
M  V30 66635 O 6819.31 0.412845 1.91296 0
M  V30 66636 C 6819.6 3.54946 0.418062 0
M  V30 66637 C 6819.27 4.43954 -0.788421 0
M  V30 66638 C 6817.93 4.68001 -1.11931 0
M  V30 66639 C 6820.28 4.96236 -1.59373 0
M  V30 66640 C 6817.61 5.41577 -2.25636 0
M  V30 66641 C 6819.96 5.71057 -2.7217 0
M  V30 66642 C 6818.63 5.93371 -3.05724 0
M  V30 66643 H 6817.9 0.739173 0.0520062 0
M  V30 66644 H 6820.55 1.82733 -0.572793 0
M  V30 66645 H 6818.85 3.72493 1.21476 0
M  V30 66646 H 6820.55 3.91401 0.872132 0
M  V30 66647 H 6817.14 4.25427 -0.520568 0
M  V30 66648 H 6821.32 4.77549 -1.35131 0
M  V30 66649 H 6816.58 5.5707 -2.51958 0
M  V30 66650 H 6820.75 6.1056 -3.34946 0
M  V30 66651 H 6818.38 6.50163 -3.93944 0
M  V30 66652 N 6819.95 0.158615 1.568 0
M  V30 66653 C 6821.2 -0.488609 1.96105 0
M  V30 66654 C 6821.52 -1.64631 1.04507 0
M  V30 66655 O 6820.79 -1.95597 0.108886 0
M  V30 66656 H 6819.37 -0.183497 0.724112 0
M  V30 66657 H 6822.03 0.23683 1.93456 0
M  V30 66658 H 6821.13 -0.857061 3.00101 0
M  V30 66659 N 6821.43 -1.57179 -0.115148 0
M  V30 66660 C 6822.38 -2.01608 -1.16004 0
M  V30 66661 C 6823.37 -0.913662 -1.42648 0
M  V30 66662 O 6824.58 -1.09887 -1.42566 0
M  V30 66663 H 6820.95 -0.642224 -0.391218 0
M  V30 66664 H 6822.93 -2.8859 -0.758846 0
M  V30 66665 C 6821.67 -2.43953 -2.47754 0
M  V30 66666 H 6821 -3.28352 -2.28091 0
M  V30 66667 H 6822.44 -2.78835 -3.19417 0
M  V30 66668 C 6820.9 -1.30471 -3.10611 0
M  V30 66669 O 6821.43 -0.622794 -3.96843 0
M  V30 66670 N 6819.63 -1.06078 -2.70547 0
M  V30 66671 H 6819.18 -1.6171 -2.00518 0
M  V30 66672 H 6819.14 -0.303449 -3.12932 0
M  V30 66673 N 6822.91 0.385437 -1.52814 0
M  V30 66674 C 6823.86 1.49145 -1.78489 0
M  V30 66675 C 6824.85 1.56308 -0.652997 0
M  V30 66676 O 6826.06 1.59432 -0.835548 0
M  V30 66677 H 6822.43 0.496463 -0.564826 0
M  V30 66678 H 6824.4 1.24685 -2.71102 0
M  V30 66679 C 6823.15 2.86236 -1.97393 0
M  V30 66680 H 6822.48 2.81476 -2.83922 0
M  V30 66681 H 6823.92 3.62854 -2.19346 0
M  V30 66682 C 6822.37 3.28504 -0.747454 0
M  V30 66683 O 6822.9 4.01633 0.0734114 0
M  V30 66684 N 6821.11 2.84823 -0.576546 0
M  V30 66685 H 6820.66 2.25479 -1.24567 0
M  V30 66686 H 6820.62 3.13462 0.242715 0
M  V30 66687 N 6824.39 1.43837 0.644092 0
M  V30 66688 C 6825.62 1.49395 1.43139 0
M  V30 66689 C 6826.03 0.114682 1.88451 0
M  V30 66690 O 6825.39 -0.876905 1.60052 0
M  V30 66691 C 6825.44 2.44762 2.66033 0
M  V30 66692 O 6825.16 3.77326 2.22613 0
M  V30 66693 C 6826.66 2.59654 3.59297 0
M  V30 66694 H 6823.88 0.5071 0.439421 0
M  V30 66695 H 6826.42 1.88673 0.78885 0
M  V30 66696 H 6824.58 2.08655 3.26407 0
M  V30 66697 H 6824.99 4.28695 3.02193 0
M  V30 66698 H 6826.47 3.3044 4.42169 0
M  V30 66699 H 6826.94 1.64449 4.07251 0
M  V30 66700 H 6827.55 2.96609 3.048 0
M  V30 66701 N 6825.87 -0.883309 1.3052 0
M  V30 66702 C 6826.81 -1.98921 1.17043 0
M  V30 66703 C 6827.78 -1.65993 0.0595116 0
M  V30 66704 O 6828.97 -1.89409 0.229995 0
M  V30 66705 C 6826.11 -3.33955 0.869953 0
M  V30 66706 C 6825.22 -3.79563 2.06291 0
M  V30 66707 C 6824.36 -5.0325 1.70038 0
M  V30 66708 C 6823.39 -5.41271 2.85819 0
M  V30 66709 N 6822.53 -6.56139 2.49851 0
M  V30 66710 H 6827.37 -2.09781 2.11651 0
M  V30 66711 H 6824.91 -1.02714 1.05301 0
M  V30 66712 H 6826.87 -4.11681 0.676355 0
M  V30 66713 H 6825.5 -3.22776 -0.0392629 0
M  V30 66714 H 6824.55 -2.97731 2.3677 0
M  V30 66715 H 6825.86 -4.03679 2.92993 0
M  V30 66716 H 6825.01 -5.88606 1.47063 0
M  V30 66717 H 6823.75 -4.81009 0.805082 0
M  V30 66718 H 6822.76 -4.5444 3.09458 0
M  V30 66719 H 6823.98 -5.65484 3.76038 0
M  V30 66720 H 6821.93 -6.35471 1.62829 0
M  V30 66721 H 6821.85 -6.80133 3.30084 0
M  V30 66722 H 6823.11 -7.44722 2.30236 0
M  V30 66723 N 6827.34 -1.13263 -1.09587 0
M  V30 66724 C 6828.59 -0.891588 -1.8137 0
M  V30 66725 C 6828.91 0.583911 -1.86052 0
M  V30 66726 O 6828.18 1.42441 -1.34489 0
M  V30 66727 H 6826.76 -0.326864 -0.671691 0
M  V30 66728 H 6829.42 -1.42884 -1.32552 0
M  V30 66729 H 6828.52 -1.28086 -2.84606 0
M  V30 66730 N 6828.82 1.27535 -0.925878 0
M  V30 66731 C 6829.75 2.26013 -0.380872 0
M  V30 66732 C 6830.77 1.55333 0.487403 0
M  V30 66733 O 6831.96 1.75955 0.300321 0
M  V30 66734 C 6829.06 3.35582 0.473082 0
M  V30 66735 C 6828.23 4.35785 -0.375479 0
M  V30 66736 C 6827.29 5.24557 0.415533 0
M  V30 66737 O 6826.31 5.68927 -0.176134 0
M  V30 66738 N 6827.52 5.54564 1.71578 0
M  V30 66739 H 6830.28 2.73414 -1.22739 0
M  V30 66740 H 6827.84 1.41143 -0.793112 0
M  V30 66741 H 6829.83 3.91913 1.00928 0
M  V30 66742 H 6828.4 2.87796 1.22035 0
M  V30 66743 H 6827.62 3.78744 -1.09299 0
M  V30 66744 H 6828.91 4.99744 -0.955663 0
M  V30 66745 H 6828.31 5.2037 2.21883 0
M  V30 66746 H 6826.87 6.13602 2.19854 0
M  V30 66747 N 6830.3 0.691184 1.41635 0
M  V30 66748 C 6831.54 0.224398 2.03165 0
M  V30 66749 C 6831.9 -1.15276 1.53543 0
M  V30 66750 O 6833.11 -1.71514 2.06969 0
M  V30 66751 C 6831.38 0.274946 3.56341 0
M  V30 66752 S 6832.94 -0.118438 4.3864 0
M  V30 66753 H 6829.75 0.0907635 0.705183 0
M  V30 66754 H 6832.36 0.907986 1.73135 0
M  V30 66755 H 6831.06 1.27931 3.89951 0
M  V30 66756 H 6830.59 -0.427936 3.91066 0
M  V30 66757 H 6832.61 -1.34739 4.77556 0
M  V30 66758 N 6831.78 -1.5146 0.43563 0
M  V30 66759 C 6833.03 -2.01674 -0.131148 0
M  V30 66760 C 6833.35 -1.32184 -1.43361 0
M  V30 66761 O 6832.62 -0.455869 -1.90522 0
M  V30 66762 H 6831.2 -0.745226 -0.0514561 0
M  V30 66763 H 6833.86 -1.86134 0.577946 0
M  V30 66764 H 6832.96 -3.10574 -0.308283 0
M  V30 66765 N 6833.26 -0.166928 -1.56713 0
M  V30 66766 C 6834.48 0.485538 -2.01122 0
M  V30 66767 C 6834.9 1.571 -1.04714 0
M  V30 66768 O 6834.26 1.82439 -0.0472885 0
M  V30 66769 C 6834.31 1.0679 -3.45367 0
M  V30 66770 O 6834.03 0.0257685 -4.38092 0
M  V30 66771 C 6835.53 1.79902 -4.05154 0
M  V30 66772 H 6832.75 0.124669 -0.659317 0
M  V30 66773 H 6835.29 -0.267369 -2.02745 0
M  V30 66774 H 6833.45 1.77132 -3.44533 0
M  V30 66775 H 6833.86 0.455123 -5.22522 0
M  V30 66776 H 6835.34 2.15915 -5.0802 0
M  V30 66777 H 6835.81 2.6924 -3.46996 0
M  V30 66778 H 6836.42 1.14212 -4.09678 0
M  V30 66779 N 6834.73 1.57238 0.106811 0
M  V30 66780 C 6835.97 1.8731 0.818178 0
M  V30 66781 C 6836.34 0.756464 1.7647 0
M  V30 66782 O 6837.54 0.939288 2.51855 0
M  V30 66783 C 6835.81 3.2262 1.53789 0
M  V30 66784 S 6837.37 3.74357 2.28916 0
M  V30 66785 H 6834.19 0.656571 0.272828 0
M  V30 66786 H 6836.79 1.95353 0.0758849 0
M  V30 66787 H 6835.49 4.01821 0.834739 0
M  V30 66788 H 6835.02 3.17687 2.32032 0
M  V30 66789 H 6837.04 3.46834 3.54853 0
M  V30 66790 N 6836.21 -0.377327 1.53016 0
M  V30 66791 C 6837.44 -1.1421 1.72521 0
M  V30 66792 C 6837.86 -1.83387 0.448832 0
M  V30 66793 O 6837.21 -1.73122 -0.577501 0
M  V30 66794 C 6837.26 -2.18132 2.88272 0
M  V30 66795 O 6836.98 -1.51774 4.1097 0
M  V30 66796 C 6838.49 -3.07248 3.19553 0
M  V30 66797 H 6835.71 -0.34197 0.577319 0
M  V30 66798 H 6838.25 -0.43983 1.99714 0
M  V30 66799 H 6836.4 -2.83977 2.63507 0
M  V30 66800 H 6836.82 -2.2092 4.75704 0
M  V30 66801 H 6838.29 -3.76171 4.03979 0
M  V30 66802 H 6838.77 -3.71407 2.34422 0
M  V30 66803 H 6839.38 -2.47034 3.462 0
M  V30 66804 N 6837.69 -1.44177 -0.636455 0
M  V30 66805 C 6838.64 -1.50925 -1.76987 0
M  V30 66806 C 6839.63 -0.381382 -1.65051 0
M  V30 66807 O 6840.84 -0.556101 -1.71194 0
M  V30 66808 H 6837.21 -0.473486 -0.584222 0
M  V30 66809 H 6839.18 -2.46329 -1.68419 0
M  V30 66810 C 6837.93 -1.46551 -3.15306 0
M  V30 66811 H 6837.26 -2.3265 -3.25137 0
M  V30 66812 H 6838.7 -1.55332 -3.94522 0
M  V30 66813 C 6837.16 -0.185482 -3.36389 0
M  V30 66814 O 6837.69 0.746479 -3.94703 0
M  V30 66815 N 6835.89 -0.0903138 -2.9046 0
M  V30 66816 H 6835.44 -0.849545 -2.43188 0
M  V30 66817 H 6835.4 0.765393 -3.04941 0
M  V30 66818 N 6839.17 0.876375 -1.30986 0
M  V30 66819 C 6840.4 1.66183 -1.23251 0
M  V30 66820 C 6840.81 1.87703 0.203246 0
M  V30 66821 O 6840.17 1.43063 1.1331 0
M  V30 66822 C 6840.22 3.03341 -1.96639 0
M  V30 66823 O 6839.94 2.82786 -3.34609 0
M  V30 66824 C 6841.44 3.97781 -1.95665 0
M  V30 66825 H 6838.66 0.5183 -0.426153 0
M  V30 66826 H 6841.21 1.09433 -1.72756 0
M  V30 66827 H 6839.36 3.56798 -1.50911 0
M  V30 66828 H 6839.77 3.69859 -3.71893 0
M  V30 66829 H 6841.25 4.91358 -2.51537 0
M  V30 66830 H 6841.73 4.29075 -0.937621 0
M  V30 66831 H 6842.33 3.5026 -2.41243 0
M  V30 66832 N 6840.65 1.13843 1.08985 0
M  V30 66833 C 6841.87 0.9263 1.85006 0
M  V30 66834 C 6842.29 -0.525032 1.81353 0
M  V30 66835 O 6841.65 -1.3636 1.21294 0
M  V30 66836 C 6841.7 1.41173 3.32795 0
M  V30 66837 O 6841.42 2.80619 3.36429 0
M  V30 66838 C 6842.92 1.23869 4.25642 0
M  V30 66839 H 6840.14 0.330021 0.584232 0
M  V30 66840 H 6842.68 1.5121 1.3768 0
M  V30 66841 H 6840.84 0.86883 3.77532 0
M  V30 66842 H 6841.25 3.0227 4.28641 0
M  V30 66843 H 6842.73 1.62703 5.27477 0
M  V30 66844 H 6843.2 0.180882 4.38827 0
M  V30 66845 H 6843.81 1.76984 3.86726 0
M  V30 66846 N 6842.12 -1.27042 0.932629 0
M  V30 66847 C 6843.35 -1.98784 0.591579 0
M  V30 66848 C 6843.77 -1.69066 -0.824512 0
M  V30 66849 O 6843.13 -0.933759 -1.55405 0
M  V30 66850 C 6843.18 -3.50918 0.829993 0
M  V30 66851 O 6842.28 -4.12274 -0.102049 0
M  V30 66852 H 6841.63 -0.623914 0.227218 0
M  V30 66853 H 6844.16 -1.61726 1.25323 0
M  V30 66854 H 6844.17 -4.01094 0.747503 0
M  V30 66855 H 6842.84 -3.7188 1.86221 0
M  V30 66856 H 6841.42 -3.72887 0.0307728 0
M  V30 66857 N 6843.6 -0.698686 -1.41266 0
M  V30 66858 C 6844.88 -0.158865 -1.94954 0
M  V30 66859 C 6845.26 1.33179 -1.63788 0
M  V30 66860 O 6844.61 2.07974 -0.946533 0
M  V30 66861 C 6844.82 -0.453491 -3.46041 0
M  V30 66862 C 6846.17 -0.38293 -4.2287 0
M  V30 66863 O 6847.19 -0.388583 -3.54074 0
M  V30 66864 O 6846.05 -0.345751 -5.45405 0
M  V30 66865 H 6843.14 -0.0167941 -0.826829 0
M  V30 66866 H 6845.69 -0.77506 -1.50967 0
M  V30 66867 H 6844.46 -1.48518 -3.6202 0
M  V30 66868 H 6844.08 0.19352 -3.97129 0
M  V30 66869 N 6845.08 1.51226 -0.443656 0
M  V30 66870 C 6846.36 1.94761 0.180935 0
M  V30 66871 C 6846.74 1.38267 1.59516 0
M  V30 66872 O 6846.09 0.572314 2.21217 0
M  V30 66873 C 6846.3 3.48668 0.152238 0
M  V30 66874 C 6847.64 4.23116 0.3547 0
M  V30 66875 O 6848.67 3.55456 0.230069 0
M  V30 66876 O 6847.53 5.43159 0.603387 0
M  V30 66877 H 6844.62 0.817259 0.126557 0
M  V30 66878 H 6847.17 1.62102 -0.50209 0
M  V30 66879 H 6845.94 3.8226 -0.836224 0
M  V30 66880 H 6845.56 3.87787 0.877902 0
M  V30 66881 N 6846.56 0.175237 1.56623 0
M  V30 66882 C 6847.8 -0.471116 1.98897 0
M  V30 66883 C 6848.16 -1.60156 1.05897 0
M  V30 66884 O 6849.36 -2.31073 1.37327 0
M  V30 66885 C 6847.64 -0.938059 3.4487 0
M  V30 66886 S 6849.19 -1.58504 4.09172 0
M  V30 66887 H 6846.01 -0.151397 0.694694 0
M  V30 66888 H 6848.61 0.273622 1.93576 0
M  V30 66889 H 6847.32 -0.104963 4.10266 0
M  V30 66890 H 6846.85 -1.71674 3.53965 0
M  V30 66891 H 6848.86 -2.87331 4.04543 0
M  V30 66892 N 6848.04 -1.57292 -0.098471 0
M  V30 66893 C 6849.29 -1.85102 -0.801261 0
M  V30 66894 C 6849.6 -0.763997 -1.80062 0
M  V30 66895 O 6850.81 -0.929116 -2.55107 0
M  V30 66896 C 6849.26 -3.2825 -1.47581 0
M  V30 66897 C 6848.87 -4.45014 -0.51639 0
M  V30 66898 C 6850.61 -3.65287 -2.16253 0
M  V30 66899 C 6848.52 -5.79194 -1.19534 0
M  V30 66900 H 6847.45 -0.690446 -0.302985 0
M  V30 66901 H 6850.1 -1.8342 -0.0541656 0
M  V30 66902 H 6848.48 -3.24462 -2.27025 0
M  V30 66903 H 6849.66 -4.60141 0.246308 0
M  V30 66904 H 6847.97 -4.1635 0.0644465 0
M  V30 66905 H 6850.57 -4.62817 -2.67778 0
M  V30 66906 H 6850.91 -2.93743 -2.94993 0
M  V30 66907 H 6851.45 -3.70948 -1.43673 0
M  V30 66908 H 6848.18 -6.53962 -0.448812 0
M  V30 66909 H 6847.7 -5.67916 -1.92954 0
M  V30 66910 H 6849.38 -6.23642 -1.72277 0
M  V30 66911 N 6849.52 0.369207 -1.53214 0
M  V30 66912 C 6850.45 1.45816 -1.82373 0
M  V30 66913 C 6851.43 1.56048 -0.67699 0
M  V30 66914 O 6852.61 1.70674 -0.926491 0
M  V30 66915 C 6849.74 2.83198 -2.01038 0
M  V30 66916 C 6848.7 2.87793 -3.16795 0
M  V30 66917 C 6848.02 4.27815 -3.20747 0
M  V30 66918 C 6849.32 2.55643 -4.5546 0
M  V30 66919 H 6851.02 1.21664 -2.73566 0
M  V30 66920 H 6848.56 0.583841 -1.31633 0
M  V30 66921 H 6850.51 3.59401 -2.2002 0
M  V30 66922 H 6849.24 3.0873 -1.06552 0
M  V30 66923 H 6847.9 2.1404 -2.97628 0
M  V30 66924 H 6847.55 4.50417 -2.23905 0
M  V30 66925 H 6847.25 4.31806 -3.98519 0
M  V30 66926 H 6848.77 5.05897 -3.41908 0
M  V30 66927 H 6850.18 3.21561 -4.74628 0
M  V30 66928 H 6848.58 2.70956 -5.35446 0
M  V30 66929 H 6849.65 1.50906 -4.6082 0
M  V30 66930 N 6850.99 1.44512 0.6288 0
M  V30 66931 C 6852.4 1.42143 1.21046 0
M  V30 66932 C 6852.76 0.137985 1.95714 0
M  V30 66933 O 6851.88 -0.761538 2.02558 0
M  V30 66934 C 6852.48 2.57504 2.20175 0
M  V30 66935 C 6851.03 2.58323 2.73763 0
M  V30 66936 C 6850.18 2.33995 1.48801 0
M  V30 66937 H 6853.13 1.5306 0.419339 0
M  V30 66938 H 6853.15 2.30391 3.02821 0
M  V30 66939 H 6852.67 3.50901 1.65802 0
M  V30 66940 H 6850.77 1.68874 3.32133 0
M  V30 66941 H 6850.88 3.56882 3.19643 0
M  V30 66942 H 6849.24 1.83134 1.77015 0
M  V30 66943 H 6850.03 3.29509 0.963268 0
M  V30 66944 N 6852.47 -0.869416 1.31449 0
M  V30 66945 C 6853.7 -1.66052 1.24264 0
M  V30 66946 C 6854.12 -1.8715 -0.188829 0
M  V30 66947 O 6853.48 -1.41366 -1.13514 0
M  V30 66948 C 6853.53 -3.00548 1.99256 0
M  V30 66949 O 6852.63 -3.90355 1.33028 0
M  V30 66950 H 6851.97 -0.506809 0.429 0
M  V30 66951 H 6854.5 -1.08395 1.73527 0
M  V30 66952 H 6854.51 -3.5048 2.08872 0
M  V30 66953 H 6853.19 -2.84512 3.03357 0
M  V30 66954 H 6851.76 -3.48806 1.31867 0
M  V30 66955 N 6853.95 -1.14419 -1.08379 0
M  V30 66956 C 6855.2 -0.910774 -1.80414 0
M  V30 66957 C 6855.52 0.564145 -1.86661 0
M  V30 66958 O 6854.79 1.41007 -1.35992 0
M  V30 66959 H 6853.37 -0.333969 -0.668187 0
M  V30 66960 H 6856.03 -1.44282 -1.31029 0
M  V30 66961 H 6855.13 -1.31097 -2.83231 0
M  V30 66962 N 6855.43 1.26546 -0.939353 0
M  V30 66963 C 6856.34 2.30174 -0.453554 0
M  V30 66964 C 6857.35 1.67488 0.471561 0
M  V30 66965 O 6858.53 1.98308 0.351535 0
M  V30 66966 C 6855.59 3.45606 0.275144 0
M  V30 66967 C 6854.66 4.23779 -0.686308 0
M  V30 66968 C 6853.89 5.33699 0.00770851 0
M  V30 66969 O 6854.11 5.57091 1.22498 0
M  V30 66970 O 6853.05 5.98159 -0.670062 0
M  V30 66971 H 6856.87 2.73788 -1.3143 0
M  V30 66972 H 6854.46 1.31711 -0.705165 0
M  V30 66973 H 6856.34 4.15784 0.685692 0
M  V30 66974 H 6855.01 3.04026 1.11131 0
M  V30 66975 H 6853.92 3.5609 -1.14677 0
M  V30 66976 H 6855.25 4.69104 -1.49004 0
M  V30 66977 N 6856.91 0.706168 1.40894 0
M  V30 66978 C 6858.15 0.23868 2.00283 0
M  V30 66979 C 6858.47 -1.17186 1.56611 0
M  V30 66980 O 6859.67 -1.73737 2.08633 0
M  V30 66981 C 6858.13 0.375812 3.57932 0
M  V30 66982 C 6857.74 1.79239 4.10582 0
M  V30 66983 C 6859.48 -0.0313619 4.24488 0
M  V30 66984 C 6857.39 1.88061 5.60702 0
M  V30 66985 H 6856.32 0.0854793 0.749139 0
M  V30 66986 H 6858.97 0.875898 1.61246 0
M  V30 66987 H 6857.35 -0.329834 3.94624 0
M  V30 66988 H 6858.53 2.52765 3.85287 0
M  V30 66989 H 6856.84 2.15018 3.56589 0
M  V30 66990 H 6859.44 0.0139662 5.34698 0
M  V30 66991 H 6859.78 -1.07179 4.02267 0
M  V30 66992 H 6860.31 0.624388 3.92869 0
M  V30 66993 H 6857.05 2.90192 5.87766 0
M  V30 66994 H 6856.57 1.18934 5.8789 0
M  V30 66995 H 6858.25 1.64838 6.2565 0
M  V30 66996 N 6858.38 -1.50989 0.45167 0
M  V30 66997 C 6859.63 -2.02501 -0.11013 0
M  V30 66998 C 6859.96 -1.33431 -1.41102 0
M  V30 66999 O 6859.24 -0.453758 -1.89133 0
M  V30 67000 C 6859.52 -3.58728 -0.314082 0
M  V30 67001 C 6859.37 -4.38395 1.00646 0
M  V30 67002 C 6860.69 -4.26707 -1.07744 0
M  V30 67003 H 6857.81 -0.735991 -0.0385509 0
M  V30 67004 H 6860.45 -1.80494 0.59347 0
M  V30 67005 H 6858.6 -3.7761 -0.913402 0
M  V30 67006 H 6860.28 -4.3113 1.64087 0
M  V30 67007 H 6858.52 -4.02908 1.60772 0
M  V30 67008 H 6859.19 -5.45911 0.817629 0
M  V30 67009 H 6861.67 -4.12182 -0.569643 0
M  V30 67010 H 6860.54 -5.35869 -1.18892 0
M  V30 67011 H 6860.8 -3.88543 -2.10918 0
M  V30 67012 N 6859.86 -0.183541 -1.56528 0
M  V30 67013 C 6861.09 0.467322 -2.02066 0
M  V30 67014 C 6861.51 1.5519 -1.0629 0
M  V30 67015 O 6860.87 1.81245 -0.044452 0
M  V30 67016 C 6860.92 1.01135 -3.46127 0
M  V30 67017 O 6860.02 2.12481 -3.53448 0
M  V30 67018 H 6859.36 0.110554 -0.654732 0
M  V30 67019 H 6861.89 -0.291024 -2.0252 0
M  V30 67020 H 6861.9 1.33087 -3.85683 0
M  V30 67021 H 6860.58 0.217314 -4.15332 0
M  V30 67022 H 6859.16 1.8148 -3.2576 0
M  V30 67023 N 6861.34 1.57342 0.090128 0
M  V30 67024 C 6862.29 2.03428 1.12782 0
M  V30 67025 C 6863.28 0.936241 1.41177 0
M  V30 67026 O 6864.49 1.12141 1.40799 0
M  V30 67027 H 6860.86 0.648367 0.380952 0
M  V30 67028 H 6862.83 2.89761 0.712837 0
M  V30 67029 C 6861.58 2.47864 2.43842 0
M  V30 67030 H 6860.91 3.31939 2.22838 0
M  V30 67031 H 6862.35 2.83881 3.1494 0
M  V30 67032 C 6860.81 1.35396 3.08496 0
M  V30 67033 O 6861.34 0.685849 3.95802 0
M  V30 67034 N 6859.54 1.10369 2.68825 0
M  V30 67035 H 6859.09 1.6488 1.9792 0
M  V30 67036 H 6859.05 0.353196 3.1241 0
M  V30 67037 N 6862.82 -0.361077 1.53408 0
M  V30 67038 C 6864.06 -1.11188 1.71513 0
M  V30 67039 C 6864.42 -1.86422 0.459435 0
M  V30 67040 O 6865.62 -2.63777 0.517241 0
M  V30 67041 C 6863.89 -2.04204 2.93318 0
M  V30 67042 S 6865.45 -2.86744 3.3215 0
M  V30 67043 H 6862.27 -0.375963 0.603468 0
M  V30 67044 H 6864.87 -0.392541 1.91519 0
M  V30 67045 H 6863.58 -1.47704 3.82899 0
M  V30 67046 H 6863.11 -2.80603 2.75727 0
M  V30 67047 H 6865.12 -4.06529 2.84514 0
M  V30 67048 N 6864.3 -1.44844 -0.621128 0
M  V30 67049 C 6865.21 -1.54989 -1.76112 0
M  V30 67050 C 6866.22 -0.435016 -1.68474 0
M  V30 67051 O 6867.4 -0.693792 -1.89073 0
M  V30 67052 C 6864.46 -1.50081 -3.12533 0
M  V30 67053 C 6863.52 -2.725 -3.31726 0
M  V30 67054 C 6862.76 -2.67816 -4.61639 0
M  V30 67055 O 6862.98 -1.7438 -5.43091 0
M  V30 67056 O 6861.91 -3.58819 -4.83252 0
M  V30 67057 H 6865.74 -2.5132 -1.70505 0
M  V30 67058 H 6863.33 -1.27202 -0.783576 0
M  V30 67059 H 6865.21 -1.49903 -3.93836 0
M  V30 67060 H 6863.88 -0.568974 -3.1866 0
M  V30 67061 H 6862.79 -2.78244 -2.50063 0
M  V30 67062 H 6864.12 -3.64764 -3.30467 0
M  V30 67063 N 6865.77 0.862433 -1.31908 0
M  V30 67064 C 6866.74 1.95189 -1.20141 0
M  V30 67065 C 6867.74 1.60302 -0.126493 0
M  V30 67066 O 6868.93 1.70087 -0.376324 0
M  V30 67067 C 6866.06 3.30239 -0.845865 0
M  V30 67068 H 6867.25 2.07053 -2.16954 0
M  V30 67069 H 6864.81 1.05166 -1.15628 0
M  V30 67070 H 6865.54 3.24075 0.120786 0
M  V30 67071 H 6865.33 3.56935 -1.62295 0
M  V30 67072 H 6866.82 4.10105 -0.787634 0
M  V30 67073 N 6867.25 1.14992 1.07771 0
M  V30 67074 C 6868.22 0.84547 2.13036 0
M  V30 67075 C 6869.22 -0.152846 1.60072 0
M  V30 67076 O 6870.41 0.0762797 1.74033 0
M  V30 67077 C 6867.54 0.261563 3.39895 0
M  V30 67078 H 6868.73 1.77846 2.41476 0
M  V30 67079 H 6866.28 0.956822 1.2359 0
M  V30 67080 H 6867.02 -0.679833 3.17094 0
M  V30 67081 H 6866.8 0.980714 3.79637 0
M  V30 67082 H 6868.29 0.0659889 4.17548 0
M  V30 67083 N 6868.73 -1.26046 0.946051 0
M  V30 67084 C 6869.69 -2.24454 0.464015 0
M  V30 67085 C 6870.69 -1.55011 -0.427573 0
M  V30 67086 O 6871.88 -1.72727 -0.226066 0
M  V30 67087 C 6869.02 -3.39293 -0.330633 0
M  V30 67088 H 6870.21 -2.68612 1.33371 0
M  V30 67089 H 6867.76 -1.38285 0.728489 0
M  V30 67090 H 6868.5 -3.00544 -1.21836 0
M  V30 67091 H 6868.28 -3.90881 0.308885 0
M  V30 67092 H 6869.77 -4.12389 -0.657648 0
M  V30 67093 N 6870.21 -0.71363 -1.40517 0
M  V30 67094 C 6871.49 -0.179533 -1.94774 0
M  V30 67095 C 6871.87 1.31435 -1.65191 0
M  V30 67096 O 6871.21 2.06958 -0.968538 0
M  V30 67097 C 6871.42 -0.490168 -3.45541 0
M  V30 67098 C 6872.77 -0.427759 -4.2244 0
M  V30 67099 O 6873.8 -0.426115 -3.53642 0
M  V30 67100 O 6872.65 -0.403579 -5.45008 0
M  V30 67101 H 6869.75 -0.0255628 -0.826605 0
M  V30 67102 H 6872.29 -0.791028 -1.50136 0
M  V30 67103 H 6871.07 -1.52349 -3.60424 0
M  V30 67104 H 6870.69 0.151388 -3.97312 0
M  V30 67105 N 6871.69 1.50747 -0.459671 0
M  V30 67106 C 6872.62 2.26086 0.376531 0
M  V30 67107 C 6873.63 1.30966 0.96704 0
M  V30 67108 O 6874.82 1.5656 0.857385 0
M  V30 67109 C 6871.92 3.01841 1.54096 0
M  V30 67110 C 6871.09 4.24229 1.0653 0
M  V30 67111 C 6870.15 4.82373 2.10244 0
M  V30 67112 O 6869.18 5.43604 1.68769 0
M  V30 67113 N 6870.38 4.68365 3.42949 0
M  V30 67114 H 6873.15 2.98488 -0.269281 0
M  V30 67115 H 6870.71 1.59285 -0.289804 0
M  V30 67116 H 6872.7 3.3762 2.23147 0
M  V30 67117 H 6871.27 2.32309 2.09168 0
M  V30 67118 H 6870.49 3.93687 0.201067 0
M  V30 67119 H 6871.78 5.03605 0.72525 0
M  V30 67120 H 6871.17 4.19643 3.79363 0
M  V30 67121 H 6869.73 5.08446 4.07831 0
M  V30 67122 N 6873.17 0.191839 1.56428 0
M  V30 67123 C 6874.41 -0.441838 1.98543 0
M  V30 67124 C 6874.77 -1.59462 1.07654 0
M  V30 67125 O 6874.06 -1.91222 0.120292 0
M  V30 67126 C 6874.25 -0.953202 3.44454 0
M  V30 67127 C 6874.08 0.148499 4.49455 0
M  V30 67128 C 6872.85 0.605046 5.01665 0
M  V30 67129 C 6875.05 0.956287 5.05331 0
M  V30 67130 N 6873.03 1.68491 5.90325 0
M  V30 67131 C 6874.4 1.88562 5.9063 0
M  V30 67132 C 6876.46 0.999068 4.87774 0
M  V30 67133 C 6875.16 2.85418 6.60249 0
M  V30 67134 C 6877.19 1.95566 5.58129 0
M  V30 67135 C 6876.55 2.87244 6.43172 0
M  V30 67136 H 6872.65 -0.129195 0.771254 0
M  V30 67137 H 6875.23 0.296784 1.92425 0
M  V30 67138 H 6873.4 -1.66128 3.51079 0
M  V30 67139 H 6875.14 -1.55721 3.73541 0
M  V30 67140 H 6871.89 0.198986 4.73182 0
M  V30 67141 H 6872.31 2.22595 6.3936 0
M  V30 67142 H 6876.96 0.304271 4.21704 0
M  V30 67143 H 6874.67 3.55875 7.25519 0
M  V30 67144 H 6878.26 1.99513 5.46521 0
M  V30 67145 H 6877.14 3.60058 6.96655 0
M  V30 67146 N 6874.64 -1.57388 -0.0817825 0
M  V30 67147 C 6875.57 -2.06034 -1.09874 0
M  V30 67148 C 6876.55 -0.951848 -1.40975 0
M  V30 67149 O 6877.74 -1.22395 -1.50775 0
M  V30 67150 C 6874.87 -2.49592 -2.41497 0
M  V30 67151 C 6873.82 -3.64227 -2.24773 0
M  V30 67152 C 6873.15 -3.93806 -3.61692 0
M  V30 67153 C 6874.45 -4.94638 -1.67723 0
M  V30 67154 H 6876.14 -2.91246 -0.693975 0
M  V30 67155 H 6873.69 -1.40112 -0.332374 0
M  V30 67156 H 6875.64 -2.82235 -3.12924 0
M  V30 67157 H 6874.37 -1.61396 -2.83935 0
M  V30 67158 H 6873.03 -3.31851 -1.5579 0
M  V30 67159 H 6872.67 -3.02757 -4.01681 0
M  V30 67160 H 6872.37 -4.7099 -3.51344 0
M  V30 67161 H 6873.9 -4.28936 -4.34564 0
M  V30 67162 H 6875.31 -5.25576 -2.29004 0
M  V30 67163 H 6873.71 -5.76076 -1.68098 0
M  V30 67164 H 6874.78 -4.80687 -0.637806 0
M  V30 67165 N 6876.12 0.352936 -1.53597 0
M  V30 67166 C 6877.37 1.09584 -1.70643 0
M  V30 67167 C 6877.7 1.88591 -0.463386 0
M  V30 67168 O 6876.98 1.86868 0.539499 0
M  V30 67169 C 6877.26 2.04473 -2.96416 0
M  V30 67170 C 6877.11 1.28992 -4.30907 0
M  V30 67171 C 6878.43 3.04423 -3.17828 0
M  V30 67172 H 6875.55 0.397001 -0.620934 0
M  V30 67173 H 6878.19 0.375348 -1.86256 0
M  V30 67174 H 6876.34 2.65912 -2.83237 0
M  V30 67175 H 6878.01 0.702398 -4.55921 0
M  V30 67176 H 6876.26 0.591845 -4.29744 0
M  V30 67177 H 6876.93 1.9851 -5.15071 0
M  V30 67178 H 6879.4 2.53095 -3.30276 0
M  V30 67179 H 6878.28 3.68028 -4.07243 0
M  V30 67180 H 6878.54 3.75289 -2.33689 0
M  V30 67181 N 6877.6 1.45171 0.613438 0
M  V30 67182 C 6878.55 1.53721 1.74564 0
M  V30 67183 C 6879.54 0.407592 1.64423 0
M  V30 67184 O 6880.75 0.583266 1.70288 0
M  V30 67185 H 6877.12 0.48272 0.576615 0
M  V30 67186 H 6879.09 2.48977 1.64478 0
M  V30 67187 C 6877.84 1.51548 3.12935 0
M  V30 67188 H 6877.17 2.37793 3.21394 0
M  V30 67189 H 6878.61 1.61589 3.92001 0
M  V30 67190 C 6877.06 0.238975 3.36051 0
M  V30 67191 O 6877.59 -0.683591 3.95841 0
M  V30 67192 N 6875.8 0.136512 2.90279 0
M  V30 67193 H 6875.35 0.888126 2.41806 0
M  V30 67194 H 6875.31 -0.716782 3.0612 0
M  V30 67195 N 6879.08 -0.855426 1.32364 0
M  V30 67196 C 6880.35 -1.59303 1.13499 0
M  V30 67197 C 6880.73 -2.08886 -0.30492 0
M  V30 67198 O 6880.08 -1.87818 -1.30141 0
M  V30 67199 C 6880.29 -2.73976 2.1619 0
M  V30 67200 C 6881.64 -3.43576 2.49481 0
M  V30 67201 O 6882.66 -2.842 2.1473 0
M  V30 67202 O 6881.52 -4.50722 3.0905 0
M  V30 67203 H 6878.62 -0.701535 0.437923 0
M  V30 67204 H 6881.16 -0.89962 1.43892 0
M  V30 67205 H 6879.94 -2.34857 3.12982 0
M  V30 67206 H 6879.56 -3.50993 1.86787 0
M  V30 67207 N 6880.56 -1.15562 -1.0716 0
M  V30 67208 C 6881.97 -0.940778 -1.61265 0
M  V30 67209 C 6882.32 0.517452 -1.89253 0
M  V30 67210 O 6881.44 1.38894 -1.65944 0
M  V30 67211 C 6882.04 -1.70135 -2.92984 0
M  V30 67212 C 6880.6 -1.53174 -3.43824 0
M  V30 67213 C 6879.74 -1.7157 -2.17851 0
M  V30 67214 H 6882.69 -1.30559 -0.902221 0
M  V30 67215 H 6882.72 -1.172 -3.62001 0
M  V30 67216 H 6882.23 -2.76263 -2.72581 0
M  V30 67217 H 6880.33 -0.494489 -3.69304 0
M  V30 67218 H 6880.44 -2.30998 -4.19734 0
M  V30 67219 H 6878.81 -1.14237 -2.27644 0
M  V30 67220 H 6879.59 -2.79067 -1.99941 0
M  V30 67221 N 6882.03 1.25543 -0.952722 0
M  V30 67222 C 6883.26 1.97818 -0.623129 0
M  V30 67223 C 6883.68 1.70357 0.797511 0
M  V30 67224 O 6883.04 0.958364 1.539 0
M  V30 67225 C 6883.09 3.49553 -0.885716 0
M  V30 67226 O 6882.19 4.12384 0.0364467 0
M  V30 67227 H 6881.53 0.62022 -0.237115 0
M  V30 67228 H 6884.06 1.59712 -1.2788 0
M  V30 67229 H 6884.07 3.99854 -0.811219 0
M  V30 67230 H 6882.75 3.6887 -1.92114 0
M  V30 67231 H 6881.33 3.72791 -0.090092 0
M  V30 67232 N 6883.51 0.721072 1.40137 0
M  V30 67233 C 6884.46 0.0720406 2.30688 0
M  V30 67234 C 6885.43 -0.744506 1.4848 0
M  V30 67235 O 6886.61 -0.707329 1.77205 0
M  V30 67236 C 6883.75 -0.839678 3.34729 0
M  V30 67237 C 6882.87 -0.012016 4.31998 0
M  V30 67238 C 6882 -0.923719 5.23107 0
M  V30 67239 C 6881.04 -0.0904742 6.12033 0
M  V30 67240 N 6880.18 -0.957351 6.95542 0
M  V30 67241 H 6885.02 0.849906 2.85623 0
M  V30 67242 H 6882.55 0.4308 1.4065 0
M  V30 67243 H 6884.51 -1.38258 3.93625 0
M  V30 67244 H 6883.14 -1.58367 2.81283 0
M  V30 67245 H 6882.19 0.648138 3.74838 0
M  V30 67246 H 6883.51 0.632856 4.94769 0
M  V30 67247 H 6882.66 -1.53496 5.86962 0
M  V30 67248 H 6881.4 -1.6024 4.60624 0
M  V30 67249 H 6880.4 0.533666 5.47204 0
M  V30 67250 H 6881.63 0.584785 6.76577 0
M  V30 67251 H 6879.58 -1.62158 6.35642 0
M  V30 67252 H 6879.49 -0.368642 7.55101 0
M  V30 67253 H 6880.76 -1.5546 7.63841 0
M  V30 67254 N 6884.99 -1.50502 0.467659 0
M  V30 67255 C 6886.4 -1.86696 0.011715 0
M  V30 67256 C 6886.75 -1.38272 -1.39195 0
M  V30 67257 O 6885.88 -0.74624 -2.03126 0
M  V30 67258 C 6886.47 -3.38797 0.0144831 0
M  V30 67259 C 6885.03 -3.74416 -0.385978 0
M  V30 67260 C 6884.18 -2.74379 0.401432 0
M  V30 67261 H 6887.13 -1.43294 0.682098 0
M  V30 67262 H 6887.15 -3.72242 -0.788445 0
M  V30 67263 H 6886.66 -3.74011 1.03621 0
M  V30 67264 H 6884.76 -3.44801 -1.41219 0
M  V30 67265 H 6884.88 -4.79016 -0.089707 0
M  V30 67266 H 6883.24 -2.5429 -0.144402 0
M  V30 67267 H 6884.02 -3.12437 1.42261 0
M  V30 67268 N 6886.47 -0.200132 -1.56324 0
M  V30 67269 C 6887.42 0.731629 -2.15943 0
M  V30 67270 C 6888.4 1.17275 -1.10161 0
M  V30 67271 O 6889.59 1.13031 -1.36209 0
M  V30 67272 C 6886.72 1.9488 -2.82625 0
M  V30 67273 C 6885.81 1.52835 -3.95604 0
M  V30 67274 N 6886.2 0.819155 -4.99123 0
M  V30 67275 C 6884.5 1.81726 -4.07298 0
M  V30 67276 C 6885.2 0.607748 -5.78516 0
M  V30 67277 N 6884.17 1.158 -5.31123 0
M  V30 67278 H 6887.98 0.18113 -2.93341 0
M  V30 67279 H 6885.49 -0.000537809 -1.624 0
M  V30 67280 H 6887.49 2.62684 -3.23732 0
M  V30 67281 H 6886.15 2.50397 -2.06716 0
M  V30 67282 H 6887.16 0.474088 -5.15726 0
M  V30 67283 H 6883.84 2.38716 -3.42521 0
M  V30 67284 H 6885.23 0.0448076 -6.71885 0
M  V30 67285 N 6887.95 1.57429 0.0734347 0
M  V30 67286 C 6889.19 1.89004 0.778263 0
M  V30 67287 C 6889.55 0.793726 1.74826 0
M  V30 67288 O 6890.75 0.992499 2.49806 0
M  V30 67289 C 6889.02 3.25809 1.46912 0
M  V30 67290 S 6890.58 3.79128 2.20923 0
M  V30 67291 H 6887.4 0.662211 0.258839 0
M  V30 67292 H 6890 1.9547 0.0344307 0
M  V30 67293 H 6888.71 4.03501 0.749319 0
M  V30 67294 H 6888.24 3.22537 2.25241 0
M  V30 67295 H 6890.25 3.54283 3.47416 0
M  V30 67296 N 6889.42 -0.344785 1.53782 0
M  V30 67297 C 6890.84 -0.920466 1.62432 0
M  V30 67298 C 6891.19 -1.89594 0.504847 0
M  V30 67299 O 6890.31 -2.13289 -0.365598 0
M  V30 67300 C 6890.91 -1.67624 2.94428 0
M  V30 67301 C 6889.47 -2.20095 3.05344 0
M  V30 67302 C 6888.61 -1.01969 2.57871 0
M  V30 67303 H 6891.56 -0.122958 1.58223 0
M  V30 67304 H 6891.58 -2.53902 2.83398 0
M  V30 67305 H 6891.1 -0.966025 3.75885 0
M  V30 67306 H 6889.2 -2.94296 2.28518 0
M  V30 67307 H 6889.31 -2.46551 4.10791 0
M  V30 67308 H 6887.67 -1.39274 2.13248 0
M  V30 67309 H 6888.46 -0.324128 3.41766 0
M  V30 67310 N 6890.9 -1.45495 -0.60573 0
M  V30 67311 C 6891.85 -1.50733 -1.71066 0
M  V30 67312 C 6892.84 -0.370413 -1.56578 0
M  V30 67313 O 6894.03 -0.617386 -1.65884 0
M  V30 67314 C 6891.16 -1.47868 -3.09822 0
M  V30 67315 C 6890.24 -2.66769 -3.2969 0
M  V30 67316 N 6890.63 -3.91861 -3.1981 0
M  V30 67317 C 6888.93 -2.62505 -3.60565 0
M  V30 67318 C 6889.63 -4.71226 -3.41058 0
M  V30 67319 N 6888.61 -4.02712 -3.65136 0
M  V30 67320 H 6892.41 -2.45271 -1.61924 0
M  V30 67321 H 6889.93 -1.40813 -0.809046 0
M  V30 67322 H 6891.92 -1.49706 -3.89093 0
M  V30 67323 H 6890.58 -0.543883 -3.20112 0
M  V30 67324 H 6891.59 -4.23455 -2.98172 0
M  V30 67325 H 6888.27 -1.77942 -3.77681 0
M  V30 67326 H 6889.66 -5.80229 -3.38798 0
M  V30 67327 N 6892.38 0.848394 -1.32816 0
M  V30 67328 C 6893.61 1.64054 -1.2689 0
M  V30 67329 C 6894.03 1.87427 0.159031 0
M  V30 67330 O 6893.39 1.43154 1.11251 0
M  V30 67331 C 6893.44 2.9734 -2.04013 0
M  V30 67332 O 6892.54 3.8819 -1.39221 0
M  V30 67333 H 6891.88 0.49992 -0.437009 0
M  V30 67334 H 6894.41 1.05621 -1.7523 0
M  V30 67335 H 6894.42 3.47113 -2.14421 0
M  V30 67336 H 6893.1 2.7965 -3.07845 0
M  V30 67337 H 6891.67 3.46664 -1.37399 0
M  V30 67338 N 6893.86 1.16129 1.06545 0
M  V30 67339 C 6895.08 0.965832 1.83539 0
M  V30 67340 C 6895.51 -0.481007 1.81846 0
M  V30 67341 O 6894.87 -1.34347 1.21739 0
M  V30 67342 C 6894.91 1.49474 3.28161 0
M  V30 67343 O 6894.02 0.699371 4.06427 0
M  V30 67344 H 6893.36 0.343894 0.568008 0
M  V30 67345 H 6895.89 1.54306 1.34354 0
M  V30 67346 H 6895.9 1.51112 3.78985 0
M  V30 67347 H 6894.57 2.54801 3.28708 0
M  V30 67348 H 6893.15 0.753293 3.65212 0
M  V30 67349 N 6895.34 -1.25036 0.959367 0
M  V30 67350 C 6896.56 -1.97485 0.633611 0
M  V30 67351 C 6896.99 -1.70777 -0.788465 0
M  V30 67352 O 6896.34 -0.966512 -1.53389 0
M  V30 67353 C 6896.39 -3.49079 0.904241 0
M  V30 67354 O 6895.5 -4.12397 -0.0145765 0
M  V30 67355 H 6894.84 -0.618954 0.240401 0
M  V30 67356 H 6897.37 -1.59031 1.28725 0
M  V30 67357 H 6897.38 -3.99418 0.832413 0
M  V30 67358 H 6896.05 -3.67846 1.94067 0
M  V30 67359 H 6894.63 -3.72738 0.109861 0
M  V30 67360 N 6896.81 -0.728493 -1.39752 0
M  V30 67361 C 6898.04 -0.283637 -2.04947 0
M  V30 67362 C 6898.46 1.07922 -1.54914 0
M  V30 67363 O 6897.81 1.68071 -0.711223 0
M  V30 67364 C 6897.87 -0.269147 -3.60497 0
M  V30 67365 O 6897.59 -1.5782 -4.08686 0
M  V30 67366 C 6899.09 0.192678 -4.42881 0
M  V30 67367 H 6896.31 -0.125091 -0.659237 0
M  V30 67368 H 6898.85 -0.99032 -1.78922 0
M  V30 67369 H 6897.01 0.388598 -3.85446 0
M  V30 67370 H 6897.42 -1.48736 -5.02969 0
M  V30 67371 H 6898.89 0.151661 -5.51792 0
M  V30 67372 H 6899.37 1.23686 -4.21424 0
M  V30 67373 H 6899.98 -0.435262 -4.23067 0
M  V30 67374 N 6898.29 1.50251 -0.475634 0
M  V30 67375 C 6899.52 2.06763 0.0753402 0
M  V30 67376 C 6899.94 1.33899 1.33104 0
M  V30 67377 O 6899.29 0.409614 1.77844 0
M  V30 67378 C 6899.34 3.59715 0.358818 0
M  V30 67379 O 6899.06 4.29833 -0.847078 0
M  V30 67380 C 6900.57 4.32863 0.956255 0
M  V30 67381 H 6897.79 0.670938 -0.00911063 0
M  V30 67382 H 6900.33 1.93361 -0.66572 0
M  V30 67383 H 6898.48 3.72904 1.04982 0
M  V30 67384 H 6898.9 5.21121 -0.594437 0
M  V30 67385 H 6900.37 5.4084 1.10435 0
M  V30 67386 H 6900.85 3.93659 1.94754 0
M  V30 67387 H 6901.46 4.24216 0.303499 0
M  V30 67388 N 6899.77 0.20842 1.56216 0
M  V30 67389 C 6900.72 -0.707076 2.19702 0
M  V30 67390 C 6901.69 -1.20002 1.14842 0
M  V30 67391 O 6902.87 -1.2615 1.43147 0
M  V30 67392 C 6900.01 -1.91531 2.87071 0
M  V30 67393 C 6899.13 -1.4625 4.06491 0
M  V30 67394 C 6898.26 -2.62727 4.61679 0
M  V30 67395 C 6897.3 -2.14117 5.73429 0
M  V30 67396 N 6896.44 -3.2382 6.22965 0
M  V30 67397 H 6901.28 -0.158954 2.97576 0
M  V30 67398 H 6898.81 -0.0667099 1.46949 0
M  V30 67399 H 6900.77 -2.62451 3.24307 0
M  V30 67400 H 6899.4 -2.43653 2.11738 0
M  V30 67401 H 6898.45 -0.648689 3.74828 0
M  V30 67402 H 6899.77 -1.06596 4.87277 0
M  V30 67403 H 6898.92 -3.4175 5.0129 0
M  V30 67404 H 6897.66 -3.05662 3.80029 0
M  V30 67405 H 6896.66 -1.33552 5.33333 0
M  V30 67406 H 6897.89 -1.72197 6.56906 0
M  V30 67407 H 6895.83 -3.66261 5.44232 0
M  V30 67408 H 6895.75 -2.88377 6.98838 0
M  V30 67409 H 6897.02 -4.03017 6.67231 0
M  V30 67410 N 6901.25 -1.57466 -0.0650849 0
M  V30 67411 C 6902.66 -1.53974 -0.420023 0
M  V30 67412 C 6902.86 -0.929568 -1.78777 0
M  V30 67413 O 6901.92 -0.534969 -2.46768 0
M  V30 67414 C 6903.23 -2.98598 -0.354927 0
M  V30 67415 C 6904.78 -3.09968 -0.434629 0
M  V30 67416 C 6905.26 -4.56255 -0.399368 0
M  V30 67417 N 6906.75 -4.60918 -0.459245 0
M  V30 67418 C 6907.48 -5.71598 -0.454283 0
M  V30 67419 N 6906.98 -6.91623 -0.403738 0
M  V30 67420 N 6908.77 -5.5986 -0.50134 0
M  V30 67421 H 6900.92 -1.95493 0.830431 0
M  V30 67422 H 6903.19 -0.895085 0.312292 0
M  V30 67423 H 6902.89 -3.46825 0.58354 0
M  V30 67424 H 6902.77 -3.58837 -1.16256 0
M  V30 67425 H 6905.15 -2.6171 -1.36352 0
M  V30 67426 H 6905.23 -2.52626 0.401703 0
M  V30 67427 H 6904.88 -5.05172 0.525702 0
M  V30 67428 H 6904.81 -5.11468 -1.25332 0
M  V30 67429 H 6907.3 -3.74547 -0.502285 0
M  V30 67430 H 6907.61 -7.71743 -0.404061 0
M  V30 67431 H 6905.96 -6.94013 -0.370324 0
M  V30 67432 H 6909.15 -4.64991 -0.538567 0
M  V30 67433 H 6909.32 -6.46114 -0.494004 0
M  V30 67434 N 6902.73 0.336625 -1.53963 0
M  V30 67435 C 6904.14 0.911839 -1.62918 0
M  V30 67436 C 6904.49 1.89323 -0.514895 0
M  V30 67437 O 6903.61 2.1348 0.354282 0
M  V30 67438 C 6904.21 1.6606 -2.95312 0
M  V30 67439 C 6902.77 2.18473 -3.06507 0
M  V30 67440 C 6901.92 1.006 -2.58409 0
M  V30 67441 H 6904.87 0.114566 -1.58286 0
M  V30 67442 H 6904.89 2.52395 -2.8474 0
M  V30 67443 H 6904.4 0.946078 -3.76392 0
M  V30 67444 H 6902.5 2.9308 -2.30076 0
M  V30 67445 H 6902.61 2.44369 -4.12093 0
M  V30 67446 H 6900.98 1.38141 -2.13984 0
M  V30 67447 H 6901.76 0.305999 -3.41934 0
M  V30 67448 N 6904.21 1.45814 0.598006 0
M  V30 67449 C 6905.17 1.54817 1.6901 0
M  V30 67450 C 6906.17 0.426734 1.55034 0
M  V30 67451 O 6907.36 0.690541 1.59929 0
M  V30 67452 C 6904.49 1.45388 3.08343 0
M  V30 67453 H 6905.68 2.5213 1.6239 0
M  V30 67454 H 6903.24 1.33397 0.814556 0
M  V30 67455 H 6903.97 0.492962 3.20531 0
M  V30 67456 H 6903.76 2.26737 3.19895 0
M  V30 67457 H 6905.25 1.54741 3.87872 0
M  V30 67458 N 6905.68 -0.841338 1.33264 0
M  V30 67459 C 6906.93 -1.5988 1.24765 0
M  V30 67460 C 6907.26 -1.93299 -0.186811 0
M  V30 67461 O 6906.54 -1.58486 -1.12749 0
M  V30 67462 C 6906.82 -2.91044 2.12051 0
M  V30 67463 C 6906.67 -2.64321 3.63943 0
M  V30 67464 C 6907.99 -3.92448 1.9918 0
M  V30 67465 H 6905.11 -0.580114 0.454573 0
M  V30 67466 H 6907.75 -0.970561 1.6334 0
M  V30 67467 H 6905.9 -3.44659 1.79283 0
M  V30 67468 H 6907.58 -2.17157 4.0699 0
M  V30 67469 H 6905.82 -1.98062 3.85946 0
M  V30 67470 H 6906.49 -3.57774 4.20359 0
M  V30 67471 H 6908.97 -3.48131 2.27913 0
M  V30 67472 H 6907.84 -4.82058 2.62509 0
M  V30 67473 H 6908.1 -4.31477 0.963309 0
M  V30 67474 N 6907.16 -1.16692 -1.05928 0
M  V30 67475 C 6908.39 -0.975025 -1.82485 0
M  V30 67476 C 6908.8 0.476765 -1.82681 0
M  V30 67477 O 6908.16 1.33096 -1.24867 0
M  V30 67478 C 6908.21 -1.49947 -3.28935 0
M  V30 67479 O 6907.93 -2.8944 -3.28871 0
M  V30 67480 C 6909.43 -1.35111 -4.22208 0
M  V30 67481 H 6906.65 -0.345395 -0.575277 0
M  V30 67482 H 6909.2 -1.54807 -1.33623 0
M  V30 67483 H 6907.35 -0.968621 -3.75095 0
M  V30 67484 H 6907.77 -3.13529 -4.20476 0
M  V30 67485 H 6909.24 -1.76631 -5.22978 0
M  V30 67486 H 6909.72 -0.297166 -4.38194 0
M  V30 67487 H 6910.32 -1.87175 -3.81897 0
M  V30 67488 N 6908.64 1.24525 -0.965984 0
M  V30 67489 C 6909.89 1.92836 -0.627862 0
M  V30 67490 C 6910.22 1.75351 0.834601 0
M  V30 67491 O 6909.49 1.10555 1.60025 0
M  V30 67492 C 6909.78 3.459 -1.00128 0
M  V30 67493 C 6909.63 3.72559 -2.52031 0
M  V30 67494 C 6910.95 4.36841 -0.534581 0
M  V30 67495 H 6908.07 0.700332 -0.229574 0
M  V30 67496 H 6910.71 1.46927 -1.20468 0
M  V30 67497 H 6908.86 3.85132 -0.510441 0
M  V30 67498 H 6910.53 3.42896 -3.08578 0
M  V30 67499 H 6908.77 3.1777 -2.95304 0
M  V30 67500 H 6909.45 4.79647 -2.73208 0
M  V30 67501 H 6911.92 4.04974 -0.955779 0
M  V30 67502 H 6910.8 5.42673 -0.824438 0
M  V30 67503 H 6911.06 4.3847 0.565358 0
M  V30 67504 N 6910.12 0.735894 1.39364 0
M  V30 67505 C 6911.53 0.354112 1.83311 0
M  V30 67506 C 6911.88 -1.11458 1.61467 0
M  V30 67507 O 6911 -1.85983 1.10631 0
M  V30 67508 C 6911.6 0.635944 3.32778 0
M  V30 67509 C 6910.16 0.307646 3.75141 0
M  V30 67510 C 6909.31 0.898112 2.62353 0
M  V30 67511 H 6912.26 0.933465 1.28344 0
M  V30 67512 H 6912.28 -0.0919767 3.80389 0
M  V30 67513 H 6911.79 1.70494 3.48645 0
M  V30 67514 H 6909.89 -0.755481 3.64861 0
M  V30 67515 H 6910 0.790832 4.72528 0
M  V30 67516 H 6908.37 0.324685 2.52622 0
M  V30 67517 H 6909.15 1.97179 2.81026 0
M  V30 67518 N 6911.6 -1.49997 0.483595 0
M  V30 67519 C 6912.84 -2.01989 -0.0669205 0
M  V30 67520 C 6913.16 -1.36678 -1.39083 0
M  V30 67521 O 6912.43 -0.516251 -1.88975 0
M  V30 67522 H 6911.01 -0.746485 -0.0277212 0
M  V30 67523 H 6913.68 -1.84201 0.63687 0
M  V30 67524 H 6912.77 -3.11397 -0.20932 0
M  V30 67525 N 6913.07 -0.216701 -1.56103 0
M  V30 67526 C 6914.32 0.415489 -1.97783 0
M  V30 67527 C 6914.64 1.60639 -1.10545 0
M  V30 67528 O 6913.91 1.95058 -0.181406 0
M  V30 67529 H 6912.49 0.156496 -0.730423 0
M  V30 67530 H 6915.15 -0.308467 -1.92443 0
M  V30 67531 H 6914.25 0.74509 -3.03076 0
M  V30 67532 N 6914.55 1.57498 0.0567332 0
M  V30 67533 C 6915.8 1.87608 0.751518 0
M  V30 67534 C 6916.12 0.810753 1.77347 0
M  V30 67535 O 6915.39 -0.158915 1.95254 0
M  V30 67536 H 6913.97 0.692317 0.280547 0
M  V30 67537 H 6916.63 1.94878 0.0292455 0
M  V30 67538 H 6915.73 2.85607 1.25837 0
M  V30 67539 N 6916.03 -0.328455 1.54139 0
M  V30 67540 C 6916.98 -1.40402 1.83183 0
M  V30 67541 C 6917.95 -1.51607 0.678574 0
M  V30 67542 O 6919.13 -1.66905 0.924518 0
M  V30 67543 C 6916.27 -2.76835 2.0605 0
M  V30 67544 C 6915.38 -2.743 3.33741 0
M  V30 67545 C 6914.52 -4.02549 3.46595 0
M  V30 67546 C 6913.56 -3.94302 4.6818 0
M  V30 67547 N 6912.7 -5.1427 4.77986 0
M  V30 67548 H 6917.54 -1.14934 2.74944 0
M  V30 67549 H 6915.07 -0.556466 1.36169 0
M  V30 67550 H 6917.03 -3.56142 2.17299 0
M  V30 67551 H 6915.66 -3.00622 1.17586 0
M  V30 67552 H 6914.71 -1.87012 3.31256 0
M  V30 67553 H 6916.02 -2.64089 4.23153 0
M  V30 67554 H 6915.18 -4.90285 3.57359 0
M  V30 67555 H 6913.92 -4.1556 2.55266 0
M  V30 67556 H 6912.92 -3.0495 4.57477 0
M  V30 67557 H 6914.15 -3.8286 5.60888 0
M  V30 67558 H 6912.09 -5.27797 3.89571 0
M  V30 67559 H 6912.01 -5.06375 5.61356 0
M  V30 67560 H 6913.28 -6.03735 4.93076 0
M  V30 67561 N 6917.51 -1.46129 -0.590264 0
M  V30 67562 C 6918.74 -1.54604 -1.37496 0
M  V30 67563 C 6919.15 -0.184546 -1.87896 0
M  V30 67564 O 6918.51 0.816898 -1.63196 0
M  V30 67565 C 6918.56 -2.54467 -2.56766 0
M  V30 67566 O 6918.28 -3.85328 -2.08456 0
M  V30 67567 C 6919.78 -2.7281 -3.49413 0
M  V30 67568 H 6917 -0.52306 -0.420297 0
M  V30 67569 H 6919.55 -1.91471 -0.718282 0
M  V30 67570 H 6917.7 -2.20626 -3.18438 0
M  V30 67571 H 6918.11 -4.39616 -2.86074 0
M  V30 67572 H 6919.59 -3.46623 -4.29601 0
M  V30 67573 H 6920.07 -1.7945 -4.00867 0
M  V30 67574 H 6920.67 -3.07717 -2.93581 0
M  V30 67575 N 6918.99 0.834259 -1.33708 0
M  V30 67576 C 6920.21 1.62178 -1.28475 0
M  V30 67577 C 6920.63 1.88254 0.143426 0
M  V30 67578 O 6919.99 1.46596 1.08701 0
M  V30 67579 C 6920.04 2.96931 -2.0619 0
M  V30 67580 O 6919.76 2.71998 -3.43437 0
M  V30 67581 C 6921.26 3.91355 -2.08221 0
M  V30 67582 H 6918.48 0.50448 -0.442427 0
M  V30 67583 H 6921.02 1.03882 -1.7615 0
M  V30 67584 H 6919.18 3.51816 -1.62185 0
M  V30 67585 H 6919.59 3.57841 -3.83471 0
M  V30 67586 H 6921.07 4.83107 -2.67042 0
M  V30 67587 H 6921.54 4.25875 -1.07365 0
M  V30 67588 H 6922.15 3.42407 -2.52264 0
M  V30 67589 N 6920.46 1.17252 1.05308 0
M  V30 67590 C 6921.88 0.966315 1.59747 0
M  V30 67591 C 6922.23 -0.487278 1.90053 0
M  V30 67592 O 6921.35 -1.36236 1.68133 0
M  V30 67593 C 6921.95 1.74775 2.9024 0
M  V30 67594 C 6920.51 1.58624 3.41343 0
M  V30 67595 C 6919.65 1.75014 2.15094 0
M  V30 67596 H 6922.6 1.31978 0.881336 0
M  V30 67597 H 6922.62 1.22944 3.6009 0
M  V30 67598 H 6922.14 2.80564 2.68152 0
M  V30 67599 H 6920.24 0.55318 3.68471 0
M  V30 67600 H 6920.35 2.37646 4.16006 0
M  V30 67601 H 6918.71 1.17845 2.25798 0
M  V30 67602 H 6919.5 2.82212 1.95476 0
M  V30 67603 N 6921.94 -1.24011 0.972574 0
M  V30 67604 C 6922.89 -2.2294 0.477679 0
M  V30 67605 C 6923.88 -1.54681 -0.442998 0
M  V30 67606 O 6925.07 -1.7488 -0.273127 0
M  V30 67607 C 6922.2 -3.42554 -0.226167 0
M  V30 67608 C 6921.28 -4.18053 0.713623 0
M  V30 67609 N 6921.67 -4.70637 1.85295 0
M  V30 67610 C 6919.97 -4.42895 0.525378 0
M  V30 67611 C 6920.67 -5.27998 2.44117 0
M  V30 67612 N 6919.65 -5.15477 1.72583 0
M  V30 67613 H 6923.45 -2.61219 1.34692 0
M  V30 67614 H 6920.97 -1.39453 0.83227 0
M  V30 67615 H 6922.96 -4.12589 -0.597966 0
M  V30 67616 H 6921.62 -3.05794 -1.09179 0
M  V30 67617 H 6922.63 -4.67223 2.23435 0
M  V30 67618 H 6919.31 -4.1645 -0.295876 0
M  V30 67619 H 6920.7 -5.79356 3.40289 0
M  V30 67620 N 6923.42 -0.743275 -1.38972 0
M  V30 67621 C 6924.37 -0.108732 -2.30544 0
M  V30 67622 C 6925.34 0.72079 -1.49646 0
M  V30 67623 O 6926.52 0.679048 -1.78308 0
M  V30 67624 C 6923.66 0.786319 -3.36022 0
M  V30 67625 C 6922.78 -0.0567127 -4.31963 0
M  V30 67626 C 6921.91 0.840381 -5.2451 0
M  V30 67627 C 6920.95 -0.00690641 -6.121 0
M  V30 67628 N 6920.09 0.846575 -6.96977 0
M  V30 67629 H 6924.93 -0.895238 -2.84235 0
M  V30 67630 H 6922.46 -0.453121 -1.39947 0
M  V30 67631 H 6924.42 1.31978 -3.95775 0
M  V30 67632 H 6923.05 1.53872 -2.83766 0
M  V30 67633 H 6922.1 -0.707689 -3.73759 0
M  V30 67634 H 6923.42 -0.711489 -4.937 0
M  V30 67635 H 6922.57 1.44139 -5.89329 0
M  V30 67636 H 6921.31 1.52892 -4.63115 0
M  V30 67637 H 6920.31 -0.620654 -5.46286 0
M  V30 67638 H 6921.54 -0.692348 -6.75562 0
M  V30 67639 H 6919.48 1.52025 -6.38141 0
M  V30 67640 H 6919.4 0.248465 -7.55592 0
M  V30 67641 H 6920.67 1.43288 -7.66217 0
M  V30 67642 N 6924.9 1.49738 -0.491543 0
M  V30 67643 C 6926.18 1.95238 0.118882 0
M  V30 67644 C 6926.56 1.43272 1.55037 0
M  V30 67645 O 6925.9 0.642403 2.19284 0
M  V30 67646 C 6926.11 3.48976 0.0412346 0
M  V30 67647 C 6927.46 4.2403 0.21991 0
M  V30 67648 O 6928.49 3.56008 0.116867 0
M  V30 67649 O 6927.34 5.44803 0.43028 0
M  V30 67650 H 6924.44 0.820872 0.100492 0
M  V30 67651 H 6926.98 1.60423 -0.553407 0
M  V30 67652 H 6925.76 3.79406 -0.957414 0
M  V30 67653 H 6925.38 3.90384 0.754086 0
M  V30 67654 N 6926.38 0.224977 1.55986 0
M  V30 67655 C 6927.62 -0.407601 2.00295 0
M  V30 67656 C 6927.98 -1.56706 1.10939 0
M  V30 67657 O 6929.18 -2.26587 1.44609 0
M  V30 67658 C 6927.45 -0.827867 3.4768 0
M  V30 67659 S 6929.01 -1.45407 4.14008 0
M  V30 67660 H 6925.83 -0.12922 0.699159 0
M  V30 67661 H 6928.43 0.335069 1.92607 0
M  V30 67662 H 6927.14 0.0256128 4.10392 0
M  V30 67663 H 6926.67 -1.60326 3.59248 0
M  V30 67664 H 6928.68 -2.74315 4.1348 0
M  V30 67665 N 6927.85 -1.57526 -0.0483799 0
M  V30 67666 C 6929.08 -1.9262 -0.75532 0
M  V30 67667 C 6929.5 -0.823074 -1.69915 0
M  V30 67668 O 6928.85 0.201989 -1.81379 0
M  V30 67669 C 6928.91 -3.27574 -1.52898 0
M  V30 67670 O 6928.63 -4.33647 -0.623061 0
M  V30 67671 C 6930.13 -3.7683 -2.33482 0
M  V30 67672 H 6927.35 -0.636151 -0.213431 0
M  V30 67673 H 6929.89 -2.04497 -0.011662 0
M  V30 67674 H 6928.05 -3.17153 -2.22469 0
M  V30 67675 H 6928.46 -5.11431 -1.16356 0
M  V30 67676 H 6929.93 -4.73823 -2.83189 0
M  V30 67677 H 6930.41 -3.07031 -3.14052 0
M  V30 67678 H 6931.02 -3.90271 -1.69022 0
M  V30 67679 N 6929.33 0.320276 -1.54311 0
M  V30 67680 C 6930.74 0.894508 -1.63876 0
M  V30 67681 C 6931.09 1.88766 -0.534946 0
M  V30 67682 O 6930.22 2.13844 0.33162 0
M  V30 67683 C 6930.81 1.62919 -2.97057 0
M  V30 67684 C 6929.37 2.1521 -3.08807 0
M  V30 67685 C 6928.52 0.978534 -2.59461 0
M  V30 67686 H 6931.47 0.0977709 -1.58399 0
M  V30 67687 H 6931.49 2.49361 -2.87401 0
M  V30 67688 H 6931 0.906103 -3.77374 0
M  V30 67689 H 6929.11 2.90623 -2.33171 0
M  V30 67690 H 6929.22 2.39985 -4.14662 0
M  V30 67691 H 6927.58 1.35864 -2.15437 0
M  V30 67692 H 6928.37 0.269715 -3.42239 0
M  V30 67693 N 6930.81 1.4644 0.582507 0
M  V30 67694 C 6932.04 1.5557 1.3716 0
M  V30 67695 C 6932.46 0.197528 1.8706 0
M  V30 67696 O 6931.82 -0.822366 1.61576 0
M  V30 67697 C 6931.87 2.56459 2.53497 0
M  V30 67698 O 6930.97 2.09977 3.54942 0
M  V30 67699 H 6930.31 0.523499 0.408467 0
M  V30 67700 H 6932.84 1.92013 0.706545 0
M  V30 67701 H 6932.85 2.76074 3.00412 0
M  V30 67702 H 6931.53 3.55088 2.16531 0
M  V30 67703 H 6930.1 2.00351 3.14506 0
M  V30 67704 N 6932.29 -0.827157 1.34149 0
M  V30 67705 C 6933.7 -1.3996 1.23564 0
M  V30 67706 C 6934.05 -1.95695 -0.140628 0
M  V30 67707 O 6933.18 -1.89728 -1.04077 0
M  V30 67708 C 6933.77 -2.5443 2.23721 0
M  V30 67709 C 6932.33 -3.07594 2.1694 0
M  V30 67710 C 6931.48 -1.80445 2.10559 0
M  V30 67711 H 6934.43 -0.631914 1.45577 0
M  V30 67712 H 6934.45 -3.32402 1.85174 0
M  V30 67713 H 6933.96 -2.13834 3.23878 0
M  V30 67714 H 6932.06 -3.52705 1.20126 0
M  V30 67715 H 6932.18 -3.66972 3.08008 0
M  V30 67716 H 6930.54 -2.0117 1.56214 0
M  V30 67717 H 6931.32 -1.42029 3.12542 0
M  V30 67718 N 6933.77 -1.17809 -1.04684 0
M  V30 67719 C 6934.7 -0.922864 -2.14489 0
M  V30 67720 C 6935.68 0.13709 -1.69547 0
M  V30 67721 O 6936.86 -0.0142132 -1.94195 0
M  V30 67722 C 6933.99 -0.440985 -3.44489 0
M  V30 67723 C 6932.95 -1.44071 -4.03023 0
M  V30 67724 C 6932.27 -0.816588 -5.28428 0
M  V30 67725 C 6933.57 -2.8155 -4.39917 0
M  V30 67726 H 6935.27 -1.84115 -2.36097 0
M  V30 67727 H 6932.81 -0.886659 -1.13465 0
M  V30 67728 H 6934.77 -0.249823 -4.20659 0
M  V30 67729 H 6933.49 0.512855 -3.22548 0
M  V30 67730 H 6932.15 -1.6187 -3.28928 0
M  V30 67731 H 6931.8 0.144246 -5.02793 0
M  V30 67732 H 6931.5 -1.48401 -5.68552 0
M  V30 67733 H 6933.02 -0.635817 -6.07281 0
M  V30 67734 H 6934.44 -2.67439 -5.07099 0
M  V30 67735 H 6932.83 -3.44917 -4.91072 0
M  V30 67736 H 6933.9 -3.35573 -3.50027 0
M  V30 67737 N 6935.25 1.23494 -0.979137 0
M  V30 67738 C 6936.49 1.9361 -0.65533 0
M  V30 67739 C 6936.85 1.74711 0.796244 0
M  V30 67740 O 6938.05 2.38965 1.23082 0
M  V30 67741 C 6936.32 3.42129 -1.03355 0
M  V30 67742 S 6937.88 4.30955 -0.826021 0
M  V30 67743 H 6934.7 0.669255 -0.24004 0
M  V30 67744 H 6937.3 1.49605 -1.25851 0
M  V30 67745 H 6936 3.53394 -2.08665 0
M  V30 67746 H 6935.54 3.91134 -0.421603 0
M  V30 67747 H 6937.55 4.95348 0.290729 0
M  V30 67748 N 6936.72 0.750634 1.38576 0
M  V30 67749 C 6937.66 0.0811922 2.29056 0
M  V30 67750 C 6938.67 -0.686895 1.47599 0
M  V30 67751 O 6939.86 -0.528473 1.70498 0
M  V30 67752 C 6936.96 -0.909075 3.2648 0
M  V30 67753 C 6936.13 -0.199247 4.36946 0
M  V30 67754 C 6935.19 -1.09984 5.14577 0
M  V30 67755 O 6934.22 -0.571471 5.66324 0
M  V30 67756 N 6935.42 -2.42821 5.27274 0
M  V30 67757 H 6938.18 0.858238 2.87149 0
M  V30 67758 H 6935.74 0.601169 1.50325 0
M  V30 67759 H 6937.74 -1.51452 3.75293 0
M  V30 67760 H 6936.31 -1.58722 2.69307 0
M  V30 67761 H 6935.53 0.586869 3.89807 0
M  V30 67762 H 6936.81 0.292051 5.07961 0
M  V30 67763 H 6936.21 -2.88207 4.86778 0
M  V30 67764 H 6934.77 -2.98423 5.79471 0
M  V30 67765 N 6938.2 -1.49476 0.499477 0
M  V30 67766 C 6939.13 -2.31944 -0.269121 0
M  V30 67767 C 6940.11 -1.40148 -0.963981 0
M  V30 67768 O 6941.3 -1.69057 -0.955678 0
M  V30 67769 C 6938.43 -3.20622 -1.33487 0
M  V30 67770 C 6937.38 -4.21199 -0.75998 0
M  V30 67771 C 6936.71 -4.98803 -1.92614 0
M  V30 67772 C 6938.01 -5.21711 0.247936 0
M  V30 67773 H 6939.7 -2.9645 0.419239 0
M  V30 67774 H 6937.25 -1.42561 0.203063 0
M  V30 67775 H 6939.2 -3.77125 -1.88028 0
M  V30 67776 H 6937.92 -2.54055 -2.0524 0
M  V30 67777 H 6936.58 -3.65837 -0.236337 0
M  V30 67778 H 6936.23 -4.28685 -2.63131 0
M  V30 67779 H 6935.93 -5.66855 -1.54755 0
M  V30 67780 H 6937.46 -5.5815 -2.47591 0
M  V30 67781 H 6938.87 -5.72918 -0.209277 0
M  V30 67782 H 6937.27 -5.97645 0.542277 0
M  V30 67783 H 6938.34 -4.70714 1.16433 0
M  V30 67784 N 6939.68 -0.233246 -1.55864 0
M  V30 67785 C 6940.93 0.395685 -1.97781 0
M  V30 67786 C 6941.24 1.6006 -1.12428 0
M  V30 67787 O 6942.45 2.29981 -1.44295 0
M  V30 67788 C 6940.9 0.755371 -3.51884 0
M  V30 67789 C 6940.51 -0.427387 -4.45957 0
M  V30 67790 C 6942.26 1.34925 -4.02487 0
M  V30 67791 C 6940.16 -0.0446162 -5.91383 0
M  V30 67792 H 6939.09 0.151611 -0.7386 0
M  V30 67793 H 6941.74 -0.331307 -1.80484 0
M  V30 67794 H 6940.13 1.54011 -3.64824 0
M  V30 67795 H 6941.3 -1.20485 -4.4477 0
M  V30 67796 H 6939.61 -0.935282 -4.0576 0
M  V30 67797 H 6942.21 1.64874 -5.08646 0
M  V30 67798 H 6942.55 2.26907 -3.49026 0
M  V30 67799 H 6943.09 0.627703 -3.92816 0
M  V30 67800 H 6939.83 -0.931216 -6.48852 0
M  V30 67801 H 6939.35 0.696924 -5.95737 0
M  V30 67802 H 6941.03 0.377993 -6.45895 0
M  V30 67803 N 6941.16 1.57549 0.0400252 0
M  V30 67804 C 6942.1 2.05837 1.04403 0
M  V30 67805 C 6943.07 0.945256 1.3658 0
M  V30 67806 O 6944.26 1.2151 1.47106 0
M  V30 67807 C 6941.4 2.53351 2.34323 0
M  V30 67808 C 6940.51 3.78409 2.08399 0
M  V30 67809 C 6939.65 4.14579 3.32111 0
M  V30 67810 C 6938.69 5.32586 3.01693 0
M  V30 67811 N 6937.82 5.6424 4.17825 0
M  V30 67812 H 6942.66 2.91366 0.625289 0
M  V30 67813 H 6940.2 1.44068 0.297142 0
M  V30 67814 H 6942.16 2.78962 3.10219 0
M  V30 67815 H 6940.79 1.70754 2.73939 0
M  V30 67816 H 6939.84 3.59948 1.2305 0
M  V30 67817 H 6941.15 4.64429 1.81954 0
M  V30 67818 H 6940.31 4.4126 4.16383 0
M  V30 67819 H 6939.05 3.27189 3.61661 0
M  V30 67820 H 6938.05 5.05669 2.15822 0
M  V30 67821 H 6939.28 6.2162 2.73433 0
M  V30 67822 H 6937.22 4.79809 4.47347 0
M  V30 67823 H 6937.14 6.44746 3.94764 0
M  V30 67824 H 6938.41 5.95491 5.03002 0
M  V30 67825 N 6942.64 -0.312088 1.54479 0
M  V30 67826 C 6943.91 -1.06758 1.63896 0
M  V30 67827 C 6944.29 -2.05567 0.480137 0
M  V30 67828 O 6943.64 -2.22402 -0.524369 0
M  V30 67829 C 6943.85 -1.75932 3.01412 0
M  V30 67830 C 6945.2 -2.28535 3.5785 0
M  V30 67831 O 6946.22 -1.85982 3.03791 0
M  V30 67832 O 6945.08 -3.06473 4.52478 0
M  V30 67833 H 6942.18 -0.492781 0.664151 0
M  V30 67834 H 6944.72 -0.311061 1.66825 0
M  V30 67835 H 6943.49 -1.04124 3.77192 0
M  V30 67836 H 6943.12 -2.58367 3.02212 0
M  V30 67837 N 6944.11 -1.46747 -0.574732 0
M  V30 67838 C 6945.34 -1.56295 -1.36333 0
M  V30 67839 C 6945.76 -0.207446 -1.86953 0
M  V30 67840 O 6945.12 0.813785 -1.6201 0
M  V30 67841 C 6945.17 -2.578 -2.52134 0
M  V30 67842 O 6944.27 -2.11856 -3.53823 0
M  V30 67843 H 6943.61 -0.525657 -0.405685 0
M  V30 67844 H 6946.14 -1.92385 -0.696352 0
M  V30 67845 H 6946.15 -2.77663 -2.98943 0
M  V30 67846 H 6944.83 -3.56231 -2.14644 0
M  V30 67847 H 6943.41 -2.02016 -3.13439 0
M  V30 67848 N 6945.59 0.820031 -1.34585 0
M  V30 67849 C 6946.52 1.94599 -1.29049 0
M  V30 67850 C 6947.5 1.69274 -0.167389 0
M  V30 67851 O 6948.69 1.9083 -0.360213 0
M  V30 67852 C 6945.82 3.31107 -1.0481 0
M  V30 67853 C 6944.77 3.7088 -2.13617 0
M  V30 67854 C 6944.1 5.05403 -1.74563 0
M  V30 67855 C 6945.4 3.82671 -3.55471 0
M  V30 67856 H 6947.09 1.99489 -2.23259 0
M  V30 67857 H 6944.64 0.958392 -1.07475 0
M  V30 67858 H 6946.59 4.09465 -0.995808 0
M  V30 67859 H 6945.31 3.26524 -0.0704287 0
M  V30 67860 H 6943.97 2.94798 -2.17921 0
M  V30 67861 H 6943.62 4.97309 -0.754488 0
M  V30 67862 H 6943.32 5.32984 -2.47389 0
M  V30 67863 H 6944.85 5.86215 -1.70834 0
M  V30 67864 H 6946.26 4.51293 -3.53564 0
M  V30 67865 H 6944.66 4.2171 -4.26944 0
M  V30 67866 H 6945.73 2.8459 -3.92602 0
M  V30 67867 N 6947.07 1.18362 1.04058 0
M  V30 67868 C 6948.32 0.97904 1.7726 0
M  V30 67869 C 6948.65 -0.491328 1.88192 0
M  V30 67870 O 6947.9 -1.38101 1.3866 0
M  V30 67871 C 6948.2 1.57905 3.20626 0
M  V30 67872 C 6947.87 3.07556 3.29727 0
M  V30 67873 C 6946.53 3.48402 3.31918 0
M  V30 67874 C 6948.88 4.0357 3.29819 0
M  V30 67875 C 6946.21 4.83835 3.31844 0
M  V30 67876 C 6948.56 5.38918 3.31285 0
M  V30 67877 C 6947.22 5.79212 3.31768 0
M  V30 67878 H 6946.49 0.358256 0.64864 0
M  V30 67879 H 6949.14 1.47428 1.22218 0
M  V30 67880 H 6947.45 1.00581 3.7867 0
M  V30 67881 H 6949.14 1.39618 3.75909 0
M  V30 67882 H 6945.73 2.75003 3.28742 0
M  V30 67883 H 6949.92 3.73064 3.27318 0
M  V30 67884 H 6945.17 5.14351 3.30535 0
M  V30 67885 H 6949.35 6.13083 3.30306 0
M  V30 67886 H 6946.97 6.84131 3.31464 0
M  V30 67887 N 6948.55 -1.22973 0.985673 0
M  V30 67888 C 6949.51 -2.22864 0.535188 0
M  V30 67889 C 6950.51 -1.56293 -0.378041 0
M  V30 67890 O 6951.7 -1.73359 -0.171 0
M  V30 67891 C 6948.83 -3.40173 -0.222523 0
M  V30 67892 H 6950.03 -2.64233 1.41849 0
M  V30 67893 H 6947.58 -1.35897 0.772114 0
M  V30 67894 H 6948.31 -3.04268 -1.12213 0
M  V30 67895 H 6948.1 -3.89701 0.433085 0
M  V30 67896 H 6949.59 -4.14273 -0.526117 0
M  V30 67897 N 6950.03 -0.757973 -1.38176 0
M  V30 67898 C 6950.96 -0.0933385 -2.2901 0
M  V30 67899 C 6951.97 0.679058 -1.47962 0
M  V30 67900 O 6953.16 0.519423 -1.70775 0
M  V30 67901 C 6950.26 0.891748 -3.26957 0
M  V30 67902 C 6949.43 0.176072 -4.37045 0
M  V30 67903 C 6948.49 1.07254 -5.15153 0
M  V30 67904 O 6947.52 0.541429 -5.66619 0
M  V30 67905 N 6948.72 2.40021 -5.28555 0
M  V30 67906 H 6951.49 -0.873454 -2.86689 0
M  V30 67907 H 6949.05 -0.609133 -1.50004 0
M  V30 67908 H 6951.04 1.49459 -3.7609 0
M  V30 67909 H 6949.61 1.57292 -2.70145 0
M  V30 67910 H 6948.83 -0.607534 -3.8949 0
M  V30 67911 H 6950.12 -0.318986 -5.07799 0
M  V30 67912 H 6949.51 2.85621 -4.883 0
M  V30 67913 H 6948.07 2.95345 -5.81046 0
M  V30 67914 N 6951.5 1.49209 -0.507397 0
M  V30 67915 C 6952.74 2.04373 0.0331294 0
M  V30 67916 C 6953.11 1.37811 1.33687 0
M  V30 67917 O 6954.31 1.83733 1.96203 0
M  V30 67918 C 6952.58 3.56967 0.175801 0
M  V30 67919 S 6954.14 4.3366 0.669653 0
M  V30 67920 H 6950.96 0.710999 -0.00127353 0
M  V30 67921 H 6953.56 1.83188 -0.682821 0
M  V30 67922 H 6952.26 4.02953 -0.778265 0
M  V30 67923 H 6951.79 3.82568 0.916803 0
M  V30 67924 H 6953.81 4.56797 1.93782 0
M  V30 67925 N 6952.98 0.241508 1.55739 0
M  V30 67926 C 6953.93 -0.674118 2.17806 0
M  V30 67927 C 6954.92 -1.14313 1.13231 0
M  V30 67928 O 6956.11 -1.0938 1.39158 0
M  V30 67929 C 6953.24 -1.87318 2.87692 0
M  V30 67930 C 6952.32 -1.42292 3.99517 0
M  V30 67931 N 6952.71 -0.686534 5.01119 0
M  V30 67932 C 6951.01 -1.70864 4.11973 0
M  V30 67933 C 6951.71 -0.45415 5.79924 0
M  V30 67934 N 6950.69 -1.01677 5.34006 0
M  V30 67935 H 6954.49 -0.103292 2.93718 0
M  V30 67936 H 6952.01 0.0435951 1.62341 0
M  V30 67937 H 6954 -2.54009 3.30583 0
M  V30 67938 H 6952.66 -2.44829 2.13282 0
M  V30 67939 H 6953.67 -0.337186 5.16801 0
M  V30 67940 H 6950.35 -2.29551 3.4873 0
M  V30 67941 H 6951.74 0.133347 6.71768 0
M  V30 67942 N 6954.46 -1.57568 -0.0316694 0
M  V30 67943 C 6955.42 -2.05365 -1.01773 0
M  V30 67944 C 6956.42 -0.957321 -1.29198 0
M  V30 67945 O 6957.61 -1.22102 -1.24245 0
M  V30 67946 C 6954.75 -2.46839 -2.35124 0
M  V30 67947 H 6955.94 -2.93736 -0.604907 0
M  V30 67948 H 6953.49 -1.538 -0.278433 0
M  V30 67949 H 6954.23 -1.61616 -2.81159 0
M  V30 67950 H 6954.01 -3.26878 -2.16549 0
M  V30 67951 H 6955.5 -2.84255 -3.05923 0
M  V30 67952 N 6955.94 0.303891 -1.54642 0
M  V30 67953 C 6956.87 1.3795 -1.88393 0
M  V30 67954 C 6957.85 1.53036 -0.742566 0
M  V30 67955 O 6959.03 1.66591 -0.998046 0
M  V30 67956 C 6956.16 2.74416 -2.12869 0
M  V30 67957 C 6955.12 2.74098 -3.28716 0
M  V30 67958 C 6954.44 4.13826 -3.38603 0
M  V30 67959 C 6955.74 2.36095 -4.65893 0
M  V30 67960 H 6957.44 1.09952 -2.7848 0
M  V30 67961 H 6954.98 0.527486 -1.33991 0
M  V30 67962 H 6956.94 3.49746 -2.35065 0
M  V30 67963 H 6955.66 3.03933 -1.19551 0
M  V30 67964 H 6954.32 2.01224 -3.06438 0
M  V30 67965 H 6953.97 4.40515 -2.42808 0
M  V30 67966 H 6953.67 4.14515 -4.16475 0
M  V30 67967 H 6955.19 4.9094 -3.63057 0
M  V30 67968 H 6956.61 3.01141 -4.87839 0
M  V30 67969 H 6955 2.48002 -5.46457 0
M  V30 67970 H 6956.07 1.31225 -4.66806 0
M  V30 67971 N 6957.42 1.47049 0.566942 0
M  V30 67972 C 6958.66 1.53401 1.3265 0
M  V30 67973 C 6959 0.191582 1.93253 0
M  V30 67974 O 6958.27 -0.79875 1.77342 0
M  V30 67975 C 6958.55 2.64465 2.44398 0
M  V30 67976 C 6958.41 4.08292 1.88727 0
M  V30 67977 C 6959.73 2.71503 3.46373 0
M  V30 67978 H 6956.84 0.55844 0.480951 0
M  V30 67979 H 6959.49 1.79061 0.635387 0
M  V30 67980 H 6957.64 2.42716 3.0335 0
M  V30 67981 H 6959.31 4.41375 1.34111 0
M  V30 67982 H 6957.55 4.17027 1.19459 0
M  V30 67983 H 6958.22 4.81759 2.69466 0
M  V30 67984 H 6960.7 2.91096 2.97325 0
M  V30 67985 H 6959.57 3.51007 4.22002 0
M  V30 67986 H 6959.84 1.78175 4.04606 0
M  V30 67987 N 6958.89 -0.812882 1.35018 0
M  V30 67988 C 6960.31 -1.38641 1.25042 0
M  V30 67989 C 6960.66 -1.95834 -0.119864 0
M  V30 67990 O 6959.78 -1.90822 -1.02059 0
M  V30 67991 C 6960.38 -2.52042 2.26407 0
M  V30 67992 C 6958.94 -3.05275 2.20191 0
M  V30 67993 C 6958.08 -1.78202 2.12461 0
M  V30 67994 H 6961.03 -0.616438 1.46239 0
M  V30 67995 H 6961.05 -3.30419 1.88689 0
M  V30 67996 H 6960.57 -2.10387 3.26127 0
M  V30 67997 H 6958.67 -3.51411 1.2386 0
M  V30 67998 H 6958.78 -3.63684 3.11882 0
M  V30 67999 H 6957.14 -1.99502 1.58339 0
M  V30 68000 H 6957.93 -1.38706 3.14031 0
M  V30 68001 N 6960.37 -1.18913 -1.03429 0
M  V30 68002 C 6961.78 -0.991607 -1.5819 0
M  V30 68003 C 6962.13 0.45698 -1.90804 0
M  V30 68004 O 6961.26 1.33544 -1.70279 0
M  V30 68005 C 6961.85 -1.7937 -2.87423 0
M  V30 68006 C 6960.41 -1.64035 -3.38777 0
M  V30 68007 C 6959.56 -1.78414 -2.12283 0
M  V30 68008 H 6962.51 -1.33363 -0.860228 0
M  V30 68009 H 6962.53 -1.28657 -3.58089 0
M  V30 68010 H 6962.04 -2.84795 -2.63654 0
M  V30 68011 H 6960.15 -0.61173 -3.67544 0
M  V30 68012 H 6960.26 -2.44234 -4.12173 0
M  V30 68013 H 6958.62 -1.21422 -2.23895 0
M  V30 68014 H 6959.41 -2.85287 -1.90962 0
M  V30 68015 N 6961.85 1.22448 -0.99218 0
M  V30 68016 C 6962.78 2.23677 -0.500142 0
M  V30 68017 C 6963.8 1.57698 0.40438 0
M  V30 68018 O 6964.99 1.773 0.206628 0
M  V30 68019 C 6962.09 3.37618 0.294533 0
M  V30 68020 C 6961.26 4.33182 -0.605951 0
M  V30 68021 C 6960.32 5.26022 0.136892 0
M  V30 68022 O 6959.34 5.67194 -0.477463 0
M  V30 68023 N 6960.55 5.62879 1.4194 0
M  V30 68024 H 6963.31 2.66524 -1.37059 0
M  V30 68025 H 6960.87 1.3674 -0.866813 0
M  V30 68026 H 6962.86 3.96712 0.80012 0
M  V30 68027 H 6961.43 2.9386 1.06608 0
M  V30 68028 H 6960.65 3.72418 -1.29222 0
M  V30 68029 H 6961.94 4.93976 -1.21922 0
M  V30 68030 H 6961.34 5.314 1.93987 0
M  V30 68031 H 6959.9 6.24393 1.8702 0
M  V30 68032 N 6963.33 0.76529 1.37772 0
M  V30 68033 C 6964.28 0.12087 2.27679 0
M  V30 68034 C 6965.26 -0.680911 1.45782 0
M  V30 68035 O 6966.46 -0.544944 1.68402 0
M  V30 68036 C 6963.58 -0.76245 3.34726 0
M  V30 68037 C 6962.67 0.0468117 4.24074 0
M  V30 68038 N 6963.06 1.08918 4.93934 0
M  V30 68039 C 6961.36 -0.178183 4.45644 0
M  V30 68040 C 6962.06 1.5798 5.59837 0
M  V30 68041 N 6961.04 0.89308 5.36214 0
M  V30 68042 H 6964.84 0.919036 2.79161 0
M  V30 68043 H 6962.35 0.602432 1.50813 0
M  V30 68044 H 6964.35 -1.23984 3.98037 0
M  V30 68045 H 6963.01 -1.55943 2.84801 0
M  V30 68046 H 6964.02 1.47121 4.96564 0
M  V30 68047 H 6960.7 -0.947586 4.06604 0
M  V30 68048 H 6962.09 2.44871 6.2569 0
M  V30 68049 N 6964.81 -1.48938 0.515303 0
M  V30 68050 C 6966.04 -2.0659 -0.0204645 0
M  V30 68051 C 6966.45 -1.37412 -1.30056 0
M  V30 68052 O 6965.79 -0.450726 -1.78085 0
M  V30 68053 C 6965.85 -3.57983 -0.329936 0
M  V30 68054 C 6965.51 -4.4894 0.854532 0
M  V30 68055 C 6966.51 -4.89599 1.74896 0
M  V30 68056 C 6964.2 -4.91045 1.05738 0
M  V30 68057 C 6966.19 -5.71117 2.83026 0
M  V30 68058 C 6963.88 -5.72336 2.14185 0
M  V30 68059 C 6964.88 -6.12278 3.02662 0
M  V30 68060 O 6964.56 -6.91941 4.09235 0
M  V30 68061 H 6964.3 -0.675584 0.023719 0
M  V30 68062 H 6966.85 -1.92514 0.716058 0
M  V30 68063 H 6965.08 -3.70118 -1.12024 0
M  V30 68064 H 6966.77 -3.97817 -0.806023 0
M  V30 68065 H 6967.53 -4.57704 1.60412 0
M  V30 68066 H 6963.41 -4.59447 0.37803 0
M  V30 68067 H 6966.96 -6.02213 3.52115 0
M  V30 68068 H 6962.85 -6.03644 2.28658 0
M  V30 68069 H 6963.62 -7.10272 4.06763 0
M  V30 68070 N 6966.29 -0.249764 -1.55608 0
M  V30 68071 C 6967.52 0.377696 -2.03118 0
M  V30 68072 C 6967.92 1.51875 -1.1283 0
M  V30 68073 O 6967.27 1.83198 -0.135717 0
M  V30 68074 C 6967.33 0.94451 -3.46871 0
M  V30 68075 C 6966.99 -0.0646669 -4.56954 0
M  V30 68076 C 6967.99 -0.875227 -5.1248 0
M  V30 68077 C 6965.67 -0.191585 -5.01935 0
M  V30 68078 C 6967.67 -1.79914 -6.11482 0
M  V30 68079 C 6965.36 -1.119 -6.00768 0
M  V30 68080 C 6966.35 -1.92129 -6.5542 0
M  V30 68081 O 6966.04 -2.83307 -7.52325 0
M  V30 68082 H 6965.77 0.0935608 -0.669494 0
M  V30 68083 H 6968.33 -0.372072 -2.02002 0
M  V30 68084 H 6966.56 1.74389 -3.45145 0
M  V30 68085 H 6968.25 1.48235 -3.77864 0
M  V30 68086 H 6969.01 -0.787775 -4.78559 0
M  V30 68087 H 6964.89 0.42283 -4.59057 0
M  V30 68088 H 6968.44 -2.42578 -6.54066 0
M  V30 68089 H 6964.33 -1.20736 -6.34108 0
M  V30 68090 H 6965.1 -2.777 -7.69951 0
M  V30 68091 N 6967.76 1.57583 0.0233128 0
M  V30 68092 C 6969.04 1.80704 0.748698 0
M  V30 68093 C 6969.42 0.849208 1.93266 0
M  V30 68094 O 6968.77 -0.107348 2.28248 0
M  V30 68095 C 6968.98 3.28578 1.17634 0
M  V30 68096 C 6970.33 3.93711 1.58987 0
M  V30 68097 O 6971.35 3.32761 1.27076 0
M  V30 68098 O 6970.21 5.01034 2.18237 0
M  V30 68099 H 6967.3 0.7433 0.362538 0
M  V30 68100 H 6969.85 1.697 -0.000351445 0
M  V30 68101 H 6968.62 3.89894 0.331397 0
M  V30 68102 H 6968.24 3.44492 1.98522 0
M  V30 68103 N 6969.24 -0.295686 1.54801 0
M  V30 68104 C 6970.2 -1.34798 1.8537 0
M  V30 68105 C 6971.2 -1.43433 0.726893 0
M  V30 68106 O 6972.39 -1.42976 0.995163 0
M  V30 68107 C 6969.53 -2.73219 2.03874 0
M  V30 68108 H 6970.72 -1.08934 2.79416 0
M  V30 68109 H 6968.27 -0.532625 1.46945 0
M  V30 68110 H 6969.01 -3.04297 1.12133 0
M  V30 68111 H 6968.79 -2.68341 2.85895 0
M  V30 68112 H 6970.28 -3.49293 2.28876 0
M  V30 68113 N 6970.72 -1.47348 -0.559135 0
M  V30 68114 C 6971.96 -1.55451 -1.32719 0
M  V30 68115 C 6972.32 -0.210996 -1.90837 0
M  V30 68116 O 6973.52 -0.166861 -2.68282 0
M  V30 68117 C 6971.8 -2.64006 -2.40906 0
M  V30 68118 S 6973.35 -2.91678 -3.27825 0
M  V30 68119 H 6970.17 -0.548953 -0.451854 0
M  V30 68120 H 6972.77 -1.84717 -0.640306 0
M  V30 68121 H 6971.48 -3.60223 -1.96641 0
M  V30 68122 H 6971.01 -2.36548 -3.14338 0
M  V30 68123 H 6973.02 -2.28746 -4.40329 0
M  V30 68124 N 6972.2 0.80571 -1.35448 0
M  V30 68125 C 6973.44 1.56515 -1.2896 0
M  V30 68126 C 6973.78 1.93727 0.135495 0
M  V30 68127 O 6973.05 1.6142 1.08507 0
M  V30 68128 C 6973.33 2.85319 -2.19693 0
M  V30 68129 C 6973.19 2.54579 -3.70823 0
M  V30 68130 C 6974.51 3.87029 -2.09515 0
M  V30 68131 H 6971.63 0.567858 -0.469794 0
M  V30 68132 H 6974.27 0.926913 -1.65856 0
M  V30 68133 H 6972.42 3.39785 -1.88358 0
M  V30 68134 H 6974.09 2.0629 -4.12604 0
M  V30 68135 H 6972.33 1.87759 -3.91061 0
M  V30 68136 H 6973 3.46503 -4.29697 0
M  V30 68137 H 6975.48 3.41965 -2.37063 0
M  V30 68138 H 6974.36 4.74929 -2.75198 0
M  V30 68139 H 6974.62 4.28772 -1.07737 0
M  V30 68140 N 6973.68 1.1946 1.02797 0
M  V30 68141 C 6974.92 0.997786 1.76211 0
M  V30 68142 C 6975.25 -0.47134 1.88702 0
M  V30 68143 O 6974.51 -1.36622 1.40117 0
M  V30 68144 C 6974.8 1.61297 3.18933 0
M  V30 68145 C 6974.47 3.11036 3.26447 0
M  V30 68146 C 6973.13 3.51902 3.28204 0
M  V30 68147 C 6975.48 4.07045 3.25521 0
M  V30 68148 C 6972.81 4.87328 3.26694 0
M  V30 68149 C 6975.16 5.42402 3.2555 0
M  V30 68150 C 6973.83 5.82698 3.25606 0
M  V30 68151 H 6973.1 0.365116 0.644803 0
M  V30 68152 H 6975.75 1.48716 1.20647 0
M  V30 68153 H 6974.05 1.04592 3.77582 0
M  V30 68154 H 6975.75 1.43597 3.74407 0
M  V30 68155 H 6972.34 2.78474 3.25807 0
M  V30 68156 H 6976.52 3.76515 3.23342 0
M  V30 68157 H 6971.78 5.17827 3.25061 0
M  V30 68158 H 6975.95 6.16552 3.23785 0
M  V30 68159 H 6973.58 6.87608 3.2419 0
M  V30 68160 N 6975.15 -1.2192 0.99866 0
M  V30 68161 C 6976.43 -1.86379 0.593499 0
M  V30 68162 C 6976.81 -1.89557 -0.92906 0
M  V30 68163 O 6976.16 -1.39026 -1.81339 0
M  V30 68164 C 6976.37 -3.26961 1.22056 0
M  V30 68165 C 6977.72 -4.03406 1.3247 0
M  V30 68166 O 6978.74 -3.36248 1.1754 0
M  V30 68167 O 6977.6 -5.23636 1.56422 0
M  V30 68168 H 6974.69 -0.801843 0.202427 0
M  V30 68169 H 6977.24 -1.29653 1.0949 0
M  V30 68170 H 6976.01 -3.19313 2.26174 0
M  V30 68171 H 6975.63 -3.91298 0.705112 0
M  V30 68172 N 6976.63 -0.772586 -1.37364 0
M  V30 68173 C 6977.86 -0.347493 -2.04468 0
M  V30 68174 C 6978.28 1.02241 -1.57887 0
M  V30 68175 O 6977.64 1.65533 -0.739498 0
M  V30 68176 C 6977.69 -0.400668 -3.58367 0
M  V30 68177 O 6976.79 0.598574 -4.08033 0
M  V30 68178 H 6976.13 -0.150305 -0.646765 0
M  V30 68179 H 6978.66 -1.04901 -1.75661 0
M  V30 68180 H 6978.67 -0.25826 -4.07182 0
M  V30 68181 H 6977.35 -1.40007 -3.91626 0
M  V30 68182 H 6975.93 0.419216 -3.70536 0
M  V30 68183 N 6978.11 1.48662 -0.523194 0
M  V30 68184 C 6979.35 2.04397 0.011451 0
M  V30 68185 C 6979.71 1.39221 1.32218 0
M  V30 68186 O 6980.92 1.85803 1.94243 0
M  V30 68187 C 6979.19 3.57134 0.13793 0
M  V30 68188 S 6980.75 4.34346 0.62362 0
M  V30 68189 H 6977.56 0.710945 -0.00881455 0
M  V30 68190 H 6980.17 1.82453 -0.702213 0
M  V30 68191 H 6978.87 4.02105 -0.82096 0
M  V30 68192 H 6978.4 3.83519 0.876175 0
M  V30 68193 H 6980.42 4.58826 1.88926 0
M  V30 68194 N 6979.59 0.258013 1.55474 0
M  V30 68195 C 6980.84 -0.363623 1.99209 0
M  V30 68196 C 6981.16 -1.57133 1.14628 0
M  V30 68197 O 6980.42 -1.94678 0.199755 0
M  V30 68198 C 6980.72 -0.806249 3.48187 0
M  V30 68199 C 6980.38 0.294922 4.49934 0
M  V30 68200 C 6979.05 0.597328 4.77478 0
M  V30 68201 C 6981.4 1.03778 5.10764 0
M  V30 68202 C 6978.73 1.64648 5.63123 0
M  V30 68203 C 6981.08 2.07653 5.97547 0
M  V30 68204 C 6979.74 2.38547 6.23419 0
M  V30 68205 H 6979.01 -0.133059 0.728956 0
M  V30 68206 H 6981.66 0.368158 1.87928 0
M  V30 68207 H 6979.96 -1.61742 3.56857 0
M  V30 68208 H 6981.66 -1.29769 3.79422 0
M  V30 68209 H 6978.25 0.0490909 4.28572 0
M  V30 68210 H 6982.43 0.817407 4.89522 0
M  V30 68211 H 6977.69 1.89104 5.8142 0
M  V30 68212 H 6981.86 2.65699 6.43721 0
M  V30 68213 H 6979.49 3.1998 6.89577 0
M  V30 68214 N 6981.07 -1.57593 -0.0149554 0
M  V30 68215 C 6982 -2.02885 -1.04464 0
M  V30 68216 C 6982.98 -0.915835 -1.34355 0
M  V30 68217 O 6984.16 -1.18279 -1.46773 0
M  V30 68218 C 6981.29 -2.41384 -2.37596 0
M  V30 68219 C 6980.33 -3.63269 -2.23467 0
M  V30 68220 S 6981.17 -5.11821 -1.57478 0
M  V30 68221 C 6982.32 -5.53575 -2.92071 0
M  V30 68222 H 6982.56 -2.89906 -0.658917 0
M  V30 68223 H 6980.09 -1.52746 -0.225372 0
M  V30 68224 H 6982.05 -2.64234 -3.14151 0
M  V30 68225 H 6980.71 -1.54789 -2.73311 0
M  V30 68226 H 6979.9 -3.87908 -3.21781 0
M  V30 68227 H 6979.5 -3.40344 -1.55056 0
M  V30 68228 H 6981.8 -5.55121 -3.8839 0
M  V30 68229 H 6982.74 -6.53713 -2.72149 0
M  V30 68230 H 6983.15 -4.81106 -2.95293 0
M  V30 68231 N 6982.54 0.287472 -1.54956 0
M  V30 68232 C 6983.96 0.859546 -1.65737 0
M  V30 68233 C 6984.31 1.87589 -0.574866 0
M  V30 68234 O 6983.43 2.14499 0.286186 0
M  V30 68235 C 6984.03 1.56581 -3.00446 0
M  V30 68236 C 6982.59 2.08611 -3.13303 0
M  V30 68237 C 6981.73 0.923278 -2.61478 0
M  V30 68238 H 6984.68 0.0641502 -1.5857 0
M  V30 68239 H 6984.7 2.43209 -2.92626 0
M  V30 68240 H 6984.22 0.825853 -3.79211 0
M  V30 68241 H 6982.32 2.85612 -2.39283 0
M  V30 68242 H 6982.43 2.31135 -4.19659 0
M  V30 68243 H 6980.79 1.31263 -2.1827 0
M  V30 68244 H 6981.58 0.19706 -3.42734 0
M  V30 68245 N 6984.02 1.47642 0.551313 0
M  V30 68246 C 6985.27 1.54265 1.30563 0
M  V30 68247 C 6985.59 0.209065 1.93876 0
M  V30 68248 O 6984.86 -0.767524 1.80238 0
M  V30 68249 H 6983.44 0.568257 0.484864 0
M  V30 68250 H 6986.1 1.83977 0.643305 0
M  V30 68251 H 6985.2 2.31237 2.09609 0
M  V30 68252 N 6985.5 -0.798516 1.35873 0
M  V30 68253 C 6986.73 -1.59231 1.32892 0
M  V30 68254 C 6987.15 -1.87888 -0.0893596 0
M  V30 68255 O 6986.51 -1.47184 -1.05861 0
M  V30 68256 C 6986.56 -2.89564 2.14908 0
M  V30 68257 O 6985.66 -3.82755 1.53533 0
M  V30 68258 H 6985 -0.483356 0.455262 0
M  V30 68259 H 6987.53 -0.990444 1.79029 0
M  V30 68260 H 6987.54 -3.38916 2.27157 0
M  V30 68261 H 6986.22 -2.68032 3.18012 0
M  V30 68262 H 6984.79 -3.41326 1.50171 0
M  V30 68263 N 6986.98 -1.20003 -1.02162 0
M  V30 68264 C 6988.2 -1.03329 -1.79828 0
M  V30 68265 C 6988.63 0.413184 -1.83506 0
M  V30 68266 O 6987.99 1.29736 -1.26642 0
M  V30 68267 C 6988.03 -1.6155 -3.22388 0
M  V30 68268 O 6987.14 -0.849732 -4.03551 0
M  V30 68269 H 6986.48 -0.364738 -0.554853 0
M  V30 68270 H 6989.01 -1.59186 -1.28534 0
M  V30 68271 H 6989.02 -1.65073 -3.73115 0
M  V30 68272 H 6987.69 -2.66825 -3.19025 0
M  V30 68273 H 6986.27 -0.88832 -3.62165 0
M  V30 68274 N 6988.46 1.21389 -1.00511 0
M  V30 68275 C 6989.39 2.26032 -0.585803 0
M  V30 68276 C 6990.37 1.65487 0.393438 0
M  V30 68277 O 6991.55 1.9215 0.281395 0
M  V30 68278 C 6988.68 3.47188 0.0882452 0
M  V30 68279 C 6987.64 4.2025 -0.810789 0
M  V30 68280 C 6986.96 5.347 -0.00314578 0
M  V30 68281 C 6988.26 4.7763 -2.11345 0
M  V30 68282 H 6989.96 2.6136 -1.46053 0
M  V30 68283 H 6987.5 1.25634 -0.703714 0
M  V30 68284 H 6989.46 4.19563 0.393065 0
M  V30 68285 H 6988.18 3.10991 0.997602 0
M  V30 68286 H 6986.84 3.49726 -1.09944 0
M  V30 68287 H 6986.49 4.94746 0.907504 0
M  V30 68288 H 6986.19 5.84511 -0.601752 0
M  V30 68289 H 6987.71 6.09885 0.295486 0
M  V30 68290 H 6989.12 5.41883 -1.87177 0
M  V30 68291 H 6987.52 5.37831 -2.66192 0
M  V30 68292 H 6988.59 3.97006 -2.78414 0
M  V30 68293 N 6989.93 0.77986 1.36952 0
M  V30 68294 C 6990.84 0.172614 2.33964 0
M  V30 68295 C 6991.86 -0.670137 1.60578 0
M  V30 68296 O 6993.04 -0.588161 1.9262 0
M  V30 68297 C 6990.1 -0.689994 3.39765 0
M  V30 68298 C 6989.16 0.17015 4.28963 0
M  V30 68299 C 6988.4 -0.651382 5.2971 0
M  V30 68300 O 6988.62 -1.88798 5.38248 0
M  V30 68301 O 6987.55 -0.056309 6.01874 0
M  V30 68302 H 6991.38 0.974473 2.87642 0
M  V30 68303 H 6988.96 0.541151 1.39255 0
M  V30 68304 H 6990.85 -1.18219 4.04478 0
M  V30 68305 H 6989.52 -1.4699 2.88402 0
M  V30 68306 H 6988.43 0.708889 3.67322 0
M  V30 68307 H 6989.76 0.91334 4.83652 0
M  V30 68308 N 6991.41 -1.48383 0.531071 0
M  V30 68309 C 6992.65 -2.044 -0.000611197 0
M  V30 68310 C 6993.02 -1.3992 -1.31477 0
M  V30 68311 O 6994.22 -1.86831 -1.93255 0
M  V30 68312 C 6992.49 -3.57202 -0.118989 0
M  V30 68313 S 6994.05 -4.34671 -0.600577 0
M  V30 68314 H 6990.87 -0.710889 0.0125847 0
M  V30 68315 H 6993.47 -1.82078 0.711879 0
M  V30 68316 H 6992.17 -4.01664 0.842273 0
M  V30 68317 H 6991.7 -3.83978 -0.855824 0
M  V30 68318 H 6993.72 -4.59822 -1.8649 0
M  V30 68319 N 6992.89 -0.266254 -1.55335 0
M  V30 68320 C 6993.85 0.611885 -2.20881 0
M  V30 68321 C 6994.85 1.0881 -1.18394 0
M  V30 68322 O 6996.04 0.989698 -1.43355 0
M  V30 68323 C 6993.18 1.84317 -2.86775 0
M  V30 68324 H 6994.37 0.0397137 -2.99874 0
M  V30 68325 H 6991.92 -0.0168133 -1.56291 0
M  V30 68326 H 6992.66 2.45608 -2.11772 0
M  V30 68327 H 6992.44 1.50971 -3.6187 0
M  V30 68328 H 6993.93 2.46783 -3.3688 0
M  V30 68329 N 6994.37 1.57599 0.00659769 0
M  V30 68330 C 6995.59 1.94955 0.707635 0
M  V30 68331 C 6996.02 0.867956 1.66878 0
M  V30 68332 O 6995.38 -0.174485 1.80458 0
M  V30 68333 C 6995.43 3.31402 1.42145 0
M  V30 68334 O 6994.53 3.25239 2.53561 0
M  V30 68335 H 6993.87 0.636617 0.188718 0
M  V30 68336 H 6996.4 2.04551 -0.0446272 0
M  V30 68337 H 6996.41 3.66815 1.78636 0
M  V30 68338 H 6995.09 4.09678 0.716687 0
M  V30 68339 H 6993.66 3.01492 2.19447 0
M  V30 68340 N 6995.85 -0.279251 1.55106 0
M  V30 68341 C 6996.78 -1.34935 1.90564 0
M  V30 68342 C 6997.76 -1.51835 0.766818 0
M  V30 68343 O 6998.94 -1.64982 1.02442 0
M  V30 68344 C 6996.07 -2.70995 2.17207 0
M  V30 68345 C 6995.03 -2.68834 3.33035 0
M  V30 68346 C 6994.35 -4.08387 3.45144 0
M  V30 68347 C 6995.65 -2.28653 4.6959 0
M  V30 68348 H 6997.35 -1.05507 2.80194 0
M  V30 68349 H 6994.89 -0.506102 1.34813 0
M  V30 68350 H 6996.85 -3.45962 2.406 0
M  V30 68351 H 6995.57 -3.01992 1.24371 0
M  V30 68352 H 6994.23 -1.96324 3.09601 0
M  V30 68353 H 6993.88 -4.36596 2.49785 0
M  V30 68354 H 6993.58 -4.07837 4.23017 0
M  V30 68355 H 6995.1 -4.85102 3.70822 0
M  V30 68356 H 6996.52 -2.93342 4.92568 0
M  V30 68357 H 6994.91 -2.39277 5.50333 0
M  V30 68358 H 6995.98 -1.23782 4.68835 0
M  V30 68359 N 6997.33 -1.47933 -0.543476 0
M  V30 68360 C 6998.26 -1.57522 -1.66492 0
M  V30 68361 C 6999.27 -0.460415 -1.56154 0
M  V30 68362 O 7000.46 -0.730659 -1.62861 0
M  V30 68363 C 6997.56 -1.4763 -3.05055 0
M  V30 68364 C 6996.73 -2.73918 -3.4101 0
M  V30 68365 C 6995.79 -2.5767 -4.58795 0
M  V30 68366 O 6994.82 -3.31523 -4.62689 0
M  V30 68367 N 6996.02 -1.66397 -5.5614 0
M  V30 68368 H 6998.78 -2.54229 -1.58707 0
M  V30 68369 H 6996.35 -1.44486 -0.730441 0
M  V30 68370 H 6998.34 -1.34475 -3.81705 0
M  V30 68371 H 6996.91 -0.589521 -3.06991 0
M  V30 68372 H 6996.13 -3.01736 -2.53671 0
M  V30 68373 H 6997.42 -3.57728 -3.61812 0
M  V30 68374 H 6996.81 -1.05572 -5.55762 0
M  V30 68375 H 6995.37 -1.59187 -6.32062 0
M  V30 68376 N 6998.8 0.791299 -1.36295 0
M  V30 68377 C 6999.77 1.88546 -1.30319 0
M  V30 68378 C 7000.77 1.59406 -0.211288 0
M  V30 68379 O 7001.96 1.67853 -0.465954 0
M  V30 68380 C 6999.09 3.25291 -1.01973 0
M  V30 68381 H 7000.28 1.95261 -2.27625 0
M  V30 68382 H 6997.83 0.988889 -1.2104 0
M  V30 68383 H 6998.57 3.2426 -0.051169 0
M  V30 68384 H 6998.35 3.47831 -1.80987 0
M  V30 68385 H 6999.84 4.05353 -1.00391 0
M  V30 68386 N 7000.28 1.20543 1.01524 0
M  V30 68387 C 7001.51 1.04057 1.78482 0
M  V30 68388 C 7001.92 -0.413195 1.84633 0
M  V30 68389 O 7001.26 -1.29865 1.29926 0
M  V30 68390 C 7001.32 1.55021 3.24359 0
M  V30 68391 C 7000.99 3.03339 3.41811 0
M  V30 68392 C 7001.99 4.00984 3.3092 0
M  V30 68393 C 6999.67 3.42327 3.67584 0
M  V30 68394 C 7001.66 5.35607 3.45549 0
M  V30 68395 C 6999.35 4.77105 3.81856 0
M  V30 68396 C 7000.35 5.73554 3.70843 0
M  V30 68397 O 7000.04 7.05889 3.84677 0
M  V30 68398 H 6999.77 0.366403 0.568088 0
M  V30 68399 H 7002.32 1.60105 1.28668 0
M  V30 68400 H 7000.55 0.933595 3.75261 0
M  V30 68401 H 7002.24 1.34534 3.82956 0
M  V30 68402 H 7003.01 3.72207 3.10945 0
M  V30 68403 H 6998.89 2.67795 3.75242 0
M  V30 68404 H 7002.43 6.10872 3.3687 0
M  V30 68405 H 6998.33 5.05571 4.01333 0
M  V30 68406 H 6999.1 7.13155 4.01687 0
M  V30 68407 N 7001.76 -1.20854 1.01154 0
M  V30 68408 C 7002.72 -2.21679 0.582341 0
M  V30 68409 C 7003.72 -1.5706 -0.344804 0
M  V30 68410 O 7004.91 -1.73682 -0.13419 0
M  V30 68411 C 7002.04 -3.40568 -0.150317 0
M  V30 68412 H 7003.24 -2.61164 1.47422 0
M  V30 68413 H 7000.79 -1.34229 0.800766 0
M  V30 68414 H 7001.53 -3.06579 -1.05734 0
M  V30 68415 H 7001.31 -3.88695 0.515649 0
M  V30 68416 H 7002.8 -4.15295 -0.438125 0
M  V30 68417 N 7003.24 -0.787112 -1.36537 0
M  V30 68418 C 7004.2 -0.189899 -2.28412 0
M  V30 68419 C 7005.2 0.61142 -1.48722 0
M  V30 68420 O 7006.39 0.432753 -1.68739 0
M  V30 68421 C 7003.52 0.737463 -3.32828 0
M  V30 68422 H 7004.72 -0.999981 -2.82737 0
M  V30 68423 H 7002.27 -0.556375 -1.46062 0
M  V30 68424 H 7003 1.57197 -2.83654 0
M  V30 68425 H 7002.79 0.164838 -3.91753 0
M  V30 68426 H 7004.28 1.15026 -4.01446 0
M  V30 68427 N 7004.72 1.48099 -0.538933 0
M  V30 68428 C 7005.65 2.32576 0.207531 0
M  V30 68429 C 7006.63 1.42654 0.926484 0
M  V30 68430 O 7007.81 1.71532 0.910519 0
M  V30 68431 C 7004.94 3.24048 1.2494 0
M  V30 68432 C 7003.9 4.23066 0.64804 0
M  V30 68433 C 7003.22 5.03734 1.79321 0
M  V30 68434 C 7004.52 5.2087 -0.386171 0
M  V30 68435 H 7006.22 2.95234 -0.49769 0
M  V30 68436 H 7003.76 1.41973 -0.24079 0
M  V30 68437 H 7005.71 3.81978 1.77963 0
M  V30 68438 H 7004.44 2.59408 1.98432 0
M  V30 68439 H 7003.1 3.66335 0.139259 0
M  V30 68440 H 7002.75 4.35511 2.51673 0
M  V30 68441 H 7002.45 5.70759 1.39672 0
M  V30 68442 H 7003.97 5.64518 2.32705 0
M  V30 68443 H 7005.38 5.73271 0.0573047 0
M  V30 68444 H 7003.78 5.95997 -0.700542 0
M  V30 68445 H 7004.85 4.67461 -1.28873 0
M  V30 68446 N 7006.19 0.274488 1.55191 0
M  V30 68447 C 7007.43 -0.343672 2.0149 0
M  V30 68448 C 7007.8 -1.53097 1.15868 0
M  V30 68449 O 7009 -2.21872 1.51744 0
M  V30 68450 C 7007.27 -0.716836 3.50137 0
M  V30 68451 S 7008.83 -1.32162 4.18424 0
M  V30 68452 H 7005.65 -0.106911 0.702916 0
M  V30 68453 H 7008.25 0.396176 1.91444 0
M  V30 68454 H 7006.95 0.156163 4.10103 0
M  V30 68455 H 7006.48 -1.48816 3.64167 0
M  V30 68456 H 7008.5 -2.61022 4.21998 0
M  V30 68457 N 7007.67 -1.576 0.00176024 0
M  V30 68458 C 7008.64 -2.07478 -0.973937 0
M  V30 68459 C 7009.64 -0.984511 -1.27138 0
M  V30 68460 O 7010.83 -1.2471 -1.21627 0
M  V30 68461 C 7007.96 -2.51771 -2.29835 0
M  V30 68462 H 7009.15 -2.94953 -0.542465 0
M  V30 68463 H 7006.7 -1.54356 -0.245747 0
M  V30 68464 H 7007.44 -1.67544 -2.77668 0
M  V30 68465 H 7007.22 -3.31397 -2.09567 0
M  V30 68466 H 7008.71 -2.9068 -2.99825 0
M  V30 68467 N 7009.15 0.271021 -1.55252 0
M  V30 68468 C 7010.08 1.3574 -1.84682 0
M  V30 68469 C 7011.1 1.45443 -0.731443 0
M  V30 68470 O 7012.28 1.47225 -1.00931 0
M  V30 68471 C 7009.38 2.73847 -1.99653 0
M  V30 68472 C 7008.56 2.8671 -3.30327 0
M  V30 68473 C 7007.62 4.05505 -3.35339 0
M  V30 68474 O 7006.64 3.96169 -4.08703 0
M  V30 68475 N 7007.84 5.17563 -2.62885 0
M  V30 68476 H 7010.61 1.10838 -2.78451 0
M  V30 68477 H 7008.17 0.461136 -1.55194 0
M  V30 68478 H 7010.16 3.51614 -2.00374 0
M  V30 68479 H 7008.73 2.91562 -1.12741 0
M  V30 68480 H 7007.95 1.95811 -3.42128 0
M  V30 68481 H 7009.24 2.92236 -4.16504 0
M  V30 68482 H 7008.64 5.28035 -2.02967 0
M  V30 68483 H 7007.2 5.93554 -2.69326 0
M  V30 68484 N 7010.63 1.48219 0.535623 0
M  V30 68485 C 7011.56 1.58403 1.65654 0
M  V30 68486 C 7012.57 0.46869 1.55907 0
M  V30 68487 O 7013.76 0.739286 1.62471 0
M  V30 68488 C 7010.86 1.49246 3.04268 0
M  V30 68489 C 7010.04 2.75723 3.39552 0
M  V30 68490 C 7009.09 2.60099 4.57422 0
M  V30 68491 O 7008.12 3.33972 4.60925 0
M  V30 68492 N 7009.32 1.69344 5.5525 0
M  V30 68493 H 7012.09 2.55067 1.57357 0
M  V30 68494 H 7009.65 1.44871 0.722768 0
M  V30 68495 H 7011.64 1.36497 3.80986 0
M  V30 68496 H 7010.21 0.605794 3.06674 0
M  V30 68497 H 7009.43 3.03077 2.52067 0
M  V30 68498 H 7010.72 3.59642 3.5991 0
M  V30 68499 H 7010.12 1.08518 5.55194 0
M  V30 68500 H 7008.67 1.62537 6.31209 0
M  V30 68501 N 7012.11 -0.78406 1.36712 0
M  V30 68502 C 7013.05 -1.91831 1.31544 0
M  V30 68503 C 7014.05 -1.68139 0.206294 0
M  V30 68504 O 7015.25 -1.7608 0.373612 0
M  V30 68505 H 7011.63 -0.63063 0.409646 0
M  V30 68506 H 7013.6 -1.93308 2.2732 0
M  V30 68507 C 7012.35 -3.2893 1.12697 0
M  V30 68508 H 7011.67 -3.4773 1.97292 0
M  V30 68509 H 7013.11 -4.0863 1.13128 0
M  V30 68510 C 7011.57 -3.3648 -0.168103 0
M  V30 68511 O 7012.1 -3.84706 -1.15605 0
M  V30 68512 N 7010.31 -2.89806 -0.21461 0
M  V30 68513 H 7009.85 -2.50753 0.589984 0
M  V30 68514 H 7009.81 -2.9524 -1.08078 0
M  V30 68515 N 7013.58 -1.2108 -1.00883 0
M  V30 68516 C 7014.83 -1.0199 -1.74014 0
M  V30 68517 C 7015.15 0.447565 -1.90411 0
M  V30 68518 O 7016.35 0.757769 -2.60711 0
M  V30 68519 C 7014.81 -1.7762 -3.13016 0
M  V30 68520 C 7014.42 -3.28511 -3.04606 0
M  V30 68521 C 7016.16 -1.66925 -3.90303 0
M  V30 68522 C 7014.07 -3.96646 -4.38664 0
M  V30 68523 H 7013 -0.378005 -0.652402 0
M  V30 68524 H 7015.65 -1.44777 -1.12747 0
M  V30 68525 H 7014.03 -1.27623 -3.74871 0
M  V30 68526 H 7015.2 -3.85781 -2.52012 0
M  V30 68527 H 7013.52 -3.39706 -2.40809 0
M  V30 68528 H 7016.12 -2.15164 -4.89498 0
M  V30 68529 H 7016.46 -0.626797 -4.11554 0
M  V30 68530 H 7016.99 -2.14377 -3.35093 0
M  V30 68531 H 7013.73 -5.01076 -4.22614 0
M  V30 68532 H 7013.25 -3.44165 -4.91233 0
M  V30 68533 H 7014.93 -4.01341 -5.07479 0
M  V30 68534 N 7015.06 1.20316 -1.01793 0
M  V30 68535 C 7016.3 1.91427 -0.716594 0
M  V30 68536 C 7016.67 1.77156 0.740258 0
M  V30 68537 O 7017.87 2.4276 1.15417 0
M  V30 68538 C 7016.14 3.38668 -1.14187 0
M  V30 68539 S 7017.7 4.28109 -0.962708 0
M  V30 68540 H 7014.52 0.661279 -0.26121 0
M  V30 68541 H 7017.12 1.45526 -1.30547 0
M  V30 68542 H 7015.82 3.46576 -2.19802 0
M  V30 68543 H 7015.35 3.89595 -0.545826 0
M  V30 68544 H 7017.37 4.96022 0.132991 0
M  V30 68545 N 7016.54 0.794341 1.36118 0
M  V30 68546 C 7017.47 0.210451 2.3255 0
M  V30 68547 C 7018.45 -0.657303 1.56887 0
M  V30 68548 O 7019.64 -0.590109 1.85017 0
M  V30 68549 C 7016.77 -0.651639 3.41132 0
M  V30 68550 C 7015.72 0.116621 4.27841 0
M  V30 68551 C 7015.05 -0.866381 5.27634 0
M  V30 68552 C 7016.35 1.30864 5.0564 0
M  V30 68553 H 7018.04 1.01609 2.81631 0
M  V30 68554 H 7015.59 0.490053 1.35405 0
M  V30 68555 H 7017.54 -1.07009 4.07587 0
M  V30 68556 H 7016.26 -1.49003 2.9063 0
M  V30 68557 H 7014.92 0.516107 3.62949 0
M  V30 68558 H 7014.57 -1.69994 4.73404 0
M  V30 68559 H 7014.27 -0.35674 5.86516 0
M  V30 68560 H 7015.79 -1.2833 5.96962 0
M  V30 68561 H 7017.21 0.965691 5.65108 0
M  V30 68562 H 7015.61 1.75191 5.73958 0
M  V30 68563 H 7016.68 2.10151 4.36995 0
M  V30 68564 N 7018.02 -1.47811 0.546779 0
M  V30 68565 C 7019.3 -1.95545 -0.0463382 0
M  V30 68566 C 7019.68 -1.48927 -1.49612 0
M  V30 68567 O 7019.02 -0.723346 -2.16749 0
M  V30 68568 C 7019.23 -3.48888 0.0883138 0
M  V30 68569 C 7020.58 -4.24554 -0.062382 0
M  V30 68570 O 7021.61 -3.56197 0.0153433 0
M  V30 68571 O 7020.46 -5.46025 -0.227783 0
M  V30 68572 H 7017.56 -0.824036 -0.069957 0
M  V30 68573 H 7020.1 -1.58258 0.612566 0
M  V30 68574 H 7018.88 -3.75592 1.09757 0
M  V30 68575 H 7018.5 -3.92913 -0.608678 0
M  V30 68576 N 7019.5 -0.282715 -1.55043 0
M  V30 68577 C 7020.74 0.325331 -2.00781 0
M  V30 68578 C 7021.1 1.52915 -1.16768 0
M  V30 68579 O 7020.39 1.90195 -0.231575 0
M  V30 68580 C 7020.58 0.750754 -3.49426 0
M  V30 68581 C 7020.41 -0.410292 -4.47824 0
M  V30 68582 C 7019.18 -0.896501 -4.97284 0
M  V30 68583 C 7021.38 -1.24928 -4.98896 0
M  V30 68584 N 7019.36 -2.02622 -5.79498 0
M  V30 68585 C 7020.73 -2.22677 -5.78632 0
M  V30 68586 C 7022.79 -1.28175 -4.81119 0
M  V30 68587 C 7021.49 -3.23427 -6.42485 0
M  V30 68588 C 7023.52 -2.27774 -5.45777 0
M  V30 68589 C 7022.88 -3.24255 -6.25331 0
M  V30 68590 H 7018.98 0.084009 -0.777474 0
M  V30 68591 H 7021.56 -0.408468 -1.90367 0
M  V30 68592 H 7019.73 1.45376 -3.60167 0
M  V30 68593 H 7021.47 1.33678 -3.81985 0
M  V30 68594 H 7018.22 -0.474526 -4.71217 0
M  V30 68595 H 7018.65 -2.59492 -6.25294 0
M  V30 68596 H 7023.29 -0.549618 -4.19212 0
M  V30 68597 H 7021.01 -3.9757 -7.03537 0
M  V30 68598 H 7024.59 -2.31038 -5.3396 0
M  V30 68599 H 7023.47 -4.00063 -6.74477 0
M  V30 68600 N 7020.98 1.57597 -0.0101181 0
M  V30 68601 C 7022.39 1.55803 0.346082 0
M  V30 68602 C 7022.59 1.01381 1.74138 0
M  V30 68603 O 7021.65 0.652096 2.43934 0
M  V30 68604 C 7022.96 2.99951 0.212057 0
M  V30 68605 C 7024.51 3.11688 0.286244 0
M  V30 68606 C 7024.98 4.57641 0.181228 0
M  V30 68607 N 7026.47 4.62584 0.238812 0
M  V30 68608 C 7027.21 5.73114 0.181049 0
M  V30 68609 N 7026.71 6.92761 0.0732957 0
M  V30 68610 N 7028.5 5.61614 0.233653 0
M  V30 68611 H 7020.65 1.91309 -0.922758 0
M  V30 68612 H 7022.91 0.879166 -0.354642 0
M  V30 68613 H 7022.62 3.43646 -0.74835 0
M  V30 68614 H 7022.49 3.63976 0.990032 0
M  V30 68615 H 7024.88 2.67918 1.2371 0
M  V30 68616 H 7024.96 2.50422 -0.521777 0
M  V30 68617 H 7024.6 5.02089 -0.766128 0
M  V30 68618 H 7024.53 5.16865 1.00787 0
M  V30 68619 H 7027.03 3.76517 0.323012 0
M  V30 68620 H 7027.34 7.72792 0.0353928 0
M  V30 68621 H 7025.68 6.94989 0.0387796 0
M  V30 68622 H 7028.87 4.67031 0.3161 0
M  V30 68623 H 7029.05 6.47735 0.185172 0
M  V30 68624 N 7022.45 -0.262784 1.55394 0
M  V30 68625 C 7023.4 -1.3449 1.89777 0
M  V30 68626 C 7024.4 -1.50625 0.775142 0
M  V30 68627 O 7025.6 -1.52288 0.959599 0
M  V30 68628 H 7021.98 -0.450009 0.602491 0
M  V30 68629 H 7023.95 -1.02748 2.80153 0
M  V30 68630 C 7022.7 -2.69645 2.19515 0
M  V30 68631 H 7022.02 -2.58024 3.05391 0
M  V30 68632 H 7023.46 -3.44276 2.47487 0
M  V30 68633 C 7021.92 -3.21525 1.00614 0
M  V30 68634 O 7022.45 -4.00946 0.245979 0
M  V30 68635 N 7020.65 -2.79341 0.801058 0
M  V30 68636 H 7020.2 -2.14868 1.4209 0
M  V30 68637 H 7020.16 -3.14399 0.00714575 0
M  V30 68638 N 7023.93 -1.48501 -0.527755 0
M  V30 68639 C 7024.88 -1.59589 -1.62835 0
M  V30 68640 C 7025.87 -0.452891 -1.54395 0
M  V30 68641 O 7027.06 -0.704449 -1.62378 0
M  V30 68642 C 7024.19 -1.64083 -3.01549 0
M  V30 68643 C 7023.27 -2.8387 -3.15085 0
M  V30 68644 N 7023.66 -4.08263 -2.98589 0
M  V30 68645 C 7021.96 -2.81249 -3.46143 0
M  V30 68646 C 7022.66 -4.88642 -3.156 0
M  V30 68647 N 7021.64 -4.21501 -3.43275 0
M  V30 68648 H 7025.44 -2.5351 -1.48695 0
M  V30 68649 H 7022.95 -1.44903 -0.733267 0
M  V30 68650 H 7024.95 -1.70121 -3.80611 0
M  V30 68651 H 7023.61 -0.712803 -3.16779 0
M  V30 68652 H 7024.62 -4.38665 -2.75306 0
M  V30 68653 H 7021.3 -1.97712 -3.67718 0
M  V30 68654 H 7022.69 -5.97372 -3.07565 0
M  V30 68655 N 7025.41 0.776798 -1.37126 0
M  V30 68656 C 7026.64 1.56583 -1.35238 0
M  V30 68657 C 7027.05 1.88693 0.0634523 0
M  V30 68658 O 7026.41 1.51074 1.02386 0
M  V30 68659 C 7026.46 2.87919 -2.18598 0
M  V30 68660 O 7026.18 2.57187 -3.54664 0
M  V30 68661 C 7027.68 3.82172 -2.24633 0
M  V30 68662 H 7024.9 0.485261 -0.463425 0
M  V30 68663 H 7027.45 0.963171 -1.80398 0
M  V30 68664 H 7025.6 3.44621 -1.76961 0
M  V30 68665 H 7026.02 3.41254 -3.98304 0
M  V30 68666 H 7027.49 4.71346 -2.87292 0
M  V30 68667 H 7027.97 4.20938 -1.25332 0
M  V30 68668 H 7028.57 3.314 -2.6656 0
M  V30 68669 N 7026.89 1.21613 1.0024 0
M  V30 68670 C 7027.84 0.945161 2.07487 0
M  V30 68671 C 7028.82 -0.10059 1.60585 0
M  V30 68672 O 7030.01 0.108684 1.76666 0
M  V30 68673 C 7027.14 0.514521 3.39422 0
M  V30 68674 C 7026.23 1.59448 3.92985 0
M  V30 68675 N 7026.62 2.82013 4.19884 0
M  V30 68676 C 7024.92 1.46396 4.21289 0
M  V30 68677 C 7025.62 3.51778 4.63278 0
M  V30 68678 N 7024.59 2.79224 4.66406 0
M  V30 68679 H 7028.4 1.87631 2.26212 0
M  V30 68680 H 7025.91 1.11225 1.18333 0
M  V30 68681 H 7027.91 0.301746 4.15807 0
M  V30 68682 H 7026.57 -0.409838 3.22103 0
M  V30 68683 H 7027.58 3.18531 4.0836 0
M  V30 68684 H 7024.26 0.605081 4.13092 0
M  V30 68685 H 7025.65 4.56734 4.92792 0
M  V30 68686 N 7028.37 -1.19774 1.0243 0
M  V30 68687 C 7029.61 -1.88966 0.716669 0
M  V30 68688 C 7029.93 -1.7972 -0.756674 0
M  V30 68689 O 7029.2 -1.20464 -1.54483 0
M  V30 68690 H 7027.78 -0.699509 0.262099 0
M  V30 68691 H 7030.45 -1.4543 1.29755 0
M  V30 68692 H 7029.54 -2.95411 1.0069 0
M  V30 68693 N 7029.84 -0.801549 -1.35694 0
M  V30 68694 C 7030.81 -0.214114 -2.28198 0
M  V30 68695 C 7031.81 0.595612 -1.49362 0
M  V30 68696 O 7033 0.414832 -1.69189 0
M  V30 68697 C 7030.13 0.702121 -3.33591 0
M  V30 68698 H 7031.32 -1.02991 -2.81661 0
M  V30 68699 H 7028.87 -0.571836 -1.45464 0
M  V30 68700 H 7029.61 1.5418 -2.85305 0
M  V30 68701 H 7029.39 0.123278 -3.91906 0
M  V30 68702 H 7030.88 1.10761 -4.02643 0
M  V30 68703 N 7031.32 1.47519 -0.55461 0
M  V30 68704 C 7032.56 2.04375 -0.0319071 0
M  V30 68705 C 7032.93 1.41994 1.29235 0
M  V30 68706 O 7034.13 1.89882 1.90259 0
M  V30 68707 C 7032.4 3.57346 0.0621459 0
M  V30 68708 S 7033.96 4.35571 0.531349 0
M  V30 68709 H 7030.77 0.710598 -0.0238928 0
M  V30 68710 H 7033.38 1.80923 -0.740756 0
M  V30 68711 H 7032.08 4.00273 -0.906068 0
M  V30 68712 H 7031.61 3.85291 0.794628 0
M  V30 68713 H 7033.63 4.6273 1.79151 0
M  V30 68714 N 7032.8 0.290933 1.54891 0
M  V30 68715 C 7033.73 -0.582965 2.26106 0
M  V30 68716 C 7034.71 -1.14613 1.2569 0
M  V30 68717 O 7035.9 -1.17733 1.54443 0
M  V30 68718 C 7033.03 -1.75971 2.99419 0
M  V30 68719 C 7031.98 -1.32737 4.06897 0
M  V30 68720 C 7031.31 -2.58848 4.6787 0
M  V30 68721 C 7032.61 -0.465965 5.20217 0
M  V30 68722 H 7034.3 0.0109793 2.99398 0
M  V30 68723 H 7031.85 0.00672061 1.43998 0
M  V30 68724 H 7033.8 -2.37708 3.47955 0
M  V30 68725 H 7032.52 -2.37974 2.23688 0
M  V30 68726 H 7031.18 -0.73311 3.59195 0
M  V30 68727 H 7030.83 -3.19142 3.88789 0
M  V30 68728 H 7030.53 -2.30625 5.4045 0
M  V30 68729 H 7032.05 -3.21405 5.19164 0
M  V30 68730 H 7033.47 -0.988749 5.64709 0
M  V30 68731 H 7031.86 -0.277944 5.99456 0
M  V30 68732 H 7032.93 0.511427 4.82195 0
M  V30 68733 N 7034.28 -1.57589 0.0184757 0
M  V30 68734 C 7035.52 -1.91641 -0.663442 0
M  V30 68735 C 7035.86 -0.894224 -1.72387 0
M  V30 68736 O 7035.13 0.0845424 -1.94316 0
M  V30 68737 C 7035.41 -3.36214 -1.28967 0
M  V30 68738 C 7035.27 -4.49162 -0.239525 0
M  V30 68739 C 7036.59 -3.80547 -2.2107 0
M  V30 68740 H 7033.71 -0.696928 -0.23971 0
M  V30 68741 H 7036.35 -1.89858 0.0735561 0
M  V30 68742 H 7034.5 -3.37864 -1.91781 0
M  V30 68743 H 7036.17 -4.59645 0.390362 0
M  V30 68744 H 7034.41 -4.31601 0.4362 0
M  V30 68745 H 7035.08 -5.47322 -0.717094 0
M  V30 68746 H 7037.56 -3.80565 -1.68253 0
M  V30 68747 H 7036.44 -4.8242 -2.61844 0
M  V30 68748 H 7036.7 -3.1545 -3.09747 0
M  V30 68749 N 7035.76 0.254539 -1.55531 0
M  V30 68750 C 7036.67 1.33667 -1.92796 0
M  V30 68751 C 7037.68 1.53067 -0.827437 0
M  V30 68752 O 7038.86 1.66837 -1.12816 0
M  V30 68753 C 7035.92 2.67264 -2.20841 0
M  V30 68754 C 7034.98 2.56452 -3.44283 0
M  V30 68755 C 7034.22 3.83678 -3.70981 0
M  V30 68756 O 7034.44 4.85211 -2.99878 0
M  V30 68757 O 7033.37 3.8277 -4.64512 0
M  V30 68758 H 7037.2 1.05056 -2.84951 0
M  V30 68759 H 7034.79 0.454648 -1.42314 0
M  V30 68760 H 7036.67 3.46224 -2.40222 0
M  V30 68761 H 7035.34 2.95623 -1.31867 0
M  V30 68762 H 7034.25 1.75804 -3.30218 0
M  V30 68763 H 7035.58 2.33039 -4.33536 0
M  V30 68764 N 7037.23 1.48779 0.519872 0
M  V30 68765 C 7038.47 1.58915 1.28551 0
M  V30 68766 C 7038.84 0.261519 1.90211 0
M  V30 68767 O 7040.04 0.237932 2.67745 0
M  V30 68768 C 7038.31 2.703 2.33822 0
M  V30 68769 S 7039.87 3.00267 3.19976 0
M  V30 68770 H 7036.69 0.56074 0.43714 0
M  V30 68771 H 7039.29 1.8635 0.591107 0
M  V30 68772 H 7037.99 3.6531 1.87021 0
M  V30 68773 H 7037.52 2.44799 3.07956 0
M  V30 68774 H 7039.54 2.4034 4.3411 0
M  V30 68775 N 7038.71 -0.769515 1.37536 0
M  V30 68776 C 7040.12 -1.34593 1.29389 0
M  V30 68777 C 7040.47 -1.96116 -0.0575004 0
M  V30 68778 O 7039.6 -1.93972 -0.959368 0
M  V30 68779 C 7040.19 -2.44712 2.34311 0
M  V30 68780 C 7038.75 -2.98116 2.29791 0
M  V30 68781 C 7037.9 -1.71352 2.18022 0
M  V30 68782 H 7040.85 -0.569602 1.48126 0
M  V30 68783 H 7040.87 -3.24249 1.99106 0
M  V30 68784 H 7040.38 -1.99905 3.32656 0
M  V30 68785 H 7038.49 -3.47292 1.34977 0
M  V30 68786 H 7038.6 -3.53578 3.23295 0
M  V30 68787 H 7036.96 -1.94363 1.64605 0
M  V30 68788 H 7037.75 -1.28645 3.18285 0
M  V30 68789 N 7040.19 -1.22143 -0.995934 0
M  V30 68790 C 7041.42 -1.0712 -1.77595 0
M  V30 68791 C 7041.84 0.374167 -1.84341 0
M  V30 68792 O 7041.2 1.27021 -1.29365 0
M  V30 68793 C 7041.25 -1.68352 -3.18888 0
M  V30 68794 O 7040.35 -0.93514 -4.01658 0
M  V30 68795 H 7039.69 -0.376426 -0.546992 0
M  V30 68796 H 7042.22 -1.61877 -1.25128 0
M  V30 68797 H 7042.23 -1.7295 -3.6953 0
M  V30 68798 H 7040.91 -2.73532 -3.13294 0
M  V30 68799 H 7039.48 -0.964941 -3.60199 0
M  V30 68800 N 7041.67 1.1923 -1.03063 0
M  V30 68801 C 7042.62 2.20407 -0.583502 0
M  V30 68802 C 7043.6 1.56619 0.368693 0
M  V30 68803 O 7044.79 1.75984 0.189378 0
M  V30 68804 C 7041.92 3.43243 0.0624724 0
M  V30 68805 C 7041.01 4.14172 -0.912269 0
M  V30 68806 N 7041.4 4.61261 -2.07538 0
M  V30 68807 C 7039.7 4.39884 -0.736091 0
M  V30 68808 C 7040.4 5.1575 -2.6903 0
M  V30 68809 N 7039.38 5.06655 -1.9698 0
M  V30 68810 H 7043.18 2.54495 -1.47002 0
M  V30 68811 H 7040.69 1.35323 -0.897857 0
M  V30 68812 H 7042.69 4.14972 0.400434 0
M  V30 68813 H 7041.35 3.10655 0.944649 0
M  V30 68814 H 7042.36 4.5603 -2.45472 0
M  V30 68815 H 7039.04 4.17388 0.0968455 0
M  V30 68816 H 7040.43 5.6246 -3.67543 0
M  V30 68817 N 7043.15 0.808734 1.35267 0
M  V30 68818 C 7044.56 0.492733 1.51803 0
M  V30 68819 C 7044.76 -0.985685 1.75746 0
M  V30 68820 O 7043.82 -1.77064 1.80012 0
M  V30 68821 C 7045.13 1.33996 2.69195 0
M  V30 68822 C 7046.68 1.33562 2.83073 0
M  V30 68823 C 7047.15 2.16701 4.03491 0
M  V30 68824 N 7048.65 2.14248 4.10672 0
M  V30 68825 C 7049.38 2.75334 5.0297 0
M  V30 68826 N 7048.88 3.45355 6.00585 0
M  V30 68827 N 7050.67 2.64964 4.95732 0
M  V30 68828 H 7042.82 1.76617 1.17984 0
M  V30 68829 H 7045.08 0.751845 0.577437 0
M  V30 68830 H 7044.79 2.38923 2.58087 0
M  V30 68831 H 7044.66 0.994683 3.63849 0
M  V30 68832 H 7047.05 0.294191 2.9363 0
M  V30 68833 H 7047.13 1.72078 1.89269 0
M  V30 68834 H 7046.78 3.20885 3.93694 0
M  V30 68835 H 7046.71 1.75544 4.9648 0
M  V30 68836 H 7049.2 1.63303 3.40794 0
M  V30 68837 H 7049.51 3.89247 6.67613 0
M  V30 68838 H 7047.85 3.4946 6.00752 0
M  V30 68839 H 7051.05 2.09847 4.18428 0
M  V30 68840 H 7051.22 3.12859 5.67471 0
M  V30 68841 N 7044.62 -1.47223 0.562426 0
M  V30 68842 C 7045.53 -2.33867 -0.185342 0
M  V30 68843 C 7046.55 -1.48513 -0.906635 0
M  V30 68844 O 7047.73 -1.8143 -0.874363 0
M  V30 68845 C 7044.79 -3.25312 -1.19887 0
M  V30 68846 C 7043.85 -4.26558 -0.484444 0
M  V30 68847 C 7043.09 -5.13634 -1.44969 0
M  V30 68848 O 7043.31 -5.0326 -2.68488 0
M  V30 68849 O 7042.24 -5.94011 -0.971329 0
M  V30 68850 H 7046.07 -2.99119 0.525518 0
M  V30 68851 H 7043.65 -1.45867 0.322993 0
M  V30 68852 H 7045.54 -3.81784 -1.78379 0
M  V30 68853 H 7044.21 -2.62682 -1.89156 0
M  V30 68854 H 7043.12 -3.73831 0.141802 0
M  V30 68855 H 7044.45 -4.91917 0.166893 0
M  V30 68856 N 7046.1 -0.299143 -1.54735 0
M  V30 68857 C 7047.33 0.312885 -2.04217 0
M  V30 68858 C 7047.74 1.48209 -1.17604 0
M  V30 68859 O 7047.08 1.82673 -0.193931 0
M  V30 68860 C 7047.15 0.833678 -3.497 0
M  V30 68861 C 7046.81 -0.210011 -4.56517 0
M  V30 68862 C 7047.81 -1.03783 -5.09436 0
M  V30 68863 C 7045.49 -0.351174 -5.01071 0
M  V30 68864 C 7047.49 -1.99276 -6.05448 0
M  V30 68865 C 7045.17 -1.30956 -5.96903 0
M  V30 68866 C 7046.17 -2.12884 -6.48976 0
M  V30 68867 O 7045.86 -3.07098 -7.42931 0
M  V30 68868 H 7045.59 0.072214 -0.672132 0
M  V30 68869 H 7048.14 -0.436149 -2.00716 0
M  V30 68870 H 7046.37 1.6332 -3.50519 0
M  V30 68871 H 7048.06 1.36139 -3.82389 0
M  V30 68872 H 7048.83 -0.939627 -4.75811 0
M  V30 68873 H 7044.71 0.27657 -4.6017 0
M  V30 68874 H 7048.25 -2.63263 -6.46017 0
M  V30 68875 H 7044.15 -1.40849 -6.29946 0
M  V30 68876 H 7044.92 -3.02055 -7.60727 0
M  V30 68877 N 7047.58 1.57577 -0.0268328 0
M  V30 68878 C 7048.51 2.0698 0.984485 0
M  V30 68879 C 7049.53 0.992774 1.29027 0
M  V30 68880 O 7050.71 1.26901 1.25532 0
M  V30 68881 C 7047.81 2.47744 2.31249 0
M  V30 68882 C 7046.99 3.78499 2.1922 0
M  V30 68883 C 7046.05 4.05839 3.34935 0
M  V30 68884 O 7045.07 4.76123 3.11923 0
M  V30 68885 N 7046.27 3.55833 4.58653 0
M  V30 68886 H 7049.04 2.94365 0.562988 0
M  V30 68887 H 7046.6 1.61108 0.159976 0
M  V30 68888 H 7048.59 2.63128 3.07483 0
M  V30 68889 H 7047.16 1.65737 2.65047 0
M  V30 68890 H 7046.38 3.72933 1.27728 0
M  V30 68891 H 7047.67 4.64169 2.08385 0
M  V30 68892 H 7047.07 2.98968 4.80244 0
M  V30 68893 H 7045.63 3.765 5.32063 0
M  V30 68894 N 7049.06 -0.246288 1.55664 0
M  V30 68895 C 7050.02 -1.28832 1.89565 0
M  V30 68896 C 7051.02 -1.41047 0.772157 0
M  V30 68897 O 7052.21 -1.39738 1.04015 0
M  V30 68898 C 7049.34 -2.66594 2.12463 0
M  V30 68899 H 7050.54 -0.999893 2.8274 0
M  V30 68900 H 7048.09 -0.485606 1.48565 0
M  V30 68901 H 7048.82 -3.00575 1.21758 0
M  V30 68902 H 7048.61 -2.59109 2.94287 0
M  V30 68903 H 7050.1 -3.41835 2.39872 0
M  V30 68904 N 7050.54 -1.49052 -0.511975 0
M  V30 68905 C 7051.78 -1.59594 -1.27707 0
M  V30 68906 C 7052.14 -0.271602 -1.90069 0
M  V30 68907 O 7053.34 -0.252128 -2.67615 0
M  V30 68908 C 7051.61 -2.71536 -2.32385 0
M  V30 68909 S 7053.17 -3.0196 -3.1838 0
M  V30 68910 H 7049.99 -0.56305 -0.434161 0
M  V30 68911 H 7052.59 -1.8666 -0.581216 0
M  V30 68912 H 7051.3 -3.66296 -1.85081 0
M  V30 68913 H 7050.83 -2.46429 -3.06654 0
M  V30 68914 H 7052.84 -2.42639 -4.32829 0
M  V30 68915 N 7052.02 0.762211 -1.37942 0
M  V30 68916 C 7053.26 1.51808 -1.33412 0
M  V30 68917 C 7053.58 1.94844 0.0779948 0
M  V30 68918 O 7052.85 1.67009 1.02396 0
M  V30 68919 H 7051.43 0.563078 -0.490869 0
M  V30 68920 H 7054.1 0.906578 -1.72532 0
M  V30 68921 H 7053.19 2.41302 -1.97938 0
M  V30 68922 N 7053.49 1.22669 0.989443 0
M  V30 68923 C 7054.9 1.04963 1.54401 0
M  V30 68924 C 7055.26 -0.38585 1.92369 0
M  V30 68925 O 7054.38 -1.27132 1.75118 0
M  V30 68926 C 7054.98 1.89914 2.80568 0
M  V30 68927 C 7053.53 1.76495 3.32455 0
M  V30 68928 C 7052.68 1.86169 2.05515 0
M  V30 68929 H 7055.63 1.36464 0.810139 0
M  V30 68930 H 7055.65 1.41859 3.53067 0
M  V30 68931 H 7055.17 2.94384 2.52903 0
M  V30 68932 H 7053.27 0.74772 3.6502 0
M  V30 68933 H 7053.38 2.59363 4.02824 0
M  V30 68934 H 7051.74 1.29648 2.19234 0
M  V30 68935 H 7052.53 2.92177 1.80242 0
M  V30 68936 N 7054.97 -1.18681 1.03694 0
M  V30 68937 C 7055.93 -2.20394 0.629231 0
M  V30 68938 C 7056.93 -1.57756 -0.311411 0
M  V30 68939 O 7058.12 -1.73928 -0.097319 0
M  V30 68940 C 7055.26 -3.40811 -0.0780434 0
M  V30 68941 H 7056.45 -2.57979 1.52928 0
M  V30 68942 H 7054 -1.325 0.829058 0
M  V30 68943 H 7054.74 -3.08753 -0.99207 0
M  V30 68944 H 7054.52 -3.87513 0.597981 0
M  V30 68945 H 7056.01 -4.16131 -0.349936 0
M  V30 68946 N 7056.45 -0.815896 -1.34837 0
M  V30 68947 C 7057.36 -0.234585 -2.33424 0
M  V30 68948 C 7058.38 0.627327 -1.62298 0
M  V30 68949 O 7059.55 0.536885 -1.94112 0
M  V30 68950 C 7056.62 0.599669 -3.41475 0
M  V30 68951 C 7055.68 -0.283822 -4.28361 0
M  V30 68952 C 7054.91 0.51071 -5.31251 0
M  V30 68953 O 7055.13 1.74461 -5.43065 0
M  V30 68954 O 7054.07 -0.103287 -6.01811 0
M  V30 68955 H 7057.89 -1.05039 -2.84957 0
M  V30 68956 H 7055.48 -0.577882 -1.37771 0
M  V30 68957 H 7057.36 1.07453 -4.0747 0
M  V30 68958 H 7056.04 1.39292 -2.92198 0
M  V30 68959 H 7054.94 -0.806029 -3.65314 0
M  V30 68960 H 7056.28 -1.04125 -4.8106 0
M  V30 68961 N 7057.93 1.46922 -0.570225 0
M  V30 68962 C 7058.84 2.33962 0.172937 0
M  V30 68963 C 7059.85 1.48992 0.898746 0
M  V30 68964 O 7061.03 1.81891 0.864729 0
M  V30 68965 C 7058.09 3.25943 1.1816 0
M  V30 68966 C 7057.16 4.26809 0.461816 0
M  V30 68967 C 7056.39 5.14395 1.42243 0
M  V30 68968 O 7056.61 5.04676 2.65816 0
M  V30 68969 O 7055.55 5.94518 0.939814 0
M  V30 68970 H 7059.37 2.98836 -0.541374 0
M  V30 68971 H 7056.96 1.45693 -0.330724 0
M  V30 68972 H 7058.84 3.82724 1.76352 0
M  V30 68973 H 7057.51 2.63681 1.8776 0
M  V30 68974 H 7056.42 3.73751 -0.161626 0
M  V30 68975 H 7057.75 4.91822 -0.192978 0
M  V30 68976 N 7059.41 0.307345 1.54574 0
M  V30 68977 C 7060.82 -0.184023 1.85791 0
M  V30 68978 C 7061.17 -1.52921 1.22922 0
M  V30 68979 O 7060.29 -2.09829 0.529236 0
M  V30 68980 C 7060.89 -0.340684 3.37083 0
M  V30 68981 C 7059.45 -0.776271 3.68308 0
M  V30 68982 C 7058.59 0.111649 2.77075 0
M  V30 68983 H 7061.54 0.528157 1.49654 0
M  V30 68984 H 7061.57 -1.17424 3.61928 0
M  V30 68985 H 7061.08 0.638511 3.82812 0
M  V30 68986 H 7059.18 -1.76579 3.28102 0
M  V30 68987 H 7059.29 -0.591262 4.75438 0
M  V30 68988 H 7057.66 -0.410124 2.51376 0
M  V30 68989 H 7058.44 1.08731 3.25626 0
M  V30 68990 N 7060.88 -1.57561 0.0351891 0
M  V30 68991 C 7062.11 -1.96353 -0.652154 0
M  V30 68992 C 7062.53 -0.911984 -1.65313 0
M  V30 68993 O 7061.88 0.105561 -1.82194 0
M  V30 68994 C 7061.93 -3.35218 -1.35319 0
M  V30 68995 O 7061.66 -4.3634 -0.392318 0
M  V30 68996 C 7063.16 -3.88677 -2.13179 0
M  V30 68997 H 7060.38 -0.64657 -0.17941 0
M  V30 68998 H 7062.92 -2.04271 0.0967537 0
M  V30 68999 H 7061.08 -3.285 -2.05345 0
M  V30 69000 H 7061.49 -5.1688 -0.890825 0
M  V30 69001 H 7062.96 -4.88168 -2.57674 0
M  V30 69002 H 7063.44 -3.23246 -2.97336 0
M  V30 69003 H 7064.05 -3.98682 -1.48097 0
M  V30 69004 N 7062.36 0.238029 -1.55792 0
M  V30 69005 C 7063.6 0.972068 -1.79806 0
M  V30 69006 C 7063.97 1.82182 -0.606123 0
M  V30 69007 O 7065.17 2.58832 -0.725215 0
M  V30 69008 C 7063.44 1.8025 -3.08617 0
M  V30 69009 S 7065 2.59443 -3.53886 0
M  V30 69010 H 7061.81 0.326819 -0.631435 0
M  V30 69011 H 7064.42 0.23911 -1.94032 0
M  V30 69012 H 7063.12 1.16809 -3.93426 0
M  V30 69013 H 7062.65 2.57805 -2.97153 0
M  V30 69014 H 7064.67 3.82635 -3.1592 0
M  V30 69015 N 7063.84 1.49322 0.504063 0
M  V30 69016 C 7064.79 1.65765 1.60595 0
M  V30 69017 C 7065.76 0.499166 1.58422 0
M  V30 69018 O 7066.94 0.725821 1.76455 0
M  V30 69019 C 7064.08 1.72741 2.98755 0
M  V30 69020 C 7063.19 2.99873 3.10967 0
M  V30 69021 C 7062.33 2.97847 4.39841 0
M  V30 69022 C 7061.37 4.19572 4.45675 0
M  V30 69023 N 7060.51 4.15474 5.65973 0
M  V30 69024 H 7065.35 2.59851 1.45882 0
M  V30 69025 H 7062.88 1.28841 0.709823 0
M  V30 69026 H 7064.84 1.74767 3.7883 0
M  V30 69027 H 7063.47 0.82124 3.12179 0
M  V30 69028 H 7062.52 3.07473 2.23975 0
M  V30 69029 H 7063.83 3.89866 3.11137 0
M  V30 69030 H 7062.99 2.98419 5.28234 0
M  V30 69031 H 7061.73 2.05628 4.42231 0
M  V30 69032 H 7060.73 4.19248 3.55685 0
M  V30 69033 H 7061.96 5.12981 4.45003 0
M  V30 69034 H 7059.9 3.26089 5.69211 0
M  V30 69035 H 7059.82 4.99199 5.67747 0
M  V30 69036 H 7061.09 4.20144 6.56582 0
M  V30 69037 N 7065.32 -0.754884 1.38345 0
M  V30 69038 C 7066.54 -1.54923 1.3789 0
M  V30 69039 C 7066.97 -1.88077 -0.0295394 0
M  V30 69040 O 7066.33 -1.50477 -1.01125 0
M  V30 69041 C 7066.37 -2.8258 2.24011 0
M  V30 69042 O 7065.48 -3.77677 1.65632 0
M  V30 69043 H 7064.82 -0.468627 0.470409 0
M  V30 69044 H 7067.35 -0.932986 1.82089 0
M  V30 69045 H 7067.36 -3.31517 2.37824 0
M  V30 69046 H 7066.03 -2.57779 3.26378 0
M  V30 69047 H 7064.61 -3.36375 1.60954 0
M  V30 69048 N 7066.8 -1.23192 -0.982923 0
M  V30 69049 C 7068.02 -1.08997 -1.76449 0
M  V30 69050 C 7068.45 0.354594 -1.84727 0
M  V30 69051 O 7067.8 1.25642 -1.30705 0
M  V30 69052 C 7067.85 -1.71725 -3.17085 0
M  V30 69053 O 7066.96 -0.977688 -4.00643 0
M  V30 69054 H 7066.3 -0.382206 -0.542968 0
M  V30 69055 H 7068.83 -1.63195 -1.23405 0
M  V30 69056 H 7068.84 -1.7686 -3.67674 0
M  V30 69057 H 7067.51 -2.7684 -3.10375 0
M  V30 69058 H 7066.09 -1.00309 -3.59155 0
M  V30 69059 N 7068.27 1.1813 -1.04322 0
M  V30 69060 C 7069.5 1.92651 -0.768149 0
M  V30 69061 C 7069.92 1.75803 0.668947 0
M  V30 69062 O 7069.28 1.06988 1.46367 0
M  V30 69063 C 7069.33 3.4202 -1.14257 0
M  V30 69064 O 7068.43 4.11518 -0.26955 0
M  V30 69065 H 7067.78 0.600922 -0.282468 0
M  V30 69066 H 7070.31 1.49786 -1.39375 0
M  V30 69067 H 7070.32 3.92735 -1.10559 0
M  V30 69068 H 7068.99 3.53603 -2.18946 0
M  V30 69069 H 7067.57 3.71096 -0.366371 0
M  V30 69070 N 7069.75 0.823035 1.34402 0
M  V30 69071 C 7070.98 0.423141 2.03038 0
M  V30 69072 C 7071.4 -0.963111 1.61573 0
M  V30 69073 O 7070.76 -1.62674 0.800425 0
M  V30 69074 C 7070.81 0.533398 3.56633 0
M  V30 69075 O 7069.91 -0.446723 4.09973 0
M  V30 69076 H 7069.25 0.174205 0.640741 0
M  V30 69077 H 7071.78 1.11348 1.71647 0
M  V30 69078 H 7071.79 0.409205 4.05943 0
M  V30 69079 H 7070.47 1.54445 3.8616 0
M  V30 69080 H 7069.05 -0.281405 3.71837 0
M  V30 69081 N 7071.23 -1.46618 0.578009 0
M  V30 69082 C 7072.16 -2.28363 -0.19568 0
M  V30 69083 C 7073.18 -1.38237 -0.85991 0
M  V30 69084 O 7074.36 -1.62879 -0.730263 0
M  V30 69085 C 7071.46 -3.13131 -1.29623 0
M  V30 69086 C 7070.64 -4.31353 -0.724822 0
M  V30 69087 C 7069.7 -4.97555 -1.71248 0
M  V30 69088 O 7068.72 -5.55296 -1.25038 0
M  V30 69089 N 7069.92 -4.94137 -3.04646 0
M  V30 69090 H 7072.69 -2.95404 0.505623 0
M  V30 69091 H 7070.25 -1.56478 0.415463 0
M  V30 69092 H 7072.24 -3.54285 -1.95612 0
M  V30 69093 H 7070.81 -2.48196 -1.90046 0
M  V30 69094 H 7070.03 -3.9404 0.112413 0
M  V30 69095 H 7071.32 -5.07775 -0.322766 0
M  V30 69096 H 7070.72 -4.48462 -3.44816 0
M  V30 69097 H 7069.28 -5.39246 -3.66138 0
M  V30 69098 N 7072.71 -0.315538 -1.54409 0
M  V30 69099 C 7073.64 0.587951 -2.21531 0
M  V30 69100 C 7074.65 1.08618 -1.21268 0
M  V30 69101 O 7075.84 1.00113 -1.47782 0
M  V30 69102 C 7072.94 1.8186 -2.85973 0
M  V30 69103 C 7072.12 1.46042 -4.12299 0
M  V30 69104 C 7071.17 2.54774 -4.60409 0
M  V30 69105 O 7070.2 2.19255 -5.25277 0
M  V30 69106 N 7071.4 3.85568 -4.33956 0
M  V30 69107 H 7074.17 0.0132559 -2.99697 0
M  V30 69108 H 7071.73 -0.13838 -1.61308 0
M  V30 69109 H 7073.72 2.53976 -3.15085 0
M  V30 69110 H 7072.29 2.30133 -2.1156 0
M  V30 69111 H 7071.51 0.571239 -3.90039 0
M  V30 69112 H 7072.8 1.19669 -4.94527 0
M  V30 69113 H 7072.2 4.17227 -3.82018 0
M  V30 69114 H 7070.75 4.53939 -4.67742 0
M  V30 69115 N 7074.19 1.5754 -0.0435444 0
M  V30 69116 C 7075.13 2.12255 0.951353 0
M  V30 69117 C 7076.13 1.05252 1.32734 0
M  V30 69118 O 7077.33 1.2367 1.30789 0
M  V30 69119 H 7073.71 0.67832 0.324632 0
M  V30 69120 H 7075.68 2.94759 0.464699 0
M  V30 69121 C 7074.43 2.67638 2.21958 0
M  V30 69122 H 7073.75 3.4963 1.93904 0
M  V30 69123 H 7075.19 3.09551 2.89748 0
M  V30 69124 C 7073.65 1.61054 2.95911 0
M  V30 69125 O 7074.18 1.01883 3.88565 0
M  V30 69126 N 7072.39 1.32755 2.58504 0
M  V30 69127 H 7071.93 1.8106 1.83235 0
M  V30 69128 H 7071.89 0.616694 3.08292 0
M  V30 69129 N 7075.66 -0.229763 1.55916 0
M  V30 69130 C 7076.61 -1.30434 1.92587 0
M  V30 69131 C 7077.61 -1.48947 0.806918 0
M  V30 69132 O 7078.81 -1.50218 0.991686 0
M  V30 69133 H 7075.19 -0.437128 0.611901 0
M  V30 69134 H 7077.16 -0.967821 2.82269 0
M  V30 69135 C 7075.91 -2.64928 2.25185 0
M  V30 69136 H 7075.23 -2.51488 3.10796 0
M  V30 69137 H 7076.67 -3.38949 2.54734 0
M  V30 69138 C 7075.13 -3.19319 1.07411 0
M  V30 69139 O 7075.66 -4.00334 0.33097 0
M  V30 69140 N 7073.87 -2.77579 0.860131 0
M  V30 69141 H 7073.41 -2.11805 1.46616 0
M  V30 69142 H 7073.37 -3.14313 0.0738329 0
M  V30 69143 N 7077.14 -1.49587 -0.496137 0
M  V30 69144 C 7078.37 -1.63036 -1.27385 0
M  V30 69145 C 7078.79 -0.303667 -1.86342 0
M  V30 69146 O 7078.14 0.711458 -1.68061 0
M  V30 69147 C 7078.19 -2.70282 -2.40063 0
M  V30 69148 O 7077.91 -3.97805 -1.83528 0
M  V30 69149 C 7079.42 -2.94479 -3.31356 0
M  V30 69150 H 7076.64 -0.54873 -0.386182 0
M  V30 69151 H 7079.18 -1.95651 -0.59506 0
M  V30 69152 H 7077.33 -2.40431 -3.03763 0
M  V30 69153 H 7077.75 -4.56919 -2.57537 0
M  V30 69154 H 7079.22 -3.73242 -4.06687 0
M  V30 69155 H 7079.7 -2.04581 -3.88643 0
M  V30 69156 H 7080.31 -3.25765 -2.73417 0
M  V30 69157 N 7078.62 0.747537 -1.38743 0
M  V30 69158 C 7079.87 1.50905 -1.35483 0
M  V30 69159 C 7080.2 1.94127 0.053207 0
M  V30 69160 O 7079.47 1.65877 1.01563 0
M  V30 69161 C 7079.76 2.75745 -2.31597 0
M  V30 69162 C 7079.61 2.38622 -3.81287 0
M  V30 69163 C 7080.93 3.77794 -2.25742 0
M  V30 69164 H 7078.05 0.547421 -0.493456 0
M  V30 69165 H 7080.69 0.855734 -1.69638 0
M  V30 69166 H 7078.84 3.3149 -2.026 0
M  V30 69167 H 7080.51 1.88604 -4.20982 0
M  V30 69168 H 7078.76 1.71004 -3.98673 0
M  V30 69169 H 7079.43 3.27966 -4.44007 0
M  V30 69170 H 7081.9 3.31603 -2.51354 0
M  V30 69171 H 7080.78 4.62829 -2.95093 0
M  V30 69172 H 7081.04 4.23816 -1.25826 0
M  V30 69173 N 7080.1 1.23712 0.976376 0
M  V30 69174 C 7081.03 1.04635 2.08743 0
M  V30 69175 C 7082.01 -0.0380059 1.70058 0
M  V30 69176 O 7083.2 0.12741 1.93782 0
M  V30 69177 C 7080.33 0.641082 3.41332 0
M  V30 69178 C 7079.28 1.67323 3.93938 0
M  V30 69179 C 7078.61 1.12329 5.22768 0
M  V30 69180 C 7079.91 3.0672 4.22753 0
M  V30 69181 H 7081.6 1.97567 2.24961 0
M  V30 69182 H 7079.15 0.951304 1.08103 0
M  V30 69183 H 7081.1 0.494655 4.18487 0
M  V30 69184 H 7079.82 -0.323928 3.2499 0
M  V30 69185 H 7078.48 1.80772 3.18931 0
M  V30 69186 H 7078.13 0.149142 5.02779 0
M  V30 69187 H 7077.83 1.81296 5.58932 0
M  V30 69188 H 7079.35 0.988797 6.02541 0
M  V30 69189 H 7080.77 2.96549 4.90644 0
M  V30 69190 H 7079.16 3.72962 4.70127 0
M  V30 69191 H 7080.23 3.5541 3.29867 0
M  V30 69192 N 7081.58 -1.17575 1.04947 0
M  V30 69193 C 7082.82 -1.88053 0.759211 0
M  V30 69194 C 7083.16 -1.80684 -0.711823 0
M  V30 69195 O 7082.43 -1.21316 -1.52029 0
M  V30 69196 C 7082.71 -3.3818 1.23718 0
M  V30 69197 C 7082.57 -3.54313 2.77097 0
M  V30 69198 C 7083.89 -4.32121 0.834241 0
M  V30 69199 H 7081.01 -0.682853 0.277273 0
M  V30 69200 H 7083.65 -1.38279 1.30303 0
M  V30 69201 H 7081.8 -3.80701 0.774538 0
M  V30 69202 H 7083.47 -3.20824 3.31466 0
M  V30 69203 H 7081.71 -2.96673 3.16493 0
M  V30 69204 H 7082.38 -4.59687 3.05601 0
M  V30 69205 H 7084.86 -3.97428 1.23249 0
M  V30 69206 H 7083.74 -5.35705 1.19632 0
M  V30 69207 H 7084 -4.41323 -0.261962 0
M  V30 69208 N 7083.06 -0.830151 -1.33964 0
M  V30 69209 C 7083.97 -0.25933 -2.33162 0
M  V30 69210 C 7084.98 0.610078 -1.62954 0
M  V30 69211 O 7086.16 0.516266 -1.94671 0
M  V30 69212 C 7083.22 0.563417 -3.42091 0
M  V30 69213 C 7082.28 -0.329239 -4.28036 0
M  V30 69214 C 7081.52 0.454335 -5.31763 0
M  V30 69215 O 7081.74 1.68691 -5.44885 0
M  V30 69216 O 7080.67 -0.167111 -6.01668 0
M  V30 69217 H 7084.5 -1.08056 -2.83827 0
M  V30 69218 H 7082.08 -0.592462 -1.3715 0
M  V30 69219 H 7083.97 1.03126 -4.08587 0
M  V30 69220 H 7082.64 1.36185 -2.93658 0
M  V30 69221 H 7081.55 -0.84473 -3.64438 0
M  V30 69222 H 7082.88 -1.09222 -4.79929 0
M  V30 69223 N 7084.53 1.46309 -0.585776 0
M  V30 69224 C 7085.78 2.0197 -0.0723845 0
M  V30 69225 C 7086.1 1.45935 1.29337 0
M  V30 69226 O 7085.37 0.645206 1.8497 0
M  V30 69227 H 7083.95 0.746622 -0.0237684 0
M  V30 69228 H 7086.61 1.79376 -0.762249 0
M  V30 69229 H 7085.71 3.12099 -0.00569225 0
M  V30 69230 N 7086.01 0.323722 1.54239 0
M  V30 69231 C 7087.25 -0.279395 2.02481 0
M  V30 69232 C 7087.62 -1.49333 1.2068 0
M  V30 69233 O 7088.82 -2.16932 1.58726 0
M  V30 69234 C 7087.09 -0.60508 3.52241 0
M  V30 69235 S 7088.65 -1.18783 4.22417 0
M  V30 69236 H 7085.46 -0.084494 0.705962 0
M  V30 69237 H 7088.07 0.456881 1.90086 0
M  V30 69238 H 7086.77 0.286555 4.09398 0
M  V30 69239 H 7086.3 -1.37155 3.68717 0
M  V30 69240 H 7088.32 -2.47464 4.30088 0
M  V30 69241 N 7087.49 -1.57515 0.0518986 0
M  V30 69242 C 7088.74 -1.9272 -0.621722 0
M  V30 69243 C 7089.06 -0.930319 -1.70808 0
M  V30 69244 O 7088.32 0.0572677 -1.95616 0
M  V30 69245 C 7088.62 -3.34607 -1.2559 0
M  V30 69246 C 7088.28 -4.49916 -0.297664 0
M  V30 69247 C 7086.95 -4.81188 -0.0339892 0
M  V30 69248 C 7089.3 -5.19962 0.359013 0
M  V30 69249 C 7086.63 -5.79852 0.893785 0
M  V30 69250 C 7088.98 -6.19618 1.27498 0
M  V30 69251 C 7087.64 -6.49318 1.54732 0
M  V30 69252 H 7086.91 -0.705211 -0.227504 0
M  V30 69253 H 7089.56 -1.91133 0.118533 0
M  V30 69254 H 7087.86 -3.32564 -2.07143 0
M  V30 69255 H 7089.56 -3.59128 -1.78405 0
M  V30 69256 H 7086.15 -4.25515 -0.513357 0
M  V30 69257 H 7090.34 -4.96014 0.168395 0
M  V30 69258 H 7085.59 -6.01198 1.11225 0
M  V30 69259 H 7089.77 -6.73005 1.78988 0
M  V30 69260 H 7087.39 -7.25584 2.26786 0
M  V30 69261 N 7088.97 0.221492 -1.56036 0
M  V30 69262 C 7090.21 0.952943 -1.80827 0
M  V30 69263 C 7090.57 1.81529 -0.625411 0
M  V30 69264 O 7091.77 2.58048 -0.752627 0
M  V30 69265 C 7090.04 1.76967 -3.10512 0
M  V30 69266 S 7091.6 2.55675 -3.56617 0
M  V30 69267 H 7088.42 0.320104 -0.634866 0
M  V30 69268 H 7091.02 0.218516 -1.94275 0
M  V30 69269 H 7089.73 1.1263 -3.94642 0
M  V30 69270 H 7089.26 2.54639 -2.99871 0
M  V30 69271 H 7091.27 3.79262 -3.1996 0
M  V30 69272 N 7090.45 1.49848 0.488197 0
M  V30 69273 C 7091.86 1.53034 1.06947 0
M  V30 69274 C 7092.21 0.323899 1.93508 0
M  V30 69275 O 7091.33 -0.565006 2.08894 0
M  V30 69276 C 7091.93 2.77318 1.94629 0
M  V30 69277 C 7090.49 2.8324 2.47895 0
M  V30 69278 C 7089.63 2.47112 1.2582 0
M  V30 69279 H 7092.58 1.5636 0.271543 0
M  V30 69280 H 7092.61 2.58205 2.79483 0
M  V30 69281 H 7092.12 3.65106 1.31601 0
M  V30 69282 H 7090.22 1.99762 3.14525 0
M  V30 69283 H 7090.33 3.85724 2.84172 0
M  V30 69284 H 7088.7 1.99172 1.58754 0
M  V30 69285 H 7089.48 3.3719 0.644815 0
M  V30 69286 N 7091.92 -0.740169 1.39138 0
M  V30 69287 C 7092.83 -1.88465 1.39707 0
M  V30 69288 C 7093.85 -1.71524 0.292494 0
M  V30 69289 O 7095.03 -1.94216 0.533123 0
M  V30 69290 C 7092.09 -3.23996 1.23399 0
M  V30 69291 C 7091.15 -3.53368 2.43782 0
M  V30 69292 C 7090.38 -4.82433 2.28242 0
M  V30 69293 O 7090.61 -5.5578 1.28317 0
M  V30 69294 O 7089.54 -5.11586 3.17117 0
M  V30 69295 H 7093.37 -1.9094 2.36169 0
M  V30 69296 H 7090.95 -0.887283 1.20198 0
M  V30 69297 H 7092.83 -4.05 1.16417 0
M  V30 69298 H 7091.51 -3.22304 0.300291 0
M  V30 69299 H 7090.42 -2.72472 2.5634 0
M  V30 69300 H 7091.75 -3.59835 3.35827 0
M  V30 69301 N 7093.4 -1.24228 -0.969802 0
M  V30 69302 C 7094.65 -1.07859 -1.70912 0
M  V30 69303 C 7094.97 0.383662 -1.91188 0
M  V30 69304 O 7094.24 1.27403 -1.48813 0
M  V30 69305 H 7092.82 -0.396136 -0.633313 0
M  V30 69306 H 7095.48 -1.56114 -1.16681 0
M  V30 69307 H 7094.58 -1.57496 -2.69446 0
M  V30 69308 N 7094.88 1.17017 -1.05569 0
M  V30 69309 C 7096.11 1.91284 -0.788551 0
M  V30 69310 C 7096.52 1.77029 0.656225 0
M  V30 69311 O 7095.88 1.10999 1.44863 0
M  V30 69312 C 7095.93 3.42226 -1.16462 0
M  V30 69313 O 7095.65 3.56047 -2.55269 0
M  V30 69314 C 7097.15 4.3356 -0.924165 0
M  V30 69315 H 7094.37 0.606798 -0.286421 0
M  V30 69316 H 7096.92 1.48368 -1.40738 0
M  V30 69317 H 7095.07 3.82874 -0.590468 0
M  V30 69318 H 7095.49 4.49594 -2.70121 0
M  V30 69319 H 7096.96 5.37961 -1.23701 0
M  V30 69320 H 7097.44 4.38975 0.140456 0
M  V30 69321 H 7098.04 3.98631 -1.48235 0
M  V30 69322 N 7096.36 0.837244 1.33521 0
M  V30 69323 C 7097.29 0.214353 2.27191 0
M  V30 69324 C 7098.27 -0.637578 1.49578 0
M  V30 69325 O 7099.45 -0.598197 1.78756 0
M  V30 69326 C 7096.58 -0.699192 3.31405 0
M  V30 69327 C 7095.63 0.0770678 4.2643 0
M  V30 69328 S 7096.46 1.43387 5.15946 0
M  V30 69329 C 7097.62 0.525579 6.23689 0
M  V30 69330 H 7097.85 1.00845 2.79674 0
M  V30 69331 H 7095.38 0.633908 1.40787 0
M  V30 69332 H 7097.34 -1.22067 3.91931 0
M  V30 69333 H 7096 -1.46694 2.7774 0
M  V30 69334 H 7095.19 -0.618004 5.00197 0
M  V30 69335 H 7094.8 0.529559 3.70232 0
M  V30 69336 H 7097.09 -0.277218 6.76933 0
M  V30 69337 H 7098.03 1.23335 6.97276 0
M  V30 69338 H 7098.44 0.107648 5.64397 0
M  V30 69339 N 7097.84 -1.45997 0.593527 0
M  V30 69340 C 7098.78 -2.3214 -0.146146 0
M  V30 69341 C 7099.78 -1.45132 -0.873666 0
M  V30 69342 O 7100.98 -1.61697 -0.790827 0
M  V30 69343 H 7097.36 -0.749099 -0.0659954 0
M  V30 69344 H 7099.33 -2.92325 0.599049 0
M  V30 69345 C 7098.08 -3.285 -1.13943 0
M  V30 69346 H 7097.4 -3.95437 -0.589044 0
M  V30 69347 H 7098.84 -3.91534 -1.62717 0
M  V30 69348 C 7097.3 -2.5464 -2.20591 0
M  V30 69349 O 7097.83 -2.31739 -3.28116 0
M  V30 69350 N 7096.04 -2.15015 -1.95491 0
M  V30 69351 H 7095.58 -2.3384 -1.08058 0
M  V30 69352 H 7095.54 -1.65918 -2.67056 0
M  V30 69353 N 7099.31 -0.331898 -1.54066 0
M  V30 69354 C 7100.54 0.269497 -2.04835 0
M  V30 69355 C 7100.95 1.45681 -1.20721 0
M  V30 69356 O 7100.3 1.82221 -0.232636 0
M  V30 69357 C 7100.36 0.759313 -3.5139 0
M  V30 69358 C 7100.02 -0.306797 -4.55969 0
M  V30 69359 C 7101.02 -1.14565 -5.0712 0
M  V30 69360 C 7098.7 -0.45738 -5.00213 0
M  V30 69361 C 7100.7 -2.12074 -6.01085 0
M  V30 69362 C 7098.38 -1.43588 -5.93991 0
M  V30 69363 C 7099.38 -2.26602 -6.44314 0
M  V30 69364 O 7099.07 -3.22787 -7.3625 0
M  V30 69365 H 7098.8 0.0579408 -0.673512 0
M  V30 69366 H 7101.36 -0.478626 -1.99746 0
M  V30 69367 H 7099.59 1.55849 -3.53904 0
M  V30 69368 H 7101.28 1.27997 -3.8519 0
M  V30 69369 H 7102.04 -1.04034 -4.73711 0
M  V30 69370 H 7097.92 0.178899 -4.60653 0
M  V30 69371 H 7101.46 -2.76907 -6.40288 0
M  V30 69372 H 7097.36 -1.54179 -6.26817 0
M  V30 69373 H 7098.13 -3.18123 -7.54148 0
M  V30 69374 N 7100.79 1.57485 -0.0602512 0
M  V30 69375 C 7101.76 2.1095 0.896261 0
M  V30 69376 C 7102.76 1.03102 1.23396 0
M  V30 69377 O 7103.95 1.29138 1.16914 0
M  V30 69378 C 7101.08 2.60128 2.20333 0
M  V30 69379 H 7102.27 2.96763 0.432621 0
M  V30 69380 H 7099.82 1.55162 0.18829 0
M  V30 69381 H 7100.56 1.77734 2.71258 0
M  V30 69382 H 7100.34 3.38947 1.97123 0
M  V30 69383 H 7101.83 3.01608 2.8883 0
M  V30 69384 N 7102.27 -0.213214 1.56151 0
M  V30 69385 C 7103.68 -0.779492 1.69649 0
M  V30 69386 C 7104.03 -1.84633 0.663713 0
M  V30 69387 O 7103.16 -2.1562 -0.183519 0
M  V30 69388 C 7103.75 -1.42068 3.07575 0
M  V30 69389 C 7102.31 -1.93425 3.22899 0
M  V30 69390 C 7101.46 -0.797472 2.65586 0
M  V30 69391 H 7104.41 0.0115788 1.58696 0
M  V30 69392 H 7104.43 -2.2897 3.03896 0
M  V30 69393 H 7103.94 -0.643985 3.8272 0
M  V30 69394 H 7102.04 -2.7387 2.52638 0
M  V30 69395 H 7102.16 -2.10849 4.30209 0
M  V30 69396 H 7100.52 -1.207 2.24285 0
M  V30 69397 H 7101.3 -0.033313 3.43284 0
M  V30 69398 N 7103.75 -1.50105 -0.480243 0
M  V30 69399 C 7105 -1.60318 -1.23055 0
M  V30 69400 C 7105.32 -0.301328 -1.92658 0
M  V30 69401 O 7104.59 0.680656 -1.83695 0
M  V30 69402 H 7103.17 -0.590743 -0.4572 0
M  V30 69403 H 7105.83 -1.86837 -0.554795 0
M  V30 69404 H 7104.93 -2.40974 -1.98338 0
M  V30 69405 N 7105.23 0.732779 -1.39528 0
M  V30 69406 C 7106.47 1.49238 -1.36873 0
M  V30 69407 C 7106.8 1.94469 0.0346093 0
M  V30 69408 O 7106.06 1.67268 1.01587 0
M  V30 69409 C 7106.36 2.74455 -2.2893 0
M  V30 69410 C 7106.02 2.4808 -3.76519 0
M  V30 69411 C 7104.68 2.40597 -4.16733 0
M  V30 69412 C 7107.04 2.25573 -4.69858 0
M  V30 69413 C 7104.36 2.0865 -5.48345 0
M  V30 69414 C 7106.72 1.95142 -6.01749 0
M  V30 69415 C 7105.38 1.86129 -6.41024 0
M  V30 69416 H 7104.65 0.546102 -0.500853 0
M  V30 69417 H 7107.3 0.840867 -1.72051 0
M  V30 69418 H 7105.6 3.4436 -1.86877 0
M  V30 69419 H 7107.3 3.3249 -2.24168 0
M  V30 69420 H 7103.89 2.54785 -3.44649 0
M  V30 69421 H 7108.07 2.30321 -4.3962 0
M  V30 69422 H 7103.33 2.00196 -5.77695 0
M  V30 69423 H 7107.5 1.76736 -6.736 0
M  V30 69424 H 7105.13 1.6114 -7.42925 0
M  V30 69425 N 7106.7 1.24741 0.9632 0
M  V30 69426 C 7107.98 0.997689 1.68242 0
M  V30 69427 C 7108.36 -0.478667 2.05602 0
M  V30 69428 O 7107.71 -1.45403 1.76268 0
M  V30 69429 C 7107.92 1.92503 2.91108 0
M  V30 69430 C 7109.27 2.19852 3.6325 0
M  V30 69431 O 7110.29 1.90192 3.01174 0
M  V30 69432 O 7109.15 2.70245 4.75005 0
M  V30 69433 H 7106.24 0.377676 0.735724 0
M  V30 69434 H 7108.79 1.35858 1.01689 0
M  V30 69435 H 7107.56 2.92229 2.60227 0
M  V30 69436 H 7107.19 1.56757 3.65394 0
M  V30 69437 N 7108.18 -1.16455 1.06188 0
M  V30 69438 C 7109.43 -1.87237 0.779114 0
M  V30 69439 C 7109.76 -1.81429 -0.692619 0
M  V30 69440 O 7109.04 -1.22921 -1.50733 0
M  V30 69441 C 7109.32 -3.36849 1.27298 0
M  V30 69442 C 7109.17 -3.51354 2.80839 0
M  V30 69443 C 7110.49 -4.31212 0.880027 0
M  V30 69444 H 7107.61 -0.679874 0.2845 0
M  V30 69445 H 7110.25 -1.36889 1.31763 0
M  V30 69446 H 7108.4 -3.79858 0.814873 0
M  V30 69447 H 7110.07 -3.1729 3.3485 0
M  V30 69448 H 7108.32 -2.93299 3.19622 0
M  V30 69449 H 7108.99 -4.5642 3.1046 0
M  V30 69450 H 7111.46 -3.96098 1.27457 0
M  V30 69451 H 7110.34 -5.34406 1.25307 0
M  V30 69452 H 7110.6 -4.41576 -0.215139 0
M  V30 69453 N 7109.66 -0.844313 -1.33076 0
M  V30 69454 C 7110.9 -0.448802 -1.99412 0
M  V30 69455 C 7111.27 0.974971 -1.65404 0
M  V30 69456 O 7112.47 1.4745 -2.24749 0
M  V30 69457 C 7110.74 -0.669274 -3.51078 0
M  V30 69458 S 7112.3 -0.369794 -4.37239 0
M  V30 69459 H 7109.11 -0.168574 -0.690727 0
M  V30 69460 H 7111.72 -1.09478 -1.61972 0
M  V30 69461 H 7110.42 -1.70477 -3.73317 0
M  V30 69462 H 7109.95 -0.00933956 -3.93399 0
M  V30 69463 H 7111.97 0.808294 -4.89572 0
M  V30 69464 N 7111.14 1.4568 -0.601261 0
M  V30 69465 C 7112.39 2.02581 -0.094127 0
M  V30 69466 C 7112.72 1.46948 1.26964 0
M  V30 69467 O 7111.99 0.641709 1.83609 0
M  V30 69468 C 7112.28 3.60068 -0.0483614 0
M  V30 69469 C 7112.13 4.26047 -1.44235 0
M  V30 69470 C 7113.45 4.35381 0.642746 0
M  V30 69471 H 7110.57 0.736136 -0.0356792 0
M  V30 69472 H 7113.21 1.73608 -0.772021 0
M  V30 69473 H 7111.36 3.84883 0.528925 0
M  V30 69474 H 7113.03 4.12438 -2.06623 0
M  V30 69475 H 7111.27 3.84692 -2.00485 0
M  V30 69476 H 7111.95 5.34917 -1.36262 0
M  V30 69477 H 7114.42 4.15822 0.152132 0
M  V30 69478 H 7113.3 5.45111 0.643854 0
M  V30 69479 H 7113.56 4.07789 1.70764 0
M  V30 69480 N 7112.62 0.340063 1.53887 0
M  V30 69481 C 7113.56 -0.518334 2.24904 0
M  V30 69482 C 7114.53 -1.09837 1.24599 0
M  V30 69483 O 7115.72 -1.13564 1.53323 0
M  V30 69484 C 7112.86 -1.66513 3.02271 0
M  V30 69485 C 7111.97 -1.11273 4.17423 0
M  V30 69486 C 7111.11 -2.22655 4.82285 0
M  V30 69487 C 7110.15 -1.64748 5.89512 0
M  V30 69488 N 7109.28 -2.69858 6.48167 0
M  V30 69489 H 7114.12 0.0938149 2.97852 0
M  V30 69490 H 7111.66 0.0580699 1.46985 0
M  V30 69491 H 7113.62 -2.34022 3.45383 0
M  V30 69492 H 7112.25 -2.24831 2.31626 0
M  V30 69493 H 7111.3 -0.328686 3.78977 0
M  V30 69494 H 7112.61 -0.649154 4.94558 0
M  V30 69495 H 7111.77 -2.98036 5.2845 0
M  V30 69496 H 7110.51 -2.72355 4.04567 0
M  V30 69497 H 7109.51 -0.878717 5.42733 0
M  V30 69498 H 7110.74 -1.15904 6.69136 0
M  V30 69499 H 7108.68 -3.1882 5.73315 0
M  V30 69500 H 7108.6 -2.28113 7.20764 0
M  V30 69501 H 7109.87 -3.45019 6.98987 0
M  V30 69502 N 7114.1 -1.57451 0.0686022 0
M  V30 69503 C 7115.32 -1.97692 -0.610358 0
M  V30 69504 C 7115.74 -0.946845 -1.63341 0
M  V30 69505 O 7115.1 0.0668907 -1.82377 0
M  V30 69506 C 7115.15 -3.38013 -1.28178 0
M  V30 69507 O 7114.87 -4.37074 -0.299676 0
M  V30 69508 C 7116.37 -3.93111 -2.04886 0
M  V30 69509 H 7113.59 -0.65023 -0.165655 0
M  V30 69510 H 7116.13 -2.0402 0.140061 0
M  V30 69511 H 7114.29 -3.32782 -1.98331 0
M  V30 69512 H 7114.7 -5.18653 -0.780987 0
M  V30 69513 H 7116.18 -4.93524 -2.47261 0
M  V30 69514 H 7116.65 -3.29481 -2.90412 0
M  V30 69515 H 7117.26 -4.01734 -1.39607 0
M  V30 69516 N 7115.57 0.204929 -1.56262 0
M  V30 69517 C 7116.81 0.93371 -1.81827 0
M  V30 69518 C 7117.18 1.80855 -0.64463 0
M  V30 69519 O 7118.38 2.57236 -0.779954 0
M  V30 69520 C 7116.65 1.73663 -3.12371 0
M  V30 69521 S 7118.21 2.51878 -3.59309 0
M  V30 69522 H 7115.03 0.313352 -0.638225 0
M  V30 69523 H 7117.63 0.197899 -1.94496 0
M  V30 69524 H 7116.33 1.08438 -3.95815 0
M  V30 69525 H 7115.86 2.51444 -3.02555 0
M  V30 69526 H 7117.88 3.75847 -3.23965 0
M  V30 69527 N 7117.05 1.50357 0.472276 0
M  V30 69528 C 7118.3 1.60969 1.22203 0
M  V30 69529 C 7118.62 0.311541 1.92495 0
M  V30 69530 O 7117.89 -0.670905 1.84053 0
M  V30 69531 H 7116.47 0.593159 0.45406 0
M  V30 69532 H 7119.13 1.87129 0.544878 0
M  V30 69533 H 7118.23 2.42023 1.97057 0
M  V30 69534 N 7118.53 -0.72537 1.39915 0
M  V30 69535 C 7119.77 -1.49765 1.39104 0
M  V30 69536 C 7120.13 -1.91997 -0.0105439 0
M  V30 69537 O 7121.33 -2.68416 -0.143717 0
M  V30 69538 C 7119.61 -2.69751 2.34455 0
M  V30 69539 S 7121.16 -3.59282 2.51916 0
M  V30 69540 H 7117.98 -0.51216 0.493167 0
M  V30 69541 H 7120.58 -0.849104 1.76098 0
M  V30 69542 H 7119.29 -2.3688 3.35136 0
M  V30 69543 H 7118.82 -3.39526 1.9871 0
M  V30 69544 H 7120.83 -4.63776 1.76427 0
M  V30 69545 N 7120.01 -1.2525 -0.956571 0
M  V30 69546 C 7121.25 -1.10045 -1.70346 0
M  V30 69547 C 7121.59 0.358055 -1.90871 0
M  V30 69548 O 7120.86 1.26403 -1.47826 0
M  V30 69549 C 7121.14 -1.85315 -3.08756 0
M  V30 69550 C 7121 -3.38982 -2.95654 0
M  V30 69551 C 7122.32 -1.63473 -4.08613 0
M  V30 69552 H 7119.44 -0.401155 -0.618258 0
M  V30 69553 H 7122.08 -1.54057 -1.11204 0
M  V30 69554 H 7120.23 -1.47906 -3.59244 0
M  V30 69555 H 7121.9 -3.86054 -2.52507 0
M  V30 69556 H 7120.14 -3.66793 -2.31615 0
M  V30 69557 H 7120.81 -3.8686 -3.93756 0
M  V30 69558 H 7123.29 -1.96035 -3.67028 0
M  V30 69559 H 7122.17 -2.18577 -5.03503 0
M  V30 69560 H 7122.43 -0.575588 -4.38337 0
M  V30 69561 N 7121.49 1.1589 -1.06804 0
M  V30 69562 C 7122.73 1.86176 -0.786309 0
M  V30 69563 C 7123.05 1.82405 0.689451 0
M  V30 69564 O 7122.32 1.26115 1.49906 0
M  V30 69565 H 7120.9 0.6893 -0.28788 0
M  V30 69566 H 7123.57 1.40514 -1.35063 0
M  V30 69567 H 7122.66 2.91471 -1.11585 0
M  V30 69568 N 7122.96 0.851359 1.32626 0
M  V30 69569 C 7124.37 0.508195 1.7965 0
M  V30 69570 C 7124.73 -0.973725 1.70332 0
M  V30 69571 O 7123.85 -1.75938 1.25995 0
M  V30 69572 C 7124.45 0.915687 3.26191 0
M  V30 69573 C 7123 0.624473 3.71184 0
M  V30 69574 C 7122.15 1.11723 2.53798 0
M  V30 69575 H 7125.1 1.03888 1.19971 0
M  V30 69576 H 7125.12 0.230736 3.798 0
M  V30 69577 H 7124.64 1.99429 3.32941 0
M  V30 69578 H 7122.74 -0.443542 3.69951 0
M  V30 69579 H 7122.85 1.18846 4.64126 0
M  V30 69580 H 7121.21 0.537615 2.48961 0
M  V30 69581 H 7122 2.20286 2.63304 0
M  V30 69582 N 7124.44 -1.45359 0.608979 0
M  V30 69583 C 7125.72 -1.95566 0.0366409 0
M  V30 69584 C 7126.1 -1.55139 -1.43161 0
M  V30 69585 O 7125.45 -0.814626 -2.13486 0
M  V30 69586 C 7125.66 -3.482 0.23621 0
M  V30 69587 C 7127.01 -4.24437 0.117742 0
M  V30 69588 O 7128.03 -3.55811 0.166405 0
M  V30 69589 O 7126.89 -5.465 0.00400945 0
M  V30 69590 H 7123.98 -0.826261 -0.0349439 0
M  V30 69591 H 7126.53 -1.55518 0.679137 0
M  V30 69592 H 7125.3 -3.70599 1.25588 0
M  V30 69593 H 7124.92 -3.95141 -0.441483 0
M  V30 69594 N 7125.92 -0.34822 -1.53705 0
M  V30 69595 C 7126.87 0.521689 -2.26674 0
M  V30 69596 C 7127.86 1.09804 -1.28994 0
M  V30 69597 O 7129.07 1.04324 -1.46685 0
M  V30 69598 H 7125.44 0.186929 -0.728396 0
M  V30 69599 H 7127.41 -0.11572 -2.98176 0
M  V30 69600 C 7126.16 1.65844 -3.05599 0
M  V30 69601 H 7125.49 1.22423 -3.80595 0
M  V30 69602 H 7126.93 2.2422 -3.59863 0
M  V30 69603 C 7125.39 2.59062 -2.1538 0
M  V30 69604 O 7125.92 3.61432 -1.75299 0
M  V30 69605 N 7124.12 2.27853 -1.80364 0
M  V30 69606 H 7123.67 1.44645 -2.13156 0
M  V30 69607 H 7123.63 2.90481 -1.20283 0
M  V30 69608 N 7127.4 1.57412 -0.0769512 0
M  V30 69609 C 7128.64 1.93971 0.591859 0
M  V30 69610 C 7128.98 0.957589 1.68949 0
M  V30 69611 O 7128.25 -0.012365 1.94496 0
M  V30 69612 C 7128.54 3.40768 1.164 0
M  V30 69613 C 7128.39 4.49741 0.0726561 0
M  V30 69614 C 7129.71 3.8849 2.06794 0
M  V30 69615 H 7126.83 0.705344 0.213678 0
M  V30 69616 H 7129.47 1.89454 -0.14397 0
M  V30 69617 H 7127.62 3.44749 1.7911 0
M  V30 69618 H 7129.29 4.5788 -0.560687 0
M  V30 69619 H 7127.53 4.29685 -0.596085 0
M  V30 69620 H 7128.2 5.49607 0.513465 0
M  V30 69621 H 7130.68 3.86548 1.54013 0
M  V30 69622 H 7129.56 4.91806 2.43759 0
M  V30 69623 H 7129.82 3.26729 2.97826 0
M  V30 69624 N 7128.88 -0.19664 1.56368 0
M  V30 69625 C 7130.29 -0.761455 1.70466 0
M  V30 69626 C 7130.64 -1.83919 0.683258 0
M  V30 69627 O 7129.76 -2.15803 -0.16064 0
M  V30 69628 C 7130.36 -1.38798 3.09064 0
M  V30 69629 C 7128.92 -1.8999 3.24932 0
M  V30 69630 C 7128.06 -0.769258 2.66416 0
M  V30 69631 H 7131.02 0.02841 1.58675 0
M  V30 69632 H 7131.04 -2.25734 3.06308 0
M  V30 69633 H 7130.55 -0.603357 3.83381 0
M  V30 69634 H 7128.65 -2.71175 2.55528 0
M  V30 69635 H 7128.76 -2.06274 4.32421 0
M  V30 69636 H 7127.13 -1.18314 2.25552 0
M  V30 69637 H 7127.91 0.00309876 3.433 0
M  V30 69638 N 7130.35 -1.50606 -0.464296 0
M  V30 69639 C 7131.77 -1.38182 -0.798611 0
M  V30 69640 C 7131.97 -0.443184 -1.96566 0
M  V30 69641 O 7131.03 0.111681 -2.52253 0
M  V30 69642 C 7132.34 -2.79689 -1.10429 0
M  V30 69643 C 7133.89 -2.88651 -1.21034 0
M  V30 69644 C 7134.36 -4.31006 -1.54912 0
M  V30 69645 N 7135.85 -4.33988 -1.6189 0
M  V30 69646 C 7136.59 -5.41139 -1.89621 0
M  V30 69647 N 7136.08 -6.58488 -2.15326 0
M  V30 69648 N 7137.88 -5.28589 -1.9118 0
M  V30 69649 H 7130.03 -2.10203 0.304714 0
M  V30 69650 H 7132.29 -0.945121 0.0738303 0
M  V30 69651 H 7132 -3.50243 -0.319749 0
M  V30 69652 H 7131.87 -3.17353 -2.0388 0
M  V30 69653 H 7134.26 -2.18311 -1.98555 0
M  V30 69654 H 7134.34 -2.54521 -0.255478 0
M  V30 69655 H 7133.98 -5.01886 -0.779284 0
M  V30 69656 H 7133.91 -4.62629 -2.5156 0
M  V30 69657 H 7136.4 -3.49373 -1.44037 0
M  V30 69658 H 7136.72 -7.35954 -2.3578 0
M  V30 69659 H 7135.06 -6.61651 -2.12705 0
M  V30 69660 H 7138.25 -4.35906 -1.70599 0
M  V30 69661 H 7138.43 -6.12182 -2.12455 0
M  V30 69662 N 7131.83 0.717939 -1.40298 0
M  V30 69663 C 7132.74 1.86219 -1.42688 0
M  V30 69664 C 7133.76 1.71037 -0.319745 0
M  V30 69665 O 7134.93 1.93343 -0.563954 0
M  V30 69666 C 7132 3.21992 -1.28537 0
M  V30 69667 C 7131.06 3.49445 -2.49373 0
M  V30 69668 C 7130.29 4.78741 -2.35888 0
M  V30 69669 O 7130.52 5.53668 -1.37143 0
M  V30 69670 O 7129.45 5.06476 -3.25216 0
M  V30 69671 H 7133.28 1.87158 -2.39177 0
M  V30 69672 H 7130.86 0.868048 -1.21595 0
M  V30 69673 H 7132.74 4.03097 -1.22845 0
M  V30 69674 H 7131.42 3.21786 -0.351529 0
M  V30 69675 H 7130.33 2.68359 -2.60642 0
M  V30 69676 H 7131.66 3.54446 -3.41509 0
M  V30 69677 N 7133.31 1.25755 0.949916 0
M  V30 69678 C 7134.56 1.10783 1.69509 0
M  V30 69679 C 7134.89 -0.350379 1.91318 0
M  V30 69680 O 7134.14 -1.27435 1.48522 0
M  V30 69681 C 7134.44 1.81253 3.08029 0
M  V30 69682 C 7134.11 3.31167 3.06005 0
M  V30 69683 C 7132.77 3.72063 3.0516 0
M  V30 69684 C 7135.12 4.26923 2.98975 0
M  V30 69685 C 7132.45 5.07118 2.9504 0
M  V30 69686 C 7134.8 5.62008 2.90397 0
M  V30 69687 C 7133.46 6.02226 2.8789 0
M  V30 69688 H 7132.73 0.405384 0.620278 0
M  V30 69689 H 7135.38 1.56088 1.10945 0
M  V30 69690 H 7133.69 1.28393 3.70166 0
M  V30 69691 H 7135.38 1.67117 3.64517 0
M  V30 69692 H 7131.97 2.98631 3.07437 0
M  V30 69693 H 7136.16 3.96316 2.98743 0
M  V30 69694 H 7131.41 5.37452 2.91471 0
M  V30 69695 H 7135.59 6.35895 2.83919 0
M  V30 69696 H 7133.21 7.06834 2.79804 0
M  V30 69697 N 7134.79 -1.15322 1.07418 0
M  V30 69698 C 7136.04 -1.85757 0.796171 0
M  V30 69699 C 7136.36 -1.82768 -0.679768 0
M  V30 69700 O 7135.63 -1.26908 -1.49235 0
M  V30 69701 H 7134.21 -0.687763 0.291531 0
M  V30 69702 H 7136.87 -1.39795 1.35806 0
M  V30 69703 H 7135.97 -2.90875 1.13129 0
M  V30 69704 N 7136.27 -0.85838 -1.32173 0
M  V30 69705 C 7137.18 -0.308728 -2.3256 0
M  V30 69706 C 7138.19 0.575376 -1.64212 0
M  V30 69707 O 7139.37 0.474858 -1.95722 0
M  V30 69708 C 7136.43 0.490728 -3.43209 0
M  V30 69709 C 7135.49 -0.419958 -4.27241 0
M  V30 69710 C 7134.73 0.341438 -5.32607 0
M  V30 69711 O 7134.95 1.57096 -5.4834 0
M  V30 69712 O 7133.88 -0.294696 -6.01178 0
M  V30 69713 H 7137.71 -1.14052 -2.81471 0
M  V30 69714 H 7135.3 -0.62142 -1.35863 0
M  V30 69715 H 7137.18 0.944357 -4.10682 0
M  V30 69716 H 7135.85 1.29926 -2.96481 0
M  V30 69717 H 7134.76 -0.921843 -3.62564 0
M  V30 69718 H 7136.09 -1.19377 -4.77504 0
M  V30 69719 N 7137.74 1.45034 -0.616679 0
M  V30 69720 C 7138.69 2.27692 0.118422 0
M  V30 69721 C 7139.68 1.37843 0.829952 0
M  V30 69722 O 7140.87 1.61763 0.718442 0
M  V30 69723 C 7138 3.24892 1.10907 0
M  V30 69724 C 7137.09 4.22229 0.397911 0
M  V30 69725 N 7137.48 5.02629 -0.565498 0
M  V30 69726 C 7135.77 4.41322 0.644273 0
M  V30 69727 C 7136.48 5.73311 -0.984345 0
M  V30 69728 N 7135.45 5.42621 -0.326165 0
M  V30 69729 H 7139.25 2.87256 -0.62139 0
M  V30 69730 H 7136.77 1.56296 -0.44105 0
M  V30 69731 H 7138.76 3.82851 1.65018 0
M  V30 69732 H 7137.42 2.66888 1.84934 0
M  V30 69733 H 7138.44 5.09249 -0.942664 0
M  V30 69734 H 7135.11 3.94433 1.36852 0
M  V30 69735 H 7136.5 6.47908 -1.77945 0
M  V30 69736 N 7139.22 0.356366 1.53518 0
M  V30 69737 C 7140.47 -0.236197 2.01118 0
M  V30 69738 C 7140.8 -1.49525 1.24389 0
M  V30 69739 O 7140.05 -1.93013 0.323159 0
M  V30 69740 C 7140.35 -0.583183 3.5261 0
M  V30 69741 C 7140.02 0.580466 4.47148 0
M  V30 69742 C 7138.68 0.899777 4.72713 0
M  V30 69743 C 7141.03 1.36051 5.0313 0
M  V30 69744 C 7138.36 2.00127 5.51513 0
M  V30 69745 C 7140.71 2.45235 5.83132 0
M  V30 69746 C 7139.38 2.77711 6.06987 0
M  V30 69747 H 7138.65 -0.0864307 0.735942 0
M  V30 69748 H 7141.29 0.486928 1.85206 0
M  V30 69749 H 7139.6 -1.3872 3.66421 0
M  V30 69750 H 7141.3 -1.05376 3.86907 0
M  V30 69751 H 7137.89 0.321547 4.27392 0
M  V30 69752 H 7142.07 1.12707 4.83333 0
M  V30 69753 H 7137.33 2.25698 5.68217 0
M  V30 69754 H 7141.5 3.061 6.2552 0
M  V30 69755 H 7139.13 3.63187 6.67832 0
M  V30 69756 N 7140.7 -1.57369 0.085298 0
M  V30 69757 C 7141.61 -2.16997 -0.891597 0
M  V30 69758 C 7142.63 -1.13676 -1.31734 0
M  V30 69759 O 7143.8 -1.46003 -1.38727 0
M  V30 69760 C 7140.87 -2.7307 -2.13621 0
M  V30 69761 C 7139.93 -3.91312 -1.7656 0
M  V30 69762 C 7139.16 -4.44701 -2.95087 0
M  V30 69763 O 7139.39 -3.97053 -4.09518 0
M  V30 69764 O 7138.32 -5.35856 -2.74121 0
M  V30 69765 H 7142.15 -3.00861 -0.414319 0
M  V30 69766 H 7139.73 -1.48756 -0.138519 0
M  V30 69767 H 7141.61 -3.0895 -2.86579 0
M  V30 69768 H 7140.29 -1.92258 -2.6042 0
M  V30 69769 H 7139.19 -3.60261 -1.00812 0
M  V30 69770 H 7140.53 -4.73458 -1.34532 0
M  V30 69771 N 7142.18 0.188344 -1.56471 0
M  V30 69772 C 7143.43 0.907683 -1.81018 0
M  V30 69773 C 7143.75 1.82973 -0.659627 0
M  V30 69774 O 7143.01 1.92468 0.354207 0
M  V30 69775 C 7143.31 1.75034 -3.11605 0
M  V30 69776 C 7142.97 0.97869 -4.40151 0
M  V30 69777 C 7141.64 0.765661 -4.7507 0
M  V30 69778 C 7143.99 0.436224 -5.19371 0
M  V30 69779 C 7141.32 -0.00120806 -5.867 0
M  V30 69780 C 7143.67 -0.317469 -6.31803 0
M  V30 69781 C 7142.33 -0.541454 -6.653 0
M  V30 69782 H 7141.6 0.332145 -0.66239 0
M  V30 69783 H 7144.25 0.173632 -1.90711 0
M  V30 69784 H 7142.55 2.55327 -2.97179 0
M  V30 69785 H 7144.25 2.30965 -3.27805 0
M  V30 69786 H 7140.84 1.15475 -4.12751 0
M  V30 69787 H 7145.03 0.588189 -4.92802 0
M  V30 69788 H 7140.28 -0.184651 -6.11121 0
M  V30 69789 H 7144.46 -0.745153 -6.92402 0
M  V30 69790 H 7142.08 -1.13758 -7.5164 0
M  V30 69791 N 7143.66 1.5085 0.456302 0
M  V30 69792 C 7144.93 1.53104 1.21731 0
M  V30 69793 C 7145.31 0.284243 2.09178 0
M  V30 69794 O 7144.66 -0.731659 2.16469 0
M  V30 69795 C 7144.87 2.83487 2.03558 0
M  V30 69796 C 7146.22 3.34717 2.61247 0
M  V30 69797 O 7147.24 2.84909 2.13787 0
M  V30 69798 O 7146.1 4.21577 3.47757 0
M  V30 69799 H 7143.2 0.614747 0.553186 0
M  V30 69800 H 7145.74 1.6315 0.466917 0
M  V30 69801 H 7144.52 3.65699 1.39213 0
M  V30 69802 H 7144.14 2.76515 2.85702 0
M  V30 69803 N 7145.14 -0.710489 1.40676 0
M  V30 69804 C 7146.38 -1.48281 1.40684 0
M  V30 69805 C 7146.74 -1.91997 0.00982054 0
M  V30 69806 O 7147.94 -2.68553 -0.11524 0
M  V30 69807 C 7146.21 -2.67249 2.37303 0
M  V30 69808 S 7147.77 -3.5659 2.55713 0
M  V30 69809 H 7144.59 -0.5069 0.498571 0
M  V30 69810 H 7147.19 -0.830379 1.76989 0
M  V30 69811 H 7145.89 -2.33312 3.37629 0
M  V30 69812 H 7145.43 -3.37399 2.023 0
M  V30 69813 H 7147.44 -4.61879 1.81336 0
M  V30 69814 N 7146.61 -1.26257 -0.943233 0
M  V30 69815 C 7147.56 -1.07636 -2.04165 0
M  V30 69816 C 7148.53 0.0179863 -1.6609 0
M  V30 69817 O 7149.72 -0.141389 -1.90275 0
M  V30 69818 C 7146.86 -0.713221 -3.37649 0
M  V30 69819 C 7145.97 -1.88361 -3.88773 0
M  V30 69820 C 7145.1 -1.46377 -5.10634 0
M  V30 69821 C 7144.14 -2.60258 -5.54014 0
M  V30 69822 N 7143.28 -2.18971 -6.6708 0
M  V30 69823 H 7148.12 -2.01635 -2.19425 0
M  V30 69824 H 7145.66 -1.00395 -1.07514 0
M  V30 69825 H 7147.61 -0.483577 -4.14388 0
M  V30 69826 H 7146.24 0.18979 -3.22242 0
M  V30 69827 H 7145.3 -2.22624 -3.08452 0
M  V30 69828 H 7146.61 -2.73843 -4.16907 0
M  V30 69829 H 7145.76 -1.19445 -5.94826 0
M  V30 69830 H 7144.5 -0.579823 -4.84241 0
M  V30 69831 H 7143.51 -2.87922 -4.68381 0
M  V30 69832 H 7144.73 -3.49249 -5.8241 0
M  V30 69833 H 7142.68 -1.33008 -6.42374 0
M  V30 69834 H 7142.59 -2.97997 -6.9479 0
M  V30 69835 H 7143.86 -1.95246 -7.54652 0
M  V30 69836 N 7148.09 1.14751 -1.08028 0
M  V30 69837 C 7149.04 2.21779 -0.701205 0
M  V30 69838 C 7150.03 1.66878 0.291223 0
M  V30 69839 O 7151.24 1.79338 0.154201 0
M  V30 69840 H 7147.61 0.722458 -0.208706 0
M  V30 69841 H 7149.59 2.51025 -1.61334 0
M  V30 69842 C 7148.33 3.47484 -0.122461 0
M  V30 69843 H 7147.66 3.90056 -0.877271 0
M  V30 69844 H 7149.1 4.2387 0.105024 0
M  V30 69845 C 7147.56 3.17074 1.13866 0
M  V30 69846 O 7148.09 3.34508 2.22412 0
M  V30 69847 N 7146.29 2.71063 1.04753 0
M  V30 69848 H 7145.84 2.57076 0.164167 0
M  V30 69849 H 7145.8 2.51091 1.89211 0
M  V30 69850 N 7149.57 0.865377 1.31716 0
M  V30 69851 C 7150.81 0.48047 1.98673 0
M  V30 69852 C 7151.17 -0.948533 1.66934 0
M  V30 69853 O 7152.37 -1.43855 2.27066 0
M  V30 69854 C 7150.65 0.725043 3.49968 0
M  V30 69855 S 7152.2 0.439308 4.36595 0
M  V30 69856 H 7149.02 0.179542 0.687958 0
M  V30 69857 H 7151.62 1.12041 1.60209 0
M  V30 69858 H 7150.33 1.76395 3.70558 0
M  V30 69859 H 7149.86 0.0719247 3.93334 0
M  V30 69860 H 7151.87 -0.730305 4.90796 0
M  V30 69861 N 7151.05 -1.44705 0.624362 0
M  V30 69862 C 7152.29 -2.02406 0.126344 0
M  V30 69863 C 7152.63 -1.48949 -1.2461 0
M  V30 69864 O 7151.9 -0.670838 -1.82565 0
M  V30 69865 C 7152.18 -3.59945 0.105639 0
M  V30 69866 C 7152.04 -4.23699 1.50994 0
M  V30 69867 C 7153.36 -4.36349 -0.573399 0
M  V30 69868 H 7150.48 -0.735475 0.047386 0
M  V30 69869 H 7153.12 -1.72358 0.799543 0
M  V30 69870 H 7151.27 -3.85675 -0.467627 0
M  V30 69871 H 7152.94 -4.09098 2.13158 0
M  V30 69872 H 7151.18 -3.81454 2.0658 0
M  V30 69873 H 7151.85 -5.32682 1.44755 0
M  V30 69874 H 7154.33 -4.16011 -0.0859593 0
M  V30 69875 H 7153.21 -5.46066 -0.55705 0
M  V30 69876 H 7153.47 -4.10454 -1.64255 0
M  V30 69877 N 7152.53 -0.364502 -1.53327 0
M  V30 69878 C 7153.77 0.225613 -2.03151 0
M  V30 69879 C 7154.13 1.46081 -1.24597 0
M  V30 69880 O 7155.33 2.12647 -1.64422 0
M  V30 69881 C 7153.6 0.511477 -3.53721 0
M  V30 69882 S 7155.16 1.07542 -4.25418 0
M  V30 69883 H 7151.98 0.065747 -0.707954 0
M  V30 69884 H 7154.58 -0.507119 -1.88808 0
M  V30 69885 H 7153.28 -0.394999 -4.08495 0
M  V30 69886 H 7152.82 1.27331 -3.72224 0
M  V30 69887 H 7154.83 2.35974 -4.36498 0
M  V30 69888 N 7154 1.57322 -0.0936425 0
M  V30 69889 C 7154.93 2.16969 0.862948 0
M  V30 69890 C 7155.92 1.10263 1.29523 0
M  V30 69891 O 7157.1 1.38394 1.36238 0
M  V30 69892 C 7154.23 2.74886 2.12262 0
M  V30 69893 C 7153.18 3.86951 1.82901 0
M  V30 69894 C 7152.51 4.31564 3.15684 0
M  V30 69895 C 7153.81 5.10214 1.11711 0
M  V30 69896 H 7155.5 2.97155 0.365989 0
M  V30 69897 H 7153.05 1.42938 0.174597 0
M  V30 69898 H 7155 3.15265 2.79618 0
M  V30 69899 H 7153.73 1.91952 2.64238 0
M  V30 69900 H 7152.39 3.47109 1.17943 0
M  V30 69901 H 7152.03 3.45523 3.65544 0
M  V30 69902 H 7151.73 5.0712 2.96822 0
M  V30 69903 H 7153.26 4.74576 3.84201 0
M  V30 69904 H 7154.67 5.47771 1.69174 0
M  V30 69905 H 7153.07 5.91189 1.03033 0
M  V30 69906 H 7154.14 4.84798 0.0996261 0
M  V30 69907 N 7155.48 -0.180044 1.56568 0
M  V30 69908 C 7156.39 -1.24316 1.98954 0
M  V30 69909 C 7157.41 -1.48945 0.899525 0
M  V30 69910 O 7158.58 -1.61264 1.20647 0
M  V30 69911 C 7155.65 -2.56423 2.33341 0
M  V30 69912 C 7154.71 -2.39734 3.56127 0
M  V30 69913 C 7153.94 -3.65541 3.88865 0
M  V30 69914 O 7154.17 -4.70351 3.22686 0
M  V30 69915 O 7153.1 -3.60171 4.82245 0
M  V30 69916 H 7156.93 -0.913412 2.89639 0
M  V30 69917 H 7154.51 -0.38623 1.44321 0
M  V30 69918 H 7156.39 -3.34369 2.56468 0
M  V30 69919 H 7155.07 -2.88995 1.45821 0
M  V30 69920 H 7153.98 -1.59848 3.3823 0
M  V30 69921 H 7155.31 -2.12089 4.44161 0
M  V30 69922 N 7156.96 -1.5109 -0.448296 0
M  V30 69923 C 7158.21 -1.62892 -1.19626 0
M  V30 69924 C 7158.53 -0.342126 -1.91975 0
M  V30 69925 O 7157.8 0.641539 -1.85098 0
M  V30 69926 H 7156.38 -0.600308 -0.444566 0
M  V30 69927 H 7159.04 -1.87972 -0.515039 0
M  V30 69928 H 7158.14 -2.45127 -1.93181 0
M  V30 69929 N 7158.44 0.703019 -1.41051 0
M  V30 69930 C 7159.69 1.46013 -1.39731 0
M  V30 69931 C 7160.01 1.94999 -0.0047154 0
M  V30 69932 O 7159.28 1.71201 0.952202 0
M  V30 69933 H 7157.86 0.541752 -0.514309 0
M  V30 69934 H 7160.52 0.832585 -1.76222 0
M  V30 69935 H 7159.62 2.3269 -2.07995 0
M  V30 69936 N 7159.92 1.26756 0.936524 0
M  V30 69937 C 7161.14 1.15471 1.72282 0
M  V30 69938 C 7161.57 -0.285789 1.85916 0
M  V30 69939 O 7160.92 -1.20704 1.35278 0
M  V30 69940 C 7160.97 1.83375 3.10493 0
M  V30 69941 O 7160.08 1.12571 3.96739 0
M  V30 69942 H 7159.42 0.402095 0.528409 0
M  V30 69943 H 7161.95 1.67662 1.17263 0
M  V30 69944 H 7161.96 1.90384 3.60857 0
M  V30 69945 H 7160.63 2.88168 2.99886 0
M  V30 69946 H 7159.21 1.1357 3.55185 0
M  V30 69947 N 7161.39 -1.14177 1.08635 0
M  V30 69948 C 7162.64 -1.84902 0.815828 0
M  V30 69949 C 7162.96 -1.83479 -0.660344 0
M  V30 69950 O 7162.23 -1.28484 -1.47881 0
M  V30 69951 H 7160.81 -0.684633 0.29881 0
M  V30 69952 H 7163.48 -1.38347 1.37281 0
M  V30 69953 H 7162.57 -2.89659 1.16208 0
M  V30 69954 N 7162.87 -0.872351 -1.31255 0
M  V30 69955 C 7164.12 -0.480596 -1.95891 0
M  V30 69956 C 7164.43 0.972598 -1.69705 0
M  V30 69957 O 7165.64 1.47061 -2.28222 0
M  V30 69958 C 7164.1 -0.808527 -3.50701 0
M  V30 69959 C 7163.7 -2.27864 -3.85723 0
M  V30 69960 C 7165.45 -0.485359 -4.21716 0
M  V30 69961 C 7163.36 -2.54886 -5.33654 0
M  V30 69962 H 7162.29 -0.175994 -0.733173 0
M  V30 69963 H 7164.94 -1.06558 -1.49391 0
M  V30 69964 H 7163.32 -0.152767 -3.95705 0
M  V30 69965 H 7164.49 -2.97766 -3.5167 0
M  V30 69966 H 7162.81 -2.56808 -3.27778 0
M  V30 69967 H 7165.4 -0.664445 -5.30556 0
M  V30 69968 H 7165.75 0.574375 -4.12319 0
M  V30 69969 H 7166.28 -1.09776 -3.82353 0
M  V30 69970 H 7163.02 -3.59552 -5.4809 0
M  V30 69971 H 7162.54 -1.8958 -5.69051 0
M  V30 69972 H 7164.22 -2.39737 -6.00945 0
M  V30 69973 N 7164.35 1.44372 -0.632027 0
M  V30 69974 C 7165.6 2.01252 -0.13432 0
M  V30 69975 C 7165.91 1.50312 1.25163 0
M  V30 69976 O 7167.12 1.99326 1.8434 0
M  V30 69977 C 7165.57 3.59401 -0.189376 0
M  V30 69978 C 7165.18 4.19338 -1.57669 0
M  V30 69979 C 7166.93 4.23752 0.251821 0
M  V30 69980 C 7164.83 5.69714 -1.58681 0
M  V30 69981 H 7163.76 0.752568 -0.0464497 0
M  V30 69982 H 7166.41 1.65578 -0.790956 0
M  V30 69983 H 7164.8 3.92378 0.534377 0
M  V30 69984 H 7165.97 3.97897 -2.3241 0
M  V30 69985 H 7164.29 3.67277 -1.96205 0
M  V30 69986 H 7166.88 5.34049 0.263802 0
M  V30 69987 H 7167.23 3.96156 1.2793 0
M  V30 69988 H 7167.76 3.95582 -0.419468 0
M  V30 69989 H 7164.5 6.02046 -2.59269 0
M  V30 69990 H 7164.02 5.93274 -0.882352 0
M  V30 69991 H 7165.7 6.33368 -1.32116 0
M  V30 69992 N 7165.83 0.372629 1.53131 0
M  V30 69993 C 7167.07 -0.214836 2.03268 0
M  V30 69994 C 7167.43 -1.45418 1.2537 0
M  V30 69995 O 7168.63 -2.11772 1.65547 0
M  V30 69996 C 7166.9 -0.492711 3.53987 0
M  V30 69997 S 7168.46 -1.05284 4.25982 0
M  V30 69998 H 7165.28 -0.0619916 0.708292 0
M  V30 69999 H 7167.88 0.517125 1.88537 0
M  V30 70000 H 7166.59 0.416657 4.08279 0
M  V30 70001 H 7166.12 -1.25355 3.72894 0
M  V30 70002 H 7168.13 -2.33656 4.37743 0
M  V30 70003 N 7167.31 -1.5727 0.101984 0
M  V30 70004 C 7168.24 -2.11441 -0.884611 0
M  V30 70005 C 7169.25 -1.0532 -1.24143 0
M  V30 70006 O 7170.44 -1.32746 -1.19334 0
M  V30 70007 C 7167.54 -2.58495 -2.19165 0
M  V30 70008 C 7166.71 -3.88527 -2.00912 0
M  V30 70009 C 7165.77 -4.21357 -3.15191 0
M  V30 70010 O 7164.8 -4.90463 -2.88851 0
M  V30 70011 N 7166 -3.77311 -4.41154 0
M  V30 70012 H 7168.77 -2.96715 -0.421902 0
M  V30 70013 H 7166.33 -1.61687 -0.0829275 0
M  V30 70014 H 7168.32 -2.77499 -2.94578 0
M  V30 70015 H 7166.89 -1.78194 -2.56838 0
M  V30 70016 H 7166.11 -3.78603 -1.09789 0
M  V30 70017 H 7167.4 -4.73583 -1.86001 0
M  V30 70018 H 7166.79 -3.2154 -4.65433 0
M  V30 70019 H 7165.35 -4.01456 -5.13494 0
M  V30 70020 N 7168.79 0.171738 -1.56661 0
M  V30 70021 C 7170.2 0.734239 -1.71656 0
M  V30 70022 C 7170.55 1.82808 -0.712431 0
M  V30 70023 O 7169.67 2.16031 0.126287 0
M  V30 70024 C 7170.27 1.33863 -3.11233 0
M  V30 70025 C 7168.83 1.84796 -3.27914 0
M  V30 70026 C 7167.97 0.726776 -2.67607 0
M  V30 70027 H 7170.92 -0.0536501 -1.58609 0
M  V30 70028 H 7170.95 2.20832 -3.0986 0
M  V30 70029 H 7170.46 0.542288 -3.84293 0
M  V30 70030 H 7168.56 2.67076 -2.5981 0
M  V30 70031 H 7168.67 1.99369 -4.35648 0
M  V30 70032 H 7167.04 1.14711 -2.27406 0
M  V30 70033 H 7167.82 -0.0577144 -3.43251 0
M  V30 70034 N 7170.26 1.51325 0.440277 0
M  V30 70035 C 7171.21 1.72427 1.53419 0
M  V30 70036 C 7172.18 0.565909 1.56162 0
M  V30 70037 O 7173.37 0.800009 1.73218 0
M  V30 70038 C 7170.51 1.85257 2.91159 0
M  V30 70039 C 7169.62 3.12792 2.97968 0
M  V30 70040 C 7168.75 3.16235 4.26813 0
M  V30 70041 C 7167.79 4.38097 4.27478 0
M  V30 70042 N 7166.93 4.39105 5.47842 0
M  V30 70043 H 7171.77 2.65804 1.34729 0
M  V30 70044 H 7169.31 1.31735 0.654538 0
M  V30 70045 H 7171.26 1.90677 3.71077 0
M  V30 70046 H 7169.89 0.952906 3.08415 0
M  V30 70047 H 7168.95 3.16696 2.10732 0
M  V30 70048 H 7170.26 4.02711 2.94321 0
M  V30 70049 H 7169.41 3.20555 5.15102 0
M  V30 70050 H 7168.15 2.24199 4.33112 0
M  V30 70051 H 7167.16 4.33956 3.37583 0
M  V30 70052 H 7168.38 5.31393 4.22845 0
M  V30 70053 H 7166.33 3.49938 5.54869 0
M  V30 70054 H 7166.24 5.22829 5.46063 0
M  V30 70055 H 7167.51 4.47613 6.38171 0
M  V30 70056 N 7171.74 -0.695528 1.41422 0
M  V30 70057 C 7173.16 -1.00613 1.23892 0
M  V30 70058 C 7173.36 -2.01091 0.128312 0
M  V30 70059 O 7172.41 -2.47352 -0.507277 0
M  V30 70060 C 7173.73 -1.5307 2.58824 0
M  V30 70061 C 7175.27 -1.64953 2.66006 0
M  V30 70062 C 7175.75 -2.20812 4.01256 0
M  V30 70063 N 7177.24 -2.28172 4.03102 0
M  V30 70064 C 7177.98 -2.72421 5.04554 0
M  V30 70065 N 7177.47 -3.16274 6.16395 0
M  V30 70066 N 7179.26 -2.71985 4.91915 0
M  V30 70067 H 7171.42 -0.0298941 2.12379 0
M  V30 70068 H 7173.68 -0.0758299 0.944962 0
M  V30 70069 H 7173.38 -0.866967 3.40847 0
M  V30 70070 H 7173.26 -2.51283 2.81312 0
M  V30 70071 H 7175.65 -2.30438 1.84343 0
M  V30 70072 H 7175.73 -0.652852 2.47329 0
M  V30 70073 H 7175.37 -1.55943 4.83368 0
M  V30 70074 H 7175.3 -3.21232 4.17274 0
M  V30 70075 H 7177.79 -1.97225 3.22352 0
M  V30 70076 H 7178.1 -3.48663 6.89676 0
M  V30 70077 H 7176.45 -3.14183 6.19931 0
M  V30 70078 H 7179.64 -2.37074 4.03625 0
M  V30 70079 H 7179.81 -3.06151 5.71118 0
M  V30 70080 N 7173.22 -1.2725 -0.929789 0
M  V30 70081 C 7174.46 -1.147 -1.69184 0
M  V30 70082 C 7174.82 0.302521 -1.89602 0
M  V30 70083 O 7176.02 0.550405 -2.63105 0
M  V30 70084 C 7174.3 -1.90686 -3.0228 0
M  V30 70085 S 7175.85 -1.94324 -3.93426 0
M  V30 70086 H 7172.67 -0.409507 -0.581227 0
M  V30 70087 H 7175.27 -1.6113 -1.10713 0
M  V30 70088 H 7173.98 -2.95196 -2.8511 0
M  V30 70089 H 7173.51 -1.44742 -3.65805 0
M  V30 70090 H 7175.52 -1.03815 -4.85218 0
M  V30 70091 N 7174.7 1.13599 -1.09239 0
M  V30 70092 C 7175.92 1.89219 -0.849167 0
M  V30 70093 C 7176.35 1.78482 0.593781 0
M  V30 70094 O 7175.71 1.131 1.41697 0
M  V30 70095 C 7175.75 3.36866 -1.2866 0
M  V30 70096 O 7174.86 4.10005 -0.443846 0
M  V30 70097 H 7174.2 0.588401 -0.307701 0
M  V30 70098 H 7176.73 1.4374 -1.45602 0
M  V30 70099 H 7176.74 3.87692 -1.27116 0
M  V30 70100 H 7175.41 3.43999 -2.33747 0
M  V30 70101 H 7173.99 3.69208 -0.523436 0
M  V30 70102 N 7176.18 0.879299 1.3079 0
M  V30 70103 C 7177.11 0.299145 2.27239 0
M  V30 70104 C 7178.12 -0.543085 1.53475 0
M  V30 70105 O 7179.31 -0.363559 1.74758 0
M  V30 70106 C 7176.41 -0.593755 3.33658 0
M  V30 70107 C 7175.58 0.21813 4.36856 0
M  V30 70108 C 7174.64 -0.60437 5.22718 0
M  V30 70109 O 7173.67 -0.0290837 5.69193 0
M  V30 70110 N 7174.87 -1.91459 5.48018 0
M  V30 70111 H 7177.63 1.12802 2.77661 0
M  V30 70112 H 7175.2 0.741713 1.43911 0
M  V30 70113 H 7177.19 -1.14992 3.88019 0
M  V30 70114 H 7175.76 -1.32331 2.83209 0
M  V30 70115 H 7174.98 0.955738 3.82439 0
M  V30 70116 H 7176.27 0.774879 5.02865 0
M  V30 70117 H 7175.66 -2.40498 5.12032 0
M  V30 70118 H 7174.22 -2.41832 6.05277 0
M  V30 70119 N 7177.65 -1.44034 0.639674 0
M  V30 70120 C 7178.6 -2.30722 -0.0601241 0
M  V30 70121 C 7179.57 -1.43975 -0.828276 0
M  V30 70122 O 7180.76 -1.72865 -0.807602 0
M  V30 70123 C 7177.9 -3.29374 -1.0299 0
M  V30 70124 C 7177.01 -4.31221 -0.259274 0
M  V30 70125 C 7176.14 -5.16962 -1.22163 0
M  V30 70126 C 7175.18 -6.10512 -0.440657 0
M  V30 70127 N 7174.32 -6.88922 -1.35391 0
M  V30 70128 H 7179.16 -2.9002 0.68502 0
M  V30 70129 H 7176.7 -1.42886 0.349584 0
M  V30 70130 H 7178.65 -3.85066 -1.60562 0
M  V30 70131 H 7177.28 -2.71756 -1.74208 0
M  V30 70132 H 7176.34 -3.77933 0.432516 0
M  V30 70133 H 7177.65 -4.9758 0.34861 0
M  V30 70134 H 7176.8 -5.77213 -1.86842 0
M  V30 70135 H 7175.54 -4.50696 -1.86344 0
M  V30 70136 H 7174.55 -5.49361 0.219569 0
M  V30 70137 H 7175.77 -6.78816 0.19655 0
M  V30 70138 H 7173.72 -6.25318 -1.98277 0
M  V30 70139 H 7173.63 -7.51753 -0.800261 0
M  V30 70140 H 7174.9 -7.5369 -1.98927 0
M  V30 70141 N 7179.13 -0.380744 -1.52932 0
M  V30 70142 C 7180.54 0.09517 -1.86457 0
M  V30 70143 C 7180.89 1.46882 -1.30078 0
M  V30 70144 O 7180.02 2.07065 -0.628746 0
M  V30 70145 C 7180.61 0.17947 -3.38324 0
M  V30 70146 C 7179.17 0.599662 -3.71593 0
M  V30 70147 C 7178.32 -0.243718 -2.76227 0
M  V30 70148 H 7181.27 -0.598957 -1.46963 0
M  V30 70149 H 7181.29 1.00023 -3.67118 0
M  V30 70150 H 7180.8 -0.820428 -3.79329 0
M  V30 70151 H 7178.9 1.60724 -3.36153 0
M  V30 70152 H 7179.02 0.363751 -4.77717 0
M  V30 70153 H 7177.38 0.289722 -2.53047 0
M  V30 70154 H 7178.16 -1.24144 -3.20068 0
M  V30 70155 N 7180.61 1.57213 -0.110323 0
M  V30 70156 C 7181.86 1.95183 0.550581 0
M  V30 70157 C 7182.19 0.99321 1.6688 0
M  V30 70158 O 7181.46 0.0288933 1.94479 0
M  V30 70159 C 7181.75 3.43161 1.09145 0
M  V30 70160 C 7181.6 4.49794 -0.022757 0
M  V30 70161 C 7182.92 3.92789 1.98507 0
M  V30 70162 H 7180.04 0.709718 0.198669 0
M  V30 70163 H 7182.68 1.89106 -0.184123 0
M  V30 70164 H 7180.83 3.48471 1.71757 0
M  V30 70165 H 7182.5 4.56588 -0.657684 0
M  V30 70166 H 7180.74 4.28324 -0.687094 0
M  V30 70167 H 7181.42 5.50572 0.39677 0
M  V30 70168 H 7183.89 3.89728 1.45779 0
M  V30 70169 H 7182.77 4.96866 2.33272 0
M  V30 70170 H 7183.03 3.32973 2.90829 0
M  V30 70171 N 7182.09 -0.163427 1.5675 0
M  V30 70172 C 7183.32 -0.894135 1.86582 0
M  V30 70173 C 7183.73 -1.75478 0.696635 0
M  V30 70174 O 7183.09 -1.79416 -0.334066 0
M  V30 70175 C 7183.14 -1.7644 3.15518 0
M  V30 70176 O 7182.86 -0.93846 4.27931 0
M  V30 70177 C 7184.36 -2.60409 3.5875 0
M  V30 70178 H 7181.58 -0.259373 0.618843 0
M  V30 70179 H 7184.12 -0.161151 2.03864 0
M  V30 70180 H 7182.28 -2.45063 3.00038 0
M  V30 70181 H 7182.69 -1.53438 5.01554 0
M  V30 70182 H 7184.17 -3.17075 4.51849 0
M  V30 70183 H 7184.64 -3.3566 2.83247 0
M  V30 70184 H 7185.25 -1.97105 3.76868 0
M  V30 70185 N 7183.57 -1.51557 -0.432246 0
M  V30 70186 C 7184.52 -1.69622 -1.52357 0
M  V30 70187 C 7185.5 -0.550163 -1.51202 0
M  V30 70188 O 7186.69 -0.806289 -1.57569 0
M  V30 70189 C 7183.82 -1.82928 -2.90503 0
M  V30 70190 C 7182.91 -3.03334 -2.96394 0
M  V30 70191 N 7183.3 -4.26425 -2.7202 0
M  V30 70192 C 7181.6 -3.02693 -3.27556 0
M  V30 70193 C 7182.3 -5.07724 -2.83885 0
M  V30 70194 N 7181.27 -4.42479 -3.15775 0
M  V30 70195 H 7185.08 -2.62453 -1.32271 0
M  V30 70196 H 7182.59 -1.49273 -0.63963 0
M  V30 70197 H 7184.59 -1.93982 -3.69021 0
M  V30 70198 H 7183.25 -0.91282 -3.11605 0
M  V30 70199 H 7184.26 -4.55285 -2.46852 0
M  V30 70200 H 7180.93 -2.20697 -3.544 0
M  V30 70201 H 7182.32 -6.15723 -2.68952 0
M  V30 70202 N 7185.04 0.688019 -1.41789 0
M  V30 70203 C 7186.28 1.46024 -1.43026 0
M  V30 70204 C 7186.65 1.91958 -0.0403644 0
M  V30 70205 O 7187.85 2.68702 0.0725008 0
M  V30 70206 C 7186.12 2.6344 -2.41524 0
M  V30 70207 S 7187.68 3.52477 -2.61354 0
M  V30 70208 H 7184.5 0.498904 -0.506573 0
M  V30 70209 H 7187.1 0.802116 -1.78287 0
M  V30 70210 H 7185.8 2.27911 -3.41298 0
M  V30 70211 H 7185.33 3.34138 -2.07642 0
M  V30 70212 H 7187.35 4.58935 -1.88661 0
M  V30 70213 N 7186.52 1.27742 0.923027 0
M  V30 70214 C 7187.77 1.14523 1.67369 0
M  V30 70215 C 7188.1 -0.307323 1.91753 0
M  V30 70216 O 7187.38 -1.22439 1.51125 0
M  V30 70217 C 7187.66 1.93436 3.03734 0
M  V30 70218 C 7187.51 3.46702 2.86562 0
M  V30 70219 C 7188.83 1.74249 4.04135 0
M  V30 70220 H 7185.95 0.417406 0.607405 0
M  V30 70221 H 7188.59 1.56951 1.07081 0
M  V30 70222 H 7186.74 1.57379 3.55196 0
M  V30 70223 H 7188.41 3.92613 2.42183 0
M  V30 70224 H 7186.66 3.72805 2.21809 0
M  V30 70225 H 7187.33 3.97164 3.8336 0
M  V30 70226 H 7189.8 2.05697 3.61702 0
M  V30 70227 H 7188.68 2.3185 4.97531 0
M  V30 70228 H 7188.94 0.691603 4.36657 0
M  V30 70229 N 7188 -1.13018 1.0984 0
M  V30 70230 C 7188.91 -2.22158 0.753848 0
M  V30 70231 C 7189.93 -1.72252 -0.246014 0
M  V30 70232 O 7191.1 -2.01215 -0.086299 0
M  V30 70233 C 7188.17 -3.46211 0.18414 0
M  V30 70234 C 7187.23 -4.10987 1.24049 0
M  V30 70235 C 7186.46 -5.29118 0.697876 0
M  V30 70236 O 7186.68 -5.68395 -0.477792 0
M  V30 70237 O 7185.62 -5.84051 1.45491 0
M  V30 70238 H 7189.44 -2.54011 1.6647 0
M  V30 70239 H 7187.03 -1.21233 0.87309 0
M  V30 70240 H 7188.91 -4.21199 -0.130035 0
M  V30 70241 H 7187.59 -3.16048 -0.699656 0
M  V30 70242 H 7186.49 -3.37805 1.60743 0
M  V30 70243 H 7187.83 -4.4529 2.09709 0
M  V30 70244 N 7189.48 -0.886223 -1.30322 0
M  V30 70245 C 7190.76 -0.425318 -1.9092 0
M  V30 70246 C 7191.14 1.09403 -1.80539 0
M  V30 70247 O 7190.48 1.9299 -1.22341 0
M  V30 70248 C 7190.69 -0.924816 -3.36524 0
M  V30 70249 C 7192.04 -0.960523 -4.13593 0
M  V30 70250 O 7193.07 -0.871564 -3.45373 0
M  V30 70251 O 7191.92 -1.09212 -5.35476 0
M  V30 70252 H 7189.02 -0.130281 -0.816674 0
M  V30 70253 H 7191.56 -0.975205 -1.38881 0
M  V30 70254 H 7190.34 -1.96867 -3.3817 0
M  V30 70255 H 7189.96 -0.354164 -3.96019 0
M  V30 70256 N 7190.96 1.43693 -0.647304 0
M  V30 70257 C 7192.2 2.01482 -0.157982 0
M  V30 70258 C 7192.53 1.51289 1.23031 0
M  V30 70259 O 7191.8 0.723078 1.82067 0
M  V30 70260 H 7190.38 0.744942 -0.0554138 0
M  V30 70261 H 7193.04 1.75982 -0.837643 0
M  V30 70262 H 7192.13 3.11794 -0.138059 0
M  V30 70263 N 7192.43 0.388849 1.52728 0
M  V30 70264 C 7193.66 -0.193569 2.05993 0
M  V30 70265 C 7194.08 -1.4055 1.2606 0
M  V30 70266 O 7193.43 -1.79897 0.307144 0
M  V30 70267 C 7193.49 -0.564132 3.57071 0
M  V30 70268 O 7193.21 0.599651 4.33977 0
M  V30 70269 C 7194.71 -1.20246 4.2668 0
M  V30 70270 H 7191.93 -0.0293091 0.67036 0
M  V30 70271 H 7194.47 0.553948 1.96854 0
M  V30 70272 H 7192.63 -1.26155 3.66284 0
M  V30 70273 H 7193.04 0.295171 5.23669 0
M  V30 70274 H 7194.51 -1.41211 5.33632 0
M  V30 70275 H 7194.99 -2.16968 3.81866 0
M  V30 70276 H 7195.6 -0.545825 4.21783 0
M  V30 70277 N 7193.91 -1.57153 0.118659 0
M  V30 70278 C 7195.14 -1.99245 -0.546361 0
M  V30 70279 C 7195.55 -0.997232 -1.60785 0
M  V30 70280 O 7194.89 0.0180777 -1.83691 0
M  V30 70281 C 7194.96 -3.37749 -1.23149 0
M  V30 70282 C 7194.62 -4.55892 -0.317986 0
M  V30 70283 C 7195.62 -5.18007 0.443262 0
M  V30 70284 C 7193.3 -5.01777 -0.229157 0
M  V30 70285 C 7195.3 -6.24394 1.28107 0
M  V30 70286 C 7192.98 -6.08025 0.612287 0
M  V30 70287 C 7193.98 -6.692 1.36603 0
M  V30 70288 O 7193.67 -7.73395 2.19351 0
M  V30 70289 H 7193.4 -0.659315 -0.149263 0
M  V30 70290 H 7195.95 -2.04407 0.201711 0
M  V30 70291 H 7194.18 -3.2934 -2.02663 0
M  V30 70292 H 7195.87 -3.64132 -1.79339 0
M  V30 70293 H 7196.64 -4.83473 0.384505 0
M  V30 70294 H 7192.52 -4.53908 -0.805532 0
M  V30 70295 H 7196.06 -6.72072 1.86988 0
M  V30 70296 H 7191.96 -6.41988 0.672439 0
M  V30 70297 H 7192.73 -7.90491 2.12289 0
M  V30 70298 N 7195.39 0.155112 -1.56835 0
M  V30 70299 C 7196.32 1.19365 -2.00684 0
M  V30 70300 C 7197.3 1.45261 -0.885049 0
M  V30 70301 O 7198.49 1.5632 -1.15229 0
M  V30 70302 C 7195.62 2.52877 -2.38055 0
M  V30 70303 C 7194.57 2.41519 -3.53345 0
M  V30 70304 C 7193.9 3.79668 -3.76505 0
M  V30 70305 C 7195.2 1.90614 -4.86275 0
M  V30 70306 H 7196.89 0.829081 -2.87692 0
M  V30 70307 H 7194.44 0.397372 -1.38409 0
M  V30 70308 H 7196.39 3.25749 -2.67331 0
M  V30 70309 H 7195.11 2.91154 -1.47975 0
M  V30 70310 H 7193.77 1.711 -3.24222 0
M  V30 70311 H 7193.42 4.15367 -2.83689 0
M  V30 70312 H 7193.12 3.72932 -4.54088 0
M  V30 70313 H 7194.64 4.541 -4.08198 0
M  V30 70314 H 7196.06 2.53272 -5.14321 0
M  V30 70315 H 7194.46 1.94788 -5.67607 0
M  V30 70316 H 7195.53 0.861344 -4.77189 0
M  V30 70317 N 7196.87 1.51784 0.424202 0
M  V30 70318 C 7197.83 1.73439 1.49839 0
M  V30 70319 C 7198.83 0.604304 1.49013 0
M  V30 70320 O 7200.02 0.872015 1.50803 0
M  V30 70321 C 7197.15 1.80293 2.89322 0
M  V30 70322 H 7198.35 2.69319 1.31936 0
M  V30 70323 H 7195.9 1.41972 0.653734 0
M  V30 70324 H 7196.63 0.862733 3.12614 0
M  V30 70325 H 7196.42 2.62434 2.91326 0
M  V30 70326 H 7197.91 1.9884 3.67222 0
M  V30 70327 N 7198.35 -0.68049 1.42152 0
M  V30 70328 C 7199.58 -1.46895 1.45704 0
M  V30 70329 C 7199.99 -1.88682 0.0666853 0
M  V30 70330 O 7199.35 -1.57768 -0.917353 0
M  V30 70331 C 7199.4 -2.72176 2.37913 0
M  V30 70332 O 7199.12 -2.32144 3.71538 0
M  V30 70333 C 7200.62 -3.65789 2.50426 0
M  V30 70334 H 7197.84 -0.452184 0.495753 0
M  V30 70335 H 7200.38 -0.836611 1.86604 0
M  V30 70336 H 7198.54 -3.31612 2.00281 0
M  V30 70337 H 7198.95 -3.13005 4.20866 0
M  V30 70338 H 7200.43 -4.50436 3.1908 0
M  V30 70339 H 7200.9 -4.11304 1.54031 0
M  V30 70340 H 7201.51 -3.1225 2.88756 0
M  V30 70341 N 7199.83 -1.2823 -0.91624 0
M  V30 70342 C 7200.74 -1.13785 -2.05159 0
M  V30 70343 C 7201.75 -0.0650335 -1.73878 0
M  V30 70344 O 7202.93 -0.273827 -1.9953 0
M  V30 70345 C 7199.99 -0.798444 -3.37381 0
M  V30 70346 C 7199.05 -1.95336 -3.82286 0
M  V30 70347 C 7198.29 -1.63005 -5.08198 0
M  V30 70348 O 7198.51 -0.543247 -5.67807 0
M  V30 70349 O 7197.44 -2.4729 -5.48754 0
M  V30 70350 H 7201.27 -2.0909 -2.20261 0
M  V30 70351 H 7198.85 -1.07525 -1.03725 0
M  V30 70352 H 7200.74 -0.622999 -4.16769 0
M  V30 70353 H 7199.41 0.124968 -3.23459 0
M  V30 70354 H 7198.32 -2.18394 -3.03735 0
M  V30 70355 H 7199.65 -2.85739 -4.00767 0
M  V30 70356 N 7201.3 1.12434 -1.10437 0
M  V30 70357 C 7202.55 1.84216 -0.848069 0
M  V30 70358 C 7202.88 1.83874 0.624806 0
M  V30 70359 O 7202.16 1.28431 1.46067 0
M  V30 70360 C 7202.44 3.31892 -1.39712 0
M  V30 70361 C 7202.29 3.40688 -2.93686 0
M  V30 70362 C 7203.61 4.27648 -1.03946 0
M  V30 70363 H 7200.73 0.668847 -0.309537 0
M  V30 70364 H 7203.37 1.31905 -1.36752 0
M  V30 70365 H 7201.52 3.76572 -0.955293 0
M  V30 70366 H 7203.2 3.04644 -3.46395 0
M  V30 70367 H 7201.44 2.81235 -3.30287 0
M  V30 70368 H 7202.11 4.44583 -3.27185 0
M  V30 70369 H 7204.59 3.91095 -1.4207 0
M  V30 70370 H 7203.46 5.29387 -1.45054 0
M  V30 70371 H 7203.72 4.4207 0.0511029 0
M  V30 70372 N 7202.78 0.893122 1.2985 0
M  V30 70373 C 7203.73 0.355634 2.29865 0
M  V30 70374 C 7204.72 -0.541717 1.60505 0
M  V30 70375 O 7205.93 -0.425247 1.74905 0
M  V30 70376 H 7202.3 0.096364 0.7458 0
M  V30 70377 H 7204.28 1.21266 2.72648 0
M  V30 70378 C 7203.02 -0.407619 3.45302 0
M  V30 70379 H 7202.35 0.273637 3.98862 0
M  V30 70380 H 7203.79 -0.748667 4.17338 0
M  V30 70381 C 7202.25 -1.6078 2.9606 0
M  V30 70382 O 7202.78 -2.70714 2.96777 0
M  V30 70383 N 7200.98 -1.44772 2.51971 0
M  V30 70384 H 7200.53 -0.553365 2.51586 0
M  V30 70385 H 7200.49 -2.25209 2.19382 0
M  V30 70386 N 7204.26 -1.43348 0.654915 0
M  V30 70387 C 7205.67 -1.85037 0.248603 0
M  V30 70388 C 7206.02 -1.54822 -1.20518 0
M  V30 70389 O 7205.15 -0.998041 -1.92011 0
M  V30 70390 C 7205.74 -3.35873 0.444418 0
M  V30 70391 C 7204.3 -3.76287 0.0924092 0
M  V30 70392 C 7203.45 -2.67064 0.746468 0
M  V30 70393 H 7206.4 -1.33477 0.85847 0
M  V30 70394 H 7206.42 -3.79239 -0.309562 0
M  V30 70395 H 7205.93 -3.57832 1.50258 0
M  V30 70396 H 7204.03 -3.59938 -0.96309 0
M  V30 70397 H 7204.15 -4.7628 0.519058 0
M  V30 70398 H 7202.51 -2.54066 0.17955 0
M  V30 70399 H 7203.29 -2.91852 1.80769 0
M  V30 70400 N 7205.74 -0.396943 -1.52519 0
M  V30 70401 C 7206.7 0.422485 -2.25273 0
M  V30 70402 C 7207.7 0.983846 -1.27189 0
M  V30 70403 O 7208.89 0.864643 -1.51227 0
M  V30 70404 C 7206.02 1.5935 -3.01364 0
M  V30 70405 H 7207.22 -0.214574 -2.99131 0
M  V30 70406 H 7204.77 -0.14921 -1.55586 0
M  V30 70407 H 7205.5 2.26777 -2.31825 0
M  V30 70408 H 7205.29 1.19759 -3.73363 0
M  V30 70409 H 7206.78 2.17344 -3.56583 0
M  V30 70410 N 7207.22 1.57088 -0.126992 0
M  V30 70411 C 7208.49 1.87017 0.573054 0
M  V30 70412 C 7208.87 1.02955 1.84292 0
M  V30 70413 O 7208.22 0.110693 2.28232 0
M  V30 70414 C 7208.43 3.38294 0.857805 0
M  V30 70415 C 7209.78 4.07072 1.20737 0
M  V30 70416 O 7210.8 3.43358 0.947811 0
M  V30 70417 O 7209.66 5.19554 1.69488 0
M  V30 70418 H 7206.76 0.774471 0.290041 0
M  V30 70419 H 7209.3 1.68924 -0.162098 0
M  V30 70420 H 7208.07 3.91278 -0.041735 0
M  V30 70421 H 7207.7 3.61845 1.64784 0
M  V30 70422 N 7208.69 -0.146793 1.56915 0
M  V30 70423 C 7209.92 -0.874295 1.8752 0
M  V30 70424 C 7210.34 -1.74729 0.715208 0
M  V30 70425 O 7209.69 -1.79761 -0.315018 0
M  V30 70426 C 7209.74 -1.73083 3.17371 0
M  V30 70427 O 7209.47 -0.893019 4.28902 0
M  V30 70428 C 7210.97 -2.5659 3.61492 0
M  V30 70429 H 7208.19 -0.252795 0.621559 0
M  V30 70430 H 7210.73 -0.13952 2.04024 0
M  V30 70431 H 7208.89 -2.41867 3.02621 0
M  V30 70432 H 7209.3 -1.4811 5.03154 0
M  V30 70433 H 7210.77 -3.12265 4.55187 0
M  V30 70434 H 7211.25 -3.32637 2.86791 0
M  V30 70435 H 7211.86 -1.93097 3.78938 0
M  V30 70436 N 7210.17 -1.52007 -0.416147 0
M  V30 70437 C 7211.41 -1.67393 -1.17299 0
M  V30 70438 C 7211.78 -0.39193 -1.87957 0
M  V30 70439 O 7212.98 -0.421811 -2.6547 0
M  V30 70440 C 7211.25 -2.85765 -2.14646 0
M  V30 70441 S 7212.81 -3.21597 -2.98532 0
M  V30 70442 H 7209.62 -0.589521 -0.397474 0
M  V30 70443 H 7212.23 -1.89979 -0.46133 0
M  V30 70444 H 7210.93 -3.77325 -1.61412 0
M  V30 70445 H 7210.46 -2.65432 -2.90361 0
M  V30 70446 H 7212.48 -2.69674 -4.16522 0
M  V30 70447 N 7211.65 0.672941 -1.42511 0
M  V30 70448 C 7212.89 1.44499 -1.44566 0
M  V30 70449 C 7213.25 1.91904 -0.0607218 0
M  V30 70450 O 7214.45 2.68764 0.0439973 0
M  V30 70451 C 7212.73 2.60864 -2.44305 0
M  V30 70452 S 7214.28 3.49685 -2.65077 0
M  V30 70453 H 7211.1 0.493503 -0.511836 0
M  V30 70454 H 7213.7 0.783161 -1.79128 0
M  V30 70455 H 7212.41 2.24279 -3.43696 0
M  V30 70456 H 7211.94 3.31917 -2.11174 0
M  V30 70457 H 7213.95 4.56908 -1.93518 0
M  V30 70458 N 7213.13 1.28714 0.909427 0
M  V30 70459 C 7214.08 1.12877 2.03375 0
M  V30 70460 C 7215.07 0.0468967 1.69335 0
M  V30 70461 O 7216.28 0.205985 1.78818 0
M  V30 70462 H 7212.65 0.348383 0.666433 0
M  V30 70463 H 7214.62 2.08088 2.13874 0
M  V30 70464 C 7213.37 0.81192 3.38087 0
M  V30 70465 H 7212.69 1.63638 3.64777 0
M  V30 70466 H 7214.13 0.741089 4.17473 0
M  V30 70467 C 7212.59 -0.484503 3.33398 0
M  V30 70468 O 7213.12 -1.51351 3.72097 0
M  V30 70469 N 7211.33 -0.48681 2.86493 0
M  V30 70470 H 7210.88 0.351012 2.55197 0
M  V30 70471 H 7210.83 -1.35425 2.83738 0
M  V30 70472 N 7214.61 -1.11847 1.11032 0
M  V30 70473 C 7215.86 -1.82852 0.851345 0
M  V30 70474 C 7216.17 -1.85344 -0.625043 0
M  V30 70475 O 7217.37 -2.52408 -1.00013 0
M  V30 70476 C 7215.83 -3.28364 1.47326 0
M  V30 70477 C 7215.44 -3.34213 2.98338 0
M  V30 70478 C 7217.18 -4.04299 1.29394 0
M  V30 70479 C 7215.09 -4.74097 3.53534 0
M  V30 70480 H 7214.02 -0.685126 0.31483 0
M  V30 70481 H 7216.67 -1.25891 1.33505 0
M  V30 70482 H 7215.05 -3.85231 0.91722 0
M  V30 70483 H 7216.23 -2.87252 3.6031 0
M  V30 70484 H 7214.54 -2.71756 3.15496 0
M  V30 70485 H 7217.14 -5.07599 1.68069 0
M  V30 70486 H 7217.48 -4.1563 0.236098 0
M  V30 70487 H 7218.01 -3.53807 1.81839 0
M  V30 70488 H 7214.75 -4.67962 4.59012 0
M  V30 70489 H 7214.27 -5.21486 2.96332 0
M  V30 70490 H 7215.95 -5.43048 3.51722 0
M  V30 70491 N 7216.08 -0.899995 -1.29375 0
M  V30 70492 C 7217.31 -0.541491 -1.99688 0
M  V30 70493 C 7217.73 0.873848 -1.6736 0
M  V30 70494 O 7217.08 1.57684 -0.918811 0
M  V30 70495 C 7217.14 -0.724566 -3.54164 0
M  V30 70496 O 7216.86 -2.0842 -3.85348 0
M  V30 70497 C 7218.36 -0.371052 -4.41744 0
M  V30 70498 H 7215.58 -0.207759 -0.638026 0
M  V30 70499 H 7218.12 -1.20942 -1.64904 0
M  V30 70500 H 7216.28 -0.103812 -3.87261 0
M  V30 70501 H 7216.69 -2.11377 -4.80021 0
M  V30 70502 H 7218.16 -0.549983 -5.49253 0
M  V30 70503 H 7218.64 0.691919 -4.33715 0
M  V30 70504 H 7219.25 -0.968761 -4.1412 0
M  V30 70505 N 7217.56 1.42999 -0.662508 0
M  V30 70506 C 7218.81 2.02 -0.179964 0
M  V30 70507 C 7219.14 1.52201 1.20617 0
M  V30 70508 O 7218.42 0.719006 1.80722 0
M  V30 70509 C 7218.7 3.59538 -0.201035 0
M  V30 70510 C 7218.55 4.19547 -1.62175 0
M  V30 70511 C 7219.87 4.37716 0.457507 0
M  V30 70512 H 7216.99 0.73396 -0.0668692 0
M  V30 70513 H 7219.63 1.70178 -0.844959 0
M  V30 70514 H 7217.78 3.8678 0.365207 0
M  V30 70515 H 7219.45 4.03303 -2.2393 0
M  V30 70516 H 7217.7 3.75843 -2.16621 0
M  V30 70517 H 7218.37 5.28657 -1.58827 0
M  V30 70518 H 7220.84 4.16093 -0.0243689 0
M  V30 70519 H 7219.72 5.47351 0.412074 0
M  V30 70520 H 7219.98 4.14665 1.53315 0
M  V30 70521 N 7219.04 0.405026 1.52307 0
M  V30 70522 C 7220.28 -0.171672 2.03678 0
M  V30 70523 C 7220.64 -1.42726 1.28426 0
M  V30 70524 O 7221.85 -2.08213 1.70002 0
M  V30 70525 C 7220.12 -0.417514 3.54953 0
M  V30 70526 S 7221.68 -0.962246 4.28119 0
M  V30 70527 H 7218.49 -0.0469538 0.709448 0
M  V30 70528 H 7221.1 0.557 1.87397 0
M  V30 70529 H 7219.8 0.503165 4.07304 0
M  V30 70530 H 7219.33 -1.17417 3.75469 0
M  V30 70531 H 7221.35 -2.24318 4.42601 0
M  V30 70532 N 7220.52 -1.57018 0.135321 0
M  V30 70533 C 7221.47 -2.16165 -0.808794 0
M  V30 70534 C 7222.44 -1.09119 -1.25229 0
M  V30 70535 O 7223.62 -1.37106 -1.3269 0
M  V30 70536 C 7220.76 -2.77824 -2.04714 0
M  V30 70537 C 7219.87 -3.99226 -1.65052 0
M  V30 70538 C 7219.01 -4.48921 -2.83978 0
M  V30 70539 C 7218.05 -5.62816 -2.40634 0
M  V30 70540 N 7217.18 -6.07181 -3.52528 0
M  V30 70541 H 7222.02 -2.9651 -0.297595 0
M  V30 70542 H 7219.56 -1.46477 -0.135186 0
M  V30 70543 H 7221.52 -3.11711 -2.77294 0
M  V30 70544 H 7220.15 -2.00142 -2.53265 0
M  V30 70545 H 7219.2 -3.71394 -0.822834 0
M  V30 70546 H 7220.51 -4.81774 -1.2921 0
M  V30 70547 H 7219.67 -4.84803 -3.64762 0
M  V30 70548 H 7218.41 -3.65356 -3.23057 0
M  V30 70549 H 7217.41 -5.26522 -1.58286 0
M  V30 70550 H 7218.64 -6.48158 -2.02653 0
M  V30 70551 H 7216.58 -5.26554 -3.9125 0
M  V30 70552 H 7216.5 -6.84625 -3.20663 0
M  V30 70553 H 7217.77 -6.47705 -4.33703 0
M  V30 70554 N 7222 0.138469 -1.56991 0
M  V30 70555 C 7223.24 0.855751 -1.85624 0
M  V30 70556 C 7223.6 1.77958 -0.720757 0
M  V30 70557 O 7224.8 2.53696 -0.888355 0
M  V30 70558 C 7223.07 1.60258 -3.19456 0
M  V30 70559 S 7224.63 2.36412 -3.69669 0
M  V30 70560 H 7221.45 0.286001 -0.650941 0
M  V30 70561 H 7224.05 0.115228 -1.9516 0
M  V30 70562 H 7222.76 0.915526 -4.00058 0
M  V30 70563 H 7222.29 2.38385 -3.12947 0
M  V30 70564 H 7224.3 3.61769 -3.39614 0
M  V30 70565 N 7223.47 1.52225 0.40808 0
M  V30 70566 C 7224.42 1.76256 1.51778 0
M  V30 70567 C 7225.42 0.629721 1.57261 0
M  V30 70568 O 7226.62 0.811788 1.60655 0
M  V30 70569 H 7223 0.557393 0.504794 0
M  V30 70570 H 7224.97 2.69221 1.28696 0
M  V30 70571 C 7223.72 1.93122 2.89135 0
M  V30 70572 H 7223.04 2.79712 2.8566 0
M  V30 70573 H 7224.48 2.13936 3.6607 0
M  V30 70574 C 7222.94 0.698605 3.29577 0
M  V30 70575 O 7223.47 -0.133026 4.0148 0
M  V30 70576 N 7221.68 0.534201 2.85648 0
M  V30 70577 H 7221.22 1.21206 2.27304 0
M  V30 70578 H 7221.18 -0.289222 3.13067 0
M  V30 70579 N 7224.95 -0.665374 1.42865 0
M  V30 70580 C 7226.18 -1.45341 1.47254 0
M  V30 70581 C 7226.6 -1.88601 0.0866938 0
M  V30 70582 O 7225.95 -1.58733 -0.900568 0
M  V30 70583 C 7226 -2.69637 2.40786 0
M  V30 70584 O 7225.72 -2.2819 3.7398 0
M  V30 70585 C 7227.23 -3.63112 2.54292 0
M  V30 70586 H 7224.45 -0.4469 0.500521 0
M  V30 70587 H 7226.99 -0.816772 1.87481 0
M  V30 70588 H 7225.14 -3.29469 2.03787 0
M  V30 70589 H 7225.56 -3.08524 4.24162 0
M  V30 70590 H 7227.03 -4.47026 3.23839 0
M  V30 70591 H 7227.51 -4.09647 1.58385 0
M  V30 70592 H 7228.12 -3.09169 2.92052 0
M  V30 70593 N 7226.43 -1.29194 -0.902588 0
M  V30 70594 C 7227.66 -1.19998 -1.6916 0
M  V30 70595 C 7228.08 0.236397 -1.86609 0
M  V30 70596 O 7227.44 1.17075 -1.38431 0
M  V30 70597 C 7227.49 -1.91543 -3.05522 0
M  V30 70598 O 7226.59 -1.2305 -3.93615 0
M  V30 70599 H 7225.93 -0.415963 -0.517562 0
M  V30 70600 H 7228.46 -1.70712 -1.12776 0
M  V30 70601 H 7228.47 -1.99885 -3.55683 0
M  V30 70602 H 7227.15 -2.96018 -2.92141 0
M  V30 70603 H 7225.72 -1.22947 -3.52049 0
M  V30 70604 N 7227.91 1.11256 -1.11624 0
M  V30 70605 C 7228.84 2.1942 -0.798576 0
M  V30 70606 C 7229.82 1.68484 0.233914 0
M  V30 70607 O 7231.01 1.93958 0.0969681 0
M  V30 70608 C 7228.14 3.46448 -0.243075 0
M  V30 70609 C 7227.09 4.10609 -1.20765 0
M  V30 70610 C 7226.42 5.32236 -0.512775 0
M  V30 70611 C 7227.72 4.55312 -2.55908 0
M  V30 70612 H 7229.41 2.46249 -1.70299 0
M  V30 70613 H 7226.96 1.18354 -0.820257 0
M  V30 70614 H 7228.91 4.21399 -0.00862668 0
M  V30 70615 H 7227.63 3.19084 0.696642 0
M  V30 70616 H 7226.29 3.37654 -1.42777 0
M  V30 70617 H 7225.94 5.01143 0.431811 0
M  V30 70618 H 7225.64 5.76114 -1.15613 0
M  V30 70619 H 7227.16 6.09924 -0.287164 0
M  V30 70620 H 7228.58 5.21576 -2.37974 0
M  V30 70621 H 7226.97 5.1001 -3.16243 0
M  V30 70622 H 7228.04 3.68661 -3.14987 0
M  V30 70623 N 7229.39 0.906844 1.28896 0
M  V30 70624 C 7230.63 0.543433 1.97044 0
M  V30 70625 C 7230.99 -0.894944 1.69867 0
M  V30 70626 O 7232.19 -1.36559 2.31528 0
M  V30 70627 C 7230.46 0.836016 3.47485 0
M  V30 70628 S 7232.02 0.577986 4.34977 0
M  V30 70629 H 7228.84 0.201338 0.681897 0
M  V30 70630 H 7231.44 1.17081 1.56564 0
M  V30 70631 H 7230.15 1.88094 3.64758 0
M  V30 70632 H 7229.68 0.197025 3.92906 0
M  V30 70633 H 7231.69 -0.573792 4.92871 0
M  V30 70634 N 7230.87 -1.42645 0.670082 0
M  V30 70635 C 7231.81 -2.30797 -0.0111711 0
M  V30 70636 C 7232.78 -1.457 -0.79755 0
M  V30 70637 O 7233.97 -1.74539 -0.770753 0
M  V30 70638 C 7231.11 -3.31484 -0.959805 0
M  V30 70639 C 7230.22 -4.31674 -0.167747 0
M  V30 70640 C 7229.36 -5.19437 -1.1117 0
M  V30 70641 C 7228.39 -6.11309 -0.311059 0
M  V30 70642 N 7227.53 -6.91639 -1.20748 0
M  V30 70643 H 7232.37 -2.88501 0.746384 0
M  V30 70644 H 7229.91 -1.42112 0.379814 0
M  V30 70645 H 7231.87 -3.88385 -1.52359 0
M  V30 70646 H 7230.5 -2.7539 -1.68404 0
M  V30 70647 H 7229.55 -3.76931 0.512584 0
M  V30 70648 H 7230.86 -4.96729 0.454076 0
M  V30 70649 H 7230.01 -5.81046 -1.74557 0
M  V30 70650 H 7228.75 -4.54548 -1.76742 0
M  V30 70651 H 7227.76 -5.48772 0.336047 0
M  V30 70652 H 7228.98 -6.78246 0.340492 0
M  V30 70653 H 7226.93 -6.29383 -1.84968 0
M  V30 70654 H 7226.85 -7.53281 -0.640623 0
M  V30 70655 H 7228.11 -7.5774 -1.82896 0
M  V30 70656 N 7232.34 -0.413098 -1.5209 0
M  V30 70657 C 7233.25 0.417196 -2.30861 0
M  V30 70658 C 7234.27 1.04995 -1.38752 0
M  V30 70659 O 7235.45 1.0506 -1.71826 0
M  V30 70660 C 7232.51 1.51671 -3.11764 0
M  V30 70661 C 7231.57 0.906603 -4.19618 0
M  V30 70662 C 7230.8 1.95372 -4.96654 0
M  V30 70663 O 7231.03 3.17246 -4.74037 0
M  V30 70664 O 7229.96 1.55774 -5.81393 0
M  V30 70665 H 7233.79 -0.225188 -3.02864 0
M  V30 70666 H 7231.37 -0.176204 -1.48357 0
M  V30 70667 H 7233.25 2.15493 -3.62133 0
M  V30 70668 H 7231.93 2.14362 -2.4255 0
M  V30 70669 H 7230.84 0.230986 -3.73386 0
M  V30 70670 H 7232.17 0.323555 -4.91135 0
M  V30 70671 N 7233.82 1.56944 -0.143646 0
M  V30 70672 C 7234.77 2.16591 0.797319 0
M  V30 70673 C 7235.74 1.09782 1.24648 0
M  V30 70674 O 7236.92 1.37808 1.31961 0
M  V30 70675 C 7234.06 2.78906 2.03238 0
M  V30 70676 C 7233.18 4.00096 1.62933 0
M  V30 70677 C 7232.31 4.50421 2.81593 0
M  V30 70678 C 7231.35 5.64084 2.37645 0
M  V30 70679 N 7230.49 6.09042 3.49303 0
M  V30 70680 H 7235.33 2.96664 0.281866 0
M  V30 70681 H 7232.86 1.46547 0.127416 0
M  V30 70682 H 7234.82 3.13178 2.75637 0
M  V30 70683 H 7233.45 2.01482 2.522 0
M  V30 70684 H 7232.5 3.71825 0.803126 0
M  V30 70685 H 7233.82 4.82452 1.26654 0
M  V30 70686 H 7232.97 4.8673 3.62186 0
M  V30 70687 H 7231.71 3.67065 3.21115 0
M  V30 70688 H 7230.71 5.27354 1.55492 0
M  V30 70689 H 7231.94 6.49223 1.99213 0
M  V30 70690 H 7229.89 5.28622 3.88452 0
M  V30 70691 H 7229.8 6.86316 3.17027 0
M  V30 70692 H 7231.07 6.49996 4.30262 0
M  V30 70693 N 7235.3 -0.130141 1.57062 0
M  V30 70694 C 7236.71 -0.688469 1.73542 0
M  V30 70695 C 7237.06 -1.80855 0.760649 0
M  V30 70696 O 7236.19 -2.1629 -0.0689656 0
M  V30 70697 C 7236.78 -1.25564 3.14673 0
M  V30 70698 C 7235.34 -1.76037 3.32698 0
M  V30 70699 C 7234.49 -0.65557 2.69439 0
M  V30 70700 H 7237.44 0.0956837 1.58411 0
M  V30 70701 H 7237.46 -2.12539 3.15606 0
M  V30 70702 H 7236.97 -0.440209 3.85595 0
M  V30 70703 H 7235.07 -2.60094 2.668 0
M  V30 70704 H 7235.19 -1.87748 4.4078 0
M  V30 70705 H 7233.55 -1.08641 2.30367 0
M  V30 70706 H 7234.33 0.148701 3.42978 0
M  V30 70707 N 7236.78 -1.52439 -0.400001 0
M  V30 70708 C 7238 -1.71103 -1.17212 0
M  V30 70709 C 7238.43 -0.423662 -1.83267 0
M  V30 70710 O 7237.79 0.619661 -1.70382 0
M  V30 70711 C 7237.83 -2.85398 -2.2041 0
M  V30 70712 O 7236.94 -2.51603 -3.26756 0
M  V30 70713 H 7236.28 -0.569309 -0.341736 0
M  V30 70714 H 7238.81 -1.99183 -0.467667 0
M  V30 70715 H 7238.82 -3.10575 -2.64589 0
M  V30 70716 H 7237.49 -3.78795 -1.71717 0
M  V30 70717 H 7236.07 -2.37129 -2.87792 0
M  V30 70718 N 7238.26 0.657788 -1.43216 0
M  V30 70719 C 7239.5 1.41983 -1.44805 0
M  V30 70720 C 7239.83 1.94073 -0.0703583 0
M  V30 70721 O 7239.11 1.72 0.908087 0
M  V30 70722 C 7239.39 2.60458 -2.48664 0
M  V30 70723 C 7239.25 2.1389 -3.95691 0
M  V30 70724 C 7240.56 3.62673 -2.49311 0
M  V30 70725 H 7237.68 0.514931 -0.527271 0
M  V30 70726 H 7240.33 0.746118 -1.74737 0
M  V30 70727 H 7238.48 3.17934 -2.23271 0
M  V30 70728 H 7240.15 1.6145 -4.32125 0
M  V30 70729 H 7238.39 1.45304 -4.08741 0
M  V30 70730 H 7239.06 2.99065 -4.63966 0
M  V30 70731 H 7241.54 3.14947 -2.71933 0
M  V30 70732 H 7240.41 4.43126 -3.2393 0
M  V30 70733 H 7240.67 4.14956 -1.52524 0
M  V30 70734 N 7239.73 1.29671 0.895724 0
M  V30 70735 C 7240.97 1.19145 1.66084 0
M  V30 70736 C 7241.34 -0.252145 1.90337 0
M  V30 70737 O 7242.54 -0.480454 2.64471 0
M  V30 70738 C 7240.81 1.98634 2.97118 0
M  V30 70739 S 7242.37 2.04686 3.88135 0
M  V30 70740 H 7239.19 0.424774 0.570165 0
M  V30 70741 H 7241.79 1.64009 1.06402 0
M  V30 70742 H 7240.49 3.02651 2.77183 0
M  V30 70743 H 7240.02 1.5439 3.61839 0
M  V30 70744 H 7242.04 1.16643 4.82295 0
M  V30 70745 N 7241.21 -1.10663 1.12212 0
M  V30 70746 C 7242.62 -1.64081 0.890743 0
M  V30 70747 C 7242.97 -1.87573 -0.575403 0
M  V30 70748 O 7242.1 -1.61594 -1.43931 0
M  V30 70749 C 7242.69 -2.98077 1.61045 0
M  V30 70750 C 7241.25 -3.48371 1.42528 0
M  V30 70751 C 7240.4 -2.23024 1.64789 0
M  V30 70752 H 7243.35 -0.941942 1.27723 0
M  V30 70753 H 7243.37 -3.65433 1.06013 0
M  V30 70754 H 7242.88 -2.80948 2.6775 0
M  V30 70755 H 7240.98 -3.7065 0.380692 0
M  V30 70756 H 7241.1 -4.26639 2.17981 0
M  V30 70757 H 7239.46 -2.31049 1.07183 0
M  V30 70758 H 7240.24 -2.08428 2.72787 0
M  V30 70759 N 7242.69 -0.913667 -1.28413 0
M  V30 70760 C 7243.62 -0.418968 -2.2971 0
M  V30 70761 C 7244.6 0.513383 -1.62168 0
M  V30 70762 O 7245.79 0.421135 -1.89579 0
M  V30 70763 C 7242.92 0.34186 -3.45613 0
M  V30 70764 C 7241.87 -0.501347 -4.25054 0
M  V30 70765 C 7241.2 0.387815 -5.33292 0
M  V30 70766 C 7242.5 -1.75857 -4.91805 0
M  V30 70767 H 7244.19 -1.26552 -2.71339 0
M  V30 70768 H 7241.74 -0.609972 -1.30443 0
M  V30 70769 H 7243.69 0.698781 -4.15566 0
M  V30 70770 H 7242.41 1.22232 -3.02865 0
M  V30 70771 H 7241.07 -0.840786 -3.56828 0
M  V30 70772 H 7240.72 1.26681 -4.86786 0
M  V30 70773 H 7240.42 -0.172769 -5.87346 0
M  V30 70774 H 7241.94 0.74062 -6.06092 0
M  V30 70775 H 7243.36 -1.47056 -5.54119 0
M  V30 70776 H 7241.76 -2.26155 -5.55854 0
M  V30 70777 H 7242.83 -2.48642 -4.163 0
M  V30 70778 N 7244.17 1.42288 -0.677638 0
M  V30 70779 C 7245.42 2.01101 -0.200684 0
M  V30 70780 C 7245.74 1.53865 1.19794 0
M  V30 70781 O 7245.01 0.761534 1.80492 0
M  V30 70782 H 7243.59 0.743599 -0.0712027 0
M  V30 70783 H 7246.25 1.74165 -0.874783 0
M  V30 70784 H 7245.35 3.11431 -0.204164 0
M  V30 70785 N 7245.65 0.421158 1.51868 0
M  V30 70786 C 7246.89 -0.150684 2.01939 0
M  V30 70787 C 7247.22 -1.44114 1.30619 0
M  V30 70788 O 7246.48 -1.91469 0.404732 0
M  V30 70789 C 7246.78 -0.433105 3.54766 0
M  V30 70790 C 7246.44 0.769595 4.44284 0
M  V30 70791 C 7245.1 1.09946 4.68471 0
M  V30 70792 C 7247.46 1.57268 4.96907 0
M  V30 70793 C 7244.78 2.23338 5.42528 0
M  V30 70794 C 7247.14 2.69747 5.72206 0
M  V30 70795 C 7245.8 3.03205 5.94662 0
M  V30 70796 H 7245.07 -0.0551391 0.738946 0
M  V30 70797 H 7247.72 0.565042 1.82974 0
M  V30 70798 H 7246.02 -1.23054 3.71974 0
M  V30 70799 H 7247.72 -0.888716 3.91028 0
M  V30 70800 H 7244.31 0.50253 4.25644 0
M  V30 70801 H 7248.49 1.33105 4.78118 0
M  V30 70802 H 7243.75 2.49595 5.58133 0
M  V30 70803 H 7247.92 3.32355 6.11975 0
M  V30 70804 H 7245.55 3.91185 6.51827 0
M  V30 70805 N 7247.12 -1.56866 0.151967 0
M  V30 70806 C 7248.03 -2.20583 -0.798759 0
M  V30 70807 C 7249.05 -1.19161 -1.26794 0
M  V30 70808 O 7250.23 -1.51755 -1.3241 0
M  V30 70809 C 7247.29 -2.81884 -2.01847 0
M  V30 70810 C 7246.35 -3.98449 -1.59804 0
M  V30 70811 C 7245.59 -4.56817 -2.7596 0
M  V30 70812 O 7245.81 -4.14065 -3.92309 0
M  V30 70813 O 7244.74 -5.47 -2.51147 0
M  V30 70814 H 7248.57 -3.02347 -0.286341 0
M  V30 70815 H 7246.15 -1.4921 -0.0753019 0
M  V30 70816 H 7248.04 -3.20827 -2.73218 0
M  V30 70817 H 7246.71 -2.0313 -2.52031 0
M  V30 70818 H 7245.62 -3.64212 -0.854409 0
M  V30 70819 H 7246.95 -4.78737 -1.1433 0
M  V30 70820 N 7248.6 0.12181 -1.57129 0
M  V30 70821 C 7249.85 0.831321 -1.84978 0
M  V30 70822 C 7250.18 1.7966 -0.737299 0
M  V30 70823 O 7249.46 1.92793 0.257097 0
M  V30 70824 C 7249.74 1.58369 -3.23406 0
M  V30 70825 C 7249.59 0.63821 -4.45249 0
M  V30 70826 C 7250.91 2.54052 -3.59369 0
M  V30 70827 H 7248.03 0.300767 -0.672836 0
M  V30 70828 H 7250.67 0.0956586 -1.89759 0
M  V30 70829 H 7248.82 2.21082 -3.19461 0
M  V30 70830 H 7250.49 0.0201493 -4.61296 0
M  V30 70831 H 7248.74 -0.0504587 -4.33771 0
M  V30 70832 H 7249.41 1.20122 -5.38771 0
M  V30 70833 H 7251.88 2.01446 -3.64086 0
M  V30 70834 H 7250.76 3.03728 -4.5721 0
M  V30 70835 H 7251.02 3.36586 -2.8664 0
M  V30 70836 N 7250.08 1.52649 0.391911 0
M  V30 70837 C 7251.03 1.77221 1.47856 0
M  V30 70838 C 7252 0.615304 1.54283 0
M  V30 70839 O 7253.18 0.854712 1.70585 0
M  V30 70840 C 7250.32 1.94426 2.85118 0
M  V30 70841 C 7249.44 3.22114 2.87866 0
M  V30 70842 C 7248.57 3.29653 4.16536 0
M  V30 70843 C 7247.61 4.51475 4.13324 0
M  V30 70844 N 7246.75 4.56312 5.33595 0
M  V30 70845 H 7251.59 2.69956 1.26205 0
M  V30 70846 H 7249.12 1.33751 0.612296 0
M  V30 70847 H 7251.08 2.02386 3.64823 0
M  V30 70848 H 7249.71 1.05054 3.05227 0
M  V30 70849 H 7248.76 3.2324 2.0055 0
M  V30 70850 H 7250.08 4.11871 2.8136 0
M  V30 70851 H 7249.23 3.3678 5.04643 0
M  V30 70852 H 7247.97 2.37865 4.2576 0
M  V30 70853 H 7246.97 4.44476 3.23606 0
M  V30 70854 H 7248.2 5.44577 4.05725 0
M  V30 70855 H 7246.14 3.67414 5.43455 0
M  V30 70856 H 7246.06 5.39937 5.29154 0
M  V30 70857 H 7247.33 4.6769 6.23608 0
M  V30 70858 N 7251.56 -0.650184 1.43563 0
M  V30 70859 C 7252.78 -1.44268 1.49002 0
M  V30 70860 C 7253.21 -1.87778 0.110053 0
M  V30 70861 O 7252.57 -1.57564 -0.896843 0
M  V30 70862 C 7252.61 -2.65185 2.44355 0
M  V30 70863 O 7251.72 -3.6435 1.93191 0
M  V30 70864 H 7251.06 -0.432443 0.503874 0
M  V30 70865 H 7253.59 -0.795346 1.88508 0
M  V30 70866 H 7253.6 -3.12963 2.6176 0
M  V30 70867 H 7252.27 -2.32859 3.446 0
M  V30 70868 H 7250.85 -3.23509 1.85462 0
M  V30 70869 N 7253.04 -1.30144 -0.888834 0
M  V30 70870 C 7253.98 -1.16198 -1.99416 0
M  V30 70871 C 7254.95 -0.0524745 -1.66017 0
M  V30 70872 O 7256.14 -0.221964 -1.89505 0
M  V30 70873 C 7253.28 -0.855788 -3.34321 0
M  V30 70874 C 7252.39 -2.0468 -3.80434 0
M  V30 70875 C 7251.53 -1.67903 -5.03966 0
M  V30 70876 C 7250.57 -2.83522 -5.42477 0
M  V30 70877 N 7249.7 -2.47067 -6.57193 0
M  V30 70878 H 7254.54 -2.1076 -2.10676 0
M  V30 70879 H 7252.08 -1.04865 -1.03159 0
M  V30 70880 H 7254.04 -0.658898 -4.11964 0
M  V30 70881 H 7252.67 0.0529454 -3.22757 0
M  V30 70882 H 7251.72 -2.35506 -2.98732 0
M  V30 70883 H 7253.03 -2.91279 -4.04917 0
M  V30 70884 H 7252.19 -1.44566 -5.89224 0
M  V30 70885 H 7250.92 -0.784685 -4.81346 0
M  V30 70886 H 7249.93 -3.07529 -4.55748 0
M  V30 70887 H 7251.15 -3.73637 -5.67073 0
M  V30 70888 H 7249.1 -1.60133 -6.36155 0
M  V30 70889 H 7249.02 -3.27197 -6.81526 0
M  V30 70890 H 7250.29 -2.27077 -7.45692 0
M  V30 70891 N 7254.51 1.10066 -1.12797 0
M  V30 70892 C 7255.45 2.15764 -0.743035 0
M  V30 70893 C 7256.43 1.60382 0.26763 0
M  V30 70894 O 7257.61 1.87814 0.160683 0
M  V30 70895 C 7254.74 3.38551 -0.100422 0
M  V30 70896 C 7253.78 4.12638 -1.07852 0
M  V30 70897 S 7254.62 4.67706 -2.60789 0
M  V30 70898 C 7255.77 5.938 -1.97869 0
M  V30 70899 H 7256 2.48083 -1.63835 0
M  V30 70900 H 7253.54 1.21913 -0.94745 0
M  V30 70901 H 7255.5 4.0965 0.263959 0
M  V30 70902 H 7254.16 3.04463 0.772062 0
M  V30 70903 H 7253.35 5.00691 -0.576589 0
M  V30 70904 H 7252.95 3.47369 -1.38604 0
M  V30 70905 H 7255.24 6.64442 -1.32376 0
M  V30 70906 H 7256.19 6.48662 -2.83978 0
M  V30 70907 H 7256.59 5.4601 -1.43296 0
M  V30 70908 N 7255.99 0.920464 1.27927 0
M  V30 70909 C 7257.24 0.557935 1.94974 0
M  V30 70910 C 7257.57 -0.897275 1.72228 0
M  V30 70911 O 7256.85 -1.63906 1.04714 0
M  V30 70912 C 7257.13 0.875926 3.49284 0
M  V30 70913 C 7256.98 2.38436 3.81403 0
M  V30 70914 C 7258.3 0.376748 4.38484 0
M  V30 70915 H 7255.42 0.204177 0.708153 0
M  V30 70916 H 7258.06 1.15093 1.51174 0
M  V30 70917 H 7256.21 0.371266 3.86722 0
M  V30 70918 H 7257.88 2.96015 3.53798 0
M  V30 70919 H 7256.13 2.83656 3.2821 0
M  V30 70920 H 7256.8 2.55739 4.89185 0
M  V30 70921 H 7259.27 0.809161 4.08157 0
M  V30 70922 H 7258.15 0.628263 5.45293 0
M  V30 70923 H 7258.41 -0.723063 4.36147 0
M  V30 70924 N 7257.47 -1.41926 0.685174 0
M  V30 70925 C 7258.88 -1.84468 0.287797 0
M  V30 70926 C 7259.23 -1.57344 -1.17207 0
M  V30 70927 O 7258.36 -1.03855 -1.8985 0
M  V30 70928 C 7258.95 -3.34854 0.515562 0
M  V30 70929 C 7257.51 -3.76006 0.172204 0
M  V30 70930 C 7256.66 -2.6542 0.802948 0
M  V30 70931 H 7259.61 -1.31626 0.88659 0
M  V30 70932 H 7259.63 -3.7981 -0.229051 0
M  V30 70933 H 7259.14 -3.54565 1.57815 0
M  V30 70934 H 7257.24 -3.619 -0.886526 0
M  V30 70935 H 7257.36 -4.75072 0.619967 0
M  V30 70936 H 7255.72 -2.53628 0.233401 0
M  V30 70937 H 7256.5 -2.87952 1.86919 0
M  V30 70938 N 7258.95 -0.429206 -1.51643 0
M  V30 70939 C 7260.2 0.139696 -2.01617 0
M  V30 70940 C 7260.52 1.4392 -1.31575 0
M  V30 70941 O 7259.79 1.90714 -0.447789 0
M  V30 70942 H 7258.37 0.0546147 -0.745001 0
M  V30 70943 H 7261.03 -0.57005 -1.86377 0
M  V30 70944 H 7260.13 0.321445 -3.1044 0
M  V30 70945 N 7260.43 1.56783 -0.160284 0
M  V30 70946 C 7261.84 1.58392 0.196005 0
M  V30 70947 C 7262.04 1.17517 1.63683 0
M  V30 70948 O 7261.1 0.881631 2.36608 0
M  V30 70949 C 7262.41 3.00607 -0.0748034 0
M  V30 70950 C 7263.96 3.12998 -0.0121412 0
M  V30 70951 C 7264.44 4.57285 -0.255793 0
M  V30 70952 N 7265.93 4.62754 -0.203182 0
M  V30 70953 C 7266.66 5.72231 -0.366033 0
M  V30 70954 N 7266.16 6.90306 -0.587336 0
M  V30 70955 N 7267.95 5.61284 -0.302707 0
M  V30 70956 H 7260.1 1.81642 -1.1009 0
M  V30 70957 H 7262.36 0.841361 -0.436824 0
M  V30 70958 H 7262.07 3.34949 -1.07249 0
M  V30 70959 H 7261.94 3.71755 0.638606 0
M  V30 70960 H 7264.33 2.78489 0.976107 0
M  V30 70961 H 7264.41 2.44309 -0.758088 0
M  V30 70962 H 7264.06 4.925 -1.2412 0
M  V30 70963 H 7263.99 5.24118 0.510636 0
M  V30 70964 H 7266.48 3.77882 -0.0373321 0
M  V30 70965 H 7266.79 7.69611 -0.701347 0
M  V30 70966 H 7265.14 6.92195 -0.623818 0
M  V30 70967 H 7268.33 4.67918 -0.130485 0
M  V30 70968 H 7268.5 6.46551 -0.433053 0
M  V30 70969 N 7261.91 -0.113476 1.57191 0
M  V30 70970 C 7263.15 -0.826111 1.86962 0
M  V30 70971 C 7263.51 -1.76789 0.748977 0
M  V30 70972 O 7264.71 -2.52251 0.928603 0
M  V30 70973 C 7262.98 -1.55156 3.21965 0
M  V30 70974 S 7264.54 -2.30501 3.73383 0
M  V30 70975 H 7261.36 -0.275609 0.655409 0
M  V30 70976 H 7263.96 -0.0841654 1.95319 0
M  V30 70977 H 7262.66 -0.851765 4.01464 0
M  V30 70978 H 7262.2 -2.33377 3.167 0
M  V30 70979 H 7264.21 -3.5632 3.45327 0
M  V30 70980 N 7263.38 -1.52855 -0.38381 0
M  V30 70981 C 7264.62 -1.69843 -1.13722 0
M  V30 70982 C 7264.99 -0.43171 -1.87084 0
M  V30 70983 O 7266.19 -0.478026 -2.64515 0
M  V30 70984 C 7264.46 -2.90254 -2.08536 0
M  V30 70985 S 7266.02 -3.27856 -2.91643 0
M  V30 70986 H 7262.84 -0.59782 -0.38488 0
M  V30 70987 H 7265.44 -1.90915 -0.420929 0
M  V30 70988 H 7264.14 -3.80664 -1.53372 0
M  V30 70989 H 7263.67 -2.71531 -2.84665 0
M  V30 70990 H 7265.69 -2.78448 -4.10708 0
M  V30 70991 N 7264.86 0.642561 -1.43906 0
M  V30 70992 C 7266.27 1.22397 -1.40982 0
M  V30 70993 C 7266.62 1.95837 -0.119303 0
M  V30 70994 O 7265.75 2.01822 0.780832 0
M  V30 70995 C 7266.34 2.22622 -2.55392 0
M  V30 70996 C 7264.9 2.76216 -2.55698 0
M  V30 70997 C 7264.05 1.51027 -2.32564 0
M  V30 70998 H 7267 0.433926 -1.52652 0
M  V30 70999 H 7267.02 3.05005 -2.2749 0
M  V30 71000 H 7266.53 1.69143 -3.49303 0
M  V30 71001 H 7264.63 3.33729 -1.65697 0
M  V30 71002 H 7264.75 3.23034 -3.53816 0
M  V30 71003 H 7263.11 1.78754 -1.81436 0
M  V30 71004 H 7263.89 0.994667 -3.28575 0
M  V30 71005 N 7266.34 1.30614 0.88192 0
M  V30 71006 C 7267.59 1.19613 1.63399 0
M  V30 71007 C 7267.91 -0.248472 1.92906 0
M  V30 71008 O 7267.17 -1.19383 1.55068 0
M  V30 71009 C 7267.47 1.97326 2.97988 0
M  V30 71010 C 7267.13 3.46922 2.8802 0
M  V30 71011 C 7265.8 3.87715 2.85009 0
M  V30 71012 C 7268.15 4.42171 2.75924 0
M  V30 71013 C 7265.48 5.22044 2.67744 0
M  V30 71014 C 7267.83 5.76611 2.60198 0
M  V30 71015 C 7266.49 6.16639 2.55562 0
M  V30 71016 H 7265.76 0.437693 0.597918 0
M  V30 71017 H 7268.41 1.61749 1.02515 0
M  V30 71018 H 7266.71 1.47834 3.62839 0
M  V30 71019 H 7268.41 1.86204 3.55146 0
M  V30 71020 H 7265 3.14507 2.91175 0
M  V30 71021 H 7269.19 4.11595 2.77315 0
M  V30 71022 H 7264.44 5.52146 2.62572 0
M  V30 71023 H 7268.62 6.50051 2.49812 0
M  V30 71024 H 7266.24 7.20672 2.41943 0
M  V30 71025 N 7267.82 -1.09466 1.1338 0
M  V30 71026 C 7269.05 -1.85128 0.917117 0
M  V30 71027 C 7269.46 -1.81405 -0.537473 0
M  V30 71028 O 7268.8 -1.20818 -1.38379 0
M  V30 71029 C 7268.86 -3.34127 1.32664 0
M  V30 71030 C 7268.52 -3.61598 2.79456 0
M  V30 71031 C 7269.52 -3.57355 3.77615 0
M  V30 71032 C 7267.21 -3.89956 3.16606 0
M  V30 71033 C 7269.2 -3.81081 5.10936 0
M  V30 71034 C 7266.89 -4.13337 4.50106 0
M  V30 71035 C 7267.89 -4.08891 5.4708 0
M  V30 71036 O 7267.57 -4.31669 6.78172 0
M  V30 71037 H 7267.31 -0.591632 0.327028 0
M  V30 71038 H 7269.86 -1.39231 1.51009 0
M  V30 71039 H 7268.09 -3.80729 0.67692 0
M  V30 71040 H 7269.78 -3.91199 1.08249 0
M  V30 71041 H 7270.54 -3.35474 3.5026 0
M  V30 71042 H 7266.42 -3.92542 2.41727 0
M  V30 71043 H 7269.97 -3.77527 5.86617 0
M  V30 71044 H 7265.86 -4.34699 4.77186 0
M  V30 71045 H 7266.63 -4.49132 6.84268 0
M  V30 71046 N 7269.3 -0.927235 -1.27437 0
M  V30 71047 C 7270.54 -0.577753 -1.95022 0
M  V30 71048 C 7270.9 0.87133 -1.71539 0
M  V30 71049 O 7270.19 1.61328 -1.03363 0
M  V30 71050 C 7270.38 -0.839177 -3.47408 0
M  V30 71051 C 7270.21 -2.31212 -3.85709 0
M  V30 71052 C 7268.98 -2.96474 -4.09184 0
M  V30 71053 C 7271.18 -3.2896 -3.95335 0
M  V30 71054 N 7269.16 -4.33926 -4.3426 0
M  V30 71055 C 7270.53 -4.51621 -4.24781 0
M  V30 71056 C 7272.59 -3.24175 -3.77908 0
M  V30 71057 C 7271.29 -5.70096 -4.38615 0
M  V30 71058 C 7273.32 -4.41963 -3.92967 0
M  V30 71059 C 7272.68 -5.63401 -4.22799 0
M  V30 71060 H 7268.78 -0.261534 -0.73697 0
M  V30 71061 H 7271.36 -1.19376 -1.5381 0
M  V30 71062 H 7269.53 -0.252334 -3.87579 0
M  V30 71063 H 7271.27 -0.45237 -4.02164 0
M  V30 71064 H 7268.02 -2.47146 -4.04 0
M  V30 71065 H 7268.44 -5.05032 -4.50856 0
M  V30 71066 H 7273.09 -2.31355 -3.53885 0
M  V30 71067 H 7270.8 -6.63382 -4.61465 0
M  V30 71068 H 7274.39 -4.39777 -3.80903 0
M  V30 71069 H 7273.27 -6.53024 -4.342 0
M  V30 71070 N 7270.77 1.41561 -0.692691 0
M  V30 71071 C 7272.01 2.03141 -0.22656 0
M  V30 71072 C 7272.38 1.53666 1.15112 0
M  V30 71073 O 7273.58 2.07152 1.71294 0
M  V30 71074 C 7271.85 3.56311 -0.278737 0
M  V30 71075 S 7273.41 4.38652 0.11377 0
M  V30 71076 H 7270.23 0.705086 -0.0915139 0
M  V30 71077 H 7272.83 1.73039 -0.909828 0
M  V30 71078 H 7271.53 3.89815 -1.28346 0
M  V30 71079 H 7271.06 3.91111 0.423774 0
M  V30 71080 H 7273.08 4.77699 1.34231 0
M  V30 71081 N 7272.25 0.437242 1.51413 0
M  V30 71082 C 7273.16 -0.380415 2.31495 0
M  V30 71083 C 7274.18 -1.02774 1.40404 0
M  V30 71084 O 7275.35 -1.02313 1.73476 0
M  V30 71085 C 7272.42 -1.46692 3.14137 0
M  V30 71086 C 7271.48 -0.839731 4.21007 0
M  V30 71087 C 7270.71 -1.87446 4.997 0
M  V30 71088 O 7270.94 -3.09664 4.79024 0
M  V30 71089 O 7269.87 -1.46505 5.83798 0
M  V30 71090 H 7273.7 0.273342 3.02467 0
M  V30 71091 H 7271.28 0.199784 1.48058 0
M  V30 71092 H 7273.16 -2.09705 3.65516 0
M  V30 71093 H 7271.84 -2.10476 2.4593 0
M  V30 71094 H 7270.75 -0.171555 3.73706 0
M  V30 71095 H 7272.08 -0.245378 4.91588 0
M  V30 71096 N 7273.73 -1.56696 0.168596 0
M  V30 71097 C 7274.96 -2.01611 -0.486582 0
M  V30 71098 C 7275.38 -1.04804 -1.56197 0
M  V30 71099 O 7274.74 -0.0271552 -1.8128 0
M  V30 71100 C 7274.79 -3.45147 -1.04433 0
M  V30 71101 O 7273.89 -3.51405 -2.15844 0
M  V30 71102 H 7273.23 -0.653647 -0.116796 0
M  V30 71103 H 7275.76 -2.02788 0.271686 0
M  V30 71104 H 7275.77 -3.84396 -1.36762 0
M  V30 71105 H 7274.45 -4.15106 -0.256936 0
M  V30 71106 H 7273.02 -3.24013 -1.8458 0
M  V30 71107 N 7275.21 0.105138 -1.57249 0
M  V30 71108 C 7276.16 1.12825 -2.01344 0
M  V30 71109 C 7277.13 1.40372 -0.887971 0
M  V30 71110 O 7278.31 1.52004 -1.15323 0
M  V30 71111 C 7275.45 2.44599 -2.43445 0
M  V30 71112 C 7274.56 2.23868 -3.69468 0
M  V30 71113 C 7273.7 3.4897 -4.00491 0
M  V30 71114 C 7272.74 3.23458 -5.19655 0
M  V30 71115 N 7271.87 4.40799 -5.4648 0
M  V30 71116 H 7276.71 0.745234 -2.88531 0
M  V30 71117 H 7274.25 0.35646 -1.42716 0
M  V30 71118 H 7276.21 3.21489 -2.65896 0
M  V30 71119 H 7274.84 2.80766 -1.59281 0
M  V30 71120 H 7273.89 1.37829 -3.54552 0
M  V30 71121 H 7275.2 2.01002 -4.56508 0
M  V30 71122 H 7274.36 4.34273 -4.23665 0
M  V30 71123 H 7273.1 3.74881 -3.11954 0
M  V30 71124 H 7272.1 2.36547 -4.96312 0
M  V30 71125 H 7273.33 2.98903 -6.09782 0
M  V30 71126 H 7271.27 4.66804 -4.60901 0
M  V30 71127 H 7271.19 4.21087 -6.27871 0
M  V30 71128 H 7272.46 5.27195 -5.74183 0
M  V30 71129 N 7276.69 1.53056 0.375699 0
M  V30 71130 C 7277.93 1.68414 1.11718 0
M  V30 71131 C 7278.26 0.43333 1.90124 0
M  V30 71132 O 7277.53 -0.552496 1.87948 0
M  V30 71133 H 7276.11 0.620835 0.415419 0
M  V30 71134 H 7278.77 1.90215 0.424769 0
M  V30 71135 H 7277.86 2.54065 1.81266 0
M  V30 71136 N 7278.16 -0.634921 1.44245 0
M  V30 71137 C 7279.41 -1.39662 1.47046 0
M  V30 71138 C 7279.74 -1.93936 0.101225 0
M  V30 71139 O 7279.02 -1.73423 -0.880608 0
M  V30 71140 C 7279.3 -2.56469 2.52776 0
M  V30 71141 C 7279.15 -2.07568 3.99043 0
M  V30 71142 C 7280.47 -3.58661 2.5505 0
M  V30 71143 H 7277.59 -0.506478 0.535396 0
M  V30 71144 H 7280.23 -0.718224 1.75902 0
M  V30 71145 H 7278.38 -3.14342 2.28301 0
M  V30 71146 H 7280.06 -1.54554 4.34638 0
M  V30 71147 H 7278.3 -1.38783 4.11001 0
M  V30 71148 H 7278.97 -2.91646 4.68665 0
M  V30 71149 H 7281.45 -3.10581 2.7691 0
M  V30 71150 H 7280.32 -4.37916 3.30939 0
M  V30 71151 H 7280.58 -4.12477 1.59106 0
M  V30 71152 N 7279.64 -1.3108 -0.874981 0
M  V30 71153 C 7280.88 -1.21772 -1.64167 0
M  V30 71154 C 7281.25 0.221832 -1.90714 0
M  V30 71155 O 7282.45 0.438318 -2.65202 0
M  V30 71156 C 7280.72 -2.03335 -2.93921 0
M  V30 71157 S 7282.28 -2.10835 -3.8483 0
M  V30 71158 H 7279.1 -0.433791 -0.563335 0
M  V30 71159 H 7281.7 -1.65681 -1.03779 0
M  V30 71160 H 7280.4 -3.07023 -2.72333 0
M  V30 71161 H 7279.93 -1.60127 -3.59337 0
M  V30 71162 H 7281.95 -1.24302 -4.80379 0
M  V30 71163 N 7281.12 1.08863 -1.13958 0
M  V30 71164 C 7282.37 1.81425 -0.906246 0
M  V30 71165 C 7282.7 1.85769 0.565991 0
M  V30 71166 O 7281.97 1.33013 1.41908 0
M  V30 71167 C 7282.26 3.27279 -1.502 0
M  V30 71168 C 7282.11 3.31173 -3.04376 0
M  V30 71169 C 7283.43 4.24125 -1.17499 0
M  V30 71170 H 7280.55 0.65866 -0.330659 0
M  V30 71171 H 7283.19 1.27487 -1.4088 0
M  V30 71172 H 7281.34 3.73342 -1.07461 0
M  V30 71173 H 7283.01 2.9347 -3.55912 0
M  V30 71174 H 7281.26 2.70584 -3.39067 0
M  V30 71175 H 7281.93 4.33948 -3.41164 0
M  V30 71176 H 7284.4 3.86377 -1.54441 0
M  V30 71177 H 7283.28 5.24504 -1.61823 0
M  V30 71178 H 7283.54 4.42009 -0.0895643 0
M  V30 71179 N 7282.6 0.93398 1.26943 0
M  V30 71180 C 7283.55 0.408897 2.24303 0
M  V30 71181 C 7284.53 -0.490354 1.53246 0
M  V30 71182 O 7285.72 -0.326774 1.73957 0
M  V30 71183 C 7282.85 -0.331397 3.41697 0
M  V30 71184 C 7281.94 0.584732 4.2005 0
M  V30 71185 N 7282.33 1.70735 4.76113 0
M  V30 71186 C 7280.63 0.388937 4.44301 0
M  V30 71187 C 7281.33 2.27765 5.35255 0
M  V30 71188 N 7280.31 1.5665 5.2054 0
M  V30 71189 H 7284.11 1.26596 2.65237 0
M  V30 71190 H 7281.62 0.788994 1.41946 0
M  V30 71191 H 7283.62 -0.724557 4.10555 0
M  V30 71192 H 7282.28 -1.18531 3.02292 0
M  V30 71193 H 7283.29 2.08962 4.73873 0
M  V30 71194 H 7279.97 -0.423797 4.15343 0
M  V30 71195 H 7281.36 3.22313 5.89546 0
M  V30 71196 N 7284.08 -1.41192 0.700189 0
M  V30 71197 C 7285.32 -2.00756 0.232652 0
M  V30 71198 C 7285.65 -1.55751 -1.17331 0
M  V30 71199 O 7284.92 -0.790152 -1.79258 0
M  V30 71200 H 7283.5 -0.742372 0.0830237 0
M  V30 71201 H 7286.16 -1.72752 0.90238 0
M  V30 71202 H 7285.25 -3.11067 0.253685 0
M  V30 71203 N 7285.55 -0.445265 -1.51179 0
M  V30 71204 C 7286.5 0.376476 -2.29533 0
M  V30 71205 C 7287.5 1.01378 -1.35716 0
M  V30 71206 O 7288.7 0.947841 -1.53023 0
M  V30 71207 H 7285.08 0.140228 -0.73881 0
M  V30 71208 H 7287.05 -0.305115 -2.96836 0
M  V30 71209 C 7285.8 1.46074 -3.15528 0
M  V30 71210 H 7285.12 0.979708 -3.8761 0
M  V30 71211 H 7286.56 2.0088 -3.73394 0
M  V30 71212 C 7285.02 2.4484 -2.31419 0
M  V30 71213 O 7285.55 3.49552 -1.9793 0
M  V30 71214 N 7283.76 2.15921 -1.9449 0
M  V30 71215 H 7283.3 1.30796 -2.21924 0
M  V30 71216 H 7283.26 2.82244 -1.38513 0
M  V30 71217 N 7287.03 1.56604 -0.176904 0
M  V30 71218 C 7288 2.17017 0.737315 0
M  V30 71219 C 7289 1.11971 1.15408 0
M  V30 71220 O 7290.19 1.37455 1.07013 0
M  V30 71221 C 7287.32 2.75755 2.0043 0
M  V30 71222 H 7288.51 2.99155 0.211298 0
M  V30 71223 H 7286.06 1.56131 0.0726759 0
M  V30 71224 H 7286.8 1.97366 2.57327 0
M  V30 71225 H 7286.58 3.52635 1.71437 0
M  V30 71226 H 7288.07 3.22201 2.65662 0
M  V30 71227 N 7288.51 -0.0967971 1.57302 0
M  V30 71228 C 7289.42 -1.13595 2.05264 0
M  V30 71229 C 7290.44 -1.43967 0.977213 0
M  V30 71230 O 7291.61 -1.54642 1.29026 0
M  V30 71231 C 7288.68 -2.43693 2.46606 0
M  V30 71232 C 7287.74 -2.20519 3.68334 0
M  V30 71233 C 7286.97 -3.44414 4.07695 0
M  V30 71234 O 7287.2 -4.52584 3.47165 0
M  V30 71235 O 7286.13 -3.34102 5.00659 0
M  V30 71236 H 7289.96 -0.758597 2.94073 0
M  V30 71237 H 7287.54 -0.309186 1.46166 0
M  V30 71238 H 7289.42 -3.20304 2.73831 0
M  V30 71239 H 7288.1 -2.80859 1.60935 0
M  V30 71240 H 7287 -1.41695 3.46227 0
M  V30 71241 H 7288.34 -1.88247 4.54779 0
M  V30 71242 N 7289.99 -1.53254 -0.367576 0
M  V30 71243 C 7291.22 -1.72994 -1.12945 0
M  V30 71244 C 7291.63 -0.457805 -1.83578 0
M  V30 71245 O 7290.97 0.578914 -1.7434 0
M  V30 71246 C 7291.03 -2.83914 -2.2053 0
M  V30 71247 C 7290.7 -4.24332 -1.69681 0
M  V30 71248 C 7291.69 -5.06749 -1.16197 0
M  V30 71249 C 7289.38 -4.70735 -1.75255 0
M  V30 71250 C 7291.37 -6.33659 -0.689601 0
M  V30 71251 C 7289.06 -5.97623 -1.2763 0
M  V30 71252 C 7290.06 -6.78917 -0.745725 0
M  V30 71253 O 7289.75 -8.03424 -0.276502 0
M  V30 71254 H 7289.48 -0.582092 -0.343723 0
M  V30 71255 H 7292.03 -2.00784 -0.433 0
M  V30 71256 H 7290.26 -2.51593 -2.93663 0
M  V30 71257 H 7291.95 -2.91851 -2.82095 0
M  V30 71258 H 7292.72 -4.72073 -1.11231 0
M  V30 71259 H 7288.6 -4.07533 -2.15494 0
M  V30 71260 H 7292.14 -6.97059 -0.274796 0
M  V30 71261 H 7288.04 -6.31799 -1.32288 0
M  V30 71262 H 7288.8 -8.17541 -0.396014 0
M  V30 71263 N 7291.47 0.627262 -1.44579 0
M  V30 71264 C 7292.4 1.75235 -1.47734 0
M  V30 71265 C 7293.41 1.58533 -0.370277 0
M  V30 71266 O 7294.6 1.66776 -0.636239 0
M  V30 71267 C 7291.7 3.13005 -1.29927 0
M  V30 71268 C 7290.87 3.5613 -2.53949 0
M  V30 71269 C 7289.93 4.72792 -2.30985 0
M  V30 71270 O 7288.96 4.80907 -3.04495 0
M  V30 71271 N 7290.16 5.64753 -1.34291 0
M  V30 71272 H 7292.93 1.72999 -2.44727 0
M  V30 71273 H 7290.49 0.811948 -1.40068 0
M  V30 71274 H 7292.48 3.88776 -1.12405 0
M  V30 71275 H 7291.05 3.09862 -0.412832 0
M  V30 71276 H 7290.27 2.70527 -2.86721 0
M  V30 71277 H 7291.56 3.81695 -3.36431 0
M  V30 71278 H 7290.96 5.60893 -0.735869 0
M  V30 71279 H 7289.51 6.40138 -1.22747 0
M  V30 71280 N 7292.95 1.31542 0.868017 0
M  V30 71281 C 7294.36 1.19202 1.43693 0
M  V30 71282 C 7294.71 -0.200739 1.9517 0
M  V30 71283 O 7293.83 -1.09863 1.86438 0
M  V30 71284 C 7294.43 2.15791 2.61189 0
M  V30 71285 C 7292.99 2.07379 3.14119 0
M  V30 71286 C 7292.13 2.0491 1.86834 0
M  V30 71287 H 7295.08 1.43565 0.676381 0
M  V30 71288 H 7295.11 1.74865 3.37939 0
M  V30 71289 H 7294.62 3.17149 2.23692 0
M  V30 71290 H 7292.72 1.09223 3.56232 0
M  V30 71291 H 7292.83 2.96577 3.76269 0
M  V30 71292 H 7291.2 1.49954 2.05879 0
M  V30 71293 H 7291.98 3.08027 1.51573 0
M  V30 71294 N 7294.42 -1.08258 1.14534 0
M  V30 71295 C 7295.67 -1.80317 0.912694 0
M  V30 71296 C 7295.99 -1.86721 -0.562158 0
M  V30 71297 O 7295.26 -1.36142 -1.40862 0
M  V30 71298 H 7293.84 -0.667831 0.33468 0
M  V30 71299 H 7296.5 -1.30876 1.44422 0
M  V30 71300 H 7295.6 -2.83092 1.31399 0
M  V30 71301 N 7295.9 -0.940699 -1.26446 0
M  V30 71302 C 7297.13 -0.604224 -1.98403 0
M  V30 71303 C 7297.55 0.81373 -1.69588 0
M  V30 71304 O 7296.91 1.54807 -0.943635 0
M  V30 71305 C 7296.96 -0.852321 -3.50382 0
M  V30 71306 O 7296.06 0.0757956 -4.1233 0
M  V30 71307 H 7295.4 -0.231186 -0.622454 0
M  V30 71308 H 7297.93 -1.2635 -1.60925 0
M  V30 71309 H 7297.94 -0.773027 -4.0061 0
M  V30 71310 H 7296.62 -1.88585 -3.70686 0
M  V30 71311 H 7295.19 -0.0545154 -3.7286 0
M  V30 71312 N 7297.38 1.40818 -0.707667 0
M  V30 71313 C 7298.79 1.83987 -0.317108 0
M  V30 71314 C 7299.14 1.59189 1.14688 0
M  V30 71315 O 7298.27 1.06862 1.88174 0
M  V30 71316 C 7298.86 3.33992 -0.568769 0
M  V30 71317 C 7297.42 3.75684 -0.232002 0
M  V30 71318 C 7296.57 2.64109 -0.845072 0
M  V30 71319 H 7299.52 1.30198 -0.907418 0
M  V30 71320 H 7299.54 3.80126 0.168597 0
M  V30 71321 H 7299.05 3.52009 -1.63435 0
M  V30 71322 H 7297.15 3.63264 0.828838 0
M  V30 71323 H 7297.27 4.74025 -0.695468 0
M  V30 71324 H 7295.63 2.53225 -0.273721 0
M  V30 71325 H 7296.41 2.84941 -1.91477 0
M  V30 71326 N 7298.86 0.453276 1.50941 0
M  V30 71327 C 7300.1 -0.107975 2.02512 0
M  V30 71328 C 7300.44 -1.4096 1.33581 0
M  V30 71329 O 7299.71 -1.89085 0.455771 0
M  V30 71330 C 7299.99 -0.310264 3.58761 0
M  V30 71331 C 7299.85 1.01113 4.38288 0
M  V30 71332 C 7301.17 -1.0729 4.26822 0
M  V30 71333 H 7298.29 -0.0377676 0.736032 0
M  V30 71334 H 7300.93 0.59539 1.8043 0
M  V30 71335 H 7299.08 -0.909383 3.77707 0
M  V30 71336 H 7300.75 1.64545 4.30955 0
M  V30 71337 H 7298.99 1.612 4.02737 0
M  V30 71338 H 7299.66 0.823438 5.45824 0
M  V30 71339 H 7302.14 -0.565256 4.12243 0
M  V30 71340 H 7301.02 -1.18322 5.35995 0
M  V30 71341 H 7301.28 -2.10504 3.88768 0
M  V30 71342 N 7300.34 -1.56508 0.185206 0
M  V30 71343 C 7301.57 -2.01383 -0.461363 0
M  V30 71344 C 7301.97 -1.06453 -1.56411 0
M  V30 71345 O 7301.32 -0.0598483 -1.83602 0
M  V30 71346 C 7301.38 -3.42668 -1.08713 0
M  V30 71347 C 7301.04 -4.56831 -0.12434 0
M  V30 71348 C 7302.04 -5.15661 0.662567 0
M  V30 71349 C 7299.72 -5.02297 -0.0161298 0
M  V30 71350 C 7301.72 -6.18398 1.54475 0
M  V30 71351 C 7299.41 -6.04881 0.86962 0
M  V30 71352 C 7300.4 -6.62804 1.64863 0
M  V30 71353 O 7300.09 -7.63396 2.51956 0
M  V30 71354 H 7299.82 -0.665053 -0.121164 0
M  V30 71355 H 7302.38 -2.03368 0.288226 0
M  V30 71356 H 7300.61 -3.37639 -1.88512 0
M  V30 71357 H 7302.3 -3.71411 -1.63733 0
M  V30 71358 H 7303.06 -4.81408 0.589217 0
M  V30 71359 H 7298.94 -4.56916 -0.612289 0
M  V30 71360 H 7302.49 -6.63537 2.15324 0
M  V30 71361 H 7298.38 -6.38558 0.944123 0
M  V30 71362 H 7299.15 -7.80776 2.45625 0
M  V30 71363 N 7301.81 0.0884536 -1.57352 0
M  V30 71364 C 7303.04 0.807949 -1.91016 0
M  V30 71365 C 7303.46 1.71161 -0.780099 0
M  V30 71366 O 7302.82 1.79308 0.267988 0
M  V30 71367 C 7302.87 1.59168 -3.23571 0
M  V30 71368 O 7301.97 2.70113 -3.11629 0
M  V30 71369 H 7301.32 0.221532 -0.625955 0
M  V30 71370 H 7303.85 0.0616875 -2.04507 0
M  V30 71371 H 7303.86 1.97449 -3.57041 0
M  V30 71372 H 7302.53 0.928527 -4.05402 0
M  V30 71373 H 7301.11 2.34812 -2.89686 0
M  V30 71374 N 7303.29 1.53446 0.359444 0
M  V30 71375 C 7304.52 1.7415 1.12634 0
M  V30 71376 C 7304.94 0.472103 1.82079 0
M  V30 71377 O 7304.3 -0.57427 1.71965 0
M  V30 71378 C 7304.35 2.91141 2.12766 0
M  V30 71379 O 7303.45 2.60178 3.1997 0
M  V30 71380 H 7302.79 0.578169 0.326522 0
M  V30 71381 H 7305.32 2.00353 0.414692 0
M  V30 71382 H 7305.33 3.17481 2.56261 0
M  V30 71383 H 7304.01 3.83215 1.61614 0
M  V30 71384 H 7302.59 2.44676 2.81404 0
M  V30 71385 N 7304.77 -0.619586 1.4491 0
M  V30 71386 C 7305.72 -1.73097 1.52663 0
M  V30 71387 C 7306.69 -1.61848 0.373419 0
M  V30 71388 O 7307.87 -1.81603 0.585238 0
M  V30 71389 C 7305.01 -3.11379 1.48786 0
M  V30 71390 C 7304.13 -3.33521 2.74569 0
M  V30 71391 C 7303.26 -4.6184 2.62445 0
M  V30 71392 C 7302.3 -4.77199 3.83337 0
M  V30 71393 N 7301.44 -5.96806 3.6982 0
M  V30 71394 H 7306.28 -1.65806 2.47613 0
M  V30 71395 H 7303.81 -0.808654 1.22879 0
M  V30 71396 H 7305.77 -3.91366 1.44527 0
M  V30 71397 H 7304.4 -3.17656 0.57395 0
M  V30 71398 H 7303.45 -2.47392 2.88966 0
M  V30 71399 H 7304.77 -3.40746 3.64271 0
M  V30 71400 H 7303.92 -5.50005 2.56085 0
M  V30 71401 H 7302.66 -4.56992 1.70322 0
M  V30 71402 H 7301.66 -3.8746 3.9007 0
M  V30 71403 H 7302.89 -4.83853 4.76512 0
M  V30 71404 H 7300.83 -5.93026 2.80457 0
M  V30 71405 H 7300.75 -6.05139 4.53148 0
M  V30 71406 H 7302.02 -6.87502 3.67371 0
M  V30 71407 N 7306.25 -1.32 -0.861029 0
M  V30 71408 C 7307.49 -1.23506 -1.62867 0
M  V30 71409 C 7307.85 0.201592 -1.90939 0
M  V30 71410 O 7309.05 0.410165 -2.65652 0
M  V30 71411 C 7307.32 -2.06441 -2.91748 0
M  V30 71412 S 7308.88 -2.14905 -3.82572 0
M  V30 71413 H 7305.7 -0.439741 -0.558703 0
M  V30 71414 H 7308.3 -1.66772 -1.02016 0
M  V30 71415 H 7307.01 -3.09894 -2.69061 0
M  V30 71416 H 7306.54 -1.63929 -3.57618 0
M  V30 71417 H 7308.55 -1.2939 -4.79033 0
M  V30 71418 N 7307.73 1.07649 -1.15107 0
M  V30 71419 C 7308.66 2.14679 -0.802835 0
M  V30 71420 C 7309.67 1.61759 0.183788 0
M  V30 71421 O 7310.86 1.78457 -0.0390291 0
M  V30 71422 C 7307.96 3.38462 -0.172313 0
M  V30 71423 C 7307.13 4.20742 -1.1956 0
M  V30 71424 C 7306.19 5.22911 -0.587416 0
M  V30 71425 O 7305.22 5.55248 -1.25253 0
M  V30 71426 N 7306.42 5.77047 0.632262 0
M  V30 71427 H 7309.19 2.45155 -1.72392 0
M  V30 71428 H 7306.75 1.23528 -1.04653 0
M  V30 71429 H 7308.74 4.03944 0.247252 0
M  V30 71430 H 7307.31 3.05724 0.652053 0
M  V30 71431 H 7306.53 3.51122 -1.79184 0
M  V30 71432 H 7307.82 4.7253 -1.88661 0
M  V30 71433 H 7307.21 5.53019 1.19106 0
M  V30 71434 H 7305.77 6.44173 0.994226 0
M  V30 71435 N 7309.2 0.947392 1.25945 0
M  V30 71436 C 7310.48 0.515924 1.88673 0
M  V30 71437 C 7310.86 -1.00665 1.85553 0
M  V30 71438 O 7310.21 -1.86933 1.31409 0
M  V30 71439 C 7310.42 1.08432 3.31728 0
M  V30 71440 C 7311.77 1.15676 4.08539 0
M  V30 71441 O 7312.79 1.03535 3.40821 0
M  V30 71442 O 7311.65 1.34636 5.29656 0
M  V30 71443 H 7308.74 0.169097 0.809528 0
M  V30 71444 H 7311.29 1.04036 1.3407 0
M  V30 71445 H 7310.06 2.12777 3.28392 0
M  V30 71446 H 7309.69 0.542707 3.93879 0
M  V30 71447 N 7310.68 -1.40441 0.715125 0
M  V30 71448 C 7311.92 -2.02754 0.258849 0
M  V30 71449 C 7312.29 -1.55478 -1.12653 0
M  V30 71450 O 7313.49 -2.09851 -1.67977 0
M  V30 71451 C 7311.76 -3.55823 0.335388 0
M  V30 71452 S 7313.32 -4.38778 -0.0439696 0
M  V30 71453 H 7310.14 -0.703541 0.10272 0
M  V30 71454 H 7312.74 -1.71569 0.937242 0
M  V30 71455 H 7311.44 -3.87723 1.34531 0
M  V30 71456 H 7310.97 -3.91736 -0.361498 0
M  V30 71457 H 7312.99 -4.79774 -1.26614 0
M  V30 71458 N 7312.16 -0.461275 -1.50698 0
M  V30 71459 C 7313.41 0.0972342 -2.02567 0
M  V30 71460 C 7313.74 1.40249 -1.34327 0
M  V30 71461 O 7313.01 1.8884 -0.465792 0
M  V30 71462 C 7313.3 0.291234 -3.5892 0
M  V30 71463 C 7313.15 -1.03436 -4.37745 0
M  V30 71464 C 7314.47 1.05025 -4.27385 0
M  V30 71465 H 7311.59 0.0338637 -0.736222 0
M  V30 71466 H 7314.23 -0.60495 -1.80112 0
M  V30 71467 H 7312.38 0.88934 -3.78184 0
M  V30 71468 H 7314.05 -1.66829 -4.30077 0
M  V30 71469 H 7312.3 -1.63334 -4.01876 0
M  V30 71470 H 7312.97 -0.852373 -5.45379 0
M  V30 71471 H 7315.44 0.543386 -4.12537 0
M  V30 71472 H 7314.32 1.15478 -5.36615 0
M  V30 71473 H 7314.58 2.0844 -3.89879 0
M  V30 71474 N 7313.64 1.56408 -0.193504 0
M  V30 71475 C 7314.88 1.99433 0.447872 0
M  V30 71476 C 7315.24 1.07759 1.58909 0
M  V30 71477 O 7316.44 1.40014 2.29455 0
M  V30 71478 C 7314.71 3.45941 0.897748 0
M  V30 71479 S 7316.27 4.10994 1.53718 0
M  V30 71480 H 7313.09 0.696414 0.14328 0
M  V30 71481 H 7315.69 1.93243 -0.296195 0
M  V30 71482 H 7314.4 4.1036 0.0570763 0
M  V30 71483 H 7313.93 3.55945 1.67532 0
M  V30 71484 H 7315.94 4.07869 2.8259 0
M  V30 71485 N 7315.12 -0.0801076 1.57396 0
M  V30 71486 C 7316.34 -0.793975 1.91059 0
M  V30 71487 C 7316.76 -1.71538 0.788673 0
M  V30 71488 O 7316.12 -1.80935 -0.238492 0
M  V30 71489 C 7316.17 -1.59467 3.24427 0
M  V30 71490 O 7315.89 -0.710304 4.32303 0
M  V30 71491 C 7317.39 -2.41027 3.7205 0
M  V30 71492 H 7314.61 -0.226205 0.631722 0
M  V30 71493 H 7317.15 -0.0528607 2.04432 0
M  V30 71494 H 7315.31 -2.28814 3.12607 0
M  V30 71495 H 7315.72 -1.26636 5.08983 0
M  V30 71496 H 7317.2 -2.92678 4.68021 0
M  V30 71497 H 7317.67 -3.20174 3.00641 0
M  V30 71498 H 7318.28 -1.76851 3.86786 0
M  V30 71499 N 7316.6 -1.53635 -0.351301 0
M  V30 71500 C 7317.87 -1.61126 -1.10895 0
M  V30 71501 C 7318.25 -0.427665 -2.06723 0
M  V30 71502 O 7317.6 0.5808 -2.20995 0
M  V30 71503 C 7317.81 -2.96837 -1.83546 0
M  V30 71504 C 7319.16 -3.51918 -2.37568 0
M  V30 71505 O 7320.18 -2.9896 -1.93653 0
M  V30 71506 O 7319.04 -4.44532 -3.17889 0
M  V30 71507 H 7316.14 -0.651394 -0.509524 0
M  V30 71508 H 7318.68 -1.65979 -0.353417 0
M  V30 71509 H 7317.45 -3.7442 -1.1369 0
M  V30 71510 H 7317.08 -2.95539 -2.65975 0
M  V30 71511 N 7318.07 0.611892 -1.45236 0
M  V30 71512 C 7319.02 1.72285 -1.53579 0
M  V30 71513 C 7319.99 1.61648 -0.381997 0
M  V30 71514 O 7321.18 1.8129 -0.594861 0
M  V30 71515 C 7318.32 3.10585 -1.50435 0
M  V30 71516 C 7317.43 3.3206 -2.76334 0
M  V30 71517 C 7316.56 4.60442 -2.64891 0
M  V30 71518 C 7315.6 4.75159 -3.85863 0
M  V30 71519 N 7314.74 5.94836 -3.7298 0
M  V30 71520 H 7319.58 1.64491 -2.48489 0
M  V30 71521 H 7317.12 0.802126 -1.23306 0
M  V30 71522 H 7319.07 3.90595 -1.46601 0
M  V30 71523 H 7317.7 3.17348 -0.590788 0
M  V30 71524 H 7316.76 2.45856 -2.90274 0
M  V30 71525 H 7318.07 3.38809 -3.66073 0
M  V30 71526 H 7317.22 5.48639 -2.58998 0
M  V30 71527 H 7315.96 4.56082 -1.72743 0
M  V30 71528 H 7314.97 3.85386 -3.92119 0
M  V30 71529 H 7316.19 4.81319 -4.79071 0
M  V30 71530 H 7314.14 5.9153 -2.83598 0
M  V30 71531 H 7314.05 6.02727 -4.56351 0
M  V30 71532 H 7315.32 6.85544 -3.71012 0
M  V30 71533 N 7319.55 1.32455 0.854016 0
M  V30 71534 C 7320.8 1.23234 1.61063 0
M  V30 71535 C 7321.13 -0.205247 1.93112 0
M  V30 71536 O 7320.41 -1.14256 1.57403 0
M  V30 71537 C 7320.69 2.09264 2.93054 0
M  V30 71538 C 7320.54 3.61404 2.67782 0
M  V30 71539 C 7321.86 1.95426 3.9433 0
M  V30 71540 H 7318.98 0.449017 0.584425 0
M  V30 71541 H 7321.62 1.62407 0.986103 0
M  V30 71542 H 7319.77 1.75986 3.46354 0
M  V30 71543 H 7321.44 4.04899 2.21031 0
M  V30 71544 H 7319.69 3.84038 2.01735 0
M  V30 71545 H 7320.36 4.16926 3.61769 0
M  V30 71546 H 7322.83 2.24581 3.50289 0
M  V30 71547 H 7321.71 2.57897 4.84541 0
M  V30 71548 H 7321.97 0.922093 4.32377 0
M  V30 71549 N 7321.03 -1.07037 1.15676 0
M  V30 71550 C 7322.31 -1.76452 0.844041 0
M  V30 71551 C 7322.69 -2.00527 -0.6597 0
M  V30 71552 O 7322.03 -1.62632 -1.60509 0
M  V30 71553 C 7322.24 -3.07081 1.65838 0
M  V30 71554 C 7323.59 -3.8137 1.86661 0
M  V30 71555 O 7324.62 -3.16901 1.62641 0
M  V30 71556 O 7323.48 -4.97166 2.2691 0
M  V30 71557 H 7320.57 -0.766409 0.310718 0
M  V30 71558 H 7323.12 -1.13373 1.26272 0
M  V30 71559 H 7321.89 -2.85195 2.67917 0
M  V30 71560 H 7321.51 -3.77892 1.23625 0
M  V30 71561 N 7322.51 -0.954058 -1.25441 0
M  V30 71562 C 7323.46 -0.4649 -2.27907 0
M  V30 71563 C 7324.45 0.464521 -1.62907 0
M  V30 71564 O 7325.66 0.341313 -1.76734 0
M  V30 71565 H 7322.03 -0.131837 -0.740353 0
M  V30 71566 H 7324 -1.34136 -2.66552 0
M  V30 71567 C 7322.75 0.242406 -3.46854 0
M  V30 71568 H 7322.07 -0.463627 -3.97103 0
M  V30 71569 H 7323.51 0.548697 -4.20435 0
M  V30 71570 C 7321.97 1.46471 -3.03394 0
M  V30 71571 O 7322.5 2.56246 -3.09356 0
M  V30 71572 N 7320.71 1.32586 -2.58591 0
M  V30 71573 H 7320.26 0.4327 -2.5394 0
M  V30 71574 H 7320.21 2.14485 -2.29877 0
M  V30 71575 N 7323.99 1.4006 -0.722563 0
M  V30 71576 C 7324.93 2.32513 -0.0634516 0
M  V30 71577 C 7325.93 1.52409 0.73945 0
M  V30 71578 O 7327.13 1.6816 0.642033 0
M  V30 71579 H 7323.51 0.751998 -0.00171657 0
M  V30 71580 H 7325.48 2.85744 -0.859806 0
M  V30 71581 C 7324.23 3.37425 0.839041 0
M  V30 71582 H 7323.55 3.99134 0.230626 0
M  V30 71583 H 7324.99 4.04594 1.26805 0
M  V30 71584 C 7323.45 2.73466 1.96769 0
M  V30 71585 O 7323.98 2.60339 3.05919 0
M  V30 71586 N 7322.19 2.31743 1.75339 0
M  V30 71587 H 7321.73 2.42619 0.865659 0
M  V30 71588 H 7321.69 1.89288 2.51033 0
M  V30 71589 N 7325.46 0.46926 1.50452 0
M  V30 71590 C 7326.69 -0.0841044 2.06729 0
M  V30 71591 C 7327.11 -1.3367 1.33333 0
M  V30 71592 O 7326.46 -1.78016 0.402071 0
M  V30 71593 C 7326.51 -0.374064 3.59559 0
M  V30 71594 O 7326.24 0.828849 4.30188 0
M  V30 71595 C 7327.74 -0.974596 4.32454 0
M  V30 71596 H 7324.96 0.00626638 0.670971 0
M  V30 71597 H 7327.5 0.657518 1.93641 0
M  V30 71598 H 7325.66 -1.06562 3.72456 0
M  V30 71599 H 7326.07 0.572341 5.21368 0
M  V30 71600 H 7327.54 -1.12726 5.40367 0
M  V30 71601 H 7328.02 -1.96421 3.9283 0
M  V30 71602 H 7328.63 -0.321479 4.24083 0
M  V30 71603 N 7326.94 -1.56303 0.201796 0
M  V30 71604 C 7327.87 -2.22398 -0.711433 0
M  V30 71605 C 7328.85 -1.18923 -1.21619 0
M  V30 71606 O 7330.04 -1.4745 -1.2638 0
M  V30 71607 C 7327.17 -2.88855 -1.92821 0
M  V30 71608 C 7326.12 -3.98632 -1.5581 0
M  V30 71609 C 7325.45 -4.52286 -2.85204 0
M  V30 71610 C 7326.75 -5.16697 -0.762976 0
M  V30 71611 H 7328.44 -2.9897 -0.160416 0
M  V30 71612 H 7325.99 -1.43801 -0.0757158 0
M  V30 71613 H 7327.94 -3.33778 -2.57236 0
M  V30 71614 H 7326.66 -2.09699 -2.50387 0
M  V30 71615 H 7325.32 -3.5441 -0.937513 0
M  V30 71616 H 7324.97 -3.69884 -3.40874 0
M  V30 71617 H 7324.67 -5.26363 -2.61182 0
M  V30 71618 H 7326.2 -4.99915 -3.50596 0
M  V30 71619 H 7327.61 -5.58124 -1.31037 0
M  V30 71620 H 7326.01 -5.96882 -0.62062 0
M  V30 71621 H 7327.08 -4.84332 0.234577 0
M  V30 71622 N 7328.42 0.0717594 -1.57437 0
M  V30 71623 C 7329.35 1.0856 -2.06729 0
M  V30 71624 C 7330.33 1.40366 -0.960805 0
M  V30 71625 O 7331.52 1.49992 -1.23353 0
M  V30 71626 C 7328.65 2.39903 -2.51125 0
M  V30 71627 C 7327.6 2.22449 -3.6565 0
M  V30 71628 C 7326.93 3.59177 -3.96101 0
M  V30 71629 C 7328.23 1.6457 -4.95695 0
M  V30 71630 H 7329.92 0.675416 -2.91682 0
M  V30 71631 H 7327.47 0.323446 -1.4032 0
M  V30 71632 H 7329.42 3.1112 -2.84222 0
M  V30 71633 H 7328.14 2.82901 -1.63201 0
M  V30 71634 H 7326.8 1.53674 -3.32836 0
M  V30 71635 H 7326.45 3.99745 -3.05308 0
M  V30 71636 H 7326.15 3.48337 -4.73218 0
M  V30 71637 H 7327.67 4.31824 -4.31695 0
M  V30 71638 H 7329.09 2.25653 -5.27023 0
M  V30 71639 H 7327.48 1.64427 -5.77134 0
M  V30 71640 H 7328.55 0.607186 -4.81083 0
M  V30 71641 N 7329.9 1.53819 0.343149 0
M  V30 71642 C 7330.85 1.82535 1.44166 0
M  V30 71643 C 7331.84 0.695853 1.54448 0
M  V30 71644 O 7333.05 0.879197 1.57067 0
M  V30 71645 H 7329.42 0.578302 0.480698 0
M  V30 71646 H 7331.39 2.74437 1.17161 0
M  V30 71647 C 7330.14 2.05212 2.80684 0
M  V30 71648 H 7329.46 2.91576 2.73539 0
M  V30 71649 H 7330.9 2.29269 3.56667 0
M  V30 71650 C 7329.36 0.837761 3.26318 0
M  V30 71651 O 7329.89 0.0373749 4.01683 0
M  V30 71652 N 7328.1 0.654873 2.83125 0
M  V30 71653 H 7327.65 1.30737 2.21958 0
M  V30 71654 H 7327.6 -0.156179 3.14012 0
M  V30 71655 N 7331.38 -0.604181 1.45559 0
M  V30 71656 C 7332.62 -1.36511 1.49975 0
M  V30 71657 C 7332.96 -1.93678 0.142339 0
M  V30 71658 O 7332.23 -1.75252 -0.843624 0
M  V30 71659 C 7332.51 -2.51049 2.58159 0
M  V30 71660 C 7332.37 -1.99057 4.03356 0
M  V30 71661 C 7333.69 -3.5317 2.626 0
M  V30 71662 H 7330.8 -0.495007 0.546019 0
M  V30 71663 H 7333.45 -0.680751 1.77386 0
M  V30 71664 H 7331.6 -3.09429 2.34917 0
M  V30 71665 H 7333.27 -1.453 4.37819 0
M  V30 71666 H 7331.51 -1.30034 4.13852 0
M  V30 71667 H 7332.18 -2.81639 4.74746 0
M  V30 71668 H 7334.66 -3.04637 2.83435 0
M  V30 71669 H 7333.53 -4.30798 3.40153 0
M  V30 71670 H 7333.8 -4.0901 1.6782 0
M  V30 71671 N 7332.85 -1.32906 -0.84698 0
M  V30 71672 C 7334.1 -1.23254 -1.5966 0
M  V30 71673 C 7334.42 0.202246 -1.94552 0
M  V30 71674 O 7335.62 0.420706 -2.68221 0
M  V30 71675 C 7334.08 -2.15916 -2.87938 0
M  V30 71676 C 7333.69 -3.64519 -2.60442 0
M  V30 71677 C 7335.43 -2.15118 -3.65957 0
M  V30 71678 C 7333.34 -4.49119 -3.84767 0
M  V30 71679 H 7332.27 -0.45776 -0.599143 0
M  V30 71680 H 7334.92 -1.57917 -0.934578 0
M  V30 71681 H 7333.3 -1.74175 -3.55639 0
M  V30 71682 H 7334.47 -4.14649 -2.01004 0
M  V30 71683 H 7332.79 -3.67525 -1.95741 0
M  V30 71684 H 7335.39 -2.75558 -4.58227 0
M  V30 71685 H 7335.73 -1.14413 -4.00269 0
M  V30 71686 H 7336.26 -2.55178 -3.0517 0
M  V30 71687 H 7333 -5.50668 -3.55592 0
M  V30 71688 H 7332.52 -4.03736 -4.43573 0
M  V30 71689 H 7334.2 -4.62511 -4.52429 0
M  V30 71690 N 7334.33 1.06422 -1.16242 0
M  V30 71691 C 7335.3 2.12035 -0.870275 0
M  V30 71692 C 7336.3 1.60239 0.134155 0
M  V30 71693 O 7337.49 1.73932 -0.0965849 0
M  V30 71694 C 7334.62 3.39567 -0.301212 0
M  V30 71695 H 7335.81 2.39384 -1.80652 0
M  V30 71696 H 7333.36 1.22465 -0.971181 0
M  V30 71697 H 7334.1 3.17866 0.64278 0
M  V30 71698 H 7333.88 3.78467 -1.02495 0
M  V30 71699 H 7335.37 4.17442 -0.114714 0
M  V30 71700 N 7335.81 0.960697 1.24933 0
M  V30 71701 C 7337.05 0.626517 1.94561 0
M  V30 71702 C 7337.41 -0.822093 1.7351 0
M  V30 71703 O 7338.62 -1.26616 2.37112 0
M  V30 71704 C 7336.89 0.982644 3.43626 0
M  V30 71705 S 7338.45 0.761954 4.32134 0
M  V30 71706 H 7335.26 0.230078 0.672744 0
M  V30 71707 H 7337.87 1.23616 1.51457 0
M  V30 71708 H 7336.57 2.03396 3.56452 0
M  V30 71709 H 7336.1 0.363492 3.91717 0
M  V30 71710 H 7338.12 -0.364232 4.94861 0
M  V30 71711 N 7337.29 -1.39675 0.72998 0
M  V30 71712 C 7338.52 -2.04916 0.285817 0
M  V30 71713 C 7338.93 -1.55029 -1.07757 0
M  V30 71714 O 7338.29 -0.713011 -1.67995 0
M  V30 71715 C 7338.34 -3.60468 0.272983 0
M  V30 71716 O 7338.06 -4.08518 1.58255 0
M  V30 71717 C 7339.56 -4.42901 -0.187965 0
M  V30 71718 H 7336.78 -0.659103 0.125792 0
M  V30 71719 H 7339.33 -1.78816 0.992223 0
M  V30 71720 H 7337.48 -3.85487 -0.384496 0
M  V30 71721 H 7337.89 -5.0281 1.49271 0
M  V30 71722 H 7339.37 -5.51807 -0.145789 0
M  V30 71723 H 7339.85 -4.21556 -1.23237 0
M  V30 71724 H 7340.45 -4.2302 0.439764 0
M  V30 71725 N 7338.77 -0.477232 -1.50201 0
M  V30 71726 C 7339.72 0.332506 -2.25562 0
M  V30 71727 C 7340.7 0.95618 -1.29406 0
M  V30 71728 O 7341.89 0.867713 -1.54272 0
M  V30 71729 C 7339.02 1.41036 -3.12992 0
M  V30 71730 C 7338.11 0.79411 -4.16599 0
M  V30 71731 N 7338.5 -0.08923 -5.05721 0
M  V30 71732 C 7336.8 1.05737 -4.33285 0
M  V30 71733 C 7337.5 -0.439592 -5.80037 0
M  V30 71734 N 7336.47 0.186732 -5.43279 0
M  V30 71735 H 7340.28 -0.347872 -2.91834 0
M  V30 71736 H 7337.79 -0.29177 -1.59758 0
M  V30 71737 H 7339.79 2.00369 -3.65592 0
M  V30 71738 H 7338.45 2.09266 -2.48269 0
M  V30 71739 H 7339.46 -0.458477 -5.15867 0
M  V30 71740 H 7336.13 1.7342 -3.79779 0
M  V30 71741 H 7337.52 -1.16085 -6.61796 0
M  V30 71742 N 7340.24 1.56194 -0.210082 0
M  V30 71743 C 7341.49 1.98289 0.425338 0
M  V30 71744 C 7341.82 1.09733 1.60226 0
M  V30 71745 O 7341.1 0.152516 1.93901 0
M  V30 71746 C 7341.38 3.49407 0.871005 0
M  V30 71747 C 7341.23 4.48739 -0.308763 0
M  V30 71748 C 7342.55 4.04618 1.73125 0
M  V30 71749 H 7339.67 0.720916 0.153131 0
M  V30 71750 H 7342.31 1.87552 -0.304015 0
M  V30 71751 H 7340.46 3.58689 1.49247 0
M  V30 71752 H 7342.14 4.51481 -0.946726 0
M  V30 71753 H 7340.38 4.23087 -0.958101 0
M  V30 71754 H 7341.05 5.51981 0.0458232 0
M  V30 71755 H 7343.53 3.9821 1.20699 0
M  V30 71756 H 7342.4 5.10695 2.01201 0
M  V30 71757 H 7342.66 3.50795 2.69064 0
M  V30 71758 N 7341.72 -0.0634091 1.57472 0
M  V30 71759 C 7343.13 -0.614244 1.76306 0
M  V30 71760 C 7343.48 -1.77466 0.836672 0
M  V30 71761 O 7342.61 -2.16388 0.0228325 0
M  V30 71762 C 7343.2 -1.12105 3.19715 0
M  V30 71763 C 7341.76 -1.61768 3.39865 0
M  V30 71764 C 7340.91 -0.540701 2.71977 0
M  V30 71765 H 7343.86 0.162785 1.57863 0
M  V30 71766 H 7343.88 -1.98962 3.24337 0
M  V30 71767 H 7343.39 -0.276268 3.87115 0
M  V30 71768 H 7341.5 -2.48544 2.77591 0
M  V30 71769 H 7341.61 -1.68884 4.48347 0
M  V30 71770 H 7339.97 -0.98773 2.34768 0
M  V30 71771 H 7340.76 0.294036 3.42038 0
M  V30 71772 N 7343.2 -1.53999 -0.334986 0
M  V30 71773 C 7344.44 -1.73375 -1.08261 0
M  V30 71774 C 7344.8 -0.491011 -1.85615 0
M  V30 71775 O 7346.01 -0.561937 -2.62861 0
M  V30 71776 C 7344.28 -2.96742 -1.99196 0
M  V30 71777 S 7345.84 -3.36969 -2.81065 0
M  V30 71778 H 7342.65 -0.609762 -0.365666 0
M  V30 71779 H 7345.26 -1.92157 -0.359978 0
M  V30 71780 H 7343.96 -3.85351 -1.41183 0
M  V30 71781 H 7343.49 -2.8045 -2.75883 0
M  V30 71782 H 7345.51 -2.91374 -4.01641 0
M  V30 71783 N 7344.68 0.596454 -1.45877 0
M  V30 71784 C 7345.63 1.72758 -1.55748 0
M  V30 71785 C 7346.62 1.63937 -0.426753 0
M  V30 71786 O 7347.83 1.69596 -0.6031 0
M  V30 71787 H 7344.2 0.570943 -0.489417 0
M  V30 71788 H 7346.17 1.61562 -2.50879 0
M  V30 71789 C 7344.92 3.11145 -1.5519 0
M  V30 71790 H 7344.24 3.18597 -2.41528 0
M  V30 71791 H 7345.68 3.90089 -1.66153 0
M  V30 71792 C 7344.14 3.3575 -0.278178 0
M  V30 71793 O 7344.67 3.96612 0.637348 0
M  V30 71794 N 7342.88 2.901 -0.17038 0
M  V30 71795 H 7342.43 2.40753 -0.916286 0
M  V30 71796 H 7342.38 3.06936 0.681008 0
M  V30 71797 N 7346.16 1.33353 0.83992 0
M  V30 71798 C 7347.39 1.27787 1.62721 0
M  V30 71799 C 7347.8 -0.151405 1.88192 0
M  V30 71800 O 7347.16 -1.09322 1.46134 0
M  V30 71801 C 7347.21 2.04929 2.97802 0
M  V30 71802 O 7346.93 3.42281 2.73451 0
M  V30 71803 C 7348.43 2.0656 3.92234 0
M  V30 71804 H 7345.65 0.440284 0.506351 0
M  V30 71805 H 7348.19 1.75708 1.04628 0
M  V30 71806 H 7346.35 1.60693 3.52501 0
M  V30 71807 H 7346.76 3.81951 3.59463 0
M  V30 71808 H 7348.24 2.64992 4.84235 0
M  V30 71809 H 7348.71 1.05559 4.26326 0
M  V30 71810 H 7349.32 2.50811 3.43474 0
M  V30 71811 N 7347.64 -1.05804 1.16805 0
M  V30 71812 C 7348.86 -1.8292 0.977499 0
M  V30 71813 C 7349.29 -1.82149 -0.469418 0
M  V30 71814 O 7348.64 -1.22592 -1.33569 0
M  V30 71815 C 7348.69 -3.27203 1.5156 0
M  V30 71816 O 7347.8 -4.05973 0.725235 0
M  V30 71817 H 7347.14 -0.565807 0.347504 0
M  V30 71818 H 7349.67 -1.33368 1.55158 0
M  V30 71819 H 7349.68 -3.78015 1.53522 0
M  V30 71820 H 7348.35 -3.27079 2.56889 0
M  V30 71821 H 7346.93 -3.64725 0.776532 0
M  V30 71822 N 7349.11 -0.967309 -1.24422 0
M  V30 71823 C 7350.35 -0.636826 -1.94226 0
M  V30 71824 C 7350.72 0.812879 -1.73943 0
M  V30 71825 O 7351.92 1.25357 -2.3778 0
M  V30 71826 C 7350.19 -1.00085 -3.431 0
M  V30 71827 S 7351.75 -0.78486 -4.31724 0
M  V30 71828 H 7348.57 -0.233643 -0.671515 0
M  V30 71829 H 7351.17 -1.24418 -1.50799 0
M  V30 71830 H 7349.87 -2.05283 -3.55369 0
M  V30 71831 H 7349.4 -0.384261 -3.91519 0
M  V30 71832 H 7351.42 0.337983 -4.95048 0
M  V30 71833 N 7350.59 1.39286 -0.737377 0
M  V30 71834 C 7351.82 2.05286 -0.295345 0
M  V30 71835 C 7352.24 1.55234 1.06226 0
M  V30 71836 O 7351.6 0.697131 1.67361 0
M  V30 71837 C 7351.65 3.59271 -0.309336 0
M  V30 71838 O 7350.75 4.06377 0.702222 0
M  V30 71839 H 7350.09 0.65038 -0.133796 0
M  V30 71840 H 7352.62 1.78274 -1.00397 0
M  V30 71841 H 7352.63 4.07707 -0.154551 0
M  V30 71842 H 7351.31 3.95062 -1.29995 0
M  V30 71843 H 7349.88 3.69349 0.513379 0
M  V30 71844 N 7352.07 0.485191 1.49946 0
M  V30 71845 C 7353.48 0.0335025 1.8667 0
M  V30 71846 C 7353.83 -1.37572 1.39887 0
M  V30 71847 O 7352.96 -2.02241 0.769894 0
M  V30 71848 C 7353.55 0.0540212 3.38757 0
M  V30 71849 C 7352.11 -0.342256 3.74841 0
M  V30 71850 C 7351.26 0.433426 2.73892 0
M  V30 71851 H 7354.21 0.698774 1.42488 0
M  V30 71852 H 7354.23 -0.744949 3.73136 0
M  V30 71853 H 7353.74 1.07979 3.72776 0
M  V30 71854 H 7351.84 -1.37185 3.46426 0
M  V30 71855 H 7351.96 -0.0337976 4.79088 0
M  V30 71856 H 7350.32 -0.114715 2.54442 0
M  V30 71857 H 7351.1 1.45897 3.10755 0
M  V30 71858 N 7353.55 -1.5608 0.218362 0
M  V30 71859 C 7354.8 -1.97827 -0.413384 0
M  V30 71860 C 7355.12 -1.10716 -1.60521 0
M  V30 71861 O 7354.39 -0.183481 -1.95039 0
M  V30 71862 H 7352.97 -0.730589 -0.155718 0
M  V30 71863 H 7355.63 -1.92411 0.310515 0
M  V30 71864 H 7354.72 -3.03155 -0.741864 0
M  V30 71865 N 7355.03 0.0550571 -1.57504 0
M  V30 71866 C 7356.27 0.751005 -1.88059 0
M  V30 71867 C 7356.6 1.76724 -0.812324 0
M  V30 71868 O 7355.86 1.94777 0.189815 0
M  V30 71869 C 7356.15 1.47995 -3.25318 0
M  V30 71870 C 7355.82 0.602139 -4.46861 0
M  V30 71871 C 7354.48 0.360283 -4.79849 0
M  V30 71872 C 7356.83 -0.00551531 -5.212 0
M  V30 71873 C 7354.16 -0.498435 -5.84579 0
M  V30 71874 C 7356.51 -0.851783 -6.26839 0
M  V30 71875 C 7355.18 -1.10335 -6.58318 0
M  V30 71876 H 7354.45 0.274812 -0.688156 0
M  V30 71877 H 7357.1 0.0113785 -1.91497 0
M  V30 71878 H 7355.4 2.29223 -3.17749 0
M  V30 71879 H 7357.1 2.02353 -3.462 0
M  V30 71880 H 7353.69 0.800785 -4.21053 0
M  V30 71881 H 7357.87 0.168421 -4.96014 0
M  V30 71882 H 7353.13 -0.701915 -6.07357 0
M  V30 71883 H 7357.3 -1.32929 -6.83596 0
M  V30 71884 H 7354.93 -1.7705 -7.39295 0
M  V30 71885 N 7356.5 1.54174 0.326815 0
M  V30 71886 C 7357.41 1.86351 1.42515 0
M  V30 71887 C 7358.43 0.755133 1.5676 0
M  V30 71888 O 7359.61 1.0491 1.71918 0
M  V30 71889 C 7356.67 2.08134 2.77275 0
M  V30 71890 C 7355.73 3.31945 2.72233 0
M  V30 71891 C 7354.96 3.5268 4.00566 0
M  V30 71892 O 7355.19 2.76917 4.98671 0
M  V30 71893 O 7354.12 4.4615 4.04022 0
M  V30 71894 H 7357.95 2.7974 1.18234 0
M  V30 71895 H 7355.53 1.40038 0.52054 0
M  V30 71896 H 7357.41 2.2381 3.57053 0
M  V30 71897 H 7356.09 1.17933 3.01452 0
M  V30 71898 H 7355 3.21657 1.91016 0
M  V30 71899 H 7356.33 4.22193 2.53009 0
M  V30 71900 N 7357.98 -0.588709 1.46192 0
M  V30 71901 C 7358.91 -1.70855 1.59157 0
M  V30 71902 C 7359.89 -1.64252 0.44217 0
M  V30 71903 O 7361.08 -1.82362 0.667672 0
M  V30 71904 C 7358.21 -3.09489 1.57587 0
M  V30 71905 C 7357.16 -3.30918 2.71436 0
M  V30 71906 C 7356.49 -4.70019 2.54925 0
M  V30 71907 C 7357.79 -3.19334 4.13307 0
M  V30 71908 H 7359.48 -1.6026 2.52897 0
M  V30 71909 H 7357.03 -0.769574 1.21711 0
M  V30 71910 H 7358.98 -3.87646 1.65252 0
M  V30 71911 H 7357.7 -3.20969 0.603874 0
M  V30 71912 H 7356.36 -2.55158 2.6323 0
M  V30 71913 H 7356.01 -4.78256 1.55822 0
M  V30 71914 H 7355.71 -4.8531 3.31283 0
M  V30 71915 H 7357.24 -5.50352 2.64472 0
M  V30 71916 H 7358.65 -3.87343 4.22656 0
M  V30 71917 H 7357.05 -3.46149 4.90205 0
M  V30 71918 H 7358.12 -2.16499 4.33885 0
M  V30 71919 N 7359.46 -1.33797 -0.832836 0
M  V30 71920 C 7360.39 -1.18892 -1.94781 0
M  V30 71921 C 7361.37 -0.0829282 -1.62388 0
M  V30 71922 O 7362.55 -0.246273 -1.86884 0
M  V30 71923 C 7359.68 -0.824901 -3.28501 0
M  V30 71924 C 7358.73 -1.93925 -3.79862 0
M  V30 71925 S 7359.56 -3.55118 -4.00813 0
M  V30 71926 C 7360.72 -3.20736 -5.37475 0
M  V30 71927 H 7360.95 -2.13275 -2.07126 0
M  V30 71928 H 7358.48 -1.18709 -0.987299 0
M  V30 71929 H 7360.44 -0.621655 -4.05766 0
M  V30 71930 H 7359.1 0.100421 -3.13939 0
M  V30 71931 H 7358.29 -1.63806 -4.76638 0
M  V30 71932 H 7357.9 -2.09947 -3.09513 0
M  V30 71933 H 7360.19 -2.71935 -6.2053 0
M  V30 71934 H 7361.13 -4.16614 -5.72571 0
M  V30 71935 H 7361.54 -2.57175 -5.02515 0
M  V30 71936 N 7360.94 1.05183 -1.17364 0
M  V30 71937 C 7361.85 2.16437 -0.905098 0
M  V30 71938 C 7362.86 1.73538 0.126769 0
M  V30 71939 O 7364.04 2.01332 -0.0525188 0
M  V30 71940 C 7361.11 3.4412 -0.4222 0
M  V30 71941 C 7360.17 4.01465 -1.52067 0
M  V30 71942 C 7359.4 5.23053 -1.06072 0
M  V30 71943 O 7359.62 5.70337 0.0851015 0
M  V30 71944 O 7358.56 5.72641 -1.85379 0
M  V30 71945 H 7362.38 2.4194 -1.83573 0
M  V30 71946 H 7359.97 1.14931 -0.954531 0
M  V30 71947 H 7361.85 4.21095 -0.16043 0
M  V30 71948 H 7360.52 3.20117 0.480275 0
M  V30 71949 H 7359.43 3.2593 -1.83632 0
M  V30 71950 H 7360.76 4.29786 -2.39885 0
M  V30 71951 N 7362.42 0.973894 1.23908 0
M  V30 71952 C 7363.38 0.513898 2.23365 0
M  V30 71953 C 7364.38 -0.392937 1.55925 0
M  V30 71954 O 7365.57 -0.187535 1.73188 0
M  V30 71955 C 7362.7 -0.254973 3.39945 0
M  V30 71956 H 7363.89 1.39321 2.65574 0
M  V30 71957 H 7361.45 0.759111 1.36628 0
M  V30 71958 H 7362.18 -1.15111 3.03183 0
M  V30 71959 H 7361.97 0.395879 3.90096 0
M  V30 71960 H 7363.46 -0.565624 4.13752 0
M  V30 71961 N 7363.89 -1.38893 0.744753 0
M  V30 71962 C 7365.31 -1.83082 0.365777 0
M  V30 71963 C 7365.66 -1.62173 -1.10428 0
M  V30 71964 O 7364.78 -1.11813 -1.85275 0
M  V30 71965 C 7365.38 -3.32366 0.657121 0
M  V30 71966 C 7363.94 -3.74937 0.331526 0
M  V30 71967 C 7363.08 -2.61776 0.914799 0
M  V30 71968 H 7366.03 -1.27747 0.941619 0
M  V30 71969 H 7366.05 -3.8044 -0.067754 0
M  V30 71970 H 7365.57 -3.47552 1.72711 0
M  V30 71971 H 7363.67 -3.65334 -0.732234 0
M  V30 71972 H 7363.78 -4.72015 0.820903 0
M  V30 71973 H 7362.14 -2.5241 0.340763 0
M  V30 71974 H 7362.93 -2.79765 1.98964 0
M  V30 71975 N 7365.37 -0.493136 -1.49686 0
M  V30 71976 C 7366.62 0.0540577 -2.02028 0
M  V30 71977 C 7366.94 1.3821 -1.37561 0
M  V30 71978 O 7366.21 1.88643 -0.528274 0
M  V30 71979 H 7364.79 0.0229675 -0.746647 0
M  V30 71980 H 7367.45 -0.648586 -1.83792 0
M  V30 71981 H 7366.55 0.189488 -3.11524 0
M  V30 71982 N 7366.85 1.55962 -0.226636 0
M  V30 71983 C 7367.76 2.24143 0.692606 0
M  V30 71984 C 7368.78 1.25074 1.20964 0
M  V30 71985 O 7369.95 1.579 1.25018 0
M  V30 71986 C 7367.02 2.91194 1.88168 0
M  V30 71987 C 7366.08 4.05619 1.40611 0
M  V30 71988 C 7365.31 4.69463 2.53851 0
M  V30 71989 O 7365.53 4.32311 3.72106 0
M  V30 71990 O 7364.47 5.5836 2.24763 0
M  V30 71991 H 7368.29 3.03369 0.141761 0
M  V30 71992 H 7365.88 1.49399 0.00402612 0
M  V30 71993 H 7367.76 3.33497 2.57599 0
M  V30 71994 H 7366.44 2.14924 2.42053 0
M  V30 71995 H 7365.34 3.67874 0.679666 0
M  V30 71996 H 7366.68 4.83647 0.913583 0
M  V30 71997 N 7368.33 -0.0467035 1.57531 0
M  V30 71998 C 7369.57 -0.746071 1.90298 0
M  V30 71999 C 7369.93 -1.73453 0.823285 0
M  V30 72000 O 7371.13 -2.48085 1.03476 0
M  V30 72001 C 7369.4 -1.4136 3.28256 0
M  V30 72002 S 7370.96 -2.14457 3.82823 0
M  V30 72003 H 7367.78 -0.247562 0.666509 0
M  V30 72004 H 7370.38 -0.00124834 1.955 0
M  V30 72005 H 7369.09 -0.680724 4.04715 0
M  V30 72006 H 7368.62 -2.19734 3.26313 0
M  V30 72007 H 7370.63 -3.41353 3.60129 0
M  V30 72008 N 7369.81 -1.54345 -0.318634 0
M  V30 72009 C 7371.05 -1.74514 -1.06416 0
M  V30 72010 C 7371.41 -0.51067 -1.85084 0
M  V30 72011 O 7372.61 -0.589786 -2.6225 0
M  V30 72012 C 7370.88 -2.98838 -1.96038 0
M  V30 72013 S 7372.44 -3.39931 -2.77475 0
M  V30 72014 H 7369.26 -0.613606 -0.359178 0
M  V30 72015 H 7371.86 -1.92528 -0.339577 0
M  V30 72016 H 7370.57 -3.86827 -1.37088 0
M  V30 72017 H 7370.1 -2.8336 -2.72893 0
M  V30 72018 H 7372.11 -2.95617 -3.98528 0
M  V30 72019 N 7371.28 0.580948 -1.46502 0
M  V30 72020 C 7372.23 1.68989 -1.57199 0
M  V30 72021 C 7373.2 1.60801 -0.416199 0
M  V30 72022 O 7374.39 1.79987 -0.633181 0
M  V30 72023 C 7371.53 3.07325 -1.56989 0
M  V30 72024 C 7370.64 3.26124 -2.83315 0
M  V30 72025 C 7369.77 4.54719 -2.74598 0
M  V30 72026 C 7368.81 4.66868 -3.95855 0
M  V30 72027 N 7367.95 5.86791 -3.85513 0
M  V30 72028 H 7372.79 1.59183 -2.51922 0
M  V30 72029 H 7370.33 0.775791 -1.2498 0
M  V30 72030 H 7372.29 3.87397 -1.54853 0
M  V30 72031 H 7370.92 3.16023 -0.657969 0
M  V30 72032 H 7369.97 2.39644 -2.95423 0
M  V30 72033 H 7371.28 3.30968 -3.73178 0
M  V30 72034 H 7370.43 5.43022 -2.70577 0
M  V30 72035 H 7369.17 4.52316 -1.82378 0
M  V30 72036 H 7368.18 3.76982 -4.00206 0
M  V30 72037 H 7369.4 4.71049 -4.89173 0
M  V30 72038 H 7367.35 5.85382 -2.96081 0
M  V30 72039 H 7367.27 5.92912 -4.69033 0
M  V30 72040 H 7368.53 6.7752 -3.8547 0
M  V30 72041 N 7372.76 1.34237 0.825729 0
M  V30 72042 C 7373.71 1.2558 1.93645 0
M  V30 72043 C 7374.68 0.131624 1.65578 0
M  V30 72044 O 7375.86 0.312126 1.8823 0
M  V30 72045 C 7373 1.01432 3.29857 0
M  V30 72046 C 7372.12 2.22598 3.70235 0
M  V30 72047 C 7371.25 1.91757 4.95381 0
M  V30 72048 C 7370.29 3.09081 5.28332 0
M  V30 72049 N 7369.43 2.78141 6.44656 0
M  V30 72050 H 7374.27 2.20571 2.0038 0
M  V30 72051 H 7371.81 1.09667 0.980384 0
M  V30 72052 H 7373.76 0.854701 4.08351 0
M  V30 72053 H 7372.39 0.101106 3.22642 0
M  V30 72054 H 7371.45 2.49491 2.87156 0
M  V30 72055 H 7372.76 3.10266 3.90559 0
M  V30 72056 H 7371.91 1.72514 5.81656 0
M  V30 72057 H 7370.65 1.01345 4.77054 0
M  V30 72058 H 7369.66 3.28923 4.40556 0
M  V30 72059 H 7370.88 4.00267 5.48601 0
M  V30 72060 H 7368.83 1.90303 6.2779 0
M  V30 72061 H 7368.74 3.59341 6.65139 0
M  V30 72062 H 7370.01 2.62397 7.34008 0
M  V30 72063 N 7374.24 -1.04559 1.1792 0
M  V30 72064 C 7375.48 -1.79242 0.982426 0
M  V30 72065 C 7375.84 -1.85906 -0.479882 0
M  V30 72066 O 7377.05 -2.56745 -0.795942 0
M  V30 72067 C 7375.32 -3.18908 1.61346 0
M  V30 72068 S 7376.88 -4.0999 1.56376 0
M  V30 72069 H 7373.69 -0.617237 0.352901 0
M  V30 72070 H 7376.3 -1.25407 1.49977 0
M  V30 72071 H 7375 -3.11664 2.67009 0
M  V30 72072 H 7374.53 -3.77819 1.09619 0
M  V30 72073 H 7376.55 -4.92843 0.57619 0
M  V30 72074 N 7375.72 -0.980451 -1.23389 0
M  V30 72075 C 7376.63 -0.528985 -2.28558 0
M  V30 72076 C 7377.65 0.41624 -1.68948 0
M  V30 72077 O 7378.82 0.286145 -1.99357 0
M  V30 72078 C 7375.89 0.161367 -3.46324 0
M  V30 72079 C 7374.95 -0.825266 -4.21293 0
M  V30 72080 C 7374.18 -0.167765 -5.33436 0
M  V30 72081 O 7374.4 1.04116 -5.60817 0
M  V30 72082 O 7373.34 -0.866361 -5.95632 0
M  V30 72083 H 7377.16 -1.40361 -2.69319 0
M  V30 72084 H 7374.75 -0.748087 -1.29321 0
M  V30 72085 H 7376.63 0.548621 -4.17813 0
M  V30 72086 H 7375.31 1.01075 -3.07515 0
M  V30 72087 H 7374.21 -1.26322 -3.52127 0
M  V30 72088 H 7375.55 -1.64346 -4.63952 0
M  V30 72089 N 7377.2 1.38496 -0.752109 0
M  V30 72090 C 7378.13 2.29047 -0.0836297 0
M  V30 72091 C 7379.14 1.47672 0.685324 0
M  V30 72092 O 7380.33 1.70554 0.526658 0
M  V30 72093 C 7377.43 3.26576 0.9056 0
M  V30 72094 C 7376.6 4.36967 0.194597 0
M  V30 72095 C 7375.66 5.14694 1.09436 0
M  V30 72096 O 7374.69 5.66384 0.565444 0
M  V30 72097 N 7375.89 5.27533 2.4226 0
M  V30 72098 H 7378.66 2.87057 -0.861293 0
M  V30 72099 H 7376.22 1.50261 -0.602768 0
M  V30 72100 H 7378.21 3.75453 1.51052 0
M  V30 72101 H 7376.78 2.69475 1.58435 0
M  V30 72102 H 7376 3.89744 -0.591017 0
M  V30 72103 H 7377.29 5.0793 -0.297457 0
M  V30 72104 H 7376.69 4.87085 2.87689 0
M  V30 72105 H 7375.24 5.79789 2.97806 0
M  V30 72106 N 7378.68 0.501068 1.49422 0
M  V30 72107 C 7379.9 -0.0402352 2.06861 0
M  V30 72108 C 7380.32 -1.30812 1.36138 0
M  V30 72109 O 7379.68 -1.77123 0.439741 0
M  V30 72110 C 7379.73 -0.297712 3.60272 0
M  V30 72111 O 7379.45 0.919912 4.28333 0
M  V30 72112 C 7380.95 -0.882647 4.34424 0
M  V30 72113 H 7378.17 0.0204973 0.670687 0
M  V30 72114 H 7380.71 0.698444 1.92203 0
M  V30 72115 H 7378.87 -0.986372 3.74632 0
M  V30 72116 H 7379.28 0.682802 5.20037 0
M  V30 72117 H 7380.76 -1.01239 5.42637 0
M  V30 72118 H 7381.23 -1.88045 3.96908 0
M  V30 72119 H 7381.84 -0.231453 4.2467 0
M  V30 72120 N 7380.15 -1.5584 0.234904 0
M  V30 72121 C 7381.1 -2.17519 -0.683345 0
M  V30 72122 C 7382.09 -1.12746 -1.14792 0
M  V30 72123 O 7383.28 -1.38693 -1.09969 0
M  V30 72124 C 7380.41 -2.86896 -1.88536 0
M  V30 72125 C 7379.49 -3.9891 -1.43984 0
M  V30 72126 N 7379.89 -5.00824 -0.70777 0
M  V30 72127 C 7378.18 -4.11245 -1.72608 0
M  V30 72128 C 7378.88 -5.79727 -0.47873 0
M  V30 72129 N 7377.86 -5.3357 -1.0394 0
M  V30 72130 H 7381.66 -2.93672 -0.115742 0
M  V30 72131 H 7379.18 -1.62358 0.0367129 0
M  V30 72132 H 7381.17 -3.29503 -2.55408 0
M  V30 72133 H 7379.83 -2.12242 -2.4573 0
M  V30 72134 H 7380.84 -5.16654 -0.359091 0
M  V30 72135 H 7377.52 -3.47754 -2.31027 0
M  V30 72136 H 7378.91 -6.71818 0.104869 0
M  V30 72137 N 7381.63 0.0383486 -1.57553 0
M  V30 72138 C 7382.87 0.735968 -1.9069 0
M  V30 72139 C 7383.24 1.73014 -0.832472 0
M  V30 72140 O 7384.44 2.47533 -1.0479 0
M  V30 72141 C 7382.71 1.39618 -3.29001 0
M  V30 72142 S 7384.27 2.12423 -3.83955 0
M  V30 72143 H 7381.08 0.244024 -0.667812 0
M  V30 72144 H 7383.69 -0.00911952 -1.95498 0
M  V30 72145 H 7382.39 0.659251 -4.0507 0
M  V30 72146 H 7381.92 2.18001 -3.27474 0
M  V30 72147 H 7383.94 3.39438 -3.61934 0
M  V30 72148 N 7383.11 1.54512 0.310444 0
M  V30 72149 C 7384.36 1.72555 1.04441 0
M  V30 72150 C 7384.67 0.513271 1.88746 0
M  V30 72151 O 7385.88 0.575305 2.65335 0
M  V30 72152 C 7384.33 3.05256 1.90649 0
M  V30 72153 C 7383.94 4.33931 1.11392 0
M  V30 72154 C 7385.69 3.32659 2.63701 0
M  V30 72155 C 7383.59 5.57687 1.96822 0
M  V30 72156 H 7382.52 0.643087 0.393643 0
M  V30 72157 H 7385.17 1.80999 0.301908 0
M  V30 72158 H 7383.56 2.90751 2.68849 0
M  V30 72159 H 7384.73 4.59241 0.378714 0
M  V30 72160 H 7383.04 4.13392 0.499635 0
M  V30 72161 H 7385.64 4.22317 3.27951 0
M  V30 72162 H 7385.98 2.51116 3.32034 0
M  V30 72163 H 7386.52 3.48091 1.92556 0
M  V30 72164 H 7383.26 6.41871 1.32975 0
M  V30 72165 H 7382.78 5.36576 2.68041 0
M  V30 72166 H 7384.46 5.94588 2.55096 0
M  V30 72167 N 7384.59 -0.57317 1.46808 0
M  V30 72168 C 7385.84 -1.32728 1.51875 0
M  V30 72169 C 7386.15 -1.9478 0.178868 0
M  V30 72170 O 7387.36 -2.71287 0.107415 0
M  V30 72171 C 7385.81 -2.40602 2.67654 0
M  V30 72172 C 7385.42 -1.84811 4.08104 0
M  V30 72173 C 7387.16 -3.17295 2.82001 0
M  V30 72174 C 7385.07 -2.9037 5.15208 0
M  V30 72175 H 7384 -0.499 0.565256 0
M  V30 72176 H 7386.65 -0.610604 1.73043 0
M  V30 72177 H 7385.03 -3.15112 2.39835 0
M  V30 72178 H 7386.21 -1.1678 4.45757 0
M  V30 72179 H 7384.52 -1.20754 3.98506 0
M  V30 72180 H 7387.12 -3.96092 3.59187 0
M  V30 72181 H 7387.46 -3.70484 1.89862 0
M  V30 72182 H 7388 -2.49893 3.09513 0
M  V30 72183 H 7384.73 -2.42056 6.09171 0
M  V30 72184 H 7384.25 -3.5686 4.8209 0
M  V30 72185 H 7385.93 -3.54151 5.41467 0
M  V30 72186 N 7386.07 -1.34673 -0.818598 0
M  V30 72187 C 7387.01 -1.26606 -1.92976 0
M  V30 72188 C 7387.98 -0.140403 -1.65506 0
M  V30 72189 O 7389.17 -0.322104 -1.88062 0
M  V30 72190 C 7386.31 -1.0318 -3.29314 0
M  V30 72191 C 7385.42 -2.24558 -3.69049 0
M  V30 72192 C 7384.56 -1.94381 -4.94358 0
M  V30 72193 C 7383.59 -3.11879 -5.26686 0
M  V30 72194 N 7382.73 -2.81556 -6.43172 0
M  V30 72195 H 7387.57 -2.21631 -1.99208 0
M  V30 72196 H 7385.11 -1.10186 -0.974554 0
M  V30 72197 H 7387.07 -0.876345 -4.07892 0
M  V30 72198 H 7385.7 -0.118215 -3.22583 0
M  V30 72199 H 7384.75 -2.5101 -2.85829 0
M  V30 72200 H 7386.06 -3.12333 -3.88908 0
M  V30 72201 H 7385.21 -1.75596 -5.80733 0
M  V30 72202 H 7383.95 -1.03873 -4.7651 0
M  V30 72203 H 7382.96 -3.31255 -4.38806 0
M  V30 72204 H 7384.18 -4.03171 -5.4647 0
M  V30 72205 H 7382.13 -1.93629 -6.26772 0
M  V30 72206 H 7382.05 -3.62864 -6.63224 0
M  V30 72207 H 7383.31 -2.66285 -7.32607 0
M  V30 72208 N 7387.54 1.03932 -1.18473 0
M  V30 72209 C 7388.96 1.29366 -0.934703 0
M  V30 72210 C 7389.16 1.97511 0.398963 0
M  V30 72211 O 7388.22 2.25654 1.13298 0
M  V30 72212 C 7389.53 2.15103 -2.10122 0
M  V30 72213 C 7391.08 2.28445 -2.13967 0
M  V30 72214 C 7391.55 3.17548 -3.30041 0
M  V30 72215 N 7393.04 3.25136 -3.2991 0
M  V30 72216 C 7393.78 3.94241 -4.16367 0
M  V30 72217 N 7393.27 4.65666 -5.12959 0
M  V30 72218 N 7395.07 3.90534 -4.04276 0
M  V30 72219 H 7387.22 0.581078 -2.04297 0
M  V30 72220 H 7389.48 0.318924 -0.892744 0
M  V30 72221 H 7389.19 1.72339 -3.06581 0
M  V30 72222 H 7389.06 3.15785 -2.063 0
M  V30 72223 H 7391.45 2.70444 -1.18086 0
M  V30 72224 H 7391.53 1.27348 -2.21847 0
M  V30 72225 H 7391.17 2.76261 -4.26195 0
M  V30 72226 H 7391.1 4.1868 -3.19398 0
M  V30 72227 H 7393.59 2.74257 -2.59983 0
M  V30 72228 H 7393.91 5.15996 -5.75298 0
M  V30 72229 H 7392.25 4.64566 -5.16917 0
M  V30 72230 H 7395.44 3.33868 -3.28101 0
M  V30 72231 H 7395.62 4.44119 -4.71871 0
M  V30 72232 N 7389.02 0.986981 1.22868 0
M  V30 72233 C 7390.43 0.695529 1.73261 0
M  V30 72234 C 7390.78 -0.787929 1.79683 0
M  V30 72235 O 7389.91 -1.6161 1.43913 0
M  V30 72236 C 7390.5 1.25587 3.14664 0
M  V30 72237 C 7389.06 1.01392 3.62487 0
M  V30 72238 C 7388.21 1.37964 2.40544 0
M  V30 72239 H 7391.16 1.16005 1.08298 0
M  V30 72240 H 7391.18 0.63152 3.75223 0
M  V30 72241 H 7390.69 2.33555 3.09957 0
M  V30 72242 H 7388.79 -0.0493953 3.72567 0
M  V30 72243 H 7388.91 1.67313 4.48936 0
M  V30 72244 H 7387.27 0.798161 2.41871 0
M  V30 72245 H 7388.05 2.46923 2.38503 0
M  V30 72246 N 7390.5 -1.38095 0.759443 0
M  V30 72247 C 7391.78 -1.94079 0.243474 0
M  V30 72248 C 7392.16 -1.69423 -1.25933 0
M  V30 72249 O 7391.51 -1.03606 -2.03662 0
M  V30 72250 C 7391.72 -3.43742 0.60351 0
M  V30 72251 C 7393.06 -4.20805 0.566417 0
M  V30 72252 O 7394.09 -3.5205 0.542155 0
M  V30 72253 O 7392.95 -5.43386 0.582548 0
M  V30 72254 H 7390.04 -0.825317 0.052726 0
M  V30 72255 H 7392.59 -1.47454 0.839962 0
M  V30 72256 H 7391.36 -3.5522 1.64116 0
M  V30 72257 H 7390.98 -3.97595 -0.020679 0
M  V30 72258 N 7391.98 -0.508985 -1.49155 0
M  V30 72259 C 7392.93 0.278785 -2.30923 0
M  V30 72260 C 7393.92 0.955308 -1.39894 0
M  V30 72261 O 7395.13 0.882086 -1.56905 0
M  V30 72262 H 7391.5 0.108766 -0.744093 0
M  V30 72263 H 7393.47 -0.430738 -2.95275 0
M  V30 72264 C 7392.22 1.3256 -3.21439 0
M  V30 72265 H 7391.54 0.814428 -3.91417 0
M  V30 72266 H 7392.98 1.84862 -3.81578 0
M  V30 72267 C 7391.44 2.34805 -2.41595 0
M  V30 72268 O 7391.97 3.40843 -2.12578 0
M  V30 72269 N 7390.18 2.07478 -2.03473 0
M  V30 72270 H 7389.73 1.21266 -2.27271 0
M  V30 72271 H 7389.68 2.76115 -1.50359 0
M  V30 72272 N 7393.46 1.55713 -0.243165 0
M  V30 72273 C 7394.39 2.18547 0.690651 0
M  V30 72274 C 7395.4 1.1607 1.14156 0
M  V30 72275 O 7396.59 1.42951 1.06898 0
M  V30 72276 C 7393.69 2.77178 1.95002 0
M  V30 72277 C 7392.86 4.05038 1.65116 0
M  V30 72278 C 7391.92 4.48023 2.75974 0
M  V30 72279 O 7390.95 5.14477 2.4352 0
M  V30 72280 N 7392.15 4.15497 4.05392 0
M  V30 72281 H 7394.92 2.99309 0.153045 0
M  V30 72282 H 7392.48 1.61777 -0.0629821 0
M  V30 72283 H 7394.47 3.02894 2.68398 0
M  V30 72284 H 7393.04 2.00594 2.39751 0
M  V30 72285 H 7392.26 3.8695 0.752564 0
M  V30 72286 H 7393.55 4.88406 1.42608 0
M  V30 72287 H 7392.94 3.62139 4.34594 0
M  V30 72288 H 7391.5 4.46057 4.75264 0
M  V30 72289 N 7394.93 -0.0299926 1.57571 0
M  V30 72290 C 7395.88 -1.03874 2.02964 0
M  V30 72291 C 7396.87 -1.32087 0.918793 0
M  V30 72292 O 7398.06 -1.31687 1.18268 0
M  V30 72293 C 7395.19 -2.34015 2.51181 0
M  V30 72294 C 7394.28 -2.08896 3.69084 0
M  V30 72295 N 7394.67 -1.53832 4.81839 0
M  V30 72296 C 7392.96 -2.39184 3.7644 0
M  V30 72297 C 7393.67 -1.44496 5.63468 0
M  V30 72298 N 7392.64 -1.92021 5.08556 0
M  V30 72299 H 7396.44 -0.607006 2.87563 0
M  V30 72300 H 7393.96 -0.236314 1.60671 0
M  V30 72301 H 7395.95 -3.07089 2.81961 0
M  V30 72302 H 7394.61 -2.77868 1.67987 0
M  V30 72303 H 7395.63 -1.22116 5.03297 0
M  V30 72304 H 7392.3 -2.86118 3.04044 0
M  V30 72305 H 7393.69 -1.02421 6.64048 0
M  V30 72306 N 7396.41 -1.54675 -0.302246 0
M  V30 72307 C 7397.66 -1.74154 -1.03914 0
M  V30 72308 C 7397.99 -0.52514 -1.86965 0
M  V30 72309 O 7397.27 0.477769 -1.88541 0
M  V30 72310 C 7397.55 -3.02979 -1.94617 0
M  V30 72311 C 7397.4 -4.34915 -1.14755 0
M  V30 72312 C 7398.72 -3.27665 -2.93809 0
M  V30 72313 H 7395.84 -0.633651 -0.376371 0
M  V30 72314 H 7398.48 -1.87389 -0.313908 0
M  V30 72315 H 7396.63 -2.91826 -2.56456 0
M  V30 72316 H 7398.3 -4.57984 -0.552121 0
M  V30 72317 H 7396.55 -4.31457 -0.450234 0
M  V30 72318 H 7397.22 -5.21319 -1.81468 0
M  V30 72319 H 7399.69 -3.38419 -2.42099 0
M  V30 72320 H 7398.57 -4.19122 -3.5444 0
M  V30 72321 H 7398.83 -2.45901 -3.67403 0
M  V30 72322 N 7397.89 0.565377 -1.4711 0
M  V30 72323 C 7399.14 1.31921 -1.52577 0
M  V30 72324 C 7399.45 1.94683 -0.189195 0
M  V30 72325 O 7400.66 2.71227 -0.1218 0
M  V30 72326 C 7399.11 2.39179 -2.68926 0
M  V30 72327 C 7398.72 1.82644 -4.09079 0
M  V30 72328 C 7400.47 3.15795 -2.83679 0
M  V30 72329 C 7398.37 2.87633 -5.16741 0
M  V30 72330 H 7397.3 0.495996 -0.567895 0
M  V30 72331 H 7399.95 0.601418 -1.73364 0
M  V30 72332 H 7398.34 3.13835 -2.41502 0
M  V30 72333 H 7399.51 1.14414 -4.4637 0
M  V30 72334 H 7397.83 1.18639 -3.99141 0
M  V30 72335 H 7400.42 3.94182 -3.61282 0
M  V30 72336 H 7400.77 3.69472 -1.91824 0
M  V30 72337 H 7401.3 2.48248 -3.10834 0
M  V30 72338 H 7398.04 2.38822 -6.10446 0
M  V30 72339 H 7397.56 3.54299 -4.83976 0
M  V30 72340 H 7399.24 3.51274 -5.43337 0
M  V30 72341 N 7399.37 1.35105 0.811445 0
M  V30 72342 C 7400.3 1.30285 1.93773 0
M  V30 72343 C 7401.28 0.178164 1.69164 0
M  V30 72344 O 7402.46 0.372356 1.90597 0
M  V30 72345 C 7399.59 1.06917 3.30433 0
M  V30 72346 C 7398.55 2.15974 3.69512 0
M  V30 72347 C 7397.87 1.77778 5.04281 0
M  V30 72348 C 7399.17 3.57901 3.804 0
M  V30 72349 H 7400.87 2.24524 1.98063 0
M  V30 72350 H 7398.41 1.08083 0.951529 0
M  V30 72351 H 7400.37 1.02186 4.08823 0
M  V30 72352 H 7399.09 0.0912183 3.26473 0
M  V30 72353 H 7397.75 2.19793 2.93405 0
M  V30 72354 H 7397.4 0.786138 4.96819 0
M  V30 72355 H 7397.1 2.50778 5.31398 0
M  V30 72356 H 7398.62 1.74563 5.85115 0
M  V30 72357 H 7400.04 3.56431 4.49032 0
M  V30 72358 H 7398.43 4.2962 4.18982 0
M  V30 72359 H 7399.5 3.94406 2.82084 0
M  V30 72360 N 7400.85 -1.03302 1.19023 0
M  V30 72361 C 7401.79 -2.11488 0.9242 0
M  V30 72362 C 7402.76 -1.65514 -0.139377 0
M  V30 72363 O 7403.95 -1.908 0.00188822 0
M  V30 72364 C 7401.09 -3.41961 0.464436 0
M  V30 72365 C 7400.2 -4.01504 1.59431 0
M  V30 72366 C 7399.34 -5.1997 1.0865 0
M  V30 72367 C 7398.38 -5.71561 2.19054 0
M  V30 72368 N 7397.51 -6.81305 1.69611 0
M  V30 72369 H 7402.35 -2.33581 1.85051 0
M  V30 72370 H 7399.89 -1.14567 0.922653 0
M  V30 72371 H 7401.85 -4.16815 0.179298 0
M  V30 72372 H 7400.48 -3.19991 -0.424893 0
M  V30 72373 H 7399.53 -3.23904 1.99475 0
M  V30 72374 H 7400.84 -4.35814 2.42627 0
M  V30 72375 H 7400 -6.01967 0.756339 0
M  V30 72376 H 7398.73 -4.87184 0.224212 0
M  V30 72377 H 7397.74 -4.88179 2.52905 0
M  V30 72378 H 7398.96 -6.06387 3.05731 0
M  V30 72379 H 7396.91 -6.5038 0.856837 0
M  V30 72380 H 7396.83 -7.14719 2.46399 0
M  V30 72381 H 7398.1 -7.66908 1.39546 0
M  V30 72382 N 7402.32 -0.993483 -1.22342 0
M  V30 72383 C 7403.74 -0.704708 -1.72889 0
M  V30 72384 C 7404.09 0.778388 -1.80099 0
M  V30 72385 O 7403.21 1.60845 -1.44768 0
M  V30 72386 C 7403.81 -1.27254 -3.13993 0
M  V30 72387 C 7402.37 -1.03313 -3.61944 0
M  V30 72388 C 7401.51 -1.39237 -2.39809 0
M  V30 72389 H 7404.46 -1.16578 -1.07682 0
M  V30 72390 H 7404.48 -0.65141 -3.74883 0
M  V30 72391 H 7404 -2.35196 -3.08714 0
M  V30 72392 H 7402.1 0.0296364 -3.72588 0
M  V30 72393 H 7402.21 -1.69692 -4.48042 0
M  V30 72394 H 7400.57 -0.810976 -2.41444 0
M  V30 72395 H 7401.36 -2.48185 -2.3719 0
M  V30 72396 N 7403.8 1.3769 -0.766756 0
M  V30 72397 C 7405.05 1.99418 -0.32817 0
M  V30 72398 C 7405.37 1.61172 1.09767 0
M  V30 72399 O 7404.64 0.874779 1.75284 0
M  V30 72400 H 7403.22 0.737565 -0.118349 0
M  V30 72401 H 7405.88 1.68249 -0.983774 0
M  V30 72402 H 7404.98 3.09503 -0.40181 0
M  V30 72403 N 7405.28 0.516888 1.48883 0
M  V30 72404 C 7406.56 -0.0857263 1.95412 0
M  V30 72405 C 7406.94 -1.52582 1.45883 0
M  V30 72406 O 7406.29 -2.18162 0.67953 0
M  V30 72407 C 7406.5 0.0180035 3.48995 0
M  V30 72408 C 7407.84 -0.147907 4.24342 0
M  V30 72409 O 7408.87 -0.0564247 3.56155 0
M  V30 72410 O 7407.73 -0.337748 5.45455 0
M  V30 72411 H 7404.82 -0.0865451 0.822459 0
M  V30 72412 H 7407.37 0.580556 1.5946 0
M  V30 72413 H 7406.14 1.02167 3.77727 0
M  V30 72414 H 7405.76 -0.687717 3.91607 0
M  V30 72415 N 7406.76 -1.55582 0.25142 0
M  V30 72416 C 7408.01 -1.99053 -0.372064 0
M  V30 72417 C 7408.33 -1.13961 -1.57617 0
M  V30 72418 O 7407.59 -0.191501 -1.94761 0
M  V30 72419 C 7407.89 -3.47842 -0.821002 0
M  V30 72420 C 7407.55 -4.50055 0.275846 0
M  V30 72421 C 7406.22 -4.77727 0.577082 0
M  V30 72422 C 7408.57 -5.11199 1.01612 0
M  V30 72423 C 7405.9 -5.63816 1.62259 0
M  V30 72424 C 7408.25 -5.98422 2.05118 0
M  V30 72425 C 7406.91 -6.24425 2.35902 0
M  V30 72426 H 7406.18 -0.728385 -0.136148 0
M  V30 72427 H 7408.83 -1.88082 0.360188 0
M  V30 72428 H 7407.13 -3.56168 -1.63253 0
M  V30 72429 H 7408.83 -3.78868 -1.31376 0
M  V30 72430 H 7405.42 -4.28589 0.030923 0
M  V30 72431 H 7409.61 -4.89864 0.796648 0
M  V30 72432 H 7404.86 -5.82217 1.86638 0
M  V30 72433 H 7409.04 -6.44842 2.62968 0
M  V30 72434 H 7406.66 -6.90928 3.17054 0
M  V30 72435 N 7408.24 0.0216358 -1.57585 0
M  V30 72436 C 7409.18 1.01993 -2.07041 0
M  V30 72437 C 7410.15 1.35468 -0.961131 0
M  V30 72438 O 7411.34 1.45677 -1.23218 0
M  V30 72439 C 7408.48 2.3135 -2.56069 0
M  V30 72440 C 7407.59 2.03969 -3.80816 0
M  V30 72441 C 7406.73 3.2725 -4.18427 0
M  V30 72442 C 7405.77 2.95457 -5.3607 0
M  V30 72443 N 7404.9 4.11212 -5.69078 0
M  V30 72444 H 7409.74 0.591242 -2.92076 0
M  V30 72445 H 7407.28 0.280308 -1.44405 0
M  V30 72446 H 7409.24 3.06942 -2.82564 0
M  V30 72447 H 7407.87 2.71928 -1.7394 0
M  V30 72448 H 7406.92 1.18841 -3.6136 0
M  V30 72449 H 7408.23 1.76521 -4.66521 0
M  V30 72450 H 7407.39 4.11205 -4.46089 0
M  V30 72451 H 7406.13 3.57818 -3.31387 0
M  V30 72452 H 7405.13 2.09906 -5.08153 0
M  V30 72453 H 7406.36 2.6616 -6.24769 0
M  V30 72454 H 7404.3 4.41717 -4.84997 0
M  V30 72455 H 7404.22 3.87213 -6.49309 0
M  V30 72456 H 7405.49 4.96018 -6.01321 0
M  V30 72457 N 7409.72 1.54833 0.294039 0
M  V30 72458 C 7410.94 1.78771 1.05147 0
M  V30 72459 C 7411.37 0.548904 1.79913 0
M  V30 72460 O 7410.72 -0.500817 1.74246 0
M  V30 72461 C 7410.77 2.99903 2.00226 0
M  V30 72462 O 7409.88 2.73515 3.08647 0
M  V30 72463 H 7409.22 0.591498 0.301706 0
M  V30 72464 H 7411.75 2.01932 0.329343 0
M  V30 72465 H 7411.76 3.28064 2.42565 0
M  V30 72466 H 7410.43 3.89725 1.45215 0
M  V30 72467 H 7409.01 2.56391 2.70773 0
M  V30 72468 N 7411.19 -0.557567 1.47407 0
M  V30 72469 C 7412.47 -1.31835 1.44495 0
M  V30 72470 C 7412.85 -2.10624 0.141711 0
M  V30 72471 O 7412.2 -2.11008 -0.876797 0
M  V30 72472 C 7412.41 -2.22317 2.69028 0
M  V30 72473 C 7413.76 -2.83348 3.16227 0
M  V30 72474 O 7414.78 -2.32619 2.69753 0
M  V30 72475 O 7413.64 -3.7555 3.97019 0
M  V30 72476 H 7410.73 -0.593608 0.575811 0
M  V30 72477 H 7413.28 -0.5765 1.59608 0
M  V30 72478 H 7412.05 -1.63696 3.55414 0
M  V30 72479 H 7411.67 -3.03799 2.565 0
M  V30 72480 N 7412.67 -1.35533 -0.804268 0
M  V30 72481 C 7414.08 -1.25922 -1.37842 0
M  V30 72482 C 7414.43 0.107392 -1.95906 0
M  V30 72483 O 7413.56 1.00842 -1.91468 0
M  V30 72484 C 7414.15 -2.28007 -2.50596 0
M  V30 72485 C 7412.71 -2.2213 -3.03867 0
M  V30 72486 C 7411.86 -2.13591 -1.76845 0
M  V30 72487 H 7414.81 -1.46628 -0.607114 0
M  V30 72488 H 7414.83 -1.90789 -3.29211 0
M  V30 72489 H 7414.34 -3.2746 -2.08306 0
M  V30 72490 H 7412.44 -1.26095 -3.50615 0
M  V30 72491 H 7412.56 -3.14192 -3.61691 0
M  V30 72492 H 7410.92 -1.59606 -1.9849 0
M  V30 72493 H 7411.7 -3.14908 -1.36704 0
M  V30 72494 N 7414.15 1.0267 -1.19569 0
M  V30 72495 C 7415.1 2.10995 -0.935403 0
M  V30 72496 C 7416.07 1.65586 0.130598 0
M  V30 72497 O 7417.25 1.90796 -0.0120068 0
M  V30 72498 C 7414.39 3.41709 -0.482564 0
M  V30 72499 C 7413.5 4.00653 -1.61558 0
M  V30 72500 C 7412.64 5.19386 -1.11406 0
M  V30 72501 C 7411.68 5.70391 -2.22082 0
M  V30 72502 N 7410.82 6.80396 -1.73221 0
M  V30 72503 H 7415.66 2.32596 -1.86288 0
M  V30 72504 H 7413.19 1.14076 -0.928716 0
M  V30 72505 H 7415.15 4.16714 -0.2014 0
M  V30 72506 H 7413.78 3.20212 0.407917 0
M  V30 72507 H 7412.83 3.22842 -2.0119 0
M  V30 72508 H 7414.14 4.34521 -2.44935 0
M  V30 72509 H 7413.3 6.01558 -0.788252 0
M  V30 72510 H 7412.04 4.87059 -0.250046 0
M  V30 72511 H 7411.04 4.86831 -2.55491 0
M  V30 72512 H 7412.27 6.04757 -3.08943 0
M  V30 72513 H 7410.21 6.49917 -0.891316 0
M  V30 72514 H 7410.13 7.13402 -2.50186 0
M  V30 72515 H 7411.4 7.66157 -1.43611 0
M  V30 72516 N 7415.63 0.999957 1.21814 0
M  V30 72517 C 7416.58 0.549166 2.26024 0
M  V30 72518 C 7417.57 -0.403739 1.64518 0
M  V30 72519 O 7418.78 -0.275484 1.77879 0
M  V30 72520 H 7415.15 0.159224 0.73495 0
M  V30 72521 H 7417.12 1.43937 2.6139 0
M  V30 72522 C 7415.87 -0.113507 3.47515 0
M  V30 72523 H 7415.19 0.61069 3.95108 0
M  V30 72524 H 7416.63 -0.392277 4.22181 0
M  V30 72525 C 7415.09 -1.3511 3.08621 0
M  V30 72526 O 7415.62 -2.44588 3.18653 0
M  V30 72527 N 7413.83 -1.22897 2.63334 0
M  V30 72528 H 7413.38 -0.338154 2.55371 0
M  V30 72529 H 7413.33 -2.05806 2.37679 0
M  V30 72530 N 7417.11 -1.37282 0.774047 0
M  V30 72531 C 7418.05 -2.32118 0.149704 0
M  V30 72532 C 7419.05 -1.55048 -0.682375 0
M  V30 72533 O 7420.25 -1.70427 -0.579179 0
M  V30 72534 H 7416.63 -0.751416 0.0296253 0
M  V30 72535 H 7418.6 -2.82356 0.965266 0
M  V30 72536 C 7417.35 -3.40306 -0.71323 0
M  V30 72537 H 7416.67 -3.99715 -0.0823308 0
M  V30 72538 H 7418.11 -4.09022 -1.11702 0
M  V30 72539 C 7416.57 -2.80581 -1.86484 0
M  V30 72540 O 7417.1 -2.71514 -2.96046 0
M  V30 72541 N 7415.31 -2.38091 -1.66617 0
M  V30 72542 H 7414.85 -2.45665 -0.775016 0
M  V30 72543 H 7414.81 -1.98474 -2.43835 0
M  V30 72544 N 7418.58 -0.524776 -1.48606 0
M  V30 72545 C 7419.82 0.00927588 -2.04398 0
M  V30 72546 C 7420.19 1.32069 -1.39362 0
M  V30 72547 O 7421.39 1.94046 -1.8601 0
M  V30 72548 C 7419.66 0.13413 -3.57148 0
M  V30 72549 S 7421.22 0.618998 -4.34412 0
M  V30 72550 H 7418.04 -0.00957111 -0.710936 0
M  V30 72551 H 7420.64 -0.704154 -1.82379 0
M  V30 72552 H 7419.34 -0.825239 -4.02017 0
M  V30 72553 H 7418.87 0.872093 -3.83612 0
M  V30 72554 H 7420.89 1.88437 -4.59027 0
M  V30 72555 N 7420.06 1.55446 -0.259667 0
M  V30 72556 C 7421.29 2.0365 0.365285 0
M  V30 72557 C 7421.71 1.13855 1.50607 0
M  V30 72558 O 7421.06 0.15551 1.81836 0
M  V30 72559 C 7421.11 3.51097 0.860987 0
M  V30 72560 O 7420.83 4.37473 -0.234351 0
M  V30 72561 C 7422.34 4.1512 1.55533 0
M  V30 72562 H 7419.56 0.665555 0.0853088 0
M  V30 72563 H 7422.1 2.008 -0.387257 0
M  V30 72564 H 7420.25 3.54441 1.56367 0
M  V30 72565 H 7420.67 5.24302 0.144124 0
M  V30 72566 H 7422.14 5.19942 1.85376 0
M  V30 72567 H 7422.62 3.62368 2.48166 0
M  V30 72568 H 7423.23 4.15735 0.8969 0
M  V30 72569 N 7421.54 -0.0132784 1.57594 0
M  V30 72570 C 7422.79 -0.70088 1.89984 0
M  V30 72571 C 7423.12 -1.74509 0.858894 0
M  V30 72572 O 7422.37 -1.95212 -0.138106 0
M  V30 72573 C 7422.67 -1.39318 3.29128 0
M  V30 72574 C 7422.34 -0.48345 4.48301 0
M  V30 72575 C 7421 -0.232932 4.80636 0
M  V30 72576 C 7423.35 0.1437 5.21002 0
M  V30 72577 C 7420.68 0.65325 5.83052 0
M  V30 72578 C 7423.03 1.01768 6.24361 0
M  V30 72579 C 7421.69 1.2775 6.55161 0
M  V30 72580 H 7420.96 -0.25647 0.695201 0
M  V30 72581 H 7423.61 0.0393975 1.91459 0
M  V30 72582 H 7421.92 -2.20717 3.23714 0
M  V30 72583 H 7423.61 -1.93103 3.51443 0
M  V30 72584 H 7420.2 -0.688869 4.23028 0
M  V30 72585 H 7424.39 -0.0368522 4.96286 0
M  V30 72586 H 7419.64 0.862698 6.05283 0
M  V30 72587 H 7423.82 1.51006 6.79831 0
M  V30 72588 H 7421.44 1.96589 7.34341 0
M  V30 72589 N 7423.02 -1.54986 -0.285823 0
M  V30 72590 C 7424.27 -1.74987 -1.0191 0
M  V30 72591 C 7424.59 -0.543915 -1.8674 0
M  V30 72592 O 7423.85 0.473872 -1.89876 0
M  V30 72593 C 7424.15 -3.0005 -1.94177 0
M  V30 72594 C 7423.81 -4.33169 -1.25202 0
M  V30 72595 C 7422.48 -4.69352 -1.06124 0
M  V30 72596 C 7424.83 -5.15627 -0.760155 0
M  V30 72597 C 7422.16 -5.85559 -0.365683 0
M  V30 72598 C 7424.51 -6.32552 -0.0782452 0
M  V30 72599 C 7423.17 -6.67384 0.124354 0
M  V30 72600 H 7422.44 -0.640323 -0.372917 0
M  V30 72601 H 7425.09 -1.89252 -0.292552 0
M  V30 72602 H 7423.39 -2.8063 -2.73411 0
M  V30 72603 H 7425.09 -3.1272 -2.51012 0
M  V30 72604 H 7421.68 -4.04722 -1.4106 0
M  V30 72605 H 7425.86 -4.8816 -0.895208 0
M  V30 72606 H 7421.12 -6.1108 -0.19787 0
M  V30 72607 H 7425.29 -6.95707 0.310706 0
M  V30 72608 H 7422.92 -7.57283 0.665318 0
M  V30 72609 N 7424.5 0.549742 -1.47701 0
M  V30 72610 C 7425.72 1.3366 -1.58586 0
M  V30 72611 C 7426.15 1.86574 -0.239147 0
M  V30 72612 O 7425.5 1.63368 0.78617 0
M  V30 72613 C 7425.55 2.47722 -2.62042 0
M  V30 72614 O 7424.66 3.50176 -2.17831 0
M  V30 72615 H 7424 0.396704 -0.532468 0
M  V30 72616 H 7426.53 0.663597 -1.9354 0
M  V30 72617 H 7426.54 2.94187 -2.82697 0
M  V30 72618 H 7425.21 2.08567 -3.59823 0
M  V30 72619 H 7423.79 3.09965 -2.07307 0
M  V30 72620 N 7425.97 1.35958 0.797069 0
M  V30 72621 C 7427.21 1.31136 1.56788 0
M  V30 72622 C 7427.58 -0.110263 1.91683 0
M  V30 72623 O 7428.78 -0.282952 2.67307 0
M  V30 72624 C 7427.05 2.20126 2.81566 0
M  V30 72625 S 7428.61 2.32913 3.71883 0
M  V30 72626 H 7425.43 0.465897 0.537086 0
M  V30 72627 H 7428.03 1.71449 0.939432 0
M  V30 72628 H 7426.73 3.22378 2.53969 0
M  V30 72629 H 7426.26 1.80805 3.4939 0
M  V30 72630 H 7428.28 1.52098 4.72314 0
M  V30 72631 N 7427.45 -1.02034 1.20112 0
M  V30 72632 C 7428.7 -1.75833 1.01048 0
M  V30 72633 C 7429.03 -1.88753 -0.45672 0
M  V30 72634 O 7428.31 -1.4106 -1.33911 0
M  V30 72635 C 7428.59 -3.17966 1.69026 0
M  V30 72636 C 7428.44 -3.12863 3.23167 0
M  V30 72637 C 7429.76 -4.16553 1.42027 0
M  V30 72638 H 7426.88 -0.638262 0.368498 0
M  V30 72639 H 7429.52 -1.19057 1.48073 0
M  V30 72640 H 7427.67 -3.66442 1.29045 0
M  V30 72641 H 7429.34 -2.7222 3.72417 0
M  V30 72642 H 7427.59 -2.50356 3.54266 0
M  V30 72643 H 7428.26 -4.13319 3.65884 0
M  V30 72644 H 7430.73 -3.76716 1.76705 0
M  V30 72645 H 7429.61 -5.14177 1.92128 0
M  V30 72646 H 7429.87 -4.40735 0.347116 0
M  V30 72647 N 7428.93 -1.0064 -1.21282 0
M  V30 72648 C 7429.88 -0.567994 -2.23702 0
M  V30 72649 C 7430.85 0.406668 -1.61045 0
M  V30 72650 O 7432.03 0.3084 -1.88291 0
M  V30 72651 C 7429.17 0.0978141 -3.44961 0
M  V30 72652 C 7428.29 -0.920194 -4.22086 0
M  V30 72653 C 7427.42 -0.226501 -5.30717 0
M  V30 72654 C 7426.46 -1.23196 -5.99574 0
M  V30 72655 N 7425.6 -0.565647 -6.99818 0
M  V30 72656 H 7430.44 -1.44605 -2.60563 0
M  V30 72657 H 7427.97 -0.724074 -1.28045 0
M  V30 72658 H 7429.93 0.500879 -4.14182 0
M  V30 72659 H 7428.56 0.939581 -3.08823 0
M  V30 72660 H 7427.61 -1.44149 -3.5203 0
M  V30 72661 H 7428.93 -1.68529 -4.69467 0
M  V30 72662 H 7428.08 0.232597 -6.06254 0
M  V30 72663 H 7426.82 0.570991 -4.84346 0
M  V30 72664 H 7425.82 -1.70155 -5.22807 0
M  V30 72665 H 7427.05 -2.03056 -6.48032 0
M  V30 72666 H 7424.99 0.212163 -6.55657 0
M  V30 72667 H 7424.91 -1.26898 -7.45274 0
M  V30 72668 H 7426.18 -0.1298 -7.79392 0
M  V30 72669 N 7430.41 1.36869 -0.781317 0
M  V30 72670 C 7431.66 1.98699 -0.346624 0
M  V30 72671 C 7431.97 1.62718 1.08546 0
M  V30 72672 O 7433.18 2.17722 1.62202 0
M  V30 72673 C 7431.63 3.55377 -0.568798 0
M  V30 72674 C 7431.24 4.0029 -2.01177 0
M  V30 72675 C 7432.98 4.24037 -0.198207 0
M  V30 72676 C 7430.89 5.49713 -2.18103 0
M  V30 72677 H 7429.82 0.743421 -0.125861 0
M  V30 72678 H 7432.47 1.56274 -0.961803 0
M  V30 72679 H 7430.85 3.9583 0.115976 0
M  V30 72680 H 7432.03 3.71057 -2.73228 0
M  V30 72681 H 7430.34 3.44442 -2.33985 0
M  V30 72682 H 7432.94 5.3384 -0.30306 0
M  V30 72683 H 7433.28 4.07473 0.852712 0
M  V30 72684 H 7433.82 3.88918 -0.835901 0
M  V30 72685 H 7430.56 5.71215 -3.21549 0
M  V30 72686 H 7430.08 5.80599 -1.50547 0
M  V30 72687 H 7431.75 6.15822 -1.98426 0
M  V30 72688 N 7431.89 0.53265 1.48326 0
M  V30 72689 C 7432.84 -0.24856 2.26641 0
M  V30 72690 C 7433.82 -0.907493 1.32866 0
M  V30 72691 O 7435.01 -0.809859 1.57386 0
M  V30 72692 C 7432.14 -1.29322 3.1801 0
M  V30 72693 C 7431.23 -0.638945 4.19259 0
M  V30 72694 N 7431.62 0.276864 5.05042 0
M  V30 72695 C 7429.92 -0.895832 4.36911 0
M  V30 72696 C 7430.62 0.654566 5.78005 0
M  V30 72697 N 7429.59 0.0150313 5.43598 0
M  V30 72698 H 7433.4 0.455945 2.90342 0
M  V30 72699 H 7430.91 0.350862 1.58565 0
M  V30 72700 H 7432.91 -1.86662 3.72777 0
M  V30 72701 H 7431.57 -1.99908 2.55865 0
M  V30 72702 H 7432.58 0.649622 5.1381 0
M  V30 72703 H 7429.25 -1.59205 3.85953 0
M  V30 72704 H 7430.64 1.40567 6.57032 0
M  V30 72705 N 7433.36 -1.55306 0.267907 0
M  V30 72706 C 7434.31 -2.23658 -0.63873 0
M  V30 72707 C 7435.31 -1.23116 -1.16356 0
M  V30 72708 O 7436.51 -1.41068 -1.11803 0
M  V30 72709 H 7432.89 -0.717703 -0.224514 0
M  V30 72710 H 7434.86 -2.98374 -0.0393236 0
M  V30 72711 C 7433.61 -2.96572 -1.81495 0
M  V30 72712 H 7432.93 -3.73722 -1.42028 0
M  V30 72713 H 7434.37 -3.4773 -2.4261 0
M  V30 72714 C 7432.83 -2.01632 -2.699 0
M  V30 72715 O 7433.36 -1.56288 -3.7005 0
M  V30 72716 N 7431.57 -1.68285 -2.36915 0
M  V30 72717 H 7431.11 -2.05355 -1.55522 0
M  V30 72718 H 7431.07 -1.05031 -2.96337 0
M  V30 72719 N 7434.84 0.00492057 -1.57599 0
M  V30 72720 C 7435.78 1.02599 -2.04954 0
M  V30 72721 C 7436.79 1.31001 -0.966576 0
M  V30 72722 O 7437.98 1.28063 -1.24346 0
M  V30 72723 C 7435.08 2.36193 -2.43035 0
M  V30 72724 C 7434.25 2.26802 -3.74005 0
M  V30 72725 C 7433.31 3.43044 -3.99008 0
M  V30 72726 O 7432.34 3.21452 -4.69742 0
M  V30 72727 N 7433.54 4.6573 -3.4652 0
M  V30 72728 H 7436.3 0.622181 -2.93171 0
M  V30 72729 H 7433.86 0.192403 -1.60753 0
M  V30 72730 H 7435.86 3.12722 -2.5688 0
M  V30 72731 H 7434.43 2.68333 -1.60363 0
M  V30 72732 H 7433.65 1.35216 -3.70284 0
M  V30 72733 H 7434.93 2.17694 -4.59877 0
M  V30 72734 H 7434.33 4.8617 -2.89231 0
M  V30 72735 H 7432.89 5.39541 -3.65703 0
M  V30 72736 N 7436.32 1.55136 0.2776 0
M  V30 72737 C 7437.25 1.90708 1.34732 0
M  V30 72738 C 7438.23 0.768434 1.51753 0
M  V30 72739 O 7439.42 1.02618 1.64873 0
M  V30 72740 C 7436.55 2.17496 2.70764 0
M  V30 72741 C 7435.5 3.33321 2.68479 0
M  V30 72742 C 7434.83 3.45579 4.08019 0
M  V30 72743 C 7436.13 4.69833 2.28154 0
M  V30 72744 H 7437.82 2.80306 1.05209 0
M  V30 72745 H 7435.37 1.34867 0.504667 0
M  V30 72746 H 7437.32 2.40968 3.45706 0
M  V30 72747 H 7436.04 1.24692 3.0186 0
M  V30 72748 H 7434.7 3.09809 1.95994 0
M  V30 72749 H 7434.35 2.50249 4.3633 0
M  V30 72750 H 7434.05 4.2345 4.07386 0
M  V30 72751 H 7435.58 3.71338 4.84707 0
M  V30 72752 H 7436.99 4.9288 2.92817 0
M  V30 72753 H 7435.39 5.50587 2.38691 0
M  V30 72754 H 7436.46 4.68966 1.23283 0
M  V30 72755 N 7437.8 -0.541901 1.47991 0
M  V30 72756 C 7439.05 -1.29477 1.54657 0
M  V30 72757 C 7439.36 -1.94357 0.220144 0
M  V30 72758 O 7440.57 -2.70999 0.164934 0
M  V30 72759 C 7439.02 -2.3487 2.72697 0
M  V30 72760 C 7438.63 -1.76112 4.11933 0
M  V30 72761 C 7440.38 -3.11242 2.88668 0
M  V30 72762 C 7438.28 -2.79376 5.21251 0
M  V30 72763 H 7437.21 -0.486898 0.575714 0
M  V30 72764 H 7439.86 -0.573761 1.74299 0
M  V30 72765 H 7438.25 -3.09953 2.46465 0
M  V30 72766 H 7439.42 -1.07298 4.48134 0
M  V30 72767 H 7437.73 -1.12274 4.00978 0
M  V30 72768 H 7440.33 -3.88384 3.67508 0
M  V30 72769 H 7440.67 -3.66373 1.97678 0
M  V30 72770 H 7441.21 -2.43272 3.14744 0
M  V30 72771 H 7437.95 -2.2908 6.14168 0
M  V30 72772 H 7437.47 -3.46554 4.89551 0
M  V30 72773 H 7439.15 -3.42586 5.48857 0
M  V30 72774 N 7439.28 -1.36379 -0.789848 0
M  V30 72775 C 7440.5 -1.33903 -1.58382 0
M  V30 72776 C 7440.93 0.0773943 -1.87941 0
M  V30 72777 O 7440.29 1.04922 -1.47855 0
M  V30 72778 C 7440.33 -2.16747 -2.88189 0
M  V30 72779 O 7439.44 -1.55967 -3.8177 0
M  V30 72780 H 7438.78 -0.45833 -0.480447 0
M  V30 72781 H 7441.31 -1.79656 -0.979025 0
M  V30 72782 H 7441.32 -2.2931 -3.37463 0
M  V30 72783 H 7439.99 -3.19712 -2.66002 0
M  V30 72784 H 7438.57 -1.52341 -3.40363 0
M  V30 72785 N 7440.76 1.01396 -1.20651 0
M  V30 72786 C 7441.98 1.79166 -1.04471 0
M  V30 72787 C 7442.41 1.83765 0.401491 0
M  V30 72788 O 7441.76 1.27465 1.28927 0
M  V30 72789 C 7441.81 3.21353 -1.636 0
M  V30 72790 O 7440.92 4.03002 -0.87541 0
M  V30 72791 H 7440.26 0.552519 -0.368264 0
M  V30 72792 H 7442.79 1.27518 -1.60001 0
M  V30 72793 H 7442.8 3.72056 -1.67446 0
M  V30 72794 H 7441.47 3.1732 -2.68851 0
M  V30 72795 H 7440.05 3.61592 -0.911362 0
M  V30 72796 N 7442.23 1.01282 1.20746 0
M  V30 72797 C 7443.48 0.701025 1.90298 0
M  V30 72798 C 7443.81 -0.767048 1.7841 0
M  V30 72799 O 7443.09 -1.55687 1.16583 0
M  V30 72800 C 7443.37 1.1326 3.41825 0
M  V30 72801 C 7443.22 2.6607 3.62666 0
M  V30 72802 C 7444.54 0.700967 4.34482 0
M  V30 72803 H 7441.66 0.256144 0.691057 0
M  V30 72804 H 7444.3 1.25989 1.4222 0
M  V30 72805 H 7442.45 0.657104 3.82903 0
M  V30 72806 H 7444.13 3.21444 3.30865 0
M  V30 72807 H 7442.37 3.0722 3.06265 0
M  V30 72808 H 7443.04 2.91321 4.68867 0
M  V30 72809 H 7445.52 1.10969 4.0103 0
M  V30 72810 H 7444.39 1.03102 5.3913 0
M  V30 72811 H 7444.65 -0.397548 4.40309 0
M  V30 72812 N 7443.71 -1.36453 0.788564 0
M  V30 72813 C 7444.94 -2.04049 0.371332 0
M  V30 72814 C 7445.36 -1.59069 -1.00392 0
M  V30 72815 O 7444.72 -0.758766 -1.64659 0
M  V30 72816 C 7444.77 -3.57875 0.442464 0
M  V30 72817 O 7443.87 -4.08704 -0.550914 0
M  V30 72818 H 7443.21 -0.644967 0.157842 0
M  V30 72819 H 7445.74 -1.74425 1.06944 0
M  V30 72820 H 7445.75 -4.06853 0.305762 0
M  V30 72821 H 7444.43 -3.89965 1.44568 0
M  V30 72822 H 7443 -3.71 -0.375944 0
M  V30 72823 N 7445.19 -0.540508 -1.48041 0
M  V30 72824 C 7446.14 0.22974 -2.31463 0
M  V30 72825 C 7447.13 0.92542 -1.41888 0
M  V30 72826 O 7448.34 0.848606 -1.58741 0
M  V30 72827 H 7444.71 0.0929582 -0.746232 0
M  V30 72828 H 7446.68 -0.493274 -2.94295 0
M  V30 72829 C 7445.43 1.25712 -3.24179 0
M  V30 72830 H 7444.76 0.731219 -3.93056 0
M  V30 72831 H 7446.2 1.76727 -3.85414 0
M  V30 72832 C 7444.65 2.29627 -2.46522 0
M  V30 72833 O 7445.18 3.36257 -2.1976 0
M  V30 72834 N 7443.39 2.03116 -2.07828 0
M  V30 72835 H 7442.94 1.16418 -2.29793 0
M  V30 72836 H 7442.9 2.72863 -1.56182 0
M  V30 72837 N 7446.67 1.55162 -0.27614 0
M  V30 72838 C 7447.92 1.98797 0.340993 0
M  V30 72839 C 7448.23 1.16799 1.56899 0
M  V30 72840 O 7449.44 1.50583 2.25914 0
M  V30 72841 C 7447.89 3.53833 0.658044 0
M  V30 72842 C 7447.5 4.44609 -0.550206 0
M  V30 72843 C 7449.24 4.06054 1.23775 0
M  V30 72844 C 7447.15 5.91035 -0.207685 0
M  V30 72845 H 7446.08 0.7425 0.131185 0
M  V30 72846 H 7448.73 1.79502 -0.380953 0
M  V30 72847 H 7447.11 3.68932 1.43892 0
M  V30 72848 H 7448.29 4.41278 -1.32705 0
M  V30 72849 H 7446.6 4.03027 -1.04682 0
M  V30 72850 H 7449.2 5.12999 1.50784 0
M  V30 72851 H 7449.54 3.5515 2.17195 0
M  V30 72852 H 7450.08 3.94398 0.519137 0
M  V30 72853 H 7446.81 6.46037 -1.1098 0
M  V30 72854 H 7446.33 5.97433 0.532372 0
M  V30 72855 H 7448.01 6.46692 0.199731 0
M  V30 72856 N 7448.15 0.00343736 1.576 0
M  V30 72857 C 7449.37 -0.691582 1.94999 0
M  V30 72858 C 7449.79 -1.67117 0.878493 0
M  V30 72859 O 7449.15 -1.81945 -0.142247 0
M  V30 72860 C 7449.2 -1.42045 3.32424 0
M  V30 72861 O 7448.92 -0.48015 4.35461 0
M  V30 72862 C 7450.42 -2.20966 3.84303 0
M  V30 72863 H 7447.64 -0.1924 0.642824 0
M  V30 72864 H 7450.18 0.0555784 2.04424 0
M  V30 72865 H 7448.34 -2.11922 3.24296 0
M  V30 72866 H 7448.75 -0.994783 5.1498 0
M  V30 72867 H 7450.23 -2.67457 4.82877 0
M  V30 72868 H 7450.7 -3.03788 3.1719 0
M  V30 72869 H 7451.31 -1.561 3.95617 0
M  V30 72870 N 7449.62 -1.55281 -0.269369 0
M  V30 72871 C 7450.86 -1.77811 -1.0081 0
M  V30 72872 C 7451.23 -0.569295 -1.83366 0
M  V30 72873 O 7452.43 -0.67292 -2.60241 0
M  V30 72874 C 7450.7 -3.04923 -1.86431 0
M  V30 72875 S 7452.26 -3.48587 -2.6652 0
M  V30 72876 H 7449.08 -0.624722 -0.339475 0
M  V30 72877 H 7451.68 -1.93511 -0.278154 0
M  V30 72878 H 7450.38 -3.90992 -1.24712 0
M  V30 72879 H 7449.91 -2.91899 -2.6374 0
M  V30 72880 H 7451.93 -3.08146 -3.88922 0
M  V30 72881 N 7451.1 0.534045 -1.48276 0
M  V30 72882 C 7452.51 1.11602 -1.49672 0
M  V30 72883 C 7452.86 1.94412 -0.264241 0
M  V30 72884 O 7451.99 2.07058 0.628975 0
M  V30 72885 C 7452.58 2.03065 -2.71201 0
M  V30 72886 C 7451.14 2.56488 -2.75483 0
M  V30 72887 C 7450.29 1.3336 -2.43126 0
M  V30 72888 H 7453.24 0.319496 -1.55451 0
M  V30 72889 H 7453.26 2.87291 -2.49488 0
M  V30 72890 H 7452.77 1.42766 -3.60887 0
M  V30 72891 H 7450.88 3.20519 -1.89996 0
M  V30 72892 H 7450.99 2.95899 -3.76803 0
M  V30 72893 H 7449.35 1.64803 -1.94196 0
M  V30 72894 H 7450.14 0.748198 -3.35048 0
M  V30 72895 N 7452.58 1.36796 0.782604 0
M  V30 72896 C 7453.53 1.31748 1.91691 0
M  V30 72897 C 7454.52 0.208083 1.68117 0
M  V30 72898 O 7455.73 0.375486 1.7604 0
M  V30 72899 H 7452.1 0.410317 0.630193 0
M  V30 72900 H 7454.07 2.27526 1.93066 0
M  V30 72901 C 7452.82 1.13047 3.2881 0
M  V30 72902 H 7452.15 1.97662 3.4752 0
M  V30 72903 H 7453.59 1.13563 4.08509 0
M  V30 72904 C 7452.05 -0.164522 3.36498 0
M  V30 72905 O 7452.58 -1.15196 3.84828 0
M  V30 72906 N 7450.78 -0.211525 2.89829 0
M  V30 72907 H 7450.33 0.592652 2.5069 0
M  V30 72908 H 7450.29 -1.07764 2.95355 0
M  V30 72909 N 7454.06 -1.00754 1.21187 0
M  V30 72910 C 7455.31 -1.74493 1.02755 0
M  V30 72911 C 7455.63 -1.89475 -0.439244 0
M  V30 72912 O 7454.89 -1.42416 -1.34225 0
M  V30 72913 C 7455.19 -3.16149 1.66687 0
M  V30 72914 C 7454.85 -3.2112 3.16532 0
M  V30 72915 C 7453.52 -3.22184 3.57422 0
M  V30 72916 C 7455.87 -3.18565 4.12512 0
M  V30 72917 C 7453.2 -3.18375 4.92802 0
M  V30 72918 C 7455.55 -3.16297 5.47849 0
M  V30 72919 C 7454.21 -3.15669 5.8814 0
M  V30 72920 H 7453.48 -0.638513 0.376008 0
M  V30 72921 H 7456.13 -1.18106 1.50743 0
M  V30 72922 H 7454.43 -3.75752 1.10985 0
M  V30 72923 H 7456.13 -3.71916 1.49931 0
M  V30 72924 H 7452.72 -3.21033 2.83964 0
M  V30 72925 H 7456.9 -3.16905 3.81949 0
M  V30 72926 H 7452.16 -3.16225 5.2327 0
M  V30 72927 H 7456.33 -3.13273 6.21959 0
M  V30 72928 H 7453.96 -3.12472 6.93012 0
M  V30 72929 N 7455.54 -1.01921 -1.20208 0
M  V30 72930 C 7456.81 -0.625048 -1.85344 0
M  V30 72931 C 7457.19 0.896753 -1.91106 0
M  V30 72932 O 7456.54 1.78953 -1.42084 0
M  V30 72933 C 7456.75 -1.27588 -3.24842 0
M  V30 72934 C 7458.1 -1.39298 -4.011 0
M  V30 72935 O 7459.12 -1.2323 -3.34205 0
M  V30 72936 O 7457.98 -1.65287 -5.20905 0
M  V30 72937 H 7455.08 -0.216008 -0.798292 0
M  V30 72938 H 7457.62 -1.11675 -1.27776 0
M  V30 72939 H 7456.39 -2.31562 -3.15428 0
M  V30 72940 H 7456.02 -0.771426 -3.90045 0
M  V30 72941 N 7457.01 1.36033 -0.795789 0
M  V30 72942 C 7457.98 2.28286 -0.204439 0
M  V30 72943 C 7458.98 1.49108 0.601938 0
M  V30 72944 O 7460.17 1.69011 0.422 0
M  V30 72945 C 7457.3 3.33291 0.716256 0
M  V30 72946 H 7458.49 2.82095 -1.01796 0
M  V30 72947 H 7456.05 1.45705 -0.565664 0
M  V30 72948 H 7456.78 2.84649 1.55388 0
M  V30 72949 H 7456.57 3.9185 0.13989 0
M  V30 72950 H 7458.06 4.0217 1.12467 0
M  V30 72951 N 7458.49 0.548352 1.47753 0
M  V30 72952 C 7459.72 0.0235844 2.07387 0
M  V30 72953 C 7460.14 -1.25666 1.39963 0
M  V30 72954 O 7459.5 -1.75058 0.471635 0
M  V30 72955 C 7459.55 -0.164479 3.60225 0
M  V30 72956 O 7458.65 -1.22908 3.93659 0
M  V30 72957 H 7457.99 0.0473506 0.66231 0
M  V30 72958 H 7460.52 0.761509 1.89901 0
M  V30 72959 H 7460.53 -0.381446 4.06213 0
M  V30 72960 H 7459.21 0.77064 4.08698 0
M  V30 72961 H 7457.79 -0.993306 3.59427 0
M  V30 72962 N 7459.97 -1.55013 0.284365 0
M  V30 72963 C 7461.22 -1.98975 -0.330445 0
M  V30 72964 C 7461.53 -1.17629 -1.56278 0
M  V30 72965 O 7462.74 -1.51779 -2.25112 0
M  V30 72966 C 7461.19 -3.54177 -0.63927 0
M  V30 72967 C 7460.8 -4.4431 0.573777 0
M  V30 72968 C 7462.55 -4.06705 -1.21619 0
M  V30 72969 C 7460.45 -5.90917 0.239026 0
M  V30 72970 H 7459.38 -0.743185 -0.127245 0
M  V30 72971 H 7462.03 -1.79298 0.390467 0
M  V30 72972 H 7460.42 -3.6969 -1.41933 0
M  V30 72973 H 7461.59 -4.40568 1.35043 0
M  V30 72974 H 7459.91 -4.02466 1.06818 0
M  V30 72975 H 7462.5 -5.13792 -1.48061 0
M  V30 72976 H 7462.85 -3.56297 -2.15309 0
M  V30 72977 H 7463.38 -3.94668 -0.498214 0
M  V30 72978 H 7460.12 -6.45439 1.14404 0
M  V30 72979 H 7459.64 -5.97707 -0.500681 0
M  V30 72980 H 7461.32 -6.46788 -0.165433 0
M  V30 72981 N 7461.45 -0.0117952 -1.57596 0
M  V30 72982 C 7462.69 0.674929 -1.92935 0
M  V30 72983 C 7463.05 1.70278 -0.887094 0
M  V30 72984 O 7464.25 2.44074 -1.12612 0
M  V30 72985 C 7462.52 1.2908 -3.33276 0
M  V30 72986 S 7464.08 2.00101 -3.90519 0
M  V30 72987 H 7460.9 0.222655 -0.675238 0
M  V30 72988 H 7463.5 -0.0713111 -1.9537 0
M  V30 72989 H 7462.21 0.530048 -4.06963 0
M  V30 72990 H 7461.74 2.07472 -3.34244 0
M  V30 72991 H 7463.75 3.27752 -3.7255 0
M  V30 72992 N 7462.93 1.55422 0.26113 0
M  V30 72993 C 7464.18 1.7579 0.98898 0
M  V30 72994 C 7464.49 0.573059 1.87017 0
M  V30 72995 O 7465.69 0.659428 2.6337 0
M  V30 72996 C 7464.15 3.11167 1.80841 0
M  V30 72997 C 7463.76 4.37255 0.975305 0
M  V30 72998 C 7465.5 3.4088 2.52985 0
M  V30 72999 C 7463.41 5.63667 1.7898 0
M  V30 73000 H 7462.34 0.655285 0.372984 0
M  V30 73001 H 7464.99 1.81868 0.244172 0
M  V30 73002 H 7463.37 2.99157 2.59463 0
M  V30 73003 H 7464.55 4.60213 0.232418 0
M  V30 73004 H 7462.86 4.14772 0.367864 0
M  V30 73005 H 7465.46 4.32537 3.1435 0
M  V30 73006 H 7465.8 2.61552 3.23877 0
M  V30 73007 H 7466.33 3.54041 1.81384 0
M  V30 73008 H 7463.07 6.45776 1.12488 0
M  V30 73009 H 7462.59 5.44832 2.50834 0
M  V30 73010 H 7464.27 6.02403 2.36051 0
M  V30 73011 N 7464.41 -0.526174 1.48557 0
M  V30 73012 C 7465.82 -1.10807 1.50262 0
M  V30 73013 C 7466.17 -1.9427 0.274548 0
M  V30 73014 O 7465.29 -2.07388 -0.617985 0
M  V30 73015 C 7465.89 -2.01623 2.72275 0
M  V30 73016 C 7464.45 -2.55023 2.76839 0
M  V30 73017 C 7463.59 -1.32069 2.4383 0
M  V30 73018 H 7466.54 -0.311248 1.55618 0
M  V30 73019 H 7466.57 -2.85963 2.51008 0
M  V30 73020 H 7466.08 -1.4085 3.61639 0
M  V30 73021 H 7464.18 -3.19507 1.91693 0
M  V30 73022 H 7464.29 -2.93897 3.78367 0
M  V30 73023 H 7462.66 -1.63771 1.95067 0
M  V30 73024 H 7463.44 -0.730419 3.3544 0
M  V30 73025 N 7465.88 -1.37209 -0.775339 0
M  V30 73026 C 7467.13 -1.31958 -1.53074 0
M  V30 73027 C 7467.45 0.0965837 -1.94761 0
M  V30 73028 O 7466.72 1.03985 -1.66024 0
M  V30 73029 H 7465.3 -0.485473 -0.567736 0
M  V30 73030 H 7467.96 -1.71659 -0.923 0
M  V30 73031 H 7467.06 -1.95627 -2.4318 0
M  V30 73032 N 7467.36 1.0011 -1.2172 0
M  V30 73033 C 7468.59 1.78048 -1.06366 0
M  V30 73034 C 7469.01 1.84181 0.381978 0
M  V30 73035 O 7468.37 1.28826 1.27568 0
M  V30 73036 C 7468.42 3.19599 -1.66999 0
M  V30 73037 O 7467.52 4.0205 -0.918105 0
M  V30 73038 H 7466.86 0.548582 -0.374103 0
M  V30 73039 H 7469.39 1.25814 -1.61345 0
M  V30 73040 H 7469.4 3.70259 -1.71382 0
M  V30 73041 H 7468.08 3.1445 -2.72202 0
M  V30 73042 H 7466.65 3.60605 -0.949663 0
M  V30 73043 N 7468.84 1.02557 1.19665 0
M  V30 73044 C 7470.09 0.715372 1.88588 0
M  V30 73045 C 7470.4 -0.758887 1.80278 0
M  V30 73046 O 7471.61 -1.182 2.4442 0
M  V30 73047 C 7470.06 1.22923 3.38257 0
M  V30 73048 C 7469.67 2.73103 3.55132 0
M  V30 73049 C 7471.42 0.994867 4.12677 0
M  V30 73050 C 7469.32 3.17924 4.98677 0
M  V30 73051 H 7468.25 0.263894 0.706312 0
M  V30 73052 H 7470.9 1.23943 1.35316 0
M  V30 73053 H 7469.29 0.633098 3.90906 0
M  V30 73054 H 7470.46 3.38343 3.12827 0
M  V30 73055 H 7468.77 2.94782 2.94096 0
M  V30 73056 H 7471.37 1.30505 5.18529 0
M  V30 73057 H 7471.71 -0.0684271 4.16244 0
M  V30 73058 H 7472.25 1.55483 3.66156 0
M  V30 73059 H 7468.99 4.23568 5.0027 0
M  V30 73060 H 7468.51 2.5741 5.41757 0
M  V30 73061 H 7470.19 3.11075 5.67311 0
M  V30 73062 N 7470.32 -1.35609 0.802992 0
M  V30 73063 C 7471.55 -2.03113 0.394037 0
M  V30 73064 C 7471.96 -1.60523 -0.993876 0
M  V30 73065 O 7471.32 -0.80106 -1.6398 0
M  V30 73066 C 7471.37 -3.58514 0.463675 0
M  V30 73067 O 7471.09 -3.99555 1.79687 0
M  V30 73068 C 7472.59 -4.43275 0.0470715 0
M  V30 73069 H 7469.81 -0.651509 0.160553 0
M  V30 73070 H 7472.35 -1.73305 1.08561 0
M  V30 73071 H 7470.51 -3.86983 -0.179617 0
M  V30 73072 H 7470.92 -4.94191 1.75714 0
M  V30 73073 H 7472.4 -5.51804 0.146917 0
M  V30 73074 H 7472.87 -4.27496 -1.00718 0
M  V30 73075 H 7473.48 -4.20094 0.663379 0
M  V30 73076 N 7471.8 -0.55618 -1.4746 0
M  V30 73077 C 7473.04 -0.0317405 -2.02475 0
M  V30 73078 C 7473.37 1.31769 -1.43064 0
M  V30 73079 O 7472.63 1.87048 -0.575474 0
M  V30 73080 C 7472.92 0.111937 -3.57225 0
M  V30 73081 C 7472.59 -1.16647 -4.3555 0
M  V30 73082 C 7471.25 -1.51678 -4.5667 0
M  V30 73083 C 7473.6 -2.01368 -4.80729 0
M  V30 73084 C 7470.93 -2.71277 -5.20217 0
M  V30 73085 C 7473.28 -3.20169 -5.45596 0
M  V30 73086 C 7471.95 -3.55514 -5.64948 0
M  V30 73087 H 7471.22 -0.0116147 -0.740909 0
M  V30 73088 H 7473.87 -0.727485 -1.77144 0
M  V30 73089 H 7472.17 0.890641 -3.81543 0
M  V30 73090 H 7473.87 0.533051 -3.97441 0
M  V30 73091 H 7470.46 -0.88371 -4.19391 0
M  V30 73092 H 7474.64 -1.75611 -4.64192 0
M  V30 73093 H 7469.9 -2.98832 -5.33394 0
M  V30 73094 H 7474.07 -3.86103 -5.79566 0
M  V30 73095 H 7471.7 -4.48282 -6.1396 0
M  V30 73096 N 7473.27 1.5486 -0.292581 0
M  V30 73097 C 7474.21 2.19359 0.62904 0
M  V30 73098 C 7475.18 1.1602 1.13921 0
M  V30 73099 O 7476.37 1.44625 1.20896 0
M  V30 73100 C 7473.5 2.83074 1.85975 0
M  V30 73101 C 7472.54 3.99866 1.48355 0
M  V30 73102 S 7473.37 5.32702 0.546695 0
M  V30 73103 C 7474.53 5.99896 1.78539 0
M  V30 73104 H 7474.76 2.97189 0.0810599 0
M  V30 73105 H 7472.3 1.54209 -0.0767534 0
M  V30 73106 H 7474.25 3.20411 2.56606 0
M  V30 73107 H 7472.92 2.05105 2.37888 0
M  V30 73108 H 7472.11 4.432 2.39978 0
M  V30 73109 H 7471.71 3.64043 0.857255 0
M  V30 73110 H 7474 6.20191 2.72708 0
M  V30 73111 H 7474.95 6.94228 1.39476 0
M  V30 73112 H 7475.35 5.29445 1.95828 0
M  V30 73113 N 7474.75 0.0201527 1.57587 0
M  V30 73114 C 7476.16 -0.519924 1.79314 0
M  V30 73115 C 7476.51 -1.72782 0.929566 0
M  V30 73116 O 7475.64 -2.15963 0.137503 0
M  V30 73117 C 7476.23 -0.95 3.25208 0
M  V30 73118 C 7474.79 -1.43525 3.47962 0
M  V30 73119 C 7473.94 -0.395772 2.74461 0
M  V30 73120 H 7476.89 0.246236 1.56778 0
M  V30 73121 H 7476.91 -1.8149 3.34427 0
M  V30 73122 H 7476.42 -0.0706784 3.88036 0
M  V30 73123 H 7474.52 -2.3348 2.90376 0
M  V30 73124 H 7474.64 -1.44881 4.56669 0
M  V30 73125 H 7473 -0.861896 2.39674 0
M  V30 73126 H 7473.78 0.47493 3.39999 0
M  V30 73127 N 7476.23 -1.55558 -0.252884 0
M  V30 73128 C 7477.18 -1.90629 -1.33279 0
M  V30 73129 C 7478.17 -0.784717 -1.50128 0
M  V30 73130 O 7479.38 -0.969276 -1.51674 0
M  V30 73131 H 7475.75 -0.605344 -0.446164 0
M  V30 73132 H 7477.72 -2.80801 -1.00962 0
M  V30 73133 C 7476.47 -2.21227 -2.68242 0
M  V30 73134 H 7475.8 -3.07028 -2.56074 0
M  V30 73135 H 7477.24 -2.49674 -3.42694 0
M  V30 73136 C 7475.69 -1.02659 -3.20878 0
M  V30 73137 O 7476.22 -0.271504 -4.00781 0
M  V30 73138 N 7474.43 -0.818829 -2.78825 0
M  V30 73139 H 7473.98 -1.43456 -2.13959 0
M  V30 73140 H 7473.94 -0.0271646 -3.14388 0
M  V30 73141 N 7477.71 0.518289 -1.48834 0
M  V30 73142 C 7478.96 1.27095 -1.57135 0
M  V30 73143 C 7479.28 1.93362 -0.2522 0
M  V30 73144 O 7478.55 1.81903 0.727185 0
M  V30 73145 H 7477.13 0.472086 -0.578916 0
M  V30 73146 H 7479.79 0.602164 -1.85364 0
M  V30 73147 H 7478.88 2.04406 -2.35849 0
M  V30 73148 N 7479.19 1.37618 0.768051 0
M  V30 73149 C 7480.43 1.34433 1.53972 0
M  V30 73150 C 7480.79 -0.0695792 1.91874 0
M  V30 73151 O 7481.99 -0.226188 2.67847 0
M  V30 73152 C 7480.26 2.26049 2.76833 0
M  V30 73153 S 7481.82 2.40749 3.66859 0
M  V30 73154 H 7478.64 0.477184 0.527083 0
M  V30 73155 H 7481.24 1.73404 0.902854 0
M  V30 73156 H 7479.95 3.27693 2.47074 0
M  V30 73157 H 7479.48 1.88175 3.45476 0
M  V30 73158 H 7481.49 1.62082 4.68982 0
M  V30 73159 N 7480.66 -0.994634 1.22249 0
M  V30 73160 C 7481.9 -1.74914 1.05756 0
M  V30 73161 C 7482.27 -1.87774 -0.400601 0
M  V30 73162 O 7483.47 -2.5989 -0.686332 0
M  V30 73163 C 7481.74 -3.11778 1.74727 0
M  V30 73164 S 7483.3 -4.02989 1.73625 0
M  V30 73165 H 7480.12 -0.601714 0.378763 0
M  V30 73166 H 7482.72 -1.18934 1.55161 0
M  V30 73167 H 7481.42 -3.00059 2.79987 0
M  V30 73168 H 7480.95 -3.7283 1.25545 0
M  V30 73169 H 7482.97 -4.89956 0.784703 0
M  V30 73170 N 7482.14 -1.0319 -1.1912 0
M  V30 73171 C 7483.09 -0.615317 -2.22447 0
M  V30 73172 C 7484.06 0.372416 -1.61871 0
M  V30 73173 O 7485.24 0.268391 -1.88903 0
M  V30 73174 C 7482.38 0.0246207 -3.45091 0
M  V30 73175 C 7481.5 -1.00952 -4.20039 0
M  V30 73176 C 7480.63 -0.339023 -5.30117 0
M  V30 73177 C 7479.67 -1.35886 -5.96826 0
M  V30 73178 N 7478.81 -0.713962 -6.9846 0
M  V30 73179 H 7483.65 -1.501 -2.57437 0
M  V30 73180 H 7481.19 -0.751071 -1.26481 0
M  V30 73181 H 7483.14 0.412912 -4.15152 0
M  V30 73182 H 7481.77 0.873864 -3.10747 0
M  V30 73183 H 7480.83 -1.51584 -3.48893 0
M  V30 73184 H 7482.14 -1.7845 -4.65787 0
M  V30 73185 H 7481.29 0.10395 -6.06611 0
M  V30 73186 H 7480.03 0.468126 -4.85448 0
M  V30 73187 H 7479.04 -1.81207 -5.1908 0
M  V30 73188 H 7480.26 -2.16756 -6.43579 0
M  V30 73189 H 7478.21 0.0730404 -6.55959 0
M  V30 73190 H 7478.12 -1.42678 -7.42414 0
M  V30 73191 H 7479.39 -0.295092 -7.78941 0
M  V30 73192 N 7483.62 1.35181 -0.810173 0
M  V30 73193 C 7484.85 2.02901 -0.404803 0
M  V30 73194 C 7485.26 1.61048 0.985349 0
M  V30 73195 O 7484.62 0.809744 1.63552 0
M  V30 73196 C 7484.67 3.58263 -0.482682 0
M  V30 73197 O 7484.39 3.98597 -1.81803 0
M  V30 73198 C 7485.89 4.43244 -0.0705788 0
M  V30 73199 H 7483.11 0.650648 -0.164006 0
M  V30 73200 H 7485.66 1.72727 -1.09479 0
M  V30 73201 H 7483.81 3.87073 0.159092 0
M  V30 73202 H 7484.23 4.93252 -1.78332 0
M  V30 73203 H 7485.7 5.51719 -0.176179 0
M  V30 73204 H 7486.18 4.28024 0.984498 0
M  V30 73205 H 7486.78 4.19737 -0.685648 0
M  V30 73206 N 7485.1 0.563992 1.47163 0
M  V30 73207 C 7486.34 0.0449199 2.04351 0
M  V30 73208 C 7486.7 -1.28328 1.42814 0
M  V30 73209 O 7487.9 -1.89046 1.91089 0
M  V30 73210 C 7486.17 -0.039391 3.57378 0
M  V30 73211 S 7487.73 -0.503603 4.35901 0
M  V30 73212 H 7484.55 0.0284169 0.710432 0
M  V30 73213 H 7487.15 0.752261 1.80447 0
M  V30 73214 H 7485.86 0.931536 3.99688 0
M  V30 73215 H 7485.39 -0.770079 3.85789 0
M  V30 73216 H 7487.4 -1.76201 4.63862 0
M  V30 73217 N 7486.58 -1.54703 0.30079 0
M  V30 73218 C 7487.8 -2.04547 -0.311162 0
M  V30 73219 C 7488.22 -1.17808 -1.47535 0
M  V30 73220 O 7487.58 -0.203666 -1.8136 0
M  V30 73221 C 7487.63 -3.53257 -0.767597 0
M  V30 73222 O 7487.35 -4.36698 0.350257 0
M  V30 73223 C 7488.85 -4.19097 -1.44472 0
M  V30 73224 H 7486.07 -0.667583 -0.0676328 0
M  V30 73225 H 7488.61 -1.99702 0.440359 0
M  V30 73226 H 7486.77 -3.58462 -1.46914 0
M  V30 73227 H 7487.18 -5.245 -0.0050638 0
M  V30 73228 H 7488.66 -5.24674 -1.71525 0
M  V30 73229 H 7489.13 -3.6882 -2.38471 0
M  V30 73230 H 7489.74 -4.17967 -0.78636 0
M  V30 73231 N 7488.05 -0.0285097 -1.57574 0
M  V30 73232 C 7489.47 0.510408 -1.79588 0
M  V30 73233 C 7489.82 1.72286 -0.938716 0
M  V30 73234 O 7488.94 2.15887 -0.148954 0
M  V30 73235 C 7489.54 0.93274 -3.25708 0
M  V30 73236 C 7488.1 1.41678 -3.48718 0
M  V30 73237 C 7487.24 0.381211 -2.74667 0
M  V30 73238 H 7490.19 -0.254547 -1.56645 0
M  V30 73239 H 7490.21 1.79714 -3.35385 0
M  V30 73240 H 7489.73 0.0500989 -3.88068 0
M  V30 73241 H 7487.83 2.31937 -2.9161 0
M  V30 73242 H 7487.94 1.42457 -4.57431 0
M  V30 73243 H 7486.3 0.849173 -2.40127 0
M  V30 73244 H 7487.09 -0.492954 -3.39742 0
M  V30 73245 N 7489.53 1.5569 0.244631 0
M  V30 73246 C 7490.95 1.48164 0.593253 0
M  V30 73247 C 7491.15 0.719147 1.8823 0
M  V30 73248 O 7490.2 0.249425 2.51265 0
M  V30 73249 C 7491.52 2.92585 0.693878 0
M  V30 73250 C 7493.07 3.02969 0.786053 0
M  V30 73251 C 7493.54 4.48701 0.918221 0
M  V30 73252 N 7495.03 4.52649 0.983033 0
M  V30 73253 C 7495.77 5.6266 1.1046 0
M  V30 73254 N 7495.26 6.82476 1.19157 0
M  V30 73255 N 7497.06 5.50461 1.13794 0
M  V30 73256 H 7489.21 2.03703 -0.601554 0
M  V30 73257 H 7491.47 0.924913 -0.207943 0
M  V30 73258 H 7491.18 3.51222 -0.183319 0
M  V30 73259 H 7491.05 3.43199 1.56507 0
M  V30 73260 H 7493.44 2.44411 1.6537 0
M  V30 73261 H 7493.52 2.55562 -0.110336 0
M  V30 73262 H 7493.16 5.0787 0.0551203 0
M  V30 73263 H 7493.09 4.93792 1.82968 0
M  V30 73264 H 7495.58 3.66352 0.927075 0
M  V30 73265 H 7495.9 7.62068 1.28346 0
M  V30 73266 H 7494.24 6.85232 1.16111 0
M  V30 73267 H 7497.43 4.55789 1.06649 0
M  V30 73268 H 7497.6 6.36234 1.22923 0
M  V30 73269 N 7491.01 -0.510388 1.49107 0
M  V30 73270 C 7491.96 -1.63384 1.65555 0
M  V30 73271 C 7492.95 -1.6117 0.521607 0
M  V30 73272 O 7494.16 -1.65791 0.700953 0
M  V30 73273 H 7490.53 -0.541437 0.521872 0
M  V30 73274 H 7492.5 -1.4666 2.59872 0
M  V30 73275 C 7491.25 -3.01568 1.73067 0
M  V30 73276 H 7490.58 -3.03974 2.59692 0
M  V30 73277 H 7492.02 -3.79738 1.88614 0
M  V30 73278 C 7490.48 -3.33557 0.473456 0
M  V30 73279 O 7491.01 -3.99653 -0.405028 0
M  V30 73280 N 7489.21 -2.88613 0.339226 0
M  V30 73281 H 7488.76 -2.35001 1.05509 0
M  V30 73282 H 7488.72 -3.10384 -0.500897 0
M  V30 73283 N 7492.49 -1.38023 -0.760742 0
M  V30 73284 C 7493.4 -1.36894 -1.90518 0
M  V30 73285 C 7494.41 -0.266999 -1.71939 0
M  V30 73286 O 7495.59 -0.504233 -1.94986 0
M  V30 73287 C 7492.66 -1.18575 -3.25793 0
M  V30 73288 C 7491.72 -2.38509 -3.56948 0
M  V30 73289 C 7490.95 -2.21055 -4.85768 0
M  V30 73290 O 7491.17 -1.20052 -5.57623 0
M  V30 73291 O 7490.11 -3.09487 -5.16237 0
M  V30 73292 H 7493.93 -2.33308 -1.94424 0
M  V30 73293 H 7491.52 -1.18868 -0.905029 0
M  V30 73294 H 7493.4 -1.10391 -4.06684 0
M  V30 73295 H 7492.07 -0.252411 -3.22714 0
M  V30 73296 H 7490.98 -2.52267 -2.76247 0
M  V30 73297 H 7492.31 -3.30448 -3.6478 0
M  V30 73298 N 7493.97 0.988137 -1.22775 0
M  V30 73299 C 7495.2 1.76375 -1.08164 0
M  V30 73300 C 7495.61 1.85189 0.367475 0
M  V30 73301 O 7494.97 1.32548 1.25448 0
M  V30 73302 C 7495.02 3.19453 -1.6921 0
M  V30 73303 O 7494.74 3.11108 -3.08453 0
M  V30 73304 C 7496.24 4.13443 -1.59937 0
M  V30 73305 H 7493.46 0.553758 -0.378937 0
M  V30 73306 H 7496 1.24197 -1.62466 0
M  V30 73307 H 7494.16 3.68684 -1.18959 0
M  V30 73308 H 7494.57 4.01122 -3.37937 0
M  V30 73309 H 7496.05 5.11569 -2.07366 0
M  V30 73310 H 7496.52 4.35657 -0.556776 0
M  V30 73311 H 7497.13 3.70112 -2.09517 0
M  V30 73312 N 7495.45 1.03821 1.18571 0
M  V30 73313 C 7496.86 0.756983 1.40506 0
M  V30 73314 C 7497.06 -0.654531 1.90573 0
M  V30 73315 O 7496.12 -1.41911 2.08848 0
M  V30 73316 C 7497.43 1.80099 2.408 0
M  V30 73317 C 7498.98 1.82162 2.54531 0
M  V30 73318 C 7499.45 2.85548 3.58087 0
M  V30 73319 N 7500.94 2.84423 3.65592 0
M  V30 73320 C 7501.68 3.61071 4.45438 0
M  V30 73321 N 7501.18 4.47462 5.28913 0
M  V30 73322 N 7502.97 3.49571 4.40178 0
M  V30 73323 H 7495.12 1.94912 0.843972 0
M  V30 73324 H 7497.38 0.843211 0.433243 0
M  V30 73325 H 7497.09 2.81333 2.11056 0
M  V30 73326 H 7496.96 1.63107 3.40112 0
M  V30 73327 H 7499.35 0.816004 2.83594 0
M  V30 73328 H 7499.43 2.03231 1.55341 0
M  V30 73329 H 7499.07 3.86286 3.29765 0
M  V30 73330 H 7499 2.61734 4.56949 0
M  V30 73331 H 7501.5 2.21772 3.05983 0
M  V30 73332 H 7501.81 5.02663 5.86984 0
M  V30 73333 H 7500.15 4.5153 5.28342 0
M  V30 73334 H 7503.34 2.81484 3.74011 0
M  V30 73335 H 7503.52 4.09555 5.02164 0
M  V30 73336 N 7496.92 -1.3475 0.81733 0
M  V30 73337 C 7498.17 -1.98748 0.403349 0
M  V30 73338 C 7498.5 -1.64663 -1.02955 0
M  V30 73339 O 7497.78 -0.915404 -1.71612 0
M  V30 73340 C 7498.06 -3.55077 0.599375 0
M  V30 73341 C 7497.91 -3.98924 2.07798 0
M  V30 73342 C 7499.23 -4.40089 0.0317977 0
M  V30 73343 H 7496.35 -0.721981 0.148026 0
M  V30 73344 H 7498.99 -1.59733 1.02886 0
M  V30 73345 H 7497.14 -3.88442 0.0669164 0
M  V30 73346 H 7498.82 -3.75917 2.67365 0
M  V30 73347 H 7497.06 -3.49439 2.5705 0
M  V30 73348 H 7497.73 -5.0773 2.16598 0
M  V30 73349 H 7500.21 -4.13244 0.486658 0
M  V30 73350 H 7499.08 -5.4854 0.198796 0
M  V30 73351 H 7499.34 -4.29135 -1.0628 0
M  V30 73352 N 7498.4 -0.571788 -1.46862 0
M  V30 73353 C 7499.81 -0.142279 -1.86157 0
M  V30 73354 C 7500.16 1.29182 -1.4767 0
M  V30 73355 O 7499.29 1.97409 -0.886497 0
M  V30 73356 C 7499.88 -0.251434 -3.37866 0
M  V30 73357 C 7498.44 0.123131 -3.76199 0
M  V30 73358 C 7497.59 -0.592375 -2.70899 0
M  V30 73359 H 7500.54 -0.78066 -1.38172 0
M  V30 73360 H 7500.56 0.526133 -3.76845 0
M  V30 73361 H 7500.07 -1.29529 -3.65847 0
M  V30 73362 H 7498.17 1.16754 -3.53835 0
M  V30 73363 H 7498.29 -0.245582 -4.7847 0
M  V30 73364 H 7496.65 -0.033827 -2.54678 0
M  V30 73365 H 7497.43 -1.63767 -3.0172 0
M  V30 73366 N 7499.88 1.54541 -0.30899 0
M  V30 73367 C 7501.12 2.02206 0.298704 0
M  V30 73368 C 7501.48 1.19249 1.50478 0
M  V30 73369 O 7502.68 1.56649 2.18437 0
M  V30 73370 C 7500.96 3.51647 0.638664 0
M  V30 73371 S 7502.51 4.21264 1.22808 0
M  V30 73372 H 7499.33 0.705123 0.0912266 0
M  V30 73373 H 7501.93 1.90514 -0.438722 0
M  V30 73374 H 7500.64 4.09653 -0.247476 0
M  V30 73375 H 7500.17 3.67391 1.40667 0
M  V30 73376 H 7502.18 4.27707 2.51557 0
M  V30 73377 N 7501.36 0.0368658 1.57557 0
M  V30 73378 C 7502.58 -0.653604 1.96832 0
M  V30 73379 C 7503.01 -1.64421 0.913646 0
M  V30 73380 O 7502.37 -1.80871 -0.124653 0
M  V30 73381 C 7502.41 -1.32952 3.35196 0
M  V30 73382 O 7501.52 -2.44496 3.32108 0
M  V30 73383 H 7500.86 -0.17109 0.641579 0
M  V30 73384 H 7503.39 0.101019 2.0435 0
M  V30 73385 H 7503.4 -1.68452 3.71602 0
M  V30 73386 H 7502.07 -0.603437 4.11499 0
M  V30 73387 H 7500.65 -2.11049 3.07429 0
M  V30 73388 N 7502.84 -1.55817 -0.236371 0
M  V30 73389 C 7504.06 -1.82208 -0.980199 0
M  V30 73390 C 7504.48 -0.61402 -1.78536 0
M  V30 73391 O 7503.84 0.417397 -1.77663 0
M  V30 73392 C 7503.89 -3.06943 -1.90966 0
M  V30 73393 O 7503.61 -4.23087 -1.13706 0
M  V30 73394 C 7505.11 -3.46212 -2.76861 0
M  V30 73395 H 7502.33 -0.60607 -0.287958 0
M  V30 73396 H 7504.87 -2.0289 -0.256075 0
M  V30 73397 H 7503.03 -2.8828 -2.58792 0
M  V30 73398 H 7503.44 -4.93851 -1.76668 0
M  V30 73399 H 7504.92 -4.36566 -3.37808 0
M  V30 73400 H 7505.39 -2.6728 -3.48508 0
M  V30 73401 H 7506 -3.67263 -2.14471 0
M  V30 73402 N 7504.31 0.502474 -1.49375 0
M  V30 73403 C 7505.56 1.25855 -1.59023 0
M  V30 73404 C 7505.89 1.92237 -0.275421 0
M  V30 73405 O 7505.17 1.80647 0.720893 0
M  V30 73406 C 7505.45 2.32669 -2.7484 0
M  V30 73407 C 7505.3 1.70798 -4.16111 0
M  V30 73408 C 7506.62 3.34241 -2.86305 0
M  V30 73409 H 7503.74 0.456217 -0.578822 0
M  V30 73410 H 7506.38 0.556936 -1.81654 0
M  V30 73411 H 7504.53 2.92511 -2.55675 0
M  V30 73412 H 7506.21 1.14795 -4.46788 0
M  V30 73413 H 7504.45 1.01215 -4.21827 0
M  V30 73414 H 7505.12 2.48266 -4.93019 0
M  V30 73415 H 7507.6 2.84388 -3.03748 0
M  V30 73416 H 7506.47 4.06342 -3.69022 0
M  V30 73417 H 7506.73 3.96477 -1.95597 0
M  V30 73418 N 7505.79 1.38425 0.753412 0
M  V30 73419 C 7507.2 1.30951 1.33074 0
M  V30 73420 C 7507.55 -0.034609 1.96169 0
M  V30 73421 O 7506.68 -0.936665 1.95078 0
M  V30 73422 C 7507.27 2.37151 2.41961 0
M  V30 73423 C 7505.83 2.33255 2.95414 0
M  V30 73424 C 7504.98 2.20007 1.68796 0
M  V30 73425 H 7507.93 1.4878 0.552276 0
M  V30 73426 H 7507.95 2.02876 3.21903 0
M  V30 73427 H 7507.46 3.34966 1.96009 0
M  V30 73428 H 7505.56 1.39021 3.45693 0
M  V30 73429 H 7505.68 3.27399 3.49781 0
M  V30 73430 H 7504.04 1.66863 1.92429 0
M  V30 73431 H 7504.82 3.19765 1.24922 0
M  V30 73432 N 7507.27 -0.981612 1.23297 0
M  V30 73433 C 7508.52 -1.72529 1.06591 0
M  V30 73434 C 7508.85 -1.90111 -0.396438 0
M  V30 73435 O 7508.12 -1.45249 -1.29356 0
M  V30 73436 C 7508.41 -3.12427 1.79056 0
M  V30 73437 C 7508.26 -3.02424 3.32956 0
M  V30 73438 C 7509.58 -4.11824 1.55207 0
M  V30 73439 H 7506.7 -0.626215 0.388618 0
M  V30 73440 H 7509.34 -1.14285 1.51785 0
M  V30 73441 H 7507.49 -3.62151 1.40638 0
M  V30 73442 H 7509.16 -2.60234 3.80889 0
M  V30 73443 H 7507.4 -2.38958 3.62052 0
M  V30 73444 H 7508.08 -4.0147 3.78848 0
M  V30 73445 H 7510.55 -3.70903 1.886 0
M  V30 73446 H 7509.43 -5.07804 2.08389 0
M  V30 73447 H 7509.69 -4.39408 0.487157 0
M  V30 73448 N 7508.75 -1.04448 -1.18019 0
M  V30 73449 C 7509.98 -0.770262 -1.92028 0
M  V30 73450 C 7510.39 0.673088 -1.76394 0
M  V30 73451 O 7509.75 1.45916 -1.09612 0
M  V30 73452 C 7509.8 -1.13191 -3.43322 0
M  V30 73453 O 7509.52 -2.5186 -3.58466 0
M  V30 73454 C 7511.02 -0.882752 -4.34422 0
M  V30 73455 H 7508.24 -0.280618 -0.609504 0
M  V30 73456 H 7510.79 -1.39316 -1.49704 0
M  V30 73457 H 7508.94 -0.553906 -3.8342 0
M  V30 73458 H 7509.35 -2.65818 -4.52151 0
M  V30 73459 H 7510.83 -1.18562 -5.39117 0
M  V30 73460 H 7511.31 0.182338 -4.38821 0
M  V30 73461 H 7511.91 -1.44424 -4.00027 0
M  V30 73462 N 7510.23 1.34314 -0.824465 0
M  V30 73463 C 7511.45 2.02461 -0.426301 0
M  V30 73464 C 7511.87 1.62084 0.968213 0
M  V30 73465 O 7511.23 0.827046 1.62684 0
M  V30 73466 C 7511.28 3.57731 -0.520653 0
M  V30 73467 O 7511 3.96646 -1.86021 0
M  V30 73468 C 7512.5 4.43144 -0.117587 0
M  V30 73469 H 7509.72 0.648872 -0.170898 0
M  V30 73470 H 7512.26 1.71556 -1.11305 0
M  V30 73471 H 7510.42 3.8722 0.118029 0
M  V30 73472 H 7510.83 4.91333 -1.83554 0
M  V30 73473 H 7512.31 5.51501 -0.234686 0
M  V30 73474 H 7512.78 4.29044 0.939045 0
M  V30 73475 H 7513.39 4.18986 -0.730129 0
M  V30 73476 N 7511.7 0.579569 1.46556 0
M  V30 73477 C 7512.61 -0.158036 2.34067 0
M  V30 73478 C 7513.63 -0.889241 1.49561 0
M  V30 73479 O 7514.81 -0.853129 1.82438 0
M  V30 73480 C 7511.87 -1.16082 3.26689 0
M  V30 73481 C 7510.93 -0.43463 4.27094 0
M  V30 73482 C 7510.17 -1.38965 5.15291 0
M  V30 73483 O 7510.39 -2.62597 5.06359 0
M  V30 73484 O 7509.32 -0.901939 5.95104 0
M  V30 73485 H 7513.15 0.560391 2.98485 0
M  V30 73486 H 7510.73 0.339994 1.4548 0
M  V30 73487 H 7512.62 -1.73911 3.8384 0
M  V30 73488 H 7511.29 -1.86077 2.64871 0
M  V30 73489 H 7510.2 0.185421 3.7364 0
M  V30 73490 H 7511.53 0.22429 4.91689 0
M  V30 73491 N 7513.18 -1.54375 0.317181 0
M  V30 73492 C 7514.43 -2.00748 -0.28773 0
M  V30 73493 C 7514.76 -1.2051 -1.52286 0
M  V30 73494 O 7514.04 -0.285728 -1.9239 0
M  V30 73495 C 7514.32 -3.54578 -0.628236 0
M  V30 73496 C 7514.17 -4.45546 0.617157 0
M  V30 73497 C 7515.49 -4.15583 -1.4484 0
M  V30 73498 H 7512.61 -0.729752 -0.103105 0
M  V30 73499 H 7515.25 -1.85012 0.432493 0
M  V30 73500 H 7513.4 -3.68118 -1.24184 0
M  V30 73501 H 7515.07 -4.43886 1.25549 0
M  V30 73502 H 7513.32 -4.15482 1.24728 0
M  V30 73503 H 7513.99 -5.50985 0.334534 0
M  V30 73504 H 7516.46 -4.05578 -0.929801 0
M  V30 73505 H 7515.34 -5.23342 -1.65542 0
M  V30 73506 H 7515.6 -3.68496 -2.4426 0
M  V30 73507 N 7514.66 -0.0452209 -1.57535 0
M  V30 73508 C 7515.89 0.643156 -1.97176 0
M  V30 73509 C 7516.31 1.63934 -0.922352 0
M  V30 73510 O 7515.67 1.80935 0.115059 0
M  V30 73511 C 7515.72 1.31172 -3.35896 0
M  V30 73512 O 7514.82 2.42731 -3.334 0
M  V30 73513 H 7514.16 0.167685 -0.642478 0
M  V30 73514 H 7516.69 -0.111855 -2.04294 0
M  V30 73515 H 7516.7 1.66479 -3.7249 0
M  V30 73516 H 7515.38 0.581606 -4.11813 0
M  V30 73517 H 7513.95 2.09416 -3.08544 0
M  V30 73518 N 7516.14 1.55941 0.228104 0
M  V30 73519 C 7517.37 1.8246 0.969115 0
M  V30 73520 C 7517.78 0.621227 1.7871 0
M  V30 73521 O 7517.12 -0.419599 1.78844 0
M  V30 73522 C 7517.18 3.02616 1.94072 0
M  V30 73523 C 7516.85 4.37885 1.30788 0
M  V30 73524 C 7517.84 5.15152 0.701004 0
M  V30 73525 C 7515.53 4.84602 1.32161 0
M  V30 73526 C 7517.52 6.37294 0.116295 0
M  V30 73527 C 7515.21 6.06687 0.733055 0
M  V30 73528 C 7516.21 6.82874 0.131444 0
M  V30 73529 O 7515.89 8.02651 -0.447972 0
M  V30 73530 H 7515.63 0.610674 0.289919 0
M  V30 73531 H 7518.18 2.03867 0.250469 0
M  V30 73532 H 7516.41 2.77011 2.69818 0
M  V30 73533 H 7518.1 3.16064 2.54673 0
M  V30 73534 H 7518.87 4.8017 0.682769 0
M  V30 73535 H 7514.74 4.2528 1.77927 0
M  V30 73536 H 7518.29 6.96702 -0.353906 0
M  V30 73537 H 7514.19 6.41144 0.748681 0
M  V30 73538 H 7514.95 8.17787 -0.341655 0
M  V30 73539 N 7517.62 -0.494545 1.4964 0
M  V30 73540 C 7518.58 -1.57766 1.6626 0
M  V30 73541 C 7519.58 -1.5167 0.534134 0
M  V30 73542 O 7520.77 -1.54707 0.800719 0
M  V30 73543 C 7517.9 -2.97418 1.666 0
M  V30 73544 H 7519.09 -1.44356 2.62872 0
M  V30 73545 H 7516.65 -0.71925 1.38768 0
M  V30 73546 H 7517.38 -3.16298 0.715965 0
M  V30 73547 H 7517.17 -3.03251 2.48559 0
M  V30 73548 H 7518.66 -3.76098 1.81494 0
M  V30 73549 N 7519.09 -1.38823 -0.74606 0
M  V30 73550 C 7520.34 -1.35175 -1.5024 0
M  V30 73551 C 7520.66 0.0552503 -1.94922 0
M  V30 73552 O 7519.93 1.0044 -1.68192 0
M  V30 73553 H 7518.51 -0.497407 -0.557311 0
M  V30 73554 H 7521.18 -1.73578 -0.886381 0
M  V30 73555 H 7520.27 -2.00741 -2.38976 0
M  V30 73556 N 7520.57 0.975059 -1.23816 0
M  V30 73557 C 7521.81 1.73209 -1.08526 0
M  V30 73558 C 7522.18 1.88388 0.370677 0
M  V30 73559 O 7523.38 2.60949 0.644898 0
M  V30 73560 C 7521.65 3.08958 -1.79665 0
M  V30 73561 S 7523.21 4.00175 -1.80014 0
M  V30 73562 H 7520.03 0.595612 -0.388287 0
M  V30 73563 H 7522.63 1.1645 -1.57034 0
M  V30 73564 H 7521.33 2.95566 -2.84726 0
M  V30 73565 H 7520.86 3.70785 -1.3146 0
M  V30 73566 H 7522.88 4.88646 -0.862552 0
M  V30 73567 N 7522.05 1.05072 1.17463 0
M  V30 73568 C 7523.28 0.780435 1.91616 0
M  V30 73569 C 7523.69 -0.663723 1.76749 0
M  V30 73570 O 7523.05 -1.45333 1.10384 0
M  V30 73571 C 7523.1 1.15011 3.42717 0
M  V30 73572 O 7522.82 2.53758 3.57126 0
M  V30 73573 C 7524.32 0.905778 4.33948 0
M  V30 73574 H 7521.54 0.283846 0.608007 0
M  V30 73575 H 7524.09 1.40108 1.48963 0
M  V30 73576 H 7522.24 0.574232 3.83121 0
M  V30 73577 H 7522.66 2.68212 4.50735 0
M  V30 73578 H 7524.13 1.21419 5.38481 0
M  V30 73579 H 7524.61 -0.159064 4.38912 0
M  V30 73580 H 7525.21 1.46543 3.99256 0
M  V30 73581 N 7523.53 -1.33875 0.831576 0
M  V30 73582 C 7524.48 -2.29358 0.25757 0
M  V30 73583 C 7525.45 -1.53993 -0.622523 0
M  V30 73584 O 7526.63 -1.82325 -0.562336 0
M  V30 73585 C 7523.77 -3.40403 -0.567408 0
M  V30 73586 C 7522.88 -4.30692 0.335894 0
M  V30 73587 C 7522.02 -5.28846 -0.499483 0
M  V30 73588 C 7521.06 -6.10774 0.402665 0
M  V30 73589 N 7520.2 -7.00993 -0.39415 0
M  V30 73590 H 7525.04 -2.77852 1.07715 0
M  V30 73591 H 7522.57 -1.36725 0.542661 0
M  V30 73592 H 7524.53 -4.0348 -1.06112 0
M  V30 73593 H 7523.16 -2.93122 -1.35202 0
M  V30 73594 H 7522.21 -3.68401 0.947874 0
M  V30 73595 H 7523.52 -4.88066 1.02922 0
M  V30 73596 H 7522.68 -5.97416 -1.05732 0
M  V30 73597 H 7521.42 -4.72032 -1.22628 0
M  V30 73598 H 7520.42 -5.41129 0.972574 0
M  V30 73599 H 7521.65 -6.69671 1.12771 0
M  V30 73600 H 7519.59 -6.46636 -1.10446 0
M  V30 73601 H 7519.51 -7.55617 0.240607 0
M  V30 73602 H 7520.78 -7.73879 -0.934459 0
M  V30 73603 N 7525.01 -0.587333 -1.46247 0
M  V30 73604 C 7526.24 -0.080439 -2.06744 0
M  V30 73605 C 7526.65 1.22652 -1.43534 0
M  V30 73606 O 7526.01 1.74258 -0.54226 0
M  V30 73607 C 7526.06 0.0871563 -3.61395 0
M  V30 73608 O 7525.78 -1.16808 -4.22241 0
M  V30 73609 C 7527.28 0.627864 -4.38831 0
M  V30 73610 H 7524.5 -0.0595654 -0.668351 0
M  V30 73611 H 7527.04 -0.809316 -1.87804 0
M  V30 73612 H 7525.2 0.766273 -3.79746 0
M  V30 73613 H 7525.61 -0.984837 -5.15171 0
M  V30 73614 H 7527.09 0.694294 -5.47616 0
M  V30 73615 H 7527.56 1.64584 -4.07196 0
M  V30 73616 H 7528.17 -0.0165357 -4.25297 0
M  V30 73617 N 7526.49 1.54205 -0.325364 0
M  V30 73618 C 7527.73 2.00898 0.277079 0
M  V30 73619 C 7528.06 1.21316 1.51645 0
M  V30 73620 O 7527.34 0.295927 1.92236 0
M  V30 73621 C 7527.62 3.54906 0.609423 0
M  V30 73622 C 7527.48 4.45212 -0.640776 0
M  V30 73623 C 7528.79 4.16345 1.42635 0
M  V30 73624 H 7525.91 0.730289 0.0992337 0
M  V30 73625 H 7528.56 1.8478 -0.442299 0
M  V30 73626 H 7526.71 3.68771 1.2223 0
M  V30 73627 H 7528.38 4.43214 -1.27901 0
M  V30 73628 H 7526.62 4.14815 -1.2693 0
M  V30 73629 H 7527.29 5.508 -0.363749 0
M  V30 73630 H 7529.77 4.06066 0.908279 0
M  V30 73631 H 7528.64 5.24213 1.62765 0
M  V30 73632 H 7528.9 3.69787 2.42302 0
M  V30 73633 N 7527.96 0.0535747 1.57509 0
M  V30 73634 C 7528.89 -0.917886 2.14702 0
M  V30 73635 C 7529.87 -1.32287 1.06931 0
M  V30 73636 O 7531.06 -1.39716 1.34882 0
M  V30 73637 C 7528.19 -2.19189 2.69395 0
M  V30 73638 C 7527.14 -1.92689 3.82171 0
M  V30 73639 C 7526.47 -3.26565 4.23391 0
M  V30 73640 C 7527.77 -1.24659 5.07206 0
M  V30 73641 H 7529.46 -0.441494 2.96127 0
M  V30 73642 H 7527.01 -0.210917 1.42447 0
M  V30 73643 H 7528.96 -2.87551 3.08046 0
M  V30 73644 H 7527.69 -2.69038 1.85165 0
M  V30 73645 H 7526.35 -1.26739 3.43995 0
M  V30 73646 H 7525.99 -3.74219 3.36108 0
M  V30 73647 H 7525.69 -3.09632 4.99402 0
M  V30 73648 H 7527.22 -3.96154 4.64644 0
M  V30 73649 H 7528.63 -1.83059 5.43288 0
M  V30 73650 H 7527.03 -1.18045 5.88375 0
M  V30 73651 H 7528.1 -0.222972 4.84387 0
M  V30 73652 N 7529.44 -1.56059 -0.219831 0
M  V30 73653 C 7530.37 -1.87573 -1.29968 0
M  V30 73654 C 7531.35 -0.733279 -1.45127 0
M  V30 73655 O 7532.54 -0.981813 -1.60912 0
M  V30 73656 C 7529.66 -2.08425 -2.66977 0
M  V30 73657 C 7528.71 -3.31113 -2.68824 0
M  V30 73658 S 7529.54 -4.86987 -2.2272 0
M  V30 73659 C 7530.7 -5.10878 -3.616 0
M  V30 73660 H 7530.93 -2.78871 -1.03044 0
M  V30 73661 H 7528.46 -1.48517 -0.422155 0
M  V30 73662 H 7530.42 -2.21123 -3.45854 0
M  V30 73663 H 7529.08 -1.1792 -2.91125 0
M  V30 73664 H 7528.28 -3.42754 -3.69508 0
M  V30 73665 H 7527.88 -3.17281 -1.98011 0
M  V30 73666 H 7530.17 -4.99881 -4.57302 0
M  V30 73667 H 7531.11 -6.12756 -3.54874 0
M  V30 73668 H 7531.52 -4.38605 -3.55367 0
M  V30 73669 N 7530.92 0.486602 -1.499 0
M  V30 73670 C 7531.87 1.60729 -1.68134 0
M  V30 73671 C 7532.86 1.60319 -0.547181 0
M  V30 73672 O 7534.07 1.64655 -0.72724 0
M  V30 73673 H 7530.44 0.533066 -0.530419 0
M  V30 73674 H 7532.41 1.42507 -2.62172 0
M  V30 73675 C 7531.16 2.98776 -1.77843 0
M  V30 73676 H 7530.49 2.99804 -2.64495 0
M  V30 73677 H 7531.93 3.76689 -1.94631 0
M  V30 73678 C 7530.38 3.32761 -0.526462 0
M  V30 73679 O 7530.91 4.00247 0.341396 0
M  V30 73680 N 7529.12 2.88037 -0.385099 0
M  V30 73681 H 7528.67 2.33293 -1.09235 0
M  V30 73682 H 7528.63 3.11142 0.451454 0
M  V30 73683 N 7532.4 1.39216 0.738688 0
M  V30 73684 C 7533.35 1.34134 1.84369 0
M  V30 73685 C 7534.33 0.222877 1.59349 0
M  V30 73686 O 7535.52 0.460104 1.70915 0
M  V30 73687 C 7532.65 1.18351 3.22255 0
M  V30 73688 C 7531.74 2.34882 3.53116 0
M  V30 73689 N 7532.13 3.60351 3.54938 0
M  V30 73690 C 7530.43 2.2776 3.8346 0
M  V30 73691 C 7531.13 4.3739 3.8349 0
M  V30 73692 N 7530.1 3.66931 4.01077 0
M  V30 73693 H 7533.91 2.29113 1.84077 0
M  V30 73694 H 7531.42 1.3266 0.936756 0
M  V30 73695 H 7533.42 1.12793 4.01352 0
M  V30 73696 H 7532.08 0.243187 3.23788 0
M  V30 73697 H 7533.09 3.93824 3.36338 0
M  V30 73698 H 7529.77 1.41969 3.92621 0
M  V30 73699 H 7531.16 5.46129 3.91398 0
M  V30 73700 N 7533.88 -0.968479 1.24331 0
M  V30 73701 C 7535.12 -1.72631 1.09443 0
M  V30 73702 C 7535.48 -1.88582 -0.360681 0
M  V30 73703 O 7536.68 -2.61288 -0.631051 0
M  V30 73704 C 7534.95 -3.08001 1.81301 0
M  V30 73705 S 7536.51 -3.99215 1.82134 0
M  V30 73706 H 7533.33 -0.593545 0.391441 0
M  V30 73707 H 7535.93 -1.15616 1.57649 0
M  V30 73708 H 7534.63 -2.94052 2.86289 0
M  V30 73709 H 7534.17 -3.70083 1.33425 0
M  V30 73710 H 7536.18 -4.88181 0.888454 0
M  V30 73711 N 7535.35 -1.05694 -1.16904 0
M  V30 73712 C 7536.58 -0.790579 -1.91741 0
M  V30 73713 C 7537 0.648385 -1.76572 0
M  V30 73714 O 7536.36 1.45108 -1.08689 0
M  V30 73715 C 7536.41 -1.1824 -3.40663 0
M  V30 73716 O 7535.51 -0.317558 -4.11176 0
M  V30 73717 H 7534.85 -0.289462 -0.597585 0
M  V30 73718 H 7537.38 -1.41113 -1.48149 0
M  V30 73719 H 7537.39 -1.15135 -3.91418 0
M  V30 73720 H 7536.07 -2.23058 -3.51024 0
M  V30 73721 H 7534.65 -0.409655 -3.70643 0
M  V30 73722 N 7536.83 1.33432 -0.838664 0
M  V30 73723 C 7538.08 1.97398 -0.433416 0
M  V30 73724 C 7538.4 1.66763 1.01069 0
M  V30 73725 O 7537.67 0.966463 1.704 0
M  V30 73726 H 7536.25 0.730255 -0.157279 0
M  V30 73727 H 7538.91 1.62798 -1.07158 0
M  V30 73728 H 7538.01 3.06938 -0.565306 0
M  V30 73729 N 7538.31 0.59508 1.45933 0
M  V30 73730 C 7539.54 0.0895509 2.07207 0
M  V30 73731 C 7539.96 -1.2115 1.4389 0
M  V30 73732 O 7539.32 -1.73469 0.52709 0
M  V30 73733 C 7539.37 -0.0497926 3.60566 0
M  V30 73734 O 7538.47 -1.10321 3.9737 0
M  V30 73735 H 7537.81 0.0683975 0.660468 0
M  V30 73736 H 7540.34 0.821539 1.87382 0
M  V30 73737 H 7540.35 -0.252019 4.07221 0
M  V30 73738 H 7539.03 0.900274 4.06039 0
M  V30 73739 H 7537.6 -0.878454 3.62405 0
M  V30 73740 N 7539.79 -1.5403 0.333537 0
M  V30 73741 C 7541.03 -2.02655 -0.266497 0
M  V30 73742 C 7541.39 -1.21628 -1.48562 0
M  V30 73743 O 7542.59 -1.60104 -2.15917 0
M  V30 73744 C 7540.86 -3.52619 -0.582639 0
M  V30 73745 S 7542.42 -4.23165 -1.16091 0
M  V30 73746 H 7539.24 -0.706485 -0.0799972 0
M  V30 73747 H 7541.84 -1.89792 0.468976 0
M  V30 73748 H 7540.55 -4.09208 0.312617 0
M  V30 73749 H 7540.08 -3.69583 -1.34804 0
M  V30 73750 H 7542.09 -4.31655 -2.44721 0
M  V30 73751 N 7541.27 -0.0619271 -1.57478 0
M  V30 73752 C 7542.51 0.608234 -1.9273 0
M  V30 73753 C 7542.84 1.70744 -0.941889 0
M  V30 73754 O 7542.11 1.95897 0.0115575 0
M  V30 73755 H 7540.69 0.227663 -0.711462 0
M  V30 73756 H 7543.35 -0.117461 -1.94546 0
M  V30 73757 H 7542.44 1.03992 -2.94265 0
M  V30 73758 N 7542.74 1.56174 0.211552 0
M  V30 73759 C 7543.97 1.83744 0.951087 0
M  V30 73760 C 7544.39 0.642346 1.77537 0
M  V30 73761 O 7543.74 -0.38908 1.78304 0
M  V30 73762 C 7543.8 3.09943 1.86058 0
M  V30 73763 O 7543.52 4.24842 1.06961 0
M  V30 73764 C 7545.02 3.50573 2.71318 0
M  V30 73765 H 7542.24 0.610575 0.27828 0
M  V30 73766 H 7544.78 2.03272 0.223764 0
M  V30 73767 H 7542.94 2.92361 2.54173 0
M  V30 73768 H 7543.35 4.96599 1.68789 0
M  V30 73769 H 7544.82 4.41885 3.30819 0
M  V30 73770 H 7545.3 2.72791 3.44212 0
M  V30 73771 H 7545.91 3.70629 2.08601 0
M  V30 73772 N 7544.22 -0.478646 1.50156 0
M  V30 73773 C 7545.47 -1.23127 1.60767 0
M  V30 73774 C 7545.8 -1.92101 0.304521 0
M  V30 73775 O 7545.05 -1.82401 -0.709117 0
M  V30 73776 C 7545.35 -2.30403 2.7322 0
M  V30 73777 C 7545.02 -1.78733 4.13963 0
M  V30 73778 C 7543.68 -1.64362 4.52259 0
M  V30 73779 C 7546.03 -1.40318 5.01957 0
M  V30 73780 C 7543.36 -1.09987 5.76298 0
M  V30 73781 C 7545.71 -0.873875 6.26535 0
M  V30 73782 C 7544.38 -0.716735 6.63641 0
M  V30 73783 H 7543.65 -0.450554 0.588287 0
M  V30 73784 H 7546.29 -0.528454 1.84064 0
M  V30 73785 H 7544.6 -3.06562 2.43981 0
M  V30 73786 H 7546.29 -2.88381 2.78635 0
M  V30 73787 H 7542.88 -1.90884 3.83746 0
M  V30 73788 H 7547.07 -1.50258 4.73008 0
M  V30 73789 H 7542.32 -0.96552 6.03728 0
M  V30 73790 H 7546.5 -0.567517 6.94084 0
M  V30 73791 H 7544.13 -0.293238 7.59634 0
M  V30 73792 N 7545.7 -1.39606 -0.731294 0
M  V30 73793 C 7546.95 -1.37234 -1.49314 0
M  V30 73794 C 7547.28 0.0305478 -1.94176 0
M  V30 73795 O 7546.55 0.996206 -1.67051 0
M  V30 73796 C 7546.84 -2.34799 -2.73023 0
M  V30 73797 C 7546.69 -3.84046 -2.34156 0
M  V30 73798 C 7548.01 -2.30136 -3.75134 0
M  V30 73799 H 7545.13 -0.499811 -0.541625 0
M  V30 73800 H 7547.77 -1.70626 -0.835878 0
M  V30 73801 H 7545.92 -2.06454 -3.29103 0
M  V30 73802 H 7547.59 -4.23155 -1.83678 0
M  V30 73803 H 7545.84 -4.00641 -1.6634 0
M  V30 73804 H 7546.51 -4.47804 -3.22762 0
M  V30 73805 H 7548.98 -2.55206 -3.28647 0
M  V30 73806 H 7547.86 -3.00475 -4.59354 0
M  V30 73807 H 7548.12 -1.30763 -4.22319 0
M  V30 73808 N 7547.18 0.961872 -1.24843 0
M  V30 73809 C 7548.11 2.05648 -0.989149 0
M  V30 73810 C 7549.09 1.62407 0.0791134 0
M  V30 73811 O 7550.27 1.88408 -0.0590391 0
M  V30 73812 C 7547.4 3.3508 -0.493838 0
M  V30 73813 C 7546.45 3.97278 -1.55153 0
M  V30 73814 S 7547.28 4.34169 -3.13461 0
M  V30 73815 C 7548.44 5.6673 -2.65647 0
M  V30 73816 H 7548.67 2.27325 -1.916 0
M  V30 73817 H 7546.2 1.10055 -1.08292 0
M  V30 73818 H 7548.16 4.09938 -0.214699 0
M  V30 73819 H 7546.82 3.11381 0.412395 0
M  V30 73820 H 7546.01 4.90575 -1.15551 0
M  V30 73821 H 7545.62 3.28873 -1.78098 0
M  V30 73822 H 7547.91 6.44515 -2.08822 0
M  V30 73823 H 7548.85 6.11195 -3.57556 0
M  V30 73824 H 7549.26 5.25617 -2.05881 0
M  V30 73825 N 7548.66 1.06312 1.16342 0
M  V30 73826 C 7549.89 0.799554 1.90501 0
M  V30 73827 C 7550.29 -0.649861 1.77689 0
M  V30 73828 O 7549.64 -1.45663 1.11929 0
M  V30 73829 C 7549.7 1.1151 3.41769 0
M  V30 73830 C 7549.36 2.56297 3.78366 0
M  V30 73831 C 7550.36 3.54529 3.8027 0
M  V30 73832 C 7548.05 2.91601 4.08991 0
M  V30 73833 C 7550.04 4.86106 4.12287 0
M  V30 73834 C 7547.73 4.23378 4.40675 0
M  V30 73835 C 7548.72 5.2044 4.42302 0
M  V30 73836 O 7548.41 6.49851 4.73233 0
M  V30 73837 H 7548.14 0.289391 0.610925 0
M  V30 73838 H 7550.7 1.42007 1.48402 0
M  V30 73839 H 7548.93 0.437509 3.84217 0
M  V30 73840 H 7550.62 0.835742 3.97203 0
M  V30 73841 H 7551.38 3.28596 3.56721 0
M  V30 73842 H 7547.26 2.16707 4.06889 0
M  V30 73843 H 7550.81 5.6186 4.13472 0
M  V30 73844 H 7546.7 4.49069 4.63689 0
M  V30 73845 H 7547.47 6.54843 4.91043 0
M  V30 73846 N 7550.13 -1.32986 0.845729 0
M  V30 73847 C 7551.36 -2.0229 0.457542 0
M  V30 73848 C 7551.78 -1.63184 -0.935548 0
M  V30 73849 O 7551.14 -0.82792 -1.61292 0
M  V30 73850 C 7551.19 -3.55676 0.593853 0
M  V30 73851 O 7550.29 -4.10673 -0.377073 0
M  V30 73852 H 7549.64 -0.637691 0.185056 0
M  V30 73853 H 7552.17 -1.69732 1.14246 0
M  V30 73854 H 7552.18 -4.0519 0.478047 0
M  V30 73855 H 7550.85 -3.83483 1.60977 0
M  V30 73856 H 7549.43 -3.72261 -0.218252 0
M  V30 73857 N 7551.61 -0.602811 -1.45616 0
M  V30 73858 C 7552.58 0.108842 -2.28941 0
M  V30 73859 C 7553.58 0.799688 -1.39505 0
M  V30 73860 O 7554.77 0.648578 -1.61676 0
M  V30 73861 C 7551.9 1.16415 -3.20407 0
M  V30 73862 H 7553.09 -0.623689 -2.93343 0
M  V30 73863 H 7550.64 -0.361645 -1.52059 0
M  V30 73864 H 7551.38 1.9276 -2.60795 0
M  V30 73865 H 7551.16 0.673044 -3.8628 0
M  V30 73866 H 7552.65 1.6627 -3.83072 0
M  V30 73867 N 7553.09 1.53851 -0.341701 0
M  V30 73868 C 7554.04 2.24959 0.51594 0
M  V30 73869 C 7555.01 1.24716 1.09705 0
M  V30 73870 O 7556.19 1.53444 1.13401 0
M  V30 73871 C 7553.33 3.02448 1.66191 0
M  V30 73872 C 7552.45 4.17542 1.10829 0
M  V30 73873 C 7551.58 4.82521 2.22141 0
M  V30 73874 C 7550.62 5.89687 1.64121 0
M  V30 73875 N 7549.76 6.48454 2.69168 0
M  V30 73876 H 7554.6 2.97842 -0.0969845 0
M  V30 73877 H 7552.13 1.46979 -0.059634 0
M  V30 73878 H 7554.09 3.45632 2.33654 0
M  V30 73879 H 7552.72 2.31865 2.24585 0
M  V30 73880 H 7551.77 3.79012 0.324653 0
M  V30 73881 H 7553.09 4.94627 0.64389 0
M  V30 73882 H 7552.24 5.28767 2.97473 0
M  V30 73883 H 7550.98 4.04856 2.71924 0
M  V30 73884 H 7549.98 5.42826 0.872941 0
M  V30 73885 H 7551.21 6.69259 1.15192 0
M  V30 73886 H 7549.16 5.73654 3.18209 0
M  V30 73887 H 7549.07 7.21006 2.27345 0
M  V30 73888 H 7550.34 6.99353 3.44275 0
M  V30 73889 N 7554.57 0.0702777 1.57443 0
M  V30 73890 C 7555.53 -0.882811 2.11516 0
M  V30 73891 C 7556.53 -1.22737 1.03886 0
M  V30 73892 O 7557.72 -1.1609 1.2988 0
M  V30 73893 C 7554.85 -2.18672 2.61525 0
M  V30 73894 H 7556.05 -0.413716 2.97033 0
M  V30 73895 H 7553.6 -0.178406 1.55278 0
M  V30 73896 H 7554.34 -2.70121 1.79458 0
M  V30 73897 H 7554.12 -1.9496 3.40195 0
M  V30 73898 H 7555.61 -2.86903 3.03441 0
M  V30 73899 N 7556.05 -1.56284 -0.203266 0
M  V30 73900 C 7556.98 -1.90409 -1.27582 0
M  V30 73901 C 7557.99 -0.793985 -1.42126 0
M  V30 73902 O 7559.18 -1.07237 -1.42697 0
M  V30 73903 C 7556.28 -2.1137 -2.64907 0
M  V30 73904 C 7555.45 -3.4248 -2.72077 0
M  V30 73905 C 7554.51 -3.52652 -3.90542 0
M  V30 73906 O 7553.54 -4.25541 -3.78026 0
M  V30 73907 N 7554.74 -2.85138 -5.05645 0
M  V30 73908 H 7557.51 -2.83007 -0.986273 0
M  V30 73909 H 7555.07 -1.57052 -0.393227 0
M  V30 73910 H 7557.06 -2.15471 -3.4257 0
M  V30 73911 H 7555.63 -1.2531 -2.86385 0
M  V30 73912 H 7554.85 -3.50318 -1.80751 0
M  V30 73913 H 7556.14 -4.28815 -2.73852 0
M  V30 73914 H 7555.54 -2.25732 -5.18711 0
M  V30 73915 H 7554.09 -2.94877 -5.81284 0
M  V30 73916 N 7557.53 0.470676 -1.50407 0
M  V30 73917 C 7558.49 1.55101 -1.68749 0
M  V30 73918 C 7559.49 1.50801 -0.558196 0
M  V30 73919 O 7560.68 1.53413 -0.82523 0
M  V30 73920 C 7557.81 2.9473 -1.71311 0
M  V30 73921 H 7559 1.40155 -2.65135 0
M  V30 73922 H 7556.56 0.697082 -1.39894 0
M  V30 73923 H 7557.29 3.15119 -0.766195 0
M  V30 73924 H 7557.08 2.99258 -2.53352 0
M  V30 73925 H 7558.57 3.73163 -1.87454 0
M  V30 73926 N 7559 1.39992 0.72388 0
M  V30 73927 C 7559.93 1.42345 1.85095 0
M  V30 73928 C 7560.91 0.285386 1.67689 0
M  V30 73929 O 7562.1 0.492815 1.87843 0
M  V30 73930 C 7559.23 1.27714 3.22965 0
M  V30 73931 C 7558.18 2.39037 3.55029 0
M  V30 73932 C 7557.51 2.09488 4.91954 0
M  V30 73933 C 7558.81 3.81368 3.56869 0
M  V30 73934 H 7560.5 2.36666 1.83384 0
M  V30 73935 H 7558.05 1.13916 0.880866 0
M  V30 73936 H 7560 1.27979 4.01496 0
M  V30 73937 H 7558.73 0.298658 3.25232 0
M  V30 73938 H 7557.39 2.38008 2.78833 0
M  V30 73939 H 7557.03 1.10051 4.90813 0
M  V30 73940 H 7556.73 2.84065 5.14374 0
M  V30 73941 H 7558.26 2.11421 5.72829 0
M  V30 73942 H 7559.67 3.84266 4.25456 0
M  V30 73943 H 7558.07 4.55396 3.90812 0
M  V30 73944 H 7559.14 4.11547 2.56431 0
M  V30 73945 N 7560.48 -0.955238 1.25351 0
M  V30 73946 C 7561.76 -1.67604 1.00838 0
M  V30 73947 C 7562.14 -2.05902 -0.465566 0
M  V30 73948 O 7561.49 -1.7719 -1.44277 0
M  V30 73949 C 7561.7 -2.89876 1.94352 0
M  V30 73950 C 7563.04 -3.61842 2.22161 0
M  V30 73951 O 7564.07 -2.99956 1.92106 0
M  V30 73952 O 7562.93 -4.73275 2.73264 0
M  V30 73953 H 7560.02 -0.733305 0.382353 0
M  V30 73954 H 7562.57 -1.00822 1.36503 0
M  V30 73955 H 7561.34 -2.5836 2.9388 0
M  V30 73956 H 7560.96 -3.64389 1.59081 0
M  V30 73957 N 7561.96 -1.06928 -1.15777 0
M  V30 73958 C 7562.91 -0.655652 -2.18369 0
M  V30 73959 C 7563.89 0.317001 -1.57746 0
M  V30 73960 O 7565.09 0.131416 -1.76511 0
M  V30 73961 C 7562.21 -0.0504124 -3.43263 0
M  V30 73962 C 7561.3 -1.04795 -4.10949 0
M  V30 73963 N 7561.69 -2.22591 -4.54188 0
M  V30 73964 C 7559.99 -0.880317 -4.37226 0
M  V30 73965 C 7560.69 -2.85842 -5.06626 0
M  V30 73966 N 7559.67 -2.13531 -4.99905 0
M  V30 73967 H 7563.47 -1.55289 -2.49524 0
M  V30 73968 H 7560.98 -0.941862 -1.32298 0
M  V30 73969 H 7562.98 0.263783 -4.16065 0
M  V30 73970 H 7561.64 0.842002 -3.13593 0
M  V30 73971 H 7562.65 -2.60333 -4.47713 0
M  V30 73972 H 7559.33 -0.040435 -4.1748 0
M  V30 73973 H 7560.72 -3.85837 -5.50072 0
M  V30 73974 N 7563.44 1.32535 -0.85277 0
M  V30 73975 C 7564.66 2.02045 -0.468263 0
M  V30 73976 C 7565.09 1.63678 0.926881 0
M  V30 73977 O 7564.45 0.836462 1.60851 0
M  V30 73978 C 7564.49 3.55357 -0.612707 0
M  V30 73979 O 7563.6 4.10867 0.355289 0
M  V30 73980 H 7562.94 0.636701 -0.188435 0
M  V30 73981 H 7565.47 1.69124 -1.15144 0
M  V30 73982 H 7565.48 4.0493 -0.499529 0
M  V30 73983 H 7564.15 3.82624 -1.63009 0
M  V30 73984 H 7562.73 3.72371 0.198507 0
M  V30 73985 N 7564.92 0.610525 1.45294 0
M  V30 73986 C 7566.16 0.10991 2.04104 0
M  V30 73987 C 7566.52 -1.23719 1.46825 0
M  V30 73988 O 7567.72 -1.82871 1.97007 0
M  V30 73989 C 7565.99 0.0743261 3.57323 0
M  V30 73990 S 7567.55 -0.36467 4.37282 0
M  V30 73991 H 7564.37 0.0510044 0.709168 0
M  V30 73992 H 7566.97 0.809288 1.77963 0
M  V30 73993 H 7565.67 1.05822 3.96522 0
M  V30 73994 H 7565.21 -0.646953 3.88044 0
M  V30 73995 H 7567.22 -1.61354 4.69233 0
M  V30 73996 N 7566.39 -1.53668 0.349855 0
M  V30 73997 C 7567.62 -2.05905 -0.248583 0
M  V30 73998 C 7568.04 -1.22274 -1.42936 0
M  V30 73999 O 7567.4 -0.237993 -1.79731 0
M  V30 74000 C 7567.45 -3.54957 -0.635452 0
M  V30 74001 O 7566.55 -3.74142 -1.7347 0
M  V30 74002 H 7565.89 -0.662799 -0.0399128 0
M  V30 74003 H 7568.42 -1.98247 0.505899 0
M  V30 74004 H 7568.43 -3.97703 -0.910854 0
M  V30 74005 H 7567.11 -4.15274 0.228024 0
M  V30 74006 H 7565.69 -3.43297 -1.45608 0
M  V30 74007 N 7567.87 -0.0786263 -1.57404 0
M  V30 74008 C 7569.11 0.592491 -1.95624 0
M  V30 74009 C 7569.48 1.66362 -0.958516 0
M  V30 74010 O 7570.68 2.39078 -1.22862 0
M  V30 74011 C 7568.95 1.14828 -3.38451 0
M  V30 74012 S 7570.51 1.83357 -3.98655 0
M  V30 74013 H 7567.33 0.193815 -0.684074 0
M  V30 74014 H 7569.93 -0.15411 -1.94892 0
M  V30 74015 H 7568.63 0.356964 -4.08845 0
M  V30 74016 H 7568.16 1.93109 -3.42743 0
M  V30 74017 H 7570.18 3.11656 -3.86115 0
M  V30 74018 N 7569.35 1.56389 0.194975 0
M  V30 74019 C 7570.59 1.82418 0.922114 0
M  V30 74020 C 7570.95 0.656132 1.80441 0
M  V30 74021 O 7572.16 0.796318 2.56734 0
M  V30 74022 C 7570.43 3.13471 1.71671 0
M  V30 74023 S 7571.99 3.60906 2.49585 0
M  V30 74024 H 7568.8 0.640208 0.309282 0
M  V30 74025 H 7571.41 1.94618 0.18551 0
M  V30 74026 H 7570.11 3.96497 1.05916 0
M  V30 74027 H 7569.64 3.0415 2.49512 0
M  V30 74028 H 7571.66 3.26351 3.73777 0
M  V30 74029 N 7570.83 -0.462693 1.50655 0
M  V30 74030 C 7571.78 -1.55962 1.70131 0
M  V30 74031 C 7572.75 -1.56985 0.542664 0
M  V30 74032 O 7573.93 -1.74387 0.774206 0
M  V30 74033 C 7571.07 -2.93878 1.80914 0
M  V30 74034 C 7570.18 -3.02579 3.08334 0
M  V30 74035 C 7569.32 -4.3146 3.09864 0
M  V30 74036 C 7568.36 -4.33935 4.31703 0
M  V30 74037 N 7567.49 -5.54301 4.30924 0
M  V30 74038 H 7572.33 -1.3866 2.63775 0
M  V30 74039 H 7569.87 -0.674022 1.30749 0
M  V30 74040 H 7571.83 -3.73867 1.85148 0
M  V30 74041 H 7570.46 -3.09795 0.907017 0
M  V30 74042 H 7569.51 -2.1541 3.13532 0
M  V30 74043 H 7570.82 -3.00267 3.98298 0
M  V30 74044 H 7569.98 -5.19803 3.12873 0
M  V30 74045 H 7568.72 -4.36393 2.17745 0
M  V30 74046 H 7567.72 -3.43988 4.28897 0
M  V30 74047 H 7568.95 -4.30687 5.25058 0
M  V30 74048 H 7566.89 -5.60002 3.41663 0
M  V30 74049 H 7566.81 -5.53765 5.14666 0
M  V30 74050 H 7568.08 -6.44746 4.3809 0
M  V30 74051 N 7572.31 -1.40374 -0.716446 0
M  V30 74052 C 7573.22 -1.42886 -1.86067 0
M  V30 74053 C 7574.23 -0.321565 -1.71003 0
M  V30 74054 O 7575.41 -0.566011 -1.93283 0
M  V30 74055 C 7572.47 -1.2888 -3.21855 0
M  V30 74056 C 7571.53 -2.49744 -3.49179 0
M  V30 74057 C 7570.77 -2.36397 -4.78489 0
M  V30 74058 O 7570.99 -1.37732 -5.53522 0
M  V30 74059 O 7569.92 -3.25754 -5.0613 0
M  V30 74060 H 7573.75 -2.39376 -1.86903 0
M  V30 74061 H 7571.34 -1.21687 -0.866753 0
M  V30 74062 H 7573.22 -1.23274 -4.02966 0
M  V30 74063 H 7571.89 -0.354953 -3.21748 0
M  V30 74064 H 7570.8 -2.60928 -2.68081 0
M  V30 74065 H 7572.13 -3.41886 -3.54083 0
M  V30 74066 N 7573.78 0.948577 -1.25856 0
M  V30 74067 C 7574.69 2.07988 -1.08527 0
M  V30 74068 C 7575.71 1.73988 -0.0207614 0
M  V30 74069 O 7576.89 2.00162 -0.222959 0
M  V30 74070 C 7573.95 3.39303 -0.712324 0
M  V30 74071 C 7573.01 3.87133 -1.85544 0
M  V30 74072 C 7572.25 5.12182 -1.50019 0
M  V30 74073 O 7572.47 5.69006 -0.398568 0
M  V30 74074 O 7571.4 5.5487 -2.33244 0
M  V30 74075 H 7575.23 2.25511 -2.03417 0
M  V30 74076 H 7572.81 1.06428 -1.0485 0
M  V30 74077 H 7574.7 4.1822 -0.516732 0
M  V30 74078 H 7573.37 3.23036 0.207246 0
M  V30 74079 H 7572.28 3.09194 -2.10594 0
M  V30 74080 H 7573.61 4.07909 -2.75447 0
M  V30 74081 N 7575.26 1.0754 1.15208 0
M  V30 74082 C 7576.21 0.697453 2.2001 0
M  V30 74083 C 7577.18 -0.312082 1.63142 0
M  V30 74084 O 7578.36 -0.198096 1.89769 0
M  V30 74085 C 7575.5 0.103475 3.44945 0
M  V30 74086 C 7574.62 1.16472 4.16003 0
M  V30 74087 C 7573.75 0.535539 5.28494 0
M  V30 74088 C 7572.79 1.57944 5.91371 0
M  V30 74089 N 7571.93 0.972699 6.95329 0
M  V30 74090 H 7576.77 1.59551 2.51689 0
M  V30 74091 H 7574.31 0.797496 1.23606 0
M  V30 74092 H 7576.26 -0.258546 4.16398 0
M  V30 74093 H 7574.89 -0.75793 3.13776 0
M  V30 74094 H 7573.95 1.64429 3.43027 0
M  V30 74095 H 7575.26 1.95614 4.58843 0
M  V30 74096 H 7574.41 0.121262 6.06579 0
M  V30 74097 H 7573.15 -0.287632 4.86851 0
M  V30 74098 H 7572.16 2.00347 5.11997 0
M  V30 74099 H 7573.38 2.40493 6.35091 0
M  V30 74100 H 7571.33 0.170465 6.55778 0
M  V30 74101 H 7571.24 1.70133 7.36608 0
M  V30 74102 H 7572.51 0.583987 7.77309 0
M  V30 74103 N 7576.74 -1.32081 0.859786 0
M  V30 74104 C 7577.97 -2.01259 0.47983 0
M  V30 74105 C 7578.38 -1.64594 -0.924899 0
M  V30 74106 O 7577.74 -0.869888 -1.60434 0
M  V30 74107 C 7577.79 -3.56225 0.615316 0
M  V30 74108 O 7577.51 -3.91574 1.96472 0
M  V30 74109 C 7579.01 -4.42676 0.235037 0
M  V30 74110 H 7576.23 -0.644113 0.188041 0
M  V30 74111 H 7578.78 -1.68545 1.15814 0
M  V30 74112 H 7576.93 -3.87397 -0.0153225 0
M  V30 74113 H 7577.35 -4.86294 1.96516 0
M  V30 74114 H 7578.82 -5.50685 0.380824 0
M  V30 74115 H 7579.3 -4.31383 -0.824962 0
M  V30 74116 H 7579.9 -4.16903 0.840959 0
M  V30 74117 N 7578.22 -0.618222 -1.44968 0
M  V30 74118 C 7579.44 -0.122504 -2.07038 0
M  V30 74119 C 7579.87 1.18845 -1.45799 0
M  V30 74120 O 7579.23 1.72608 -0.554621 0
M  V30 74121 C 7579.27 -0.00757655 -3.60599 0
M  V30 74122 O 7578.38 1.03986 -3.99075 0
M  V30 74123 H 7577.72 -0.0788963 -0.659296 0
M  V30 74124 H 7580.25 -0.851246 -1.86051 0
M  V30 74125 H 7580.26 0.187202 -4.0757 0
M  V30 74126 H 7578.93 -0.964758 -4.04556 0
M  V30 74127 H 7577.51 0.820687 -3.63757 0
M  V30 74128 N 7579.7 1.5348 -0.358 0
M  V30 74129 C 7580.63 2.23068 0.526636 0
M  V30 74130 C 7581.64 1.24218 1.05232 0
M  V30 74131 O 7582.83 1.50487 0.959999 0
M  V30 74132 C 7579.93 2.90879 1.73904 0
M  V30 74133 C 7579.1 4.1617 1.34616 0
M  V30 74134 C 7578.16 4.6726 2.41981 0
M  V30 74135 O 7577.19 5.31124 2.04686 0
M  V30 74136 N 7578.39 4.44423 3.73454 0
M  V30 74137 H 7581.16 2.9962 -0.0693966 0
M  V30 74138 H 7578.72 1.60865 -0.182811 0
M  V30 74139 H 7580.71 3.21969 2.4519 0
M  V30 74140 H 7579.28 2.17826 2.24211 0
M  V30 74141 H 7578.5 3.91466 0.463461 0
M  V30 74142 H 7579.79 4.97639 1.05986 0
M  V30 74143 H 7579.18 3.93379 4.06534 0
M  V30 74144 H 7577.74 4.80083 4.40867 0
M  V30 74145 N 7581.17 0.0869727 1.5736 0
M  V30 74146 C 7582.59 -0.269679 1.57305 0
M  V30 74147 C 7582.79 -1.68986 1.09753 0
M  V30 74148 O 7581.85 -2.40463 0.770297 0
M  V30 74149 C 7583.16 -0.0655061 3.00629 0
M  V30 74150 C 7584.71 -0.13388 3.12714 0
M  V30 74151 C 7585.18 0.0421984 4.57981 0
M  V30 74152 N 7586.67 -0.0129059 4.63198 0
M  V30 74153 C 7587.41 0.0986988 5.73315 0
M  V30 74154 N 7586.9 0.26468 6.92294 0
M  V30 74155 N 7588.7 0.0405481 5.62085 0
M  V30 74156 H 7580.85 1.01497 1.8658 0
M  V30 74157 H 7583.11 0.3971 0.860823 0
M  V30 74158 H 7582.82 0.91507 3.39587 0
M  V30 74159 H 7582.69 -0.811328 3.68371 0
M  V30 74160 H 7585.08 -1.10495 2.73633 0
M  V30 74161 H 7585.16 0.643297 2.47579 0
M  V30 74162 H 7584.8 1.01011 4.97754 0
M  V30 74163 H 7584.73 -0.754572 5.21166 0
M  V30 74164 H 7587.22 -0.138984 3.77644 0
M  V30 74165 H 7587.54 0.341573 7.72045 0
M  V30 74166 H 7585.88 0.300242 6.94351 0
M  V30 74167 H 7589.07 -0.0879333 4.68017 0
M  V30 74168 H 7589.25 0.130976 6.47868 0
M  V30 74169 N 7582.65 -1.5649 -0.186679 0
M  V30 74170 C 7583.56 -1.98425 -1.25158 0
M  V30 74171 C 7584.58 -0.893203 -1.49325 0
M  V30 74172 O 7585.76 -1.19963 -1.61774 0
M  V30 74173 C 7582.82 -2.32252 -2.5741 0
M  V30 74174 C 7581.88 -3.55107 -2.41241 0
M  V30 74175 C 7581.11 -3.87312 -3.67186 0
M  V30 74176 O 7581.34 -3.2069 -4.71714 0
M  V30 74177 O 7580.27 -4.80714 -3.62212 0
M  V30 74178 H 7584.1 -2.89249 -0.925682 0
M  V30 74179 H 7581.68 -1.44156 -0.392345 0
M  V30 74180 H 7583.56 -2.55048 -3.35453 0
M  V30 74181 H 7582.24 -1.44595 -2.8961 0
M  V30 74182 H 7581.15 -3.37549 -1.61281 0
M  V30 74183 H 7582.48 -4.43258 -2.1397 0
M  V30 74184 N 7584.13 0.454697 -1.50898 0
M  V30 74185 C 7585.38 1.20732 -1.62946 0
M  V30 74186 C 7585.71 1.91263 -0.33644 0
M  V30 74187 O 7584.99 1.82849 0.663056 0
M  V30 74188 C 7585.27 2.23807 -2.82103 0
M  V30 74189 C 7585.12 1.57473 -4.21334 0
M  V30 74190 C 7586.44 3.24964 -2.96794 0
M  V30 74191 H 7583.56 0.437571 -0.593043 0
M  V30 74192 H 7586.2 0.498863 -1.83334 0
M  V30 74193 H 7584.35 2.84229 -2.64852 0
M  V30 74194 H 7586.02 1.00522 -4.50214 0
M  V30 74195 H 7584.27 0.87744 -4.24833 0
M  V30 74196 H 7584.94 2.32455 -5.00668 0
M  V30 74197 H 7587.41 2.74581 -3.12641 0
M  V30 74198 H 7586.29 3.94396 -3.81763 0
M  V30 74199 H 7586.55 3.90054 -2.08112 0
M  V30 74200 N 7585.61 1.40752 0.708992 0
M  V30 74201 C 7586.86 1.39593 1.47111 0
M  V30 74202 C 7587.19 0.000347729 1.942 0
M  V30 74203 O 7586.46 -0.969504 1.68615 0
M  V30 74204 C 7586.75 2.39113 2.69253 0
M  V30 74205 C 7586.6 3.87722 2.28016 0
M  V30 74206 C 7587.92 2.36075 3.71425 0
M  V30 74207 H 7585.04 0.508365 0.533605 0
M  V30 74208 H 7587.68 1.71934 0.808627 0
M  V30 74209 H 7585.83 2.11664 3.25777 0
M  V30 74210 H 7587.5 4.26023 1.76923 0
M  V30 74211 H 7585.74 4.03237 1.59945 0
M  V30 74212 H 7586.42 4.52883 3.15597 0
M  V30 74213 H 7588.89 2.60403 3.24545 0
M  V30 74214 H 7587.77 3.07745 4.54516 0
M  V30 74215 H 7588.03 1.37465 4.20185 0
M  V30 74216 N 7587.09 -0.941889 1.26357 0
M  V30 74217 C 7588.02 -2.05779 1.10351 0
M  V30 74218 C 7589 -1.70098 0.00890535 0
M  V30 74219 O 7590.18 -1.93357 0.180801 0
M  V30 74220 C 7587.31 -3.39434 0.734967 0
M  V30 74221 C 7586.27 -3.89174 1.78123 0
M  V30 74222 C 7585.59 -5.19471 1.26702 0
M  V30 74223 C 7586.89 -4.14134 3.18261 0
M  V30 74224 H 7588.59 -2.19427 2.03696 0
M  V30 74225 H 7586.13 -1.05438 0.980754 0
M  V30 74226 H 7588.09 -4.16963 0.609873 0
M  V30 74227 H 7586.81 -3.25759 -0.234182 0
M  V30 74228 H 7585.47 -3.13825 1.89499 0
M  V30 74229 H 7585.12 -5.02176 0.287737 0
M  V30 74230 H 7584.82 -5.5372 1.96641 0
M  V30 74231 H 7586.34 -5.99585 1.15458 0
M  V30 74232 H 7587.76 -4.82279 3.09967 0
M  V30 74233 H 7586.15 -4.59663 3.85785 0
M  V30 74234 H 7587.22 -3.1994 3.64371 0
M  V30 74235 N 7588.57 -1.0815 -1.14636 0
M  V30 74236 C 7589.79 -0.831073 -1.90021 0
M  V30 74237 C 7590.22 0.610785 -1.77907 0
M  V30 74238 O 7589.57 1.4277 -1.11743 0
M  V30 74239 C 7589.62 -1.2544 -3.38079 0
M  V30 74240 O 7588.73 -0.404703 -4.10409 0
M  V30 74241 H 7588.07 -0.302072 -0.591311 0
M  V30 74242 H 7590.6 -1.44224 -1.45123 0
M  V30 74243 H 7590.61 -1.23411 -3.88888 0
M  V30 74244 H 7589.28 -2.30454 -3.46214 0
M  V30 74245 H 7587.86 -0.488181 -3.69691 0
M  V30 74246 N 7590.04 1.31623 -0.866779 0
M  V30 74247 C 7591.28 1.98621 -0.482584 0
M  V30 74248 C 7591.65 1.67035 0.946756 0
M  V30 74249 O 7592.85 2.27219 1.43614 0
M  V30 74250 C 7591.12 3.49891 -0.728767 0
M  V30 74251 S 7592.68 4.36548 -0.443954 0
M  V30 74252 H 7589.5 0.687766 -0.180274 0
M  V30 74253 H 7592.1 1.6009 -1.12211 0
M  V30 74254 H 7590.8 3.7037 -1.76789 0
M  V30 74255 H 7590.33 3.93326 -0.0761104 0
M  V30 74256 H 7592.35 4.90874 0.725081 0
M  V30 74257 N 7591.52 0.625901 1.44638 0
M  V30 74258 C 7592.93 0.211272 1.85501 0
M  V30 74259 C 7593.28 -1.23612 1.52363 0
M  V30 74260 O 7592.41 -1.93982 0.959153 0
M  V30 74261 C 7593 0.376658 3.367 0
M  V30 74262 C 7591.56 0.016578 3.76396 0
M  V30 74263 C 7590.71 0.692509 2.68514 0
M  V30 74264 H 7593.66 0.831404 1.35179 0
M  V30 74265 H 7593.68 -0.385907 3.78538 0
M  V30 74266 H 7593.19 1.43018 3.60787 0
M  V30 74267 H 7591.29 -1.03541 3.57924 0
M  V30 74268 H 7591.41 0.422994 4.77229 0
M  V30 74269 H 7589.77 0.128326 2.54377 0
M  V30 74270 H 7590.55 1.74852 2.95434 0
M  V30 74271 N 7593 -1.53288 0.366134 0
M  V30 74272 C 7593.95 -2.27268 -0.495199 0
M  V30 74273 C 7594.94 -1.30267 -1.08291 0
M  V30 74274 O 7596.15 -1.47893 -1.02605 0
M  V30 74275 H 7592.52 -0.730528 -0.178416 0
M  V30 74276 H 7594.49 -2.9802 0.150511 0
M  V30 74277 C 7593.24 -3.07514 -1.62267 0
M  V30 74278 H 7592.57 -3.81998 -1.17973 0
M  V30 74279 H 7594.01 -3.62455 -2.20005 0
M  V30 74280 C 7592.46 -2.18389 -2.56531 0
M  V30 74281 O 7592.99 -1.79505 -3.59362 0
M  V30 74282 N 7591.2 -1.83011 -2.25733 0
M  V30 74283 H 7590.75 -2.1483 -1.42148 0
M  V30 74284 H 7590.71 -1.23665 -2.89058 0
M  V30 74285 N 7594.48 -0.0953166 -1.57311 0
M  V30 74286 C 7595.73 0.567216 -1.93977 0
M  V30 74287 C 7596.05 1.68708 -0.977894 0
M  V30 74288 O 7595.32 1.95877 -0.0299977 0
M  V30 74289 H 7593.9 0.21252 -0.716131 0
M  V30 74290 H 7596.56 -0.158701 -1.94253 0
M  V30 74291 H 7595.65 0.977267 -2.96405 0
M  V30 74292 N 7595.96 1.56587 0.178377 0
M  V30 74293 C 7597.2 1.81233 0.894369 0
M  V30 74294 C 7597.52 0.671159 1.83086 0
M  V30 74295 O 7596.79 -0.309455 1.9344 0
M  V30 74296 H 7595.37 0.668544 0.333253 0
M  V30 74297 H 7598.04 1.94068 0.179883 0
M  V30 74298 H 7597.13 2.75019 1.4755 0
M  V30 74299 N 7597.43 -0.446688 1.51137 0
M  V30 74300 C 7598.66 -1.22418 1.67417 0
M  V30 74301 C 7599.08 -1.84483 0.367106 0
M  V30 74302 O 7598.44 -1.68396 -0.671762 0
M  V30 74303 C 7598.49 -2.29082 2.78485 0
M  V30 74304 O 7597.59 -3.34338 2.41437 0
M  V30 74305 H 7596.94 -0.359081 0.558531 0
M  V30 74306 H 7599.47 -0.528696 1.97651 0
M  V30 74307 H 7599.48 -2.74014 3.02292 0
M  V30 74308 H 7598.15 -1.83284 3.73336 0
M  V30 74309 H 7596.73 -2.94948 2.28167 0
M  V30 74310 N 7598.91 -1.41126 -0.701517 0
M  V30 74311 C 7599.84 -1.45271 -1.82807 0
M  V30 74312 C 7600.82 -0.312027 -1.67214 0
M  V30 74313 O 7602.01 -0.522637 -1.87035 0
M  V30 74314 C 7599.14 -1.32836 -3.20892 0
M  V30 74315 C 7598.09 -2.44655 -3.51181 0
M  V30 74316 C 7597.42 -2.17288 -4.88559 0
M  V30 74317 C 7598.72 -3.86998 -3.50756 0
M  V30 74318 H 7600.41 -2.39554 -1.79595 0
M  V30 74319 H 7597.96 -1.15302 -0.862632 0
M  V30 74320 H 7599.91 -1.3435 -3.9941 0
M  V30 74321 H 7598.64 -0.350362 -3.24715 0
M  V30 74322 H 7597.29 -2.42414 -2.75011 0
M  V30 74323 H 7596.94 -1.17845 -4.89001 0
M  V30 74324 H 7596.64 -2.92213 -5.0979 0
M  V30 74325 H 7598.17 -2.20508 -5.69393 0
M  V30 74326 H 7599.58 -3.90986 -4.19289 0
M  V30 74327 H 7597.98 -4.61556 -3.83518 0
M  V30 74328 H 7599.05 -4.15575 -2.49851 0
M  V30 74329 N 7600.39 0.935175 -1.26855 0
M  V30 74330 C 7601.62 1.71629 -1.15547 0
M  V30 74331 C 7602.03 1.86581 0.288599 0
M  V30 74332 O 7601.39 1.37749 1.19714 0
M  V30 74333 C 7601.44 3.11989 -1.82606 0
M  V30 74334 O 7601.16 2.97746 -3.21371 0
M  V30 74335 C 7602.66 4.06287 -1.77329 0
M  V30 74336 H 7599.88 0.537187 -0.402083 0
M  V30 74337 H 7602.43 1.17195 -1.67588 0
M  V30 74338 H 7600.58 3.63306 -1.34489 0
M  V30 74339 H 7601 3.86428 -3.54646 0
M  V30 74340 H 7602.47 5.02314 -2.28877 0
M  V30 74341 H 7602.95 4.32903 -0.741052 0
M  V30 74342 H 7603.55 3.60893 -2.25026 0
M  V30 74343 N 7601.87 1.08756 1.14061 0
M  V30 74344 C 7602.82 0.69031 2.17299 0
M  V30 74345 C 7603.8 -0.291865 1.58231 0
M  V30 74346 O 7604.99 -0.103318 1.76698 0
M  V30 74347 C 7602.12 0.105016 3.43139 0
M  V30 74348 C 7601.21 1.11319 4.0923 0
M  V30 74349 N 7601.6 2.29789 4.50589 0
M  V30 74350 C 7599.9 0.949765 4.3577 0
M  V30 74351 C 7600.6 2.93865 5.02014 0
M  V30 74352 N 7599.58 2.21458 4.96445 0
M  V30 74353 H 7603.38 1.59239 2.47022 0
M  V30 74354 H 7600.89 0.962791 1.30783 0
M  V30 74355 H 7602.89 -0.197558 4.16432 0
M  V30 74356 H 7601.55 -0.792005 3.14893 0
M  V30 74357 H 7602.56 2.67423 4.43515 0
M  V30 74358 H 7599.24 0.106847 4.17363 0
M  V30 74359 H 7600.63 3.9454 5.43864 0
M  V30 74360 N 7603.35 -1.31162 0.873747 0
M  V30 74361 C 7604.57 -2.00739 0.501149 0
M  V30 74362 C 7604.99 -1.65565 -0.907389 0
M  V30 74363 O 7604.35 -0.886855 -1.59503 0
M  V30 74364 C 7604.4 -3.55552 0.653064 0
M  V30 74365 O 7604.12 -3.89469 2.00614 0
M  V30 74366 C 7605.62 -4.42402 0.281976 0
M  V30 74367 H 7602.84 -0.642082 0.194863 0
M  V30 74368 H 7605.38 -1.67307 1.17595 0
M  V30 74369 H 7603.54 -3.87391 0.025767 0
M  V30 74370 H 7603.95 -4.84182 2.01663 0
M  V30 74371 H 7605.43 -5.5025 0.43921 0
M  V30 74372 H 7605.9 -4.32233 -0.779161 0
M  V30 74373 H 7606.51 -4.15987 0.885129 0
M  V30 74374 N 7604.82 -0.633563 -1.44304 0
M  V30 74375 C 7606.05 -0.14596 -2.06084 0
M  V30 74376 C 7606.46 1.18569 -1.47438 0
M  V30 74377 O 7605.81 1.73877 -0.592666 0
M  V30 74378 C 7605.87 0.0405952 -3.59477 0
M  V30 74379 C 7605.53 -1.21327 -4.406 0
M  V30 74380 C 7606.53 -2.13753 -4.73926 0
M  V30 74381 C 7604.21 -1.44937 -4.80935 0
M  V30 74382 C 7606.21 -3.28097 -5.46471 0
M  V30 74383 C 7603.89 -2.59577 -5.5323 0
M  V30 74384 C 7604.89 -3.50984 -5.85918 0
M  V30 74385 O 7604.58 -4.63625 -6.5674 0
M  V30 74386 H 7604.31 -0.0780439 -0.67148 0
M  V30 74387 H 7606.87 -0.868757 -1.86123 0
M  V30 74388 H 7605.1 0.818562 -3.77937 0
M  V30 74389 H 7606.79 0.48306 -4.03015 0
M  V30 74390 H 7607.55 -1.96748 -4.433 0
M  V30 74391 H 7603.43 -0.746777 -4.54911 0
M  V30 74392 H 7606.97 -3.99465 -5.71903 0
M  V30 74393 H 7602.87 -2.76524 -5.83271 0
M  V30 74394 H 7603.64 -4.62638 -6.7521 0
M  V30 74395 N 7606.3 1.53092 -0.374258 0
M  V30 74396 C 7607.53 2.05798 0.213216 0
M  V30 74397 C 7607.95 1.24713 1.41747 0
M  V30 74398 O 7607.3 0.289963 1.80182 0
M  V30 74399 C 7607.35 3.56517 0.598179 0
M  V30 74400 O 7607.07 4.34529 -0.558212 0
M  V30 74401 C 7608.58 4.25513 1.24312 0
M  V30 74402 H 7605.8 0.670049 0.0357045 0
M  V30 74403 H 7608.34 1.97374 -0.535139 0
M  V30 74404 H 7606.49 3.65063 1.29644 0
M  V30 74405 H 7606.91 5.23927 -0.245188 0
M  V30 74406 H 7608.38 5.3226 1.46297 0
M  V30 74407 H 7608.86 3.79778 2.20602 0
M  V30 74408 H 7609.47 4.21243 0.586047 0
M  V30 74409 N 7607.78 0.103658 1.57259 0
M  V30 74410 C 7608.73 -0.86299 2.11037 0
M  V30 74411 C 7609.71 -1.23825 1.02743 0
M  V30 74412 O 7610.91 -1.2119 1.29004 0
M  V30 74413 C 7608.04 -2.11885 2.7011 0
M  V30 74414 C 7607.12 -1.76864 3.85461 0
M  V30 74415 N 7607.51 -1.12443 4.93143 0
M  V30 74416 C 7605.81 -2.0642 3.95356 0
M  V30 74417 C 7606.51 -0.962224 5.73686 0
M  V30 74418 N 7605.49 -1.4823 5.23 0
M  V30 74419 H 7609.29 -0.36111 2.91673 0
M  V30 74420 H 7606.8 -0.0992939 1.62096 0
M  V30 74421 H 7608.8 -2.82088 3.06972 0
M  V30 74422 H 7607.46 -2.62631 1.90932 0
M  V30 74423 H 7608.47 -0.790219 5.11836 0
M  V30 74424 H 7605.15 -2.5932 3.27199 0
M  V30 74425 H 7606.54 -0.457745 6.70339 0
M  V30 74426 N 7609.26 -1.5668 -0.170071 0
M  V30 74427 C 7610.51 -1.81257 -0.884807 0
M  V30 74428 C 7610.82 -0.681121 -1.83358 0
M  V30 74429 O 7612.03 -0.811859 -2.59077 0
M  V30 74430 C 7610.48 -3.21181 -1.62391 0
M  V30 74431 C 7610.09 -4.42197 -0.718714 0
M  V30 74432 C 7611.83 -3.5505 -2.3268 0
M  V30 74433 C 7609.74 -5.73143 -1.45812 0
M  V30 74434 H 7608.67 -0.675917 -0.334144 0
M  V30 74435 H 7611.32 -1.82982 -0.137722 0
M  V30 74436 H 7609.7 -3.13776 -2.4158 0
M  V30 74437 H 7610.88 -4.60786 0.0362951 0
M  V30 74438 H 7609.19 -4.16211 -0.125415 0
M  V30 74439 H 7611.79 -4.50129 -2.88597 0
M  V30 74440 H 7612.13 -2.7999 -3.08077 0
M  V30 74441 H 7612.67 -3.64013 -1.60434 0
M  V30 74442 H 7609.41 -6.51236 -0.746456 0
M  V30 74443 H 7608.93 -5.5853 -2.18643 0
M  V30 74444 H 7610.6 -6.15141 -2.00527 0
M  V30 74445 N 7610.74 0.438666 -1.51372 0
M  V30 74446 C 7611.65 1.55759 -1.75432 0
M  V30 74447 C 7612.66 1.61862 -0.638495 0
M  V30 74448 O 7613.84 1.79128 -0.920595 0
M  V30 74449 C 7610.9 2.91751 -1.87303 0
M  V30 74450 C 7609.96 2.95775 -3.11152 0
M  V30 74451 C 7609.2 4.2528 -3.22448 0
M  V30 74452 O 7609.42 5.17584 -2.39715 0
M  V30 74453 O 7608.35 4.35561 -4.15416 0
M  V30 74454 H 7612.18 1.38371 -2.70346 0
M  V30 74455 H 7609.77 0.621538 -1.35858 0
M  V30 74456 H 7611.65 3.72462 -1.97105 0
M  V30 74457 H 7610.32 3.09268 -0.955762 0
M  V30 74458 H 7609.23 2.14024 -3.0683 0
M  V30 74459 H 7610.56 2.83201 -4.02564 0
M  V30 74460 N 7612.22 1.41496 0.694023 0
M  V30 74461 C 7613.44 1.44495 1.48781 0
M  V30 74462 C 7613.87 0.052258 1.88027 0
M  V30 74463 O 7613.22 -0.944871 1.54732 0
M  V30 74464 C 7613.27 2.36085 2.72574 0
M  V30 74465 O 7612.38 1.81895 3.70119 0
M  V30 74466 H 7611.72 0.490338 0.447732 0
M  V30 74467 H 7614.25 1.85973 0.852938 0
M  V30 74468 H 7614.26 2.52012 3.20864 0
M  V30 74469 H 7612.93 3.37277 2.43346 0
M  V30 74470 H 7611.51 1.75426 3.2906 0
M  V30 74471 N 7613.69 -0.928434 1.27349 0
M  V30 74472 C 7614.93 -1.69062 1.1488 0
M  V30 74473 C 7615.3 -1.89634 -0.300503 0
M  V30 74474 O 7616.5 -2.63163 -0.547605 0
M  V30 74475 C 7614.77 -3.02077 1.91008 0
M  V30 74476 S 7616.33 -3.93219 1.94742 0
M  V30 74477 H 7613.15 -0.580791 0.410126 0
M  V30 74478 H 7615.75 -1.10542 1.61248 0
M  V30 74479 H 7614.45 -2.84795 2.95499 0
M  V30 74480 H 7613.98 -3.65651 1.45131 0
M  V30 74481 H 7616 -4.85108 1.04332 0
M  V30 74482 N 7615.17 -1.09359 -1.13482 0
M  V30 74483 C 7616.1 -0.690235 -2.1856 0
M  V30 74484 C 7617.12 0.267566 -1.60586 0
M  V30 74485 O 7618.31 0.0537235 -1.78419 0
M  V30 74486 C 7615.41 0.00373384 -3.389 0
M  V30 74487 C 7614.58 -0.975433 -4.26385 0
M  V30 74488 C 7613.64 -0.314996 -5.25256 0
M  V30 74489 O 7612.66 -0.962415 -5.61005 0
M  V30 74490 N 7613.87 0.931156 -5.72983 0
M  V30 74491 H 7616.63 -1.59425 -2.53779 0
M  V30 74492 H 7614.19 -0.980954 -1.28798 0
M  V30 74493 H 7616.18 0.456748 -4.02114 0
M  V30 74494 H 7614.75 0.809981 -3.01924 0
M  V30 74495 H 7613.97 -1.60703 -3.59956 0
M  V30 74496 H 7615.26 -1.63861 -4.81692 0
M  V30 74497 H 7614.66 1.47672 -5.46086 0
M  V30 74498 H 7613.22 1.3275 -6.38138 0
M  V30 74499 N 7616.65 1.30697 -0.88069 0
M  V30 74500 C 7617.89 1.98098 -0.503623 0
M  V30 74501 C 7618.25 1.68029 0.928987 0
M  V30 74502 O 7619.45 2.2873 1.41196 0
M  V30 74503 C 7617.73 3.49098 -0.765836 0
M  V30 74504 S 7619.28 4.36053 -0.490231 0
M  V30 74505 H 7616.1 0.685815 -0.187558 0
M  V30 74506 H 7618.7 1.58891 -1.13903 0
M  V30 74507 H 7617.41 3.68474 -1.80707 0
M  V30 74508 H 7616.94 3.93224 -0.117824 0
M  V30 74509 H 7618.95 4.91615 0.672977 0
M  V30 74510 N 7618.13 0.641207 1.43966 0
M  V30 74511 C 7619.06 -0.0962107 2.28998 0
M  V30 74512 C 7620.07 -0.798996 1.41845 0
M  V30 74513 O 7621.26 -0.658758 1.65899 0
M  V30 74514 C 7618.36 -1.15886 3.18471 0
M  V30 74515 C 7617.53 -0.536599 4.34096 0
M  V30 74516 C 7616.59 -1.49454 5.04529 0
M  V30 74517 O 7615.62 -1.00777 5.60208 0
M  V30 74518 N 7616.82 -2.82875 5.06914 0
M  V30 74519 H 7619.59 0.633577 2.92926 0
M  V30 74520 H 7617.15 0.483102 1.54524 0
M  V30 74521 H 7619.14 -1.80024 3.62455 0
M  V30 74522 H 7617.71 -1.79076 2.56224 0
M  V30 74523 H 7616.93 0.283622 3.93178 0
M  V30 74524 H 7618.22 -0.101698 5.08698 0
M  V30 74525 H 7617.62 -3.24993 4.63029 0
M  V30 74526 H 7616.17 -3.42347 5.54655 0
M  V30 74527 N 7619.61 -1.52891 0.382372 0
M  V30 74528 C 7620.88 -1.93874 -0.259251 0
M  V30 74529 C 7621.26 -1.31728 -1.64957 0
M  V30 74530 O 7620.61 -0.482728 -2.23343 0
M  V30 74531 C 7620.82 -3.47771 -0.292582 0
M  V30 74532 C 7622.17 -4.21343 -0.524873 0
M  V30 74533 O 7623.19 -3.54241 -0.373085 0
M  V30 74534 O 7622.05 -5.40287 -0.821719 0
M  V30 74535 H 7619.15 -0.811497 -0.159379 0
M  V30 74536 H 7621.69 -1.63993 0.436376 0
M  V30 74537 H 7620.46 -3.85319 0.681544 0
M  V30 74538 H 7620.09 -3.83935 -1.03342 0
M  V30 74539 N 7621.08 -0.111996 -1.57202 0
M  V30 74540 C 7622.31 0.555608 -1.993 0
M  V30 74541 C 7622.73 1.60668 -0.991529 0
M  V30 74542 O 7622.08 1.82492 0.016571 0
M  V30 74543 C 7622.13 1.18808 -3.41419 0
M  V30 74544 O 7621.86 0.17903 -4.37734 0
M  V30 74545 C 7623.36 1.93968 -3.98612 0
M  V30 74546 H 7620.58 0.147661 -0.654551 0
M  V30 74547 H 7623.12 -0.19627 -2.03556 0
M  V30 74548 H 7621.28 1.89078 -3.38125 0
M  V30 74549 H 7621.69 0.637661 -5.20609 0
M  V30 74550 H 7623.16 2.33557 -5.00155 0
M  V30 74551 H 7623.64 2.81216 -3.37364 0
M  V30 74552 H 7624.25 1.28476 -4.05431 0
M  V30 74553 N 7622.56 1.56768 0.161759 0
M  V30 74554 C 7623.81 1.82803 0.878127 0
M  V30 74555 C 7624.14 0.691338 1.81478 0
M  V30 74556 O 7623.42 -0.306079 1.92077 0
M  V30 74557 C 7623.7 3.1927 1.66549 0
M  V30 74558 C 7623.55 4.43481 0.751317 0
M  V30 74559 C 7624.87 3.52787 2.63115 0
M  V30 74560 H 7621.99 0.664964 0.317793 0
M  V30 74561 H 7624.63 1.89454 0.14392 0
M  V30 74562 H 7622.78 3.13731 2.2914 0
M  V30 74563 H 7624.45 4.61095 0.13754 0
M  V30 74564 H 7622.7 4.33759 0.0599498 0
M  V30 74565 H 7623.37 5.3554 1.33795 0
M  V30 74566 H 7625.84 3.58841 2.10647 0
M  V30 74567 H 7624.72 4.49332 3.15265 0
M  V30 74568 H 7624.98 2.77981 3.43772 0
M  V30 74569 N 7624.04 -0.430633 1.51602 0
M  V30 74570 C 7625.28 -1.18891 1.66266 0
M  V30 74571 C 7625.64 -1.88323 0.373976 0
M  V30 74572 O 7626.84 -2.6586 0.39646 0
M  V30 74573 C 7625.12 -2.17363 2.83704 0
M  V30 74574 S 7626.67 -3.01587 3.18733 0
M  V30 74575 H 7623.49 -0.403081 0.585702 0
M  V30 74576 H 7626.09 -0.479438 1.8953 0
M  V30 74577 H 7624.8 -1.65005 3.75768 0
M  V30 74578 H 7624.33 -2.92881 2.62649 0
M  V30 74579 H 7626.34 -4.19076 2.65687 0
M  V30 74580 N 7625.52 -1.41862 -0.686509 0
M  V30 74581 C 7626.77 -1.41425 -1.44372 0
M  V30 74582 C 7627.09 -0.0274724 -1.94981 0
M  V30 74583 O 7626.36 0.932157 -1.72301 0
M  V30 74584 H 7624.94 -0.520597 -0.535713 0
M  V30 74585 H 7627.6 -1.77181 -0.811963 0
M  V30 74586 H 7626.69 -2.10696 -2.30247 0
M  V30 74587 N 7627 0.921667 -1.2784 0
M  V30 74588 C 7627.93 2.03997 -1.13611 0
M  V30 74589 C 7628.91 1.70062 -0.0359653 0
M  V30 74590 O 7630.09 1.93044 -0.211539 0
M  V30 74591 C 7627.22 3.38222 -0.788875 0
M  V30 74592 C 7626.18 3.86291 -1.84292 0
M  V30 74593 C 7625.5 5.1739 -1.34951 0
M  V30 74594 C 7626.8 4.09018 -3.2481 0
M  V30 74595 H 7628.5 2.16159 -2.07161 0
M  V30 74596 H 7626.04 1.03865 -0.997404 0
M  V30 74597 H 7628 4.1594 -0.676131 0
M  V30 74598 H 7626.72 3.26091 0.182327 0
M  V30 74599 H 7625.38 3.1077 -1.94467 0
M  V30 74600 H 7625.03 5.01655 -0.367592 0
M  V30 74601 H 7624.73 5.50522 -2.05426 0
M  V30 74602 H 7626.25 5.97672 -1.24983 0
M  V30 74603 H 7627.66 4.77287 -3.17601 0
M  V30 74604 H 7626.06 4.53468 -3.93049 0
M  V30 74605 H 7627.13 3.14103 -3.69415 0
M  V30 74606 N 7628.47 1.0996 1.12901 0
M  V30 74607 C 7629.89 0.857504 1.65843 0
M  V30 74608 C 7630.24 -0.613078 1.86375 0
M  V30 74609 O 7629.36 -1.47158 1.58662 0
M  V30 74610 C 7629.96 1.55007 3.01261 0
M  V30 74611 C 7628.52 1.35481 3.51172 0
M  V30 74612 C 7627.66 1.60263 2.26299 0
M  V30 74613 H 7630.61 1.25799 0.967484 0
M  V30 74614 H 7630.63 0.986284 3.67495 0
M  V30 74615 H 7630.15 2.62035 2.86285 0
M  V30 74616 H 7628.25 0.305938 3.71342 0
M  V30 74617 H 7628.36 2.09341 4.30944 0
M  V30 74618 H 7626.72 1.02506 2.33162 0
M  V30 74619 H 7627.51 2.68532 2.13882 0
M  V30 74620 N 7629.95 -1.30228 0.887609 0
M  V30 74621 C 7631.18 -2.00196 0.522412 0
M  V30 74622 C 7631.6 -1.66518 -0.889778 0
M  V30 74623 O 7630.95 -0.903723 -1.58553 0
M  V30 74624 C 7631 -3.54839 0.690738 0
M  V30 74625 O 7630.72 -3.87319 2.04733 0
M  V30 74626 C 7632.23 -4.42078 0.328883 0
M  V30 74627 H 7629.45 -0.639979 0.201662 0
M  V30 74628 H 7631.99 -1.6605 1.19363 0
M  V30 74629 H 7630.14 -3.87342 0.0668536 0
M  V30 74630 H 7630.56 -4.82016 2.06787 0
M  V30 74631 H 7632.03 -5.49753 0.497547 0
M  V30 74632 H 7632.51 -4.33035 -0.733273 0
M  V30 74633 H 7633.12 -4.15025 0.929201 0
M  V30 74634 N 7631.43 -0.648833 -1.43624 0
M  V30 74635 C 7632.68 -0.160126 -2.01465 0
M  V30 74636 C 7633 1.2287 -1.5142 0
M  V30 74637 O 7632.27 1.8199 -0.725015 0
M  V30 74638 H 7630.85 -0.0562065 -0.744882 0
M  V30 74639 H 7633.51 -0.839515 -1.75892 0
M  V30 74640 H 7632.61 -0.141377 -3.1178 0
M  V30 74641 N 7632.91 1.52686 -0.390474 0
M  V30 74642 C 7634.14 2.06013 0.191376 0
M  V30 74643 C 7634.55 1.2621 1.40416 0
M  V30 74644 O 7633.91 0.309058 1.79864 0
M  V30 74645 C 7633.96 3.57131 0.560332 0
M  V30 74646 O 7633.68 4.33913 -0.604269 0
M  V30 74647 C 7635.18 4.26808 1.19792 0
M  V30 74648 H 7632.4 0.67039 0.0285957 0
M  V30 74649 H 7634.95 1.96795 -0.556043 0
M  V30 74650 H 7633.1 3.66418 1.25765 0
M  V30 74651 H 7633.51 5.23637 -0.300743 0
M  V30 74652 H 7634.99 5.33782 1.40644 0
M  V30 74653 H 7635.47 3.82096 2.16562 0
M  V30 74654 H 7636.07 4.21841 0.541336 0
M  V30 74655 N 7634.39 0.120331 1.5714 0
M  V30 74656 C 7635.61 -0.548348 2.0002 0
M  V30 74657 C 7636.04 -1.59346 0.999517 0
M  V30 74658 O 7635.39 -1.81277 -0.0286022 0
M  V30 74659 C 7635.44 -1.14997 3.41772 0
M  V30 74660 O 7634.55 -2.26547 3.44601 0
M  V30 74661 H 7633.89 -0.136841 0.649747 0
M  V30 74662 H 7636.42 0.209199 2.03528 0
M  V30 74663 H 7636.43 -1.48517 3.80009 0
M  V30 74664 H 7635.1 -0.384462 4.14119 0
M  V30 74665 H 7633.68 -1.94456 3.18184 0
M  V30 74666 N 7635.86 -1.56851 -0.153443 0
M  V30 74667 C 7637.28 -1.51371 -0.50586 0
M  V30 74668 C 7637.48 -0.827667 -1.83717 0
M  V30 74669 O 7636.54 -0.395495 -2.49383 0
M  V30 74670 C 7637.85 -2.96133 -0.522112 0
M  V30 74671 C 7639.4 -3.07037 -0.608076 0
M  V30 74672 C 7639.87 -4.53291 -0.655053 0
M  V30 74673 N 7641.36 -4.5761 -0.717454 0
M  V30 74674 C 7642.1 -5.68143 -0.774677 0
M  V30 74675 N 7641.59 -6.88262 -0.79164 0
M  V30 74676 N 7643.39 -5.56159 -0.815067 0
M  V30 74677 H 7635.54 -1.9985 0.719295 0
M  V30 74678 H 7637.8 -0.911216 0.261514 0
M  V30 74679 H 7637.51 -3.49556 0.387779 0
M  V30 74680 H 7637.38 -3.5174 -1.36231 0
M  V30 74681 H 7639.77 -2.53637 -1.50839 0
M  V30 74682 H 7639.85 -2.54484 0.259149 0
M  V30 74683 H 7639.49 -5.07328 0.241076 0
M  V30 74684 H 7639.42 -5.03619 -1.53868 0
M  V30 74685 H 7641.91 -3.71134 -0.711905 0
M  V30 74686 H 7642.23 -7.68254 -0.836973 0
M  V30 74687 H 7640.57 -6.90836 -0.759622 0
M  V30 74688 H 7643.76 -4.61232 -0.79894 0
M  V30 74689 H 7643.94 -6.42319 -0.856198 0
M  V30 74690 N 7637.34 0.422587 -1.51829 0
M  V30 74691 C 7638.76 0.760201 -1.40332 0
M  V30 74692 C 7638.96 1.95269 -0.497222 0
M  V30 74693 O 7638.01 2.52465 0.0420752 0
M  V30 74694 C 7639.33 1.02674 -2.82628 0
M  V30 74695 C 7640.88 1.13028 -2.91879 0
M  V30 74696 C 7641.35 1.42967 -4.35114 0
M  V30 74697 N 7642.84 1.4986 -4.38288 0
M  V30 74698 C 7643.58 1.74626 -5.46162 0
M  V30 74699 N 7643.07 1.97085 -6.64176 0
M  V30 74700 N 7644.87 1.7653 -5.33661 0
M  V30 74701 H 7637.02 -0.362566 -2.09283 0
M  V30 74702 H 7639.28 -0.0998658 -0.942725 0
M  V30 74703 H 7638.99 0.223041 -3.50992 0
M  V30 74704 H 7638.86 1.95051 -3.22855 0
M  V30 74705 H 7641.25 1.92459 -2.23704 0
M  V30 74706 H 7641.33 0.185192 -2.55129 0
M  V30 74707 H 7640.97 0.640582 -5.03844 0
M  V30 74708 H 7640.9 2.38706 -4.6939 0
M  V30 74709 H 7643.39 1.34348 -3.53213 0
M  V30 74710 H 7643.71 2.15394 -7.42176 0
M  V30 74711 H 7642.05 1.94377 -6.67265 0
M  V30 74712 H 7645.24 1.58513 -4.40444 0
M  V30 74713 H 7645.41 1.95493 -6.17808 0
M  V30 74714 N 7638.82 1.42224 0.678977 0
M  V30 74715 C 7639.78 1.45078 1.7744 0
M  V30 74716 C 7640.78 0.338965 1.57187 0
M  V30 74717 O 7641.97 0.599605 1.63555 0
M  V30 74718 C 7639.11 1.27836 3.16023 0
M  V30 74719 H 7640.3 2.42609 1.76298 0
M  V30 74720 H 7637.85 1.2861 0.888209 0
M  V30 74721 H 7638.59 0.312116 3.22795 0
M  V30 74722 H 7638.37 2.08408 3.32127 0
M  V30 74723 H 7639.86 1.32707 3.95953 0
M  V30 74724 N 7640.3 -0.914875 1.28327 0
M  V30 74725 C 7641.71 -1.19307 1.06009 0
M  V30 74726 C 7641.91 -2.00522 -0.19826 0
M  V30 74727 O 7640.97 -2.35907 -0.900239 0
M  V30 74728 C 7642.28 -1.92875 2.30694 0
M  V30 74729 C 7643.83 -2.05763 2.35862 0
M  V30 74730 C 7644.31 -2.82738 3.6031 0
M  V30 74731 N 7645.8 -2.90301 3.60943 0
M  V30 74732 C 7646.53 -3.50359 4.53912 0
M  V30 74733 N 7646.03 -4.11705 5.57199 0
M  V30 74734 N 7647.82 -3.47887 4.4151 0
M  V30 74735 H 7639.97 -0.372624 2.09106 0
M  V30 74736 H 7642.24 -0.227503 0.920297 0
M  V30 74737 H 7641.94 -1.40626 3.22362 0
M  V30 74738 H 7641.82 -2.93431 2.37019 0
M  V30 74739 H 7644.2 -2.57193 1.44691 0
M  V30 74740 H 7644.28 -1.04386 2.33532 0
M  V30 74741 H 7643.93 -2.31988 4.51823 0
M  V30 74742 H 7643.86 -3.84427 3.59893 0
M  V30 74743 H 7646.35 -2.46714 2.86253 0
M  V30 74744 H 7646.66 -4.55508 6.24285 0
M  V30 74745 H 7645.01 -4.10212 5.61027 0
M  V30 74746 H 7648.2 -2.9917 3.60021 0
M  V30 74747 H 7648.37 -3.944 5.14152 0
M  V30 74748 N 7641.78 -1.10557 -1.12316 0
M  V30 74749 C 7643.19 -0.837614 -1.35854 0
M  V30 74750 C 7643.39 0.542308 -1.94065 0
M  V30 74751 O 7642.45 1.29493 -2.16767 0
M  V30 74752 C 7643.76 -1.93832 -2.2989 0
M  V30 74753 C 7645.31 -1.96692 -2.43478 0
M  V30 74754 C 7645.79 -3.0594 -3.4083 0
M  V30 74755 N 7647.28 -3.05254 -3.48388 0
M  V30 74756 C 7648.01 -3.86427 -4.23629 0
M  V30 74757 N 7647.51 -4.77538 -5.01925 0
M  V30 74758 N 7649.3 -3.7464 -4.19048 0
M  V30 74759 H 7641.45 -1.99502 -0.728897 0
M  V30 74760 H 7643.71 -0.867036 -0.383344 0
M  V30 74761 H 7643.42 -2.9316 -1.94294 0
M  V30 74762 H 7643.29 -1.82659 -3.30024 0
M  V30 74763 H 7645.68 -0.97996 -2.78354 0
M  V30 74764 H 7645.76 -2.11942 -1.43228 0
M  V30 74765 H 7645.41 -4.04856 -3.06683 0
M  V30 74766 H 7645.34 -2.8793 -4.40912 0
M  V30 74767 H 7647.83 -2.39235 -2.92532 0
M  V30 74768 H 7648.14 -5.36031 -5.56678 0
M  V30 74769 H 7646.49 -4.81566 -5.01118 0
M  V30 74770 H 7649.68 -3.02811 -3.56964 0
M  V30 74771 H 7649.85 -4.38136 -4.77432 0
M  V30 74772 N 7643.26 1.29755 -0.894503 0
M  V30 74773 C 7644.48 2.00453 -0.532305 0
M  V30 74774 C 7644.91 1.66544 0.874339 0
M  V30 74775 O 7644.26 0.887212 1.58108 0
M  V30 74776 C 7644.31 3.53227 -0.725451 0
M  V30 74777 O 7643.42 4.11789 0.224395 0
M  V30 74778 H 7642.76 0.630384 -0.208596 0
M  V30 74779 H 7645.29 1.65375 -1.20466 0
M  V30 74780 H 7645.3 4.03136 -0.628102 0
M  V30 74781 H 7643.97 3.77244 -1.75099 0
M  V30 74782 H 7642.55 3.72814 0.0799395 0
M  V30 74783 N 7644.73 0.65644 1.43278 0
M  V30 74784 C 7646.14 0.250572 1.85011 0
M  V30 74785 C 7646.5 -1.20353 1.5495 0
M  V30 74786 O 7645.62 -1.91904 1.00008 0
M  V30 74787 C 7646.22 0.447992 3.35825 0
M  V30 74788 C 7644.77 0.0964135 3.76276 0
M  V30 74789 C 7643.92 0.749309 2.66984 0
M  V30 74790 H 7646.87 0.85989 1.33385 0
M  V30 74791 H 7646.89 -0.305526 3.79271 0
M  V30 74792 H 7646.41 1.50639 3.57672 0
M  V30 74793 H 7644.51 -0.95926 3.6004 0
M  V30 74794 H 7644.62 0.524126 4.76224 0
M  V30 74795 H 7642.98 0.182254 2.54047 0
M  V30 74796 H 7643.77 1.8108 2.91659 0
M  V30 74797 N 7646.21 -1.52477 0.398566 0
M  V30 74798 C 7647.63 -1.59525 0.0489476 0
M  V30 74799 C 7647.83 -1.41204 -1.43748 0
M  V30 74800 O 7646.88 -1.23368 -2.2031 0
M  V30 74801 C 7648.2 -2.95913 0.534418 0
M  V30 74802 C 7649.74 -3.09117 0.491477 0
M  V30 74803 C 7650.22 -4.47969 0.953285 0
M  V30 74804 N 7651.71 -4.5418 0.909674 0
M  V30 74805 C 7652.45 -5.59869 1.23831 0
M  V30 74806 N 7651.94 -6.73161 1.63788 0
M  V30 74807 N 7653.73 -5.50022 1.15896 0
M  V30 74808 H 7645.89 -1.62634 1.36616 0
M  V30 74809 H 7648.15 -0.764514 0.560555 0
M  V30 74810 H 7647.85 -3.14566 1.57293 0
M  V30 74811 H 7647.73 -3.7715 -0.0615798 0
M  V30 74812 H 7650.12 -2.90155 -0.53797 0
M  V30 74813 H 7650.2 -2.29812 1.12339 0
M  V30 74814 H 7649.84 -4.67674 1.98101 0
M  V30 74815 H 7649.77 -5.25755 0.298284 0
M  V30 74816 H 7652.26 -3.72849 0.615765 0
M  V30 74817 H 7652.57 -7.49783 1.87203 0
M  V30 74818 H 7650.92 -6.74468 1.67682 0
M  V30 74819 H 7654.11 -4.60396 0.845745 0
M  V30 74820 H 7654.28 -6.32286 1.41839 0
M  V30 74821 N 7647.69 -0.128663 -1.57074 0
M  V30 74822 C 7648.64 0.829306 -2.12383 0
M  V30 74823 C 7649.62 1.22175 -1.047 0
M  V30 74824 O 7650.82 1.19123 -1.30915 0
M  V30 74825 C 7647.94 2.07561 -2.73447 0
M  V30 74826 C 7647.03 1.70709 -3.88226 0
M  V30 74827 N 7647.42 1.04583 -4.9487 0
M  V30 74828 C 7645.72 2.00104 -3.9859 0
M  V30 74829 C 7646.42 0.870834 -5.75145 0
M  V30 74830 N 7645.4 1.39891 -5.25292 0
M  V30 74831 H 7649.2 0.314662 -2.92211 0
M  V30 74832 H 7646.71 0.0734932 -1.62234 0
M  V30 74833 H 7648.71 2.77169 -3.11421 0
M  V30 74834 H 7647.37 2.5956 -1.95086 0
M  V30 74835 H 7648.38 0.70869 -5.13028 0
M  V30 74836 H 7645.06 2.54082 -3.31283 0
M  V30 74837 H 7646.45 0.351042 -6.70982 0
M  V30 74838 N 7649.17 1.5693 0.145123 0
M  V30 74839 C 7650.1 2.0144 1.18085 0
M  V30 74840 C 7651.08 0.894281 1.44695 0
M  V30 74841 O 7652.26 1.16222 1.55583 0
M  V30 74842 C 7649.39 2.39661 2.51357 0
M  V30 74843 C 7648.35 3.54876 2.39264 0
M  V30 74844 C 7647.67 3.78915 3.77263 0
M  V30 74845 C 7648.97 4.87479 1.87514 0
M  V30 74846 H 7650.67 2.88214 0.810745 0
M  V30 74847 H 7648.21 1.38659 0.388551 0
M  V30 74848 H 7650.17 2.69399 3.2404 0
M  V30 74849 H 7648.89 1.49826 2.90206 0
M  V30 74850 H 7647.55 3.25305 1.69032 0
M  V30 74851 H 7647.2 2.86328 4.13552 0
M  V30 74852 H 7646.9 4.56453 3.70033 0
M  V30 74853 H 7648.42 4.11081 4.51492 0
M  V30 74854 H 7649.84 5.15923 2.49992 0
M  V30 74855 H 7648.23 5.68836 1.9117 0
M  V30 74856 H 7649.3 4.77727 0.830942 0
M  V30 74857 N 7650.65 -0.414529 1.52051 0
M  V30 74858 C 7651.89 -1.15968 1.65517 0
M  V30 74859 C 7652.21 -1.91166 0.384804 0
M  V30 74860 O 7651.48 -1.86481 -0.600148 0
M  V30 74861 H 7650.06 -0.431084 0.610062 0
M  V30 74862 H 7652.73 -0.47304 1.89072 0
M  V30 74863 H 7651.82 -1.87673 2.4937 0
M  V30 74864 N 7652.12 -1.42582 -0.671425 0
M  V30 74865 C 7653.35 -1.46844 -1.46464 0
M  V30 74866 C 7653.77 -0.0821649 -1.8792 0
M  V30 74867 O 7653.13 0.920135 -1.56215 0
M  V30 74868 C 7653.18 -2.40391 -2.68783 0
M  V30 74869 O 7652.28 -1.87761 -3.67178 0
M  V30 74870 H 7651.62 -0.497399 -0.439875 0
M  V30 74871 H 7654.15 -1.87307 -0.823243 0
M  V30 74872 H 7654.16 -2.57085 -3.16814 0
M  V30 74873 H 7652.84 -3.41106 -2.37949 0
M  V30 74874 H 7651.42 -1.80639 -3.26227 0
M  V30 74875 N 7653.6 0.908056 -1.2881 0
M  V30 74876 C 7654.85 1.65448 -1.16067 0
M  V30 74877 C 7655.17 1.92832 0.289955 0
M  V30 74878 O 7654.44 1.5485 1.19993 0
M  V30 74879 H 7653.02 0.613238 -0.426554 0
M  V30 74880 H 7655.68 1.08927 -1.61619 0
M  V30 74881 H 7654.78 2.61444 -1.70451 0
M  V30 74882 O 7655.12 1.23288 1.04319 0
M  V30 74883 H 7655.81 1.00343 1.65684 0
M  V30 END ATOM
M  V30 BEGIN BOND
M  V30 END BOND
M  V30 END CTAB
M  END
$$$$
