drugbank_target|Q02834 Sialidase (DB03991; DB04265; DB04465)
 OpenBabel12092120023D

  0  0  0     0  0            999 V3000
M  V30 BEGIN CTAB
M  V30 COUNTS 9564 9680 0 0 0
M  V30 BEGIN ATOM
M  V30 1 H -0.908 1.98254 -0.117106 0
M  V30 2 N 0 1.576 0 0
M  V30 3 C 0.933 2.03868 1.02534 0
M  V30 4 C 1.911 0.928543 1.3348 0
M  V30 5 O 3.095 1.19667 1.45644 0
M  V30 6 C 0.222 2.43627 2.35294 0
M  V30 7 C -0.732 3.65373 2.2001 0
M  V30 8 S 0.101 5.13292 1.52614 0
M  V30 9 C 1.257 5.56322 2.86805 0
M  V30 10 H 1.49 2.90518 0.631377 0
M  V30 11 H -0.977 1.52953 0.210867 0
M  V30 12 H 0.981 2.67203 3.11629 0
M  V30 13 H -0.358 1.57376 2.7183 0
M  V30 14 H -1.165 3.90944 3.18086 0
M  V30 15 H -1.563 3.418 1.51819 0
M  V30 16 H 0.729 5.58782 3.83104 0
M  V30 17 H 1.672 6.56266 2.65933 0
M  V30 18 H 2.08 4.83886 2.90714 0
M  V30 19 N 1.4781 -0.272755 1.55222 0
M  V30 20 C 2.7061 -1.02255 1.79865 0
M  V30 21 C 3.1211 -1.79924 0.572088 0
M  V30 22 O 2.4781 -1.76638 -0.458842 0
M  V30 23 C 2.5291 -1.98094 3.02392 0
M  V30 24 O 2.2501 -1.23572 4.20311 0
M  V30 25 C 3.7511 -2.84884 3.39641 0
M  V30 26 H 0.9711 -0.302057 0.599168 0
M  V30 27 H 3.5151 -0.303465 2.02236 0
M  V30 28 H 1.6701 -2.65465 2.82147 0
M  V30 29 H 2.0841 -1.88172 4.89583 0
M  V30 30 H 3.5581 -3.47927 4.28545 0
M  V30 31 H 4.0351 -3.54665 2.59055 0
M  V30 32 H 4.6411 -2.23003 3.62146 0
M  V30 33 N 2.9562 -1.48159 -0.537278 0
M  V30 34 C 3.9192 -1.61665 -1.62472 0
M  V30 35 C 4.9192 -0.490395 -1.5314 0
M  V30 36 O 6.1092 -0.755998 -1.5694 0
M  V30 37 C 3.2412 -1.57997 -3.02076 0
M  V30 38 H 4.4342 -2.58621 -1.51839 0
M  V30 39 H 1.9872 -1.36647 -0.758771 0
M  V30 40 H 2.7222 -0.624913 -3.18222 0
M  V30 41 H 2.5072 -2.39755 -3.10258 0
M  V30 42 H 3.9972 -1.70627 -3.81151 0
M  V30 43 N 4.4343 0.785586 -1.36625 0
M  V30 44 C 5.3823 1.91978 -1.31329 0
M  V30 45 C 6.3763 1.68162 -0.204416 0
M  V30 46 O 7.5823 1.76122 -0.371645 0
M  V30 47 H 3.9573 0.631087 -0.408942 0
M  V30 48 H 5.9283 1.93562 -2.27104 0
M  V30 49 C 4.6773 3.29055 -1.12329 0
M  V30 50 H 4.0003 3.4795 -1.96903 0
M  V30 51 H 5.4403 4.08756 -1.12671 0
M  V30 52 C 3.8993 3.36461 0.171861 0
M  V30 53 O 4.4293 3.84576 1.16035 0
M  V30 54 N 2.6353 2.89782 0.217846 0
M  V30 55 H 2.1823 2.50819 -0.587183 0
M  V30 56 H 2.1403 2.95119 1.08408 0
M  V30 57 N 5.9124 1.20967 1.01018 0
M  V30 58 C 7.3234 1.02319 1.56165 0
M  V30 59 C 7.6744 -0.418546 1.91684 0
M  V30 60 O 6.7994 -1.30096 1.72928 0
M  V30 61 C 7.3944 1.85109 2.8376 0
M  V30 62 C 5.9534 1.70809 3.35412 0
M  V30 63 C 5.1004 1.82643 2.08655 0
M  V30 64 H 8.0514 1.35065 0.833255 0
M  V30 65 H 8.0724 1.35827 3.55431 0
M  V30 66 H 7.5844 2.90035 2.57878 0
M  V30 67 H 5.6854 0.685464 3.66241 0
M  V30 68 H 5.7984 2.52467 4.07182 0
M  V30 69 H 4.1624 1.25896 2.21409 0
M  V30 70 H 4.9454 2.89066 1.85191 0
M  V30 71 N 7.3905 -1.2043 1.01659 0
M  V30 72 C 8.6205 -1.93496 0.724081 0
M  V30 73 C 9.0285 -1.74998 -0.71918 0
M  V30 74 O 8.3715 -1.06118 -1.49949 0
M  V30 75 C 8.4335 -3.45886 0.97994 0
M  V30 76 C 8.0975 -3.88145 2.41232 0
M  V30 77 C 9.0945 -3.93907 3.39313 0
M  V30 78 C 6.7795 -4.20134 2.75305 0
M  V30 79 C 8.7735 -4.31069 4.6953 0
M  V30 80 C 6.4605 -4.56971 4.05735 0
M  V30 81 C 7.4585 -4.62411 5.02658 0
M  V30 82 O 7.1465 -4.98403 6.30754 0
M  V30 83 H 6.8785 -0.621824 0.265162 0
M  V30 84 H 9.4325 -1.53867 1.36066 0
M  V30 85 H 7.6625 -3.85639 0.286198 0
M  V30 86 H 9.3515 -4.0018 0.679021 0
M  V30 87 H 10.1175 -3.69357 3.14325 0
M  V30 88 H 5.9965 -4.1509 2.00551 0
M  V30 89 H 9.5405 -4.3523 5.45179 0
M  V30 90 H 5.4375 -4.80977 4.30502 0
M  V30 91 H 6.2055 -5.16395 6.35042 0
M  V30 92 N 8.8686 -0.792821 -1.36206 0
M  V30 93 C 9.7986 -0.207853 -2.32573 0
M  V30 94 C 10.7796 0.659055 -1.56813 0
M  V30 95 O 11.9646 0.592176 -1.84951 0
M  V30 96 C 9.0946 0.655449 -3.41059 0
M  V30 97 C 8.0486 -0.111842 -4.27854 0
M  V30 98 C 7.3746 0.872274 -5.27537 0
M  V30 99 C 8.6746 -1.30299 -5.05786 0
M  V30 100 H 10.3686 -1.01294 -2.81744 0
M  V30 101 H 7.9146 -0.48854 -1.3546 0
M  V30 102 H 9.8676 1.07464 -4.07467 0
M  V30 103 H 8.5916 1.49328 -2.90463 0
M  V30 104 H 7.2506 -0.512053 -3.63006 0
M  V30 105 H 6.8986 1.70523 -4.73214 0
M  V30 106 H 6.5986 0.363291 -5.86476 0
M  V30 107 H 8.1226 1.28996 -5.96818 0
M  V30 108 H 9.5366 -0.959379 -5.65216 0
M  V30 109 H 7.9336 -1.7455 -5.74154 0
M  V30 110 H 9.0036 -2.09663 -4.37229 0
M  V30 111 N 10.3467 1.47872 -0.545128 0
M  V30 112 C 11.7627 1.5829 -0.204032 0
M  V30 113 C 11.9627 1.54529 1.29317 0
M  V30 114 O 11.0187 1.44232 2.07252 0
M  V30 115 C 12.3317 2.89304 -0.819987 0
M  V30 116 C 13.8797 3.02864 -0.790105 0
M  V30 117 C 14.3547 4.3656 -1.38491 0
M  V30 118 N 15.8457 4.43165 -1.34755 0
M  V30 119 C 16.5807 5.45153 -1.77753 0
M  V30 120 N 16.0767 6.54016 -2.2855 0
M  V30 121 N 17.8697 5.36125 -1.68897 0
M  V30 122 H 10.0207 1.4856 -1.51802 0
M  V30 123 H 12.2837 0.706305 -0.632327 0
M  V30 124 H 11.9897 2.97757 -1.87173 0
M  V30 125 H 11.8637 3.75957 -0.305915 0
M  V30 126 H 14.2507 2.94014 0.252913 0
M  V30 127 H 14.3317 2.17782 -1.34181 0
M  V30 128 H 13.9757 4.46164 -2.42693 0
M  V30 129 H 13.9057 5.20353 -0.808754 0
M  V30 130 H 16.3967 3.65083 -0.975855 0
M  V30 131 H 16.7097 7.27994 -2.59314 0
M  V30 132 H 15.0547 6.54938 -2.32553 0
M  V30 133 H 18.2457 4.49975 -1.28998 0
M  V30 134 H 18.4187 6.15472 -2.02726 0
M  V30 135 N 11.8248 0.280983 1.55075 0
M  V30 136 C 13.2408 -0.0729964 1.59433 0
M  V30 137 C 13.4408 -1.5411 1.29817 0
M  V30 138 O 12.4968 -2.29086 1.06187 0
M  V30 139 C 13.8098 0.306921 2.9913 0
M  V30 140 C 15.3578 0.254023 3.11968 0
M  V30 141 C 15.8328 0.608467 4.5394 0
M  V30 142 N 17.3238 0.560241 4.59799 0
M  V30 143 C 18.0588 0.80722 5.6769 0
M  V30 144 N 17.5548 1.11912 6.83701 0
M  V30 145 N 19.3478 0.735623 5.57266 0
M  V30 146 H 11.4988 1.238 1.7259 0
M  V30 147 H 13.7618 0.500547 0.805082 0
M  V30 148 H 13.4678 1.32816 3.25657 0
M  V30 149 H 13.3418 -0.349363 3.75579 0
M  V30 150 H 15.7288 -0.75794 2.852 0
M  V30 151 H 15.8098 0.944649 2.37718 0
M  V30 152 H 15.4538 1.61814 4.81434 0
M  V30 153 H 15.3838 -0.104013 5.26497 0
M  V30 154 H 17.8748 0.329288 3.76463 0
M  V30 155 H 18.1878 1.29409 7.61888 0
M  V30 156 H 16.5328 1.15695 6.85303 0
M  V30 157 H 19.7238 0.491752 4.6551 0
M  V30 158 H 19.8968 0.931482 6.4127 0
M  V30 159 N 13.3029 -1.57598 0.00835791 0
M  V30 160 C 14.2329 -2.1198 -0.979113 0
M  V30 161 C 15.2139 -1.03091 -1.35301 0
M  V30 162 O 16.3989 -1.30818 -1.43528 0
M  V30 163 C 13.5289 -2.62995 -2.26828 0
M  V30 164 C 12.4829 -3.76485 -2.03576 0
M  V30 165 C 11.8089 -4.13846 -3.38579 0
M  V30 166 C 13.1089 -5.0342 -1.39161 0
M  V30 167 H 14.8029 -2.94738 -0.526281 0
M  V30 168 H 12.3489 -1.41783 -0.251704 0
M  V30 169 H 14.3019 -2.99669 -2.96271 0
M  V30 170 H 13.0259 -1.7737 -2.7424 0
M  V30 171 H 11.6849 -3.40217 -1.36557 0
M  V30 172 H 11.3329 -3.25232 -3.83709 0
M  V30 173 H 11.0329 -4.90312 -3.23834 0
M  V30 174 H 12.5569 -4.53086 -4.09323 0
M  V30 175 H 13.9709 -5.37812 -1.98573 0
M  V30 176 H 12.3679 -5.84746 -1.34878 0
M  V30 177 H 13.4379 -4.83548 -0.361868 0
M  V30 178 N 14.781 0.264519 -1.55364 0
M  V30 179 C 16.192 0.834936 -1.6699 0
M  V30 180 C 16.543 1.86718 -0.602552 0
M  V30 181 O 15.668 2.14899 0.254425 0
M  V30 182 C 16.263 1.5212 -3.02729 0
M  V30 183 C 14.822 2.03954 -3.16354 0
M  V30 184 C 13.969 0.884498 -2.62815 0
M  V30 185 H 16.92 0.0406869 -1.58648 0
M  V30 186 H 16.941 2.38853 -2.96191 0
M  V30 187 H 16.453 0.769668 -3.80392 0
M  V30 188 H 14.554 2.82041 -2.43482 0
M  V30 189 H 14.667 2.24902 -4.23032 0
M  V30 190 H 13.031 1.2802 -2.20188 0
M  V30 191 H 13.814 0.14634 -3.42988 0
M  V30 192 N 16.2591 1.48442 0.529413 0
M  V30 193 C 17.6751 1.34575 0.858004 0
M  V30 194 C 17.8751 0.3572 1.98309 0
M  V30 195 O 16.9311 -0.221379 2.51528 0
M  V30 196 C 18.2441 2.74617 1.22499 0
M  V30 197 C 19.7921 2.83109 1.33484 0
M  V30 198 C 20.2671 4.23854 1.73526 0
M  V30 199 N 21.7581 4.2653 1.80628 0
M  V30 200 C 22.4931 5.32372 2.12997 0
M  V30 201 N 21.9891 6.48491 2.43786 0
M  V30 202 N 23.7821 5.19766 2.14008 0
M  V30 203 H 15.9331 2.1133 -0.212925 0
M  V30 204 H 18.1961 0.947439 -0.0326199 0
M  V30 205 H 17.9021 3.4852 0.471905 0
M  V30 206 H 17.7761 3.08177 2.17501 0
M  V30 207 H 20.1631 2.09462 2.0787 0
M  V30 208 H 20.2441 2.53168 0.366027 0
M  V30 209 H 19.8881 4.98018 0.997013 0
M  V30 210 H 19.8181 4.5124 2.71459 0
M  V30 211 H 22.3091 3.42772 1.59108 0
M  V30 212 H 22.6221 7.24993 2.67592 0
M  V30 213 H 20.9671 6.51765 2.41304 0
M  V30 214 H 24.1581 4.28066 1.89412 0
M  V30 215 H 24.3311 6.02354 2.38902 0
M  V30 216 N 17.7372 -0.778329 1.37039 0
M  V30 217 C 19.1532 -1.07796 1.17695 0
M  V30 218 C 19.3532 -2.01498 0.00860115 0
M  V30 219 O 18.4092 -2.43901 -0.653352 0
M  V30 220 C 19.7222 -1.68178 2.49272 0
M  V30 221 C 21.2702 -1.80467 2.55735 0
M  V30 222 C 21.7452 -2.44263 3.87427 0
M  V30 223 N 23.2362 -2.51721 3.88833 0
M  V30 224 C 23.9712 -3.01919 4.87476 0
M  V30 225 N 23.4672 -3.5234 5.96513 0
M  V30 226 N 25.2602 -3.00733 4.74885 0
M  V30 227 H 17.4112 -0.156032 2.11826 0
M  V30 228 H 19.6742 -0.131844 0.938787 0
M  V30 229 H 19.3802 -1.06796 3.35093 0
M  V30 230 H 19.2542 -2.67554 2.65885 0
M  V30 231 H 21.6412 -2.40984 1.70325 0
M  V30 232 H 21.7222 -0.798656 2.43013 0
M  V30 233 H 21.3662 -1.84388 4.73248 0
M  V30 234 H 21.2962 -3.45458 3.9745 0
M  V30 235 H 23.7872 -2.1603 3.10063 0
M  V30 236 H 24.1002 -3.89027 6.67741 0
M  V30 237 H 22.4452 -3.50462 6.00168 0
M  V30 238 H 25.6362 -2.60638 3.88826 0
M  V30 239 H 25.8092 -3.39545 5.51918 0
M  V30 240 N 19.2153 -1.21501 -1.00376 0
M  V30 241 C 20.6313 -0.972629 -1.26539 0
M  V30 242 C 20.8313 0.340257 -1.98606 0
M  V30 243 O 19.8873 1.06561 -2.28913 0
M  V30 244 C 21.2003 -2.16404 -2.08781 0
M  V30 245 C 22.7483 -2.20643 -2.22004 0
M  V30 246 C 23.2233 -3.39306 -3.07629 0
M  V30 247 N 24.7143 -3.39401 -3.15217 0
M  V30 248 C 25.4493 -4.27867 -3.81729 0
M  V30 249 N 24.9453 -5.26533 -4.5026 0
M  V30 250 N 26.7383 -4.15672 -3.78382 0
M  V30 251 H 18.8893 -2.05929 -0.520281 0
M  V30 252 H 21.1523 -0.901803 -0.292328 0
M  V30 253 H 20.8583 -3.11554 -1.63178 0
M  V30 254 H 20.7323 -2.15567 -3.09533 0
M  V30 255 H 23.1193 -1.26048 -2.66825 0
M  V30 256 H 23.2003 -2.25523 -1.20718 0
M  V30 257 H 22.8443 -4.34195 -2.63509 0
M  V30 258 H 22.7743 -3.31665 -4.09031 0
M  V30 259 H 25.2653 -2.67997 -2.66432 0
M  V30 260 H 25.5783 -5.90337 -4.98721 0
M  V30 261 H 23.9233 -5.30457 -4.49044 0
M  V30 262 H 27.1143 -3.3785 -3.23998 0
M  V30 263 H 27.2873 -4.84825 -4.2994 0
M  V30 264 N 20.6934 1.19889 -1.02296 0
M  V30 265 C 21.6564 2.21116 -0.603351 0
M  V30 266 C 22.6564 1.5738 0.329884 0
M  V30 267 O 23.8464 1.73802 0.117702 0
M  V30 268 C 20.9784 3.40696 0.117992 0
M  V30 269 H 22.1714 2.59754 -1.49893 0
M  V30 270 H 19.7244 1.33463 -0.813468 0
M  V30 271 H 20.4594 3.07569 1.0282 0
M  V30 272 H 20.2444 3.88188 -0.552511 0
M  V30 273 H 21.7344 4.15692 0.398696 0
M  V30 274 N 22.1715 0.800033 1.35784 0
M  V30 275 C 23.4175 0.377901 1.99248 0
M  V30 276 C 23.7505 -1.05052 1.63333 0
M  V30 277 O 23.0255 -1.72768 0.893385 0
M  V30 278 C 23.3085 0.553922 3.55814 0
M  V30 279 C 23.1615 2.0268 4.01548 0
M  V30 280 C 24.4805 -0.0244802 4.40093 0
M  V30 281 H 21.5995 0.138782 0.723815 0
M  V30 282 H 24.2415 1.00835 1.61035 0
M  V30 283 H 22.3915 0.0172398 3.88496 0
M  V30 284 H 24.0635 2.62536 3.79305 0
M  V30 285 H 22.3065 2.5256 3.52698 0
M  V30 286 H 22.9775 2.10087 5.10458 0
M  V30 287 H 25.4535 0.433775 4.13833 0
M  V30 288 H 24.3295 0.128637 5.48749 0
M  V30 289 H 24.5905 -1.11758 4.27741 0
M  V30 290 N 23.6496 -1.47581 0.552962 0
M  V30 291 C 24.8746 -2.07378 0.0300593 0
M  V30 292 C 25.2996 -1.40355 -1.25229 0
M  V30 293 O 24.6576 -0.477099 -1.7491 0
M  V30 294 C 24.7056 -3.60274 -0.153231 0
M  V30 295 O 23.8096 -3.94041 -1.21678 0
M  V30 296 H 23.1506 -0.662158 0.0494182 0
M  V30 297 H 25.6806 -1.89662 0.767434 0
M  V30 298 H 25.6906 -4.0633 -0.368761 0
M  V30 299 H 24.3656 -4.08455 0.783397 0
M  V30 300 H 22.9426 -3.59735 -0.982079 0
M  V30 301 N 25.1277 -0.289203 -1.54924 0
M  V30 302 C 26.3747 0.323519 -1.99899 0
M  V30 303 C 26.7027 1.54797 -1.17762 0
M  V30 304 O 25.9577 1.94237 -0.238835 0
M  V30 305 C 26.2567 0.736119 -3.49737 0
M  V30 306 C 25.9227 -0.385276 -4.49251 0
M  V30 307 C 24.5847 -0.693156 -4.76181 0
M  V30 308 C 26.9367 -1.14021 -5.08575 0
M  V30 309 C 24.2647 -1.7593 -5.59701 0
M  V30 310 C 26.6167 -2.19619 -5.93254 0
M  V30 311 C 25.2807 -2.51026 -6.185 0
M  V30 312 H 24.5507 0.118384 -0.731482 0
M  V30 313 H 27.1977 -0.405847 -1.8715 0
M  V30 314 H 25.5027 1.54539 -3.60035 0
M  V30 315 H 27.1997 1.22118 -3.81953 0
M  V30 316 H 23.7897 -0.135202 -4.28387 0
M  V30 317 H 27.9737 -0.915611 -4.87781 0
M  V30 318 H 23.2297 -2.0075 -5.77503 0
M  V30 319 H 27.4037 -2.78581 -6.38252 0
M  V30 320 H 25.0307 -3.33772 -6.83008 0
M  V30 321 N 26.6058 1.57591 -0.0167156 0
M  V30 322 C 27.5358 2.12496 0.967858 0
M  V30 323 C 28.5168 1.03807 1.34752 0
M  V30 324 O 29.7018 1.31577 1.42833 0
M  V30 325 C 26.8318 2.64194 2.25431 0
M  V30 326 C 25.7858 3.77559 2.01576 0
M  V30 327 C 25.1118 4.15636 3.36379 0
M  V30 328 C 26.4118 5.04151 1.36489 0
M  V30 329 H 28.1058 2.95013 0.510643 0
M  V30 330 H 25.6518 1.41915 0.244181 0
M  V30 331 H 27.6048 3.01236 2.94678 0
M  V30 332 H 26.3288 1.78821 2.73296 0
M  V30 333 H 24.9878 3.40937 1.34751 0
M  V30 334 H 24.6358 3.27263 3.81979 0
M  V30 335 H 24.3358 4.92022 3.21229 0
M  V30 336 H 25.8598 4.5525 4.06915 0
M  V30 337 H 27.2738 5.38857 1.95718 0
M  V30 338 H 25.6708 5.85453 1.31776 0
M  V30 339 H 26.7408 4.83733 0.336219 0
M  V30 340 N 28.0839 -0.256276 1.55502 0
M  V30 341 C 29.0139 -1.32102 1.92539 0
M  V30 342 C 29.9949 -1.50684 0.789194 0
M  V30 343 O 31.1799 -1.63449 1.04872 0
M  V30 344 C 28.3099 -2.67752 2.21192 0
M  V30 345 C 27.2639 -2.63878 3.36975 0
M  V30 346 C 26.5899 -4.03236 3.51147 0
M  V30 347 C 27.8899 -2.21682 4.72921 0
M  V30 348 H 29.5839 -1.01351 2.81724 0
M  V30 349 H 27.1299 -0.486105 1.35547 0
M  V30 350 H 29.0829 -3.42365 2.45691 0
M  V30 351 H 27.8069 -3.0012 1.28824 0
M  V30 352 H 26.4659 -1.91722 3.12471 0
M  V30 353 H 26.1139 -4.32854 2.56216 0
M  V30 354 H 25.8139 -4.01535 4.29003 0
M  V30 355 H 27.3379 -4.79563 3.77957 0
M  V30 356 H 28.7519 -2.86023 4.96854 0
M  V30 357 H 27.1489 -2.3111 5.53812 0
M  V30 358 H 28.2189 -1.16833 4.70615 0
M  V30 359 N 29.562 -1.4872 -0.521534 0
M  V30 360 C 30.525 -1.63379 -1.60748 0
M  V30 361 C 31.525 -0.50661 -1.52611 0
M  V30 362 O 32.715 -0.772601 -1.5613 0
M  V30 363 C 29.847 -1.61192 -3.00383 0
M  V30 364 H 31.04 -2.60217 -1.49087 0
M  V30 365 H 28.593 -1.37444 -0.744235 0
M  V30 366 H 29.328 -0.65863 -3.17541 0
M  V30 367 H 29.113 -2.43032 -3.07698 0
M  V30 368 H 30.603 -1.7466 -3.7932 0
M  V30 369 N 31.0401 0.771051 -1.3745 0
M  V30 370 C 32.4511 1.34737 -1.29239 0
M  V30 371 C 32.8021 1.96109 0.0596908 0
M  V30 372 O 31.9271 1.93865 0.961534 0
M  V30 373 C 32.5221 2.44973 -2.34037 0
M  V30 374 C 31.0811 2.98372 -2.29458 0
M  V30 375 C 30.2281 1.71595 -2.17831 0
M  V30 376 H 33.1791 0.571256 -1.48062 0
M  V30 377 H 33.2001 3.24471 -1.98744 0
M  V30 378 H 32.7121 2.00276 -3.32432 0
M  V30 379 H 30.8131 3.47443 -1.34589 0
M  V30 380 H 30.9261 3.53939 -3.229 0
M  V30 381 H 29.2901 1.94547 -1.64388 0
M  V30 382 H 30.0731 1.29001 -3.18141 0
M  V30 383 N 32.5182 1.22032 0.997298 0
M  V30 384 C 33.4812 0.987909 2.06816 0
M  V30 385 C 34.4812 -0.0440084 1.6074 0
M  V30 386 O 35.6712 0.194053 1.73116 0
M  V30 387 C 32.8032 0.49132 3.37341 0
M  V30 388 H 33.9962 1.93803 2.28868 0
M  V30 389 H 31.5492 1.03838 1.16822 0
M  V30 390 H 32.2842 -0.463364 3.20973 0
M  V30 391 H 32.0692 1.23575 3.72118 0
M  V30 392 H 33.5592 0.348824 4.16141 0
M  V30 393 N 33.9963 -1.19345 1.0293 0
M  V30 394 C 34.9263 -2.2481 0.631105 0
M  V30 395 C 35.9073 -1.66245 -0.360104 0
M  V30 396 O 37.0923 -1.92677 -0.242726 0
M  V30 397 C 34.2223 -3.47295 -0.0184607 0
M  V30 398 C 33.1763 -4.18536 0.895073 0
M  V30 399 C 32.5023 -5.34586 0.110592 0
M  V30 400 C 33.8023 -4.73287 2.209 0
M  V30 401 H 35.4963 -2.58372 1.51275 0
M  V30 402 H 33.0423 -1.24194 0.728818 0
M  V30 403 H 34.9953 -4.20268 -0.308675 0
M  V30 404 H 33.7193 -3.12933 -0.934907 0
M  V30 405 H 32.3783 -3.47446 1.16949 0
M  V30 406 H 32.0263 -4.96469 -0.807902 0
M  V30 407 H 31.7263 -5.83183 0.719087 0
M  V30 408 H 33.2503 -6.10355 -0.172871 0
M  V30 409 H 34.6643 -5.38013 1.98028 0
M  V30 410 H 33.0613 -5.32373 2.76946 0
M  V30 411 H 34.1313 -3.91331 2.86336 0
M  V30 412 N 35.4744 -0.807222 -1.35358 0
M  V30 413 C 36.4374 -0.223665 -2.28106 0
M  V30 414 C 37.4374 0.589354 -1.4961 0
M  V30 415 O 38.6274 0.407745 -1.69361 0
M  V30 416 C 35.7594 0.688149 -3.33882 0
M  V30 417 H 36.9524 -1.04169 -2.81227 0
M  V30 418 H 34.5054 -0.577921 -1.45223 0
M  V30 419 H 35.2404 1.52984 -2.85948 0
M  V30 420 H 35.0254 0.10687 -3.91954 0
M  V30 421 H 36.5154 1.09075 -4.03104 0
M  V30 422 N 36.9525 1.47285 -0.560781 0
M  V30 423 C 37.9155 2.28535 0.174488 0
M  V30 424 C 38.9155 1.37153 0.839388 0
M  V30 425 O 40.1055 1.59748 0.694702 0
M  V30 426 C 37.2375 3.16934 1.25561 0
M  V30 427 H 38.4305 2.95012 -0.539262 0
M  V30 428 H 35.9835 1.53034 -0.317865 0
M  V30 429 H 36.7185 2.55157 2.00164 0
M  V30 430 H 36.5035 3.8419 0.783604 0
M  V30 431 H 37.9935 3.78143 1.77193 0
M  V30 432 N 38.4306 0.297415 1.54768 0
M  V30 433 C 39.3936 -0.567375 2.22066 0
M  V30 434 C 40.3936 -1.06409 1.20556 0
M  V30 435 O 41.5836 -0.960691 1.45315 0
M  V30 436 C 38.7156 -1.78517 2.90421 0
M  V30 437 H 39.9086 0.0205534 2.99893 0
M  V30 438 H 37.4616 0.0482163 1.56226 0
M  V30 439 H 38.1966 -2.41303 2.16664 0
M  V30 440 H 37.9816 -1.43669 3.64831 0
M  V30 441 H 39.4716 -2.39964 3.41771 0
M  V30 442 N 39.9087 -1.5758 0.0250728 0
M  V30 443 C 41.1367 -1.9593 -0.664747 0
M  V30 444 C 41.5517 -0.901352 -1.65895 0
M  V30 445 O 40.9087 0.117255 -1.82123 0
M  V30 446 C 40.9597 -3.34342 -1.37468 0
M  V30 447 O 40.6807 -4.36079 -0.420324 0
M  V30 448 C 42.1817 -3.873 -2.1567 0
M  V30 449 H 39.4017 -0.645405 -0.183557 0
M  V30 450 H 41.9457 -2.04329 0.0836372 0
M  V30 451 H 40.1007 -3.27175 -2.0745 0
M  V30 452 H 40.5147 -5.16297 -0.923991 0
M  V30 453 H 41.9887 -4.86504 -2.60803 0
M  V30 454 H 42.4657 -3.21331 -2.99405 0
M  V30 455 H 43.0717 -3.97723 -1.50654 0
M  V30 456 N 41.3868 0.248026 -1.55636 0
M  V30 457 C 42.6328 0.97767 -1.77678 0
M  V30 458 C 42.9658 1.85016 -0.590135 0
M  V30 459 O 42.2408 1.90095 0.411611 0
M  V30 460 C 42.5238 1.83914 -3.09593 0
M  V30 461 C 42.3768 0.99491 -4.38659 0
M  V30 462 C 43.6958 2.82183 -3.37729 0
M  V30 463 H 40.8148 0.354005 -0.646413 0
M  V30 464 H 43.4568 0.248253 -1.88371 0
M  V30 465 H 41.6068 2.46104 -3.00608 0
M  V30 466 H 43.2788 0.391789 -4.59633 0
M  V30 467 H 41.5218 0.299231 -4.32767 0
M  V30 468 H 42.1928 1.63145 -5.2734 0
M  V30 469 H 44.6688 2.30129 -3.4667 0
M  V30 470 H 43.5448 3.39582 -4.31249 0
M  V30 471 H 43.8058 3.58588 -2.58586 0
M  V30 472 N 42.8649 1.48995 0.513639 0
M  V30 473 C 43.8279 1.64229 1.59879 0
M  V30 474 C 44.8279 0.514696 1.5234 0
M  V30 475 O 46.0179 0.78087 1.55718 0
M  V30 476 C 43.1499 1.62783 2.99524 0
M  V30 477 H 44.3429 2.61004 1.47705 0
M  V30 478 H 41.8959 1.37837 0.736936 0
M  V30 479 H 42.6309 0.675461 3.17188 0
M  V30 480 H 42.4159 2.4466 3.06404 0
M  V30 481 H 43.9059 1.76669 3.78388 0
M  V30 482 N 44.343 -0.763751 1.37857 0
M  V30 483 C 45.591 -1.51957 1.33243 0
M  V30 484 C 45.912 -1.94835 -0.0801709 0
M  V30 485 O 45.182 -1.66894 -1.02582 0
M  V30 486 H 43.762 -0.563626 0.49024 0
M  V30 487 H 46.424 -0.908504 1.7243 0
M  V30 488 H 45.52 -2.41523 1.97669 0
M  V30 489 N 45.8211 -1.22559 -0.990812 0
M  V30 490 C 46.7841 -0.998863 -2.0629 0
M  V30 491 C 47.7841 0.0354834 -1.60761 0
M  V30 492 O 48.9741 -0.203231 -1.7301 0
M  V30 493 C 46.1061 -0.509203 -3.37076 0
M  V30 494 H 47.2991 -1.95014 -2.27837 0
M  V30 495 H 44.8521 -1.04456 -1.16269 0
M  V30 496 H 45.5871 0.446335 -3.21214 0
M  V30 497 H 45.3721 -1.25547 -3.71457 0
M  V30 498 H 46.8621 -0.370888 -4.1595 0
M  V30 499 N 47.2992 1.18797 -1.03562 0
M  V30 500 C 48.5242 1.9314 -0.755764 0
M  V30 501 C 48.9492 1.7537 0.68022 0
M  V30 502 O 48.3072 1.06046 1.47051 0
M  V30 503 C 48.3552 3.42747 -1.12058 0
M  V30 504 O 47.4592 4.11683 -0.243124 0
M  V30 505 H 46.8002 0.602724 -0.278604 0
M  V30 506 H 49.3302 1.50678 -1.3841 0
M  V30 507 H 49.3402 3.93437 -1.08035 0
M  V30 508 H 48.0152 3.55002 -2.16672 0
M  V30 509 H 46.5922 3.71323 -0.342539 0
M  V30 510 N 48.7773 0.814389 1.34928 0
M  V30 511 C 50.1883 0.458364 1.80986 0
M  V30 512 C 50.5393 -1.02042 1.67577 0
M  V30 513 O 49.6643 -1.79352 1.21086 0
M  V30 514 C 50.2593 0.825212 3.28597 0
M  V30 515 C 48.8183 0.521677 3.72767 0
M  V30 516 C 47.9653 1.04668 2.56788 0
M  V30 517 H 50.9163 1.00533 1.22795 0
M  V30 518 H 50.9373 0.12571 3.80292 0
M  V30 519 H 50.4493 1.90154 3.38324 0
M  V30 520 H 48.5503 -0.545589 3.68584 0
M  V30 521 H 48.6633 1.05977 4.67232 0
M  V30 522 H 47.0273 0.468622 2.50352 0
M  V30 523 H 47.8103 2.12927 2.6929 0
M  V30 524 N 50.2554 -1.46986 0.568584 0
M  V30 525 C 51.2184 -2.28624 -0.162366 0
M  V30 526 C 52.2184 -1.37596 -0.832103 0
M  V30 527 O 53.4084 -1.60115 -0.68622 0
M  V30 528 C 50.5404 -3.17596 -1.23878 0
M  V30 529 H 51.7334 -2.94722 0.554899 0
M  V30 530 H 49.2864 -1.52863 0.325976 0
M  V30 531 H 50.0214 -2.56214 -1.98808 0
M  V30 532 H 49.8064 -3.846 -0.763219 0
M  V30 533 H 51.2964 -3.79078 -1.75185 0
M  V30 534 N 51.7335 -0.305618 -1.54608 0
M  V30 535 C 52.6655 0.602161 -2.21149 0
M  V30 536 C 53.6785 1.09394 -1.20569 0
M  V30 537 O 54.8675 1.0106 -1.47136 0
M  V30 538 C 51.9675 1.83692 -2.84799 0
M  V30 539 C 51.1405 1.48686 -4.11353 0
M  V30 540 C 50.1995 2.57725 -4.58764 0
M  V30 541 O 49.2255 2.22623 -5.23858 0
M  V30 542 N 50.4275 3.88346 -4.31471 0
M  V30 543 H 53.1925 0.0324966 -2.99682 0
M  V30 544 H 50.7535 -0.128021 -1.61393 0
M  V30 545 H 52.7455 2.55994 -3.13448 0
M  V30 546 H 51.3155 2.31486 -2.10078 0
M  V30 547 H 50.5355 0.596269 -3.89664 0
M  V30 548 H 51.8235 1.22842 -4.93748 0
M  V30 549 H 51.2215 4.19671 -3.79331 0
M  V30 550 H 49.7785 4.56932 -4.64818 0
M  V30 551 N 53.2116 1.57565 -0.0334293 0
M  V30 552 C 54.1746 2.09393 0.932048 0
M  V30 553 C 55.1746 1.00986 1.25134 0
M  V30 554 O 56.3646 1.27129 1.19096 0
M  V30 555 C 53.4966 2.56338 2.2473 0
M  V30 556 H 54.6896 2.95984 0.483085 0
M  V30 557 H 52.2426 1.54819 0.21468 0
M  V30 558 H 52.9776 1.7309 2.74245 0
M  V30 559 H 52.7626 3.35542 2.02865 0
M  V30 560 H 54.2526 2.96646 2.93923 0
M  V30 561 N 54.6897 -0.239769 1.55765 0
M  V30 562 C 55.9387 -0.964754 1.77131 0
M  V30 563 C 56.2517 -1.86213 0.59868 0
M  V30 564 O 57.4577 -2.6244 0.695522 0
M  V30 565 C 55.9137 -1.76552 3.1362 0
M  V30 566 C 55.5217 -0.915185 4.38553 0
M  V30 567 C 57.2657 -2.48281 3.44321 0
M  V30 568 C 55.1727 -1.71225 5.66071 0
M  V30 569 H 54.1027 -0.363953 0.660344 0
M  V30 570 H 56.7537 -0.219181 1.82186 0
M  V30 571 H 55.1357 -2.55331 3.02691 0
M  V30 572 H 56.3097 -0.169217 4.60489 0
M  V30 573 H 54.6247 -0.310889 4.15238 0
M  V30 574 H 57.2217 -3.08382 4.36812 0
M  V30 575 H 57.5647 -3.20256 2.65973 0
M  V30 576 H 58.0977 -1.76507 3.56497 0
M  V30 577 H 54.8367 -1.03612 6.4726 0
M  V30 578 H 54.3567 -2.43331 5.48224 0
M  V30 579 H 56.0357 -2.27758 6.05587 0
M  V30 580 N 56.1678 -1.49265 -0.50573 0
M  V30 581 C 57.1308 -1.65075 -1.59006 0
M  V30 582 C 58.1308 -0.522768 -1.52065 0
M  V30 583 O 59.3208 -0.789117 -1.55302 0
M  V30 584 C 56.4528 -1.64369 -2.98656 0
M  V30 585 H 57.6458 -2.61784 -1.46319 0
M  V30 586 H 55.1988 -1.38226 -0.729616 0
M  V30 587 H 55.9338 -0.692272 -3.16825 0
M  V30 588 H 55.7188 -2.46282 -3.05103 0
M  V30 589 H 57.2088 -1.78674 -3.77446 0
M  V30 590 N 57.6459 0.756429 -1.3826 0
M  V30 591 C 58.8939 1.51248 -1.34047 0
M  V30 592 C 59.2149 1.94875 0.0698372 0
M  V30 593 O 58.4849 1.67436 1.01696 0
M  V30 594 H 57.0649 0.561018 -0.493222 0
M  V30 595 H 59.7269 0.899347 -1.7291 0
M  V30 596 H 58.8229 2.40472 -1.98947 0
M  V30 597 N 59.124 1.23083 0.984299 0
M  V30 598 C 60.087 1.00979 2.05757 0
M  V30 599 C 61.087 -0.0269573 1.60777 0
M  V30 600 O 62.277 0.212403 1.729 0
M  V30 601 C 59.409 0.527072 3.36801 0
M  V30 602 H 60.602 1.9622 2.26799 0
M  V30 603 H 58.155 1.05072 1.15714 0
M  V30 604 H 58.89 -0.429294 3.21446 0
M  V30 605 H 58.675 1.27515 3.70786 0
M  V30 606 H 60.165 0.392942 4.15747 0
M  V30 607 N 60.6021 -1.18246 1.0419 0
M  V30 608 C 62.0131 -1.69914 0.773698 0
M  V30 609 C 62.3641 -1.83085 -0.705297 0
M  V30 610 O 61.4891 -1.51123 -1.5489 0
M  V30 611 C 62.0841 -3.08619 1.39784 0
M  V30 612 C 60.6431 -3.57494 1.17792 0
M  V30 613 C 59.7901 -2.34013 1.48773 0
M  V30 614 H 62.7411 -1.02904 1.20816 0
M  V30 615 H 62.7621 -3.71958 0.801714 0
M  V30 616 H 62.2741 -2.99001 2.47426 0
M  V30 617 H 60.3751 -3.72406 0.120295 0
M  V30 618 H 60.4881 -4.40852 1.87581 0
M  V30 619 H 58.8521 -2.37986 0.907463 0
M  V30 620 H 59.6351 -2.27013 2.57527 0
M  V30 621 N 62.0802 -0.821533 -1.34494 0
M  V30 622 C 63.3262 -0.409552 -1.98622 0
M  V30 623 C 63.6592 1.0244 -1.64984 0
M  V30 624 O 62.9342 1.71325 -0.920758 0
M  V30 625 C 63.2172 -0.610458 -3.54888 0
M  V30 626 C 63.0702 -2.09043 -3.98273 0
M  V30 627 C 64.3892 -0.0455379 -4.40076 0
M  V30 628 H 61.5082 -0.15028 -0.721516 0
M  V30 629 H 64.1502 -1.03384 -1.59411 0
M  V30 630 H 62.3002 -0.079044 -3.8842 0
M  V30 631 H 63.9722 -2.68537 -3.75081 0
M  V30 632 H 62.2152 -2.58139 -3.48635 0
M  V30 633 H 62.8862 -2.18182 -5.07051 0
M  V30 634 H 65.3622 -0.499557 -4.1309 0
M  V30 635 H 64.2382 -0.215922 -5.48475 0
M  V30 636 H 64.4992 1.04939 -4.29465 0
M  V30 637 N 63.5583 1.46682 -0.576371 0
M  V30 638 C 64.9693 1.86112 -0.148091 0
M  V30 639 C 65.3203 1.48073 1.2872 0
M  V30 640 O 64.4453 0.892656 1.97131 0
M  V30 641 C 65.0403 3.37786 -0.261982 0
M  V30 642 C 63.5993 3.76235 0.111384 0
M  V30 643 C 62.7463 2.70713 -0.60083 0
M  V30 644 H 65.6973 1.37927 -0.78497 0
M  V30 645 H 65.7183 3.77007 0.514364 0
M  V30 646 H 65.2303 3.6544 -1.30671 0
M  V30 647 H 63.3313 3.54198 1.15649 0
M  V30 648 H 63.4443 4.78391 -0.26052 0
M  V30 649 H 61.8083 2.54666 -0.0417783 0
M  V30 650 H 62.5913 3.01208 -1.64708 0
M  V30 651 N 65.0364 0.313813 1.54444 0
M  V30 652 C 66.4474 -0.176243 1.85866 0
M  V30 653 C 66.7984 -1.52405 1.23561 0
M  V30 654 O 65.9234 -2.09605 0.538016 0
M  V30 655 C 66.5184 -0.32657 3.37222 0
M  V30 656 C 65.0774 -0.760846 3.6863 0
M  V30 657 C 64.2244 0.123247 2.77026 0
M  V30 658 H 67.1754 0.534418 1.49431 0
M  V30 659 H 67.1964 -1.15908 3.62416 0
M  V30 660 H 66.7084 0.654531 3.82541 0
M  V30 661 H 64.8094 -1.75204 3.28838 0
M  V30 662 H 64.9224 -0.571353 4.75681 0
M  V30 663 H 63.2864 -0.399597 2.51546 0
M  V30 664 H 64.0694 1.10094 3.25168 0
M  V30 665 N 66.5145 -1.57545 0.0417849 0
M  V30 666 C 67.7625 -1.91937 -0.632829 0
M  V30 667 C 68.0835 -0.919978 -1.71934 0
M  V30 668 O 67.3535 0.0366064 -1.95866 0
M  V30 669 H 65.9335 -0.708493 -0.236742 0
M  V30 670 H 68.5955 -1.9468 0.0925745 0
M  V30 671 H 67.6915 -2.92912 -1.07746 0
M  V30 672 N 67.9926 0.231505 -1.5589 0
M  V30 673 C 69.2406 0.955461 -1.78088 0
M  V30 674 C 69.5616 1.85262 -0.608533 0
M  V30 675 O 68.8316 1.92277 0.375035 0
M  V30 676 H 67.4116 0.355787 -0.656829 0
M  V30 677 H 70.0736 0.245751 -1.93344 0
M  V30 678 H 69.1696 1.56814 -2.69844 0
M  V30 679 N 69.4707 1.49531 0.497807 0
M  V30 680 C 70.3807 1.69176 1.62532 0
M  V30 681 C 71.3967 0.5744 1.64246 0
M  V30 682 O 72.5727 0.849497 1.82608 0
M  V30 683 C 69.6377 1.75695 2.98885 0
M  V30 684 C 68.6987 2.9929 3.07773 0
M  V30 685 C 67.9317 3.05488 4.37622 0
M  V30 686 O 68.1547 2.19192 5.26603 0
M  V30 687 O 67.0887 3.9798 4.51548 0
M  V30 688 H 70.9147 2.647 1.48887 0
M  V30 689 H 68.4997 1.3331 0.674441 0
M  V30 690 H 70.3817 1.82317 3.79919 0
M  V30 691 H 69.0567 0.8335 3.12785 0
M  V30 692 H 67.9637 2.98183 2.25915 0
M  V30 693 H 69.2967 3.91125 2.98801 0
M  V30 694 N 70.9488 -0.749086 1.3866 0
M  V30 695 C 72.3598 -1.32664 1.31366 0
M  V30 696 C 72.7108 -1.96179 -0.028484 0
M  V30 697 O 71.8358 -1.9537 -0.93057 0
M  V30 698 C 72.4308 -2.41219 2.37905 0
M  V30 699 C 70.9898 -2.94684 2.34176 0
M  V30 700 C 70.1368 -1.68108 2.20533 0
M  V30 701 H 73.0878 -0.547628 1.48952 0
M  V30 702 H 73.1088 -3.21268 2.0388 0
M  V30 703 H 72.6208 -1.94962 3.35576 0
M  V30 704 H 70.7218 -3.45258 1.401 0
M  V30 705 H 70.8348 -3.48757 3.2849 0
M  V30 706 H 69.1988 -1.91907 1.67463 0
M  V30 707 H 69.9818 -1.23923 3.20153 0
M  V30 708 N 72.4269 -1.23603 -0.977757 0
M  V30 709 C 73.3569 -1.04401 -2.0886 0
M  V30 710 C 74.3379 0.0399052 -1.70053 0
M  V30 711 O 75.5229 -0.125246 -1.93796 0
M  V30 712 C 72.6529 -0.637269 -3.41403 0
M  V30 713 C 71.6069 -1.66883 -3.94124 0
M  V30 714 C 70.9329 -1.11745 -5.22893 0
M  V30 715 C 72.2329 -3.06247 -4.23096 0
M  V30 716 H 73.9269 -1.97316 -2.25182 0
M  V30 717 H 71.4729 -0.950096 -1.08209 0
M  V30 718 H 73.4259 -0.48998 -4.18542 0
M  V30 719 H 72.1499 0.327557 -3.24953 0
M  V30 720 H 70.8089 -1.80416 -3.19133 0
M  V30 721 H 70.4569 -0.143527 -5.02795 0
M  V30 722 H 70.1569 -1.80672 -5.59134 0
M  V30 723 H 71.6809 -0.982067 -6.02651 0
M  V30 724 H 73.0949 -2.96001 -4.90975 0
M  V30 725 H 71.4919 -3.72436 -4.70544 0
M  V30 726 H 72.5619 -3.55041 -3.30263 0
M  V30 727 N 73.905 1.17692 -1.04816 0
M  V30 728 C 75.135 1.91508 -0.775128 0
M  V30 729 C 75.543 1.76844 0.67253 0
M  V30 730 O 74.886 1.10057 1.47082 0
M  V30 731 C 74.948 3.43167 -1.0713 0
M  V30 732 C 74.612 3.81612 -2.51438 0
M  V30 733 C 75.609 3.84772 -3.49638 0
M  V30 734 C 73.294 4.12687 -2.86348 0
M  V30 735 C 75.288 4.18469 -4.80794 0
M  V30 736 C 72.975 4.46053 -4.17708 0
M  V30 737 C 73.973 4.48921 -5.14741 0
M  V30 738 O 73.661 4.81504 -6.43746 0
M  V30 739 H 73.393 0.614575 -0.281555 0
M  V30 740 H 75.947 1.50206 -1.40098 0
M  V30 741 H 74.177 3.84745 -0.388342 0
M  V30 742 H 75.866 3.98239 -0.784883 0
M  V30 743 H 76.632 3.60893 -3.24008 0
M  V30 744 H 72.511 4.09627 -2.11486 0
M  V30 745 H 76.055 4.20623 -5.56527 0
M  V30 746 H 71.952 4.69393 -4.43103 0
M  V30 747 H 72.72 4.99377 -6.4851 0
M  V30 748 N 75.3831 0.828654 1.34056 0
M  V30 749 C 76.6111 0.43262 2.02326 0
M  V30 750 C 77.0261 -0.963147 1.62385 0
M  V30 751 O 76.3831 -1.62425 0.832121 0
M  V30 752 C 76.4341 0.53182 3.57567 0
M  V30 753 O 76.1551 1.87258 3.96063 0
M  V30 754 C 77.6561 0.131422 4.43105 0
M  V30 755 H 74.8761 0.172923 0.648335 0
M  V30 756 H 77.4201 1.1184 1.71208 0
M  V30 757 H 75.5751 -0.105938 3.87255 0
M  V30 758 H 75.9891 1.85087 4.90758 0
M  V30 759 H 77.4631 0.251904 5.51425 0
M  V30 760 H 77.9401 -0.925645 4.29335 0
M  V30 761 H 78.5461 0.743207 4.18756 0
M  V30 762 N 76.8612 -1.46375 0.584142 0
M  V30 763 C 77.7712 -2.34115 -0.150728 0
M  V30 764 C 78.7872 -1.49838 -0.884567 0
M  V30 765 O 79.9632 -1.82704 -0.847429 0
M  V30 766 C 77.0282 -3.2705 -1.15062 0
M  V30 767 C 76.0892 -4.27228 -0.421293 0
M  V30 768 C 75.3222 -5.15722 -1.37355 0
M  V30 769 O 75.5452 -5.07176 -2.61014 0
M  V30 770 O 74.4792 -5.95383 -0.883355 0
M  V30 771 H 78.3052 -2.98309 0.569708 0
M  V30 772 H 75.8902 -1.45373 0.344535 0
M  V30 773 H 77.7722 -3.84381 -1.72712 0
M  V30 774 H 76.4472 -2.65451 -1.8525 0
M  V30 775 H 75.3542 -3.7358 0.197085 0
M  V30 776 H 76.6872 -4.91616 0.239641 0
M  V30 777 N 78.3393 -0.321999 -1.54275 0
M  V30 778 C 79.2713 0.578671 -2.21775 0
M  V30 779 C 80.2843 1.08109 -1.21722 0
M  V30 780 O 81.4733 0.994938 -1.482 0
M  V30 781 C 78.5733 1.80661 -2.86731 0
M  V30 782 C 77.7463 1.44314 -4.12907 0
M  V30 783 C 76.8053 2.52845 -4.61472 0
M  V30 784 O 75.8313 2.17054 -5.2619 0
M  V30 785 N 77.0333 3.83748 -4.35566 0
M  V30 786 H 79.7983 0.000709447 -2.997 0
M  V30 787 H 77.3593 -0.145132 -1.61248 0
M  V30 788 H 79.3513 2.52655 -3.16145 0
M  V30 789 H 77.9213 2.29245 -2.12521 0
M  V30 790 H 77.1413 0.554906 -3.90275 0
M  V30 791 H 78.4293 1.17598 -4.95023 0
M  V30 792 H 77.8273 4.15625 -3.83761 0
M  V30 793 H 76.3843 4.51977 -4.69638 0
M  V30 794 N 79.8174 1.5752 -0.0501392 0
M  V30 795 C 81.0944 1.83996 0.663685 0
M  V30 796 C 81.4744 0.938339 1.89099 0
M  V30 797 O 80.8224 -0.00087759 2.285 0
M  V30 798 C 81.0324 3.33702 1.02196 0
M  V30 799 C 82.3804 4.00691 1.40469 0
M  V30 800 O 83.4044 3.38321 1.11433 0
M  V30 801 O 82.2634 5.10658 1.94654 0
M  V30 802 H 79.3574 0.759385 0.32751 0
M  V30 803 H 81.9034 1.69514 -0.0794238 0
M  V30 804 H 80.6754 3.91015 0.149364 0
M  V30 805 H 80.2984 3.53368 1.82255 0
M  V30 806 N 81.2955 -0.223234 1.56011 0
M  V30 807 C 82.2255 -1.27988 1.95298 0
M  V30 808 C 83.2065 -1.48976 0.820979 0
M  V30 809 O 84.3915 -1.61188 1.08315 0
M  V30 810 C 81.5215 -2.63 2.26822 0
M  V30 811 C 80.4755 -2.56671 3.42497 0
M  V30 812 C 79.8015 -3.95697 3.59622 0
M  V30 813 C 81.1015 -2.11601 4.77517 0
M  V30 814 H 82.7955 -0.953525 2.8381 0
M  V30 815 H 80.3415 -0.457244 1.36548 0
M  V30 816 H 82.2945 -3.37077 2.52898 0
M  V30 817 H 81.0185 -2.9732 1.35161 0
M  V30 818 H 79.6775 -1.85051 3.16467 0
M  V30 819 H 79.3255 -4.27322 2.6534 0
M  V30 820 H 79.0255 -3.92345 4.37424 0
M  V30 821 H 80.5495 -4.71438 3.88044 0
M  V30 822 H 81.9635 -2.7542 5.02809 0
M  V30 823 H 80.3605 -2.19311 5.5859 0
M  V30 824 H 81.4305 -1.06824 4.72987 0
M  V30 825 N 82.7736 -1.49793 -0.48987 0
M  V30 826 C 83.7366 -1.66752 -1.57246 0
M  V30 827 C 84.7366 -0.538867 -1.51502 0
M  V30 828 O 85.9266 -0.805545 -1.54456 0
M  V30 829 C 83.0586 -1.67528 -2.96896 0
M  V30 830 H 84.2516 -2.63321 -1.43534 0
M  V30 831 H 81.8046 -1.38992 -0.714914 0
M  V30 832 H 82.5396 -0.725837 -3.16073 0
M  V30 833 H 82.3246 -2.49504 -3.02473 0
M  V30 834 H 83.8146 -1.82667 -3.7553 0
M  V30 835 N 84.2517 0.741722 -1.39055 0
M  V30 836 C 85.4977 1.50336 -1.36113 0
M  V30 837 C 85.8307 1.94148 0.0450796 0
M  V30 838 O 85.1057 1.66301 1.00868 0
M  V30 839 C 85.3887 2.74773 -2.32749 0
M  V30 840 C 85.2417 2.37023 -3.82283 0
M  V30 841 C 86.5607 3.76846 -2.27322 0
M  V30 842 H 83.6797 0.545351 -0.495743 0
M  V30 843 H 86.3217 0.848624 -1.69995 0
M  V30 844 H 84.4717 3.30639 -2.03986 0
M  V30 845 H 86.1437 1.8684 -4.21768 0
M  V30 846 H 84.3867 1.69334 -3.99385 0
M  V30 847 H 85.0577 3.26104 -4.45376 0
M  V30 848 H 87.5337 3.30548 -2.5274 0
M  V30 849 H 86.4097 4.6159 -2.97028 0
M  V30 850 H 86.6707 4.23286 -1.27599 0
M  V30 851 N 85.7298 1.2412 0.971189 0
M  V30 852 C 86.6778 1.02812 2.08644 0
M  V30 853 C 87.6718 -0.0358403 1.69362 0
M  V30 854 O 88.8778 0.118429 1.7961 0
M  V30 855 H 85.2528 0.315428 0.682649 0
M  V30 856 H 87.2238 1.97397 2.23779 0
M  V30 857 C 85.9728 0.645874 3.41649 0
M  V30 858 H 85.2958 1.45632 3.72332 0
M  V30 859 H 86.7358 0.536366 4.20594 0
M  V30 860 C 85.1948 -0.646713 3.30635 0
M  V30 861 O 85.7248 -1.69338 3.64263 0
M  V30 862 N 83.9308 -0.626115 2.83775 0
M  V30 863 H 83.4778 0.225988 2.56607 0
M  V30 864 H 83.4358 -1.49117 2.76788 0
M  V30 865 N 87.2079 -1.17134 1.05439 0
M  V30 866 C 88.4559 -1.87085 0.764429 0
M  V30 867 C 88.7769 -1.81584 -0.710787 0
M  V30 868 O 88.0469 -1.24349 -1.51374 0
M  V30 869 H 86.6269 -0.692627 0.279779 0
M  V30 870 H 89.2889 -1.42087 1.33406 0
M  V30 871 H 88.3849 -2.92759 1.0816 0
M  V30 872 N 88.686 -0.835752 -1.33615 0
M  V30 873 C 90.102 -0.523139 -1.50783 0
M  V30 874 C 90.302 0.950171 -1.77691 0
M  V30 875 O 89.358 1.73411 -1.83534 0
M  V30 876 C 90.671 -1.39378 -2.66448 0
M  V30 877 C 92.219 -1.39223 -2.80332 0
M  V30 878 C 92.694 -2.24765 -3.99055 0
M  V30 879 N 94.185 -2.22458 -4.06284 0
M  V30 880 C 94.92 -2.85386 -4.97336 0
M  V30 881 N 94.416 -3.57354 -5.93523 0
M  V30 882 N 96.209 -2.74872 -4.90308 0
M  V30 883 H 88.36 -1.78952 -1.14411 0
M  V30 884 H 90.623 -0.763297 -0.562212 0
M  V30 885 H 90.329 -2.44061 -2.53234 0
M  V30 886 H 90.203 -1.0676 -3.61776 0
M  V30 887 H 92.59 -0.353136 -2.92979 0
M  V30 888 H 92.671 -1.75846 -1.85773 0
M  V30 889 H 92.315 -3.28732 -3.87167 0
M  V30 890 H 92.245 -1.85485 -4.92852 0
M  V30 891 H 94.736 -1.70119 -3.37443 0
M  V30 892 H 95.049 -4.02584 -6.59656 0
M  V30 893 H 93.394 -3.61461 -5.93608 0
M  V30 894 H 96.585 -2.18213 -4.14126 0
M  V30 895 H 96.758 -3.24199 -5.61069 0
M  V30 896 N 90.1641 1.46063 -0.591896 0
M  V30 897 C 91.0741 2.34192 0.13831 0
M  V30 898 C 92.0901 1.50305 0.876608 0
M  V30 899 O 93.2661 1.8315 0.837728 0
M  V30 900 C 90.3311 3.27656 1.13326 0
M  V30 901 C 89.3921 4.27445 0.39863 0
M  V30 902 C 88.6251 5.16443 1.34618 0
M  V30 903 O 88.8481 5.08553 2.58321 0
M  V30 904 O 87.7821 5.95843 0.851768 0
M  V30 905 H 91.6081 2.98002 -0.58552 0
M  V30 906 H 89.1931 1.45188 -0.352239 0
M  V30 907 H 91.0751 3.85291 1.70671 0
M  V30 908 H 89.7501 2.6643 1.83839 0
M  V30 909 H 88.6571 3.73471 -0.216895 0
M  V30 910 H 89.9901 4.91482 -0.265709 0
M  V30 911 N 91.6422 0.330177 1.54103 0
M  V30 912 C 92.8902 -0.269871 2.0029 0
M  V30 913 C 93.2112 -1.52133 1.21986 0
M  V30 914 O 92.4812 -1.93212 0.323438 0
M  V30 915 H 91.0612 -0.10271 0.739905 0
M  V30 916 H 93.7232 0.448249 1.89675 0
M  V30 917 H 92.8192 -0.52166 3.07709 0
M  V30 918 N 93.1203 -1.57491 0.0584922 0
M  V30 919 C 94.3673 -1.92978 -0.613648 0
M  V30 920 C 94.6953 -0.937461 -1.70417 0
M  V30 921 O 93.9503 0.049078 -1.95638 0
M  V30 922 C 94.2493 -3.3513 -1.24188 0
M  V30 923 C 93.9153 -4.50037 -0.278826 0
M  V30 924 C 92.5773 -4.81198 -0.0138447 0
M  V30 925 C 94.9293 -5.19807 0.380777 0
M  V30 926 C 92.2573 -5.79473 0.918052 0
M  V30 927 C 94.6093 -6.19079 1.30091 0
M  V30 928 C 93.2733 -6.48665 1.57449 0
M  V30 929 H 92.5433 -0.706157 -0.22455 0
M  V30 930 H 95.1903 -1.91082 0.126533 0
M  V30 931 H 93.4953 -3.33429 -2.05749 0
M  V30 932 H 95.1923 -3.59871 -1.769 0
M  V30 933 H 91.7823 -4.25726 -0.495539 0
M  V30 934 H 95.9663 -4.95939 0.189158 0
M  V30 935 H 91.2223 -6.00727 1.1374 0
M  V30 936 H 95.3963 -6.7225 1.81804 0
M  V30 937 H 93.0233 -7.24628 2.29822 0
M  V30 938 N 94.5984 0.214957 -1.56127 0
M  V30 939 C 96.0094 0.781386 -1.69562 0
M  V30 940 C 96.3604 1.84707 -0.66165 0
M  V30 941 O 95.4854 2.156 0.185927 0
M  V30 942 C 96.0804 1.42411 -3.07416 0
M  V30 943 C 94.6394 1.93786 -3.22683 0
M  V30 944 C 93.7864 0.800438 -2.65496 0
M  V30 945 H 96.7374 -0.00980633 -1.58697 0
M  V30 946 H 96.7584 2.29309 -3.0364 0
M  V30 947 H 96.2704 0.64826 -3.82648 0
M  V30 948 H 94.3714 2.74152 -2.52332 0
M  V30 949 H 94.4844 2.1133 -4.29973 0
M  V30 950 H 92.8484 1.2095 -2.2415 0
M  V30 951 H 93.6314 0.0371471 -3.4328 0
M  V30 952 N 96.0765 1.50051 0.48192 0
M  V30 953 C 97.0245 1.68635 1.60203 0
M  V30 954 C 98.0185 0.552184 1.60148 0
M  V30 955 O 99.2245 0.732377 1.64427 0
M  V30 956 H 95.5995 0.532081 0.531407 0
M  V30 957 H 97.5705 2.62616 1.41688 0
M  V30 958 C 96.3195 1.78775 2.9822 0
M  V30 959 H 95.6425 2.6543 2.98976 0
M  V30 960 H 97.0825 1.95806 3.7608 0
M  V30 961 C 95.5415 0.536849 3.32595 0
M  V30 962 O 96.0715 -0.328897 4.00351 0
M  V30 963 N 94.2775 0.394091 2.87915 0
M  V30 964 H 93.8245 1.09962 2.32951 0
M  V30 965 H 93.7825 -0.441737 3.11281 0
M  V30 966 N 97.5546 -0.734337 1.39446 0
M  V30 967 C 98.7846 -1.52137 1.39778 0
M  V30 968 C 99.1926 -1.89198 -0.00929312 0
M  V30 969 O 98.5356 -1.54666 -0.991168 0
M  V30 970 C 98.5976 -2.83762 2.20724 0
M  V30 971 C 98.2616 -2.69131 3.69347 0
M  V30 972 C 99.2586 -2.37635 4.62413 0
M  V30 973 C 96.9436 -2.85982 4.1294 0
M  V30 974 C 98.9376 -2.23172 5.97054 0
M  V30 975 C 96.6246 -2.71137 5.47657 0
M  V30 976 C 97.6226 -2.39777 6.39528 0
M  V30 977 O 97.3106 -2.25026 7.71763 0
M  V30 978 H 97.0426 -0.476717 0.479288 0
M  V30 979 H 99.5966 -0.915012 1.83893 0
M  V30 980 H 97.8266 -3.4666 1.71359 0
M  V30 981 H 99.5156 -3.45383 2.13226 0
M  V30 982 H 100.282 -2.24267 4.30034 0
M  V30 983 H 96.1606 -3.09383 3.41765 0
M  V30 984 H 99.7046 -1.98617 6.68728 0
M  V30 985 H 95.6016 -2.84083 5.79626 0
M  V30 986 H 96.3696 -2.40091 7.82495 0
M  V30 987 N 99.0327 -1.24633 -0.964593 0
M  V30 988 C 100.449 -1.01239 -1.2338 0
M  V30 989 C 100.649 0.2769 -1.99588 0
M  V30 990 O 99.7047 0.992241 -2.32187 0
M  V30 991 C 101.018 -2.22937 -2.01791 0
M  V30 992 C 102.566 -2.27594 -2.14872 0
M  V30 993 C 103.041 -3.48921 -2.96678 0
M  V30 994 N 104.532 -3.49257 -3.04259 0
M  V30 995 C 105.267 -4.39795 -3.67924 0
M  V30 996 N 104.763 -5.40591 -4.33281 0
M  V30 997 N 106.556 -4.275 -3.64966 0
M  V30 998 H 98.7067 -2.0748 -0.454502 0
M  V30 999 H 100.97 -0.910647 -0.26349 0
M  V30 1000 H 100.676 -3.16587 -1.53184 0
M  V30 1001 H 100.55 -2.25306 -3.02518 0
M  V30 1002 H 102.937 -1.34473 -2.6268 0
M  V30 1003 H 103.018 -2.2925 -1.13482 0
M  V30 1004 H 102.662 -4.42359 -2.49562 0
M  V30 1005 H 102.592 -3.4451 -3.98272 0
M  V30 1006 H 105.083 -2.76337 -2.57771 0
M  V30 1007 H 105.396 -6.05904 -4.79687 0
M  V30 1008 H 103.741 -5.44475 -4.3194 0
M  V30 1009 H 106.932 -3.47987 -3.13086 0
M  V30 1010 H 107.105 -4.98258 -4.14298 0
M  V30 1011 N 100.511 1.16574 -1.06058 0
M  V30 1012 C 101.76 1.86385 -0.770944 0
M  V30 1013 C 102.073 1.82448 0.705129 0
M  V30 1014 O 103.279 2.47815 1.10905 0
M  V30 1015 C 101.735 3.34466 -1.32893 0
M  V30 1016 C 101.343 3.46883 -2.83507 0
M  V30 1017 C 103.087 4.09548 -1.11672 0
M  V30 1018 C 100.994 4.89036 -3.32562 0
M  V30 1019 H 99.9238 0.698181 -0.284709 0
M  V30 1020 H 102.575 1.31583 -1.27899 0
M  V30 1021 H 100.957 3.88859 -0.748662 0
M  V30 1022 H 102.131 3.02663 -3.47465 0
M  V30 1023 H 100.446 2.85232 -3.03368 0
M  V30 1024 H 103.043 5.14434 -1.45814 0
M  V30 1025 H 103.386 4.16264 -0.0549535 0
M  V30 1026 H 103.919 3.61387 -1.66265 0
M  V30 1027 H 100.658 4.87499 -4.38207 0
M  V30 1028 H 100.178 5.3389 -2.73351 0
M  V30 1029 H 101.857 5.57843 -3.2775 0
M  V30 1030 N 101.989 0.842826 1.3317 0
M  V30 1031 C 103.4 0.496651 1.79973 0
M  V30 1032 C 103.751 -0.984641 1.69703 0
M  V30 1033 O 102.876 -1.76743 1.24863 0
M  V30 1034 C 103.471 0.894727 3.26772 0
M  V30 1035 C 102.03 0.600629 3.71577 0
M  V30 1036 C 101.177 1.10091 2.5451 0
M  V30 1037 H 104.128 1.03116 1.20635 0
M  V30 1038 H 104.149 0.206347 3.7994 0
M  V30 1039 H 103.661 1.97287 3.34215 0
M  V30 1040 H 101.762 -0.467284 3.69658 0
M  V30 1041 H 101.875 1.15863 4.64879 0
M  V30 1042 H 100.239 0.52162 2.49301 0
M  V30 1043 H 101.022 2.18591 2.64713 0
M  V30 1044 N 103.467 -1.45747 0.599634 0
M  V30 1045 C 104.43 -2.28917 -0.113835 0
M  V30 1046 C 105.43 -1.3933 -0.802729 0
M  V30 1047 O 106.62 -1.61534 -0.652103 0
M  V30 1048 C 103.752 -3.20152 -1.17114 0
M  V30 1049 H 104.945 -2.93478 0.617289 0
M  V30 1050 H 102.498 -1.52137 0.358327 0
M  V30 1051 H 103.233 -2.60374 -1.93329 0
M  V30 1052 H 103.018 -3.86133 -0.681468 0
M  V30 1053 H 104.508 -3.82708 -1.67105 0
M  V30 1054 N 104.945 -0.338344 -1.53925 0
M  V30 1055 C 105.875 0.51328 -2.27789 0
M  V30 1056 C 106.856 1.107 -1.29149 0
M  V30 1057 O 108.041 1.12937 -1.57984 0
M  V30 1058 C 105.171 1.66697 -3.04679 0
M  V30 1059 C 104.125 1.20183 -4.1078 0
M  V30 1060 C 103.451 2.44363 -4.75595 0
M  V30 1061 C 104.751 0.30605 -5.21403 0
M  V30 1062 H 106.445 -0.102883 -2.99223 0
M  V30 1063 H 103.991 -0.0509219 -1.4391 0
M  V30 1064 H 105.944 2.26915 -3.55088 0
M  V30 1065 H 104.668 2.30995 -2.30887 0
M  V30 1066 H 103.327 0.622499 -3.61276 0
M  V30 1067 H 102.975 3.07057 -3.98403 0
M  V30 1068 H 102.675 2.13925 -5.47275 0
M  V30 1069 H 104.199 3.05317 -5.28786 0
M  V30 1070 H 105.613 0.814929 -5.67478 0
M  V30 1071 H 104.01 0.0937929 -6.00027 0
M  V30 1072 H 105.08 -0.65921 -4.80398 0
M  V30 1073 N 106.423 1.57458 -0.0668435 0
M  V30 1074 C 107.651 1.97624 0.612565 0
M  V30 1075 C 108.066 0.94502 1.63447 0
M  V30 1076 O 107.423 -0.0689276 1.8237 0
M  V30 1077 C 107.474 3.37869 1.28555 0
M  V30 1078 O 107.195 4.3704 0.304557 0
M  V30 1079 C 108.696 3.92882 2.05325 0
M  V30 1080 H 105.916 0.650045 0.166381 0
M  V30 1081 H 108.46 2.04035 -0.137782 0
M  V30 1082 H 106.615 3.3256 1.98702 0
M  V30 1083 H 107.029 5.18565 0.786779 0
M  V30 1084 H 108.503 4.93247 2.47812 0
M  V30 1085 H 108.98 3.29156 2.9078 0
M  V30 1086 H 109.586 4.01577 1.40056 0
M  V30 1087 N 107.901 -0.206675 1.56239 0
M  V30 1088 C 109.147 -0.930218 1.80208 0
M  V30 1089 C 109.48 -1.83387 0.638981 0
M  V30 1090 O 108.755 -1.91119 -0.361066 0
M  V30 1091 C 109.038 -1.75641 3.1436 0
M  V30 1092 C 108.891 -0.878257 4.41142 0
M  V30 1093 C 110.21 -2.73129 3.45092 0
M  V30 1094 H 107.329 -0.336742 0.655571 0
M  V30 1095 H 109.971 -0.198222 1.88963 0
M  V30 1096 H 108.121 -2.38048 3.07027 0
M  V30 1097 H 109.793 -0.269787 4.6051 0
M  V30 1098 H 108.036 -0.184385 4.33408 0
M  V30 1099 H 108.707 -1.49106 5.3148 0
M  V30 1100 H 111.183 -2.20856 3.52649 0
M  V30 1101 H 110.059 -3.28028 4.40101 0
M  V30 1102 H 110.32 -3.51606 2.68003 0
M  V30 1103 N 109.379 -1.50304 -0.473955 0
M  V30 1104 C 110.607 -1.64902 -1.24959 0
M  V30 1105 C 111.022 -0.331198 -1.85872 0
M  V30 1106 O 110.379 0.68652 -1.69095 0
M  V30 1107 C 110.43 -2.73803 -2.36038 0
M  V30 1108 O 110.151 -4.00477 -1.77624 0
M  V30 1109 C 111.652 -2.99349 -3.26964 0
M  V30 1110 H 108.872 -0.554383 -0.378022 0
M  V30 1111 H 111.416 -1.9651 -0.566054 0
M  V30 1112 H 109.571 -2.44898 -3.00173 0
M  V30 1113 H 109.985 -4.60678 -2.5075 0
M  V30 1114 H 111.459 -3.79217 -4.01121 0
M  V30 1115 H 111.936 -2.10307 -3.85574 0
M  V30 1116 H 112.542 -3.29774 -2.68569 0
M  V30 1117 N 110.857 0.726932 -1.39834 0
M  V30 1118 C 112.268 1.30558 -1.3346 0
M  V30 1119 C 112.619 1.962 -0.00273003 0
M  V30 1120 O 111.744 1.96826 0.899371 0
M  V30 1121 C 112.339 2.37404 -2.41713 0
M  V30 1122 C 110.898 2.90921 -2.38835 0
M  V30 1123 C 110.045 1.64578 -2.2318 0
M  V30 1124 H 112.996 0.523862 -1.49804 0
M  V30 1125 H 113.017 3.17984 -2.08966 0
M  V30 1126 H 112.529 1.89599 -3.38635 0
M  V30 1127 H 110.63 3.42985 -1.45575 0
M  V30 1128 H 110.743 3.43487 -3.33997 0
M  V30 1129 H 109.107 1.89219 -1.70494 0
M  V30 1130 H 109.89 1.18814 -3.22084 0
M  V30 1131 N 112.336 1.25143 0.95797 0
M  V30 1132 C 113.613 1.00472 1.67823 0
M  V30 1133 C 113.993 -0.470056 2.058 0
M  V30 1134 O 113.341 -1.44663 1.76875 0
M  V30 1135 C 113.551 1.9372 2.90299 0
M  V30 1136 C 114.899 2.21371 3.62326 0
M  V30 1137 O 115.923 1.91451 3.00375 0
M  V30 1138 O 114.782 2.72231 4.7387 0
M  V30 1139 H 111.876 0.380752 0.734137 0
M  V30 1140 H 114.422 1.36283 1.01119 0
M  V30 1141 H 113.194 2.93316 2.59001 0
M  V30 1142 H 112.817 1.58286 3.64735 0
M  V30 1143 N 113.814 -1.1601 1.06675 0
M  V30 1144 C 115.062 -1.86264 0.784229 0
M  V30 1145 C 115.383 -1.82328 -0.691488 0
M  V30 1146 O 114.653 -1.25947 -1.50047 0
M  V30 1147 H 113.233 -0.689621 0.28711 0
M  V30 1148 H 115.895 -1.40664 1.34906 0
M  V30 1149 H 114.991 -2.91595 1.11259 0
M  V30 1150 N 115.292 -0.849877 -1.32721 0
M  V30 1151 C 116.569 -0.372405 -1.92022 0
M  V30 1152 C 116.949 1.1435 -1.77447 0
M  V30 1153 O 116.297 1.96296 -1.16962 0
M  V30 1154 C 116.507 -0.831482 -3.3895 0
M  V30 1155 C 117.855 -0.845882 -4.16089 0
M  V30 1156 O 118.879 -0.775806 -3.47649 0
M  V30 1157 O 117.738 -0.943753 -5.38289 0
M  V30 1158 H 114.832 -0.107667 -0.819961 0
M  V30 1159 H 117.378 -0.93646 -1.41522 0
M  V30 1160 H 116.15 -1.87448 -3.4348 0
M  V30 1161 H 115.773 -0.24461 -3.96847 0
M  V30 1162 N 116.77 1.45427 -0.607355 0
M  V30 1163 C 117.7 2.3329 0.0989352 0
M  V30 1164 C 118.681 1.46816 0.859007 0
M  V30 1165 O 119.866 1.75588 0.829604 0
M  V30 1166 C 116.996 3.29518 1.09705 0
M  V30 1167 C 115.95 4.25626 0.450206 0
M  V30 1168 C 115.276 5.11542 1.55655 0
M  V30 1169 C 116.576 5.18505 -0.628455 0
M  V30 1170 H 118.27 2.92595 -0.634716 0
M  V30 1171 H 115.816 1.40696 -0.306681 0
M  V30 1172 H 117.769 3.89855 1.59971 0
M  V30 1173 H 116.493 2.68372 1.86129 0
M  V30 1174 H 115.152 3.66586 -0.0315886 0
M  V30 1175 H 114.8 4.46765 2.31107 0
M  V30 1176 H 114.5 5.76647 1.12925 0
M  V30 1177 H 116.024 5.74748 2.06148 0
M  V30 1178 H 117.438 5.72916 -0.209877 0
M  V30 1179 H 115.835 5.92085 -0.977489 0
M  V30 1180 H 116.905 4.60948 -1.50514 0
M  V30 1181 N 118.248 0.346503 1.53744 0
M  V30 1182 C 119.178 -0.501193 2.28058 0
M  V30 1183 C 120.159 -1.10014 1.29734 0
M  V30 1184 O 121.344 -1.12097 1.58581 0
M  V30 1185 C 118.474 -1.65078 3.05559 0
M  V30 1186 C 117.428 -1.18003 4.11411 0
M  V30 1187 C 116.754 -2.41837 4.76884 0
M  V30 1188 C 118.054 -0.278394 5.21558 0
M  V30 1189 H 119.748 0.11875 2.99164 0
M  V30 1190 H 117.294 0.0585531 1.43881 0
M  V30 1191 H 119.247 -2.25028 3.56287 0
M  V30 1192 H 117.971 -2.29767 2.32109 0
M  V30 1193 H 116.63 -0.603331 3.61601 0
M  V30 1194 H 116.278 -3.0494 4.00026 0
M  V30 1195 H 115.978 -2.1102 5.48402 0
M  V30 1196 H 117.502 -3.02508 5.30397 0
M  V30 1197 H 118.916 -0.784823 5.67903 0
M  V30 1198 H 117.313 -0.0619707 6.00068 0
M  V30 1199 H 118.383 0.684677 4.80042 0
M  V30 1200 N 119.726 -1.57421 0.075193 0
M  V30 1201 C 120.689 -2.11791 -0.876203 0
M  V30 1202 C 121.689 -1.04268 -1.22412 0
M  V30 1203 O 122.879 -1.30242 -1.15684 0
M  V30 1204 C 120.011 -2.62207 -2.17854 0
M  V30 1205 H 121.204 -2.9716 -0.40444 0
M  V30 1206 H 118.757 -1.55333 -0.173557 0
M  V30 1207 H 119.492 -1.803 -2.6956 0
M  V30 1208 H 119.277 -3.40802 -1.93897 0
M  V30 1209 H 120.767 -3.04335 -2.85955 0
M  V30 1210 N 121.204 0.198386 -1.56346 0
M  V30 1211 C 122.429 0.939682 -1.84891 0
M  V30 1212 C 122.854 1.76202 -0.658369 0
M  V30 1213 O 122.212 1.76993 0.392851 0
M  V30 1214 C 122.26 1.81428 -3.11635 0
M  V30 1215 O 121.364 2.91265 -2.91956 0
M  V30 1216 H 120.705 0.264807 -0.608912 0
M  V30 1217 H 123.235 0.204695 -2.03573 0
M  V30 1218 H 123.245 2.21958 -3.42343 0
M  V30 1219 H 121.92 1.21004 -3.97908 0
M  V30 1220 H 120.497 2.54514 -2.72538 0
M  V30 1221 N 122.682 1.50554 0.465978 0
M  V30 1222 C 123.912 1.65323 1.23903 0
M  V30 1223 C 124.32 0.338051 1.86155 0
M  V30 1224 O 123.663 -0.690518 1.70228 0
M  V30 1225 C 123.725 2.69048 2.3844 0
M  V30 1226 C 123.389 4.12462 1.96784 0
M  V30 1227 C 124.386 4.98168 1.48745 0
M  V30 1228 C 122.071 4.58407 2.05349 0
M  V30 1229 C 124.065 6.27868 1.0982 0
M  V30 1230 C 121.752 5.88112 1.66035 0
M  V30 1231 C 122.75 6.72668 1.18349 0
M  V30 1232 O 122.438 7.99951 0.795825 0
M  V30 1233 H 122.17 0.558629 0.38067 0
M  V30 1234 H 124.724 1.97561 0.562022 0
M  V30 1235 H 122.954 2.32062 3.09328 0
M  V30 1236 H 124.643 2.72985 3.0039 0
M  V30 1237 H 125.409 4.63885 1.41546 0
M  V30 1238 H 121.288 3.92735 2.41414 0
M  V30 1239 H 124.832 6.93819 0.725293 0
M  V30 1240 H 120.729 6.21914 1.72895 0
M  V30 1241 H 121.497 8.13265 0.924222 0
M  V30 1242 N 124.16 -0.719506 1.40217 0
M  V30 1243 C 125.437 -1.47221 1.28784 0
M  V30 1244 C 125.817 -2.10883 -0.0956067 0
M  V30 1245 O 125.165 -1.99833 -1.10811 0
M  V30 1246 C 125.375 -2.5111 2.42373 0
M  V30 1247 C 126.723 -3.17053 2.82423 0
M  V30 1248 O 127.747 -2.61429 2.41937 0
M  V30 1249 O 126.606 -4.17742 3.52355 0
M  V30 1250 H 123.7 -0.654491 0.50554 0
M  V30 1251 H 126.246 -0.752014 1.52128 0
M  V30 1252 H 125.018 -2.02556 3.34793 0
M  V30 1253 H 124.641 -3.3067 2.20778 0
M  V30 1254 N 125.638 -1.25649 -0.95132 0
M  V30 1255 C 126.886 -1.10375 -1.69298 0
M  V30 1256 C 127.207 0.355339 -1.91735 0
M  V30 1257 O 126.477 1.25188 -1.50681 0
M  V30 1258 H 125.057 -0.405461 -0.627384 0
M  V30 1259 H 127.719 -1.57823 -1.14358 0
M  V30 1260 H 126.815 -1.61465 -2.67087 0
M  V30 1261 N 127.117 1.15442 -1.07289 0
M  V30 1262 C 128.533 1.38201 -0.798288 0
M  V30 1263 C 128.733 1.92429 0.597769 0
M  V30 1264 O 127.789 2.12962 1.3566 0
M  V30 1265 C 129.102 2.35357 -1.87156 0
M  V30 1266 C 130.65 2.49021 -1.89624 0
M  V30 1267 C 131.125 3.49468 -2.96034 0
M  V30 1268 N 132.616 3.57003 -2.95132 0
M  V30 1269 C 133.351 4.34543 -3.74112 0
M  V30 1270 N 132.847 5.15421 -4.6294 0
M  V30 1271 N 134.64 4.29625 -3.62462 0
M  V30 1272 H 126.791 0.78584 -1.97328 0
M  V30 1273 H 129.054 0.408065 -0.855679 0
M  V30 1274 H 128.76 2.02626 -2.87464 0
M  V30 1275 H 128.634 3.35129 -1.73114 0
M  V30 1276 H 131.021 2.81051 -0.899687 0
M  V30 1277 H 131.102 1.4925 -2.07745 0
M  V30 1278 H 130.746 3.18173 -3.95889 0
M  V30 1279 H 130.676 4.48992 -2.75161 0
M  V30 1280 H 133.167 2.99276 -2.30743 0
M  V30 1281 H 133.48 5.7183 -5.19837 0
M  V30 1282 H 131.825 5.14729 -4.66989 0
M  V30 1283 H 135.016 3.65505 -2.92444 0
M  V30 1284 H 135.189 4.89807 -4.24256 0
M  V30 1285 N 128.595 0.856903 1.32268 0
M  V30 1286 C 130.006 0.515711 1.79436 0
M  V30 1287 C 130.357 -0.966586 1.70738 0
M  V30 1288 O 129.482 -1.75409 1.26731 0
M  V30 1289 C 130.077 0.929335 3.25805 0
M  V30 1290 C 128.636 0.640006 3.70919 0
M  V30 1291 C 127.783 1.12784 2.53328 0
M  V30 1292 H 130.734 1.04389 1.19535 0
M  V30 1293 H 130.755 0.246633 3.797 0
M  V30 1294 H 130.267 2.00821 3.32103 0
M  V30 1295 H 128.368 -0.428051 3.70133 0
M  V30 1296 H 128.481 1.20788 4.63624 0
M  V30 1297 H 126.845 0.548033 2.48734 0
M  V30 1298 H 127.628 2.21387 2.62379 0
M  V30 1299 N 130.073 -1.45103 0.615059 0
M  V30 1300 C 131.301 -2.06553 0.11977 0
M  V30 1301 C 131.716 -1.45842 -1.19898 0
M  V30 1302 O 131.073 -0.575325 -1.73194 0
M  V30 1303 C 131.124 -3.61495 -0.018364 0
M  V30 1304 O 130.845 -4.19942 1.24822 0
M  V30 1305 C 132.346 -4.39947 -0.544237 0
M  V30 1306 H 129.566 -0.667096 0.0722739 0
M  V30 1307 H 132.11 -1.8623 0.84491 0
M  V30 1308 H 130.265 -3.81135 -0.693865 0
M  V30 1309 H 130.679 -5.13204 1.0827 0
M  V30 1310 H 132.153 -5.48838 -0.589953 0
M  V30 1311 H 132.63 -4.10255 -1.56805 0
M  V30 1312 H 133.236 -4.25188 0.0974703 0
M  V30 1313 N 131.551 -0.354651 -1.53558 0
M  V30 1314 C 132.799 0.237972 -2.00694 0
M  V30 1315 C 133.12 1.50173 -1.24391 0
M  V30 1316 O 132.39 1.92673 -0.354135 0
M  V30 1317 H 130.97 0.0909256 -0.741446 0
M  V30 1318 H 133.632 -0.478368 -1.88938 0
M  V30 1319 H 132.728 0.47264 -3.085 0
M  V30 1320 N 133.029 1.57378 -0.0835403 0
M  V30 1321 C 134.278 1.93106 0.582498 0
M  V30 1322 C 134.591 0.96651 1.70053 0
M  V30 1323 O 135.797 1.21705 2.42693 0
M  V30 1324 C 134.253 3.43076 1.08751 0
M  V30 1325 C 133.861 4.48 -0.000146404 0
M  V30 1326 C 135.605 3.87785 1.72694 0
M  V30 1327 C 133.512 5.89113 0.519568 0
M  V30 1328 H 132.442 0.720775 0.221358 0
M  V30 1329 H 135.093 1.82821 -0.157675 0
M  V30 1330 H 133.475 3.48474 1.88101 0
M  V30 1331 H 134.649 4.54233 -0.775199 0
M  V30 1332 H 132.964 4.1283 -0.54406 0
M  V30 1333 H 135.561 4.90604 2.1263 0
M  V30 1334 H 135.904 3.25796 2.59158 0
M  V30 1335 H 136.437 3.8504 0.999457 0
M  V30 1336 H 133.176 6.54775 -0.308186 0
M  V30 1337 H 132.696 5.86376 1.26188 0
M  V30 1338 H 134.375 6.39346 0.992237 0
M  V30 1339 N 134.507 -0.190092 1.56449 0
M  V30 1340 C 135.784 -0.935886 1.71757 0
M  V30 1341 C 136.164 -2.01173 0.639726 0
M  V30 1342 O 135.512 -2.25827 -0.348502 0
M  V30 1343 C 135.722 -1.51775 3.1427 0
M  V30 1344 C 137.07 -1.99794 3.74656 0
M  V30 1345 O 138.094 -1.61607 3.1743 0
M  V30 1346 O 136.953 -2.70079 4.751 0
M  V30 1347 H 134.047 -0.439229 0.700719 0
M  V30 1348 H 136.593 -0.179395 1.68749 0
M  V30 1349 H 135.365 -0.742505 3.84191 0
M  V30 1350 H 134.988 -2.33894 3.21527 0
M  V30 1351 N 135.985 -1.50799 -0.457987 0
M  V30 1352 C 136.948 -1.7005 -1.53674 0
M  V30 1353 C 137.948 -0.570881 -1.50325 0
M  V30 1354 O 139.138 -0.838126 -1.52712 0
M  V30 1355 C 136.27 -1.73788 -2.93276 0
M  V30 1356 H 137.463 -2.66306 -1.37917 0
M  V30 1357 H 135.016 -1.40477 -0.685271 0
M  V30 1358 H 135.751 -0.792717 -3.14462 0
M  V30 1359 H 135.536 -2.55864 -2.97113 0
M  V30 1360 H 137.026 -1.90591 -3.71571 0
M  V30 1361 N 137.463 0.71206 -1.40597 0
M  V30 1362 C 138.874 1.29135 -1.34837 0
M  V30 1363 C 139.225 1.96186 -0.0235395 0
M  V30 1364 O 138.35 1.97768 0.878444 0
M  V30 1365 C 138.945 2.34827 -2.44217 0
M  V30 1366 C 137.504 2.88371 -2.41907 0
M  V30 1367 C 136.651 1.62202 -2.24913 0
M  V30 1368 H 139.602 0.507944 -1.50352 0
M  V30 1369 H 139.623 3.15749 -2.12327 0
M  V30 1370 H 139.135 1.85996 -3.40627 0
M  V30 1371 H 137.236 3.41422 -1.49204 0
M  V30 1372 H 137.349 3.39925 -3.37621 0
M  V30 1373 H 135.713 1.874 -1.72492 0
M  V30 1374 H 136.496 1.15391 -3.23326 0
M  V30 1375 N 138.941 1.26152 0.944643 0
M  V30 1376 C 140.189 1.11271 1.6871 0
M  V30 1377 C 140.51 -0.345166 1.91921 0
M  V30 1378 O 139.78 -1.24387 1.51343 0
M  V30 1379 H 138.36 0.408783 0.625224 0
M  V30 1380 H 141.022 1.58427 1.1352 0
M  V30 1381 H 140.118 1.62879 2.66227 0
M  V30 1382 N 140.419 -1.14872 1.07899 0
M  V30 1383 C 141.83 -1.67367 0.827363 0
M  V30 1384 C 142.181 -1.85236 -0.646693 0
M  V30 1385 O 141.306 -1.55974 -1.50004 0
M  V30 1386 C 141.901 -3.04016 1.49532 0
M  V30 1387 C 140.46 -3.53566 1.29106 0
M  V30 1388 C 139.607 -2.29161 1.56143 0
M  V30 1389 H 142.558 -0.990083 1.24028 0
M  V30 1390 H 142.579 -3.69219 0.919643 0
M  V30 1391 H 142.091 -2.90978 2.56814 0
M  V30 1392 H 140.192 -3.71835 0.238713 0
M  V30 1393 H 140.305 -4.34661 2.01511 0
M  V30 1394 H 138.669 -2.34978 0.982717 0
M  V30 1395 H 139.452 -2.18705 2.64619 0
M  V30 1396 N 141.898 -0.863906 -1.31812 0
M  V30 1397 C 142.846 -0.30422 -2.30602 0
M  V30 1398 C 143.84 0.577419 -1.59255 0
M  V30 1399 O 145.046 0.464194 -1.73912 0
M  V30 1400 H 141.421 -0.0796877 -0.747766 0
M  V30 1401 H 143.392 -1.15148 -2.75288 0
M  V30 1402 C 142.141 0.484617 -3.44306 0
M  V30 1403 H 141.464 -0.18451 -3.99374 0
M  V30 1404 H 142.904 0.841664 -4.15562 0
M  V30 1405 C 141.363 1.6735 -2.92396 0
M  V30 1406 O 141.893 2.77273 -2.90659 0
M  V30 1407 N 140.099 1.50362 -2.48676 0
M  V30 1408 H 139.646 0.609402 -2.50288 0
M  V30 1409 H 139.604 2.30051 -2.14299 0
M  V30 1410 N 143.376 1.44774 -0.622745 0
M  V30 1411 C 144.601 2.06999 -0.128968 0
M  V30 1412 C 145.026 1.4617 1.1839 0
M  V30 1413 O 144.384 0.560007 1.72434 0
M  V30 1414 C 144.432 3.60595 -0.0188351 0
M  V30 1415 O 143.536 3.99398 1.02739 0
M  V30 1416 H 142.877 0.659047 -0.0809544 0
M  V30 1417 H 145.407 1.85784 -0.85705 0
M  V30 1418 H 145.417 4.07627 0.174476 0
M  V30 1419 H 144.092 4.04252 -0.977384 0
M  V30 1420 H 142.669 3.64011 0.809326 0
M  V30 1421 N 144.854 0.36279 1.53368 0
M  V30 1422 C 146.103 -0.22888 2.00397 0
M  V30 1423 C 146.416 -1.50096 1.25421 0
M  V30 1424 O 147.622 -2.17106 1.63025 0
M  V30 1425 C 146.078 -0.458417 3.56969 0
M  V30 1426 C 145.686 0.798877 4.4082 0
M  V30 1427 C 147.43 -1.00789 4.12361 0
M  V30 1428 C 145.337 0.539078 5.88938 0
M  V30 1429 H 144.267 -0.089305 0.748693 0
M  V30 1430 H 146.918 0.481099 1.77081 0
M  V30 1431 H 145.3 -1.22959 3.76427 0
M  V30 1432 H 146.474 1.57262 4.33134 0
M  V30 1433 H 144.789 1.27137 3.96516 0
M  V30 1434 H 147.386 -1.21754 5.20653 0
M  V30 1435 H 147.729 -1.9692 3.66781 0
M  V30 1436 H 148.262 -0.296961 3.9669 0
M  V30 1437 H 145.001 1.47064 6.3879 0
M  V30 1438 H 144.521 -0.196222 5.99479 0
M  V30 1439 H 146.2 0.163542 6.46793 0
M  V30 1440 N 146.332 -1.57332 0.0918853 0
M  V30 1441 C 147.262 -2.16872 -0.865371 0
M  V30 1442 C 148.243 -1.10118 -1.29646 0
M  V30 1443 O 149.428 -1.38242 -1.36392 0
M  V30 1444 C 146.558 -2.74649 -2.12569 0
M  V30 1445 C 145.512 -3.86747 -1.83333 0
M  V30 1446 C 144.838 -4.31212 -3.16166 0
M  V30 1447 C 146.138 -5.10089 -1.1228 0
M  V30 1448 H 147.832 -2.97114 -0.369307 0
M  V30 1449 H 145.378 -1.42918 -0.176194 0
M  V30 1450 H 147.331 -3.14952 -2.7997 0
M  V30 1451 H 146.055 -1.91657 -2.64452 0
M  V30 1452 H 144.714 -3.46978 -1.18331 0
M  V30 1453 H 144.362 -3.45115 -3.6593 0
M  V30 1454 H 144.062 -5.06788 -2.97388 0
M  V30 1455 H 145.586 -4.74146 -3.84731 0
M  V30 1456 H 147 -5.47582 -1.69785 0
M  V30 1457 H 145.397 -5.91073 -1.03693 0
M  V30 1458 H 146.467 -4.84786 -0.105041 0
M  V30 1459 N 147.81 0.181792 -1.56548 0
M  V30 1460 C 148.742 1.24956 -1.92142 0
M  V30 1461 C 149.755 1.41022 -0.813422 0
M  V30 1462 O 150.944 1.41212 -1.09186 0
M  V30 1463 C 148.044 2.61981 -2.14987 0
M  V30 1464 C 147.217 2.6735 -3.46183 0
M  V30 1465 C 146.276 3.85664 -3.5798 0
M  V30 1466 O 145.302 3.72148 -4.30691 0
M  V30 1467 N 146.504 5.01683 -2.92053 0
M  V30 1468 H 149.269 0.947329 -2.84334 0
M  V30 1469 H 146.83 0.371629 -1.57577 0
M  V30 1470 H 148.822 3.3958 -2.20154 0
M  V30 1471 H 147.392 2.84637 -1.2923 0
M  V30 1472 H 146.612 1.75925 -3.52766 0
M  V30 1473 H 147.9 2.67939 -4.32534 0
M  V30 1474 H 147.298 5.15564 -2.32832 0
M  V30 1475 H 145.855 5.77181 -3.0283 0
M  V30 1476 N 149.288 1.51039 0.449983 0
M  V30 1477 C 150.704 1.38934 0.785462 0
M  V30 1478 C 150.904 0.461817 1.96136 0
M  V30 1479 O 149.96 -0.0877389 2.52348 0
M  V30 1480 C 151.273 2.80724 1.0777 0
M  V30 1481 C 152.821 2.89787 1.1829 0
M  V30 1482 C 153.296 4.32457 1.50815 0
M  V30 1483 N 154.787 4.35505 1.57764 0
M  V30 1484 C 155.522 5.42914 1.84477 0
M  V30 1485 N 155.018 6.60502 2.09068 0
M  V30 1486 N 156.811 5.3038 1.86155 0
M  V30 1487 H 148.962 2.09904 -0.324647 0
M  V30 1488 H 151.225 0.944378 -0.0827957 0
M  V30 1489 H 150.931 3.50531 0.286498 0
M  V30 1490 H 150.805 3.19273 2.00859 0
M  V30 1491 H 153.192 2.20186 1.96474 0
M  V30 1492 H 153.273 2.54752 0.231314 0
M  V30 1493 H 152.917 5.02603 0.731622 0
M  V30 1494 H 152.847 4.64995 2.47158 0
M  V30 1495 H 155.338 3.50724 1.40715 0
M  V30 1496 H 155.651 7.38158 2.28785 0
M  V30 1497 H 153.996 6.63639 2.06416 0
M  V30 1498 H 157.187 4.37505 1.66454 0
M  V30 1499 H 157.36 6.1417 2.06637 0
M  V30 1500 N 150.766 -0.704594 1.40972 0
M  V30 1501 C 152.182 -1.01406 1.23244 0
M  V30 1502 C 152.382 -2.01169 0.115399 0
M  V30 1503 O 151.438 -2.47021 -0.523147 0
M  V30 1504 C 152.751 -1.54728 2.57836 0
M  V30 1505 C 154.299 -1.66658 2.64942 0
M  V30 1506 C 154.774 -2.23383 3.9983 0
M  V30 1507 N 156.265 -2.30756 4.01629 0
M  V30 1508 C 157 -2.75655 5.02794 0
M  V30 1509 N 156.496 -3.20225 6.14352 0
M  V30 1510 N 158.289 -2.75138 4.90159 0
M  V30 1511 H 150.44 -0.0435285 2.12355 0
M  V30 1512 H 152.703 -0.0818951 0.944456 0
M  V30 1513 H 152.409 -0.888832 3.40283 0
M  V30 1514 H 152.283 -2.53084 2.79693 0
M  V30 1515 H 154.67 -2.31617 1.8286 0
M  V30 1516 H 154.751 -0.668717 2.46904 0
M  V30 1517 H 154.395 -1.59043 4.82357 0
M  V30 1518 H 154.325 -3.23904 4.15203 0
M  V30 1519 H 156.816 -1.99291 3.21079 0
M  V30 1520 H 157.129 -3.53084 6.87424 0
M  V30 1521 H 155.474 -3.18156 6.17901 0
M  V30 1522 H 158.665 -2.39661 4.02095 0
M  V30 1523 H 158.838 -3.09812 5.6914 0
M  V30 1524 N 152.244 -1.26651 -0.937939 0
M  V30 1525 C 153.469 -1.15279 -1.72411 0
M  V30 1526 C 153.894 0.287866 -1.85884 0
M  V30 1527 O 153.252 1.20855 -1.35143 0
M  V30 1528 C 153.3 -1.83028 -3.10698 0
M  V30 1529 O 152.404 -1.12128 -3.96864 0
M  V30 1530 H 151.745 -0.401504 -0.528858 0
M  V30 1531 H 154.275 -1.67531 -1.1745 0
M  V30 1532 H 154.285 -1.89981 -3.6107 0
M  V30 1533 H 152.96 -2.87833 -3.00208 0
M  V30 1534 H 151.537 -1.13173 -3.55312 0
M  V30 1535 N 153.722 1.14298 -1.08507 0
M  V30 1536 C 154.95 1.89219 -0.836876 0
M  V30 1537 C 155.365 1.78638 0.611054 0
M  V30 1538 O 154.722 1.14643 1.41998 0
M  V30 1539 C 154.773 3.39158 -1.25116 0
M  V30 1540 O 154.494 3.49449 -2.64229 0
M  V30 1541 C 155.995 4.31073 -1.03398 0
M  V30 1542 H 153.215 0.599328 -0.301739 0
M  V30 1543 H 155.759 1.44746 -1.44461 0
M  V30 1544 H 153.914 3.81251 -0.687514 0
M  V30 1545 H 154.328 4.42589 -2.81452 0
M  V30 1546 H 155.802 5.34646 -1.37323 0
M  V30 1547 H 156.279 4.3919 0.0289259 0
M  V30 1548 H 156.885 3.94738 -1.58311 0
M  V30 1549 N 155.201 0.870884 1.31352 0
M  V30 1550 C 156.478 0.402907 1.91405 0
M  V30 1551 C 156.858 -1.11512 1.79244 0
M  V30 1552 O 156.206 -1.94411 1.2007 0
M  V30 1553 C 156.416 0.885301 3.37585 0
M  V30 1554 C 157.764 0.911971 4.14691 0
M  V30 1555 O 158.788 0.831016 3.46371 0
M  V30 1556 O 157.647 1.02927 5.3672 0
M  V30 1557 H 154.741 0.120698 0.818145 0
M  V30 1558 H 157.287 0.958857 1.40014 0
M  V30 1559 H 156.059 1.92889 3.40455 0
M  V30 1560 H 155.682 0.307714 3.96407 0
M  V30 1561 N 156.679 -1.44442 0.630414 0
M  V30 1562 C 157.927 -2.01653 0.134351 0
M  V30 1563 C 158.248 -1.49836 -1.24796 0
M  V30 1564 O 157.518 -0.701684 -1.82902 0
M  V30 1565 H 156.098 -0.74554 0.0466769 0
M  V30 1566 H 158.76 -1.76952 0.816955 0
M  V30 1567 H 157.856 -3.11935 0.101498 0
M  V30 1568 N 158.157 -0.370918 -1.53173 0
M  V30 1569 C 159.405 0.216673 -2.00935 0
M  V30 1570 C 159.726 1.48845 -1.25977 0
M  V30 1571 O 158.996 1.92286 -0.374551 0
M  V30 1572 H 157.576 0.0830565 -0.742368 0
M  V30 1573 H 160.238 -0.49838 -1.8842 0
M  V30 1574 H 159.334 0.439893 -3.08984 0
M  V30 1575 N 159.635 1.57281 -0.100228 0
M  V30 1576 C 161.051 1.57527 0.256416 0
M  V30 1577 C 161.251 1.11173 1.68056 0
M  V30 1578 O 160.307 0.79053 2.39806 0
M  V30 1579 C 161.62 3.00673 0.0401747 0
M  V30 1580 C 163.168 3.12815 0.107528 0
M  V30 1581 C 163.643 4.57929 -0.0807834 0
M  V30 1582 N 165.134 4.63193 -0.0261207 0
M  V30 1583 C 165.869 5.73212 -0.146999 0
M  V30 1584 N 165.365 6.92047 -0.322999 0
M  V30 1585 N 167.158 5.62031 -0.0879044 0
M  V30 1586 H 159.309 1.85718 -1.03065 0
M  V30 1587 H 161.572 0.857446 -0.404339 0
M  V30 1588 H 161.278 3.38804 -0.943649 0
M  V30 1589 H 161.152 3.69042 0.780262 0
M  V30 1590 H 163.539 2.74554 1.08186 0
M  V30 1591 H 163.62 2.47028 -0.664134 0
M  V30 1592 H 163.264 4.96886 -1.05201 0
M  V30 1593 H 163.194 5.21783 0.710635 0
M  V30 1594 H 165.685 3.77748 0.107161 0
M  V30 1595 H 165.998 7.7173 -0.406608 0
M  V30 1596 H 164.343 6.94074 -0.358733 0
M  V30 1597 H 167.534 4.68075 0.048498 0
M  V30 1598 H 167.707 6.47734 -0.185557 0
M  V30 1599 N 161.113 -0.173488 1.56642 0
M  V30 1600 C 162.341 -0.906095 1.86004 0
M  V30 1601 C 162.756 -1.75921 0.685355 0
M  V30 1602 O 162.113 -1.79198 -0.345578 0
M  V30 1603 C 162.164 -1.78462 3.14378 0
M  V30 1604 O 161.885 -0.965914 4.27319 0
M  V30 1605 C 163.386 -2.62707 3.57071 0
M  V30 1606 H 160.606 -0.263341 0.617165 0
M  V30 1607 H 163.15 -0.174236 2.03756 0
M  V30 1608 H 161.305 -2.46984 2.98459 0
M  V30 1609 H 161.719 -1.56655 5.00559 0
M  V30 1610 H 163.193 -3.19969 4.49804 0
M  V30 1611 H 163.67 -3.37472 2.81086 0
M  V30 1612 H 164.276 -1.99521 3.75595 0
M  V30 1613 N 162.591 -1.51276 -0.441967 0
M  V30 1614 C 163.837 -1.6492 -1.1905 0
M  V30 1615 C 164.192 -0.358731 -1.89026 0
M  V30 1616 O 163.485 0.645193 -1.8041 0
M  V30 1617 C 163.679 -2.78746 -2.23686 0
M  V30 1618 C 163.508 -4.18737 -1.63979 0
M  V30 1619 C 162.278 -4.84739 -1.42674 0
M  V30 1620 C 164.476 -5.01988 -1.11858 0
M  V30 1621 N 162.458 -6.08858 -0.785159 0
M  V30 1622 C 163.829 -6.17071 -0.601989 0
M  V30 1623 C 165.884 -4.87551 -1.0099 0
M  V30 1624 C 164.587 -7.19299 0.0126012 0
M  V30 1625 C 166.613 -5.89983 -0.409206 0
M  V30 1626 C 165.975 -7.04333 0.0968651 0
M  V30 1627 H 162.074 -0.657416 -0.423471 0
M  V30 1628 H 164.658 -1.8849 -0.48782 0
M  V30 1629 H 162.829 -2.56848 -2.91348 0
M  V30 1630 H 164.561 -2.81595 -2.90666 0
M  V30 1631 H 161.316 -4.42528 -1.68719 0
M  V30 1632 H 161.74 -6.75282 -0.481942 0
M  V30 1633 H 166.382 -3.99401 -1.38703 0
M  V30 1634 H 164.1 -8.071 0.401879 0
M  V30 1635 H 167.686 -5.8088 -0.327079 0
M  V30 1636 H 166.566 -7.82238 0.554373 0
M  V30 1637 N 164.069 0.697108 -1.41344 0
M  V30 1638 C 165.317 1.45426 -1.40341 0
M  V30 1639 C 165.638 1.94996 -0.0128787 0
M  V30 1640 O 164.908 1.71599 0.945027 0
M  V30 1641 H 163.488 0.539594 -0.516573 0
M  V30 1642 H 166.15 0.825201 -1.76569 0
M  V30 1643 H 165.246 2.31817 -2.08967 0
M  V30 1644 N 165.547 1.27147 0.931209 0
M  V30 1645 C 166.457 1.11372 2.06478 0
M  V30 1646 C 167.473 0.044645 1.73943 0
M  V30 1647 O 168.649 0.250417 1.99837 0
M  V30 1648 C 165.714 0.758838 3.38294 0
M  V30 1649 C 164.775 1.90841 3.84549 0
M  V30 1650 C 164.008 1.57036 5.10074 0
M  V30 1651 O 164.231 0.476645 5.68405 0
M  V30 1652 O 163.165 2.40839 5.51616 0
M  V30 1653 H 166.991 2.06493 2.22698 0
M  V30 1654 H 164.576 1.06301 1.04978 0
M  V30 1655 H 166.458 0.574098 4.17471 0
M  V30 1656 H 165.133 -0.162879 3.2329 0
M  V30 1657 H 164.04 2.14819 3.06274 0
M  V30 1658 H 165.373 2.81021 4.04089 0
M  V30 1659 N 167.025 -1.13721 1.09112 0
M  V30 1660 C 167.957 -2.1871 0.685467 0
M  V30 1661 C 168.97 -1.60527 -0.271068 0
M  V30 1662 O 170.159 -1.78407 -0.0576148 0
M  V30 1663 C 167.259 -3.38898 -0.0111255 0
M  V30 1664 C 166.432 -4.26597 0.966131 0
M  V30 1665 C 165.491 -5.25324 0.303539 0
M  V30 1666 O 164.517 -5.61213 0.950177 0
M  V30 1667 N 165.719 -5.72779 -0.943651 0
M  V30 1668 H 168.484 -2.54126 1.58871 0
M  V30 1669 H 166.045 -1.29012 0.978143 0
M  V30 1670 H 168.037 -4.02014 -0.465517 0
M  V30 1671 H 166.607 -3.01747 -0.816565 0
M  V30 1672 H 165.827 -3.60306 1.59917 0
M  V30 1673 H 167.115 -4.82048 1.6281 0
M  V30 1674 H 166.513 -5.45762 -1.48862 0
M  V30 1675 H 165.07 -6.37847 -1.34142 0
M  V30 1676 N 168.503 -0.877838 -1.30888 0
M  V30 1677 C 169.435 -0.296607 -2.27273 0
M  V30 1678 C 170.448 0.544799 -1.53414 0
M  V30 1679 O 171.637 0.365511 -1.74718 0
M  V30 1680 C 168.737 0.597481 -3.33592 0
M  V30 1681 C 167.91 -0.213251 -4.3688 0
M  V30 1682 C 166.969 0.610208 -5.2265 0
M  V30 1683 O 165.995 0.035441 -5.69189 0
M  V30 1684 N 167.197 1.92071 -5.47804 0
M  V30 1685 H 169.962 -1.12492 -2.77787 0
M  V30 1686 H 167.523 -0.740105 -1.43993 0
M  V30 1687 H 169.515 1.15425 -3.87891 0
M  V30 1688 H 168.085 1.32647 -2.83061 0
M  V30 1689 H 167.305 -0.951466 -3.82545 0
M  V30 1690 H 168.593 -0.769262 -5.02951 0
M  V30 1691 H 167.991 2.4107 -5.11763 0
M  V30 1692 H 166.548 2.42508 -6.05007 0
M  V30 1693 N 169.982 1.44106 -0.638065 0
M  V30 1694 C 171.228 2.02277 -0.145546 0
M  V30 1695 C 171.561 1.50125 1.23191 0
M  V30 1696 O 170.836 0.688133 1.8192 0
M  V30 1697 C 171.119 3.59829 -0.139791 0
M  V30 1698 C 170.972 4.22247 -1.55008 0
M  V30 1699 C 172.291 4.36873 0.531966 0
M  V30 1700 H 169.41 0.734992 -0.0543632 0
M  V30 1701 H 172.052 1.71592 -0.815863 0
M  V30 1702 H 170.202 3.86102 0.431007 0
M  V30 1703 H 171.874 4.07057 -2.1703 0
M  V30 1704 H 170.117 3.79476 -2.10191 0
M  V30 1705 H 170.788 5.31284 -1.49804 0
M  V30 1706 H 173.264 4.16074 0.0464781 0
M  V30 1707 H 172.14 5.4657 0.505206 0
M  V30 1708 H 172.401 4.11995 1.60352 0
M  V30 1709 N 171.46 0.379036 1.52974 0
M  V30 1710 C 172.706 -0.206727 2.01744 0
M  V30 1711 C 173.039 -1.47314 1.26539 0
M  V30 1712 O 172.314 -1.91084 0.362903 0
M  V30 1713 C 172.597 -0.485066 3.56818 0
M  V30 1714 C 172.45 0.795919 4.42702 0
M  V30 1715 C 173.769 -1.28003 4.21074 0
M  V30 1716 H 170.888 -0.0736607 0.73331 0
M  V30 1717 H 173.53 0.506581 1.83122 0
M  V30 1718 H 171.68 -1.09272 3.72816 0
M  V30 1719 H 173.352 1.43307 4.38476 0
M  V30 1720 H 171.595 1.41344 4.10127 0
M  V30 1721 H 172.266 0.555947 5.49193 0
M  V30 1722 H 174.742 -0.765867 4.08991 0
M  V30 1723 H 173.618 -1.44352 5.29579 0
M  V30 1724 H 173.879 -2.29236 3.78026 0
M  V30 1725 N 172.938 -1.57226 0.108567 0
M  V30 1726 C 174.163 -1.99604 -0.563303 0
M  V30 1727 C 174.588 -0.987563 -1.6009 0
M  V30 1728 O 173.946 0.0421687 -1.81251 0
M  V30 1729 C 173.994 -3.40902 -1.17552 0
M  V30 1730 O 173.098 -3.42896 -2.2912 0
M  V30 1731 H 172.439 -0.648704 -0.1417 0
M  V30 1732 H 174.969 -2.03679 0.193961 0
M  V30 1733 H 174.979 -3.78886 -1.51357 0
M  V30 1734 H 173.654 -4.1382 -0.415445 0
M  V30 1735 H 172.231 -3.1672 -1.96832 0
M  V30 1736 N 174.416 0.165178 -1.56732 0
M  V30 1737 C 175.379 1.18822 -1.95995 0
M  V30 1738 C 176.379 1.3685 -0.84431 0
M  V30 1739 O 177.569 1.34152 -1.11126 0
M  V30 1740 C 174.701 2.5521 -2.26011 0
M  V30 1741 H 175.894 0.851825 -2.87548 0
M  V30 1742 H 173.447 0.407857 -1.50885 0
M  V30 1743 H 174.182 2.93852 -1.37191 0
M  V30 1744 H 173.967 2.43489 -3.07336 0
M  V30 1745 H 175.457 3.28927 -2.57288 0
M  V30 1746 N 175.894 1.51508 0.433938 0
M  V30 1747 C 177.142 1.6402 1.18075 0
M  V30 1748 C 177.463 0.360328 1.91642 0
M  V30 1749 O 176.733 -0.623945 1.85698 0
M  V30 1750 H 175.313 0.6045 0.43885 0
M  V30 1751 H 177.975 1.88452 0.497178 0
M  V30 1752 H 177.071 2.46949 1.90847 0
M  V30 1753 N 177.372 -0.689602 1.41712 0
M  V30 1754 C 178.304 -1.815 1.39966 0
M  V30 1755 C 179.317 -1.59995 0.300917 0
M  V30 1756 O 180.506 -1.69387 0.563039 0
M  V30 1757 C 177.606 -3.18364 1.16179 0
M  V30 1758 C 176.779 -3.66847 2.38206 0
M  V30 1759 C 175.838 -4.82398 2.10186 0
M  V30 1760 O 174.864 -4.93706 2.83272 0
M  V30 1761 N 176.066 -5.70064 1.0958 0
M  V30 1762 H 178.831 -1.83488 2.36965 0
M  V30 1763 H 176.392 -0.872149 1.36401 0
M  V30 1764 H 178.384 -3.93301 0.953756 0
M  V30 1765 H 176.954 -3.11365 0.27756 0
M  V30 1766 H 176.174 -2.82751 2.74673 0
M  V30 1767 H 177.462 -3.95978 3.19498 0
M  V30 1768 H 176.86 -5.63565 0.491019 0
M  V30 1769 H 175.417 -6.44874 0.947656 0
M  V30 1770 N 178.85 -1.27639 -0.924453 0
M  V30 1771 C 180.078 -1.16989 -1.70649 0
M  V30 1772 C 180.493 0.272869 -1.86818 0
M  V30 1773 O 179.85 1.18549 -1.38753 0
M  V30 1774 C 179.901 -1.85229 -3.10439 0
M  V30 1775 O 179.622 -3.23868 -2.95028 0
M  V30 1776 C 181.123 -1.80746 -4.04779 0
M  V30 1777 H 178.343 -0.406595 -0.53378 0
M  V30 1778 H 180.887 -1.68569 -1.15778 0
M  V30 1779 H 179.042 -1.37545 -3.6216 0
M  V30 1780 H 179.456 -3.57889 -3.83426 0
M  V30 1781 H 180.93 -2.33101 -5.00368 0
M  V30 1782 H 181.407 -0.777499 -4.32263 0
M  V30 1783 H 182.013 -2.28059 -3.58984 0
M  V30 1784 N 180.328 1.1314 -1.09713 0
M  V30 1785 C 181.556 1.88321 -0.856898 0
M  V30 1786 C 181.971 1.79276 0.592073 0
M  V30 1787 O 181.328 1.16142 1.40774 0
M  V30 1788 C 181.379 3.37812 -1.28706 0
M  V30 1789 O 181.1 3.46627 -2.67921 0
M  V30 1790 C 182.601 4.29952 -1.07964 0
M  V30 1791 H 179.821 0.596094 -0.308079 0
M  V30 1792 H 182.365 1.43205 -1.45988 0
M  V30 1793 H 180.52 3.805 -0.727912 0
M  V30 1794 H 180.934 4.39579 -2.8613 0
M  V30 1795 H 182.408 5.33159 -1.42986 0
M  V30 1796 H 182.885 4.39196 -0.0176577 0
M  V30 1797 H 183.491 3.93036 -1.62489 0
M  V30 1798 N 181.806 0.884767 1.30421 0
M  V30 1799 C 182.769 0.356277 2.26414 0
M  V30 1800 C 183.769 -0.501124 1.52792 0
M  V30 1801 O 184.959 -0.30831 1.7145 0
M  V30 1802 C 182.091 -0.492316 3.37326 0
M  V30 1803 H 183.284 1.20389 2.74675 0
M  V30 1804 H 180.837 0.661607 1.41607 0
M  V30 1805 H 181.572 -1.36052 2.94381 0
M  V30 1806 H 181.357 0.121832 3.91911 0
M  V30 1807 H 182.847 -0.853871 4.08777 0
M  V30 1808 N 183.284 -1.43765 0.645699 0
M  V30 1809 C 184.695 -1.85193 0.236719 0
M  V30 1810 C 185.046 -1.54045 -1.21509 0
M  V30 1811 O 184.171 -0.985694 -1.92647 0
M  V30 1812 C 184.766 -3.36151 0.422845 0
M  V30 1813 C 183.325 -3.76338 0.0682492 0
M  V30 1814 C 182.472 -2.67538 0.729306 0
M  V30 1815 H 185.423 -1.34025 0.849883 0
M  V30 1816 H 185.444 -3.79032 -0.333904 0
M  V30 1817 H 184.956 -3.5879 1.47958 0
M  V30 1818 H 183.057 -3.59312 -0.986179 0
M  V30 1819 H 183.17 -4.76603 0.488469 0
M  V30 1820 H 181.534 -2.54176 0.163235 0
M  V30 1821 H 182.317 -2.93006 1.78892 0
M  V30 1822 N 184.763 -0.387143 -1.52771 0
M  V30 1823 C 186.012 0.19697 -2.00736 0
M  V30 1824 C 186.325 1.48082 -1.27793 0
M  V30 1825 O 187.531 2.14485 -1.66458 0
M  V30 1826 C 185.987 0.401568 -3.57653 0
M  V30 1827 C 185.595 -0.868907 -4.39493 0
M  V30 1828 C 187.339 0.942164 -4.13912 0
M  V30 1829 C 185.246 -0.632705 -5.88006 0
M  V30 1830 H 184.176 0.0773827 -0.750019 0
M  V30 1831 H 186.827 -0.50921 -1.76293 0
M  V30 1832 H 185.209 1.16954 -3.78335 0
M  V30 1833 H 186.383 -1.64133 -4.30577 0
M  V30 1834 H 184.698 -1.33429 -3.94443 0
M  V30 1835 H 187.295 1.13455 -5.22525 0
M  V30 1836 H 187.638 1.9106 -3.69867 0
M  V30 1837 H 188.171 0.233814 -3.97112 0
M  V30 1838 H 184.91 -1.57208 -6.36369 0
M  V30 1839 H 184.43 0.100825 -5.99715 0
M  V30 1840 H 186.109 -0.26642 -6.46451 0
M  V30 1841 N 186.241 1.57166 -0.116904 0
M  V30 1842 C 187.188 2.15202 0.83408 0
M  V30 1843 C 188.158 1.07644 1.26499 0
M  V30 1844 O 189.343 1.35541 1.34288 0
M  V30 1845 C 186.483 2.75405 2.07957 0
M  V30 1846 C 185.596 3.97264 1.69721 0
M  V30 1847 C 184.731 4.45561 2.89221 0
M  V30 1848 C 183.77 5.59956 2.47215 0
M  V30 1849 N 182.907 6.03006 3.59622 0
M  V30 1850 H 187.747 2.96141 0.332335 0
M  V30 1851 H 185.284 1.46309 0.152349 0
M  V30 1852 H 187.242 3.08439 2.80929 0
M  V30 1853 H 185.872 1.97159 2.55594 0
M  V30 1854 H 184.924 3.70404 0.866316 0
M  V30 1855 H 186.236 4.80226 1.34849 0
M  V30 1856 H 185.39 4.80493 3.7042 0
M  V30 1857 H 184.129 3.61544 3.27318 0
M  V30 1858 H 183.134 5.2463 1.64448 0
M  V30 1859 H 184.359 6.45738 2.10238 0
M  V30 1860 H 182.305 5.21931 3.97396 0
M  V30 1861 H 182.222 6.80819 3.28667 0
M  V30 1862 H 183.49 6.42576 4.41267 0
M  V30 1863 N 187.719 -0.156864 1.56817 0
M  V30 1864 C 188.967 -0.869404 1.82444 0
M  V30 1865 C 189.288 -1.82147 0.69623 0
M  V30 1866 O 188.558 -1.93847 -0.28287 0
M  V30 1867 H 187.138 -0.324043 0.673056 0
M  V30 1868 H 189.8 -0.153224 1.94297 0
M  V30 1869 H 188.896 -1.43761 2.77019 0
M  V30 1870 N 189.197 -1.51736 -0.425897 0
M  V30 1871 C 190.444 -1.6497 -1.17436 0
M  V30 1872 C 190.772 -0.371445 -1.9092 0
M  V30 1873 O 190.027 0.644963 -1.84767 0
M  V30 1874 C 190.326 -2.81103 -2.20717 0
M  V30 1875 C 189.992 -4.19954 -1.64162 0
M  V30 1876 C 188.654 -4.57725 -1.48462 0
M  V30 1877 C 191.006 -5.06552 -1.22696 0
M  V30 1878 C 188.334 -5.79789 -0.897873 0
M  V30 1879 C 190.686 -6.29205 -0.654464 0
M  V30 1880 C 189.35 -6.6574 -0.484456 0
M  V30 1881 H 188.62 -0.603668 -0.429727 0
M  V30 1882 H 191.267 -1.85798 -0.463829 0
M  V30 1883 H 189.572 -2.54542 -2.97852 0
M  V30 1884 H 191.269 -2.8854 -2.78471 0
M  V30 1885 H 187.859 -3.90181 -1.77361 0
M  V30 1886 H 192.043 -4.77968 -1.33642 0
M  V30 1887 H 187.299 -6.06733 -0.75402 0
M  V30 1888 H 191.473 -6.95643 -0.324694 0
M  V30 1889 H 189.1 -7.60195 -0.0276833 0
M  V30 1890 N 190.675 0.682077 -1.42076 0
M  V30 1891 C 191.9 1.47558 -1.45744 0
M  V30 1892 C 192.325 1.87977 -0.0680981 0
M  V30 1893 O 191.683 1.55522 0.9318 0
M  V30 1894 C 191.731 2.70575 -2.38373 0
M  V30 1895 O 190.835 3.68573 -1.85007 0
M  V30 1896 H 190.176 0.443585 -0.494093 0
M  V30 1897 H 192.706 0.837238 -1.86686 0
M  V30 1898 H 192.716 3.18729 -2.54707 0
M  V30 1899 H 191.391 2.40495 -3.39315 0
M  V30 1900 H 189.968 3.2757 -1.78192 0
M  V30 1901 N 192.153 1.28127 0.917671 0
M  V30 1902 C 193.43 1.05761 1.64542 0
M  V30 1903 C 193.81 -0.404344 2.07191 0
M  V30 1904 O 193.158 -1.38963 1.81388 0
M  V30 1905 C 193.368 2.02857 2.83989 0
M  V30 1906 C 194.716 2.32786 3.551 0
M  V30 1907 O 195.74 2.0091 2.94132 0
M  V30 1908 O 194.599 2.87169 4.64969 0
M  V30 1909 H 191.693 0.403916 0.721652 0
M  V30 1910 H 194.239 1.39431 0.967322 0
M  V30 1911 H 193.011 3.01407 2.49538 0
M  V30 1912 H 192.634 1.69809 3.59514 0
M  V30 1913 N 193.631 -1.12557 1.10312 0
M  V30 1914 C 195.042 -1.65574 0.862678 0
M  V30 1915 C 195.393 -1.86566 -0.607256 0
M  V30 1916 O 194.518 -1.59121 -1.46662 0
M  V30 1917 C 195.113 -3.00776 1.55947 0
M  V30 1918 C 193.672 -3.50748 1.36576 0
M  V30 1919 C 192.819 -2.25797 1.60968 0
M  V30 1920 H 195.77 -0.963552 1.26101 0
M  V30 1921 H 195.791 -3.67185 0.997753 0
M  V30 1922 H 195.303 -2.85465 2.62928 0
M  V30 1923 H 193.404 -3.71245 0.317531 0
M  V30 1924 H 193.517 -4.30289 2.10686 0
M  V30 1925 H 191.881 -2.32841 1.03234 0
M  V30 1926 H 192.664 -2.13043 2.69198 0
M  V30 1927 N 195.109 -0.891671 -1.2995 0
M  V30 1928 C 196.334 -0.527932 -2.00568 0
M  V30 1929 C 196.759 0.877969 -1.66353 0
M  V30 1930 O 196.117 1.58301 -0.883762 0
M  V30 1931 C 196.165 -0.717745 -3.53385 0
M  V30 1932 O 195.269 0.233376 -4.11739 0
M  V30 1933 H 194.61 -0.20722 -0.630837 0
M  V30 1934 H 197.14 -1.20105 -1.65638 0
M  V30 1935 H 197.15 -0.619307 -4.03272 0
M  V30 1936 H 195.825 -1.74276 -3.77625 0
M  V30 1937 H 194.402 0.0880706 -3.72796 0
M  V30 1938 N 196.587 1.43421 -0.653314 0
M  V30 1939 C 197.817 2.05864 -0.174238 0
M  V30 1940 C 198.225 1.49052 1.16534 0
M  V30 1941 O 197.568 0.616481 1.73047 0
M  V30 1942 C 197.63 3.59499 -0.00875873 0
M  V30 1943 C 197.294 4.38893 -1.27364 0
M  V30 1944 C 198.291 4.70947 -2.20239 0
M  V30 1945 C 195.976 4.789 -1.51525 0
M  V30 1946 C 197.97 5.41916 -3.35568 0
M  V30 1947 C 195.657 5.49614 -2.67147 0
M  V30 1948 C 196.655 5.81044 -3.58994 0
M  V30 1949 O 196.343 6.50313 -4.72597 0
M  V30 1950 H 196.075 0.670345 -0.0872549 0
M  V30 1951 H 198.629 1.84913 -0.894226 0
M  V30 1952 H 196.859 3.79025 0.7666 0
M  V30 1953 H 198.548 4.0364 0.427687 0
M  V30 1954 H 199.314 4.40558 -2.02815 0
M  V30 1955 H 195.193 4.53843 -0.809158 0
M  V30 1956 H 198.737 5.66365 -4.07279 0
M  V30 1957 H 194.634 5.79419 -2.84505 0
M  V30 1958 H 195.402 6.68795 -4.71864 0
M  V30 1959 N 198.065 0.39524 1.52563 0
M  V30 1960 C 198.995 -0.428384 2.29537 0
M  V30 1961 C 199.976 -1.05831 1.33169 0
M  V30 1962 O 201.161 -1.06995 1.62067 0
M  V30 1963 C 198.291 -1.55274 3.10656 0
M  V30 1964 C 197.245 -1.04855 4.14957 0
M  V30 1965 C 196.571 -2.26543 4.84337 0
M  V30 1966 C 197.871 -0.112324 5.22179 0
M  V30 1967 H 199.565 0.213867 2.98635 0
M  V30 1968 H 197.111 0.104298 1.43622 0
M  V30 1969 H 199.064 -2.1358 3.63265 0
M  V30 1970 H 197.788 -2.22266 2.39302 0
M  V30 1971 H 196.447 -0.487985 3.63338 0
M  V30 1972 H 196.095 -2.92059 4.09525 0
M  V30 1973 H 195.795 -1.93466 5.54837 0
M  V30 1974 H 197.319 -2.85481 5.39753 0
M  V30 1975 H 198.733 -0.603752 5.70112 0
M  V30 1976 H 197.13 0.128968 5.99961 0
M  V30 1977 H 198.2 0.837052 4.77621 0
M  V30 1978 N 199.544 -1.57102 0.125237 0
M  V30 1979 C 200.79 -1.95697 -0.532035 0
M  V30 1980 C 201.123 -1.009 -1.6593 0
M  V30 1981 O 200.398 -0.047347 -1.94442 0
M  V30 1982 C 200.681 -3.44181 -1.05884 0
M  V30 1983 C 200.534 -4.49752 0.0654392 0
M  V30 1984 C 201.853 -3.94655 -1.9477 0
M  V30 1985 H 198.972 -0.711571 -0.191925 0
M  V30 1986 H 201.614 -1.88923 0.20206 0
M  V30 1987 H 199.764 -3.50085 -1.68442 0
M  V30 1988 H 201.436 -4.55943 0.700982 0
M  V30 1989 H 199.679 -4.27653 0.727709 0
M  V30 1990 H 200.35 -5.50924 -0.344505 0
M  V30 1991 H 202.826 -3.91094 -1.42074 0
M  V30 1992 H 201.702 -4.99057 -2.28546 0
M  V30 1993 H 201.963 -3.35718 -2.87656 0
M  V30 1994 N 201.022 0.148545 -1.56898 0
M  V30 1995 C 202.299 0.890019 -1.74178 0
M  V30 1996 C 202.679 1.99407 -0.692839 0
M  V30 1997 O 202.027 2.26671 0.288505 0
M  V30 1998 C 202.237 1.43389 -3.18183 0
M  V30 1999 C 203.585 1.89791 -3.79822 0
M  V30 2000 O 204.609 1.53134 -3.21603 0
M  V30 2001 O 203.468 2.57387 -4.82093 0
M  V30 2002 H 200.562 0.420496 -0.712118 0
M  V30 2003 H 203.108 0.134591 -1.69165 0
M  V30 2004 H 201.88 0.640383 -3.86024 0
M  V30 2005 H 201.503 2.25287 -3.27615 0
M  V30 2006 N 202.5 1.5196 0.417844 0
M  V30 2007 C 203.916 1.40569 0.755816 0
M  V30 2008 C 204.116 0.503316 1.95113 0
M  V30 2009 O 203.172 -0.0341925 2.52477 0
M  V30 2010 C 204.485 2.82947 1.01791 0
M  V30 2011 C 206.033 2.92231 1.12116 0
M  V30 2012 C 206.508 4.35559 1.41608 0
M  V30 2013 N 207.999 4.38753 1.48491 0
M  V30 2014 C 208.734 5.46705 1.7292 0
M  V30 2015 N 208.23 6.64788 1.95011 0
M  V30 2016 N 210.023 5.34209 1.74863 0
M  V30 2017 H 202.174 2.09168 -0.369098 0
M  V30 2018 H 204.437 0.942409 -0.102809 0
M  V30 2019 H 204.143 3.5106 0.212081 0
M  V30 2020 H 204.017 3.23462 1.94042 0
M  V30 2021 H 206.404 2.24304 1.9176 0
M  V30 2022 H 206.485 2.55185 0.177225 0
M  V30 2023 H 206.129 5.04042 0.624848 0
M  V30 2024 H 206.059 4.70133 2.37239 0
M  V30 2025 H 208.55 3.5363 1.33244 0
M  V30 2026 H 208.863 7.42845 2.13076 0
M  V30 2027 H 207.208 6.67869 1.92293 0
M  V30 2028 H 210.399 4.40937 1.57137 0
M  V30 2029 H 210.572 6.18415 1.93563 0
M  V30 2030 N 203.978 -0.674533 1.42435 0
M  V30 2031 C 204.888 -1.81751 1.48337 0
M  V30 2032 C 205.904 -1.69975 0.372099 0
M  V30 2033 O 207.08 -1.91521 0.62304 0
M  V30 2034 C 204.145 -3.17895 1.38361 0
M  V30 2035 C 203.206 -3.41625 2.59982 0
M  V30 2036 C 202.439 -4.71274 2.50473 0
M  V30 2037 O 202.662 -5.49197 1.54075 0
M  V30 2038 O 201.596 -4.96254 3.4061 0
M  V30 2039 H 205.422 -1.79728 2.44809 0
M  V30 2040 H 203.007 -0.830312 1.24202 0
M  V30 2041 H 204.889 -3.99136 1.35161 0
M  V30 2042 H 203.564 -3.20555 0.450144 0
M  V30 2043 H 202.471 -2.60231 2.68757 0
M  V30 2044 H 203.804 -3.43796 3.52229 0
M  V30 2045 N 205.456 -1.28612 -0.910864 0
M  V30 2046 C 206.684 -1.18792 -1.69399 0
M  V30 2047 C 207.099 0.253039 -1.87097 0
M  V30 2048 O 206.456 1.17071 -1.40003 0
M  V30 2049 C 206.507 -1.88511 -3.08457 0
M  V30 2050 O 206.228 -3.26979 -2.91576 0
M  V30 2051 C 207.729 -1.85029 -4.02839 0
M  V30 2052 H 204.949 -0.412233 -0.529438 0
M  V30 2053 H 207.493 -1.69788 -1.13984 0
M  V30 2054 H 205.648 -1.41379 -3.60681 0
M  V30 2055 H 206.062 -3.61936 -3.79608 0
M  V30 2056 H 207.536 -2.38395 -4.97867 0
M  V30 2057 H 208.013 -0.823303 -4.31414 0
M  V30 2058 H 208.619 -2.31853 -3.56545 0
M  V30 2059 N 206.934 1.1197 -1.10907 0
M  V30 2060 C 208.182 1.83225 -0.852819 0
M  V30 2061 C 208.503 1.84769 0.623341 0
M  V30 2062 O 207.773 1.3143 1.45269 0
M  V30 2063 H 206.353 0.67849 -0.312507 0
M  V30 2064 H 209.015 1.3556 -1.40033 0
M  V30 2065 H 208.111 2.87265 -1.22005 0
M  V30 2066 N 208.412 0.89855 1.29475 0
M  V30 2067 C 209.64 0.539261 1.99749 0
M  V30 2068 C 210.055 -0.875716 1.67262 0
M  V30 2069 O 209.412 -1.57786 0.917049 0
M  V30 2070 C 209.463 0.72061 3.54245 0
M  V30 2071 O 209.184 2.07989 3.8558 0
M  V30 2072 C 210.685 0.366118 4.41786 0
M  V30 2073 H 207.905 0.207047 0.638258 0
M  V30 2074 H 210.449 1.20758 1.65039 0
M  V30 2075 H 208.604 0.0994862 3.87272 0
M  V30 2076 H 209.018 2.10841 4.80257 0
M  V30 2077 H 210.492 0.543848 5.49314 0
M  V30 2078 H 210.969 -0.696763 4.33638 0
M  V30 2079 H 211.575 0.964135 4.14228 0
M  V30 2080 N 209.89 -1.43072 0.660911 0
M  V30 2081 C 211.139 -2.00942 0.174735 0
M  V30 2082 C 211.452 -1.52797 -1.22117 0
M  V30 2083 O 212.658 -2.02991 -1.80297 0
M  V30 2084 C 211.114 -3.58948 0.261559 0
M  V30 2085 C 210.722 -4.16085 1.66064 0
M  V30 2086 C 212.466 -4.24173 -0.166617 0
M  V30 2087 C 210.373 -5.6641 1.70098 0
M  V30 2088 H 209.303 -0.751483 0.0615631 0
M  V30 2089 H 211.954 -1.63955 0.824069 0
M  V30 2090 H 210.336 -3.93372 -0.455421 0
M  V30 2091 H 211.51 -3.93147 2.40359 0
M  V30 2092 H 209.825 -3.6326 2.03546 0
M  V30 2093 H 212.422 -5.34471 -0.156433 0
M  V30 2094 H 212.765 -3.98647 -1.19943 0
M  V30 2095 H 213.298 -3.94659 0.498875 0
M  V30 2096 H 210.037 -5.96715 2.71315 0
M  V30 2097 H 209.557 -5.91382 1.00139 0
M  V30 2098 H 211.236 -6.30585 1.44816 0
M  V30 2099 N 211.368 -0.403325 -1.52352 0
M  V30 2100 C 212.615 0.174347 -2.01748 0
M  V30 2101 C 212.943 1.45636 -1.2892 0
M  V30 2102 O 212.198 1.9193 -0.382258 0
M  V30 2103 C 212.497 0.474665 -3.54234 0
M  V30 2104 C 212.163 -0.717458 -4.45155 0
M  V30 2105 C 210.825 -1.04447 -4.69728 0
M  V30 2106 C 213.177 -1.51432 -4.98716 0
M  V30 2107 C 210.505 -2.16963 -5.45109 0
M  V30 2108 C 212.857 -2.6302 -5.75329 0
M  V30 2109 C 211.521 -2.96213 -5.98175 0
M  V30 2110 H 210.791 0.0637981 -0.738248 0
M  V30 2111 H 213.438 -0.543553 -1.83624 0
M  V30 2112 H 211.743 1.27406 -3.70506 0
M  V30 2113 H 213.44 0.934496 -3.89959 0
M  V30 2114 H 210.03 -0.452596 -4.26204 0
M  V30 2115 H 214.214 -1.27491 -4.79645 0
M  V30 2116 H 209.47 -2.43034 -5.61021 0
M  V30 2117 H 213.644 -3.25158 -6.15829 0
M  V30 2118 H 211.271 -3.83516 -6.56368 0
M  V30 2119 N 212.846 1.57033 -0.133567 0
M  V30 2120 C 213.794 2.17348 0.828412 0
M  V30 2121 C 214.788 1.12671 1.26498 0
M  V30 2122 O 215.994 1.30947 1.23502 0
M  V30 2123 H 212.369 0.695775 0.285309 0
M  V30 2124 H 214.34 2.96935 0.295372 0
M  V30 2125 C 213.089 2.79893 2.06289 0
M  V30 2126 H 212.412 3.60147 1.73592 0
M  V30 2127 H 213.852 3.25615 2.71572 0
M  V30 2128 C 212.311 1.77713 2.86216 0
M  V30 2129 O 212.841 1.23937 3.82103 0
M  V30 2130 N 211.047 1.47321 2.50489 0
M  V30 2131 H 210.594 1.91243 1.7258 0
M  V30 2132 H 210.552 0.79199 3.04261 0
M  V30 2133 N 214.325 -0.140222 1.56975 0
M  V30 2134 C 215.572 -0.851687 1.83719 0
M  V30 2135 C 215.9 -1.80862 0.715485 0
M  V30 2136 O 215.155 -1.93464 -0.294956 0
M  V30 2137 C 215.454 -1.65386 3.16832 0
M  V30 2138 C 215.12 -0.843112 4.42947 0
M  V30 2139 C 213.782 -0.619464 4.77196 0
M  V30 2140 C 216.134 -0.276582 5.20466 0
M  V30 2141 C 213.462 0.181312 5.8642 0
M  V30 2142 C 215.814 0.51127 6.30531 0
M  V30 2143 C 214.478 0.745432 6.63325 0
M  V30 2144 H 213.748 -0.311654 0.672274 0
M  V30 2145 H 216.395 -0.115006 1.91154 0
M  V30 2146 H 214.7 -2.46084 3.04877 0
M  V30 2147 H 216.397 -2.20793 3.34741 0
M  V30 2148 H 212.987 -1.0275 4.16101 0
M  V30 2149 H 217.171 -0.436632 4.94376 0
M  V30 2150 H 212.427 0.372165 6.10266 0
M  V30 2151 H 216.601 0.957354 6.89788 0
M  V30 2152 H 214.228 1.36778 7.47794 0
M  V30 2153 N 215.803 -1.52179 -0.40978 0
M  V30 2154 C 216.753 -1.71857 -1.49831 0
M  V30 2155 C 217.737 -0.572469 -1.50372 0
M  V30 2156 O 218.929 -0.829509 -1.56359 0
M  V30 2157 C 216.058 -1.87206 -2.87765 0
M  V30 2158 C 215.144 -3.07685 -2.91875 0
M  V30 2159 N 215.535 -4.30403 -2.65683 0
M  V30 2160 C 213.833 -3.07505 -3.23043 0
M  V30 2161 C 214.534 -5.11868 -2.76344 0
M  V30 2162 N 213.51 -4.47101 -3.09195 0
M  V30 2163 H 217.312 -2.64381 -1.28375 0
M  V30 2164 H 214.826 -1.50203 -0.617479 0
M  V30 2165 H 216.823 -1.99419 -3.66111 0
M  V30 2166 H 215.483 -0.958814 -3.10221 0
M  V30 2167 H 216.494 -4.58887 -2.4009 0
M  V30 2168 H 213.171 -2.25915 -3.51096 0
M  V30 2169 H 214.561 -6.19634 -2.59814 0
M  V30 2170 N 217.281 0.66697 -1.42791 0
M  V30 2171 C 218.527 1.4291 -1.43891 0
M  V30 2172 C 218.86 1.94114 -0.0578972 0
M  V30 2173 O 218.135 1.71414 0.91911 0
M  V30 2174 C 218.418 2.62049 -2.46987 0
M  V30 2175 C 218.271 2.16426 -3.94309 0
M  V30 2176 C 219.59 3.64266 -2.46978 0
M  V30 2177 H 216.709 0.518306 -0.523954 0
M  V30 2178 H 219.351 0.757321 -1.74255 0
M  V30 2179 H 217.501 3.19361 -2.21225 0
M  V30 2180 H 219.173 1.64221 -4.31079 0
M  V30 2181 H 217.416 1.47925 -4.078 0
M  V30 2182 H 218.087 3.02038 -4.62036 0
M  V30 2183 H 220.563 3.16686 -2.69906 0
M  V30 2184 H 219.439 4.45196 -3.21079 0
M  V30 2185 H 219.7 4.15927 -1.49857 0
M  V30 2186 N 218.759 1.29093 0.90403 0
M  V30 2187 C 219.989 1.19516 1.68522 0
M  V30 2188 C 220.397 -0.24738 1.87576 0
M  V30 2189 O 219.74 -1.17798 1.40959 0
M  V30 2190 C 219.802 1.83249 3.0929 0
M  V30 2191 C 219.466 3.32531 3.13484 0
M  V30 2192 C 220.463 4.28821 2.93953 0
M  V30 2193 C 218.148 3.73656 3.35688 0
M  V30 2194 C 220.142 5.64212 2.96553 0
M  V30 2195 C 217.829 5.0917 3.37919 0
M  V30 2196 C 218.827 6.04258 3.18373 0
M  V30 2197 O 218.515 7.37298 3.20385 0
M  V30 2198 H 218.247 0.415467 0.533257 0
M  V30 2199 H 220.801 1.70912 1.13922 0
M  V30 2200 H 219.031 1.26358 3.65473 0
M  V30 2201 H 220.72 1.68054 3.69476 0
M  V30 2202 H 221.486 3.98382 2.76616 0
M  V30 2203 H 217.365 3.00101 3.49943 0
M  V30 2204 H 220.909 6.38407 2.81216 0
M  V30 2205 H 216.806 5.39256 3.54787 0
M  V30 2206 H 217.574 7.46048 3.36681 0
M  V30 2207 N 220.237 -1.11381 1.11499 0
M  V30 2208 C 221.462 -1.87475 0.887019 0
M  V30 2209 C 221.887 -1.79639 -0.557796 0
M  V30 2210 O 221.245 -1.15924 -1.39396 0
M  V30 2211 C 221.293 -3.34213 1.35403 0
M  V30 2212 O 220.397 -4.0903 0.526146 0
M  V30 2213 H 219.738 -0.582099 0.319463 0
M  V30 2214 H 222.268 -1.40785 1.48461 0
M  V30 2215 H 222.278 -3.8506 1.34881 0
M  V30 2216 H 220.953 -3.39232 2.40612 0
M  V30 2217 H 219.53 -3.68082 0.597522 0
M  V30 2218 N 221.715 -0.905404 -1.28997 0
M  V30 2219 C 222.647 -0.344748 -2.26592 0
M  V30 2220 C 223.66 0.512135 -1.54535 0
M  V30 2221 O 224.849 0.328368 -1.75454 0
M  V30 2222 C 221.949 0.526587 -3.34784 0
M  V30 2223 C 221.122 -0.305871 -4.36329 0
M  V30 2224 C 220.181 0.499209 -5.23827 0
M  V30 2225 O 219.207 -0.0853004 -5.69136 0
M  V30 2226 N 220.409 1.80408 -5.51755 0
M  V30 2227 H 223.174 -1.18359 -2.75338 0
M  V30 2228 H 220.735 -0.770481 -1.42391 0
M  V30 2229 H 222.727 1.07171 -3.90252 0
M  V30 2230 H 221.297 1.26613 -2.85811 0
M  V30 2231 H 220.517 -1.0324 -3.80441 0
M  V30 2232 H 221.805 -0.875773 -5.01206 0
M  V30 2233 H 221.203 2.3016 -5.16762 0
M  V30 2234 H 219.76 2.29621 -6.10014 0
M  V30 2235 N 223.193 1.4272 -0.668489 0
M  V30 2236 C 224.609 1.55992 -0.33745 0
M  V30 2237 C 224.809 1.64933 1.15756 0
M  V30 2238 O 223.865 1.61278 1.94282 0
M  V30 2239 C 225.178 2.81314 -1.06222 0
M  V30 2240 C 226.726 2.95078 -1.04394 0
M  V30 2241 C 227.201 4.23252 -1.74991 0
M  V30 2242 N 228.692 4.3015 -1.71829 0
M  V30 2243 C 229.427 5.28127 -2.23315 0
M  V30 2244 N 228.923 6.32293 -2.83156 0
M  V30 2245 N 230.716 5.19882 -2.13726 0
M  V30 2246 H 222.867 1.3516 -1.63846 0
M  V30 2247 H 225.13 0.650174 -0.689912 0
M  V30 2248 H 224.836 2.80823 -2.11734 0
M  V30 2249 H 224.71 3.72012 -0.62344 0
M  V30 2250 H 227.097 2.951 0.0028244 0
M  V30 2251 H 227.178 2.05627 -1.52155 0
M  V30 2252 H 226.822 4.2399 -2.79633 0
M  V30 2253 H 226.752 5.11626 -1.24685 0
M  V30 2254 H 229.243 3.55499 -1.28175 0
M  V30 2255 H 229.556 7.03398 -3.20079 0
M  V30 2256 H 227.901 6.32873 -2.87223 0
M  V30 2257 H 231.092 4.37423 -1.66669 0
M  V30 2258 H 231.265 5.96077 -2.54158 0
M  V30 2259 N 224.671 0.411399 1.52136 0
M  V30 2260 C 225.603 -0.448386 2.24771 0
M  V30 2261 C 226.616 -1.00828 1.27818 0
M  V30 2262 O 227.805 -0.906841 1.53749 0
M  V30 2263 C 224.905 -1.63636 2.96777 0
M  V30 2264 C 224.078 -1.19995 4.20618 0
M  V30 2265 C 223.137 -2.25509 4.75428 0
M  V30 2266 O 222.163 -1.86007 5.3795 0
M  V30 2267 N 223.365 -3.577 4.57199 0
M  V30 2268 H 226.13 0.174025 2.99194 0
M  V30 2269 H 223.691 0.238897 1.60128 0
M  V30 2270 H 225.683 -2.33793 3.30338 0
M  V30 2271 H 224.253 -2.16465 2.25526 0
M  V30 2272 H 223.473 -0.326421 3.92846 0
M  V30 2273 H 224.761 -0.885365 5.01038 0
M  V30 2274 H 224.159 -3.92543 4.07341 0
M  V30 2275 H 222.716 -4.23827 4.95191 0
M  V30 2276 N 226.149 -1.5696 0.141893 0
M  V30 2277 C 227.397 -1.95573 -0.509484 0
M  V30 2278 C 227.718 -1.02746 -1.65736 0
M  V30 2279 O 226.988 -0.0880311 -1.95702 0
M  V30 2280 H 225.568 -0.722115 -0.191205 0
M  V30 2281 H 228.23 -1.93697 0.216196 0
M  V30 2282 H 227.326 -2.99171 -0.889 0
M  V30 2283 N 227.627 0.131896 -1.57047 0
M  V30 2284 C 228.874 0.841932 -1.84168 0
M  V30 2285 C 229.202 1.8048 -0.725066 0
M  V30 2286 O 228.457 1.93618 0.284692 0
M  V30 2287 C 228.756 1.63703 -3.17704 0
M  V30 2288 C 228.422 0.81961 -4.43388 0
M  V30 2289 C 227.084 0.594148 -4.77518 0
M  V30 2290 C 229.436 0.248977 -5.20605 0
M  V30 2291 C 226.764 -0.212409 -5.86315 0
M  V30 2292 C 229.116 -0.544701 -6.30251 0
M  V30 2293 C 227.78 -0.780599 -6.6292 0
M  V30 2294 H 227.05 0.308085 -0.673917 0
M  V30 2295 H 229.697 0.104867 -1.91213 0
M  V30 2296 H 228.002 2.44464 -3.06177 0
M  V30 2297 H 229.699 2.19015 -3.35907 0
M  V30 2298 H 226.289 1.00542 -4.16641 0
M  V30 2299 H 230.473 0.410408 -4.946 0
M  V30 2300 H 225.729 -0.404524 -6.1006 0
M  V30 2301 H 229.903 -0.993922 -6.89271 0
M  V30 2302 H 227.53 -1.40742 -7.47058 0
M  V30 2303 N 229.106 1.52395 0.401703 0
M  V30 2304 C 230.069 1.75636 1.47257 0
M  V30 2305 C 231.069 0.62628 1.48103 0
M  V30 2306 O 232.259 0.894227 1.49497 0
M  V30 2307 C 229.391 1.84553 2.86624 0
M  V30 2308 H 230.584 2.71241 1.27938 0
M  V30 2309 H 228.137 1.42923 0.632662 0
M  V30 2310 H 228.872 0.908882 3.11303 0
M  V30 2311 H 228.657 2.66715 2.87412 0
M  V30 2312 H 230.147 2.04251 3.64241 0
M  V30 2313 N 230.584 -0.659388 1.43143 0
M  V30 2314 C 231.832 -1.41654 1.44147 0
M  V30 2315 C 232.153 -1.94893 0.0645739 0
M  V30 2316 O 231.423 -1.74044 -0.899198 0
M  V30 2317 H 230.003 -0.525708 0.530697 0
M  V30 2318 H 232.665 -0.778097 1.78694 0
M  V30 2319 H 231.761 -2.26195 2.1504 0
M  V30 2320 N 232.062 -1.29571 -0.897171 0
M  V30 2321 C 233.287 -1.20705 -1.68656 0
M  V30 2322 C 233.712 0.228582 -1.86706 0
M  V30 2323 O 233.07 1.16494 -1.3892 0
M  V30 2324 C 233.118 -1.9282 -3.04717 0
M  V30 2325 O 232.222 -1.24697 -3.93096 0
M  V30 2326 H 231.563 -0.418126 -0.515816 0
M  V30 2327 H 234.093 -1.71183 -1.12061 0
M  V30 2328 H 234.103 -2.01372 -3.54843 0
M  V30 2329 H 232.778 -2.97239 -2.90899 0
M  V30 2330 H 231.355 -1.2442 -3.51531 0
M  V30 2331 N 233.54 1.10788 -1.12088 0
M  V30 2332 C 234.956 1.34691 -0.856186 0
M  V30 2333 C 235.156 1.94791 0.515615 0
M  V30 2334 O 234.212 2.18524 1.26505 0
M  V30 2335 C 235.525 2.27208 -1.9697 0
M  V30 2336 C 237.073 2.40755 -2.00016 0
M  V30 2337 C 237.548 3.36598 -3.1059 0
M  V30 2338 N 239.039 3.44164 -3.10008 0
M  V30 2339 C 239.774 4.18284 -3.92206 0
M  V30 2340 N 239.27 4.95322 -4.84384 0
M  V30 2341 N 241.063 4.13865 -3.80357 0
M  V30 2342 H 233.214 0.70144 -2.00483 0
M  V30 2343 H 235.477 0.371405 -0.872217 0
M  V30 2344 H 235.183 1.90251 -2.958 0
M  V30 2345 H 235.057 3.27485 -1.87172 0
M  V30 2346 H 237.444 2.76982 -1.01808 0
M  V30 2347 H 237.525 1.40305 -2.13888 0
M  V30 2348 H 237.169 3.01096 -4.09028 0
M  V30 2349 H 237.099 4.36918 -2.93956 0
M  V30 2350 H 239.59 2.8922 -2.43228 0
M  V30 2351 H 239.903 5.49267 -5.43623 0
M  V30 2352 H 238.248 4.94459 -4.884 0
M  V30 2353 H 241.439 3.52773 -3.07683 0
M  V30 2354 H 241.612 4.71372 -4.44649 0
M  V30 2355 N 235.018 0.912232 1.28515 0
M  V30 2356 C 236.429 0.591352 1.77087 0
M  V30 2357 C 236.78 -0.8933 1.74684 0
M  V30 2358 O 235.905 -1.69876 1.34056 0
M  V30 2359 C 236.5 1.06668 3.2157 0
M  V30 2360 C 235.059 0.79675 3.67871 0
M  V30 2361 C 234.206 1.23427 2.48316 0
M  V30 2362 H 237.157 1.09365 1.15 0
M  V30 2363 H 237.178 0.407455 3.78312 0
M  V30 2364 H 236.69 2.14726 3.23287 0
M  V30 2365 H 234.791 -0.270679 3.71616 0
M  V30 2366 H 234.904 1.40343 4.58084 0
M  V30 2367 H 233.268 0.653036 2.46186 0
M  V30 2368 H 234.051 2.32316 2.52753 0
M  V30 2369 N 236.496 -1.42363 0.676048 0
M  V30 2370 C 237.744 -2.01123 0.198437 0
M  V30 2371 C 238.065 -1.53731 -1.19966 0
M  V30 2372 O 237.335 -0.759518 -1.80577 0
M  V30 2373 H 235.915 -0.743678 0.0703721 0
M  V30 2374 H 238.577 -1.74263 0.872837 0
M  V30 2375 H 237.673 -3.11454 0.200686 0
M  V30 2376 N 237.974 -0.419461 -1.51915 0
M  V30 2377 C 239.202 0.152136 -2.0634 0
M  V30 2378 C 239.617 1.37988 -1.28859 0
M  V30 2379 O 238.974 1.79243 -0.343232 0
M  V30 2380 C 239.025 0.492266 -3.58133 0
M  V30 2381 O 238.746 -0.686736 -4.32684 0
M  V30 2382 C 240.247 1.11648 -4.2901 0
M  V30 2383 H 237.467 0.0158325 -0.670813 0
M  V30 2384 H 240.011 -0.593394 -1.95702 0
M  V30 2385 H 238.166 1.18769 -3.68745 0
M  V30 2386 H 238.58 -0.400341 -5.2297 0
M  V30 2387 H 240.054 1.3046 -5.36362 0
M  V30 2388 H 240.531 2.09251 -3.86148 0
M  V30 2389 H 241.137 0.460958 -4.22795 0
M  V30 2390 N 239.452 1.56882 -0.150215 0
M  V30 2391 C 240.729 1.87844 0.545327 0
M  V30 2392 C 241.109 1.0567 1.82749 0
M  V30 2393 O 240.457 0.144442 2.28043 0
M  V30 2394 C 240.667 3.39526 0.80767 0
M  V30 2395 C 242.015 4.08814 1.14703 0
M  V30 2396 O 243.039 3.44723 0.896917 0
M  V30 2397 O 241.898 5.22004 1.61784 0
M  V30 2398 H 238.992 0.778677 0.278553 0
M  V30 2399 H 241.538 1.68666 -0.187068 0
M  V30 2400 H 240.31 3.91173 -0.0996096 0
M  V30 2401 H 239.933 3.64243 1.59413 0
M  V30 2402 N 240.93 -0.123565 1.57115 0
M  V30 2403 C 242.341 -0.681198 1.73829 0
M  V30 2404 C 242.692 -1.80535 0.768214 0
M  V30 2405 O 241.817 -2.16317 -0.0599103 0
M  V30 2406 C 242.412 -1.24246 3.15196 0
M  V30 2407 C 240.971 -1.74643 3.33432 0
M  V30 2408 C 240.118 -0.644284 2.69711 0
M  V30 2409 H 243.069 0.102315 1.5837 0
M  V30 2410 H 243.09 -2.11216 3.16493 0
M  V30 2411 H 242.602 -0.424062 3.85776 0
M  V30 2412 H 240.703 -2.58974 2.67886 0
M  V30 2413 H 240.816 -1.85902 4.41562 0
M  V30 2414 H 239.18 -1.07676 2.3082 0
M  V30 2415 H 239.963 0.163058 3.42913 0
M  V30 2416 N 242.408 -1.52605 -0.393616 0
M  V30 2417 C 243.371 -1.76415 -1.46323 0
M  V30 2418 C 244.371 -0.634126 -1.47768 0
M  V30 2419 O 245.561 -0.902142 -1.4902 0
M  V30 2420 C 242.693 -1.8607 -2.85641 0
M  V30 2421 H 243.886 -2.71916 -1.26498 0
M  V30 2422 H 241.439 -1.43257 -0.625073 0
M  V30 2423 H 242.174 -0.925378 -3.10817 0
M  V30 2424 H 241.959 -2.68235 -2.85993 0
M  V30 2425 H 243.449 -2.06179 -3.63153 0
M  V30 2426 N 243.887 0.651787 -1.4349 0
M  V30 2427 C 245.164 1.40909 -1.35661 0
M  V30 2428 C 245.544 2.11099 -0.00511733 0
M  V30 2429 O 244.892 2.04892 1.0115 0
M  V30 2430 C 245.102 2.3926 -2.54078 0
M  V30 2431 C 246.45 3.03217 -2.97228 0
M  V30 2432 O 247.474 2.49588 -2.54135 0
M  V30 2433 O 246.333 4.00455 -3.71885 0
M  V30 2434 H 243.427 0.629625 -0.536191 0
M  V30 2435 H 245.973 0.678575 -1.55542 0
M  V30 2436 H 244.745 1.86352 -3.44076 0
M  V30 2437 H 244.368 3.1976 -2.36303 0
M  V30 2438 N 245.365 1.30045 0.890287 0
M  V30 2439 C 246.776 1.16738 1.45702 0
M  V30 2440 C 247.127 -0.233939 1.948 0
M  V30 2441 O 246.252 -1.13021 1.84541 0
M  V30 2442 C 246.847 2.11313 2.64825 0
M  V30 2443 C 245.406 2.02001 3.17604 0
M  V30 2444 C 244.553 2.01699 1.90296 0
M  V30 2445 H 247.504 1.42392 0.700726 0
M  V30 2446 H 247.525 1.69086 3.40867 0
M  V30 2447 H 247.037 3.13294 2.2906 0
M  V30 2448 H 245.138 1.03142 3.5804 0
M  V30 2449 H 245.251 2.90128 3.81264 0
M  V30 2450 H 243.615 1.46427 2.08402 0
M  V30 2451 H 244.398 3.05402 1.56795 0
M  V30 2452 N 246.843 -1.10192 1.12674 0
M  V30 2453 C 247.791 -2.18694 0.792196 0
M  V30 2454 C 248.785 -1.67938 -0.222058 0
M  V30 2455 O 249.991 -1.79822 -0.0800074 0
M  V30 2456 H 246.366 -0.713223 0.238364 0
M  V30 2457 H 248.337 -2.44149 1.71564 0
M  V30 2458 C 247.086 -3.46682 0.265859 0
M  V30 2459 H 246.409 -3.86101 1.03761 0
M  V30 2460 H 247.849 -4.23942 0.0701128 0
M  V30 2461 C 246.308 -3.21506 -1.00675 0
M  V30 2462 O 246.838 -3.43408 -2.08408 0
M  V30 2463 N 245.044 -2.75158 -0.934692 0
M  V30 2464 H 244.591 -2.57535 -0.0578604 0
M  V30 2465 H 244.549 -2.58691 -1.7868 0
M  V30 2466 N 248.321 -0.919034 -1.28029 0
M  V30 2467 C 249.567 -0.555757 -1.95036 0
M  V30 2468 C 249.9 0.899198 -1.72128 0
M  V30 2469 O 249.175 1.64023 -1.04531 0
M  V30 2470 C 249.458 -0.872024 -3.49382 0
M  V30 2471 C 249.311 -2.3801 -3.81669 0
M  V30 2472 C 250.63 -0.37185 -4.38526 0
M  V30 2473 H 247.749 -0.203386 -0.708381 0
M  V30 2474 H 250.391 -1.14924 -1.51303 0
M  V30 2475 H 248.541 -0.366946 -3.86763 0
M  V30 2476 H 250.213 -2.9562 -3.54128 0
M  V30 2477 H 248.456 -2.83289 -3.28526 0
M  V30 2478 H 249.127 -2.55192 -4.8947 0
M  V30 2479 H 251.603 -0.804602 -4.08247 0
M  V30 2480 H 250.479 -0.622173 -5.45362 0
M  V30 2481 H 250.74 0.727934 -4.36066 0
M  V30 2482 N 249.799 1.42003 -0.683588 0
M  V30 2483 C 250.729 2.33487 -0.024866 0
M  V30 2484 C 251.71 1.51163 0.779975 0
M  V30 2485 O 252.895 1.79739 0.735362 0
M  V30 2486 C 250.025 3.3487 0.920836 0
M  V30 2487 C 248.979 4.27414 0.223958 0
M  V30 2488 C 248.305 5.19074 1.2832 0
M  V30 2489 C 249.605 5.14445 -0.90242 0
M  V30 2490 H 251.299 2.88819 -0.788921 0
M  V30 2491 H 248.845 1.38873 -0.38083 0
M  V30 2492 H 250.798 3.97787 1.39081 0
M  V30 2493 H 249.522 2.77861 1.71642 0
M  V30 2494 H 248.181 3.65904 -0.225864 0
M  V30 2495 H 247.829 4.58387 2.071 0
M  V30 2496 H 247.529 5.81822 0.821995 0
M  V30 2497 H 249.053 5.84867 1.75392 0
M  V30 2498 H 250.467 5.70998 -0.513272 0
M  V30 2499 H 248.864 5.86072 -1.28997 0
M  V30 2500 H 249.934 4.52322 -1.74737 0
M  V30 2501 N 251.277 0.427512 1.51691 0
M  V30 2502 C 252.227 -0.406604 2.24345 0
M  V30 2503 C 253.211 -0.998276 1.26187 0
M  V30 2504 O 254.403 -0.918045 1.51331 0
M  V30 2505 C 251.532 -1.51266 3.08177 0
M  V30 2506 C 250.618 -0.930868 4.13758 0
M  V30 2507 N 251.009 -0.0773552 5.05741 0
M  V30 2508 C 249.307 -1.19948 4.29568 0
M  V30 2509 C 250.008 0.248344 5.8117 0
M  V30 2510 N 248.984 -0.365535 5.4237 0
M  V30 2511 H 252.786 0.251581 2.92821 0
M  V30 2512 H 250.3 0.239003 1.60632 0
M  V30 2513 H 252.297 -2.123 3.58796 0
M  V30 2514 H 250.957 -2.17328 2.41244 0
M  V30 2515 H 251.968 0.288351 5.17097 0
M  V30 2516 H 248.645 -1.85832 3.73862 0
M  V30 2517 H 250.035 0.942286 6.6526 0
M  V30 2518 N 252.755 -1.56801 0.158532 0
M  V30 2519 C 253.718 -2.16138 -0.762705 0
M  V30 2520 C 254.718 -1.1061 -1.16713 0
M  V30 2521 O 255.908 -1.36191 -1.08617 0
M  V30 2522 C 253.04 -2.73386 -2.03649 0
M  V30 2523 H 254.233 -2.98886 -0.246354 0
M  V30 2524 H 251.786 -1.56035 -0.0909744 0
M  V30 2525 H 252.521 -1.94335 -2.59623 0
M  V30 2526 H 252.306 -3.50601 -1.75559 0
M  V30 2527 H 253.796 -3.19065 -2.6942 0
M  V30 2528 N 254.233 0.115231 -1.57178 0
M  V30 2529 C 255.181 1.16014 -2.01602 0
M  V30 2530 C 256.175 1.42653 -0.913587 0
M  V30 2531 O 257.381 1.42571 -1.09879 0
M  V30 2532 H 253.756 0.391252 -0.642204 0
M  V30 2533 H 255.727 0.758998 -2.88586 0
M  V30 2534 C 254.476 2.47767 -2.4394 0
M  V30 2535 H 253.799 2.28108 -3.28339 0
M  V30 2536 H 255.239 3.19432 -2.78818 0
M  V30 2537 C 253.698 3.10617 -1.30455 0
M  V30 2538 O 254.228 3.96846 -0.622585 0
M  V30 2539 N 252.434 2.70553 -1.06064 0
M  V30 2540 H 251.981 2.00527 -1.61699 0
M  V30 2541 H 251.939 3.12934 -0.303284 0
M  V30 2542 N 255.711 1.52812 0.385517 0
M  V30 2543 C 256.957 1.68275 1.13188 0
M  V30 2544 C 257.29 0.423179 1.89533 0
M  V30 2545 O 256.565 -0.579113 1.85679 0
M  V30 2546 C 256.848 2.92001 2.1073 0
M  V30 2547 C 256.701 4.28067 1.38125 0
M  V30 2548 C 258.02 3.11283 3.11113 0
M  V30 2549 H 255.139 0.612352 0.410115 0
M  V30 2550 H 257.781 1.85415 0.414869 0
M  V30 2551 H 255.931 2.77519 2.71874 0
M  V30 2552 H 257.603 4.54324 0.799187 0
M  V30 2553 H 255.846 4.28388 0.683092 0
M  V30 2554 H 256.517 5.10733 2.09417 0
M  V30 2555 H 258.993 3.2482 2.6006 0
M  V30 2556 H 257.869 3.99325 3.76605 0
M  V30 2557 H 258.13 2.25656 3.80173 0
M  V30 2558 N 257.189 -0.644168 1.43834 0
M  V30 2559 C 258.152 -1.73857 1.49353 0
M  V30 2560 C 259.152 -1.56315 0.377112 0
M  V30 2561 O 260.342 -1.62048 0.639226 0
M  V30 2562 C 257.474 -3.12819 1.35488 0
M  V30 2563 H 258.667 -1.70342 2.46827 0
M  V30 2564 H 256.22 -0.856652 1.30733 0
M  V30 2565 H 256.955 -3.2194 0.390569 0
M  V30 2566 H 256.74 -3.26958 2.16428 0
M  V30 2567 H 258.23 -3.92606 1.42302 0
M  V30 2568 N 258.668 -1.30515 -0.883378 0
M  V30 2569 C 259.896 -1.22359 -1.66841 0
M  V30 2570 C 260.311 0.213296 -1.87591 0
M  V30 2571 O 259.668 1.14075 -1.42454 0
M  V30 2572 C 259.719 -1.95011 -3.04389 0
M  V30 2573 O 259.44 -3.3309 -2.84575 0
M  V30 2574 C 260.941 -1.93532 -3.98824 0
M  V30 2575 H 258.161 -0.423371 -0.520575 0
M  V30 2576 H 260.705 -1.72167 -1.10357 0
M  V30 2577 H 258.86 -1.48997 -3.57601 0
M  V30 2578 H 259.274 -3.69907 -3.71846 0
M  V30 2579 H 260.748 -2.48902 -4.92699 0
M  V30 2580 H 261.225 -0.914627 -4.29571 0
M  V30 2581 H 261.831 -2.39364 -3.51547 0
M  V30 2582 N 260.146 1.09593 -1.13257 0
M  V30 2583 C 261.371 1.8604 -0.916732 0
M  V30 2584 C 261.796 1.80504 0.529146 0
M  V30 2585 O 261.154 1.18127 1.37534 0
M  V30 2586 C 261.202 3.32017 -1.40703 0
M  V30 2587 O 260.306 4.08141 -0.591153 0
M  V30 2588 H 259.647 0.576943 -0.328683 0
M  V30 2589 H 262.177 1.38405 -1.50682 0
M  V30 2590 H 262.187 3.82865 -1.4099 0
M  V30 2591 H 260.862 3.35361 -2.45979 0
M  V30 2592 H 259.439 3.67084 -0.656005 0
M  V30 2593 N 261.624 0.925811 1.2754 0
M  V30 2594 C 262.852 0.581509 1.9856 0
M  V30 2595 C 263.267 -0.840041 1.69082 0
M  V30 2596 O 262.624 -1.55805 0.950312 0
M  V30 2597 C 262.675 0.795589 3.52637 0
M  V30 2598 O 262.396 2.16121 3.81082 0
M  V30 2599 C 263.897 0.459744 4.4091 0
M  V30 2600 H 261.117 0.220538 0.633722 0
M  V30 2601 H 263.661 1.24232 1.6244 0
M  V30 2602 H 261.816 0.18161 3.86974 0
M  V30 2603 H 262.23 2.2098 4.75676 0
M  V30 2604 H 263.704 0.660244 5.48037 0
M  V30 2605 H 264.181 -0.604625 4.35018 0
M  V30 2606 H 264.787 1.05178 4.12089 0
M  V30 2607 N 263.102 -1.41638 0.69111 0
M  V30 2608 C 264.379 -1.95036 0.148421 0
M  V30 2609 C 264.759 -1.63072 -1.34055 0
M  V30 2610 O 264.107 -0.93538 -2.08478 0
M  V30 2611 C 264.317 -3.46279 0.434951 0
M  V30 2612 C 265.665 -4.23069 0.360275 0
M  V30 2613 O 266.689 -3.54277 0.369613 0
M  V30 2614 O 265.548 -5.45583 0.316534 0
M  V30 2615 H 262.642 -0.826908 0.0123654 0
M  V30 2616 H 265.188 -1.5138 0.766963 0
M  V30 2617 H 263.96 -3.6281 1.46576 0
M  V30 2618 H 263.583 -3.97019 -0.214787 0
M  V30 2619 N 264.58 -0.43555 -1.51462 0
M  V30 2620 C 265.828 0.131254 -2.01673 0
M  V30 2621 C 266.149 1.43368 -1.32177 0
M  V30 2622 O 265.419 1.90524 -0.455769 0
M  V30 2623 H 263.999 0.0514954 -0.745223 0
M  V30 2624 H 266.661 -0.577847 -1.86137 0
M  V30 2625 H 265.757 0.308446 -3.10572 0
M  V30 2626 N 266.058 1.56714 -0.166846 0
M  V30 2627 C 267.306 1.96358 0.478305 0
M  V30 2628 C 267.627 1.0537 1.6408 0
M  V30 2629 O 266.897 0.119154 1.95537 0
M  V30 2630 H 265.477 0.725065 0.179692 0
M  V30 2631 H 268.139 1.93329 -0.246985 0
M  V30 2632 H 267.235 3.00547 0.841292 0
M  V30 2633 N 267.536 -0.106894 1.57237 0
M  V30 2634 C 268.466 -1.13148 2.04254 0
M  V30 2635 C 269.447 -1.42476 0.929224 0
M  V30 2636 O 270.632 -1.52709 1.19973 0
M  V30 2637 C 267.762 -2.4545 2.45706 0
M  V30 2638 C 266.716 -2.30558 3.60592 0
M  V30 2639 C 266.042 -3.67931 3.87983 0
M  V30 2640 C 267.342 -1.75597 4.91897 0
M  V30 2641 H 269.036 -0.740374 2.90101 0
M  V30 2642 H 266.582 -0.354696 1.39563 0
M  V30 2643 H 268.535 -3.17389 2.77205 0
M  V30 2644 H 267.259 -2.86475 1.56843 0
M  V30 2645 H 265.918 -1.61067 3.29322 0
M  V30 2646 H 265.566 -4.06462 2.96306 0
M  V30 2647 H 265.266 -3.58817 4.65322 0
M  V30 2648 H 266.79 -4.41356 4.21945 0
M  V30 2649 H 268.204 -2.37364 5.21854 0
M  V30 2650 H 266.601 -1.77272 5.73319 0
M  V30 2651 H 267.671 -0.714451 4.79608 0
M  V30 2652 N 269.014 -1.53014 -0.377408 0
M  V30 2653 C 270.242 -1.72515 -1.14219 0
M  V30 2654 C 270.657 -0.448735 -1.8339 0
M  V30 2655 O 270.014 0.577592 -1.73119 0
M  V30 2656 C 270.065 -2.8826 -2.18148 0
M  V30 2657 O 269.786 -4.10962 -1.51795 0
M  V30 2658 C 271.287 -3.19536 -3.07264 0
M  V30 2659 H 268.507 -0.577301 -0.342001 0
M  V30 2660 H 271.051 -1.99712 -0.439935 0
M  V30 2661 H 269.206 -2.63492 -2.83991 0
M  V30 2662 H 269.62 -4.75693 -2.20945 0
M  V30 2663 H 271.094 -4.03959 -3.76193 0
M  V30 2664 H 271.571 -2.34403 -3.71419 0
M  V30 2665 H 272.177 -3.46186 -2.47053 0
M  V30 2666 N 270.492 0.636531 -1.44174 0
M  V30 2667 C 271.738 1.39649 -1.47884 0
M  V30 2668 C 272.093 1.92098 -0.107747 0
M  V30 2669 O 271.386 1.70391 0.876208 0
M  V30 2670 C 271.58 2.58309 -2.47005 0
M  V30 2671 C 271.409 2.17476 -3.93617 0
M  V30 2672 C 270.179 2.0501 -4.61843 0
M  V30 2673 C 272.377 1.76722 -4.82984 0
M  V30 2674 N 270.359 1.57683 -5.93304 0
M  V30 2675 C 271.73 1.40601 -6.03847 0
M  V30 2676 C 273.785 1.64054 -4.70096 0
M  V30 2677 C 272.488 0.930787 -7.13252 0
M  V30 2678 C 274.514 1.17937 -5.79521 0
M  V30 2679 C 273.876 0.827625 -6.99521 0
M  V30 2680 H 269.975 0.506027 -0.596205 0
M  V30 2681 H 272.559 0.730791 -1.80465 0
M  V30 2682 H 270.73 3.22514 -2.16423 0
M  V30 2683 H 272.462 3.25083 -2.41045 0
M  V30 2684 H 269.217 2.25294 -4.16581 0
M  V30 2685 H 269.641 1.36334 -6.63131 0
M  V30 2686 H 274.283 1.89882 -3.77762 0
M  V30 2687 H 272.001 0.660012 -8.054 0
M  V30 2688 H 275.587 1.08601 -5.71574 0
M  V30 2689 H 274.467 0.476231 -7.82753 0
M  V30 2690 N 271.97 1.30982 0.876444 0
M  V30 2691 C 273.195 1.23373 1.66715 0
M  V30 2692 C 273.62 -0.19885 1.87046 0
M  V30 2693 O 272.978 -1.1427 1.40756 0
M  V30 2694 C 273.026 1.97644 3.01611 0
M  V30 2695 O 272.13 1.30935 3.91062 0
M  V30 2696 H 271.471 0.426279 0.509099 0
M  V30 2697 H 274.001 1.72944 1.09323 0
M  V30 2698 H 274.011 2.06992 3.51594 0
M  V30 2699 H 272.686 3.01829 2.86133 0
M  V30 2700 H 271.263 1.29996 3.49507 0
M  V30 2701 N 273.449 -1.08991 1.13837 0
M  V30 2702 C 274.399 -2.1393 0.788535 0
M  V30 2703 C 275.383 -1.59396 -0.219516 0
M  V30 2704 O 276.575 -1.76985 -0.0227557 0
M  V30 2705 C 273.704 -3.42305 0.261147 0
M  V30 2706 C 272.79 -4.03736 1.29837 0
M  V30 2707 N 273.181 -4.39659 2.50067 0
M  V30 2708 C 271.479 -4.30993 1.1472 0
M  V30 2709 C 272.18 -4.88113 3.16419 0
M  V30 2710 N 271.156 -4.85846 2.43832 0
M  V30 2711 H 274.958 -2.39516 1.70322 0
M  V30 2712 H 272.472 -1.26263 1.02134 0
M  V30 2713 H 274.469 -4.16899 -0.0077405 0
M  V30 2714 H 273.129 -3.18172 -0.647805 0
M  V30 2715 H 274.14 -4.30878 2.8734 0
M  V30 2716 H 270.817 -4.16444 0.296773 0
M  V30 2717 H 272.207 -5.25336 4.18894 0
M  V30 2718 N 274.927 -0.932562 -1.27047 0
M  V30 2719 C 276.343 -0.633544 -1.46487 0
M  V30 2720 C 276.543 0.815746 -1.84249 0
M  V30 2721 O 275.599 1.59319 -1.95892 0
M  V30 2722 C 276.912 -1.58758 -2.55375 0
M  V30 2723 C 278.46 -1.59634 -2.69232 0
M  V30 2724 C 278.935 -2.53747 -3.81283 0
M  V30 2725 N 280.426 -2.51982 -3.88664 0
M  V30 2726 C 281.161 -3.21491 -4.74796 0
M  V30 2727 N 280.657 -4.00395 -5.65381 0
M  V30 2728 N 282.45 -3.10485 -4.68568 0
M  V30 2729 H 274.601 -1.86946 -1.00821 0
M  V30 2730 H 276.864 -0.802897 -0.504044 0
M  V30 2731 H 276.57 -2.62172 -2.34432 0
M  V30 2732 H 276.444 -1.33301 -3.52861 0
M  V30 2733 H 278.831 -0.569488 -2.89553 0
M  V30 2734 H 278.912 -1.89142 -1.72218 0
M  V30 2735 H 278.556 -3.56545 -3.61715 0
M  V30 2736 H 278.486 -2.21532 -4.77735 0
M  V30 2737 H 280.977 -1.94681 -3.23895 0
M  V30 2738 H 281.29 -4.50406 -6.27976 0
M  V30 2739 H 279.635 -4.04498 -5.65161 0
M  V30 2740 H 282.826 -2.48331 -3.96799 0
M  V30 2741 H 282.999 -3.64925 -5.35475 0
M  V30 2742 N 276.405 1.4127 -0.698611 0
M  V30 2743 C 277.633 2.05503 -0.239992 0
M  V30 2744 C 278.048 1.52584 1.11191 0
M  V30 2745 O 277.405 0.675323 1.69545 0
M  V30 2746 C 277.456 3.60987 -0.192429 0
M  V30 2747 O 277.177 4.1195 -1.49094 0
M  V30 2748 C 278.678 4.42371 0.28681 0
M  V30 2749 H 275.898 0.661748 -0.111045 0
M  V30 2750 H 278.442 1.80987 -0.95205 0
M  V30 2751 H 276.597 3.84533 0.470472 0
M  V30 2752 H 277.011 5.06018 -1.38007 0
M  V30 2753 H 278.485 5.51344 0.26896 0
M  V30 2754 H 278.962 4.18699 1.32619 0
M  V30 2755 H 279.568 4.23897 -0.345201 0
M  V30 2756 N 277.883 0.443576 1.51229 0
M  V30 2757 C 279.132 -0.122332 2.01329 0
M  V30 2758 C 279.445 -1.43237 1.33201 0
M  V30 2759 O 280.651 -2.0816 1.74304 0
M  V30 2760 C 279.107 -0.268551 3.58897 0
M  V30 2761 C 278.715 1.03142 4.35965 0
M  V30 2762 C 280.459 -0.787894 4.17124 0
M  V30 2763 C 278.366 0.850504 5.85252 0
M  V30 2764 H 277.296 -0.0494929 0.752374 0
M  V30 2765 H 279.947 0.574289 1.74282 0
M  V30 2766 H 278.329 -1.02832 3.82415 0
M  V30 2767 H 279.503 1.80001 4.24189 0
M  V30 2768 H 277.818 1.47977 3.89219 0
M  V30 2769 H 280.415 -0.939841 5.26375 0
M  V30 2770 H 280.758 -1.77201 3.76703 0
M  V30 2771 H 281.291 -0.0862669 3.97706 0
M  V30 2772 H 278.03 1.80718 6.30096 0
M  V30 2773 H 277.55 0.121825 5.99676 0
M  V30 2774 H 279.229 0.506163 6.45017 0
M  V30 2775 N 279.361 -1.56624 0.175154 0
M  V30 2776 C 280.589 -2.01374 -0.474971 0
M  V30 2777 C 281.004 -1.05537 -1.56548 0
M  V30 2778 O 280.361 -0.0568668 -1.82411 0
M  V30 2779 C 280.412 -3.45923 -1.04975 0
M  V30 2780 O 280.133 -4.381 -0.00276605 0
M  V30 2781 C 281.634 -4.06093 -1.77773 0
M  V30 2782 H 278.854 -0.659962 -0.121206 0
M  V30 2783 H 281.398 -2.02601 0.27801 0
M  V30 2784 H 279.553 -3.45458 -1.75321 0
M  V30 2785 H 279.967 -5.22753 -0.427681 0
M  V30 2786 H 281.441 -5.09147 -2.13245 0
M  V30 2787 H 281.918 -3.48405 -2.67414 0
M  V30 2788 H 282.524 -4.10272 -1.12059 0
M  V30 2789 N 280.839 0.0985539 -1.57292 0
M  V30 2790 C 281.802 1.10402 -2.00858 0
M  V30 2791 C 282.802 1.33146 -0.901593 0
M  V30 2792 O 283.992 1.29318 -1.16716 0
M  V30 2793 C 281.124 2.45394 -2.36632 0
M  V30 2794 H 282.317 0.729099 -2.90902 0
M  V30 2795 H 279.87 0.343495 -1.52479 0
M  V30 2796 H 280.605 2.87769 -1.49531 0
M  V30 2797 H 280.39 2.30235 -3.17387 0
M  V30 2798 H 281.88 3.17718 -2.71007 0
M  V30 2799 N 282.317 1.53212 0.369288 0
M  V30 2800 C 283.594 1.59815 1.12776 0
M  V30 2801 C 283.974 0.403402 2.0721 0
M  V30 2802 O 283.322 -0.606667 2.20299 0
M  V30 2803 C 283.532 2.94664 1.87013 0
M  V30 2804 C 284.88 3.49109 2.41677 0
M  V30 2805 O 285.904 2.96669 1.97144 0
M  V30 2806 O 284.763 4.40775 3.23079 0
M  V30 2807 H 281.857 0.645376 0.517125 0
M  V30 2808 H 284.403 1.65553 0.37285 0
M  V30 2809 H 283.175 3.73061 1.18071 0
M  V30 2810 H 282.798 2.92401 2.69421 0
M  V30 2811 N 283.795 -0.628877 1.44509 0
M  V30 2812 C 285.044 -1.38437 1.4669 0
M  V30 2813 C 285.357 -1.95322 0.104272 0
M  V30 2814 O 286.563 -2.715 0.00362163 0
M  V30 2815 C 285.019 -2.50659 2.5826 0
M  V30 2816 C 284.627 -2.00277 4.0074 0
M  V30 2817 C 286.371 -3.27844 2.69664 0
M  V30 2818 C 284.278 -3.09854 5.0373 0
M  V30 2819 H 283.208 -0.520245 0.545766 0
M  V30 2820 H 285.859 -0.676313 1.70582 0
M  V30 2821 H 284.241 -3.2405 2.27612 0
M  V30 2822 H 285.415 -1.33736 4.40966 0
M  V30 2823 H 283.73 -1.35901 3.93599 0
M  V30 2824 H 286.327 -4.09534 3.43781 0
M  V30 2825 H 286.67 -3.77471 1.75559 0
M  V30 2826 H 287.203 -2.61543 2.99733 0
M  V30 2827 H 283.942 -2.65168 5.99472 0
M  V30 2828 H 283.462 -3.7503 4.68095 0
M  V30 2829 H 285.141 -3.74592 5.27532 0
M  V30 2830 N 285.273 -1.31445 -0.869486 0
M  V30 2831 C 286.501 -1.24122 -1.65534 0
M  V30 2832 C 286.916 0.193387 -1.87807 0
M  V30 2833 O 286.273 1.12557 -1.43656 0
M  V30 2834 C 286.324 -1.98229 -3.02304 0
M  V30 2835 O 286.045 -3.3609 -2.81026 0
M  V30 2836 C 287.546 -1.97751 -3.96749 0
M  V30 2837 H 284.766 -0.428868 -0.516055 0
M  V30 2838 H 287.31 -1.73328 -1.08525 0
M  V30 2839 H 285.465 -1.52782 -3.56001 0
M  V30 2840 H 285.879 -3.7383 -3.67902 0
M  V30 2841 H 287.353 -2.54114 -4.90031 0
M  V30 2842 H 287.83 -0.960137 -4.28577 0
M  V30 2843 H 288.436 -2.43079 -3.48988 0
M  V30 2844 N 286.751 1.08385 -1.14413 0
M  V30 2845 C 288.162 1.62258 -0.923535 0
M  V30 2846 C 288.513 1.88691 0.537595 0
M  V30 2847 O 287.638 1.64454 1.40655 0
M  V30 2848 C 288.233 2.94781 -1.67002 0
M  V30 2849 C 286.792 3.45437 -1.495 0
M  V30 2850 C 285.939 2.19668 -1.69238 0
M  V30 2851 H 288.89 0.916086 -1.2959 0
M  V30 2852 H 288.911 3.63229 -1.13334 0
M  V30 2853 H 288.423 2.7551 -2.73342 0
M  V30 2854 H 286.524 3.6981 -0.455097 0
M  V30 2855 H 286.637 4.22173 -2.2651 0
M  V30 2856 H 285.001 2.28849 -1.11804 0
M  V30 2857 H 285.784 2.02905 -2.7692 0
M  V30 2858 N 288.23 0.939286 1.26551 0
M  V30 2859 C 289.507 0.5038 1.89001 0
M  V30 2860 C 289.887 -1.01854 1.84903 0
M  V30 2861 O 289.235 -1.87773 1.30206 0
M  V30 2862 C 289.445 1.063 3.32417 0
M  V30 2863 C 290.793 1.13051 4.09273 0
M  V30 2864 O 291.817 1.01345 3.41479 0
M  V30 2865 O 290.676 1.31233 5.30509 0
M  V30 2866 H 287.77 0.163897 0.810597 0
M  V30 2867 H 290.316 1.03173 1.34735 0
M  V30 2868 H 289.088 2.10665 3.29752 0
M  V30 2869 H 288.711 0.517408 3.94219 0
M  V30 2870 N 289.708 -1.40897 0.706093 0
M  V30 2871 C 291.119 -1.84023 0.315052 0
M  V30 2872 C 291.47 -1.5906 -1.14866 0
M  V30 2873 O 290.595 -1.06651 -1.88293 0
M  V30 2874 C 291.19 -3.34055 0.565038 0
M  V30 2875 C 289.749 -3.7571 0.227806 0
M  V30 2876 C 288.896 -2.64204 0.842122 0
M  V30 2877 H 291.847 -1.303 0.905963 0
M  V30 2878 H 291.868 -3.80107 -0.172843 0
M  V30 2879 H 291.38 -3.52192 1.63042 0
M  V30 2880 H 289.481 -3.63172 -0.832895 0
M  V30 2881 H 289.594 -4.74103 0.690174 0
M  V30 2882 H 287.958 -2.53255 0.270893 0
M  V30 2883 H 288.741 -2.85155 1.91158 0
M  V30 2884 N 291.186 -0.45159 -1.50991 0
M  V30 2885 C 292.434 0.109857 -2.01801 0
M  V30 2886 C 292.755 1.41958 -1.3369 0
M  V30 2887 O 292.025 1.9003 -0.475951 0
M  V30 2888 H 290.605 0.0435884 -0.745727 0
M  V30 2889 H 293.267 -0.597557 -1.85514 0
M  V30 2890 H 292.363 0.275489 -3.10882 0
M  V30 2891 N 292.664 1.56529 -0.183458 0
M  V30 2892 C 293.91 1.98304 0.452466 0
M  V30 2893 C 294.265 1.06799 1.60037 0
M  V30 2894 O 293.558 0.110049 1.91284 0
M  V30 2895 C 293.752 3.43939 0.971637 0
M  V30 2896 C 293.581 4.49528 -0.124425 0
M  V30 2897 C 292.351 5.01981 -0.578168 0
M  V30 2898 C 294.549 5.05836 -0.929207 0
M  V30 2899 N 292.531 5.91219 -1.65327 0
M  V30 2900 C 293.902 5.91632 -1.85396 0
M  V30 2901 C 295.957 4.88302 -0.972929 0
M  V30 2902 C 294.66 6.61768 -2.81878 0
M  V30 2903 C 296.686 5.59168 -1.92574 0
M  V30 2904 C 296.048 6.44701 -2.83795 0
M  V30 2905 H 292.147 0.770551 0.133324 0
M  V30 2906 H 294.731 1.92581 -0.286473 0
M  V30 2907 H 292.902 3.50184 1.68006 0
M  V30 2908 H 294.634 3.72702 1.5772 0
M  V30 2909 H 291.389 4.73282 -0.173639 0
M  V30 2910 H 291.813 6.40543 -2.19167 0
M  V30 2911 H 296.455 4.21861 -0.28168 0
M  V30 2912 H 294.173 7.27415 -3.51984 0
M  V30 2913 H 297.759 5.47582 -1.96583 0
M  V30 2914 H 296.639 6.98573 -3.56322 0
M  V30 2915 N 294.142 -0.090211 1.57342 0
M  V30 2916 C 295.558 -0.444547 1.53284 0
M  V30 2917 C 295.758 -1.80238 0.900914 0
M  V30 2918 O 294.814 -2.4759 0.495513 0
M  V30 2919 C 296.127 -0.402543 2.97993 0
M  V30 2920 C 297.675 -0.48405 3.09234 0
M  V30 2921 C 298.15 -0.472144 4.5556 0
M  V30 2922 N 299.641 -0.532757 4.60126 0
M  V30 2923 C 300.376 -0.545462 5.708 0
M  V30 2924 N 299.872 -0.514082 6.9089 0
M  V30 2925 N 301.665 -0.59064 5.58988 0
M  V30 2926 H 293.816 0.799121 1.96794 0
M  V30 2927 H 296.079 0.297965 0.899956 0
M  V30 2928 H 295.785 0.528106 3.47712 0
M  V30 2929 H 295.659 -1.21969 3.56936 0
M  V30 2930 H 298.046 -1.40512 2.595 0
M  V30 2931 H 298.127 0.361328 2.53235 0
M  V30 2932 H 297.771 0.445 5.05947 0
M  V30 2933 H 297.701 -1.3348 5.09402 0
M  V30 2934 H 300.192 -0.562006 3.73698 0
M  V30 2935 H 300.505 -0.527195 7.71 0
M  V30 2936 H 298.85 -0.481054 6.93333 0
M  V30 2937 H 302.041 -0.61272 4.64073 0
M  V30 2938 H 302.214 -0.597073 6.45243 0
M  V30 2939 N 295.62 -1.53406 -0.361157 0
M  V30 2940 C 296.845 -1.74024 -1.12829 0
M  V30 2941 C 297.27 -0.470069 -1.82132 0
M  V30 2942 O 296.628 0.57619 -1.719 0
M  V30 2943 C 296.676 -2.90903 -2.13091 0
M  V30 2944 O 295.78 -2.59821 -3.20261 0
M  V30 2945 H 295.121 -0.577804 -0.327168 0
M  V30 2946 H 297.651 -2.00307 -0.41693 0
M  V30 2947 H 297.661 -3.17194 -2.56616 0
M  V30 2948 H 296.336 -3.83034 -1.62042 0
M  V30 2949 H 294.913 -2.44362 -2.81677 0
M  V30 2950 N 297.098 0.621204 -1.44841 0
M  V30 2951 C 298.514 0.94048 -1.28946 0
M  V30 2952 C 298.714 2.00154 -0.23249 0
M  V30 2953 O 297.77 2.49651 0.378237 0
M  V30 2954 C 299.083 1.39433 -2.66419 0
M  V30 2955 C 300.631 1.50927 -2.74208 0
M  V30 2956 C 301.106 1.99692 -4.12174 0
M  V30 2957 N 302.597 2.06947 -4.144 0
M  V30 2958 C 303.332 2.45871 -5.1801 0
M  V30 2959 N 302.828 2.83862 -6.31977 0
M  V30 2960 N 304.621 2.46092 -5.05366 0
M  V30 2961 H 296.772 -0.0803548 -2.12248 0
M  V30 2962 H 299.035 0.0266913 -0.947624 0
M  V30 2963 H 298.741 0.688925 -3.44887 0
M  V30 2964 H 298.615 2.36347 -2.93973 0
M  V30 2965 H 301.002 2.20561 -1.96053 0
M  V30 2966 H 301.083 0.523627 -2.50383 0
M  V30 2967 H 300.727 1.30649 -4.90809 0
M  V30 2968 H 300.657 2.99146 -4.33381 0
M  V30 2969 H 303.148 1.80232 -3.32152 0
M  V30 2970 H 303.461 3.12405 -7.0684 0
M  V30 2971 H 301.806 2.8159 -6.35399 0
M  V30 2972 H 304.997 2.1581 -4.15384 0
M  V30 2973 H 305.17 2.76102 -5.86235 0
M  V30 2974 N 298.576 1.31904 0.862503 0
M  V30 2975 C 299.823 1.22017 1.61611 0
M  V30 2976 C 300.151 -0.21991 1.93253 0
M  V30 2977 O 299.406 -1.17076 1.56817 0
M  V30 2978 C 299.705 2.01713 2.95037 0
M  V30 2979 C 299.371 3.51145 2.82857 0
M  V30 2980 C 298.033 3.91889 2.79243 0
M  V30 2981 C 300.385 4.46204 2.69353 0
M  V30 2982 C 297.713 5.25947 2.59993 0
M  V30 2983 C 300.065 5.80397 2.5164 0
M  V30 2984 C 298.729 6.20352 2.46413 0
M  V30 2985 H 297.999 0.44649 0.591378 0
M  V30 2986 H 300.646 1.63248 1.00111 0
M  V30 2987 H 298.951 1.53185 3.60613 0
M  V30 2988 H 300.648 1.91437 3.52353 0
M  V30 2989 H 297.238 3.1878 2.86491 0
M  V30 2990 H 301.422 4.15652 2.71196 0
M  V30 2991 H 296.678 5.5597 2.54376 0
M  V30 2992 H 300.852 6.53676 2.40169 0
M  V30 2993 H 298.479 7.24172 2.31256 0
M  V30 2994 N 300.054 -1.07777 1.14986 0
M  V30 2995 C 301.017 -2.13041 0.845358 0
M  V30 2996 C 302.017 -1.60071 -0.152931 0
M  V30 2997 O 303.207 -1.74033 0.0761879 0
M  V30 2998 C 300.339 -3.39896 0.261383 0
M  V30 2999 H 301.532 -2.41485 1.77834 0
M  V30 3000 H 299.085 -1.23595 0.956757 0
M  V30 3001 H 299.82 -3.17091 -0.68 0
M  V30 3002 H 299.605 -3.79642 0.980514 0
M  V30 3003 H 301.095 -4.17548 0.0657687 0
M  V30 3004 N 301.532 -0.945985 -1.26051 0
M  V30 3005 C 302.495 -0.463897 -2.24456 0
M  V30 3006 C 303.495 0.427655 -1.55009 0
M  V30 3007 O 304.685 0.226157 -1.72726 0
M  V30 3008 C 301.817 0.330812 -3.39291 0
M  V30 3009 H 303.01 -1.33357 -2.68619 0
M  V30 3010 H 300.563 -0.728416 -1.38289 0
M  V30 3011 H 301.298 1.21852 -3.00537 0
M  V30 3012 H 301.083 -0.308679 -3.90883 0
M  V30 3013 H 302.573 0.657865 -4.12386 0
M  V30 3014 N 303.011 1.40521 -0.713556 0
M  V30 3015 C 304.236 2.05759 -0.26035 0
M  V30 3016 C 304.661 1.53403 1.08854 0
M  V30 3017 O 304.019 0.668535 1.68524 0
M  V30 3018 C 304.067 3.59745 -0.248122 0
M  V30 3019 O 303.171 4.05123 0.77131 0
M  V30 3020 H 302.512 0.652564 -0.122703 0
M  V30 3021 H 305.042 1.79958 -0.973467 0
M  V30 3022 H 305.052 4.07911 -0.0851129 0
M  V30 3023 H 303.727 3.97218 -1.2325 0
M  V30 3024 H 302.304 3.68422 0.57619 0
M  V30 3025 N 304.489 0.459591 1.5075 0
M  V30 3026 C 305.737 -0.0991532 2.01857 0
M  V30 3027 C 306.058 -1.41247 1.34441 0
M  V30 3028 O 305.328 -1.89775 0.486022 0
M  V30 3029 H 303.908 -0.039633 0.745948 0
M  V30 3030 H 306.57 0.607387 1.85194 0
M  V30 3031 H 305.666 -0.258998 3.11023 0
M  V30 3032 N 305.967 -1.56429 0.191757 0
M  V30 3033 C 306.877 -2.22541 -0.742481 0
M  V30 3034 C 307.893 -1.22342 -1.23727 0
M  V30 3035 O 309.069 -1.55069 -1.28513 0
M  V30 3036 C 306.134 -2.8692 -1.94623 0
M  V30 3037 C 305.195 -4.02378 -1.49633 0
M  V30 3038 C 304.428 -4.63678 -2.6427 0
M  V30 3039 O 304.651 -4.23895 -3.81666 0
M  V30 3040 O 303.585 -5.53202 -2.37174 0
M  V30 3041 H 307.411 -3.02977 -0.209462 0
M  V30 3042 H 304.996 -1.49353 -0.0373832 0
M  V30 3043 H 306.878 -3.27663 -2.64982 0
M  V30 3044 H 305.553 -2.09466 -2.46791 0
M  V30 3045 H 304.46 -3.66265 -0.761636 0
M  V30 3046 H 305.793 -4.81487 -1.02134 0
M  V30 3047 N 307.445 0.0818655 -1.57387 0
M  V30 3048 C 308.693 0.781368 -1.86384 0
M  V30 3049 C 309.014 1.78618 -0.782342 0
M  V30 3050 O 308.284 1.94976 0.190061 0
M  V30 3051 H 306.864 0.291562 -0.687751 0
M  V30 3052 H 309.526 0.060348 -1.94807 0
M  V30 3053 H 308.622 1.3038 -2.83562 0
M  V30 3054 N 308.923 1.53595 0.353017 0
M  V30 3055 C 310.172 1.69603 1.09168 0
M  V30 3056 C 310.485 0.460925 1.90092 0
M  V30 3057 O 311.691 0.501774 2.66823 0
M  V30 3058 C 310.147 2.99872 1.9901 0
M  V30 3059 C 309.755 4.30687 1.23339 0
M  V30 3060 C 311.499 3.25246 2.72792 0
M  V30 3061 C 309.406 5.52036 2.12156 0
M  V30 3062 H 308.336 0.631966 0.411261 0
M  V30 3063 H 310.987 1.80096 0.351802 0
M  V30 3064 H 309.369 2.83212 2.7678 0
M  V30 3065 H 310.543 4.58019 0.505456 0
M  V30 3066 H 308.858 4.11853 0.613663 0
M  V30 3067 H 311.455 4.13095 3.39495 0
M  V30 3068 H 311.798 2.41846 3.38846 0
M  V30 3069 H 312.331 3.42638 2.021 0
M  V30 3070 H 309.07 6.37951 1.50659 0
M  V30 3071 H 308.59 5.28966 2.82764 0
M  V30 3072 H 310.269 5.87313 2.71427 0
M  V30 3073 N 310.401 -0.613514 1.45168 0
M  V30 3074 C 311.333 -1.73825 1.4939 0
M  V30 3075 C 312.346 -1.58175 0.385304 0
M  V30 3076 O 313.535 -1.66165 0.652036 0
M  V30 3077 C 310.635 -3.11758 1.32891 0
M  V30 3078 C 309.808 -3.53704 2.57317 0
M  V30 3079 C 308.867 -4.70579 2.35462 0
M  V30 3080 O 307.893 -4.77996 3.09044 0
M  V30 3081 N 309.095 -5.63454 1.39644 0
M  V30 3082 H 311.86 -1.70669 2.46358 0
M  V30 3083 H 309.421 -0.79862 1.40832 0
M  V30 3084 H 311.413 -3.87692 1.1609 0
M  V30 3085 H 309.983 -3.09456 0.442218 0
M  V30 3086 H 309.203 -2.67794 2.89275 0
M  V30 3087 H 310.491 -3.78486 3.40038 0
M  V30 3088 H 309.889 -5.6017 0.789062 0
M  V30 3089 H 308.446 -6.38944 1.28816 0
M  V30 3090 N 311.879 -1.3236 -0.855495 0
M  V30 3091 C 312.809 -1.23833 -1.97958 0
M  V30 3092 C 313.79 -0.122361 -1.69659 0
M  V30 3093 O 314.975 -0.30939 -1.9172 0
M  V30 3094 C 312.105 -0.959772 -3.33775 0
M  V30 3095 C 311.059 -2.03689 -3.76424 0
M  V30 3096 C 310.385 -1.61075 -5.09862 0
M  V30 3097 C 311.685 -3.4518 -3.9198 0
M  V30 3098 H 313.379 -2.1788 -2.0535 0
M  V30 3099 H 310.925 -1.04891 -0.986605 0
M  V30 3100 H 312.878 -0.886678 -4.11966 0
M  V30 3101 H 311.602 0.0163404 -3.26596 0
M  V30 3102 H 310.261 -2.10012 -3.00484 0
M  V30 3103 H 309.909 -0.622107 -4.99138 0
M  V30 3104 H 309.609 -2.33143 -5.39368 0
M  V30 3105 H 311.133 -1.55201 -5.90546 0
M  V30 3106 H 312.547 -3.4145 -4.60526 0
M  V30 3107 H 310.944 -4.1559 -4.32903 0
M  V30 3108 H 312.014 -3.84903 -2.94919 0
M  V30 3109 N 313.357 1.07166 -1.15556 0
M  V30 3110 C 314.773 1.31899 -0.898603 0
M  V30 3111 C 314.973 1.96333 0.453383 0
M  V30 3112 O 314.029 2.22438 1.19489 0
M  V30 3113 C 315.342 2.20826 -2.04099 0
M  V30 3114 C 316.89 2.34269 -2.07574 0
M  V30 3115 C 317.365 3.26546 -3.21141 0
M  V30 3116 N 318.856 3.34127 -3.20801 0
M  V30 3117 C 319.591 4.05595 -4.05315 0
M  V30 3118 N 319.087 4.79661 -4.99897 0
M  V30 3119 N 320.88 4.01555 -3.93332 0
M  V30 3120 H 313.031 0.637302 -2.02613 0
M  V30 3121 H 315.294 0.343468 -0.883591 0
M  V30 3122 H 315 1.80744 -3.01703 0
M  V30 3123 H 314.874 3.21364 -1.97496 0
M  V30 3124 H 317.261 2.73603 -1.10568 0
M  V30 3125 H 317.342 1.33429 -2.18244 0
M  V30 3126 H 316.986 2.87931 -4.184 0
M  V30 3127 H 316.916 4.27345 -3.07708 0
M  V30 3128 H 319.407 2.81336 -2.52306 0
M  V30 3129 H 319.72 5.31694 -5.60822 0
M  V30 3130 H 318.065 4.78671 -5.03884 0
M  V30 3131 H 321.256 3.42806 -3.18751 0
M  V30 3132 H 321.429 4.56987 -4.5942 0
M  V30 3133 N 314.835 0.952656 1.25548 0
M  V30 3134 C 316.065 0.622592 1.96996 0
M  V30 3135 C 316.473 -0.809112 1.71026 0
M  V30 3136 O 315.816 -1.55258 0.981861 0
M  V30 3137 C 315.878 0.798946 3.5051 0
M  V30 3138 C 315.542 2.20744 4.00151 0
M  V30 3139 C 316.539 3.18394 4.11001 0
M  V30 3140 C 314.224 2.5311 4.33867 0
M  V30 3141 C 316.218 4.46504 4.54877 0
M  V30 3142 C 313.905 3.8145 4.7743 0
M  V30 3143 C 314.903 4.77959 4.87897 0
M  V30 3144 O 314.591 6.04012 5.30494 0
M  V30 3145 H 314.323 0.232503 0.634758 0
M  V30 3146 H 316.877 1.2789 1.60728 0
M  V30 3147 H 315.107 0.0854903 3.86605 0
M  V30 3148 H 316.796 0.47023 4.03167 0
M  V30 3149 H 317.562 2.94715 3.85186 0
M  V30 3150 H 313.441 1.78719 4.24948 0
M  V30 3151 H 316.985 5.21835 4.62962 0
M  V30 3152 H 312.882 4.04936 5.0269 0
M  V30 3153 H 313.65 6.0736 5.48685 0
M  V30 3154 N 316.313 -1.40141 0.720998 0
M  V30 3155 C 317.561 -2.0039 0.262323 0
M  V30 3156 C 317.882 -1.57469 -1.15015 0
M  V30 3157 O 317.152 -0.816582 -1.78069 0
M  V30 3158 H 315.732 -0.741063 0.093996 0
M  V30 3159 H 318.394 -1.71398 0.927835 0
M  V30 3160 H 317.49 -3.10658 0.299671 0
M  V30 3161 N 317.792 -0.46758 -1.50504 0
M  V30 3162 C 319.203 -0.0116166 -1.86696 0
M  V30 3163 C 319.554 1.39202 -1.38265 0
M  V30 3164 O 318.679 2.0313 -0.746132 0
M  V30 3165 C 319.274 -0.0143044 -3.38797 0
M  V30 3166 C 317.833 0.386175 -3.74414 0
M  V30 3167 C 316.98 -0.401287 -2.74381 0
M  V30 3168 H 319.931 -0.682022 -1.43297 0
M  V30 3169 H 319.952 0.788641 -3.72237 0
M  V30 3170 H 319.464 -1.03602 -3.74016 0
M  V30 3171 H 317.565 1.41237 -3.44794 0
M  V30 3172 H 317.678 0.0899596 -4.79016 0
M  V30 3173 H 316.042 0.144536 -2.5429 0
M  V30 3174 H 316.825 -1.42244 -3.12444 0
M  V30 3175 N 319.27 1.56325 -0.20005 0
M  V30 3176 C 320.22 2.15939 0.731743 0
M  V30 3177 C 321.204 1.10154 1.17281 0
M  V30 3178 O 322.396 1.36203 1.13038 0
M  V30 3179 C 319.525 2.82614 1.94895 0
M  V30 3180 C 318.611 3.95596 1.52855 0
M  V30 3181 N 319.002 4.99118 0.819418 0
M  V30 3182 C 317.3 4.07288 1.81748 0
M  V30 3183 C 318.001 5.78513 0.608053 0
M  V30 3184 N 316.977 5.31117 1.15828 0
M  V30 3185 H 320.779 2.9334 0.181285 0
M  V30 3186 H 318.293 1.624 -0.000452172 0
M  V30 3187 H 320.29 3.23718 2.62702 0
M  V30 3188 H 318.95 2.06702 2.50408 0
M  V30 3189 H 319.961 5.15723 0.47436 0
M  V30 3190 H 316.638 3.42509 2.38734 0
M  V30 3191 H 318.028 6.71885 0.0451619 0
M  V30 3192 N 320.748 -0.0735177 1.57428 0
M  V30 3193 C 321.711 -1.07192 2.02589 0
M  V30 3194 C 322.711 -1.31695 0.922661 0
M  V30 3195 O 323.901 -1.27445 1.18758 0
M  V30 3196 C 321.033 -2.41599 2.40506 0
M  V30 3197 H 322.226 -0.682727 2.92025 0
M  V30 3198 H 319.779 -0.319193 1.53006 0
M  V30 3199 H 320.514 -2.85354 1.5409 0
M  V30 3200 H 320.299 -2.25156 3.21009 0
M  V30 3201 H 321.789 -3.13367 2.76027 0
M  V30 3202 N 322.226 -1.5378 -0.344866 0
M  V30 3203 C 323.474 -1.70625 -1.08311 0
M  V30 3204 C 323.795 -0.471447 -1.89215 0
M  V30 3205 O 323.065 0.514616 -1.8902 0
M  V30 3206 H 321.645 -0.629058 -0.402859 0
M  V30 3207 H 324.307 -1.9103 -0.386459 0
M  V30 3208 H 323.403 -2.57656 -1.76124 0
M  V30 3209 N 323.704 0.605807 -1.45491 0
M  V30 3210 C 325.12 0.926751 -1.29936 0
M  V30 3211 C 325.32 1.99896 -0.253706 0
M  V30 3212 O 324.376 2.50038 0.351737 0
M  V30 3213 C 325.689 1.36599 -2.67883 0
M  V30 3214 C 327.237 1.4801 -2.75793 0
M  V30 3215 C 327.712 1.95309 -4.14268 0
M  V30 3216 N 329.203 2.0254 -4.16571 0
M  V30 3217 C 329.938 2.40363 -5.20589 0
M  V30 3218 N 329.434 2.77143 -6.34952 0
M  V30 3219 N 331.227 2.40718 -5.07948 0
M  V30 3220 H 323.378 -0.102862 -2.12151 0
M  V30 3221 H 325.641 0.016639 -0.947854 0
M  V30 3222 H 325.347 0.652306 -3.45598 0
M  V30 3223 H 325.221 2.33215 -2.96463 0
M  V30 3224 H 327.608 2.1847 -1.98381 0
M  V30 3225 H 327.689 0.497041 -2.50925 0
M  V30 3226 H 327.333 1.25436 -4.92167 0
M  V30 3227 H 327.263 2.94532 -4.3653 0
M  V30 3228 H 329.754 1.76699 -3.34045 0
M  V30 3229 H 330.067 3.0489 -7.10114 0
M  V30 3230 H 328.412 2.74834 -6.3835 0
M  V30 3231 H 331.603 2.11392 -4.1765 0
M  V30 3232 H 331.776 2.69869 -5.89131 0
M  V30 3233 N 325.182 1.32811 0.848464 0
M  V30 3234 C 326.112 1.24882 1.97299 0
M  V30 3235 C 327.093 0.131357 1.69592 0
M  V30 3236 O 328.278 0.319553 1.91553 0
M  V30 3237 C 325.408 0.97746 3.33261 0
M  V30 3238 C 324.362 2.05682 3.75338 0
M  V30 3239 C 323.688 1.63777 5.09 0
M  V30 3240 C 324.988 3.47254 3.90144 0
M  V30 3241 H 326.682 2.18966 2.04191 0
M  V30 3242 H 324.228 1.05413 0.981029 0
M  V30 3243 H 326.181 0.908513 4.1149 0
M  V30 3244 H 324.905 0.000980011 3.266 0
M  V30 3245 H 323.564 2.11603 2.99366 0
M  V30 3246 H 323.212 0.648569 4.98801 0
M  V30 3247 H 322.912 2.36 5.38124 0
M  V30 3248 H 324.436 1.5833 5.89715 0
M  V30 3249 H 325.85 3.43888 4.58709 0
M  V30 3250 H 324.247 4.1788 4.30693 0
M  V30 3251 H 325.317 3.86462 2.92874 0
M  V30 3252 N 326.66 -1.06551 1.16123 0
M  V30 3253 C 327.909 -1.78687 0.935622 0
M  V30 3254 C 328.222 -1.88056 -0.538001 0
M  V30 3255 O 329.428 -2.56794 -0.88143 0
M  V30 3256 C 327.884 -3.21143 1.62466 0
M  V30 3257 C 327.492 -3.19949 3.13587 0
M  V30 3258 C 329.236 -3.9783 1.48092 0
M  V30 3259 C 327.143 -4.57108 3.75241 0
M  V30 3260 H 326.073 -0.669712 0.346412 0
M  V30 3261 H 328.724 -1.19534 1.39226 0
M  V30 3262 H 327.106 -3.80539 1.09572 0
M  V30 3263 H 328.28 -2.70151 3.73303 0
M  V30 3264 H 326.595 -2.5676 3.27816 0
M  V30 3265 H 329.192 -4.99217 1.91538 0
M  V30 3266 H 329.535 -4.14078 0.429507 0
M  V30 3267 H 330.068 -3.4495 1.98127 0
M  V30 3268 H 326.807 -4.46065 4.80319 0
M  V30 3269 H 326.327 -5.07111 3.20309 0
M  V30 3270 H 328.006 -5.26069 3.76644 0
M  V30 3271 N 328.138 -0.959301 -1.25041 0
M  V30 3272 C 329.07 -0.440543 -2.24926 0
M  V30 3273 C 330.083 0.446131 -1.56568 0
M  V30 3274 O 331.272 0.253657 -1.76689 0
M  V30 3275 C 328.372 0.38412 -3.36716 0
M  V30 3276 C 327.545 -0.490658 -4.34639 0
M  V30 3277 C 326.604 0.276587 -5.25473 0
M  V30 3278 O 325.63 -0.326614 -5.68262 0
M  V30 3279 N 326.832 1.56844 -5.5891 0
M  V30 3280 H 329.597 -1.29931 -2.70071 0
M  V30 3281 H 327.158 -0.830181 -1.38995 0
M  V30 3282 H 329.15 0.905228 -3.94446 0
M  V30 3283 H 327.72 1.14377 -2.90924 0
M  V30 3284 H 326.94 -1.19282 -3.7572 0
M  V30 3285 H 328.228 -1.08756 -4.97041 0
M  V30 3286 H 327.626 2.08036 -5.26059 0
M  V30 3287 H 326.183 2.03541 -6.19205 0
M  V30 3288 N 329.616 1.39756 -0.72842 0
M  V30 3289 C 330.548 2.29157 -0.0446202 0
M  V30 3290 C 331.561 1.46484 0.710367 0
M  V30 3291 O 332.75 1.69632 0.55562 0
M  V30 3292 C 329.85 3.24987 0.961071 0
M  V30 3293 C 329.023 4.36572 0.268967 0
M  V30 3294 C 328.082 5.12756 1.18184 0
M  V30 3295 O 327.108 5.6534 0.661794 0
M  V30 3296 N 328.31 5.23331 2.51206 0
M  V30 3297 H 331.075 2.88482 -0.812295 0
M  V30 3298 H 328.636 1.51265 -0.577098 0
M  V30 3299 H 330.628 3.72827 1.57423 0
M  V30 3300 H 329.198 2.66739 1.63 0
M  V30 3301 H 328.418 3.90694 -0.524574 0
M  V30 3302 H 329.706 5.08363 -0.210934 0
M  V30 3303 H 329.104 4.82116 2.9594 0
M  V30 3304 H 327.661 5.74634 3.07634 0
M  V30 3305 N 331.094 0.475555 1.50254 0
M  V30 3306 C 332.324 -0.0753399 2.06463 0
M  V30 3307 C 332.732 -1.33661 1.33908 0
M  V30 3308 O 332.075 -1.79219 0.403257 0
M  V30 3309 C 332.137 -0.424921 3.5698 0
M  V30 3310 C 331.801 0.734965 4.51051 0
M  V30 3311 C 332.798 1.61827 4.94073 0
M  V30 3312 C 330.483 0.926557 4.9368 0
M  V30 3313 C 332.477 2.67754 5.78434 0
M  V30 3314 C 330.164 1.98904 5.77824 0
M  V30 3315 C 331.162 2.8629 6.20103 0
M  V30 3316 O 330.85 3.90708 7.02568 0
M  V30 3317 H 330.582 0.00576308 0.675975 0
M  V30 3318 H 333.136 0.664662 1.94349 0
M  V30 3319 H 331.366 -1.21817 3.67012 0
M  V30 3320 H 333.055 -0.911422 3.95535 0
M  V30 3321 H 333.821 1.48196 4.61804 0
M  V30 3322 H 329.7 0.25584 4.6029 0
M  V30 3323 H 333.244 3.35992 6.11355 0
M  V30 3324 H 329.141 2.12541 6.09505 0
M  V30 3325 H 329.909 3.87751 7.20827 0
M  V30 3326 N 332.573 -1.56217 0.208337 0
M  V30 3327 C 333.801 -2.02337 -0.43215 0
M  V30 3328 C 334.216 -1.08834 -1.54275 0
M  V30 3329 O 333.573 -0.0955462 -1.8225 0
M  V30 3330 C 333.624 -3.48072 -0.976138 0
M  V30 3331 O 333.345 -4.38007 0.0901621 0
M  V30 3332 C 334.846 -4.09773 -1.69119 0
M  V30 3333 H 332.066 -0.662385 -0.10718 0
M  V30 3334 H 334.61 -2.01966 0.320923 0
M  V30 3335 H 332.765 -3.49099 -1.67954 0
M  V30 3336 H 333.179 -5.23543 -0.316701 0
M  V30 3337 H 334.653 -5.13556 -2.02397 0
M  V30 3338 H 335.13 -3.53999 -2.59964 0
M  V30 3339 H 335.736 -4.12556 -1.03332 0
M  V30 3340 N 334.051 0.0651679 -1.57465 0
M  V30 3341 C 335.3 0.761916 -1.86756 0
M  V30 3342 C 335.613 1.78406 -0.801925 0
M  V30 3343 O 336.819 2.53084 -0.982885 0
M  V30 3344 C 335.275 1.40603 -3.31299 0
M  V30 3345 C 334.883 0.422115 -4.46007 0
M  V30 3346 C 336.627 2.08476 -3.69781 0
M  V30 3347 C 334.534 1.07252 -5.81593 0
M  V30 3348 H 333.464 0.288308 -0.696702 0
M  V30 3349 H 336.115 0.015344 -1.83494 0
M  V30 3350 H 334.497 2.20109 -3.29193 0
M  V30 3351 H 335.671 -0.343613 -4.59517 0
M  V30 3352 H 333.986 -0.152527 -4.16121 0
M  V30 3353 H 336.583 2.57925 -4.68379 0
M  V30 3354 H 336.926 2.88712 -2.99919 0
M  V30 3355 H 337.459 1.35792 -3.73905 0
M  V30 3356 H 334.198 0.310342 -6.54765 0
M  V30 3357 H 333.718 1.80895 -5.71872 0
M  V30 3358 H 335.397 1.59043 -6.27148 0
M  V30 3359 N 335.529 1.53961 0.336706 0
M  V30 3360 C 336.778 1.70751 1.07363 0
M  V30 3361 C 337.091 0.481061 1.89592 0
M  V30 3362 O 338.297 0.530046 2.66276 0
M  V30 3363 C 336.753 3.01965 1.95818 0
M  V30 3364 C 336.361 4.31971 1.18764 0
M  V30 3365 C 338.105 3.28121 2.69327 0
M  V30 3366 C 336.012 5.54255 2.06289 0
M  V30 3367 H 334.942 0.636292 0.404535 0
M  V30 3368 H 337.593 1.80459 0.332681 0
M  V30 3369 H 335.975 2.86132 2.7376 0
M  V30 3370 H 337.149 4.5853 0.456849 0
M  V30 3371 H 335.464 4.12481 0.569946 0
M  V30 3372 H 338.061 4.16673 3.35094 0
M  V30 3373 H 338.404 2.45426 3.36261 0
M  V30 3374 H 338.937 3.44762 1.98454 0
M  V30 3375 H 335.676 6.39513 1.43885 0
M  V30 3376 H 335.196 5.31935 2.77138 0
M  V30 3377 H 336.875 5.90159 2.65182 0
M  V30 3378 N 337.007 -0.598083 1.45811 0
M  V30 3379 C 337.955 -1.72932 1.55555 0
M  V30 3380 C 338.949 -1.63984 0.424921 0
M  V30 3381 O 340.155 -1.69663 0.601205 0
M  V30 3382 H 336.53 -0.571489 0.488779 0
M  V30 3383 H 338.501 -1.61842 2.50699 0
M  V30 3384 C 337.25 -3.11318 1.54843 0
M  V30 3385 H 336.573 -3.18867 2.41172 0
M  V30 3386 H 338.013 -3.90274 1.65717 0
M  V30 3387 C 336.472 -3.3578 0.274427 0
M  V30 3388 O 337.002 -3.9654 -0.641778 0
M  V30 3389 N 335.208 -2.90119 0.167139 0
M  V30 3390 H 334.755 -2.40855 0.913596 0
M  V30 3391 H 334.713 -3.0686 -0.684435 0
M  V30 3392 N 338.485 -1.33259 -0.841409 0
M  V30 3393 C 339.448 -1.23221 -1.9326 0
M  V30 3394 C 340.448 -0.151895 -1.60081 0
M  V30 3395 O 341.638 -0.403246 -1.69468 0
M  V30 3396 C 338.77 -0.898123 -3.28856 0
M  V30 3397 H 339.963 -2.2021 -2.03587 0
M  V30 3398 H 337.516 -1.17281 -1.03319 0
M  V30 3399 H 338.251 0.0693841 -3.24226 0
M  V30 3400 H 338.036 -1.67934 -3.54317 0
M  V30 3401 H 339.526 -0.852563 -4.08805 0
M  V30 3402 N 339.963 1.05934 -1.16686 0
M  V30 3403 C 340.926 2.11669 -0.879144 0
M  V30 3404 C 341.926 1.60294 0.127445 0
M  V30 3405 O 343.116 1.7389 -0.103865 0
M  V30 3406 C 340.248 3.39438 -0.315425 0
M  V30 3407 H 341.441 2.38626 -1.81653 0
M  V30 3408 H 338.994 1.22058 -0.976299 0
M  V30 3409 H 339.729 3.18132 0.629468 0
M  V30 3410 H 339.514 3.78034 -1.04079 0
M  V30 3411 H 341.004 4.17391 -0.132189 0
M  V30 3412 N 341.441 0.965919 1.2453 0
M  V30 3413 C 342.689 0.625593 1.92174 0
M  V30 3414 C 343.01 -0.841652 1.75901 0
M  V30 3415 O 342.28 -1.60061 1.12948 0
M  V30 3416 H 340.86 0.228388 0.71123 0
M  V30 3417 H 343.522 1.2266 1.51461 0
M  V30 3418 H 342.618 0.864653 2.99884 0
M  V30 3419 N 342.919 -1.39368 0.735821 0
M  V30 3420 C 343.882 -2.2896 0.104874 0
M  V30 3421 C 344.882 -1.46347 -0.666274 0
M  V30 3422 O 346.072 -1.67014 -0.49517 0
M  V30 3423 C 343.204 -3.29857 -0.860656 0
M  V30 3424 H 344.397 -2.86259 0.894205 0
M  V30 3425 H 341.95 -1.48029 0.501704 0
M  V30 3426 H 342.685 -2.77615 -1.67631 0
M  V30 3427 H 342.47 -3.9087 -0.310327 0
M  V30 3428 H 343.96 -3.96893 -1.29867 0
M  V30 3429 N 344.397 -0.483516 -1.5 0
M  V30 3430 C 345.644 0.0671597 -2.02389 0
M  V30 3431 C 345.972 1.38597 -1.36459 0
M  V30 3432 O 345.227 1.89634 -0.483458 0
M  V30 3433 C 345.526 0.286226 -3.56252 0
M  V30 3434 C 345.192 -0.952416 -4.40726 0
M  V30 3435 C 343.854 -1.29199 -4.63531 0
M  V30 3436 C 346.206 -1.77655 -4.89988 0
M  V30 3437 C 343.534 -2.45553 -5.32842 0
M  V30 3438 C 345.886 -2.93147 -5.60578 0
M  V30 3439 C 344.55 -3.27505 -5.81633 0
M  V30 3440 H 343.82 0.0245755 -0.740592 0
M  V30 3441 H 346.467 -0.640124 -1.80485 0
M  V30 3442 H 344.772 1.07587 -3.76739 0
M  V30 3443 H 346.469 0.726473 -3.94365 0
M  V30 3444 H 343.059 -0.677881 -4.23205 0
M  V30 3445 H 347.243 -1.52737 -4.72213 0
M  V30 3446 H 342.499 -2.72431 -5.47349 0
M  V30 3447 H 346.673 -3.57344 -5.97727 0
M  V30 3448 H 344.3 -4.1777 -6.35116 0
M  V30 3449 N 345.875 1.56104 -0.216619 0
M  V30 3450 C 346.807 2.17339 0.72776 0
M  V30 3451 C 347.82 1.14109 1.16116 0
M  V30 3452 O 349.009 1.4111 1.09317 0
M  V30 3453 C 346.109 2.73818 1.99693 0
M  V30 3454 C 345.282 4.02168 1.71988 0
M  V30 3455 C 344.341 4.43259 2.83562 0
M  V30 3456 O 343.367 5.10257 2.52244 0
M  V30 3457 N 344.569 4.08535 4.12407 0
M  V30 3458 H 347.334 2.99005 0.203983 0
M  V30 3459 H 344.895 1.61861 -0.0354289 0
M  V30 3460 H 346.887 2.9828 2.73516 0
M  V30 3461 H 345.457 1.96483 2.43132 0
M  V30 3462 H 344.677 3.85612 0.818337 0
M  V30 3463 H 345.965 4.85907 1.50903 0
M  V30 3464 H 345.363 3.54687 4.40696 0
M  V30 3465 H 343.92 4.37901 4.8279 0
M  V30 3466 N 347.353 -0.0568162 1.57498 0
M  V30 3467 C 348.316 -1.05038 2.03715 0
M  V30 3468 C 349.316 -1.30709 0.936577 0
M  V30 3469 O 350.506 -1.26178 1.20103 0
M  V30 3470 C 347.638 -2.39034 2.43055 0
M  V30 3471 H 348.831 -0.651715 2.92733 0
M  V30 3472 H 346.384 -0.302947 1.53336 0
M  V30 3473 H 347.119 -2.83703 1.57108 0
M  V30 3474 H 346.904 -2.21739 3.2338 0
M  V30 3475 H 348.394 -3.10421 2.79336 0
M  V30 3476 N 348.832 -1.54138 -0.328536 0
M  V30 3477 C 350.078 -1.7236 -1.06865 0
M  V30 3478 C 350.411 -0.493231 -1.87832 0
M  V30 3479 O 349.686 0.5098 -1.877 0
M  V30 3480 C 349.969 -2.99621 -1.99747 0
M  V30 3481 C 349.822 -4.32899 -1.22143 0
M  V30 3482 C 351.141 -3.22615 -2.99345 0
M  V30 3483 H 348.26 -0.627151 -0.387105 0
M  V30 3484 H 350.902 -1.86827 -0.345767 0
M  V30 3485 H 349.052 -2.87418 -2.61387 0
M  V30 3486 H 350.724 -4.56978 -0.630017 0
M  V30 3487 H 348.967 -4.30628 -0.523628 0
M  V30 3488 H 349.638 -5.18154 -1.90318 0
M  V30 3489 H 352.114 -3.34248 -2.47826 0
M  V30 3490 H 350.99 -4.13027 -3.61524 0
M  V30 3491 H 351.251 -2.3961 -3.71536 0
M  V30 3492 N 350.31 0.590341 -1.46126 0
M  V30 3493 C 351.535 1.37991 -1.54833 0
M  V30 3494 C 351.96 1.87163 -0.187506 0
M  V30 3495 O 351.318 1.61133 0.831008 0
M  V30 3496 C 351.366 2.54867 -2.55098 0
M  V30 3497 O 350.47 3.56061 -2.08073 0
M  V30 3498 H 349.811 0.411265 -0.521303 0
M  V30 3499 H 352.341 0.716819 -1.91632 0
M  V30 3500 H 352.351 3.01886 -2.74461 0
M  V30 3501 H 351.026 2.18429 -3.53923 0
M  V30 3502 H 349.603 3.15574 -1.98664 0
M  V30 3503 N 351.788 1.33704 0.83433 0
M  V30 3504 C 353.034 1.25603 1.59222 0
M  V30 3505 C 353.367 -0.176659 1.93395 0
M  V30 3506 O 352.642 -1.11915 1.59076 0
M  V30 3507 C 352.925 2.13576 2.89926 0
M  V30 3508 C 352.778 3.65326 2.62406 0
M  V30 3509 C 354.097 2.01238 3.91397 0
M  V30 3510 H 351.216 0.457613 0.577719 0
M  V30 3511 H 353.858 1.63848 0.961972 0
M  V30 3512 H 352.008 1.8109 3.43713 0
M  V30 3513 H 353.68 4.08124 2.15017 0
M  V30 3514 H 351.923 3.8698 1.96033 0
M  V30 3515 H 352.594 4.22232 3.55562 0
M  V30 3516 H 355.07 2.29738 3.46929 0
M  V30 3517 H 353.946 2.65036 4.80673 0
M  V30 3518 H 354.207 0.985951 4.30966 0
M  V30 3519 N 353.266 -1.05314 1.17247 0
M  V30 3520 C 354.496 -1.81707 0.983166 0
M  V30 3521 C 354.904 -1.83222 -0.471822 0
M  V30 3522 O 354.247 -1.25721 -1.3394 0
M  V30 3523 C 354.309 -3.29134 1.44606 0
M  V30 3524 C 353.973 -3.51304 2.92292 0
M  V30 3525 C 354.97 -3.4353 3.90235 0
M  V30 3526 C 352.655 -3.78306 3.30439 0
M  V30 3527 C 354.649 -3.62442 5.24323 0
M  V30 3528 C 352.336 -3.96866 4.64694 0
M  V30 3529 C 353.334 -3.88933 5.61445 0
M  V30 3530 O 353.022 -4.06976 6.93272 0
M  V30 3531 H 352.754 -0.579476 0.348114 0
M  V30 3532 H 355.308 -1.33705 1.55924 0
M  V30 3533 H 353.538 -3.78046 0.813537 0
M  V30 3534 H 355.227 -3.87049 1.22262 0
M  V30 3535 H 355.993 -3.22648 3.62109 0
M  V30 3536 H 351.872 -3.83585 2.55702 0
M  V30 3537 H 355.416 -3.56165 5.99827 0
M  V30 3538 H 351.313 -4.1724 4.92525 0
M  V30 3539 H 352.081 -4.24209 6.99992 0
M  V30 3540 N 354.744 -0.972509 -1.24016 0
M  V30 3541 C 355.969 -0.654417 -1.96805 0
M  V30 3542 C 356.394 0.770398 -1.716 0
M  V30 3543 O 355.752 1.52361 -0.982647 0
M  V30 3544 C 355.8 -0.941031 -3.48105 0
M  V30 3545 O 354.904 -0.0289472 -4.1239 0
M  V30 3546 H 354.245 -0.24692 -0.616382 0
M  V30 3547 H 356.775 -1.30396 -1.57664 0
M  V30 3548 H 356.785 -0.87452 -3.98517 0
M  V30 3549 H 355.46 -1.97939 -3.65777 0
M  V30 3550 H 354.037 -0.149192 -3.72601 0
M  V30 3551 N 356.222 1.38976 -0.743202 0
M  V30 3552 C 357.499 1.94351 -0.220705 0
M  V30 3553 C 357.879 1.67935 1.2791 0
M  V30 3554 O 357.227 1.01211 2.04862 0
M  V30 3555 C 357.437 3.44426 -0.563171 0
M  V30 3556 C 358.785 4.2144 -0.517046 0
M  V30 3557 O 359.809 3.52661 -0.500846 0
M  V30 3558 O 358.668 5.44032 -0.518806 0
M  V30 3559 H 355.762 0.825879 -0.043047 0
M  V30 3560 H 358.308 1.48429 -0.822618 0
M  V30 3561 H 357.08 3.5712 -1.59941 0
M  V30 3562 H 356.703 3.97543 0.0672883 0
M  V30 3563 N 357.7 0.491464 1.49741 0
M  V30 3564 C 358.977 -0.118984 1.95238 0
M  V30 3565 C 359.357 -1.55044 1.43264 0
M  V30 3566 O 358.705 -2.19287 0.642287 0
M  V30 3567 C 358.915 -0.0414187 3.48975 0
M  V30 3568 C 360.263 -0.220133 4.24029 0
M  V30 3569 O 361.287 -0.117055 3.56008 0
M  V30 3570 O 360.146 -0.430567 5.44801 0
M  V30 3571 H 357.24 -0.100536 0.820866 0
M  V30 3572 H 359.786 0.553322 1.60426 0
M  V30 3573 H 358.558 0.957214 3.79412 0
M  V30 3574 H 358.181 -0.754292 3.9038 0
M  V30 3575 N 359.178 -1.55987 0.224894 0
M  V30 3576 C 360.128 -2.17076 -0.697296 0
M  V30 3577 C 361.112 -1.12006 -1.15514 0
M  V30 3578 O 362.304 -1.37985 -1.10857 0
M  V30 3579 C 359.433 -2.85679 -1.90374 0
M  V30 3580 C 358.519 -3.97977 -1.46543 0
M  V30 3581 N 358.91 -5.00359 -0.739909 0
M  V30 3582 C 357.208 -4.10128 -1.75245 0
M  V30 3583 C 357.909 -5.79407 -0.515939 0
M  V30 3584 N 356.885 -5.32892 -1.07364 0
M  V30 3585 H 360.687 -2.93592 -0.134594 0
M  V30 3586 H 358.201 -1.62379 0.0262885 0
M  V30 3587 H 360.198 -3.27857 -2.57518 0
M  V30 3588 H 358.858 -2.1066 -2.47088 0
M  V30 3589 H 359.869 -5.16412 -0.392253 0
M  V30 3590 H 356.546 -3.46263 -2.33255 0
M  V30 3591 H 357.936 -6.71872 0.0617349 0
M  V30 3592 N 360.656 0.0484629 -1.57525 0
M  V30 3593 C 361.904 0.741657 -1.88 0
M  V30 3594 C 362.225 1.76918 -0.820054 0
M  V30 3595 O 361.495 1.95335 0.148661 0
M  V30 3596 H 360.075 0.276908 -0.69378 0
M  V30 3597 H 362.737 0.019013 -1.94891 0
M  V30 3598 H 361.833 1.24336 -2.86264 0
M  V30 3599 N 362.134 1.5431 0.320358 0
M  V30 3600 C 363.55 1.45091 0.664889 0
M  V30 3601 C 363.75 0.626382 1.91517 0
M  V30 3602 O 362.806 0.126443 2.52183 0
M  V30 3603 C 364.119 2.88848 0.83591 0
M  V30 3604 C 365.667 2.9877 0.933046 0
M  V30 3605 C 366.142 4.43683 1.13621 0
M  V30 3606 N 367.633 4.47309 1.20287 0
M  V30 3607 C 368.368 5.56595 1.37801 0
M  V30 3608 N 367.864 6.75844 1.52338 0
M  V30 3609 N 369.657 5.44248 1.40535 0
M  V30 3610 H 361.808 2.06398 -0.501374 0
M  V30 3611 H 364.071 0.933963 -0.162534 0
M  V30 3612 H 363.777 3.51698 -0.0116092 0
M  V30 3613 H 363.651 3.35148 1.73078 0
M  V30 3614 H 366.038 2.36045 1.77107 0
M  V30 3615 H 366.119 2.55796 0.0145782 0
M  V30 3616 H 365.763 5.06995 0.303032 0
M  V30 3617 H 365.693 4.84269 2.0686 0
M  V30 3618 H 368.184 3.61388 1.10485 0
M  V30 3619 H 368.497 7.54892 1.65403 0
M  V30 3620 H 366.842 6.78746 1.4943 0
M  V30 3621 H 370.033 4.50038 1.28777 0
M  V30 3622 H 370.206 6.29473 1.53842 0
M  V30 3623 N 363.613 -0.582584 1.46437 0
M  V30 3624 C 364.841 -1.36682 1.55324 0
M  V30 3625 C 365.256 -1.87796 0.194409 0
M  V30 3626 O 364.613 -1.63623 -0.808318 0
M  V30 3627 C 364.664 -2.55426 2.55812 0
M  V30 3628 O 364.385 -2.0643 3.86417 0
M  V30 3629 C 365.886 -3.47976 2.74641 0
M  V30 3630 H 363.106 -0.417545 0.525259 0
M  V30 3631 H 365.65 -0.708219 1.91845 0
M  V30 3632 H 363.805 -3.17275 2.22295 0
M  V30 3633 H 364.219 -2.83762 4.41111 0
M  V30 3634 H 365.693 -4.27775 3.48874 0
M  V30 3635 H 366.17 -3.99919 1.81553 0
M  V30 3636 H 366.776 -2.91962 3.09255 0
M  V30 3637 N 365.091 -1.34144 -0.827227 0
M  V30 3638 C 366.337 -1.27455 -1.58515 0
M  V30 3639 C 366.692 0.155271 -1.91772 0
M  V30 3640 O 365.985 1.10042 -1.56848 0
M  V30 3641 C 366.179 -2.09464 -2.89585 0
M  V30 3642 C 366.008 -3.60276 -2.69131 0
M  V30 3643 C 364.778 -4.29565 -2.66087 0
M  V30 3644 C 366.976 -4.54367 -2.40947 0
M  V30 3645 N 364.958 -5.66252 -2.37132 0
M  V30 3646 C 366.329 -5.79027 -2.21648 0
M  V30 3647 C 368.384 -4.43327 -2.26639 0
M  V30 3648 C 367.087 -6.93891 -1.89492 0
M  V30 3649 C 369.113 -5.58019 -1.95878 0
M  V30 3650 C 368.475 -6.81695 -1.774 0
M  V30 3651 H 364.574 -0.521614 -0.582617 0
M  V30 3652 H 367.158 -1.68811 -0.970105 0
M  V30 3653 H 365.329 -1.70411 -3.49019 0
M  V30 3654 H 367.061 -1.94453 -3.54923 0
M  V30 3655 H 363.816 -3.81959 -2.80008 0
M  V30 3656 H 364.24 -6.38338 -2.25507 0
M  V30 3657 H 368.882 -3.48333 -2.39633 0
M  V30 3658 H 366.6 -7.88871 -1.75236 0
M  V30 3659 H 370.186 -5.5142 -1.85546 0
M  V30 3660 H 369.066 -7.68942 -1.53941 0
M  V30 3661 N 366.569 1.04691 -1.17803 0
M  V30 3662 C 367.985 1.29963 -0.926379 0
M  V30 3663 C 368.185 1.97251 0.411635 0
M  V30 3664 O 367.241 2.24922 1.14744 0
M  V30 3665 C 368.554 2.16447 -2.08737 0
M  V30 3666 C 370.102 2.29814 -2.12496 0
M  V30 3667 C 370.577 3.19661 -3.27995 0
M  V30 3668 N 372.068 3.27247 -3.27816 0
M  V30 3669 C 372.803 3.96906 -4.13827 0
M  V30 3670 N 372.299 4.6895 -5.09959 0
M  V30 3671 N 374.092 3.93122 -4.01761 0
M  V30 3672 H 366.243 0.594182 -2.0392 0
M  V30 3673 H 368.506 0.324649 -0.890678 0
M  V30 3674 H 368.212 1.74304 -3.05469 0
M  V30 3675 H 368.086 3.17103 -2.04268 0
M  V30 3676 H 370.473 2.71196 -1.16347 0
M  V30 3677 H 370.554 1.2877 -2.21025 0
M  V30 3678 H 370.198 2.78991 -4.24413 0
M  V30 3679 H 370.128 4.20722 -3.16703 0
M  V30 3680 H 372.619 2.75921 -2.58217 0
M  V30 3681 H 372.932 5.19679 -5.71974 0
M  V30 3682 H 371.277 4.67875 -5.13924 0
M  V30 3683 H 374.468 3.35967 -3.2595 0
M  V30 3684 H 374.641 4.47139 -4.6901 0
M  V30 3685 N 368.047 0.979072 1.23499 0
M  V30 3686 C 369.01 0.523244 2.23147 0
M  V30 3687 C 370.01 -0.386406 1.56088 0
M  V30 3688 O 371.2 -0.180283 1.73265 0
M  V30 3689 C 368.332 -0.240739 3.40049 0
M  V30 3690 H 369.525 1.40432 2.64989 0
M  V30 3691 H 367.078 0.764824 1.36309 0
M  V30 3692 H 367.813 -1.13841 3.03662 0
M  V30 3693 H 367.598 0.412207 3.89927 0
M  V30 3694 H 369.088 -0.548297 4.13985 0
M  V30 3695 N 369.525 -1.3858 0.750561 0
M  V30 3696 C 370.773 -1.99789 0.30477 0
M  V30 3697 C 371.094 -1.59874 -1.11649 0
M  V30 3698 O 370.364 -0.85417 -1.76297 0
M  V30 3699 H 368.944 -0.738902 0.109694 0
M  V30 3700 H 371.606 -1.69391 0.963983 0
M  V30 3701 H 370.702 -3.09952 0.365499 0
M  V30 3702 N 371.003 -0.499398 -1.49478 0
M  V30 3703 C 371.913 0.284489 -2.32869 0
M  V30 3704 C 372.929 0.968885 -1.44529 0
M  V30 3705 O 374.105 0.95062 -1.77553 0
M  V30 3706 C 371.17 1.33594 -3.19928 0
M  V30 3707 C 370.231 0.665149 -4.24116 0
M  V30 3708 C 369.464 1.6665 -5.07014 0
M  V30 3709 O 369.687 2.89618 -4.91404 0
M  V30 3710 O 368.621 1.22271 -5.8935 0
M  V30 3711 H 372.447 -0.39802 -3.01081 0
M  V30 3712 H 370.032 -0.260758 -1.47107 0
M  V30 3713 H 371.914 1.94431 -3.73864 0
M  V30 3714 H 370.589 2.0014 -2.54412 0
M  V30 3715 H 369.496 0.0170769 -3.74096 0
M  V30 3716 H 370.829 0.0421555 -4.92182 0
M  V30 3717 N 372.481 1.55866 -0.233164 0
M  V30 3718 C 373.444 2.1953 0.658715 0
M  V30 3719 C 374.444 1.16053 1.11303 0
M  V30 3720 O 375.634 1.41218 1.01996 0
M  V30 3721 C 372.766 2.82791 1.90373 0
M  V30 3722 H 373.959 2.99721 0.10347 0
M  V30 3723 H 371.512 1.56291 0.0164245 0
M  V30 3724 H 372.247 2.06501 2.50056 0
M  V30 3725 H 372.032 3.58578 1.58632 0
M  V30 3726 H 373.522 3.31556 2.53891 0
M  V30 3727 N 373.959 -0.0401083 1.57549 0
M  V30 3728 C 375.205 -0.734211 1.89043 0
M  V30 3729 C 375.538 -1.75591 0.829535 0
M  V30 3730 O 374.813 -1.93868 -0.156706 0
M  V30 3731 C 375.096 -1.41374 3.31188 0
M  V30 3732 C 374.949 -0.406299 4.47961 0
M  V30 3733 C 376.268 -2.35061 3.72068 0
M  V30 3734 H 373.387 -0.265447 0.687537 0
M  V30 3735 H 376.029 0.00294087 1.9 0
M  V30 3736 H 374.179 -2.04206 3.30503 0
M  V30 3737 H 375.851 0.219255 4.60779 0
M  V30 3738 H 374.094 0.275485 4.32924 0
M  V30 3739 H 374.765 -0.920022 5.44279 0
M  V30 3740 H 377.241 -1.82282 3.74049 0
M  V30 3741 H 376.117 -2.79593 4.72355 0
M  V30 3742 H 376.378 -3.21258 3.0372 0
M  V30 3743 N 375.437 -1.54477 -0.31217 0
M  V30 3744 C 376.685 -1.72884 -1.04668 0
M  V30 3745 C 377.006 -0.511477 -1.88173 0
M  V30 3746 O 376.276 0.474407 -1.90069 0
M  V30 3747 H 374.856 -0.637461 -0.389425 0
M  V30 3748 H 377.518 -1.91807 -0.345852 0
M  V30 3749 H 376.614 -2.61334 -1.70619 0
M  V30 3750 N 376.915 0.57481 -1.46744 0
M  V30 3751 C 378.161 1.3347 -1.52688 0
M  V30 3752 C 378.494 1.93353 -0.181229 0
M  V30 3753 O 377.769 1.76912 0.808237 0
M  V30 3754 C 378.052 2.45811 -2.63152 0
M  V30 3755 C 377.905 1.90912 -4.07275 0
M  V30 3756 C 379.224 3.47822 -2.69644 0
M  V30 3757 H 376.343 0.483935 -0.555856 0
M  V30 3758 H 378.985 0.644968 -1.78718 0
M  V30 3759 H 377.135 3.04646 -2.41088 0
M  V30 3760 H 378.807 1.36473 -4.4065 0
M  V30 3761 H 377.05 1.21691 -4.16382 0
M  V30 3762 H 377.721 2.72042 -4.80309 0
M  V30 3763 H 380.197 2.9888 -2.895 0
M  V30 3764 H 379.073 4.23876 -3.48742 0
M  V30 3765 H 379.334 4.05555 -1.76005 0
M  V30 3766 N 378.394 1.34581 0.820102 0
M  V30 3767 C 379.642 1.26845 1.57336 0
M  V30 3768 C 379.963 -0.160667 1.94337 0
M  V30 3769 O 379.233 -1.09396 1.6251 0
M  V30 3770 H 377.813 0.466514 0.583415 0
M  V30 3771 H 380.475 1.68526 0.979027 0
M  V30 3772 H 379.571 1.87513 2.4949 0
M  V30 3773 N 379.872 -1.04064 1.18357 0
M  V30 3774 C 380.805 -2.11618 0.854 0
M  V30 3775 C 381.783 -1.61555 -0.184043 0
M  V30 3776 O 382.967 -1.88395 -0.0630048 0
M  V30 3777 C 380.094 -3.37574 0.27597 0
M  V30 3778 C 379.14 -4.06485 1.2912 0
M  V30 3779 S 379.973 -4.53543 2.84709 0
M  V30 3780 C 381.129 -5.82732 2.28417 0
M  V30 3781 H 381.362 -2.39247 1.76488 0
M  V30 3782 H 378.895 -1.16832 1.00944 0
M  V30 3783 H 380.853 -4.10468 -0.051026 0
M  V30 3784 H 379.514 -3.0806 -0.613028 0
M  V30 3785 H 378.707 -4.97024 0.835633 0
M  V30 3786 H 378.309 -3.39708 1.56443 0
M  V30 3787 H 380.601 -6.56677 1.66677 0
M  V30 3788 H 381.544 -6.33052 3.17256 0
M  V30 3789 H 381.952 -5.37838 1.71436 0
M  V30 3790 N 381.35 -0.985608 -1.22978 0
M  V30 3791 C 382.627 -0.573599 -1.87001 0
M  V30 3792 C 383.007 0.949213 -1.88555 0
M  V30 3793 O 382.355 1.82811 -1.37086 0
M  V30 3794 C 382.565 -1.18564 -3.28243 0
M  V30 3795 C 383.913 -1.28163 -4.04796 0
M  V30 3796 O 384.937 -1.13949 -3.37482 0
M  V30 3797 O 383.796 -1.50832 -5.25273 0
M  V30 3798 H 380.89 -0.193868 -0.803955 0
M  V30 3799 H 383.436 -1.08102 -1.30813 0
M  V30 3800 H 382.208 -2.22758 -3.21706 0
M  V30 3801 H 381.831 -0.663363 -3.92027 0
M  V30 3802 N 382.828 1.3818 -0.7579 0
M  V30 3803 C 383.738 2.3421 -0.135247 0
M  V30 3804 C 384.754 1.59487 0.695683 0
M  V30 3805 O 385.93 1.91657 0.618832 0
M  V30 3806 C 382.995 3.3862 0.744139 0
M  V30 3807 C 382.056 4.2918 -0.101658 0
M  V30 3808 C 381.289 5.28603 0.735851 0
M  V30 3809 O 381.512 5.35166 1.97366 0
M  V30 3810 O 380.446 6.01707 0.152372 0
M  V30 3811 H 384.272 2.8916 -0.928436 0
M  V30 3812 H 381.857 1.40101 -0.518855 0
M  V30 3813 H 383.739 4.02539 1.2466 0
M  V30 3814 H 382.414 2.86019 1.51575 0
M  V30 3815 H 381.321 3.68407 -0.650167 0
M  V30 3816 H 382.654 4.85048 -0.836024 0
M  V30 3817 N 384.306 0.507319 1.49211 0
M  V30 3818 C 385.254 -0.281364 2.30892 0
M  V30 3819 C 386.248 -0.95687 1.39787 0
M  V30 3820 O 387.454 -0.883838 1.56807 0
M  V30 3821 H 383.829 -0.109597 0.743971 0
M  V30 3822 H 385.8 0.42744 2.95323 0
M  V30 3823 C 384.549 -1.32918 3.21291 0
M  V30 3824 H 383.872 -0.818799 3.91326 0
M  V30 3825 H 385.312 -1.85288 3.81372 0
M  V30 3826 C 383.771 -2.35074 2.41333 0
M  V30 3827 O 384.301 -3.4108 2.12197 0
M  V30 3828 N 382.507 -2.07705 2.03241 0
M  V30 3829 H 382.054 -1.2152 2.27136 0
M  V30 3830 H 382.012 -2.76283 1.50051 0
M  V30 3831 N 385.784 -1.5574 0.241426 0
M  V30 3832 C 386.731 -2.21149 -0.660432 0
M  V30 3833 C 387.701 -1.17356 -1.17545 0
M  V30 3834 O 388.886 -1.45784 -1.23093 0
M  V30 3835 C 386.026 -2.91059 -1.85414 0
M  V30 3836 C 385.139 -4.09495 -1.37616 0
M  V30 3837 C 384.274 -4.67135 -2.529 0
M  V30 3838 C 383.313 -5.77831 -2.01936 0
M  V30 3839 N 382.45 -6.29677 -3.10566 0
M  V30 3840 H 387.29 -2.97845 -0.095955 0
M  V30 3841 H 384.827 -1.47057 -0.0356024 0
M  V30 3842 H 386.785 -3.29788 -2.5553 0
M  V30 3843 H 385.415 -2.16846 -2.39118 0
M  V30 3844 H 384.467 -3.76117 -0.569235 0
M  V30 3845 H 385.779 -4.89423 -0.962618 0
M  V30 3846 H 384.933 -5.08409 -3.31067 0
M  V30 3847 H 383.672 -3.86411 -2.97553 0
M  V30 3848 H 382.677 -5.36039 -1.22238 0
M  V30 3849 H 383.902 -6.60402 -1.58259 0
M  V30 3850 H 381.848 -5.5186 -3.54664 0
M  V30 3851 H 381.765 -7.04783 -2.73526 0
M  V30 3852 H 383.033 -6.75609 -3.88809 0
M  V30 3853 N 387.262 0.0317525 -1.57568 0
M  V30 3854 C 388.49 0.734949 -1.93407 0
M  V30 3855 C 388.905 1.69036 -0.84096 0
M  V30 3856 O 388.262 1.81582 0.182836 0
M  V30 3857 C 388.313 1.49432 -3.29169 0
M  V30 3858 O 388.034 0.577261 -4.3428 0
M  V30 3859 C 389.535 2.29492 -3.79273 0
M  V30 3860 H 386.755 0.206706 -0.638368 0
M  V30 3861 H 389.299 -0.00992046 -2.04498 0
M  V30 3862 H 387.454 2.1911 -3.19483 0
M  V30 3863 H 387.868 1.10952 -5.1263 0
M  V30 3864 H 389.342 2.78172 -4.76785 0
M  V30 3865 H 389.819 3.10794 -3.10328 0
M  V30 3866 H 390.425 1.64894 -3.92033 0
M  V30 3867 N 388.74 1.54641 0.303973 0
M  V30 3868 C 389.986 1.74038 1.04109 0
M  V30 3869 C 390.319 0.523051 1.87024 0
M  V30 3870 O 389.594 -0.479874 1.88487 0
M  V30 3871 C 389.877 3.02761 1.94955 0
M  V30 3872 C 389.73 4.34787 1.1524 0
M  V30 3873 C 391.049 3.27336 2.94175 0
M  V30 3874 H 388.168 0.63323 0.377079 0
M  V30 3875 H 390.81 1.87354 0.316001 0
M  V30 3876 H 388.96 2.9154 2.56782 0
M  V30 3877 H 390.632 4.57922 0.557236 0
M  V30 3878 H 388.875 4.31407 0.455053 0
M  V30 3879 H 389.546 5.21116 1.8205 0
M  V30 3880 H 392.022 3.38148 2.42477 0
M  V30 3881 H 390.898 4.18726 3.54908 0
M  V30 3882 H 391.159 2.45491 3.67677 0
M  V30 3883 N 390.218 -0.567019 1.47046 0
M  V30 3884 C 391.128 -1.70247 1.6141 0
M  V30 3885 C 392.144 -1.66746 0.497157 0
M  V30 3886 O 393.32 -1.86371 0.763389 0
M  V30 3887 C 390.385 -3.06756 1.61561 0
M  V30 3888 C 389.446 -3.21399 2.84607 0
M  V30 3889 C 388.679 -4.51396 2.84741 0
M  V30 3890 O 388.902 -5.36255 1.94388 0
M  V30 3891 O 387.836 -4.69621 3.76483 0
M  V30 3892 H 391.662 -1.61073 2.57467 0
M  V30 3893 H 389.247 -0.735894 1.30019 0
M  V30 3894 H 391.129 -3.8801 1.64396 0
M  V30 3895 H 389.804 -3.16333 0.686684 0
M  V30 3896 H 388.711 -2.39579 2.8732 0
M  V30 3897 H 390.044 -3.16721 3.76761 0
M  V30 3898 N 391.696 -1.35014 -0.812953 0
M  V30 3899 C 392.626 -1.30069 -1.93919 0
M  V30 3900 C 393.607 -0.176275 -1.69184 0
M  V30 3901 O 394.792 -0.370227 -1.90638 0
M  V30 3902 C 391.922 -1.06547 -3.30552 0
M  V30 3903 C 390.876 -2.15561 -3.69753 0
M  V30 3904 C 390.202 -1.77214 -5.04479 0
M  V30 3905 C 391.502 -3.57476 -3.808 0
M  V30 3906 H 393.196 -2.24303 -1.98314 0
M  V30 3907 H 390.742 -1.07977 -0.952736 0
M  V30 3908 H 392.695 -1.01729 -4.08937 0
M  V30 3909 H 391.419 -0.0875719 -3.26483 0
M  V30 3910 H 390.078 -2.19466 -2.9365 0
M  V30 3911 H 389.726 -0.780589 -4.96906 0
M  V30 3912 H 389.426 -2.50184 -5.31678 0
M  V30 3913 H 390.95 -1.7391 -5.8531 0
M  V30 3914 H 392.364 -3.55929 -4.4943 0
M  V30 3915 H 390.761 -4.29152 -4.19462 0
M  V30 3916 H 391.831 -3.94091 -2.82525 0
M  V30 3917 N 393.175 1.03435 -1.18907 0
M  V30 3918 C 394.4 1.80919 -1.01406 0
M  V30 3919 C 394.825 1.83055 0.432721 0
M  V30 3920 O 394.183 1.25252 1.31079 0
M  V30 3921 C 394.231 3.24091 -1.58105 0
M  V30 3922 O 393.335 4.04434 -0.806669 0
M  V30 3923 H 392.676 0.558709 -0.358803 0
M  V30 3924 H 395.206 1.30223 -1.57807 0
M  V30 3925 H 395.216 3.74853 -1.61087 0
M  V30 3926 H 393.891 3.21851 -2.6341 0
M  V30 3927 H 392.468 3.63091 -0.849666 0
M  V30 3928 N 394.653 0.992116 1.22453 0
M  V30 3929 C 395.93 0.583508 1.86694 0
M  V30 3930 C 396.31 -0.9392 1.89056 0
M  V30 3931 O 395.658 -1.82081 1.38053 0
M  V30 3932 C 395.868 1.20304 3.2761 0
M  V30 3933 C 397.216 1.30308 4.0411 0
M  V30 3934 O 398.24 1.15737 3.36873 0
M  V30 3935 O 397.099 1.53615 5.24466 0
M  V30 3936 H 394.193 0.198129 0.802916 0
M  V30 3937 H 396.739 1.08794 1.30238 0
M  V30 3938 H 395.511 2.24461 3.2052 0
M  V30 3939 H 395.134 0.684144 3.9167 0
M  V30 3940 N 396.131 -1.37776 0.765217 0
M  V30 3941 C 397.379 -1.99454 0.325943 0
M  V30 3942 C 397.7 -1.61049 -1.09947 0
M  V30 3943 O 396.97 -0.872821 -1.75381 0
M  V30 3944 H 395.55 -0.737697 0.117525 0
M  V30 3945 H 398.212 -1.68359 0.981895 0
M  V30 3946 H 397.308 -3.09547 0.398353 0
M  V30 3947 N 397.609 -0.515225 -1.4894 0
M  V30 3948 C 399.025 -0.172099 -1.58669 0
M  V30 3949 C 399.225 1.32405 -1.51892 0
M  V30 3950 O 398.281 2.10116 -1.40027 0
M  V30 3951 C 399.594 -0.761533 -2.90897 0
M  V30 3952 C 401.142 -0.728926 -3.04394 0
M  V30 3953 C 401.617 -1.29667 -4.39261 0
M  V30 3954 N 403.108 -1.25799 -4.4579 0
M  V30 3955 C 403.843 -1.66733 -5.48623 0
M  V30 3956 N 403.339 -2.15327 -6.58488 0
M  V30 3957 N 405.132 -1.58061 -5.39419 0
M  V30 3958 H 397.283 -1.48778 -1.51588 0
M  V30 3959 H 399.546 -0.617968 -0.718901 0
M  V30 3960 H 399.252 -1.81136 -3.01468 0
M  V30 3961 H 399.126 -0.230106 -3.76497 0
M  V30 3962 H 401.513 0.312098 -2.93445 0
M  V30 3963 H 401.594 -1.29766 -2.20442 0
M  V30 3964 H 401.238 -2.33655 -4.50963 0
M  V30 3965 H 401.168 -0.703752 -5.21876 0
M  V30 3966 H 403.659 -0.902102 -3.66975 0
M  V30 3967 H 403.972 -2.44594 -7.33071 0
M  V30 3968 H 402.317 -2.19311 -6.59491 0
M  V30 3969 H 405.508 -1.19906 -4.52482 0
M  V30 3970 H 405.681 -1.90284 -6.19432 0
M  V30 3971 N 399.087 1.5561 -0.249682 0
M  V30 3972 C 400.333 1.99306 0.374841 0
M  V30 3973 C 400.666 1.13767 1.57387 0
M  V30 3974 O 399.941 0.201711 1.93451 0
M  V30 3975 C 400.224 3.51507 0.781986 0
M  V30 3976 C 400.077 4.4781 -0.422629 0
M  V30 3977 C 401.396 4.08884 1.62793 0
M  V30 3978 H 398.515 0.724572 0.134773 0
M  V30 3979 H 401.157 1.86719 -0.351549 0
M  V30 3980 H 399.307 3.62363 1.4009 0
M  V30 3981 H 400.979 4.48931 -1.06108 0
M  V30 3982 H 399.222 4.20518 -1.06524 0
M  V30 3983 H 399.893 5.51919 -0.0943766 0
M  V30 3984 H 402.369 4.01147 1.10547 0
M  V30 3985 H 401.245 5.1564 1.88166 0
M  V30 3986 H 401.506 3.57515 2.60068 0
M  V30 3987 N 400.565 -0.0233959 1.57583 0
M  V30 3988 C 401.495 -1.02162 2.09965 0
M  V30 3989 C 402.476 -1.3735 1.00344 0
M  V30 3990 O 403.661 -1.46135 1.27899 0
M  V30 3991 C 400.791 -2.32081 2.58371 0
M  V30 3992 C 399.745 -2.1112 3.72307 0
M  V30 3993 C 399.071 -3.46848 4.06941 0
M  V30 3994 C 400.371 -1.49276 5.00514 0
M  V30 3995 H 402.065 -0.585557 2.93618 0
M  V30 3996 H 399.611 -0.280218 1.41247 0
M  V30 3997 H 401.564 -3.02249 2.93639 0
M  V30 3998 H 400.288 -2.77758 1.71808 0
M  V30 3999 H 398.947 -1.43384 3.37397 0
M  V30 4000 H 398.595 -3.90184 3.17436 0
M  V30 4001 H 398.295 -3.33646 4.83688 0
M  V30 4002 H 399.819 -4.18369 4.44747 0
M  V30 4003 H 401.233 -2.09368 5.33702 0
M  V30 4004 H 399.63 -1.46632 5.8191 0
M  V30 4005 H 400.7 -0.459217 4.82721 0
M  V30 4006 N 402.043 -1.548 -0.295768 0
M  V30 4007 C 402.973 -1.89115 -1.36959 0
M  V30 4008 C 403.954 -0.75059 -1.52644 0
M  V30 4009 O 405.139 -1.00678 -1.66065 0
M  V30 4010 C 402.269 -2.14307 -2.73295 0
M  V30 4011 C 401.223 -3.30151 -2.72368 0
M  V30 4012 C 400.549 -3.40772 -4.12042 0
M  V30 4013 C 401.849 -4.67126 -2.33646 0
M  V30 4014 H 403.543 -2.79053 -1.08488 0
M  V30 4015 H 401.089 -1.34266 -0.520443 0
M  V30 4016 H 403.042 -2.36898 -3.48507 0
M  V30 4017 H 401.766 -1.21145 -3.03301 0
M  V30 4018 H 400.425 -3.0749 -1.99613 0
M  V30 4019 H 400.073 -2.45117 -4.39234 0
M  V30 4020 H 399.773 -4.18645 -4.12322 0
M  V30 4021 H 401.297 -3.6563 -4.89027 0
M  V30 4022 H 402.711 -4.89414 -2.98575 0
M  V30 4023 H 401.108 -5.47751 -2.45129 0
M  V30 4024 H 402.178 -4.67489 -1.28772 0
M  V30 4025 N 403.521 0.559213 -1.47345 0
M  V30 4026 C 404.469 1.68747 -1.60085 0
M  V30 4027 C 405.463 1.628 -0.46825 0
M  V30 4028 O 406.669 1.68009 -0.645977 0
M  V30 4029 H 403.044 0.558329 -0.503759 0
M  V30 4030 H 405.015 1.55138 -2.54902 0
M  V30 4031 C 403.764 3.07103 -1.63042 0
M  V30 4032 H 403.087 3.12361 -2.49541 0
M  V30 4033 H 404.527 3.85743 -1.76006 0
M  V30 4034 C 402.986 3.34935 -0.363357 0
M  V30 4035 O 403.516 3.98102 0.536416 0
M  V30 4036 N 401.722 2.89574 -0.244 0
M  V30 4037 H 401.269 2.38348 -0.977133 0
M  V30 4038 H 401.227 3.08566 0.602836 0
M  V30 4039 N 404.999 1.35443 0.805782 0
M  V30 4040 C 406.224 1.32037 1.59941 0
M  V30 4041 C 406.649 -0.0994215 1.87837 0
M  V30 4042 O 406.007 -1.06648 1.46615 0
M  V30 4043 C 406.055 2.13354 2.90711 0
M  V30 4044 O 405.159 1.5148 3.83572 0
M  V30 4045 H 404.5 0.452666 0.485787 0
M  V30 4046 H 407.03 1.78496 1.00002 0
M  V30 4047 H 407.04 2.25338 3.40128 0
M  V30 4048 H 405.715 3.16572 2.69732 0
M  V30 4049 H 404.292 1.4834 3.42125 0
M  V30 4050 N 406.477 -1.02803 1.19454 0
M  V30 4051 C 407.893 -1.28473 0.946937 0
M  V30 4052 C 408.093 -1.97881 -0.380202 0
M  V30 4053 O 407.149 -2.26719 -1.11151 0
M  V30 4054 C 408.462 -2.13099 2.12154 0
M  V30 4055 C 410.01 -2.26404 2.16126 0
M  V30 4056 C 410.485 -3.14402 3.33039 0
M  V30 4057 N 411.976 -3.21991 3.32981 0
M  V30 4058 C 412.711 -3.90272 4.20089 0
M  V30 4059 N 412.207 -4.60777 5.17355 0
M  V30 4060 N 414 -3.8668 4.07964 0
M  V30 4061 H 406.151 -0.561665 2.04839 0
M  V30 4062 H 408.414 -0.310438 0.89573 0
M  V30 4063 H 408.12 -1.69422 3.08203 0
M  V30 4064 H 407.994 -3.13813 2.09287 0
M  V30 4065 H 410.381 -2.69311 1.20647 0
M  V30 4066 H 410.462 -1.25237 2.23045 0
M  V30 4067 H 410.106 -2.72204 4.28798 0
M  V30 4068 H 410.036 -4.1563 3.23356 0
M  V30 4069 H 412.527 -2.71778 2.62574 0
M  V30 4070 H 412.84 -5.10513 5.80169 0
M  V30 4071 H 411.185 -4.5964 5.21302 0
M  V30 4072 H 414.376 -3.30739 3.31254 0
M  V30 4073 H 414.549 -4.39621 4.76064 0
M  V30 4074 N 407.956 -0.998596 -1.21925 0
M  V30 4075 C 409.233 -0.593401 -1.86382 0
M  V30 4076 C 409.613 0.92916 -1.89552 0
M  V30 4077 O 408.961 1.81347 -1.39017 0
M  V30 4078 C 409.171 -1.22039 -3.26967 0
M  V30 4079 C 410.519 -1.32449 -4.03413 0
M  V30 4080 O 411.543 -1.17522 -3.36254 0
M  V30 4081 O 410.402 -1.56395 -5.23644 0
M  V30 4082 H 407.496 -0.202385 -0.801854 0
M  V30 4083 H 410.042 -1.09484 -1.29659 0
M  V30 4084 H 408.814 -2.26158 -3.19325 0
M  V30 4085 H 408.437 -0.704906 -3.91301 0
M  V30 4086 N 409.434 1.37368 -0.772513 0
M  V30 4087 C 410.659 2.0447 -0.347386 0
M  V30 4088 C 411.084 1.57882 1.0225 0
M  V30 4089 O 410.442 0.73941 1.65537 0
M  V30 4090 C 410.49 3.58369 -0.400479 0
M  V30 4091 O 409.594 4.0803 0.598789 0
M  V30 4092 H 408.935 0.646773 -0.15027 0
M  V30 4093 H 411.465 1.75667 -1.04892 0
M  V30 4094 H 411.475 4.07183 -0.258045 0
M  V30 4095 H 410.15 3.91633 -1.39986 0
M  V30 4096 H 408.727 3.70534 0.419411 0
M  V30 4097 N 410.912 0.523116 1.48665 0
M  V30 4098 C 411.875 -0.232592 2.28017 0
M  V30 4099 C 412.875 -0.874021 1.34972 0
M  V30 4100 O 414.065 -0.735132 1.57929 0
M  V30 4101 C 411.197 -1.33586 3.13636 0
M  V30 4102 H 412.39 0.464008 2.96289 0
M  V30 4103 H 409.943 0.278816 1.53793 0
M  V30 4104 H 410.678 -2.06593 2.4998 0
M  V30 4105 H 410.463 -0.881125 3.82071 0
M  V30 4106 H 411.953 -1.86759 3.73511 0
M  V30 4107 N 412.39 -1.55475 0.257931 0
M  V30 4108 C 413.806 -1.59307 -0.0966563 0
M  V30 4109 C 414.006 -1.27514 -1.5602 0
M  V30 4110 O 413.062 -1.02774 -2.30637 0
M  V30 4111 C 414.375 -2.99552 0.262481 0
M  V30 4112 C 415.923 -3.1231 0.207683 0
M  V30 4113 C 416.398 -4.54793 0.541012 0
M  V30 4114 N 417.889 -4.6058 0.491921 0
M  V30 4115 C 418.624 -5.68825 0.722857 0
M  V30 4116 N 418.12 -6.85287 1.0175 0
M  V30 4117 N 419.913 -5.58296 0.652815 0
M  V30 4118 H 412.064 -1.74409 1.21224 0
M  V30 4119 H 414.327 -0.812424 0.48854 0
M  V30 4120 H 414.033 -3.27593 1.27967 0
M  V30 4121 H 413.907 -3.75019 -0.40508 0
M  V30 4122 H 416.294 -2.84044 -0.800195 0
M  V30 4123 H 416.375 -2.39095 0.909255 0
M  V30 4124 H 416.019 -4.83783 1.5465 0
M  V30 4125 H 415.949 -5.26285 -0.18216 0
M  V30 4126 H 418.44 -3.7691 0.273366 0
M  V30 4127 H 418.753 -7.63725 1.18084 0
M  V30 4128 H 417.098 -6.86945 1.05509 0
M  V30 4129 H 420.289 -4.66189 0.422592 0
M  V30 4130 H 420.462 -6.42582 0.836182 0
M  V30 4131 N 413.868 0.0150385 -1.57593 0
M  V30 4132 C 415.093 0.718067 -1.94573 0
M  V30 4133 C 415.518 1.6734 -0.859005 0
M  V30 4134 O 414.876 1.80362 0.184147 0
M  V30 4135 C 414.924 1.43918 -3.30636 0
M  V30 4136 O 414.028 2.55299 -3.23876 0
M  V30 4137 H 413.369 0.192125 -0.635597 0
M  V30 4138 H 415.899 -0.0336708 -2.04572 0
M  V30 4139 H 415.909 1.80598 -3.65853 0
M  V30 4140 H 414.584 0.738619 -4.09289 0
M  V30 4141 H 413.161 2.21058 -3.00312 0
M  V30 4142 N 415.346 1.54954 0.287554 0
M  V30 4143 C 416.594 1.74528 1.01904 0
M  V30 4144 C 416.915 0.541349 1.87335 0
M  V30 4145 O 416.185 -0.444108 1.908 0
M  V30 4146 H 414.765 0.643576 0.379235 0
M  V30 4147 H 417.427 1.92333 0.315294 0
M  V30 4148 H 416.523 2.64015 1.6644 0
M  V30 4149 N 416.824 -0.551391 1.4764 0
M  V30 4150 C 418.054 -1.33163 1.57959 0
M  V30 4151 C 418.462 -1.87785 0.23094 0
M  V30 4152 O 417.805 -1.65996 -0.786825 0
M  V30 4153 C 417.867 -2.53449 2.54958 0
M  V30 4154 C 417.531 -2.20071 4.00522 0
M  V30 4155 C 418.528 -1.77017 4.88836 0
M  V30 4156 C 416.213 -2.31252 4.45901 0
M  V30 4157 C 418.207 -1.4558 6.20552 0
M  V30 4158 C 415.894 -1.99427 5.77644 0
M  V30 4159 C 416.892 -1.56659 6.64791 0
M  V30 4160 O 416.58 -1.25242 7.94084 0
M  V30 4161 H 416.312 -0.412022 0.535923 0
M  V30 4162 H 418.866 -0.674186 1.9402 0
M  V30 4163 H 417.096 -3.22104 2.13976 0
M  V30 4164 H 418.785 -3.15523 2.55343 0
M  V30 4165 H 419.551 -1.67867 4.55023 0
M  V30 4166 H 415.43 -2.63498 3.78272 0
M  V30 4167 H 418.974 -1.12125 6.8853 0
M  V30 4168 H 414.871 -2.08211 6.10998 0
M  V30 4169 H 415.639 -1.38822 8.06642 0
M  V30 4170 N 418.302 -1.35869 -0.798587 0
M  V30 4171 C 419.718 -1.16082 -1.09532 0
M  V30 4172 C 419.918 0.0213124 -2.01489 0
M  V30 4173 O 418.974 0.689488 -2.42904 0
M  V30 4174 C 420.287 -2.46748 -1.7186 0
M  V30 4175 C 421.835 -2.53028 -1.84244 0
M  V30 4176 C 422.31 -3.83758 -2.49988 0
M  V30 4177 N 423.801 -3.85053 -2.57465 0
M  V30 4178 C 424.536 -4.8294 -3.09122 0
M  V30 4179 N 424.032 -5.91217 -3.61157 0
M  V30 4180 N 425.825 -4.70369 -3.0775 0
M  V30 4181 H 417.976 -2.11571 -0.187461 0
M  V30 4182 H 420.239 -0.936726 -0.145765 0
M  V30 4183 H 419.945 -3.33471 -1.11759 0
M  V30 4184 H 419.819 -2.61883 -2.71472 0
M  V30 4185 H 422.206 -1.66729 -2.43486 0
M  V30 4186 H 422.287 -2.418 -0.834643 0
M  V30 4187 H 421.931 -4.70459 -1.91393 0
M  V30 4188 H 421.861 -3.92278 -3.5132 0
M  V30 4189 H 424.352 -3.06822 -2.20609 0
M  V30 4190 H 424.665 -6.61892 -3.98896 0
M  V30 4191 H 423.01 -5.94899 -3.59333 0
M  V30 4192 H 426.201 -3.84914 -2.66381 0
M  V30 4193 H 426.374 -5.46816 -3.47701 0
M  V30 4194 N 419.78 1.02168 -1.19998 0
M  V30 4195 C 420.727 2.10601 -0.944228 0
M  V30 4196 C 421.697 1.65639 0.123664 0
M  V30 4197 O 422.882 1.9079 -0.0199941 0
M  V30 4198 C 420.022 3.41504 -0.496865 0
M  V30 4199 C 419.135 3.99973 -1.63234 0
M  V30 4200 C 418.27 5.18915 -1.13579 0
M  V30 4201 C 417.309 5.69456 -2.24468 0
M  V30 4202 N 416.446 6.79665 -1.76068 0
M  V30 4203 H 421.286 2.31814 -1.8726 0
M  V30 4204 H 418.823 1.13686 -0.933483 0
M  V30 4205 H 420.781 4.16626 -0.218843 0
M  V30 4206 H 419.411 3.2038 0.394508 0
M  V30 4207 H 418.463 3.21997 -2.0254 0
M  V30 4208 H 419.775 4.33492 -2.46752 0
M  V30 4209 H 418.929 6.01222 -0.813429 0
M  V30 4210 H 417.668 4.8695 -0.270434 0
M  V30 4211 H 416.673 4.85757 -2.57526 0
M  V30 4212 H 417.898 6.03459 -3.11472 0
M  V30 4213 H 415.844 6.49538 -0.918516 0
M  V30 4214 H 415.761 7.12349 -2.5317 0
M  V30 4215 H 417.029 7.65549 -1.46817 0
M  V30 4216 N 421.258 1.00505 1.21394 0
M  V30 4217 C 422.504 0.688793 1.90745 0
M  V30 4218 C 422.837 -0.778486 1.77914 0
M  V30 4219 O 422.112 -1.56433 1.15581 0
M  V30 4220 C 422.395 1.11063 3.42545 0
M  V30 4221 C 422.248 2.63737 3.64367 0
M  V30 4222 C 423.567 0.673059 4.34923 0
M  V30 4223 H 420.686 0.251702 0.692687 0
M  V30 4224 H 423.328 1.25074 1.43026 0
M  V30 4225 H 421.478 0.632508 3.83317 0
M  V30 4226 H 423.15 3.19313 3.32922 0
M  V30 4227 H 421.393 3.05248 3.08231 0
M  V30 4228 H 422.064 2.88305 4.70727 0
M  V30 4229 H 424.54 1.08392 4.01734 0
M  V30 4230 H 423.416 0.996383 5.39781 0
M  V30 4231 H 423.677 -0.425808 4.40045 0
M  V30 4232 N 422.737 -1.36956 0.779787 0
M  V30 4233 C 423.7 -2.2851 0.177662 0
M  V30 4234 C 424.7 -1.48393 -0.619377 0
M  V30 4235 O 425.89 -1.68505 -0.441785 0
M  V30 4236 C 423.022 -3.32428 -0.755279 0
M  V30 4237 H 424.215 -2.83269 0.984823 0
M  V30 4238 H 421.768 -1.46358 0.548544 0
M  V30 4239 H 422.503 -2.82808 -1.58714 0
M  V30 4240 H 422.288 -3.91659 -0.185817 0
M  V30 4241 H 423.778 -4.00824 -1.17174 0
M  V30 4242 N 424.215 -0.530993 -1.48385 0
M  V30 4243 C 425.461 0.00274135 -2.028 0
M  V30 4244 C 425.794 1.33838 -1.40716 0
M  V30 4245 O 425.069 1.86465 -0.553277 0
M  V30 4246 C 425.352 0.123676 -3.59888 0
M  V30 4247 C 425.205 -1.2372 -4.3245 0
M  V30 4248 C 426.524 0.849967 -4.31814 0
M  V30 4249 H 423.643 -0.000477758 -0.737 0
M  V30 4250 H 426.285 -0.688217 -1.77098 0
M  V30 4251 H 424.435 0.712157 -3.81917 0
M  V30 4252 H 426.107 -1.86687 -4.21836 0
M  V30 4253 H 424.35 -1.81882 -3.93829 0
M  V30 4254 H 425.021 -1.10557 -5.40815 0
M  V30 4255 H 427.497 0.350572 -4.14621 0
M  V30 4256 H 426.373 0.903486 -5.41413 0
M  V30 4257 H 426.634 1.90047 -3.99167 0
M  V30 4258 N 425.693 1.55336 -0.266172 0
M  V30 4259 C 426.918 2.04258 0.359661 0
M  V30 4260 C 427.343 1.14359 1.49344 0
M  V30 4261 O 426.701 0.140369 1.80756 0
M  V30 4262 C 426.749 3.50997 0.826635 0
M  V30 4263 O 425.853 3.64204 1.93466 0
M  V30 4264 H 425.194 0.659668 0.075727 0
M  V30 4265 H 427.724 2.00694 -0.39786 0
M  V30 4266 H 427.734 3.9219 1.12477 0
M  V30 4267 H 426.409 4.159 -0.00293032 0
M  V30 4268 H 424.986 3.34913 1.63974 0
M  V30 4269 N 427.171 -0.0066808 1.57599 0
M  V30 4270 C 428.399 -0.704087 1.94551 0
M  V30 4271 C 428.814 -1.67677 0.867746 0
M  V30 4272 O 428.171 -1.8185 -0.153925 0
M  V30 4273 C 428.222 -1.44177 3.31505 0
M  V30 4274 O 427.943 -0.508097 4.35144 0
M  V30 4275 C 429.444 -2.23429 3.82876 0
M  V30 4276 H 426.664 -0.196523 0.641576 0
M  V30 4277 H 429.208 0.042453 2.04456 0
M  V30 4278 H 427.363 -2.13999 3.22929 0
M  V30 4279 H 427.777 -1.02782 5.14331 0
M  V30 4280 H 429.251 -2.70552 4.8115 0
M  V30 4281 H 429.728 -3.05818 3.15233 0
M  V30 4282 H 430.334 -1.58636 3.94607 0
M  V30 4283 N 428.649 -1.55105 -0.279332 0
M  V30 4284 C 429.926 -1.66119 -1.03267 0
M  V30 4285 C 430.306 -0.523525 -2.04505 0
M  V30 4286 O 429.654 0.477194 -2.23462 0
M  V30 4287 C 429.864 -3.05067 -1.69515 0
M  V30 4288 C 431.212 -3.62606 -2.20912 0
M  V30 4289 O 432.236 -3.07659 -1.79512 0
M  V30 4290 O 431.095 -4.58861 -2.96831 0
M  V30 4291 H 428.189 -0.674429 -0.478618 0
M  V30 4292 H 430.735 -1.67446 -0.275694 0
M  V30 4293 H 429.507 -3.79311 -0.9612 0
M  V30 4294 H 429.13 -3.07611 -2.51915 0
M  V30 4295 N 430.127 0.543554 -1.4793 0
M  V30 4296 C 431.375 1.29752 -1.54948 0
M  V30 4297 C 431.696 1.93764 -0.219242 0
M  V30 4298 O 430.966 1.80639 0.75805 0
M  V30 4299 H 429.546 0.481874 -0.570795 0
M  V30 4300 H 432.208 0.633636 -1.84312 0
M  V30 4301 H 431.304 2.08392 -2.32334 0
M  V30 4302 N 431.605 1.3629 0.791371 0
M  V30 4303 C 432.853 1.30154 1.5461 0
M  V30 4304 C 433.174 -0.119409 1.94634 0
M  V30 4305 O 432.444 -1.05924 1.64794 0
M  V30 4306 H 431.024 0.478784 0.573389 0
M  V30 4307 H 433.686 1.70565 0.94306 0
M  V30 4308 H 432.782 1.92762 2.45457 0
M  V30 4309 N 433.083 -1.0153 1.20538 0
M  V30 4310 C 434.033 -2.08482 0.922991 0
M  V30 4311 C 435.017 -1.60469 -0.117702 0
M  V30 4312 O 436.209 -1.76772 0.0898465 0
M  V30 4313 C 433.338 -3.39952 0.478312 0
M  V30 4314 C 432.424 -3.94662 1.5525 0
M  V30 4315 N 432.815 -4.22866 2.77521 0
M  V30 4316 C 431.113 -4.22825 1.41897 0
M  V30 4317 C 431.814 -4.67002 3.4682 0
M  V30 4318 N 430.79 -4.69356 2.74237 0
M  V30 4319 H 434.592 -2.28199 1.85209 0
M  V30 4320 H 432.106 -1.19512 1.09957 0
M  V30 4321 H 434.103 -4.16105 0.257408 0
M  V30 4322 H 432.763 -3.21648 -0.444148 0
M  V30 4323 H 433.774 -4.11732 3.1416 0
M  V30 4324 H 430.451 -4.13714 0.561015 0
M  V30 4325 H 431.841 -4.97632 4.51455 0
M  V30 4326 N 434.561 -1.01147 -1.20859 0
M  V30 4327 C 435.786 -0.716698 -1.94623 0
M  V30 4328 C 436.211 0.715415 -1.73964 0
M  V30 4329 O 435.569 1.49157 -1.03062 0
M  V30 4330 C 435.617 -1.0513 -3.44935 0
M  V30 4331 O 434.721 -0.160131 -4.12089 0
M  V30 4332 H 434.062 -0.266404 -0.608214 0
M  V30 4333 H 436.592 -1.35346 -1.53436 0
M  V30 4334 H 436.602 -1.00086 -3.95533 0
M  V30 4335 H 435.277 -2.09475 -3.59295 0
M  V30 4336 H 433.854 -0.267657 -3.71938 0
M  V30 4337 N 436.039 1.36541 -0.78704 0
M  V30 4338 C 437.269 2.03266 -0.369662 0
M  V30 4339 C 437.677 1.59481 1.01796 0
M  V30 4340 O 437.02 0.778612 1.66383 0
M  V30 4341 C 437.082 3.57779 -0.351371 0
M  V30 4342 C 436.746 4.24756 -1.68617 0
M  V30 4343 C 437.743 4.47811 -2.64124 0
M  V30 4344 C 435.428 4.62277 -1.96481 0
M  V30 4345 C 437.422 5.07464 -3.85693 0
M  V30 4346 C 435.109 5.21649 -3.18317 0
M  V30 4347 C 436.107 5.44182 -4.12741 0
M  V30 4348 O 435.795 6.02307 -5.32429 0
M  V30 4349 H 435.527 0.658977 -0.150751 0
M  V30 4350 H 438.081 1.75548 -1.0664 0
M  V30 4351 H 436.311 3.84606 0.401847 0
M  V30 4352 H 438 4.05879 0.0410147 0
M  V30 4353 H 438.766 4.19221 -2.43883 0
M  V30 4354 H 434.645 4.44065 -1.23805 0
M  V30 4355 H 438.189 5.24968 -4.59407 0
M  V30 4356 H 434.086 5.49664 -3.38437 0
M  V30 4357 H 434.854 6.20775 -5.33461 0
M  V30 4358 N 437.518 0.538854 1.48102 0
M  V30 4359 C 438.766 0.00798599 2.02098 0
M  V30 4360 C 439.087 -1.33922 1.41739 0
M  V30 4361 O 438.357 -1.86932 0.585934 0
M  V30 4362 H 436.937 -3.62179e-05 0.747 0
M  V30 4363 H 439.599 0.7047 1.81714 0
M  V30 4364 H 438.695 -0.0937672 3.11959 0
M  V30 4365 N 438.996 -1.55193 0.274407 0
M  V30 4366 C 440.407 -1.85358 -0.223488 0
M  V30 4367 C 440.758 -1.19642 -1.555 0
M  V30 4368 O 439.883 -0.484498 -2.10907 0
M  V30 4369 C 440.478 -3.36282 -0.412285 0
M  V30 4370 C 439.037 -3.66574 -0.854413 0
M  V30 4371 C 438.184 -2.7725 0.0527056 0
M  V30 4372 H 441.135 -1.50743 0.496215 0
M  V30 4373 H 441.156 -3.59349 -1.25094 0
M  V30 4374 H 440.668 -3.84083 0.556965 0
M  V30 4375 H 438.769 -3.24273 -1.83516 0
M  V30 4376 H 438.882 -4.74073 -0.692226 0
M  V30 4377 H 437.246 -2.50447 -0.463484 0
M  V30 4378 H 438.029 -3.27865 1.01783 0
M  V30 4379 N 440.474 -0.00167713 -1.576 0
M  V30 4380 C 441.72 0.683832 -1.90923 0
M  V30 4381 C 442.053 1.7333 -0.875799 0
M  V30 4382 O 441.328 1.94215 0.10525 0
M  V30 4383 C 441.611 1.32543 -3.3482 0
M  V30 4384 C 441.464 0.287387 -4.48881 0
M  V30 4385 C 442.783 2.25114 -3.78169 0
M  V30 4386 H 439.902 0.247125 -0.694333 0
M  V30 4387 H 442.544 -0.0533149 -1.89925 0
M  V30 4388 H 440.694 1.95372 -3.35801 0
M  V30 4389 H 442.366 -0.341346 -4.60035 0
M  V30 4390 H 440.609 -0.39017 -4.32042 0
M  V30 4391 H 441.28 0.775393 -5.46527 0
M  V30 4392 H 443.756 1.723 -3.7875 0
M  V30 4393 H 442.632 2.66971 -4.79602 0
M  V30 4394 H 442.893 3.13092 -3.12131 0
M  V30 4395 N 441.952 1.55251 0.271103 0
M  V30 4396 C 443.18 1.79974 1.02064 0
M  V30 4397 C 443.595 0.574003 1.79863 0
M  V30 4398 O 442.952 -0.456962 1.76686 0
M  V30 4399 C 443.003 3.02603 1.97772 0
M  V30 4400 O 442.724 4.20443 1.23124 0
M  V30 4401 C 444.225 3.39944 2.84522 0
M  V30 4402 H 441.445 0.599489 0.301419 0
M  V30 4403 H 443.989 2.02268 0.301313 0
M  V30 4404 H 442.144 2.8243 2.65165 0
M  V30 4405 H 442.558 4.89783 1.87651 0
M  V30 4406 H 444.032 4.28915 3.47471 0
M  V30 4407 H 444.509 2.59432 3.54389 0
M  V30 4408 H 445.115 3.62383 2.22618 0
M  V30 4409 N 443.43 -0.535701 1.48216 0
M  V30 4410 C 444.679 -1.28828 1.55197 0
M  V30 4411 C 444.992 -1.94263 0.228278 0
M  V30 4412 O 446.198 -2.70927 0.176278 0
M  V30 4413 C 444.654 -2.33727 2.73678 0
M  V30 4414 C 444.262 -1.74386 4.12666 0
M  V30 4415 C 446.006 -3.1003 2.89968 0
M  V30 4416 C 443.913 -2.77192 5.22416 0
M  V30 4417 H 442.843 -0.484484 0.577747 0
M  V30 4418 H 445.494 -0.56646 1.74538 0
M  V30 4419 H 443.876 -3.08919 2.4776 0
M  V30 4420 H 445.05 -1.05421 4.48579 0
M  V30 4421 H 443.365 -1.10595 4.01445 0
M  V30 4422 H 445.962 -3.86842 3.6913 0
M  V30 4423 H 446.305 -3.65542 1.9921 0
M  V30 4424 H 446.838 -2.41952 3.15759 0
M  V30 4425 H 443.577 -2.26507 6.15122 0
M  V30 4426 H 443.097 -3.44502 4.90998 0
M  V30 4427 H 444.776 -3.40285 5.50286 0
M  V30 4428 N 444.908 -1.36708 -0.784132 0
M  V30 4429 C 446.185 -1.21776 -1.53069 0
M  V30 4430 C 446.565 0.193876 -2.10208 0
M  V30 4431 O 445.913 1.20012 -1.94446 0
M  V30 4432 C 446.123 -2.30395 -2.62143 0
M  V30 4433 C 447.471 -2.67325 -3.29882 0
M  V30 4434 O 448.495 -2.29478 -2.7243 0
M  V30 4435 O 447.354 -3.32485 -4.33724 0
M  V30 4436 H 444.448 -0.474459 -0.677361 0
M  V30 4437 H 446.994 -1.48454 -0.82216 0
M  V30 4438 H 445.766 -3.2498 -2.17953 0
M  V30 4439 H 445.389 -2.05112 -3.40609 0
M  V30 4440 N 446.386 1.0089 -1.21074 0
M  V30 4441 C 447.802 1.2695 -0.967257 0
M  V30 4442 C 448.002 1.9846 0.348673 0
M  V30 4443 O 447.058 2.28459 1.0753 0
M  V30 4444 C 448.371 2.09697 -2.15517 0
M  V30 4445 C 449.919 2.22937 -2.197 0
M  V30 4446 C 450.394 3.09064 -3.37999 0
M  V30 4447 N 451.885 3.16653 -3.38061 0
M  V30 4448 C 452.62 3.8354 -4.26245 0
M  V30 4449 N 452.116 4.52488 -5.2462 0
M  V30 4450 N 453.909 3.80141 -4.14064 0
M  V30 4451 H 446.06 0.529005 -2.05707 0
M  V30 4452 H 448.323 0.296148 -0.900556 0
M  V30 4453 H 448.029 1.64497 -3.10859 0
M  V30 4454 H 447.903 3.10444 -2.14253 0
M  V30 4455 H 450.29 2.67357 -1.24916 0
M  V30 4456 H 450.371 1.21673 -2.2501 0
M  V30 4457 H 450.015 2.65347 -4.33074 0
M  V30 4458 H 449.945 4.10433 -3.29928 0
M  V30 4459 H 452.436 2.67566 -2.66865 0
M  V30 4460 H 452.749 5.01219 -5.88217 0
M  V30 4461 H 451.094 4.51288 -5.28549 0
M  V30 4462 H 454.285 3.25427 -3.36474 0
M  V30 4463 H 454.458 4.31992 -4.82998 0
M  V30 4464 N 447.864 1.01787 1.20321 0
M  V30 4465 C 449.141 0.622978 1.85414 0
M  V30 4466 C 449.521 -0.898887 1.91006 0
M  V30 4467 O 448.869 -1.79112 1.41884 0
M  V30 4468 C 449.079 1.27226 3.24984 0
M  V30 4469 C 450.427 1.3885 4.01255 0
M  V30 4470 O 451.451 1.22857 3.34342 0
M  V30 4471 O 450.31 1.64705 5.2109 0
M  V30 4472 H 447.404 0.215116 0.798533 0
M  V30 4473 H 449.95 1.11533 1.27901 0
M  V30 4474 H 448.722 2.31209 3.15687 0
M  V30 4475 H 448.345 0.767069 3.90131 0
M  V30 4476 N 449.342 -1.36122 0.79427 0
M  V30 4477 C 450.272 -2.32551 0.210328 0
M  V30 4478 C 451.253 -1.56884 -0.657386 0
M  V30 4479 O 452.438 -1.85014 -0.590207 0
M  V30 4480 C 449.568 -3.41128 -0.651819 0
M  V30 4481 C 448.522 -4.27842 0.116395 0
M  V30 4482 C 447.848 -5.2763 -0.86666 0
M  V30 4483 C 449.148 -5.05647 1.30837 0
M  V30 4484 H 450.842 -2.81636 1.01594 0
M  V30 4485 H 448.388 -1.35407 0.489981 0
M  V30 4486 H 450.341 -4.07581 -1.07031 0
M  V30 4487 H 449.065 -2.90622 -1.49019 0
M  V30 4488 H 447.724 -3.62952 0.515915 0
M  V30 4489 H 447.372 -4.73395 -1.70019 0
M  V30 4490 H 447.072 -5.86514 -0.35705 0
M  V30 4491 H 448.596 -5.96955 -1.28361 0
M  V30 4492 H 450.01 -5.65113 0.965393 0
M  V30 4493 H 448.407 -5.73967 1.75161 0
M  V30 4494 H 449.477 -4.37006 2.10128 0
M  V30 4495 N 450.82 -0.546701 -1.47814 0
M  V30 4496 C 452.231 -0.110564 -1.86372 0
M  V30 4497 C 452.582 1.31678 -1.45449 0
M  V30 4498 O 451.707 1.98889 -0.852758 0
M  V30 4499 C 452.302 -0.193873 -3.38245 0
M  V30 4500 C 450.861 0.187164 -3.75934 0
M  V30 4501 C 450.008 -0.546166 -2.71868 0
M  V30 4502 H 452.959 -0.757022 -1.39481 0
M  V30 4503 H 452.98 0.590218 -3.75895 0
M  V30 4504 H 452.492 -1.23282 -3.67999 0
M  V30 4505 H 450.593 1.22762 -3.51796 0
M  V30 4506 H 450.706 -0.164083 -4.78819 0
M  V30 4507 H 449.07 0.00953904 -2.54698 0
M  V30 4508 H 449.853 -1.58606 -3.04465 0
M  V30 4509 N 452.299 1.55045 -0.282633 0
M  V30 4510 C 453.576 1.9179 0.384166 0
M  V30 4511 C 453.956 1.20778 1.73136 0
M  V30 4512 O 453.304 0.33719 2.25998 0
M  V30 4513 C 453.514 3.45149 0.517014 0
M  V30 4514 C 454.862 4.17064 0.796427 0
M  V30 4515 O 455.886 3.51084 0.601535 0
M  V30 4516 O 454.745 5.33837 1.16962 0
M  V30 4517 H 451.839 0.799483 0.211558 0
M  V30 4518 H 454.385 1.66474 -0.32934 0
M  V30 4519 H 453.157 3.88922 -0.430772 0
M  V30 4520 H 452.78 3.76443 1.2797 0
M  V30 4521 N 453.777 0.010035 1.57597 0
M  V30 4522 C 455.188 -0.531426 1.78977 0
M  V30 4523 C 455.539 -1.73375 0.918454 0
M  V30 4524 O 454.664 -2.16047 0.123635 0
M  V30 4525 C 455.259 -0.97086 3.24592 0
M  V30 4526 C 453.818 -1.45756 3.47033 0
M  V30 4527 C 452.965 -0.413384 2.74201 0
M  V30 4528 H 455.916 0.236166 1.56933 0
M  V30 4529 H 455.937 -1.83633 3.33255 0
M  V30 4530 H 455.449 -0.0955893 3.87982 0
M  V30 4531 H 453.55 -2.35339 2.88871 0
M  V30 4532 H 453.663 -1.4781 4.55729 0
M  V30 4533 H 452.027 -0.877266 2.39115 0
M  V30 4534 H 452.81 0.453092 3.40297 0
M  V30 4535 N 455.255 -1.55392 -0.262866 0
M  V30 4536 C 456.483 -1.80513 -1.01108 0
M  V30 4537 C 456.898 -0.583533 -1.79556 0
M  V30 4538 O 456.255 0.447585 -1.76926 0
M  V30 4539 C 456.306 -3.03648 -1.96164 0
M  V30 4540 O 456.027 -4.2109 -1.20893 0
M  V30 4541 C 457.528 -3.41448 -2.82715 0
M  V30 4542 H 454.748 -0.601079 -0.298236 0
M  V30 4543 H 457.292 -2.02425 -0.290582 0
M  V30 4544 H 455.447 -2.83832 -2.63663 0
M  V30 4545 H 455.861 -4.90771 -1.85051 0
M  V30 4546 H 457.335 -4.30751 -3.45192 0
M  V30 4547 H 457.812 -2.61308 -3.53008 0
M  V30 4548 H 458.418 -3.63559 -2.20693 0
M  V30 4549 N 456.733 0.527833 -1.48498 0
M  V30 4550 C 457.681 1.65313 -1.63628 0
M  V30 4551 C 458.675 1.6177 -0.502676 0
M  V30 4552 O 459.881 1.66601 -0.681469 0
M  V30 4553 H 456.256 0.547518 -0.515488 0
M  V30 4554 H 458.227 1.49696 -2.58135 0
M  V30 4555 C 456.976 3.03576 -1.6952 0
M  V30 4556 H 456.299 3.06997 -2.56111 0
M  V30 4557 H 457.739 3.81923 -1.84149 0
M  V30 4558 C 456.198 3.34089 -0.43432 0
M  V30 4559 O 456.728 3.99151 0.451852 0
M  V30 4560 N 454.934 2.88991 -0.305368 0
M  V30 4561 H 454.481 2.36222 -1.02747 0
M  V30 4562 H 454.439 3.09776 0.537249 0
M  V30 4563 N 458.211 1.37122 0.776871 0
M  V30 4564 C 459.159 1.32549 1.91138 0
M  V30 4565 C 460.153 0.215119 1.68029 0
M  V30 4566 O 461.359 0.382852 1.75881 0
M  V30 4567 H 457.734 0.412952 0.62847 0
M  V30 4568 H 459.705 2.28332 1.92112 0
M  V30 4569 C 458.454 1.14422 3.28333 0
M  V30 4570 H 457.777 1.99115 3.46689 0
M  V30 4571 H 459.217 1.15272 4.0803 0
M  V30 4572 C 457.676 -0.150434 3.36564 0
M  V30 4573 O 458.206 -1.13584 3.85307 0
M  V30 4574 N 456.412 -0.19939 2.89915 0
M  V30 4575 H 455.959 0.603142 2.5044 0
M  V30 4576 H 455.917 -1.06526 2.95803 0
M  V30 4577 N 459.689 -1.00246 1.21608 0
M  V30 4578 C 460.652 -2.07233 0.979133 0
M  V30 4579 C 461.652 -1.6072 -0.0508219 0
M  V30 4580 O 462.842 -1.73196 0.186712 0
M  V30 4581 C 459.974 -3.37546 0.477016 0
M  V30 4582 H 461.167 -2.29687 1.92831 0
M  V30 4583 H 458.72 -1.17261 1.03342 0
M  V30 4584 H 459.455 -3.20773 -0.476966 0
M  V30 4585 H 459.24 -3.72638 1.21997 0
M  V30 4586 H 460.73 -4.16285 0.331181 0
M  V30 4587 N 461.167 -1.02423 -1.1978 0
M  V30 4588 C 462.392 -0.7373 -1.93852 0
M  V30 4589 C 462.817 0.696923 -1.74713 0
M  V30 4590 O 462.175 1.48056 -1.04638 0
M  V30 4591 C 462.223 -1.08783 -3.438 0
M  V30 4592 O 461.327 -0.20383 -4.11896 0
M  V30 4593 H 460.668 -0.27284 -0.605355 0
M  V30 4594 H 463.198 -1.36966 -1.51992 0
M  V30 4595 H 463.208 -1.04276 -3.9445 0
M  V30 4596 H 461.883 -2.13274 -3.57053 0
M  V30 4597 H 460.46 -0.307091 -3.71633 0
M  V30 4598 N 462.645 1.35699 -0.801477 0
M  V30 4599 C 463.894 1.98165 -0.375979 0
M  V30 4600 C 464.207 1.64306 1.06127 0
M  V30 4601 O 465.413 2.20097 1.58964 0
M  V30 4602 C 463.869 3.54497 -0.621305 0
M  V30 4603 C 463.477 3.9727 -2.07076 0
M  V30 4604 C 465.221 4.23697 -0.26091 0
M  V30 4605 C 463.128 5.46427 -2.26211 0
M  V30 4606 H 462.058 0.741478 -0.136844 0
M  V30 4607 H 464.709 1.54834 -0.984814 0
M  V30 4608 H 463.091 3.95958 0.0574112 0
M  V30 4609 H 464.265 3.66974 -2.78687 0
M  V30 4610 H 462.58 3.40943 -2.39054 0
M  V30 4611 H 465.177 5.33334 -0.381994 0
M  V30 4612 H 465.52 4.0869 0.792344 0
M  V30 4613 H 466.053 3.87639 -0.893339 0
M  V30 4614 H 462.792 5.66396 -3.29963 0
M  V30 4615 H 462.312 5.78309 -1.59119 0
M  V30 4616 H 463.991 6.12819 -2.07513 0
M  V30 4617 N 464.123 0.554532 1.47522 0
M  V30 4618 C 465.372 0.0273458 2.01681 0
M  V30 4619 C 465.685 -1.32962 1.43459 0
M  V30 4620 O 466.891 -1.94657 1.89265 0
M  V30 4621 C 465.347 -0.00159057 3.599 0
M  V30 4622 C 464.955 1.35197 4.27113 0
M  V30 4623 C 466.699 -0.476311 4.21819 0
M  V30 4624 C 464.606 1.28229 5.77331 0
M  V30 4625 H 463.536 0.00645269 0.753972 0
M  V30 4626 H 466.187 0.701985 1.69542 0
M  V30 4627 H 464.569 -0.741821 3.8899 0
M  V30 4628 H 465.743 2.1097 4.09668 0
M  V30 4629 H 464.058 1.76441 3.77171 0
M  V30 4630 H 466.655 -0.5468 5.31897 0
M  V30 4631 H 466.998 -1.4877 3.8881 0
M  V30 4632 H 467.531 0.20898 3.97251 0
M  V30 4633 H 464.27 2.26959 6.14955 0
M  V30 4634 H 463.79 0.566314 5.97121 0
M  V30 4635 H 465.469 0.983226 6.39485 0
M  V30 4636 N 465.601 -1.54893 0.290851 0
M  V30 4637 C 467.017 -1.59476 -0.0628432 0
M  V30 4638 C 467.217 -1.30795 -1.5328 0
M  V30 4639 O 466.273 -1.07644 -2.28406 0
M  V30 4640 C 467.586 -2.98928 0.325962 0
M  V30 4641 C 469.134 -3.11799 0.273882 0
M  V30 4642 C 469.609 -4.53544 0.637359 0
M  V30 4643 N 471.1 -4.59433 0.589507 0
M  V30 4644 C 471.835 -5.67164 0.84335 0
M  V30 4645 N 471.331 -6.82975 1.16263 0
M  V30 4646 N 473.124 -5.56786 0.771091 0
M  V30 4647 H 465.275 -1.71798 1.24896 0
M  V30 4648 H 467.538 -0.801879 0.505663 0
M  V30 4649 H 467.244 -3.24805 1.34887 0
M  V30 4650 H 467.118 -3.75793 -0.325441 0
M  V30 4651 H 469.505 -2.85677 -0.739765 0
M  V30 4652 H 469.586 -2.37112 0.959766 0
M  V30 4653 H 469.23 -4.80394 1.64877 0
M  V30 4654 H 469.16 -5.26553 -0.0704866 0
M  V30 4655 H 471.651 -3.76245 0.353252 0
M  V30 4656 H 471.964 -7.61048 1.34257 0
M  V30 4657 H 470.309 -6.84552 1.20057 0
M  V30 4658 H 473.5 -4.65187 0.521383 0
M  V30 4659 H 473.673 -6.40664 0.972295 0
M  V30 4660 N 467.08 -0.0183926 -1.57589 0
M  V30 4661 C 468.043 0.951986 -2.08494 0
M  V30 4662 C 469.043 1.26092 -0.997874 0
M  V30 4663 O 470.233 1.20304 -1.25987 0
M  V30 4664 C 467.365 2.27165 -2.54182 0
M  V30 4665 H 468.558 0.511307 -2.95509 0
M  V30 4666 H 466.111 0.229444 -1.54607 0
M  V30 4667 H 466.846 2.75884 -1.70465 0
M  V30 4668 H 466.631 2.06057 -3.33591 0
M  V30 4669 H 468.121 2.9674 -2.93828 0
M  V30 4670 N 468.558 1.5553 0.254621 0
M  V30 4671 C 469.805 1.77 0.983736 0
M  V30 4672 C 470.133 0.58133 1.85609 0
M  V30 4673 O 469.388 -0.435621 1.9079 0
M  V30 4674 C 469.687 3.03891 1.88109 0
M  V30 4675 C 469.353 4.35597 1.16472 0
M  V30 4676 C 468.015 4.7139 0.966714 0
M  V30 4677 C 470.367 5.1705 0.656387 0
M  V30 4678 C 467.695 5.86176 0.247942 0
M  V30 4679 C 470.047 6.32581 -0.0488807 0
M  V30 4680 C 468.711 6.67 -0.258438 0
M  V30 4681 H 467.981 0.647688 0.359974 0
M  V30 4682 H 470.628 1.89802 0.254463 0
M  V30 4683 H 468.933 2.86068 2.67717 0
M  V30 4684 H 470.63 3.17701 2.44677 0
M  V30 4685 H 467.22 4.07475 1.32899 0
M  V30 4686 H 471.404 4.8986 0.796933 0
M  V30 4687 H 466.66 6.11354 0.075035 0
M  V30 4688 H 470.834 6.94942 -0.450444 0
M  V30 4689 H 468.461 7.55793 -0.817358 0
M  V30 4690 N 470.036 -0.519951 1.48776 0
M  V30 4691 C 471.447 -1.10177 1.50725 0
M  V30 4692 C 471.798 -1.94153 0.282678 0
M  V30 4693 O 470.923 -2.07645 -0.609298 0
M  V30 4694 C 471.518 -2.00482 2.73116 0
M  V30 4695 C 470.077 -2.53862 2.77905 0
M  V30 4696 C 469.224 -1.31047 2.44381 0
M  V30 4697 H 472.175 -0.30473 1.55747 0
M  V30 4698 H 472.196 -2.8491 2.52203 0
M  V30 4699 H 471.708 -1.39335 3.62225 0
M  V30 4700 H 469.809 -3.18702 1.93029 0
M  V30 4701 H 469.922 -2.9231 3.79594 0
M  V30 4702 H 468.286 -1.62953 1.95751 0
M  V30 4703 H 469.069 -0.71637 3.35743 0
M  V30 4704 N 471.514 -1.37532 -0.769588 0
M  V30 4705 C 472.791 -1.23392 -1.51768 0
M  V30 4706 C 473.171 0.17157 -2.10402 0
M  V30 4707 O 472.519 1.17943 -1.95708 0
M  V30 4708 C 472.729 -2.33163 -2.59685 0
M  V30 4709 C 474.077 -2.70809 -3.27028 0
M  V30 4710 O 475.101 -2.32355 -2.69981 0
M  V30 4711 O 473.96 -3.37066 -4.30173 0
M  V30 4712 H 471.054 -0.481617 -0.67229 0
M  V30 4713 H 473.6 -1.49318 -0.806368 0
M  V30 4714 H 472.372 -3.27273 -2.14494 0
M  V30 4715 H 471.995 -2.08713 -3.38415 0
M  V30 4716 N 472.992 0.995999 -1.22138 0
M  V30 4717 C 473.955 2.06711 -0.990109 0
M  V30 4718 C 474.955 1.60744 0.0422978 0
M  V30 4719 O 476.145 1.73095 -0.195895 0
M  V30 4720 C 473.277 3.37288 -0.49491 0
M  V30 4721 H 474.47 2.28661 -1.94047 0
M  V30 4722 H 472.023 1.16711 -1.03963 0
M  V30 4723 H 472.758 3.21022 0.459948 0
M  V30 4724 H 472.543 3.71986 -1.23971 0
M  V30 4725 H 474.033 4.16103 -0.353253 0
M  V30 4726 N 474.47 1.03057 1.19235 0
M  V30 4727 C 475.881 0.757449 1.70645 0
M  V30 4728 C 476.232 -0.722735 1.82403 0
M  V30 4729 O 475.357 -1.56325 1.49638 0
M  V30 4730 C 475.952 1.36833 3.09939 0
M  V30 4731 C 474.511 1.14375 3.58602 0
M  V30 4732 C 473.658 1.46533 2.35422 0
M  V30 4733 H 476.609 1.19828 1.04052 0
M  V30 4734 H 476.63 0.766184 3.72706 0
M  V30 4735 H 476.142 2.44562 3.01349 0
M  V30 4736 H 474.243 0.0847542 3.72504 0
M  V30 4737 H 474.356 1.83366 4.42622 0
M  V30 4738 H 472.72 0.884712 2.38841 0
M  V30 4739 H 473.503 2.55349 2.2946 0
M  V30 4740 N 475.948 -1.35272 0.808662 0
M  V30 4741 C 476.911 -2.28082 0.226093 0
M  V30 4742 C 477.911 -1.49673 -0.587762 0
M  V30 4743 O 479.101 -1.69404 -0.405943 0
M  V30 4744 C 476.233 -3.33955 -0.684596 0
M  V30 4745 H 477.426 -2.81116 1.04469 0
M  V30 4746 H 474.979 -1.45162 0.579466 0
M  V30 4747 H 475.714 -2.86111 -1.5268 0
M  V30 4748 H 475.499 -3.91965 -0.102699 0
M  V30 4749 H 476.989 -4.03219 -1.08646 0
M  V30 4750 N 477.426 -0.562348 -1.47226 0
M  V30 4751 C 478.674 -0.0401371 -2.0206 0
M  V30 4752 C 478.995 1.3165 -1.43852 0
M  V30 4753 O 478.265 1.85976 -0.615599 0
M  V30 4754 H 476.845 -0.0118479 -0.746906 0
M  V30 4755 H 479.507 -0.73352 -1.8057 0
M  V30 4756 H 478.603 0.0441254 -3.12069 0
M  V30 4757 N 478.904 1.54736 -0.299062 0
M  V30 4758 C 480.129 2.04975 0.316254 0
M  V30 4759 C 480.554 1.17501 1.46885 0
M  V30 4760 O 479.912 0.178678 1.80417 0
M  V30 4761 C 479.96 3.52672 0.751997 0
M  V30 4762 O 479.064 3.68226 1.85697 0
M  V30 4763 H 478.405 0.661126 0.0617175 0
M  V30 4764 H 480.935 1.99805 -0.440341 0
M  V30 4765 H 480.945 3.94488 1.04133 0
M  V30 4766 H 479.62 4.158 -0.0911482 0
M  V30 4767 H 478.197 3.38316 1.56834 0
M  V30 4768 N 480.382 0.0267497 1.57577 0
M  V30 4769 C 481.345 -0.940916 2.08996 0
M  V30 4770 C 482.345 -1.25561 1.00455 0
M  V30 4771 O 483.535 -1.19634 1.26623 0
M  V30 4772 C 480.667 -2.25814 2.55384 0
M  V30 4773 H 481.86 -0.495628 2.95776 0
M  V30 4774 H 479.413 -0.221241 1.54726 0
M  V30 4775 H 480.148 -2.74976 1.71926 0
M  V30 4776 H 479.933 -2.04285 3.34679 0
M  V30 4777 H 481.423 -2.95178 2.95398 0
M  V30 4778 N 481.861 -1.55662 -0.24637 0
M  V30 4779 C 483.277 -1.48098 -0.594907 0
M  V30 4780 C 483.477 -0.717044 -1.8831 0
M  V30 4781 O 482.533 -0.246618 -2.51293 0
M  V30 4782 C 483.846 -2.92507 -0.697146 0
M  V30 4783 C 485.394 -3.02881 -0.789436 0
M  V30 4784 C 485.869 -4.48598 -0.923232 0
M  V30 4785 N 487.36 -4.52538 -0.988088 0
M  V30 4786 C 488.095 -5.62536 -1.11089 0
M  V30 4787 N 487.591 -6.82342 -1.19919 0
M  V30 4788 N 489.384 -5.50334 -1.14408 0
M  V30 4789 H 481.535 -2.0377 0.599278 0
M  V30 4790 H 483.798 -0.925145 0.20691 0
M  V30 4791 H 483.504 -3.51242 0.179396 0
M  V30 4792 H 483.378 -3.43024 -1.5689 0
M  V30 4793 H 485.765 -2.44226 -1.65643 0
M  V30 4794 H 485.846 -2.55574 0.107482 0
M  V30 4795 H 485.49 -5.07864 -0.0607927 0
M  V30 4796 H 485.42 -4.93587 -1.8352 0
M  V30 4797 H 487.911 -3.66248 -0.931167 0
M  V30 4798 H 488.224 -7.61924 -1.29197 0
M  V30 4799 H 486.569 -6.85102 -1.16876 0
M  V30 4800 H 489.76 -4.5567 -1.07158 0
M  V30 4801 H 489.933 -6.36096 -1.23634 0
M  V30 4802 N 483.339 0.512053 -1.4905 0
M  V30 4803 C 484.302 1.59704 -1.64399 0
M  V30 4804 C 485.302 1.52285 -0.516317 0
M  V30 4805 O 486.492 1.55635 -0.782527 0
M  V30 4806 C 483.624 2.9935 -1.63102 0
M  V30 4807 H 484.817 1.47428 -2.61161 0
M  V30 4808 H 482.37 0.735469 -1.37915 0
M  V30 4809 H 483.105 3.17116 -0.678836 0
M  V30 4810 H 482.89 3.06144 -2.44986 0
M  V30 4811 H 484.38 3.782 -1.77072 0
M  V30 4812 N 484.817 1.37938 0.762283 0
M  V30 4813 C 485.764 1.34467 1.87583 0
M  V30 4814 C 486.734 0.208633 1.64785 0
M  V30 4815 O 487.919 0.399494 1.86571 0
M  V30 4816 C 485.059 1.16692 3.24772 0
M  V30 4817 C 484.172 2.39608 3.59461 0
M  V30 4818 C 483.307 2.14631 4.85908 0
M  V30 4819 C 482.346 3.33364 5.13357 0
M  V30 4820 N 481.483 3.07877 6.30996 0
M  V30 4821 H 486.323 2.29669 1.89885 0
M  V30 4822 H 483.86 1.14116 0.928219 0
M  V30 4823 H 485.818 1.04405 4.03925 0
M  V30 4824 H 484.448 0.251333 3.2182 0
M  V30 4825 H 483.5 2.626 2.75219 0
M  V30 4826 H 484.812 3.28128 3.75678 0
M  V30 4827 H 483.966 1.99429 5.72986 0
M  V30 4828 H 482.705 1.23463 4.71814 0
M  V30 4829 H 481.71 3.49094 4.24751 0
M  V30 4830 H 482.935 4.25395 5.29354 0
M  V30 4831 H 480.881 2.19348 6.18241 0
M  V30 4832 H 480.798 3.89944 6.47673 0
M  V30 4833 H 482.066 2.96313 7.20985 0
M  V30 4834 N 486.295 -0.989507 1.22664 0
M  V30 4835 C 487.541 -1.7321 1.05481 0
M  V30 4836 C 487.874 -1.89852 -0.408635 0
M  V30 4837 O 487.149 -1.44416 -1.30285 0
M  V30 4838 C 487.432 -3.1357 1.77047 0
M  V30 4839 C 487.285 -3.04555 3.31008 0
M  V30 4840 C 488.604 -4.12812 1.5256 0
M  V30 4841 H 485.723 -0.628697 0.384589 0
M  V30 4842 H 488.365 -1.15258 1.51049 0
M  V30 4843 H 486.515 -3.63046 1.3831 0
M  V30 4844 H 488.187 -2.62674 3.7921 0
M  V30 4845 H 486.43 -2.41278 3.6051 0
M  V30 4846 H 487.101 -4.03894 3.76263 0
M  V30 4847 H 489.577 -3.72106 1.86215 0
M  V30 4848 H 488.453 -5.09132 2.05124 0
M  V30 4849 H 488.714 -4.39711 0.458936 0
M  V30 4850 N 487.773 -1.03688 -1.18687 0
M  V30 4851 C 488.703 -0.645407 -2.24403 0
M  V30 4852 C 489.684 0.349511 -1.66471 0
M  V30 4853 O 490.869 0.230453 -1.92828 0
M  V30 4854 C 487.999 -0.00365337 -3.473 0
M  V30 4855 C 486.953 -0.921705 -4.17958 0
M  V30 4856 C 486.279 -0.144629 -5.34504 0
M  V30 4857 C 487.579 -2.23909 -4.71871 0
M  V30 4858 H 489.273 -1.52917 -2.57404 0
M  V30 4859 H 486.819 -0.736711 -1.23728 0
M  V30 4860 H 488.772 0.281908 -4.20456 0
M  V30 4861 H 487.496 0.914963 -3.13522 0
M  V30 4862 H 486.155 -1.19159 -3.46694 0
M  V30 4863 H 485.803 0.776274 -4.96974 0
M  V30 4864 H 485.503 -0.756206 -5.82714 0
M  V30 4865 H 487.027 0.134004 -6.10453 0
M  V30 4866 H 488.441 -2.0145 -5.36741 0
M  V30 4867 H 486.838 -2.8033 -5.30599 0
M  V30 4868 H 487.908 -2.88822 -3.895 0
M  V30 4869 N 489.251 1.34841 -0.815825 0
M  V30 4870 C 490.181 2.32187 -0.247298 0
M  V30 4871 C 491.162 1.5791 0.632344 0
M  V30 4872 O 492.347 1.8593 0.560698 0
M  V30 4873 C 489.477 3.42122 0.597466 0
M  V30 4874 C 488.431 4.27602 -0.184446 0
M  V30 4875 C 487.757 5.28942 0.782609 0
M  V30 4876 C 489.057 5.03502 -1.38865 0
M  V30 4877 H 490.751 2.79985 -1.06061 0
M  V30 4878 H 488.297 1.34611 -0.511461 0
M  V30 4879 H 490.25 4.09232 1.00533 0
M  V30 4880 H 488.974 2.92956 1.44376 0
M  V30 4881 H 487.633 3.62085 -0.573592 0
M  V30 4882 H 487.281 4.7604 1.62466 0
M  V30 4883 H 486.981 5.87008 0.263695 0
M  V30 4884 H 488.505 5.98922 1.18848 0
M  V30 4885 H 489.919 5.63506 -1.05518 0
M  V30 4886 H 488.316 5.71108 -1.8427 0
M  V30 4887 H 489.386 4.33608 -2.17054 0
M  V30 4888 N 490.729 0.570148 1.46925 0
M  V30 4889 C 491.976 0.0509529 2.02436 0
M  V30 4890 C 492.304 -1.30405 1.44308 0
M  V30 4891 O 491.559 -1.86493 0.593198 0
M  V30 4892 C 491.858 -0.0780336 3.57315 0
M  V30 4893 C 491.524 1.20775 4.34424 0
M  V30 4894 C 490.186 1.56004 4.5521 0
M  V30 4895 C 492.538 2.0592 4.78797 0
M  V30 4896 C 489.866 2.76201 5.17619 0
M  V30 4897 C 492.218 3.25332 5.42533 0
M  V30 4898 C 490.882 3.60859 5.61549 0
M  V30 4899 H 490.152 0.018645 0.740765 0
M  V30 4900 H 492.799 0.744262 1.76445 0
M  V30 4901 H 491.104 -0.854394 3.82371 0
M  V30 4902 H 492.801 -0.495312 3.97929 0
M  V30 4903 H 489.391 0.923469 4.18533 0
M  V30 4904 H 493.575 1.80008 4.62505 0
M  V30 4905 H 488.831 3.0388 5.30535 0
M  V30 4906 H 493.005 3.91586 5.75876 0
M  V30 4907 H 490.632 4.54088 6.09678 0
M  V30 4908 N 492.207 -1.54576 0.307264 0
M  V30 4909 C 493.432 -2.05139 -0.305379 0
M  V30 4910 C 493.857 -1.18278 -1.46259 0
M  V30 4911 O 493.215 -0.188243 -1.8032 0
M  V30 4912 C 493.263 -3.53066 -0.733283 0
M  V30 4913 O 492.367 -3.69206 -1.83741 0
M  V30 4914 H 491.708 -0.661444 -0.0582105 0
M  V30 4915 H 494.238 -1.99569 0.450931 0
M  V30 4916 H 494.248 -3.95034 -1.02039 0
M  V30 4917 H 492.923 -4.15746 0.113198 0
M  V30 4918 H 491.5 -3.39143 -1.55037 0
M  V30 4919 N 493.685 -0.035106 -1.57561 0
M  V30 4920 C 494.633 0.962707 -2.11742 0
M  V30 4921 C 495.627 1.33296 -1.0454 0
M  V30 4922 O 496.833 1.31449 -1.22968 0
M  V30 4923 H 493.208 0.32826 -0.676572 0
M  V30 4924 H 495.179 0.48048 -2.94506 0
M  V30 4925 C 493.928 2.23388 -2.66445 0
M  V30 4926 H 493.251 1.95774 -3.48587 0
M  V30 4927 H 494.691 2.91402 -3.07995 0
M  V30 4928 C 493.15 2.96769 -1.59467 0
M  V30 4929 O 493.68 3.89105 -0.998 0
M  V30 4930 N 491.886 2.59212 -1.31369 0
M  V30 4931 H 491.433 1.84202 -1.80076 0
M  V30 4932 H 491.391 3.08618 -0.600173 0
M  V30 4933 N 495.163 1.55791 0.238111 0
M  V30 4934 C 496.126 1.90239 1.27835 0
M  V30 4935 C 497.126 0.779552 1.4064 0
M  V30 4936 O 498.316 1.04747 1.3919 0
M  V30 4937 C 495.448 2.13859 2.65475 0
M  V30 4938 H 496.641 2.83262 0.985034 0
M  V30 4939 H 494.194 1.48818 0.477799 0
M  V30 4940 H 494.929 1.23334 2.99932 0
M  V30 4941 H 494.714 2.95643 2.57561 0
M  V30 4942 H 496.204 2.41664 3.40571 0
M  V30 4943 N 496.642 -0.504142 1.49319 0
M  V30 4944 C 497.605 -1.5883 1.65244 0
M  V30 4945 C 498.605 -1.52009 0.524386 0
M  V30 4946 O 499.795 -1.55218 0.79077 0
M  V30 4947 C 496.927 -2.98481 1.64687 0
M  V30 4948 H 498.12 -1.4604 2.61939 0
M  V30 4949 H 495.673 -0.728144 1.38303 0
M  V30 4950 H 496.408 -3.16751 0.695644 0
M  V30 4951 H 496.193 -3.0484 2.46607 0
M  V30 4952 H 497.683 -3.77256 1.79075 0
M  V30 4953 N 498.12 -1.38341 -0.754957 0
M  V30 4954 C 499.345 -1.37882 -1.5493 0
M  V30 4955 C 499.77 0.0296385 -1.88077 0
M  V30 4956 O 499.128 1.01133 -1.50472 0
M  V30 4957 C 499.176 -2.23996 -2.82592 0
M  V30 4958 O 498.28 -1.65612 -3.77686 0
M  V30 4959 H 497.621 -0.470384 -0.468652 0
M  V30 4960 H 500.151 -1.82084 -0.933082 0
M  V30 4961 H 500.161 -2.37806 -3.3153 0
M  V30 4962 H 498.836 -3.26365 -2.57796 0
M  V30 4963 H 497.413 -1.60936 -3.36384 0
M  V30 4964 N 499.598 0.982988 -1.23187 0
M  V30 4965 C 500.53 2.07729 -0.968572 0
M  V30 4966 C 501.543 1.62702 0.0564821 0
M  V30 4967 O 502.732 1.77603 -0.178733 0
M  V30 4968 C 499.832 3.36071 -0.436974 0
M  V30 4969 C 499.005 4.10081 -1.52159 0
M  V30 4970 C 498.064 5.16701 -0.99532 0
M  V30 4971 O 497.09 5.43727 -1.68373 0
M  V30 4972 N 498.292 5.80226 0.178192 0
M  V30 4973 H 501.057 2.30894 -1.9107 0
M  V30 4974 H 498.618 1.14949 -1.1401 0
M  V30 4975 H 500.61 4.04639 -0.0700051 0
M  V30 4976 H 499.18 3.09893 0.410509 0
M  V30 4977 H 498.4 3.36004 -2.06144 0
M  V30 4978 H 499.688 4.56295 -2.25105 0
M  V30 4979 H 499.086 5.60651 0.754096 0
M  V30 4980 H 497.643 6.49982 0.486449 0
M  V30 4981 N 501.076 1.04316 1.18135 0
M  V30 4982 C 502.304 0.768117 1.92113 0
M  V30 4983 C 502.719 -0.675057 1.76319 0
M  V30 4984 O 502.076 -1.46038 1.09449 0
M  V30 4985 C 502.127 1.12808 3.43448 0
M  V30 4986 O 501.848 2.5146 3.58747 0
M  V30 4987 C 503.349 0.8779 4.3452 0
M  V30 4988 H 500.569 0.279937 0.609817 0
M  V30 4989 H 503.113 1.39149 1.49859 0
M  V30 4990 H 501.268 0.549623 3.83481 0
M  V30 4991 H 501.682 2.65313 4.52448 0
M  V30 4992 H 503.156 1.17959 5.39249 0
M  V30 4993 H 503.633 -0.187239 4.38801 0
M  V30 4994 H 504.239 1.43977 4.00188 0
M  V30 4995 N 502.554 -1.34406 0.822964 0
M  V30 4996 C 503.779 -2.0304 0.423034 0
M  V30 4997 C 504.204 -1.61568 -0.963196 0
M  V30 4998 O 503.562 -0.800339 -1.62678 0
M  V30 4999 C 503.61 -3.56636 0.53321 0
M  V30 5000 O 502.714 -4.09971 -0.446939 0
M  V30 5001 H 502.055 -0.64075 0.174171 0
M  V30 5002 H 504.585 -1.71653 1.11339 0
M  V30 5003 H 504.595 -4.05945 0.408991 0
M  V30 5004 H 503.27 -3.86168 1.54425 0
M  V30 5005 H 501.847 -3.71835 -0.281601 0
M  V30 5006 N 504.032 -0.577932 -1.46621 0
M  V30 5007 C 505.448 -0.239242 -1.57797 0
M  V30 5008 C 505.648 1.25843 -1.57371 0
M  V30 5009 O 504.704 2.03988 -1.48813 0
M  V30 5010 C 506.017 -0.884227 -2.87405 0
M  V30 5011 C 507.565 -0.857373 -3.01028 0
M  V30 5012 C 508.04 -1.48181 -4.33366 0
M  V30 5013 N 509.531 -1.44593 -4.40053 0
M  V30 5014 C 510.266 -1.89852 -5.41058 0
M  V30 5015 N 509.762 -2.43062 -6.48762 0
M  V30 5016 N 511.555 -1.80797 -5.3223 0
M  V30 5017 H 503.706 -1.55073 -1.45142 0
M  V30 5018 H 505.969 -0.647903 -0.692044 0
M  V30 5019 H 505.675 -1.93759 -2.93514 0
M  V30 5020 H 505.549 -0.389585 -3.75183 0
M  V30 5021 H 507.936 0.187357 -2.94505 0
M  V30 5022 H 508.017 -1.38999 -2.14739 0
M  V30 5023 H 507.661 -2.52572 -4.40647 0
M  V30 5024 H 507.591 -0.924464 -5.18422 0
M  V30 5025 H 510.082 -1.05694 -3.62819 0
M  V30 5026 H 510.395 -2.75466 -7.22038 0
M  V30 5027 H 508.74 -2.47085 -6.49595 0
M  V30 5028 H 511.931 -1.38989 -4.46989 0
M  V30 5029 H 512.104 -2.16385 -6.10804 0
M  V30 5030 N 505.51 1.54411 -0.315457 0
M  V30 5031 C 506.735 2.05299 0.294496 0
M  V30 5032 C 507.16 1.19052 1.4563 0
M  V30 5033 O 506.518 0.197804 1.80218 0
M  V30 5034 C 506.566 3.5345 0.714549 0
M  V30 5035 O 505.67 3.70175 1.81781 0
M  V30 5036 H 505.011 0.661743 0.0547019 0
M  V30 5037 H 507.541 1.99327 -0.461508 0
M  V30 5038 H 507.551 3.9557 0.999426 0
M  V30 5039 H 506.226 4.1568 -0.135244 0
M  V30 5040 H 504.803 3.3996 1.53236 0
M  V30 5041 N 506.988 0.0434614 1.5754 0
M  V30 5042 C 507.92 -0.962586 2.08007 0
M  V30 5043 C 508.933 -1.27972 1.00634 0
M  V30 5044 O 510.122 -1.24186 1.28219 0
M  V30 5045 C 507.222 -2.28621 2.50171 0
M  V30 5046 C 506.395 -2.15214 3.80791 0
M  V30 5047 C 505.454 -3.30633 4.09351 0
M  V30 5048 O 504.48 -3.0688 4.79388 0
M  V30 5049 N 505.682 -4.54873 3.60654 0
M  V30 5050 H 508.447 -0.531891 2.94942 0
M  V30 5051 H 506.008 -0.142965 1.61268 0
M  V30 5052 H 508 -3.04689 2.66359 0
M  V30 5053 H 506.57 -2.63283 1.68525 0
M  V30 5054 H 505.79 -1.23785 3.74261 0
M  V30 5055 H 507.078 -2.03475 4.66343 0
M  V30 5056 H 506.476 -4.77063 3.04019 0
M  V30 5057 H 505.033 -5.2806 3.82094 0
M  V30 5058 N 508.466 -1.55915 -0.229846 0
M  V30 5059 C 509.714 -1.7819 -0.953565 0
M  V30 5060 C 510.035 -0.610504 -1.85197 0
M  V30 5061 O 509.305 0.372988 -1.92316 0
M  V30 5062 H 507.885 -0.657208 -0.355087 0
M  V30 5063 H 510.547 -1.9337 -0.243693 0
M  V30 5064 H 509.643 -2.70011 -1.56527 0
M  V30 5065 N 509.944 0.496216 -1.49584 0
M  V30 5066 C 511.172 1.27394 -1.63029 0
M  V30 5067 C 511.587 1.86344 -0.303569 0
M  V30 5068 O 510.944 1.68057 0.711547 0
M  V30 5069 C 510.995 2.40077 -2.70269 0
M  V30 5070 O 510.716 1.83549 -3.97796 0
M  V30 5071 C 512.217 3.31372 -2.94462 0
M  V30 5072 H 509.437 0.386211 -0.54871 0
M  V30 5073 H 511.981 0.595163 -1.95648 0
M  V30 5074 H 510.136 3.03775 -2.40415 0
M  V30 5075 H 510.55 2.57561 -4.56905 0
M  V30 5076 H 512.024 4.06707 -3.73221 0
M  V30 5077 H 512.501 3.88654 -2.0456 0
M  V30 5078 H 513.107 2.73435 -3.25751 0
M  V30 5079 N 511.423 1.38739 0.74761 0
M  V30 5080 C 512.672 1.3459 1.50228 0
M  V30 5081 C 512.985 -0.0595592 1.95509 0
M  V30 5082 O 514.191 -0.22361 2.70578 0
M  V30 5083 C 512.647 2.36377 2.71393 0
M  V30 5084 C 512.255 3.82573 2.33113 0
M  V30 5085 C 513.999 2.41281 3.49262 0
M  V30 5086 C 511.906 4.76032 3.50924 0
M  V30 5087 H 510.836 0.500312 0.564096 0
M  V30 5088 H 513.487 1.64324 0.8167 0
M  V30 5089 H 511.869 1.99694 3.41962 0
M  V30 5090 H 513.043 4.28227 1.70171 0
M  V30 5091 H 511.358 3.80844 1.68365 0
M  V30 5092 H 513.955 3.08301 4.36869 0
M  V30 5093 H 514.298 1.43353 3.9084 0
M  V30 5094 H 514.831 2.76793 2.85711 0
M  V30 5095 H 511.57 5.75177 3.14408 0
M  V30 5096 H 511.09 4.35066 4.12889 0
M  V30 5097 H 512.769 4.94331 4.17427 0
M  V30 5098 N 512.901 -0.976442 1.23707 0
M  V30 5099 C 514.317 -1.24341 1.00058 0
M  V30 5100 C 514.517 -1.99315 -0.295932 0
M  V30 5101 O 513.573 -2.3123 -1.01435 0
M  V30 5102 C 514.886 -2.03909 2.21001 0
M  V30 5103 C 516.434 -2.17034 2.25534 0
M  V30 5104 C 516.909 -2.99994 3.46075 0
M  V30 5105 N 518.4 -3.07578 3.46338 0
M  V30 5106 C 519.135 -3.72104 4.36264 0
M  V30 5107 N 518.631 -4.3842 5.36432 0
M  V30 5108 N 520.424 -3.69029 4.23998 0
M  V30 5109 H 512.575 -0.47428 2.07037 0
M  V30 5110 H 514.838 -0.272167 0.908091 0
M  V30 5111 H 514.544 -1.56198 3.15111 0
M  V30 5112 H 514.418 -3.04654 2.22409 0
M  V30 5113 H 516.805 -2.63951 1.31961 0
M  V30 5114 H 516.886 -1.15664 2.28156 0
M  V30 5115 H 516.53 -2.53772 4.39957 0
M  V30 5116 H 516.46 -4.01541 3.40694 0
M  V30 5117 H 518.951 -2.60397 2.73865 0
M  V30 5118 H 519.264 -4.85447 6.013 0
M  V30 5119 H 517.609 -4.37116 5.40328 0
M  V30 5120 H 520.8 -3.16392 3.44984 0
M  V30 5121 H 520.973 -4.19034 4.94282 0
M  V30 5122 N 514.379 -1.04941 -1.1758 0
M  V30 5123 C 515.312 -0.592518 -2.20373 0
M  V30 5124 C 516.29 0.377561 -1.58156 0
M  V30 5125 O 517.474 0.28978 -1.86259 0
M  V30 5126 C 514.601 0.133215 -3.38438 0
M  V30 5127 C 513.647 -0.791484 -4.19092 0
M  V30 5128 S 514.48 -2.27925 -4.84572 0
M  V30 5129 C 515.636 -1.56462 -6.06028 0
M  V30 5130 H 515.869 -1.46342 -2.58788 0
M  V30 5131 H 513.402 -0.861148 -1.28155 0
M  V30 5132 H 515.36 0.545746 -4.06856 0
M  V30 5133 H 514.021 0.980124 -2.98416 0
M  V30 5134 H 513.214 -0.230039 -5.03475 0
M  V30 5135 H 512.816 -1.14326 -3.56098 0
M  V30 5136 H 515.108 -0.862539 -6.71987 0
M  V30 5137 H 516.051 -2.38583 -6.66696 0
M  V30 5138 H 516.459 -1.05313 -5.5459 0
M  V30 5139 N 515.857 1.33968 -0.830081 0
M  V30 5140 C 517.082 2.02813 -0.433796 0
M  V30 5141 C 517.507 1.62076 0.954614 0
M  V30 5142 O 516.865 0.808955 1.62252 0
M  V30 5143 C 516.913 3.56348 -0.552115 0
M  V30 5144 O 516.017 4.10202 0.425191 0
M  V30 5145 H 515.358 0.639817 -0.177567 0
M  V30 5146 H 517.888 1.7106 -1.12248 0
M  V30 5147 H 517.898 4.05722 -0.430513 0
M  V30 5148 H 516.573 3.85344 -1.56471 0
M  V30 5149 H 515.15 3.71979 0.261878 0
M  V30 5150 N 517.335 0.585699 1.46312 0
M  V30 5151 C 518.575 0.0751432 2.04262 0
M  V30 5152 C 518.939 -1.26201 1.44697 0
M  V30 5153 O 520.14 -1.86198 1.93865 0
M  V30 5154 C 518.411 0.013478 3.57397 0
M  V30 5155 S 519.97 -0.439068 4.36598 0
M  V30 5156 H 516.788 0.0389228 0.709934 0
M  V30 5157 H 519.39 0.778871 1.79315 0
M  V30 5158 H 518.094 0.990558 3.98266 0
M  V30 5159 H 517.625 -0.712927 3.86886 0
M  V30 5160 H 519.64 -1.6932 4.66417 0
M  V30 5161 N 518.813 -1.54241 0.323641 0
M  V30 5162 C 520.09 -1.92741 -0.333181 0
M  V30 5163 C 520.47 -1.25326 -1.69872 0
M  V30 5164 O 519.818 -0.396991 -2.25025 0
M  V30 5165 C 520.028 -3.46399 -0.425322 0
M  V30 5166 C 521.376 -4.19029 -0.68557 0
M  V30 5167 O 522.4 -3.52555 -0.50824 0
M  V30 5168 O 521.259 -5.36751 -1.02767 0
M  V30 5169 H 518.353 -0.804811 -0.190286 0
M  V30 5170 H 520.899 -1.65542 0.373361 0
M  V30 5171 H 519.671 -3.87643 0.533737 0
M  V30 5172 H 519.294 -3.79704 -1.17944 0
M  V30 5173 N 520.291 -0.0518155 -1.57515 0
M  V30 5174 C 521.568 0.661727 -1.84067 0
M  V30 5175 C 521.948 1.88999 -0.940351 0
M  V30 5176 O 521.296 2.285 -0.00155404 0
M  V30 5177 C 521.506 1.01841 -3.3381 0
M  V30 5178 C 522.854 1.40043 -4.00841 0
M  V30 5179 O 523.878 1.11073 -3.38439 0
M  V30 5180 O 522.737 1.94111 -5.10865 0
M  V30 5181 H 519.831 0.326702 -0.759733 0
M  V30 5182 H 522.377 -0.0812277 -1.69505 0
M  V30 5183 H 521.149 0.145202 -3.91031 0
M  V30 5184 H 520.772 1.81879 -3.53562 0
M  V30 5185 N 521.769 1.56035 0.221574 0
M  V30 5186 C 523.017 1.78693 0.944102 0
M  V30 5187 C 523.338 0.620317 1.8487 0
M  V30 5188 O 522.608 -0.362784 1.92512 0
M  V30 5189 H 521.188 0.659082 0.351597 0
M  V30 5190 H 523.85 1.93497 0.233435 0
M  V30 5191 H 522.946 2.70837 1.55093 0
M  V30 5192 N 523.247 -0.488276 1.49845 0
M  V30 5193 C 524.179 -1.60539 1.63584 0
M  V30 5194 C 525.192 -1.5434 0.517972 0
M  V30 5195 O 526.381 -1.60041 0.790516 0
M  V30 5196 C 523.481 -2.99374 1.58835 0
M  V30 5197 C 522.654 -3.30624 2.86368 0
M  V30 5198 C 521.713 -4.4893 2.74496 0
M  V30 5199 O 520.739 -4.50085 3.48443 0
M  V30 5200 N 521.941 -5.49591 1.86894 0
M  V30 5201 H 524.706 -1.49176 2.59936 0
M  V30 5202 H 522.267 -0.67639 1.47094 0
M  V30 5203 H 524.259 -3.76459 1.48529 0
M  V30 5204 H 522.829 -3.04595 0.702892 0
M  V30 5205 H 522.049 -2.42314 3.1093 0
M  V30 5206 H 523.337 -3.48305 3.70892 0
M  V30 5207 H 522.735 -5.51467 1.26097 0
M  V30 5208 H 521.292 -6.25728 1.82503 0
M  V30 5209 N 524.725 -1.39134 -0.740242 0
M  V30 5210 C 525.953 -1.39334 -1.5295 0
M  V30 5211 C 526.368 0.0135008 -1.88795 0
M  V30 5212 O 525.725 0.983524 -1.5373 0
M  V30 5213 C 525.776 -2.2614 -2.82034 0
M  V30 5214 O 525.497 -3.61345 -2.47712 0
M  V30 5215 C 526.998 -2.34666 -3.76094 0
M  V30 5216 H 524.218 -0.476103 -0.472828 0
M  V30 5217 H 526.762 -1.82883 -0.9151 0
M  V30 5218 H 524.917 -1.86018 -3.39818 0
M  V30 5219 H 525.331 -4.07194 -3.30595 0
M  V30 5220 H 526.805 -2.99663 -4.63579 0
M  V30 5221 H 527.282 -1.36426 -4.17474 0
M  V30 5222 H 527.888 -2.75236 -3.2423 0
M  V30 5223 N 526.204 0.969867 -1.24223 0
M  V30 5224 C 527.45 1.71582 -1.09231 0
M  V30 5225 C 527.805 1.88898 0.365432 0
M  V30 5226 O 527.098 1.43781 1.2664 0
M  V30 5227 C 527.292 3.10883 -1.76314 0
M  V30 5228 C 527.121 3.07155 -3.2846 0
M  V30 5229 C 525.891 3.11757 -3.97663 0
M  V30 5230 C 528.089 2.895 -4.25082 0
M  V30 5231 N 526.071 2.98025 -5.36707 0
M  V30 5232 C 527.442 2.84041 -5.51109 0
M  V30 5233 C 529.497 2.74064 -4.15684 0
M  V30 5234 C 528.2 2.64725 -6.68815 0
M  V30 5235 C 530.226 2.56115 -5.33066 0
M  V30 5236 C 529.588 2.51363 -6.58024 0
M  V30 5237 H 525.687 0.636496 -0.454309 0
M  V30 5238 H 528.271 1.15004 -1.57106 0
M  V30 5239 H 526.442 3.65657 -1.30955 0
M  V30 5240 H 528.174 3.74171 -1.54201 0
M  V30 5241 H 524.929 3.20352 -3.48814 0
M  V30 5242 H 525.353 2.94405 -6.09635 0
M  V30 5243 H 529.995 2.76521 -3.19837 0
M  V30 5244 H 527.713 2.61011 -7.64787 0
M  V30 5245 H 531.299 2.45119 -5.27644 0
M  V30 5246 H 530.179 2.37651 -7.47323 0
M  V30 5247 N 527.682 1.05563 1.17022 0
M  V30 5248 C 529.093 0.793475 1.69 0
M  V30 5249 C 529.444 -0.683882 1.83895 0
M  V30 5250 O 528.569 -1.53116 1.5292 0
M  V30 5251 C 529.164 1.43376 3.06967 0
M  V30 5252 C 527.723 1.21956 3.56095 0
M  V30 5253 C 526.87 1.51494 2.3226 0
M  V30 5254 H 529.821 1.22008 1.01487 0
M  V30 5255 H 529.842 0.845068 3.70997 0
M  V30 5256 H 529.354 2.50899 2.96093 0
M  V30 5257 H 527.455 0.163749 3.7224 0
M  V30 5258 H 527.568 1.92713 4.38633 0
M  V30 5259 H 525.932 0.935175 2.3691 0
M  V30 5260 H 526.715 2.60159 2.23992 0
M  V30 5261 N 529.16 -1.33526 0.837174 0
M  V30 5262 C 530.406 -1.9813 0.432704 0
M  V30 5263 C 530.739 -1.66168 -1.00508 0
M  V30 5264 O 530.014 -0.94069 -1.70239 0
M  V30 5265 C 530.297 -3.54151 0.651834 0
M  V30 5266 C 530.15 -3.95806 2.13676 0
M  V30 5267 C 531.469 -4.39993 0.0968937 0
M  V30 5268 H 528.588 -0.719713 0.15869 0
M  V30 5269 H 531.23 -1.58193 1.05237 0
M  V30 5270 H 529.38 -3.88301 0.124369 0
M  V30 5271 H 531.052 -3.71921 2.72896 0
M  V30 5272 H 529.295 -3.45599 2.62191 0
M  V30 5273 H 529.966 -5.0447 2.24084 0
M  V30 5274 H 532.442 -4.12479 0.547733 0
M  V30 5275 H 531.318 -5.48186 0.279917 0
M  V30 5276 H 531.579 -4.3066 -0.9992 0
M  V30 5277 N 530.638 -0.59345 -1.46 0
M  V30 5278 C 531.863 -0.0872365 -2.07216 0
M  V30 5279 C 532.288 1.2131 -1.43755 0
M  V30 5280 O 531.646 1.73528 -0.525152 0
M  V30 5281 C 531.694 0.0538197 -3.6056 0
M  V30 5282 O 530.798 1.10765 -3.97247 0
M  V30 5283 H 530.139 -0.0676598 -0.660544 0
M  V30 5284 H 532.669 -0.819445 -1.87473 0
M  V30 5285 H 532.679 0.256567 -4.07193 0
M  V30 5286 H 531.354 -0.895739 -4.0614 0
M  V30 5287 H 529.931 0.882501 -3.62307 0
M  V30 5288 N 532.116 1.54067 -0.331816 0
M  V30 5289 C 533.063 2.24623 0.530372 0
M  V30 5290 C 534.033 1.24009 1.10503 0
M  V30 5291 O 535.218 1.52712 1.14384 0
M  V30 5292 C 532.358 3.01374 1.68129 0
M  V30 5293 C 531.471 4.16821 1.13507 0
M  V30 5294 C 530.606 4.81085 2.25234 0
M  V30 5295 C 529.645 5.88621 1.67903 0
M  V30 5296 N 528.782 6.46713 2.73326 0
M  V30 5297 H 533.622 2.97898 -0.0778607 0
M  V30 5298 H 531.159 1.47014 -0.0501965 0
M  V30 5299 H 533.117 3.44125 2.35868 0
M  V30 5300 H 531.747 2.30419 2.26069 0
M  V30 5301 H 530.799 3.78796 0.348979 0
M  V30 5302 H 532.111 4.94203 0.675633 0
M  V30 5303 H 531.265 5.26846 3.00862 0
M  V30 5304 H 530.004 4.03102 2.74518 0
M  V30 5305 H 529.009 5.42254 0.907773 0
M  V30 5306 H 530.234 6.68506 1.19487 0
M  V30 5307 H 528.18 5.71599 3.21886 0
M  V30 5308 H 528.097 7.19532 2.3197 0
M  V30 5309 H 529.365 6.97129 3.48758 0
M  V30 5310 N 533.594 0.0601682 1.57485 0
M  V30 5311 C 534.84 -0.612501 1.93329 0
M  V30 5312 C 535.173 -1.6996 0.939526 0
M  V30 5313 O 534.448 -1.94472 -0.0330957 0
M  V30 5314 C 534.731 -1.20025 3.39508 0
M  V30 5315 C 534.584 -0.12059 4.49638 0
M  V30 5316 C 535.903 -2.10923 3.86264 0
M  V30 5317 H 533.022 -0.221185 0.703027 0
M  V30 5318 H 535.664 0.123768 1.89596 0
M  V30 5319 H 533.814 -1.82774 3.42821 0
M  V30 5320 H 535.486 0.51185 4.58452 0
M  V30 5321 H 533.729 0.550251 4.30296 0
M  V30 5322 H 534.4 -0.572019 5.49028 0
M  V30 5323 H 536.876 -1.58124 3.84884 0
M  V30 5324 H 535.752 -2.48987 4.8918 0
M  V30 5325 H 536.013 -3.01292 3.23536 0
M  V30 5326 N 535.072 -1.5615 -0.213296 0
M  V30 5327 C 536.319 -1.79546 -0.936462 0
M  V30 5328 C 536.647 -0.630337 -1.84003 0
M  V30 5329 O 535.902 0.384883 -1.91878 0
M  V30 5330 C 536.201 -3.08772 -1.79985 0
M  V30 5331 C 535.867 -4.38532 -1.04882 0
M  V30 5332 C 534.529 -4.73787 -0.841393 0
M  V30 5333 C 536.881 -5.18609 -0.51907 0
M  V30 5334 C 534.209 -5.86627 -0.0924403 0
M  V30 5335 C 536.561 -6.32229 0.216581 0
M  V30 5336 C 535.225 -6.6608 0.435191 0
M  V30 5337 H 534.495 -0.657004 -0.342676 0
M  V30 5338 H 537.142 -1.9041 -0.204051 0
M  V30 5339 H 535.447 -2.93065 -2.60038 0
M  V30 5340 H 537.144 -3.24077 -2.36168 0
M  V30 5341 H 533.734 -4.10855 -1.22048 0
M  V30 5342 H 537.918 -4.91801 -0.666775 0
M  V30 5343 H 533.174 -6.11338 0.087081 0
M  V30 5344 H 537.348 -6.93503 0.634538 0
M  V30 5345 H 534.975 -7.5336 1.01746 0
M  V30 5346 N 536.55 0.480323 -1.50102 0
M  V30 5347 C 537.482 1.59669 -1.64433 0
M  V30 5348 C 538.495 1.54063 -0.52615 0
M  V30 5349 O 539.684 1.59619 -0.798992 0
M  V30 5350 C 536.784 2.98527 -1.6042 0
M  V30 5351 C 535.957 3.291 -2.88117 0
M  V30 5352 C 535.016 4.47468 -2.76873 0
M  V30 5353 O 534.042 4.4823 -3.50825 0
M  V30 5354 N 535.244 5.48593 -1.89806 0
M  V30 5355 H 538.009 1.47795 -2.60723 0
M  V30 5356 H 535.57 0.66858 -1.4745 0
M  V30 5357 H 537.562 3.75666 -1.50523 0
M  V30 5358 H 536.132 3.04218 -0.719036 0
M  V30 5359 H 535.352 2.40662 -3.12211 0
M  V30 5360 H 536.64 3.46334 -3.72734 0
M  V30 5361 H 536.038 5.50791 -1.2902 0
M  V30 5362 H 534.595 6.24752 -1.85819 0
M  V30 5363 N 538.028 1.39524 0.732853 0
M  V30 5364 C 539.439 1.32905 1.31122 0
M  V30 5365 C 539.79 -0.00558708 1.96199 0
M  V30 5366 O 538.915 -0.907706 1.96443 0
M  V30 5367 C 539.51 2.40704 2.38426 0
M  V30 5368 C 538.069 2.37599 2.91931 0
M  V30 5369 C 537.216 2.2248 1.65523 0
M  V30 5370 H 540.167 1.49581 0.530207 0
M  V30 5371 H 540.188 2.07616 3.18867 0
M  V30 5372 H 539.7 3.37829 1.91033 0
M  V30 5373 H 537.801 1.44119 3.43599 0
M  V30 5374 H 537.914 3.32538 3.44899 0
M  V30 5375 H 536.278 1.69691 1.8994 0
M  V30 5376 H 537.061 3.21577 1.20178 0
M  V30 5377 N 539.506 -0.963266 1.24736 0
M  V30 5378 C 540.754 -1.70343 1.08755 0
M  V30 5379 C 541.075 -1.91387 -0.373619 0
M  V30 5380 O 540.345 -1.4948 -1.2662 0
M  V30 5381 H 538.925 -0.631224 0.399456 0
M  V30 5382 H 541.587 -1.15859 1.56725 0
M  V30 5383 H 540.683 -2.68616 1.58909 0
M  V30 5384 N 540.985 -1.06182 -1.16461 0
M  V30 5385 C 542.21 -0.798599 -1.91408 0
M  V30 5386 C 542.635 0.640987 -1.76842 0
M  V30 5387 O 541.993 1.44652 -1.09296 0
M  V30 5388 C 542.041 -1.19665 -3.40165 0
M  V30 5389 O 541.145 -0.334768 -4.11039 0
M  V30 5390 H 540.486 -0.291961 -0.596368 0
M  V30 5391 H 543.016 -1.41732 -1.47557 0
M  V30 5392 H 543.026 -1.16772 -3.90933 0
M  V30 5393 H 541.701 -2.24526 -3.50087 0
M  V30 5394 H 540.278 -0.425168 -3.70468 0
M  V30 5395 N 542.463 1.3308 -0.844243 0
M  V30 5396 C 543.396 2.27075 -0.226279 0
M  V30 5397 C 544.374 1.49911 0.629716 0
M  V30 5398 O 545.558 1.79068 0.588803 0
M  V30 5399 C 542.685 3.31767 0.681782 0
M  V30 5400 C 541.731 4.26384 -0.0994565 0
M  V30 5401 S 542.564 5.15186 -1.46094 0
M  V30 5402 C 543.72 6.23405 -0.558319 0
M  V30 5403 H 543.953 2.79141 -1.02312 0
M  V30 5404 H 541.486 1.40452 -0.641292 0
M  V30 5405 H 543.444 3.92566 1.20008 0
M  V30 5406 H 542.105 2.78507 1.45234 0
M  V30 5407 H 541.298 5.00514 0.591733 0
M  V30 5408 H 540.9 3.69949 -0.548991 0
M  V30 5409 H 543.192 6.77069 0.241672 0
M  V30 5410 H 544.135 6.96619 -1.26995 0
M  V30 5411 H 544.543 5.64333 -0.13728 0
M  V30 5412 N 543.941 0.601185 1.45683 0
M  V30 5413 C 545.166 0.0982245 2.07167 0
M  V30 5414 C 545.591 -1.20546 1.44396 0
M  V30 5415 O 544.949 -1.73247 0.534347 0
M  V30 5416 C 544.997 -0.0346976 3.60583 0
M  V30 5417 O 544.101 -1.08657 3.97828 0
M  V30 5418 H 543.442 0.0711618 0.660176 0
M  V30 5419 H 545.972 0.829376 1.87036 0
M  V30 5420 H 545.982 -0.234969 4.07323 0
M  V30 5421 H 544.657 0.917265 4.05659 0
M  V30 5422 H 543.234 -0.863275 3.6277 0
M  V30 5423 N 545.419 -1.53889 0.339982 0
M  V30 5424 C 546.649 -2.04973 -0.258738 0
M  V30 5425 C 547.057 -1.21485 -1.45045 0
M  V30 5426 O 546.4 -0.2422 -1.82096 0
M  V30 5427 C 546.462 -3.51783 -0.740853 0
M  V30 5428 C 546.126 -4.55802 0.330734 0
M  V30 5429 C 547.123 -5.06512 1.17226 0
M  V30 5430 C 544.808 -4.99966 0.483637 0
M  V30 5431 C 546.802 -5.99963 2.15227 0
M  V30 5432 C 544.489 -5.93229 1.46704 0
M  V30 5433 C 545.487 -6.43115 2.29981 0
M  V30 5434 O 545.175 -7.34545 3.26649 0
M  V30 5435 H 544.907 -0.673807 -0.0544037 0
M  V30 5436 H 547.461 -1.99492 0.489107 0
M  V30 5437 H 545.691 -3.54717 -1.53988 0
M  V30 5438 H 547.38 -3.85857 -1.25973 0
M  V30 5439 H 548.146 -4.73158 1.0652 0
M  V30 5440 H 544.025 -4.6074 -0.15471 0
M  V30 5441 H 547.569 -6.38825 2.80265 0
M  V30 5442 H 543.466 -6.25998 1.57468 0
M  V30 5443 H 544.234 -7.52468 3.22078 0
M  V30 5444 N 546.897 -0.0685191 -1.57451 0
M  V30 5445 C 548.122 0.613919 -1.98106 0
M  V30 5446 C 548.547 1.62551 -0.946501 0
M  V30 5447 O 547.905 1.81085 0.0882824 0
M  V30 5448 C 547.953 1.26189 -3.378 0
M  V30 5449 O 547.057 2.37773 -3.36954 0
M  V30 5450 H 546.398 0.158163 -0.644888 0
M  V30 5451 H 548.928 -0.142063 -2.04106 0
M  V30 5452 H 548.938 1.60951 -3.74912 0
M  V30 5453 H 547.613 0.520625 -4.12629 0
M  V30 5454 H 546.19 2.04829 -3.11608 0
M  V30 5455 N 548.375 1.56261 0.205012 0
M  V30 5456 C 549.603 1.84141 0.943386 0
M  V30 5457 C 550.018 0.649772 1.77266 0
M  V30 5458 O 549.375 -0.381612 1.78466 0
M  V30 5459 C 549.426 3.10719 1.84759 0
M  V30 5460 O 549.147 4.25286 1.05181 0
M  V30 5461 C 550.648 3.51706 2.69848 0
M  V30 5462 H 547.868 0.611734 0.275721 0
M  V30 5463 H 550.412 2.03364 0.215253 0
M  V30 5464 H 548.567 2.93422 2.52947 0
M  V30 5465 H 548.981 4.97301 1.66709 0
M  V30 5466 H 550.455 4.43266 3.28967 0
M  V30 5467 H 550.932 2.7423 3.43067 0
M  V30 5468 H 551.538 3.71499 2.07047 0
M  V30 5469 N 549.853 -0.472356 1.50355 0
M  V30 5470 C 550.783 -1.57859 1.72055 0
M  V30 5471 C 551.764 -1.60283 0.569505 0
M  V30 5472 O 552.949 -1.7657 0.808503 0
M  V30 5473 C 550.079 -2.96191 1.81351 0
M  V30 5474 C 549.033 -3.08633 2.96529 0
M  V30 5475 C 548.359 -4.486 2.90968 0
M  V30 5476 C 549.659 -2.85969 4.37057 0
M  V30 5477 H 551.353 -1.39953 2.64676 0
M  V30 5478 H 548.899 -0.671846 1.27367 0
M  V30 5479 H 550.852 -3.73507 1.95117 0
M  V30 5480 H 549.576 -3.15251 0.853502 0
M  V30 5481 H 548.235 -2.33749 2.82413 0
M  V30 5482 H 547.883 -4.64577 1.92815 0
M  V30 5483 H 547.583 -4.57861 3.68289 0
M  V30 5484 H 549.107 -5.27938 3.0678 0
M  V30 5485 H 550.521 -3.53036 4.51706 0
M  V30 5486 H 548.918 -3.06677 5.15819 0
M  V30 5487 H 549.988 -1.81838 4.49514 0
M  V30 5488 N 551.331 -1.39911 -0.725443 0
M  V30 5489 C 552.559 -1.40949 -1.51463 0
M  V30 5490 C 552.974 -0.0065242 -1.88799 0
M  V30 5491 O 552.331 0.967163 -1.54765 0
M  V30 5492 C 552.382 -2.29119 -2.79619 0
M  V30 5493 O 552.103 -3.63952 -2.43866 0
M  V30 5494 C 553.604 -2.38642 -3.73584 0
M  V30 5495 H 550.824 -0.481091 -0.467752 0
M  V30 5496 H 553.368 -1.83843 -0.895651 0
M  V30 5497 H 551.523 -1.89612 -3.37826 0
M  V30 5498 H 551.937 -4.10677 -3.26258 0
M  V30 5499 H 553.411 -3.04563 -4.60375 0
M  V30 5500 H 553.888 -1.40846 -4.16004 0
M  V30 5501 H 554.494 -2.78659 -3.21293 0
M  V30 5502 N 552.809 0.956637 -1.25245 0
M  V30 5503 C 553.772 2.03457 -1.05537 0
M  V30 5504 C 554.772 1.60798 -0.00886317 0
M  V30 5505 O 555.962 1.72384 -0.250865 0
M  V30 5506 C 553.094 3.35543 -0.601965 0
M  V30 5507 H 554.287 2.22372 -2.01223 0
M  V30 5508 H 551.84 1.13344 -1.07623 0
M  V30 5509 H 552.575 3.22323 0.357584 0
M  V30 5510 H 552.36 3.67854 -1.35743 0
M  V30 5511 H 553.85 4.14769 -0.485454 0
M  V30 5512 N 554.287 1.06798 1.15896 0
M  V30 5513 C 555.217 0.704677 2.22613 0
M  V30 5514 C 556.198 -0.305252 1.67339 0
M  V30 5515 O 557.383 -0.179247 1.93371 0
M  V30 5516 C 554.513 0.0957325 3.47168 0
M  V30 5517 C 553.467 1.0322 4.15367 0
M  V30 5518 C 552.793 0.286293 5.33933 0
M  V30 5519 C 554.093 2.36341 4.65768 0
M  V30 5520 H 555.787 1.59688 2.53259 0
M  V30 5521 H 553.333 0.769257 1.21731 0
M  V30 5522 H 555.286 -0.170333 4.21056 0
M  V30 5523 H 554.01 -0.831516 3.15838 0
M  V30 5524 H 552.669 1.28309 3.43413 0
M  V30 5525 H 552.317 -0.644237 4.98857 0
M  V30 5526 H 552.017 0.910436 5.80504 0
M  V30 5527 H 553.541 0.0278938 6.10594 0
M  V30 5528 H 554.955 2.1561 5.31211 0
M  V30 5529 H 553.352 2.94299 5.2298 0
M  V30 5530 H 554.422 2.99047 3.81705 0
M  V30 5531 N 555.766 -1.3263 0.851289 0
M  V30 5532 C 557.177 -1.79653 0.5081 0
M  V30 5533 C 557.528 -1.70327 -0.973815 0
M  V30 5534 O 556.653 -1.25986 -1.75944 0
M  V30 5535 C 557.248 -3.26196 0.915515 0
M  V30 5536 C 555.807 -3.71187 0.624277 0
M  V30 5537 C 554.954 -2.53804 1.11709 0
M  V30 5538 H 557.905 -1.19976 1.03882 0
M  V30 5539 H 557.926 -3.79801 0.230535 0
M  V30 5540 H 557.438 -3.32952 1.99411 0
M  V30 5541 H 555.539 -3.69948 -0.443737 0
M  V30 5542 H 555.652 -4.64132 1.18821 0
M  V30 5543 H 554.016 -2.48964 0.537484 0
M  V30 5544 H 554.799 -2.63315 2.20272 0
M  V30 5545 N 557.244 -0.608902 -1.45362 0
M  V30 5546 C 558.521 -0.0365378 -1.95566 0
M  V30 5547 C 558.901 1.43169 -1.55131 0
M  V30 5548 O 558.249 2.1349 -0.814513 0
M  V30 5549 C 558.459 -0.236026 -3.48201 0
M  V30 5550 C 559.807 -0.117518 -4.24437 0
M  V30 5551 O 560.831 -0.166217 -3.55812 0
M  V30 5552 O 559.69 -0.00372127 -5.465 0
M  V30 5553 H 556.784 0.0349874 -0.82626 0
M  V30 5554 H 559.33 -0.679055 -1.55521 0
M  V30 5555 H 558.102 -1.25569 -3.70605 0
M  V30 5556 H 557.725 0.441691 -3.95139 0
M  V30 5557 N 558.722 1.53707 -0.348139 0
M  V30 5558 C 559.97 2.00591 0.246478 0
M  V30 5559 C 560.291 1.23753 1.50699 0
M  V30 5560 O 559.561 0.345964 1.92821 0
M  V30 5561 H 558.141 0.741053 0.0940679 0
M  V30 5562 H 560.803 1.89139 -0.470354 0
M  V30 5563 H 559.899 3.08297 0.485714 0
M  V30 5564 N 560.2 0.0768682 1.57412 0
M  V30 5565 C 561.428 -0.59997 1.9801 0
M  V30 5566 C 561.843 -1.62842 0.955408 0
M  V30 5567 O 561.2 -1.8241 -0.057314 0
M  V30 5568 C 561.251 -1.26401 3.38681 0
M  V30 5569 O 560.972 -0.276723 4.37225 0
M  V30 5570 C 562.473 -2.0282 3.94182 0
M  V30 5571 H 559.693 -0.162239 0.651091 0
M  V30 5572 H 562.237 0.150771 2.03943 0
M  V30 5573 H 560.392 -1.96581 3.33819 0
M  V30 5574 H 560.806 -0.753744 5.19056 0
M  V30 5575 H 562.28 -2.44667 4.94815 0
M  V30 5576 H 562.757 -2.88678 3.31001 0
M  V30 5577 H 563.363 -1.37496 4.02461 0
M  V30 5578 N 561.678 -1.56367 -0.196722 0
M  V30 5579 C 562.908 -1.84371 -0.932254 0
M  V30 5580 C 563.316 -0.657013 -1.77426 0
M  V30 5581 O 562.659 0.383576 -1.79651 0
M  V30 5582 C 562.721 -3.06454 -1.87952 0
M  V30 5583 C 562.385 -4.40425 -1.21962 0
M  V30 5584 C 563.382 -5.16457 -0.597343 0
M  V30 5585 C 561.067 -4.8716 -1.22396 0
M  V30 5586 C 563.061 -6.37399 0.0117913 0
M  V30 5587 C 560.748 -6.08038 -0.610995 0
M  V30 5588 C 561.746 -6.83 0.00580487 0
M  V30 5589 O 561.434 -8.01589 0.609173 0
M  V30 5590 H 561.166 -0.616377 -0.277589 0
M  V30 5591 H 563.72 -2.04329 -0.209452 0
M  V30 5592 H 561.95 -2.82377 -2.64197 0
M  V30 5593 H 563.639 -3.21118 -2.48271 0
M  V30 5594 H 564.405 -4.81445 -0.586142 0
M  V30 5595 H 560.284 -4.2877 -1.69345 0
M  V30 5596 H 563.828 -6.9585 0.493836 0
M  V30 5597 H 559.725 -6.42519 -0.619693 0
M  V30 5598 H 560.493 -8.16935 0.505919 0
M  V30 5599 N 563.156 0.464375 -1.50603 0
M  V30 5600 C 564.404 1.21356 -1.61608 0
M  V30 5601 C 564.725 1.92329 -0.321643 0
M  V30 5602 O 563.995 1.84403 0.661232 0
M  V30 5603 H 562.575 0.45094 -0.595535 0
M  V30 5604 H 565.237 0.535046 -1.87412 0
M  V30 5605 H 564.333 1.95783 -2.43054 0
M  V30 5606 N 564.634 1.40294 0.718013 0
M  V30 5607 C 565.564 1.43118 1.84498 0
M  V30 5608 C 566.545 0.292403 1.67568 0
M  V30 5609 O 567.73 0.500675 1.87635 0
M  V30 5610 C 564.86 1.29065 3.22427 0
M  V30 5611 C 563.814 2.40521 3.54025 0
M  V30 5612 C 563.14 2.11546 4.91073 0
M  V30 5613 C 564.44 3.82859 3.55269 0
M  V30 5614 H 566.134 2.37432 1.82391 0
M  V30 5615 H 563.68 1.14283 0.87609 0
M  V30 5616 H 565.633 1.29658 4.00957 0
M  V30 5617 H 564.357 0.312271 3.25104 0
M  V30 5618 H 563.016 2.39173 2.77834 0
M  V30 5619 H 562.664 1.12104 4.90348 0
M  V30 5620 H 562.364 2.86216 5.1318 0
M  V30 5621 H 563.888 2.13817 5.71939 0
M  V30 5622 H 565.302 3.86044 4.23843 0
M  V30 5623 H 563.699 4.57029 3.88902 0
M  V30 5624 H 564.769 4.12617 2.54706 0
M  V30 5625 N 566.112 -0.949982 1.2575 0
M  V30 5626 C 567.042 -2.06483 1.09028 0
M  V30 5627 C 568.023 -1.701 -0.00201532 0
M  V30 5628 O 569.208 -1.93469 0.168383 0
M  V30 5629 C 566.338 -3.39899 0.71316 0
M  V30 5630 C 565.292 -3.90309 1.75621 0
M  V30 5631 C 564.618 -5.20274 1.23365 0
M  V30 5632 C 565.918 -4.16169 3.15596 0
M  V30 5633 H 567.612 -2.20731 2.02283 0
M  V30 5634 H 565.158 -1.06066 0.973964 0
M  V30 5635 H 567.111 -4.17346 0.58309 0
M  V30 5636 H 565.835 -3.25602 -0.255091 0
M  V30 5637 H 564.494 -3.15035 1.8748 0
M  V30 5638 H 564.142 -5.02351 0.255491 0
M  V30 5639 H 563.842 -5.54971 1.93082 0
M  V30 5640 H 565.366 -6.00314 1.11607 0
M  V30 5641 H 566.78 -4.84259 3.06864 0
M  V30 5642 H 565.177 -4.62131 3.82825 0
M  V30 5643 H 566.247 -3.22273 3.6231 0
M  V30 5644 N 567.59 -1.07411 -1.15328 0
M  V30 5645 C 568.82 -0.817595 -1.89734 0
M  V30 5646 C 569.228 0.63297 -1.78298 0
M  V30 5647 O 568.571 1.44594 -1.13306 0
M  V30 5648 C 568.633 -1.14748 -3.40695 0
M  V30 5649 C 568.297 -2.59876 -3.75917 0
M  V30 5650 C 569.294 -3.58122 -3.76888 0
M  V30 5651 C 566.979 -2.95469 -4.06206 0
M  V30 5652 C 568.973 -4.89996 -4.07655 0
M  V30 5653 C 566.66 -4.2754 -4.36638 0
M  V30 5654 C 567.658 -5.24614 -4.37344 0
M  V30 5655 O 567.346 -6.54312 -4.67045 0
M  V30 5656 H 567.078 -0.295175 -0.608151 0
M  V30 5657 H 569.632 -1.43409 -1.47048 0
M  V30 5658 H 567.862 -0.47395 -3.83785 0
M  V30 5659 H 569.551 -0.873397 -3.96392 0
M  V30 5660 H 570.317 -3.31966 -3.53587 0
M  V30 5661 H 566.196 -2.20558 -4.04815 0
M  V30 5662 H 569.74 -5.65759 -4.08121 0
M  V30 5663 H 565.637 -4.53449 -4.59407 0
M  V30 5664 H 566.405 -6.59473 -4.84807 0
M  V30 5665 N 569.068 1.32177 -0.85831 0
M  V30 5666 C 569.978 2.32561 -0.308606 0
M  V30 5667 C 570.994 1.64209 0.575462 0
M  V30 5668 O 572.17 1.95719 0.474961 0
M  V30 5669 C 569.235 3.43207 0.490909 0
M  V30 5670 C 568.296 4.27243 -0.419733 0
M  V30 5671 C 567.529 5.32605 0.341719 0
M  V30 5672 O 567.752 5.48332 1.57125 0
M  V30 5673 O 566.686 6.0118 -0.294379 0
M  V30 5674 H 570.512 2.81477 -1.14037 0
M  V30 5675 H 568.097 1.35866 -0.621349 0
M  V30 5676 H 569.979 4.10677 0.944574 0
M  V30 5677 H 568.654 2.96474 1.29941 0
M  V30 5678 H 567.561 3.62569 -0.921652 0
M  V30 5679 H 568.894 4.7751 -1.19352 0
M  V30 5680 N 570.547 0.616602 1.45037 0
M  V30 5681 C 571.958 0.199359 1.85633 0
M  V30 5682 C 572.309 -1.24588 1.51566 0
M  V30 5683 O 571.434 -1.94594 0.94668 0
M  V30 5684 C 572.029 0.355033 3.36935 0
M  V30 5685 C 570.588 -0.00758748 3.76399 0
M  V30 5686 C 569.735 0.675256 2.68953 0
M  V30 5687 H 572.686 0.822708 1.3571 0
M  V30 5688 H 572.707 -0.410201 3.78282 0
M  V30 5689 H 572.219 1.40699 3.61698 0
M  V30 5690 H 570.32 -1.05837 3.57252 0
M  V30 5691 H 570.433 0.392346 4.77491 0
M  V30 5692 H 568.797 0.111992 2.54454 0
M  V30 5693 H 569.58 1.72952 2.96551 0
M  V30 5694 N 572.025 -1.5352 0.356285 0
M  V30 5695 C 573.273 -2.00719 -0.235837 0
M  V30 5696 C 573.594 -1.24551 -1.5004 0
M  V30 5697 O 572.864 -0.356185 -1.92635 0
M  V30 5698 H 571.444 -0.741542 -0.0901366 0
M  V30 5699 H 574.106 -1.88887 0.480378 0
M  V30 5700 H 573.202 -3.08551 -0.469357 0
M  V30 5701 N 573.503 -0.0852151 -1.57369 0
M  V30 5702 C 574.731 0.58946 -1.98325 0
M  V30 5703 C 575.146 1.62333 -0.96403 0
M  V30 5704 O 574.503 1.82438 0.0476395 0
M  V30 5705 C 574.554 1.24604 -3.39347 0
M  V30 5706 O 574.275 0.253532 -4.37366 0
M  V30 5707 C 575.776 2.00726 -3.95252 0
M  V30 5708 H 572.996 0.158783 -0.651942 0
M  V30 5709 H 575.54 -0.161584 -2.03861 0
M  V30 5710 H 573.695 1.94808 -3.34856 0
M  V30 5711 H 574.109 0.726207 -5.19448 0
M  V30 5712 H 575.583 2.42039 -4.96106 0
M  V30 5713 H 576.06 2.86919 -3.32527 0
M  V30 5714 H 576.666 1.3536 -4.03185 0
M  V30 5715 N 574.981 1.5647 0.188427 0
M  V30 5716 C 576.229 1.80655 0.905986 0
M  V30 5717 C 576.55 0.659391 1.83513 0
M  V30 5718 O 575.82 -0.321868 1.93238 0
M  V30 5719 H 574.4 0.666391 0.337538 0
M  V30 5720 H 577.062 1.93949 0.192339 0
M  V30 5721 H 576.158 2.74066 1.49313 0
M  V30 5722 N 576.459 -0.456382 1.50847 0
M  V30 5723 C 577.708 -1.2042 1.61808 0
M  V30 5724 C 578.021 -1.9278 0.330932 0
M  V30 5725 O 579.227 -2.69612 0.319643 0
M  V30 5726 C 577.683 -2.18891 2.85683 0
M  V30 5727 C 577.291 -1.52267 4.2133 0
M  V30 5728 C 579.035 -2.94224 3.05994 0
M  V30 5729 C 576.942 -2.4911 5.36375 0
M  V30 5730 H 575.872 -0.453177 0.602616 0
M  V30 5731 H 578.523 -0.473144 1.77295 0
M  V30 5732 H 576.905 -2.95351 2.63787 0
M  V30 5733 H 578.079 -0.814949 4.53536 0
M  V30 5734 H 576.394 -0.891594 4.06743 0
M  V30 5735 H 578.991 -3.66732 3.89117 0
M  V30 5736 H 579.334 -3.54469 2.18306 0
M  V30 5737 H 579.867 -2.24874 3.28141 0
M  V30 5738 H 576.606 -1.93582 6.26264 0
M  V30 5739 H 576.126 -3.17991 5.08569 0
M  V30 5740 H 577.805 -3.10637 5.67551 0
M  V30 5741 N 577.937 -1.40673 -0.710563 0
M  V30 5742 C 579.353 -1.22813 -1.01928 0
M  V30 5743 C 579.553 -0.10687 -2.01216 0
M  V30 5744 O 578.609 0.533614 -2.46797 0
M  V30 5745 C 579.922 -2.57178 -1.5582 0
M  V30 5746 C 581.47 -2.64233 -1.67779 0
M  V30 5747 C 581.945 -3.98879 -2.25076 0
M  V30 5748 N 583.436 -4.00647 -2.32456 0
M  V30 5749 C 584.171 -5.01621 -2.77784 0
M  V30 5750 N 583.667 -6.12989 -3.22826 0
M  V30 5751 N 585.46 -4.88988 -2.77213 0
M  V30 5752 H 577.611 -2.12335 -0.05253 0
M  V30 5753 H 579.874 -0.9441 -0.085898 0
M  V30 5754 H 579.58 -3.39903 -0.903249 0
M  V30 5755 H 579.454 -2.78618 -2.54267 0
M  V30 5756 H 581.841 -1.81876 -2.3239 0
M  V30 5757 H 581.922 -2.46619 -0.679178 0
M  V30 5758 H 581.566 -4.81678 -1.61086 0
M  V30 5759 H 581.496 -4.13826 -3.25661 0
M  V30 5760 H 583.987 -3.20231 -2.0065 0
M  V30 5761 H 584.3 -6.85921 -3.55995 0
M  V30 5762 H 582.645 -6.16547 -3.20773 0
M  V30 5763 H 585.836 -4.01075 -2.41363 0
M  V30 5764 H 586.009 -5.67822 -3.12221 0
M  V30 5765 N 579.415 0.9433 -1.26252 0
M  V30 5766 C 580.645 1.72117 -1.14277 0
M  V30 5767 C 581.053 1.86726 0.304944 0
M  V30 5768 O 580.396 1.3727 1.22076 0
M  V30 5769 C 580.458 3.14778 -1.73651 0
M  V30 5770 C 580.122 3.23561 -3.22734 0
M  V30 5771 C 581.119 3.07001 -4.19579 0
M  V30 5772 C 578.804 3.47019 -3.63157 0
M  V30 5773 C 580.798 3.13763 -5.54826 0
M  V30 5774 C 578.485 3.53416 -4.98538 0
M  V30 5775 C 579.483 3.36804 -5.94182 0
M  V30 5776 O 579.171 3.42906 -7.27098 0
M  V30 5777 H 578.903 0.545781 -0.398873 0
M  V30 5778 H 581.457 1.19123 -1.67328 0
M  V30 5779 H 579.687 3.69186 -1.1506 0
M  V30 5780 H 581.376 3.74469 -1.56613 0
M  V30 5781 H 582.142 2.88736 -3.89688 0
M  V30 5782 H 578.021 3.59006 -2.89199 0
M  V30 5783 H 581.565 3.00714 -6.29458 0
M  V30 5784 H 577.462 3.71201 -5.28091 0
M  V30 5785 H 578.23 3.59463 -7.35342 0
M  V30 5786 N 580.893 1.08022 1.14757 0
M  V30 5787 C 581.856 0.71048 2.1791 0
M  V30 5788 C 582.856 -0.252731 1.58801 0
M  V30 5789 O 584.046 -0.0327915 1.74169 0
M  V30 5790 C 581.178 0.0483203 3.40866 0
M  V30 5791 H 582.371 1.62384 2.52134 0
M  V30 5792 H 579.924 0.877595 1.29337 0
M  V30 5793 H 580.659 -0.876959 3.12218 0
M  V30 5794 H 580.444 0.741189 3.85031 0
M  V30 5795 H 581.934 -0.195471 4.17142 0
M  V30 5796 N 582.371 -1.3172 0.865308 0
M  V30 5797 C 583.319 -2.30569 0.306674 0
M  V30 5798 C 584.313 -1.59317 -0.575724 0
M  V30 5799 O 585.519 -1.73961 -0.462343 0
M  V30 5800 H 581.894 -0.747681 0.0804834 0
M  V30 5801 H 583.865 -2.75165 1.15441 0
M  V30 5802 C 582.614 -3.44358 -0.480952 0
M  V30 5803 H 581.937 -3.99354 0.18876 0
M  V30 5804 H 583.377 -4.15652 -0.837241 0
M  V30 5805 C 581.836 -2.92574 -1.67039 0
M  V30 5806 O 582.366 -2.90954 -2.76964 0
M  V30 5807 N 580.572 -2.48835 -1.50097 0
M  V30 5808 H 580.119 -2.50353 -0.606738 0
M  V30 5809 H 580.077 -2.14543 -2.29823 0
M  V30 5810 N 583.85 -0.624285 -1.44708 0
M  V30 5811 C 585.096 -0.126051 -2.02107 0
M  V30 5812 C 585.425 1.2496 -1.49048 0
M  V30 5813 O 584.68 1.84163 -0.662005 0
M  V30 5814 C 584.979 -0.0546353 -3.57358 0
M  V30 5815 C 584.644 -1.36815 -4.29642 0
M  V30 5816 C 583.307 -1.72792 -4.49106 0
M  V30 5817 C 585.659 -2.23549 -4.70824 0
M  V30 5818 C 582.986 -2.95222 -5.07012 0
M  V30 5819 C 585.339 -3.45243 -5.30085 0
M  V30 5820 C 584.003 -3.81452 -5.47769 0
M  V30 5821 H 583.273 -0.0461252 -0.739563 0
M  V30 5822 H 585.92 -0.809236 -1.73562 0
M  V30 5823 H 584.225 0.711891 -3.85278 0
M  V30 5824 H 585.922 0.347282 -3.99493 0
M  V30 5825 H 582.512 -1.07817 -4.14817 0
M  V30 5826 H 586.696 -1.9705 -4.55505 0
M  V30 5827 H 581.952 -3.23361 -5.18891 0
M  V30 5828 H 586.125 -4.12689 -5.60946 0
M  V30 5829 H 583.753 -4.76403 -5.92405 0
M  V30 5830 N 585.328 1.53329 -0.364422 0
M  V30 5831 C 586.276 2.27212 0.497737 0
M  V30 5832 C 587.27 1.30146 1.08437 0
M  V30 5833 O 588.476 1.47778 1.0277 0
M  V30 5834 H 584.851 0.730329 0.179232 0
M  V30 5835 H 586.822 2.98037 -0.147182 0
M  V30 5836 C 585.571 3.07333 1.6261 0
M  V30 5837 H 584.894 3.81866 1.184 0
M  V30 5838 H 586.334 3.62209 2.20409 0
M  V30 5839 C 584.793 2.18102 2.56775 0
M  V30 5840 O 585.323 1.79104 3.59562 0
M  V30 5841 N 583.529 1.82759 2.25937 0
M  V30 5842 H 583.076 2.14671 1.42387 0
M  V30 5843 H 583.034 1.23342 2.89196 0
M  V30 5844 N 586.806 0.0935595 1.57322 0
M  V30 5845 C 587.736 -0.863062 2.16964 0
M  V30 5846 C 588.717 -1.29528 1.10256 0
M  V30 5847 O 589.902 -1.36245 1.38387 0
M  V30 5848 C 587.032 -2.12276 2.74875 0
M  V30 5849 C 585.986 -1.82921 3.86942 0
M  V30 5850 C 585.312 -3.15707 4.31548 0
M  V30 5851 C 586.612 -1.11737 5.10208 0
M  V30 5852 H 588.306 -0.366145 2.97153 0
M  V30 5853 H 585.852 -0.174673 1.42937 0
M  V30 5854 H 587.805 -2.79634 3.1525 0
M  V30 5855 H 586.529 -2.64248 1.91938 0
M  V30 5856 H 585.188 -1.17961 3.47103 0
M  V30 5857 H 584.836 -3.65563 3.45504 0
M  V30 5858 H 584.536 -2.96849 5.07104 0
M  V30 5859 H 586.06 -3.84226 4.74555 0
M  V30 5860 H 587.474 -1.69203 5.47762 0
M  V30 5861 H 585.871 -1.03064 5.91183 0
M  V30 5862 H 586.941 -0.0998818 4.84797 0
M  V30 5863 N 588.284 -1.56567 -0.180126 0
M  V30 5864 C 589.247 -1.94852 -1.20686 0
M  V30 5865 C 590.247 -0.831212 -1.3765 0
M  V30 5866 O 591.437 -1.09841 -1.35206 0
M  V30 5867 C 588.569 -2.23565 -2.57355 0
M  V30 5868 H 589.762 -2.86722 -0.879225 0
M  V30 5869 H 587.315 -1.50489 -0.422237 0
M  V30 5870 H 588.05 -1.34381 -2.95148 0
M  V30 5871 H 587.835 -3.04999 -2.46411 0
M  V30 5872 H 589.325 -2.54137 -3.31367 0
M  V30 5873 N 589.762 0.448376 -1.51087 0
M  V30 5874 C 591.008 1.19748 -1.64414 0
M  V30 5875 C 591.363 1.89177 -0.350715 0
M  V30 5876 O 590.656 1.80135 0.652834 0
M  V30 5877 C 590.85 2.24866 -2.77795 0
M  V30 5878 C 590.679 1.65753 -4.18038 0
M  V30 5879 C 589.449 1.44728 -4.8413 0
M  V30 5880 C 591.647 1.13985 -5.0151 0
M  V30 5881 N 589.629 0.810962 -6.0852 0
M  V30 5882 C 591 0.628141 -6.1681 0
M  V30 5883 C 593.055 1.03055 -4.87118 0
M  V30 5884 C 591.758 0.0178906 -7.19298 0
M  V30 5885 C 593.784 0.434212 -5.89804 0
M  V30 5886 C 593.146 -0.0670069 -7.04368 0
M  V30 5887 H 589.245 0.426254 -0.655615 0
M  V30 5888 H 591.829 0.495806 -1.88281 0
M  V30 5889 H 590 2.92434 -2.55611 0
M  V30 5890 H 591.732 2.91857 -2.8036 0
M  V30 5891 H 588.487 1.70593 -4.41809 0
M  V30 5892 H 588.911 0.510563 -6.75072 0
M  V30 5893 H 593.553 1.40395 -3.9881 0
M  V30 5894 H 591.271 -0.367662 -8.07263 0
M  V30 5895 H 594.857 0.3517 -5.80736 0
M  V30 5896 H 593.737 -0.521209 -7.82466 0
M  V30 5897 N 591.24 1.41047 0.703093 0
M  V30 5898 C 592.17 1.45067 1.82969 0
M  V30 5899 C 593.151 0.31016 1.67248 0
M  V30 5900 O 594.336 0.520548 1.87093 0
M  V30 5901 C 591.466 1.32478 3.2104 0
M  V30 5902 C 590.42 2.44262 3.51454 0
M  V30 5903 C 589.746 2.16742 4.88801 0
M  V30 5904 C 591.046 3.86606 3.51189 0
M  V30 5905 H 592.74 2.39353 1.79863 0
M  V30 5906 H 590.286 1.15206 0.863919 0
M  V30 5907 H 592.239 1.33904 3.99559 0
M  V30 5908 H 590.963 0.346735 3.24754 0
M  V30 5909 H 589.622 2.42107 2.75282 0
M  V30 5910 H 589.27 1.17299 4.89132 0
M  V30 5911 H 588.97 2.91643 5.10116 0
M  V30 5912 H 590.494 2.19872 5.69639 0
M  V30 5913 H 591.908 3.90517 4.19725 0
M  V30 5914 H 590.305 4.61128 3.84033 0
M  V30 5915 H 591.375 4.15296 2.50315 0
M  V30 5916 N 592.718 -0.936591 1.26751 0
M  V30 5917 C 593.966 -1.67998 1.12343 0
M  V30 5918 C 594.287 -1.92137 -0.332938 0
M  V30 5919 O 593.557 -1.52132 -1.23421 0
M  V30 5920 H 592.137 -0.622609 0.412756 0
M  V30 5921 H 594.799 -1.12509 1.59147 0
M  V30 5922 H 593.895 -2.65185 1.64571 0
M  V30 5923 N 594.196 -1.08629 -1.14182 0
M  V30 5924 C 595.444 -0.815731 -1.84906 0
M  V30 5925 C 595.765 0.660441 -1.83475 0
M  V30 5926 O 595.035 1.47888 -1.28476 0
M  V30 5927 H 593.615 -0.298773 -0.684648 0
M  V30 5928 H 596.277 -1.37274 -1.38354 0
M  V30 5929 H 595.373 -1.16193 -2.89665 0
M  V30 5930 N 595.674 1.31259 -0.872281 0
M  V30 5931 C 596.923 1.95893 -0.480493 0
M  V30 5932 C 597.236 1.697 0.972688 0
M  V30 5933 O 598.442 2.28214 1.47073 0
M  V30 5934 C 596.898 3.50705 -0.808342 0
M  V30 5935 C 596.506 3.85735 -2.27844 0
M  V30 5936 C 598.25 4.21719 -0.485136 0
M  V30 5937 C 596.157 5.33668 -2.54858 0
M  V30 5938 H 595.087 0.733182 -0.175955 0
M  V30 5939 H 597.738 1.49396 -1.0655 0
M  V30 5940 H 596.12 3.95706 -0.152558 0
M  V30 5941 H 597.294 3.51686 -2.97748 0
M  V30 5942 H 595.609 3.27792 -2.56791 0
M  V30 5943 H 598.206 5.30559 -0.664166 0
M  V30 5944 H 598.549 4.12316 0.574592 0
M  V30 5945 H 599.082 3.82359 -1.09756 0
M  V30 5946 H 595.821 5.48109 -3.59523 0
M  V30 5947 H 595.341 5.69061 -1.8955 0
M  V30 5948 H 597.02 6.00958 -2.39706 0
M  V30 5949 N 597.152 0.631951 1.44375 0
M  V30 5950 C 598.392 0.14009 2.03919 0
M  V30 5951 C 598.756 -1.21534 1.48639 0
M  V30 5952 O 599.957 -1.79936 1.99691 0
M  V30 5953 C 598.228 0.127174 3.57174 0
M  V30 5954 S 599.787 -0.299946 4.37774 0
M  V30 5955 H 596.605 0.0614891 0.708336 0
M  V30 5956 H 599.207 0.835524 1.76746 0
M  V30 5957 H 597.911 1.11676 3.94913 0
M  V30 5958 H 597.442 -0.589482 3.88958 0
M  V30 5959 H 599.457 -1.54396 4.71568 0
M  V30 5960 N 598.631 -1.53133 0.372548 0
M  V30 5961 C 599.594 -2.24569 -0.458389 0
M  V30 5962 C 600.594 -1.25603 -1.00402 0
M  V30 5963 O 601.784 -1.49827 -0.888672 0
M  V30 5964 C 598.916 -2.98783 -1.6414 0
M  V30 5965 H 600.109 -2.99436 0.166799 0
M  V30 5966 H 597.662 -1.55805 0.124357 0
M  V30 5967 H 598.397 -2.28176 -2.30448 0
M  V30 5968 H 598.182 -3.71404 -1.25704 0
M  V30 5969 H 599.672 -3.53068 -2.23008 0
M  V30 5970 N 600.109 -0.101901 -1.5727 0
M  V30 5971 C 601.52 0.426173 -1.81771 0
M  V30 5972 C 601.871 1.67725 -1.01797 0
M  V30 5973 O 600.996 2.14958 -0.249386 0
M  V30 5974 C 601.591 0.779962 -3.297 0
M  V30 5975 C 600.15 1.25275 -3.54941 0
M  V30 5976 C 599.297 0.252814 -2.76145 0
M  V30 5977 H 602.248 -0.32726 -1.55289 0
M  V30 5978 H 602.269 1.63891 -3.43395 0
M  V30 5979 H 601.781 -0.130778 -3.8788 0
M  V30 5980 H 599.882 2.18097 -3.021 0
M  V30 5981 H 599.995 1.20988 -4.63572 0
M  V30 5982 H 598.359 0.736362 -2.43823 0
M  V30 5983 H 599.142 -0.650724 -3.37076 0
M  V30 5984 N 601.587 1.56661 0.17182 0
M  V30 5985 C 602.834 1.81965 0.888529 0
M  V30 5986 C 603.162 0.6789 1.82267 0
M  V30 5987 O 602.417 -0.333875 1.92831 0
M  V30 5988 C 602.716 3.13435 1.71736 0
M  V30 5989 C 602.382 4.41159 0.932184 0
M  V30 5990 C 601.044 4.75851 0.715481 0
M  V30 5991 C 603.396 5.19803 0.381387 0
M  V30 5992 C 600.724 5.86666 -0.063126 0
M  V30 5993 C 603.076 6.31433 -0.384129 0
M  V30 5994 C 601.74 6.64692 -0.611637 0
M  V30 5995 H 601.01 0.665859 0.325136 0
M  V30 5996 H 603.657 1.90884 0.153495 0
M  V30 5997 H 601.962 2.99857 2.52177 0
M  V30 5998 H 603.659 3.30224 2.27493 0
M  V30 5999 H 600.249 4.13947 1.11112 0
M  V30 6000 H 604.433 4.93396 0.536148 0
M  V30 6001 H 599.689 6.10892 -0.249136 0
M  V30 6002 H 603.863 6.91577 -0.818185 0
M  V30 6003 H 601.49 7.50398 -1.21684 0
M  V30 6004 N 603.065 -0.440357 1.51323 0
M  V30 6005 C 604.293 -1.21255 1.67645 0
M  V30 6006 C 604.708 -1.85088 0.37252 0
M  V30 6007 O 604.065 -1.70582 -0.648683 0
M  V30 6008 C 604.116 -2.29881 2.78993 0
M  V30 6009 O 603.837 -1.68659 4.04334 0
M  V30 6010 C 605.338 -3.20214 3.06558 0
M  V30 6011 H 602.558 -0.36558 0.562666 0
M  V30 6012 H 605.102 -0.52214 1.97722 0
M  V30 6013 H 603.257 -2.94643 2.51524 0
M  V30 6014 H 603.671 -2.40426 4.6615 0
M  V30 6015 H 605.145 -3.92575 3.88058 0
M  V30 6016 H 605.622 -3.80794 2.18844 0
M  V30 6017 H 606.228 -2.61156 3.35675 0
M  V30 6018 N 604.543 -1.41418 -0.695603 0
M  V30 6019 C 605.792 -1.40073 -1.4513 0
M  V30 6020 C 606.105 -0.0130439 -1.95596 0
M  V30 6021 O 607.311 0.123032 -2.71221 0
M  V30 6022 C 605.767 -2.46286 -2.62433 0
M  V30 6023 C 605.375 -3.90962 -2.18753 0
M  V30 6024 C 607.119 -2.54077 -3.40066 0
M  V30 6025 C 605.026 -4.88728 -3.33015 0
M  V30 6026 H 603.956 -0.520903 -0.545138 0
M  V30 6027 H 606.607 -1.67242 -0.75515 0
M  V30 6028 H 604.989 -2.12248 -3.34315 0
M  V30 6029 H 606.163 -4.34248 -1.54161 0
M  V30 6030 H 604.478 -3.86831 -1.54114 0
M  V30 6031 H 607.075 -3.24303 -4.25125 0
M  V30 6032 H 607.418 -1.5776 -3.8525 0
M  V30 6033 H 607.951 -2.87206 -2.75241 0
M  V30 6034 H 604.69 -5.86449 -2.92844 0
M  V30 6035 H 604.21 -4.50091 -3.96457 0
M  V30 6036 H 605.889 -5.09483 -3.98793 0
M  V30 6037 N 606.021 0.929856 -1.27246 0
M  V30 6038 C 607.432 1.49223 -1.12203 0
M  V30 6039 C 607.783 1.93989 0.293731 0
M  V30 6040 O 606.908 1.80978 1.18642 0
M  V30 6041 C 607.503 2.71198 -2.0307 0
M  V30 6042 C 606.062 3.23666 -1.92139 0
M  V30 6043 C 605.209 1.96409 -1.95752 0
M  V30 6044 H 608.16 0.744181 -1.4017 0
M  V30 6045 H 608.181 3.45905 -1.58524 0
M  V30 6046 H 607.693 2.38585 -3.06102 0
M  V30 6047 H 605.794 3.61042 -0.920834 0
M  V30 6048 H 605.907 3.90006 -2.78267 0
M  V30 6049 H 604.271 2.12806 -1.39949 0
M  V30 6050 H 605.054 1.66113 -3.00436 0
M  V30 6051 N 607.499 1.09233 1.13605 0
M  V30 6052 C 608.776 0.739633 1.81077 0
M  V30 6053 C 609.156 -0.775595 1.96336 0
M  V30 6054 O 608.504 -1.69726 1.52988 0
M  V30 6055 C 608.714 1.47636 3.16235 0
M  V30 6056 C 610.062 1.64087 3.91613 0
M  V30 6057 O 611.086 1.43871 3.25852 0
M  V30 6058 O 609.945 1.97511 5.0956 0
M  V30 6059 H 607.039 0.265464 0.783236 0
M  V30 6060 H 609.585 1.19441 1.20549 0
M  V30 6061 H 608.357 2.50818 3.00344 0
M  V30 6062 H 607.98 1.01362 3.84462 0
M  V30 6063 N 608.977 -1.30795 0.87923 0
M  V30 6064 C 610.223 -1.96653 0.495519 0
M  V30 6065 C 610.556 -1.69282 -0.951703 0
M  V30 6066 O 609.831 -0.994374 -1.6716 0
M  V30 6067 C 610.114 -3.51898 0.764174 0
M  V30 6068 C 609.967 -3.88808 2.2616 0
M  V30 6069 C 611.286 -4.39462 0.236825 0
M  V30 6070 H 608.405 -0.7143 0.181507 0
M  V30 6071 H 611.047 -1.54765 1.10217 0
M  V30 6072 H 609.197 -3.87709 0.247841 0
M  V30 6073 H 610.869 -3.63051 2.8459 0
M  V30 6074 H 609.112 -3.37082 2.73053 0
M  V30 6075 H 609.783 -4.97086 2.4002 0
M  V30 6076 H 612.259 -4.10528 0.678683 0
M  V30 6077 H 611.135 -5.47018 0.454176 0
M  V30 6078 H 611.396 -4.33621 -0.861683 0
M  V30 6079 N 610.455 -0.639598 -1.44038 0
M  V30 6080 C 611.418 0.0506628 -2.29144 0
M  V30 6081 C 612.418 0.764001 -1.41491 0
M  V30 6082 O 613.608 0.607309 -1.63271 0
M  V30 6083 C 610.74 1.0824 -3.2326 0
M  V30 6084 H 611.933 -0.697987 -2.91664 0
M  V30 6085 H 609.486 -0.400146 -1.51091 0
M  V30 6086 H 610.221 1.86075 -2.65606 0
M  V30 6087 H 610.006 0.574725 -3.87865 0
M  V30 6088 H 611.496 1.56487 -3.87171 0
M  V30 6089 N 611.933 1.52934 -0.380664 0
M  V30 6090 C 612.863 2.29118 0.450268 0
M  V30 6091 C 613.844 1.32153 1.07096 0
M  V30 6092 O 615.029 1.61038 1.08537 0
M  V30 6093 C 612.159 3.09161 1.58231 0
M  V30 6094 C 611.113 4.13938 1.0881 0
M  V30 6095 C 610.439 4.82153 2.31155 0
M  V30 6096 C 611.739 5.22048 0.162146 0
M  V30 6097 H 613.433 2.98826 -0.185361 0
M  V30 6098 H 610.979 1.43715 -0.0905886 0
M  V30 6099 H 612.932 3.61211 2.17036 0
M  V30 6100 H 611.656 2.3717 2.2454 0
M  V30 6101 H 610.315 3.62855 0.522633 0
M  V30 6102 H 609.963 4.06719 2.95953 0
M  V30 6103 H 609.663 5.52966 1.98752 0
M  V30 6104 H 611.187 5.37004 2.90618 0
M  V30 6105 H 612.601 5.6951 0.658126 0
M  V30 6106 H 610.998 6.00057 -0.0717122 0
M  V30 6107 H 612.068 4.78398 -0.791438 0
M  V30 6108 N 613.412 0.11024 1.57214 0
M  V30 6109 C 614.322 -0.857077 2.18383 0
M  V30 6110 C 615.338 -1.29915 1.1575 0
M  V30 6111 O 616.514 -1.36394 1.48184 0
M  V30 6112 C 613.579 -2.09264 2.76423 0
M  V30 6113 C 612.64 -1.70333 3.94063 0
M  V30 6114 C 611.873 -2.87999 4.49324 0
M  V30 6115 O 612.096 -4.0317 4.03497 0
M  V30 6116 O 611.03 -2.6559 5.40135 0
M  V30 6117 H 614.856 -0.366561 3.0148 0
M  V30 6118 H 612.441 -0.114914 1.48957 0
M  V30 6119 H 614.323 -2.81644 3.13456 0
M  V30 6120 H 612.998 -2.57339 1.96363 0
M  V30 6121 H 611.905 -0.950864 3.61814 0
M  V30 6122 H 613.238 -1.27007 4.75531 0
M  V30 6123 N 614.89 -1.56749 -0.16351 0
M  V30 6124 C 616.301 -1.72039 -0.725216 0
M  V30 6125 C 616.652 -0.72202 -1.82432 0
M  V30 6126 O 615.777 0.114942 -2.16095 0
M  V30 6127 C 616.372 -3.11932 -1.32227 0
M  V30 6128 C 614.931 -3.28879 -1.83072 0
M  V30 6129 C 614.078 -2.67984 -0.712716 0
M  V30 6130 H 617.029 -1.58579 0.0619772 0
M  V30 6131 H 617.05 -3.11015 -2.19202 0
M  V30 6132 H 616.562 -3.84572 -0.522103 0
M  V30 6133 H 614.663 -2.61209 -2.65708 0
M  V30 6134 H 614.776 -4.36688 -1.97079 0
M  V30 6135 H 613.14 -2.28005 -1.13515 0
M  V30 6136 H 613.923 -3.43216 0.0757361 0
M  V30 6137 N 616.368 0.432326 -1.51554 0
M  V30 6138 C 617.616 1.17901 -1.64146 0
M  V30 6139 C 617.937 1.91604 -0.362367 0
M  V30 6140 O 617.207 1.85764 0.621968 0
M  V30 6141 H 615.787 0.438206 -0.604966 0
M  V30 6142 H 618.449 0.495172 -1.88505 0
M  V30 6143 H 617.545 1.90584 -2.47152 0
M  V30 6144 N 617.846 1.41785 0.688094 0
M  V30 6145 C 618.778 1.40159 1.81351 0
M  V30 6146 C 619.791 0.30262 1.59963 0
M  V30 6147 O 620.98 0.564841 1.69327 0
M  V30 6148 C 618.08 1.16517 3.1824 0
M  V30 6149 C 617.253 2.38597 3.66593 0
M  V30 6150 C 616.312 2.10699 4.82174 0
M  V30 6151 O 615.338 2.83798 4.93404 0
M  V30 6152 N 616.54 1.10187 5.69947 0
M  V30 6153 H 619.305 2.3716 1.83236 0
M  V30 6154 H 616.866 1.36494 0.870697 0
M  V30 6155 H 618.858 0.957941 3.93199 0
M  V30 6156 H 617.428 0.280873 3.11336 0
M  V30 6157 H 616.648 2.74974 2.82459 0
M  V30 6158 H 617.936 3.19919 3.95638 0
M  V30 6159 H 617.334 0.497016 5.63512 0
M  V30 6160 H 615.891 0.954518 6.44773 0
M  V30 6161 N 619.324 -0.923095 1.27737 0
M  V30 6162 C 620.256 -2.02871 1.06658 0
M  V30 6163 C 621.269 -1.62786 0.0212095 0
M  V30 6164 O 622.458 -1.76548 0.263267 0
M  V30 6165 C 619.558 -3.33603 0.59682 0
M  V30 6166 C 618.731 -4.02354 1.71551 0
M  V30 6167 C 617.79 -5.11364 1.24071 0
M  V30 6168 O 616.816 -5.35075 1.94123 0
M  V30 6169 N 618.018 -5.80416 0.0988444 0
M  V30 6170 H 620.783 -2.21515 2.01869 0
M  V30 6171 H 618.344 -1.09378 1.19365 0
M  V30 6172 H 620.336 -4.03845 0.262984 0
M  V30 6173 H 618.906 -3.11499 -0.262187 0
M  V30 6174 H 618.126 -3.25786 2.2194 0
M  V30 6175 H 619.414 -4.45035 2.46619 0
M  V30 6176 H 618.812 -5.63611 -0.485743 0
M  V30 6177 H 617.369 -6.51563 -0.17578 0
M  V30 6178 N 620.802 -1.09834 -1.13024 0
M  V30 6179 C 622.048 -0.83819 -1.84668 0
M  V30 6180 C 622.381 0.634645 -1.83537 0
M  V30 6181 O 621.656 1.46753 -1.27647 0
M  V30 6182 C 621.939 -1.37933 -3.32636 0
M  V30 6183 C 621.792 -2.91857 -3.42257 0
M  V30 6184 C 623.111 -1.01654 -4.28199 0
M  V30 6185 H 620.23 -0.30595 -0.670495 0
M  V30 6186 H 622.872 -1.36044 -1.32635 0
M  V30 6187 H 621.022 -0.935111 -3.77078 0
M  V30 6188 H 622.694 -3.44759 -3.06495 0
M  V30 6189 H 620.937 -3.28776 -2.83 0
M  V30 6190 H 621.608 -3.24799 -4.46329 0
M  V30 6191 H 624.084 -1.39973 -3.9185 0
M  V30 6192 H 622.96 -1.42217 -5.30156 0
M  V30 6193 H 623.221 0.0747794 -4.42037 0
M  V30 6194 N 622.28 1.30327 -0.886154 0
M  V30 6195 C 623.508 2.00254 -0.520176 0
M  V30 6196 C 623.923 1.66419 0.891637 0
M  V30 6197 O 623.28 0.901951 1.58654 0
M  V30 6198 C 623.331 3.54916 -0.686775 0
M  V30 6199 O 623.052 3.87547 -2.04301 0
M  V30 6200 C 624.553 4.42115 -0.323945 0
M  V30 6201 H 621.773 0.640204 -0.200947 0
M  V30 6202 H 624.317 1.66183 -1.19178 0
M  V30 6203 H 622.472 3.8735 -0.0625273 0
M  V30 6204 H 622.886 4.82247 -2.06249 0
M  V30 6205 H 624.36 5.49808 -0.491407 0
M  V30 6206 H 624.837 4.32953 0.73811 0
M  V30 6207 H 625.443 4.15129 -0.924565 0
M  V30 6208 N 623.758 0.647228 1.43697 0
M  V30 6209 C 625.004 0.158422 2.0218 0
M  V30 6210 C 625.337 -1.22233 1.50907 0
M  V30 6211 O 624.612 -1.81478 0.699702 0
M  V30 6212 C 624.895 0.1627 3.59732 0
M  V30 6213 C 624.748 1.57694 4.21251 0
M  V30 6214 C 626.067 -0.504138 4.37203 0
M  V30 6215 H 623.186 0.059042 0.734631 0
M  V30 6216 H 625.828 0.826772 1.71069 0
M  V30 6217 H 623.978 -0.406414 3.86368 0
M  V30 6218 H 625.65 2.19618 4.05667 0
M  V30 6219 H 623.893 2.12603 3.7813 0
M  V30 6220 H 624.564 1.53183 5.3032 0
M  V30 6221 H 627.04 -0.0199841 4.16095 0
M  V30 6222 H 625.916 -0.470394 5.46881 0
M  V30 6223 H 626.177 -1.57726 4.13007 0
M  V30 6224 N 625.236 -1.5273 0.388769 0
M  V30 6225 C 626.647 -1.86505 -0.0853788 0
M  V30 6226 C 626.998 -1.30847 -1.46197 0
M  V30 6227 O 626.123 -0.639609 -2.06732 0
M  V30 6228 C 626.718 -3.38414 -0.161703 0
M  V30 6229 C 625.277 -3.71902 -0.580144 0
M  V30 6230 C 624.424 -2.76095 0.258218 0
M  V30 6231 H 627.375 -1.46647 0.606665 0
M  V30 6232 H 627.396 -3.67638 -0.980936 0
M  V30 6233 H 626.908 -3.78893 0.840333 0
M  V30 6234 H 625.009 -3.36992 -1.58957 0
M  V30 6235 H 625.122 -4.77902 -0.338663 0
M  V30 6236 H 623.486 -2.53195 -0.276432 0
M  V30 6237 H 624.269 -3.19411 1.25822 0
M  V30 6238 N 626.714 -0.118576 -1.57153 0
M  V30 6239 C 627.96 0.540326 -1.95469 0
M  V30 6240 C 628.293 1.66356 -1.00196 0
M  V30 6241 O 627.568 1.94461 -0.039104 0
M  V30 6242 C 627.851 1.07342 -3.43729 0
M  V30 6243 C 627.704 -0.0463732 -4.49776 0
M  V30 6244 C 629.023 1.96442 -3.93826 0
M  V30 6245 H 626.142 0.19494 -0.710751 0
M  V30 6246 H 628.784 -0.19405 -1.89006 0
M  V30 6247 H 626.934 1.69925 -3.49368 0
M  V30 6248 H 628.606 -0.681648 -4.56236 0
M  V30 6249 H 626.849 -0.709574 -4.27957 0
M  V30 6250 H 627.52 0.367856 -5.50773 0
M  V30 6251 H 629.996 1.43731 -3.90488 0
M  V30 6252 H 628.872 2.3066 -4.98084 0
M  V30 6253 H 629.133 2.89077 -3.34495 0
M  V30 6254 N 628.193 1.56834 0.155195 0
M  V30 6255 C 629.156 1.96748 1.17571 0
M  V30 6256 C 630.156 0.853006 1.3631 0
M  V30 6257 O 631.346 1.11978 1.33441 0
M  V30 6258 C 628.478 2.27631 2.53765 0
M  V30 6259 H 629.671 2.88085 0.833498 0
M  V30 6260 H 627.224 1.51141 0.398242 0
M  V30 6261 H 627.959 1.39059 2.92973 0
M  V30 6262 H 627.744 3.0888 2.41527 0
M  V30 6263 H 629.234 2.59377 3.27282 0
M  V30 6264 N 629.671 -0.424282 1.51781 0
M  V30 6265 C 630.917 -1.17434 1.6534 0
M  V30 6266 C 631.25 -1.90549 0.374806 0
M  V30 6267 O 630.525 -1.84145 -0.626179 0
M  V30 6268 C 630.808 -2.18093 2.86544 0
M  V30 6269 C 630.661 -1.48975 4.24413 0
M  V30 6270 C 631.98 -3.18934 3.03264 0
M  V30 6271 H 629.099 -0.425566 0.601716 0
M  V30 6272 H 631.741 -0.461921 1.84299 0
M  V30 6273 H 629.891 -2.78849 2.7051 0
M  V30 6274 H 631.563 -0.914551 4.52143 0
M  V30 6275 H 629.806 -0.791893 4.26511 0
M  V30 6276 H 630.477 -2.22347 5.05238 0
M  V30 6277 H 632.953 -2.68243 3.18096 0
M  V30 6278 H 631.829 -3.86645 3.89611 0
M  V30 6279 H 632.09 -3.85793 2.15908 0
M  V30 6280 N 631.149 -1.42148 -0.680565 0
M  V30 6281 C 632.377 -1.45696 -1.46902 0
M  V30 6282 C 632.792 -0.0665858 -1.88683 0
M  V30 6283 O 632.149 0.917436 -1.57764 0
M  V30 6284 C 632.2 -2.37898 -2.72188 0
M  V30 6285 O 631.921 -3.71526 -2.32163 0
M  V30 6286 C 633.422 -2.50407 -3.65802 0
M  V30 6287 H 630.642 -0.495729 -0.45221 0
M  V30 6288 H 633.186 -1.866 -0.836709 0
M  V30 6289 H 631.341 -2.00263 -3.31622 0
M  V30 6290 H 631.755 -4.20849 -3.13027 0
M  V30 6291 H 633.229 -3.19056 -4.50452 0
M  V30 6292 H 633.706 -1.5401 -4.11312 0
M  V30 6293 H 634.312 -2.8874 -3.12265 0
M  V30 6294 N 632.627 0.916307 -1.28225 0
M  V30 6295 C 633.575 2.03977 -1.11786 0
M  V30 6296 C 634.569 1.69358 -0.0378265 0
M  V30 6297 O 635.775 1.78925 -0.196405 0
M  V30 6298 H 632.15 0.66829 -0.344809 0
M  V30 6299 H 634.121 2.14985 -2.06939 0
M  V30 6300 C 632.87 3.38518 -0.7938 0
M  V30 6301 H 632.193 3.65649 -1.61682 0
M  V30 6302 H 633.633 4.17864 -0.718719 0
M  V30 6303 C 632.092 3.33134 0.502353 0
M  V30 6304 O 632.622 3.71281 1.53341 0
M  V30 6305 N 630.828 2.86229 0.502147 0
M  V30 6306 H 630.375 2.55382 -0.337338 0
M  V30 6307 H 630.333 2.83009 1.36942 0
M  V30 6308 N 634.105 1.10431 1.1244 0
M  V30 6309 C 635.037 0.710945 2.17895 0
M  V30 6310 C 636.05 -0.252315 1.60833 0
M  V30 6311 O 637.239 -0.03679 1.78462 0
M  V30 6312 C 634.339 0.0284262 3.38888 0
M  V30 6313 C 633.512 1.01585 4.2544 0
M  V30 6314 C 632.571 0.364826 5.24934 0
M  V30 6315 O 631.597 1.01561 5.60066 0
M  V30 6316 N 632.799 -0.87674 5.73841 0
M  V30 6317 H 635.564 1.61826 2.52255 0
M  V30 6318 H 633.125 0.993132 1.27861 0
M  V30 6319 H 635.117 -0.418568 4.0253 0
M  V30 6320 H 633.687 -0.781294 3.02679 0
M  V30 6321 H 632.907 1.64111 3.58415 0
M  V30 6322 H 634.195 1.68425 4.80115 0
M  V30 6323 H 633.593 -1.42483 5.47462 0
M  V30 6324 H 632.15 -1.26688 6.39369 0
M  V30 6325 N 635.583 -1.29855 0.893053 0
M  V30 6326 C 636.808 -2.00512 0.530066 0
M  V30 6327 C 637.233 -1.66446 -0.876199 0
M  V30 6328 O 636.591 -0.885446 -1.58207 0
M  V30 6329 C 636.639 -3.53308 0.721505 0
M  V30 6330 O 635.743 -4.11764 -0.228994 0
M  V30 6331 H 635.084 -0.630617 0.207891 0
M  V30 6332 H 637.614 -1.6551 1.20282 0
M  V30 6333 H 637.624 -4.03206 0.623599 0
M  V30 6334 H 636.299 -3.77439 1.74678 0
M  V30 6335 H 634.876 -3.72805 -0.0841034 0
M  V30 6336 N 637.061 -0.65484 -1.43351 0
M  V30 6337 C 638.309 -0.168559 -2.01396 0
M  V30 6338 C 638.63 1.22235 -1.51933 0
M  V30 6339 O 637.9 1.81685 -0.732627 0
M  V30 6340 H 636.48 -0.0593244 -0.744641 0
M  V30 6341 H 639.142 -0.846871 -1.75539 0
M  V30 6342 H 638.238 -0.154428 -3.11718 0
M  V30 6343 N 638.539 1.52521 -0.396863 0
M  V30 6344 C 639.788 2.00857 0.184184 0
M  V30 6345 C 640.101 1.28733 1.47265 0
M  V30 6346 O 641.307 1.67821 2.13421 0
M  V30 6347 C 639.763 3.57901 0.378787 0
M  V30 6348 C 639.371 4.38931 -0.896873 0
M  V30 6349 C 641.115 4.14504 0.915789 0
M  V30 6350 C 639.022 5.87591 -0.670133 0
M  V30 6351 H 637.952 0.750496 0.0726055 0
M  V30 6352 H 640.603 1.75965 -0.520425 0
M  V30 6353 H 638.985 3.79072 1.14543 0
M  V30 6354 H 640.159 4.29524 -1.66872 0
M  V30 6355 H 638.474 3.93586 -1.35938 0
M  V30 6356 H 641.071 5.23236 1.10126 0
M  V30 6357 H 641.414 3.71076 1.88701 0
M  V30 6358 H 641.947 3.97253 0.208523 0
M  V30 6359 H 638.686 6.35355 -1.61257 0
M  V30 6360 H 638.206 5.99767 0.0626368 0
M  V30 6361 H 639.885 6.46268 -0.307577 0
M  V30 6362 N 640.017 0.126909 1.57088 0
M  V30 6363 C 640.98 -0.806097 2.14557 0
M  V30 6364 C 641.98 -1.18918 1.08236 0
M  V30 6365 O 643.17 -1.11339 1.33975 0
M  V30 6366 C 640.302 -2.09116 2.69227 0
M  V30 6367 H 641.495 -0.306522 2.98329 0
M  V30 6368 H 639.048 -0.122393 1.5582 0
M  V30 6369 H 639.783 -2.63486 1.89065 0
M  V30 6370 H 639.568 -1.82588 3.46993 0
M  V30 6371 H 641.058 -2.75794 3.13572 0
M  V30 6372 N 641.495 -1.56914 -0.146875 0
M  V30 6373 C 642.741 -1.83628 -0.860741 0
M  V30 6374 C 643.074 -0.708528 -1.80813 0
M  V30 6375 O 642.349 0.287838 -1.92358 0
M  V30 6376 C 642.632 -3.20836 -1.63511 0
M  V30 6377 C 642.485 -4.44174 -0.709199 0
M  V30 6378 C 643.804 -3.55268 -2.59756 0
M  V30 6379 H 640.923 -0.667949 -0.311468 0
M  V30 6380 H 643.565 -1.89582 -0.125936 0
M  V30 6381 H 641.715 -3.15891 -2.26153 0
M  V30 6382 H 643.387 -4.61205 -0.0937781 0
M  V30 6383 H 641.63 -4.33796 -0.0187856 0
M  V30 6384 H 642.301 -5.36785 -1.28707 0
M  V30 6385 H 644.777 -3.60824 -2.07232 0
M  V30 6386 H 643.653 -4.52303 -3.10987 0
M  V30 6387 H 643.914 -2.81231 -3.41118 0
M  V30 6388 N 642.974 0.416227 -1.52004 0
M  V30 6389 C 644.385 0.995319 -1.57957 0
M  V30 6390 C 644.736 1.91744 -0.415754 0
M  V30 6391 O 643.861 2.11349 0.464808 0
M  V30 6392 C 644.456 1.81191 -2.86278 0
M  V30 6393 C 643.015 2.34115 -2.94732 0
M  V30 6394 C 642.162 1.139 -2.52828 0
M  V30 6395 H 645.113 0.196716 -1.57476 0
M  V30 6396 H 645.134 2.66859 -2.71231 0
M  V30 6397 H 644.646 1.14051 -3.70963 0
M  V30 6398 H 642.747 3.04647 -2.14525 0
M  V30 6399 H 642.86 2.65466 -3.98829 0
M  V30 6400 H 641.224 1.49081 -2.06511 0
M  V30 6401 H 642.007 0.483383 -3.3988 0
M  V30 6402 N 644.452 1.42507 0.673017 0
M  V30 6403 C 645.399 1.46124 1.78651 0
M  V30 6404 C 646.369 0.313007 1.63124 0
M  V30 6405 O 647.554 0.517337 1.83653 0
M  V30 6406 C 644.694 1.3711 3.16694 0
M  V30 6407 C 643.807 2.61983 3.43495 0
M  V30 6408 C 642.942 2.45098 4.71275 0
M  V30 6409 C 641.981 3.65336 4.91117 0
M  V30 6410 N 641.118 3.47383 6.10139 0
M  V30 6411 H 645.958 2.4128 1.74895 0
M  V30 6412 H 643.495 1.19788 0.853766 0
M  V30 6413 H 645.453 1.29881 3.96468 0
M  V30 6414 H 644.083 0.45549 3.1957 0
M  V30 6415 H 643.135 2.79571 2.57961 0
M  V30 6416 H 644.447 3.51355 3.5405 0
M  V30 6417 H 643.601 2.35466 5.59143 0
M  V30 6418 H 642.34 1.53219 4.63007 0
M  V30 6419 H 641.345 3.754 4.0169 0
M  V30 6420 H 642.57 4.58199 5.01229 0
M  V30 6421 H 640.516 2.58222 6.0304 0
M  V30 6422 H 640.433 4.30344 6.21563 0
M  V30 6423 H 641.701 3.41565 7.00681 0
M  V30 6424 N 645.93 -0.909495 1.28709 0
M  V30 6425 C 647.341 -1.47419 1.14563 0
M  V30 6426 C 647.692 -1.94432 -0.262832 0
M  V30 6427 O 646.817 -1.82842 -1.15748 0
M  V30 6428 C 647.412 -2.67933 2.07358 0
M  V30 6429 C 645.971 -3.20568 1.97264 0
M  V30 6430 C 645.118 -1.93269 1.98852 0
M  V30 6431 H 648.069 -0.721787 1.41336 0
M  V30 6432 H 648.09 -3.43339 1.64007 0
M  V30 6433 H 647.602 -2.33685 3.09859 0
M  V30 6434 H 645.703 -3.59531 0.978157 0
M  V30 6435 H 645.816 -3.85529 2.84436 0
M  V30 6436 H 644.18 -2.10553 1.43317 0
M  V30 6437 H 644.963 -1.61312 3.0304 0
M  V30 6438 N 647.408 -1.11026 -1.11852 0
M  V30 6439 C 648.633 -0.879064 -1.87849 0
M  V30 6440 C 649.058 0.565406 -1.79401 0
M  V30 6441 O 648.416 1.39886 -1.15333 0
M  V30 6442 C 648.464 -1.33985 -3.34784 0
M  V30 6443 O 647.568 -0.508803 -4.09249 0
M  V30 6444 H 646.909 -0.316992 -0.583448 0
M  V30 6445 H 649.439 -1.47863 -1.41413 0
M  V30 6446 H 649.449 -1.33248 -3.85628 0
M  V30 6447 H 648.124 -2.39172 -3.40249 0
M  V30 6448 H 646.701 -0.581913 -3.68332 0
M  V30 6449 N 648.886 1.2938 -0.899927 0
M  V30 6450 C 649.816 2.30144 -0.39446 0
M  V30 6451 C 650.797 1.61611 0.530639 0
M  V30 6452 O 651.982 1.89119 0.441319 0
M  V30 6453 C 649.112 3.45229 0.37868 0
M  V30 6454 C 648.066 4.25564 -0.456012 0
M  V30 6455 C 647.392 5.32848 0.444637 0
M  V30 6456 C 648.692 4.93651 -1.70605 0
M  V30 6457 H 650.386 2.72673 -1.23653 0
M  V30 6458 H 647.932 1.31086 -0.596034 0
M  V30 6459 H 649.885 4.14797 0.743037 0
M  V30 6460 H 648.609 3.01545 1.25453 0
M  V30 6461 H 647.268 3.57704 -0.802704 0
M  V30 6462 H 646.916 4.85408 1.31863 0
M  V30 6463 H 646.616 5.87497 -0.110154 0
M  V30 6464 H 648.14 6.05268 0.805182 0
M  V30 6465 H 649.554 5.55655 -1.41141 0
M  V30 6466 H 647.951 5.58233 -2.20217 0
M  V30 6467 H 649.021 4.18926 -2.4419 0
M  V30 6468 N 650.364 0.662433 1.43002 0
M  V30 6469 C 651.296 -0.062326 2.29115 0
M  V30 6470 C 652.309 -0.777926 1.43011 0
M  V30 6471 O 653.498 -0.634146 1.66856 0
M  V30 6472 C 650.598 -1.11163 3.2015 0
M  V30 6473 C 649.771 -0.472327 4.34842 0
M  V30 6474 C 648.83 -1.41974 5.06685 0
M  V30 6475 O 647.856 -0.924795 5.61637 0
M  V30 6476 N 649.058 -2.75345 5.11043 0
M  V30 6477 H 651.823 0.676838 2.91957 0
M  V30 6478 H 649.384 0.505907 1.53793 0
M  V30 6479 H 651.376 -1.74643 3.65078 0
M  V30 6480 H 649.946 -1.75266 2.58845 0
M  V30 6481 H 649.166 0.341751 3.92716 0
M  V30 6482 H 650.454 -0.0264381 5.08793 0
M  V30 6483 H 649.852 -3.18108 4.67786 0
M  V30 6484 H 648.409 -3.34105 5.59658 0
M  V30 6485 N 651.842 -1.52309 0.404946 0
M  V30 6486 C 652.772 -2.29805 -0.41376 0
M  V30 6487 C 653.753 -1.3384 -1.0498 0
M  V30 6488 O 654.938 -1.62745 -1.05961 0
M  V30 6489 C 652.068 -3.11639 -1.53292 0
M  V30 6490 C 651.022 -4.15616 -1.02211 0
M  V30 6491 C 650.348 -4.8577 -2.23455 0
M  V30 6492 C 651.648 -5.2224 -0.0790725 0
M  V30 6493 H 653.342 -2.98493 0.232878 0
M  V30 6494 H 650.888 -1.43552 0.113441 0
M  V30 6495 H 652.841 -3.64618 -2.11262 0
M  V30 6496 H 651.565 -2.40712 -2.20738 0
M  V30 6497 H 650.224 -3.63641 -0.46484 0
M  V30 6498 H 649.872 -4.11376 -2.89445 0
M  V30 6499 H 649.572 -5.56058 -1.89929 0
M  V30 6500 H 651.096 -5.4156 -2.82038 0
M  V30 6501 H 652.51 -5.70485 -0.567438 0
M  V30 6502 H 650.907 -5.99867 0.167167 0
M  V30 6503 H 651.977 -4.77078 0.867447 0
M  V30 6504 N 653.32 -0.135238 -1.57019 0
M  V30 6505 C 654.597 0.563227 -1.87316 0
M  V30 6506 C 654.977 1.83749 -1.03921 0
M  V30 6507 O 654.325 2.2817 -0.122675 0
M  V30 6508 C 654.535 0.840031 -3.3874 0
M  V30 6509 C 655.883 1.18598 -4.077 0
M  V30 6510 O 656.907 0.92977 -3.43851 0
M  V30 6511 O 655.766 1.66758 -5.20436 0
M  V30 6512 H 652.86 0.285971 -0.775983 0
M  V30 6513 H 655.406 -0.170965 -1.68837 0
M  V30 6514 H 654.178 -0.0622785 -3.9125 0
M  V30 6515 H 653.801 1.62882 -3.62706 0
M  V30 6516 N 654.798 1.5699 0.138552 0
M  V30 6517 C 655.761 1.97984 1.15478 0
M  V30 6518 C 656.761 0.867416 1.35398 0
M  V30 6519 O 657.951 1.13387 1.32246 0
M  V30 6520 C 655.083 2.3031 2.51337 0
M  V30 6521 H 656.276 2.88953 0.802896 0
M  V30 6522 H 653.829 1.51555 0.382189 0
M  V30 6523 H 654.564 1.42159 2.91481 0
M  V30 6524 H 654.349 3.11425 2.38237 0
M  V30 6525 H 655.839 2.62834 3.24512 0
M  V30 6526 N 656.276 -0.40816 1.52223 0
M  V30 6527 C 657.501 -1.18127 1.70472 0
M  V30 6528 C 657.926 -1.83491 0.41384 0
M  V30 6529 O 657.284 -1.70047 -0.628778 0
M  V30 6530 C 657.332 -2.21935 2.84213 0
M  V30 6531 O 656.436 -3.28099 2.4985 0
M  V30 6532 H 655.777 -0.344781 0.56747 0
M  V30 6533 H 658.307 -0.478328 1.9893 0
M  V30 6534 H 658.317 -2.66248 3.09153 0
M  V30 6535 H 656.992 -1.73744 3.7787 0
M  V30 6536 H 655.569 -2.89058 2.35584 0
M  V30 6537 N 657.755 -1.42862 -0.66545 0
M  V30 6538 C 659.166 -1.3901 -1.24632 0
M  V30 6539 C 659.517 -0.0880285 -1.96002 0
M  V30 6540 O 658.642 0.812947 -2.0055 0
M  V30 6541 C 659.237 -2.51806 -2.2667 0
M  V30 6542 C 657.796 -2.51257 -2.80262 0
M  V30 6543 C 656.943 -2.30124 -1.5472 0
M  V30 6544 H 659.894 -1.5194 -0.458237 0
M  V30 6545 H 659.915 -2.22593 -3.08598 0
M  V30 6546 H 659.427 -3.46558 -1.74697 0
M  V30 6547 H 657.528 -1.60349 -3.36332 0
M  V30 6548 H 657.641 -3.48614 -3.28641 0
M  V30 6549 H 656.005 -1.7856 -1.81627 0
M  V30 6550 H 656.788 -3.26945 -1.04699 0
M  V30 6551 N 659.233 0.902656 -1.29189 0
M  V30 6552 C 660.51 1.63296 -1.07674 0
M  V30 6553 C 660.89 2.07649 0.380137 0
M  V30 6554 O 660.238 1.82997 1.36837 0
M  V30 6555 C 660.448 2.81603 -2.06158 0
M  V30 6556 C 661.796 3.52359 -2.36914 0
M  V30 6557 O 662.82 2.91767 -2.04329 0
M  V30 6558 O 661.679 4.61586 -2.92576 0
M  V30 6559 H 658.773 0.716889 -0.41231 0
M  V30 6560 H 661.319 0.950984 -1.4055 0
M  V30 6561 H 660.091 2.46004 -3.04299 0
M  V30 6562 H 659.714 3.57508 -1.73993 0
M  V30 6563 N 660.711 1.11618 1.11262 0
M  V30 6564 C 661.957 0.877377 1.83504 0
M  V30 6565 C 662.312 -0.590606 1.83111 0
M  V30 6566 O 661.605 -1.43057 1.27456 0
M  V30 6567 C 661.799 1.37529 3.2988 0
M  V30 6568 C 661.628 2.89014 3.4453 0
M  V30 6569 C 660.398 3.57157 3.57445 0
M  V30 6570 C 662.596 3.8706 3.38658 0
M  V30 6571 N 660.578 4.96842 3.60585 0
M  V30 6572 C 661.949 5.12825 3.4844 0
M  V30 6573 C 664.004 3.79593 3.22201 0
M  V30 6574 C 662.707 6.32002 3.43462 0
M  V30 6575 C 664.733 4.98282 3.18542 0
M  V30 6576 C 664.095 6.22901 3.28897 0
M  V30 6577 H 660.194 0.37422 0.686646 0
M  V30 6578 H 662.778 1.42087 1.33114 0
M  V30 6579 H 660.949 0.85895 3.78783 0
M  V30 6580 H 662.681 1.07944 3.90039 0
M  V30 6581 H 659.436 3.07628 3.60086 0
M  V30 6582 H 659.86 5.69674 3.65788 0
M  V30 6583 H 664.502 2.84149 3.1308 0
M  V30 6584 H 662.22 7.27721 3.51352 0
M  V30 6585 H 665.806 4.94226 3.06972 0
M  V30 6586 H 664.686 7.13202 3.26056 0
M  V30 6587 N 662.189 -1.289 0.906776 0
M  V30 6588 C 663.121 -2.26556 0.347159 0
M  V30 6589 C 664.134 -1.54589 -0.51049 0
M  V30 6590 O 665.323 -1.75489 -0.326501 0
M  V30 6591 C 662.423 -3.3484 -0.523024 0
M  V30 6592 C 661.596 -4.36296 0.310515 0
M  V30 6593 C 660.655 -5.23879 -0.493634 0
M  V30 6594 O 659.681 -5.69127 0.0913569 0
M  V30 6595 N 660.883 -5.51946 -1.7982 0
M  V30 6596 H 663.648 -2.75212 1.18652 0
M  V30 6597 H 661.209 -1.42309 0.771996 0
M  V30 6598 H 663.201 -3.90366 -1.06756 0
M  V30 6599 H 661.771 -2.85946 -1.26309 0
M  V30 6600 H 660.991 -3.80331 1.03644 0
M  V30 6601 H 662.279 -5.01113 0.881106 0
M  V30 6602 H 661.677 -5.17006 -2.2961 0
M  V30 6603 H 660.234 -6.10258 -2.28971 0
M  V30 6604 N 663.667 -0.670007 -1.42649 0
M  V30 6605 C 664.913 -0.190568 -2.01903 0
M  V30 6606 C 665.246 1.19817 -1.52832 0
M  V30 6607 O 664.521 1.80342 -0.728485 0
M  V30 6608 C 664.804 -0.21991 -3.59428 0
M  V30 6609 C 664.657 -1.64376 -4.18689 0
M  V30 6610 C 665.976 0.434519 -4.3795 0
M  V30 6611 H 663.095 -0.0707219 -0.733599 0
M  V30 6612 H 665.737 -0.853883 -1.69732 0
M  V30 6613 H 663.887 0.344894 -3.86966 0
M  V30 6614 H 665.559 -2.26044 -4.02122 0
M  V30 6615 H 663.802 -2.18591 -3.747 0
M  V30 6616 H 664.473 -1.61601 -5.27815 0
M  V30 6617 H 666.949 -0.0462156 -4.16074 0
M  V30 6618 H 665.825 0.38333 -5.4756 0
M  V30 6619 H 666.086 1.51135 -4.15464 0
M  V30 6620 N 665.145 1.52092 -0.413018 0
M  V30 6621 C 666.077 2.24819 0.445994 0
M  V30 6622 C 667.09 1.27925 1.00692 0
M  V30 6623 O 668.279 1.53845 0.905204 0
M  V30 6624 C 665.379 2.96951 1.6332 0
M  V30 6625 C 664.552 4.20746 1.19548 0
M  V30 6626 C 663.611 4.75668 2.25003 0
M  V30 6627 O 662.637 5.38148 1.85434 0
M  V30 6628 N 663.839 4.57579 3.57214 0
M  V30 6629 H 666.604 2.99176 -0.177209 0
M  V30 6630 H 664.165 1.60102 -0.240601 0
M  V30 6631 H 666.157 3.30586 2.33441 0
M  V30 6632 H 664.727 2.25756 2.16225 0
M  V30 6633 H 663.947 3.92881 0.32224 0
M  V30 6634 H 665.235 5.01132 0.880033 0
M  V30 6635 H 664.633 4.07758 3.92109 0
M  V30 6636 H 663.19 4.95642 4.23299 0
M  V30 6637 N 666.623 0.143563 1.56945 0
M  V30 6638 C 667.871 -0.507402 1.95627 0
M  V30 6639 C 668.192 -1.65626 1.02922 0
M  V30 6640 O 667.462 -1.95693 0.0901136 0
M  V30 6641 H 666.042 -0.190436 0.722318 0
M  V30 6642 H 668.704 0.218257 1.93674 0
M  V30 6643 H 667.8 -0.885816 2.99265 0
M  V30 6644 N 668.101 -1.57061 -0.130224 0
M  V30 6645 C 669.326 -1.88802 -0.858409 0
M  V30 6646 C 669.751 -0.734353 -1.73173 0
M  V30 6647 O 669.109 0.315529 -1.78533 0
M  V30 6648 C 669.157 -3.19228 -1.67708 0
M  V30 6649 O 668.261 -3.04343 -2.78297 0
M  V30 6650 H 667.602 -0.619849 -0.238083 0
M  V30 6651 H 670.132 -2.04271 -0.115995 0
M  V30 6652 H 670.142 -3.51669 -2.06864 0
M  V30 6653 H 668.817 -4.02793 -1.0359 0
M  V30 6654 H 667.394 -2.83346 -2.42425 0
M  V30 6655 N 669.579 0.400081 -1.52437 0
M  V30 6656 C 670.825 1.14788 -1.67187 0
M  V30 6657 C 671.158 1.89928 -0.405074 0
M  V30 6658 O 670.433 1.85118 0.596804 0
M  V30 6659 C 670.716 2.13507 -2.89977 0
M  V30 6660 C 670.569 1.42204 -4.2673 0
M  V30 6661 C 671.888 3.14069 -3.083 0
M  V30 6662 H 669.007 0.415939 -0.608411 0
M  V30 6663 H 671.649 0.432542 -1.85011 0
M  V30 6664 H 669.799 2.7451 -2.74912 0
M  V30 6665 H 671.471 0.842503 -4.53541 0
M  V30 6666 H 669.714 0.723939 -4.27717 0
M  V30 6667 H 670.385 2.14281 -5.08712 0
M  V30 6668 H 672.861 2.63148 -3.22323 0
M  V30 6669 H 671.737 3.80398 -3.95713 0
M  V30 6670 H 671.998 3.82309 -2.22018 0
M  V30 6671 N 671.057 1.43213 0.657864 0
M  V30 6672 C 671.967 1.50448 1.80007 0
M  V30 6673 C 672.983 0.39191 1.69529 0
M  V30 6674 O 674.159 0.645349 1.90781 0
M  V30 6675 C 671.224 1.42062 3.16258 0
M  V30 6676 C 670.285 2.63951 3.38568 0
M  V30 6677 C 669.518 2.55956 4.68318 0
M  V30 6678 O 669.741 1.60473 5.47361 0
M  V30 6679 O 668.675 3.46378 4.92245 0
M  V30 6680 H 672.501 2.4689 1.76858 0
M  V30 6681 H 670.086 1.25163 0.81576 0
M  V30 6682 H 671.968 1.3981 3.97531 0
M  V30 6683 H 670.643 0.487524 3.20008 0
M  V30 6684 H 669.55 2.71776 2.57077 0
M  V30 6685 H 670.883 3.56217 3.39662 0
M  V30 6686 N 672.536 -0.895792 1.29666 0
M  V30 6687 C 673.947 -1.46195 1.1612 0
M  V30 6688 C 674.298 -1.94699 -0.242195 0
M  V30 6689 O 673.423 -1.8406 -1.13802 0
M  V30 6690 C 674.018 -2.65718 2.10189 0
M  V30 6691 C 672.577 -3.18458 2.00653 0
M  V30 6692 C 671.724 -1.91149 2.00891 0
M  V30 6693 H 674.675 -0.706756 1.42094 0
M  V30 6694 H 674.696 -3.4158 1.6764 0
M  V30 6695 H 674.208 -2.30386 3.12321 0
M  V30 6696 H 672.309 -3.58474 1.01623 0
M  V30 6697 H 672.422 -3.82491 2.88509 0
M  V30 6698 H 670.786 -2.09021 1.45542 0
M  V30 6699 H 671.569 -1.58089 3.04734 0
M  V30 6700 N 674.014 -1.12206 -1.10668 0
M  V30 6701 C 674.944 -0.810086 -2.18997 0
M  V30 6702 C 675.925 0.225065 -1.68604 0
M  V30 6703 O 677.11 0.086783 -1.94006 0
M  V30 6704 C 674.24 -0.261262 -3.46316 0
M  V30 6705 C 673.194 -1.2292 -4.09969 0
M  V30 6706 C 672.52 -0.540713 -5.31959 0
M  V30 6707 C 673.82 -2.58295 -4.53962 0
M  V30 6708 H 675.514 -1.7159 -2.45352 0
M  V30 6709 H 673.06 -0.82646 -1.17922 0
M  V30 6710 H 675.013 -0.0307522 -4.21389 0
M  V30 6711 H 673.737 0.679879 -3.19445 0
M  V30 6712 H 672.396 -1.44548 -3.369 0
M  V30 6713 H 672.044 0.405492 -5.01363 0
M  V30 6714 H 671.744 -1.18637 -5.75499 0
M  V30 6715 H 673.268 -0.319184 -6.09765 0
M  V30 6716 H 674.682 -2.40709 -5.20319 0
M  V30 6717 H 673.079 -3.18916 -5.08343 0
M  V30 6718 H 674.149 -3.16918 -3.67002 0
M  V30 6719 N 675.492 1.28418 -0.913599 0
M  V30 6720 C 676.425 2.25557 -0.346328 0
M  V30 6721 C 677.403 1.53038 0.549366 0
M  V30 6722 O 678.587 1.81937 0.493055 0
M  V30 6723 C 675.714 3.34915 0.504961 0
M  V30 6724 C 674.76 4.25257 -0.325334 0
M  V30 6725 S 675.593 5.06718 -1.73198 0
M  V30 6726 C 676.749 6.19569 -0.887988 0
M  V30 6727 H 676.982 2.73325 -1.16965 0
M  V30 6728 H 674.515 1.36855 -0.714841 0
M  V30 6729 H 676.473 3.98376 0.990301 0
M  V30 6730 H 675.134 2.85814 1.30267 0
M  V30 6731 H 674.327 5.02947 0.325589 0
M  V30 6732 H 673.929 3.66519 -0.744321 0
M  V30 6733 H 676.221 6.77398 -0.117568 0
M  V30 6734 H 677.164 6.88908 -1.63742 0
M  V30 6735 H 677.572 5.62812 -0.436228 0
M  V30 6736 N 676.97 0.677563 1.42291 0
M  V30 6737 C 678.381 0.277912 1.8462 0
M  V30 6738 C 678.732 -1.18048 1.56714 0
M  V30 6739 O 677.857 -1.90404 1.02836 0
M  V30 6740 C 678.452 0.497619 3.35126 0
M  V30 6741 C 677.011 0.152063 3.76093 0
M  V30 6742 C 676.158 0.78872 2.65847 0
M  V30 6743 H 679.109 0.879527 1.32098 0
M  V30 6744 H 679.13 -0.24939 3.79682 0
M  V30 6745 H 678.642 1.55913 3.55405 0
M  V30 6746 H 676.743 -0.905896 3.6142 0
M  V30 6747 H 676.856 0.594514 4.75397 0
M  V30 6748 H 675.22 0.219813 2.5375 0
M  V30 6749 H 676.003 1.85374 2.88949 0
M  V30 6750 N 678.448 -1.51871 0.421078 0
M  V30 6751 C 679.696 -2.01539 -0.150492 0
M  V30 6752 C 680.017 -1.30803 -1.44623 0
M  V30 6753 O 679.287 -0.437568 -1.90951 0
M  V30 6754 H 677.867 -0.744698 -0.0586041 0
M  V30 6755 H 680.529 -1.8668 0.560059 0
M  V30 6756 H 679.625 -3.10264 -0.338068 0
M  V30 6757 N 679.926 -0.151884 -1.56866 0
M  V30 6758 C 681.342 0.204486 -1.58285 0
M  V30 6759 C 681.542 1.6431 -1.16639 0
M  V30 6760 O 680.598 2.37077 -0.868946 0
M  V30 6761 C 681.911 -0.0587019 -3.00643 0
M  V30 6762 C 683.459 0.00462303 -3.13 0
M  V30 6763 C 683.934 -0.231297 -4.57416 0
M  V30 6764 N 685.425 -0.178394 -4.62856 0
M  V30 6765 C 686.16 -0.335379 -5.72418 0
M  V30 6766 N 685.656 -0.550355 -6.90611 0
M  V30 6767 N 687.449 -0.272641 -5.61438 0
M  V30 6768 H 679.6 -1.09116 -1.82229 0
M  V30 6769 H 681.863 -0.432311 -0.843689 0
M  V30 6770 H 681.569 -1.05453 -3.35518 0
M  V30 6771 H 681.443 0.658508 -3.71407 0
M  V30 6772 H 683.83 0.991009 -2.77962 0
M  V30 6773 H 683.911 -0.744992 -2.44711 0
M  V30 6774 H 683.555 -1.2148 -4.93158 0
M  V30 6775 H 683.485 0.5387 -5.23837 0
M  V30 6776 H 685.976 -0.0170923 -3.77896 0
M  V30 6777 H 686.289 -0.660116 -7.69976 0
M  V30 6778 H 684.634 -0.586736 -6.92519 0
M  V30 6779 H 687.825 -0.105421 -4.67981 0
M  V30 6780 H 687.998 -0.398418 -6.46774 0
M  V30 6781 N 681.404 1.57128 0.121893 0
M  V30 6782 C 682.336 1.96773 1.17529 0
M  V30 6783 C 683.349 0.866668 1.37814 0
M  V30 6784 O 684.538 1.14497 1.3694 0
M  V30 6785 C 681.638 2.24832 2.53582 0
M  V30 6786 C 680.811 3.56138 2.53939 0
M  V30 6787 C 679.87 3.72443 3.71716 0
M  V30 6788 O 678.896 4.44584 3.55434 0
M  V30 6789 N 680.098 3.10993 4.90167 0
M  V30 6790 H 682.863 2.87743 0.838086 0
M  V30 6791 H 680.424 1.58881 0.311199 0
M  V30 6792 H 682.416 2.32958 3.30927 0
M  V30 6793 H 680.986 1.40002 2.79496 0
M  V30 6794 H 680.206 3.59226 1.62329 0
M  V30 6795 H 681.494 4.42448 2.51231 0
M  V30 6796 H 680.892 2.52345 5.06299 0
M  V30 6797 H 679.449 3.24644 5.65198 0
M  V30 6798 N 682.882 -0.391992 1.52647 0
M  V30 6799 C 683.845 -1.46135 1.7657 0
M  V30 6800 C 684.845 -1.47701 0.635698 0
M  V30 6801 O 686.035 -1.48924 0.903728 0
M  V30 6802 C 683.167 -2.85443 1.86374 0
M  V30 6803 H 684.36 -1.26208 2.72051 0
M  V30 6804 H 681.913 -0.623549 1.43323 0
M  V30 6805 H 682.648 -3.10718 0.928685 0
M  V30 6806 H 682.433 -2.85708 2.68539 0
M  V30 6807 H 683.923 -3.62933 2.06566 0
M  V30 6808 N 684.36 -1.4356 -0.65026 0
M  V30 6809 C 685.307 -1.48948 -1.76304 0
M  V30 6810 C 686.277 -0.338919 -1.62605 0
M  V30 6811 O 687.462 -0.54649 -1.82806 0
M  V30 6812 C 684.602 -1.42131 -3.14472 0
M  V30 6813 C 683.715 -2.67415 -3.39284 0
M  V30 6814 C 682.85 -2.52565 -4.67316 0
M  V30 6815 C 681.889 -3.73103 -4.85243 0
M  V30 6816 N 681.026 -3.57046 -6.04535 0
M  V30 6817 H 685.866 -2.44032 -1.71034 0
M  V30 6818 H 683.403 -1.21131 -0.834601 0
M  V30 6819 H 685.361 -1.36172 -3.94351 0
M  V30 6820 H 683.991 -0.506273 -3.18805 0
M  V30 6821 H 683.043 -2.8364 -2.53481 0
M  V30 6822 H 684.355 -3.56943 -3.48415 0
M  V30 6823 H 683.509 -2.44331 -5.55326 0
M  V30 6824 H 682.248 -1.60566 -4.60511 0
M  V30 6825 H 681.253 -3.81743 -3.95667 0
M  V30 6826 H 682.478 -4.66115 -4.93876 0
M  V30 6827 H 680.424 -2.67783 -5.98856 0
M  V30 6828 H 680.341 -4.40178 -6.14638 0
M  V30 6829 H 681.609 -3.52669 -6.95158 0
M  V30 6830 N 685.838 0.888903 -1.30139 0
M  V30 6831 C 687.086 1.63713 -1.18501 0
M  V30 6832 C 687.407 1.9324 0.261399 0
M  V30 6833 O 686.677 1.56608 1.17689 0
M  V30 6834 H 685.257 0.606861 -0.435579 0
M  V30 6835 H 687.919 1.06525 -1.63213 0
M  V30 6836 H 687.015 2.58894 -1.743 0
M  V30 6837 N 687.317 1.12792 1.10072 0
M  V30 6838 C 688.249 0.757003 2.16338 0
M  V30 6839 C 689.262 -0.218144 1.61332 0
M  V30 6840 O 690.451 0.0010727 1.785 0
M  V30 6841 C 687.551 0.100303 3.38752 0
M  V30 6842 C 686.724 1.10586 4.2319 0
M  V30 6843 C 685.783 0.47609 5.24042 0
M  V30 6844 O 684.809 1.13418 5.57786 0
M  V30 6845 N 686.011 -0.754823 5.75572 0
M  V30 6846 H 688.776 1.6714 2.48766 0
M  V30 6847 H 686.337 1.02003 1.25726 0
M  V30 6848 H 688.329 -0.333092 4.03327 0
M  V30 6849 H 686.899 -0.716915 3.04268 0
M  V30 6850 H 686.119 1.71677 3.54853 0
M  V30 6851 H 687.407 1.78571 4.76435 0
M  V30 6852 H 686.805 -1.30838 5.50362 0
M  V30 6853 H 685.362 -1.13098 6.41913 0
M  V30 6854 N 688.795 -1.27931 0.920396 0
M  V30 6855 C 690.041 -1.94977 0.557832 0
M  V30 6856 C 690.374 -1.72224 -0.897365 0
M  V30 6857 O 689.649 -1.04705 -1.63912 0
M  V30 6858 C 689.932 -3.49289 0.875741 0
M  V30 6859 C 689.785 -3.81416 2.38416 0
M  V30 6860 C 691.104 -4.38486 0.376517 0
M  V30 6861 H 688.223 -0.708164 0.20414 0
M  V30 6862 H 690.865 -1.5118 1.15085 0
M  V30 6863 H 689.015 -3.86724 0.371062 0
M  V30 6864 H 690.687 -3.53813 2.95997 0
M  V30 6865 H 688.93 -3.28225 2.83639 0
M  V30 6866 H 689.601 -4.89198 2.55713 0
M  V30 6867 H 692.077 -4.08161 0.808945 0
M  V30 6868 H 690.953 -5.45296 0.627976 0
M  V30 6869 H 691.214 -4.36143 -0.723293 0
M  V30 6870 N 690.273 -0.685099 -1.4193 0
M  V30 6871 C 691.501 -0.220372 -2.05723 0
M  V30 6872 C 691.916 1.12642 -1.51516 0
M  V30 6873 O 691.273 1.70182 -0.659114 0
M  V30 6874 C 691.324 -0.157974 -3.61155 0
M  V30 6875 O 691.045 -1.45156 -4.13354 0
M  V30 6876 C 692.546 0.329009 -4.42077 0
M  V30 6877 H 689.766 -0.104725 -0.662777 0
M  V30 6878 H 692.31 -0.934736 -1.81887 0
M  V30 6879 H 690.465 0.507144 -3.84066 0
M  V30 6880 H 690.879 -1.33172 -5.07312 0
M  V30 6881 H 692.353 0.321559 -5.51063 0
M  V30 6882 H 692.83 1.36608 -4.17414 0
M  V30 6883 H 693.436 -0.304737 -4.24207 0
M  V30 6884 N 691.751 1.51645 -0.429126 0
M  V30 6885 C 693 2.01203 0.141538 0
M  V30 6886 C 693.313 1.31828 1.44502 0
M  V30 6887 O 694.519 1.7231 2.09813 0
M  V30 6888 C 692.975 3.58624 0.302786 0
M  V30 6889 C 692.583 4.3693 -0.989775 0
M  V30 6890 C 694.327 4.16353 0.827661 0
M  V30 6891 C 692.234 5.86037 -0.794619 0
M  V30 6892 H 691.164 0.751867 0.05667 0
M  V30 6893 H 693.815 1.74822 -0.557633 0
M  V30 6894 H 692.197 3.81417 1.06476 0
M  V30 6895 H 693.371 4.25887 -1.75945 0
M  V30 6896 H 691.686 3.90614 -1.44256 0
M  V30 6897 H 694.283 5.25455 0.990026 0
M  V30 6898 H 694.626 3.74995 1.80787 0
M  V30 6899 H 695.159 3.97606 0.124213 0
M  V30 6900 H 691.898 6.31792 -1.74697 0
M  V30 6901 H 691.418 5.99765 -0.0645968 0
M  V30 6902 H 693.097 6.45471 -0.444591 0
M  V30 6903 N 693.229 0.160201 1.56784 0
M  V30 6904 C 694.457 -0.494165 2.00912 0
M  V30 6905 C 694.872 -1.57548 1.04038 0
M  V30 6906 O 694.229 -1.82457 0.0394581 0
M  V30 6907 C 694.28 -1.08271 3.44905 0
M  V30 6908 O 694.001 -0.0445704 4.38077 0
M  V30 6909 C 695.502 -1.8164 4.04378 0
M  V30 6910 H 692.722 -0.127498 0.658776 0
M  V30 6911 H 695.266 0.258665 2.02858 0
M  V30 6912 H 693.421 -1.78609 3.4377 0
M  V30 6913 H 693.835 -0.477544 5.22322 0
M  V30 6914 H 695.309 -2.18094 5.07089 0
M  V30 6915 H 695.786 -2.70727 3.45838 0
M  V30 6916 H 696.392 -1.15969 4.09184 0
M  V30 6917 N 694.707 -1.5719 -0.113559 0
M  V30 6918 C 695.953 -1.85412 -0.821597 0
M  V30 6919 C 696.286 -0.746722 -1.7927 0
M  V30 6920 O 695.561 0.246971 -1.92926 0
M  V30 6921 C 695.844 -3.24233 -1.56669 0
M  V30 6922 C 695.697 -4.45578 -0.614823 0
M  V30 6923 C 697.016 -3.60697 -2.52161 0
M  V30 6924 H 694.135 -0.674406 -0.29723 0
M  V30 6925 H 696.777 -1.89807 -0.085694 0
M  V30 6926 H 694.927 -3.20617 -2.19401 0
M  V30 6927 H 696.599 -4.613 0.00407137 0
M  V30 6928 H 694.842 -4.33738 0.0732332 0
M  V30 6929 H 695.513 -5.39395 -1.17292 0
M  V30 6930 H 697.989 -3.65139 -1.99532 0
M  V30 6931 H 696.865 -4.58798 -3.01323 0
M  V30 6932 H 697.126 -2.88403 -3.35076 0
M  V30 6933 N 696.185 0.383891 -1.52853 0
M  V30 6934 C 697.596 0.961591 -1.60032 0
M  V30 6935 C 697.947 1.90819 -0.456333 0
M  V30 6936 O 697.072 2.12288 0.419873 0
M  V30 6937 C 697.667 1.75078 -2.90057 0
M  V30 6938 C 696.226 2.2781 -2.99632 0
M  V30 6939 C 695.373 1.08512 -2.55187 0
M  V30 6940 H 698.324 0.163269 -1.57858 0
M  V30 6941 H 698.345 2.61046 -2.7683 0
M  V30 6942 H 697.857 1.06157 -3.73299 0
M  V30 6943 H 695.958 3.00028 -2.20939 0
M  V30 6944 H 696.071 2.56947 -4.0437 0
M  V30 6945 H 694.435 1.44667 -2.09627 0
M  V30 6946 H 695.218 0.41118 -3.40829 0
M  V30 6947 N 697.663 1.43903 0.642637 0
M  V30 6948 C 698.626 1.49538 1.73698 0
M  V30 6949 C 699.626 0.378776 1.56275 0
M  V30 6950 O 700.816 0.64095 1.6198 0
M  V30 6951 C 697.948 1.35821 3.12675 0
M  V30 6952 H 699.141 2.47008 1.70079 0
M  V30 6953 H 696.694 1.30824 0.85526 0
M  V30 6954 H 697.429 0.393994 3.21898 0
M  V30 6955 H 697.214 2.16776 3.26727 0
M  V30 6956 H 698.704 1.4272 3.92455 0
M  V30 6957 N 699.141 -0.881989 1.30609 0
M  V30 6958 C 700.389 -1.63082 1.19368 0
M  V30 6959 C 700.71 -1.93376 -0.251147 0
M  V30 6960 O 699.98 -1.5723 -1.16857 0
M  V30 6961 H 698.56 -0.604542 0.438791 0
M  V30 6962 H 701.222 -1.05658 1.63776 0
M  V30 6963 H 700.318 -2.57966 1.7567 0
M  V30 6964 N 700.619 -1.13374 -1.09472 0
M  V30 6965 C 701.847 -0.918351 -1.85402 0
M  V30 6966 C 702.262 0.53281 -1.81126 0
M  V30 6967 O 701.619 1.36879 -1.20708 0
M  V30 6968 C 701.67 -1.39743 -3.33398 0
M  V30 6969 O 701.391 -2.79172 -3.37631 0
M  V30 6970 C 702.892 -1.22042 -4.2617 0
M  V30 6971 H 700.112 -0.327511 -0.585643 0
M  V30 6972 H 702.656 -1.50617 -1.38328 0
M  V30 6973 H 700.811 -0.852619 -3.77901 0
M  V30 6974 H 701.225 -3.00428 -4.29934 0
M  V30 6975 H 702.699 -1.60438 -5.2817 0
M  V30 6976 H 703.176 -0.162047 -4.38901 0
M  V30 6977 H 703.782 -1.75323 -3.87482 0
M  V30 6978 N 702.098 1.27442 -0.927168 0
M  V30 6979 C 703.326 1.98498 -0.583622 0
M  V30 6980 C 703.741 1.69171 0.838241 0
M  V30 6981 O 703.098 0.951969 1.55704 0
M  V30 6982 C 703.149 3.52552 -0.799341 0
M  V30 6983 O 702.87 3.80851 -2.16527 0
M  V30 6984 C 704.371 4.4086 -0.464436 0
M  V30 6985 H 701.591 0.633487 -0.221213 0
M  V30 6986 H 704.135 1.62308 -1.24404 0
M  V30 6987 H 702.29 3.86955 -0.185728 0
M  V30 6988 H 702.704 4.75441 -2.21487 0
M  V30 6989 H 704.178 5.47967 -0.666075 0
M  V30 6990 H 704.655 4.35082 0.599995 0
M  V30 6991 H 705.261 4.11977 -1.05617 0
M  V30 6992 N 703.576 0.692616 1.41565 0
M  V30 6993 C 704.987 0.297478 1.84315 0
M  V30 6994 C 705.338 -1.16379 1.57957 0
M  V30 6995 O 704.463 -1.89303 1.0485 0
M  V30 6996 C 705.058 0.533136 3.34579 0
M  V30 6997 C 703.617 0.191944 3.7591 0
M  V30 6998 C 702.764 0.816873 2.64995 0
M  V30 6999 H 705.715 0.893488 1.31158 0
M  V30 7000 H 705.736 -0.209105 3.79925 0
M  V30 7001 H 705.248 1.59674 3.53731 0
M  V30 7002 H 703.349 -0.867512 3.6236 0
M  V30 7003 H 703.462 0.644902 4.7474 0
M  V30 7004 H 701.826 0.246715 2.53502 0
M  V30 7005 H 702.609 1.88429 2.86966 0
M  V30 7006 N 705.054 -1.51416 0.437162 0
M  V30 7007 C 706.302 -2.01687 -0.129108 0
M  V30 7008 C 706.623 -1.32329 -1.43227 0
M  V30 7009 O 705.893 -0.457796 -1.90476 0
M  V30 7010 H 704.473 -0.745277 -0.0507023 0
M  V30 7011 H 707.135 -1.86075 0.579828 0
M  V30 7012 H 706.231 -3.10605 -0.305141 0
M  V30 7013 N 706.532 -0.168513 -1.56696 0
M  V30 7014 C 707.948 0.187686 -1.58493 0
M  V30 7015 C 708.148 1.63063 -1.18375 0
M  V30 7016 O 707.204 2.36142 -0.894042 0
M  V30 7017 C 708.517 -0.0905858 -3.00564 0
M  V30 7018 C 710.065 -0.028575 -3.12987 0
M  V30 7019 C 710.54 -0.279799 -4.57145 0
M  V30 7020 N 712.031 -0.227476 -4.62641 0
M  V30 7021 C 712.766 -0.396073 -5.7203 0
M  V30 7022 N 712.262 -0.623572 -6.89988 0
M  V30 7023 N 714.055 -0.332173 -5.61118 0
M  V30 7024 H 706.206 -1.11042 -1.81062 0
M  V30 7025 H 708.469 -0.441235 -0.839056 0
M  V30 7026 H 708.175 -1.09006 -3.34381 0
M  V30 7027 H 708.049 0.619078 -3.72085 0
M  V30 7028 H 710.436 0.961471 -2.78998 0
M  V30 7029 H 710.517 -0.770905 -2.43907 0
M  V30 7030 H 710.161 -1.26704 -4.91842 0
M  V30 7031 H 710.091 0.48311 -5.24379 0
M  V30 7032 H 712.582 -0.0571723 -3.77857 0
M  V30 7033 H 712.895 -0.741745 -7.69232 0
M  V30 7034 H 711.24 -0.660153 -6.91858 0
M  V30 7035 H 714.431 -0.155051 -4.67843 0
M  V30 7036 H 714.604 -0.466994 -6.46315 0
M  V30 7037 N 708.01 1.57248 0.105221 0
M  V30 7038 C 709.24 1.89492 0.823175 0
M  V30 7039 C 709.648 0.75934 1.73294 0
M  V30 7040 O 708.991 -0.278182 1.81581 0
M  V30 7041 C 709.053 3.16891 1.69765 0
M  V30 7042 C 708.717 4.46787 0.960769 0
M  V30 7043 C 709.714 5.19061 0.295218 0
M  V30 7044 C 707.399 4.93467 0.937854 0
M  V30 7045 C 709.393 6.36246 -0.383393 0
M  V30 7046 C 707.08 6.10566 0.255452 0
M  V30 7047 C 708.078 6.81804 -0.404003 0
M  V30 7048 O 707.766 7.96673 -1.07549 0
M  V30 7049 H 707.498 0.631512 0.24118 0
M  V30 7050 H 710.052 2.05203 0.0899655 0
M  V30 7051 H 708.282 2.973 2.47285 0
M  V30 7052 H 709.971 3.35046 2.29126 0
M  V30 7053 H 710.737 4.84044 0.304448 0
M  V30 7054 H 706.616 4.37913 1.44058 0
M  V30 7055 H 710.16 6.91787 -0.898696 0
M  V30 7056 H 706.057 6.45039 0.244032 0
M  V30 7057 H 706.825 8.12596 -0.981355 0
M  V30 7058 N 709.488 -0.375779 1.53054 0
M  V30 7059 C 710.904 -0.716764 1.426 0
M  V30 7060 C 711.104 -1.93651 0.556931 0
M  V30 7061 O 710.16 -2.52475 0.0354461 0
M  V30 7062 C 711.473 -0.939499 2.85646 0
M  V30 7063 C 713.021 -1.04015 2.95212 0
M  V30 7064 C 713.496 -1.29543 4.39298 0
M  V30 7065 N 714.987 -1.36335 4.42682 0
M  V30 7066 C 715.722 -1.57778 5.51266 0
M  V30 7067 N 715.218 -1.76604 6.69913 0
M  V30 7068 N 717.011 -1.60065 5.38828 0
M  V30 7069 H 709.162 0.42664 2.08071 0
M  V30 7070 H 711.425 0.128758 0.939215 0
M  V30 7071 H 711.131 -0.115189 3.51511 0
M  V30 7072 H 711.005 -1.85048 3.2869 0
M  V30 7073 H 713.392 -1.85501 2.29507 0
M  V30 7074 H 713.473 -0.106785 2.55577 0
M  V30 7075 H 713.117 -0.485611 5.05573 0
M  V30 7076 H 713.047 -2.24184 4.76497 0
M  V30 7077 H 715.538 -1.23441 3.5717 0
M  V30 7078 H 715.851 -1.9251 7.48438 0
M  V30 7079 H 714.196 -1.73802 6.72917 0
M  V30 7080 H 717.387 -1.44917 4.45103 0
M  V30 7081 H 717.56 -1.76435 6.23518 0
M  V30 7082 N 710.966 -1.44241 -0.634997 0
M  V30 7083 C 712.212 -1.47038 -1.39669 0
M  V30 7084 C 712.545 -0.101122 -1.93937 0
M  V30 7085 O 711.82 0.880699 -1.73418 0
M  V30 7086 C 712.103 -2.52763 -2.56482 0
M  V30 7087 C 711.956 -3.99032 -2.07589 0
M  V30 7088 C 713.275 -2.55031 -3.58674 0
M  V30 7089 H 710.394 -0.53537 -0.506506 0
M  V30 7090 H 713.036 -1.75898 -0.718317 0
M  V30 7091 H 711.186 -2.28284 -3.14354 0
M  V30 7092 H 712.858 -4.3463 -1.54577 0
M  V30 7093 H 711.101 -4.10994 -1.38804 0
M  V30 7094 H 711.772 -4.68649 -2.91671 0
M  V30 7095 H 714.248 -2.76893 -3.10595 0
M  V30 7096 H 713.124 -3.30916 -4.37934 0
M  V30 7097 H 713.385 -1.59085 -4.12486 0
M  V30 7098 N 712.444 0.87505 -1.31075 0
M  V30 7099 C 713.692 1.62447 -1.20231 0
M  V30 7100 C 714.013 1.93506 0.240888 0
M  V30 7101 O 713.283 1.57847 1.16022 0
M  V30 7102 H 711.863 0.602207 -0.441991 0
M  V30 7103 H 714.525 1.04788 -1.64334 0
M  V30 7104 H 713.621 2.57031 -1.77036 0
M  V30 7105 N 713.922 1.13953 1.08869 0
M  V30 7106 C 714.885 0.824991 2.13838 0
M  V30 7107 C 715.885 -0.168198 1.59918 0
M  V30 7108 O 717.075 0.0595778 1.74098 0
M  V30 7109 C 714.207 0.228938 3.4013 0
M  V30 7110 H 715.4 1.75521 2.43171 0
M  V30 7111 H 712.953 0.94492 1.24503 0
M  V30 7112 H 713.688 -0.710227 3.16427 0
M  V30 7113 H 713.473 0.944243 3.80561 0
M  V30 7114 H 714.963 0.0259223 4.17592 0
M  V30 7115 N 715.4 -1.26948 0.933913 0
M  V30 7116 C 716.628 -1.98186 0.59414 0
M  V30 7117 C 717.043 -1.69614 -0.829257 0
M  V30 7118 O 716.4 -0.960213 -1.55197 0
M  V30 7119 C 716.451 -3.52123 0.818026 0
M  V30 7120 O 716.172 -3.79698 2.18543 0
M  V30 7121 C 717.673 -4.40608 0.48781 0
M  V30 7122 H 714.893 -0.632305 0.224569 0
M  V30 7123 H 717.437 -1.61646 1.25263 0
M  V30 7124 H 715.592 -3.86851 0.206246 0
M  V30 7125 H 716.006 -4.7426 2.24005 0
M  V30 7126 H 717.48 -5.47606 0.695126 0
M  V30 7127 H 717.957 -4.35394 -0.576913 0
M  V30 7128 H 718.563 -4.11411 1.078 0
M  V30 7129 N 716.879 -0.700114 -1.41195 0
M  V30 7130 C 717.809 -0.0521132 -2.33442 0
M  V30 7131 C 718.79 0.76228 -1.52063 0
M  V30 7132 O 719.975 0.714336 -1.80585 0
M  V30 7133 C 717.105 0.881693 -3.35922 0
M  V30 7134 C 716.059 0.174062 -4.27646 0
M  V30 7135 C 715.385 1.22254 -5.20536 0
M  V30 7136 C 716.685 -0.962396 -5.13357 0
M  V30 7137 H 718.379 -0.822574 -2.87879 0
M  V30 7138 H 715.925 -0.397011 -1.38419 0
M  V30 7139 H 717.878 1.34429 -3.99383 0
M  V30 7140 H 716.602 1.68387 -2.79845 0
M  V30 7141 H 715.261 -0.268551 -3.65615 0
M  V30 7142 H 714.909 2.01736 -4.60773 0
M  V30 7143 H 714.609 0.754038 -5.82742 0
M  V30 7144 H 716.133 1.68555 -5.86874 0
M  V30 7145 H 717.547 -0.579875 -5.7036 0
M  V30 7146 H 715.944 -1.35828 -5.84526 0
M  V30 7147 H 717.014 -1.80003 -4.50252 0
M  V30 7148 N 718.357 1.51182 -0.445186 0
M  V30 7149 C 719.773 1.59299 -0.0978954 0
M  V30 7150 C 719.973 1.4555 1.39346 0
M  V30 7151 O 719.029 1.30073 2.16419 0
M  V30 7152 C 720.342 2.94133 -0.625005 0
M  V30 7153 C 721.89 3.07463 -0.586137 0
M  V30 7154 C 722.365 4.44832 -1.09035 0
M  V30 7155 N 723.856 4.51173 -1.04867 0
M  V30 7156 C 724.591 5.55804 -1.40959 0
M  V30 7157 N 724.087 6.67816 -1.84375 0
M  V30 7158 N 725.88 5.46205 -1.32726 0
M  V30 7159 H 718.031 1.58363 -1.41544 0
M  V30 7160 H 720.294 0.746946 -0.58376 0
M  V30 7161 H 720 3.09589 -1.66876 0
M  V30 7162 H 719.874 3.77161 -0.0542262 0
M  V30 7163 H 722.261 2.9167 0.448646 0
M  V30 7164 H 722.342 2.26255 -1.19341 0
M  V30 7165 H 721.986 4.61372 -2.12364 0
M  V30 7166 H 721.916 5.24591 -0.459539 0
M  V30 7167 H 724.407 3.70783 -0.729932 0
M  V30 7168 H 724.72 7.43683 -2.10131 0
M  V30 7169 H 723.065 6.69003 -1.88308 0
M  V30 7170 H 726.256 4.57583 -0.986678 0
M  V30 7171 H 726.429 6.27634 -1.61182 0
M  V30 7172 N 719.835 0.176821 1.56605 0
M  V30 7173 C 721.063 -0.472828 2.01425 0
M  V30 7174 C 721.478 -1.56436 1.05703 0
M  V30 7175 O 720.835 -1.82405 0.058808 0
M  V30 7176 C 720.886 -1.04607 3.46034 0
M  V30 7177 O 720.607 0.00189608 4.381 0
M  V30 7178 C 722.108 -1.7734 4.06282 0
M  V30 7179 H 719.328 -0.120503 0.660091 0
M  V30 7180 H 721.872 0.280166 2.02572 0
M  V30 7181 H 720.027 -1.74953 3.45645 0
M  V30 7182 H 720.441 -0.422118 5.22799 0
M  V30 7183 H 721.915 -2.12703 5.09374 0
M  V30 7184 H 722.392 -2.67043 3.4869 0
M  V30 7185 H 722.998 -1.11623 4.10391 0
M  V30 7186 N 721.313 -1.57302 -0.09688 0
M  V30 7187 C 722.538 -1.9058 -0.818169 0
M  V30 7188 C 722.963 -0.770921 -1.71576 0
M  V30 7189 O 722.321 0.277588 -1.79162 0
M  V30 7190 C 722.369 -3.22714 -1.60898 0
M  V30 7191 O 721.473 -3.10178 -2.71779 0
M  V30 7192 H 720.814 -0.624759 -0.224882 0
M  V30 7193 H 723.344 -2.04471 -0.07264 0
M  V30 7194 H 723.354 -3.55978 -1.99358 0
M  V30 7195 H 722.029 -4.04899 -0.950227 0
M  V30 7196 H 720.606 -2.88424 -2.3636 0
M  V30 7197 N 722.791 0.367657 -1.53252 0
M  V30 7198 C 723.754 1.43308 -1.78873 0
M  V30 7199 C 724.754 1.46671 -0.659115 0
M  V30 7200 O 725.944 1.47468 -0.927306 0
M  V30 7201 C 723.076 2.82442 -1.90892 0
M  V30 7202 H 724.269 1.21864 -2.74024 0
M  V30 7203 H 721.822 0.600668 -1.44297 0
M  V30 7204 H 722.557 3.09202 -0.978 0
M  V30 7205 H 722.342 2.81399 -2.73051 0
M  V30 7206 H 723.832 3.59601 -2.12314 0
M  V30 7207 N 724.269 1.44576 0.627338 0
M  V30 7208 C 725.517 1.47267 1.38408 0
M  V30 7209 C 725.838 0.107971 1.94701 0
M  V30 7210 O 725.108 -0.860206 1.76004 0
M  V30 7211 H 723.688 0.542276 0.513756 0
M  V30 7212 H 726.35 1.80383 0.738099 0
M  V30 7213 H 725.446 2.20025 2.21349 0
M  V30 7214 N 725.747 -0.868086 1.31537 0
M  V30 7215 C 726.695 -1.99688 1.1928 0
M  V30 7216 C 727.689 -1.69101 0.100656 0
M  V30 7217 O 728.895 -1.78073 0.262677 0
M  V30 7218 H 725.27 -0.655032 0.369374 0
M  V30 7219 H 727.241 -2.07157 2.14776 0
M  V30 7220 C 725.99 -3.35338 0.918892 0
M  V30 7221 H 725.313 -3.59396 1.75142 0
M  V30 7222 H 726.753 -4.14909 0.873311 0
M  V30 7223 C 725.212 -3.34769 -0.378366 0
M  V30 7224 O 725.742 -3.76716 -1.39456 0
M  V30 7225 N 723.948 -2.87895 -0.39557 0
M  V30 7226 H 723.495 -2.53954 0.431889 0
M  V30 7227 H 723.453 -2.87897 -1.26344 0
M  V30 7228 N 727.225 -1.14528 -1.08264 0
M  V30 7229 C 728.188 -0.83632 -2.13397 0
M  V30 7230 C 729.188 0.159715 -1.60005 0
M  V30 7231 O 730.378 -0.0688098 -1.74064 0
M  V30 7232 C 727.51 -0.246973 -3.40004 0
M  V30 7233 H 728.703 -1.76808 -2.42237 0
M  V30 7234 H 726.256 -0.951509 -1.24 0
M  V30 7235 H 726.991 0.693436 -3.168 0
M  V30 7236 H 726.776 -0.964412 -3.80055 0
M  V30 7237 H 728.266 -0.0480679 -4.17572 0
M  V30 7238 N 728.703 1.26451 -0.940633 0
M  V30 7239 C 729.928 1.98407 -0.60412 0
M  V30 7240 C 730.353 1.69584 0.81382 0
M  V30 7241 O 729.711 0.943553 1.54812 0
M  V30 7242 C 729.759 3.50387 -0.852136 0
M  V30 7243 O 728.863 4.1233 0.076013 0
M  V30 7244 H 728.204 0.622466 -0.231153 0
M  V30 7245 H 730.734 1.60932 -1.26342 0
M  V30 7246 H 730.744 4.00614 -0.772816 0
M  V30 7247 H 729.419 3.70696 -1.88566 0
M  V30 7248 H 727.996 3.7286 -0.0543187 0
M  V30 7249 N 730.181 0.707592 1.40822 0
M  V30 7250 C 731.409 0.253073 2.05346 0
M  V30 7251 C 731.824 -1.10218 1.53289 0
M  V30 7252 O 731.181 -1.69112 0.686105 0
M  V30 7253 C 731.232 0.215411 3.60858 0
M  V30 7254 O 730.953 1.51714 4.10992 0
M  V30 7255 C 732.454 -0.258636 4.42545 0
M  V30 7256 H 729.674 0.115256 0.661027 0
M  V30 7257 H 732.218 0.963555 1.80377 0
M  V30 7258 H 730.373 -0.445978 3.84824 0
M  V30 7259 H 730.787 1.41226 5.05129 0
M  V30 7260 H 732.261 -0.233849 5.51504 0
M  V30 7261 H 732.738 -1.2995 4.19535 0
M  V30 7262 H 733.344 0.372186 4.23668 0
M  V30 7263 N 731.66 -1.50943 0.453197 0
M  V30 7264 C 732.888 -2.06628 -0.106135 0
M  V30 7265 C 733.303 -1.31901 -1.35084 0
M  V30 7266 O 732.66 -0.383074 -1.78434 0
M  V30 7267 C 732.711 -3.5914 -0.412368 0
M  V30 7268 O 732.432 -4.31047 0.782948 0
M  V30 7269 C 733.933 -4.31391 -1.02064 0
M  V30 7270 H 731.153 -0.670999 -0.000885896 0
M  V30 7271 H 733.697 -1.94331 0.63684 0
M  V30 7272 H 731.852 -3.71299 -1.10526 0
M  V30 7273 H 732.266 -5.21948 0.516736 0
M  V30 7274 H 733.74 -5.39135 -1.1848 0
M  V30 7275 H 734.217 -3.90714 -2.00598 0
M  V30 7276 H 734.823 -4.23716 -0.366664 0
M  V30 7277 N 733.138 -0.185124 -1.56509 0
M  V30 7278 C 734.385 0.456258 -1.97293 0
M  V30 7279 C 734.713 1.62314 -1.07165 0
M  V30 7280 O 733.968 1.95398 -0.108621 0
M  V30 7281 C 734.267 0.967977 -3.44042 0
M  V30 7282 C 733.933 -0.084476 -4.50821 0
M  V30 7283 C 732.595 -0.373689 -4.79747 0
M  V30 7284 C 734.947 -0.79812 -5.15053 0
M  V30 7285 C 732.275 -1.3817 -5.70198 0
M  V30 7286 C 734.627 -1.79521 -6.06593 0
M  V30 7287 C 733.291 -2.09172 -6.3388 0
M  V30 7288 H 732.561 0.166957 -0.721946 0
M  V30 7289 H 735.208 -0.279992 -1.89442 0
M  V30 7290 H 733.513 1.78231 -3.48914 0
M  V30 7291 H 735.21 1.47347 -3.72948 0
M  V30 7292 H 731.8 0.15111 -4.28334 0
M  V30 7293 H 735.984 -0.587903 -4.92806 0
M  V30 7294 H 731.24 -1.61745 -5.89617 0
M  V30 7295 H 735.414 -2.35347 -6.55427 0
M  V30 7296 H 733.041 -2.87427 -7.03768 0
M  V30 7297 N 734.616 1.57351 0.0885366 0
M  V30 7298 C 735.844 1.90631 0.804196 0
M  V30 7299 C 736.259 0.779474 1.71958 0
M  V30 7300 O 735.616 -0.248179 1.80805 0
M  V30 7301 C 735.667 3.23568 1.61202 0
M  V30 7302 O 735.388 4.31917 0.733447 0
M  V30 7303 C 736.889 3.70753 2.43016 0
M  V30 7304 H 734.109 0.630501 0.229585 0
M  V30 7305 H 736.653 2.044 0.0638092 0
M  V30 7306 H 734.808 3.11377 2.30485 0
M  V30 7307 H 735.222 5.08297 1.29361 0
M  V30 7308 H 736.696 4.66447 2.9518 0
M  V30 7309 H 737.173 2.98922 3.2178 0
M  V30 7310 H 737.779 3.85834 1.7892 0
M  V30 7311 N 736.094 -0.359525 1.53444 0
M  V30 7312 C 737.34 -1.10315 1.70172 0
M  V30 7313 C 737.673 -1.88788 0.455287 0
M  V30 7314 O 736.948 -1.86635 -0.547514 0
M  V30 7315 C 737.231 -2.05744 2.95536 0
M  V30 7316 C 737.084 -1.3084 4.3035 0
M  V30 7317 C 738.403 -3.05784 3.16518 0
M  V30 7318 H 735.522 -0.399662 0.619225 0
M  V30 7319 H 738.164 -0.383338 1.86093 0
M  V30 7320 H 736.314 -2.67125 2.82093 0
M  V30 7321 H 737.986 -0.721959 4.55615 0
M  V30 7322 H 736.229 -0.610283 4.29486 0
M  V30 7323 H 736.9 -2.00718 5.14214 0
M  V30 7324 H 739.376 -2.5451 3.29187 0
M  V30 7325 H 738.252 -3.69772 4.05659 0
M  V30 7326 H 738.513 -3.76289 2.32076 0
M  V30 7327 N 737.572 -1.44907 -0.619662 0
M  V30 7328 C 738.8 -1.51795 -1.40591 0
M  V30 7329 C 739.215 -0.146553 -1.8823 0
M  V30 7330 O 738.572 0.849698 -1.61513 0
M  V30 7331 C 738.623 -2.49229 -2.61853 0
M  V30 7332 O 738.344 -3.81039 -2.16197 0
M  V30 7333 C 739.845 -2.65696 -3.54853 0
M  V30 7334 H 737.065 -0.514463 -0.430777 0
M  V30 7335 H 739.609 -1.8998 -0.756813 0
M  V30 7336 H 737.764 -2.14149 -3.2283 0
M  V30 7337 H 738.178 -4.33747 -2.94896 0
M  V30 7338 H 739.652 -3.37874 -4.36515 0
M  V30 7339 H 740.129 -1.71316 -4.0441 0
M  V30 7340 H 740.735 -3.01724 -2.99737 0
M  V30 7341 N 739.05 0.861098 -1.31996 0
M  V30 7342 C 740.296 1.61721 -1.22369 0
M  V30 7343 C 740.629 1.93 0.215587 0
M  V30 7344 O 739.904 1.56789 1.15098 0
M  V30 7345 C 740.187 2.9417 -2.07691 0
M  V30 7346 C 740.04 2.69714 -3.59965 0
M  V30 7347 C 741.359 3.95372 -1.93312 0
M  V30 7348 H 738.478 0.586822 -0.44588 0
M  V30 7349 H 741.12 0.994788 -1.61876 0
M  V30 7350 H 739.27 3.47292 -1.74128 0
M  V30 7351 H 740.942 2.23196 -4.03709 0
M  V30 7352 H 739.185 2.03789 -3.82952 0
M  V30 7353 H 739.856 3.63996 -4.14983 0
M  V30 7354 H 742.332 3.51487 -2.22701 0
M  V30 7355 H 741.208 4.85916 -2.55298 0
M  V30 7356 H 741.469 4.32865 -0.898922 0
M  V30 7357 N 740.528 1.15101 1.07655 0
M  V30 7358 C 741.776 0.922149 1.79836 0
M  V30 7359 C 742.097 -0.552346 1.87014 0
M  V30 7360 O 741.367 -1.40145 1.3688 0
M  V30 7361 H 739.947 0.338182 0.666064 0
M  V30 7362 H 742.609 1.45107 1.30115 0
M  V30 7363 H 741.705 1.32883 2.82398 0
M  V30 7364 N 742.006 -1.2595 0.947325 0
M  V30 7365 C 742.936 -2.28521 0.479604 0
M  V30 7366 C 743.917 -1.63469 -0.470293 0
M  V30 7367 O 745.102 -1.90627 -0.370824 0
M  V30 7368 C 742.232 -3.46397 -0.250289 0
M  V30 7369 C 741.186 -4.23578 0.613643 0
M  V30 7370 C 740.512 -5.34131 -0.246568 0
M  V30 7371 C 741.812 -4.86979 1.88809 0
M  V30 7372 H 743.506 -2.67895 1.33688 0
M  V30 7373 H 741.052 -1.28783 0.644274 0
M  V30 7374 H 743.005 -4.17269 -0.588576 0
M  V30 7375 H 741.729 -3.05993 -1.14175 0
M  V30 7376 H 740.388 -3.54478 0.93491 0
M  V30 7377 H 740.036 -4.89968 -1.13756 0
M  V30 7378 H 739.736 -5.86683 0.328123 0
M  V30 7379 H 741.26 -6.07839 -0.579986 0
M  V30 7380 H 742.674 -5.50034 1.61666 0
M  V30 7381 H 741.071 -5.49675 2.40784 0
M  V30 7382 H 742.141 -4.09575 2.5957 0
M  V30 7383 N 743.484 -0.715051 -1.40445 0
M  V30 7384 C 744.414 -0.0768699 -2.33373 0
M  V30 7385 C 745.395 0.746109 -1.52863 0
M  V30 7386 O 746.58 0.695142 -1.81332 0
M  V30 7387 C 743.71 0.846014 -3.36838 0
M  V30 7388 C 742.664 0.128694 -4.27806 0
M  V30 7389 C 741.99 1.16726 -5.21804 0
M  V30 7390 C 743.29 -1.01679 -5.12307 0
M  V30 7391 H 744.984 -0.853061 -2.8699 0
M  V30 7392 H 742.53 -0.41167 -1.3799 0
M  V30 7393 H 744.483 1.30185 -4.00786 0
M  V30 7394 H 743.207 1.6541 -2.81615 0
M  V30 7395 H 741.866 -0.307314 -3.6531 0
M  V30 7396 H 741.514 1.96838 -4.62887 0
M  V30 7397 H 741.214 0.692188 -5.83509 0
M  V30 7398 H 742.738 1.62321 -5.88629 0
M  V30 7399 H 744.152 -0.640337 -5.69713 0
M  V30 7400 H 742.549 -1.4202 -5.83053 0
M  V30 7401 H 743.619 -1.84769 -4.48317 0
M  V30 7402 N 744.962 1.50701 -0.461195 0
M  V30 7403 C 746.239 1.94958 0.158296 0
M  V30 7404 C 746.619 1.40111 1.57899 0
M  V30 7405 O 745.967 0.597976 2.20537 0
M  V30 7406 C 746.177 3.48821 0.11172 0
M  V30 7407 C 747.525 4.23499 0.30552 0
M  V30 7408 O 748.549 3.557 0.188758 0
M  V30 7409 O 747.408 5.43823 0.540244 0
M  V30 7410 H 744.502 0.818674 0.117054 0
M  V30 7411 H 747.048 1.61508 -0.520888 0
M  V30 7412 H 745.82 3.81263 -0.880577 0
M  V30 7413 H 745.443 3.88781 0.832791 0
M  V30 7414 N 746.441 0.193421 1.56409 0
M  V30 7415 C 747.373 -0.759944 2.16235 0
M  V30 7416 C 748.386 -1.17797 1.12373 0
M  V30 7417 O 749.575 -1.11399 1.39472 0
M  V30 7418 C 746.675 -2.03735 2.70823 0
M  V30 7419 C 745.848 -1.77939 3.9957 0
M  V30 7420 C 744.907 -2.90111 4.39001 0
M  V30 7421 O 743.933 -2.59791 5.06456 0
M  V30 7422 N 745.135 -4.18426 4.02368 0
M  V30 7423 H 747.9 -0.248348 2.98669 0
M  V30 7424 H 745.461 0.0113966 1.61896 0
M  V30 7425 H 747.453 -2.77914 2.94187 0
M  V30 7426 H 746.023 -2.46022 1.92852 0
M  V30 7427 H 745.243 -0.875491 3.84355 0
M  V30 7428 H 746.531 -1.58099 4.83614 0
M  V30 7429 H 745.929 -4.45913 3.48106 0
M  V30 7430 H 744.486 -4.89237 4.30686 0
M  V30 7431 N 747.919 -1.57396 -0.0801906 0
M  V30 7432 C 748.882 -2.02133 -1.0805 0
M  V30 7433 C 749.882 -0.91707 -1.32085 0
M  V30 7434 O 751.072 -1.18217 -1.27947 0
M  V30 7435 C 748.204 -2.39479 -2.42616 0
M  V30 7436 H 749.397 -2.91733 -0.6951 0
M  V30 7437 H 746.95 -1.52869 -0.325677 0
M  V30 7438 H 747.685 -1.52879 -2.86004 0
M  V30 7439 H 747.47 -3.20052 -2.26515 0
M  V30 7440 H 748.96 -2.74697 -3.14534 0
M  V30 7441 N 749.397 0.351382 -1.53633 0
M  V30 7442 C 750.813 0.693987 -1.43722 0
M  V30 7443 C 751.013 1.9274 -0.587669 0
M  V30 7444 O 750.069 2.52387 -0.0756082 0
M  V30 7445 C 751.382 0.893937 -2.87105 0
M  V30 7446 C 752.93 0.993051 -2.96829 0
M  V30 7447 C 753.405 1.22537 -4.41303 0
M  V30 7448 N 754.896 1.29275 -4.44795 0
M  V30 7449 C 755.631 1.48988 -5.53706 0
M  V30 7450 N 755.127 1.65924 -6.72637 0
M  V30 7451 N 756.92 1.51472 -5.41306 0
M  V30 7452 H 749.071 -0.459688 -2.07366 0
M  V30 7453 H 751.334 -0.143684 -0.937048 0
M  V30 7454 H 751.04 0.0592517 -3.5165 0
M  V30 7455 H 750.914 1.79795 -3.31592 0
M  V30 7456 H 753.301 1.81827 -2.32429 0
M  V30 7457 H 753.382 0.0661119 -2.55715 0
M  V30 7458 H 753.026 0.405117 -5.06282 0
M  V30 7459 H 752.956 2.16575 -4.80003 0
M  V30 7460 H 755.447 1.17743 -3.59089 0
M  V30 7461 H 755.76 1.80578 -7.51406 0
M  V30 7462 H 754.105 1.63075 -6.75597 0
M  V30 7463 H 757.296 1.37818 -4.47352 0
M  V30 7464 H 757.469 1.66493 -6.26246 0
M  V30 7465 N 750.875 1.45233 0.611969 0
M  V30 7466 C 751.808 1.48056 1.73651 0
M  V30 7467 C 752.786 0.337373 1.59061 0
M  V30 7468 O 753.97 0.537222 1.80683 0
M  V30 7469 C 751.097 1.33144 3.11433 0
M  V30 7470 C 750.143 2.51272 3.44623 0
M  V30 7471 S 750.976 4.13754 3.39953 0
M  V30 7472 C 752.132 4.013 4.80322 0
M  V30 7473 H 752.365 2.43205 1.70993 0
M  V30 7474 H 749.898 1.32763 0.788246 0
M  V30 7475 H 751.856 1.25228 3.90932 0
M  V30 7476 H 750.517 0.394734 3.1161 0
M  V30 7477 H 749.71 2.36753 4.44932 0
M  V30 7478 H 749.312 2.56027 2.72629 0
M  V30 7479 H 751.604 3.66174 5.7002 0
M  V30 7480 H 752.547 5.01506 4.99897 0
M  V30 7481 H 752.955 3.3303 4.55797 0
M  V30 7482 N 752.353 -0.854086 1.3245 0
M  V30 7483 C 753.578 -1.64597 1.26185 0
M  V30 7484 C 754.003 -1.87357 -0.167074 0
M  V30 7485 O 753.361 -1.42675 -1.11864 0
M  V30 7486 C 753.409 -2.98213 2.02734 0
M  V30 7487 O 752.513 -3.88784 1.37554 0
M  V30 7488 H 751.854 -0.50179 0.434859 0
M  V30 7489 H 754.384 -1.06372 1.74775 0
M  V30 7490 H 754.394 -3.4803 2.1293 0
M  V30 7491 H 753.069 -2.80969 3.06642 0
M  V30 7492 H 751.646 -3.4725 1.3591 0
M  V30 7493 N 753.831 -1.1567 -1.07043 0
M  V30 7494 C 755.08 -0.928039 -1.79082 0
M  V30 7495 C 755.393 0.545968 -1.87826 0
M  V30 7496 O 756.599 0.892308 -2.56418 0
M  V30 7497 C 755.055 -1.61103 -3.21829 0
M  V30 7498 C 754.663 -3.12228 -3.21275 0
M  V30 7499 C 756.407 -1.46404 -3.98455 0
M  V30 7500 C 754.314 -3.733 -4.58695 0
M  V30 7501 H 753.244 -0.34357 -0.671175 0
M  V30 7502 H 755.895 -1.38718 -1.20123 0
M  V30 7503 H 754.277 -1.07958 -3.81 0
M  V30 7504 H 755.451 -3.72155 -2.71731 0
M  V30 7505 H 753.766 -3.26725 -2.58147 0
M  V30 7506 H 756.363 -1.8942 -5.00024 0
M  V30 7507 H 756.706 -0.41195 -4.14257 0
M  V30 7508 H 757.239 -1.96663 -3.45787 0
M  V30 7509 H 753.978 -4.78423 -4.48098 0
M  V30 7510 H 753.498 -3.18157 -5.08465 0
M  V30 7511 H 755.177 -3.7441 -5.27661 0
M  V30 7512 N 755.309 1.25446 -0.953992 0
M  V30 7513 C 756.272 2.24156 -0.478179 0
M  V30 7514 C 757.272 1.55278 0.417776 0
M  V30 7515 O 758.462 1.72866 0.215155 0
M  V30 7516 C 755.594 3.39495 0.309202 0
M  V30 7517 H 756.787 2.67764 -1.35064 0
M  V30 7518 H 754.34 1.37822 -0.737206 0
M  V30 7519 H 755.075 3.01307 1.19936 0
M  V30 7520 H 754.86 3.90679 -0.333562 0
M  V30 7521 H 756.35 4.12796 0.631594 0
M  V30 7522 N 756.787 0.722489 1.40064 0
M  V30 7523 C 758.064 0.191829 1.94657 0
M  V30 7524 C 758.444 -1.30389 1.66018 0
M  V30 7525 O 757.792 -2.06342 0.981588 0
M  V30 7526 C 758.002 0.511978 3.45224 0
M  V30 7527 C 759.35 0.454426 4.22161 0
M  V30 7528 O 760.374 0.448438 3.53366 0
M  V30 7529 O 759.233 0.437986 5.44742 0
M  V30 7530 H 756.327 0.0307821 0.826427 0
M  V30 7531 H 758.873 0.800493 1.49634 0
M  V30 7532 H 757.645 1.54622 3.59455 0
M  V30 7533 H 757.268 -0.126296 3.97399 0
M  V30 7534 N 758.265 -1.50454 0.469181 0
M  V30 7535 C 759.511 -2.02615 -0.0865971 0
M  V30 7536 C 759.844 -1.35062 -1.39542 0
M  V30 7537 O 759.119 -0.475701 -1.88593 0
M  V30 7538 C 759.402 -3.59068 -0.272385 0
M  V30 7539 C 759.255 -4.37196 1.05733 0
M  V30 7540 C 760.574 -4.2793 -1.0278 0
M  V30 7541 H 757.693 -0.736389 -0.0299977 0
M  V30 7542 H 760.335 -1.79792 0.614399 0
M  V30 7543 H 758.485 -3.78646 -0.869471 0
M  V30 7544 H 760.157 -4.29195 1.69084 0
M  V30 7545 H 758.4 -4.01013 1.65442 0
M  V30 7546 H 759.071 -5.44924 0.880997 0
M  V30 7547 H 761.547 -4.12816 -0.521718 0
M  V30 7548 H 760.423 -5.37214 -1.12659 0
M  V30 7549 H 760.684 -3.90968 -2.0639 0
M  V30 7550 N 759.743 -0.201713 -1.56304 0
M  V30 7551 C 761.02 0.483273 -1.89536 0
M  V30 7552 C 761.4 1.79176 -1.11621 0
M  V30 7553 O 760.748 2.27445 -0.219339 0
M  V30 7554 C 760.958 0.695604 -3.41998 0
M  V30 7555 C 762.306 1.012 -4.12364 0
M  V30 7556 O 763.33 0.783094 -3.47485 0
M  V30 7557 O 762.189 1.44534 -5.27041 0
M  V30 7558 H 759.283 0.252801 -0.787414 0
M  V30 7559 H 761.829 -0.24242 -1.6796 0
M  V30 7560 H 760.601 -0.228165 -3.90634 0
M  V30 7561 H 760.224 1.47351 -3.69288 0
M  V30 7562 N 761.222 1.57436 0.0718424 0
M  V30 7563 C 762.447 1.91858 0.787745 0
M  V30 7564 C 762.872 0.798119 1.70328 0
M  V30 7565 O 762.23 -0.24905 1.79581 0
M  V30 7566 C 762.278 3.25232 1.55744 0
M  V30 7567 O 761.382 3.14462 2.6681 0
M  V30 7568 H 760.723 0.628258 0.214914 0
M  V30 7569 H 763.253 2.04561 0.0401012 0
M  V30 7570 H 763.263 3.59105 1.9367 0
M  V30 7571 H 761.938 4.0636 0.885691 0
M  V30 7572 H 760.515 2.92148 2.31741 0
M  V30 7573 N 762.7 -0.34323 1.53817 0
M  V30 7574 C 763.61 -1.44493 1.84821 0
M  V30 7575 C 764.626 -1.57556 0.738381 0
M  V30 7576 O 765.802 -1.73026 1.03072 0
M  V30 7577 C 762.867 -2.79478 2.05166 0
M  V30 7578 C 761.928 -2.75756 3.29025 0
M  V30 7579 C 761.161 -4.04302 3.4839 0
M  V30 7580 O 761.384 -5.01595 2.71586 0
M  V30 7581 O 760.318 -4.08754 4.41819 0
M  V30 7582 H 764.144 -1.21209 2.78464 0
M  V30 7583 H 761.729 -0.535437 1.39476 0
M  V30 7584 H 763.611 -3.59419 2.19991 0
M  V30 7585 H 762.286 -3.02692 1.14713 0
M  V30 7586 H 761.193 -1.94434 3.19603 0
M  V30 7587 H 762.526 -2.57495 4.19472 0
M  V30 7588 N 764.178 -1.45556 -0.604258 0
M  V30 7589 C 765.088 -1.57025 -1.74299 0
M  V30 7590 C 766.104 -0.45456 -1.67958 0
M  V30 7591 O 767.28 -0.715711 -1.88254 0
M  V30 7592 C 764.345 -1.53702 -3.10768 0
M  V30 7593 C 763.406 -2.76335 -3.28538 0
M  V30 7594 C 762.639 -2.73161 -4.58496 0
M  V30 7595 O 762.862 -1.80678 -5.41028 0
M  V30 7596 O 761.796 -3.64409 -4.79051 0
M  V30 7597 H 765.622 -2.53284 -1.67573 0
M  V30 7598 H 763.207 -1.28104 -0.768745 0
M  V30 7599 H 765.089 -1.54468 -3.92068 0
M  V30 7600 H 763.764 -0.605957 -3.17978 0
M  V30 7601 H 762.671 -2.8113 -2.46813 0
M  V30 7602 H 764.004 -3.68578 -3.26207 0
M  V30 7603 N 765.656 0.84705 -1.32902 0
M  V30 7604 C 766.884 1.63403 -1.26913 0
M  V30 7605 C 767.299 1.88108 0.161483 0
M  V30 7606 O 766.656 1.45546 1.10103 0
M  V30 7607 C 766.707 2.98896 -2.03331 0
M  V30 7608 O 766.428 2.75281 -3.40811 0
M  V30 7609 C 767.929 3.93335 -2.04457 0
M  V30 7610 H 765.149 0.508701 -0.437566 0
M  V30 7611 H 767.693 1.05567 -1.75145 0
M  V30 7612 H 765.848 3.53356 -1.58802 0
M  V30 7613 H 766.262 3.61504 -3.8002 0
M  V30 7614 H 767.736 4.85647 -2.62394 0
M  V30 7615 H 768.213 4.26885 -1.03274 0
M  V30 7616 H 768.819 3.44812 -2.48967 0
M  V30 7617 N 767.134 1.16236 1.06428 0
M  V30 7618 C 768.097 0.870163 2.1204 0
M  V30 7619 C 769.097 -0.134239 1.60239 0
M  V30 7620 O 770.287 0.0964932 1.73933 0
M  V30 7621 C 767.419 0.301033 3.39568 0
M  V30 7622 H 768.612 1.8064 2.39394 0
M  V30 7623 H 766.165 0.971116 1.2247 0
M  V30 7624 H 766.9 -0.642948 3.17863 0
M  V30 7625 H 766.685 1.02475 3.78472 0
M  V30 7626 H 768.175 0.114494 4.17443 0
M  V30 7627 N 768.612 -1.24939 0.960631 0
M  V30 7628 C 770.028 -1.45039 0.666018 0
M  V30 7629 C 770.228 -1.86021 -0.774501 0
M  V30 7630 O 769.284 -1.99392 -1.54916 0
M  V30 7631 C 770.597 -2.51775 1.64408 0
M  V30 7632 C 772.145 -2.6561 1.65592 0
M  V30 7633 C 772.62 -3.75536 2.62177 0
M  V30 7634 N 774.111 -3.82954 2.60577 0
M  V30 7635 C 774.846 -4.67517 3.31987 0
M  V30 7636 N 774.342 -5.56321 4.1289 0
M  V30 7637 N 776.135 -4.61535 3.20845 0
M  V30 7638 H 768.286 -0.96632 1.89145 0
M  V30 7639 H 770.549 -0.486034 0.813926 0
M  V30 7640 H 770.255 -2.28534 2.67329 0
M  V30 7641 H 770.129 -3.49804 1.41128 0
M  V30 7642 H 772.516 -2.88212 0.633846 0
M  V30 7643 H 772.597 -1.67962 1.92931 0
M  V30 7644 H 772.241 -3.53684 3.64514 0
M  V30 7645 H 772.171 -4.72682 2.32119 0
M  V30 7646 H 774.662 -3.19478 2.01847 0
M  V30 7647 H 774.975 -6.17787 4.64283 0
M  V30 7648 H 773.32 -5.5601 4.16987 0
M  V30 7649 H 776.511 -3.91169 2.57108 0
M  V30 7650 H 776.684 -5.27214 3.76762 0
M  V30 7651 N 770.09 -0.729906 -1.39679 0
M  V30 7652 C 771 -0.0880322 -2.34435 0
M  V30 7653 C 772.016 0.727674 -1.58053 0
M  V30 7654 O 773.192 0.657321 -1.90371 0
M  V30 7655 C 770.257 0.812211 -3.37052 0
M  V30 7656 C 769.318 -0.0151681 -4.29297 0
M  V30 7657 C 768.551 0.842202 -5.27013 0
M  V30 7658 O 768.774 2.08108 -5.31081 0
M  V30 7659 O 767.708 0.27357 -6.01278 0
M  V30 7660 H 771.534 -0.869989 -2.90972 0
M  V30 7661 H 769.119 -0.490522 -1.41118 0
M  V30 7662 H 771.001 1.32745 -3.99946 0
M  V30 7663 H 769.676 1.57307 -2.82907 0
M  V30 7664 H 768.583 -0.575811 -3.69642 0
M  V30 7665 H 769.916 -0.738129 -4.86634 0
M  V30 7666 N 771.568 1.50203 -0.477153 0
M  V30 7667 C 772.845 1.95115 0.137609 0
M  V30 7668 C 773.225 1.41778 1.56404 0
M  V30 7669 O 772.573 0.621333 2.1989 0
M  V30 7670 C 772.783 3.4892 0.0747168 0
M  V30 7671 C 774.131 4.238 0.260585 0
M  V30 7672 O 775.155 3.5588 0.151021 0
M  V30 7673 O 774.014 5.44366 0.482534 0
M  V30 7674 H 771.108 0.81987 0.108364 0
M  V30 7675 H 773.654 1.60946 -0.537989 0
M  V30 7676 H 772.426 3.80308 -0.920966 0
M  V30 7677 H 772.049 3.89642 0.791509 0
M  V30 7678 N 773.046 0.209999 1.56195 0
M  V30 7679 C 774.294 -0.423974 1.97603 0
M  V30 7680 C 774.615 -1.61112 1.09854 0
M  V30 7681 O 773.885 -1.95134 0.173032 0
M  V30 7682 H 772.465 -0.159629 0.729745 0
M  V30 7683 H 775.127 0.300205 1.92574 0
M  V30 7684 H 774.223 -0.75809 3.02753 0
M  V30 7685 N 774.524 -1.57472 -0.0634922 0
M  V30 7686 C 775.94 -1.54016 -0.418466 0
M  V30 7687 C 776.14 -0.931376 -1.78683 0
M  V30 7688 O 775.196 -0.537465 -2.46714 0
M  V30 7689 C 776.509 -2.98634 -0.351906 0
M  V30 7690 C 778.057 -3.10012 -0.431494 0
M  V30 7691 C 778.532 -4.56296 -0.394754 0
M  V30 7692 N 780.023 -4.60964 -0.454583 0
M  V30 7693 C 780.758 -5.71643 -0.448501 0
M  V30 7694 N 780.254 -6.91663 -0.396742 0
M  V30 7695 N 782.047 -5.5991 -0.495677 0
M  V30 7696 H 774.198 -1.95409 0.832408 0
M  V30 7697 H 776.461 -0.894769 0.313197 0
M  V30 7698 H 776.167 -3.46766 0.587048 0
M  V30 7699 H 776.041 -3.58955 -1.15893 0
M  V30 7700 H 778.428 -2.61848 -1.36087 0
M  V30 7701 H 778.509 -2.52585 0.404258 0
M  V30 7702 H 778.153 -5.05119 0.530811 0
M  V30 7703 H 778.083 -5.11594 -1.24815 0
M  V30 7704 H 780.574 -3.74598 -0.498496 0
M  V30 7705 H 780.887 -7.71783 -0.396256 0
M  V30 7706 H 779.232 -6.9405 -0.363304 0
M  V30 7707 H 782.423 -4.65046 -0.533864 0
M  V30 7708 H 782.596 -6.46164 -0.487469 0
M  V30 7709 N 776.003 0.335068 -1.53997 0
M  V30 7710 C 776.966 1.39481 -1.81872 0
M  V30 7711 C 777.966 1.4524 -0.690078 0
M  V30 7712 O 779.156 1.45467 -0.958377 0
M  V30 7713 C 776.288 2.78329 -1.9684 0
M  V30 7714 H 777.481 1.16024 -2.76547 0
M  V30 7715 H 775.034 0.569926 -1.45539 0
M  V30 7716 H 775.769 3.07058 -1.04337 0
M  V30 7717 H 775.554 2.75544 -2.78958 0
M  V30 7718 H 777.044 3.55016 -2.19894 0
M  V30 7719 N 777.481 1.45874 0.596531 0
M  V30 7720 C 778.706 1.54247 1.38646 0
M  V30 7721 C 779.131 0.179571 1.87241 0
M  V30 7722 O 778.489 -0.837831 1.6078 0
M  V30 7723 C 778.537 2.54015 2.55946 0
M  V30 7724 O 777.641 2.06561 3.5694 0
M  V30 7725 H 776.982 0.519555 0.413471 0
M  V30 7726 H 779.512 1.91327 0.724936 0
M  V30 7727 H 779.522 2.73179 3.03047 0
M  V30 7728 H 778.197 3.52994 2.19928 0
M  V30 7729 H 776.774 1.97324 3.16414 0
M  V30 7730 N 778.959 -0.83999 1.33349 0
M  V30 7731 C 779.907 -1.97113 1.23488 0
M  V30 7732 C 780.901 -1.68849 0.136503 0
M  V30 7733 O 782.107 -1.77476 0.300389 0
M  V30 7734 H 778.482 -0.647049 0.383185 0
M  V30 7735 H 780.453 -2.02554 2.19122 0
M  V30 7736 C 779.202 -3.33314 0.989815 0
M  V30 7737 H 778.525 -3.556 1.82726 0
M  V30 7738 H 779.965 -4.12963 0.961123 0
M  V30 7739 C 778.424 -3.35496 -0.307272 0
M  V30 7740 O 778.954 -3.79589 -1.31434 0
M  V30 7741 N 777.16 -2.88669 -0.334414 0
M  V30 7742 H 776.707 -2.5298 0.485659 0
M  V30 7743 H 776.665 -2.90512 -1.20209 0
M  V30 7744 N 780.437 -1.16799 -1.0581 0
M  V30 7745 C 781.683 -0.953935 -1.78963 0
M  V30 7746 C 782.016 0.516638 -1.87202 0
M  V30 7747 O 781.291 1.38338 -1.36721 0
M  V30 7748 C 781.574 -1.58808 -3.23191 0
M  V30 7749 C 781.427 -3.13032 -3.23003 0
M  V30 7750 C 782.746 -1.2868 -4.20867 0
M  V30 7751 H 779.865 -0.347972 -0.64968 0
M  V30 7752 H 782.507 -1.44204 -1.23715 0
M  V30 7753 H 780.657 -1.17303 -3.70368 0
M  V30 7754 H 782.329 -3.63553 -2.83949 0
M  V30 7755 H 780.572 -3.46108 -2.61518 0
M  V30 7756 H 781.243 -3.52527 -4.24769 0
M  V30 7757 H 783.719 -1.6461 -3.82155 0
M  V30 7758 H 782.595 -1.75645 -5.20038 0
M  V30 7759 H 782.856 -0.206491 -4.41618 0
M  V30 7760 N 781.915 1.24427 -0.967243 0
M  V30 7761 C 783.164 1.91789 -0.624478 0
M  V30 7762 C 783.477 1.76448 0.844129 0
M  V30 7763 O 784.683 2.38495 1.2974 0
M  V30 7764 C 783.139 3.43743 -1.06626 0
M  V30 7765 C 782.747 3.67771 -2.55829 0
M  V30 7766 C 784.491 4.16958 -0.79662 0
M  V30 7767 C 782.398 5.13293 -2.93742 0
M  V30 7768 H 781.328 0.71811 -0.229856 0
M  V30 7769 H 783.979 1.41081 -1.17339 0
M  V30 7770 H 782.361 3.93484 -0.445663 0
M  V30 7771 H 783.535 3.28631 -3.23015 0
M  V30 7772 H 781.85 3.07841 -2.80398 0
M  V30 7773 H 784.447 5.24171 -1.05589 0
M  V30 7774 H 784.79 4.15442 0.267163 0
M  V30 7775 H 785.323 3.73164 -1.37816 0
M  V30 7776 H 782.062 5.19931 -3.9919 0
M  V30 7777 H 781.582 5.53433 -2.3124 0
M  V30 7778 H 783.261 5.81521 -2.83623 0
M  V30 7779 N 783.393 0.737304 1.3929 0
M  V30 7780 C 784.67 0.212464 1.94443 0
M  V30 7781 C 785.05 -1.28621 1.67391 0
M  V30 7782 O 784.398 -2.0529 1.00342 0
M  V30 7783 C 784.608 0.548565 3.44662 0
M  V30 7784 C 785.956 0.499177 4.21656 0
M  V30 7785 O 786.98 0.485892 3.5287 0
M  V30 7786 O 785.839 0.495739 5.44247 0
M  V30 7787 H 782.933 0.0395457 0.826054 0
M  V30 7788 H 785.479 0.816319 1.48776 0
M  V30 7789 H 784.251 1.58426 3.57795 0
M  V30 7790 H 783.874 -0.0841399 3.97511 0
M  V30 7791 N 784.871 -1.49948 0.485112 0
M  V30 7792 C 786.119 -2.01996 -0.0648775 0
M  V30 7793 C 786.44 -1.36819 -1.38945 0
M  V30 7794 O 785.71 -0.518163 -1.88923 0
M  V30 7795 H 784.29 -0.746513 -0.0269662 0
M  V30 7796 H 786.952 -1.84136 0.638733 0
M  V30 7797 H 786.048 -3.11418 -0.20617 0
M  V30 7798 N 786.349 -0.21828 -1.56081 0
M  V30 7799 C 787.297 0.709679 -2.21509 0
M  V30 7800 C 788.291 1.20221 -1.19346 0
M  V30 7801 O 789.497 1.16241 -1.37433 0
M  V30 7802 H 785.872 0.247271 -0.710184 0
M  V30 7803 H 787.843 0.134386 -2.98097 0
M  V30 7804 C 786.592 1.90853 -2.90638 0
M  V30 7805 H 785.915 1.53865 -3.69006 0
M  V30 7806 H 787.355 2.53568 -3.39822 0
M  V30 7807 C 785.814 2.76189 -1.92929 0
M  V30 7808 O 786.344 3.74842 -1.44416 0
M  V30 7809 N 784.55 2.42157 -1.6065 0
M  V30 7810 H 784.097 1.61987 -2.00294 0
M  V30 7811 H 784.055 2.99534 -0.955347 0
M  V30 7812 N 787.827 1.57504 0.0551401 0
M  V30 7813 C 789.238 1.76626 0.604979 0
M  V30 7814 C 789.589 0.845978 1.77024 0
M  V30 7815 O 788.714 0.0341936 2.16373 0
M  V30 7816 C 789.309 3.203 1.10425 0
M  V30 7817 C 787.868 3.4071 1.59981 0
M  V30 7818 C 787.015 2.72258 0.526414 0
M  V30 7819 H 789.966 1.57775 -0.171072 0
M  V30 7820 H 789.987 3.25377 1.97256 0
M  V30 7821 H 789.499 3.87255 0.255939 0
M  V30 7822 H 787.6 2.78892 2.47083 0
M  V30 7823 H 787.713 4.49227 1.66528 0
M  V30 7824 H 786.077 2.35283 0.97539 0
M  V30 7825 H 786.86 3.41879 -0.311991 0
M  V30 7826 N 789.305 -0.326896 1.54172 0
M  V30 7827 C 790.53 -1.08924 1.76494 0
M  V30 7828 C 790.955 -1.81039 0.510523 0
M  V30 7829 O 790.313 -1.73141 -0.537756 0
M  V30 7830 C 790.361 -2.06558 2.95578 0
M  V30 7831 O 789.465 -3.14394 2.6689 0
M  V30 7832 H 788.806 -0.314216 0.584948 0
M  V30 7833 H 791.336 -0.372207 2.01186 0
M  V30 7834 H 791.346 -2.49487 3.22832 0
M  V30 7835 H 790.021 -1.53469 3.86549 0
M  V30 7836 H 788.598 -2.76164 2.50576 0
M  V30 7837 N 790.784 -1.46188 -0.588786 0
M  V30 7838 C 792.012 -1.54743 -1.37339 0
M  V30 7839 C 792.427 -0.186446 -1.87877 0
M  V30 7840 O 791.784 0.815247 -1.63279 0
M  V30 7841 C 791.835 -2.54727 -2.56508 0
M  V30 7842 O 791.556 -3.85539 -2.08066 0
M  V30 7843 C 793.057 -2.73163 -3.49137 0
M  V30 7844 H 790.277 -0.523484 -0.419768 0
M  V30 7845 H 792.821 -1.91543 -0.716345 0
M  V30 7846 H 790.976 -2.20948 -3.18215 0
M  V30 7847 H 791.39 -4.39905 -2.85629 0
M  V30 7848 H 792.864 -3.47057 -4.2925 0
M  V30 7849 H 793.341 -1.79856 -4.00685 0
M  V30 7850 H 793.947 -3.08014 -2.9327 0
M  V30 7851 N 792.262 0.832906 -1.33792 0
M  V30 7852 C 793.509 1.58853 -1.25586 0
M  V30 7853 C 793.837 1.93695 0.176807 0
M  V30 7854 O 793.092 1.59386 1.13554 0
M  V30 7855 C 793.391 2.9047 -2.08235 0
M  V30 7856 C 793.057 2.74965 -3.57358 0
M  V30 7857 C 791.719 2.70444 -3.98012 0
M  V30 7858 C 794.071 2.59347 -4.52093 0
M  V30 7859 C 791.399 2.48212 -5.31608 0
M  V30 7860 C 793.751 2.38649 -5.85858 0
M  V30 7861 C 792.415 2.32533 -6.25687 0
M  V30 7862 H 791.685 0.581285 -0.459553 0
M  V30 7863 H 794.332 0.964501 -1.65438 0
M  V30 7864 H 792.637 3.57111 -1.6118 0
M  V30 7865 H 794.334 3.48001 -1.99239 0
M  V30 7866 H 790.924 2.79319 -3.25083 0
M  V30 7867 H 795.108 2.6187 -4.2159 0
M  V30 7868 H 790.364 2.41929 -5.61498 0
M  V30 7869 H 794.538 2.25549 -6.58863 0
M  V30 7870 H 792.165 2.15067 -7.29143 0
M  V30 7871 N 793.74 1.17359 1.05189 0
M  V30 7872 C 794.986 0.973414 1.78595 0
M  V30 7873 C 795.341 -0.492713 1.85984 0
M  V30 7874 O 794.634 -1.361 1.3486 0
M  V30 7875 C 794.828 1.54821 3.22126 0
M  V30 7876 C 794.657 3.06871 3.28725 0
M  V30 7877 C 793.427 3.75602 3.38011 0
M  V30 7878 C 795.625 4.04467 3.17665 0
M  V30 7879 N 793.607 5.15257 3.33741 0
M  V30 7880 C 794.978 5.30574 3.20766 0
M  V30 7881 C 797.033 3.96138 3.01627 0
M  V30 7882 C 795.736 6.49319 3.09479 0
M  V30 7883 C 797.762 5.14467 2.91681 0
M  V30 7884 C 797.124 6.3946 2.95416 0
M  V30 7885 H 793.223 0.410092 0.665844 0
M  V30 7886 H 795.807 1.48944 1.25395 0
M  V30 7887 H 793.978 1.05853 3.73697 0
M  V30 7888 H 795.71 1.28467 3.83768 0
M  V30 7889 H 792.465 3.26282 3.43273 0
M  V30 7890 H 792.889 5.88263 3.35076 0
M  V30 7891 H 797.531 3.00345 2.97578 0
M  V30 7892 H 795.249 7.45322 3.12283 0
M  V30 7893 H 798.835 5.09803 2.80343 0
M  V30 7894 H 797.715 7.29483 2.87792 0
M  V30 7895 N 795.218 -1.23913 0.973828 0
M  V30 7896 C 796.168 -2.22892 0.479933 0
M  V30 7897 C 797.152 -1.54726 -0.441434 0
M  V30 7898 O 798.344 -1.74908 -0.271358 0
M  V30 7899 C 795.473 -3.42577 -0.222702 0
M  V30 7900 C 794.559 -4.17981 0.717851 0
M  V30 7901 N 794.95 -4.7045 1.8577 0
M  V30 7902 C 793.248 -4.42841 0.529858 0
M  V30 7903 C 793.949 -5.27751 2.44651 0
M  V30 7904 N 792.925 -5.15302 1.73104 0
M  V30 7905 H 796.727 -2.61083 1.34956 0
M  V30 7906 H 794.241 -1.39368 0.83368 0
M  V30 7907 H 796.238 -4.1265 -0.593793 0
M  V30 7908 H 794.898 -3.05904 -1.0887 0
M  V30 7909 H 795.909 -4.66997 2.23908 0
M  V30 7910 H 792.586 -4.1648 -0.291664 0
M  V30 7911 H 793.976 -5.79011 3.40875 0
M  V30 7912 N 796.696 -0.74468 -1.38897 0
M  V30 7913 C 797.924 -0.307428 -2.04603 0
M  V30 7914 C 798.339 1.06115 -1.56157 0
M  V30 7915 O 797.696 1.67233 -0.730701 0
M  V30 7916 C 797.747 -0.31101 -3.6016 0
M  V30 7917 O 797.468 -1.62557 -4.06825 0
M  V30 7918 C 798.969 0.141213 -4.43075 0
M  V30 7919 H 796.189 -0.132741 -0.657739 0
M  V30 7920 H 798.733 -1.01104 -1.77759 0
M  V30 7921 H 796.888 0.343792 -3.85872 0
M  V30 7922 H 797.302 -1.54569 -5.01207 0
M  V30 7923 H 798.776 0.0875449 -5.51931 0
M  V30 7924 H 799.253 1.18782 -4.22833 0
M  V30 7925 H 799.859 -0.484383 -4.22533 0
M  V30 7926 N 798.174 1.49689 -0.493057 0
M  V30 7927 C 799.084 2.32746 0.294358 0
M  V30 7928 C 800.1 1.44117 0.975003 0
M  V30 7929 O 801.276 1.77149 0.958138 0
M  V30 7930 C 798.341 3.19358 1.34949 0
M  V30 7931 C 797.402 4.2383 0.683122 0
M  V30 7932 C 796.635 5.06303 1.68798 0
M  V30 7933 O 796.858 4.90172 2.91698 0
M  V30 7934 O 795.792 5.88826 1.24768 0
M  V30 7935 H 799.618 3.01247 -0.385254 0
M  V30 7936 H 797.203 1.47216 -0.254519 0
M  V30 7937 H 799.085 3.73037 1.96014 0
M  V30 7938 H 797.76 2.53561 2.01217 0
M  V30 7939 H 796.667 3.74086 0.0329351 0
M  V30 7940 H 798 4.9216 0.0630192 0
M  V30 7941 N 799.652 0.226554 1.55963 0
M  V30 7942 C 800.898 -0.397608 1.99476 0
M  V30 7943 C 801.253 -1.57031 1.11172 0
M  V30 7944 O 800.546 -1.90907 0.162757 0
M  V30 7945 C 800.74 -0.87642 3.46488 0
M  V30 7946 C 800.569 0.248344 4.49014 0
M  V30 7947 C 799.339 0.71638 5.00196 0
M  V30 7948 C 801.537 1.06835 5.03081 0
M  V30 7949 N 799.519 1.81568 5.86435 0
M  V30 7950 C 800.89 2.01641 5.86294 0
M  V30 7951 C 802.945 1.10722 4.85433 0
M  V30 7952 C 801.648 3.0002 6.53743 0
M  V30 7953 C 803.674 2.07921 5.53645 0
M  V30 7954 C 803.036 3.01466 6.3663 0
M  V30 7955 H 799.135 -0.112024 0.773935 0
M  V30 7956 H 801.719 0.339472 1.91718 0
M  V30 7957 H 799.89 -1.58285 3.54684 0
M  V30 7958 H 801.622 -1.47382 3.76909 0
M  V30 7959 H 798.377 0.30409 4.72623 0
M  V30 7960 H 798.801 2.36748 6.34255 0
M  V30 7961 H 803.443 0.397909 4.20923 0
M  V30 7962 H 801.161 3.71911 7.17432 0
M  V30 7963 H 804.747 2.11609 5.41953 0
M  V30 7964 H 803.627 3.75451 6.88481 0
M  V30 7965 N 801.13 -1.57531 -0.0467866 0
M  V30 7966 C 802.355 -1.93087 -0.757123 0
M  V30 7967 C 802.78 -0.825116 -1.69037 0
M  V30 7968 O 802.138 0.220449 -1.79955 0
M  V30 7969 C 802.186 -3.27669 -1.5055 0
M  V30 7970 O 801.29 -3.18667 -2.61773 0
M  V30 7971 H 800.631 -0.631597 -0.204892 0
M  V30 7972 H 803.161 -2.04599 -0.00755232 0
M  V30 7973 H 803.171 -3.6214 -1.87932 0
M  V30 7974 H 801.846 -4.07717 -0.820931 0
M  V30 7975 H 800.423 -2.95798 -2.27064 0
M  V30 7976 N 802.608 0.318715 -1.54344 0
M  V30 7977 C 804.024 0.663345 -1.45162 0
M  V30 7978 C 804.224 1.9145 -0.62842 0
M  V30 7979 O 803.28 2.5217 -0.129126 0
M  V30 7980 C 804.593 0.832836 -2.88937 0
M  V30 7981 C 806.141 0.929866 -2.98869 0
M  V30 7982 C 806.616 1.13149 -4.43803 0
M  V30 7983 N 808.107 1.19811 -4.47437 0
M  V30 7984 C 808.842 1.37209 -5.56742 0
M  V30 7985 N 808.338 1.51619 -6.76006 0
M  V30 7986 N 810.131 1.39956 -5.44398 0
M  V30 7987 H 802.282 -0.50357 -2.06344 0
M  V30 7988 H 804.545 -0.163528 -0.933789 0
M  V30 7989 H 804.251 -0.0153519 -3.51697 0
M  V30 7990 H 804.125 1.72721 -3.35332 0
M  V30 7991 H 806.512 1.76855 -2.36233 0
M  V30 7992 H 806.593 0.0118561 -2.55797 0
M  V30 7993 H 806.237 0.297636 -5.07027 0
M  V30 7994 H 806.167 2.06345 -4.84489 0
M  V30 7995 H 808.658 1.101 -3.61506 0
M  V30 7996 H 808.971 1.64599 -7.55067 0
M  V30 7997 H 807.316 1.48708 -6.78904 0
M  V30 7998 H 810.507 1.28298 -4.50175 0
M  V30 7999 H 810.68 1.53172 -6.29637 0
M  V30 8000 N 804.086 1.46499 0.581025 0
M  V30 8001 C 805.049 1.5677 1.672 0
M  V30 8002 C 806.049 0.444716 1.54528 0
M  V30 8003 O 807.239 0.709074 1.59116 0
M  V30 8004 C 804.371 1.4896 3.06633 0
M  V30 8005 H 805.564 2.54 1.5945 0
M  V30 8006 H 803.117 1.34334 0.799003 0
M  V30 8007 H 803.852 0.530168 3.19937 0
M  V30 8008 H 803.637 2.30439 3.17239 0
M  V30 8009 H 805.127 1.59237 3.86048 0
M  V30 8010 N 805.565 -0.825799 1.34232 0
M  V30 8011 C 806.842 -1.56741 1.17011 0
M  V30 8012 C 807.222 -2.09512 -0.258425 0
M  V30 8013 O 806.57 -1.90664 -1.25935 0
M  V30 8014 C 806.78 -2.69104 2.22225 0
M  V30 8015 C 808.128 -3.37947 2.57055 0
M  V30 8016 O 809.152 -2.79358 2.20992 0
M  V30 8017 O 808.011 -4.43743 3.1899 0
M  V30 8018 H 805.105 -0.69163 0.453405 0
M  V30 8019 H 807.651 -0.867422 1.45856 0
M  V30 8020 H 806.423 -2.27844 3.18124 0
M  V30 8021 H 806.046 -3.46756 1.94541 0
M  V30 8022 N 807.043 -1.17915 -1.04565 0
M  V30 8023 C 808.006 -0.903787 -2.10628 0
M  V30 8024 C 809.006 0.10873 -1.60432 0
M  V30 8025 O 810.196 -0.124152 -1.73757 0
M  V30 8026 C 807.328 -0.355017 -3.39046 0
M  V30 8027 H 808.521 -1.84425 -2.3649 0
M  V30 8028 H 806.074 -0.990477 -1.2091 0
M  V30 8029 H 806.809 0.592297 -3.18845 0
M  V30 8030 H 806.594 -1.08484 -3.76794 0
M  V30 8031 H 808.084 -0.180891 -4.17208 0
M  V30 8032 N 808.521 1.23394 -0.980386 0
M  V30 8033 C 809.932 1.73631 -0.686239 0
M  V30 8034 C 810.283 1.79259 0.797541 0
M  V30 8035 O 809.408 1.43046 1.62379 0
M  V30 8036 C 810.003 3.15332 -1.239 0
M  V30 8037 C 808.562 3.63024 -0.994494 0
M  V30 8038 C 807.709 2.41279 -1.36673 0
M  V30 8039 H 810.66 1.08918 -1.15423 0
M  V30 8040 H 810.681 3.75556 -0.611414 0
M  V30 8041 H 810.193 3.11204 -2.31892 0
M  V30 8042 H 808.294 3.72535 0.0693492 0
M  V30 8043 H 808.407 4.49825 -1.64906 0
M  V30 8044 H 806.771 2.42295 -0.785195 0
M  V30 8045 H 807.554 2.39822 -2.45642 0
M  V30 8046 N 809.999 0.752036 1.385 0
M  V30 8047 C 811.247 0.306895 1.99756 0
M  V30 8048 C 811.568 -1.11478 1.59992 0
M  V30 8049 O 810.838 -1.76206 0.856045 0
M  V30 8050 H 809.418 0.11048 0.738785 0
M  V30 8051 H 812.08 0.965785 1.69289 0
M  V30 8052 H 811.176 0.368797 3.09913 0
M  V30 8053 N 811.477 -1.49425 0.500989 0
M  V30 8054 C 812.707 -2.06561 -0.0402858 0
M  V30 8055 C 813.115 -1.36157 -1.31369 0
M  V30 8056 O 812.458 -0.433618 -1.78509 0
M  V30 8057 C 812.52 -3.5765 -0.364269 0
M  V30 8058 C 812.184 -4.49739 0.811417 0
M  V30 8059 C 813.181 -4.91255 1.7019 0
M  V30 8060 C 810.866 -4.92036 1.01022 0
M  V30 8061 C 812.86 -5.73806 2.77534 0
M  V30 8062 C 810.547 -5.74364 2.08683 0
M  V30 8063 C 811.545 -6.15154 2.96774 0
M  V30 8064 O 811.233 -6.95836 4.02577 0
M  V30 8065 H 810.965 -0.67578 0.0172357 0
M  V30 8066 H 813.519 -1.93193 0.697553 0
M  V30 8067 H 811.749 -3.69026 -1.1557 0
M  V30 8068 H 813.438 -3.97025 -0.844156 0
M  V30 8069 H 814.204 -4.59222 1.56013 0
M  V30 8070 H 810.083 -4.59789 0.333929 0
M  V30 8071 H 813.627 -6.05564 3.4632 0
M  V30 8072 H 809.524 -6.0581 2.22855 0
M  V30 8073 H 810.292 -7.14142 3.9993 0
M  V30 8074 N 812.955 -0.234822 -1.55841 0
M  V30 8075 C 814.366 0.270588 -1.84729 0
M  V30 8076 C 814.717 1.58494 -1.15646 0
M  V30 8077 O 813.842 2.12071 -0.430667 0
M  V30 8078 C 814.437 0.497733 -3.35124 0
M  V30 8079 C 812.996 0.947428 -3.64281 0
M  V30 8080 C 812.143 0.01787 -2.77294 0
M  V30 8081 H 815.094 -0.457691 -1.51957 0
M  V30 8082 H 815.115 1.34199 -3.56049 0
M  V30 8083 H 814.627 -0.459037 -3.85376 0
M  V30 8084 H 812.728 1.91709 -3.19497 0
M  V30 8085 H 812.841 0.812651 -4.72158 0
M  V30 8086 H 811.205 0.527071 -2.49187 0
M  V30 8087 H 811.988 -0.934056 -3.30349 0
M  V30 8088 N 814.433 1.57553 0.0384317 0
M  V30 8089 C 815.383 2.02404 1.0496 0
M  V30 8090 C 816.367 0.911705 1.32577 0
M  V30 8091 O 817.559 1.17561 1.32319 0
M  V30 8092 C 814.688 2.49924 2.35357 0
M  V30 8093 C 813.774 3.6796 2.1087 0
M  V30 8094 N 814.165 4.81009 1.56411 0
M  V30 8095 C 812.463 3.75153 2.41197 0
M  V30 8096 C 813.164 5.62686 1.47512 0
M  V30 8097 N 812.14 5.0752 1.94742 0
M  V30 8098 H 815.942 2.87234 0.622399 0
M  V30 8099 H 813.456 1.60543 0.244916 0
M  V30 8100 H 815.453 2.80312 3.08595 0
M  V30 8101 H 814.113 1.66496 2.78763 0
M  V30 8102 H 815.124 5.02636 1.2481 0
M  V30 8103 H 811.801 3.02507 2.87742 0
M  V30 8104 H 813.191 6.6349 1.05976 0
M  V30 8105 N 815.911 -0.310526 1.54511 0
M  V30 8106 C 817.327 -0.655637 1.45511 0
M  V30 8107 C 817.527 -1.91114 0.638564 0
M  V30 8108 O 816.583 -2.52098 0.142497 0
M  V30 8109 C 817.896 -0.817501 2.89374 0
M  V30 8110 C 819.444 -0.914003 2.99358 0
M  V30 8111 C 819.919 -1.10794 4.44397 0
M  V30 8112 N 821.41 -1.17437 4.48066 0
M  V30 8113 C 822.145 -1.34255 5.57461 0
M  V30 8114 N 821.641 -1.48032 6.768 0
M  V30 8115 N 823.434 -1.37067 5.45132 0
M  V30 8116 H 815.585 0.514506 2.06074 0
M  V30 8117 H 817.848 0.168478 0.932909 0
M  V30 8118 H 817.554 0.034003 3.51684 0
M  V30 8119 H 817.428 -1.7094 3.36243 0
M  V30 8120 H 819.815 -1.756 2.37168 0
M  V30 8121 H 819.896 0.00170958 2.558 0
M  V30 8122 H 819.54 -0.270743 5.07178 0
M  V30 8123 H 819.47 -2.03773 4.85576 0
M  V30 8124 H 821.961 -1.08181 3.62084 0
M  V30 8125 H 822.274 -1.60593 7.5593 0
M  V30 8126 H 820.619 -1.45105 6.79683 0
M  V30 8127 H 823.81 -1.25909 4.50849 0
M  V30 8128 H 823.983 -1.49831 6.3044 0
M  V30 8129 N 817.389 -1.46805 -0.573248 0
M  V30 8130 C 818.638 -1.51868 -1.32736 0
M  V30 8131 C 818.951 -0.178765 -1.94781 0
M  V30 8132 O 820.157 -0.107272 -2.71288 0
M  V30 8133 C 818.613 -2.67641 -2.40616 0
M  V30 8134 C 818.221 -4.08094 -1.84832 0
M  V30 8135 C 819.965 -2.81984 -3.17309 0
M  V30 8136 C 817.872 -5.15193 -2.90397 0
M  V30 8137 H 816.802 -0.56523 -0.49903 0
M  V30 8138 H 819.453 -1.7304 -0.610695 0
M  V30 8139 H 817.835 -2.39818 -3.15124 0
M  V30 8140 H 819.009 -4.45751 -1.16803 0
M  V30 8141 H 817.324 -3.985 -1.20775 0
M  V30 8142 H 819.921 -3.59166 -3.96111 0
M  V30 8143 H 820.264 -1.89842 -3.70494 0
M  V30 8144 H 820.797 -3.095 -2.4991 0
M  V30 8145 H 817.536 -6.09158 -2.42088 0
M  V30 8146 H 817.056 -4.82071 -3.56886 0
M  V30 8147 H 818.735 -5.41448 -3.54179 0
M  V30 8148 N 818.867 0.818669 -1.34668 0
M  V30 8149 C 820.092 1.61193 -1.30505 0
M  V30 8150 C 820.517 1.87734 0.117341 0
M  V30 8151 O 819.875 1.45591 1.08042 0
M  V30 8152 C 819.923 2.92733 -2.1057 0
M  V30 8153 O 819.027 3.85 -1.47813 0
M  V30 8154 H 818.368 0.490085 -0.44801 0
M  V30 8155 H 820.898 1.01701 -1.77534 0
M  V30 8156 H 820.908 3.42262 -2.22082 0
M  V30 8157 H 819.583 2.7274 -3.13984 0
M  V30 8158 H 818.16 3.43525 -1.45069 0
M  V30 8159 N 820.346 1.18468 1.03938 0
M  V30 8160 C 821.276 0.936389 2.13902 0
M  V30 8161 C 822.257 -0.126381 1.6963 0
M  V30 8162 O 823.442 0.0264757 1.94182 0
M  V30 8163 C 820.572 0.462729 3.44204 0
M  V30 8164 C 819.526 1.46613 4.02105 0
M  V30 8165 C 818.852 0.84994 5.27902 0
M  V30 8166 C 820.152 2.84323 4.3813 0
M  V30 8167 H 821.846 1.85602 2.3493 0
M  V30 8168 H 819.392 0.893806 1.12903 0
M  V30 8169 H 821.345 0.276382 4.20493 0
M  V30 8170 H 820.069 -0.492477 3.22866 0
M  V30 8171 H 818.728 1.63944 3.27899 0
M  V30 8172 H 818.376 -0.112493 5.02874 0
M  V30 8173 H 818.076 1.51988 5.67603 0
M  V30 8174 H 819.6 0.674152 6.06867 0
M  V30 8175 H 821.014 2.70636 5.054 0
M  V30 8176 H 819.411 3.48012 4.88884 0
M  V30 8177 H 820.481 3.37776 3.47901 0
M  V30 8178 N 821.824 -1.22873 0.986916 0
M  V30 8179 C 823.101 -1.86939 0.575589 0
M  V30 8180 C 823.481 -1.88656 -0.947205 0
M  V30 8181 O 822.829 -1.3728 -1.82665 0
M  V30 8182 C 823.039 -3.28117 1.18914 0
M  V30 8183 C 824.387 -4.04659 1.28593 0
M  V30 8184 O 825.411 -3.3736 1.14308 0
M  V30 8185 O 824.27 -5.25112 1.51391 0
M  V30 8186 H 821.364 -0.803748 0.194724 0
M  V30 8187 H 823.91 -1.30698 1.08241 0
M  V30 8188 H 822.682 -3.21468 2.231 0
M  V30 8189 H 822.305 -3.91956 0.667535 0
M  V30 8190 N 823.302 -0.75937 -1.38099 0
M  V30 8191 C 824.232 -0.151077 -2.33011 0
M  V30 8192 C 825.213 0.697099 -1.5516 0
M  V30 8193 O 826.398 0.637101 -1.83452 0
M  V30 8194 C 823.528 0.738423 -3.39359 0
M  V30 8195 C 822.482 -0.0074741 -4.27999 0
M  V30 8196 C 821.808 1.00066 -5.25253 0
M  V30 8197 C 823.108 -1.17926 -5.08813 0
M  V30 8198 H 824.802 -0.943933 -2.84131 0
M  V30 8199 H 822.348 -0.455362 -1.36611 0
M  V30 8200 H 824.301 1.17369 -4.04725 0
M  V30 8201 H 823.025 1.56366 -2.86735 0
M  V30 8202 H 821.684 -0.423379 -3.64147 0
M  V30 8203 H 821.332 1.82012 -4.68914 0
M  V30 8204 H 821.032 0.506199 -5.85416 0
M  V30 8205 H 822.556 1.43512 -5.93495 0
M  V30 8206 H 823.97 -0.821262 -5.67387 0
M  V30 8207 H 822.367 -1.60497 -5.78239 0
M  V30 8208 H 823.437 -1.98938 -4.42212 0
M  V30 8209 N 824.78 1.49157 -0.508906 0
M  V30 8210 C 826.028 2.02073 0.0327335 0
M  V30 8211 C 826.349 1.39012 1.3675 0
M  V30 8212 O 825.619 0.548153 1.88075 0
M  V30 8213 H 824.199 0.746848 0.0150864 0
M  V30 8214 H 826.861 1.83097 -0.667946 0
M  V30 8215 H 825.957 3.11707 0.1566 0
M  V30 8216 N 826.258 0.243083 1.55714 0
M  V30 8217 C 827.506 -0.381964 1.98458 0
M  V30 8218 C 827.827 -1.58745 1.13247 0
M  V30 8219 O 827.097 -1.94723 0.214384 0
M  V30 8220 H 825.677 -0.144114 0.732967 0
M  V30 8221 H 828.339 0.340985 1.91894 0
M  V30 8222 H 827.435 -0.693702 3.04293 0
M  V30 8223 N 827.736 -1.57571 -0.0300757 0
M  V30 8224 C 828.964 -1.93485 -0.732891 0
M  V30 8225 C 829.379 -0.842758 -1.68947 0
M  V30 8226 O 828.736 0.180904 -1.81601 0
M  V30 8227 C 828.787 -3.29328 -1.49082 0
M  V30 8228 O 828.508 -4.34341 -0.572639 0
M  V30 8229 C 830.009 -3.79517 -2.29088 0
M  V30 8230 H 827.229 -0.638588 -0.206026 0
M  V30 8231 H 829.773 -2.04496 0.0120966 0
M  V30 8232 H 827.928 -3.19716 -2.1877 0
M  V30 8233 H 828.342 -5.12748 -1.10406 0
M  V30 8234 H 829.816 -4.77081 -2.77665 0
M  V30 8235 H 830.293 -3.10659 -3.10464 0
M  V30 8236 H 830.899 -3.92208 -1.64477 0
M  V30 8237 N 829.214 0.302327 -1.54673 0
M  V30 8238 C 830.164 1.37443 -1.81916 0
M  V30 8239 C 831.148 1.45999 -0.676251 0
M  V30 8240 O 832.34 1.50174 -0.93685 0
M  V30 8241 C 829.469 2.73966 -2.06876 0
M  V30 8242 C 828.555 2.69637 -3.27348 0
M  V30 8243 N 828.946 2.34926 -4.47933 0
M  V30 8244 C 827.244 3.00742 -3.29348 0
M  V30 8245 C 827.945 2.39862 -5.29944 0
M  V30 8246 N 826.921 2.77163 -4.67634 0
M  V30 8247 H 830.723 1.09567 -2.72713 0
M  V30 8248 H 828.237 0.5109 -1.54154 0
M  V30 8249 H 830.234 3.51265 -2.2454 0
M  V30 8250 H 828.894 3.02754 -1.17346 0
M  V30 8251 H 829.905 2.07403 -4.74557 0
M  V30 8252 H 826.582 3.34434 -2.49921 0
M  V30 8253 H 827.972 2.15835 -6.3629 0
M  V30 8254 N 830.692 1.47107 0.565454 0
M  V30 8255 C 831.92 1.56909 1.3486 0
M  V30 8256 C 832.335 0.216312 1.87557 0
M  V30 8257 O 831.692 -0.789168 1.64555 0
M  V30 8258 C 831.743 2.58776 2.52423 0
M  V30 8259 O 831.464 3.888 2.01906 0
M  V30 8260 C 832.965 2.78683 3.44747 0
M  V30 8261 H 830.185 0.530096 0.411387 0
M  V30 8262 H 832.729 1.92658 0.685782 0
M  V30 8263 H 830.884 2.25983 3.1466 0
M  V30 8264 H 831.298 4.44393 2.78595 0
M  V30 8265 H 832.772 3.53842 4.23674 0
M  V30 8266 H 833.249 1.86208 3.97773 0
M  V30 8267 H 833.855 3.12641 2.88333 0
M  V30 8268 N 832.17 -0.811516 1.35101 0
M  V30 8269 C 833.419 -1.56343 1.27435 0
M  V30 8270 C 833.732 -1.95019 -0.150696 0
M  V30 8271 O 834.938 -2.6924 -0.349586 0
M  V30 8272 C 833.394 -2.82124 2.23459 0
M  V30 8273 C 833.002 -2.50706 3.71283 0
M  V30 8274 C 834.746 -3.60137 2.24726 0
M  V30 8275 C 832.653 -3.72748 4.59143 0
M  V30 8276 H 831.583 -0.58682 0.473453 0
M  V30 8277 H 834.234 -0.892465 1.60335 0
M  V30 8278 H 832.616 -3.50905 1.83525 0
M  V30 8279 H 833.79 -1.89962 4.19823 0
M  V30 8280 H 832.105 -1.85947 3.72576 0
M  V30 8281 H 834.702 -4.50775 2.87587 0
M  V30 8282 H 835.045 -3.97101 1.24965 0
M  V30 8283 H 835.578 -2.98311 2.63164 0
M  V30 8284 H 832.317 -3.40896 5.59884 0
M  V30 8285 H 831.837 -4.32735 4.15332 0
M  V30 8286 H 833.516 -4.40033 4.74321 0
M  V30 8287 N 833.648 -1.19017 -1.03309 0
M  V30 8288 C 834.873 -1.01598 -1.80811 0
M  V30 8289 C 835.298 0.430773 -1.83101 0
M  V30 8290 O 834.656 1.30946 -1.25391 0
M  V30 8291 C 834.704 -1.5845 -3.23923 0
M  V30 8292 O 833.808 -0.810972 -4.04348 0
M  V30 8293 H 833.149 -0.359398 -0.558327 0
M  V30 8294 H 835.679 -1.57945 -1.30055 0
M  V30 8295 H 835.689 -1.61486 -3.74682 0
M  V30 8296 H 834.364 -2.63752 -3.21571 0
M  V30 8297 H 832.941 -0.85353 -3.63 0
M  V30 8298 N 835.127 1.22348 -0.993418 0
M  V30 8299 C 836.375 1.90733 -0.668246 0
M  V30 8300 C 836.696 1.77732 0.802261 0
M  V30 8301 O 835.966 1.16486 1.57505 0
M  V30 8302 H 834.546 0.705966 -0.244174 0
M  V30 8303 H 837.208 1.48691 -1.26004 0
M  V30 8304 H 836.304 2.97883 -0.931239 0
M  V30 8305 N 836.605 0.766683 1.37694 0
M  V30 8306 C 837.535 0.163432 2.32927 0
M  V30 8307 C 838.516 -0.688861 1.55527 0
M  V30 8308 O 839.701 -0.627363 1.83787 0
M  V30 8309 C 836.831 -0.720416 3.39746 0
M  V30 8310 C 835.785 0.0301718 4.27989 0
M  V30 8311 C 835.111 -0.972788 5.25776 0
M  V30 8312 C 836.411 1.20623 5.0818 0
M  V30 8313 H 838.105 0.958988 2.83626 0
M  V30 8314 H 835.651 0.462601 1.36367 0
M  V30 8315 H 837.604 -1.15221 4.05342 0
M  V30 8316 H 836.328 -1.54844 2.8756 0
M  V30 8317 H 834.987 0.442685 3.63917 0
M  V30 8318 H 834.635 -1.79522 4.69873 0
M  V30 8319 H 834.335 -0.475145 5.85676 0
M  V30 8320 H 835.859 -1.40362 5.94248 0
M  V30 8321 H 837.273 0.851341 5.66944 0
M  V30 8322 H 835.67 1.63561 5.7738 0
M  V30 8323 H 836.74 2.01281 4.41151 0
M  V30 8324 N 838.083 -1.48885 0.516809 0
M  V30 8325 C 839.015 -2.27357 -0.290061 0
M  V30 8326 C 840.028 -1.34558 -0.916406 0
M  V30 8327 O 841.217 -1.59715 -0.797073 0
M  V30 8328 C 838.317 -3.07496 -1.42476 0
M  V30 8329 C 837.49 -4.27982 -0.902793 0
M  V30 8330 C 836.549 -4.90038 -1.91701 0
M  V30 8331 O 835.575 -5.49643 -1.47922 0
M  V30 8332 N 836.777 -4.811 -3.24843 0
M  V30 8333 H 839.542 -2.97244 0.382884 0
M  V30 8334 H 837.103 -1.58064 0.35032 0
M  V30 8335 H 839.095 -3.45882 -2.10113 0
M  V30 8336 H 837.665 -2.40115 -2.00159 0
M  V30 8337 H 836.885 -3.94167 -0.0508272 0
M  V30 8338 H 838.173 -5.06003 -0.532723 0
M  V30 8339 H 837.571 -4.33801 -3.63088 0
M  V30 8340 H 836.128 -5.23625 -3.8815 0
M  V30 8341 N 839.561 -0.251338 -1.55583 0
M  V30 8342 C 840.791 0.375642 -2.03156 0
M  V30 8343 C 841.199 1.51761 -1.12983 0
M  V30 8344 O 840.542 1.83184 -0.13757 0
M  V30 8345 C 840.604 0.941001 -3.46966 0
M  V30 8346 C 840.268 -0.0692886 -4.56947 0
M  V30 8347 C 841.265 -0.88041 -5.12391 0
M  V30 8348 C 838.95 -0.196661 -5.01915 0
M  V30 8349 C 840.944 -1.80532 -6.11299 0
M  V30 8350 C 838.631 -1.12507 -6.00654 0
M  V30 8351 C 839.629 -1.92792 -6.55225 0
M  V30 8352 O 839.317 -2.84067 -7.52038 0
M  V30 8353 H 839.049 0.0928836 -0.669588 0
M  V30 8354 H 841.603 -0.374115 -2.01964 0
M  V30 8355 H 839.833 1.7404 -3.45322 0
M  V30 8356 H 841.522 1.47853 -3.78014 0
M  V30 8357 H 842.288 -0.792615 -4.78479 0
M  V30 8358 H 838.167 0.418187 -4.59099 0
M  V30 8359 H 841.711 -2.43239 -6.5382 0
M  V30 8360 H 837.608 -1.21377 -6.33986 0
M  V30 8361 H 838.376 -2.78479 -7.6967 0
M  V30 8362 N 841.039 1.57585 0.0217189 0
M  V30 8363 C 842.267 1.93871 0.722619 0
M  V30 8364 C 842.682 0.851706 1.68498 0
M  V30 8365 O 842.039 -0.17127 1.81695 0
M  V30 8366 C 842.09 3.30114 1.47333 0
M  V30 8367 O 841.811 4.34639 0.549597 0
M  V30 8368 C 843.312 3.80727 2.27072 0
M  V30 8369 H 840.532 0.639671 0.202637 0
M  V30 8370 H 843.076 2.04487 -0.0229414 0
M  V30 8371 H 841.231 3.20872 2.17071 0
M  V30 8372 H 841.645 5.13326 1.07686 0
M  V30 8373 H 843.119 4.78547 2.75131 0
M  V30 8374 H 843.596 3.12301 3.08812 0
M  V30 8375 H 844.202 3.93075 1.62395 0
M  V30 8376 N 842.517 -0.29412 1.54831 0
M  V30 8377 C 843.933 -0.640167 1.46199 0
M  V30 8378 C 844.133 -1.90426 0.658798 0
M  V30 8379 O 843.189 -2.51932 0.169228 0
M  V30 8380 C 844.502 -0.786763 2.90225 0
M  V30 8381 C 846.05 -0.882201 3.0031 0
M  V30 8382 C 846.525 -1.06074 4.45547 0
M  V30 8383 N 848.016 -1.12678 4.49286 0
M  V30 8384 C 848.751 -1.28334 5.58854 0
M  V30 8385 N 848.247 -1.40845 6.78332 0
M  V30 8386 N 850.04 -1.31277 5.46555 0
M  V30 8387 H 842.191 0.536334 2.05517 0
M  V30 8388 H 844.454 0.178363 0.93107 0
M  V30 8389 H 844.16 0.0713018 3.51628 0
M  V30 8390 H 844.034 -1.67364 3.38037 0
M  V30 8391 H 846.421 -1.73075 2.39017 0
M  V30 8392 H 846.502 0.0288405 2.55784 0
M  V30 8393 H 846.146 -0.216935 5.07437 0
M  V30 8394 H 846.076 -1.98611 4.8771 0
M  V30 8395 H 848.567 -1.04335 3.63212 0
M  V30 8396 H 848.88 -1.52566 7.57591 0
M  V30 8397 H 847.225 -1.37888 6.81184 0
M  V30 8398 H 850.416 -1.2112 4.52159 0
M  V30 8399 H 850.589 -1.43136 6.31994 0
M  V30 8400 N 843.995 -1.47404 -0.557645 0
M  V30 8401 C 845.411 -1.32913 -0.88353 0
M  V30 8402 C 845.611 -0.31929 -1.98954 0
M  V30 8403 O 844.667 0.26934 -2.51059 0
M  V30 8404 C 845.98 -2.72229 -1.27718 0
M  V30 8405 C 847.528 -2.8051 -1.38863 0
M  V30 8406 C 848.003 -4.20466 -1.81583 0
M  V30 8407 N 849.494 -4.23005 -1.88735 0
M  V30 8408 C 850.229 -5.2821 -2.23118 0
M  V30 8409 N 849.725 -6.4372 -2.56117 0
M  V30 8410 N 851.518 -5.15588 -2.23888 0
M  V30 8411 H 843.669 -2.11698 0.172557 0
M  V30 8412 H 845.932 -0.947889 0.0145334 0
M  V30 8413 H 845.638 -3.47556 -0.538329 0
M  V30 8414 H 845.512 -3.03971 -2.23342 0
M  V30 8415 H 847.899 -2.05457 -2.11829 0
M  V30 8416 H 847.98 -2.52423 -0.414274 0
M  V30 8417 H 847.624 -4.96025 -1.09187 0
M  V30 8418 H 847.554 -4.45977 -2.80021 0
M  V30 8419 H 850.045 -3.39674 -1.65621 0
M  V30 8420 H 850.358 -7.19754 -2.81378 0
M  V30 8421 H 848.703 -6.47041 -2.53698 0
M  V30 8422 H 851.894 -4.24374 -1.97546 0
M  V30 8423 H 852.067 -5.97685 -2.50353 0
M  V30 8424 N 845.473 0.80434 -1.35529 0
M  V30 8425 C 846.405 1.92445 -1.2449 0
M  V30 8426 C 847.418 1.61934 -0.167685 0
M  V30 8427 O 848.607 1.73461 -0.42115 0
M  V30 8428 C 845.707 3.26875 -0.894751 0
M  V30 8429 C 844.88 3.85275 -2.07079 0
M  V30 8430 C 843.939 4.98116 -1.69607 0
M  V30 8431 O 842.965 5.15424 -2.41509 0
M  V30 8432 N 844.167 5.77169 -0.621012 0
M  V30 8433 H 846.932 2.02441 -2.20993 0
M  V30 8434 H 844.493 0.981874 -1.28728 0
M  V30 8435 H 846.485 3.99837 -0.625511 0
M  V30 8436 H 845.055 3.12594 -0.0193306 0
M  V30 8437 H 844.275 3.0448 -2.5037 0
M  V30 8438 H 845.563 4.21024 -2.85685 0
M  V30 8439 H 844.961 5.65695 -0.0236679 0
M  V30 8440 H 843.518 6.50499 -0.411558 0
M  V30 8441 N 846.951 1.19563 1.02676 0
M  V30 8442 C 847.899 0.931942 2.13114 0
M  V30 8443 C 848.893 -0.113007 1.69023 0
M  V30 8444 O 850.099 0.0364298 1.79963 0
M  V30 8445 H 846.474 0.283981 0.696318 0
M  V30 8446 H 848.445 1.86991 2.32545 0
M  V30 8447 C 847.194 0.489461 3.44238 0
M  V30 8448 H 846.517 1.28508 3.78584 0
M  V30 8449 H 847.957 0.34408 4.22602 0
M  V30 8450 C 846.416 -0.796761 3.27343 0
M  V30 8451 O 846.946 -1.85767 3.56165 0
M  V30 8452 N 845.152 -0.754824 2.80626 0
M  V30 8453 H 844.699 0.108778 2.5737 0
M  V30 8454 H 844.657 -1.6158 2.69702 0
M  V30 8455 N 848.429 -1.21819 0.999893 0
M  V30 8456 C 849.654 -1.95298 0.698094 0
M  V30 8457 C 850.079 -1.73273 -0.731982 0
M  V30 8458 O 849.437 -1.01634 -1.50134 0
M  V30 8459 C 849.485 -3.45922 1.01834 0
M  V30 8460 O 848.589 -4.12223 0.120801 0
M  V30 8461 H 847.93 -0.610729 0.260588 0
M  V30 8462 H 850.46 -1.5472 1.33876 0
M  V30 8463 H 850.47 -3.96471 0.963074 0
M  V30 8464 H 849.145 -3.61278 2.06037 0
M  V30 8465 H 847.722 -3.72177 0.232153 0
M  V30 8466 N 849.908 -0.773975 -1.37286 0
M  V30 8467 C 850.871 -0.167974 -2.28584 0
M  V30 8468 C 851.871 0.625662 -1.48129 0
M  V30 8469 O 853.061 0.448924 -1.68316 0
M  V30 8470 C 850.193 0.769364 -3.32105 0
M  V30 8471 H 851.386 -0.972806 -2.83684 0
M  V30 8472 H 848.939 -0.542335 -1.46589 0
M  V30 8473 H 849.674 1.59912 -2.82132 0
M  V30 8474 H 849.459 0.202419 -3.91577 0
M  V30 8475 H 850.949 1.18872 -4.00324 0
M  V30 8476 N 851.386 1.48609 -0.524698 0
M  V30 8477 C 852.334 2.31205 0.254398 0
M  V30 8478 C 853.328 1.40894 0.940491 0
M  V30 8479 O 854.534 1.57827 0.865478 0
M  V30 8480 H 850.909 0.745199 0.100907 0
M  V30 8481 H 852.88 2.94804 -0.461876 0
M  V30 8482 C 851.629 3.2282 1.2916 0
M  V30 8483 H 850.952 3.92255 0.773074 0
M  V30 8484 H 852.392 3.83508 1.80825 0
M  V30 8485 C 850.851 2.4406 2.32242 0
M  V30 8486 O 851.381 2.16163 3.3858 0
M  V30 8487 N 849.587 2.05651 2.05319 0
M  V30 8488 H 849.134 2.28539 1.18861 0
M  V30 8489 H 849.092 1.53265 2.74513 0
M  V30 8490 N 852.864 0.259585 1.55447 0
M  V30 8491 C 853.774 -0.645026 2.25558 0
M  V30 8492 C 854.79 -1.18291 1.27606 0
M  V30 8493 O 855.966 -1.21649 1.6051 0
M  V30 8494 C 853.031 -1.81964 2.9511 0
M  V30 8495 C 852.092 -1.31997 4.08504 0
M  V30 8496 C 851.325 -2.43861 4.74729 0
M  V30 8497 O 851.548 -3.62876 4.40088 0
M  V30 8498 O 850.482 -2.12898 5.6299 0
M  V30 8499 H 854.308 -0.0775399 3.03601 0
M  V30 8500 H 851.893 0.0275859 1.49375 0
M  V30 8501 H 853.775 -2.50485 3.38873 0
M  V30 8502 H 852.45 -2.37451 2.19997 0
M  V30 8503 H 851.357 -0.601676 3.6923 0
M  V30 8504 H 852.69 -0.811045 4.85472 0
M  V30 8505 N 854.342 -1.57594 -0.0133615 0
M  V30 8506 C 855.274 -2.04402 -1.03695 0
M  V30 8507 C 856.287 -0.959546 -1.31516 0
M  V30 8508 O 857.476 -1.23659 -1.28727 0
M  V30 8509 C 854.576 -2.41766 -2.37491 0
M  V30 8510 C 853.749 -3.72785 -2.28802 0
M  V30 8511 C 852.808 -3.97165 -3.45176 0
M  V30 8512 O 851.834 -4.68013 -3.23963 0
M  V30 8513 N 853.036 -3.44021 -4.67579 0
M  V30 8514 H 855.801 -2.92833 -0.637874 0
M  V30 8515 H 853.362 -1.60647 -0.20101 0
M  V30 8516 H 855.354 -2.55201 -3.14093 0
M  V30 8517 H 853.924 -1.58924 -2.69188 0
M  V30 8518 H 853.144 -3.69555 -1.37197 0
M  V30 8519 H 854.432 -4.58704 -2.20154 0
M  V30 8520 H 853.83 -2.86623 -4.87713 0
M  V30 8521 H 852.387 -3.62808 -5.41492 0
M  V30 8522 N 855.82 0.285905 -1.54985 0
M  V30 8523 C 857.066 1.02071 -1.75241 0
M  V30 8524 C 857.399 1.864 -0.544842 0
M  V30 8525 O 856.674 1.89034 0.457844 0
M  V30 8526 C 856.957 1.91409 -3.05016 0
M  V30 8527 C 856.81 1.10158 -4.36102 0
M  V30 8528 C 858.129 2.90335 -3.30747 0
M  V30 8529 H 855.248 0.369663 -0.637588 0
M  V30 8530 H 857.89 0.294114 -1.8771 0
M  V30 8531 H 856.04 2.53362 -2.94517 0
M  V30 8532 H 857.712 0.503756 -4.58541 0
M  V30 8533 H 855.955 0.404675 -4.31908 0
M  V30 8534 H 856.626 1.75956 -5.23205 0
M  V30 8535 H 859.102 2.38514 -3.40955 0
M  V30 8536 H 857.978 3.49997 -4.2284 0
M  V30 8537 H 858.239 3.64787 -2.49765 0
M  V30 8538 N 857.298 1.47698 0.54982 0
M  V30 8539 C 858.261 1.60282 1.63837 0
M  V30 8540 C 859.261 0.477394 1.5355 0
M  V30 8541 O 860.451 0.742665 1.57576 0
M  V30 8542 C 857.583 1.55431 3.03404 0
M  V30 8543 H 858.776 2.57325 1.54026 0
M  V30 8544 H 856.329 1.35999 0.770329 0
M  V30 8545 H 857.064 0.597912 3.1874 0
M  V30 8546 H 856.849 2.37116 3.12279 0
M  V30 8547 H 858.339 1.6739 3.82584 0
M  V30 8548 N 858.776 -0.797141 1.35954 0
M  V30 8549 C 860.053 -1.54224 1.2031 0
M  V30 8550 C 860.433 -2.10013 -0.213926 0
M  V30 8551 O 859.781 -1.93292 -1.21862 0
M  V30 8552 C 859.991 -2.6433 2.27883 0
M  V30 8553 C 861.339 -3.32418 2.64165 0
M  V30 8554 O 862.363 -2.74607 2.26868 0
M  V30 8555 O 861.222 -4.36876 3.28331 0
M  V30 8556 H 858.316 -0.681857 0.467974 0
M  V30 8557 H 860.862 -0.836288 1.47663 0
M  V30 8558 H 859.634 -2.21044 3.22885 0
M  V30 8559 H 859.257 -3.42551 2.01853 0
M  V30 8560 N 860.254 -1.20106 -1.0204 0
M  V30 8561 C 861.484 -1.0329 -1.78927 0
M  V30 8562 C 861.892 0.421115 -1.84454 0
M  V30 8563 O 861.235 1.30422 -1.29367 0
M  V30 8564 C 861.297 -1.53627 -3.25021 0
M  V30 8565 C 860.961 -3.01869 -3.4311 0
M  V30 8566 C 861.958 -3.9956 -3.32638 0
M  V30 8567 C 859.643 -3.40746 -3.6905 0
M  V30 8568 C 861.637 -5.34119 -3.47844 0
M  V30 8569 C 859.324 -4.75462 -3.839 0
M  V30 8570 C 860.322 -5.71957 -3.73302 0
M  V30 8571 O 860.01 -7.04231 -3.87703 0
M  V30 8572 H 859.742 -0.363962 -0.569656 0
M  V30 8573 H 862.296 -1.59551 -1.29354 0
M  V30 8574 H 860.526 -0.917481 -3.75658 0
M  V30 8575 H 862.215 -1.32889 -3.8353 0
M  V30 8576 H 862.981 -3.70869 -3.12539 0
M  V30 8577 H 858.86 -2.66182 -3.76388 0
M  V30 8578 H 862.404 -6.09421 -3.39488 0
M  V30 8579 H 858.301 -5.03844 -4.03499 0
M  V30 8580 H 859.069 -7.11425 -4.04744 0
M  V30 8581 N 861.732 1.21287 -1.00634 0
M  V30 8582 C 862.642 2.27388 -0.577226 0
M  V30 8583 C 863.658 1.69791 0.380399 0
M  V30 8584 O 864.834 1.99918 0.2439 0
M  V30 8585 C 861.899 3.46588 0.0880532 0
M  V30 8586 C 860.96 4.19453 -0.914222 0
M  V30 8587 C 860.193 5.32962 -0.280596 0
M  V30 8588 O 860.416 5.62895 0.922265 0
M  V30 8589 O 859.35 5.93666 -0.992196 0
M  V30 8590 H 863.176 2.66289 -1.46028 0
M  V30 8591 H 860.761 1.2771 -0.775283 0
M  V30 8592 H 862.643 4.18881 0.460094 0
M  V30 8593 H 861.318 3.09585 0.945461 0
M  V30 8594 H 860.225 3.49376 -1.33744 0
M  V30 8595 H 861.558 4.6037 -1.74126 0
M  V30 8596 N 863.21 0.781244 1.36873 0
M  V30 8597 C 864.459 0.34652 1.98701 0
M  V30 8598 C 864.772 -1.08555 1.62712 0
M  V30 8599 O 865.978 -1.62213 2.17713 0
M  V30 8600 C 864.434 0.568611 3.5538 0
M  V30 8601 C 864.042 2.01156 4.003 0
M  V30 8602 C 865.786 0.197983 4.24038 0
M  V30 8603 C 863.693 2.18074 5.49725 0
M  V30 8604 H 862.623 0.125821 0.743428 0
M  V30 8605 H 865.274 0.961721 1.56279 0
M  V30 8606 H 863.656 -0.116185 3.9583 0
M  V30 8607 H 864.83 2.73209 3.71071 0
M  V30 8608 H 863.145 2.33967 3.44454 0
M  V30 8609 H 865.742 0.302778 5.33842 0
M  V30 8610 H 866.085 -0.852927 4.07469 0
M  V30 8611 H 866.618 0.835696 3.88923 0
M  V30 8612 H 863.357 3.21519 5.71232 0
M  V30 8613 H 862.877 1.50517 5.80607 0
M  V30 8614 H 864.556 1.98393 6.15832 0
M  V30 8615 N 864.689 -1.48329 0.532571 0
M  V30 8616 C 865.919 -2.066 0.00353785 0
M  V30 8617 C 866.327 -1.38913 -1.28451 0
M  V30 8618 O 865.67 -0.471385 -1.77549 0
M  V30 8619 C 865.732 -3.58342 -0.288324 0
M  V30 8620 C 865.396 -4.47917 0.906631 0
M  V30 8621 C 866.393 -4.87534 1.80572 0
M  V30 8622 C 864.078 -4.89783 1.11436 0
M  V30 8623 C 866.072 -5.6779 2.89642 0
M  V30 8624 C 863.759 -5.69809 2.20819 0
M  V30 8625 C 864.757 -6.08721 3.09755 0
M  V30 8626 O 864.445 -6.8714 4.17246 0
M  V30 8627 H 864.177 -0.675263 0.0315661 0
M  V30 8628 H 866.731 -1.91669 0.738375 0
M  V30 8629 H 864.961 -3.71395 -1.07717 0
M  V30 8630 H 866.65 -3.98726 -0.759752 0
M  V30 8631 H 867.416 -4.5581 1.65719 0
M  V30 8632 H 863.295 -4.58977 0.431382 0
M  V30 8633 H 866.839 -5.98082 3.59087 0
M  V30 8634 H 862.736 -6.00947 2.35655 0
M  V30 8635 H 863.504 -7.05498 4.14988 0
M  V30 8636 N 866.167 -0.267825 -1.55308 0
M  V30 8637 C 867.395 0.354587 -2.03839 0
M  V30 8638 C 867.81 1.50007 -1.14644 0
M  V30 8639 O 867.167 1.81752 -0.165055 0
M  V30 8640 C 867.218 0.84254 -3.51544 0
M  V30 8641 O 866.939 -0.257318 -4.37344 0
M  V30 8642 C 868.44 1.53351 -4.15931 0
M  V30 8643 H 865.66 0.0818131 -0.665994 0
M  V30 8644 H 868.204 -0.397795 -2.00594 0
M  V30 8645 H 866.359 1.54503 -3.55257 0
M  V30 8646 H 866.773 0.116593 -5.2437 0
M  V30 8647 H 868.247 1.82643 -5.20908 0
M  V30 8648 H 868.724 2.4626 -3.63666 0
M  V30 8649 H 869.33 0.87506 -4.162 0
M  V30 8650 N 867.645 1.57599 0.00500368 0
M  V30 8651 C 868.87 1.95026 0.705663 0
M  V30 8652 C 869.295 0.869643 1.6679 0
M  V30 8653 O 868.653 -0.172659 1.80476 0
M  V30 8654 C 868.701 3.31545 1.4181 0
M  V30 8655 O 867.805 3.25495 2.53232 0
M  V30 8656 H 867.146 0.636808 0.188074 0
M  V30 8657 H 869.676 2.04547 -0.046696 0
M  V30 8658 H 869.686 3.66996 1.78265 0
M  V30 8659 H 868.361 4.09751 0.712543 0
M  V30 8660 H 866.938 3.01714 2.19142 0
M  V30 8661 N 869.123 -0.277682 1.55134 0
M  V30 8662 C 870.053 -1.34742 1.90701 0
M  V30 8663 C 871.034 -1.51757 0.768354 0
M  V30 8664 O 872.219 -1.64879 1.02609 0
M  V30 8665 C 869.349 -2.70775 2.17481 0
M  V30 8666 C 868.303 -2.68497 3.33307 0
M  V30 8667 C 867.629 -4.08037 3.45557 0
M  V30 8668 C 868.929 -2.28178 4.69821 0
M  V30 8669 H 870.623 -1.05224 2.803 0
M  V30 8670 H 868.169 -0.504738 1.34864 0
M  V30 8671 H 870.122 -3.45719 2.40949 0
M  V30 8672 H 868.846 -3.01867 1.24676 0
M  V30 8673 H 867.505 -1.9601 3.09799 0
M  V30 8674 H 867.153 -4.36344 2.50226 0
M  V30 8675 H 866.853 -4.07409 4.23429 0
M  V30 8676 H 868.377 -4.84726 3.71312 0
M  V30 8677 H 869.791 -2.92843 4.92865 0
M  V30 8678 H 868.188 -2.3872 5.50575 0
M  V30 8679 H 869.258 -1.23308 4.6896 0
M  V30 8680 N 870.601 -1.47988 -0.541979 0
M  V30 8681 C 871.549 -1.62044 -1.66867 0
M  V30 8682 C 872.543 -0.487217 -1.62242 0
M  V30 8683 O 873.749 -0.66554 -1.67244 0
M  V30 8684 H 870.124 -0.51024 -0.552412 0
M  V30 8685 H 872.095 -2.56695 -1.52153 0
M  V30 8686 C 870.844 -1.66615 -3.0518 0
M  V30 8687 H 870.167 -2.5317 -3.09427 0
M  V30 8688 H 871.607 -1.80496 -3.83663 0
M  V30 8689 C 870.066 -0.402421 -3.34488 0
M  V30 8690 O 870.596 0.48992 -3.98701 0
M  V30 8691 N 868.802 -0.277778 -2.89269 0
M  V30 8692 H 868.349 -1.00488 -2.37192 0
M  V30 8693 H 868.307 0.566784 -3.09249 0
M  V30 8694 N 872.079 0.78992 -1.36375 0
M  V30 8695 C 873.327 1.54472 -1.30319 0
M  V30 8696 C 873.648 1.94647 0.117338 0
M  V30 8697 O 872.918 1.64906 1.05748 0
M  V30 8698 H 871.498 0.572879 -0.479394 0
M  V30 8699 H 874.16 0.941245 -1.70665 0
M  V30 8700 H 873.256 2.45252 -1.93024 0
M  V30 8701 N 873.557 1.20646 1.01402 0
M  V30 8702 C 874.785 1.04389 1.78635 0
M  V30 8703 C 875.2 -0.406771 1.84366 0
M  V30 8704 O 874.557 -1.28239 1.2985 0
M  V30 8705 C 874.608 1.62378 3.22979 0
M  V30 8706 O 874.329 3.01768 3.17597 0
M  V30 8707 C 875.83 1.5111 4.1675 0
M  V30 8708 H 873.05 0.367077 0.56169 0
M  V30 8709 H 875.594 1.59789 1.27624 0
M  V30 8710 H 873.749 1.11092 3.7113 0
M  V30 8711 H 874.163 3.29331 4.08217 0
M  V30 8712 H 875.637 1.96441 5.15863 0
M  V30 8713 H 876.114 0.464011 4.36742 0
M  V30 8714 H 876.72 2.01599 3.74483 0
M  V30 8715 N 875.035 -1.20752 1.01276 0
M  V30 8716 C 876.263 -1.94006 0.718976 0
M  V30 8717 C 876.678 -1.74544 -0.719711 0
M  V30 8718 O 876.035 -1.05697 -1.48776 0
M  V30 8719 C 876.086 -3.46208 1.04031 0
M  V30 8720 O 875.807 -3.65031 2.42248 0
M  V30 8721 C 877.308 -4.36614 0.767032 0
M  V30 8722 H 874.528 -0.616743 0.264327 0
M  V30 8723 H 877.072 -1.53352 1.3529 0
M  V30 8724 H 875.227 -3.84756 0.451852 0
M  V30 8725 H 875.641 -4.59054 2.53712 0
M  V30 8726 H 877.115 -5.42076 1.04198 0
M  V30 8727 H 877.592 -4.38182 -0.298851 0
M  V30 8728 H 878.198 -4.03723 1.33746 0
M  V30 8729 N 876.513 -0.788492 -1.36457 0
M  V30 8730 C 877.759 -0.370067 -2.00005 0
M  V30 8731 C 878.114 1.0464 -1.61456 0
M  V30 8732 O 877.407 1.71277 -0.85876 0
M  V30 8733 C 877.601 -0.470255 -3.54293 0
M  V30 8734 C 877.43 -1.89492 -4.07827 0
M  V30 8735 C 876.2 -2.51932 -4.38016 0
M  V30 8736 C 878.398 -2.85692 -4.2765 0
M  V30 8737 N 876.38 -3.85997 -4.77368 0
M  V30 8738 C 877.751 -4.04588 -4.69796 0
M  V30 8739 C 879.806 -2.8276 -4.09818 0
M  V30 8740 C 878.509 -5.2096 -4.95977 0
M  V30 8741 C 880.535 -3.98319 -4.37145 0
M  V30 8742 C 879.897 -5.1596 -4.79547 0
M  V30 8743 H 875.996 -0.182813 -0.760331 0
M  V30 8744 H 878.58 -1.02589 -1.6548 0
M  V30 8745 H 876.751 0.155476 -3.88089 0
M  V30 8746 H 878.483 -0.0281643 -4.0469 0
M  V30 8747 H 875.238 -2.0342 -4.27688 0
M  V30 8748 H 875.662 -4.54971 -5.01329 0
M  V30 8749 H 880.304 -1.92971 -3.76194 0
M  V30 8750 H 878.022 -6.11335 -5.28483 0
M  V30 8751 H 881.608 -3.97411 -4.24919 0
M  V30 8752 H 880.488 -6.03893 -5.00283 0
M  V30 8753 N 877.991 1.48044 -0.54043 0
M  V30 8754 C 879.268 1.95523 0.0547302 0
M  V30 8755 C 879.648 1.48284 1.5025 0
M  V30 8756 O 878.996 0.714037 2.17057 0
M  V30 8757 C 879.206 3.48923 -0.0733393 0
M  V30 8758 C 880.554 4.24523 0.0806026 0
M  V30 8759 O 881.578 3.562 -5.58687e-05 0
M  V30 8760 O 880.437 5.45922 0.251216 0
M  V30 8761 H 877.531 0.823728 0.073493 0
M  V30 8762 H 880.077 1.5852 -0.605768 0
M  V30 8763 H 878.849 3.76059 -1.08144 0
M  V30 8764 H 878.472 3.92648 0.625536 0
M  V30 8765 N 879.47 0.276058 1.55163 0
M  V30 8766 C 880.718 -0.339782 1.99223 0
M  V30 8767 C 881.039 -1.56307 1.16589 0
M  V30 8768 O 880.309 -1.94225 0.25564 0
M  V30 8769 H 878.889 -0.128534 0.735859 0
M  V30 8770 H 881.551 0.381612 1.91128 0
M  V30 8771 H 880.647 -0.629 3.05696 0
M  V30 8772 N 880.948 -1.576 0.00335426 0
M  V30 8773 C 882.359 -1.7875 -0.539008 0
M  V30 8774 C 882.71 -0.911097 -1.73763 0
M  V30 8775 O 881.835 -0.114476 -2.16097 0
M  V30 8776 C 882.43 -3.24177 -0.984611 0
M  V30 8777 C 880.989 -3.46412 -1.47226 0
M  V30 8778 C 880.136 -2.74024 -0.425004 0
M  V30 8779 H 883.087 -1.57032 0.229511 0
M  V30 8780 H 883.108 -3.32474 -1.85044 0
M  V30 8781 H 882.62 -3.87938 -0.112035 0
M  V30 8782 H 880.721 -2.8787 -2.36562 0
M  V30 8783 H 880.834 -4.55098 -1.49741 0
M  V30 8784 H 879.198 -2.38741 -0.887394 0
M  V30 8785 H 879.981 -3.40486 0.438662 0
M  V30 8786 N 882.426 0.269451 -1.5528 0
M  V30 8787 C 883.672 1.00206 -1.76314 0
M  V30 8788 C 884.005 1.85812 -0.564581 0
M  V30 8789 O 883.28 1.89509 0.437769 0
M  V30 8790 C 883.563 1.88163 -3.07029 0
M  V30 8791 C 883.416 1.05527 -4.37246 0
M  V30 8792 C 884.735 2.8681 -3.33808 0
M  V30 8793 H 881.854 0.36288 -0.641473 0
M  V30 8794 H 884.496 0.274188 -1.88011 0
M  V30 8795 H 882.646 2.50224 -2.97187 0
M  V30 8796 H 884.318 0.455094 -4.5905 0
M  V30 8797 H 882.561 0.358842 -4.32313 0
M  V30 8798 H 883.232 1.70397 -5.25042 0
M  V30 8799 H 885.708 2.34884 -3.43466 0
M  V30 8800 H 884.584 3.45492 -4.26528 0
M  V30 8801 H 884.845 3.62118 -2.5362 0
M  V30 8802 N 883.904 1.48273 0.534124 0
M  V30 8803 C 884.867 1.6201 1.62127 0
M  V30 8804 C 885.867 0.493653 1.53035 0
M  V30 8805 O 887.057 0.759337 1.56779 0
M  V30 8806 C 884.189 1.5864 3.01739 0
M  V30 8807 H 885.382 2.58944 1.51288 0
M  V30 8808 H 882.935 1.36808 0.755861 0
M  V30 8809 H 883.67 0.631685 3.18088 0
M  V30 8810 H 883.455 2.40415 3.09747 0
M  V30 8811 H 884.945 1.71438 3.80787 0
M  V30 8812 N 885.382 -0.782676 1.36792 0
M  V30 8813 C 886.607 -1.57676 1.34733 0
M  V30 8814 C 887.032 -1.87979 -0.0675253 0
M  V30 8815 O 886.39 -1.48404 -1.04144 0
M  V30 8816 C 886.438 -2.87047 2.18257 0
M  V30 8817 O 885.542 -3.80946 1.57969 0
M  V30 8818 H 884.883 -0.478034 0.460846 0
M  V30 8819 H 887.413 -0.969578 1.80168 0
M  V30 8820 H 887.423 -3.36254 2.31079 0
M  V30 8821 H 886.098 -2.64319 3.21104 0
M  V30 8822 H 884.675 -3.39558 1.54126 0
M  V30 8823 N 886.86 -1.21182 -1.00761 0
M  V30 8824 C 888.108 -1.02543 -1.74153 0
M  V30 8825 C 888.429 0.442372 -1.89916 0
M  V30 8826 O 887.699 1.31927 -1.44818 0
M  V30 8827 H 886.279 -0.37644 -0.645214 0
M  V30 8828 H 888.941 -1.52446 -1.21434 0
M  V30 8829 H 888.037 -1.49122 -2.7417 0
M  V30 8830 N 888.338 1.20213 -1.01915 0
M  V30 8831 C 889.754 1.41696 -0.734459 0
M  V30 8832 C 889.954 1.89504 0.684867 0
M  V30 8833 O 889.01 2.06556 1.45227 0
M  V30 8834 C 890.323 2.43644 -1.76233 0
M  V30 8835 C 891.871 2.57406 -1.78076 0
M  V30 8836 C 892.346 3.626 -2.79796 0
M  V30 8837 N 893.837 3.70086 -2.78551 0
M  V30 8838 C 894.572 4.51145 -3.53915 0
M  V30 8839 N 894.068 5.35988 -4.38963 0
M  V30 8840 N 895.861 4.45702 -3.425 0
M  V30 8841 H 888.012 0.874976 -1.93541 0
M  V30 8842 H 890.275 0.446647 -0.836188 0
M  V30 8843 H 889.981 2.15519 -2.77929 0
M  V30 8844 H 889.855 3.42672 -1.57657 0
M  V30 8845 H 892.242 2.8486 -0.770634 0
M  V30 8846 H 892.323 1.58565 -2.00725 0
M  V30 8847 H 891.967 3.35889 -3.80973 0
M  V30 8848 H 891.897 4.61069 -2.54407 0
M  V30 8849 H 894.388 3.09484 -2.1686 0
M  V30 8850 H 894.701 5.94932 -4.9323 0
M  V30 8851 H 893.046 5.35482 -4.4304 0
M  V30 8852 H 896.237 3.78456 -2.75478 0
M  V30 8853 H 896.41 5.08637 -4.01487 0
M  V30 8854 N 889.816 0.795718 1.36037 0
M  V30 8855 C 891.063 0.371024 1.99072 0
M  V30 8856 C 891.391 -1.05896 1.63145 0
M  V30 8857 O 890.646 -1.7474 0.881163 0
M  V30 8858 C 890.945 0.489038 3.54038 0
M  V30 8859 C 890.611 1.88075 4.09803 0
M  V30 8860 C 889.273 2.26152 4.24745 0
M  V30 8861 C 891.625 2.79174 4.40126 0
M  V30 8862 C 888.953 3.54718 4.67324 0
M  V30 8863 C 891.305 4.07175 4.8414 0
M  V30 8864 C 889.969 4.45266 4.97287 0
M  V30 8865 H 889.239 0.135767 0.728456 0
M  V30 8866 H 891.886 1.0144 1.62426 0
M  V30 8867 H 890.191 -0.237823 3.91078 0
M  V30 8868 H 891.888 0.141374 4.00751 0
M  V30 8869 H 888.478 1.57488 3.98617 0
M  V30 8870 H 892.662 2.51009 4.28145 0
M  V30 8871 H 887.918 3.84093 4.75691 0
M  V30 8872 H 892.092 4.77875 5.06565 0
M  V30 8873 H 889.719 5.44943 5.30038 0
M  V30 8874 N 891.294 -1.47756 0.548274 0
M  V30 8875 C 892.522 -2.06884 0.0254873 0
M  V30 8876 C 892.937 -1.40225 -1.26422 0
M  V30 8877 O 892.294 -0.495776 -1.75637 0
M  V30 8878 C 892.345 -3.61036 -0.183134 0
M  V30 8879 O 892.066 -4.25195 1.05549 0
M  V30 8880 C 893.567 -4.37008 -0.744222 0
M  V30 8881 H 890.787 -0.669697 0.041789 0
M  V30 8882 H 893.331 -1.89888 0.759138 0
M  V30 8883 H 891.486 -3.77576 -0.866886 0
M  V30 8884 H 891.9 -5.17606 0.847629 0
M  V30 8885 H 893.374 -5.45579 -0.839529 0
M  V30 8886 H 893.851 -4.0268 -1.75344 0
M  V30 8887 H 894.457 -4.25191 -0.0964542 0
M  V30 8888 N 892.772 -0.284283 -1.55015 0
M  V30 8889 C 894 0.332948 -2.04203 0
M  V30 8890 C 894.415 1.48783 -1.16229 0
M  V30 8891 O 893.772 1.81567 -0.184323 0
M  V30 8892 C 893.823 0.805207 -3.52418 0
M  V30 8893 O 893.544 -0.303689 -4.37046 0
M  V30 8894 C 895.045 1.48931 -4.17534 0
M  V30 8895 H 892.265 0.0747447 -0.666824 0
M  V30 8896 H 894.809 -0.419048 -2.00161 0
M  V30 8897 H 892.964 1.50727 -3.56876 0
M  V30 8898 H 893.378 0.0609703 -5.24465 0
M  V30 8899 H 894.852 1.77108 -5.22816 0
M  V30 8900 H 895.329 2.42389 -3.66257 0
M  V30 8901 H 895.935 0.830867 -4.17105 0
M  V30 8902 N 894.251 1.57596 -0.0117121 0
M  V30 8903 C 895.476 1.95764 0.684938 0
M  V30 8904 C 895.901 0.887285 1.65858 0
M  V30 8905 O 895.259 -0.153508 1.80649 0
M  V30 8906 C 895.307 3.33031 1.38285 0
M  V30 8907 O 894.411 3.28163 2.49765 0
M  V30 8908 H 893.752 0.638767 0.181309 0
M  V30 8909 H 896.282 2.04486 -0.0683883 0
M  V30 8910 H 896.292 3.68866 1.74362 0
M  V30 8911 H 894.967 4.10483 0.669043 0
M  V30 8912 H 893.544 3.04021 2.15929 0
M  V30 8913 N 895.729 -0.261212 1.5542 0
M  V30 8914 C 896.659 -1.32712 1.92119 0
M  V30 8915 C 897.64 -1.50934 0.784406 0
M  V30 8916 O 898.825 -1.63781 1.04352 0
M  V30 8917 C 895.955 -2.68453 2.20341 0
M  V30 8918 C 894.909 -2.64947 3.36136 0
M  V30 8919 C 894.235 -4.04349 3.49865 0
M  V30 8920 C 895.535 -2.23182 4.72215 0
M  V30 8921 H 897.229 -1.02245 2.81401 0
M  V30 8922 H 894.775 -0.490406 1.35392 0
M  V30 8923 H 896.728 -3.43144 2.44603 0
M  V30 8924 H 895.452 -3.00527 1.27871 0
M  V30 8925 H 894.111 -1.92714 3.11861 0
M  V30 8926 H 893.759 -4.33665 2.5484 0
M  V30 8927 H 893.459 -4.02895 4.27726 0
M  V30 8928 H 894.983 -4.80761 3.76432 0
M  V30 8929 H 896.397 -2.87599 4.95943 0
M  V30 8930 H 894.794 -2.32867 5.53076 0
M  V30 8931 H 895.864 -1.18327 4.70241 0
M  V30 8932 N 897.207 -1.48554 -0.526253 0
M  V30 8933 C 898.17 -1.62868 -1.61266 0
M  V30 8934 C 899.17 -0.501762 -1.52771 0
M  V30 8935 O 900.36 -0.76764 -1.56374 0
M  V30 8936 C 897.492 -1.60238 -3.00893 0
M  V30 8937 H 898.685 -2.59742 -1.49913 0
M  V30 8938 H 896.238 -1.37207 -0.748595 0
M  V30 8939 H 896.973 -0.648545 -3.17749 0
M  V30 8940 H 896.758 -2.42054 -3.08468 0
M  V30 8941 H 898.248 -1.73455 -3.79872 0
M  V30 8942 N 898.685 0.775411 -1.37205 0
M  V30 8943 C 900.096 1.35147 -1.28811 0
M  V30 8944 C 900.447 1.96089 0.0659168 0
M  V30 8945 O 899.572 1.93558 0.967684 0
M  V30 8946 C 900.167 2.45715 -2.33258 0
M  V30 8947 C 898.726 2.99099 -2.2851 0
M  V30 8948 C 897.873 1.72286 -2.17285 0
M  V30 8949 H 900.824 0.575954 -1.4788 0
M  V30 8950 H 900.845 3.251 -1.97712 0
M  V30 8951 H 900.357 2.01331 -3.31795 0
M  V30 8952 H 898.458 3.47868 -1.33485 0
M  V30 8953 H 898.571 3.54962 -3.21774 0
M  V30 8954 H 896.935 1.95068 -1.6377 0
M  V30 8955 H 897.718 1.3001 -3.1773 0
M  V30 8956 N 900.163 1.21714 1.00117 0
M  V30 8957 C 901.095 0.937627 2.09144 0
M  V30 8958 C 902.108 -0.0806291 1.626 0
M  V30 8959 O 903.297 0.152348 1.77849 0
M  V30 8960 C 900.397 0.387036 3.36683 0
M  V30 8961 C 899.57 1.46054 4.12295 0
M  V30 8962 C 898.629 0.918505 5.18122 0
M  V30 8963 O 897.655 1.60282 5.46167 0
M  V30 8964 N 898.857 -0.264308 5.79898 0
M  V30 8965 H 901.622 1.87622 2.33705 0
M  V30 8966 H 899.183 1.12291 1.16629 0
M  V30 8967 H 901.175 0.00992825 4.04699 0
M  V30 8968 H 899.745 -0.456467 3.09249 0
M  V30 8969 H 898.965 2.01133 3.39027 0
M  V30 8970 H 900.253 2.18306 4.59587 0
M  V30 8971 H 899.651 -0.837242 5.5947 0
M  V30 8972 H 898.208 -0.582886 6.49188 0
M  V30 8973 N 901.641 -1.19671 1.02551 0
M  V30 8974 C 903.057 -1.41305 0.741963 0
M  V30 8975 C 903.257 -1.89865 -0.674807 0
M  V30 8976 O 902.313 -2.07323 -1.44129 0
M  V30 8977 C 903.626 -2.42706 1.77522 0
M  V30 8978 C 905.174 -2.56458 1.79438 0
M  V30 8979 C 905.649 -3.61111 2.81715 0
M  V30 8980 N 907.14 -3.68603 2.8051 0
M  V30 8981 C 907.875 -4.49262 3.56302 0
M  V30 8982 N 907.371 -5.33653 4.41799 0
M  V30 8983 N 909.164 -4.43879 3.44859 0
M  V30 8984 H 901.315 -0.8647 1.94002 0
M  V30 8985 H 903.578 -0.442206 0.838545 0
M  V30 8986 H 903.284 -2.14042 2.79068 0
M  V30 8987 H 903.158 -3.41831 1.59472 0
M  V30 8988 H 905.545 -2.84447 0.78573 0
M  V30 8989 H 905.626 -1.57499 2.01563 0
M  V30 8990 H 905.27 -3.33864 3.82749 0
M  V30 8991 H 905.2 -4.59713 2.56849 0
M  V30 8992 H 907.691 -3.08329 2.18498 0
M  V30 8993 H 908.004 -5.92308 4.96378 0
M  V30 8994 H 906.349 -5.33125 4.45873 0
M  V30 8995 H 909.54 -3.7699 2.77482 0
M  V30 8996 H 909.713 -5.06501 4.04179 0
M  V30 8997 N 903.119 -0.802921 -1.35613 0
M  V30 8998 C 904.082 -0.216422 -2.28176 0
M  V30 8999 C 905.082 0.594101 -1.49422 0
M  V30 9000 O 906.272 0.41312 -1.6923 0
M  V30 9001 C 903.404 0.698746 -3.33662 0
M  V30 9002 H 904.597 -1.03276 -2.81557 0
M  V30 9003 H 902.15 -0.573307 -1.45406 0
M  V30 9004 H 902.885 1.53891 -2.85461 0
M  V30 9005 H 902.67 0.119314 -3.91918 0
M  V30 9006 H 904.16 1.10354 -4.02755 0
M  V30 9007 N 904.597 1.47463 -0.556102 0
M  V30 9008 C 905.843 2.02775 -0.0316806 0
M  V30 9009 C 906.176 1.42967 1.3143 0
M  V30 9010 O 905.451 0.584847 1.85499 0
M  V30 9011 C 905.734 3.60046 0.0625742 0
M  V30 9012 C 905.587 4.30288 -1.31043 0
M  V30 9013 C 906.906 4.33195 0.776553 0
M  V30 9014 H 904.025 0.736886 -0.0129869 0
M  V30 9015 H 906.667 1.75904 -0.718177 0
M  V30 9016 H 904.817 3.83071 0.647231 0
M  V30 9017 H 906.489 4.18607 -1.9382 0
M  V30 9018 H 904.732 3.90685 -1.8854 0
M  V30 9019 H 905.403 5.38861 -1.1972 0
M  V30 9020 H 907.879 4.15156 0.280147 0
M  V30 9021 H 906.755 5.42869 0.81146 0
M  V30 9022 H 907.016 4.02336 1.83244 0
M  V30 9023 N 906.075 0.2925 1.54862 0
M  V30 9024 C 907.322 -0.319263 1.99967 0
M  V30 9025 C 907.65 -1.54547 1.18092 0
M  V30 9026 O 906.905 -1.94186 0.242969 0
M  V30 9027 C 907.204 -0.728674 3.49893 0
M  V30 9028 C 906.87 0.394836 4.49168 0
M  V30 9029 C 905.532 0.703289 4.76033 0
M  V30 9030 C 907.884 1.15103 5.08331 0
M  V30 9031 C 905.212 1.77121 5.59325 0
M  V30 9032 C 907.564 2.20881 5.92785 0
M  V30 9033 C 906.228 2.52342 6.17964 0
M  V30 9034 H 905.498 -0.116827 0.731733 0
M  V30 9035 H 908.145 0.40983 1.87063 0
M  V30 9036 H 906.45 -1.53772 3.60363 0
M  V30 9037 H 908.147 -1.21305 3.82212 0
M  V30 9038 H 904.737 0.144319 4.28357 0
M  V30 9039 H 908.921 0.92599 4.87585 0
M  V30 9040 H 904.177 2.01978 5.77074 0
M  V30 9041 H 908.351 2.79939 6.37657 0
M  V30 9042 H 905.978 3.35225 6.82296 0
M  V30 9043 N 907.553 -1.57587 0.0200696 0
M  V30 9044 C 908.964 -1.79312 -0.520019 0
M  V30 9045 C 909.315 -0.929475 -1.72787 0
M  V30 9046 O 908.44 -0.137389 -2.15963 0
M  V30 9047 C 909.035 -3.25203 -0.950172 0
M  V30 9048 C 907.594 -3.47954 -1.43543 0
M  V30 9049 C 906.741 -2.74459 -0.395917 0
M  V30 9050 H 909.692 -1.56779 0.246153 0
M  V30 9051 H 909.713 -3.34418 -1.81508 0
M  V30 9052 H 909.225 -3.88035 -0.070883 0
M  V30 9053 H 907.326 -2.90363 -2.33495 0
M  V30 9054 H 907.439 -4.56661 -1.44905 0
M  V30 9055 H 905.803 -2.39669 -0.862022 0
M  V30 9056 H 906.586 -3.40001 0.47475 0
M  V30 9057 N 909.032 0.252966 -1.55557 0
M  V30 9058 C 909.995 1.29645 -1.8901 0
M  V30 9059 C 910.995 1.41378 -0.766096 0
M  V30 9060 O 912.185 1.40183 -1.03414 0
M  V30 9061 C 909.317 2.67504 -2.11316 0
M  V30 9062 H 910.51 1.01202 -2.82309 0
M  V30 9063 H 908.063 0.491977 -1.48355 0
M  V30 9064 H 908.798 3.01095 -1.20466 0
M  V30 9065 H 908.583 2.6037 -2.93172 0
M  V30 9066 H 910.073 3.42861 -2.38403 0
M  V30 9067 N 910.51 1.48831 0.518367 0
M  V30 9068 C 911.926 1.35209 0.847979 0
M  V30 9069 C 912.126 0.371927 1.98038 0
M  V30 9070 O 911.182 -0.202681 2.51685 0
M  V30 9071 C 912.495 2.7552 1.20455 0
M  V30 9072 C 914.043 2.84094 1.31377 0
M  V30 9073 C 914.518 4.25132 1.70372 0
M  V30 9074 N 916.009 4.27861 1.77453 0
M  V30 9075 C 916.744 5.3394 2.09035 0
M  V30 9076 N 916.24 6.50285 2.3896 0
M  V30 9077 N 918.033 5.21343 2.10139 0
M  V30 9078 H 910.184 2.11166 -0.228624 0
M  V30 9079 H 912.447 0.94717 -0.0396599 0
M  V30 9080 H 912.153 3.48861 0.445991 0
M  V30 9081 H 912.027 3.09785 2.15204 0
M  V30 9082 H 914.414 2.11001 2.06307 0
M  V30 9083 H 914.495 2.53433 0.347203 0
M  V30 9084 H 914.139 4.98745 0.959975 0
M  V30 9085 H 914.069 4.53245 2.68098 0
M  V30 9086 H 916.56 3.43945 1.56557 0
M  V30 9087 H 916.873 7.26961 2.62196 0
M  V30 9088 H 915.218 6.5354 2.36454 0
M  V30 9089 H 918.409 4.29462 1.86225 0
M  V30 9090 H 918.582 6.04112 2.34419 0
M  V30 9091 N 911.988 -0.768124 1.37614 0
M  V30 9092 C 913.265 -1.51637 1.23554 0
M  V30 9093 C 913.645 -2.1042 -0.169331 0
M  V30 9094 O 912.993 -1.95834 -1.17735 0
M  V30 9095 C 913.203 -2.59436 2.33439 0
M  V30 9096 C 914.551 -3.2674 2.71157 0
M  V30 9097 O 915.575 -2.69733 2.32642 0
M  V30 9098 O 914.434 -4.29814 3.37524 0
M  V30 9099 H 911.528 -0.671778 0.482332 0
M  V30 9100 H 914.074 -0.804779 1.49403 0
M  V30 9101 H 912.846 -2.14146 3.27502 0
M  V30 9102 H 912.469 -3.38192 2.09073 0
M  V30 9103 N 913.466 -1.22244 -0.994698 0
M  V30 9104 C 914.429 -0.992308 -2.06606 0
M  V30 9105 C 915.429 0.0405872 -1.60749 0
M  V30 9106 O 916.619 -0.197737 -1.73074 0
M  V30 9107 C 913.751 -0.498499 -3.37236 0
M  V30 9108 H 914.944 -1.9429 -2.28455 0
M  V30 9109 H 912.497 -1.04087 -1.166 0
M  V30 9110 H 913.232 0.456531 -3.21071 0
M  V30 9111 H 913.017 -1.24367 -3.71854 0
M  V30 9112 H 914.507 -0.35768 -4.16065 0
M  V30 9113 N 914.944 1.19125 -1.03184 0
M  V30 9114 C 916.36 1.40909 -0.749447 0
M  V30 9115 C 916.56 1.9022 0.664729 0
M  V30 9116 O 915.616 2.08085 1.43028 0
M  V30 9117 C 916.929 2.41761 -1.78807 0
M  V30 9118 C 918.477 2.55503 -1.80796 0
M  V30 9119 C 918.952 3.59612 -2.83626 0
M  V30 9120 N 920.443 3.6711 -2.82461 0
M  V30 9121 C 921.178 4.47366 -3.5868 0
M  V30 9122 N 920.674 5.31302 -4.44623 0
M  V30 9123 N 922.467 4.42044 -3.47208 0
M  V30 9124 H 914.618 0.854399 -1.94458 0
M  V30 9125 H 916.881 0.437753 -0.840878 0
M  V30 9126 H 916.587 2.12559 -2.80199 0
M  V30 9127 H 916.461 3.40981 -1.61283 0
M  V30 9128 H 918.848 2.84027 -0.800803 0
M  V30 9129 H 918.929 1.56427 -2.02396 0
M  V30 9130 H 918.573 3.3183 -3.84515 0
M  V30 9131 H 918.503 4.58345 -2.59283 0
M  V30 9132 H 920.994 3.07166 -2.2013 0
M  V30 9133 H 921.307 5.89667 -4.99512 0
M  V30 9134 H 919.652 5.30753 -4.48694 0
M  V30 9135 H 922.843 3.75513 -2.79477 0
M  V30 9136 H 923.016 5.0435 -4.06859 0
M  V30 9137 N 916.422 0.810101 1.35185 0
M  V30 9138 C 917.652 0.404109 2.02609 0
M  V30 9139 C 918.06 -0.990748 1.61186 0
M  V30 9140 O 917.403 -1.65038 0.80674 0
M  V30 9141 C 917.465 0.412047 3.57131 0
M  V30 9142 C 917.129 1.75802 4.21832 0
M  V30 9143 C 918.126 2.71687 4.43263 0
M  V30 9144 C 915.811 2.04299 4.58876 0
M  V30 9145 C 917.805 3.9425 5.00845 0
M  V30 9146 C 915.492 3.27125 5.16171 0
M  V30 9147 C 916.49 4.21918 5.37098 0
M  V30 9148 O 916.178 5.42576 5.93184 0
M  V30 9149 H 915.91 0.161914 0.656323 0
M  V30 9150 H 918.464 1.09605 1.73712 0
M  V30 9151 H 916.694 -0.336509 3.85233 0
M  V30 9152 H 918.383 0.0278817 4.0589 0
M  V30 9153 H 919.149 2.50964 4.15021 0
M  V30 9154 H 915.028 1.31324 4.41899 0
M  V30 9155 H 918.572 4.68251 5.17094 0
M  V30 9156 H 914.469 3.47718 5.43841 0
M  V30 9157 H 915.237 5.43921 6.11631 0
M  V30 9158 N 917.9 -1.47166 0.563914 0
M  V30 9159 C 919.149 -2.0166 0.0401871 0
M  V30 9160 C 919.462 -1.44303 -1.32046 0
M  V30 9161 O 920.668 -1.905 -1.93448 0
M  V30 9162 C 919.124 -3.59894 0.0213257 0
M  V30 9163 C 918.732 -4.26244 1.37914 0
M  V30 9164 C 920.476 -4.22114 -0.449442 0
M  V30 9165 C 918.383 -5.76503 1.31902 0
M  V30 9166 H 917.313 -0.753916 0.0112534 0
M  V30 9167 H 919.964 -1.69091 0.712766 0
M  V30 9168 H 918.346 -3.89454 -0.717038 0
M  V30 9169 H 919.52 -4.08317 2.13574 0
M  V30 9170 H 917.835 -3.76039 1.78839 0
M  V30 9171 H 920.432 -5.32234 -0.51292 0
M  V30 9172 H 920.775 -3.89749 -1.46291 0
M  V30 9173 H 921.308 -3.9711 0.23427 0
M  V30 9174 H 918.047 -6.13498 2.3087 0
M  V30 9175 H 917.567 -5.96748 0.604324 0
M  V30 9176 H 919.246 -6.38846 1.02392 0
M  V30 9177 N 919.378 -0.300708 -1.54705 0
M  V30 9178 C 920.794 0.0526874 -1.59513 0
M  V30 9179 C 920.994 1.52444 -1.31769 0
M  V30 9180 O 920.05 2.27716 -1.09096 0
M  V30 9181 C 921.363 -0.344989 -2.98714 0
M  V30 9182 C 922.911 -0.29373 -3.11619 0
M  V30 9183 C 923.386 -0.666225 -4.53129 0
M  V30 9184 N 924.877 -0.618749 -4.59049 0
M  V30 9185 C 925.612 -0.879447 -5.66616 0
M  V30 9186 N 925.108 -1.2061 -6.82221 0
M  V30 9187 N 926.901 -0.806528 -5.56284 0
M  V30 9188 H 919.052 -1.25988 -1.71 0
M  V30 9189 H 921.315 -0.510758 -0.798643 0
M  V30 9190 H 921.021 -1.36953 -3.2394 0
M  V30 9191 H 920.895 0.301507 -3.75993 0
M  V30 9192 H 923.282 0.72156 -2.86142 0
M  V30 9193 H 923.363 -0.974844 -2.36496 0
M  V30 9194 H 923.007 -1.67932 -4.79334 0
M  V30 9195 H 922.937 0.0369575 -5.26587 0
M  V30 9196 H 925.428 -0.377202 -3.76013 0
M  V30 9197 H 925.741 -1.391 -7.60178 0
M  V30 9198 H 924.086 -1.24413 -6.83774 0
M  V30 9199 H 927.277 -0.550993 -4.64846 0
M  V30 9200 H 927.45 -1.01307 -6.40032 0
M  V30 9201 N 920.856 1.57574 -0.0284266 0
M  V30 9202 C 921.786 2.1321 0.952039 0
M  V30 9203 C 922.767 1.04806 1.33977 0
M  V30 9204 O 923.952 1.32635 1.41851 0
M  V30 9205 C 921.082 2.65862 2.23461 0
M  V30 9206 C 920.036 3.79047 1.98765 0
M  V30 9207 C 919.362 4.18124 3.33281 0
M  V30 9208 C 920.662 5.05151 1.32739 0
M  V30 9209 H 922.356 2.95385 0.488705 0
M  V30 9210 H 919.902 1.42092 0.233628 0
M  V30 9211 H 921.855 3.03417 2.92431 0
M  V30 9212 H 920.579 1.80848 2.71959 0
M  V30 9213 H 919.238 3.41929 1.32213 0
M  V30 9214 H 918.886 3.30092 3.79537 0
M  V30 9215 H 918.586 4.94396 3.17563 0
M  V30 9216 H 920.11 4.58262 4.0352 0
M  V30 9217 H 921.524 5.40297 1.91708 0
M  V30 9218 H 919.921 5.86416 1.27421 0
M  V30 9219 H 920.991 4.83969 0.300261 0
M  V30 9220 N 922.334 -0.244713 1.55689 0
M  V30 9221 C 923.58 -0.973886 1.77886 0
M  V30 9222 C 923.913 -1.8489 0.594071 0
M  V30 9223 O 923.188 -1.90182 -0.407564 0
M  V30 9224 C 923.471 -1.83255 3.09983 0
M  V30 9225 C 923.324 -0.985571 4.3887 0
M  V30 9226 C 924.643 -2.81464 3.38329 0
M  V30 9227 H 921.762 -0.352629 0.647165 0
M  V30 9228 H 924.404 -0.244243 1.88424 0
M  V30 9229 H 922.554 -2.45464 3.01131 0
M  V30 9230 H 924.226 -0.382005 4.59716 0
M  V30 9231 H 922.469 -0.29002 4.32829 0
M  V30 9232 H 923.14 -1.62022 5.27686 0
M  V30 9233 H 925.616 -2.2939 3.47159 0
M  V30 9234 H 924.492 -3.38663 4.31971 0
M  V30 9235 H 924.753 -3.58037 2.59349 0
M  V30 9236 N 923.813 -1.49104 -0.510467 0
M  V30 9237 C 924.776 -1.64569 -1.59529 0
M  V30 9238 C 925.776 -0.517937 -1.5223 0
M  V30 9239 O 926.966 -0.784183 -1.55551 0
M  V30 9240 C 924.098 -1.6342 -2.99177 0
M  V30 9241 H 925.291 -2.61318 -1.4715 0
M  V30 9242 H 922.844 -1.37993 -0.734001 0
M  V30 9243 H 923.579 -0.68221 -3.17043 0
M  V30 9244 H 923.364 -2.45312 -3.05883 0
M  V30 9245 H 924.854 -1.77474 -3.78011 0
M  V30 9246 N 925.291 0.760815 -1.38019 0
M  V30 9247 C 926.221 1.88811 -1.37377 0
M  V30 9248 C 927.202 1.68388 -0.240737 0
M  V30 9249 O 928.387 1.89086 -0.442739 0
M  V30 9250 C 925.517 3.26244 -1.1909 0
M  V30 9251 C 924.471 3.61254 -2.29521 0
M  V30 9252 C 923.797 4.97346 -1.96345 0
M  V30 9253 C 925.097 3.66874 -3.71753 0
M  V30 9254 H 926.791 1.89606 -2.31711 0
M  V30 9255 H 924.337 0.910818 -1.11535 0
M  V30 9256 H 926.29 4.04755 -1.17267 0
M  V30 9257 H 925.014 3.2591 -0.212152 0
M  V30 9258 H 923.673 2.85057 -2.30517 0
M  V30 9259 H 923.321 4.93564 -0.969728 0
M  V30 9260 H 923.021 5.21739 -2.703 0
M  V30 9261 H 924.545 5.78244 -1.96129 0
M  V30 9262 H 925.959 4.35514 -3.72828 0
M  V30 9263 H 924.356 4.02772 -4.44853 0
M  V30 9264 H 925.426 2.67273 -4.0459 0
M  V30 9265 N 926.769 1.22769 0.988202 0
M  V30 9266 C 927.994 1.08239 1.76915 0
M  V30 9267 C 928.419 -0.362519 1.84574 0
M  V30 9268 O 927.777 -1.26202 1.30165 0
M  V30 9269 C 927.825 1.70363 3.17819 0
M  V30 9270 O 926.929 0.960484 4.01059 0
M  V30 9271 H 926.27 0.379872 0.544604 0
M  V30 9272 H 928.8 1.62663 1.24104 0
M  V30 9273 H 928.81 1.7528 3.6843 0
M  V30 9274 H 927.485 2.75505 3.1156 0
M  V30 9275 H 926.062 0.987667 3.59582 0
M  V30 9276 N 928.247 -1.18576 1.03814 0
M  V30 9277 C 929.157 -2.25778 0.637311 0
M  V30 9278 C 930.173 -1.7074 -0.335248 0
M  V30 9279 O 931.349 -2.00494 -0.19081 0
M  V30 9280 C 928.414 -3.467 0.00386953 0
M  V30 9281 C 927.475 -4.16881 1.02511 0
M  V30 9282 C 926.708 -5.32031 0.421802 0
M  V30 9283 O 926.931 -5.65142 -0.772699 0
M  V30 9284 O 925.865 -5.90826 1.14925 0
M  V30 9285 H 929.691 -2.62323 1.53037 0
M  V30 9286 H 927.276 -1.25609 0.80887 0
M  V30 9287 H 929.158 -4.19953 -0.348873 0
M  V30 9288 H 927.833 -3.11983 -0.863047 0
M  V30 9289 H 926.74 -3.45707 1.4296 0
M  V30 9290 H 928.073 -4.55592 1.86271 0
M  V30 9291 N 929.725 -0.817259 -1.34754 0
M  V30 9292 C 930.657 -0.192695 -2.28389 0
M  V30 9293 C 931.67 0.614167 -1.50771 0
M  V30 9294 O 932.859 0.444776 -1.7287 0
M  V30 9295 C 929.959 0.748929 -3.30521 0
M  V30 9296 C 929.132 -0.0138762 -4.37398 0
M  V30 9297 C 928.191 0.847825 -5.19325 0
M  V30 9298 O 927.217 0.29487 -5.68436 0
M  V30 9299 N 928.419 2.16843 -5.38479 0
M  V30 9300 H 931.184 -0.997122 -2.82626 0
M  V30 9301 H 928.745 -0.673696 -1.47217 0
M  V30 9302 H 930.737 1.32987 -3.82226 0
M  V30 9303 H 929.307 1.45412 -2.7672 0
M  V30 9304 H 928.527 -0.776093 -3.86485 0
M  V30 9305 H 929.815 -0.539191 -5.05935 0
M  V30 9306 H 929.213 2.64148 -5.00242 0
M  V30 9307 H 927.77 2.69835 -5.93323 0
M  V30 9308 N 931.203 1.46865 -0.571711 0
M  V30 9309 C 932.431 2.06818 -0.0583975 0
M  V30 9310 C 932.846 1.42218 1.24175 0
M  V30 9311 O 932.203 0.523655 1.74826 0
M  V30 9312 C 932.254 3.61281 0.125673 0
M  V30 9313 O 931.975 4.23462 -1.123 0
M  V30 9314 C 933.476 4.38137 0.674604 0
M  V30 9315 H 930.696 0.668948 -0.052438 0
M  V30 9316 H 933.24 1.88656 -0.789251 0
M  V30 9317 H 931.395 3.78908 0.806707 0
M  V30 9318 H 931.809 5.16192 -0.929869 0
M  V30 9319 H 933.283 5.46845 0.752626 0
M  V30 9320 H 933.76 4.05419 1.68915 0
M  V30 9321 H 934.366 4.2529 0.0287979 0
M  V30 9322 N 932.681 0.308908 1.54543 0
M  V30 9323 C 933.929 -0.297447 1.99899 0
M  V30 9324 C 934.25 -1.53799 1.19878 0
M  V30 9325 O 933.52 -1.93639 0.29678 0
M  V30 9326 H 932.1 -0.112897 0.738419 0
M  V30 9327 H 934.762 0.422067 1.90275 0
M  V30 9328 H 933.858 -0.564016 3.06961 0
M  V30 9329 N 934.159 -1.57557 0.0367827 0
M  V30 9330 C 935.109 -2.07182 -0.95183 0
M  V30 9331 C 936.093 -0.973921 -1.28076 0
M  V30 9332 O 937.285 -1.23741 -1.26559 0
M  V30 9333 C 934.414 -2.60869 -2.23164 0
M  V30 9334 C 933.5 -3.77602 -1.93074 0
M  V30 9335 N 933.891 -4.87923 -1.33283 0
M  V30 9336 C 932.189 -3.86234 -2.23023 0
M  V30 9337 C 932.89 -5.69083 -1.20498 0
M  V30 9338 N 931.866 -5.16233 -1.70306 0
M  V30 9339 H 935.668 -2.89876 -0.484647 0
M  V30 9340 H 933.182 -1.61528 -0.16804 0
M  V30 9341 H 935.179 -2.94716 -2.9487 0
M  V30 9342 H 933.839 -1.79607 -2.70502 0
M  V30 9343 H 934.85 -5.08018 -1.00686 0
M  V30 9344 H 931.527 -3.15891 -2.72981 0
M  V30 9345 H 932.917 -6.6779 -0.741999 0
M  V30 9346 N 935.637 0.236453 -1.55816 0
M  V30 9347 C 936.584 1.29289 -1.91188 0
M  V30 9348 C 937.554 1.47315 -0.767301 0
M  V30 9349 O 938.739 1.61128 -1.02189 0
M  V30 9350 C 935.879 2.64126 -2.22107 0
M  V30 9351 C 934.992 2.54022 -3.49423 0
M  V30 9352 C 934.127 3.81282 -3.69861 0
M  V30 9353 C 933.166 3.65839 -4.90743 0
M  V30 9354 N 932.303 4.85014 -5.07647 0
M  V30 9355 H 937.143 0.98424 -2.81277 0
M  V30 9356 H 934.68 0.474722 -1.39229 0
M  V30 9357 H 936.638 3.42626 -2.3804 0
M  V30 9358 H 935.268 2.93118 -1.35209 0
M  V30 9359 H 934.32 1.67036 -3.41765 0
M  V30 9360 H 935.632 2.38525 -4.38072 0
M  V30 9361 H 934.786 4.68226 -3.8581 0
M  V30 9362 H 933.525 3.99688 -2.79465 0
M  V30 9363 H 932.53 2.77279 -4.74759 0
M  V30 9364 H 933.755 3.48918 -5.82609 0
M  V30 9365 H 931.701 5.03762 -4.20191 0
M  V30 9366 H 931.618 4.72188 -5.90402 0
M  V30 9367 H 932.886 5.73427 -5.28017 0
M  V30 9368 N 937.115 1.49373 0.502552 0
M  V30 9369 C 938.345 1.62252 1.27898 0
M  V30 9370 C 938.753 0.292555 1.86924 0
M  V30 9371 O 938.096 -0.731823 1.68493 0
M  V30 9372 C 938.158 2.63153 2.4493 0
M  V30 9373 C 937.822 4.07541 2.06784 0
M  V30 9374 C 938.819 4.94392 1.60849 0
M  V30 9375 C 936.504 4.53263 2.16466 0
M  V30 9376 C 938.498 6.25003 1.25098 0
M  V30 9377 C 936.185 5.83888 1.80327 0
M  V30 9378 C 937.183 6.69582 1.34718 0
M  V30 9379 O 936.871 7.97773 0.990661 0
M  V30 9380 H 936.603 0.54918 0.394179 0
M  V30 9381 H 939.157 1.96132 0.610031 0
M  V30 9382 H 937.387 2.2445 3.14895 0
M  V30 9383 H 939.076 2.65578 3.06957 0
M  V30 9384 H 939.842 4.60296 1.52816 0
M  V30 9385 H 935.721 3.86731 2.50919 0
M  V30 9386 H 939.265 6.91844 0.894269 0
M  V30 9387 H 935.162 6.17513 1.8801 0
M  V30 9388 H 935.93 8.1077 1.12227 0
M  V30 9389 N 938.594 -0.753485 1.38421 0
M  V30 9390 C 939.557 -1.84888 1.35459 0
M  V30 9391 C 940.557 -1.58764 0.255083 0
M  V30 9392 O 941.747 -1.66507 0.511978 0
M  V30 9393 C 938.879 -3.22361 1.10888 0
M  V30 9394 H 940.072 -1.88922 2.32913 0
M  V30 9395 H 937.625 -0.955199 1.23716 0
M  V30 9396 H 938.36 -3.23996 0.1404 0
M  V30 9397 H 938.145 -3.42717 1.90492 0
M  V30 9398 H 939.635 -4.02437 1.1151 0
M  V30 9399 N 940.072 -1.23292 -0.981677 0
M  V30 9400 C 941.035 -1.01417 -2.05542 0
M  V30 9401 C 942.035 0.0235354 -1.60783 0
M  V30 9402 O 943.225 -0.216082 -1.72855 0
M  V30 9403 C 940.357 -0.534239 -3.36688 0
M  V30 9404 H 941.55 -1.96702 -2.26381 0
M  V30 9405 H 939.103 -1.05318 -1.1549 0
M  V30 9406 H 939.838 0.422452 -3.21537 0
M  V30 9407 H 939.623 -1.28304 -3.70514 0
M  V30 9408 H 941.113 -0.40179 -4.15663 0
M  V30 9409 N 941.55 1.18024 -1.04442 0
M  V30 9410 C 942.796 1.88377 -0.751133 0
M  V30 9411 C 943.129 1.80377 0.719571 0
M  V30 9412 O 942.404 1.20662 1.52548 0
M  V30 9413 C 942.687 3.38708 -1.22265 0
M  V30 9414 C 942.54 3.55499 -2.75574 0
M  V30 9415 C 943.859 4.32475 -0.815688 0
M  V30 9416 H 940.978 0.684037 -0.27434 0
M  V30 9417 H 943.62 1.38837 -1.29709 0
M  V30 9418 H 941.77 3.8103 -0.758192 0
M  V30 9419 H 943.442 3.22244 -3.30086 0
M  V30 9420 H 941.685 2.98028 -3.15217 0
M  V30 9421 H 942.356 4.60994 -3.03625 0
M  V30 9422 H 944.832 3.97953 -1.21542 0
M  V30 9423 H 943.708 5.36213 -1.17331 0
M  V30 9424 H 943.969 4.41207 0.280901 0
M  V30 9425 N 943.028 0.824394 1.34319 0
M  V30 9426 C 943.991 0.252696 2.27803 0
M  V30 9427 C 944.991 -0.570254 1.50349 0
M  V30 9428 O 946.181 -0.386145 1.69866 0
M  V30 9429 C 943.313 -0.645575 3.34731 0
M  V30 9430 H 944.506 1.07742 2.79878 0
M  V30 9431 H 942.059 0.596367 1.44475 0
M  V30 9432 H 942.794 -1.4933 2.87873 0
M  V30 9433 H 942.579 -0.0569478 3.92059 0
M  V30 9434 H 944.069 -1.03933 4.0446 0
M  V30 9435 N 944.506 -1.46559 0.579492 0
M  V30 9436 C 945.416 -2.34066 -0.15816 0
M  V30 9437 C 946.432 -1.49556 -0.88932 0
M  V30 9438 O 947.608 -1.82434 -0.853226 0
M  V30 9439 C 944.673 -3.26683 -1.161 0
M  V30 9440 C 943.734 -4.27092 -0.434855 0
M  V30 9441 C 942.967 -5.15283 -1.38992 0
M  V30 9442 O 943.19 -5.06345 -2.62623 0
M  V30 9443 O 942.124 -5.95099 -0.902253 0
M  V30 9444 H 945.95 -2.98488 0.560234 0
M  V30 9445 H 943.535 -1.45482 0.339918 0
M  V30 9446 H 945.417 -3.8383 -1.73932 0
M  V30 9447 H 944.092 -2.64862 -1.86091 0
M  V30 9448 H 942.999 -3.73641 0.185224 0
M  V30 9449 H 944.332 -4.9169 0.224031 0
M  V30 9450 N 945.984 -0.3171 -1.54377 0
M  V30 9451 C 946.914 0.544623 -2.2706 0
M  V30 9452 C 947.895 1.12469 -1.27611 0
M  V30 9453 O 949.08 1.15103 -1.56413 0
M  V30 9454 C 946.21 1.70879 -3.02353 0
M  V30 9455 C 945.164 1.25833 -4.09084 0
M  V30 9456 C 944.49 2.50894 -4.72182 0
M  V30 9457 C 945.79 0.377876 -5.20931 0
M  V30 9458 H 947.484 -0.0616372 -2.99337 0
M  V30 9459 H 945.03 -0.0310848 -1.43966 0
M  V30 9460 H 946.983 2.31787 -3.51927 0
M  V30 9461 H 945.707 2.34155 -2.27682 0
M  V30 9462 H 944.366 0.672228 -3.60384 0
M  V30 9463 H 944.014 3.12518 -3.94134 0
M  V30 9464 H 943.714 2.21447 -5.44275 0
M  V30 9465 H 945.238 3.12575 -5.24528 0
M  V30 9466 H 946.652 0.893056 -5.66302 0
M  V30 9467 H 945.049 0.176474 -5.9984 0
M  V30 9468 H 946.119 -0.592943 -4.81261 0
M  V30 9469 N 947.462 1.57535 -0.0451378 0
M  V30 9470 C 948.372 2.14653 0.946646 0
M  V30 9471 C 949.388 1.10279 1.3459 0
M  V30 9472 O 950.564 1.42417 1.42405 0
M  V30 9473 C 947.629 2.67533 2.20515 0
M  V30 9474 C 946.69 3.86682 1.86481 0
M  V30 9475 C 945.923 4.37031 3.06332 0
M  V30 9476 O 946.146 3.86481 4.1951 0
M  V30 9477 O 945.08 5.28691 2.87697 0
M  V30 9478 H 948.906 2.99706 0.49091 0
M  V30 9479 H 946.491 1.48355 0.17641 0
M  V30 9480 H 948.373 3.01542 2.94365 0
M  V30 9481 H 947.048 1.85554 2.65238 0
M  V30 9482 H 945.955 3.57573 1.09966 0
M  V30 9483 H 947.288 4.69873 1.46562 0
M  V30 9484 N 948.94 -0.228186 1.55939 0
M  V30 9485 C 950.186 -0.954964 1.78909 0
M  V30 9486 C 950.519 -1.8425 0.613648 0
M  V30 9487 O 949.794 -1.90604 -0.38737 0
M  V30 9488 C 950.077 -1.79957 3.1191 0
M  V30 9489 C 949.93 -0.938968 4.3989 0
M  V30 9490 C 951.249 -2.77859 3.41295 0
M  V30 9491 H 948.368 -0.345745 0.650868 0
M  V30 9492 H 951.01 -0.224244 1.88672 0
M  V30 9493 H 949.16 -2.42256 3.03717 0
M  V30 9494 H 950.832 -0.333225 4.60095 0
M  V30 9495 H 949.075 -0.244096 4.33113 0
M  V30 9496 H 949.746 -1.56416 5.29375 0
M  V30 9497 H 952.222 -2.25695 3.49572 0
M  V30 9498 H 951.098 -3.34062 4.35538 0
M  V30 9499 H 951.359 -3.55266 2.63132 0
M  V30 9500 N 950.418 -1.49637 -0.494624 0
M  V30 9501 C 951.328 -1.69522 -1.62172 0
M  V30 9502 C 952.344 -0.577894 -1.64123 0
M  V30 9503 O 953.52 -0.853382 -1.82426 0
M  V30 9504 C 950.585 -1.7633 -2.9851 0
M  V30 9505 C 949.646 -2.99944 -3.07135 0
M  V30 9506 C 948.879 -3.06419 -4.36971 0
M  V30 9507 O 949.102 -2.20312 -5.26136 0
M  V30 9508 O 948.036 -3.9894 -4.507 0
M  V30 9509 H 951.862 -2.65017 -1.48324 0
M  V30 9510 H 949.447 -1.33454 -0.671603 0
M  V30 9511 H 951.329 -1.83125 -3.7953 0
M  V30 9512 H 950.004 -0.840155 -3.12607 0
M  V30 9513 H 948.911 -2.98664 -2.2528 0
M  V30 9514 H 950.244 -3.9176 -2.97968 0
M  V30 9515 N 951.896 0.746133 -1.38819 0
M  V30 9516 C 953.144 1.50247 -1.35167 0
M  V30 9517 C 953.465 1.94921 0.0553531 0
M  V30 9518 O 952.735 1.68187 1.00449 0
M  V30 9519 H 951.315 0.557337 -0.497377 0
M  V30 9520 H 953.977 0.886472 -1.73573 0
M  V30 9521 H 953.073 2.38986 -2.00728 0
M  V30 9522 N 953.375 1.23811 0.975125 0
M  V30 9523 C 954.307 0.981779 2.07108 0
M  V30 9524 C 955.32 -0.0461211 1.62735 0
M  V30 9525 O 956.509 0.190039 1.77486 0
M  V30 9526 C 953.609 0.458364 3.35786 0
M  V30 9527 C 952.782 1.54767 4.09104 0
M  V30 9528 C 951.841 1.0282 5.16057 0
M  V30 9529 O 950.867 1.71831 5.42644 0
M  V30 9530 N 952.069 -0.141243 5.80328 0
M  V30 9531 H 954.834 1.92537 2.29673 0
M  V30 9532 H 952.395 1.1474 1.14221 0
M  V30 9533 H 954.387 0.0957686 4.04587 0
M  V30 9534 H 952.957 -0.390768 3.10148 0
M  V30 9535 H 952.177 2.08279 3.34684 0
M  V30 9536 H 953.465 2.28006 4.54853 0
M  V30 9537 H 952.863 -0.718382 5.6112 0
M  V30 9538 H 951.42 -0.445052 6.50279 0
M  V30 9539 N 954.853 -1.17469 1.05066 0
M  V30 9540 C 956.269 -1.39699 0.771769 0
M  V30 9541 C 956.469 -1.91253 -0.634382 0
M  V30 9542 O 955.525 -2.10334 -1.39699 0
M  V30 9543 C 956.838 -2.38886 1.82631 0
M  V30 9544 C 958.386 -2.52595 1.84838 0
M  V30 9545 C 958.861 -3.55054 2.89311 0
M  V30 9546 N 960.352 -3.6257 2.88266 0
M  V30 9547 C 961.087 -4.41603 3.65752 0
M  V30 9548 N 960.583 -5.24162 4.53019 0
M  V30 9549 N 962.376 -4.36464 3.54197 0
M  V30 9550 H 954.527 -0.823355 1.95792 0
M  V30 9551 H 956.79 -0.42432 0.847736 0
M  V30 9552 H 956.496 -2.08075 2.83545 0
M  V30 9553 H 956.37 -3.38371 1.66687 0
M  V30 9554 H 958.757 -2.82717 0.845888 0
M  V30 9555 H 958.838 -1.53188 2.04859 0
M  V30 9556 H 958.482 -3.2567 3.89745 0
M  V30 9557 H 958.412 -4.54162 2.66542 0
M  V30 9558 H 960.903 -3.03625 2.24989 0
M  V30 9559 H 961.216 -5.81646 5.0883 0
M  V30 9560 H 959.561 -5.23547 4.57081 0
M  V30 9561 H 962.752 -3.7102 2.85416 0
M  V30 9562 H 962.925 -4.97814 4.14832 0
M  V30 9563 O 956.37 -0.966437 -1.29392 0
M  V30 9564 H 957.061 -0.604752 -1.84018 0
M  V30 END ATOM
M  V30 BEGIN BOND
M  V30 END BOND
M  V30 END CTAB
M  END
$$$$
