drugbank_target|Q02818 Nucleobindin-1 (DB11093; DB11348; DB14481)
 OpenBabel12092121053D

  0  0  0     0  0            999 V3000
M  V30 BEGIN CTAB
M  V30 COUNTS 7503 7571 0 0 0
M  V30 BEGIN ATOM
M  V30 1 H -0.908 1.98254 -0.117106 0
M  V30 2 N 0 1.576 0 0
M  V30 3 C 0.933 2.03868 1.02534 0
M  V30 4 C 1.911 0.928543 1.3348 0
M  V30 5 O 3.095 1.19667 1.45644 0
M  V30 6 C 0.222 2.43627 2.35294 0
M  V30 7 C -0.732 3.65373 2.2001 0
M  V30 8 S 0.101 5.13292 1.52614 0
M  V30 9 C 1.257 5.56322 2.86805 0
M  V30 10 H 1.49 2.90518 0.631377 0
M  V30 11 H -0.977 1.52953 0.210867 0
M  V30 12 H 0.981 2.67203 3.11629 0
M  V30 13 H -0.358 1.57376 2.7183 0
M  V30 14 H -1.165 3.90944 3.18086 0
M  V30 15 H -1.563 3.418 1.51819 0
M  V30 16 H 0.729 5.58782 3.83104 0
M  V30 17 H 1.672 6.56266 2.65933 0
M  V30 18 H 2.08 4.83886 2.90714 0
M  V30 19 N 1.4781 -0.272755 1.55222 0
M  V30 20 C 2.8891 -0.84378 1.66545 0
M  V30 21 C 3.2401 -1.87035 0.592641 0
M  V30 22 O 2.3651 -2.14761 -0.265818 0
M  V30 23 C 2.9601 -1.53723 3.01918 0
M  V30 24 C 1.5191 -2.05628 3.15268 0
M  V30 25 C 0.6661 -0.898424 2.62343 0
M  V30 26 H 3.6171 -0.0490998 1.58624 0
M  V30 27 H 3.6381 -2.40421 2.94921 0
M  V30 28 H 3.1501 -0.78983 3.79978 0
M  V30 29 H 1.2511 -2.83329 2.41983 0
M  V30 30 H 1.3641 -2.27142 4.21833 0
M  V30 31 H -0.2719 -1.29186 2.19506 0
M  V30 32 H 0.5111 -0.164528 3.42906 0
M  V30 33 N 2.9562 -1.48159 -0.537278 0
M  V30 34 C 4.3672 -1.49429 -1.11928 0
M  V30 35 C 4.7182 -0.26 -1.9447 0
M  V30 36 O 3.8432 0.633489 -2.0692 0
M  V30 37 C 4.4382 -2.70758 -2.03656 0
M  V30 38 C 2.9972 -2.74923 -2.57088 0
M  V30 39 C 2.1442 -2.42835 -1.3389 0
M  V30 40 H 5.0952 -1.55381 -0.322886 0
M  V30 41 H 5.1162 -2.48861 -2.87834 0
M  V30 42 H 4.6282 -3.60575 -1.43553 0
M  V30 43 H 2.7292 -1.89296 -3.20933 0
M  V30 44 H 2.8422 -3.76157 -2.9672 0
M  V30 45 H 1.2062 -1.93836 -1.65226 0
M  V30 46 H 1.9892 -3.34884 -0.755504 0
M  V30 47 N 4.4343 0.785586 -1.36625 0
M  V30 48 C 5.6593 1.57963 -1.34397 0
M  V30 49 C 6.0843 1.87964 0.071526 0
M  V30 50 O 5.4423 1.48182 1.0446 0
M  V30 51 C 5.4903 2.87511 -2.17646 0
M  V30 52 O 4.5943 3.81281 -1.57158 0
M  V30 53 H 3.9353 0.479014 -0.459828 0
M  V30 54 H 6.4653 0.973411 -1.79961 0
M  V30 55 H 6.4753 3.36745 -2.30362 0
M  V30 56 H 5.1503 2.65002 -3.20541 0
M  V30 57 H 3.7273 3.39885 -1.53403 0
M  V30 58 N 5.9124 1.20967 1.01018 0
M  V30 59 C 7.1604 1.02172 1.74371 0
M  V30 60 C 7.4814 -0.446414 1.89821 0
M  V30 61 O 6.7514 -1.32234 1.44537 0
M  V30 62 H 5.3314 0.375066 0.646014 0
M  V30 63 H 7.9934 1.52187 1.21758 0
M  V30 64 H 7.0894 1.48538 2.74487 0
M  V30 65 N 7.3905 -1.2043 1.01659 0
M  V30 66 C 8.8015 -1.71517 0.737482 0
M  V30 67 C 9.1525 -1.81547 -0.743973 0
M  V30 68 O 8.2775 -1.47803 -1.58061 0
M  V30 69 C 8.8725 -3.11515 1.33206 0
M  V30 70 C 7.4315 -3.59912 1.10183 0
M  V30 71 C 6.5785 -2.37116 1.43776 0
M  V30 72 H 9.5295 -1.05444 1.18606 0
M  V30 73 H 9.5505 -3.73575 0.722636 0
M  V30 74 H 9.0625 -3.04182 2.41028 0
M  V30 75 H 7.1635 -3.72577 0.0412756 0
M  V30 76 H 7.2765 -4.44731 1.78188 0
M  V30 77 H 5.6405 -2.39857 0.856778 0
M  V30 78 H 6.4235 -2.32424 2.52654 0
M  V30 79 N 8.8686 -0.792821 -1.36206 0
M  V30 80 C 10.2846 -0.474903 -1.52371 0
M  V30 81 C 10.4846 1.00622 -1.74578 0
M  V30 82 O 9.5406 1.79162 -1.77924 0
M  V30 83 C 10.8536 -1.3083 -2.70747 0
M  V30 84 C 12.4016 -1.30234 -2.84619 0
M  V30 85 C 12.8766 -2.11956 -4.06004 0
M  V30 86 N 14.3676 -2.09419 -4.13156 0
M  V30 87 C 15.1026 -2.69419 -5.06163 0
M  V30 88 N 14.5986 -3.3829 -6.04592 0
M  V30 89 N 16.3916 -2.59134 -4.98804 0
M  V30 90 H 8.5426 -1.75222 -1.20046 0
M  V30 91 H 10.8056 -0.745024 -0.586211 0
M  V30 92 H 10.5116 -2.35881 -2.6087 0
M  V30 93 H 10.3856 -0.95196 -3.6499 0
M  V30 94 H 12.7726 -0.259748 -2.93955 0
M  V30 95 H 12.8536 -1.69847 -1.91274 0
M  V30 96 H 12.4976 -3.16248 -3.97429 0
M  V30 97 H 12.4276 -1.69711 -4.98503 0
M  V30 98 H 14.9186 -1.59297 -3.42685 0
M  V30 99 H 15.2316 -3.81394 -6.7213 0
M  V30 100 H 13.5766 -3.42393 -6.04807 0
M  V30 101 H 16.7676 -2.04927 -4.20859 0
M  V30 102 H 16.9406 -3.06185 -5.711 0
M  V30 103 N 10.3467 1.47872 -0.545128 0
M  V30 104 C 11.5947 2.02093 -0.016553 0
M  V30 105 C 11.9157 1.42305 1.3332 0
M  V30 106 O 11.1857 0.593853 1.86682 0
M  V30 107 H 9.7657 0.746993 -0.00313038 0
M  V30 108 H 12.4277 1.81414 -0.712397 0
M  V30 109 H 11.5237 3.11996 0.0805422 0
M  V30 110 N 11.8248 0.280983 1.55075 0
M  V30 111 C 13.0528 -0.337293 2.04132 0
M  V30 112 C 13.4678 -1.4903 1.15912 0
M  V30 113 O 12.8248 -1.81606 0.180459 0
M  V30 114 C 12.8758 -0.812706 3.52246 0
M  V30 115 O 12.5968 0.294387 4.3711 0
M  V30 116 C 14.0978 -1.4982 4.17216 0
M  V30 117 H 11.3178 -0.0761638 0.666663 0
M  V30 118 H 13.8618 0.414787 2.00249 0
M  V30 119 H 12.0168 -1.51486 3.56554 0
M  V30 120 H 12.4308 -0.0721325 5.2445 0
M  V30 121 H 13.9048 -1.7822 5.22438 0
M  V30 122 H 14.3818 -2.43168 3.65741 0
M  V30 123 H 14.9878 -0.839742 4.16927 0
M  V30 124 N 13.3029 -1.57598 0.00835791 0
M  V30 125 C 14.2329 -2.1198 -0.979113 0
M  V30 126 C 15.2139 -1.03091 -1.35301 0
M  V30 127 O 16.3989 -1.30818 -1.43528 0
M  V30 128 C 13.5289 -2.62995 -2.26828 0
M  V30 129 C 12.4829 -3.76485 -2.03576 0
M  V30 130 C 11.8089 -4.13846 -3.38579 0
M  V30 131 C 13.1089 -5.0342 -1.39161 0
M  V30 132 H 14.8029 -2.94738 -0.526281 0
M  V30 133 H 12.3489 -1.41783 -0.251704 0
M  V30 134 H 14.3019 -2.99669 -2.96271 0
M  V30 135 H 13.0259 -1.7737 -2.7424 0
M  V30 136 H 11.6849 -3.40217 -1.36557 0
M  V30 137 H 11.3329 -3.25232 -3.83709 0
M  V30 138 H 11.0329 -4.90312 -3.23834 0
M  V30 139 H 12.5569 -4.53086 -4.09323 0
M  V30 140 H 13.9709 -5.37812 -1.98573 0
M  V30 141 H 12.3679 -5.84746 -1.34878 0
M  V30 142 H 13.4379 -4.83548 -0.361868 0
M  V30 143 N 14.781 0.264519 -1.55364 0
M  V30 144 C 15.711 1.33121 -1.91836 0
M  V30 145 C 16.692 1.51101 -0.781192 0
M  V30 146 O 17.877 1.64003 -1.04003 0
M  V30 147 C 15.007 2.68921 -2.19769 0
M  V30 148 C 13.961 2.65661 -3.35571 0
M  V30 149 C 13.287 4.05093 -3.49004 0
M  V30 150 C 14.587 2.24187 -4.71739 0
M  V30 151 H 16.281 1.02844 -2.81182 0
M  V30 152 H 13.827 0.493286 -1.35287 0
M  V30 153 H 15.78 3.43663 -2.43872 0
M  V30 154 H 14.504 3.00799 -1.27231 0
M  V30 155 H 13.163 1.93377 -3.1145 0
M  V30 156 H 12.811 4.34206 -2.53917 0
M  V30 157 H 12.511 4.03804 -4.26868 0
M  V30 158 H 14.035 4.81561 -3.75408 0
M  V30 159 H 15.449 2.88654 -4.9533 0
M  V30 160 H 13.846 2.34044 -5.52579 0
M  V30 161 H 14.916 1.19327 -4.69988 0
M  V30 162 N 16.2591 1.48442 0.529413 0
M  V30 163 C 17.1891 1.65902 1.64313 0
M  V30 164 C 18.1701 0.507897 1.6234 0
M  V30 165 O 19.3551 0.740503 1.79528 0
M  V30 166 C 16.4851 1.69911 3.02898 0
M  V30 167 C 15.4391 2.8453 3.19729 0
M  V30 168 C 14.7651 2.73629 4.59381 0
M  V30 169 C 16.0651 4.25821 3.02447 0
M  V30 170 H 17.7591 2.5914 1.49955 0
M  V30 171 H 15.3051 1.24709 0.719982 0
M  V30 172 H 17.2581 1.80715 3.80684 0
M  V30 173 H 15.9821 0.732524 3.18279 0
M  V30 174 H 14.6411 2.73283 2.44361 0
M  V30 175 H 14.2891 1.74938 4.71599 0
M  V30 176 H 13.9891 3.50541 4.71588 0
M  V30 177 H 15.5131 2.86401 5.39265 0
M  V30 178 H 16.9271 4.37898 3.70024 0
M  V30 179 H 15.3241 5.03735 3.26146 0
M  V30 180 H 16.3941 4.42244 1.98867 0
M  V30 181 N 17.7372 -0.778329 1.37039 0
M  V30 182 C 18.6672 -1.90546 1.34962 0
M  V30 183 C 19.6482 -1.68681 0.219274 0
M  V30 184 O 20.8332 -1.89634 0.418624 0
M  V30 185 C 17.9632 -3.27734 1.14925 0
M  V30 186 C 16.9172 -3.64147 2.24902 0
M  V30 187 C 16.2432 -4.99806 1.89996 0
M  V30 188 C 17.5432 -3.71579 3.67051 0
M  V30 189 H 19.2372 -1.92541 2.29277 0
M  V30 190 H 16.7832 -0.924948 1.10366 0
M  V30 191 H 18.7362 -4.06215 1.12104 0
M  V30 192 H 17.4602 -3.26154 0.170631 0
M  V30 193 H 16.1192 -2.8797 2.26868 0
M  V30 194 H 15.7672 -4.94759 0.906796 0
M  V30 195 H 15.4672 -5.25139 2.63634 0
M  V30 196 H 16.9912 -5.80694 1.88749 0
M  V30 197 H 18.4052 -4.40227 3.67251 0
M  V30 198 H 16.8022 -4.08405 4.39688 0
M  V30 199 H 17.8722 -2.72404 4.01154 0
M  V30 200 N 19.2153 -1.21501 -1.00376 0
M  V30 201 C 20.6263 -1.03146 -1.55621 0
M  V30 202 C 20.9773 0.408375 -1.91903 0
M  V30 203 O 20.1023 1.29177 -1.73616 0
M  V30 204 C 20.6973 -1.86612 -2.82775 0
M  V30 205 C 19.2563 -1.72586 -3.34501 0
M  V30 206 C 18.4033 -1.83747 -2.07683 0
M  V30 207 H 21.3543 -1.35505 -0.826081 0
M  V30 208 H 21.3753 -1.3771 -3.54706 0
M  V30 209 H 20.8873 -2.91399 -2.56336 0
M  V30 210 H 18.9883 -0.704877 -3.65872 0
M  V30 211 H 19.1013 -2.54623 -4.05837 0
M  V30 212 H 17.4653 -1.27069 -2.20739 0
M  V30 213 H 18.2483 -2.90044 -1.83655 0
M  V30 214 N 20.6934 1.19889 -1.02296 0
M  V30 215 C 21.6234 2.25141 -0.619174 0
M  V30 216 C 22.6044 1.66051 0.368915 0
M  V30 217 O 23.7894 1.92546 0.252941 0
M  V30 218 C 20.9194 3.4728 0.0368783 0
M  V30 219 C 19.8734 4.19005 -0.872865 0
M  V30 220 C 19.1994 5.34637 -0.0822402 0
M  V30 221 C 20.4994 4.74452 -2.18387 0
M  V30 222 H 22.1934 2.59171 -1.49903 0
M  V30 223 H 19.7394 1.24579 -0.722222 0
M  V30 224 H 21.6924 4.20098 0.330958 0
M  V30 225 H 20.4164 3.12433 0.95149 0
M  V30 226 H 19.0754 3.48061 -1.15105 0
M  V30 227 H 18.7234 4.96034 0.83422 0
M  V30 228 H 18.4234 5.83557 -0.688149 0
M  V30 229 H 19.9474 6.10255 0.205238 0
M  V30 230 H 21.3614 5.39055 -1.95172 0
M  V30 231 H 19.7584 5.33834 -2.74119 0
M  V30 232 H 20.8284 3.92844 -2.84257 0
M  V30 233 N 22.1715 0.800033 1.35784 0
M  V30 234 C 23.1015 0.220184 2.3246 0
M  V30 235 C 24.0825 -0.65073 1.57161 0
M  V30 236 O 25.2675 -0.582359 1.85263 0
M  V30 237 C 22.3975 -0.637353 3.41402 0
M  V30 238 C 21.3515 0.134531 4.27789 0
M  V30 239 C 20.6775 -0.844285 5.27992 0
M  V30 240 C 21.9775 1.32979 5.05088 0
M  V30 241 H 23.6715 1.02787 2.81203 0
M  V30 242 H 21.2175 0.495717 1.35199 0
M  V30 243 H 23.1705 -1.05302 4.08031 0
M  V30 244 H 21.8945 -1.47785 2.91251 0
M  V30 245 H 20.5535 0.531296 3.6273 0
M  V30 246 H 20.2015 -1.68011 4.74111 0
M  V30 247 H 19.9015 -0.332184 5.8666 0
M  V30 248 H 21.4255 -1.2583 5.97494 0
M  V30 249 H 22.8395 0.98934 5.64699 0
M  V30 250 H 21.2365 1.77593 5.7322 0
M  V30 251 H 22.3065 2.11978 4.36111 0
M  V30 252 N 23.6496 -1.47581 0.552962 0
M  V30 253 C 24.5796 -2.32762 -0.185451 0
M  V30 254 C 25.5606 -1.43527 -0.912905 0
M  V30 255 O 26.7456 -1.72388 -0.894201 0
M  V30 256 C 23.8756 -3.25219 -1.21859 0
M  V30 257 C 22.8296 -4.23661 -0.607864 0
M  V30 258 C 22.1556 -5.05413 -1.74533 0
M  V30 259 C 23.4556 -5.20481 0.435582 0
M  V30 260 H 25.1496 -2.94749 0.525684 0
M  V30 261 H 22.6956 -1.41738 0.254251 0
M  V30 262 H 24.6486 -3.8365 -1.7433 0
M  V30 263 H 23.3726 -2.61279 -1.95961 0
M  V30 264 H 22.0316 -3.66451 -0.104489 0
M  V30 265 H 21.6796 -4.3788 -2.47529 0
M  V30 266 H 21.3796 -5.72059 -1.34249 0
M  V30 267 H 22.9036 -5.66701 -2.27338 0
M  V30 268 H 24.3176 -5.733 -0.00290157 0
M  V30 269 H 22.7146 -5.95305 0.757067 0
M  V30 270 H 23.7846 -4.66217 1.33303 0
M  V30 271 N 25.1277 -0.289203 -1.54924 0
M  V30 272 C 26.0577 0.58549 -2.2604 0
M  V30 273 C 27.0387 1.14753 -1.25562 0
M  V30 274 O 28.2237 1.17906 -1.54311 0
M  V30 275 C 25.3537 1.76305 -2.99222 0
M  V30 276 C 24.3077 1.33191 -4.06748 0
M  V30 277 C 23.6337 2.5937 -4.6758 0
M  V30 278 C 24.9337 0.471775 -5.20165 0
M  V30 279 H 26.6277 -0.00763532 -2.99399 0
M  V30 280 H 24.1737 -0.00511229 -1.43999 0
M  V30 281 H 26.1267 2.38097 -3.47689 0
M  V30 282 H 24.8507 2.38223 -2.23422 0
M  V30 283 H 23.5097 0.737121 -3.59113 0
M  V30 284 H 23.1577 3.19576 -3.88433 0
M  V30 285 H 22.8577 2.31228 -5.40192 0
M  V30 286 H 24.3817 3.21985 -5.18804 0
M  V30 287 H 25.7957 0.995056 -5.64599 0
M  V30 288 H 24.1927 0.284639 -5.99425 0
M  V30 289 H 25.2627 -0.506041 -4.82252 0
M  V30 290 N 26.6058 1.57591 -0.0167156 0
M  V30 291 C 27.5358 2.12496 0.967858 0
M  V30 292 C 28.5168 1.03807 1.34752 0
M  V30 293 O 29.7018 1.31577 1.42833 0
M  V30 294 C 26.8318 2.64194 2.25431 0
M  V30 295 C 25.7858 3.77559 2.01576 0
M  V30 296 C 25.1118 4.15636 3.36379 0
M  V30 297 C 26.4118 5.04151 1.36489 0
M  V30 298 H 28.1058 2.95013 0.510643 0
M  V30 299 H 25.6518 1.41915 0.244181 0
M  V30 300 H 27.6048 3.01236 2.94678 0
M  V30 301 H 26.3288 1.78821 2.73296 0
M  V30 302 H 24.9878 3.40937 1.34751 0
M  V30 303 H 24.6358 3.27263 3.81979 0
M  V30 304 H 24.3358 4.92022 3.21229 0
M  V30 305 H 25.8598 4.5525 4.06915 0
M  V30 306 H 27.2738 5.38857 1.95718 0
M  V30 307 H 25.6708 5.85453 1.31776 0
M  V30 308 H 26.7408 4.83733 0.336219 0
M  V30 309 N 28.0839 -0.256276 1.55502 0
M  V30 310 C 29.0139 -1.32102 1.92539 0
M  V30 311 C 29.9949 -1.50684 0.789194 0
M  V30 312 O 31.1799 -1.63449 1.04872 0
M  V30 313 C 28.3099 -2.67752 2.21192 0
M  V30 314 C 27.2639 -2.63878 3.36975 0
M  V30 315 C 26.5899 -4.03236 3.51147 0
M  V30 316 C 27.8899 -2.21682 4.72921 0
M  V30 317 H 29.5839 -1.01351 2.81724 0
M  V30 318 H 27.1299 -0.486105 1.35547 0
M  V30 319 H 29.0829 -3.42365 2.45691 0
M  V30 320 H 27.8069 -3.0012 1.28824 0
M  V30 321 H 26.4659 -1.91722 3.12471 0
M  V30 322 H 26.1139 -4.32854 2.56216 0
M  V30 323 H 25.8139 -4.01535 4.29003 0
M  V30 324 H 27.3379 -4.79563 3.77957 0
M  V30 325 H 28.7519 -2.86023 4.96854 0
M  V30 326 H 27.1489 -2.3111 5.53812 0
M  V30 327 H 28.2189 -1.16833 4.70615 0
M  V30 328 N 29.562 -1.4872 -0.521534 0
M  V30 329 C 30.492 -1.66771 -1.63431 0
M  V30 330 C 31.473 -0.516499 -1.62069 0
M  V30 331 O 32.658 -0.750013 -1.79132 0
M  V30 332 C 29.788 -1.71515 -3.01993 0
M  V30 333 C 28.742 -2.86222 -3.18216 0
M  V30 334 C 28.068 -2.76061 -4.57924 0
M  V30 335 C 29.368 -4.27419 -3.00184 0
M  V30 336 H 31.062 -2.59932 -1.48579 0
M  V30 337 H 28.608 -1.25089 -0.713358 0
M  V30 338 H 30.561 -1.82731 -3.7972 0
M  V30 339 H 29.285 -0.749393 -3.17886 0
M  V30 340 H 27.944 -2.74575 -2.42908 0
M  V30 341 H 27.592 -1.77437 -4.70665 0
M  V30 342 H 27.292 -3.53037 -4.69722 0
M  V30 343 H 28.816 -2.89256 -5.37739 0
M  V30 344 H 30.23 -4.39855 -3.67697 0
M  V30 345 H 28.627 -5.05458 -3.2347 0
M  V30 346 H 29.697 -4.43293 -1.96518 0
M  V30 347 N 31.0401 0.771051 -1.3745 0
M  V30 348 C 32.4561 1.07171 -1.18265 0
M  V30 349 C 32.6561 2.01491 -0.019287 0
M  V30 350 O 31.7121 2.44244 0.640408 0
M  V30 351 C 33.0251 1.66854 -2.50161 0
M  V30 352 C 34.5731 1.79109 -2.56689 0
M  V30 353 C 35.0481 2.42205 -3.88717 0
M  V30 354 N 36.5391 2.49655 -3.90162 0
M  V30 355 C 37.2741 2.9933 -4.8907 0
M  V30 356 N 36.7701 3.49172 -5.98374 0
M  V30 357 N 38.5631 2.9821 -4.76474 0
M  V30 358 H 30.7141 0.144796 -2.11906 0
M  V30 359 H 32.9771 0.126863 -0.939473 0
M  V30 360 H 32.6831 1.05017 -3.35655 0
M  V30 361 H 32.5571 2.6614 -2.673 0
M  V30 362 H 34.9441 2.40077 -1.71601 0
M  V30 363 H 35.0251 0.785757 -2.43433 0
M  V30 364 H 34.6691 1.81875 -4.74219 0
M  V30 365 H 34.5991 3.43345 -3.99276 0
M  V30 366 H 37.0901 2.14383 -3.11205 0
M  V30 367 H 37.4031 3.8548 -6.69795 0
M  V30 368 H 35.7481 3.47275 -6.02018 0
M  V30 369 H 38.9391 2.58572 -3.90203 0
M  V30 370 H 39.1121 3.36613 -5.53711 0
M  V30 371 N 32.5182 1.22032 0.997298 0
M  V30 372 C 33.4812 0.987909 2.06816 0
M  V30 373 C 34.4812 -0.0440084 1.6074 0
M  V30 374 O 35.6712 0.194053 1.73116 0
M  V30 375 C 32.8032 0.49132 3.37341 0
M  V30 376 H 33.9962 1.93803 2.28868 0
M  V30 377 H 31.5492 1.03838 1.16822 0
M  V30 378 H 32.2842 -0.463364 3.20973 0
M  V30 379 H 32.0692 1.23575 3.72118 0
M  V30 380 H 33.5592 0.348824 4.16141 0
M  V30 381 N 33.9963 -1.19345 1.0293 0
M  V30 382 C 35.2423 -1.89318 0.727083 0
M  V30 383 C 35.5753 -1.79446 -0.742483 0
M  V30 384 O 34.8503 -1.1871 -1.54072 0
M  V30 385 C 35.1333 -3.40238 1.17942 0
M  V30 386 C 34.9863 -3.58979 2.71024 0
M  V30 387 C 36.3053 -4.33479 0.760548 0
M  V30 388 H 33.4243 -0.687475 0.265606 0
M  V30 389 H 36.0663 -1.40477 1.2793 0
M  V30 390 H 34.2163 -3.81964 0.709608 0
M  V30 391 H 35.8883 -3.26421 3.25955 0
M  V30 392 H 34.1313 -3.02018 3.11396 0
M  V30 393 H 34.8023 -4.64823 2.9773 0
M  V30 394 H 37.2783 -3.99469 1.16464 0
M  V30 395 H 36.1543 -5.37664 1.10493 0
M  V30 396 H 36.4153 -4.40813 -0.337063 0
M  V30 397 N 35.4744 -0.807222 -1.35358 0
M  V30 398 C 36.4044 -0.232509 -2.3234 0
M  V30 399 C 37.3854 0.642386 -1.57504 0
M  V30 400 O 38.5704 0.572526 -1.85569 0
M  V30 401 C 35.7004 0.619238 -3.41735 0
M  V30 402 C 34.6544 -0.157215 -4.27711 0
M  V30 403 C 33.9804 0.816273 -5.28433 0
M  V30 404 C 35.2804 -1.35656 -5.04376 0
M  V30 405 H 36.9744 -1.04276 -2.80654 0
M  V30 406 H 34.5204 -0.50288 -1.34934 0
M  V30 407 H 36.4734 1.03137 -4.08584 0
M  V30 408 H 35.1974 1.46239 -2.92031 0
M  V30 409 H 33.8564 -0.550525 -3.62443 0
M  V30 410 H 33.5044 1.65494 -4.74996 0
M  V30 411 H 33.2044 0.301067 -5.86828 0
M  V30 412 H 34.7284 1.22659 -5.98153 0
M  V30 413 H 36.1424 -1.01927 -5.64166 0
M  V30 414 H 34.5394 -1.8063 -5.7227 0
M  V30 415 H 35.6094 -2.14288 -4.34981 0
M  V30 416 N 36.9525 1.47285 -0.560781 0
M  V30 417 C 37.9155 2.28535 0.174488 0
M  V30 418 C 38.9155 1.37153 0.839388 0
M  V30 419 O 40.1055 1.59748 0.694702 0
M  V30 420 C 37.2375 3.16934 1.25561 0
M  V30 421 H 38.4305 2.95012 -0.539262 0
M  V30 422 H 35.9835 1.53034 -0.317865 0
M  V30 423 H 36.7185 2.55157 2.00164 0
M  V30 424 H 36.5035 3.8419 0.783604 0
M  V30 425 H 37.9935 3.78143 1.77193 0
M  V30 426 N 38.4306 0.297415 1.54768 0
M  V30 427 C 39.6766 -0.313376 2.00364 0
M  V30 428 C 40.0096 -1.53815 1.18553 0
M  V30 429 O 39.2846 -1.92739 0.261103 0
M  V30 430 C 39.5676 -0.673525 3.53745 0
M  V30 431 C 39.4206 0.560133 4.46299 0
M  V30 432 C 40.7396 -1.50143 4.13697 0
M  V30 433 H 37.8586 -0.112428 0.728374 0
M  V30 434 H 40.5006 0.4088 1.8555 0
M  V30 435 H 38.6506 -1.28881 3.665 0
M  V30 436 H 40.3226 1.19863 4.45455 0
M  V30 437 H 38.5656 1.19405 4.17043 0
M  V30 438 H 39.2366 0.26405 5.51368 0
M  V30 439 H 41.7126 -0.981588 4.04356 0
M  V30 440 H 40.5886 -1.72221 5.21182 0
M  V30 441 H 40.8496 -2.48952 3.65343 0
M  V30 442 N 39.9087 -1.5758 0.0250728 0
M  V30 443 C 41.3197 -1.79476 -0.514323 0
M  V30 444 C 41.6707 -0.934956 -1.72491 0
M  V30 445 O 40.7957 -0.144245 -2.15919 0
M  V30 446 C 41.3907 -3.25503 -0.939842 0
M  V30 447 C 39.9497 -3.48408 -1.42438 0
M  V30 448 C 39.0967 -2.74583 -0.387201 0
M  V30 449 H 42.0477 -1.567 0.25113 0
M  V30 450 H 42.0687 -3.34992 -1.80445 0
M  V30 451 H 41.5807 -3.88056 -0.0585628 0
M  V30 452 H 39.6817 -2.91103 -2.32572 0
M  V30 453 H 39.7947 -4.57119 -1.43455 0
M  V30 454 H 38.1587 -2.39942 -0.854409 0
M  V30 455 H 38.9417 -3.39849 0.485543 0
M  V30 456 N 41.3868 0.248026 -1.55636 0
M  V30 457 C 42.3168 1.31079 -1.93237 0
M  V30 458 C 43.2978 1.50264 -0.797174 0
M  V30 459 O 44.4828 1.62891 -1.05737 0
M  V30 460 C 41.6128 2.66575 -2.22609 0
M  V30 461 C 40.5668 2.62087 -3.3837 0
M  V30 462 C 39.8928 4.01369 -3.53281 0
M  V30 463 C 41.1928 2.19171 -4.7409 0
M  V30 464 H 42.8868 0.998556 -2.82257 0
M  V30 465 H 40.4328 0.47891 -1.35803 0
M  V30 466 H 42.3858 3.41057 -2.47503 0
M  V30 467 H 41.1098 2.99432 -1.30414 0
M  V30 468 H 39.7688 1.90063 -3.13483 0
M  V30 469 H 39.4168 4.31489 -2.58508 0
M  V30 470 H 39.1168 3.99254 -4.31127 0
M  V30 471 H 40.6408 4.77552 -3.80495 0
M  V30 472 H 42.0548 2.83384 -4.98363 0
M  V30 473 H 40.4518 2.2817 -5.5503 0
M  V30 474 H 41.5218 1.14336 -4.71227 0
M  V30 475 N 42.8649 1.48995 0.513639 0
M  V30 476 C 43.7749 1.67443 1.64317 0
M  V30 477 C 44.7909 0.556947 1.64846 0
M  V30 478 O 45.9669 0.830082 1.83498 0
M  V30 479 C 43.0319 1.72515 3.00732 0
M  V30 480 C 42.0929 2.96009 3.1093 0
M  V30 481 C 41.3259 3.00829 4.40837 0
M  V30 482 O 41.5489 2.13594 5.28898 0
M  V30 483 O 40.4829 3.93168 4.55744 0
M  V30 484 H 44.3089 2.63106 1.51687 0
M  V30 485 H 41.8939 1.32588 0.688543 0
M  V30 486 H 43.7759 1.78277 3.81831 0
M  V30 487 H 42.4509 0.800278 3.13651 0
M  V30 488 H 41.3579 2.9577 2.29065 0
M  V30 489 H 42.6909 3.87934 3.02933 0
M  V30 490 N 44.343 -0.763751 1.37857 0
M  V30 491 C 45.759 -1.06542 1.18832 0
M  V30 492 C 45.959 -2.01478 0.0299722 0
M  V30 493 O 45.015 -2.4458 -0.627447 0
M  V30 494 C 46.328 -1.65525 2.51042 0
M  V30 495 C 47.876 -1.77745 2.57635 0
M  V30 496 C 48.351 -2.4014 3.89996 0
M  V30 497 N 49.842 -2.47582 3.91481 0
M  V30 498 C 50.577 -2.96732 4.9065 0
M  V30 499 N 50.073 -3.45993 6.00217 0
M  V30 500 N 51.866 -2.95679 4.78048 0
M  V30 501 H 44.017 -0.133556 2.1198 0
M  V30 502 H 46.28 -0.121879 0.940133 0
M  V30 503 H 45.986 -1.03236 3.36207 0
M  V30 504 H 45.86 -2.64719 2.68707 0
M  V30 505 H 48.247 -2.39164 1.72872 0
M  V30 506 H 48.328 -0.772836 2.43846 0
M  V30 507 H 47.972 -1.79358 4.75177 0
M  V30 508 H 47.902 -3.41223 4.01092 0
M  V30 509 H 50.393 -2.1273 3.12337 0
M  V30 510 H 50.706 -3.81922 6.7183 0
M  V30 511 H 49.051 -3.44077 6.03851 0
M  V30 512 H 52.242 -2.56499 3.91568 0
M  V30 513 H 52.415 -3.33672 5.55488 0
M  V30 514 N 45.8211 -1.22559 -0.990812 0
M  V30 515 C 47.0691 -1.04933 -1.72724 0
M  V30 516 C 47.3901 0.416158 -1.90508 0
M  V30 517 O 46.6601 1.29918 -1.46622 0
M  V30 518 H 45.2401 -0.385296 -0.639965 0
M  V30 519 H 47.9021 -1.54105 -1.19322 0
M  V30 520 H 46.9981 -1.52886 -2.72089 0
M  V30 521 N 47.2992 1.18797 -1.03562 0
M  V30 522 C 48.2622 2.20464 -0.626769 0
M  V30 523 C 49.2622 1.57721 0.313173 0
M  V30 524 O 50.4522 1.73917 0.0992615 0
M  V30 525 C 47.5842 3.40802 0.0818498 0
M  V30 526 H 48.7772 2.58149 -1.5264 0
M  V30 527 H 46.3302 1.32593 -0.827578 0
M  V30 528 H 47.0652 3.08642 0.995518 0
M  V30 529 H 46.8502 3.8758 -0.593652 0
M  V30 530 H 48.3402 4.16092 0.354584 0
M  V30 531 N 48.7773 0.814389 1.34928 0
M  V30 532 C 50.1883 0.458364 1.80986 0
M  V30 533 C 50.5393 -1.02042 1.67577 0
M  V30 534 O 49.6643 -1.79352 1.21086 0
M  V30 535 C 50.2593 0.825212 3.28597 0
M  V30 536 C 48.8183 0.521677 3.72767 0
M  V30 537 C 47.9653 1.04668 2.56788 0
M  V30 538 H 50.9163 1.00533 1.22795 0
M  V30 539 H 50.9373 0.12571 3.80292 0
M  V30 540 H 50.4493 1.90154 3.38324 0
M  V30 541 H 48.5503 -0.545589 3.68584 0
M  V30 542 H 48.6633 1.05977 4.67232 0
M  V30 543 H 47.0273 0.468622 2.50352 0
M  V30 544 H 47.8103 2.12927 2.6929 0
M  V30 545 N 50.2554 -1.46986 0.568584 0
M  V30 546 C 51.2034 -2.31858 -0.185649 0
M  V30 547 C 52.1974 -1.43624 -0.898249 0
M  V30 548 O 53.4034 -1.60327 -0.818242 0
M  V30 549 H 49.7784 -0.747866 -0.0787399 0
M  V30 550 H 51.7494 -2.93303 0.549191 0
M  V30 551 C 50.4984 -3.26513 -1.19519 0
M  V30 552 H 49.8214 -3.94377 -0.656285 0
M  V30 553 H 51.2614 -3.88707 -1.6936 0
M  V30 554 C 49.7204 -2.50847 -2.24894 0
M  V30 555 O 50.2504 -2.26119 -3.32014 0
M  V30 556 N 48.4564 -2.11656 -1.99124 0
M  V30 557 H 48.0034 -2.31966 -1.12024 0
M  V30 558 H 47.9614 -1.61347 -2.69842 0
M  V30 559 N 51.7335 -0.305618 -1.54608 0
M  V30 560 C 52.6805 0.568421 -2.23691 0
M  V30 561 C 53.6505 1.12592 -1.22116 0
M  V30 562 O 54.8355 1.16959 -1.50749 0
M  V30 563 C 51.9755 1.7322 -2.98477 0
M  V30 564 C 51.0885 1.20566 -4.14835 0
M  V30 565 C 50.2235 2.33368 -4.77193 0
M  V30 566 C 49.2625 1.7787 -5.85686 0
M  V30 567 N 48.3995 2.84263 -6.4198 0
M  V30 568 H 53.2395 -0.0272867 -2.97988 0
M  V30 569 H 50.7765 -0.0252363 -1.47078 0
M  V30 570 H 52.7345 2.41675 -3.40072 0
M  V30 571 H 51.3645 2.29947 -2.26548 0
M  V30 572 H 50.4165 0.413223 -3.78149 0
M  V30 573 H 51.7285 0.759417 -4.92985 0
M  V30 574 H 50.8825 3.09761 -5.21664 0
M  V30 575 H 49.6215 2.8132 -3.98385 0
M  V30 576 H 48.6265 0.99968 -5.40635 0
M  V30 577 H 49.8515 1.30816 -6.66381 0
M  V30 578 H 47.7975 3.31541 -5.66053 0
M  V30 579 H 47.7145 2.44149 -7.15491 0
M  V30 580 H 48.9825 3.6054 -6.91109 0
M  V30 581 N 53.2116 1.57565 -0.0334293 0
M  V30 582 C 54.1216 2.13943 0.962572 0
M  V30 583 C 55.1376 1.09276 1.35406 0
M  V30 584 O 56.3136 1.41355 1.4346 0
M  V30 585 C 53.3786 2.65887 2.22497 0
M  V30 586 C 52.4396 3.85286 1.8935 0
M  V30 587 C 51.6726 4.34743 3.09571 0
M  V30 588 O 51.8956 3.83352 4.22371 0
M  V30 589 O 50.8296 5.26538 2.91618 0
M  V30 590 H 54.6556 2.99333 0.513169 0
M  V30 591 H 52.2406 1.4822 0.18743 0
M  V30 592 H 54.1226 2.99346 2.96598 0
M  V30 593 H 52.7976 1.83578 2.6661 0
M  V30 594 H 51.7046 3.56746 1.1262 0
M  V30 595 H 53.0376 4.68771 1.5005 0
M  V30 596 N 54.6897 -0.239769 1.55765 0
M  V30 597 C 55.5997 -1.31831 1.94056 0
M  V30 598 C 56.6157 -1.52275 0.841925 0
M  V30 599 O 57.7917 -1.65759 1.14394 0
M  V30 600 C 54.8567 -2.65156 2.23368 0
M  V30 601 C 53.9177 -2.53173 3.46701 0
M  V30 602 C 53.1507 -3.8014 3.74606 0
M  V30 603 O 53.3737 -4.82343 3.04469 0
M  V30 604 O 52.3077 -3.78344 4.68123 0
M  V30 605 H 56.1337 -1.02347 2.85935 0
M  V30 606 H 53.7187 -0.441123 1.42739 0
M  V30 607 H 55.6007 -3.43929 2.43497 0
M  V30 608 H 54.2757 -2.94358 1.34666 0
M  V30 609 H 53.1827 -1.72662 3.31871 0
M  V30 610 H 54.5157 -2.28915 4.35728 0
M  V30 611 N 56.1678 -1.49265 -0.50573 0
M  V30 612 C 57.3958 -1.62215 -1.28429 0
M  V30 613 C 57.8108 -0.291697 -1.86533 0
M  V30 614 O 57.1678 0.722233 -1.67601 0
M  V30 615 C 57.2188 -2.68735 -2.41793 0
M  V30 616 O 56.9398 -3.96619 -1.86078 0
M  V30 617 C 58.4408 -2.92346 -3.3324 0
M  V30 618 H 55.6608 -0.546239 -0.389697 0
M  V30 619 H 58.2048 -1.95265 -0.607609 0
M  V30 620 H 56.3598 -2.38476 -3.053 0
M  V30 621 H 56.7738 -4.55256 -2.60465 0
M  V30 622 H 58.2478 -3.70623 -4.09075 0
M  V30 623 H 58.7248 -2.02081 -3.89948 0
M  V30 624 H 59.3308 -3.24003 -2.75503 0
M  V30 625 N 57.6459 0.756429 -1.3826 0
M  V30 626 C 59.0569 1.33359 -1.30661 0
M  V30 627 C 59.4079 1.96161 0.0388875 0
M  V30 628 O 58.5329 1.94874 0.940918 0
M  V30 629 C 59.1279 2.42477 -2.36622 0
M  V30 630 C 57.6869 2.95922 -2.3261 0
M  V30 631 C 56.8339 1.69275 -2.19639 0
M  V30 632 H 59.7849 0.55552 -1.4866 0
M  V30 633 H 59.8059 3.22345 -2.02174 0
M  V30 634 H 59.3179 1.96739 -3.34538 0
M  V30 635 H 57.4189 3.45996 -1.38267 0
M  V30 636 H 57.5319 3.50494 -3.26636 0
M  V30 637 H 55.8959 1.92793 -1.66442 0
M  V30 638 H 56.6789 1.25619 -3.19491 0
M  V30 639 N 59.124 1.23083 0.984299 0
M  V30 640 C 60.087 1.00979 2.05757 0
M  V30 641 C 61.087 -0.0269573 1.60777 0
M  V30 642 O 62.277 0.212403 1.729 0
M  V30 643 C 59.409 0.527072 3.36801 0
M  V30 644 H 60.602 1.9622 2.26799 0
M  V30 645 H 58.155 1.05072 1.15714 0
M  V30 646 H 58.89 -0.429294 3.21446 0
M  V30 647 H 58.675 1.27515 3.70786 0
M  V30 648 H 60.165 0.392942 4.15747 0
M  V30 649 N 60.6021 -1.18246 1.0419 0
M  V30 650 C 61.8301 -1.92195 0.766072 0
M  V30 651 C 62.2451 -1.76247 -0.676933 0
M  V30 652 O 61.6021 -1.09293 -1.46155 0
M  V30 653 C 61.6531 -3.43568 1.12442 0
M  V30 654 O 61.3741 -3.59015 2.51078 0
M  V30 655 C 62.8751 -4.34613 0.873275 0
M  V30 656 H 60.0951 -0.610114 0.279288 0
M  V30 657 H 62.6391 -1.50007 1.38989 0
M  V30 658 H 60.7941 -3.8354 0.545542 0
M  V30 659 H 61.2081 -4.5273 2.64831 0
M  V30 660 H 62.6821 -5.39374 1.17385 0
M  V30 661 H 63.1591 -4.38781 -0.191909 0
M  V30 662 H 63.7651 -4.00341 1.43551 0
M  V30 663 N 62.0802 -0.821533 -1.34494 0
M  V30 664 C 62.9902 -0.244355 -2.33324 0
M  V30 665 C 64.0062 0.620527 -1.62559 0
M  V30 666 O 65.1822 0.528754 -1.94335 0
M  V30 667 C 62.2472 0.585368 -3.41723 0
M  V30 668 C 61.3082 -0.301752 -4.28238 0
M  V30 669 C 60.5412 0.488466 -5.3146 0
M  V30 670 O 60.7642 1.72186 -5.4379 0
M  V30 671 O 59.6982 -0.12848 -6.01763 0
M  V30 672 H 63.5242 -1.06231 -2.84515 0
M  V30 673 H 61.1092 -0.583645 -1.37528 0
M  V30 674 H 62.9912 1.05747 -4.07916 0
M  V30 675 H 61.6662 1.38068 -2.92778 0
M  V30 676 H 60.5732 -0.821315 -3.64973 0
M  V30 677 H 61.9062 -1.06138 -4.8062 0
M  V30 678 N 63.5583 1.46682 -0.576371 0
M  V30 679 C 64.7833 2.07304 -0.0630475 0
M  V30 680 C 65.2083 1.42329 1.2298 0
M  V30 681 O 64.5663 0.504865 1.74129 0
M  V30 682 C 64.6143 3.60472 0.095895 0
M  V30 683 O 63.7183 3.95927 1.15394 0
M  V30 684 H 63.0593 0.661288 -0.0599463 0
M  V30 685 H 65.5893 1.88417 -0.797511 0
M  V30 686 H 65.5993 4.06865 0.304071 0
M  V30 687 H 64.2743 4.07157 -0.84828 0
M  V30 688 H 62.8513 3.61252 0.924724 0
M  V30 689 N 65.0364 0.313813 1.54444 0
M  V30 690 C 66.4474 -0.176243 1.85866 0
M  V30 691 C 66.7984 -1.52405 1.23561 0
M  V30 692 O 65.9234 -2.09605 0.538016 0
M  V30 693 C 66.5184 -0.32657 3.37222 0
M  V30 694 C 65.0774 -0.760846 3.6863 0
M  V30 695 C 64.2244 0.123247 2.77026 0
M  V30 696 H 67.1754 0.534418 1.49431 0
M  V30 697 H 67.1964 -1.15908 3.62416 0
M  V30 698 H 66.7084 0.654531 3.82541 0
M  V30 699 H 64.8094 -1.75204 3.28838 0
M  V30 700 H 64.9224 -0.571353 4.75681 0
M  V30 701 H 63.2864 -0.399597 2.51546 0
M  V30 702 H 64.0694 1.10094 3.25168 0
M  V30 703 N 66.5145 -1.57545 0.0417849 0
M  V30 704 C 67.7915 -1.83642 -0.673433 0
M  V30 705 C 68.1715 -0.928298 -1.89594 0
M  V30 706 O 67.5195 0.0129955 -2.28496 0
M  V30 707 C 67.7295 -3.33155 -1.03964 0
M  V30 708 C 69.0775 -3.99941 -1.42592 0
M  V30 709 O 70.1015 -3.37725 -1.13226 0
M  V30 710 O 68.9605 -5.09619 -1.9736 0
M  V30 711 H 66.0545 -0.757638 -0.331533 0
M  V30 712 H 68.6005 -1.69554 0.070433 0
M  V30 713 H 67.3725 -3.9093 -0.170098 0
M  V30 714 H 66.9955 -3.52396 -1.84126 0
M  V30 715 N 67.9926 0.231505 -1.5589 0
M  V30 716 C 69.2206 0.974505 -1.82513 0
M  V30 717 C 69.6356 1.78344 -0.619591 0
M  V30 718 O 68.9926 1.77792 0.411848 0
M  V30 719 C 69.0436 1.90007 -3.07538 0
M  V30 720 O 68.7646 1.12385 -4.2344 0
M  V30 721 C 70.2656 2.75779 -3.47075 0
M  V30 722 H 67.4856 0.286065 -0.606966 0
M  V30 723 H 70.0296 0.249739 -2.02969 0
M  V30 724 H 68.1846 2.57891 -2.89086 0
M  V30 725 H 68.5986 1.75125 -4.944 0
M  V30 726 H 70.0726 3.36443 -4.37619 0
M  V30 727 H 70.5496 3.47672 -2.68367 0
M  V30 728 H 71.1556 2.13323 -3.67931 0
M  V30 729 N 69.4707 1.49531 0.497807 0
M  V30 730 C 70.7187 1.58865 1.24926 0
M  V30 731 C 71.0397 0.278721 1.92998 0
M  V30 732 O 70.3097 -0.702144 1.82885 0
M  V30 733 H 68.8897 0.585343 0.464094 0
M  V30 734 H 71.5517 1.86174 0.57666 0
M  V30 735 H 70.6477 2.38633 2.01149 0
M  V30 736 N 70.9488 -0.749086 1.3866 0
M  V30 737 C 71.8788 -1.8764 1.38973 0
M  V30 738 C 72.8598 -1.68178 0.255004 0
M  V30 739 O 74.0448 -1.88704 0.458754 0
M  V30 740 C 71.1748 -3.25222 1.21851 0
M  V30 741 C 70.1288 -3.59295 2.32575 0
M  V30 742 C 69.4548 -4.95663 2.00555 0
M  V30 743 C 70.7548 -3.63709 3.7485 0
M  V30 744 H 72.4488 -1.87635 2.3331 0
M  V30 745 H 69.9948 -0.901329 1.12303 0
M  V30 746 H 71.9478 -4.03746 1.20695 0
M  V30 747 H 70.6718 -3.25719 0.239775 0
M  V30 748 H 69.3308 -2.83093 2.32925 0
M  V30 749 H 68.9788 -4.92724 1.01154 0
M  V30 750 H 68.6788 -5.19429 2.74714 0
M  V30 751 H 70.2028 -5.7656 2.01024 0
M  V30 752 H 71.6168 -4.32338 3.76506 0
M  V30 753 H 70.0138 -3.98986 4.48252 0
M  V30 754 H 71.0838 -2.63834 4.06841 0
M  V30 755 N 72.4269 -1.23603 -0.977757 0
M  V30 756 C 73.6569 -1.09487 -1.75203 0
M  V30 757 C 74.0649 0.356321 -1.85814 0
M  V30 758 O 73.4079 1.25816 -1.33851 0
M  V30 759 C 73.4699 -1.64905 -3.19447 0
M  V30 760 C 73.1339 -3.13688 -3.32338 0
M  V30 761 C 74.1309 -4.10953 -3.18455 0
M  V30 762 C 71.8159 -3.53449 -3.56902 0
M  V30 763 C 73.8099 -5.45962 -3.28944 0
M  V30 764 C 71.4969 -4.88602 -3.6703 0
M  V30 765 C 72.4949 -5.84668 -3.53062 0
M  V30 766 O 72.1829 -7.17365 -3.62826 0
M  V30 767 H 71.9149 -0.38367 -0.556573 0
M  V30 768 H 74.4689 -1.6398 -1.23693 0
M  V30 769 H 72.6989 -1.04835 -3.72218 0
M  V30 770 H 74.3879 -1.46226 -3.78646 0
M  V30 771 H 75.1539 -3.81577 -2.99372 0
M  V30 772 H 71.0329 -2.79188 -3.66844 0
M  V30 773 H 74.5769 -6.20925 -3.17958 0
M  V30 774 H 70.4739 -5.17653 -3.85623 0
M  V30 775 H 71.2419 -7.2515 -3.79605 0
M  V30 776 N 73.905 1.17692 -1.04816 0
M  V30 777 C 75.135 1.91508 -0.775128 0
M  V30 778 C 75.543 1.76844 0.67253 0
M  V30 779 O 74.886 1.10057 1.47082 0
M  V30 780 C 74.948 3.43167 -1.0713 0
M  V30 781 C 74.612 3.81612 -2.51438 0
M  V30 782 C 75.609 3.84772 -3.49638 0
M  V30 783 C 73.294 4.12687 -2.86348 0
M  V30 784 C 75.288 4.18469 -4.80794 0
M  V30 785 C 72.975 4.46053 -4.17708 0
M  V30 786 C 73.973 4.48921 -5.14741 0
M  V30 787 O 73.661 4.81504 -6.43746 0
M  V30 788 H 73.393 0.614575 -0.281555 0
M  V30 789 H 75.947 1.50206 -1.40098 0
M  V30 790 H 74.177 3.84745 -0.388342 0
M  V30 791 H 75.866 3.98239 -0.784883 0
M  V30 792 H 76.632 3.60893 -3.24008 0
M  V30 793 H 72.511 4.09627 -2.11486 0
M  V30 794 H 76.055 4.20623 -5.56527 0
M  V30 795 H 71.952 4.69393 -4.43103 0
M  V30 796 H 72.72 4.99377 -6.4851 0
M  V30 797 N 75.3831 0.828654 1.34056 0
M  V30 798 C 76.3331 0.226828 2.26869 0
M  V30 799 C 77.3171 -0.612243 1.48796 0
M  V30 800 O 78.5091 -0.465884 1.70759 0
M  V30 801 C 75.6381 -0.605654 3.37915 0
M  V30 802 C 74.7241 0.244361 4.23395 0
M  V30 803 N 75.1151 1.31815 4.88322 0
M  V30 804 C 73.4131 0.0296616 4.4599 0
M  V30 805 C 74.1141 1.83895 5.51867 0
M  V30 806 N 73.0901 1.14196 5.3147 0
M  V30 807 H 76.8921 1.04811 2.74576 0
M  V30 808 H 74.4061 0.67205 1.47842 0
M  V30 809 H 76.4031 -1.05302 4.03382 0
M  V30 810 H 75.0631 -1.42504 2.91758 0
M  V30 811 H 76.0741 1.70099 4.8917 0
M  V30 812 H 72.7511 -0.757097 4.10578 0
M  V30 813 H 74.1411 2.7376 6.136 0
M  V30 814 N 76.8612 -1.46375 0.584142 0
M  V30 815 C 78.2772 -1.57694 0.245929 0
M  V30 816 C 78.4772 -1.57903 -1.25175 0
M  V30 817 O 77.5332 -1.49676 -2.03355 0
M  V30 818 C 78.8462 -2.87028 0.896402 0
M  V30 819 C 80.3942 -3.00662 0.870127 0
M  V30 820 C 80.8692 -4.32734 1.50017 0
M  V30 821 N 82.3602 -4.39436 1.46458 0
M  V30 822 C 83.0952 -5.40248 1.92144 0
M  V30 823 N 82.5912 -6.47726 2.4581 0
M  V30 824 N 84.3842 -5.31459 1.83052 0
M  V30 825 H 76.5352 -1.44483 1.55687 0
M  V30 826 H 78.7982 -0.689291 0.650831 0
M  V30 827 H 78.5042 -2.9269 1.95002 0
M  V30 828 H 78.3782 -3.75014 0.405486 0
M  V30 829 H 80.7652 -2.94581 -0.174871 0
M  V30 830 H 80.8462 -2.14148 1.39908 0
M  V30 831 H 80.4902 -4.39573 2.54437 0
M  V30 832 H 80.4202 -5.18025 0.946432 0
M  V30 833 H 82.9112 -3.62367 1.07231 0
M  V30 834 H 83.2242 -7.20863 2.78525 0
M  V30 835 H 81.5692 -6.48542 2.49836 0
M  V30 836 H 84.7602 -4.46396 1.40883 0
M  V30 837 H 84.9332 -6.09881 2.18973 0
M  V30 838 N 78.3393 -0.321999 -1.54275 0
M  V30 839 C 79.5693 0.282642 -2.04658 0
M  V30 840 C 79.9773 1.46453 -1.19784 0
M  V30 841 O 79.3203 1.82367 -0.220932 0
M  V30 842 C 79.3823 0.781857 -3.50895 0
M  V30 843 C 79.0463 -0.277517 -4.56157 0
M  V30 844 C 80.0433 -1.11307 -5.07845 0
M  V30 845 C 77.7283 -0.425256 -5.00497 0
M  V30 846 C 79.7223 -2.08211 -6.02434 0
M  V30 847 C 77.4093 -1.39771 -5.94901 0
M  V30 848 C 78.4073 -2.2246 -6.45756 0
M  V30 849 O 78.0953 -3.18054 -7.38307 0
M  V30 850 H 77.8273 0.0622636 -0.673126 0
M  V30 851 H 80.3813 -0.465792 -2.00049 0
M  V30 852 H 78.6113 1.58118 -3.52896 0
M  V30 853 H 80.3003 1.30467 -3.84361 0
M  V30 854 H 81.0663 -1.00991 -4.74369 0
M  V30 855 H 76.9453 0.20847 -4.60528 0
M  V30 856 H 80.4893 -2.72791 -6.42052 0
M  V30 857 H 76.3863 -1.50152 -6.27794 0
M  V30 858 H 77.1543 -3.13275 -7.56175 0
M  V30 859 N 79.8174 1.5752 -0.0501392 0
M  V30 860 C 80.7474 2.14502 0.922566 0
M  V30 861 C 81.7284 1.06642 1.3252 0
M  V30 862 O 82.9134 1.34577 1.4001 0
M  V30 863 C 80.0434 2.68916 2.19776 0
M  V30 864 C 78.9974 3.8175 1.93523 0
M  V30 865 C 78.3234 4.22677 3.27487 0
M  V30 866 C 79.6234 5.06932 1.25765 0
M  V30 867 H 81.3174 2.9603 0.447952 0
M  V30 868 H 78.8634 1.42401 0.214024 0
M  V30 869 H 80.8164 3.07419 2.88222 0
M  V30 870 H 79.5404 1.84578 2.69441 0
M  V30 871 H 78.1994 3.43718 1.27489 0
M  V30 872 H 77.8474 3.35291 3.74952 0
M  V30 873 H 77.5474 4.98725 3.1072 0
M  V30 874 H 79.0714 4.63779 3.97166 0
M  V30 875 H 80.4854 5.42888 1.84244 0
M  V30 876 H 78.8824 5.88116 1.19328 0
M  V30 877 H 79.9524 4.84337 0.233536 0
M  V30 878 N 81.2955 -0.223234 1.56011 0
M  V30 879 C 82.2275 -1.30006 1.88762 0
M  V30 880 C 83.2405 -1.43129 0.775746 0
M  V30 881 O 84.4295 -1.44057 1.05403 0
M  V30 882 C 81.5295 -2.67589 2.07965 0
M  V30 883 C 80.7025 -2.76434 3.38973 0
M  V30 884 C 79.7615 -3.95019 3.47629 0
M  V30 885 O 78.7875 -3.83436 4.20672 0
M  V30 886 N 79.9895 -5.09249 2.78649 0
M  V30 887 H 82.7545 -1.02238 2.81722 0
M  V30 888 H 80.3155 -0.413278 1.56536 0
M  V30 889 H 82.3075 -3.45297 2.11073 0
M  V30 890 H 80.8775 -2.87964 1.21638 0
M  V30 891 H 80.0975 -1.85216 3.47978 0
M  V30 892 H 81.3855 -2.79313 4.25278 0
M  V30 893 H 80.7835 -5.21556 2.19081 0
M  V30 894 H 79.3405 -5.85007 2.8742 0
M  V30 895 N 82.7736 -1.49793 -0.48987 0
M  V30 896 C 83.6836 -1.70036 -1.61632 0
M  V30 897 C 84.6996 -0.583102 -1.63939 0
M  V30 898 O 85.8756 -0.859169 -1.82154 0
M  V30 899 C 82.9406 -1.77277 -2.97949 0
M  V30 900 C 82.0016 -3.00918 -3.06181 0
M  V30 901 C 81.2346 -3.07804 -4.35996 0
M  V30 902 O 81.4576 -2.21982 -5.25433 0
M  V30 903 O 80.3916 -4.00369 -4.49431 0
M  V30 904 H 84.2176 -2.65486 -1.47482 0
M  V30 905 H 81.8026 -1.33666 -0.667362 0
M  V30 906 H 83.6846 -1.84329 -3.78947 0
M  V30 907 H 82.3596 -0.850076 -3.12339 0
M  V30 908 H 81.2666 -2.99377 -2.2433 0
M  V30 909 H 82.5996 -3.92704 -2.96723 0
M  V30 910 N 84.2517 0.741722 -1.39055 0
M  V30 911 C 85.4977 1.50336 -1.36113 0
M  V30 912 C 85.8307 1.94148 0.0450796 0
M  V30 913 O 85.1057 1.66301 1.00868 0
M  V30 914 C 85.3887 2.74773 -2.32749 0
M  V30 915 C 85.2417 2.37023 -3.82283 0
M  V30 916 C 86.5607 3.76846 -2.27322 0
M  V30 917 H 83.6797 0.545351 -0.495743 0
M  V30 918 H 86.3217 0.848624 -1.69995 0
M  V30 919 H 84.4717 3.30639 -2.03986 0
M  V30 920 H 86.1437 1.8684 -4.21768 0
M  V30 921 H 84.3867 1.69334 -3.99385 0
M  V30 922 H 85.0577 3.26104 -4.45376 0
M  V30 923 H 87.5337 3.30548 -2.5274 0
M  V30 924 H 86.4097 4.6159 -2.97028 0
M  V30 925 H 86.6707 4.23286 -1.27599 0
M  V30 926 N 85.7298 1.2412 0.971189 0
M  V30 927 C 86.9788 1.07284 1.70801 0
M  V30 928 C 87.2918 -0.388902 1.91695 0
M  V30 929 O 88.4978 -0.677379 2.62914 0
M  V30 930 C 86.9538 1.87145 3.07416 0
M  V30 931 C 86.5618 3.37707 2.94377 0
M  V30 932 C 88.3058 1.78828 3.84995 0
M  V30 933 C 86.2128 4.09925 4.26281 0
M  V30 934 H 85.1428 0.397854 0.64049 0
M  V30 935 H 87.7938 1.4817 1.0825 0
M  V30 936 H 86.1758 1.39071 3.70777 0
M  V30 937 H 87.3498 3.93335 2.4005 0
M  V30 938 H 85.6648 3.46938 2.30267 0
M  V30 939 H 88.2618 2.30089 4.82662 0
M  V30 940 H 88.6048 0.75284 4.09436 0
M  V30 941 H 89.1378 2.24563 3.28354 0
M  V30 942 H 85.8768 5.13813 4.07033 0
M  V30 943 H 85.3968 3.59083 4.80437 0
M  V30 944 H 87.0758 4.1673 4.94919 0
M  V30 945 N 87.2079 -1.17134 1.05439 0
M  V30 946 C 88.4849 -1.83411 0.679699 0
M  V30 947 C 88.8649 -1.9368 -0.839726 0
M  V30 948 O 88.2129 -1.47325 -1.74664 0
M  V30 949 C 88.4229 -3.20918 1.37159 0
M  V30 950 C 89.7709 -3.96796 1.51123 0
M  V30 951 O 90.7949 -3.30406 1.3308 0
M  V30 952 O 89.6539 -5.15778 1.80651 0
M  V30 953 H 86.7479 -0.79154 0.239569 0
M  V30 954 H 89.2939 -1.24411 1.15413 0
M  V30 955 H 88.0659 -3.08428 2.40807 0
M  V30 956 H 87.6889 -3.87587 0.886674 0
M  V30 957 N 88.686 -0.835752 -1.33615 0
M  V30 958 C 89.932 -0.430596 -1.98176 0
M  V30 959 C 90.265 1.00684 -1.66061 0
M  V30 960 O 89.54 1.70339 -0.938877 0
M  V30 961 C 89.823 -0.648065 -3.5422 0
M  V30 962 C 89.676 -2.13255 -3.96033 0
M  V30 963 C 90.995 -0.0922113 -4.40003 0
M  V30 964 H 88.114 -0.157924 -0.719881 0
M  V30 965 H 90.756 -1.05069 -1.58305 0
M  V30 966 H 88.906 -0.120237 -3.88314 0
M  V30 967 H 90.578 -2.725 -3.72211 0
M  V30 968 H 88.821 -2.61823 -3.45878 0
M  V30 969 H 89.492 -2.23547 -5.04708 0
M  V30 970 H 91.968 -0.543343 -4.12537 0
M  V30 971 H 90.844 -0.274083 -5.48215 0
M  V30 972 H 91.105 1.00378 -4.30554 0
M  V30 973 N 90.1641 1.46063 -0.591896 0
M  V30 974 C 91.0941 2.33172 0.123673 0
M  V30 975 C 92.0751 1.45897 0.87453 0
M  V30 976 O 93.2601 1.74698 0.848181 0
M  V30 977 C 90.3901 3.28336 1.13194 0
M  V30 978 C 89.3441 4.25124 0.495324 0
M  V30 979 C 88.6701 5.09863 1.61071 0
M  V30 980 C 89.9701 5.19143 -0.573425 0
M  V30 981 H 91.6641 2.93252 -0.603646 0
M  V30 982 H 89.2101 1.41014 -0.291741 0
M  V30 983 H 91.1631 3.88137 1.64097 0
M  V30 984 H 89.8871 2.66383 1.88965 0
M  V30 985 H 88.5461 3.66599 0.00729452 0
M  V30 986 H 88.1941 4.44288 2.35832 0
M  V30 987 H 87.8941 5.75417 1.19035 0
M  V30 988 H 89.4181 5.72529 2.12233 0
M  V30 989 H 90.8321 5.73106 -0.1491 0
M  V30 990 H 89.2291 5.93089 -0.914636 0
M  V30 991 H 90.2991 4.62519 -1.45617 0
M  V30 992 N 91.6422 0.330177 1.54103 0
M  V30 993 C 92.5522 -0.541534 2.28264 0
M  V30 994 C 93.5682 -1.12351 1.32866 0
M  V30 995 O 94.7442 -1.14206 1.65888 0
M  V30 996 C 91.8092 -1.68322 3.03098 0
M  V30 997 C 90.8702 -1.13238 4.14096 0
M  V30 998 C 90.1032 -2.21966 4.85352 0
M  V30 999 O 90.3262 -3.42437 4.56172 0
M  V30 1000 O 89.2602 -1.87013 5.7211 0
M  V30 1001 H 93.0862 0.060938 3.03639 0
M  V30 1002 H 90.6712 0.09565 1.49093 0
M  V30 1003 H 92.5532 -2.34777 3.49939 0
M  V30 1004 H 91.2282 -2.27176 2.30593 0
M  V30 1005 H 90.1352 -0.432736 3.71589 0
M  V30 1006 H 91.4682 -0.588898 4.88664 0
M  V30 1007 N 93.1203 -1.57491 0.0584922 0
M  V30 1008 C 94.3483 -1.97296 -0.623037 0
M  V30 1009 C 94.7633 -0.936338 -1.63946 0
M  V30 1010 O 94.1203 0.0785981 -1.82331 0
M  V30 1011 C 94.1713 -3.37183 -1.30345 0
M  V30 1012 O 93.8923 -4.36872 -0.32773 0
M  V30 1013 C 95.3933 -3.91788 -2.07406 0
M  V30 1014 H 92.6133 -0.649153 -0.169826 0
M  V30 1015 H 95.1573 -2.04106 0.12696 0
M  V30 1016 H 93.3123 -3.31502 -2.00463 0
M  V30 1017 H 93.7263 -5.18141 -0.814269 0
M  V30 1018 H 95.2003 -4.91926 -2.50425 0
M  V30 1019 H 95.6773 -3.27609 -2.92521 0
M  V30 1020 H 96.2833 -4.00829 -1.42184 0
M  V30 1021 N 94.5984 0.214957 -1.56127 0
M  V30 1022 C 95.8754 0.963093 -1.70247 0
M  V30 1023 C 96.2554 2.02166 -0.60764 0
M  V30 1024 O 95.6034 2.25244 0.384385 0
M  V30 1025 C 95.8134 1.56756 -3.11815 0
M  V30 1026 C 97.1614 2.0573 -3.7143 0
M  V30 1027 O 98.1854 1.66637 -3.14818 0
M  V30 1028 O 97.0444 2.77603 -4.70743 0
M  V30 1029 H 94.1384 0.450321 -0.693643 0
M  V30 1030 H 96.6844 0.206219 -1.68442 0
M  V30 1031 H 95.4564 0.803533 -3.82961 0
M  V30 1032 H 95.0794 2.3898 -3.17765 0
M  V30 1033 N 96.0765 1.50051 0.48192 0
M  V30 1034 C 97.3245 1.60181 1.23234 0
M  V30 1035 C 97.6455 0.299176 1.92691 0
M  V30 1036 O 96.9155 -0.682708 1.83619 0
M  V30 1037 H 95.4955 0.590232 0.457859 0
M  V30 1038 H 98.1575 1.86775 0.556881 0
M  V30 1039 H 97.2535 2.40753 1.98607 0
M  V30 1040 N 97.5546 -0.734337 1.39446 0
M  V30 1041 C 98.5046 -1.83949 1.34709 0
M  V30 1042 C 99.4886 -1.59279 0.227851 0
M  V30 1043 O 100.681 -1.70771 0.465438 0
M  V30 1044 C 97.8096 -3.21884 1.19356 0
M  V30 1045 C 96.8956 -3.52381 2.35984 0
M  V30 1046 N 97.2866 -3.53811 3.61457 0
M  V30 1047 C 95.5846 -3.82747 2.28956 0
M  V30 1048 C 96.2856 -3.82122 4.38586 0
M  V30 1049 N 95.2616 -3.9993 3.68181 0
M  V30 1050 H 99.0636 -1.83361 2.29687 0
M  V30 1051 H 96.5776 -0.932609 1.32952 0
M  V30 1052 H 98.5746 -4.00998 1.14046 0
M  V30 1053 H 97.2346 -3.23711 0.253295 0
M  V30 1054 H 98.2456 -3.35107 3.94872 0
M  V30 1055 H 94.9226 -3.92175 1.43194 0
M  V30 1056 H 96.3126 -3.89691 5.47349 0
M  V30 1057 N 99.0327 -1.24633 -0.964593 0
M  V30 1058 C 100.28 -1.08788 -1.70796 0
M  V30 1059 C 100.608 0.372783 -1.90894 0
M  V30 1060 O 99.8627 1.29167 -1.47018 0
M  V30 1061 C 100.162 -1.7763 -3.10133 0
M  V30 1062 C 99.8277 -3.27557 -3.09866 0
M  V30 1063 C 98.4897 -3.6846 -3.09501 0
M  V30 1064 C 100.842 -4.23389 -3.03959 0
M  V30 1065 C 98.1697 -5.03624 -3.00965 0
M  V30 1066 C 100.522 -5.58565 -2.96965 0
M  V30 1067 C 99.1857 -5.98809 -2.9493 0
M  V30 1068 H 98.4557 -0.398084 -0.624988 0
M  V30 1069 H 101.103 -1.54777 -1.12767 0
M  V30 1070 H 99.4077 -1.24044 -3.71645 0
M  V30 1071 H 101.105 -1.62832 -3.66451 0
M  V30 1072 H 97.6947 -2.95006 -3.10917 0
M  V30 1073 H 101.879 -3.92787 -3.03368 0
M  V30 1074 H 97.1347 -5.33998 -2.97752 0
M  V30 1075 H 101.309 -6.32523 -2.91354 0
M  V30 1076 H 98.9357 -7.03505 -2.88071 0
M  V30 1077 N 100.511 1.16574 -1.06058 0
M  V30 1078 C 101.927 1.3904 -0.783585 0
M  V30 1079 C 102.127 1.91784 0.618145 0
M  V30 1080 O 101.183 2.11511 1.37911 0
M  V30 1081 C 102.496 2.37329 -1.84649 0
M  V30 1082 C 104.044 2.51018 -1.86973 0
M  V30 1083 C 104.519 3.52588 -2.92311 0
M  V30 1084 N 106.01 3.60113 -2.91329 0
M  V30 1085 C 106.745 4.38486 -3.69482 0
M  V30 1086 N 106.241 5.20302 -4.57447 0
M  V30 1087 N 108.034 4.33446 -3.57885 0
M  V30 1088 H 100.185 0.806725 -1.96483 0
M  V30 1089 H 102.448 0.417117 -0.851303 0
M  V30 1090 H 102.154 2.05663 -2.85299 0
M  V30 1091 H 102.028 3.36946 -1.6955 0
M  V30 1092 H 104.415 2.81989 -0.869827 0
M  V30 1093 H 104.496 1.51445 -2.0615 0
M  V30 1094 H 104.14 3.22354 -3.92492 0
M  V30 1095 H 104.07 4.51886 -2.70383 0
M  V30 1096 H 106.561 3.01707 -2.27555 0
M  V30 1097 H 106.874 5.77311 -5.13743 0
M  V30 1098 H 105.219 5.19653 -4.61503 0
M  V30 1099 H 108.41 3.68586 -2.88551 0
M  V30 1100 H 108.583 4.94279 -4.19037 0
M  V30 1101 N 101.989 0.842826 1.3317 0
M  V30 1102 C 102.899 0.281444 2.32906 0
M  V30 1103 C 103.915 -0.594587 1.63526 0
M  V30 1104 O 105.091 -0.49777 1.95152 0
M  V30 1105 C 102.156 -0.530929 3.42611 0
M  V30 1106 C 101.217 0.369843 4.27704 0
M  V30 1107 C 100.45 -0.403853 5.3217 0
M  V30 1108 O 100.673 -1.63513 5.46461 0
M  V30 1109 O 99.6069 0.224199 6.01482 0
M  V30 1110 H 103.433 1.10744 2.82789 0
M  V30 1111 H 101.018 0.60545 1.36582 0
M  V30 1112 H 102.9 -0.992437 4.09547 0
M  V30 1113 H 101.575 -1.33392 2.94938 0
M  V30 1114 H 100.482 0.879275 3.6362 0
M  V30 1115 H 101.815 1.13771 4.78871 0
M  V30 1116 N 103.467 -1.45747 0.599634 0
M  V30 1117 C 104.414 -2.30467 -0.123849 0
M  V30 1118 C 105.384 -1.41632 -0.86774 0
M  V30 1119 O 106.569 -1.70568 -0.855056 0
M  V30 1120 C 103.709 -3.26402 -1.12051 0
M  V30 1121 C 102.822 -4.3034 -0.37832 0
M  V30 1122 C 101.957 -5.13389 -1.364 0
M  V30 1123 C 100.996 -6.09061 -0.609171 0
M  V30 1124 N 100.133 -6.84918 -1.54374 0
M  V30 1125 H 104.973 -2.91802 0.604627 0
M  V30 1126 H 102.51 -1.43797 0.309972 0
M  V30 1127 H 104.468 -3.80482 -1.7114 0
M  V30 1128 H 103.098 -2.66839 -1.8165 0
M  V30 1129 H 102.15 -3.78984 0.327929 0
M  V30 1130 H 103.462 -4.98354 0.210997 0
M  V30 1131 H 102.616 -5.7183 -2.02719 0
M  V30 1132 H 101.355 -4.45376 -1.98725 0
M  V30 1133 H 100.36 -5.49758 0.0676979 0
M  V30 1134 H 101.585 -6.79099 0.00891991 0
M  V30 1135 H 99.531 -6.19601 -2.15478 0
M  V30 1136 H 99.448 -7.49254 -1.00766 0
M  V30 1137 H 100.716 -7.47906 -2.19676 0
M  V30 1138 N 104.945 -0.338344 -1.53925 0
M  V30 1139 C 105.875 0.51328 -2.27789 0
M  V30 1140 C 106.856 1.107 -1.29149 0
M  V30 1141 O 108.041 1.12937 -1.57984 0
M  V30 1142 C 105.171 1.66697 -3.04679 0
M  V30 1143 C 104.125 1.20183 -4.1078 0
M  V30 1144 C 103.451 2.44363 -4.75595 0
M  V30 1145 C 104.751 0.30605 -5.21403 0
M  V30 1146 H 106.445 -0.102883 -2.99223 0
M  V30 1147 H 103.991 -0.0509219 -1.4391 0
M  V30 1148 H 105.944 2.26915 -3.55088 0
M  V30 1149 H 104.668 2.30995 -2.30887 0
M  V30 1150 H 103.327 0.622499 -3.61276 0
M  V30 1151 H 102.975 3.07057 -3.98403 0
M  V30 1152 H 102.675 2.13925 -5.47275 0
M  V30 1153 H 104.199 3.05317 -5.28786 0
M  V30 1154 H 105.613 0.814929 -5.67478 0
M  V30 1155 H 104.01 0.0937929 -6.00027 0
M  V30 1156 H 105.08 -0.65921 -4.80398 0
M  V30 1157 N 106.423 1.57458 -0.0668435 0
M  V30 1158 C 107.355 2.09413 0.931601 0
M  V30 1159 C 108.368 1.02522 1.26464 0
M  V30 1160 O 109.557 1.30049 1.22269 0
M  V30 1161 C 106.657 2.53537 2.24882 0
M  V30 1162 C 105.83 3.83944 2.09537 0
M  V30 1163 C 104.889 4.14214 3.2452 0
M  V30 1164 O 103.915 4.83891 2.9973 0
M  V30 1165 N 105.117 3.67367 4.49469 0
M  V30 1166 H 107.882 2.95699 0.488048 0
M  V30 1167 H 105.443 1.61462 0.119009 0
M  V30 1168 H 107.435 2.70853 3.00701 0
M  V30 1169 H 106.005 1.72415 2.60753 0
M  V30 1170 H 105.225 3.76057 1.18215 0
M  V30 1171 H 106.513 4.69312 1.96529 0
M  V30 1172 H 105.911 3.11068 4.72497 0
M  V30 1173 H 104.468 3.89891 5.2233 0
M  V30 1174 N 107.901 -0.206675 1.56239 0
M  V30 1175 C 108.864 -1.23976 1.92776 0
M  V30 1176 C 109.864 -1.39041 0.807729 0
M  V30 1177 O 111.054 -1.37051 1.0753 0
M  V30 1178 C 108.186 -2.61112 2.19165 0
M  V30 1179 H 109.379 -0.927764 2.85189 0
M  V30 1180 H 106.932 -0.447718 1.4975 0
M  V30 1181 H 107.667 -2.97386 1.29352 0
M  V30 1182 H 107.452 -2.51552 3.00772 0
M  V30 1183 H 108.942 -3.35633 2.48476 0
M  V30 1184 N 109.379 -1.50304 -0.473955 0
M  V30 1185 C 110.342 -1.6841 -1.55469 0
M  V30 1186 C 111.342 -0.554905 -1.50922 0
M  V30 1187 O 112.532 -0.821882 -1.53593 0
M  V30 1188 C 109.664 -1.70667 -2.95102 0
M  V30 1189 H 110.857 -2.64828 -1.40733 0
M  V30 1190 H 108.41 -1.39742 -0.700132 0
M  V30 1191 H 109.145 -0.75932 -3.15285 0
M  V30 1192 H 108.93 -2.52698 -2.9981 0
M  V30 1193 H 110.42 -1.8664 -3.73571 0
M  V30 1194 N 110.857 0.726932 -1.39834 0
M  V30 1195 C 111.805 1.86235 -1.39353 0
M  V30 1196 C 112.799 1.67144 -0.275555 0
M  V30 1197 O 114.005 1.74387 -0.44601 0
M  V30 1198 H 110.38 0.613174 -0.43534 0
M  V30 1199 H 112.351 1.83756 -2.35109 0
M  V30 1200 C 111.1 3.23995 -1.26185 0
M  V30 1201 H 110.423 3.39285 -2.11484 0
M  V30 1202 H 111.863 4.03609 -1.29907 0
M  V30 1203 C 110.322 3.36888 0.0290018 0
M  V30 1204 O 110.852 3.89152 0.99619 0
M  V30 1205 N 109.058 2.90446 0.0947437 0
M  V30 1206 H 108.605 2.48102 -0.693035 0
M  V30 1207 H 108.563 2.99451 0.957932 0
M  V30 1208 N 112.336 1.25143 0.95797 0
M  V30 1209 C 113.299 1.05321 2.03569 0
M  V30 1210 C 114.299 0.007152 1.60798 0
M  V30 1211 O 115.489 0.24903 1.72411 0
M  V30 1212 C 112.621 0.598394 3.35607 0
M  V30 1213 H 113.814 2.00986 2.22586 0
M  V30 1214 H 111.367 1.07502 1.13459 0
M  V30 1215 H 112.102 -0.361014 3.22284 0
M  V30 1216 H 111.887 1.35351 3.67998 0
M  V30 1217 H 113.377 0.48104 4.1482 0
M  V30 1218 N 113.814 -1.1601 1.06675 0
M  V30 1219 C 114.724 -2.24156 0.692179 0
M  V30 1220 C 115.74 -1.71507 -0.293513 0
M  V30 1221 O 116.916 -2.009 -0.141861 0
M  V30 1222 C 113.981 -3.46587 0.0884131 0
M  V30 1223 C 113.042 -4.14257 1.12646 0
M  V30 1224 C 112.275 -5.30844 0.551416 0
M  V30 1225 O 112.498 -5.66858 -0.634656 0
M  V30 1226 O 111.432 -5.87848 1.29298 0
M  V30 1227 H 115.258 -2.58513 1.59388 0
M  V30 1228 H 112.843 -1.23599 0.83926 0
M  V30 1229 H 114.725 -4.20679 -0.246361 0
M  V30 1230 H 113.4 -3.13994 -0.786712 0
M  V30 1231 H 112.307 -3.42118 1.51348 0
M  V30 1232 H 113.64 -4.50914 1.97325 0
M  V30 1233 N 115.292 -0.849877 -1.32721 0
M  V30 1234 C 116.569 -0.372405 -1.92022 0
M  V30 1235 C 116.949 1.1435 -1.77447 0
M  V30 1236 O 116.297 1.96296 -1.16962 0
M  V30 1237 C 116.507 -0.831482 -3.3895 0
M  V30 1238 C 117.855 -0.845882 -4.16089 0
M  V30 1239 O 118.879 -0.775806 -3.47649 0
M  V30 1240 O 117.738 -0.943753 -5.38289 0
M  V30 1241 H 114.832 -0.107667 -0.819961 0
M  V30 1242 H 117.378 -0.93646 -1.41522 0
M  V30 1243 H 116.15 -1.87448 -3.4348 0
M  V30 1244 H 115.773 -0.24461 -3.96847 0
M  V30 1245 N 116.77 1.45427 -0.607355 0
M  V30 1246 C 118.019 2.01452 -0.100036 0
M  V30 1247 C 118.332 1.48159 1.27704 0
M  V30 1248 O 119.538 1.96159 1.87707 0
M  V30 1249 C 117.994 3.59672 -0.128158 0
M  V30 1250 C 117.602 4.21962 -1.50507 0
M  V30 1251 C 119.346 4.23262 0.323932 0
M  V30 1252 C 117.253 5.72333 -1.48959 0
M  V30 1253 H 116.183 0.75325 -0.0336299 0
M  V30 1254 H 118.834 1.66901 -0.76265 0
M  V30 1255 H 117.216 3.91411 0.601105 0
M  V30 1256 H 118.39 4.01796 -2.25602 0
M  V30 1257 H 116.705 3.70565 -1.89923 0
M  V30 1258 H 119.302 5.33522 0.354691 0
M  V30 1259 H 119.645 3.93921 1.34656 0
M  V30 1260 H 120.178 3.96239 -0.352056 0
M  V30 1261 H 116.917 6.06373 -2.48981 0
M  V30 1262 H 116.437 5.94691 -0.781214 0
M  V30 1263 H 118.116 6.35525 -1.21313 0
M  V30 1264 N 118.248 0.346503 1.53744 0
M  V30 1265 C 119.195 -0.508914 2.25119 0
M  V30 1266 C 120.165 -1.09315 1.25058 0
M  V30 1267 O 121.35 -1.12921 1.53797 0
M  V30 1268 C 118.49 -1.65246 3.02965 0
M  V30 1269 C 117.603 -1.09525 4.17886 0
M  V30 1270 C 116.738 -2.20634 4.83212 0
M  V30 1271 C 115.777 -1.62279 5.90196 0
M  V30 1272 N 114.914 -2.67143 6.49291 0
M  V30 1273 H 119.754 0.106283 2.9781 0
M  V30 1274 H 117.291 0.0642227 1.4696 0
M  V30 1275 H 119.249 -2.32574 3.4636 0
M  V30 1276 H 117.879 -2.2386 2.32565 0
M  V30 1277 H 116.931 -0.312818 3.79112 0
M  V30 1278 H 118.243 -0.628444 4.94825 0
M  V30 1279 H 117.397 -2.95821 5.29693 0
M  V30 1280 H 116.136 -2.70659 4.05703 0
M  V30 1281 H 115.141 -0.855989 5.43096 0
M  V30 1282 H 116.366 -1.13102 6.69615 0
M  V30 1283 H 114.312 -3.16417 5.74645 0
M  V30 1284 H 114.229 -2.25093 7.21713 0
M  V30 1285 H 115.497 -3.4209 7.00425 0
M  V30 1286 N 119.726 -1.57421 0.075193 0
M  V30 1287 C 120.951 -1.98364 -0.605515 0
M  V30 1288 C 121.376 -0.953383 -1.62149 0
M  V30 1289 O 120.734 0.0806053 -1.81121 0
M  V30 1290 C 120.782 -3.38332 -1.24756 0
M  V30 1291 O 119.886 -3.37959 -2.36342 0
M  V30 1292 H 119.227 -0.645553 -0.155428 0
M  V30 1293 H 121.757 -2.04044 0.150714 0
M  V30 1294 H 121.767 -3.75591 -1.5936 0
M  V30 1295 H 120.442 -4.12846 -0.503129 0
M  V30 1296 H 119.019 -3.12474 -2.03506 0
M  V30 1297 N 121.204 0.198386 -1.56346 0
M  V30 1298 C 122.452 0.91747 -1.80075 0
M  V30 1299 C 122.773 1.83929 -0.647692 0
M  V30 1300 O 122.043 1.93029 0.334166 0
M  V30 1301 H 120.623 0.341774 -0.664228 0
M  V30 1302 H 123.285 0.204684 -1.93822 0
M  V30 1303 H 122.381 1.51055 -2.7311 0
M  V30 1304 N 122.682 1.50554 0.465978 0
M  V30 1305 C 123.629 1.6979 1.56333 0
M  V30 1306 C 124.599 0.539239 1.57103 0
M  V30 1307 O 125.784 0.770401 1.74555 0
M  V30 1308 C 122.924 1.80273 2.94271 0
M  V30 1309 C 122.037 3.07674 3.0325 0
M  V30 1310 C 121.172 3.08922 4.32135 0
M  V30 1311 C 120.211 4.30755 4.34875 0
M  V30 1312 N 119.348 4.29714 5.55239 0
M  V30 1313 H 124.188 2.63472 1.39235 0
M  V30 1314 H 121.725 1.30602 0.676873 0
M  V30 1315 H 123.683 1.84332 3.74269 0
M  V30 1316 H 122.313 0.900258 3.09992 0
M  V30 1317 H 121.365 3.13062 2.16094 0
M  V30 1318 H 122.677 3.97642 3.01135 0
M  V30 1319 H 121.831 3.11738 5.20485 0
M  V30 1320 H 120.57 2.16792 4.36866 0
M  V30 1321 H 119.575 4.28146 3.44922 0
M  V30 1322 H 120.8 5.24117 4.31831 0
M  V30 1323 H 118.746 3.4044 5.60746 0
M  V30 1324 H 118.663 5.13456 5.54886 0
M  V30 1325 H 119.931 4.36683 6.457 0
M  V30 1326 N 124.16 -0.719506 1.40217 0
M  V30 1327 C 125.09 -1.8465 1.42922 0
M  V30 1328 C 126.071 -1.67599 0.29062 0
M  V30 1329 O 127.256 -1.87688 0.498677 0
M  V30 1330 C 124.386 -3.22565 1.28722 0
M  V30 1331 C 123.34 -3.54281 2.40144 0
M  V30 1332 C 122.666 -4.91298 2.11023 0
M  V30 1333 C 123.966 -3.55676 3.82481 0
M  V30 1334 H 125.66 -1.82644 2.37237 0
M  V30 1335 H 123.206 -0.877305 1.1419 0
M  V30 1336 H 125.159 -4.01095 1.29232 0
M  V30 1337 H 123.883 -3.25137 0.308811 0
M  V30 1338 H 122.542 -2.78088 2.38877 0
M  V30 1339 H 122.19 -4.90468 1.11582 0
M  V30 1340 H 121.89 -5.13485 2.8567 0
M  V30 1341 H 123.414 -5.72166 2.13209 0
M  V30 1342 H 124.828 -4.24254 3.85592 0
M  V30 1343 H 123.225 -3.89388 4.56614 0
M  V30 1344 H 124.295 -2.55144 4.12346 0
M  V30 1345 N 125.638 -1.25649 -0.95132 0
M  V30 1346 C 126.863 -1.13443 -1.73624 0
M  V30 1347 C 127.288 0.307565 -1.85568 0
M  V30 1348 O 126.646 1.22282 -1.33854 0
M  V30 1349 C 126.694 -1.79723 -3.12621 0
M  V30 1350 O 125.798 -1.07912 -3.98031 0
M  V30 1351 H 125.139 -0.395872 -0.533086 0
M  V30 1352 H 127.669 -1.66276 -1.1922 0
M  V30 1353 H 127.679 -1.86141 -3.63064 0
M  V30 1354 H 126.354 -2.84633 -3.03244 0
M  V30 1355 H 124.931 -1.09398 -3.56492 0
M  V30 1356 N 127.117 1.15442 -1.07289 0
M  V30 1357 C 128.533 1.38201 -0.798288 0
M  V30 1358 C 128.733 1.92429 0.597769 0
M  V30 1359 O 127.789 2.12962 1.3566 0
M  V30 1360 C 129.102 2.35357 -1.87156 0
M  V30 1361 C 130.65 2.49021 -1.89624 0
M  V30 1362 C 131.125 3.49468 -2.96034 0
M  V30 1363 N 132.616 3.57003 -2.95132 0
M  V30 1364 C 133.351 4.34543 -3.74112 0
M  V30 1365 N 132.847 5.15421 -4.6294 0
M  V30 1366 N 134.64 4.29625 -3.62462 0
M  V30 1367 H 126.791 0.78584 -1.97328 0
M  V30 1368 H 129.054 0.408065 -0.855679 0
M  V30 1369 H 128.76 2.02626 -2.87464 0
M  V30 1370 H 128.634 3.35129 -1.73114 0
M  V30 1371 H 131.021 2.81051 -0.899687 0
M  V30 1372 H 131.102 1.4925 -2.07745 0
M  V30 1373 H 130.746 3.18173 -3.95889 0
M  V30 1374 H 130.676 4.48992 -2.75161 0
M  V30 1375 H 133.167 2.99276 -2.30743 0
M  V30 1376 H 133.48 5.7183 -5.19837 0
M  V30 1377 H 131.825 5.14729 -4.66989 0
M  V30 1378 H 135.016 3.65505 -2.92444 0
M  V30 1379 H 135.189 4.89807 -4.24256 0
M  V30 1380 N 128.595 0.856903 1.32268 0
M  V30 1381 C 129.505 0.306131 2.32594 0
M  V30 1382 C 130.521 -0.577209 1.64147 0
M  V30 1383 O 131.697 -0.477043 1.95669 0
M  V30 1384 C 128.762 -0.494561 3.43154 0
M  V30 1385 C 127.823 0.415186 4.27288 0
M  V30 1386 C 127.056 -0.347387 5.32568 0
M  V30 1387 O 127.279 -1.57708 5.48165 0
M  V30 1388 O 126.213 0.287982 6.01211 0
M  V30 1389 H 130.039 1.13737 2.81598 0
M  V30 1390 H 127.624 0.619902 1.35932 0
M  V30 1391 H 129.506 -0.948944 4.10576 0
M  V30 1392 H 128.181 -1.30257 2.96336 0
M  V30 1393 H 127.088 0.917793 3.62667 0
M  V30 1394 H 128.421 1.18844 4.77637 0
M  V30 1395 N 130.073 -1.45103 0.615059 0
M  V30 1396 C 131.003 -2.33339 -0.0865619 0
M  V30 1397 C 131.984 -1.4727 -0.851209 0
M  V30 1398 O 133.169 -1.76026 -0.820281 0
M  V30 1399 C 130.299 -3.30095 -1.07956 0
M  V30 1400 C 129.253 -4.25858 -0.427628 0
M  V30 1401 C 128.579 -5.12361 -1.5294 0
M  V30 1402 C 129.879 -5.18165 0.655944 0
M  V30 1403 H 131.573 -2.92254 0.650224 0
M  V30 1404 H 129.119 -1.40532 0.314138 0
M  V30 1405 H 131.072 -3.90698 -1.57901 0
M  V30 1406 H 129.796 -2.69355 -1.84703 0
M  V30 1407 H 128.455 -3.66564 0.0510292 0
M  V30 1408 H 128.103 -4.47984 -2.28734 0
M  V30 1409 H 127.803 -5.77238 -1.09865 0
M  V30 1410 H 129.327 -5.75833 -2.03098 0
M  V30 1411 H 130.741 -5.72796 0.240257 0
M  V30 1412 H 129.138 -5.91559 1.00888 0
M  V30 1413 H 130.208 -4.60144 1.52957 0
M  V30 1414 N 131.551 -0.354651 -1.53558 0
M  V30 1415 C 132.828 0.294281 -1.93374 0
M  V30 1416 C 133.208 1.67313 -1.28723 0
M  V30 1417 O 132.556 2.24179 -0.442247 0
M  V30 1418 C 132.766 0.355445 -3.47185 0
M  V30 1419 C 134.114 0.601007 -4.20325 0
M  V30 1420 O 135.138 0.437106 -3.53508 0
M  V30 1421 O 133.997 0.919322 -5.38712 0
M  V30 1422 H 131.091 0.174033 -0.808481 0
M  V30 1423 H 133.637 -0.406638 -1.64756 0
M  V30 1424 H 132.409 -0.611729 -3.86489 0
M  V30 1425 H 132.032 1.1027 -3.82003 0
M  V30 1426 N 133.029 1.57378 -0.0835403 0
M  V30 1427 C 134.276 1.9393 0.58287 0
M  V30 1428 C 134.604 0.964455 1.68904 0
M  V30 1429 O 133.859 -0.0179474 1.95692 0
M  V30 1430 C 134.158 3.37063 1.1884 0
M  V30 1431 C 133.824 4.50424 0.207194 0
M  V30 1432 C 132.486 4.81159 -0.0627115 0
M  V30 1433 C 134.838 5.19136 -0.463426 0
M  V30 1434 C 132.166 5.77939 -1.01012 0
M  V30 1435 C 134.518 6.16931 -1.39924 0
M  V30 1436 C 133.182 6.46078 -1.67749 0
M  V30 1437 H 132.452 0.70964 0.213287 0
M  V30 1438 H 135.099 1.90856 -0.156916 0
M  V30 1439 H 133.404 3.3666 2.00418 0
M  V30 1440 H 135.101 3.6264 1.71153 0
M  V30 1441 H 131.691 4.2646 0.427747 0
M  V30 1442 H 135.875 4.95576 -0.268034 0
M  V30 1443 H 131.131 5.98842 -1.23283 0
M  V30 1444 H 135.305 6.69273 -1.92476 0
M  V30 1445 H 132.932 7.2088 -2.41321 0
M  V30 1446 N 134.507 -0.190092 1.56449 0
M  V30 1447 C 135.753 -0.911052 1.81184 0
M  V30 1448 C 136.086 -1.82699 0.658396 0
M  V30 1449 O 135.361 -1.91491 -0.340775 0
M  V30 1450 C 135.644 -1.72297 3.16205 0
M  V30 1451 C 135.497 -0.831419 4.42049 0
M  V30 1452 C 136.816 -2.69454 3.47969 0
M  V30 1453 H 133.935 -0.32977 0.659106 0
M  V30 1454 H 136.577 -0.178169 1.89163 0
M  V30 1455 H 134.727 -2.34778 3.09534 0
M  V30 1456 H 136.399 -0.220929 4.60771 0
M  V30 1457 H 134.642 -0.138406 4.33579 0
M  V30 1458 H 135.313 -1.43461 5.33032 0
M  V30 1459 H 137.789 -2.17104 3.54972 0
M  V30 1460 H 136.665 -3.23342 4.43555 0
M  V30 1461 H 136.926 -3.48744 2.71717 0
M  V30 1462 N 135.985 -1.50799 -0.457987 0
M  V30 1463 C 137.21 -1.66496 -1.23668 0
M  V30 1464 C 137.635 -0.353288 -1.84752 0
M  V30 1465 O 136.993 0.684346 -1.67888 0
M  V30 1466 C 137.041 -2.76763 -2.3116 0
M  V30 1467 O 136.145 -2.38928 -3.36136 0
M  V30 1468 H 135.486 -0.555828 -0.363252 0
M  V30 1469 H 138.016 -1.9725 -0.543474 0
M  V30 1470 H 138.026 -3.00232 -2.76269 0
M  V30 1471 H 136.701 -3.71954 -1.86073 0
M  V30 1472 H 135.278 -2.25953 -2.96647 0
M  V30 1473 N 137.463 0.71206 -1.40597 0
M  V30 1474 C 138.413 1.81783 -1.37619 0
M  V30 1475 C 139.397 1.58896 -0.253162 0
M  V30 1476 O 140.589 1.70009 -0.492547 0
M  V30 1477 C 137.718 3.19944 -1.24462 0
M  V30 1478 C 136.804 3.48582 -2.4156 0
M  V30 1479 N 137.195 3.48016 -3.67041 0
M  V30 1480 C 135.493 3.79056 -2.35016 0
M  V30 1481 C 136.194 3.75096 -4.44609 0
M  V30 1482 N 135.17 3.94022 -3.74497 0
M  V30 1483 H 138.972 1.79683 -2.32575 0
M  V30 1484 H 136.486 0.91134 -1.34419 0
M  V30 1485 H 138.483 3.99133 -1.20411 0
M  V30 1486 H 137.143 3.23267 -0.304762 0
M  V30 1487 H 138.154 3.28782 -4.00153 0
M  V30 1488 H 134.831 3.89848 -1.49415 0
M  V30 1489 H 136.221 3.80934 -5.53479 0
M  V30 1490 N 138.941 1.26152 0.944643 0
M  V30 1491 C 139.891 1.04081 2.02857 0
M  V30 1492 C 140.875 -0.0256555 1.6088 0
M  V30 1493 O 142.067 0.190884 1.75968 0
M  V30 1494 C 139.196 0.672118 3.36656 0
M  V30 1495 C 138.282 1.77586 3.85128 0
M  V30 1496 N 138.673 3.01272 4.06287 0
M  V30 1497 C 136.971 1.65867 4.1401 0
M  V30 1498 C 137.672 3.72983 4.46384 0
M  V30 1499 N 136.648 3.00653 4.52889 0
M  V30 1500 H 140.45 1.97968 2.17223 0
M  V30 1501 H 137.964 1.16618 1.13022 0
M  V30 1502 H 139.961 0.495166 4.13949 0
M  V30 1503 H 138.621 -0.259307 3.23663 0
M  V30 1504 H 139.632 3.37213 3.93075 0
M  V30 1505 H 136.309 0.796907 4.09824 0
M  V30 1506 H 137.699 4.792 4.70975 0
M  V30 1507 N 140.419 -1.14872 1.07899 0
M  V30 1508 C 141.665 -1.86064 0.806725 0
M  V30 1509 C 141.998 -1.82434 -0.665706 0
M  V30 1510 O 141.273 -1.25138 -1.48899 0
M  V30 1511 C 141.556 -3.34929 1.32267 0
M  V30 1512 C 141.409 -3.47161 2.86006 0
M  V30 1513 C 142.728 -4.29863 0.943717 0
M  V30 1514 H 139.847 -0.675591 0.294526 0
M  V30 1515 H 142.489 -1.34925 1.33773 0
M  V30 1516 H 140.639 -3.78611 0.870974 0
M  V30 1517 H 142.311 -3.12302 3.39507 0
M  V30 1518 H 140.554 -2.88539 3.23925 0
M  V30 1519 H 141.225 -4.51777 3.17177 0
M  V30 1520 H 143.701 -3.9417 1.33302 0
M  V30 1521 H 142.577 -5.32494 1.33198 0
M  V30 1522 H 142.838 -4.41846 -0.149796 0
M  V30 1523 N 141.898 -0.863906 -1.31812 0
M  V30 1524 C 143.314 -0.555004 -1.49639 0
M  V30 1525 C 143.514 0.912266 -1.79666 0
M  V30 1526 O 142.57 1.69479 -1.87171 0
M  V30 1527 C 143.883 -1.44998 -2.63431 0
M  V30 1528 C 145.431 -1.45138 -2.77316 0
M  V30 1529 C 145.906 -2.33179 -3.94197 0
M  V30 1530 N 147.397 -2.31025 -4.01474 0
M  V30 1531 C 148.132 -2.95871 -4.9117 0
M  V30 1532 N 147.628 -3.69863 -5.8581 0
M  V30 1533 N 149.421 -2.85211 -4.84367 0
M  V30 1534 H 141.572 -1.81339 -1.10589 0
M  V30 1535 H 143.835 -0.77505 -0.545895 0
M  V30 1536 H 143.541 -2.49377 -2.48 0
M  V30 1537 H 143.415 -1.14409 -3.59431 0
M  V30 1538 H 145.802 -0.415201 -2.92164 0
M  V30 1539 H 145.883 -1.79747 -1.82001 0
M  V30 1540 H 145.527 -3.3687 -3.80107 0
M  V30 1541 H 145.457 -1.95897 -4.88807 0
M  V30 1542 H 147.948 -1.77238 -3.33759 0
M  V30 1543 H 148.261 -4.16486 -6.50968 0
M  V30 1544 H 146.606 -3.73971 -5.85808 0
M  V30 1545 H 149.797 -2.26948 -4.09405 0
M  V30 1546 H 149.97 -3.36027 -5.54066 0
M  V30 1547 N 143.376 1.44774 -0.622745 0
M  V30 1548 C 144.604 2.06487 -0.130722 0
M  V30 1549 C 145.019 1.46476 1.19123 0
M  V30 1550 O 144.376 0.584502 1.72887 0
M  V30 1551 C 144.427 3.615 -0.000807207 0
M  V30 1552 O 144.148 4.19274 -1.27048 0
M  V30 1553 C 145.649 4.40229 0.520898 0
M  V30 1554 H 142.869 0.666704 -0.0758106 0
M  V30 1555 H 145.413 1.85779 -0.854774 0
M  V30 1556 H 143.568 3.81498 0.673643 0
M  V30 1557 H 143.982 5.12622 -1.1099 0
M  V30 1558 H 145.456 5.49144 0.560838 0
M  V30 1559 H 145.933 4.1108 1.54627 0
M  V30 1560 H 146.539 4.25131 -0.120018 0
M  V30 1561 N 144.854 0.36279 1.53368 0
M  V30 1562 C 145.801 -0.485008 2.25646 0
M  V30 1563 C 146.771 -1.07982 1.2621 0
M  V30 1564 O 147.956 -1.11284 1.54986 0
M  V30 1565 C 145.096 -1.62023 3.04701 0
M  V30 1566 C 144.209 -1.05086 4.19024 0
M  V30 1567 C 143.344 -2.15496 4.85525 0
M  V30 1568 C 142.383 -1.5601 5.91884 0
M  V30 1569 N 141.52 -2.60241 6.52088 0
M  V30 1570 H 146.36 0.137864 2.97681 0
M  V30 1571 H 143.897 0.0798061 1.46883 0
M  V30 1572 H 145.855 -2.28887 3.48807 0
M  V30 1573 H 144.485 -2.2138 2.34927 0
M  V30 1574 H 143.537 -0.27259 3.79422 0
M  V30 1575 H 144.849 -0.575926 4.95464 0
M  V30 1576 H 144.003 -2.90186 5.32801 0
M  V30 1577 H 142.742 -2.66341 4.08551 0
M  V30 1578 H 141.747 -0.798338 5.43973 0
M  V30 1579 H 142.972 -1.05994 6.70777 0
M  V30 1580 H 140.918 -3.10304 5.77968 0
M  V30 1581 H 140.835 -2.17426 7.24059 0
M  V30 1582 H 142.103 -3.34641 7.04014 0
M  V30 1583 N 146.332 -1.57332 0.0918853 0
M  V30 1584 C 147.262 -2.16872 -0.865371 0
M  V30 1585 C 148.243 -1.10118 -1.29646 0
M  V30 1586 O 149.428 -1.38242 -1.36392 0
M  V30 1587 C 146.558 -2.74649 -2.12569 0
M  V30 1588 C 145.512 -3.86747 -1.83333 0
M  V30 1589 C 144.838 -4.31212 -3.16166 0
M  V30 1590 C 146.138 -5.10089 -1.1228 0
M  V30 1591 H 147.832 -2.97114 -0.369307 0
M  V30 1592 H 145.378 -1.42918 -0.176194 0
M  V30 1593 H 147.331 -3.14952 -2.7997 0
M  V30 1594 H 146.055 -1.91657 -2.64452 0
M  V30 1595 H 144.714 -3.46978 -1.18331 0
M  V30 1596 H 144.362 -3.45115 -3.6593 0
M  V30 1597 H 144.062 -5.06788 -2.97388 0
M  V30 1598 H 145.586 -4.74146 -3.84731 0
M  V30 1599 H 147 -5.47582 -1.69785 0
M  V30 1600 H 145.397 -5.91073 -1.03693 0
M  V30 1601 H 146.467 -4.84786 -0.105041 0
M  V30 1602 N 147.81 0.181792 -1.56548 0
M  V30 1603 C 149.087 0.926765 -1.72251 0
M  V30 1604 C 149.467 2.00831 -0.650386 0
M  V30 1605 O 148.815 2.26008 0.336521 0
M  V30 1606 C 149.025 1.50106 -3.1507 0
M  V30 1607 C 150.373 1.97805 -3.75711 0
M  V30 1608 O 151.397 1.59922 -3.18282 0
M  V30 1609 O 150.256 2.67555 -4.76525 0
M  V30 1610 H 147.35 0.435506 -0.703039 0
M  V30 1611 H 149.896 0.170443 -1.68842 0
M  V30 1612 H 148.668 0.72212 -3.84579 0
M  V30 1613 H 148.291 2.32186 -3.22763 0
M  V30 1614 N 149.288 1.51039 0.449983 0
M  V30 1615 C 150.198 1.74261 1.57067 0
M  V30 1616 C 151.214 0.626363 1.62335 0
M  V30 1617 O 152.39 0.907162 1.79812 0
M  V30 1618 C 149.455 1.85114 2.93144 0
M  V30 1619 C 148.516 3.0893 2.98095 0
M  V30 1620 C 147.749 3.19256 4.27681 0
M  V30 1621 O 147.972 2.35835 5.19363 0
M  V30 1622 O 146.906 4.12144 4.38658 0
M  V30 1623 H 150.732 2.69303 1.40391 0
M  V30 1624 H 148.317 1.35389 0.631688 0
M  V30 1625 H 150.199 1.94311 3.73926 0
M  V30 1626 H 148.874 0.932588 3.09975 0
M  V30 1627 H 147.781 3.0522 2.16314 0
M  V30 1628 H 149.114 4.00433 2.86206 0
M  V30 1629 N 150.766 -0.704594 1.40972 0
M  V30 1630 C 151.696 -1.83124 1.44872 0
M  V30 1631 C 152.677 -1.67281 0.30838 0
M  V30 1632 O 153.862 -1.87149 0.518556 0
M  V30 1633 C 150.992 -3.21181 1.32136 0
M  V30 1634 C 149.946 -3.51714 2.43888 0
M  V30 1635 C 149.272 -4.89032 2.16222 0
M  V30 1636 C 150.572 -3.516 3.86232 0
M  V30 1637 H 152.266 -1.80117 2.39161 0
M  V30 1638 H 149.812 -0.865145 1.15114 0
M  V30 1639 H 151.765 -3.99702 1.33479 0
M  V30 1640 H 150.489 -3.24791 0.343279 0
M  V30 1641 H 149.148 -2.75539 2.41813 0
M  V30 1642 H 148.796 -4.89256 1.16778 0
M  V30 1643 H 148.496 -5.10426 2.911 0
M  V30 1644 H 150.02 -5.69873 2.19265 0
M  V30 1645 H 151.434 -4.2014 3.9007 0
M  V30 1646 H 149.831 -3.84523 4.60719 0
M  V30 1647 H 150.901 -2.50757 4.15029 0
M  V30 1648 N 152.244 -1.26651 -0.937939 0
M  V30 1649 C 153.191 -1.0849 -2.03712 0
M  V30 1650 C 154.161 0.011033 -1.66096 0
M  V30 1651 O 155.346 -0.149353 -1.90215 0
M  V30 1652 C 152.486 -0.72735 -3.37348 0
M  V30 1653 C 151.599 -1.89986 -3.87981 0
M  V30 1654 C 150.734 -1.48513 -5.10017 0
M  V30 1655 C 149.773 -2.62575 -5.5292 0
M  V30 1656 N 148.91 -2.21762 -6.66158 0
M  V30 1657 H 153.75 -2.02551 -2.18579 0
M  V30 1658 H 151.287 -1.00844 -1.07093 0
M  V30 1659 H 153.245 -0.50092 -4.14182 0
M  V30 1660 H 151.875 0.176298 -3.22318 0
M  V30 1661 H 150.927 -2.23913 -3.07518 0
M  V30 1662 H 152.239 -2.75586 -4.15757 0
M  V30 1663 H 151.393 -1.21934 -5.94321 0
M  V30 1664 H 150.132 -0.60009 -4.83994 0
M  V30 1665 H 149.137 -2.8988 -4.67172 0
M  V30 1666 H 150.362 -3.51685 -5.80943 0
M  V30 1667 H 148.308 -1.35696 -6.41812 0
M  V30 1668 H 148.225 -3.00903 -6.93537 0
M  V30 1669 H 149.493 -1.98403 -7.53828 0
M  V30 1670 N 153.722 1.14298 -1.08507 0
M  V30 1671 C 155.138 1.37347 -0.812901 0
M  V30 1672 C 155.338 1.93052 0.577325 0
M  V30 1673 O 154.394 2.14389 1.33393 0
M  V30 1674 C 155.707 2.33359 -1.89642 0
M  V30 1675 C 157.255 2.46996 -1.92255 0
M  V30 1676 C 157.73 3.46309 -2.99724 0
M  V30 1677 N 159.221 3.53853 -2.98902 0
M  V30 1678 C 159.956 4.3055 -3.787 0
M  V30 1679 N 159.452 5.10482 -4.6838 0
M  V30 1680 N 161.245 4.25757 -3.66998 0
M  V30 1681 H 153.396 0.764867 -1.9815 0
M  V30 1682 H 155.659 0.398966 -0.859959 0
M  V30 1683 H 155.365 1.99565 -2.89597 0
M  V30 1684 H 155.239 3.33274 -1.76659 0
M  V30 1685 H 157.626 2.80081 -0.929445 0
M  V30 1686 H 157.707 1.47039 -2.09316 0
M  V30 1687 H 157.351 3.13957 -3.99241 0
M  V30 1688 H 157.281 4.46049 -2.79907 0
M  V30 1689 H 159.772 2.96812 -2.33904 0
M  V30 1690 H 160.085 5.66284 -5.25873 0
M  V30 1691 H 158.43 5.09747 -4.72422 0
M  V30 1692 H 161.621 3.62383 -2.96304 0
M  V30 1693 H 161.794 4.85279 -4.29427 0
M  V30 1694 N 155.201 0.870884 1.31352 0
M  V30 1695 C 156.133 0.28455 2.27427 0
M  V30 1696 C 157.146 -0.552927 1.53123 0
M  V30 1697 O 158.335 -0.374771 1.74521 0
M  V30 1698 C 155.435 -0.615164 3.3327 0
M  V30 1699 C 154.608 0.190079 4.36987 0
M  V30 1700 C 153.667 -0.637917 5.22319 0
M  V30 1701 O 152.693 -0.065626 5.69162 0
M  V30 1702 N 153.895 -1.94973 5.46778 0
M  V30 1703 H 156.66 1.11017 2.7838 0
M  V30 1704 H 154.221 0.732458 1.44384 0
M  V30 1705 H 156.213 -1.1748 3.87273 0
M  V30 1706 H 154.783 -1.34146 2.82354 0
M  V30 1707 H 154.003 0.931165 3.83044 0
M  V30 1708 H 155.291 0.742579 5.03352 0
M  V30 1709 H 154.689 -2.4378 5.10478 0
M  V30 1710 H 153.246 -2.45713 6.03712 0
M  V30 1711 N 156.679 -1.44442 0.630414 0
M  V30 1712 C 157.589 -2.34476 -0.0761693 0
M  V30 1713 C 158.605 -1.52576 -0.836449 0
M  V30 1714 O 159.781 -1.85307 -0.788874 0
M  V30 1715 C 156.846 -3.30545 -1.04599 0
M  V30 1716 C 155.907 -4.28352 -0.28516 0
M  V30 1717 C 155.14 -5.19831 -1.20878 0
M  V30 1718 O 155.363 -5.15223 -2.44747 0
M  V30 1719 O 154.297 -5.97892 -0.693491 0
M  V30 1720 H 158.123 -2.96345 0.664324 0
M  V30 1721 H 155.708 -1.44203 0.39061 0
M  V30 1722 H 157.59 -3.89681 -1.60396 0
M  V30 1723 H 156.265 -2.7121 -1.76711 0
M  V30 1724 H 155.172 -3.72764 0.315837 0
M  V30 1725 H 156.505 -4.90605 0.395924 0
M  V30 1726 N 158.157 -0.370918 -1.53173 0
M  V30 1727 C 159.403 0.217423 -2.01631 0
M  V30 1728 C 159.736 1.47983 -1.25756 0
M  V30 1729 O 159.011 1.91274 -0.352764 0
M  V30 1730 C 159.294 0.503982 -3.56556 0
M  V30 1731 C 159.147 -0.77243 -4.43118 0
M  V30 1732 C 160.466 1.30234 -4.20389 0
M  V30 1733 H 157.585 0.0775486 -0.732909 0
M  V30 1734 H 160.227 -0.496863 -1.83388 0
M  V30 1735 H 158.377 1.11248 -3.72231 0
M  V30 1736 H 160.049 -1.4098 -4.39229 0
M  V30 1737 H 158.292 -1.39167 -4.10871 0
M  V30 1738 H 158.963 -0.526815 -5.4948 0
M  V30 1739 H 161.439 0.787546 -4.08579 0
M  V30 1740 H 160.315 1.47158 -5.28806 0
M  V30 1741 H 160.576 2.31237 -3.76805 0
M  V30 1742 N 159.635 1.57281 -0.100228 0
M  V30 1743 C 160.86 1.99302 0.573881 0
M  V30 1744 C 161.285 0.979059 1.60611 0
M  V30 1745 O 160.643 -0.0517803 1.81226 0
M  V30 1746 C 160.691 3.40274 1.19358 0
M  V30 1747 O 159.795 3.41676 2.30935 0
M  V30 1748 H 159.136 0.647944 0.145138 0
M  V30 1749 H 161.666 2.03779 -0.183156 0
M  V30 1750 H 161.676 3.78078 1.53365 0
M  V30 1751 H 160.351 4.13594 0.437385 0
M  V30 1752 H 158.928 3.15672 1.98509 0
M  V30 1753 N 161.113 -0.173488 1.56642 0
M  V30 1754 C 162.529 -0.525174 1.50712 0
M  V30 1755 C 162.729 -1.8476 0.804107 0
M  V30 1756 O 161.785 -2.49869 0.363574 0
M  V30 1757 C 163.098 -0.559937 2.95441 0
M  V30 1758 C 164.646 -0.647288 3.06234 0
M  V30 1759 C 165.121 -0.712963 4.52417 0
M  V30 1760 N 166.612 -0.775911 4.56655 0
M  V30 1761 C 167.347 -0.847264 5.67106 0
M  V30 1762 N 166.843 -0.879585 6.87194 0
M  V30 1763 N 168.636 -0.886117 5.55071 0
M  V30 1764 H 160.787 0.693681 2.00753 0
M  V30 1765 H 163.05 0.249841 0.914485 0
M  V30 1766 H 162.756 0.343049 3.50023 0
M  V30 1767 H 162.63 -1.40718 3.49969 0
M  V30 1768 H 165.017 -1.5407 2.51687 0
M  V30 1769 H 165.098 0.226586 2.54794 0
M  V30 1770 H 164.742 0.176183 5.07594 0
M  V30 1771 H 164.672 -1.60295 5.0161 0
M  V30 1772 H 167.163 -0.759304 3.70193 0
M  V30 1773 H 167.476 -0.935144 7.67121 0
M  V30 1774 H 165.821 -0.847898 6.89808 0
M  V30 1775 H 169.012 -0.857853 4.60172 0
M  V30 1776 H 169.185 -0.938263 6.41171 0
M  V30 1777 N 162.591 -1.51276 -0.441967 0
M  V30 1778 C 163.521 -1.752 -1.54361 0
M  V30 1779 C 164.502 -0.601682 -1.59103 0
M  V30 1780 O 165.687 -0.843913 -1.74905 0
M  V30 1781 C 162.817 -1.87282 -2.92477 0
M  V30 1782 C 161.771 -3.02687 -3.02596 0
M  V30 1783 C 161.097 -2.99947 -4.42647 0
M  V30 1784 C 162.397 -4.4273 -2.77106 0
M  V30 1785 H 164.091 -2.67442 -1.34592 0
M  V30 1786 H 161.637 -1.28694 -0.646048 0
M  V30 1787 H 163.59 -2.02602 -3.695 0
M  V30 1788 H 162.314 -0.916844 -3.13467 0
M  V30 1789 H 160.973 -2.87065 -2.28012 0
M  V30 1790 H 160.621 -2.02136 -4.60597 0
M  V30 1791 H 160.321 -3.77439 -4.50348 0
M  V30 1792 H 161.845 -3.17354 -5.2165 0
M  V30 1793 H 163.259 -4.58727 -3.43864 0
M  V30 1794 H 161.656 -5.21893 -2.96222 0
M  V30 1795 H 162.726 -4.53087 -1.72744 0
M  V30 1796 N 164.069 0.697108 -1.41344 0
M  V30 1797 C 165.485 1.00751 -1.2378 0
M  V30 1798 C 165.685 2.01105 -0.126066 0
M  V30 1799 O 164.741 2.47295 0.51004 0
M  V30 1800 C 166.054 1.53359 -2.58653 0
M  V30 1801 C 167.602 1.6525 -2.65822 0
M  V30 1802 C 168.077 2.2126 -4.01009 0
M  V30 1803 N 169.568 2.28622 -4.02847 0
M  V30 1804 C 170.303 2.72984 -5.04249 0
M  V30 1805 N 169.799 3.16962 -6.16041 0
M  V30 1806 N 171.592 2.72534 -4.91611 0
M  V30 1807 H 163.743 0.0322662 -2.12375 0
M  V30 1808 H 166.006 0.0768853 -0.944877 0
M  V30 1809 H 165.712 0.870773 -3.4075 0
M  V30 1810 H 165.586 2.51597 -2.81032 0
M  V30 1811 H 167.973 2.30644 -1.84086 0
M  V30 1812 H 168.054 0.655614 -2.47256 0
M  V30 1813 H 167.698 1.56482 -4.83193 0
M  V30 1814 H 167.628 3.21698 -4.16915 0
M  V30 1815 H 170.119 1.97585 -3.22131 0
M  V30 1816 H 170.432 3.49434 -6.89287 0
M  V30 1817 H 168.777 3.14875 -6.1958 0
M  V30 1818 H 171.968 2.37525 -4.0336 0
M  V30 1819 H 172.141 3.06789 -5.70775 0
M  V30 1820 N 165.547 1.27147 0.931209 0
M  V30 1821 C 166.48 1.0389 2.0318 0
M  V30 1822 C 167.458 -0.0395716 1.62552 0
M  V30 1823 O 168.642 0.104867 1.88208 0
M  V30 1824 C 165.769 0.575227 3.3378 0
M  V30 1825 C 164.815 1.64774 3.93385 0
M  V30 1826 S 165.648 3.23933 4.26413 0
M  V30 1827 C 166.804 2.79358 5.60098 0
M  V30 1828 H 167.037 1.97075 2.22596 0
M  V30 1829 H 164.57 1.10938 1.07387 0
M  V30 1830 H 166.528 0.314385 4.09294 0
M  V30 1831 H 165.189 -0.336505 3.12292 0
M  V30 1832 H 164.382 1.27454 4.87618 0
M  V30 1833 H 163.984 1.86048 3.24441 0
M  V30 1834 H 166.276 2.24443 6.39243 0
M  V30 1835 H 167.219 3.72322 6.02314 0
M  V30 1836 H 167.627 2.1861 5.20452 0
M  V30 1837 N 167.025 -1.13721 1.09112 0
M  V30 1838 C 167.955 -2.21148 0.749385 0
M  V30 1839 C 168.936 -1.6792 -0.271475 0
M  V30 1840 O 170.121 -1.93693 -0.140251 0
M  V30 1841 C 167.251 -3.46905 0.165659 0
M  V30 1842 C 166.205 -4.13203 1.11567 0
M  V30 1843 C 165.531 -5.33248 0.393809 0
M  V30 1844 C 166.831 -4.60912 2.45678 0
M  V30 1845 H 168.525 -2.4999 1.64758 0
M  V30 1846 H 166.071 -1.20156 0.793626 0
M  V30 1847 H 168.024 -4.21313 -0.085466 0
M  V30 1848 H 166.748 -3.17449 -0.767714 0
M  V30 1849 H 165.407 -3.40758 1.35202 0
M  V30 1850 H 165.055 -5.00054 -0.543599 0
M  V30 1851 H 164.755 -5.78552 1.02721 0
M  V30 1852 H 166.279 -6.10413 0.150908 0
M  V30 1853 H 167.693 -5.26759 2.26269 0
M  V30 1854 H 166.09 -5.16944 3.04776 0
M  V30 1855 H 167.16 -3.75603 3.06677 0
M  V30 1856 N 168.503 -0.877838 -1.30888 0
M  V30 1857 C 169.433 -0.35534 -2.3078 0
M  V30 1858 C 170.414 0.557994 -1.60687 0
M  V30 1859 O 171.599 0.473355 -1.88343 0
M  V30 1860 C 168.729 0.437221 -3.44537 0
M  V30 1861 C 167.683 -0.383715 -4.26276 0
M  V30 1862 C 167.009 0.535014 -5.32017 0
M  V30 1863 C 168.309 -1.62201 -4.96476 0
M  V30 1864 H 170.003 -1.19007 -2.74732 0
M  V30 1865 H 167.549 -0.573698 -1.32078 0
M  V30 1866 H 169.502 0.813334 -4.13477 0
M  V30 1867 H 168.226 1.30553 -2.99372 0
M  V30 1868 H 166.885 -0.741874 -3.59015 0
M  V30 1869 H 166.533 1.40083 -4.831 0
M  V30 1870 H 166.233 -0.0104211 -5.87599 0
M  V30 1871 H 167.757 0.907799 -6.03814 0
M  V30 1872 H 169.171 -1.31689 -5.5797 0
M  V30 1873 H 167.568 -2.10711 -5.61891 0
M  V30 1874 H 168.638 -2.37044 -4.23011 0
M  V30 1875 N 169.982 1.44106 -0.638065 0
M  V30 1876 C 170.929 2.30715 0.062701 0
M  V30 1877 C 171.899 1.43882 0.829883 0
M  V30 1878 O 173.084 1.72775 0.809532 0
M  V30 1879 C 170.224 3.29258 1.03358 0
M  V30 1880 C 169.337 4.31192 0.26409 0
M  V30 1881 C 168.472 5.16825 1.22741 0
M  V30 1882 C 167.511 6.10462 0.447475 0
M  V30 1883 N 166.648 6.8877 1.36161 0
M  V30 1884 H 171.488 2.90096 -0.681781 0
M  V30 1885 H 169.025 1.42925 -0.347988 0
M  V30 1886 H 170.983 3.84886 1.60992 0
M  V30 1887 H 169.613 2.71562 1.74511 0
M  V30 1888 H 168.665 3.77981 -0.428295 0
M  V30 1889 H 169.977 4.97619 -0.343052 0
M  V30 1890 H 169.131 5.77004 1.87487 0
M  V30 1891 H 167.87 4.50488 1.86847 0
M  V30 1892 H 166.875 5.49386 -0.213433 0
M  V30 1893 H 168.1 6.78837 -0.188968 0
M  V30 1894 H 166.046 6.25096 1.98975 0
M  V30 1895 H 165.963 7.51663 0.808656 0
M  V30 1896 H 167.231 7.53467 1.99769 0
M  V30 1897 N 171.46 0.379036 1.52974 0
M  V30 1898 C 172.423 -0.448865 2.24762 0
M  V30 1899 C 173.423 -0.998689 1.26027 0
M  V30 1900 O 174.613 -0.882313 1.50203 0
M  V30 1901 C 171.745 -1.62872 2.99476 0
M  V30 1902 H 172.938 0.179491 2.99362 0
M  V30 1903 H 170.491 0.13096 1.5575 0
M  V30 1904 H 171.226 -2.29479 2.29151 0
M  V30 1905 H 171.011 -1.24128 3.71934 0
M  V30 1906 H 172.501 -2.2151 3.5401 0
M  V30 1907 N 172.938 -1.57226 0.108567 0
M  V30 1908 C 173.885 -2.14756 -0.845481 0
M  V30 1909 C 174.855 -1.06971 -1.27068 0
M  V30 1910 O 176.04 -1.34827 -1.35005 0
M  V30 1911 C 173.18 -2.74298 -2.09415 0
M  V30 1912 C 172.293 -3.96358 -1.71826 0
M  V30 1913 C 171.428 -4.44021 -2.9158 0
M  V30 1914 C 170.467 -5.58637 -2.50181 0
M  V30 1915 N 169.604 -6.01091 -3.62814 0
M  V30 1916 H 174.444 -2.95961 -0.348035 0
M  V30 1917 H 171.981 -1.46226 -0.160106 0
M  V30 1918 H 173.939 -3.06945 -2.82561 0
M  V30 1919 H 172.569 -1.95801 -2.56636 0
M  V30 1920 H 171.621 -3.69939 -0.885947 0
M  V30 1921 H 172.933 -4.79504 -1.37394 0
M  V30 1922 H 172.087 -4.78522 -3.72963 0
M  V30 1923 H 170.826 -3.59803 -3.29231 0
M  V30 1924 H 169.831 -5.23751 -1.67228 0
M  V30 1925 H 171.056 -6.44613 -2.13659 0
M  V30 1926 H 169.002 -5.19817 -4.00158 0
M  V30 1927 H 168.919 -6.79066 -3.32273 0
M  V30 1928 H 170.187 -6.40227 -4.44668 0
M  V30 1929 N 174.416 0.165178 -1.56732 0
M  V30 1930 C 175.349 1.23336 -1.91998 0
M  V30 1931 C 176.327 1.42476 -0.783531 0
M  V30 1932 O 177.511 1.57384 -1.03743 0
M  V30 1933 C 174.638 2.59533 -2.17625 0
M  V30 1934 C 173.684 2.57093 -3.40302 0
M  V30 1935 S 174.517 2.05571 -4.9447 0
M  V30 1936 C 175.673 3.43532 -5.23198 0
M  V30 1937 H 175.906 0.932387 -2.82301 0
M  V30 1938 H 173.439 0.370013 -1.49901 0
M  V30 1939 H 175.397 3.37918 -2.3307 0
M  V30 1940 H 174.058 2.86827 -1.28019 0
M  V30 1941 H 173.251 3.57308 -3.55453 0
M  V30 1942 H 172.853 1.86806 -3.24005 0
M  V30 1943 H 175.145 4.39559 -5.15552 0
M  V30 1944 H 176.088 3.33251 -6.2478 0
M  V30 1945 H 176.496 3.39828 -4.50752 0
M  V30 1946 N 175.894 1.51508 0.433938 0
M  V30 1947 C 177.171 1.54888 1.19453 0
M  V30 1948 C 177.551 0.315154 2.08734 0
M  V30 1949 O 176.899 -0.699558 2.17528 0
M  V30 1950 C 177.109 2.86467 1.99342 0
M  V30 1951 C 178.457 3.38545 2.56267 0
M  V30 1952 O 179.481 2.88041 2.0955 0
M  V30 1953 O 178.34 4.26675 3.41483 0
M  V30 1954 H 175.434 0.622863 0.544032 0
M  V30 1955 H 177.98 1.63823 0.442732 0
M  V30 1956 H 176.752 3.67718 1.33788 0
M  V30 1957 H 176.375 2.8071 2.8158 0
M  V30 1958 N 177.372 -0.689602 1.41712 0
M  V30 1959 C 178.335 -1.78521 1.43746 0
M  V30 1960 C 179.335 -1.57436 0.327191 0
M  V30 1961 O 180.525 -1.64 0.587348 0
M  V30 1962 C 177.657 -3.16971 1.25467 0
M  V30 1963 H 178.85 -1.78108 2.41283 0
M  V30 1964 H 176.403 -0.89781 1.27942 0
M  V30 1965 H 177.138 -3.23019 0.287948 0
M  V30 1966 H 176.923 -3.33678 2.05917 0
M  V30 1967 H 178.413 -3.96935 1.2974 0
M  V30 1968 N 178.85 -1.27639 -0.924453 0
M  V30 1969 C 179.76 -1.12466 -2.05885 0
M  V30 1970 C 180.776 -0.053869 -1.73917 0
M  V30 1971 O 181.952 -0.261012 -1.99702 0
M  V30 1972 C 179.017 -0.776768 -3.37886 0
M  V30 1973 C 178.078 -1.92878 -3.83532 0
M  V30 1974 C 177.311 -1.59739 -5.09234 0
M  V30 1975 O 177.534 -0.506782 -5.68144 0
M  V30 1976 O 176.468 -2.43761 -5.50331 0
M  V30 1977 H 180.294 -2.07671 -2.21599 0
M  V30 1978 H 177.879 -1.06857 -1.04413 0
M  V30 1979 H 179.761 -0.596229 -4.17161 0
M  V30 1980 H 178.436 0.145732 -3.23372 0
M  V30 1981 H 177.343 -2.1644 -3.0513 0
M  V30 1982 H 178.676 -2.8316 -4.02593 0
M  V30 1983 N 180.328 1.1314 -1.09713 0
M  V30 1984 C 181.26 2.18343 -0.697056 0
M  V30 1985 C 182.273 1.60669 0.262551 0
M  V30 1986 O 183.462 1.78435 0.0481527 0
M  V30 1987 C 180.562 3.38899 -0.00684728 0
M  V30 1988 C 179.735 4.26078 -0.988741 0
M  V30 1989 C 178.794 5.25155 -0.331394 0
M  V30 1990 O 177.82 5.60701 -0.979926 0
M  V30 1991 N 179.022 5.73271 0.913261 0
M  V30 1992 H 181.787 2.5328 -1.60216 0
M  V30 1993 H 179.348 1.28491 -0.984971 0
M  V30 1994 H 181.34 4.02255 0.444191 0
M  V30 1995 H 179.91 3.02175 0.800551 0
M  V30 1996 H 179.13 3.59453 -1.61826 0
M  V30 1997 H 180.418 4.81178 -1.65364 0
M  V30 1998 H 179.816 5.46544 1.45966 0
M  V30 1999 H 178.373 6.3855 1.30757 0
M  V30 2000 N 181.806 0.884767 1.30421 0
M  V30 2001 C 183.083 0.423185 1.90967 0
M  V30 2002 C 183.463 -1.09605 1.80416 0
M  V30 2003 O 182.811 -1.93126 1.22125 0
M  V30 2004 C 183.021 0.921056 3.36627 0
M  V30 2005 C 184.369 0.955903 4.137 0
M  V30 2006 O 185.393 0.867706 3.4547 0
M  V30 2007 O 184.252 1.08614 5.35598 0
M  V30 2008 H 181.346 0.129369 0.816819 0
M  V30 2009 H 183.892 0.973653 1.3899 0
M  V30 2010 H 182.664 1.96489 3.3839 0
M  V30 2011 H 182.287 0.349741 3.96059 0
M  V30 2012 N 183.284 -1.43765 0.645699 0
M  V30 2013 C 184.695 -1.85193 0.236719 0
M  V30 2014 C 185.046 -1.54045 -1.21509 0
M  V30 2015 O 184.171 -0.985694 -1.92647 0
M  V30 2016 C 184.766 -3.36151 0.422845 0
M  V30 2017 C 183.325 -3.76338 0.0682492 0
M  V30 2018 C 182.472 -2.67538 0.729306 0
M  V30 2019 H 185.423 -1.34025 0.849883 0
M  V30 2020 H 185.444 -3.79032 -0.333904 0
M  V30 2021 H 184.956 -3.5879 1.47958 0
M  V30 2022 H 183.057 -3.59312 -0.986179 0
M  V30 2023 H 183.17 -4.76603 0.488469 0
M  V30 2024 H 181.534 -2.54176 0.163235 0
M  V30 2025 H 182.317 -2.93006 1.78892 0
M  V30 2026 N 184.763 -0.387143 -1.52771 0
M  V30 2027 C 185.711 0.463953 -2.27926 0
M  V30 2028 C 186.705 1.06493 -1.31741 0
M  V30 2029 O 187.911 1.00565 -1.49287 0
M  V30 2030 H 184.286 0.16837 -0.732909 0
M  V30 2031 H 186.257 -0.19141 -2.97785 0
M  V30 2032 C 185.006 1.5803 -3.09713 0
M  V30 2033 H 184.329 1.12718 -3.83581 0
M  V30 2034 H 185.769 2.15008 -3.65442 0
M  V30 2035 C 184.228 2.53509 -2.2189 0
M  V30 2036 O 184.758 3.56863 -1.84422 0
M  V30 2037 N 182.964 2.23199 -1.86093 0
M  V30 2038 H 182.511 1.39185 -2.16761 0
M  V30 2039 H 182.469 2.87333 -1.27621 0
M  V30 2040 N 186.241 1.57166 -0.116904 0
M  V30 2041 C 187.487 1.95412 0.542405 0
M  V30 2042 C 187.82 1.00019 1.66463 0
M  V30 2043 O 187.095 0.0370346 1.94465 0
M  V30 2044 C 187.378 3.43615 1.07708 0
M  V30 2045 C 187.231 4.49781 -0.0415868 0
M  V30 2046 C 188.55 3.93616 1.96861 0
M  V30 2047 H 185.669 0.710543 0.195696 0
M  V30 2048 H 188.311 1.89027 -0.192038 0
M  V30 2049 H 186.461 3.49187 1.70296 0
M  V30 2050 H 188.133 4.56308 -0.676793 0
M  V30 2051 H 186.376 4.28033 -0.705019 0
M  V30 2052 H 187.047 5.50733 0.373717 0
M  V30 2053 H 189.523 3.90335 1.44146 0
M  V30 2054 H 188.399 4.97838 2.3119 0
M  V30 2055 H 188.66 3.34188 2.89432 0
M  V30 2056 N 187.719 -0.156864 1.56817 0
M  V30 2057 C 188.651 -1.21883 1.94106 0
M  V30 2058 C 189.664 -1.3971 0.835754 0
M  V30 2059 O 190.853 -1.39457 1.11418 0
M  V30 2060 C 187.953 -2.58527 2.19127 0
M  V30 2061 C 187.126 -2.61809 3.50393 0
M  V30 2062 C 186.185 -3.7992 3.64071 0
M  V30 2063 O 185.211 -3.65249 4.36557 0
M  V30 2064 N 186.413 -4.96973 2.99997 0
M  V30 2065 H 189.178 -0.901974 2.85805 0
M  V30 2066 H 186.739 -0.346513 1.58148 0
M  V30 2067 H 188.731 -3.36034 2.25529 0
M  V30 2068 H 187.301 -2.82545 1.33742 0
M  V30 2069 H 186.521 -1.7029 3.5552 0
M  V30 2070 H 187.809 -2.61024 4.36742 0
M  V30 2071 H 187.207 -5.11794 2.41004 0
M  V30 2072 H 185.764 -5.7229 3.11974 0
M  V30 2073 N 189.197 -1.51736 -0.425897 0
M  V30 2074 C 190.443 -1.65214 -1.1761 0
M  V30 2075 C 190.776 -0.372778 -1.90589 0
M  V30 2076 O 190.051 0.628139 -1.84078 0
M  V30 2077 C 190.334 -2.86312 -2.18398 0
M  V30 2078 C 190.187 -4.24254 -1.49426 0
M  V30 2079 C 191.506 -3.02925 -3.19256 0
M  V30 2080 H 188.625 -0.601263 -0.426206 0
M  V30 2081 H 191.267 -1.8425 -0.463882 0
M  V30 2082 H 189.417 -2.70213 -2.79137 0
M  V30 2083 H 191.089 -4.52046 -0.919362 0
M  V30 2084 H 189.332 -4.26426 -0.796432 0
M  V30 2085 H 190.003 -5.05001 -2.22885 0
M  V30 2086 H 192.479 -3.1781 -2.68581 0
M  V30 2087 H 191.355 -3.89199 -3.8706 0
M  V30 2088 H 191.616 -2.15497 -3.86023 0
M  V30 2089 N 190.675 0.682077 -1.42076 0
M  V30 2090 C 191.952 1.43755 -1.32642 0
M  V30 2091 C 192.332 2.11063 0.0396611 0
M  V30 2092 O 191.68 2.02701 1.05474 0
M  V30 2093 C 191.89 2.44596 -2.48946 0
M  V30 2094 C 193.238 3.09454 -2.9073 0
M  V30 2095 O 194.262 2.54922 -2.48783 0
M  V30 2096 O 193.121 4.08253 -3.63307 0
M  V30 2097 H 190.215 0.640857 -0.522715 0
M  V30 2098 H 192.761 0.711415 -1.54068 0
M  V30 2099 H 191.533 1.93609 -3.40046 0
M  V30 2100 H 191.156 3.24701 -2.29467 0
M  V30 2101 N 192.153 1.28127 0.917671 0
M  V30 2102 C 193.103 1.08361 2.00604 0
M  V30 2103 C 194.087 0.00847518 1.60898 0
M  V30 2104 O 195.279 0.228167 1.75523 0
M  V30 2105 C 192.408 0.743376 3.35155 0
M  V30 2106 C 191.494 1.85716 3.81275 0
M  V30 2107 N 191.885 3.09822 3.99805 0
M  V30 2108 C 190.183 1.74612 4.10398 0
M  V30 2109 C 190.884 3.82368 4.38372 0
M  V30 2110 N 189.86 3.10192 4.4641 0
M  V30 2111 H 193.662 2.02531 2.12975 0
M  V30 2112 H 191.176 1.18989 1.10523 0
M  V30 2113 H 193.173 0.582859 4.12805 0
M  V30 2114 H 191.833 -0.190595 3.2414 0
M  V30 2115 H 192.844 3.45475 3.85833 0
M  V30 2116 H 189.521 0.883657 4.08041 0
M  V30 2117 H 190.911 4.89082 4.60704 0
M  V30 2118 N 193.631 -1.12557 1.10312 0
M  V30 2119 C 194.561 -2.20341 0.772798 0
M  V30 2120 C 195.542 -1.68198 -0.25365 0
M  V30 2121 O 196.727 -1.93831 -0.119699 0
M  V30 2122 C 193.857 -3.46709 0.202443 0
M  V30 2123 C 192.811 -4.11996 1.15943 0
M  V30 2124 C 192.137 -5.328 0.450345 0
M  V30 2125 C 193.437 -4.5828 2.50552 0
M  V30 2126 H 195.131 -2.48229 1.674 0
M  V30 2127 H 192.677 -1.19308 0.806326 0
M  V30 2128 H 194.63 -4.2138 -0.0407752 0
M  V30 2129 H 193.354 -3.18245 -0.734001 0
M  V30 2130 H 192.013 -3.39305 1.38808 0
M  V30 2131 H 191.661 -5.00602 -0.490531 0
M  V30 2132 H 191.361 -5.7743 1.08851 0
M  V30 2133 H 192.885 -6.10219 0.215642 0
M  V30 2134 H 194.299 -5.2433 2.31843 0
M  V30 2135 H 192.696 -5.13683 3.10242 0
M  V30 2136 H 193.766 -3.72329 3.10643 0
M  V30 2137 N 195.109 -0.891671 -1.2995 0
M  V30 2138 C 196.057 -0.353066 -2.29905 0
M  V30 2139 C 197.051 0.543509 -1.60444 0
M  V30 2140 O 198.257 0.4272 -1.74857 0
M  V30 2141 H 194.632 -0.095531 -0.745907 0
M  V30 2142 H 196.603 -1.20961 -2.72784 0
M  V30 2143 C 195.352 0.411475 -3.45257 0
M  V30 2144 H 194.675 -0.269182 -3.98893 0
M  V30 2145 H 196.115 0.753328 -4.17254 0
M  V30 2146 C 194.574 1.6111 -2.9588 0
M  V30 2147 O 195.104 2.71045 -2.96475 0
M  V30 2148 N 193.31 1.45054 -2.51809 0
M  V30 2149 H 192.857 0.556175 -2.51524 0
M  V30 2150 H 192.815 2.25453 -2.1913 0
M  V30 2151 N 196.587 1.43421 -0.653314 0
M  V30 2152 C 197.517 2.33487 0.0246656 0
M  V30 2153 C 198.498 1.49475 0.811863 0
M  V30 2154 O 199.683 1.78139 0.773322 0
M  V30 2155 C 196.813 3.32841 0.99166 0
M  V30 2156 C 195.767 4.26842 0.314568 0
M  V30 2157 C 195.093 5.16236 1.39302 0
M  V30 2158 C 196.393 5.16243 -0.793095 0
M  V30 2159 H 198.087 2.90427 -0.727481 0
M  V30 2160 H 195.633 1.39649 -0.351287 0
M  V30 2161 H 197.586 3.94747 1.47487 0
M  V30 2162 H 196.31 2.74158 1.77497 0
M  V30 2163 H 194.969 3.663 -0.148199 0
M  V30 2164 H 194.617 4.53891 2.16776 0
M  V30 2165 H 194.317 5.79948 0.945223 0
M  V30 2166 H 195.841 5.81015 1.87759 0
M  V30 2167 H 197.255 5.71958 -0.392039 0
M  V30 2168 H 195.652 5.88676 -1.16536 0
M  V30 2169 H 196.722 4.55927 -1.65103 0
M  V30 2170 N 198.065 0.39524 1.52563 0
M  V30 2171 C 198.995 -0.428384 2.29537 0
M  V30 2172 C 199.976 -1.05831 1.33169 0
M  V30 2173 O 201.161 -1.06995 1.62067 0
M  V30 2174 C 198.291 -1.55274 3.10656 0
M  V30 2175 C 197.245 -1.04855 4.14957 0
M  V30 2176 C 196.571 -2.26543 4.84337 0
M  V30 2177 C 197.871 -0.112324 5.22179 0
M  V30 2178 H 199.565 0.213867 2.98635 0
M  V30 2179 H 197.111 0.104298 1.43622 0
M  V30 2180 H 199.064 -2.1358 3.63265 0
M  V30 2181 H 197.788 -2.22266 2.39302 0
M  V30 2182 H 196.447 -0.487985 3.63338 0
M  V30 2183 H 196.095 -2.92059 4.09525 0
M  V30 2184 H 195.795 -1.93466 5.54837 0
M  V30 2185 H 197.319 -2.85481 5.39753 0
M  V30 2186 H 198.733 -0.603752 5.70112 0
M  V30 2187 H 197.13 0.128968 5.99961 0
M  V30 2188 H 198.2 0.837052 4.77621 0
M  V30 2189 N 199.544 -1.57102 0.125237 0
M  V30 2190 C 200.491 -2.15641 -0.822655 0
M  V30 2191 C 201.461 -1.08313 -1.25927 0
M  V30 2192 O 202.646 -1.36251 -1.33567 0
M  V30 2193 C 199.786 -2.76504 -2.06494 0
M  V30 2194 C 198.899 -3.98158 -1.67612 0
M  V30 2195 C 198.034 -4.47088 -2.86854 0
M  V30 2196 C 197.073 -5.6126 -2.44242 0
M  V30 2197 N 196.21 -6.04905 -3.56419 0
M  V30 2198 H 201.05 -2.96313 -0.316625 0
M  V30 2199 H 198.587 -1.46388 -0.144588 0
M  V30 2200 H 200.545 -3.09925 -2.79289 0
M  V30 2201 H 199.175 -1.98512 -2.54545 0
M  V30 2202 H 198.227 -3.70858 -0.846661 0
M  V30 2203 H 199.539 -4.80934 -1.32301 0
M  V30 2204 H 198.693 -4.82451 -3.67867 0
M  V30 2205 H 197.432 -3.63275 -3.25396 0
M  V30 2206 H 196.437 -5.25495 -1.61663 0
M  V30 2207 H 197.662 -6.46843 -2.0681 0
M  V30 2208 H 195.608 -5.24032 -3.94623 0
M  V30 2209 H 195.525 -6.82552 -3.25051 0
M  V30 2210 H 196.793 -6.44907 -4.37853 0
M  V30 2211 N 201.022 0.148545 -1.56898 0
M  V30 2212 C 201.954 1.20852 -1.9475 0
M  V30 2213 C 202.967 1.39265 -0.843152 0
M  V30 2214 O 204.156 1.38864 -1.12156 0
M  V30 2215 C 201.256 2.57362 -2.20495 0
M  V30 2216 C 200.429 2.59947 -3.51776 0
M  V30 2217 C 199.488 3.77984 -3.6608 0
M  V30 2218 O 198.514 3.62929 -4.38487 0
M  V30 2219 N 199.716 4.95375 -3.02629 0
M  V30 2220 H 202.481 0.886804 -2.86279 0
M  V30 2221 H 200.042 0.338121 -1.5833 0
M  V30 2222 H 202.034 3.34833 -2.27307 0
M  V30 2223 H 200.604 2.81832 -1.35238 0
M  V30 2224 H 199.824 1.68403 -3.56419 0
M  V30 2225 H 201.112 2.58704 -4.38121 0
M  V30 2226 H 200.51 5.10509 -2.43715 0
M  V30 2227 H 199.067 5.70627 -3.15004 0
M  V30 2228 N 202.5 1.5196 0.417844 0
M  V30 2229 C 203.747 1.65591 1.16559 0
M  V30 2230 C 204.075 0.381565 1.90721 0
M  V30 2231 O 203.33 -0.635156 1.85106 0
M  V30 2232 C 203.629 2.82269 2.19223 0
M  V30 2233 C 203.295 4.20819 1.61933 0
M  V30 2234 C 201.957 4.58506 1.46033 0
M  V30 2235 C 204.309 5.07196 1.20008 0
M  V30 2236 C 201.637 5.80257 0.867113 0
M  V30 2237 C 203.989 6.29544 0.621086 0
M  V30 2238 C 202.653 6.65987 0.449144 0
M  V30 2239 H 201.923 0.605939 0.42652 0
M  V30 2240 H 204.57 1.86041 0.45397 0
M  V30 2241 H 202.875 2.56118 2.96498 0
M  V30 2242 H 204.572 2.90012 2.76936 0
M  V30 2243 H 201.162 3.91116 1.7529 0
M  V30 2244 H 205.346 4.7867 1.31105 0
M  V30 2245 H 200.602 6.07124 0.721833 0
M  V30 2246 H 204.776 6.95805 0.287798 0
M  V30 2247 H 202.403 7.60199 -0.012632 0
M  V30 2248 N 203.978 -0.674533 1.42435 0
M  V30 2249 C 204.888 -1.81751 1.48337 0
M  V30 2250 C 205.904 -1.69975 0.372099 0
M  V30 2251 O 207.08 -1.91521 0.62304 0
M  V30 2252 C 204.145 -3.17895 1.38361 0
M  V30 2253 C 203.206 -3.41625 2.59982 0
M  V30 2254 C 202.439 -4.71274 2.50473 0
M  V30 2255 O 202.662 -5.49197 1.54075 0
M  V30 2256 O 201.596 -4.96254 3.4061 0
M  V30 2257 H 205.422 -1.79728 2.44809 0
M  V30 2258 H 203.007 -0.830312 1.24202 0
M  V30 2259 H 204.889 -3.99136 1.35161 0
M  V30 2260 H 203.564 -3.20555 0.450144 0
M  V30 2261 H 202.471 -2.60231 2.68757 0
M  V30 2262 H 203.804 -3.43796 3.52229 0
M  V30 2263 N 205.456 -1.28612 -0.910864 0
M  V30 2264 C 206.406 -1.09423 -2.00026 0
M  V30 2265 C 207.39 -0.0170079 -1.60891 0
M  V30 2266 O 208.582 -0.237472 -1.754 0
M  V30 2267 C 205.711 -0.76114 -3.34756 0
M  V30 2268 C 204.797 -1.87735 -3.80285 0
M  V30 2269 N 205.188 -3.11938 -3.98156 0
M  V30 2270 C 203.486 -1.76786 -4.09467 0
M  V30 2271 C 204.187 -3.84687 -4.36338 0
M  V30 2272 N 203.163 -3.12555 -4.44759 0
M  V30 2273 H 206.965 -2.03658 -2.11898 0
M  V30 2274 H 204.479 -1.19573 -1.09891 0
M  V30 2275 H 206.476 -0.604743 -4.12491 0
M  V30 2276 H 205.136 0.173403 -3.24237 0
M  V30 2277 H 206.147 -3.47516 -3.83996 0
M  V30 2278 H 202.824 -0.905284 -4.07567 0
M  V30 2279 H 204.214 -4.91518 -4.58104 0
M  V30 2280 N 206.934 1.1197 -1.10907 0
M  V30 2281 C 207.864 2.19928 -0.784473 0
M  V30 2282 C 208.845 1.6833 0.244726 0
M  V30 2283 O 210.03 1.93892 0.109418 0
M  V30 2284 C 207.16 3.46597 -0.220827 0
M  V30 2285 C 206.114 4.11376 -1.18127 0
M  V30 2286 C 205.44 5.32554 -0.478594 0
M  V30 2287 C 206.74 4.56945 -2.52979 0
M  V30 2288 H 208.434 2.47337 -1.68715 0
M  V30 2289 H 205.98 1.18879 -0.812642 0
M  V30 2290 H 207.933 4.21396 0.0184278 0
M  V30 2291 H 206.657 3.1863 0.717113 0
M  V30 2292 H 205.316 3.38564 -1.40606 0
M  V30 2293 H 204.964 5.00856 0.463976 0
M  V30 2294 H 204.664 5.76844 -1.11912 0
M  V30 2295 H 206.188 6.10096 -0.248 0
M  V30 2296 H 207.602 5.23093 -2.3462 0
M  V30 2297 H 205.999 5.1203 -3.12962 0
M  V30 2298 H 207.069 3.70676 -3.12614 0
M  V30 2299 N 208.412 0.89855 1.29475 0
M  V30 2300 C 209.689 0.443416 1.90508 0
M  V30 2301 C 210.069 -1.07685 1.81569 0
M  V30 2302 O 209.417 -1.9182 1.24166 0
M  V30 2303 C 209.627 0.956708 3.35631 0
M  V30 2304 C 210.975 0.999728 4.12663 0
M  V30 2305 O 211.999 0.904299 3.4453 0
M  V30 2306 O 210.858 1.14289 5.34416 0
M  V30 2307 H 207.952 0.138025 0.815401 0
M  V30 2308 H 210.498 0.98834 1.37949 0
M  V30 2309 H 209.27 2.00067 3.36287 0
M  V30 2310 H 208.893 0.391728 3.95666 0
M  V30 2311 N 209.89 -1.43072 0.660911 0
M  V30 2312 C 211.301 -1.84932 0.256348 0
M  V30 2313 C 211.652 -1.55325 -1.19868 0
M  V30 2314 O 210.777 -1.00607 -1.91591 0
M  V30 2315 C 211.372 -3.35684 0.458475 0
M  V30 2316 C 209.931 -3.76245 0.108161 0
M  V30 2317 C 209.078 -2.66749 0.757641 0
M  V30 2318 H 212.029 -1.33116 0.864051 0
M  V30 2319 H 212.05 -3.79365 -0.293683 0
M  V30 2320 H 211.562 -3.572 1.51755 0
M  V30 2321 H 209.663 -3.60338 -0.948014 0
M  V30 2322 H 209.776 -4.76058 0.538992 0
M  V30 2323 H 208.14 -2.53989 0.190185 0
M  V30 2324 H 208.923 -2.91092 1.81989 0
M  V30 2325 N 211.368 -0.403325 -1.52352 0
M  V30 2326 C 212.3 0.4603 -2.2453 0
M  V30 2327 C 213.313 1.01505 -1.27282 0
M  V30 2328 O 214.502 0.914982 -1.53266 0
M  V30 2329 C 211.602 1.65208 -2.95905 0
M  V30 2330 C 210.775 1.22224 -4.19976 0
M  V30 2331 C 209.834 2.28028 -4.74226 0
M  V30 2332 O 208.86 1.88857 -5.36956 0
M  V30 2333 N 210.062 3.6012 -4.55295 0
M  V30 2334 H 212.827 -0.158156 -2.99282 0
M  V30 2335 H 210.388 -0.230402 -1.60252 0
M  V30 2336 H 212.38 2.35541 -3.29093 0
M  V30 2337 H 210.95 2.17658 -2.24374 0
M  V30 2338 H 210.17 0.34725 -3.92668 0
M  V30 2339 H 211.458 0.911924 -5.00561 0
M  V30 2340 H 210.856 3.94698 -4.05253 0
M  V30 2341 H 209.413 4.26447 -4.92936 0
M  V30 2342 N 212.846 1.57033 -0.133567 0
M  V30 2343 C 213.794 2.17348 0.828412 0
M  V30 2344 C 214.788 1.12671 1.26498 0
M  V30 2345 O 215.994 1.30947 1.23502 0
M  V30 2346 H 212.369 0.695775 0.285309 0
M  V30 2347 H 214.34 2.96935 0.295372 0
M  V30 2348 C 213.089 2.79893 2.06289 0
M  V30 2349 H 212.412 3.60147 1.73592 0
M  V30 2350 H 213.852 3.25615 2.71572 0
M  V30 2351 C 212.311 1.77713 2.86216 0
M  V30 2352 O 212.841 1.23937 3.82103 0
M  V30 2353 N 211.047 1.47321 2.50489 0
M  V30 2354 H 210.594 1.91243 1.7258 0
M  V30 2355 H 210.552 0.79199 3.04261 0
M  V30 2356 N 214.325 -0.140222 1.56975 0
M  V30 2357 C 215.257 -1.19818 1.95388 0
M  V30 2358 C 216.27 -1.38816 0.850525 0
M  V30 2359 O 217.459 -1.38267 1.12891 0
M  V30 2360 C 214.559 -2.56189 2.21857 0
M  V30 2361 C 213.732 -2.58077 3.5315 0
M  V30 2362 C 212.791 -3.76037 3.6808 0
M  V30 2363 O 211.817 -3.60598 4.40406 0
M  V30 2364 N 213.019 -4.93763 3.05251 0
M  V30 2365 H 215.784 -0.871609 2.86746 0
M  V30 2366 H 213.345 -0.32972 1.58507 0
M  V30 2367 H 215.337 -3.33623 2.2908 0
M  V30 2368 H 213.907 -2.81111 1.36731 0
M  V30 2369 H 213.127 -1.6651 3.57307 0
M  V30 2370 H 214.415 -2.56377 4.39486 0
M  V30 2371 H 213.813 -5.09209 2.46419 0
M  V30 2372 H 212.37 -5.68949 3.18026 0
M  V30 2373 N 215.803 -1.52179 -0.40978 0
M  V30 2374 C 216.753 -1.71857 -1.49831 0
M  V30 2375 C 217.737 -0.572469 -1.50372 0
M  V30 2376 O 218.929 -0.829509 -1.56359 0
M  V30 2377 C 216.058 -1.87206 -2.87765 0
M  V30 2378 C 215.144 -3.07685 -2.91875 0
M  V30 2379 N 215.535 -4.30403 -2.65683 0
M  V30 2380 C 213.833 -3.07505 -3.23043 0
M  V30 2381 C 214.534 -5.11868 -2.76344 0
M  V30 2382 N 213.51 -4.47101 -3.09195 0
M  V30 2383 H 217.312 -2.64381 -1.28375 0
M  V30 2384 H 214.826 -1.50203 -0.617479 0
M  V30 2385 H 216.823 -1.99419 -3.66111 0
M  V30 2386 H 215.483 -0.958814 -3.10221 0
M  V30 2387 H 216.494 -4.58887 -2.4009 0
M  V30 2388 H 213.171 -2.25915 -3.51096 0
M  V30 2389 H 214.561 -6.19634 -2.59814 0
M  V30 2390 N 217.281 0.66697 -1.42791 0
M  V30 2391 C 218.509 1.45505 -1.47091 0
M  V30 2392 C 218.924 1.8861 -0.0845873 0
M  V30 2393 O 218.281 1.58632 0.90234 0
M  V30 2394 C 218.332 2.69906 -2.40485 0
M  V30 2395 O 218.053 2.28608 -3.73725 0
M  V30 2396 C 219.554 3.63396 -2.53886 0
M  V30 2397 H 216.774 0.447459 -0.500022 0
M  V30 2398 H 219.318 0.818866 -1.8739 0
M  V30 2399 H 217.473 3.29696 -2.03419 0
M  V30 2400 H 217.887 3.08997 -4.23817 0
M  V30 2401 H 219.361 4.47387 -3.2334 0
M  V30 2402 H 219.838 4.09824 -1.57927 0
M  V30 2403 H 220.444 3.09495 -2.91706 0
M  V30 2404 N 218.759 1.29093 0.90403 0
M  V30 2405 C 220.006 1.16813 1.65411 0
M  V30 2406 C 220.334 -0.28128 1.92455 0
M  V30 2407 O 219.589 -1.22006 1.53013 0
M  V30 2408 C 219.888 1.92224 3.01305 0
M  V30 2409 C 219.554 3.41968 2.93885 0
M  V30 2410 C 218.216 3.82807 2.91569 0
M  V30 2411 C 220.568 4.37409 2.83413 0
M  V30 2412 C 217.896 5.1741 2.76594 0
M  V30 2413 C 220.248 5.72097 2.69977 0
M  V30 2414 C 218.912 6.12199 2.66024 0
M  V30 2415 H 218.182 0.42745 0.605283 0
M  V30 2416 H 220.829 1.59981 1.05254 0
M  V30 2417 H 219.134 1.41635 3.65304 0
M  V30 2418 H 220.831 1.80131 3.58265 0
M  V30 2419 H 217.421 3.09504 2.96488 0
M  V30 2420 H 221.605 4.06813 2.84283 0
M  V30 2421 H 216.861 5.47596 2.71935 0
M  V30 2422 H 221.035 6.45704 2.60844 0
M  V30 2423 H 218.662 7.16448 2.54178 0
M  V30 2424 N 220.237 -1.11381 1.11499 0
M  V30 2425 C 221.147 -2.21019 0.786628 0
M  V30 2426 C 222.163 -1.72597 -0.220507 0
M  V30 2427 O 223.339 -2.01321 -0.0565251 0
M  V30 2428 C 220.404 -3.459 0.235333 0
M  V30 2429 C 219.465 -4.09107 1.30115 0
M  V30 2430 C 218.698 -5.28027 0.776068 0
M  V30 2431 O 218.921 -5.6904 -0.393661 0
M  V30 2432 O 217.855 -5.81835 1.54114 0
M  V30 2433 H 221.681 -2.51521 1.70209 0
M  V30 2434 H 219.266 -1.19928 0.890928 0
M  V30 2435 H 221.148 -4.21346 -0.067715 0
M  V30 2436 H 219.823 -3.17049 -0.652828 0
M  V30 2437 H 218.73 -3.35391 1.65722 0
M  V30 2438 H 220.063 -4.42139 2.16273 0
M  V30 2439 N 221.715 -0.905404 -1.28997 0
M  V30 2440 C 222.678 -0.392253 -2.25819 0
M  V30 2441 C 223.678 0.476753 -1.5357 0
M  V30 2442 O 224.868 0.280994 -1.71919 0
M  V30 2443 C 222 0.438588 -3.38067 0
M  V30 2444 H 223.193 -1.24743 -2.72725 0
M  V30 2445 H 220.746 -0.684051 -1.40536 0
M  V30 2446 H 221.481 1.31352 -2.96508 0
M  V30 2447 H 221.266 -0.184167 -3.91667 0
M  V30 2448 H 222.756 0.78873 -4.10084 0
M  V30 2449 N 223.193 1.4272 -0.668489 0
M  V30 2450 C 224.609 1.55992 -0.33745 0
M  V30 2451 C 224.809 1.64933 1.15756 0
M  V30 2452 O 223.865 1.61278 1.94282 0
M  V30 2453 C 225.178 2.81314 -1.06222 0
M  V30 2454 C 226.726 2.95078 -1.04394 0
M  V30 2455 C 227.201 4.23252 -1.74991 0
M  V30 2456 N 228.692 4.3015 -1.71829 0
M  V30 2457 C 229.427 5.28127 -2.23315 0
M  V30 2458 N 228.923 6.32293 -2.83156 0
M  V30 2459 N 230.716 5.19882 -2.13726 0
M  V30 2460 H 222.867 1.3516 -1.63846 0
M  V30 2461 H 225.13 0.650174 -0.689912 0
M  V30 2462 H 224.836 2.80823 -2.11734 0
M  V30 2463 H 224.71 3.72012 -0.62344 0
M  V30 2464 H 227.097 2.951 0.0028244 0
M  V30 2465 H 227.178 2.05627 -1.52155 0
M  V30 2466 H 226.822 4.2399 -2.79633 0
M  V30 2467 H 226.752 5.11626 -1.24685 0
M  V30 2468 H 229.243 3.55499 -1.28175 0
M  V30 2469 H 229.556 7.03398 -3.20079 0
M  V30 2470 H 227.901 6.32873 -2.87223 0
M  V30 2471 H 231.092 4.37423 -1.66669 0
M  V30 2472 H 231.265 5.96077 -2.54158 0
M  V30 2473 N 224.671 0.411399 1.52136 0
M  V30 2474 C 225.948 -0.222308 1.94333 0
M  V30 2475 C 226.328 -1.6242 1.34844 0
M  V30 2476 O 225.676 -2.22384 0.525145 0
M  V30 2477 C 225.886 -0.226345 3.48265 0
M  V30 2478 C 227.234 -0.444592 4.22266 0
M  V30 2479 O 228.258 -0.305602 3.54887 0
M  V30 2480 O 227.117 -0.718749 5.41753 0
M  V30 2481 H 224.211 -0.143907 0.814383 0
M  V30 2482 H 226.757 0.467506 1.63133 0
M  V30 2483 H 225.529 0.75475 3.83952 0
M  V30 2484 H 225.152 -0.960163 3.85832 0
M  V30 2485 N 226.149 -1.5696 0.141893 0
M  V30 2486 C 227.079 -2.19516 -0.795936 0
M  V30 2487 C 228.06 -1.14187 -1.26077 0
M  V30 2488 O 229.245 -1.42511 -1.31925 0
M  V30 2489 C 226.375 -2.81272 -2.03723 0
M  V30 2490 C 225.329 -3.92384 -1.70936 0
M  V30 2491 C 224.655 -4.41052 -3.02287 0
M  V30 2492 C 225.955 -5.13403 -0.959954 0
M  V30 2493 H 227.649 -2.98138 -0.274596 0
M  V30 2494 H 225.195 -1.43406 -0.130636 0
M  V30 2495 H 227.148 -3.237 -2.69808 0
M  V30 2496 H 225.872 -1.99973 -2.58221 0
M  V30 2497 H 224.531 -3.50566 -1.07232 0
M  V30 2498 H 224.179 -3.56582 -3.54765 0
M  V30 2499 H 223.879 -5.15993 -2.81114 0
M  V30 2500 H 225.403 -4.86146 -3.69451 0
M  V30 2501 H 226.817 -5.52706 -1.52279 0
M  V30 2502 H 225.214 -5.94073 -0.848357 0
M  V30 2503 H 226.284 -4.84875 0.0492434 0
M  V30 2504 N 227.627 0.131896 -1.57047 0
M  V30 2505 C 228.537 1.1815 -2.02676 0
M  V30 2506 C 229.553 1.46113 -0.944824 0
M  V30 2507 O 230.729 1.57485 -1.25541 0
M  V30 2508 C 227.794 2.49139 -2.41103 0
M  V30 2509 C 226.855 2.28688 -3.63318 0
M  V30 2510 C 226.088 3.53431 -3.99903 0
M  V30 2511 O 226.311 4.60223 -3.36973 0
M  V30 2512 O 225.245 3.45198 -4.93074 0
M  V30 2513 H 229.071 0.824069 -2.92306 0
M  V30 2514 H 226.656 0.341745 -1.45439 0
M  V30 2515 H 228.538 3.26338 -2.66611 0
M  V30 2516 H 227.213 2.84382 -1.54624 0
M  V30 2517 H 226.12 1.4939 -3.42977 0
M  V30 2518 H 227.453 1.98355 -4.50462 0
M  V30 2519 N 229.106 1.52395 0.401703 0
M  V30 2520 C 230.036 1.79231 1.49661 0
M  V30 2521 C 231.017 0.643654 1.57452 0
M  V30 2522 O 232.202 0.889989 1.72606 0
M  V30 2523 C 229.332 1.94971 2.87409 0
M  V30 2524 C 228.286 3.10604 2.94465 0
M  V30 2525 C 227.612 3.11577 4.34538 0
M  V30 2526 C 228.912 4.49921 2.6527 0
M  V30 2527 H 230.606 2.70917 1.27454 0
M  V30 2528 H 228.152 1.30362 0.6117 0
M  V30 2529 H 230.105 2.12328 3.63999 0
M  V30 2530 H 228.829 0.999632 3.10926 0
M  V30 2531 H 227.488 2.93009 2.20321 0
M  V30 2532 H 227.136 2.14277 4.55076 0
M  V30 2533 H 226.836 3.89247 4.40183 0
M  V30 2534 H 228.36 3.31073 5.13053 0
M  V30 2535 H 229.774 4.67683 3.31581 0
M  V30 2536 H 228.171 5.29564 2.82281 0
M  V30 2537 H 229.241 4.57507 1.60671 0
M  V30 2538 N 230.584 -0.659388 1.43143 0
M  V30 2539 C 231.514 -1.78422 1.50625 0
M  V30 2540 C 232.495 -1.66216 0.361443 0
M  V30 2541 O 233.68 -1.85404 0.577834 0
M  V30 2542 C 230.81 -3.16815 1.42287 0
M  V30 2543 C 229.764 -3.43777 2.54954 0
M  V30 2544 C 229.09 -4.81905 2.31671 0
M  V30 2545 C 230.39 -3.39134 3.97222 0
M  V30 2546 H 232.084 -1.72417 2.44771 0
M  V30 2547 H 229.63 -0.828084 1.17808 0
M  V30 2548 H 231.583 -3.95253 1.46127 0
M  V30 2549 H 230.307 -3.23534 0.446435 0
M  V30 2550 H 228.966 -2.67707 2.50457 0
M  V30 2551 H 228.614 -4.85294 1.32284 0
M  V30 2552 H 228.314 -5.00906 3.07192 0
M  V30 2553 H 229.838 -5.62609 2.37284 0
M  V30 2554 H 231.252 -4.07518 4.03239 0
M  V30 2555 H 229.649 -3.69671 4.72719 0
M  V30 2556 H 230.719 -2.37426 4.22797 0
M  V30 2557 N 232.062 -1.29571 -0.897171 0
M  V30 2558 C 233.311 -1.1706 -1.64256 0
M  V30 2559 C 233.624 0.276476 -1.93636 0
M  V30 2560 O 234.83 0.52294 -2.66416 0
M  V30 2561 C 233.286 -2.0475 -2.95982 0
M  V30 2562 C 232.894 -3.54295 -2.74187 0
M  V30 2563 C 234.638 -2.0097 -3.73914 0
M  V30 2564 C 232.545 -4.34081 -4.01656 0
M  V30 2565 H 231.475 -0.43452 -0.616205 0
M  V30 2566 H 234.126 -1.54229 -0.994268 0
M  V30 2567 H 232.508 -1.60452 -3.62038 0
M  V30 2568 H 233.682 -4.06662 -2.1671 0
M  V30 2569 H 231.997 -3.59773 -2.09648 0
M  V30 2570 H 234.594 -2.57838 -4.68427 0
M  V30 2571 H 234.937 -0.990273 -4.0435 0
M  V30 2572 H 235.47 -2.43325 -3.14703 0
M  V30 2573 H 232.209 -5.36671 -3.76384 0
M  V30 2574 H 231.729 -3.86483 -4.58684 0
M  V30 2575 H 233.408 -4.44877 -4.69781 0
M  V30 2576 N 233.54 1.10788 -1.12088 0
M  V30 2577 C 234.472 2.16816 -0.743213 0
M  V30 2578 C 235.485 1.6119 0.228412 0
M  V30 2579 O 236.674 1.78497 0.0102931 0
M  V30 2580 C 233.774 3.38809 -0.0787313 0
M  V30 2581 C 232.947 4.23885 -1.0789 0
M  V30 2582 C 232.006 5.24334 -0.442713 0
M  V30 2583 O 231.032 5.58497 -1.09864 0
M  V30 2584 N 232.234 5.75079 0.791457 0
M  V30 2585 H 234.999 2.49825 -1.65552 0
M  V30 2586 H 232.56 1.26373 -1.012 0
M  V30 2587 H 234.552 4.03107 0.358766 0
M  V30 2588 H 233.122 3.03805 0.736275 0
M  V30 2589 H 232.342 3.55939 -1.69414 0
M  V30 2590 H 233.63 4.77562 -1.75533 0
M  V30 2591 H 233.028 5.49517 1.3434 0
M  V30 2592 H 231.585 6.4118 1.17183 0
M  V30 2593 N 235.018 0.912232 1.28515 0
M  V30 2594 C 236.246 0.560416 1.99166 0
M  V30 2595 C 236.661 -0.857927 1.68182 0
M  V30 2596 O 236.018 -1.56805 0.933733 0
M  V30 2597 C 236.069 0.758142 3.53461 0
M  V30 2598 O 235.79 2.12067 3.83352 0
M  V30 2599 C 237.291 0.412954 4.41372 0
M  V30 2600 H 234.511 0.213805 0.636026 0
M  V30 2601 H 237.055 1.22502 1.63749 0
M  V30 2602 H 235.21 0.140556 3.87145 0
M  V30 2603 H 235.624 2.15923 4.77993 0
M  V30 2604 H 237.098 0.60208 5.48707 0
M  V30 2605 H 237.575 -0.65073 4.34353 0
M  V30 2606 H 238.181 1.00802 4.13182 0
M  V30 2607 N 236.496 -1.42363 0.676048 0
M  V30 2608 C 237.459 -2.29199 0.00766941 0
M  V30 2609 C 238.459 -1.43389 -0.727745 0
M  V30 2610 O 239.649 -1.64764 -0.56556 0
M  V30 2611 C 236.781 -3.2591 -0.999785 0
M  V30 2612 H 237.974 -2.89794 0.771988 0
M  V30 2613 H 235.527 -1.50024 0.438468 0
M  V30 2614 H 236.262 -2.70256 -1.79255 0
M  V30 2615 H 236.047 -3.89202 -0.475829 0
M  V30 2616 H 237.537 -3.91028 -1.46583 0
M  V30 2617 N 237.974 -0.419461 -1.51915 0
M  V30 2618 C 239.202 0.152136 -2.0634 0
M  V30 2619 C 239.617 1.37988 -1.28859 0
M  V30 2620 O 238.974 1.79243 -0.343232 0
M  V30 2621 C 239.025 0.492266 -3.58133 0
M  V30 2622 O 238.746 -0.686736 -4.32684 0
M  V30 2623 C 240.247 1.11648 -4.2901 0
M  V30 2624 H 237.467 0.0158325 -0.670813 0
M  V30 2625 H 240.011 -0.593394 -1.95702 0
M  V30 2626 H 238.166 1.18769 -3.68745 0
M  V30 2627 H 238.58 -0.400341 -5.2297 0
M  V30 2628 H 240.054 1.3046 -5.36362 0
M  V30 2629 H 240.531 2.09251 -3.86148 0
M  V30 2630 H 241.137 0.460958 -4.22795 0
M  V30 2631 N 239.452 1.56882 -0.150215 0
M  V30 2632 C 240.868 1.58263 0.20617 0
M  V30 2633 C 241.068 1.16464 1.64434 0
M  V30 2634 O 240.124 0.866422 2.3717 0
M  V30 2635 C 241.437 3.00649 -0.0555025 0
M  V30 2636 C 242.985 3.12999 0.00795388 0
M  V30 2637 C 243.46 4.5744 -0.226429 0
M  V30 2638 N 244.951 4.62875 -0.173469 0
M  V30 2639 C 245.686 5.72454 -0.329288 0
M  V30 2640 N 245.182 6.90669 -0.543005 0
M  V30 2641 N 246.975 5.61467 -0.266666 0
M  V30 2642 H 239.126 1.82345 -1.08922 0
M  V30 2643 H 241.389 0.844149 -0.431413 0
M  V30 2644 H 241.095 3.3563 -1.05096 0
M  V30 2645 H 240.969 3.71337 0.66246 0
M  V30 2646 H 243.356 2.77857 0.993966 0
M  V30 2647 H 243.437 2.4479 -0.742388 0
M  V30 2648 H 243.081 4.93287 -1.20956 0
M  V30 2649 H 243.011 5.2378 0.544274 0
M  V30 2650 H 245.502 3.77898 -0.0130709 0
M  V30 2651 H 245.815 7.70045 -0.651922 0
M  V30 2652 H 244.16 6.92581 -0.579366 0
M  V30 2653 H 247.351 4.67992 -0.100441 0
M  V30 2654 H 247.524 6.46816 -0.391535 0
M  V30 2655 N 240.93 -0.123565 1.57115 0
M  V30 2656 C 242.207 -0.862196 1.75572 0
M  V30 2657 C 242.587 -1.98279 0.724475 0
M  V30 2658 O 241.935 -2.27102 -0.252407 0
M  V30 2659 C 242.145 -1.38309 3.20424 0
M  V30 2660 C 243.493 -1.83724 3.82793 0
M  V30 2661 O 244.517 -1.47999 3.23998 0
M  V30 2662 O 243.376 -2.49685 4.86127 0
M  V30 2663 H 240.47 -0.409113 0.718718 0
M  V30 2664 H 243.016 -0.107661 1.69358 0
M  V30 2665 H 241.788 -0.578889 3.86994 0
M  V30 2666 H 241.411 -2.20046 3.31158 0
M  V30 2667 N 242.408 -1.52605 -0.393616 0
M  V30 2668 C 243.338 -1.80022 -1.48709 0
M  V30 2669 C 244.319 -0.651995 -1.57108 0
M  V30 2670 O 245.504 -0.89913 -1.72132 0
M  V30 2671 C 242.634 -1.96492 -2.86371 0
M  V30 2672 C 241.588 -3.12161 -2.92813 0
M  V30 2673 C 240.914 -3.13877 -4.3288 0
M  V30 2674 C 242.214 -4.51322 -2.6288 0
M  V30 2675 H 243.908 -2.71589 -1.26015 0
M  V30 2676 H 241.454 -1.30684 -0.604778 0
M  V30 2677 H 243.407 -2.14255 -3.62867 0
M  V30 2678 H 242.131 -1.01611 -3.10391 0
M  V30 2679 H 240.79 -2.94173 -2.18764 0
M  V30 2680 H 240.438 -2.16687 -4.53933 0
M  V30 2681 H 240.138 -3.91576 -4.38112 0
M  V30 2682 H 241.662 -3.33789 -5.1129 0
M  V30 2683 H 243.076 -4.69435 -3.29096 0
M  V30 2684 H 241.473 -5.31053 -2.79468 0
M  V30 2685 H 242.543 -4.58353 -1.58242 0
M  V30 2686 N 243.887 0.651787 -1.4349 0
M  V30 2687 C 244.85 1.74647 -1.48429 0
M  V30 2688 C 245.85 1.56513 -0.368817 0
M  V30 2689 O 247.04 1.62385 -0.630623 0
M  V30 2690 C 244.172 3.13533 -1.33827 0
M  V30 2691 H 245.365 1.71649 -2.4592 0
M  V30 2692 H 242.918 0.863573 -1.30277 0
M  V30 2693 H 243.653 3.22142 -0.37349 0
M  V30 2694 H 243.438 3.28101 -2.14691 0
M  V30 2695 H 244.928 3.93356 -1.40218 0
M  V30 2696 N 245.365 1.30045 0.890287 0
M  V30 2697 C 246.297 1.11786 2.00091 0
M  V30 2698 C 247.31 0.0626307 1.62679 0
M  V30 2699 O 248.499 0.308112 1.75821 0
M  V30 2700 C 245.599 0.681527 3.31977 0
M  V30 2701 C 244.772 1.81735 3.97858 0
M  V30 2702 C 243.831 1.37045 5.08041 0
M  V30 2703 O 242.857 2.07677 5.29961 0
M  V30 2704 N 244.059 0.246525 5.79976 0
M  V30 2705 H 246.824 2.07441 2.16306 0
M  V30 2706 H 244.385 1.2211 1.06305 0
M  V30 2707 H 246.377 0.365675 4.03045 0
M  V30 2708 H 244.947 -0.182828 3.12065 0
M  V30 2709 H 244.167 2.30159 3.20032 0
M  V30 2710 H 245.455 2.57865 4.38615 0
M  V30 2711 H 244.853 -0.34215 5.64664 0
M  V30 2712 H 243.41 -0.00990438 6.51799 0
M  V30 2713 N 246.843 -1.10192 1.12674 0
M  V30 2714 C 248.073 -1.85713 0.905213 0
M  V30 2715 C 248.481 -1.81056 -0.549108 0
M  V30 2716 O 247.824 -1.19927 -1.39151 0
M  V30 2717 C 247.886 -3.34972 1.30516 0
M  V30 2718 C 247.55 -3.63385 2.77129 0
M  V30 2719 C 248.547 -3.59772 3.75313 0
M  V30 2720 C 246.232 -3.91981 3.14096 0
M  V30 2721 C 248.226 -3.84354 5.08479 0
M  V30 2722 C 245.913 -4.16218 4.47443 0
M  V30 2723 C 246.911 -4.12395 5.44444 0
M  V30 2724 O 246.599 -4.36014 6.75387 0
M  V30 2725 H 246.331 -0.593719 0.323223 0
M  V30 2726 H 248.885 -1.40198 1.50112 0
M  V30 2727 H 247.115 -3.81156 0.652463 0
M  V30 2728 H 248.804 -3.91886 1.05736 0
M  V30 2729 H 249.57 -3.37716 3.48099 0
M  V30 2730 H 245.449 -3.94085 2.39202 0
M  V30 2731 H 248.993 -3.81285 5.84181 0
M  V30 2732 H 244.89 -4.37754 4.74386 0
M  V30 2733 H 245.658 -4.53516 6.8137 0
M  V30 2734 N 248.321 -0.919034 -1.28029 0
M  V30 2735 C 249.598 -0.473668 -1.89778 0
M  V30 2736 C 249.978 1.04783 -1.83259 0
M  V30 2737 O 249.326 1.8982 -1.27202 0
M  V30 2738 C 249.536 -1.00998 -3.34066 0
M  V30 2739 C 250.884 -1.06525 -4.1102 0
M  V30 2740 O 251.908 -0.958996 -3.43048 0
M  V30 2741 O 250.767 -1.22776 -5.3253 0
M  V30 2742 H 247.861 -0.15098 -0.813101 0
M  V30 2743 H 250.407 -1.01016 -1.36359 0
M  V30 2744 H 249.179 -2.05392 -3.33061 0
M  V30 2745 H 248.802 -0.454626 -3.94992 0
M  V30 2746 N 249.799 1.42003 -0.683588 0
M  V30 2747 C 250.762 2.29191 -0.0198243 0
M  V30 2748 C 251.762 1.43773 0.72013 0
M  V30 2749 O 252.952 1.65061 0.556815 0
M  V30 2750 C 250.084 3.26435 0.982487 0
M  V30 2751 H 251.277 2.8938 -0.787345 0
M  V30 2752 H 248.83 1.49789 -0.446418 0
M  V30 2753 H 249.565 2.71203 1.77819 0
M  V30 2754 H 249.35 3.89449 0.455182 0
M  V30 2755 H 250.84 3.918 1.44508 0
M  V30 2756 N 251.277 0.427512 1.51691 0
M  V30 2757 C 252.24 -0.377132 2.26076 0
M  V30 2758 C 253.24 -0.958089 1.29141 0
M  V30 2759 O 254.43 -0.83408 1.52934 0
M  V30 2760 C 251.562 -1.53262 3.04506 0
M  V30 2761 H 252.755 0.27464 2.9864 0
M  V30 2762 H 250.308 0.180445 1.55255 0
M  V30 2763 H 251.043 -2.22072 2.36335 0
M  V30 2764 H 250.828 -1.12232 3.75694 0
M  V30 2765 H 252.318 -2.10135 3.60878 0
M  V30 2766 N 252.755 -1.56801 0.158532 0
M  V30 2767 C 253.705 -2.13923 -0.788738 0
M  V30 2768 C 254.689 -1.07006 -1.2016 0
M  V30 2769 O 255.881 -1.33159 -1.1661 0
M  V30 2770 C 253.01 -2.77348 -2.02319 0
M  V30 2771 C 252.096 -3.91404 -1.6329 0
M  V30 2772 N 252.487 -4.9677 -0.951463 0
M  V30 2773 C 250.785 -4.02326 -1.92482 0
M  V30 2774 C 251.486 -5.76698 -0.761221 0
M  V30 2775 N 250.462 -5.27859 -1.29869 0
M  V30 2776 H 254.264 -2.92757 -0.258995 0
M  V30 2777 H 251.778 -1.62344 -0.0426055 0
M  V30 2778 H 253.775 -3.16639 -2.71192 0
M  V30 2779 H 252.435 -1.99991 -2.558 0
M  V30 2780 H 253.446 -5.14284 -0.610928 0
M  V30 2781 H 250.123 -3.36059 -2.47732 0
M  V30 2782 H 251.513 -6.71529 -0.223284 0
M  V30 2783 N 254.233 0.115231 -1.57178 0
M  V30 2784 C 255.183 1.14707 -1.97044 0
M  V30 2785 C 256.167 1.36866 -0.845957 0
M  V30 2786 O 257.359 1.37895 -1.10968 0
M  V30 2787 C 254.488 2.47266 -2.38148 0
M  V30 2788 C 253.574 2.28566 -3.57237 0
M  V30 2789 N 253.965 1.79685 -4.72807 0
M  V30 2790 C 252.263 2.59208 -3.62943 0
M  V30 2791 C 252.964 1.74781 -5.54821 0
M  V30 2792 N 251.94 2.19264 -4.97417 0
M  V30 2793 H 255.742 0.761754 -2.83857 0
M  V30 2794 H 253.256 0.322928 -1.59157 0
M  V30 2795 H 255.253 3.219 -2.64927 0
M  V30 2796 H 253.913 2.86552 -1.52702 0
M  V30 2797 H 254.924 1.49177 -4.9595 0
M  V30 2798 H 251.601 3.02154 -2.88113 0
M  V30 2799 H 252.991 1.38212 -6.57531 0
M  V30 2800 N 255.711 1.52812 0.385517 0
M  V30 2801 C 256.621 1.80766 1.49535 0
M  V30 2802 C 257.637 0.694651 1.59532 0
M  V30 2803 O 258.813 0.982611 1.75803 0
M  V30 2804 C 255.878 1.97381 2.85029 0
M  V30 2805 C 254.939 3.21295 2.84724 0
M  V30 2806 C 254.172 3.37108 4.13756 0
M  V30 2807 O 254.395 2.5765 5.08893 0
M  V30 2808 O 253.329 4.30378 4.20783 0
M  V30 2809 H 257.155 2.75015 1.28842 0
M  V30 2810 H 254.74 1.37946 0.573697 0
M  V30 2811 H 256.622 2.09996 3.65349 0
M  V30 2812 H 255.297 1.06322 3.05741 0
M  V30 2813 H 254.204 3.1412 2.03174 0
M  V30 2814 H 255.537 4.12212 2.68965 0
M  V30 2815 N 257.189 -0.644168 1.43834 0
M  V30 2816 C 258.099 -1.78563 1.52159 0
M  V30 2817 C 259.115 -1.69147 0.408069 0
M  V30 2818 O 260.291 -1.90156 0.663524 0
M  V30 2819 C 257.356 -3.14888 1.45073 0
M  V30 2820 C 256.417 -3.36034 2.6717 0
M  V30 2821 C 255.65 -4.65855 2.60413 0
M  V30 2822 O 255.873 -5.45805 1.65689 0
M  V30 2823 O 254.807 -4.88918 3.5106 0
M  V30 2824 H 258.633 -1.74494 2.48567 0
M  V30 2825 H 256.218 -0.80378 1.25935 0
M  V30 2826 H 258.1 -3.96179 1.43597 0
M  V30 2827 H 256.775 -3.19528 0.518037 0
M  V30 2828 H 255.682 -2.54472 2.74217 0
M  V30 2829 H 257.015 -3.36247 3.59442 0
M  V30 2830 N 258.668 -1.30515 -0.883378 0
M  V30 2831 C 259.915 -1.1943 -1.63532 0
M  V30 2832 C 260.243 0.250627 -1.92878 0
M  V30 2833 O 259.498 1.19556 -1.54935 0
M  V30 2834 C 259.797 -1.96994 -2.98209 0
M  V30 2835 C 259.463 -3.466 -2.88408 0
M  V30 2836 C 258.125 -3.87397 -2.85442 0
M  V30 2837 C 260.477 -4.41863 -2.76418 0
M  V30 2838 C 257.805 -5.21745 -2.68327 0
M  V30 2839 C 260.157 -5.7632 -2.60841 0
M  V30 2840 C 258.821 -6.16354 -2.56251 0
M  V30 2841 H 258.091 -0.437025 -0.598406 0
M  V30 2842 H 260.738 -1.61635 -1.02696 0
M  V30 2843 H 259.043 -1.47429 -3.63004 0
M  V30 2844 H 260.74 -1.85808 -3.55354 0
M  V30 2845 H 257.33 -3.14182 -2.91527 0
M  V30 2846 H 261.514 -4.11285 -2.77775 0
M  V30 2847 H 256.77 -5.51853 -2.63189 0
M  V30 2848 H 260.944 -6.49772 -2.50538 0
M  V30 2849 H 258.571 -7.20401 -2.42748 0
M  V30 2850 N 260.146 1.09593 -1.13257 0
M  V30 2851 C 261.093 2.1618 -0.808381 0
M  V30 2852 C 262.063 1.64517 0.228754 0
M  V30 2853 O 263.248 1.9053 0.101381 0
M  V30 2854 C 260.388 3.43973 -0.278675 0
M  V30 2855 C 259.501 4.09545 -1.37466 0
M  V30 2856 C 258.636 5.25088 -0.803479 0
M  V30 2857 C 257.675 5.82579 -1.87799 0
M  V30 2858 N 256.812 6.89486 -1.32488 0
M  V30 2859 H 261.652 2.43254 -1.72138 0
M  V30 2860 H 259.189 1.19392 -0.859294 0
M  V30 2861 H 261.147 4.17174 0.0465583 0
M  V30 2862 H 259.777 3.17223 0.597459 0
M  V30 2863 H 258.829 3.34226 -1.81652 0
M  V30 2864 H 260.141 4.48307 -2.18684 0
M  V30 2865 H 259.295 6.05178 -0.429427 0
M  V30 2866 H 258.034 4.87684 0.0397956 0
M  V30 2867 H 257.039 5.01152 -2.26113 0
M  V30 2868 H 258.264 6.22045 -2.72463 0
M  V30 2869 H 256.21 6.54064 -0.503575 0
M  V30 2870 H 256.127 7.27007 -2.07355 0
M  V30 2871 H 257.395 7.73336 -0.978336 0
M  V30 2872 N 261.624 0.925811 1.2754 0
M  V30 2873 C 263.04 0.625767 1.46821 0
M  V30 2874 C 263.24 -0.825506 1.83814 0
M  V30 2875 O 262.296 -1.60356 1.95044 0
M  V30 2876 C 263.609 1.57402 2.56213 0
M  V30 2877 C 265.157 1.58204 2.70075 0
M  V30 2878 C 265.632 2.51721 3.82623 0
M  V30 2879 N 267.123 2.49917 3.89994 0
M  V30 2880 C 267.858 3.18968 4.76494 0
M  V30 2881 N 267.354 3.97391 5.67496 0
M  V30 2882 N 269.147 3.07996 4.70208 0
M  V30 2883 H 261.298 1.86409 1.01811 0
M  V30 2884 H 263.561 0.800213 0.508295 0
M  V30 2885 H 263.267 2.60925 2.35819 0
M  V30 2886 H 263.141 1.31428 3.53563 0
M  V30 2887 H 265.528 0.554124 2.89851 0
M  V30 2888 H 265.609 1.88226 1.73218 0
M  V30 2889 H 265.253 3.54622 3.63601 0
M  V30 2890 H 265.183 2.18996 4.78903 0
M  V30 2891 H 267.674 1.9296 3.24923 0
M  V30 2892 H 267.987 4.4707 6.30356 0
M  V30 2893 H 266.332 4.01495 5.67298 0
M  V30 2894 H 269.523 2.46223 3.9811 0
M  V30 2895 H 269.696 3.6208 5.37403 0
M  V30 2896 N 263.102 -1.41638 0.69111 0
M  V30 2897 C 264.332 -2.0533 0.228758 0
M  V30 2898 C 264.74 -1.52089 -1.12541 0
M  V30 2899 O 264.083 -0.662145 -1.71351 0
M  V30 2900 C 264.145 -3.59349 0.10407 0
M  V30 2901 C 263.809 -4.35362 1.38956 0
M  V30 2902 C 264.806 -4.64942 2.32648 0
M  V30 2903 C 262.491 -4.74714 1.64169 0
M  V30 2904 C 264.485 -5.32828 3.49818 0
M  V30 2905 C 262.172 -5.42338 2.81625 0
M  V30 2906 C 263.17 -5.71322 3.74273 0
M  V30 2907 O 262.858 -6.37554 4.89673 0
M  V30 2908 H 262.59 -0.667796 0.104997 0
M  V30 2909 H 265.144 -1.82477 0.942938 0
M  V30 2910 H 263.374 -3.80924 -0.665839 0
M  V30 2911 H 265.063 -4.04633 -0.320519 0
M  V30 2912 H 265.829 -4.35025 2.14425 0
M  V30 2913 H 261.708 -4.51538 0.929202 0
M  V30 2914 H 265.252 -5.55368 4.22152 0
M  V30 2915 H 261.149 -5.71673 2.99768 0
M  V30 2916 H 261.917 -6.56049 4.8943 0
M  V30 2917 N 264.58 -0.43555 -1.51462 0
M  V30 2918 C 265.49 0.383001 -2.31453 0
M  V30 2919 C 266.506 1.02931 -1.4029 0
M  V30 2920 O 267.682 1.02507 -1.73362 0
M  V30 2921 C 264.747 1.47043 -3.13973 0
M  V30 2922 C 263.808 0.844433 -4.20913 0
M  V30 2923 C 263.041 1.88004 -4.9949 0
M  V30 2924 O 263.264 3.10199 -4.78678 0
M  V30 2925 O 262.198 1.47157 -5.83634 0
M  V30 2926 H 266.024 -0.269964 -3.02498 0
M  V30 2927 H 263.609 -0.19813 -1.4808 0
M  V30 2928 H 265.491 2.10113 -3.65281 0
M  V30 2929 H 264.166 2.10751 -2.45695 0
M  V30 2930 H 263.073 0.175729 -3.73687 0
M  V30 2931 H 264.406 0.250869 -4.9156 0
M  V30 2932 N 266.058 1.56714 -0.166846 0
M  V30 2933 C 266.991 2.13577 0.80375 0
M  V30 2934 C 267.969 1.06464 1.22899 0
M  V30 2935 O 269.153 1.34413 1.32157 0
M  V30 2936 C 266.28 2.67168 2.0818 0
M  V30 2937 C 265.326 3.86612 1.80093 0
M  V30 2938 S 266.159 5.26565 0.97416 0
M  V30 2939 C 267.315 5.83558 2.26297 0
M  V30 2940 H 267.548 2.9557 0.320267 0
M  V30 2941 H 265.081 1.54326 0.0477555 0
M  V30 2942 H 267.039 2.98692 2.8159 0
M  V30 2943 H 265.7 1.85269 2.53642 0
M  V30 2944 H 264.893 4.22422 2.7491 0
M  V30 2945 H 264.495 3.55951 1.14781 0
M  V30 2946 H 266.787 5.962 3.21795 0
M  V30 2947 H 267.73 6.80731 1.94962 0
M  V30 2948 H 268.138 5.11944 2.37853 0
M  V30 2949 N 267.536 -0.106894 1.57237 0
M  V30 2950 C 268.466 -1.13148 2.04254 0
M  V30 2951 C 269.447 -1.42476 0.929224 0
M  V30 2952 O 270.632 -1.52709 1.19973 0
M  V30 2953 C 267.762 -2.4545 2.45706 0
M  V30 2954 C 266.716 -2.30558 3.60592 0
M  V30 2955 C 266.042 -3.67931 3.87983 0
M  V30 2956 C 267.342 -1.75597 4.91897 0
M  V30 2957 H 269.036 -0.740374 2.90101 0
M  V30 2958 H 266.582 -0.354696 1.39563 0
M  V30 2959 H 268.535 -3.17389 2.77205 0
M  V30 2960 H 267.259 -2.86475 1.56843 0
M  V30 2961 H 265.918 -1.61067 3.29322 0
M  V30 2962 H 265.566 -4.06462 2.96306 0
M  V30 2963 H 265.266 -3.58817 4.65322 0
M  V30 2964 H 266.79 -4.41356 4.21945 0
M  V30 2965 H 268.204 -2.37364 5.21854 0
M  V30 2966 H 266.601 -1.77272 5.73319 0
M  V30 2967 H 267.671 -0.714451 4.79608 0
M  V30 2968 N 269.014 -1.53014 -0.377408 0
M  V30 2969 C 269.961 -1.78616 -1.46168 0
M  V30 2970 C 270.931 -0.629917 -1.53692 0
M  V30 2971 O 272.116 -0.870861 -1.69766 0
M  V30 2972 C 269.256 -1.97123 -2.8326 0
M  V30 2973 C 268.369 -3.24831 -2.84796 0
M  V30 2974 C 267.504 -3.33591 -4.13389 0
M  V30 2975 C 266.543 -4.55377 -4.09021 0
M  V30 2976 N 265.68 -4.61355 -5.29241 0
M  V30 2977 H 270.52 -2.71142 -1.23637 0
M  V30 2978 H 268.057 -1.34326 -0.599577 0
M  V30 2979 H 270.015 -2.05839 -3.62886 0
M  V30 2980 H 268.645 -1.07946 -3.04216 0
M  V30 2981 H 267.697 -3.25128 -1.97474 0
M  V30 2982 H 269.009 -4.14523 -2.77439 0
M  V30 2983 H 268.163 -3.41554 -5.01424 0
M  V30 2984 H 266.902 -2.41894 -4.23484 0
M  V30 2985 H 265.907 -4.47527 -3.19373 0
M  V30 2986 H 267.132 -5.48402 -4.00539 0
M  V30 2987 H 265.078 -3.72554 -5.39944 0
M  V30 2988 H 264.995 -5.44935 -5.24006 0
M  V30 2989 H 266.263 -4.73586 -6.19141 0
M  V30 2990 N 270.492 0.636531 -1.44174 0
M  V30 2991 C 271.402 1.77754 -1.53103 0
M  V30 2992 C 272.418 1.68928 -0.417034 0
M  V30 2993 O 273.594 1.89801 -0.6736 0
M  V30 2994 C 270.659 3.14115 -1.46741 0
M  V30 2995 C 269.72 3.34612 -2.68948 0
M  V30 2996 C 268.953 4.64467 -2.6288 0
M  V30 2997 O 269.176 5.44919 -1.68581 0
M  V30 2998 O 268.11 4.87049 -3.53648 0
M  V30 2999 H 271.936 1.73174 -2.49489 0
M  V30 3000 H 269.521 0.79709 -1.2636 0
M  V30 3001 H 271.403 3.95412 -1.45696 0
M  V30 3002 H 270.078 3.19249 -0.534975 0
M  V30 3003 H 268.985 2.53014 -2.75562 0
M  V30 3004 H 270.318 3.34336 -3.61221 0
M  V30 3005 N 271.97 1.30982 0.876444 0
M  V30 3006 C 272.92 1.14688 1.97055 0
M  V30 3007 C 273.904 0.0596593 1.60789 0
M  V30 3008 O 275.096 0.283892 1.74708 0
M  V30 3009 C 272.225 0.849627 3.3262 0
M  V30 3010 C 271.311 1.97752 3.75173 0
M  V30 3011 N 271.702 3.22384 3.89746 0
M  V30 3012 C 270 1.8758 4.04635 0
M  V30 3013 C 270.701 3.96121 4.25985 0
M  V30 3014 N 269.677 3.24237 4.36315 0
M  V30 3015 H 273.479 2.09204 2.06424 0
M  V30 3016 H 270.993 1.22445 1.06682 0
M  V30 3017 H 272.99 0.713895 4.10742 0
M  V30 3018 H 271.65 -0.087376 3.24582 0
M  V30 3019 H 272.661 3.57575 3.74647 0
M  V30 3020 H 269.338 1.01303 4.05024 0
M  V30 3021 H 270.728 5.03491 4.44911 0
M  V30 3022 N 273.449 -1.08991 1.13837 0
M  V30 3023 C 274.359 -2.19301 0.833333 0
M  V30 3024 C 275.375 -1.73026 -0.183847 0
M  V30 3025 O 276.551 -2.01395 -0.0138092 0
M  V30 3026 C 273.616 -3.45323 0.308651 0
M  V30 3027 C 272.677 -4.06255 1.38764 0
M  V30 3028 C 271.91 -5.26262 0.887896 0
M  V30 3029 O 272.133 -5.69747 -0.27287 0
M  V30 3030 O 271.067 -5.78435 1.66421 0
M  V30 3031 H 274.893 -2.47854 1.75506 0
M  V30 3032 H 272.478 -1.18012 0.916166 0
M  V30 3033 H 274.36 -4.21394 0.0216739 0
M  V30 3034 H 273.035 -3.18362 -0.585431 0
M  V30 3035 H 271.942 -3.318 1.72799 0
M  V30 3036 H 273.275 -4.37452 2.25602 0
M  V30 3037 N 274.927 -0.932562 -1.27047 0
M  V30 3038 C 276.343 -0.633544 -1.46487 0
M  V30 3039 C 276.543 0.815746 -1.84249 0
M  V30 3040 O 275.599 1.59319 -1.95892 0
M  V30 3041 C 276.912 -1.58758 -2.55375 0
M  V30 3042 C 278.46 -1.59634 -2.69232 0
M  V30 3043 C 278.935 -2.53747 -3.81283 0
M  V30 3044 N 280.426 -2.51982 -3.88664 0
M  V30 3045 C 281.161 -3.21491 -4.74796 0
M  V30 3046 N 280.657 -4.00395 -5.65381 0
M  V30 3047 N 282.45 -3.10485 -4.68568 0
M  V30 3048 H 274.601 -1.86946 -1.00821 0
M  V30 3049 H 276.864 -0.802897 -0.504044 0
M  V30 3050 H 276.57 -2.62172 -2.34432 0
M  V30 3051 H 276.444 -1.33301 -3.52861 0
M  V30 3052 H 278.831 -0.569488 -2.89553 0
M  V30 3053 H 278.912 -1.89142 -1.72218 0
M  V30 3054 H 278.556 -3.56545 -3.61715 0
M  V30 3055 H 278.486 -2.21532 -4.77735 0
M  V30 3056 H 280.977 -1.94681 -3.23895 0
M  V30 3057 H 281.29 -4.50406 -6.27976 0
M  V30 3058 H 279.635 -4.04498 -5.65161 0
M  V30 3059 H 282.826 -2.48331 -3.96799 0
M  V30 3060 H 282.999 -3.64925 -5.35475 0
M  V30 3061 N 276.405 1.4127 -0.698611 0
M  V30 3062 C 277.821 1.55241 -0.370462 0
M  V30 3063 C 278.021 1.67351 1.12231 0
M  V30 3064 O 277.077 1.65363 1.90818 0
M  V30 3065 C 278.39 2.78997 -1.12165 0
M  V30 3066 C 279.938 2.92797 -1.1063 0
M  V30 3067 C 280.413 4.19445 -1.8393 0
M  V30 3068 N 281.904 4.26409 -1.80914 0
M  V30 3069 C 282.639 5.23271 -2.34467 0
M  V30 3070 N 282.135 6.26145 -2.96504 0
M  V30 3071 N 283.928 5.15232 -2.24706 0
M  V30 3072 H 276.079 1.31654 -1.66676 0
M  V30 3073 H 278.342 0.635393 -0.703548 0
M  V30 3074 H 278.048 2.76268 -2.17644 0
M  V30 3075 H 277.922 3.70606 -0.702209 0
M  V30 3076 H 280.309 2.95039 -0.0597713 0
M  V30 3077 H 280.39 2.02353 -1.56483 0
M  V30 3078 H 280.034 4.17964 -2.88563 0
M  V30 3079 H 279.964 5.08866 -1.35509 0
M  V30 3080 H 282.455 3.527 -1.35687 0
M  V30 3081 H 282.768 6.96451 -3.34927 0
M  V30 3082 H 281.113 6.26638 -3.00583 0
M  V30 3083 H 284.304 4.33789 -1.7591 0
M  V30 3084 H 284.477 5.90552 -2.66745 0
M  V30 3085 N 277.883 0.443576 1.51229 0
M  V30 3086 C 279.299 0.0962001 1.5931 0
M  V30 3087 C 279.499 -1.39501 1.45402 0
M  V30 3088 O 278.555 -2.16557 1.29843 0
M  V30 3089 C 279.868 0.621875 2.94199 0
M  V30 3090 C 281.416 0.582865 3.07525 0
M  V30 3091 C 281.891 1.08562 4.44948 0
M  V30 3092 N 283.382 1.04387 4.51284 0
M  V30 3093 C 284.117 1.40368 5.55954 0
M  V30 3094 N 283.613 1.83664 6.68011 0
M  V30 3095 N 285.406 1.32145 5.46346 0
M  V30 3096 H 277.557 1.41376 1.58514 0
M  V30 3097 H 279.82 0.582965 0.747567 0
M  V30 3098 H 279.526 1.66546 3.09767 0
M  V30 3099 H 279.4 0.0502125 3.77167 0
M  V30 3100 H 281.787 -0.451749 2.91622 0
M  V30 3101 H 281.868 1.191 2.26382 0
M  V30 3102 H 281.512 2.11873 4.61598 0
M  V30 3103 H 281.442 0.453956 5.2464 0
M  V30 3104 H 283.933 0.725986 3.70861 0
M  V30 3105 H 284.246 2.0934 7.43906 0
M  V30 3106 H 282.591 1.87596 6.69203 0
M  V30 3107 H 285.782 0.981808 4.57688 0
M  V30 3108 H 285.955 1.60514 6.27805 0
M  V30 3109 N 279.361 -1.56624 0.175154 0
M  V30 3110 C 280.591 -2.01082 -0.474283 0
M  V30 3111 C 280.999 -1.05447 -1.57091 0
M  V30 3112 O 280.342 -0.0480595 -1.83637 0
M  V30 3113 C 280.404 -3.41963 -1.10911 0
M  V30 3114 C 280.068 -4.56742 -0.153666 0
M  V30 3115 C 281.065 -5.16076 0.629448 0
M  V30 3116 C 278.75 -5.02277 -0.0483776 0
M  V30 3117 C 280.744 -6.19377 1.50501 0
M  V30 3118 C 278.431 -6.05427 0.830768 0
M  V30 3119 C 279.429 -6.63849 1.60605 0
M  V30 3120 O 279.117 -7.64998 2.47049 0
M  V30 3121 H 278.849 -0.664261 -0.125432 0
M  V30 3122 H 281.403 -2.03549 0.275163 0
M  V30 3123 H 279.633 -3.36422 -1.90676 0
M  V30 3124 H 281.322 -3.70352 -1.66114 0
M  V30 3125 H 282.088 -4.81776 0.558297 0
M  V30 3126 H 277.967 -4.56513 -0.641611 0
M  V30 3127 H 281.511 -6.64906 2.1106 0
M  V30 3128 H 277.408 -6.39151 0.903107 0
M  V30 3129 H 278.176 -7.82336 2.40607 0
M  V30 3130 N 280.839 0.0985539 -1.57292 0
M  V30 3131 C 281.769 1.12064 -2.04851 0
M  V30 3132 C 282.75 1.41981 -0.936767 0
M  V30 3133 O 283.935 1.52071 -1.20781 0
M  V30 3134 C 281.065 2.44144 -2.47004 0
M  V30 3135 C 280.019 2.28643 -3.6181 0
M  V30 3136 C 279.345 3.65869 -3.89929 0
M  V30 3137 C 280.645 1.72986 -4.92822 0
M  V30 3138 H 282.339 0.724979 -2.9049 0
M  V30 3139 H 279.885 0.34729 -1.39749 0
M  V30 3140 H 281.838 3.15914 -2.78884 0
M  V30 3141 H 280.562 2.85639 -1.5836 0
M  V30 3142 H 279.221 1.59318 -3.30172 0
M  V30 3143 H 278.869 4.04885 -2.98458 0
M  V30 3144 H 278.569 3.56344 -4.67218 0
M  V30 3145 H 280.093 4.39112 -4.2428 0
M  V30 3146 H 281.507 2.34593 -5.23105 0
M  V30 3147 H 279.904 1.74229 -5.74251 0
M  V30 3148 H 280.974 0.689007 -4.7998 0
M  V30 3149 N 282.317 1.53212 0.369288 0
M  V30 3150 C 283.227 1.82342 1.47609 0
M  V30 3151 C 284.243 0.711532 1.58787 0
M  V30 3152 O 285.419 1.0012 1.74751 0
M  V30 3153 C 282.484 2.00393 2.8292 0
M  V30 3154 C 281.545 3.24297 2.81301 0
M  V30 3155 C 280.778 3.41478 4.10157 0
M  V30 3156 O 281.001 2.63033 5.06132 0
M  V30 3157 O 279.935 4.34817 4.16194 0
M  V30 3158 H 283.761 2.76366 1.25918 0
M  V30 3159 H 281.346 1.38547 0.559034 0
M  V30 3160 H 283.228 2.13859 3.63101 0
M  V30 3161 H 281.903 1.09559 3.04596 0
M  V30 3162 H 280.81 3.16257 1.99831 0
M  V30 3163 H 282.143 4.15041 2.64578 0
M  V30 3164 N 283.795 -0.628877 1.44509 0
M  V30 3165 C 285.02 -1.42048 1.5112 0
M  V30 3166 C 285.445 -1.87594 0.137818 0
M  V30 3167 O 284.803 -1.58873 -0.873437 0
M  V30 3168 C 284.851 -2.61541 2.48251 0
M  V30 3169 O 283.955 -3.61453 1.98559 0
M  V30 3170 H 283.296 -0.424942 0.510216 0
M  V30 3171 H 285.826 -0.767374 1.89664 0
M  V30 3172 H 285.836 -3.09057 2.66361 0
M  V30 3173 H 284.511 -2.27736 3.48007 0
M  V30 3174 H 283.088 -3.20731 1.90227 0
M  V30 3175 N 285.273 -1.31445 -0.869486 0
M  V30 3176 C 286.203 -1.21727 -1.99261 0
M  V30 3177 C 287.184 -0.104359 -1.6978 0
M  V30 3178 O 288.369 -0.289038 -1.92037 0
M  V30 3179 C 285.499 -0.924317 -3.34774 0
M  V30 3180 C 284.453 -1.99685 -3.78563 0
M  V30 3181 C 283.779 -1.55658 -5.11541 0
M  V30 3182 C 285.079 -3.41003 -3.95619 0
M  V30 3183 H 286.773 -2.1569 -2.07649 0
M  V30 3184 H 284.319 -1.03839 -0.997675 0
M  V30 3185 H 286.272 -0.842934 -4.12883 0
M  V30 3186 H 284.996 0.0509793 -3.2656 0
M  V30 3187 H 283.655 -2.06813 -3.02694 0
M  V30 3188 H 283.303 -0.569132 -4.9977 0
M  V30 3189 H 283.003 -2.27409 -5.41811 0
M  V30 3190 H 284.527 -1.48928 -5.92159 0
M  V30 3191 H 285.941 -3.36547 -4.64122 0
M  V30 3192 H 284.338 -4.10975 -4.37286 0
M  V30 3193 H 285.408 -3.81754 -2.98985 0
M  V30 3194 N 286.751 1.08385 -1.14413 0
M  V30 3195 C 287.999 1.80419 -0.910679 0
M  V30 3196 C 288.32 1.86658 0.564243 0
M  V30 3197 O 287.59 1.35985 1.41014 0
M  V30 3198 H 286.17 0.668204 -0.333934 0
M  V30 3199 H 288.832 1.31037 -1.44275 0
M  V30 3200 H 287.928 2.83238 -1.31082 0
M  V30 3201 N 288.23 0.939286 1.26551 0
M  V30 3202 C 289.14 0.453432 2.30176 0
M  V30 3203 C 290.156 -0.471649 1.67486 0
M  V30 3204 O 291.332 -0.35164 1.98306 0
M  V30 3205 C 288.397 -0.275326 3.45605 0
M  V30 3206 C 287.458 0.686084 4.23782 0
M  V30 3207 C 286.691 -0.00798994 5.33699 0
M  V30 3208 O 286.914 -1.22528 5.57085 0
M  V30 3209 O 285.848 0.669746 5.98162 0
M  V30 3210 H 289.674 1.31416 2.73795 0
M  V30 3211 H 287.259 0.705095 1.31715 0
M  V30 3212 H 289.141 -0.685911 4.1578 0
M  V30 3213 H 287.816 -1.11147 3.0402 0
M  V30 3214 H 286.723 1.14658 3.56096 0
M  V30 3215 H 288.056 1.48979 4.69112 0
M  V30 3216 N 289.708 -1.40897 0.706093 0
M  V30 3217 C 290.618 -2.3455 0.0482286 0
M  V30 3218 C 291.634 -1.56796 -0.754396 0
M  V30 3219 O 292.81 -1.89228 -0.689538 0
M  V30 3220 C 289.875 -3.35625 -0.869303 0
M  V30 3221 C 288.936 -4.29261 -0.0576994 0
M  V30 3222 C 288.169 -5.25508 -0.931531 0
M  V30 3223 O 288.392 -5.27472 -2.17092 0
M  V30 3224 O 287.326 -6.00727 -0.375587 0
M  V30 3225 H 291.152 -2.92407 0.820476 0
M  V30 3226 H 288.737 -1.4193 0.4665 0
M  V30 3227 H 290.619 -3.97635 -1.39514 0
M  V30 3228 H 289.294 -2.80196 -1.62086 0
M  V30 3229 H 288.201 -3.70566 0.512988 0
M  V30 3230 H 289.534 -4.87817 0.655426 0
M  V30 3231 N 291.186 -0.45159 -1.50991 0
M  V30 3232 C 292.118 0.388634 -2.25881 0
M  V30 3233 C 293.131 0.974041 -1.30446 0
M  V30 3234 O 294.32 0.865758 -1.56099 0
M  V30 3235 C 291.42 1.5571 -3.01011 0
M  V30 3236 C 290.593 1.08801 -4.23652 0
M  V30 3237 C 289.652 2.12825 -4.8124 0
M  V30 3238 O 288.678 1.71678 -5.42693 0
M  V30 3239 N 289.88 3.45453 -4.66522 0
M  V30 3240 H 292.645 -0.25329 -2.98628 0
M  V30 3241 H 290.206 -0.281268 -1.59438 0
M  V30 3242 H 292.198 2.24952 -3.3642 0
M  V30 3243 H 290.768 2.10409 -2.31186 0
M  V30 3244 H 289.988 0.22215 -3.93574 0
M  V30 3245 H 291.276 0.752213 -5.03209 0
M  V30 3246 H 290.674 3.81605 -4.17605 0
M  V30 3247 H 289.231 4.10549 -5.06254 0
M  V30 3248 N 292.664 1.56529 -0.183458 0
M  V30 3249 C 294.08 1.58664 0.172554 0
M  V30 3250 C 294.28 1.19925 1.61926 0
M  V30 3251 O 293.336 0.916534 2.35278 0
M  V30 3252 C 294.649 3.00463 -0.119262 0
M  V30 3253 C 296.197 3.12945 -0.0584396 0
M  V30 3254 C 296.672 4.56857 -0.323408 0
M  V30 3255 N 298.163 4.62403 -0.271612 0
M  V30 3256 C 298.898 5.71626 -0.450639 0
M  V30 3257 N 298.394 6.89362 -0.689384 0
M  V30 3258 N 300.187 5.60775 -0.385701 0
M  V30 3259 H 292.338 1.79994 -1.12765 0
M  V30 3260 H 294.601 0.834808 -0.449222 0
M  V30 3261 H 294.307 3.33326 -1.12192 0
M  V30 3262 H 294.181 3.72659 0.583544 0
M  V30 3263 H 296.568 2.79902 0.934805 0
M  V30 3264 H 296.649 2.4316 -0.794144 0
M  V30 3265 H 296.293 4.9061 -1.31392 0
M  V30 3266 H 296.223 5.24816 0.43305 0
M  V30 3267 H 298.714 3.77785 -0.0932256 0
M  V30 3268 H 299.027 7.68489 -0.815113 0
M  V30 3269 H 297.372 6.91196 -0.726142 0
M  V30 3270 H 300.563 4.67674 -0.199687 0
M  V30 3271 H 300.736 6.4584 -0.528646 0
M  V30 3272 N 294.142 -0.090211 1.57342 0
M  V30 3273 C 295.089 -1.10909 2.02405 0
M  V30 3274 C 296.059 -1.39523 0.901252 0
M  V30 3275 O 297.244 -1.50903 1.1676 0
M  V30 3276 C 294.384 -2.42277 2.45755 0
M  V30 3277 C 293.497 -2.20352 3.71576 0
M  V30 3278 C 292.632 -3.45154 4.03785 0
M  V30 3279 C 291.671 -3.18512 5.22701 0
M  V30 3280 N 290.808 -4.35593 5.50639 0
M  V30 3281 H 295.648 -0.71782 2.89225 0
M  V30 3282 H 293.185 -0.342901 1.43048 0
M  V30 3283 H 295.143 -3.18951 2.68935 0
M  V30 3284 H 293.773 -2.79242 1.61938 0
M  V30 3285 H 292.825 -1.34458 3.55844 0
M  V30 3286 H 294.137 -1.96661 4.58395 0
M  V30 3287 H 293.291 -4.30233 4.27767 0
M  V30 3288 H 292.03 -3.71904 3.15498 0
M  V30 3289 H 291.035 -2.31827 4.98534 0
M  V30 3290 H 292.26 -2.93103 6.12591 0
M  V30 3291 H 290.206 -4.6241 4.6531 0
M  V30 3292 H 290.123 -4.1511 6.31838 0
M  V30 3293 H 291.391 -5.21723 5.7916 0
M  V30 3294 N 295.62 -1.53406 -0.361157 0
M  V30 3295 C 296.53 -1.83122 -1.4664 0
M  V30 3296 C 297.546 -0.719943 -1.58407 0
M  V30 3297 O 298.722 -1.01046 -1.74218 0
M  V30 3298 C 295.787 -2.01891 -2.81853 0
M  V30 3299 C 294.848 -3.25784 -2.79577 0
M  V30 3300 C 294.081 -3.43648 -4.0834 0
M  V30 3301 O 294.304 -2.65714 -5.0473 0
M  V30 3302 O 293.238 -4.37018 -4.13883 0
M  V30 3303 H 297.064 -2.7703 -1.24451 0
M  V30 3304 H 294.649 -1.38841 -0.551678 0
M  V30 3305 H 296.531 -2.15782 -3.61962 0
M  V30 3306 H 295.206 -1.11173 -3.0401 0
M  V30 3307 H 294.113 -3.17312 -1.98151 0
M  V30 3308 H 295.446 -4.16439 -2.62373 0
M  V30 3309 N 297.098 0.621204 -1.44841 0
M  V30 3310 C 298.061 1.71459 -1.521 0
M  V30 3311 C 299.061 1.55696 -0.401933 0
M  V30 3312 O 300.251 1.61011 -0.664925 0
M  V30 3313 C 297.383 3.10624 -1.40447 0
M  V30 3314 H 298.576 1.66394 -2.49506 0
M  V30 3315 H 296.129 0.835745 -1.3208 0
M  V30 3316 H 296.864 3.21277 -0.441737 0
M  V30 3317 H 296.649 3.23473 -2.21602 0
M  V30 3318 H 298.139 3.90293 -1.4853 0
M  V30 3319 N 298.576 1.31904 0.862503 0
M  V30 3320 C 299.486 1.22161 2.00285 0
M  V30 3321 C 300.502 0.136785 1.73462 0
M  V30 3322 O 301.678 0.355994 1.98229 0
M  V30 3323 C 298.743 0.937093 3.33796 0
M  V30 3324 C 297.804 2.10957 3.73893 0
M  V30 3325 C 297.037 1.83853 5.01033 0
M  V30 3326 O 297.26 0.777274 5.65079 0
M  V30 3327 O 296.194 2.69741 5.38074 0
M  V30 3328 H 300.02 2.18008 2.11439 0
M  V30 3329 H 297.605 1.11716 0.991957 0
M  V30 3330 H 299.487 0.794583 4.13841 0
M  V30 3331 H 298.162 0.00871894 3.23699 0
M  V30 3332 H 297.069 2.30752 2.94456 0
M  V30 3333 H 298.402 3.02046 3.88625 0
M  V30 3334 N 300.054 -1.07777 1.14986 0
M  V30 3335 C 301.47 -1.32373 0.891596 0
M  V30 3336 C 301.67 -1.9609 -0.463788 0
M  V30 3337 O 300.726 -2.21801 -1.20667 0
M  V30 3338 C 302.039 -2.21905 2.02925 0
M  V30 3339 C 303.587 -2.35367 2.06329 0
M  V30 3340 C 304.062 -3.28245 3.19405 0
M  V30 3341 N 305.553 -3.35824 3.19024 0
M  V30 3342 C 306.288 -4.07739 4.03158 0
M  V30 3343 N 305.784 -4.82306 4.97346 0
M  V30 3344 N 307.577 -4.03635 3.91197 0
M  V30 3345 H 299.728 -0.648039 2.02273 0
M  V30 3346 H 301.991 -0.348149 0.881757 0
M  V30 3347 H 301.697 -1.82342 3.0074 0
M  V30 3348 H 301.571 -3.22407 1.95789 0
M  V30 3349 H 303.958 -2.74186 1.09116 0
M  V30 3350 H 304.039 -1.34585 2.17533 0
M  V30 3351 H 303.683 -2.90146 4.16867 0
M  V30 3352 H 303.613 -4.28971 3.05437 0
M  V30 3353 H 306.104 -2.8267 2.50811 0
M  V30 3354 H 306.417 -5.34661 5.57994 0
M  V30 3355 H 304.762 -4.81337 5.01338 0
M  V30 3356 H 307.953 -3.44491 3.16928 0
M  V30 3357 H 308.126 -4.59417 4.5699 0
M  V30 3358 N 301.532 -0.945985 -1.26051 0
M  V30 3359 C 302.479 -0.45809 -2.26208 0
M  V30 3360 C 303.449 0.484816 -1.58867 0
M  V30 3361 O 304.634 0.399969 -1.86561 0
M  V30 3362 C 301.774 0.266131 -3.44072 0
M  V30 3363 C 300.887 -0.713005 -4.26075 0
M  V30 3364 C 300.022 0.0329013 -5.3119 0
M  V30 3365 C 299.061 -0.93774 -6.04874 0
M  V30 3366 N 298.198 -0.223274 -7.01745 0
M  V30 3367 H 303.038 -1.3171 -2.67313 0
M  V30 3368 H 300.575 -0.66069 -1.31428 0
M  V30 3369 H 302.533 0.702514 -4.11243 0
M  V30 3370 H 301.163 1.08925 -3.03867 0
M  V30 3371 H 300.215 -1.26789 -3.58648 0
M  V30 3372 H 301.527 -1.45406 -4.77136 0
M  V30 3373 H 300.681 0.528335 -6.04395 0
M  V30 3374 H 299.42 0.806801 -4.8098 0
M  V30 3375 H 298.425 -1.44425 -5.30492 0
M  V30 3376 H 299.65 -1.71172 -6.57173 0
M  V30 3377 H 297.596 0.532046 -6.53839 0
M  V30 3378 H 297.513 -0.90357 -7.50581 0
M  V30 3379 H 298.781 0.250907 -7.79096 0
M  V30 3380 N 303.011 1.40521 -0.713556 0
M  V30 3381 C 303.941 2.33381 -0.0743864 0
M  V30 3382 C 304.922 1.52784 0.747735 0
M  V30 3383 O 306.107 1.81258 0.697071 0
M  V30 3384 C 303.237 3.36748 0.849598 0
M  V30 3385 C 302.191 4.27793 0.133247 0
M  V30 3386 C 301.517 5.21679 1.17281 0
M  V30 3387 C 302.817 5.12415 -1.01134 0
M  V30 3388 H 304.511 2.87081 -0.850007 0
M  V30 3389 H 302.057 1.38034 -0.410201 0
M  V30 3390 H 304.01 4.00648 1.30612 0
M  V30 3391 H 302.734 2.81439 1.65709 0
M  V30 3392 H 301.393 3.65342 -0.303426 0
M  V30 3393 H 301.041 4.62677 1.9733 0
M  V30 3394 H 300.741 5.83435 0.698397 0
M  V30 3395 H 302.265 5.88456 1.62947 0
M  V30 3396 H 303.679 5.69781 -0.634274 0
M  V30 3397 H 302.076 5.83203 -1.41399 0
M  V30 3398 H 303.146 4.48514 -1.84292 0
M  V30 3399 N 304.489 0.459591 1.5075 0
M  V30 3400 C 305.399 -0.34613 2.32033 0
M  V30 3401 C 306.415 -1.00686 1.41909 0
M  V30 3402 O 307.591 -0.997361 1.7497 0
M  V30 3403 C 304.656 -1.42029 3.16273 0
M  V30 3404 C 303.717 -0.777362 4.22203 0
M  V30 3405 C 302.95 -1.80034 5.02418 0
M  V30 3406 O 303.173 -3.02544 4.83553 0
M  V30 3407 O 302.107 -1.37853 5.85901 0
M  V30 3408 H 305.933 0.318054 3.0203 0
M  V30 3409 H 303.518 0.221663 1.47746 0
M  V30 3410 H 305.4 -2.04275 3.68578 0
M  V30 3411 H 304.075 -2.06815 2.49016 0
M  V30 3412 H 302.982 -0.116256 3.73919 0
M  V30 3413 H 304.315 -0.172634 4.91897 0
M  V30 3414 N 305.967 -1.56429 0.191757 0
M  V30 3415 C 306.877 -2.22541 -0.742481 0
M  V30 3416 C 307.893 -1.22342 -1.23727 0
M  V30 3417 O 309.069 -1.55069 -1.28513 0
M  V30 3418 C 306.134 -2.8692 -1.94623 0
M  V30 3419 C 305.195 -4.02378 -1.49633 0
M  V30 3420 C 304.428 -4.63678 -2.6427 0
M  V30 3421 O 304.651 -4.23895 -3.81666 0
M  V30 3422 O 303.585 -5.53202 -2.37174 0
M  V30 3423 H 307.411 -3.02977 -0.209462 0
M  V30 3424 H 304.996 -1.49353 -0.0373832 0
M  V30 3425 H 306.878 -3.27663 -2.64982 0
M  V30 3426 H 305.553 -2.09466 -2.46791 0
M  V30 3427 H 304.46 -3.66265 -0.761636 0
M  V30 3428 H 305.793 -4.81487 -1.02134 0
M  V30 3429 N 307.445 0.0818655 -1.57387 0
M  V30 3430 C 308.377 1.12484 -1.997 0
M  V30 3431 C 309.39 1.35564 -0.90146 0
M  V30 3432 O 310.579 1.33982 -1.17945 0
M  V30 3433 C 307.679 2.47778 -2.31213 0
M  V30 3434 C 306.852 2.44793 -3.62485 0
M  V30 3435 C 305.911 3.62117 -3.81782 0
M  V30 3436 O 304.937 3.44005 -4.53486 0
M  V30 3437 N 306.139 4.82094 -3.23367 0
M  V30 3438 H 308.904 0.764585 -2.89783 0
M  V30 3439 H 306.465 0.270664 -1.59621 0
M  V30 3440 H 308.457 3.24891 -2.41304 0
M  V30 3441 H 307.027 2.75843 -1.4707 0
M  V30 3442 H 306.247 1.53134 -3.6324 0
M  V30 3443 H 307.535 2.39889 -4.48699 0
M  V30 3444 H 306.933 4.99713 -2.65148 0
M  V30 3445 H 305.49 5.56753 -3.38923 0
M  V30 3446 N 308.923 1.53595 0.353017 0
M  V30 3447 C 309.855 1.77219 1.45348 0
M  V30 3448 C 310.868 0.65324 1.49119 0
M  V30 3449 O 312.057 0.929775 1.52373 0
M  V30 3450 C 309.157 1.84841 2.84055 0
M  V30 3451 C 308.33 3.14649 3.03833 0
M  V30 3452 C 307.389 3.13351 4.22727 0
M  V30 3453 O 306.415 3.87107 4.17297 0
M  V30 3454 N 307.617 2.35052 5.30783 0
M  V30 3455 H 310.382 2.72178 1.25457 0
M  V30 3456 H 307.943 1.52528 0.542833 0
M  V30 3457 H 309.935 1.81435 3.61751 0
M  V30 3458 H 308.505 0.971114 2.97133 0
M  V30 3459 H 307.725 3.31256 2.13689 0
M  V30 3460 H 309.013 4.00411 3.13925 0
M  V30 3461 H 308.411 1.74663 5.38061 0
M  V30 3462 H 306.968 2.37453 6.07009 0
M  V30 3463 N 310.401 -0.613514 1.45168 0
M  V30 3464 C 311.817 -0.933629 1.29443 0
M  V30 3465 C 312.017 -2.00028 0.243101 0
M  V30 3466 O 311.073 -2.49848 -0.364992 0
M  V30 3467 C 312.386 -1.38018 2.67155 0
M  V30 3468 C 313.934 -1.49471 2.75004 0
M  V30 3469 C 314.409 -1.97503 4.13227 0
M  V30 3470 N 315.9 -2.04746 4.15491 0
M  V30 3471 C 316.635 -2.43121 5.19307 0
M  V30 3472 N 316.131 -2.80506 6.33473 0
M  V30 3473 N 317.924 -2.43408 5.06664 0
M  V30 3474 H 310.075 0.0916097 2.12202 0
M  V30 3475 H 312.338 -0.0216655 0.947752 0
M  V30 3476 H 312.044 -0.670625 3.45247 0
M  V30 3477 H 311.918 -2.34784 2.95222 0
M  V30 3478 H 314.305 -2.19519 1.9722 0
M  V30 3479 H 314.386 -0.510342 2.50657 0
M  V30 3480 H 314.03 -1.28045 4.91495 0
M  V30 3481 H 313.96 -2.96843 4.34962 0
M  V30 3482 H 316.451 -1.78468 3.33103 0
M  V30 3483 H 316.764 -3.08652 7.08487 0
M  V30 3484 H 315.109 -2.78216 6.36884 0
M  V30 3485 H 318.3 -2.13604 4.16523 0
M  V30 3486 H 318.473 -2.72989 5.87691 0
M  V30 3487 N 311.879 -1.3236 -0.855495 0
M  V30 3488 C 313.295 -1.11332 -1.14356 0
M  V30 3489 C 313.495 0.106751 -2.01217 0
M  V30 3490 O 312.551 0.791891 -2.39761 0
M  V30 3491 C 313.864 -2.39237 -1.82171 0
M  V30 3492 C 315.412 -2.44986 -1.9481 0
M  V30 3493 C 315.887 -3.7281 -2.66039 0
M  V30 3494 N 317.378 -3.73787 -2.73565 0
M  V30 3495 C 318.113 -4.69394 -3.29327 0
M  V30 3496 N 317.609 -5.75367 -3.85907 0
M  V30 3497 N 319.402 -4.56893 -3.27423 0
M  V30 3498 H 311.553 -2.10586 -0.277027 0
M  V30 3499 H 313.816 -0.929701 -0.185364 0
M  V30 3500 H 313.522 -3.28431 -1.25802 0
M  V30 3501 H 313.396 -2.50134 -2.82335 0
M  V30 3502 H 315.783 -1.56252 -2.50338 0
M  V30 3503 H 315.864 -2.38043 -0.936448 0
M  V30 3504 H 315.508 -4.61918 -2.11174 0
M  V30 3505 H 315.438 -3.77024 -3.67642 0
M  V30 3506 H 317.929 -2.97189 -2.33424 0
M  V30 3507 H 318.242 -6.44378 -4.26611 0
M  V30 3508 H 316.587 -5.79123 -3.84242 0
M  V30 3509 H 319.778 -3.73269 -2.82467 0
M  V30 3510 H 319.951 -5.31577 -3.7058 0
M  V30 3511 N 313.357 1.07166 -1.15556 0
M  V30 3512 C 314.307 2.12649 -0.82247 0
M  V30 3513 C 315.291 1.59725 0.194129 0
M  V30 3514 O 316.483 1.76999 -0.00540402 0
M  V30 3515 C 313.612 3.41847 -0.315572 0
M  V30 3516 C 312.698 4.0162 -1.36244 0
M  V30 3517 N 313.089 4.35625 -2.5703 0
M  V30 3518 C 311.387 4.29114 -1.21562 0
M  V30 3519 C 312.088 4.83017 -3.24144 0
M  V30 3520 N 311.064 4.81906 -2.51531 0
M  V30 3521 H 314.866 2.36776 -1.74111 0
M  V30 3522 H 312.38 1.24622 -1.0413 0
M  V30 3523 H 314.377 4.16859 -0.0585855 0
M  V30 3524 H 313.037 3.19163 0.597105 0
M  V30 3525 H 314.048 4.26253 -2.94158 0
M  V30 3526 H 310.725 4.15919 -0.362988 0
M  V30 3527 H 312.115 5.18605 -4.27198 0
M  V30 3528 N 314.835 0.952656 1.25548 0
M  V30 3529 C 316.251 0.656769 1.4546 0
M  V30 3530 C 316.451 -0.78633 1.85524 0
M  V30 3531 O 315.507 -1.56183 1.98402 0
M  V30 3532 C 316.82 1.62801 2.52817 0
M  V30 3533 C 318.368 1.63897 2.66659 0
M  V30 3534 C 318.843 2.5978 3.77198 0
M  V30 3535 N 320.334 2.58133 3.84606 0
M  V30 3536 C 321.069 3.29003 4.69621 0
M  V30 3537 N 320.565 4.09339 5.58939 0
M  V30 3538 N 322.358 3.179 4.63569 0
M  V30 3539 H 314.509 1.88526 0.978344 0
M  V30 3540 H 316.772 0.810815 0.491206 0
M  V30 3541 H 316.478 2.65869 2.30232 0
M  V30 3542 H 316.352 1.38898 3.50695 0
M  V30 3543 H 318.739 0.615481 2.8861 0
M  V30 3544 H 318.82 1.91858 1.69187 0
M  V30 3545 H 318.464 3.62254 3.55997 0
M  V30 3546 H 318.394 2.29105 4.7415 0
M  V30 3547 H 320.885 1.99809 3.20757 0
M  V30 3548 H 321.198 4.6034 6.20731 0
M  V30 3549 H 319.543 4.13438 5.58654 0
M  V30 3550 H 322.734 2.54612 3.92798 0
M  V30 3551 H 322.907 3.73398 5.29602 0
M  V30 3552 N 316.313 -1.40141 0.720998 0
M  V30 3553 C 317.223 -2.34486 0.0731031 0
M  V30 3554 C 318.239 -1.57587 -0.737723 0
M  V30 3555 O 319.415 -1.89949 -0.669429 0
M  V30 3556 C 316.48 -3.36528 -0.833656 0
M  V30 3557 C 315.541 -4.29298 -0.0121673 0
M  V30 3558 C 314.774 -5.26466 -0.875742 0
M  V30 3559 O 314.997 -5.29745 -2.11485 0
M  V30 3560 O 313.931 -6.01092 -0.31185 0
M  V30 3561 H 317.757 -2.9152 0.851444 0
M  V30 3562 H 315.342 -1.41427 0.481527 0
M  V30 3563 H 317.224 -3.99093 -1.35289 0
M  V30 3564 H 315.899 -2.81899 -1.59105 0
M  V30 3565 H 314.806 -3.70001 0.552262 0
M  V30 3566 H 316.139 -4.87094 0.707129 0
M  V30 3567 N 317.792 -0.46758 -1.50504 0
M  V30 3568 C 318.742 0.34698 -2.25344 0
M  V30 3569 C 319.726 0.964469 -1.2879 0
M  V30 3570 O 320.918 0.8776 -1.53711 0
M  V30 3571 C 318.047 1.43042 -3.1208 0
M  V30 3572 C 317.133 0.82084 -4.16081 0
M  V30 3573 N 317.524 -0.0567602 -5.05768 0
M  V30 3574 C 315.822 1.08517 -4.32597 0
M  V30 3575 C 316.523 -0.402343 -5.80307 0
M  V30 3576 N 315.499 0.221607 -5.43148 0
M  V30 3577 H 319.301 -0.329129 -2.92051 0
M  V30 3578 H 316.815 -0.281508 -1.59942 0
M  V30 3579 H 318.812 2.02712 -3.64299 0
M  V30 3580 H 317.472 2.10856 -2.46921 0
M  V30 3581 H 318.483 -0.425349 -5.1615 0
M  V30 3582 H 315.16 1.75855 -3.78657 0
M  V30 3583 H 316.55 -1.11834 -6.62528 0
M  V30 3584 N 319.27 1.56325 -0.20005 0
M  V30 3585 C 320.681 1.8408 0.31167 0
M  V30 3586 C 321.032 1.12087 1.61031 0
M  V30 3587 O 320.157 0.38332 2.12978 0
M  V30 3588 C 320.752 3.33932 0.57226 0
M  V30 3589 C 319.311 3.6208 1.02834 0
M  V30 3590 C 318.458 2.77186 0.079634 0
M  V30 3591 H 321.409 1.52939 -0.423729 0
M  V30 3592 H 321.43 3.52971 1.42096 0
M  V30 3593 H 320.942 3.86303 -0.37308 0
M  V30 3594 H 319.043 3.15147 1.98778 0
M  V30 3595 H 319.156 4.7023 0.917624 0
M  V30 3596 H 317.52 2.47951 0.582448 0
M  V30 3597 H 318.303 3.32347 -0.860238 0
M  V30 3598 N 320.748 -0.0735177 1.57428 0
M  V30 3599 C 321.695 -1.08756 2.0357 0
M  V30 3600 C 322.665 -1.38559 0.916 0
M  V30 3601 O 323.85 -1.49656 1.18354 0
M  V30 3602 C 320.99 -2.39657 2.48311 0
M  V30 3603 C 320.103 -2.16399 3.73892 0
M  V30 3604 C 319.238 -3.40852 4.07423 0
M  V30 3605 C 318.277 -3.1295 5.2605 0
M  V30 3606 N 317.414 -4.29729 5.55228 0
M  V30 3607 H 322.254 -0.687104 2.8997 0
M  V30 3608 H 319.791 -0.327709 1.43403 0
M  V30 3609 H 321.749 -3.16081 2.72303 0
M  V30 3610 H 320.379 -2.77508 1.64891 0
M  V30 3611 H 319.431 -1.30676 3.57251 0
M  V30 3612 H 320.743 -1.91788 4.60455 0
M  V30 3613 H 319.897 -4.25671 4.32306 0
M  V30 3614 H 318.636 -3.68537 3.19425 0
M  V30 3615 H 317.641 -2.26526 5.00965 0
M  V30 3616 H 318.866 -2.86589 6.15665 0
M  V30 3617 H 316.812 -4.57448 4.70188 0
M  V30 3618 H 316.729 -4.08385 6.36206 0
M  V30 3619 H 317.997 -5.1555 5.84661 0
M  V30 3620 N 322.226 -1.5378 -0.344866 0
M  V30 3621 C 323.472 -1.71216 -1.08687 0
M  V30 3622 C 323.805 -0.473281 -1.88345 0
M  V30 3623 O 323.08 0.52968 -1.87149 0
M  V30 3624 C 323.363 -2.97486 -2.02914 0
M  V30 3625 C 323.216 -4.31579 -1.26727 0
M  V30 3626 C 324.535 -3.19422 -3.0275 0
M  V30 3627 H 321.654 -0.62301 -0.393735 0
M  V30 3628 H 324.296 -1.8645 -0.365563 0
M  V30 3629 H 322.446 -2.84629 -2.64421 0
M  V30 3630 H 324.118 -4.56284 -0.67845 0
M  V30 3631 H 322.361 -4.30049 -0.569273 0
M  V30 3632 H 323.032 -5.16106 -1.95803 0
M  V30 3633 H 325.508 -3.316 -2.51357 0
M  V30 3634 H 324.384 -4.09169 -3.65885 0
M  V30 3635 H 324.645 -2.35656 -3.74057 0
M  V30 3636 N 323.704 0.605807 -1.45491 0
M  V30 3637 C 324.652 1.73754 -1.54636 0
M  V30 3638 C 325.646 1.64207 -0.416219 0
M  V30 3639 O 326.852 1.69979 -0.592199 0
M  V30 3640 H 323.227 0.574073 -0.485741 0
M  V30 3641 H 325.198 1.63169 -2.49837 0
M  V30 3642 C 323.947 3.12135 -1.53189 0
M  V30 3643 H 323.27 3.20141 -2.39478 0
M  V30 3644 H 324.71 3.91147 -1.63645 0
M  V30 3645 C 323.169 3.35921 -0.256616 0
M  V30 3646 O 323.699 3.96194 0.662798 0
M  V30 3647 N 321.905 2.90204 -0.151751 0
M  V30 3648 H 321.452 2.41336 -0.90081 0
M  V30 3649 H 321.41 3.06492 0.700699 0
M  V30 3650 N 325.182 1.32811 0.848464 0
M  V30 3651 C 326.428 1.23907 1.60546 0
M  V30 3652 C 326.761 -0.197161 1.93197 0
M  V30 3653 O 326.036 -1.13596 1.5788 0
M  V30 3654 C 326.319 2.10489 2.92175 0
M  V30 3655 C 326.172 3.62522 2.66266 0
M  V30 3656 C 327.491 1.97075 3.93509 0
M  V30 3657 H 324.61 0.451459 0.58254 0
M  V30 3658 H 327.252 1.62818 0.979296 0
M  V30 3659 H 325.402 1.77434 3.45614 0
M  V30 3660 H 327.074 4.05821 2.19334 0
M  V30 3661 H 325.317 3.84879 2.00126 0
M  V30 3662 H 325.988 4.18437 3.6002 0
M  V30 3663 H 328.464 2.26045 3.49346 0
M  V30 3664 H 327.34 2.59923 4.83457 0
M  V30 3665 H 327.601 0.940186 4.31987 0
M  V30 3666 N 326.66 -1.06551 1.16123 0
M  V30 3667 C 328.071 -1.60768 0.949232 0
M  V30 3668 C 328.422 -1.89523 -0.507508 0
M  V30 3669 O 327.547 -1.66671 -1.38021 0
M  V30 3670 C 328.142 -2.92086 1.71671 0
M  V30 3671 C 326.701 -3.43015 1.54977 0
M  V30 3672 C 325.848 -2.16947 1.72711 0
M  V30 3673 H 328.799 -0.895354 1.31031 0
M  V30 3674 H 328.82 -3.6138 1.19099 0
M  V30 3675 H 328.332 -2.71127 2.7769 0
M  V30 3676 H 326.433 -3.69039 0.513873 0
M  V30 3677 H 326.546 -4.18516 2.33198 0
M  V30 3678 H 324.91 -2.27041 1.15431 0
M  V30 3679 H 325.693 -1.98473 2.80113 0
M  V30 3680 N 328.138 -0.959301 -1.25041 0
M  V30 3681 C 329.386 -0.615393 -1.92503 0
M  V30 3682 C 329.707 0.850969 -1.75452 0
M  V30 3683 O 328.977 1.60658 -1.12098 0
M  V30 3684 H 327.557 -0.224613 -0.712431 0
M  V30 3685 H 330.219 -1.21855 -1.5211 0
M  V30 3686 H 329.315 -0.848738 -3.00338 0
M  V30 3687 N 329.616 1.39756 -0.72842 0
M  V30 3688 C 330.841 2.05472 -0.282159 0
M  V30 3689 C 331.266 1.54549 1.07221 0
M  V30 3690 O 330.624 0.686372 1.67805 0
M  V30 3691 C 330.672 3.59462 -0.286264 0
M  V30 3692 O 329.776 4.05918 0.728298 0
M  V30 3693 H 329.117 0.651226 -0.129618 0
M  V30 3694 H 331.647 1.78915 -0.992499 0
M  V30 3695 H 331.657 4.07798 -0.128373 0
M  V30 3696 H 330.332 3.95889 -1.27456 0
M  V30 3697 H 328.909 3.69012 0.537081 0
M  V30 3698 N 331.094 0.475555 1.50254 0
M  V30 3699 C 332.026 -0.352649 2.26471 0
M  V30 3700 C 333.039 -0.953165 1.3198 0
M  V30 3701 O 334.228 -0.840815 1.57457 0
M  V30 3702 C 331.328 -1.50902 3.0345 0
M  V30 3703 C 330.501 -1.02047 4.25329 0
M  V30 3704 C 329.56 -2.05142 4.84565 0
M  V30 3705 O 328.586 -1.63023 5.45355 0
M  V30 3706 N 329.788 -3.37987 4.71959 0
M  V30 3707 H 332.553 0.300767 2.98187 0
M  V30 3708 H 330.114 0.306598 1.5897 0
M  V30 3709 H 332.106 -2.19572 3.39956 0
M  V30 3710 H 330.676 -2.06705 2.34504 0
M  V30 3711 H 329.896 -0.159507 3.93877 0
M  V30 3712 H 331.184 -0.672061 5.04342 0
M  V30 3713 H 330.582 -3.74913 4.23623 0
M  V30 3714 H 329.139 -4.02443 5.12721 0
M  V30 3715 N 332.573 -1.56217 0.208337 0
M  V30 3716 C 333.536 -2.18455 -0.693557 0
M  V30 3717 C 334.536 -1.14268 -1.13135 0
M  V30 3718 O 335.726 -1.39577 -1.0423 0
M  V30 3719 C 332.858 -2.79727 -1.94848 0
M  V30 3720 H 334.051 -2.99519 -0.15114 0
M  V30 3721 H 331.604 -1.56245 -0.041287 0
M  V30 3722 H 332.339 -2.02497 -2.53309 0
M  V30 3723 H 332.124 -3.56009 -1.64316 0
M  V30 3724 H 333.614 -3.27475 -2.59133 0
M  V30 3725 N 334.051 0.0651679 -1.57465 0
M  V30 3726 C 334.983 1.10359 -2.00882 0
M  V30 3727 C 335.996 1.346 -0.915788 0
M  V30 3728 O 337.185 1.32723 -1.1936 0
M  V30 3729 C 334.285 2.45312 -2.33828 0
M  V30 3730 C 333.458 2.40934 -3.65061 0
M  V30 3731 C 332.517 3.58047 -3.85602 0
M  V30 3732 O 331.543 3.39175 -4.57109 0
M  V30 3733 N 332.745 4.78637 -3.28462 0
M  V30 3734 H 335.51 0.733807 -2.90578 0
M  V30 3735 H 333.071 0.253719 -1.599 0
M  V30 3736 H 335.063 3.22314 -2.44737 0
M  V30 3737 H 333.633 2.74267 -1.49988 0
M  V30 3738 H 332.853 1.49273 -3.64844 0
M  V30 3739 H 334.141 2.35117 -4.51218 0
M  V30 3740 H 333.539 4.96872 -2.70433 0
M  V30 3741 H 332.096 5.53127 -3.44809 0
M  V30 3742 N 335.529 1.53961 0.336706 0
M  V30 3743 C 336.459 1.85417 1.41925 0
M  V30 3744 C 337.44 0.709856 1.5458 0
M  V30 3745 O 338.625 0.962396 1.68676 0
M  V30 3746 C 335.755 2.06985 2.78881 0
M  V30 3747 C 334.709 3.22813 2.81026 0
M  V30 3748 C 334.035 3.29727 4.20932 0
M  V30 3749 C 335.335 4.60767 2.45949 0
M  V30 3750 H 337.029 2.76079 1.15848 0
M  V30 3751 H 334.575 1.32839 0.555859 0
M  V30 3752 H 336.528 2.27575 3.54665 0
M  V30 3753 H 335.252 1.13061 3.06406 0
M  V30 3754 H 333.911 3.0209 2.07695 0
M  V30 3755 H 333.559 2.33385 4.45579 0
M  V30 3756 H 333.259 4.07566 4.23277 0
M  V30 3757 H 334.783 3.52536 4.98549 0
M  V30 3758 H 336.197 4.81325 3.11446 0
M  V30 3759 H 334.594 5.4106 2.59566 0
M  V30 3760 H 335.664 4.6391 1.41122 0
M  V30 3761 N 337.007 -0.598083 1.45811 0
M  V30 3762 C 337.954 -1.7082 1.55207 0
M  V30 3763 C 338.924 -1.61278 0.39732 0
M  V30 3764 O 340.109 -1.80717 0.612038 0
M  V30 3765 C 337.249 -3.09144 1.53376 0
M  V30 3766 C 336.362 -3.29423 2.79472 0
M  V30 3767 C 335.497 -4.57907 2.69248 0
M  V30 3768 C 334.536 -4.71476 3.90354 0
M  V30 3769 N 333.673 -5.9127 3.78608 0
M  V30 3770 H 338.513 -1.62125 2.50039 0
M  V30 3771 H 336.05 -0.790389 1.24062 0
M  V30 3772 H 338.008 -3.89186 1.50301 0
M  V30 3773 H 336.638 -3.16773 0.620876 0
M  V30 3774 H 335.69 -2.43091 2.92594 0
M  V30 3775 H 337.002 -3.3532 3.69272 0
M  V30 3776 H 336.156 -5.46157 2.64192 0
M  V30 3777 H 334.895 -4.54423 1.77063 0
M  V30 3778 H 333.9 -3.81648 3.95759 0
M  V30 3779 H 335.125 -4.76751 4.83617 0
M  V30 3780 H 333.071 -5.88813 2.89199 0
M  V30 3781 H 332.988 -5.98369 4.6205 0
M  V30 3782 H 334.256 -6.81992 3.77501 0
M  V30 3783 N 338.485 -1.33259 -0.841409 0
M  V30 3784 C 339.395 -1.25332 -1.98316 0
M  V30 3785 C 340.411 -0.164364 -1.73222 0
M  V30 3786 O 341.587 -0.387486 -1.97637 0
M  V30 3787 C 338.652 -0.990078 -3.32262 0
M  V30 3788 C 337.713 -2.16879 -3.70489 0
M  V30 3789 C 336.946 -1.91801 -4.98044 0
M  V30 3790 O 337.169 -0.867075 -5.63771 0
M  V30 3791 O 336.103 -2.78267 -5.33714 0
M  V30 3792 H 339.929 -2.21344 -2.07944 0
M  V30 3793 H 337.514 -1.1328 -0.974058 0
M  V30 3794 H 339.396 -0.860321 -4.12524 0
M  V30 3795 H 338.071 -0.0602155 -3.23644 0
M  V30 3796 H 336.978 -2.35407 -2.90748 0
M  V30 3797 H 338.311 -3.0819 -3.8377 0
M  V30 3798 N 339.963 1.05934 -1.16686 0
M  V30 3799 C 341.209 1.79065 -0.95203 0
M  V30 3800 C 341.542 1.87147 0.518629 0
M  V30 3801 O 340.817 1.36574 1.38484 0
M  V30 3802 C 341.1 3.23359 -1.58464 0
M  V30 3803 C 340.953 3.23336 -3.12689 0
M  V30 3804 C 342.272 4.21004 -1.28232 0
M  V30 3805 H 339.391 0.65005 -0.34728 0
M  V30 3806 H 342.033 1.23868 -1.44072 0
M  V30 3807 H 340.183 3.70493 -1.16908 0
M  V30 3808 H 341.855 2.84336 -3.6325 0
M  V30 3809 H 340.098 2.61886 -3.4583 0
M  V30 3810 H 340.769 4.25144 -3.52075 0
M  V30 3811 H 343.245 3.8233 -1.64203 0
M  V30 3812 H 342.121 5.20225 -1.75092 0
M  V30 3813 H 342.382 4.41639 -0.201791 0
M  V30 3814 N 341.441 0.965919 1.2453 0
M  V30 3815 C 342.687 0.637349 1.93156 0
M  V30 3816 C 343.042 -0.818261 1.74133 0
M  V30 3817 O 342.335 -1.58079 1.08266 0
M  V30 3818 C 342.529 0.945428 3.44669 0
M  V30 3819 C 342.358 2.42944 3.78429 0
M  V30 3820 C 341.128 3.08895 3.9989 0
M  V30 3821 C 343.326 3.40941 3.8505 0
M  V30 3822 N 341.308 4.47052 4.20735 0
M  V30 3823 C 342.679 4.64448 4.10717 0
M  V30 3824 C 344.734 3.35624 3.67779 0
M  V30 3825 C 343.437 5.83292 4.20907 0
M  V30 3826 C 345.463 4.53818 3.79214 0
M  V30 3827 C 344.825 5.76114 4.05304 0
M  V30 3828 H 340.924 0.284034 0.728594 0
M  V30 3829 H 343.508 1.24041 1.50073 0
M  V30 3830 H 341.679 0.371193 3.86622 0
M  V30 3831 H 343.411 0.575613 4.00586 0
M  V30 3832 H 340.166 2.59432 3.96222 0
M  V30 3833 H 340.59 5.18634 4.35141 0
M  V30 3834 H 345.232 2.4211 3.46616 0
M  V30 3835 H 342.95 6.77236 4.40883 0
M  V30 3836 H 346.536 4.51263 3.67224 0
M  V30 3837 H 345.416 6.66045 4.13949 0
M  V30 3838 N 342.919 -1.39368 0.735821 0
M  V30 3839 C 343.829 -2.34395 0.0979693 0
M  V30 3840 C 344.845 -1.58361 -0.720968 0
M  V30 3841 O 346.021 -1.90648 -0.649245 0
M  V30 3842 C 343.086 -3.37393 -0.797916 0
M  V30 3843 C 342.147 -4.29287 0.0333662 0
M  V30 3844 C 341.38 -5.27365 -0.819854 0
M  V30 3845 O 341.603 -5.31959 -2.05855 0
M  V30 3846 O 340.537 -6.01389 -0.248079 0
M  V30 3847 H 344.363 -2.90601 0.882315 0
M  V30 3848 H 341.948 -1.40909 0.4965 0
M  V30 3849 H 343.83 -4.00505 -1.31048 0
M  V30 3850 H 342.505 -2.83571 -1.56106 0
M  V30 3851 H 341.412 -3.69395 0.591475 0
M  V30 3852 H 342.745 -4.86317 0.758752 0
M  V30 3853 N 344.397 -0.483516 -1.5 0
M  V30 3854 C 345.307 0.309172 -2.32554 0
M  V30 3855 C 346.323 0.984159 -1.43493 0
M  V30 3856 O 347.499 0.969399 -1.76535 0
M  V30 3857 C 344.564 1.36979 -3.18493 0
M  V30 3858 C 343.625 0.710095 -4.23387 0
M  V30 3859 C 342.858 1.72018 -5.05218 0
M  V30 3860 O 343.081 2.94813 -4.88305 0
M  V30 3861 O 342.015 1.28515 -5.8802 0
M  V30 3862 H 345.841 -0.366064 -3.01486 0
M  V30 3863 H 343.426 -0.24514 -1.47375 0
M  V30 3864 H 345.308 1.98385 -3.71781 0
M  V30 3865 H 343.983 2.02828 -2.52275 0
M  V30 3866 H 342.89 0.0567539 -3.74057 0
M  V30 3867 H 344.223 0.0943557 -4.9211 0
M  V30 3868 N 345.875 1.56104 -0.216619 0
M  V30 3869 C 346.805 2.23063 0.690296 0
M  V30 3870 C 347.786 1.20072 1.20485 0
M  V30 3871 O 348.971 1.48643 1.24976 0
M  V30 3872 C 346.101 2.90672 1.90072 0
M  V30 3873 C 345.055 4.00092 1.5202 0
M  V30 3874 C 344.381 4.54972 2.80899 0
M  V30 3875 C 345.681 5.17398 0.71391 0
M  V30 3876 H 347.375 2.99109 0.132038 0
M  V30 3877 H 344.921 1.43866 0.0620664 0
M  V30 3878 H 346.874 3.36204 2.54057 0
M  V30 3879 H 345.598 2.12066 2.48386 0
M  V30 3880 H 344.257 3.55283 0.903839 0
M  V30 3881 H 343.905 3.73102 3.37348 0
M  V30 3882 H 343.605 5.28817 2.56176 0
M  V30 3883 H 345.129 5.0322 3.45836 0
M  V30 3884 H 346.543 5.59342 1.25735 0
M  V30 3885 H 344.94 5.97444 0.563951 0
M  V30 3886 H 346.01 4.84088 -0.280527 0
M  V30 3887 N 347.353 -0.0568162 1.57498 0
M  V30 3888 C 348.63 -0.786954 1.79071 0
M  V30 3889 C 349.01 -1.95028 0.80792 0
M  V30 3890 O 348.358 -2.27968 -0.155858 0
M  V30 3891 C 348.568 -1.24594 3.26002 0
M  V30 3892 C 349.916 -1.67323 3.90241 0
M  V30 3893 O 350.94 -1.34124 3.29984 0
M  V30 3894 O 349.799 -2.28842 4.9628 0
M  V30 3895 H 346.893 -0.378262 0.735423 0
M  V30 3896 H 349.439 -0.035734 1.69662 0
M  V30 3897 H 348.211 -0.41423 3.89101 0
M  V30 3898 H 347.834 -2.05803 3.40192 0
M  V30 3899 N 348.832 -1.54138 -0.328536 0
M  V30 3900 C 350.08 -1.71765 -1.06496 0
M  V30 3901 C 350.401 -0.49149 -1.88704 0
M  V30 3902 O 349.671 0.494539 -1.89555 0
M  V30 3903 H 348.251 -0.633295 -0.396164 0
M  V30 3904 H 350.913 -1.91429 -0.366176 0
M  V30 3905 H 350.009 -2.5951 -1.73381 0
M  V30 3906 N 350.31 0.590341 -1.46126 0
M  V30 3907 C 351.24 1.71032 -1.58966 0
M  V30 3908 C 352.221 1.64302 -0.440335 0
M  V30 3909 O 353.406 1.82436 -0.665634 0
M  V30 3910 C 350.536 3.09665 -1.57241 0
M  V30 3911 C 349.49 3.31221 -2.71066 0
M  V30 3912 C 348.816 4.70303 -2.54399 0
M  V30 3913 C 350.116 3.19796 -4.1295 0
M  V30 3914 H 351.81 1.60543 -2.52718 0
M  V30 3915 H 349.356 0.770933 -1.21625 0
M  V30 3916 H 351.309 3.87831 -1.64819 0
M  V30 3917 H 350.033 3.21036 -0.600289 0
M  V30 3918 H 348.692 2.55452 -2.62944 0
M  V30 3919 H 348.34 4.78429 -1.55288 0
M  V30 3920 H 348.04 4.85679 -3.30741 0
M  V30 3921 H 349.564 5.50647 -2.63857 0
M  V30 3922 H 350.978 3.87815 -4.22223 0
M  V30 3923 H 349.375 3.46696 -4.89818 0
M  V30 3924 H 350.445 2.16983 -4.33643 0
M  V30 3925 N 351.788 1.33704 0.83433 0
M  V30 3926 C 353.065 1.16011 1.57483 0
M  V30 3927 C 353.445 -0.27176 2.09343 0
M  V30 3928 O 352.793 -1.27146 1.89858 0
M  V30 3929 C 353.003 2.20507 2.70514 0
M  V30 3930 C 354.351 2.54898 3.39577 0
M  V30 3931 O 355.375 2.19209 2.80759 0
M  V30 3932 O 354.234 3.16158 4.45765 0
M  V30 3933 H 351.328 0.448992 0.694503 0
M  V30 3934 H 353.874 1.453 0.876691 0
M  V30 3935 H 352.646 3.16667 2.29865 0
M  V30 3936 H 352.269 1.92329 3.47987 0
M  V30 3937 N 353.266 -1.05314 1.17247 0
M  V30 3938 C 354.677 -1.59753 0.96623 0
M  V30 3939 C 355.028 -1.9005 -0.487378 0
M  V30 3940 O 354.153 -1.68126 -1.36245 0
M  V30 3941 C 354.748 -2.90249 1.74759 0
M  V30 3942 C 353.307 -3.41352 1.58606 0
M  V30 3943 C 352.454 -2.15103 1.75002 0
M  V30 3944 H 355.405 -0.881406 1.31973 0
M  V30 3945 H 355.426 -3.60097 1.22925 0
M  V30 3946 H 354.938 -2.68166 2.8055 0
M  V30 3947 H 353.039 -3.68474 0.552985 0
M  V30 3948 H 353.152 -4.16019 2.37624 0
M  V30 3949 H 351.516 -2.25804 1.17833 0
M  V30 3950 H 352.299 -1.95491 2.82202 0
M  V30 3951 N 354.744 -0.972509 -1.24016 0
M  V30 3952 C 355.692 -0.498562 -2.27194 0
M  V30 3953 C 356.686 0.440372 -1.63576 0
M  V30 3954 O 357.892 0.315133 -1.7722 0
M  V30 3955 H 354.267 -0.142775 -0.738322 0
M  V30 3956 H 356.238 -1.38065 -2.64539 0
M  V30 3957 C 354.987 0.191072 -3.47175 0
M  V30 3958 H 354.31 -0.522318 -3.96373 0
M  V30 3959 H 355.75 0.486445 -4.212 0
M  V30 3960 C 354.209 1.41967 -3.05527 0
M  V30 3961 O 354.739 2.51642 -3.13112 0
M  V30 3962 N 352.945 1.28746 -2.60524 0
M  V30 3963 H 352.492 0.395089 -2.54552 0
M  V30 3964 H 352.45 2.11061 -2.33025 0
M  V30 3965 N 356.222 1.38976 -0.743202 0
M  V30 3966 C 357.638 1.53984 -0.419664 0
M  V30 3967 C 357.838 1.70837 1.0685 0
M  V30 3968 O 356.894 1.7135 1.8546 0
M  V30 3969 C 358.207 2.75287 -1.20985 0
M  V30 3970 C 359.755 2.89129 -1.19889 0
M  V30 3971 C 360.23 4.13381 -1.97181 0
M  V30 3972 N 361.721 4.20437 -1.94389 0
M  V30 3973 C 362.456 5.15547 -2.50996 0
M  V30 3974 N 361.952 6.16395 -3.16274 0
M  V30 3975 N 363.745 5.07822 -2.40984 0
M  V30 3976 H 355.896 1.26285 -1.7078 0
M  V30 3977 H 358.159 0.612689 -0.723406 0
M  V30 3978 H 357.865 2.69204 -2.26323 0
M  V30 3979 H 357.739 3.68184 -0.819759 0
M  V30 3980 H 360.126 2.947 -0.153606 0
M  V30 3981 H 360.207 1.97272 -1.62841 0
M  V30 3982 H 359.851 4.08572 -3.01714 0
M  V30 3983 H 359.781 5.04298 -1.51629 0
M  V30 3984 H 362.272 3.48205 -1.46839 0
M  V30 3985 H 362.585 6.85443 -3.56915 0
M  V30 3986 H 360.93 6.16758 -3.20367 0
M  V30 3987 H 364.121 4.27973 -1.89622 0
M  V30 3988 H 364.294 5.81767 -2.85397 0
M  V30 3989 N 357.7 0.491464 1.49741 0
M  V30 3990 C 358.947 -0.0564256 2.02421 0
M  V30 3991 C 359.275 -1.37872 1.37192 0
M  V30 3992 O 358.53 -1.89375 0.493508 0
M  V30 3993 C 358.829 -0.267329 3.56399 0
M  V30 3994 C 358.495 0.975775 4.40215 0
M  V30 3995 C 357.157 1.31655 4.62839 0
M  V30 3996 C 359.509 1.80251 4.89039 0
M  V30 3997 C 356.837 2.48375 5.31532 0
M  V30 3998 C 359.189 2.96116 5.59015 0
M  V30 3999 C 357.853 3.30585 5.79888 0
M  V30 4000 H 357.123 -0.0206476 0.740712 0
M  V30 4001 H 359.77 0.649686 1.80143 0
M  V30 4002 H 358.075 -1.05588 3.77304 0
M  V30 4003 H 359.772 -0.705549 3.94744 0
M  V30 4004 H 356.362 0.700315 4.2284 0
M  V30 4005 H 360.546 1.55239 4.71396 0
M  V30 4006 H 355.802 2.7533 5.45897 0
M  V30 4007 H 359.976 3.60509 5.95824 0
M  V30 4008 H 357.603 4.21132 6.32892 0
M  V30 4009 N 359.178 -1.55987 0.224894 0
M  V30 4010 C 360.126 -2.21808 -0.700283 0
M  V30 4011 C 361.12 -1.19854 -1.19714 0
M  V30 4012 O 362.326 -1.37925 -1.15658 0
M  V30 4013 H 358.701 -0.711226 -0.244258 0
M  V30 4014 H 360.672 -2.98152 -0.121749 0
M  V30 4015 C 359.421 -2.91444 -1.8962 0
M  V30 4016 H 358.744 -3.69655 -1.52299 0
M  V30 4017 H 360.184 -3.40894 -2.52125 0
M  V30 4018 C 358.643 -1.94098 -2.75368 0
M  V30 4019 O 359.173 -1.46004 -3.74227 0
M  V30 4020 N 357.379 -1.61675 -2.41474 0
M  V30 4021 H 356.926 -2.00979 -1.61137 0
M  V30 4022 H 356.884 -0.968036 -2.99126 0
M  V30 4023 N 360.656 0.0484629 -1.57525 0
M  V30 4024 C 362.067 0.597486 -1.76881 0
M  V30 4025 C 362.418 1.76664 -0.853475 0
M  V30 4026 O 361.543 2.16357 -0.0433656 0
M  V30 4027 C 362.138 1.09066 -3.20765 0
M  V30 4028 C 360.697 1.58535 -3.41385 0
M  V30 4029 C 359.844 0.514868 -2.72478 0
M  V30 4030 H 362.795 -0.177758 -1.57701 0
M  V30 4031 H 362.816 1.95875 -3.2621 0
M  V30 4032 H 362.328 0.239521 -3.8736 0
M  V30 4033 H 360.429 2.45898 -2.79937 0
M  V30 4034 H 360.542 1.64622 -4.49929 0
M  V30 4035 H 358.906 0.965407 -2.35695 0
M  V30 4036 H 359.689 -0.32648 -3.41744 0
M  V30 4037 N 362.134 1.5431 0.320358 0
M  V30 4038 C 363.081 1.83918 1.39438 0
M  V30 4039 C 364.051 0.686525 1.51248 0
M  V30 4040 O 365.236 0.933269 1.66417 0
M  V30 4041 C 362.376 2.075 2.75749 0
M  V30 4042 C 361.489 3.35177 2.72544 0
M  V30 4043 C 360.624 3.48704 4.00723 0
M  V30 4044 C 359.663 4.70244 3.91838 0
M  V30 4045 N 358.8 4.80679 5.11754 0
M  V30 4046 H 363.64 2.75544 1.13489 0
M  V30 4047 H 361.177 1.36459 0.549309 0
M  V30 4048 H 363.135 2.19166 3.54996 0
M  V30 4049 H 361.765 1.19163 3 0
M  V30 4050 H 360.817 3.32233 1.85271 0
M  V30 4051 H 362.129 4.24534 2.61863 0
M  V30 4052 H 361.283 3.59928 4.88402 0
M  V30 4053 H 360.022 2.57445 4.14214 0
M  V30 4054 H 359.027 4.59072 3.02544 0
M  V30 4055 H 360.252 5.6289 3.7991 0
M  V30 4056 H 358.198 3.92337 5.25745 0
M  V30 4057 H 358.115 5.64007 5.0342 0
M  V30 4058 H 359.383 4.96239 6.01138 0
M  V30 4059 N 363.613 -0.582584 1.46437 0
M  V30 4060 C 364.841 -1.36682 1.55324 0
M  V30 4061 C 365.256 -1.87796 0.194409 0
M  V30 4062 O 364.613 -1.63623 -0.808318 0
M  V30 4063 C 364.664 -2.55426 2.55812 0
M  V30 4064 O 364.385 -2.0643 3.86417 0
M  V30 4065 C 365.886 -3.47976 2.74641 0
M  V30 4066 H 363.106 -0.417545 0.525259 0
M  V30 4067 H 365.65 -0.708219 1.91845 0
M  V30 4068 H 363.805 -3.17275 2.22295 0
M  V30 4069 H 364.219 -2.83762 4.41111 0
M  V30 4070 H 365.693 -4.27775 3.48874 0
M  V30 4071 H 366.17 -3.99919 1.81553 0
M  V30 4072 H 366.776 -2.91962 3.09255 0
M  V30 4073 N 365.091 -1.34144 -0.827227 0
M  V30 4074 C 366.338 -1.26258 -1.58319 0
M  V30 4075 C 366.666 0.168595 -1.93768 0
M  V30 4076 O 365.921 1.12877 -1.59866 0
M  V30 4077 C 366.22 -2.09464 -2.89585 0
M  V30 4078 C 365.886 -3.58521 -2.73448 0
M  V30 4079 C 364.548 -3.99155 -2.68754 0
M  V30 4080 C 366.9 -4.53189 -2.57428 0
M  V30 4081 C 364.228 -5.32656 -2.45957 0
M  V30 4082 C 366.58 -5.86864 -2.36163 0
M  V30 4083 C 365.244 -6.26667 -2.29879 0
M  V30 4084 H 364.514 -0.462013 -0.579332 0
M  V30 4085 H 367.161 -1.65845 -0.95748 0
M  V30 4086 H 365.466 -1.62692 -3.56425 0
M  V30 4087 H 367.163 -2.00712 -3.47154 0
M  V30 4088 H 363.753 -3.26264 -2.77939 0
M  V30 4089 H 367.937 -4.22696 -2.60081 0
M  V30 4090 H 363.193 -5.62519 -2.39546 0
M  V30 4091 H 367.367 -6.59813 -2.22754 0
M  V30 4092 H 364.994 -7.30049 -2.11975 0
M  V30 4093 N 366.569 1.04691 -1.17803 0
M  V30 4094 C 367.816 1.77782 -0.969532 0
M  V30 4095 C 368.144 1.87926 0.501401 0
M  V30 4096 O 367.399 1.37918 1.38842 0
M  V30 4097 C 367.698 3.21467 -1.56186 0
M  V30 4098 C 367.364 3.3137 -3.05786 0
M  V30 4099 C 366.026 3.3378 -3.46619 0
M  V30 4100 C 368.378 3.31976 -4.01797 0
M  V30 4101 C 365.706 3.34431 -4.82051 0
M  V30 4102 C 368.058 3.34167 -5.37136 0
M  V30 4103 C 366.722 3.34866 -5.77426 0
M  V30 4104 H 365.992 0.650549 -0.354777 0
M  V30 4105 H 368.639 1.23006 -1.46772 0
M  V30 4106 H 366.944 3.79203 -0.985515 0
M  V30 4107 H 368.641 3.76652 -1.37602 0
M  V30 4108 H 365.231 3.3021 -2.73238 0
M  V30 4109 H 369.415 3.29311 -3.71306 0
M  V30 4110 H 364.671 3.33285 -5.12573 0
M  V30 4111 H 368.845 3.33585 -6.11305 0
M  V30 4112 H 366.472 3.35124 -6.82346 0
M  V30 4113 N 368.047 0.979072 1.23499 0
M  V30 4114 C 369.296 0.642751 1.91185 0
M  V30 4115 C 369.609 -0.827253 1.77245 0
M  V30 4116 O 370.815 -1.27458 2.39722 0
M  V30 4117 C 369.271 1.09901 3.42709 0
M  V30 4118 C 368.879 2.59327 3.65313 0
M  V30 4119 C 370.623 0.836371 4.16179 0
M  V30 4120 C 368.53 2.98627 5.10467 0
M  V30 4121 H 367.46 0.236698 0.715884 0
M  V30 4122 H 370.111 1.1868 1.39955 0
M  V30 4123 H 368.493 0.48319 3.93041 0
M  V30 4124 H 369.667 3.26136 3.25533 0
M  V30 4125 H 367.982 2.83323 3.05151 0
M  V30 4126 H 370.579 1.10586 5.23139 0
M  V30 4127 H 370.922 -0.227509 4.15678 0
M  V30 4128 H 371.455 1.41371 3.71832 0
M  V30 4129 H 368.194 4.04133 5.16098 0
M  V30 4130 H 367.714 2.3651 5.51201 0
M  V30 4131 H 369.393 2.89159 5.78788 0
M  V30 4132 N 369.525 -1.3858 0.750561 0
M  V30 4133 C 370.455 -2.33102 0.136237 0
M  V30 4134 C 371.436 -1.54713 -0.706965 0
M  V30 4135 O 372.621 -1.83043 -0.648769 0
M  V30 4136 C 369.751 -3.38882 -0.760017 0
M  V30 4137 C 368.705 -4.27995 -0.0197785 0
M  V30 4138 C 368.031 -5.24605 -1.03408 0
M  V30 4139 C 369.331 -5.09554 1.14684 0
M  V30 4140 H 371.025 -2.84726 0.925822 0
M  V30 4141 H 368.571 -1.36898 0.446654 0
M  V30 4142 H 370.524 -4.0397 -1.19943 0
M  V30 4143 H 369.248 -2.85734 -1.58189 0
M  V30 4144 H 367.907 -3.64409 0.400184 0
M  V30 4145 H 367.555 -4.67746 -1.84994 0
M  V30 4146 H 367.255 -5.85081 -0.543464 0
M  V30 4147 H 368.779 -5.9257 -1.47288 0
M  V30 4148 H 370.193 -5.67899 0.785118 0
M  V30 4149 H 368.59 -5.7925 1.56812 0
M  V30 4150 H 369.66 -4.4347 1.96118 0
M  V30 4151 N 371.003 -0.499398 -1.49478 0
M  V30 4152 C 371.953 0.299103 -2.2603 0
M  V30 4153 C 372.937 0.936934 -1.30807 0
M  V30 4154 O 374.129 0.844798 -1.55538 0
M  V30 4155 C 371.258 1.36391 -3.15044 0
M  V30 4156 C 370.344 0.732398 -4.17728 0
M  V30 4157 N 370.735 -0.164028 -5.05534 0
M  V30 4158 C 369.033 0.993162 -4.34801 0
M  V30 4159 C 369.734 -0.525345 -5.79323 0
M  V30 4160 N 368.71 0.106348 -5.43496 0
M  V30 4161 H 372.512 -0.391003 -2.91287 0
M  V30 4162 H 370.026 -0.31537 -1.59308 0
M  V30 4163 H 372.023 1.94939 -3.68516 0
M  V30 4164 H 370.683 2.05571 -2.51338 0
M  V30 4165 H 371.694 -0.534736 -5.15132 0
M  V30 4166 H 368.371 1.67783 -3.82302 0
M  V30 4167 H 369.761 -1.25862 -6.60006 0
M  V30 4168 N 372.481 1.55866 -0.233164 0
M  V30 4169 C 373.758 1.90471 0.444988 0
M  V30 4170 C 374.138 1.15209 1.7689 0
M  V30 4171 O 373.486 0.265119 2.26957 0
M  V30 4172 C 373.696 3.4333 0.626559 0
M  V30 4173 C 375.044 4.14319 0.92871 0
M  V30 4174 O 376.068 3.48993 0.712926 0
M  V30 4175 O 374.927 5.29846 1.33887 0
M  V30 4176 H 372.021 0.792347 0.236885 0
M  V30 4177 H 374.567 1.67437 -0.276211 0
M  V30 4178 H 373.339 3.90095 -0.306822 0
M  V30 4179 H 372.962 3.72181 1.39881 0
M  V30 4180 N 373.959 -0.0401083 1.57549 0
M  V30 4181 C 375.208 -0.732108 1.87944 0
M  V30 4182 C 375.521 -1.77107 0.830206 0
M  V30 4183 O 376.727 -2.51488 1.02302 0
M  V30 4184 C 375.183 -1.35315 3.33494 0
M  V30 4185 C 374.791 -0.351105 4.46622 0
M  V30 4186 C 376.535 -2.02566 3.73051 0
M  V30 4187 C 374.442 -0.979859 5.83226 0
M  V30 4188 H 373.372 -0.277188 0.701201 0
M  V30 4189 H 376.023 0.0138501 1.83495 0
M  V30 4190 H 374.405 -2.14844 3.32653 0
M  V30 4191 H 375.579 0.416674 4.58912 0
M  V30 4192 H 373.894 0.218708 4.15825 0
M  V30 4193 H 376.491 -2.50441 4.72423 0
M  V30 4194 H 376.834 -2.83904 3.04474 0
M  V30 4195 H 377.367 -1.29827 3.76018 0
M  V30 4196 H 374.106 -0.206135 6.55176 0
M  V30 4197 H 373.626 -1.71774 5.74677 0
M  V30 4198 H 375.305 -1.49046 6.29599 0
M  V30 4199 N 375.437 -1.54477 -0.31217 0
M  V30 4200 C 376.385 -1.85395 -1.40469 0
M  V30 4201 C 377.379 -0.726749 -1.53019 0
M  V30 4202 O 378.585 -0.910582 -1.55269 0
M  V30 4203 H 374.96 -0.587845 -0.46898 0
M  V30 4204 H 376.931 -2.76736 -1.11623 0
M  V30 4205 C 375.68 -2.10811 -2.76503 0
M  V30 4206 H 375.003 -2.97014 -2.67625 0
M  V30 4207 H 376.443 -2.3639 -3.51988 0
M  V30 4208 C 374.902 -0.903165 -3.24568 0
M  V30 4209 O 375.432 -0.118085 -4.01526 0
M  V30 4210 N 373.638 -0.711634 -2.81752 0
M  V30 4211 H 373.185 -1.35171 -2.19286 0
M  V30 4212 H 373.143 0.0930473 -3.14262 0
M  V30 4213 N 376.915 0.57481 -1.46744 0
M  V30 4214 C 378.14 1.36341 -1.56288 0
M  V30 4215 C 378.565 1.86954 -0.207347 0
M  V30 4216 O 377.923 1.62006 0.813871 0
M  V30 4217 C 377.971 2.52147 -2.57787 0
M  V30 4218 O 377.075 3.53834 -2.11838 0
M  V30 4219 H 376.416 0.405713 -0.525636 0
M  V30 4220 H 378.946 0.696453 -1.92382 0
M  V30 4221 H 378.956 2.98958 -2.77648 0
M  V30 4222 H 377.631 2.14663 -3.5622 0
M  V30 4223 H 376.208 3.1345 -2.01999 0
M  V30 4224 N 378.394 1.34581 0.820102 0
M  V30 4225 C 379.671 1.17675 1.56244 0
M  V30 4226 C 380.051 -0.249541 2.0962 0
M  V30 4227 O 379.399 -1.25125 1.91196 0
M  V30 4228 C 379.609 2.23364 2.6816 0
M  V30 4229 C 380.957 2.58485 3.36854 0
M  V30 4230 O 381.981 2.22175 2.78418 0
M  V30 4231 O 380.84 3.20868 4.42386 0
M  V30 4232 H 377.934 0.456333 0.689702 0
M  V30 4233 H 380.48 1.46222 0.861231 0
M  V30 4234 H 379.252 3.19087 2.26493 0
M  V30 4235 H 378.875 1.96009 3.45928 0
M  V30 4236 N 379.872 -1.04064 1.18357 0
M  V30 4237 C 381.12 -1.76915 0.977013 0
M  V30 4238 C 381.441 -1.88624 -0.494577 0
M  V30 4239 O 380.711 -1.41125 -1.3587 0
M  V30 4240 H 379.291 -0.65535 0.358504 0
M  V30 4241 H 381.953 -1.25592 1.49039 0
M  V30 4242 H 381.049 -2.78178 1.41504 0
M  V30 4243 N 381.35 -0.985608 -1.22978 0
M  V30 4244 C 382.596 -0.65836 -1.91816 0
M  V30 4245 C 382.929 0.806692 -1.76653 0
M  V30 4246 O 382.204 1.58252 -1.13078 0
M  V30 4247 C 382.487 -1.056 -3.44268 0
M  V30 4248 C 382.34 -2.57906 -3.68516 0
M  V30 4249 C 383.659 -0.603781 -4.35939 0
M  V30 4250 H 380.778 -0.24065 -0.696604 0
M  V30 4251 H 383.42 -1.22783 -1.44998 0
M  V30 4252 H 381.57 -0.571445 -3.84274 0
M  V30 4253 H 383.242 -3.13976 -3.3796 0
M  V30 4254 H 381.485 -3.00305 -3.13048 0
M  V30 4255 H 382.156 -2.80779 -4.75255 0
M  V30 4256 H 384.632 -1.01987 -4.03408 0
M  V30 4257 H 383.508 -0.910383 -5.41298 0
M  V30 4258 H 383.769 0.495761 -4.39312 0
M  V30 4259 N 382.828 1.3818 -0.7579 0
M  V30 4260 C 383.758 2.33027 -0.148597 0
M  V30 4261 C 384.739 1.55085 0.69875 0
M  V30 4262 O 385.924 1.83384 0.639053 0
M  V30 4263 C 383.054 3.3928 0.742034 0
M  V30 4264 C 382.008 4.28 -0.00291946 0
M  V30 4265 C 381.334 5.25146 1.00625 0
M  V30 4266 C 382.634 5.08938 -1.17385 0
M  V30 4267 H 384.328 2.84231 -0.940909 0
M  V30 4268 H 381.874 1.36659 -0.453908 0
M  V30 4269 H 383.827 4.046 1.17799 0
M  V30 4270 H 382.551 2.86569 1.56671 0
M  V30 4271 H 381.21 3.64192 -0.419504 0
M  V30 4272 H 380.858 4.68721 1.8251 0
M  V30 4273 H 380.558 5.85361 0.512428 0
M  V30 4274 H 382.082 5.93342 1.44143 0
M  V30 4275 H 383.496 5.67474 -0.815224 0
M  V30 4276 H 381.893 5.7841 -1.59882 0
M  V30 4277 H 382.963 4.42424 -1.98468 0
M  V30 4278 N 384.306 0.507319 1.49211 0
M  V30 4279 C 385.583 -0.0982702 1.95353 0
M  V30 4280 C 385.963 -1.53516 1.449 0
M  V30 4281 O 385.311 -2.18594 0.66551 0
M  V30 4282 C 385.521 -0.00440283 3.49 0
M  V30 4283 C 386.869 -0.175147 4.24239 0
M  V30 4284 O 387.893 -0.0792891 3.56112 0
M  V30 4285 O 386.752 -0.37276 5.45227 0
M  V30 4286 H 383.846 -0.0918236 0.821887 0
M  V30 4287 H 386.392 0.570307 1.5983 0
M  V30 4288 H 385.164 0.997402 3.78375 0
M  V30 4289 H 384.787 -0.712845 3.91158 0
M  V30 4290 N 385.784 -1.5574 0.241426 0
M  V30 4291 C 386.694 -2.2479 -0.671305 0
M  V30 4292 C 387.71 -1.26217 -1.19772 0
M  V30 4293 O 388.886 -1.59079 -1.23514 0
M  V30 4294 C 385.951 -2.92966 -1.85396 0
M  V30 4295 C 385.012 -4.06935 -1.36756 0
M  V30 4296 C 384.245 -4.71851 -2.49384 0
M  V30 4297 O 384.468 -4.35823 -3.67987 0
M  V30 4298 O 383.402 -5.60467 -2.19454 0
M  V30 4299 H 387.228 -3.0349 -0.112966 0
M  V30 4300 H 384.813 -1.49397 0.0101513 0
M  V30 4301 H 386.695 -3.35927 -2.54423 0
M  V30 4302 H 385.37 -2.17211 -2.40002 0
M  V30 4303 H 384.277 -3.68503 -0.644726 0
M  V30 4304 H 385.61 -4.84492 -0.867647 0
M  V30 4305 N 387.262 0.0317525 -1.57568 0
M  V30 4306 C 388.194 1.06073 -2.03178 0
M  V30 4307 C 389.207 1.32627 -0.944132 0
M  V30 4308 O 390.396 1.30162 -1.22148 0
M  V30 4309 C 387.496 2.40297 -2.38978 0
M  V30 4310 C 386.669 2.33137 -3.70089 0
M  V30 4311 C 385.728 3.49787 -3.9311 0
M  V30 4312 O 384.754 3.29403 -4.64201 0
M  V30 4313 N 385.956 4.71562 -3.38541 0
M  V30 4314 H 388.721 0.672006 -2.92069 0
M  V30 4315 H 386.282 0.219745 -1.60402 0
M  V30 4316 H 388.274 3.1705 -2.51518 0
M  V30 4317 H 386.844 2.71024 -1.55771 0
M  V30 4318 H 386.064 1.415 -3.67928 0
M  V30 4319 H 387.352 2.25493 -4.56104 0
M  V30 4320 H 386.75 4.91024 -2.80912 0
M  V30 4321 H 385.307 5.45689 -3.56464 0
M  V30 4322 N 388.74 1.54641 0.303973 0
M  V30 4323 C 389.65 1.88439 1.39743 0
M  V30 4324 C 390.666 0.778239 1.55626 0
M  V30 4325 O 391.842 1.07442 1.70347 0
M  V30 4326 C 388.907 2.12212 2.74166 0
M  V30 4327 C 387.968 3.35936 2.67293 0
M  V30 4328 C 387.201 3.58566 3.95305 0
M  V30 4329 O 387.424 2.84263 4.9452 0
M  V30 4330 O 386.358 4.52078 3.97378 0
M  V30 4331 H 390.184 2.81458 1.14083 0
M  V30 4332 H 387.769 1.40793 0.499768 0
M  V30 4333 H 389.651 2.29067 3.53704 0
M  V30 4334 H 388.326 1.22379 2.99675 0
M  V30 4335 H 387.233 3.24448 1.86237 0
M  V30 4336 H 388.566 4.2589 2.46736 0
M  V30 4337 N 390.218 -0.567019 1.47046 0
M  V30 4338 C 391.148 -1.68482 1.61667 0
M  V30 4339 C 392.129 -1.6358 0.466418 0
M  V30 4340 O 393.314 -1.81354 0.694574 0
M  V30 4341 C 390.444 -3.07124 1.62148 0
M  V30 4342 C 389.398 -3.26867 2.76301 0
M  V30 4343 C 388.724 -4.66196 2.61849 0
M  V30 4344 C 390.024 -3.13186 4.17986 0
M  V30 4345 H 391.718 -1.56502 2.5524 0
M  V30 4346 H 389.264 -0.751486 1.22836 0
M  V30 4347 H 391.217 -3.8516 1.70968 0
M  V30 4348 H 389.941 -3.2004 0.651287 0
M  V30 4349 H 388.6 -2.51237 2.66975 0
M  V30 4350 H 388.248 -4.75898 1.62879 0
M  V30 4351 H 387.948 -4.80356 3.38425 0
M  V30 4352 H 389.472 -5.46379 2.72584 0
M  V30 4353 H 390.886 -3.81049 4.2834 0
M  V30 4354 H 389.283 -3.3886 4.95272 0
M  V30 4355 H 390.353 -2.10057 4.3704 0
M  V30 4356 N 391.696 -1.35014 -0.812953 0
M  V30 4357 C 392.606 -1.2951 -1.95613 0
M  V30 4358 C 393.622 -0.20107 -1.72834 0
M  V30 4359 O 394.798 -0.42932 -1.96771 0
M  V30 4360 C 391.863 -1.06033 -3.30088 0
M  V30 4361 C 390.924 -2.24688 -3.65805 0
M  V30 4362 C 390.157 -2.02322 -4.93864 0
M  V30 4363 O 390.38 -0.986464 -5.61805 0
M  V30 4364 O 389.314 -2.89525 -5.27692 0
M  V30 4365 H 393.14 -2.25705 -2.03202 0
M  V30 4366 H 390.725 -1.15321 -0.949811 0
M  V30 4367 H 392.607 -0.94763 -4.10607 0
M  V30 4368 H 391.282 -0.128852 -3.23443 0
M  V30 4369 H 390.189 -2.41521 -2.85689 0
M  V30 4370 H 391.522 -3.16261 -3.77147 0
M  V30 4371 N 393.175 1.03435 -1.18907 0
M  V30 4372 C 394.138 2.09756 -0.923844 0
M  V30 4373 C 395.138 1.60528 0.093416 0
M  V30 4374 O 396.328 1.73631 -0.140727 0
M  V30 4375 C 393.46 3.38692 -0.387354 0
M  V30 4376 H 394.653 2.34719 -1.86674 0
M  V30 4377 H 392.206 1.19959 -1.00197 0
M  V30 4378 H 392.941 3.19396 0.561845 0
M  V30 4379 H 392.726 3.75742 -1.12074 0
M  V30 4380 H 394.216 4.17016 -0.220694 0
M  V30 4381 N 394.653 0.992116 1.22453 0
M  V30 4382 C 395.583 0.561677 2.26644 0
M  V30 4383 C 396.564 -0.411055 1.65059 0
M  V30 4384 O 397.749 -0.301861 1.9184 0
M  V30 4385 C 394.879 -0.125247 3.47074 0
M  V30 4386 C 393.833 0.765948 4.21091 0
M  V30 4387 C 393.159 -0.0538484 5.34673 0
M  V30 4388 C 394.459 2.06242 4.79856 0
M  V30 4389 H 396.153 1.43259 2.62902 0
M  V30 4390 H 393.699 0.690283 1.26377 0
M  V30 4391 H 395.652 -0.437764 4.1912 0
M  V30 4392 H 394.376 -1.03069 3.0991 0
M  V30 4393 H 393.035 1.0621 3.50878 0
M  V30 4394 H 392.683 -0.960188 4.9375 0
M  V30 4395 H 392.383 0.539415 5.85119 0
M  V30 4396 H 393.907 -0.360477 6.09535 0
M  V30 4397 H 395.321 1.8139 5.43848 0
M  V30 4398 H 393.718 2.60444 5.40638 0
M  V30 4399 H 394.788 2.74167 3.99951 0
M  V30 4400 N 396.131 -1.37776 0.765217 0
M  V30 4401 C 397.378 -1.99849 0.326588 0
M  V30 4402 C 397.706 -1.60746 -1.09504 0
M  V30 4403 O 396.961 -0.84202 -1.76659 0
M  V30 4404 C 397.26 -3.5504 0.410053 0
M  V30 4405 C 396.926 -4.13891 1.78899 0
M  V30 4406 C 395.588 -4.29678 2.16635 0
M  V30 4407 C 397.94 -4.46236 2.69301 0
M  V30 4408 C 395.268 -4.7511 3.44221 0
M  V30 4409 C 397.62 -4.93089 3.9629 0
M  V30 4410 C 396.284 -5.07082 4.34078 0
M  V30 4411 H 395.554 -0.7313 0.119507 0
M  V30 4412 H 398.201 -1.64645 0.977968 0
M  V30 4413 H 396.506 -3.90451 -0.324878 0
M  V30 4414 H 398.203 -4.00966 0.0520699 0
M  V30 4415 H 394.793 -4.02026 1.48569 0
M  V30 4416 H 398.977 -4.3363 2.41409 0
M  V30 4417 H 394.233 -4.84129 3.73402 0
M  V30 4418 H 398.407 -5.17084 4.66472 0
M  V30 4419 H 396.034 -5.42046 5.33001 0
M  V30 4420 N 397.609 -0.515225 -1.4894 0
M  V30 4421 C 398.837 0.0206034 -2.0689 0
M  V30 4422 C 399.252 1.29514 -1.37374 0
M  V30 4423 O 398.609 1.76698 -0.456529 0
M  V30 4424 C 398.66 0.26351 -3.60538 0
M  V30 4425 O 398.381 -0.960517 -4.27441 0
M  V30 4426 C 399.882 0.841383 -4.35242 0
M  V30 4427 H 397.102 -0.0268608 -0.670462 0
M  V30 4428 H 399.646 -0.716651 -1.91532 0
M  V30 4429 H 397.801 0.950777 -3.75552 0
M  V30 4430 H 398.215 -0.73212 -5.19365 0
M  V30 4431 H 399.689 0.96085 -5.43573 0
M  V30 4432 H 400.166 1.8427 -3.98674 0
M  V30 4433 H 400.772 0.191143 -4.2487 0
M  V30 4434 N 399.087 1.5561 -0.249682 0
M  V30 4435 C 400.034 2.21496 0.648694 0
M  V30 4436 C 401.004 1.17977 1.16921 0
M  V30 4437 O 402.189 1.46434 1.22318 0
M  V30 4438 C 399.329 2.92039 1.83868 0
M  V30 4439 C 398.442 4.10219 1.35442 0
M  V30 4440 C 397.577 4.6847 2.50419 0
M  V30 4441 C 396.616 5.78893 1.98869 0
M  V30 4442 N 395.753 6.31315 3.07223 0
M  V30 4443 H 400.593 2.97892 0.0801582 0
M  V30 4444 H 398.13 1.47074 0.0278031 0
M  V30 4445 H 400.088 3.31138 2.53778 0
M  V30 4446 H 398.718 2.18111 2.37965 0
M  V30 4447 H 397.77 3.76413 0.54928 0
M  V30 4448 H 399.082 4.89927 0.936649 0
M  V30 4449 H 398.236 5.10158 3.28366 0
M  V30 4450 H 396.975 3.87984 2.95499 0
M  V30 4451 H 395.98 5.3668 1.19393 0
M  V30 4452 H 397.205 6.61232 1.54755 0
M  V30 4453 H 395.151 5.53733 3.51732 0
M  V30 4454 H 395.068 7.06224 2.69784 0
M  V30 4455 H 396.336 6.77662 3.8522 0
M  V30 4456 N 400.565 -0.0233959 1.57583 0
M  V30 4457 C 401.475 -1.03907 2.10334 0
M  V30 4458 C 402.491 -1.39257 1.04323 0
M  V30 4459 O 403.667 -1.48462 1.36091 0
M  V30 4460 C 400.732 -2.31938 2.57693 0
M  V30 4461 C 399.793 -2.03117 3.78209 0
M  V30 4462 C 399.026 -3.25043 4.233 0
M  V30 4463 O 399.249 -4.35916 3.67876 0
M  V30 4464 O 398.183 -3.10411 5.15683 0
M  V30 4465 H 402.009 -0.620748 2.97288 0
M  V30 4466 H 399.594 -0.240743 1.47448 0
M  V30 4467 H 401.476 -3.07196 2.88458 0
M  V30 4468 H 400.151 -2.73055 1.73847 0
M  V30 4469 H 399.058 -1.25408 3.52454 0
M  V30 4470 H 400.391 -1.66852 4.63056 0
M  V30 4471 N 402.043 -1.548 -0.295768 0
M  V30 4472 C 402.973 -1.89115 -1.36959 0
M  V30 4473 C 403.954 -0.75059 -1.52644 0
M  V30 4474 O 405.139 -1.00678 -1.66065 0
M  V30 4475 C 402.269 -2.14307 -2.73295 0
M  V30 4476 C 401.223 -3.30151 -2.72368 0
M  V30 4477 C 400.549 -3.40772 -4.12042 0
M  V30 4478 C 401.849 -4.67126 -2.33646 0
M  V30 4479 H 403.543 -2.79053 -1.08488 0
M  V30 4480 H 401.089 -1.34266 -0.520443 0
M  V30 4481 H 403.042 -2.36898 -3.48507 0
M  V30 4482 H 401.766 -1.21145 -3.03301 0
M  V30 4483 H 400.425 -3.0749 -1.99613 0
M  V30 4484 H 400.073 -2.45117 -4.39234 0
M  V30 4485 H 399.773 -4.18645 -4.12322 0
M  V30 4486 H 401.297 -3.6563 -4.89027 0
M  V30 4487 H 402.711 -4.89414 -2.98575 0
M  V30 4488 H 401.108 -5.47751 -2.45129 0
M  V30 4489 H 402.178 -4.67489 -1.28772 0
M  V30 4490 N 403.521 0.559213 -1.47345 0
M  V30 4491 C 404.431 1.69388 -1.62311 0
M  V30 4492 C 405.447 1.6648 -0.505993 0
M  V30 4493 O 406.623 1.85964 -0.773262 0
M  V30 4494 C 403.688 3.05894 -1.63185 0
M  V30 4495 C 402.749 3.19885 -2.86307 0
M  V30 4496 C 401.982 4.49879 -2.87131 0
M  V30 4497 O 402.205 5.35217 -1.97229 0
M  V30 4498 O 401.139 4.67618 -3.78968 0
M  V30 4499 H 404.965 1.59706 -2.58317 0
M  V30 4500 H 402.55 0.728989 -1.30407 0
M  V30 4501 H 404.432 3.87133 -1.66451 0
M  V30 4502 H 403.107 3.15964 -0.70345 0
M  V30 4503 H 402.014 2.38052 -2.88587 0
M  V30 4504 H 403.347 3.14718 -3.78435 0
M  V30 4505 N 404.999 1.35443 0.805782 0
M  V30 4506 C 405.946 1.28431 1.91766 0
M  V30 4507 C 406.916 0.156102 1.65365 0
M  V30 4508 O 408.101 0.339936 1.87747 0
M  V30 4509 C 405.241 1.06301 3.2832 0
M  V30 4510 C 404.354 2.2805 3.66902 0
M  V30 4511 C 403.489 1.99064 4.92491 0
M  V30 4512 C 402.528 3.16863 5.23703 0
M  V30 4513 N 401.665 2.87647 6.40471 0
M  V30 4514 H 406.505 2.23511 1.97096 0
M  V30 4515 H 404.042 1.11105 0.964054 0
M  V30 4516 H 406 0.915012 4.07042 0
M  V30 4517 H 404.63 0.148822 3.22457 0
M  V30 4518 H 403.682 2.53711 2.83434 0
M  V30 4519 H 404.994 3.1601 3.85927 0
M  V30 4520 H 404.148 1.81099 5.7904 0
M  V30 4521 H 402.887 1.0839 4.75503 0
M  V30 4522 H 401.892 3.35404 4.35642 0
M  V30 4523 H 403.117 4.08339 5.4262 0
M  V30 4524 H 401.063 1.99568 6.24907 0
M  V30 4525 H 400.98 3.69141 6.59751 0
M  V30 4526 H 402.248 2.73226 7.30047 0
M  V30 4527 N 406.477 -1.02803 1.19454 0
M  V30 4528 C 407.723 -1.76478 0.999171 0
M  V30 4529 C 408.056 -1.88456 -0.468828 0
M  V30 4530 O 407.331 -1.40198 -1.34814 0
M  V30 4531 C 407.614 -3.19044 1.66981 0
M  V30 4532 C 407.467 -3.14932 3.21151 0
M  V30 4533 C 408.786 -4.17456 1.39349 0
M  V30 4534 H 405.905 -0.640614 0.364393 0
M  V30 4535 H 408.547 -1.20005 1.47305 0
M  V30 4536 H 406.697 -3.67263 1.2669 0
M  V30 4537 H 408.369 -2.74605 3.70661 0
M  V30 4538 H 406.612 -2.52625 3.52652 0
M  V30 4539 H 407.283 -4.1566 3.63223 0
M  V30 4540 H 409.759 -3.77842 1.74283 0
M  V30 4541 H 408.635 -5.154 1.88823 0
M  V30 4542 H 408.896 -4.40949 0.318813 0
M  V30 4543 N 407.956 -0.998596 -1.21925 0
M  V30 4544 C 409.186 -0.695276 -1.94549 0
M  V30 4545 C 409.594 0.745079 -1.73911 0
M  V30 4546 O 408.937 1.51507 -1.03881 0
M  V30 4547 C 408.999 -0.928485 -3.47303 0
M  V30 4548 C 408.663 -2.35443 -3.91683 0
M  V30 4549 C 409.66 -3.33428 -3.98901 0
M  V30 4550 C 407.345 -2.69038 -4.24174 0
M  V30 4551 C 409.339 -4.63079 -4.37992 0
M  V30 4552 C 407.026 -3.98906 -4.62944 0
M  V30 4553 C 408.024 -4.95738 -4.69822 0
M  V30 4554 O 407.712 -6.23285 -5.07711 0
M  V30 4555 H 407.444 -0.255902 -0.625692 0
M  V30 4556 H 409.998 -1.33767 -1.5587 0
M  V30 4557 H 408.228 -0.228917 -3.86022 0
M  V30 4558 H 409.917 -0.619539 -4.01144 0
M  V30 4559 H 410.683 -3.08807 -3.73983 0
M  V30 4560 H 406.562 -1.94367 -4.18022 0
M  V30 4561 H 410.106 -5.38658 -4.43275 0
M  V30 4562 H 406.003 -4.23314 -4.87314 0
M  V30 4563 H 406.771 -6.27306 -5.25766 0
M  V30 4564 N 409.434 1.37368 -0.772513 0
M  V30 4565 C 410.711 1.93839 -0.26188 0
M  V30 4566 C 411.091 1.7061 1.24319 0
M  V30 4567 O 410.439 1.05534 2.02669 0
M  V30 4568 C 410.649 3.43154 -0.636102 0
M  V30 4569 C 411.997 4.20249 -0.606324 0
M  V30 4570 O 413.021 3.5152 -0.575538 0
M  V30 4571 O 411.88 5.42809 -0.634086 0
M  V30 4572 H 408.974 0.82478 -0.0605555 0
M  V30 4573 H 411.52 1.4665 -0.853917 0
M  V30 4574 H 410.292 3.53647 -1.6748 0
M  V30 4575 H 409.915 3.97596 -0.0170516 0
M  V30 4576 N 410.912 0.523116 1.48665 0
M  V30 4577 C 412.323 0.0808997 1.86525 0
M  V30 4578 C 412.674 -1.33975 1.43336 0
M  V30 4579 O 411.799 -2.00221 0.821009 0
M  V30 4580 C 412.394 0.140037 3.3851 0
M  V30 4581 C 410.953 -0.246948 3.75589 0
M  V30 4582 C 410.1 0.502845 2.72703 0
M  V30 4583 H 413.051 0.734736 1.40667 0
M  V30 4584 H 413.072 -0.649945 3.74908 0
M  V30 4585 H 412.584 1.17412 3.69914 0
M  V30 4586 H 410.685 -1.28343 3.49798 0
M  V30 4587 H 410.798 0.0878859 4.79019 0
M  V30 4588 H 409.162 -0.0500581 2.54651 0
M  V30 4589 H 409.945 1.53743 3.0695 0
M  V30 4590 N 412.39 -1.55475 0.257931 0
M  V30 4591 C 413.337 -2.21837 -0.636939 0
M  V30 4592 C 414.307 -1.18596 -1.16294 0
M  V30 4593 O 415.492 -1.47081 -1.21539 0
M  V30 4594 C 412.632 -2.9301 -1.82317 0
M  V30 4595 C 411.745 -4.10931 -1.33265 0
M  V30 4596 C 410.88 -4.69791 -2.47931 0
M  V30 4597 C 409.919 -5.7994 -1.95796 0
M  V30 4598 N 409.056 -6.32935 -3.0387 0
M  V30 4599 H 413.896 -2.9793 -0.0643591 0
M  V30 4600 H 411.433 -1.47086 -0.0200031 0
M  V30 4601 H 413.391 -3.3248 -2.52018 0
M  V30 4602 H 412.021 -2.1937 -2.36805 0
M  V30 4603 H 411.073 -3.76699 -0.52931 0
M  V30 4604 H 412.385 -4.90417 -0.910654 0
M  V30 4605 H 411.539 -5.11892 -3.25656 0
M  V30 4606 H 410.278 -3.89545 -2.93438 0
M  V30 4607 H 409.283 -5.37305 -1.16546 0
M  V30 4608 H 410.508 -6.62043 -1.51246 0
M  V30 4609 H 408.454 -5.55591 -3.48791 0
M  V30 4610 H 408.371 -7.07645 -2.66035 0
M  V30 4611 H 409.639 -6.79695 -3.81621 0
M  V30 4612 N 413.868 0.0150385 -1.57593 0
M  V30 4613 C 414.816 1.02958 -2.08572 0
M  V30 4614 C 415.81 1.36554 -1.00246 0
M  V30 4615 O 417.016 1.35295 -1.18724 0
M  V30 4616 H 413.391 0.349619 -0.665786 0
M  V30 4617 H 415.362 0.573932 -2.92829 0
M  V30 4618 C 414.111 2.31752 -2.59203 0
M  V30 4619 H 413.434 2.06765 -3.42182 0
M  V30 4620 H 414.874 3.01053 -2.98568 0
M  V30 4621 C 413.333 3.01692 -1.49945 0
M  V30 4622 O 413.863 3.92083 -0.873704 0
M  V30 4623 N 412.069 2.6326 -1.23056 0
M  V30 4624 H 411.616 1.89838 -1.74125 0
M  V30 4625 H 411.574 3.10372 -0.501685 0
M  V30 4626 N 415.346 1.54954 0.287554 0
M  V30 4627 C 416.256 1.8991 1.37736 0
M  V30 4628 C 417.272 0.794701 1.54792 0
M  V30 4629 O 418.448 1.09243 1.69198 0
M  V30 4630 C 415.513 2.15108 2.71899 0
M  V30 4631 C 414.574 3.38752 2.63715 0
M  V30 4632 C 413.807 3.62739 3.91479 0
M  V30 4633 O 414.03 2.89492 4.91478 0
M  V30 4634 O 412.964 4.56267 3.92561 0
M  V30 4635 H 416.79 2.82652 1.11092 0
M  V30 4636 H 414.375 1.41315 0.484807 0
M  V30 4637 H 416.257 2.32806 3.51254 0
M  V30 4638 H 414.932 1.25551 2.9836 0
M  V30 4639 H 413.839 3.26405 1.82786 0
M  V30 4640 H 415.172 4.28483 2.42205 0
M  V30 4641 N 416.824 -0.551391 1.4764 0
M  V30 4642 C 417.734 -1.68525 1.63207 0
M  V30 4643 C 418.75 -1.6621 0.514815 0
M  V30 4644 O 419.926 -1.85551 0.783113 0
M  V30 4645 C 416.991 -3.05025 1.64805 0
M  V30 4646 C 416.052 -3.18362 2.88 0
M  V30 4647 C 415.285 -4.4835 2.89513 0
M  V30 4648 O 415.508 -5.34163 2.00065 0
M  V30 4649 O 414.442 -4.65602 3.81443 0
M  V30 4650 H 418.268 -1.58333 2.59161 0
M  V30 4651 H 415.853 -0.722063 1.30792 0
M  V30 4652 H 417.735 -3.86245 1.68502 0
M  V30 4653 H 416.41 -3.15587 0.720197 0
M  V30 4654 H 415.317 -2.36518 2.89845 0
M  V30 4655 H 416.65 -3.12707 3.80099 0
M  V30 4656 N 418.302 -1.35869 -0.798587 0
M  V30 4657 C 419.579 -1.20145 -1.54352 0
M  V30 4658 C 419.959 0.216161 -2.0999 0
M  V30 4659 O 419.307 1.22068 -1.93162 0
M  V30 4660 C 419.517 -2.27602 -2.64572 0
M  V30 4661 C 420.865 -2.63811 -3.32699 0
M  V30 4662 O 421.889 -2.26576 -2.74849 0
M  V30 4663 O 420.748 -3.27866 -4.37226 0
M  V30 4664 H 417.842 -0.467248 -0.682355 0
M  V30 4665 H 420.388 -1.47574 -0.837859 0
M  V30 4666 H 419.16 -3.2265 -2.21388 0
M  V30 4667 H 418.783 -2.01488 -3.42766 0
M  V30 4668 N 419.78 1.02168 -1.19998 0
M  V30 4669 C 421.057 1.72816 -0.916191 0
M  V30 4670 C 421.437 2.03081 0.576325 0
M  V30 4671 O 420.785 1.69122 1.53656 0
M  V30 4672 C 420.995 2.9997 -1.78378 0
M  V30 4673 C 422.343 3.73336 -2.02251 0
M  V30 4674 O 423.367 3.09914 -1.75589 0
M  V30 4675 O 422.226 4.87371 -2.47249 0
M  V30 4676 H 419.32 0.752924 -0.342103 0
M  V30 4677 H 421.866 1.08062 -1.30846 0
M  V30 4678 H 420.638 2.73888 -2.79466 0
M  V30 4679 H 420.261 3.72464 -1.39126 0
M  V30 4680 N 421.258 1.00505 1.21394 0
M  V30 4681 C 422.191 0.51032 2.22421 0
M  V30 4682 C 423.169 -0.436 1.56645 0
M  V30 4683 O 424.353 -0.358709 1.85055 0
M  V30 4684 C 421.48 -0.258733 3.3771 0
M  V30 4685 C 420.526 0.635395 4.2174 0
M  V30 4686 S 421.359 2.09783 4.92698 0
M  V30 4687 C 422.515 1.33862 6.11418 0
M  V30 4688 H 422.748 1.36637 2.64041 0
M  V30 4689 H 420.281 0.812991 1.31262 0
M  V30 4690 H 422.239 -0.696372 4.0455 0
M  V30 4691 H 420.9 -1.0902 2.94573 0
M  V30 4692 H 420.093 0.0430189 5.03982 0
M  V30 4693 H 419.695 1.01031 3.60095 0
M  V30 4694 H 421.987 0.612541 6.74725 0
M  V30 4695 H 422.93 2.13675 6.75092 0
M  V30 4696 H 423.338 0.846568 5.58116 0
M  V30 4697 N 422.737 -1.36956 0.779787 0
M  V30 4698 C 424.153 -1.52817 0.460342 0
M  V30 4699 C 424.353 -1.7361 -1.02283 0
M  V30 4700 O 423.409 -1.76207 -1.80852 0
M  V30 4701 C 424.722 -2.71983 1.28241 0
M  V30 4702 C 426.27 -2.85849 1.27512 0
M  V30 4703 C 426.745 -4.08008 2.08072 0
M  V30 4704 N 428.236 -4.15135 2.05467 0
M  V30 4705 C 428.971 -5.08711 2.64577 0
M  V30 4706 N 428.467 -6.07792 3.32506 0
M  V30 4707 N 430.26 -5.01254 2.54363 0
M  V30 4708 H 422.411 -1.21713 1.74068 0
M  V30 4709 H 424.674 -0.593294 0.739396 0
M  V30 4710 H 424.38 -2.63109 2.33381 0
M  V30 4711 H 424.254 -3.65882 0.917088 0
M  V30 4712 H 426.641 -2.94189 0.231686 0
M  V30 4713 H 426.722 -1.92886 1.68014 0
M  V30 4714 H 426.366 -4.00429 3.12441 0
M  V30 4715 H 426.296 -5.001 1.64947 0
M  V30 4716 H 428.787 -3.44189 1.5602 0
M  V30 4717 H 429.1 -6.75739 3.74963 0
M  V30 4718 H 427.445 -6.08047 3.36606 0
M  V30 4719 H 430.636 -4.22795 2.00902 0
M  V30 4720 H 430.809 -5.73995 3.00722 0
M  V30 4721 N 424.215 -0.530993 -1.48385 0
M  V30 4722 C 425.125 0.23503 -2.3342 0
M  V30 4723 C 426.141 0.93801 -1.46552 0
M  V30 4724 O 427.317 0.912745 -1.7953 0
M  V30 4725 C 424.382 1.26778 -3.22689 0
M  V30 4726 C 423.443 0.575038 -4.25431 0
M  V30 4727 C 422.676 1.55858 -5.10435 0
M  V30 4728 O 422.899 2.79129 -4.97437 0
M  V30 4729 O 421.833 1.09742 -5.91811 0
M  V30 4730 H 425.659 -0.461794 -3.00169 0
M  V30 4731 H 423.244 -0.291903 -1.46521 0
M  V30 4732 H 425.126 1.86457 -3.77904 0
M  V30 4733 H 423.801 1.94699 -2.586 0
M  V30 4734 H 422.708 -0.0622782 -3.74048 0
M  V30 4735 H 424.041 -0.062253 -4.92161 0
M  V30 4736 N 425.693 1.55336 -0.266172 0
M  V30 4737 C 426.626 2.18256 0.666296 0
M  V30 4738 C 427.604 1.14064 1.1588 0
M  V30 4739 O 428.788 1.42546 1.23341 0
M  V30 4740 C 425.915 2.79867 1.90768 0
M  V30 4741 C 424.961 3.97283 1.55141 0
M  V30 4742 S 425.794 5.31694 0.637313 0
M  V30 4743 C 426.95 5.96769 1.88727 0
M  V30 4744 H 427.183 2.97008 0.131647 0
M  V30 4745 H 424.716 1.54317 -0.0504869 0
M  V30 4746 H 426.674 3.15996 2.62025 0
M  V30 4747 H 425.335 2.01025 2.41346 0
M  V30 4748 H 424.528 4.3905 2.4749 0
M  V30 4749 H 424.13 3.6253 0.919113 0
M  V30 4750 H 426.422 6.15458 2.83227 0
M  V30 4751 H 427.365 6.91752 1.51276 0
M  V30 4752 H 427.773 5.26034 2.04814 0
M  V30 4753 N 427.171 -0.0066808 1.57599 0
M  V30 4754 C 428.081 -1.01671 2.11424 0
M  V30 4755 C 429.097 -1.38143 1.05795 0
M  V30 4756 O 430.273 -1.47011 1.37658 0
M  V30 4757 C 427.338 -2.29192 2.60139 0
M  V30 4758 C 426.399 -1.99094 3.80342 0
M  V30 4759 C 425.632 -3.20535 4.26724 0
M  V30 4760 O 425.855 -4.3199 3.72479 0
M  V30 4761 O 424.789 -3.04924 5.18946 0
M  V30 4762 H 428.615 -0.589181 2.9793 0
M  V30 4763 H 426.2 -0.225091 1.47695 0
M  V30 4764 H 428.082 -3.0412 2.917 0
M  V30 4765 H 426.757 -2.71195 1.76733 0
M  V30 4766 H 425.664 -1.21663 3.53764 0
M  V30 4767 H 426.997 -1.61931 4.648 0
M  V30 4768 N 428.649 -1.55105 -0.279332 0
M  V30 4769 C 429.559 -1.90638 -1.36727 0
M  V30 4770 C 430.575 -0.802899 -1.54368 0
M  V30 4771 O 431.751 -1.10138 -1.68616 0
M  V30 4772 C 428.816 -2.16547 -2.70755 0
M  V30 4773 C 427.877 -3.40146 -2.61915 0
M  V30 4774 C 427.11 -3.6481 -3.8955 0
M  V30 4775 O 427.333 -2.92095 -4.89935 0
M  V30 4776 O 426.267 -4.58343 -3.90135 0
M  V30 4777 H 430.093 -2.83237 -1.09591 0
M  V30 4778 H 427.678 -1.4157 -0.477306 0
M  V30 4779 H 429.56 -2.34665 -3.50014 0
M  V30 4780 H 428.235 -1.27131 -2.9769 0
M  V30 4781 H 427.142 -3.2737 -1.81052 0
M  V30 4782 H 428.475 -4.29761 -2.3993 0
M  V30 4783 N 430.127 0.543554 -1.4793 0
M  V30 4784 C 431.037 1.67657 -1.64098 0
M  V30 4785 C 432.053 1.65934 -0.523622 0
M  V30 4786 O 433.229 1.85133 -0.792943 0
M  V30 4787 C 430.294 3.04146 -1.66421 0
M  V30 4788 C 429.355 3.16831 -2.89684 0
M  V30 4789 C 428.588 4.46809 -2.91886 0
M  V30 4790 O 428.811 5.33095 -2.02895 0
M  V30 4791 O 427.745 4.63573 -3.83906 0
M  V30 4792 H 431.571 1.56957 -2.59997 0
M  V30 4793 H 429.156 0.715116 -1.31173 0
M  V30 4794 H 431.038 3.85346 -1.70548 0
M  V30 4795 H 429.713 3.152 -0.736923 0
M  V30 4796 H 428.62 2.34977 -2.91095 0
M  V30 4797 H 429.953 3.10687 -3.81752 0
M  V30 4798 N 431.605 1.3629 0.791371 0
M  V30 4799 C 433.021 1.16661 1.08914 0
M  V30 4800 C 433.221 -0.0106266 2.01497 0
M  V30 4801 O 432.277 -0.676596 2.43266 0
M  V30 4802 C 433.59 2.47656 1.70549 0
M  V30 4803 C 435.138 2.54002 1.82899 0
M  V30 4804 C 435.613 3.85078 2.47949 0
M  V30 4805 N 437.104 3.86413 2.5542 0
M  V30 4806 C 437.839 4.84572 3.06557 0
M  V30 4807 N 437.335 5.93124 3.58016 0
M  V30 4808 N 439.128 4.71994 3.05251 0
M  V30 4809 H 431.279 2.11668 0.176238 0
M  V30 4810 H 433.542 0.937486 0.140796 0
M  V30 4811 H 433.248 3.34059 1.09989 0
M  V30 4812 H 433.122 2.63319 2.70079 0
M  V30 4813 H 435.509 1.68018 2.42598 0
M  V30 4814 H 435.59 2.42239 0.821808 0
M  V30 4815 H 435.234 4.71467 1.88895 0
M  V30 4816 H 435.164 3.94135 3.49235 0
M  V30 4817 H 437.655 3.07988 2.18979 0
M  V30 4818 H 437.968 6.63999 3.95381 0
M  V30 4819 H 436.313 5.96796 3.56173 0
M  V30 4820 H 439.504 3.86321 2.64336 0
M  V30 4821 H 439.677 5.48653 3.44796 0
M  V30 4822 N 433.083 -1.0153 1.20538 0
M  V30 4823 C 434.013 -2.11972 0.979295 0
M  V30 4824 C 434.994 -1.6985 -0.0921787 0
M  V30 4825 O 436.179 -1.94089 0.0655932 0
M  V30 4826 C 433.309 -3.43201 0.531984 0
M  V30 4827 C 432.263 -3.9907 1.54685 0
M  V30 4828 C 431.589 -5.26082 0.956127 0
M  V30 4829 C 432.889 -4.32313 2.93092 0
M  V30 4830 H 434.583 -2.31143 1.90298 0
M  V30 4831 H 432.129 -1.11079 0.916372 0
M  V30 4832 H 434.082 -4.1985 0.361044 0
M  V30 4833 H 432.806 -3.23792 -0.427327 0
M  V30 4834 H 431.465 -3.2453 1.70517 0
M  V30 4835 H 431.113 -5.02999 -0.0111538 0
M  V30 4836 H 430.813 -5.64426 1.63393 0
M  V30 4837 H 432.337 -6.05386 0.796284 0
M  V30 4838 H 433.751 -4.99845 2.80763 0
M  V30 4839 H 432.148 -4.81774 3.57791 0
M  V30 4840 H 433.218 -3.41025 3.44717 0
M  V30 4841 N 434.561 -1.01147 -1.20859 0
M  V30 4842 C 435.977 -0.725422 -1.42161 0
M  V30 4843 C 436.177 0.696919 -1.89064 0
M  V30 4844 O 435.233 1.46539 -2.05627 0
M  V30 4845 C 436.546 -1.74678 -2.44761 0
M  V30 4846 C 438.094 -1.76433 -2.58535 0
M  V30 4847 C 438.569 -2.77481 -3.64374 0
M  V30 4848 N 440.06 -2.76189 -3.71852 0
M  V30 4849 C 440.795 -3.51035 -4.53389 0
M  V30 4850 N 440.291 -4.35541 -5.38773 0
M  V30 4851 N 442.084 -3.39655 -4.47873 0
M  V30 4852 H 434.235 -1.92979 -0.887282 0
M  V30 4853 H 436.498 -0.833327 -0.451962 0
M  V30 4854 H 436.204 -2.76551 -2.17285 0
M  V30 4855 H 436.078 -1.55472 -3.43669 0
M  V30 4856 H 438.465 -0.75248 -2.85345 0
M  V30 4857 H 438.546 -1.99712 -1.5984 0
M  V30 4858 H 438.19 -3.78827 -3.38308 0
M  V30 4859 H 438.12 -2.51466 -4.6268 0
M  V30 4860 H 440.611 -2.14885 -3.10858 0
M  V30 4861 H 440.924 -4.89432 -5.98061 0
M  V30 4862 H 439.269 -4.39621 -5.38292 0
M  V30 4863 H 442.46 -2.73063 -3.80203 0
M  V30 4864 H 442.633 -3.9824 -5.11184 0
M  V30 4865 N 436.039 1.36541 -0.78704 0
M  V30 4866 C 436.972 2.27831 -0.129765 0
M  V30 4867 C 437.95 1.47105 0.692732 0
M  V30 4868 O 439.134 1.7641 0.664222 0
M  V30 4869 C 436.261 3.28577 0.821883 0
M  V30 4870 C 435.307 4.26422 0.0814771 0
M  V30 4871 S 436.14 5.20919 -1.24112 0
M  V30 4872 C 437.296 6.25212 -0.293409 0
M  V30 4873 H 437.529 2.83229 -0.903811 0
M  V30 4874 H 435.062 1.43046 -0.581144 0
M  V30 4875 H 437.02 3.87123 1.3655 0
M  V30 4876 H 435.681 2.72096 1.56916 0
M  V30 4877 H 434.874 4.97554 0.803485 0
M  V30 4878 H 434.476 3.71944 -0.391589 0
M  V30 4879 H 436.768 6.75435 0.528622 0
M  V30 4880 H 437.711 7.01378 -0.973344 0
M  V30 4881 H 438.119 5.64407 0.102196 0
M  V30 4882 N 437.518 0.538854 1.48102 0
M  V30 4883 C 438.934 0.19732 1.58376 0
M  V30 4884 C 439.134 -1.29971 1.5398 0
M  V30 4885 O 438.19 -2.07861 1.43352 0
M  V30 4886 C 439.503 0.807716 2.89649 0
M  V30 4887 C 441.051 0.77726 3.03196 0
M  V30 4888 C 441.526 1.36639 4.37143 0
M  V30 4889 N 443.017 1.32875 4.43732 0
M  V30 4890 C 443.752 1.7544 5.45901 0
M  V30 4891 N 443.248 2.25776 6.54979 0
M  V30 4892 N 445.041 1.66623 5.36836 0
M  V30 4893 H 437.192 1.5117 1.49202 0
M  V30 4894 H 439.455 0.629327 0.708979 0
M  V30 4895 H 439.161 1.85909 2.98548 0
M  V30 4896 H 439.035 0.289975 3.76084 0
M  V30 4897 H 441.422 -0.265374 2.93904 0
M  V30 4898 H 441.503 1.33256 2.18349 0
M  V30 4899 H 441.147 2.408 4.47189 0
M  V30 4900 H 441.077 0.786689 5.20691 0
M  V30 4901 H 443.568 0.96037 3.65493 0
M  V30 4902 H 443.881 2.56226 7.29087 0
M  V30 4903 H 442.226 2.29775 6.55918 0
M  V30 4904 H 445.417 1.27089 4.50517 0
M  V30 4905 H 445.59 2.00115 6.16326 0
M  V30 4906 N 438.996 -1.55193 0.274407 0
M  V30 4907 C 439.906 -2.26164 -0.623473 0
M  V30 4908 C 440.922 -1.28729 -1.17068 0
M  V30 4909 O 442.098 -1.61663 -1.20112 0
M  V30 4910 C 439.163 -2.96833 -1.7914 0
M  V30 4911 C 438.224 -4.09745 -1.28093 0
M  V30 4912 C 437.457 -4.77034 -2.3932 0
M  V30 4913 O 437.68 -4.4353 -3.5866 0
M  V30 4914 O 436.614 -5.64996 -2.07516 0
M  V30 4915 H 440.44 -3.03661 -0.0485661 0
M  V30 4916 H 438.025 -1.49341 0.0418382 0
M  V30 4917 H 439.907 -3.41248 -2.4724 0
M  V30 4918 H 438.582 -2.22253 -2.35341 0
M  V30 4919 H 437.489 -3.69787 -0.566416 0
M  V30 4920 H 438.822 -4.86224 -0.764683 0
M  V30 4921 N 440.474 -0.00167713 -1.576 0
M  V30 4922 C 441.424 0.997744 -2.0501 0
M  V30 4923 C 442.408 1.30214 -0.94515 0
M  V30 4924 O 443.6 1.29284 -1.20891 0
M  V30 4925 C 440.729 2.2892 -2.55833 0
M  V30 4926 C 439.815 2.01437 -3.73208 0
M  V30 4927 N 440.206 1.44119 -4.84833 0
M  V30 4928 C 438.504 2.31571 -3.8117 0
M  V30 4929 C 439.205 1.33145 -5.66257 0
M  V30 4930 N 438.181 1.81763 -5.12312 0
M  V30 4931 H 441.983 0.549098 -2.88725 0
M  V30 4932 H 439.497 0.20398 -1.61114 0
M  V30 4933 H 441.494 3.01361 -2.88075 0
M  V30 4934 H 440.154 2.74436 -1.73537 0
M  V30 4935 H 441.165 1.11978 -5.0565 0
M  V30 4936 H 437.842 2.7995 -3.09732 0
M  V30 4937 H 439.232 0.890567 -6.65972 0
M  V30 4938 N 441.952 1.55251 0.271103 0
M  V30 4939 C 443.198 1.76207 1.00394 0
M  V30 4940 C 443.531 0.562604 1.85872 0
M  V30 4941 O 442.806 -0.439785 1.89463 0
M  V30 4942 C 443.089 3.06828 1.8849 0
M  V30 4943 C 442.942 4.37134 1.05992 0
M  V30 4944 C 444.261 3.33503 2.87165 0
M  V30 4945 H 441.38 0.641086 0.363562 0
M  V30 4946 H 444.022 1.87982 0.276189 0
M  V30 4947 H 442.172 2.96921 2.5054 0
M  V30 4948 H 443.844 4.59001 0.459978 0
M  V30 4949 H 442.087 4.32275 0.363443 0
M  V30 4950 H 442.758 5.2486 1.70955 0
M  V30 4951 H 445.234 3.43215 2.3525 0
M  V30 4952 H 444.11 4.2616 3.45946 0
M  V30 4953 H 444.371 2.53235 3.62387 0
M  V30 4954 N 443.43 -0.535701 1.48216 0
M  V30 4955 C 444.363 -1.65726 1.56876 0
M  V30 4956 C 445.341 -1.57094 0.419542 0
M  V30 4957 O 446.525 -1.77648 0.630352 0
M  V30 4958 C 443.652 -3.04096 1.49142 0
M  V30 4959 C 442.698 -3.31105 2.68834 0
M  V30 4960 S 443.531 -3.18001 4.30854 0
M  V30 4961 C 444.687 -4.58828 4.25709 0
M  V30 4962 H 444.92 -1.58129 2.51759 0
M  V30 4963 H 442.453 -0.718218 1.36678 0
M  V30 4964 H 444.411 -3.839 1.45366 0
M  V30 4965 H 443.072 -3.09139 0.556067 0
M  V30 4966 H 442.265 -4.32033 2.59545 0
M  V30 4967 H 441.867 -2.58961 2.69843 0
M  V30 4968 H 444.159 -5.5023 3.95289 0
M  V30 4969 H 445.102 -4.73172 5.26796 0
M  V30 4970 H 445.51 -4.37883 3.56257 0
M  V30 4971 N 444.908 -1.36708 -0.784132 0
M  V30 4972 C 445.855 -1.31466 -1.89698 0
M  V30 4973 C 446.825 -0.18239 -1.65096 0
M  V30 4974 O 448.01 -0.369762 -1.87183 0
M  V30 4975 C 445.15 -1.1151 -3.26588 0
M  V30 4976 C 444.263 -2.33859 -3.63227 0
M  V30 4977 C 443.398 -2.06873 -4.89262 0
M  V30 4978 C 442.437 -3.25154 -5.18595 0
M  V30 4979 N 441.574 -2.978 -6.35814 0
M  V30 4980 H 446.414 -2.26619 -1.93515 0
M  V30 4981 H 443.951 -1.12625 -0.946256 0
M  V30 4982 H 445.909 -0.979653 -4.05535 0
M  V30 4983 H 444.539 -0.200103 -3.22179 0
M  V30 4984 H 443.591 -2.58188 -2.79362 0
M  V30 4985 H 444.903 -3.22109 -3.8085 0
M  V30 4986 H 444.057 -1.90289 -5.76086 0
M  V30 4987 H 442.796 -1.15942 -4.73718 0
M  V30 4988 H 441.801 -3.42292 -4.30251 0
M  V30 4989 H 443.026 -4.1692 -5.36055 0
M  V30 4990 H 440.972 -2.09485 -6.21653 0
M  V30 4991 H 440.889 -3.7959 -6.53794 0
M  V30 4992 H 442.157 -2.84805 -7.25607 0
M  V30 4993 N 446.386 1.0089 -1.21074 0
M  V30 4994 C 447.334 2.11707 -0.963476 0
M  V30 4995 C 448.328 1.69172 0.0879032 0
M  V30 4996 O 449.534 1.79889 -0.0631415 0
M  V30 4997 H 445.909 0.692026 -0.294287 0
M  V30 4998 H 447.88 2.29743 -1.90422 0
M  V30 4999 C 446.629 3.43473 -0.540509 0
M  V30 5000 H 445.952 3.76634 -1.34114 0
M  V30 5001 H 447.392 4.22044 -0.406777 0
M  V30 5002 C 445.851 3.2849 0.748079 0
M  V30 5003 O 446.381 3.58883 1.8046 0
M  V30 5004 N 444.587 2.81715 0.713081 0
M  V30 5005 H 444.134 2.5718 -0.146973 0
M  V30 5006 H 444.092 2.72071 1.57558 0
M  V30 5007 N 447.864 1.01787 1.20321 0
M  V30 5008 C 449.11 0.708985 1.90003 0
M  V30 5009 C 449.443 -0.759572 1.78729 0
M  V30 5010 O 448.718 -1.55198 1.17234 0
M  V30 5011 C 449.001 1.1469 3.41348 0
M  V30 5012 C 448.854 2.67586 3.61549 0
M  V30 5013 C 450.173 0.71915 4.34185 0
M  V30 5014 H 447.292 0.259034 0.689978 0
M  V30 5015 H 449.934 1.26584 1.41692 0
M  V30 5016 H 448.084 0.673128 3.82624 0
M  V30 5017 H 449.756 3.22826 3.29517 0
M  V30 5018 H 447.999 3.085 3.04976 0
M  V30 5019 H 448.67 2.93281 4.67643 0
M  V30 5020 H 451.146 1.12647 4.00562 0
M  V30 5021 H 450.022 1.05358 5.38694 0
M  V30 5022 H 450.283 -0.379111 4.40472 0
M  V30 5023 N 449.342 -1.36122 0.79427 0
M  V30 5024 C 450.619 -1.93398 0.292685 0
M  V30 5025 C 450.999 -1.72567 -1.21589 0
M  V30 5026 O 450.347 -1.08745 -2.00965 0
M  V30 5027 C 450.557 -3.42099 0.690614 0
M  V30 5028 C 451.905 -4.19231 0.673105 0
M  V30 5029 O 452.929 -3.50559 0.631389 0
M  V30 5030 O 451.788 -5.41732 0.720362 0
M  V30 5031 H 448.882 -0.823712 0.0736693 0
M  V30 5032 H 451.428 -1.45273 0.87714 0
M  V30 5033 H 450.2 -3.50938 1.73085 0
M  V30 5034 H 449.823 -3.97519 0.0803036 0
M  V30 5035 N 450.82 -0.546701 -1.47814 0
M  V30 5036 C 452.048 -0.0232857 -2.06887 0
M  V30 5037 C 452.463 1.26571 -1.4009 0
M  V30 5038 O 451.82 1.7569 -0.493906 0
M  V30 5039 C 451.871 0.186975 -3.61016 0
M  V30 5040 O 451.592 -1.05097 -4.25307 0
M  V30 5041 C 453.093 0.748872 -4.36929 0
M  V30 5042 H 450.313 -0.0410763 -0.669742 0
M  V30 5043 H 452.857 -0.757117 -1.89968 0
M  V30 5044 H 451.012 0.870903 -3.77484 0
M  V30 5045 H 451.426 -0.842121 -5.17695 0
M  V30 5046 H 452.9 0.845334 -5.45489 0
M  V30 5047 H 453.377 1.75772 -4.02493 0
M  V30 5048 H 453.983 0.100979 -4.2518 0
M  V30 5049 N 452.299 1.55045 -0.282633 0
M  V30 5050 C 453.247 2.24254 0.617478 0
M  V30 5051 C 454.241 1.24215 1.15183 0
M  V30 5052 O 455.447 1.42123 1.10459 0
M  V30 5053 H 451.822 0.719801 0.217693 0
M  V30 5054 H 453.793 2.98398 0.0110076 0
M  V30 5055 C 452.542 2.98281 1.78672 0
M  V30 5056 H 451.865 3.75053 1.38475 0
M  V30 5057 H 453.305 3.50017 2.393 0
M  V30 5058 C 451.764 2.04184 2.67975 0
M  V30 5059 O 452.294 1.59792 3.6855 0
M  V30 5060 N 450.5 1.70526 2.35307 0
M  V30 5061 H 450.047 2.06821 1.53567 0
M  V30 5062 H 450.005 1.07839 2.95327 0
M  V30 5063 N 453.777 0.010035 1.57597 0
M  V30 5064 C 454.709 -1.00649 2.05918 0
M  V30 5065 C 455.722 -1.30077 0.978964 0
M  V30 5066 O 456.911 -1.26878 1.25556 0
M  V30 5067 C 454.011 -2.33876 2.45265 0
M  V30 5068 C 453.184 -2.23242 3.7614 0
M  V30 5069 C 452.243 -3.39242 4.02245 0
M  V30 5070 O 451.269 -3.1698 4.72771 0
M  V30 5071 N 452.471 -4.6242 3.50924 0
M  V30 5072 H 455.236 -0.594333 2.93748 0
M  V30 5073 H 452.797 -0.17714 1.60928 0
M  V30 5074 H 454.789 -3.1027 2.59836 0
M  V30 5075 H 453.359 -2.66799 1.62902 0
M  V30 5076 H 452.579 -1.31696 3.71551 0
M  V30 5077 H 453.867 -2.13321 4.61922 0
M  V30 5078 H 453.265 -4.83404 2.93832 0
M  V30 5079 H 451.822 -5.36046 3.70807 0
M  V30 5080 N 455.255 -1.55392 -0.262866 0
M  V30 5081 C 456.532 -1.67204 -1.01499 0
M  V30 5082 C 456.912 -0.545186 -2.03939 0
M  V30 5083 O 456.26 0.453467 -2.23955 0
M  V30 5084 C 456.47 -3.06847 -1.6627 0
M  V30 5085 C 457.818 -3.64928 -2.17054 0
M  V30 5086 O 458.842 -3.09545 -1.76239 0
M  V30 5087 O 457.701 -4.61984 -2.91947 0
M  V30 5088 H 454.795 -0.679467 -0.471438 0
M  V30 5089 H 457.341 -1.67729 -0.257918 0
M  V30 5090 H 456.113 -3.80309 -0.920915 0
M  V30 5091 H 455.736 -3.10266 -2.48638 0
M  V30 5092 N 456.733 0.527833 -1.48498 0
M  V30 5093 C 458.149 0.856571 -1.34666 0
M  V30 5094 C 458.349 1.98271 -0.35931 0
M  V30 5095 O 457.405 2.51551 0.218703 0
M  V30 5096 C 458.718 1.22207 -2.74747 0
M  V30 5097 C 460.266 1.33183 -2.83251 0
M  V30 5098 C 460.741 1.73075 -4.24039 0
M  V30 5099 N 462.232 1.80174 -4.26722 0
M  V30 5100 C 462.967 2.1243 -5.32598 0
M  V30 5101 N 462.463 2.43096 -6.4875 0
M  V30 5102 N 464.256 2.13454 -5.19994 0
M  V30 5103 H 456.407 -0.215174 -2.11307 0
M  V30 5104 H 458.67 -0.0336281 -0.947403 0
M  V30 5105 H 458.376 0.468195 -3.4857 0
M  V30 5106 H 458.25 2.17173 -3.08409 0
M  V30 5107 H 460.637 2.07647 -2.09683 0
M  V30 5108 H 460.718 0.363333 -2.53206 0
M  V30 5109 H 460.362 0.991712 -4.98124 0
M  V30 5110 H 460.292 2.70979 -4.51529 0
M  V30 5111 H 462.783 1.58744 -3.42942 0
M  V30 5112 H 463.096 2.6682 -7.25277 0
M  V30 5113 H 461.441 2.40611 -6.52021 0
M  V30 5114 H 464.632 1.88956 -4.28268 0
M  V30 5115 H 464.805 2.38261 -6.02608 0
M  V30 5116 N 458.211 1.37122 0.776871 0
M  V30 5117 C 459.141 1.35164 1.90402 0
M  V30 5118 C 460.122 0.221069 1.68657 0
M  V30 5119 O 461.307 0.420642 1.8959 0
M  V30 5120 C 458.437 1.15274 3.27611 0
M  V30 5121 C 457.391 2.25289 3.63908 0
M  V30 5122 C 456.717 1.90527 4.99603 0
M  V30 5123 C 458.017 3.67446 3.71188 0
M  V30 5124 H 459.711 2.29482 1.92297 0
M  V30 5125 H 457.257 1.10465 0.923773 0
M  V30 5126 H 459.21 1.12536 4.06096 0
M  V30 5127 H 457.934 0.174102 3.26136 0
M  V30 5128 H 456.593 2.27174 2.87728 0
M  V30 5129 H 456.241 0.91206 4.94662 0
M  V30 5130 H 455.941 2.64193 5.24858 0
M  V30 5131 H 457.465 1.89367 5.80493 0
M  V30 5132 H 458.879 3.67719 4.39836 0
M  V30 5133 H 457.276 4.40123 4.07936 0
M  V30 5134 H 458.346 4.01443 2.71977 0
M  V30 5135 N 459.689 -1.00246 1.21608 0
M  V30 5136 C 460.935 -1.74319 1.03638 0
M  V30 5137 C 461.268 -1.89408 -0.428749 0
M  V30 5138 O 460.543 -1.43026 -1.3181 0
M  V30 5139 C 460.826 -3.15431 1.73711 0
M  V30 5140 C 460.679 -3.08049 3.27759 0
M  V30 5141 C 461.998 -4.14407 1.48173 0
M  V30 5142 H 459.117 -0.632741 0.377899 0
M  V30 5143 H 461.759 -1.16853 1.49818 0
M  V30 5144 H 459.909 -3.64493 1.34452 0
M  V30 5145 H 461.581 -2.66681 3.76403 0
M  V30 5146 H 459.824 -2.45088 3.57931 0
M  V30 5147 H 460.495 -4.07862 3.71958 0
M  V30 5148 H 462.971 -3.74061 1.82258 0
M  V30 5149 H 461.847 -5.11279 1.99713 0
M  V30 5150 H 462.108 -4.40174 0.412273 0
M  V30 5151 N 461.167 -1.02423 -1.1978 0
M  V30 5152 C 462.395 -0.737456 -1.93311 0
M  V30 5153 C 462.81 0.703023 -1.75223 0
M  V30 5154 O 462.167 1.47761 -1.07112 0
M  V30 5155 C 462.218 -1.0733 -3.45199 0
M  V30 5156 O 461.939 -2.4572 -3.62702 0
M  V30 5157 C 463.44 -0.80866 -4.35862 0
M  V30 5158 H 460.66 -0.2702 -0.614193 0
M  V30 5159 H 463.204 -1.36747 -1.52054 0
M  V30 5160 H 461.359 -0.488545 -3.84307 0
M  V30 5161 H 461.773 -2.58081 -4.56612 0
M  V30 5162 H 463.247 -1.09365 -5.41057 0
M  V30 5163 H 463.724 0.257025 -4.38447 0
M  V30 5164 H 464.33 -1.37592 -4.02428 0
M  V30 5165 N 462.645 1.35699 -0.801477 0
M  V30 5166 C 463.575 2.32436 -0.222658 0
M  V30 5167 C 464.556 1.5723 0.649057 0
M  V30 5168 O 465.741 1.85324 0.580387 0
M  V30 5169 C 462.871 3.41469 0.633719 0
M  V30 5170 C 461.825 4.27774 -0.139083 0
M  V30 5171 C 461.151 5.28082 0.838666 0
M  V30 5172 C 462.451 5.04946 -1.33517 0
M  V30 5173 H 464.145 2.81094 -1.03086 0
M  V30 5174 H 461.691 1.35146 -0.497155 0
M  V30 5175 H 463.644 4.08143 1.04868 0
M  V30 5176 H 462.368 2.91408 1.47475 0
M  V30 5177 H 461.027 3.62673 -0.535156 0
M  V30 5178 H 460.675 4.7429 1.67506 0
M  V30 5179 H 460.375 5.86695 0.32594 0
M  V30 5180 H 461.899 5.97628 1.25194 0
M  V30 5181 H 463.313 5.64593 -0.995349 0
M  V30 5182 H 461.71 5.7303 -1.78202 0
M  V30 5183 H 462.78 4.35886 -2.12442 0
M  V30 5184 N 464.123 0.554532 1.47522 0
M  V30 5185 C 465.033 -0.197865 2.33764 0
M  V30 5186 C 466.049 -0.914576 1.48025 0
M  V30 5187 O 467.225 -0.884067 1.80959 0
M  V30 5188 C 464.29 -1.21628 3.24665 0
M  V30 5189 C 463.351 -0.507283 4.26292 0
M  V30 5190 C 462.584 -1.47718 5.1285 0
M  V30 5191 O 462.807 -2.7118 5.01814 0
M  V30 5192 O 461.741 -1.00313 5.93482 0
M  V30 5193 H 465.567 0.50949 2.99396 0
M  V30 5194 H 463.152 0.315176 1.46038 0
M  V30 5195 H 465.034 -1.80421 3.80823 0
M  V30 5196 H 463.709 -1.9056 2.61665 0
M  V30 5197 H 462.616 0.121778 3.73902 0
M  V30 5198 H 463.949 0.140544 4.91999 0
M  V30 5199 N 465.601 -1.54893 0.290851 0
M  V30 5200 C 466.511 -2.26812 -0.59945 0
M  V30 5201 C 467.527 -1.29963 -1.15696 0
M  V30 5202 O 468.703 -1.62928 -1.18391 0
M  V30 5203 C 465.768 -2.98716 -1.75982 0
M  V30 5204 C 464.829 -4.1108 -1.2374 0
M  V30 5205 C 464.062 -4.79546 -2.34246 0
M  V30 5206 O 464.285 -4.47309 -3.53936 0
M  V30 5207 O 463.219 -5.67165 -2.01512 0
M  V30 5208 H 467.045 -3.03696 -0.0163561 0
M  V30 5209 H 464.63 -1.49289 0.0576755 0
M  V30 5210 H 466.512 -3.43851 -2.43607 0
M  V30 5211 H 465.187 -2.24737 -2.3297 0
M  V30 5212 H 464.094 -3.70367 -0.527163 0
M  V30 5213 H 465.427 -4.87007 -0.71307 0
M  V30 5214 N 467.08 -0.0183926 -1.57589 0
M  V30 5215 C 468.327 0.662562 -1.91354 0
M  V30 5216 C 468.655 1.72747 -0.893788 0
M  V30 5217 O 467.91 1.9545 0.0988509 0
M  V30 5218 C 468.209 1.32676 -3.31861 0
M  V30 5219 C 467.875 0.393267 -4.49182 0
M  V30 5220 C 466.537 0.136302 -4.81007 0
M  V30 5221 C 468.889 -0.248366 -5.20608 0
M  V30 5222 C 466.217 -0.770282 -5.81621 0
M  V30 5223 C 468.569 -1.14294 -6.22189 0
M  V30 5224 C 467.233 -1.4089 -6.52462 0
M  V30 5225 H 466.503 0.242448 -0.700214 0
M  V30 5226 H 469.15 -0.0778629 -1.91342 0
M  V30 5227 H 467.455 2.14168 -3.28084 0
M  V30 5228 H 469.152 1.86001 -3.55253 0
M  V30 5229 H 465.742 0.603723 -4.24327 0
M  V30 5230 H 469.926 -0.062883 -4.9626 0
M  V30 5231 H 465.182 -0.984154 -6.03427 0
M  V30 5232 H 469.356 -1.64637 -6.76659 0
M  V30 5233 H 466.983 -2.11306 -7.30242 0
M  V30 5234 N 468.558 1.5553 0.254621 0
M  V30 5235 C 469.488 1.9268 1.31897 0
M  V30 5236 C 470.469 0.790797 1.506 0
M  V30 5237 O 471.654 1.05045 1.63337 0
M  V30 5238 C 468.784 2.21477 2.67517 0
M  V30 5239 C 467.738 3.37256 2.63519 0
M  V30 5240 C 467.064 3.51576 4.02862 0
M  V30 5241 C 468.364 4.73157 2.21179 0
M  V30 5242 H 470.058 2.81832 1.01051 0
M  V30 5243 H 467.604 1.35599 0.484662 0
M  V30 5244 H 469.557 2.46055 3.42104 0
M  V30 5245 H 468.281 1.29144 2.99982 0
M  V30 5246 H 466.94 3.12675 1.9139 0
M  V30 5247 H 466.588 2.56676 4.32581 0
M  V30 5248 H 466.288 4.2943 4.01078 0
M  V30 5249 H 467.812 3.78467 4.79161 0
M  V30 5250 H 469.226 4.97158 2.85494 0
M  V30 5251 H 467.623 5.54058 2.30521 0
M  V30 5252 H 468.693 4.70739 1.16332 0
M  V30 5253 N 470.036 -0.519951 1.48776 0
M  V30 5254 C 470.999 -1.60574 1.6355 0
M  V30 5255 C 471.999 -1.52557 0.508234 0
M  V30 5256 O 473.189 -1.56047 0.774262 0
M  V30 5257 C 470.321 -3.00211 1.61512 0
M  V30 5258 H 471.514 -1.4881 2.60376 0
M  V30 5259 H 469.067 -0.742772 1.37523 0
M  V30 5260 H 469.802 -3.17471 0.662009 0
M  V30 5261 H 469.587 -3.07439 2.43359 0
M  V30 5262 H 471.077 -3.79134 1.75064 0
M  V30 5263 N 471.514 -1.37532 -0.769588 0
M  V30 5264 C 472.739 -1.36231 -1.56384 0
M  V30 5265 C 473.164 0.0495849 -1.88035 0
M  V30 5266 O 472.522 1.02723 -1.49391 0
M  V30 5267 C 472.57 -2.20986 -2.84952 0
M  V30 5268 O 471.674 -1.61597 -3.79421 0
M  V30 5269 H 471.015 -0.465387 -0.473615 0
M  V30 5270 H 473.545 -1.81085 -0.952342 0
M  V30 5271 H 473.555 -2.34277 -3.34034 0
M  V30 5272 H 472.23 -3.23612 -2.61243 0
M  V30 5273 H 470.807 -1.57359 -3.38072 0
M  V30 5274 N 472.992 0.995999 -1.22138 0
M  V30 5275 C 474.22 1.77066 -1.07029 0
M  V30 5276 C 474.635 1.8495 0.379357 0
M  V30 5277 O 473.992 1.3174 1.26297 0
M  V30 5278 C 474.043 3.20533 -1.67155 0
M  V30 5279 O 473.764 3.13082 -3.06449 0
M  V30 5280 C 475.265 4.14461 -1.5728 0
M  V30 5281 H 472.485 0.556179 -0.375374 0
M  V30 5282 H 475.029 1.25238 -1.61666 0
M  V30 5283 H 473.184 3.6944 -1.16589 0
M  V30 5284 H 473.598 4.03283 -3.35355 0
M  V30 5285 H 475.072 5.1289 -2.04078 0
M  V30 5286 H 475.549 4.36005 -0.528795 0
M  V30 5287 H 476.155 3.71449 -2.07136 0
M  V30 5288 N 474.47 1.03057 1.19235 0
M  V30 5289 C 475.402 0.570932 2.21975 0
M  V30 5290 C 476.415 -0.354088 1.58903 0
M  V30 5291 O 477.604 -0.150211 1.77867 0
M  V30 5292 C 474.704 -0.187152 3.38383 0
M  V30 5293 C 473.877 0.743231 4.31039 0
M  V30 5294 C 472.936 0.0302493 5.26191 0
M  V30 5295 O 471.962 0.657371 5.65391 0
M  V30 5296 N 473.164 -1.23991 5.67104 0
M  V30 5297 H 475.929 1.45456 2.62036 0
M  V30 5298 H 473.49 0.909807 1.33918 0
M  V30 5299 H 475.482 -0.673715 3.99053 0
M  V30 5300 H 474.052 -0.972205 2.97098 0
M  V30 5301 H 473.272 1.40985 3.68126 0
M  V30 5302 H 474.56 1.3755 4.89854 0
M  V30 5303 H 473.958 -1.77011 5.37293 0
M  V30 5304 H 472.515 -1.67093 6.30018 0
M  V30 5305 N 475.948 -1.35272 0.808662 0
M  V30 5306 C 477.364 -1.51806 0.492653 0
M  V30 5307 C 477.564 -1.7574 -0.985778 0
M  V30 5308 O 476.62 -1.80003 -1.77074 0
M  V30 5309 C 477.933 -2.69202 1.33981 0
M  V30 5310 C 479.481 -2.8308 1.33547 0
M  V30 5311 C 479.956 -4.03502 2.16679 0
M  V30 5312 N 481.447 -4.10684 2.14227 0
M  V30 5313 C 482.182 -5.02984 2.75308 0
M  V30 5314 N 481.678 -6.00603 3.45323 0
M  V30 5315 N 483.471 -4.95746 2.64938 0
M  V30 5316 H 475.622 -1.17993 1.76611 0
M  V30 5317 H 477.885 -0.577476 0.751814 0
M  V30 5318 H 477.591 -2.581 2.38909 0
M  V30 5319 H 477.465 -3.63854 0.994491 0
M  V30 5320 H 479.852 -2.93631 0.294036 0
M  V30 5321 H 479.933 -1.89278 1.72068 0
M  V30 5322 H 479.577 -3.93711 3.20864 0
M  V30 5323 H 479.507 -4.96489 1.75517 0
M  V30 5324 H 481.998 -3.40802 1.63285 0
M  V30 5325 H 482.311 -6.67633 3.89212 0
M  V30 5326 H 480.656 -6.0077 3.49428 0
M  V30 5327 H 483.847 -4.18439 2.09825 0
M  V30 5328 H 484.02 -5.67487 3.12829 0
M  V30 5329 N 477.426 -0.562348 -1.47226 0
M  V30 5330 C 478.373 0.182461 -2.30078 0
M  V30 5331 C 479.343 0.903503 -1.39377 0
M  V30 5332 O 480.528 0.898188 -1.68337 0
M  V30 5333 C 477.668 1.20322 -3.23445 0
M  V30 5334 C 476.781 0.487717 -4.29238 0
M  V30 5335 C 475.916 1.49422 -5.09752 0
M  V30 5336 C 474.955 0.763976 -6.07314 0
M  V30 5337 N 474.092 1.71755 -6.80768 0
M  V30 5338 H 478.932 -0.530169 -2.93246 0
M  V30 5339 H 476.469 -0.273276 -1.44539 0
M  V30 5340 H 478.427 1.80768 -3.76004 0
M  V30 5341 H 477.057 1.88382 -2.6213 0
M  V30 5342 H 476.109 -0.231374 -3.79696 0
M  V30 5343 H 477.421 -0.0841003 -4.98729 0
M  V30 5344 H 476.575 2.17206 -5.66486 0
M  V30 5345 H 475.314 2.09995 -4.40174 0
M  V30 5346 H 474.319 0.0722344 -5.49753 0
M  V30 5347 H 475.544 0.16391 -6.78902 0
M  V30 5348 H 473.49 2.31177 -6.13916 0
M  V30 5349 H 473.407 1.19802 -7.46447 0
M  V30 5350 H 474.675 2.38638 -7.42073 0
M  V30 5351 N 478.904 1.54736 -0.299062 0
M  V30 5352 C 479.814 2.27127 0.587413 0
M  V30 5353 C 480.83 1.30575 1.15005 0
M  V30 5354 O 482.006 1.63554 1.17525 0
M  V30 5355 C 479.071 2.99645 1.74395 0
M  V30 5356 C 478.132 4.11731 1.21559 0
M  V30 5357 C 477.365 4.80781 2.317 0
M  V30 5358 O 477.588 4.4918 3.51558 0
M  V30 5359 O 476.522 5.68226 1.98501 0
M  V30 5360 H 480.348 3.037 0.000250109 0
M  V30 5361 H 477.933 1.49256 -0.0655919 0
M  V30 5362 H 479.815 3.45138 2.4178 0
M  V30 5363 H 478.49 2.25969 2.31775 0
M  V30 5364 H 477.397 3.70641 0.507514 0
M  V30 5365 H 478.73 4.87379 0.687233 0
M  V30 5366 N 480.382 0.0267497 1.57577 0
M  V30 5367 C 481.629 -0.652404 1.91703 0
M  V30 5368 C 481.957 -1.72271 0.902936 0
M  V30 5369 O 481.212 -1.955 -0.0884843 0
M  V30 5370 C 481.511 -1.30914 3.3256 0
M  V30 5371 C 481.177 -0.369441 4.49384 0
M  V30 5372 C 479.839 -0.110791 4.81072 0
M  V30 5373 C 482.191 0.275971 5.20469 0
M  V30 5374 C 479.519 0.801116 5.81205 0
M  V30 5375 C 481.871 1.17592 6.21575 0
M  V30 5376 C 480.535 1.44348 6.51705 0
M  V30 5377 H 479.805 -0.238732 0.70149 0
M  V30 5378 H 482.452 0.0880091 1.91298 0
M  V30 5379 H 480.757 -2.12425 3.29216 0
M  V30 5380 H 482.454 -1.84115 3.56234 0
M  V30 5381 H 479.044 -0.581211 4.24641 0
M  V30 5382 H 483.228 0.0892 4.9622 0
M  V30 5383 H 478.484 1.01614 6.02897 0
M  V30 5384 H 482.658 1.68223 6.75777 0
M  V30 5385 H 480.285 2.15176 7.29111 0
M  V30 5386 N 481.861 -1.55662 -0.24637 0
M  V30 5387 C 483.109 -1.77168 -0.972411 0
M  V30 5388 C 483.43 -0.590827 -1.85834 0
M  V30 5389 O 482.7 0.393365 -1.9191 0
M  V30 5390 H 481.28 -0.653405 -0.362038 0
M  V30 5391 H 483.942 -1.93101 -0.264189 0
M  V30 5392 H 483.038 -2.68335 -1.59382 0
M  V30 5393 N 483.339 0.512053 -1.4905 0
M  V30 5394 C 484.616 1.27337 -1.48474 0
M  V30 5395 C 484.996 2.1009 -0.206301 0
M  V30 5396 O 484.344 2.136 0.811609 0
M  V30 5397 C 484.554 2.13954 -2.75726 0
M  V30 5398 C 485.902 2.73507 -3.24776 0
M  V30 5399 O 486.926 2.24229 -2.76767 0
M  V30 5400 O 485.785 3.63186 -4.08361 0
M  V30 5401 H 482.879 0.575652 -0.593762 0
M  V30 5402 H 485.425 0.527232 -1.61302 0
M  V30 5403 H 484.197 1.52709 -3.60272 0
M  V30 5404 H 483.82 2.95782 -2.65705 0
M  V30 5405 N 484.817 1.37938 0.762283 0
M  V30 5406 C 486.045 1.36883 1.55147 0
M  V30 5407 C 486.46 -0.0435348 1.8875 0
M  V30 5408 O 485.817 -1.00786 1.52146 0
M  V30 5409 C 485.868 2.21624 2.85596 0
M  V30 5410 O 485.589 3.57358 2.5343 0
M  V30 5411 C 487.09 2.28653 3.7978 0
M  V30 5412 H 484.31 0.468521 0.480343 0
M  V30 5413 H 486.854 1.81404 0.944079 0
M  V30 5414 H 485.009 1.80588 3.42734 0
M  V30 5415 H 485.423 4.01883 3.37032 0
M  V30 5416 H 486.897 2.9225 4.68288 0
M  V30 5417 H 487.374 1.29767 4.19592 0
M  V30 5418 H 487.98 2.70043 3.28568 0
M  V30 5419 N 486.295 -0.989507 1.22664 0
M  V30 5420 C 487.543 -1.72612 1.05117 0
M  V30 5421 C 487.864 -1.90552 -0.414131 0
M  V30 5422 O 487.134 -1.4676 -1.29762 0
M  V30 5423 H 485.714 -0.639555 0.385977 0
M  V30 5424 H 488.376 -1.19158 1.54232 0
M  V30 5425 H 487.472 -2.71926 1.53175 0
M  V30 5426 N 487.773 -1.03688 -1.18687 0
M  V30 5427 C 488.683 -0.634908 -2.25845 0
M  V30 5428 C 489.699 0.337065 -1.70704 0
M  V30 5429 O 490.875 0.192943 -2.00474 0
M  V30 5430 C 487.94 -0.000180054 -3.467 0
M  V30 5431 C 487.001 -1.02067 -4.1699 0
M  V30 5432 C 486.234 -0.41614 -5.32075 0
M  V30 5433 O 486.457 0.778712 -5.65059 0
M  V30 5434 O 485.391 -1.14296 -5.90948 0
M  V30 5435 H 489.217 -1.52757 -2.62486 0
M  V30 5436 H 486.802 -0.807533 -1.25695 0
M  V30 5437 H 488.684 0.353342 -4.19916 0
M  V30 5438 H 487.359 0.866367 -3.11891 0
M  V30 5439 H 486.266 -1.42592 -3.45859 0
M  V30 5440 H 487.599 -1.85786 -4.5579 0
M  V30 5441 N 489.251 1.34841 -0.815825 0
M  V30 5442 C 490.499 1.98107 -0.399744 0
M  V30 5443 C 490.82 1.65019 1.03894 0
M  V30 5444 O 490.09 0.937311 1.72021 0
M  V30 5445 H 488.67 0.732827 -0.144823 0
M  V30 5446 H 491.332 1.64599 -1.0437 0
M  V30 5447 H 490.428 3.07856 -0.512965 0
M  V30 5448 N 490.729 0.570148 1.46925 0
M  V30 5449 C 491.975 0.0593124 2.03314 0
M  V30 5450 C 492.33 -1.28139 1.43521 0
M  V30 5451 O 491.623 -1.82411 0.586245 0
M  V30 5452 C 491.817 -0.0780336 3.57315 0
M  V30 5453 C 491.646 1.2478 4.32042 0
M  V30 5454 C 490.416 1.81859 4.7144 0
M  V30 5455 C 492.614 2.16808 4.66368 0
M  V30 5456 N 490.596 3.08313 5.30864 0
M  V30 5457 C 491.967 3.27845 5.2623 0
M  V30 5458 C 494.022 2.16643 4.48297 0
M  V30 5459 C 492.725 4.38832 5.69929 0
M  V30 5460 C 494.751 3.26652 4.93004 0
M  V30 5461 C 494.113 4.36408 5.52926 0
M  V30 5462 H 490.212 0.0641804 0.779362 0
M  V30 5463 H 492.796 0.760285 1.79242 0
M  V30 5464 H 490.967 -0.748151 3.81126 0
M  V30 5465 H 492.699 -0.59211 4.00345 0
M  V30 5466 H 489.454 1.35502 4.53802 0
M  V30 5467 H 489.878 3.72802 5.65108 0
M  V30 5468 H 494.52 1.33065 4.01315 0
M  V30 5469 H 492.238 5.23162 6.15896 0
M  V30 5470 H 495.824 3.27627 4.80782 0
M  V30 5471 H 494.704 5.20127 5.86888 0
M  V30 5472 N 492.207 -1.54576 0.307264 0
M  V30 5473 C 493.117 -2.27435 -0.57536 0
M  V30 5474 C 494.133 -1.31183 -1.14311 0
M  V30 5475 O 495.309 -1.64175 -1.16656 0
M  V30 5476 C 492.374 -3.00566 -1.72803 0
M  V30 5477 C 491.435 -4.12369 -1.19373 0
M  V30 5478 C 490.668 -4.82003 -2.29147 0
M  V30 5479 O 490.891 -4.51038 -3.49171 0
M  V30 5480 O 489.825 -5.69271 -1.95485 0
M  V30 5481 H 493.651 -3.03696 0.0158558 0
M  V30 5482 H 491.236 -1.49219 0.0735064 0
M  V30 5483 H 493.118 -3.46416 -2.39946 0
M  V30 5484 H 491.793 -2.27195 -2.30574 0
M  V30 5485 H 490.7 -3.70905 -0.487851 0
M  V30 5486 H 492.033 -4.87736 -0.661376 0
M  V30 5487 N 493.685 -0.035106 -1.57561 0
M  V30 5488 C 494.913 0.652258 -1.9635 0
M  V30 5489 C 495.328 1.65317 -0.911897 0
M  V30 5490 O 494.685 1.82194 0.105657 0
M  V30 5491 C 494.736 1.35337 -3.35211 0
M  V30 5492 O 494.457 0.392548 -4.36338 0
M  V30 5493 C 495.958 2.13199 -3.88666 0
M  V30 5494 H 493.178 0.179444 -0.646561 0
M  V30 5495 H 495.722 -0.0966459 -2.04271 0
M  V30 5496 H 493.877 2.05362 -3.28489 0
M  V30 5497 H 494.291 0.891097 -5.16875 0
M  V30 5498 H 495.765 2.577 -4.88154 0
M  V30 5499 H 496.242 2.97353 -3.23231 0
M  V30 5500 H 496.848 1.48118 -3.98674 0
M  V30 5501 N 495.163 1.55791 0.238111 0
M  V30 5502 C 496.409 1.78297 0.966337 0
M  V30 5503 C 496.742 0.601903 1.84637 0
M  V30 5504 O 496.017 -0.399499 1.90353 0
M  V30 5505 C 496.3 3.10758 1.81939 0
M  V30 5506 C 496.153 4.39283 0.966958 0
M  V30 5507 C 497.472 3.39519 2.80027 0
M  V30 5508 H 494.591 0.648654 0.349882 0
M  V30 5509 H 497.233 1.88525 0.236253 0
M  V30 5510 H 495.383 3.02168 2.44185 0
M  V30 5511 H 497.055 4.59873 0.362514 0
M  V30 5512 H 495.298 4.32948 0.271669 0
M  V30 5513 H 495.969 5.28368 1.59784 0
M  V30 5514 H 498.445 3.48128 2.27917 0
M  V30 5515 H 497.321 4.33402 3.36829 0
M  V30 5516 H 497.582 2.60864 3.56934 0
M  V30 5517 N 496.642 -0.504142 1.49319 0
M  V30 5518 C 497.552 -1.63248 1.68486 0
M  V30 5519 C 498.568 -1.64488 0.567432 0
M  V30 5520 O 499.744 -1.82966 0.841749 0
M  V30 5521 C 496.809 -2.99627 1.74426 0
M  V30 5522 C 495.87 -3.09039 2.97982 0
M  V30 5523 C 495.103 -4.38913 3.0363 0
M  V30 5524 O 495.326 -5.27528 2.16958 0
M  V30 5525 O 494.26 -4.53231 3.96062 0
M  V30 5526 H 498.086 -1.50008 2.64067 0
M  V30 5527 H 495.671 -0.680086 1.33023 0
M  V30 5528 H 497.553 -3.80689 1.80705 0
M  V30 5529 H 496.228 -3.13136 0.820233 0
M  V30 5530 H 495.135 -2.27177 2.97223 0
M  V30 5531 H 496.468 -3.00456 3.89855 0
M  V30 5532 N 498.12 -1.38341 -0.754957 0
M  V30 5533 C 499.053 -1.29837 -1.87663 0
M  V30 5534 C 500.031 -0.175659 -1.61648 0
M  V30 5535 O 501.215 -0.352745 -1.8517 0
M  V30 5536 C 498.342 -1.01141 -3.23246 0
M  V30 5537 C 497.388 -2.15331 -3.6815 0
M  V30 5538 S 498.221 -3.77459 -3.79849 0
M  V30 5539 C 499.377 -3.50948 -5.18253 0
M  V30 5540 H 499.61 -2.24771 -1.9459 0
M  V30 5541 H 497.143 -1.24161 -0.917796 0
M  V30 5542 H 499.101 -0.852687 -4.01546 0
M  V30 5543 H 497.762 -0.0792784 -3.14 0
M  V30 5544 H 496.955 -1.90795 -4.6649 0
M  V30 5545 H 496.557 -2.27304 -2.97 0
M  V30 5546 H 498.849 -3.06977 -6.03963 0
M  V30 5547 H 499.792 -4.48677 -5.47809 0
M  V30 5548 H 500.2 -2.85492 -4.86985 0
M  V30 5549 N 499.598 0.982988 -1.23187 0
M  V30 5550 C 500.548 2.05962 -0.977942 0
M  V30 5551 C 501.532 1.60725 0.0751148 0
M  V30 5552 O 502.724 1.76471 -0.136683 0
M  V30 5553 C 499.853 3.38564 -0.568276 0
M  V30 5554 C 498.939 3.90407 -1.6566 0
M  V30 5555 N 499.33 4.15359 -2.88635 0
M  V30 5556 C 497.628 4.18915 -1.53058 0
M  V30 5557 C 498.329 4.57642 -3.5908 0
M  V30 5558 N 497.305 4.6192 -2.86584 0
M  V30 5559 H 501.107 2.23208 -1.91195 0
M  V30 5560 H 498.621 1.16555 -1.13087 0
M  V30 5561 H 500.618 4.15276 -0.36764 0
M  V30 5562 H 499.278 3.22712 0.358713 0
M  V30 5563 H 500.289 4.03258 -3.24966 0
M  V30 5564 H 496.966 4.12081 -0.670506 0
M  V30 5565 H 498.356 4.85488 -4.6449 0
M  V30 5566 N 501.076 1.04316 1.18135 0
M  V30 5567 C 502.487 0.775505 1.69832 0
M  V30 5568 C 502.838 -0.703348 1.8316 0
M  V30 5569 O 501.963 -1.54729 1.51287 0
M  V30 5570 C 502.558 1.40112 3.0847 0
M  V30 5571 C 501.117 1.18172 3.57368 0
M  V30 5572 C 500.264 1.49022 2.33854 0
M  V30 5573 H 503.215 1.20925 1.02775 0
M  V30 5574 H 503.236 0.805672 3.71873 0
M  V30 5575 H 502.748 2.47744 2.98738 0
M  V30 5576 H 500.849 0.124258 3.72393 0
M  V30 5577 H 500.962 1.8805 4.40652 0
M  V30 5578 H 499.326 0.909995 2.37889 0
M  V30 5579 H 500.109 2.57768 2.26738 0
M  V30 5580 N 502.554 -1.34406 0.822964 0
M  V30 5581 C 503.517 -2.2783 0.250271 0
M  V30 5582 C 504.517 -1.50288 -0.571854 0
M  V30 5583 O 505.707 -1.69825 -0.387952 0
M  V30 5584 C 502.839 -3.34663 -0.649137 0
M  V30 5585 H 504.032 -2.79992 1.07444 0
M  V30 5586 H 501.585 -1.44539 0.594829 0
M  V30 5587 H 502.32 -2.87714 -1.49637 0
M  V30 5588 H 502.105 -3.92052 -0.0611199 0
M  V30 5589 H 503.595 -4.04349 -1.04363 0
M  V30 5590 N 504.032 -0.577932 -1.46621 0
M  V30 5591 C 505.262 -0.0670668 -2.06491 0
M  V30 5592 C 505.67 1.24119 -1.42798 0
M  V30 5593 O 505.013 1.76016 -0.525759 0
M  V30 5594 C 505.075 0.177995 -3.59059 0
M  V30 5595 C 504.739 -1.04394 -4.44917 0
M  V30 5596 C 505.736 -1.95479 -4.81751 0
M  V30 5597 C 503.421 -1.26444 -4.86125 0
M  V30 5598 C 505.415 -3.06965 -5.58615 0
M  V30 5599 C 503.102 -2.38237 -5.62749 0
M  V30 5600 C 504.1 -3.28327 -5.98908 0
M  V30 5601 O 503.788 -4.38179 -6.73984 0
M  V30 5602 H 503.52 -0.0523159 -0.673973 0
M  V30 5603 H 506.074 -0.796966 -1.89308 0
M  V30 5604 H 504.304 0.962451 -3.74531 0
M  V30 5605 H 505.993 0.636782 -4.00874 0
M  V30 5606 H 506.759 -1.79657 -4.50498 0
M  V30 5607 H 502.638 -0.572316 -4.57434 0
M  V30 5608 H 506.182 -3.77309 -5.86757 0
M  V30 5609 H 502.079 -2.54023 -5.93416 0
M  V30 5610 H 502.847 -4.36486 -6.92403 0
M  V30 5611 N 505.51 1.54411 -0.315457 0
M  V30 5612 C 506.738 2.04833 0.291738 0
M  V30 5613 C 507.153 1.19203 1.46411 0
M  V30 5614 O 506.51 0.220867 1.81159 0
M  V30 5615 C 506.561 3.53969 0.73404 0
M  V30 5616 O 506.282 4.36346 -0.391682 0
M  V30 5617 C 507.783 4.2045 1.40489 0
M  V30 5618 H 505.003 0.668195 0.0612947 0
M  V30 5619 H 507.547 1.99276 -0.45929 0
M  V30 5620 H 505.702 3.5984 1.43506 0
M  V30 5621 H 506.116 5.24481 -0.0447088 0
M  V30 5622 H 507.59 5.26278 1.66539 0
M  V30 5623 H 508.067 3.71067 2.3496 0
M  V30 5624 H 508.673 4.18694 0.746662 0
M  V30 5625 N 506.988 0.0434614 1.5754 0
M  V30 5626 C 507.898 -0.94893 2.14552 0
M  V30 5627 C 508.914 -1.34707 1.10136 0
M  V30 5628 O 510.09 -1.42557 1.42266 0
M  V30 5629 C 507.155 -2.208 2.67298 0
M  V30 5630 C 506.216 -1.86893 3.86484 0
M  V30 5631 C 505.449 -3.06797 4.36705 0
M  V30 5632 O 505.672 -4.19921 3.86034 0
M  V30 5633 O 504.606 -2.8826 5.28384 0
M  V30 5634 H 508.432 -0.494099 2.99654 0
M  V30 5635 H 506.017 -0.177989 1.48336 0
M  V30 5636 H 507.899 -2.94686 3.01228 0
M  V30 5637 H 506.574 -2.65436 1.85272 0
M  V30 5638 H 505.481 -1.10347 3.57455 0
M  V30 5639 H 506.814 -1.47062 4.69716 0
M  V30 5640 N 508.466 -1.55915 -0.229846 0
M  V30 5641 C 509.376 -1.94891 -1.30593 0
M  V30 5642 C 510.392 -0.851604 -1.51736 0
M  V30 5643 O 511.568 -1.15447 -1.65027 0
M  V30 5644 C 508.633 -2.25052 -2.63728 0
M  V30 5645 C 507.694 -3.48306 -2.5096 0
M  V30 5646 C 506.927 -3.77019 -3.77747 0
M  V30 5647 O 507.15 -3.07534 -4.80395 0
M  V30 5648 O 506.084 -4.70523 -3.75356 0
M  V30 5649 H 509.91 -2.86581 -1.00525 0
M  V30 5650 H 507.495 -1.43017 -0.432025 0
M  V30 5651 H 509.377 -2.45682 -3.42372 0
M  V30 5652 H 508.052 -1.36538 -2.93495 0
M  V30 5653 H 506.959 -3.32964 -1.70546 0
M  V30 5654 H 508.292 -4.37177 -2.26136 0
M  V30 5655 N 509.944 0.496216 -1.49584 0
M  V30 5656 C 510.854 1.62352 -1.69349 0
M  V30 5657 C 511.87 1.64184 -0.576147 0
M  V30 5658 O 513.046 1.82517 -0.85144 0
M  V30 5659 C 510.111 2.98698 -1.76013 0
M  V30 5660 C 509.172 3.07454 -2.99617 0
M  V30 5661 C 508.405 4.37296 -3.05953 0
M  V30 5662 O 508.628 5.2637 -2.19752 0
M  V30 5663 O 507.562 4.51124 -3.9846 0
M  V30 5664 H 511.388 1.48606 -2.64859 0
M  V30 5665 H 508.973 0.673022 -1.33382 0
M  V30 5666 H 510.855 3.79725 -1.82721 0
M  V30 5667 H 509.53 3.12696 -0.836828 0
M  V30 5668 H 508.437 2.25597 -2.98424 0
M  V30 5669 H 509.77 2.98385 -3.91443 0
M  V30 5670 N 511.423 1.38739 0.74761 0
M  V30 5671 C 512.353 1.39173 1.87492 0
M  V30 5672 C 513.334 0.256794 1.6815 0
M  V30 5673 O 514.519 0.460762 1.88655 0
M  V30 5674 C 511.649 1.22197 3.25093 0
M  V30 5675 C 510.603 2.32957 3.59047 0
M  V30 5676 C 509.929 2.01082 4.95449 0
M  V30 5677 C 511.229 3.75237 3.6331 0
M  V30 5678 H 512.923 2.3351 1.87386 0
M  V30 5679 H 510.469 1.12399 0.900134 0
M  V30 5680 H 512.422 1.21124 4.03617 0
M  V30 5681 H 511.146 0.243241 3.25693 0
M  V30 5682 H 509.805 2.33226 2.82845 0
M  V30 5683 H 509.453 1.01678 4.92616 0
M  V30 5684 H 509.153 2.75267 5.19136 0
M  V30 5685 H 510.677 2.01638 5.76346 0
M  V30 5686 H 512.091 3.76966 4.31937 0
M  V30 5687 H 510.488 4.48677 3.98509 0
M  V30 5688 H 511.558 4.07122 2.634 0
M  V30 5689 N 512.901 -0.976442 1.23707 0
M  V30 5690 C 514.317 -1.24341 1.00058 0
M  V30 5691 C 514.517 -1.99315 -0.295932 0
M  V30 5692 O 513.573 -2.3123 -1.01435 0
M  V30 5693 C 514.886 -2.03909 2.21001 0
M  V30 5694 C 516.434 -2.17034 2.25534 0
M  V30 5695 C 516.909 -2.99994 3.46075 0
M  V30 5696 N 518.4 -3.07578 3.46338 0
M  V30 5697 C 519.135 -3.72104 4.36264 0
M  V30 5698 N 518.631 -4.3842 5.36432 0
M  V30 5699 N 520.424 -3.69029 4.23998 0
M  V30 5700 H 512.575 -0.47428 2.07037 0
M  V30 5701 H 514.838 -0.272167 0.908091 0
M  V30 5702 H 514.544 -1.56198 3.15111 0
M  V30 5703 H 514.418 -3.04654 2.22409 0
M  V30 5704 H 516.805 -2.63951 1.31961 0
M  V30 5705 H 516.886 -1.15664 2.28156 0
M  V30 5706 H 516.53 -2.53772 4.39957 0
M  V30 5707 H 516.46 -4.01541 3.40694 0
M  V30 5708 H 518.951 -2.60397 2.73865 0
M  V30 5709 H 519.264 -4.85447 6.013 0
M  V30 5710 H 517.609 -4.37116 5.40328 0
M  V30 5711 H 520.8 -3.16392 3.44984 0
M  V30 5712 H 520.973 -4.19034 4.94282 0
M  V30 5713 N 514.379 -1.04941 -1.1758 0
M  V30 5714 C 515.795 -0.770282 -1.39781 0
M  V30 5715 C 515.995 0.636417 -1.91186 0
M  V30 5716 O 515.051 1.39923 -2.10185 0
M  V30 5717 C 516.364 -1.82376 -2.3908 0
M  V30 5718 C 517.912 -1.84569 -2.52791 0
M  V30 5719 C 518.387 -2.88933 -3.55361 0
M  V30 5720 N 519.878 -2.8788 -3.62877 0
M  V30 5721 C 520.613 -3.65282 -4.41992 0
M  V30 5722 N 520.109 -4.52461 -5.24643 0
M  V30 5723 N 521.902 -3.53732 -4.36841 0
M  V30 5724 H 514.053 -1.95705 -0.825438 0
M  V30 5725 H 516.316 -0.847284 -0.425222 0
M  V30 5726 H 516.022 -2.83323 -2.08376 0
M  V30 5727 H 515.896 -1.66327 -3.38549 0
M  V30 5728 H 518.283 -0.842879 -2.82807 0
M  V30 5729 H 518.364 -2.04696 -1.53406 0
M  V30 5730 H 518.008 -3.89398 -3.26085 0
M  V30 5731 H 517.938 -2.66059 -4.54445 0
M  V30 5732 H 520.429 -2.24666 -3.03864 0
M  V30 5733 H 520.742 -5.08211 -5.82187 0
M  V30 5734 H 519.087 -4.56524 -5.24033 0
M  V30 5735 H 522.278 -2.85021 -3.71323 0
M  V30 5736 H 522.451 -4.14302 -4.98255 0
M  V30 5737 N 515.857 1.33968 -0.830081 0
M  V30 5738 C 517.104 1.98063 -0.421566 0
M  V30 5739 C 517.432 1.65787 1.0171 0
M  V30 5740 O 516.687 0.925348 1.72441 0
M  V30 5741 C 516.986 3.52679 -0.57898 0
M  V30 5742 C 516.652 4.04884 -1.98443 0
M  V30 5743 C 515.314 4.18852 -2.36888 0
M  V30 5744 C 517.666 4.32879 -2.90285 0
M  V30 5745 C 514.994 4.58145 -3.66497 0
M  V30 5746 C 517.346 4.7362 -4.19364 0
M  V30 5747 C 516.01 4.85794 -4.57778 0
M  V30 5748 H 515.28 0.724765 -0.154262 0
M  V30 5749 H 517.927 1.59792 -1.05541 0
M  V30 5750 H 516.232 3.91556 0.138219 0
M  V30 5751 H 517.929 4.00261 -0.243317 0
M  V30 5752 H 514.519 3.9448 -1.67581 0
M  V30 5753 H 518.703 4.21619 -2.61823 0
M  V30 5754 H 513.959 4.65762 -3.96075 0
M  V30 5755 H 518.133 4.9424 -4.90612 0
M  V30 5756 H 515.76 5.15998 -5.58256 0
M  V30 5757 N 517.335 0.585699 1.46312 0
M  V30 5758 C 518.245 -0.148236 2.34131 0
M  V30 5759 C 519.261 -0.882972 1.49932 0
M  V30 5760 O 520.437 -0.845484 1.82794 0
M  V30 5761 C 517.502 -1.14714 3.27172 0
M  V30 5762 C 516.563 -0.416746 4.27272 0
M  V30 5763 C 515.796 -1.36806 5.15868 0
M  V30 5764 O 516.019 -2.60475 5.07454 0
M  V30 5765 O 514.953 -0.877018 5.95476 0
M  V30 5766 H 518.779 0.572882 2.98248 0
M  V30 5767 H 516.364 0.346082 1.45336 0
M  V30 5768 H 518.246 -1.72303 3.84564 0
M  V30 5769 H 516.921 -1.84967 2.65648 0
M  V30 5770 H 515.828 0.201061 3.73559 0
M  V30 5771 H 517.161 0.244872 4.9159 0
M  V30 5772 N 518.813 -1.54241 0.323641 0
M  V30 5773 C 519.723 -2.28033 -0.551205 0
M  V30 5774 C 520.739 -1.32388 -1.12913 0
M  V30 5775 O 521.915 -1.65403 -1.14908 0
M  V30 5776 C 518.98 -3.02382 -1.69606 0
M  V30 5777 C 518.041 -4.13612 -1.14993 0
M  V30 5778 C 517.274 -4.84407 -2.24022 0
M  V30 5779 O 517.497 -4.54716 -3.44368 0
M  V30 5780 O 516.431 -5.71312 -1.89436 0
M  V30 5781 H 520.257 -3.03662 0.048066 0
M  V30 5782 H 517.842 -1.49133 0.0893289 0
M  V30 5783 H 519.724 -3.48941 -2.36259 0
M  V30 5784 H 518.399 -2.29628 -2.28151 0
M  V30 5785 H 517.306 -3.71402 -0.448484 0
M  V30 5786 H 518.639 -4.8841 -0.609608 0
M  V30 5787 N 520.291 -0.0518155 -1.57515 0
M  V30 5788 C 521.201 0.937539 -2.15052 0
M  V30 5789 C 522.217 1.34121 -1.10849 0
M  V30 5790 O 523.393 1.418 -1.4302 0
M  V30 5791 C 520.458 2.19379 -2.68466 0
M  V30 5792 C 519.519 1.84841 -3.87469 0
M  V30 5793 C 518.752 3.04477 -4.38326 0
M  V30 5794 O 518.975 4.17868 -3.88256 0
M  V30 5795 O 517.909 2.85453 -5.29906 0
M  V30 5796 H 521.735 0.478201 -2.99912 0
M  V30 5797 H 519.32 0.17012 -1.48428 0
M  V30 5798 H 521.202 2.93084 -3.02787 0
M  V30 5799 H 519.877 2.64449 -1.86677 0
M  V30 5800 H 518.784 1.08449 -3.58036 0
M  V30 5801 H 520.117 1.44569 -4.7049 0
M  V30 5802 N 521.769 1.56035 0.221574 0
M  V30 5803 C 522.699 1.95434 1.2778 0
M  V30 5804 C 523.68 0.822564 1.48889 0
M  V30 5805 O 524.865 1.08486 1.61072 0
M  V30 5806 C 521.995 2.27102 2.62759 0
M  V30 5807 C 520.949 3.4277 2.56306 0
M  V30 5808 C 520.275 3.60043 3.95314 0
M  V30 5809 C 521.575 4.77742 2.11093 0
M  V30 5810 H 523.269 2.83912 0.950504 0
M  V30 5811 H 520.815 1.36596 0.455791 0
M  V30 5812 H 522.768 2.53256 3.36807 0
M  V30 5813 H 521.492 1.35478 2.97176 0
M  V30 5814 H 520.151 3.16664 1.84715 0
M  V30 5815 H 519.799 2.65794 4.27039 0
M  V30 5816 H 519.499 4.37841 3.91879 0
M  V30 5817 H 521.023 3.88545 4.71025 0
M  V30 5818 H 522.437 5.03102 2.74885 0
M  V30 5819 H 520.834 5.58823 2.18716 0
M  V30 5820 H 521.904 4.731 1.06321 0
M  V30 5821 N 523.247 -0.488276 1.49845 0
M  V30 5822 C 524.21 -1.57069 1.66919 0
M  V30 5823 C 525.21 -1.51445 0.540479 0
M  V30 5824 O 526.4 -1.5437 0.807188 0
M  V30 5825 C 523.532 -2.96718 1.67844 0
M  V30 5826 H 524.725 -1.43254 2.63474 0
M  V30 5827 H 522.278 -0.713435 1.39068 0
M  V30 5828 H 523.013 -3.15996 0.7292 0
M  V30 5829 H 522.798 -3.02208 2.49826 0
M  V30 5830 H 524.288 -3.75335 1.83066 0
M  V30 5831 N 524.725 -1.39134 -0.740242 0
M  V30 5832 C 525.688 -1.37217 -1.83587 0
M  V30 5833 C 526.688 -0.270221 -1.58513 0
M  V30 5834 O 527.878 -0.527843 -1.6601 0
M  V30 5835 C 525.01 -1.13959 -3.21288 0
M  V30 5836 H 526.203 -2.34705 -1.86691 0
M  V30 5837 H 523.756 -1.24622 -0.94335 0
M  V30 5838 H 524.491 -0.17131 -3.23847 0
M  V30 5839 H 524.276 -1.93754 -3.40884 0
M  V30 5840 H 525.766 -1.15346 -4.01354 0
M  V30 5841 N 526.204 0.969867 -1.24223 0
M  V30 5842 C 527.62 1.23809 -1.00716 0
M  V30 5843 C 527.82 1.99469 0.285358 0
M  V30 5844 O 526.876 2.31764 1.00207 0
M  V30 5845 C 528.189 2.02734 -2.2208 0
M  V30 5846 C 529.737 2.15834 -2.26681 0
M  V30 5847 C 530.212 2.98154 -3.47661 0
M  V30 5848 N 531.703 3.05737 -3.47964 0
M  V30 5849 C 532.438 3.69785 -4.38231 0
M  V30 5850 N 531.934 4.35569 -5.3875 0
M  V30 5851 N 533.727 3.66775 -4.25949 0
M  V30 5852 H 525.878 0.463294 -2.07286 0
M  V30 5853 H 528.141 0.267348 -0.909521 0
M  V30 5854 H 527.847 1.54524 -3.15935 0
M  V30 5855 H 527.721 3.0347 -2.24021 0
M  V30 5856 H 530.108 2.63248 -1.33359 0
M  V30 5857 H 530.189 1.14453 -2.28767 0
M  V30 5858 H 529.833 2.51435 -4.41297 0
M  V30 5859 H 529.763 3.99729 -3.42818 0
M  V30 5860 H 532.254 2.58941 -2.75242 0
M  V30 5861 H 532.567 4.82251 -6.03866 0
M  V30 5862 H 530.912 4.34244 -5.42639 0
M  V30 5863 H 534.103 3.14558 -3.46657 0
M  V30 5864 H 534.276 4.16407 -4.96497 0
M  V30 5865 N 527.682 1.05563 1.17022 0
M  V30 5866 C 528.592 0.670758 2.24807 0
M  V30 5867 C 529.608 -0.309865 1.71219 0
M  V30 5868 O 530.784 -0.161025 2.00755 0
M  V30 5869 C 527.849 0.055337 3.46656 0
M  V30 5870 C 526.91 1.08688 4.15314 0
M  V30 5871 C 526.143 0.500736 5.31346 0
M  V30 5872 O 526.366 -0.688718 5.66227 0
M  V30 5873 O 525.3 1.23683 5.89055 0
M  V30 5874 H 529.126 1.56914 2.60023 0
M  V30 5875 H 526.711 0.827428 1.24395 0
M  V30 5876 H 528.593 -0.286492 4.20425 0
M  V30 5877 H 527.268 -0.816638 3.13229 0
M  V30 5878 H 526.175 1.48077 3.43546 0
M  V30 5879 H 527.508 1.93014 4.52777 0
M  V30 5880 N 529.16 -1.33526 0.837174 0
M  V30 5881 C 530.123 -2.27551 0.274421 0
M  V30 5882 C 531.123 -1.50886 -0.555881 0
M  V30 5883 O 532.313 -1.70227 -0.369918 0
M  V30 5884 C 529.445 -3.35332 -0.613605 0
M  V30 5885 H 530.638 -2.78837 1.10408 0
M  V30 5886 H 528.191 -1.439 0.610126 0
M  V30 5887 H 528.926 -2.89285 -1.46577 0
M  V30 5888 H 528.711 -3.92095 -0.0195341 0
M  V30 5889 H 530.201 -4.05433 -1.00068 0
M  V30 5890 N 530.638 -0.59345 -1.46 0
M  V30 5891 C 531.548 0.135817 -2.34207 0
M  V30 5892 C 532.564 0.875008 -1.50398 0
M  V30 5893 O 533.74 0.835778 -1.83239 0
M  V30 5894 C 530.805 1.12977 -3.27776 0
M  V30 5895 C 529.866 0.394081 -4.27487 0
M  V30 5896 C 529.099 1.34068 -5.16586 0
M  V30 5897 O 529.322 2.5778 -5.08828 0
M  V30 5898 O 528.256 0.845426 -5.95933 0
M  V30 5899 H 532.082 -0.588691 -2.9794 0
M  V30 5900 H 529.667 -0.353784 -1.45151 0
M  V30 5901 H 531.549 1.70261 -3.85473 0
M  V30 5902 H 530.224 1.83556 -2.66625 0
M  V30 5903 H 529.131 -0.220869 -3.73447 0
M  V30 5904 H 530.464 -0.270939 -4.91454 0
M  V30 5905 N 532.116 1.54067 -0.331816 0
M  V30 5906 C 533.046 2.27569 0.522932 0
M  V30 5907 C 534.027 1.28679 1.11247 0
M  V30 5908 O 535.212 1.57504 1.13605 0
M  V30 5909 C 532.342 3.0397 1.67987 0
M  V30 5910 C 531.296 4.10267 1.21924 0
M  V30 5911 C 530.622 4.74555 2.46377 0
M  V30 5912 C 531.922 5.21268 0.32815 0
M  V30 5913 H 533.616 2.99264 -0.0901977 0
M  V30 5914 H 531.162 1.4393 -0.044821 0
M  V30 5915 H 533.115 3.54123 2.28418 0
M  V30 5916 H 531.839 2.29906 2.31971 0
M  V30 5917 H 530.498 3.61009 0.637809 0
M  V30 5918 H 530.146 3.97098 3.08743 0
M  V30 5919 H 529.846 5.46363 2.16243 0
M  V30 5920 H 531.37 5.27487 3.07555 0
M  V30 5921 H 532.784 5.67128 0.838978 0
M  V30 5922 H 531.181 5.99982 0.119228 0
M  V30 5923 H 532.251 4.80673 -0.638839 0
M  V30 5924 N 533.594 0.0601682 1.57485 0
M  V30 5925 C 534.542 -0.928899 2.13247 0
M  V30 5926 C 535.536 -1.31616 1.06647 0
M  V30 5927 O 536.742 -1.29476 1.25043 0
M  V30 5928 H 533.117 -0.317455 0.681708 0
M  V30 5929 H 535.088 -0.433566 2.95233 0
M  V30 5930 C 533.837 -2.19121 2.69965 0
M  V30 5931 H 533.16 -1.90204 3.51657 0
M  V30 5932 H 534.6 -2.86465 3.12592 0
M  V30 5933 C 533.059 -2.94195 1.64168 0
M  V30 5934 O 533.589 -3.87468 1.05978 0
M  V30 5935 N 531.795 -2.57089 1.35476 0
M  V30 5936 H 531.342 -1.81314 1.82984 0
M  V30 5937 H 531.3 -3.07624 0.649196 0
M  V30 5938 N 535.072 -1.5615 -0.213296 0
M  V30 5939 C 536.035 -1.92249 -1.24792 0
M  V30 5940 C 537.035 -0.801828 -1.39382 0
M  V30 5941 O 538.225 -1.06948 -1.37506 0
M  V30 5942 C 535.357 -2.18056 -2.62039 0
M  V30 5943 H 536.55 -2.84793 -0.939845 0
M  V30 5944 H 534.103 -1.49559 -0.454062 0
M  V30 5945 H 534.838 -1.2809 -2.97932 0
M  V30 5946 H 534.623 -2.99703 -2.52825 0
M  V30 5947 H 536.113 -2.47051 -3.36683 0
M  V30 5948 N 536.55 0.480323 -1.50102 0
M  V30 5949 C 537.497 1.57946 -1.6829 0
M  V30 5950 C 538.467 1.57611 -0.524223 0
M  V30 5951 O 539.652 1.75282 -0.753709 0
M  V30 5952 C 536.792 2.95978 -1.77457 0
M  V30 5953 C 535.905 3.06173 -3.04766 0
M  V30 5954 C 535.04 4.35063 -3.04784 0
M  V30 5955 C 534.079 4.38966 -4.26586 0
M  V30 5956 N 533.216 5.59314 -4.24396 0
M  V30 5957 H 538.056 1.41743 -2.62131 0
M  V30 5958 H 535.593 0.689304 -1.2995 0
M  V30 5959 H 537.551 3.76011 -1.80752 0
M  V30 5960 H 536.181 3.10837 -0.870637 0
M  V30 5961 H 535.233 2.19071 -3.10986 0
M  V30 5962 H 536.545 3.04916 -3.9475 0
M  V30 5963 H 535.699 5.23436 -3.06757 0
M  V30 5964 H 534.438 4.38915 -2.12614 0
M  V30 5965 H 533.443 3.48992 -4.24835 0
M  V30 5966 H 534.668 4.36813 -5.19972 0
M  V30 5967 H 532.614 5.63969 -3.35074 0
M  V30 5968 H 532.531 5.5976 -5.08138 0
M  V30 5969 H 533.799 6.49837 -4.30502 0
M  V30 5970 N 538.028 1.39524 0.732853 0
M  V30 5971 C 538.991 1.38189 1.82857 0
M  V30 5972 C 539.991 0.278624 1.58368 0
M  V30 5973 O 541.181 0.536639 1.65728 0
M  V30 5974 C 538.313 1.15661 3.2068 0
M  V30 5975 H 539.506 2.35692 1.85444 0
M  V30 5976 H 537.059 1.2512 0.936728 0
M  V30 5977 H 537.794 0.188482 3.23752 0
M  V30 5978 H 537.579 1.95559 3.39852 0
M  V30 5979 H 539.069 1.17472 4.00737 0
M  V30 5980 N 539.506 -0.963266 1.24736 0
M  V30 5981 C 540.438 -2.06162 1.0015 0
M  V30 5982 C 541.451 -1.62771 -0.0305905 0
M  V30 5983 O 542.64 -1.77296 0.206966 0
M  V30 5984 C 539.74 -3.35333 0.490385 0
M  V30 5985 C 538.913 -4.07609 1.58663 0
M  V30 5986 C 537.972 -5.15052 1.0774 0
M  V30 5987 O 536.998 -5.4098 1.77002 0
M  V30 5988 N 538.2 -5.80436 -0.0858605 0
M  V30 5989 H 540.965 -2.27825 1.94719 0
M  V30 5990 H 538.526 -1.13121 1.15825 0
M  V30 5991 H 540.518 -4.04477 0.134371 0
M  V30 5992 H 539.088 -3.10507 -0.361155 0
M  V30 5993 H 538.308 -3.32681 2.11463 0
M  V30 5994 H 539.596 -4.52656 2.32336 0
M  V30 5995 H 538.994 -5.6178 -0.664806 0
M  V30 5996 H 537.551 -6.50674 -0.382981 0
M  V30 5997 N 540.985 -1.06182 -1.16461 0
M  V30 5998 C 542.401 -0.785065 -1.38956 0
M  V30 5999 C 542.601 0.616103 -1.9185 0
M  V30 6000 O 541.657 1.37686 -2.11657 0
M  V30 6001 C 542.97 -1.84902 -2.37132 0
M  V30 6002 C 544.518 -1.8724 -2.50819 0
M  V30 6003 C 544.993 -2.92686 -3.52277 0
M  V30 6004 N 546.484 -2.91712 -3.59803 0
M  V30 6005 C 547.219 -3.69949 -4.38093 0
M  V30 6006 N 546.715 -4.58 -5.19815 0
M  V30 6007 N 548.508 -3.58346 -4.33064 0
M  V30 6008 H 540.659 -1.96569 -0.804634 0
M  V30 6009 H 542.922 -0.851747 -0.416211 0
M  V30 6010 H 542.628 -2.85518 -2.0536 0
M  V30 6011 H 542.502 -1.69908 -3.36766 0
M  V30 6012 H 544.889 -0.872827 -2.81897 0
M  V30 6013 H 544.97 -2.06311 -1.51226 0
M  V30 6014 H 544.614 -3.92835 -3.21937 0
M  V30 6015 H 544.544 -2.70864 -4.51598 0
M  V30 6016 H 547.035 -2.27876 -3.01464 0
M  V30 6017 H 547.348 -5.14357 -5.76764 0
M  V30 6018 H 545.693 -4.62056 -5.19162 0
M  V30 6019 H 548.884 -2.88943 -3.68279 0
M  V30 6020 H 549.057 -4.19563 -4.93833 0
M  V30 6021 N 542.463 1.3308 -0.844243 0
M  V30 6022 C 543.393 2.3161 -0.296493 0
M  V30 6023 C 544.374 1.59215 0.598707 0
M  V30 6024 O 545.559 1.87077 0.521134 0
M  V30 6025 C 542.689 3.43313 0.524762 0
M  V30 6026 C 541.643 4.27115 -0.275106 0
M  V30 6027 C 540.969 5.30483 0.670236 0
M  V30 6028 C 542.269 5.00443 -1.49514 0
M  V30 6029 H 543.963 2.77672 -1.11976 0
M  V30 6030 H 541.509 1.33496 -0.539899 0
M  V30 6031 H 543.462 4.11273 0.918298 0
M  V30 6032 H 542.186 2.95952 1.3813 0
M  V30 6033 H 540.845 3.60787 -0.650267 0
M  V30 6034 H 540.493 4.79379 1.52332 0
M  V30 6035 H 540.193 5.87435 0.139123 0
M  V30 6036 H 541.717 6.01308 1.06117 0
M  V30 6037 H 543.131 5.61141 -1.17447 0
M  V30 6038 H 541.528 5.67071 -1.96343 0
M  V30 6039 H 542.598 4.28906 -2.26202 0
M  V30 6040 N 543.941 0.601185 1.45683 0
M  V30 6041 C 545.166 0.0982245 2.07167 0
M  V30 6042 C 545.591 -1.20546 1.44396 0
M  V30 6043 O 544.949 -1.73247 0.534347 0
M  V30 6044 C 544.997 -0.0346976 3.60583 0
M  V30 6045 O 544.101 -1.08657 3.97828 0
M  V30 6046 H 543.442 0.0711618 0.660176 0
M  V30 6047 H 545.972 0.829376 1.87036 0
M  V30 6048 H 545.982 -0.234969 4.07323 0
M  V30 6049 H 544.657 0.917265 4.05659 0
M  V30 6050 H 543.234 -0.863275 3.6277 0
M  V30 6051 N 545.419 -1.53889 0.339982 0
M  V30 6052 C 546.351 -2.22435 -0.55275 0
M  V30 6053 C 547.364 -1.22975 -1.06681 0
M  V30 6054 O 548.553 -1.49351 -0.977575 0
M  V30 6055 C 545.653 -2.8882 -1.77302 0
M  V30 6056 C 544.826 -4.14563 -1.39486 0
M  V30 6057 C 543.885 -4.64391 -2.47442 0
M  V30 6058 O 542.911 -5.28687 -2.10899 0
M  V30 6059 N 544.113 -4.40015 -3.78639 0
M  V30 6060 H 546.878 -2.9968 0.0342669 0
M  V30 6061 H 544.439 -1.61068 0.16394 0
M  V30 6062 H 546.431 -3.19072 -2.48948 0
M  V30 6063 H 545.001 -2.15182 -2.26749 0
M  V30 6064 H 544.221 -3.90896 -0.509321 0
M  V30 6065 H 545.509 -4.96362 -1.11813 0
M  V30 6066 H 544.907 -3.88586 -4.11118 0
M  V30 6067 H 543.464 -4.74881 -4.46465 0
M  V30 6068 N 546.897 -0.0685191 -1.57451 0
M  V30 6069 C 547.807 0.914677 -2.16034 0
M  V30 6070 C 548.823 1.32938 -1.12265 0
M  V30 6071 O 549.999 1.40275 -1.44516 0
M  V30 6072 C 547.064 2.16519 -2.70777 0
M  V30 6073 C 546.125 1.80721 -3.89408 0
M  V30 6074 C 545.358 2.9981 -4.41531 0
M  V30 6075 O 545.581 4.13727 -3.92666 0
M  V30 6076 O 544.515 2.79817 -5.32903 0
M  V30 6077 H 548.341 0.446364 -3.00402 0
M  V30 6078 H 545.926 0.154367 -1.486 0
M  V30 6079 H 547.808 2.89856 -3.05878 0
M  V30 6080 H 546.483 2.62454 -1.89471 0
M  V30 6081 H 545.39 1.04646 -3.59166 0
M  V30 6082 H 546.723 1.39571 -4.71997 0
M  V30 6083 N 548.375 1.56261 0.205012 0
M  V30 6084 C 549.603 1.84141 0.943386 0
M  V30 6085 C 550.018 0.649772 1.77266 0
M  V30 6086 O 549.375 -0.381612 1.78466 0
M  V30 6087 C 549.426 3.10719 1.84759 0
M  V30 6088 O 549.147 4.25286 1.05181 0
M  V30 6089 C 550.648 3.51706 2.69848 0
M  V30 6090 H 547.868 0.611734 0.275721 0
M  V30 6091 H 550.412 2.03364 0.215253 0
M  V30 6092 H 548.567 2.93422 2.52947 0
M  V30 6093 H 548.981 4.97301 1.66709 0
M  V30 6094 H 550.455 4.43266 3.28967 0
M  V30 6095 H 550.932 2.7423 3.43067 0
M  V30 6096 H 551.538 3.71499 2.07047 0
M  V30 6097 N 549.853 -0.472356 1.50355 0
M  V30 6098 C 550.763 -1.59637 1.7191 0
M  V30 6099 C 551.779 -1.63247 0.602195 0
M  V30 6100 O 552.955 -1.81139 0.880369 0
M  V30 6101 C 550.02 -2.9586 1.80742 0
M  V30 6102 C 549.081 -3.02649 3.04471 0
M  V30 6103 C 548.314 -4.32374 3.12872 0
M  V30 6104 O 548.537 -5.22807 2.28099 0
M  V30 6105 O 547.471 -4.44728 4.05587 0
M  V30 6106 H 551.297 -1.44373 2.67189 0
M  V30 6107 H 548.882 -0.651717 1.34436 0
M  V30 6108 H 550.764 -3.7677 1.88739 0
M  V30 6109 H 549.439 -3.11325 0.88647 0
M  V30 6110 H 548.346 -2.20821 3.01975 0
M  V30 6111 H 549.679 -2.92119 3.9614 0
M  V30 6112 N 551.331 -1.39911 -0.725443 0
M  V30 6113 C 552.294 -1.39156 -1.82121 0
M  V30 6114 C 553.294 -0.287018 -1.58218 0
M  V30 6115 O 554.484 -0.545421 -1.65441 0
M  V30 6116 C 551.616 -1.1736 -3.20062 0
M  V30 6117 H 552.809 -2.36672 -1.84191 0
M  V30 6118 H 550.362 -1.25615 -0.930079 0
M  V30 6119 H 551.097 -0.205648 -3.23647 0
M  V30 6120 H 550.882 -1.97358 -3.3881 0
M  V30 6121 H 552.372 -1.19596 -4.00108 0
M  V30 6122 N 552.809 0.956637 -1.25245 0
M  V30 6123 C 553.739 2.07058 -1.07931 0
M  V30 6124 C 554.72 1.70096 0.0110361 0
M  V30 6125 O 555.905 1.93555 -0.158121 0
M  V30 6126 C 553.035 3.40272 -0.695124 0
M  V30 6127 C 551.989 3.91235 -1.73549 0
M  V30 6128 C 551.315 5.20921 -1.20604 0
M  V30 6129 C 552.615 4.17837 -3.13385 0
M  V30 6130 H 554.309 2.218 -2.01109 0
M  V30 6131 H 551.855 1.06581 -0.968326 0
M  V30 6132 H 553.808 4.1765 -0.560949 0
M  V30 6133 H 552.532 3.25462 0.272355 0
M  V30 6134 H 551.191 3.16025 -1.85807 0
M  V30 6135 H 550.839 5.02479 -0.228846 0
M  V30 6136 H 550.539 5.55987 -1.90136 0
M  V30 6137 H 552.063 6.00897 -1.08421 0
M  V30 6138 H 553.477 4.8588 -3.04292 0
M  V30 6139 H 551.874 4.64154 -3.80369 0
M  V30 6140 H 552.944 3.2419 -3.60595 0
M  V30 6141 N 554.287 1.06798 1.15896 0
M  V30 6142 C 555.535 0.786211 1.8618 0
M  V30 6143 C 555.856 -0.689547 1.82401 0
M  V30 6144 O 555.126 -1.49913 1.26107 0
M  V30 6145 H 553.706 0.287843 0.689315 0
M  V30 6146 H 556.368 1.35055 1.40521 0
M  V30 6147 H 555.464 1.1157 2.91477 0
M  V30 6148 N 555.766 -1.3263 0.851289 0
M  V30 6149 C 557.182 -1.50162 0.5407 0
M  V30 6150 C 557.382 -1.78788 -0.929369 0
M  V30 6151 O 556.438 -1.85545 -1.71258 0
M  V30 6152 C 557.751 -2.64803 1.42478 0
M  V30 6153 C 559.299 -2.78688 1.42485 0
M  V30 6154 C 559.774 -3.96405 2.29407 0
M  V30 6155 N 561.265 -4.0366 2.27184 0
M  V30 6156 C 562 -4.93971 2.9117 0
M  V30 6157 N 561.496 -5.89313 3.64256 0
M  V30 6158 N 563.289 -4.87066 2.80576 0
M  V30 6159 H 555.44 -1.12315 1.80275 0
M  V30 6160 H 557.703 -0.553266 0.769806 0
M  V30 6161 H 557.409 -2.50368 2.46999 0
M  V30 6162 H 557.283 -3.60506 1.10974 0
M  V30 6163 H 559.67 -2.92547 0.387304 0
M  V30 6164 H 559.751 -1.83708 1.78002 0
M  V30 6165 H 559.395 -3.83304 3.33228 0
M  V30 6166 H 559.325 -4.90654 1.91224 0
M  V30 6167 H 561.816 -3.35435 1.74045 0
M  V30 6168 H 562.129 -6.54913 4.10255 0
M  V30 6169 H 560.474 -5.8935 3.68364 0
M  V30 6170 H 563.665 -4.11552 2.23031 0
M  V30 6171 H 563.838 -5.57248 3.30725 0
M  V30 6172 N 557.244 -0.608902 -1.45362 0
M  V30 6173 C 558.469 -0.10921 -2.07112 0
M  V30 6174 C 558.894 1.19779 -1.45033 0
M  V30 6175 O 558.252 1.72961 -0.543527 0
M  V30 6176 C 558.3 0.0155745 -3.60597 0
M  V30 6177 O 557.404 1.06546 -3.98399 0
M  V30 6178 H 556.745 -0.0746619 -0.659789 0
M  V30 6179 H 559.275 -0.839283 -1.86594 0
M  V30 6180 H 559.285 0.213364 -4.07442 0
M  V30 6181 H 557.96 -0.938765 -4.05167 0
M  V30 6182 H 556.537 0.844024 -3.63223 0
M  V30 6183 N 558.722 1.53707 -0.348139 0
M  V30 6184 C 559.654 2.22725 0.540946 0
M  V30 6185 C 560.667 1.2354 1.06027 0
M  V30 6186 O 561.856 1.49867 0.96964 0
M  V30 6187 C 558.956 2.89756 1.75768 0
M  V30 6188 C 558.129 4.15297 1.37285 0
M  V30 6189 C 557.188 4.65697 2.44976 0
M  V30 6190 O 556.214 5.29798 2.08092 0
M  V30 6191 N 557.416 4.42017 3.763 0
M  V30 6192 H 560.181 2.99658 -0.0501592 0
M  V30 6193 H 557.742 1.60979 -0.17248 0
M  V30 6194 H 559.734 3.20388 2.47252 0
M  V30 6195 H 558.304 2.16382 2.25605 0
M  V30 6196 H 557.524 3.9116 0.488584 0
M  V30 6197 H 558.812 4.96948 1.09179 0
M  V30 6198 H 558.21 3.9076 4.09051 0
M  V30 6199 H 556.767 4.77242 4.4394 0
M  V30 6200 N 560.2 0.0768682 1.57412 0
M  V30 6201 C 561.448 -0.589918 1.93299 0
M  V30 6202 C 561.769 -1.69842 0.958049 0
M  V30 6203 O 561.039 -1.95899 0.00703261 0
M  V30 6204 H 559.619 -0.220901 0.713591 0
M  V30 6205 H 562.281 0.135917 1.94425 0
M  V30 6206 H 561.377 -1.01195 2.95239 0
M  V30 6207 N 561.678 -1.56367 -0.196722 0
M  V30 6208 C 563.094 -1.49916 -0.54749 0
M  V30 6209 C 563.294 -0.77659 -1.85934 0
M  V30 6210 O 562.35 -0.32644 -2.50381 0
M  V30 6211 C 563.663 -2.94577 -0.603734 0
M  V30 6212 C 565.211 -3.05239 -0.692677 0
M  V30 6213 C 565.686 -4.51308 -0.780046 0
M  V30 6214 N 567.177 -4.55453 -0.843616 0
M  V30 6215 C 567.912 -5.65786 -0.931358 0
M  V30 6216 N 567.408 -6.85812 -0.981503 0
M  V30 6217 N 569.201 -5.53695 -0.968421 0
M  V30 6218 H 561.352 -2.01761 0.663803 0
M  V30 6219 H 563.615 -0.918094 0.236238 0
M  V30 6220 H 563.321 -3.50494 0.29105 0
M  V30 6221 H 563.195 -3.47841 -1.45898 0
M  V30 6222 H 565.582 -2.49372 -1.57789 0
M  V30 6223 H 565.663 -2.55103 0.188736 0
M  V30 6224 H 565.307 -5.078 0.100811 0
M  V30 6225 H 565.237 -4.99176 -1.67724 0
M  V30 6226 H 567.728 -3.69025 -0.814176 0
M  V30 6227 H 568.041 -7.65648 -1.04892 0
M  V30 6228 H 566.386 -6.88474 -0.950208 0
M  V30 6229 H 569.577 -4.58848 -0.926072 0
M  V30 6230 H 569.75 -6.39708 -1.03334 0
M  V30 6231 N 563.156 0.464375 -1.50603 0
M  V30 6232 C 564.086 1.56944 -1.72889 0
M  V30 6233 C 565.067 1.59979 -0.577997 0
M  V30 6234 O 566.252 1.76138 -0.817855 0
M  V30 6235 C 563.382 2.95225 -1.8292 0
M  V30 6236 C 562.336 3.07056 -2.98162 0
M  V30 6237 C 561.662 4.47051 -2.93343 0
M  V30 6238 C 562.962 2.83648 -4.38567 0
M  V30 6239 H 564.656 1.38547 -2.65415 0
M  V30 6240 H 562.202 0.665082 -1.27721 0
M  V30 6241 H 564.155 3.72467 -1.97095 0
M  V30 6242 H 562.879 3.14793 -0.870209 0
M  V30 6243 H 561.538 2.32248 -2.83648 0
M  V30 6244 H 561.186 4.63547 -1.95276 0
M  V30 6245 H 560.886 4.55902 -3.70712 0
M  V30 6246 H 562.41 5.26304 -3.09575 0
M  V30 6247 H 563.824 3.50636 -4.53572 0
M  V30 6248 H 562.221 3.03937 -5.17438 0
M  V30 6249 H 563.291 1.79451 -4.50472 0
M  V30 6250 N 564.634 1.40294 0.718013 0
M  V30 6251 C 565.544 1.42678 1.86226 0
M  V30 6252 C 566.56 0.319655 1.71039 0
M  V30 6253 O 567.736 0.563852 1.93346 0
M  V30 6254 C 564.801 1.2852 3.21999 0
M  V30 6255 C 563.862 2.49354 3.49458 0
M  V30 6256 C 563.095 2.35863 4.78753 0
M  V30 6257 O 563.318 1.37114 5.53675 0
M  V30 6258 O 562.252 3.25189 5.06494 0
M  V30 6259 H 566.078 2.39167 1.87171 0
M  V30 6260 H 563.663 1.2159 0.868112 0
M  V30 6261 H 565.545 1.22824 4.03103 0
M  V30 6262 H 564.22 0.351359 3.21787 0
M  V30 6263 H 563.127 2.60628 2.68373 0
M  V30 6264 H 564.46 3.41491 3.54464 0
M  V30 6265 N 566.112 -0.949982 1.2575 0
M  V30 6266 C 567.075 -2.02894 1.06615 0
M  V30 6267 C 568.075 -1.60791 0.0173905 0
M  V30 6268 O 569.265 -1.72249 0.260003 0
M  V30 6269 C 566.397 -3.35219 0.619751 0
M  V30 6270 H 567.59 -2.21302 2.02399 0
M  V30 6271 H 565.143 -1.12772 1.08223 0
M  V30 6272 H 565.878 -3.22508 -0.340486 0
M  V30 6273 H 565.663 -3.67129 1.37692 0
M  V30 6274 H 567.153 -4.14505 0.507443 0
M  V30 6275 N 567.59 -1.07411 -1.15328 0
M  V30 6276 C 568.522 -0.652924 -2.19703 0
M  V30 6277 C 569.535 0.294869 -1.60107 0
M  V30 6278 O 570.724 0.0840932 -1.78302 0
M  V30 6279 C 567.824 0.061434 -3.38844 0
M  V30 6280 C 566.997 -0.902696 -4.27984 0
M  V30 6281 C 566.056 -0.225521 -5.25717 0
M  V30 6282 O 565.082 -0.86676 -5.62562 0
M  V30 6283 N 566.284 1.02858 -5.71315 0
M  V30 6284 H 569.049 -1.55081 -2.56457 0
M  V30 6285 H 566.61 -0.958883 -1.30449 0
M  V30 6286 H 568.602 0.525145 -4.01278 0
M  V30 6287 H 567.172 0.861269 -3.00501 0
M  V30 6288 H 566.392 -1.54551 -3.6264 0
M  V30 6289 H 567.68 -1.55636 -4.84412 0
M  V30 6290 H 567.078 1.56948 -5.43492 0
M  V30 6291 H 565.635 1.43596 -6.35786 0
M  V30 6292 N 569.068 1.32177 -0.85831 0
M  V30 6293 C 570.015 2.28794 -0.303607 0
M  V30 6294 C 570.985 1.55213 0.591453 0
M  V30 6295 O 572.17 1.83418 0.525585 0
M  V30 6296 C 569.31 3.41475 0.49889 0
M  V30 6297 C 568.423 4.2993 -0.422373 0
M  V30 6298 C 567.558 5.29743 0.393111 0
M  V30 6299 C 566.597 6.09842 -0.525317 0
M  V30 6300 N 565.734 7.01643 0.253208 0
M  V30 6301 H 570.574 2.75631 -1.13276 0
M  V30 6302 H 568.111 1.35606 -0.570026 0
M  V30 6303 H 570.069 4.05531 0.979826 0
M  V30 6304 H 568.699 2.95779 1.29284 0
M  V30 6305 H 567.751 3.66422 -1.02171 0
M  V30 6306 H 569.063 4.85899 -1.12709 0
M  V30 6307 H 568.217 5.9942 0.937056 0
M  V30 6308 H 566.956 4.744 1.13117 0
M  V30 6309 H 565.961 5.39066 -1.08112 0
M  V30 6310 H 567.186 6.6727 -1.26205 0
M  V30 6311 H 565.132 6.48725 0.974295 0
M  V30 6312 H 565.049 7.54981 -0.392398 0
M  V30 6313 H 566.317 7.756 0.778761 0
M  V30 6314 N 570.547 0.616602 1.45037 0
M  V30 6315 C 571.963 0.280994 1.57107 0
M  V30 6316 C 572.163 -1.21627 1.60653 0
M  V30 6317 O 571.219 -1.9997 1.54169 0
M  V30 6318 C 572.532 0.960116 2.8496 0
M  V30 6319 C 574.08 0.936884 2.98649 0
M  V30 6320 C 574.555 1.59619 4.29285 0
M  V30 6321 N 576.046 1.5621 4.36065 0
M  V30 6322 C 576.781 2.04131 5.35834 0
M  V30 6323 N 576.277 2.60177 6.4209 0
M  V30 6324 N 578.07 1.94845 5.27249 0
M  V30 6325 H 570.221 1.58867 1.40979 0
M  V30 6326 H 572.484 0.666024 0.674623 0
M  V30 6327 H 572.19 2.01473 2.88273 0
M  V30 6328 H 572.064 0.488921 3.74018 0
M  V30 6329 H 574.451 -0.109209 2.94898 0
M  V30 6330 H 574.532 1.44643 2.10979 0
M  V30 6331 H 574.176 2.64166 4.33796 0
M  V30 6332 H 574.106 1.06159 5.15789 0
M  V30 6333 H 576.597 1.15276 3.59889 0
M  V30 6334 H 576.91 2.94513 7.1448 0
M  V30 6335 H 575.255 2.64221 6.42816 0
M  V30 6336 H 578.446 1.50792 4.43147 0
M  V30 6337 H 578.619 2.32504 6.04852 0
M  V30 6338 N 572.025 -1.5352 0.356285 0
M  V30 6339 C 572.935 -2.29151 -0.502712 0
M  V30 6340 C 573.951 -1.34753 -1.1008 0
M  V30 6341 O 575.127 -1.67803 -1.11374 0
M  V30 6342 C 572.192 -3.05911 -1.63154 0
M  V30 6343 C 571.253 -4.15958 -1.06194 0
M  V30 6344 C 570.486 -4.8905 -2.13696 0
M  V30 6345 O 570.709 -4.61919 -3.34645 0
M  V30 6346 O 569.643 -5.75202 -1.77275 0
M  V30 6347 H 573.469 -3.03492 0.112466 0
M  V30 6348 H 571.054 -1.4891 0.120942 0
M  V30 6349 H 572.936 -3.53874 -2.28804 0
M  V30 6350 H 571.611 -2.34415 -2.23229 0
M  V30 6351 H 570.518 -3.7227 -0.369603 0
M  V30 6352 H 571.851 -4.89593 -0.505872 0
M  V30 6353 N 573.503 -0.0852151 -1.57369 0
M  V30 6354 C 574.433 0.874556 -2.16503 0
M  V30 6355 C 575.414 1.30111 -1.09568 0
M  V30 6356 O 576.599 1.36977 -1.37662 0
M  V30 6357 C 573.729 2.13731 -2.73745 0
M  V30 6358 C 572.683 1.84971 -3.85966 0
M  V30 6359 C 572.009 3.17991 -4.29867 0
M  V30 6360 C 573.309 1.14442 -5.09608 0
M  V30 6361 H 575.003 0.381899 -2.96954 0
M  V30 6362 H 572.549 0.18225 -1.42842 0
M  V30 6363 H 574.502 2.81302 -3.13763 0
M  V30 6364 H 573.226 2.65263 -1.90534 0
M  V30 6365 H 571.885 1.19801 -3.46473 0
M  V30 6366 H 571.533 3.6739 -3.4356 0
M  V30 6367 H 571.233 2.99534 -5.05523 0
M  V30 6368 H 572.757 3.86737 -4.72511 0
M  V30 6369 H 574.171 1.72105 -5.46857 0
M  V30 6370 H 572.568 1.06197 -5.90629 0
M  V30 6371 H 573.638 0.12559 -4.84737 0
M  V30 6372 N 574.981 1.5647 0.188427 0
M  V30 6373 C 575.913 1.91611 1.25769 0
M  V30 6374 C 576.926 0.807436 1.41366 0
M  V30 6375 O 578.115 1.08586 1.41673 0
M  V30 6376 C 575.215 2.13874 2.6289 0
M  V30 6377 C 574.388 3.45047 2.68815 0
M  V30 6378 C 573.447 3.56342 3.87178 0
M  V30 6379 O 572.473 4.29109 3.73971 0
M  V30 6380 N 573.675 2.89924 5.02916 0
M  V30 6381 H 576.44 2.8393 0.959373 0
M  V30 6382 H 574.001 1.57418 0.378306 0
M  V30 6383 H 575.993 2.18713 3.4051 0
M  V30 6384 H 574.563 1.28022 2.85183 0
M  V30 6385 H 573.783 3.52017 1.77419 0
M  V30 6386 H 575.071 4.31395 2.6977 0
M  V30 6387 H 574.469 2.30644 5.16546 0
M  V30 6388 H 573.026 3.0038 5.78459 0
M  V30 6389 N 576.459 -0.456382 1.50847 0
M  V30 6390 C 577.391 -1.57033 1.66953 0
M  V30 6391 C 578.404 -1.53207 0.550593 0
M  V30 6392 O 579.593 -1.58328 0.824285 0
M  V30 6393 C 576.693 -2.95937 1.65149 0
M  V30 6394 C 575.866 -3.24475 2.93317 0
M  V30 6395 C 574.925 -4.43007 2.83957 0
M  V30 6396 O 573.951 -4.42592 3.57912 0
M  V30 6397 N 575.153 -5.45503 1.9851 0
M  V30 6398 H 577.918 -1.43629 2.63042 0
M  V30 6399 H 575.479 -0.645037 1.48495 0
M  V30 6400 H 577.471 -3.73224 1.56481 0
M  V30 6401 H 576.041 -3.03036 0.767343 0
M  V30 6402 H 575.261 -2.35664 3.16 0
M  V30 6403 H 576.549 -3.4036 3.78196 0
M  V30 6404 H 575.947 -5.48668 1.37766 0
M  V30 6405 H 574.504 -6.21716 1.95735 0
M  V30 6406 N 577.937 -1.40673 -0.710563 0
M  V30 6407 C 578.9 -1.4108 -1.80635 0
M  V30 6408 C 579.9 -0.303783 -1.57904 0
M  V30 6409 O 581.09 -0.562937 -1.64853 0
M  V30 6410 C 578.222 -1.20748 -3.18799 0
M  V30 6411 H 579.415 -2.38612 -1.81671 0
M  V30 6412 H 576.968 -1.26595 -0.916704 0
M  V30 6413 H 577.703 -0.239964 -3.23411 0
M  V30 6414 H 577.488 -2.00941 -3.36698 0
M  V30 6415 H 578.978 -1.23833 -3.98817 0
M  V30 6416 N 579.415 0.9433 -1.26252 0
M  V30 6417 C 580.661 1.69175 -1.11837 0
M  V30 6418 C 580.994 1.91238 0.337891 0
M  V30 6419 O 580.269 1.49152 1.24836 0
M  V30 6420 C 580.552 3.06783 -1.88563 0
M  V30 6421 C 580.405 2.9206 -3.42083 0
M  V30 6422 C 581.724 4.06865 -1.67776 0
M  V30 6423 H 578.843 0.61399 -0.407658 0
M  V30 6424 H 581.485 1.09572 -1.55222 0
M  V30 6425 H 579.635 3.57663 -1.51689 0
M  V30 6426 H 581.307 2.48419 -3.88698 0
M  V30 6427 H 579.55 2.27731 -3.69217 0
M  V30 6428 H 580.221 3.89651 -3.90994 0
M  V30 6429 H 582.697 3.64939 -1.99897 0
M  V30 6430 H 581.573 5.01168 -2.23879 0
M  V30 6431 H 581.834 4.37705 -0.621816 0
M  V30 6432 N 580.893 1.08022 1.14757 0
M  V30 6433 C 581.823 0.728248 2.21853 0
M  V30 6434 C 582.804 -0.287486 1.67653 0
M  V30 6435 O 583.989 -0.158727 1.9355 0
M  V30 6436 C 581.119 0.132549 3.47047 0
M  V30 6437 C 580.073 1.07619 4.14249 0
M  V30 6438 C 579.399 0.342907 5.33599 0
M  V30 6439 C 580.699 2.41268 4.63235 0
M  V30 6440 H 582.393 1.62365 2.51551 0
M  V30 6441 H 579.939 0.782125 1.20908 0
M  V30 6442 H 581.892 -0.125665 4.21213 0
M  V30 6443 H 580.616 -0.797971 3.16702 0
M  V30 6444 H 579.275 1.31944 3.42033 0
M  V30 6445 H 578.923 -0.59129 4.99513 0
M  V30 6446 H 578.623 0.971955 5.79506 0
M  V30 6447 H 580.147 0.0926538 6.1053 0
M  V30 6448 H 581.561 2.21232 5.28894 0
M  V30 6449 H 579.958 2.9983 5.19829 0
M  V30 6450 H 581.028 3.03079 3.78512 0
M  V30 6451 N 582.371 -1.3172 0.865308 0
M  V30 6452 C 583.321 -2.26157 0.289305 0
M  V30 6453 C 584.305 -1.50428 -0.570977 0
M  V30 6454 O 585.497 -1.71978 -0.418617 0
M  V30 6455 C 582.626 -3.39457 -0.512237 0
M  V30 6456 C 581.712 -4.22561 0.361028 0
M  V30 6457 N 582.103 -4.84501 1.45231 0
M  V30 6458 C 580.401 -4.45739 0.152641 0
M  V30 6459 C 581.102 -5.46586 1.99043 0
M  V30 6460 N 580.078 -5.28119 1.28809 0
M  V30 6461 H 583.88 -2.71581 1.12344 0
M  V30 6462 H 581.394 -1.45932 0.712565 0
M  V30 6463 H 583.391 -4.06133 -0.941379 0
M  V30 6464 H 582.051 -2.95577 -1.34404 0
M  V30 6465 H 583.062 -4.84293 1.83524 0
M  V30 6466 H 579.739 -4.1251 -0.643583 0
M  V30 6467 H 581.129 -6.05817 2.90577 0
M  V30 6468 N 583.85 -0.624285 -1.44708 0
M  V30 6469 C 584.783 0.133905 -2.27807 0
M  V30 6470 C 585.76 0.857794 -1.38133 0
M  V30 6471 O 586.945 0.863277 -1.6757 0
M  V30 6472 C 584.072 1.19541 -3.16903 0
M  V30 6473 C 583.118 0.572813 -4.22636 0
M  V30 6474 S 583.951 -0.631953 -5.31758 0
M  V30 6475 C 585.106 0.429733 -6.24423 0
M  V30 6476 H 585.34 -0.571072 -2.91764 0
M  V30 6477 H 582.873 -0.412261 -1.48794 0
M  V30 6478 H 584.831 1.80293 -3.68788 0
M  V30 6479 H 583.492 1.87255 -2.5218 0
M  V30 6480 H 582.685 1.37205 -4.84965 0
M  V30 6481 H 582.287 0.0400641 -3.73979 0
M  V30 6482 H 584.579 1.30421 -6.64828 0
M  V30 6483 H 585.522 -0.157804 -7.07924 0
M  V30 6484 H 585.93 0.75256 -5.59461 0
M  V30 6485 N 585.328 1.53329 -0.364422 0
M  V30 6486 C 586.238 2.29414 0.490552 0
M  V30 6487 C 587.254 1.35335 1.09363 0
M  V30 6488 O 588.43 1.68391 1.10483 0
M  V30 6489 C 585.495 3.06772 1.61529 0
M  V30 6490 C 584.556 4.16516 1.03986 0
M  V30 6491 C 583.789 4.90176 2.111 0
M  V30 6492 O 584.012 4.63687 3.32191 0
M  V30 6493 O 582.946 5.76134 1.74222 0
M  V30 6494 H 586.772 3.03428 -0.12856 0
M  V30 6495 H 584.357 1.48843 -0.128837 0
M  V30 6496 H 586.239 3.55082 2.26924 0
M  V30 6497 H 584.914 2.35596 2.21983 0
M  V30 6498 H 583.821 3.7246 0.349856 0
M  V30 6499 H 585.154 4.89855 0.4799 0
M  V30 6500 N 586.806 0.0935595 1.57322 0
M  V30 6501 C 587.738 -0.895923 2.10964 0
M  V30 6502 C 588.751 -1.24705 1.04654 0
M  V30 6503 O 589.94 -1.20044 1.32105 0
M  V30 6504 C 587.04 -2.20546 2.57318 0
M  V30 6505 C 586.213 -2.0299 3.87445 0
M  V30 6506 C 585.272 -3.17443 4.19662 0
M  V30 6507 O 584.298 -2.91474 4.88909 0
M  V30 6508 N 585.5 -4.43168 3.74943 0
M  V30 6509 H 588.265 -0.437788 2.96485 0
M  V30 6510 H 585.826 -0.0915863 1.61641 0
M  V30 6511 H 587.818 -2.9606 2.75917 0
M  V30 6512 H 586.388 -2.57789 1.76816 0
M  V30 6513 H 585.608 -1.11815 3.78009 0
M  V30 6514 H 586.896 -1.88535 4.7258 0
M  V30 6515 H 586.294 -4.67149 3.19043 0
M  V30 6516 H 584.851 -5.15637 3.987 0
M  V30 6517 N 588.284 -1.56567 -0.180126 0
M  V30 6518 C 589.7 -1.50488 -0.531559 0
M  V30 6519 C 589.9 -0.796267 -1.851 0
M  V30 6520 O 588.956 -0.352978 -2.50021 0
M  V30 6521 C 590.269 -2.95201 -0.572456 0
M  V30 6522 C 591.817 -3.05957 -0.660264 0
M  V30 6523 C 592.292 -4.5211 -0.732135 0
M  V30 6524 N 593.783 -4.56322 -0.795262 0
M  V30 6525 C 594.518 -5.66742 -0.871296 0
M  V30 6526 N 594.014 -6.86815 -0.908708 0
M  V30 6527 N 595.807 -5.54691 -0.909639 0
M  V30 6528 H 587.958 -2.01045 0.685165 0
M  V30 6529 H 590.221 -0.915536 0.245962 0
M  V30 6530 H 589.927 -3.50165 0.328208 0
M  V30 6531 H 589.801 -3.49369 -1.422 0
M  V30 6532 H 592.188 -2.51032 -1.55136 0
M  V30 6533 H 592.269 -2.54888 0.215783 0
M  V30 6534 H 591.913 -5.07664 0.154664 0
M  V30 6535 H 591.843 -5.00926 -1.6242 0
M  V30 6536 H 594.334 -3.69868 -0.77499 0
M  V30 6537 H 594.647 -7.66718 -0.967654 0
M  V30 6538 H 592.992 -6.89443 -0.877132 0
M  V30 6539 H 596.183 -4.59804 -0.877353 0
M  V30 6540 H 596.356 -6.40768 -0.965434 0
M  V30 6541 N 589.762 0.448376 -1.51087 0
M  V30 6542 C 590.709 1.54341 -1.71603 0
M  V30 6543 C 591.679 1.56463 -0.557536 0
M  V30 6544 O 592.864 1.73644 -0.79072 0
M  V30 6545 C 590.004 2.92148 -1.83695 0
M  V30 6546 C 589.117 2.99639 -3.11192 0
M  V30 6547 C 588.252 4.285 -3.13944 0
M  V30 6548 C 587.291 4.29819 -4.35801 0
M  V30 6549 N 586.428 5.50186 -4.36164 0
M  V30 6550 H 591.268 1.36151 -2.65079 0
M  V30 6551 H 588.805 0.661585 -1.31383 0
M  V30 6552 H 590.763 3.72093 -1.88687 0
M  V30 6553 H 589.393 3.0892 -0.936374 0
M  V30 6554 H 588.445 2.12425 -3.15562 0
M  V30 6555 H 589.757 2.96474 -4.01129 0
M  V30 6556 H 588.911 5.16811 -3.17791 0
M  V30 6557 H 587.65 4.34307 -2.21876 0
M  V30 6558 H 586.655 3.39902 -4.32142 0
M  V30 6559 H 587.88 4.25685 -5.29121 0
M  V30 6560 H 585.826 5.56735 -3.46961 0
M  V30 6561 H 585.743 5.48856 -5.19897 0
M  V30 6562 H 587.011 6.40559 -4.44189 0
M  V30 6563 N 591.24 1.41047 0.703093 0
M  V30 6564 C 592.172 1.38228 1.82827 0
M  V30 6565 C 593.185 0.285637 1.60275 0
M  V30 6566 O 594.374 0.54685 1.69917 0
M  V30 6567 C 591.474 1.13136 3.19458 0
M  V30 6568 C 590.647 2.34695 3.69103 0
M  V30 6569 C 589.706 2.05574 4.84382 0
M  V30 6570 O 588.732 2.78549 4.96386 0
M  V30 6571 N 589.934 1.04135 5.71083 0
M  V30 6572 H 592.699 2.35203 1.85741 0
M  V30 6573 H 590.26 1.35562 0.885125 0
M  V30 6574 H 592.252 0.916183 3.94193 0
M  V30 6575 H 590.822 0.247836 3.11616 0
M  V30 6576 H 590.042 2.71963 2.85359 0
M  V30 6577 H 591.33 3.15705 3.99009 0
M  V30 6578 H 590.728 0.43722 5.64008 0
M  V30 6579 H 589.285 0.886078 6.45749 0
M  V30 6580 N 592.718 -0.936591 1.26751 0
M  V30 6581 C 593.65 -2.03991 1.045 0
M  V30 6582 C 594.663 -1.628 0.00394261 0
M  V30 6583 O 595.852 -1.76817 0.244526 0
M  V30 6584 C 592.952 -3.34218 0.561403 0
M  V30 6585 C 592.125 -4.04151 1.67274 0
M  V30 6586 C 591.184 -5.12651 1.1864 0
M  V30 6587 O 590.21 -5.37104 1.88437 0
M  V30 6588 N 591.412 -5.80488 0.037278 0
M  V30 6589 H 594.177 -2.23644 1.99508 0
M  V30 6590 H 591.738 -1.10638 1.18198 0
M  V30 6591 H 593.73 -4.04101 0.220136 0
M  V30 6592 H 592.3 -3.11203 -0.295211 0
M  V30 6593 H 591.52 -3.28121 2.18472 0
M  V30 6594 H 592.808 -4.47626 2.41885 0
M  V30 6595 H 592.206 -5.63064 -0.545494 0
M  V30 6596 H 590.763 -6.5134 -0.244877 0
M  V30 6597 N 594.196 -1.08629 -1.14182 0
M  V30 6598 C 595.128 -0.676189 -2.18998 0
M  V30 6599 C 596.141 0.277871 -1.60411 0
M  V30 6600 O 597.33 0.0651771 -1.78381 0
M  V30 6601 C 594.43 0.0254916 -3.3889 0
M  V30 6602 C 593.603 -0.948039 -4.27002 0
M  V30 6603 C 592.662 -0.281268 -5.25448 0
M  V30 6604 O 591.688 -0.926378 -5.61611 0
M  V30 6605 N 592.89 0.967923 -5.72374 0
M  V30 6606 H 595.655 -1.57792 -2.54798 0
M  V30 6607 H 593.216 -0.972665 -1.29425 0
M  V30 6608 H 595.208 0.482554 -4.01813 0
M  V30 6609 H 593.778 0.829348 -3.01398 0
M  V30 6610 H 592.998 -1.58388 -3.6098 0
M  V30 6611 H 594.286 -1.60765 -4.82734 0
M  V30 6612 H 593.684 1.51175 -5.45126 0
M  V30 6613 H 592.241 1.36844 -6.37273 0
M  V30 6614 N 595.674 1.31259 -0.872281 0
M  V30 6615 C 596.606 2.27396 -0.28697 0
M  V30 6616 C 597.619 1.53181 0.551297 0
M  V30 6617 O 598.808 1.74561 0.372914 0
M  V30 6618 C 595.908 3.33335 0.611617 0
M  V30 6619 C 595.081 4.36966 -0.194729 0
M  V30 6620 C 594.14 5.22387 0.632358 0
M  V30 6621 O 593.166 5.69169 0.0595691 0
M  V30 6622 N 594.368 5.46985 1.94391 0
M  V30 6623 H 597.133 2.78261 -1.11314 0
M  V30 6624 H 594.694 1.44306 -0.733994 0
M  V30 6625 H 596.686 3.87398 1.17068 0
M  V30 6626 H 595.256 2.82496 1.33846 0
M  V30 6627 H 594.476 3.82945 -0.935241 0
M  V30 6628 H 595.764 5.03273 -0.747935 0
M  V30 6629 H 595.162 5.10737 2.43237 0
M  V30 6630 H 593.719 6.03973 2.45071 0
M  V30 6631 N 597.152 0.631951 1.44375 0
M  V30 6632 C 598.084 -0.110911 2.28931 0
M  V30 6633 C 599.097 -0.808086 1.41329 0
M  V30 6634 O 600.286 -0.669396 1.65473 0
M  V30 6635 C 597.386 -1.17928 3.1772 0
M  V30 6636 C 596.559 -0.564458 4.33743 0
M  V30 6637 C 595.618 -1.5269 5.0356 0
M  V30 6638 O 594.644 -1.04372 5.59549 0
M  V30 6639 N 595.846 -2.86123 5.05088 0
M  V30 6640 H 598.611 0.614758 2.93327 0
M  V30 6641 H 596.172 0.473171 1.54831 0
M  V30 6642 H 598.164 -1.82348 3.61291 0
M  V30 6643 H 596.734 -1.80717 2.55069 0
M  V30 6644 H 595.954 0.258373 3.93352 0
M  V30 6645 H 597.242 -0.134355 5.08623 0
M  V30 6646 H 596.64 -3.27959 4.60933 0
M  V30 6647 H 595.197 -3.45901 5.52445 0
M  V30 6648 N 598.631 -1.53133 0.372548 0
M  V30 6649 C 599.563 -2.23557 -0.505444 0
M  V30 6650 C 600.576 -1.25211 -1.04049 0
M  V30 6651 O 601.765 -1.51391 -0.945675 0
M  V30 6652 C 598.865 -2.92516 -1.71136 0
M  V30 6653 C 598.038 -4.17428 -1.30661 0
M  V30 6654 C 597.097 -4.69535 -2.37536 0
M  V30 6655 O 596.123 -5.33042 -1.99637 0
M  V30 6656 N 597.325 -4.47947 -3.6922 0
M  V30 6657 H 600.09 -2.9954 0.0978259 0
M  V30 6658 H 597.651 -1.60684 0.198068 0
M  V30 6659 H 599.643 -3.24281 -2.42124 0
M  V30 6660 H 598.213 -2.19944 -2.22134 0
M  V30 6661 H 597.433 -3.91888 -0.426292 0
M  V30 6662 H 598.721 -4.98622 -1.01259 0
M  V30 6663 H 598.119 -3.97219 -4.02783 0
M  V30 6664 H 596.676 -4.84245 -4.36292 0
M  V30 6665 N 600.109 -0.101901 -1.5727 0
M  V30 6666 C 601.041 0.884723 -2.11436 0
M  V30 6667 C 602.054 1.24149 -1.05314 0
M  V30 6668 O 603.243 1.19341 -1.3274 0
M  V30 6669 C 600.343 2.19179 -2.58484 0
M  V30 6670 C 599.516 2.00933 -3.88516 0
M  V30 6671 C 598.575 3.15213 -4.2134 0
M  V30 6672 O 597.601 2.88877 -4.90448 0
M  V30 6673 N 598.803 4.41174 -3.77288 0
M  V30 6674 H 601.568 0.422058 -2.96713 0
M  V30 6675 H 599.129 0.0830128 -1.61687 0
M  V30 6676 H 601.121 2.94593 -2.77484 0
M  V30 6677 H 599.691 2.56847 -1.7818 0
M  V30 6678 H 598.911 1.09809 -3.78597 0
M  V30 6679 H 600.199 1.86026 -4.73573 0
M  V30 6680 H 599.597 4.6545 -3.21516 0
M  V30 6681 H 598.154 5.13515 -4.01429 0
M  V30 6682 N 601.587 1.56661 0.17182 0
M  V30 6683 C 602.835 1.81606 0.886774 0
M  V30 6684 C 603.156 0.678818 1.82803 0
M  V30 6685 O 602.426 -0.301354 1.93568 0
M  V30 6686 H 601.006 0.669934 0.330451 0
M  V30 6687 H 603.668 1.94142 0.171757 0
M  V30 6688 H 602.764 2.75634 1.46398 0
M  V30 6689 N 603.065 -0.440357 1.51323 0
M  V30 6690 C 604.015 -1.53263 1.68803 0
M  V30 6691 C 604.999 -1.51494 0.542057 0
M  V30 6692 O 606.191 -1.57999 0.797839 0
M  V30 6693 C 603.32 -2.91479 1.8137 0
M  V30 6694 C 602.406 -2.98015 3.01742 0
M  V30 6695 N 602.797 -2.743 4.24962 0
M  V30 6696 C 601.095 -3.29173 3.00934 0
M  V30 6697 C 601.796 -2.86601 5.06197 0
M  V30 6698 N 600.772 -3.1814 4.40781 0
M  V30 6699 H 604.574 -1.33675 2.61741 0
M  V30 6700 H 602.088 -0.647616 1.48929 0
M  V30 6701 H 604.085 -3.70055 1.92002 0
M  V30 6702 H 602.745 -3.12089 0.896117 0
M  V30 6703 H 603.756 -2.49287 4.53957 0
M  V30 6704 H 600.433 -3.55577 2.18796 0
M  V30 6705 H 601.823 -2.72246 6.14274 0
M  V30 6706 N 604.543 -1.41418 -0.695603 0
M  V30 6707 C 605.49 -1.43264 -1.80954 0
M  V30 6708 C 606.46 -0.287016 -1.63601 0
M  V30 6709 O 607.645 -0.488054 -1.84452 0
M  V30 6710 C 604.785 -1.32054 -3.18835 0
M  V30 6711 C 603.898 -2.56485 -3.4762 0
M  V30 6712 C 603.033 -2.3757 -4.75115 0
M  V30 6713 C 602.072 -3.57477 -4.96867 0
M  V30 6714 N 601.209 -3.37632 -6.15588 0
M  V30 6715 H 606.049 -2.38467 -1.78711 0
M  V30 6716 H 603.586 -1.18415 -0.872715 0
M  V30 6717 H 605.544 -1.23558 -3.98484 0
M  V30 6718 H 604.174 -0.404592 -3.20254 0
M  V30 6719 H 603.226 -2.75432 -2.62376 0
M  V30 6720 H 604.538 -3.45678 -3.59594 0
M  V30 6721 H 603.692 -2.2654 -5.62818 0
M  V30 6722 H 602.431 -1.45834 -4.65386 0
M  V30 6723 H 601.436 -3.68961 -4.07612 0
M  V30 6724 H 602.661 -4.50167 -5.08455 0
M  V30 6725 H 600.607 -2.48596 -6.07072 0
M  V30 6726 H 600.524 -4.20401 -6.2833 0
M  V30 6727 H 601.792 -3.30375 -7.06026 0
M  V30 6728 N 606.021 0.929856 -1.27246 0
M  V30 6729 C 606.984 2.01172 -1.09829 0
M  V30 6730 C 607.984 1.60743 -0.0429687 0
M  V30 6731 O 609.174 1.71813 -0.287373 0
M  V30 6732 C 606.306 3.34191 -0.673003 0
M  V30 6733 H 607.499 2.18054 -2.05895 0
M  V30 6734 H 605.052 1.11036 -1.10003 0
M  V30 6735 H 605.787 3.23009 0.289134 0
M  V30 6736 H 605.572 3.64892 -1.43515 0
M  V30 6737 H 607.062 4.13646 -0.573323 0
M  V30 6738 N 607.499 1.09233 1.13605 0
M  V30 6739 C 608.91 0.846839 1.6639 0
M  V30 6740 C 609.261 -0.625031 1.85978 0
M  V30 6741 O 608.386 -1.48173 1.57714 0
M  V30 6742 C 608.981 1.5307 3.0225 0
M  V30 6743 C 607.54 1.33223 3.52035 0
M  V30 6744 C 606.687 1.58806 2.27323 0
M  V30 6745 H 609.638 1.25175 0.975541 0
M  V30 6746 H 609.659 0.96267 3.68121 0
M  V30 6747 H 609.171 2.60192 2.87961 0
M  V30 6748 H 607.272 0.282091 3.71531 0
M  V30 6749 H 607.385 2.0657 4.32279 0
M  V30 6750 H 605.749 1.01007 2.33815 0
M  V30 6751 H 606.532 2.67153 2.15602 0
M  V30 6752 N 608.977 -1.30795 0.87923 0
M  V30 6753 C 609.94 -2.26563 0.346676 0
M  V30 6754 C 610.94 -1.52578 -0.507597 0
M  V30 6755 O 612.13 -1.71318 -0.315575 0
M  V30 6756 C 609.262 -3.37115 -0.506611 0
M  V30 6757 H 610.455 -2.75183 1.19223 0
M  V30 6758 H 608.008 -1.41886 0.655598 0
M  V30 6759 H 608.743 -2.93802 -1.37299 0
M  V30 6760 H 608.528 -3.91959 0.105218 0
M  V30 6761 H 610.018 -4.08412 -0.871192 0
M  V30 6762 N 610.455 -0.639598 -1.44038 0
M  V30 6763 C 611.418 0.0506628 -2.29144 0
M  V30 6764 C 612.418 0.764001 -1.41491 0
M  V30 6765 O 613.608 0.607309 -1.63271 0
M  V30 6766 C 610.74 1.0824 -3.2326 0
M  V30 6767 H 611.933 -0.697987 -2.91664 0
M  V30 6768 H 609.486 -0.400146 -1.51091 0
M  V30 6769 H 610.221 1.86075 -2.65606 0
M  V30 6770 H 610.006 0.574725 -3.87865 0
M  V30 6771 H 611.496 1.56487 -3.87171 0
M  V30 6772 N 611.933 1.52934 -0.380664 0
M  V30 6773 C 612.883 2.22989 0.475399 0
M  V30 6774 C 613.867 1.23058 1.03661 0
M  V30 6775 O 615.059 1.48436 0.964146 0
M  V30 6776 C 612.188 3.0338 1.60671 0
M  V30 6777 C 611.274 4.107 1.05766 0
M  V30 6778 N 611.665 5.05264 0.232837 0
M  V30 6779 C 609.963 4.25676 1.33101 0
M  V30 6780 C 610.664 5.81658 -0.0695134 0
M  V30 6781 N 609.64 5.40989 0.532144 0
M  V30 6782 H 613.442 2.93456 -0.161418 0
M  V30 6783 H 610.956 1.61291 -0.189495 0
M  V30 6784 H 612.953 3.52098 2.23232 0
M  V30 6785 H 611.613 2.34446 2.24644 0
M  V30 6786 H 612.624 5.17739 -0.129204 0
M  V30 6787 H 609.301 3.6797 1.97241 0
M  V30 6788 H 610.691 6.67843 -0.737269 0
M  V30 6789 N 613.412 0.11024 1.57214 0
M  V30 6790 C 614.823 -0.416527 1.81994 0
M  V30 6791 C 615.174 -1.67183 1.02686 0
M  V30 6792 O 614.299 -2.14823 0.260782 0
M  V30 6793 C 614.894 -0.762466 3.30109 0
M  V30 6794 C 613.453 -1.23391 3.556 0
M  V30 6795 C 612.6 -0.238166 2.76275 0
M  V30 6796 H 615.551 0.335491 1.55113 0
M  V30 6797 H 615.572 -1.62068 3.44259 0
M  V30 6798 H 615.084 0.151346 3.87805 0
M  V30 6799 H 613.185 -2.16492 3.03253 0
M  V30 6800 H 613.298 -1.18528 4.64207 0
M  V30 6801 H 611.662 -0.723421 2.4421 0
M  V30 6802 H 612.445 0.668591 3.36727 0
M  V30 6803 N 614.89 -1.56749 -0.16351 0
M  V30 6804 C 615.8 -2.00255 -1.2221 0
M  V30 6805 C 616.816 -0.915194 -1.47987 0
M  V30 6806 O 617.992 -1.22342 -1.59982 0
M  V30 6807 C 615.057 -2.36035 -2.53946 0
M  V30 6808 C 614.118 -3.58637 -2.35962 0
M  V30 6809 C 613.351 -3.92701 -3.61416 0
M  V30 6810 O 613.574 -3.27632 -4.66919 0
M  V30 6811 O 612.508 -4.86019 -3.55062 0
M  V30 6812 H 616.334 -2.90586 -0.882794 0
M  V30 6813 H 613.919 -1.44721 -0.370978 0
M  V30 6814 H 615.801 -2.59982 -3.31643 0
M  V30 6815 H 614.476 -1.48863 -2.8744 0
M  V30 6816 H 613.383 -3.39898 -1.5627 0
M  V30 6817 H 614.716 -4.46374 -2.0739 0
M  V30 6818 N 616.368 0.432326 -1.51554 0
M  V30 6819 C 617.616 1.17901 -1.64146 0
M  V30 6820 C 617.937 1.91604 -0.362367 0
M  V30 6821 O 617.207 1.85764 0.621968 0
M  V30 6822 H 615.787 0.438206 -0.604966 0
M  V30 6823 H 618.449 0.495172 -1.88505 0
M  V30 6824 H 617.545 1.90584 -2.47152 0
M  V30 6825 N 617.846 1.41785 0.688094 0
M  V30 6826 C 618.778 1.40159 1.81351 0
M  V30 6827 C 619.791 0.30262 1.59963 0
M  V30 6828 O 620.98 0.564841 1.69327 0
M  V30 6829 C 618.08 1.16517 3.1824 0
M  V30 6830 C 617.253 2.38597 3.66593 0
M  V30 6831 C 616.312 2.10699 4.82174 0
M  V30 6832 O 615.338 2.83798 4.93404 0
M  V30 6833 N 616.54 1.10187 5.69947 0
M  V30 6834 H 619.305 2.3716 1.83236 0
M  V30 6835 H 616.866 1.36494 0.870697 0
M  V30 6836 H 618.858 0.957941 3.93199 0
M  V30 6837 H 617.428 0.280873 3.11336 0
M  V30 6838 H 616.648 2.74974 2.82459 0
M  V30 6839 H 617.936 3.19919 3.95638 0
M  V30 6840 H 617.334 0.497016 5.63512 0
M  V30 6841 H 615.891 0.954518 6.44773 0
M  V30 6842 N 619.324 -0.923095 1.27737 0
M  V30 6843 C 620.254 -2.04124 1.13383 0
M  V30 6844 C 621.235 -1.70066 0.0340658 0
M  V30 6845 O 622.42 -1.93068 0.209383 0
M  V30 6846 C 619.55 -3.3831 0.785097 0
M  V30 6847 C 618.504 -3.86496 1.8386 0
M  V30 6848 C 617.83 -5.1754 1.34373 0
M  V30 6849 C 619.13 -4.09381 3.24353 0
M  V30 6850 H 620.824 -2.1639 2.06919 0
M  V30 6851 H 618.37 -1.03976 0.996243 0
M  V30 6852 H 620.323 -4.16016 0.671485 0
M  V30 6853 H 619.047 -3.2607 -0.185969 0
M  V30 6854 H 617.706 -3.10987 1.9412 0
M  V30 6855 H 617.354 -5.01696 0.361989 0
M  V30 6856 H 617.054 -5.50751 2.04811 0
M  V30 6857 H 618.578 -5.97811 1.24315 0
M  V30 6858 H 619.992 -4.77641 3.17067 0
M  V30 6859 H 618.389 -4.53906 3.92542 0
M  V30 6860 H 619.459 -3.14515 3.69064 0
M  V30 6861 N 620.802 -1.09834 -1.13024 0
M  V30 6862 C 621.749 -0.741522 -2.18564 0
M  V30 6863 C 622.719 0.279236 -1.63736 0
M  V30 6864 O 623.904 0.159923 -1.90129 0
M  V30 6865 C 621.044 -0.17277 -3.44667 0
M  V30 6866 C 620.157 -1.24808 -4.13578 0
M  V30 6867 C 619.292 -0.641631 -5.27311 0
M  V30 6868 C 618.331 -1.69795 -5.88078 0
M  V30 6869 N 617.468 -1.11223 -6.93234 0
M  V30 6870 H 622.308 -1.64576 -2.48432 0
M  V30 6871 H 619.845 -0.822174 -1.21978 0
M  V30 6872 H 621.803 0.17482 -4.16834 0
M  V30 6873 H 620.433 0.694725 -3.15235 0
M  V30 6874 H 619.485 -1.71288 -3.39653 0
M  V30 6875 H 620.797 -2.04795 -4.54819 0
M  V30 6876 H 619.951 -0.243128 -6.06213 0
M  V30 6877 H 618.69 0.189742 -4.87331 0
M  V30 6878 H 617.695 -2.10595 -5.07868 0
M  V30 6879 H 618.92 -2.53206 -6.3013 0
M  V30 6880 H 616.866 -0.302208 -6.55304 0
M  V30 6881 H 616.783 -1.84901 -7.3304 0
M  V30 6882 H 618.051 -0.740068 -7.75979 0
M  V30 6883 N 622.28 1.30327 -0.886154 0
M  V30 6884 C 623.527 1.96097 -0.505192 0
M  V30 6885 C 623.855 1.69952 0.945868 0
M  V30 6886 O 623.11 0.997653 1.68361 0
M  V30 6887 C 623.409 3.49906 -0.728042 0
M  V30 6888 C 623.075 3.96103 -2.15437 0
M  V30 6889 C 621.737 4.08428 -2.5444 0
M  V30 6890 C 624.089 4.20177 -3.08384 0
M  V30 6891 C 621.417 4.42189 -3.85598 0
M  V30 6892 C 623.769 4.55407 -4.39075 0
M  V30 6893 C 622.433 4.65941 -4.7797 0
M  V30 6894 H 621.703 0.71757 -0.184863 0
M  V30 6895 H 624.35 1.55171 -1.12223 0
M  V30 6896 H 622.655 3.9179 -0.027978 0
M  V30 6897 H 624.352 3.98869 -0.412862 0
M  V30 6898 H 620.942 3.87017 -1.84162 0
M  V30 6899 H 625.126 4.10134 -2.7947 0
M  V30 6900 H 620.382 4.48544 -4.15473 0
M  V30 6901 H 624.556 4.72986 -5.11133 0
M  V30 6902 H 622.183 4.91856 -5.79639 0
M  V30 6903 N 623.758 0.647228 1.43697 0
M  V30 6904 C 624.708 -0.0702191 2.27892 0
M  V30 6905 C 625.692 -0.800601 1.39568 0
M  V30 6906 O 626.884 -0.684055 1.63247 0
M  V30 6907 C 624.013 -1.04008 3.27165 0
M  V30 6908 C 623.099 -0.308484 4.22977 0
M  V30 6909 N 623.49 0.671721 5.0132 0
M  V30 6910 C 621.788 -0.550751 4.42586 0
M  V30 6911 C 622.489 1.10543 5.711 0
M  V30 6912 N 621.465 0.440903 5.41809 0
M  V30 6913 H 625.267 0.682031 2.85877 0
M  V30 6914 H 622.781 0.474022 1.55328 0
M  V30 6915 H 624.778 -1.56881 3.86256 0
M  V30 6916 H 623.438 -1.79246 2.70742 0
M  V30 6917 H 624.449 1.0502 5.0714 0
M  V30 6918 H 621.126 -1.28476 3.97241 0
M  V30 6919 H 622.516 1.91614 6.43998 0
M  V30 6920 N 625.236 -1.5273 0.388769 0
M  V30 6921 C 626.647 -1.86505 -0.0853788 0
M  V30 6922 C 626.998 -1.30847 -1.46197 0
M  V30 6923 O 626.123 -0.639609 -2.06732 0
M  V30 6924 C 626.718 -3.38414 -0.161703 0
M  V30 6925 C 625.277 -3.71902 -0.580144 0
M  V30 6926 C 624.424 -2.76095 0.258218 0
M  V30 6927 H 627.375 -1.46647 0.606665 0
M  V30 6928 H 627.396 -3.67638 -0.980936 0
M  V30 6929 H 626.908 -3.78893 0.840333 0
M  V30 6930 H 625.009 -3.36992 -1.58957 0
M  V30 6931 H 625.122 -4.77902 -0.338663 0
M  V30 6932 H 623.486 -2.53195 -0.276432 0
M  V30 6933 H 624.269 -3.19411 1.25822 0
M  V30 6934 N 626.714 -0.118576 -1.57153 0
M  V30 6935 C 627.991 0.583062 -1.86708 0
M  V30 6936 C 628.371 1.84841 -1.01967 0
M  V30 6937 O 627.719 2.28288 -0.0984673 0
M  V30 6938 C 627.929 0.875912 -3.3783 0
M  V30 6939 C 629.277 1.22916 -4.0642 0
M  V30 6940 O 630.301 0.966188 -3.42846 0
M  V30 6941 O 629.16 1.72269 -5.18638 0
M  V30 6942 H 626.254 0.294185 -0.772906 0
M  V30 6943 H 628.8 -0.153048 -1.69008 0
M  V30 6944 H 627.572 -0.0207776 -3.91294 0
M  V30 6945 H 627.195 1.66719 -3.60958 0
M  V30 6946 N 628.193 1.56834 0.155195 0
M  V30 6947 C 629.421 1.87049 0.884326 0
M  V30 6948 C 629.836 0.705839 1.7511 0
M  V30 6949 O 629.193 -0.324641 1.79589 0
M  V30 6950 C 629.244 3.1644 1.74781 0
M  V30 6951 O 628.965 4.28417 0.915978 0
M  V30 6952 C 630.466 3.60113 2.58522 0
M  V30 6953 H 627.686 0.620196 0.25612 0
M  V30 6954 H 630.23 2.03946 0.150445 0
M  V30 6955 H 628.385 3.01321 2.43484 0
M  V30 6956 H 628.799 5.02353 1.50803 0
M  V30 6957 H 630.273 4.53508 3.14698 0
M  V30 6958 H 630.75 2.85005 3.34169 0
M  V30 6959 H 631.356 3.77898 1.95124 0
M  V30 6960 N 629.671 -0.424282 1.51781 0
M  V30 6961 C 630.948 -1.18464 1.55646 0
M  V30 6962 C 631.328 -2.08529 0.328438 0
M  V30 6963 O 630.676 -2.17969 -0.685693 0
M  V30 6964 C 630.886 -1.97514 2.87731 0
M  V30 6965 C 632.234 -2.54106 3.40169 0
M  V30 6966 O 633.258 -2.07711 2.89369 0
M  V30 6967 O 632.117 -3.38759 4.28841 0
M  V30 6968 H 629.211 -0.540055 0.626314 0
M  V30 6969 H 631.757 -0.432291 1.64102 0
M  V30 6970 H 630.529 -1.31444 3.68562 0
M  V30 6971 H 630.152 -2.79787 2.82498 0
M  V30 6972 N 631.149 -1.42148 -0.680565 0
M  V30 6973 C 632.426 -1.32795 -1.43614 0
M  V30 6974 C 632.806 0.037415 -2.11067 0
M  V30 6975 O 632.154 1.05258 -2.02813 0
M  V30 6976 C 632.364 -2.49206 -2.44331 0
M  V30 6977 C 633.712 -2.91059 -3.09144 0
M  V30 6978 O 634.736 -2.49054 -2.54657 0
M  V30 6979 O 633.595 -3.63741 -4.07866 0
M  V30 6980 H 630.689 -0.523397 -0.640301 0
M  V30 6981 H 633.235 -1.54144 -0.709775 0
M  V30 6982 H 632.007 -3.40252 -1.93247 0
M  V30 6983 H 631.63 -2.29813 -3.24456 0
M  V30 6984 N 632.627 0.916307 -1.28225 0
M  V30 6985 C 633.873 1.66765 -1.154 0
M  V30 6986 C 634.206 1.91912 0.297251 0
M  V30 6987 O 633.481 1.51766 1.21644 0
M  V30 6988 C 633.764 3.02715 -1.95028 0
M  V30 6989 C 633.617 2.84738 -3.48201 0
M  V30 6990 C 634.936 4.03215 -1.76369 0
M  V30 6991 H 632.055 0.605205 -0.42059 0
M  V30 6992 H 634.697 1.06255 -1.57512 0
M  V30 6993 H 632.847 3.54365 -1.59242 0
M  V30 6994 H 634.519 2.40118 -3.9388 0
M  V30 6995 H 632.762 2.19848 -3.73964 0
M  V30 6996 H 633.433 3.8127 -3.99171 0
M  V30 6997 H 635.909 3.60617 -2.07593 0
M  V30 6998 H 634.785 4.96306 -2.34459 0
M  V30 6999 H 635.046 4.36288 -0.71452 0
M  V30 7000 N 634.105 1.10431 1.1244 0
M  V30 7001 C 635.516 0.864439 1.65482 0
M  V30 7002 C 635.867 -0.60527 1.8663 0
M  V30 7003 O 634.992 -1.46492 1.59276 0
M  V30 7004 C 635.587 1.56267 3.0061 0
M  V30 7005 C 634.146 1.3695 3.50602 0
M  V30 7006 C 633.293 1.61209 2.25626 0
M  V30 7007 H 636.244 1.26203 0.962209 0
M  V30 7008 H 636.265 1.00166 3.67079 0
M  V30 7009 H 635.777 2.63231 2.85186 0
M  V30 7010 H 633.878 0.321481 3.71211 0
M  V30 7011 H 633.991 2.11143 4.30064 0
M  V30 7012 H 632.355 1.03482 2.32731 0
M  V30 7013 H 633.138 2.69425 2.12756 0
M  V30 7014 N 635.583 -1.29855 0.893053 0
M  V30 7015 C 636.829 -1.96116 0.516349 0
M  V30 7016 C 637.162 -1.70281 -0.933695 0
M  V30 7017 O 636.437 -1.01205 -1.66096 0
M  V30 7018 C 636.72 -3.51068 0.801455 0
M  V30 7019 C 636.573 -3.86387 2.30272 0
M  V30 7020 C 637.892 -4.39186 0.283423 0
M  V30 7021 H 635.011 -0.712335 0.189072 0
M  V30 7022 H 637.653 -1.53587 1.11852 0
M  V30 7023 H 635.803 -3.87424 0.288949 0
M  V30 7024 H 637.475 -3.60012 2.88425 0
M  V30 7025 H 635.718 -3.34167 2.76613 0
M  V30 7026 H 636.389 -4.94512 2.45279 0
M  V30 7027 H 638.865 -4.09785 0.722187 0
M  V30 7028 H 637.741 -5.46505 0.512169 0
M  V30 7029 H 638.002 -4.34511 -0.815643 0
M  V30 7030 N 637.061 -0.65484 -1.43351 0
M  V30 7031 C 638.472 -0.248506 -1.85039 0
M  V30 7032 C 638.823 1.20526 -1.54816 0
M  V30 7033 O 637.948 1.92016 -0.99794 0
M  V30 7034 C 638.543 -0.444241 -3.35875 0
M  V30 7035 C 637.102 -0.0922108 -3.76287 0
M  V30 7036 C 636.249 -0.746327 -2.67068 0
M  V30 7037 H 639.2 -0.8584 -1.33481 0
M  V30 7038 H 639.221 0.309762 -3.79237 0
M  V30 7039 H 638.733 -1.50239 -3.5784 0
M  V30 7040 H 636.834 0.96328 -3.59933 0
M  V30 7041 H 636.947 -0.518807 -4.76283 0
M  V30 7042 H 635.311 -0.179416 -2.54067 0
M  V30 7043 H 636.094 -1.80754 -2.91861 0
M  V30 7044 N 638.539 1.52521 -0.396863 0
M  V30 7045 C 639.502 2.2527 0.422604 0
M  V30 7046 C 640.502 1.27184 0.983913 0
M  V30 7047 O 641.692 1.51222 0.864723 0
M  V30 7048 C 638.824 3.01356 1.59365 0
M  V30 7049 H 640.017 2.99133 -0.214416 0
M  V30 7050 H 637.57 1.55587 -0.149128 0
M  V30 7051 H 638.305 2.31813 2.26789 0
M  V30 7052 H 638.09 3.73357 1.19779 0
M  V30 7053 H 639.58 3.56571 2.17363 0
M  V30 7054 N 640.017 0.126909 1.57088 0
M  V30 7055 C 641.428 -0.397201 1.82426 0
M  V30 7056 C 641.779 -1.66084 1.04453 0
M  V30 7057 O 640.904 -2.14534 0.283552 0
M  V30 7058 C 641.499 -0.727411 3.30899 0
M  V30 7059 C 640.058 -1.19612 3.56889 0
M  V30 7060 C 639.205 -0.20885 2.76512 0
M  V30 7061 H 642.156 0.351924 1.54749 0
M  V30 7062 H 642.177 -1.58407 3.45959 0
M  V30 7063 H 641.689 0.19247 3.87622 0
M  V30 7064 H 639.79 -2.13263 3.05532 0
M  V30 7065 H 639.903 -1.13598 4.65438 0
M  V30 7066 H 638.267 -0.697479 2.44964 0
M  V30 7067 H 639.05 0.704267 3.35998 0
M  V30 7068 N 641.495 -1.56914 -0.146875 0
M  V30 7069 C 642.458 -1.97368 -1.16526 0
M  V30 7070 C 643.458 -0.860223 -1.35856 0
M  V30 7071 O 644.648 -1.12684 -1.32846 0
M  V30 7072 C 641.78 -2.28974 -2.52555 0
M  V30 7073 H 642.973 -2.88523 -0.818209 0
M  V30 7074 H 640.526 -1.5135 -0.390221 0
M  V30 7075 H 641.261 -1.40611 -2.92231 0
M  V30 7076 H 641.046 -3.10157 -2.39886 0
M  V30 7077 H 642.536 -2.61109 -3.25902 0
M  V30 7078 N 642.974 0.416227 -1.52004 0
M  V30 7079 C 644.222 1.16153 -1.65387 0
M  V30 7080 C 644.543 1.91208 -0.382669 0
M  V30 7081 O 643.813 1.86413 0.602231 0
M  V30 7082 H 642.393 0.431765 -0.60958 0
M  V30 7083 H 645.055 0.475151 -1.89019 0
M  V30 7084 H 644.151 1.87952 -2.4916 0
M  V30 7085 N 644.452 1.42507 0.673017 0
M  V30 7086 C 645.729 1.33554 1.42908 0
M  V30 7087 C 646.109 -0.0262211 2.11084 0
M  V30 7088 O 645.457 -1.04181 2.03368 0
M  V30 7089 C 645.667 2.50498 2.43006 0
M  V30 7090 C 647.015 2.92694 3.07596 0
M  V30 7091 O 648.039 2.50401 2.53333 0
M  V30 7092 O 646.898 3.65899 4.05931 0
M  V30 7093 H 643.992 0.526785 0.637516 0
M  V30 7094 H 646.538 1.54518 0.701591 0
M  V30 7095 H 645.31 3.41272 1.9144 0
M  V30 7096 H 644.933 2.3153 3.23233 0
M  V30 7097 N 645.93 -0.909495 1.28709 0
M  V30 7098 C 646.862 -2.01729 1.08804 0
M  V30 7099 C 647.875 -1.62755 0.0384739 0
M  V30 7100 O 649.064 -1.76259 0.281977 0
M  V30 7101 C 646.164 -3.32952 0.63217 0
M  V30 7102 C 645.337 -4.00512 1.75809 0
M  V30 7103 C 644.396 -5.10019 1.29488 0
M  V30 7104 O 643.422 -5.32986 1.99787 0
M  V30 7105 N 644.624 -5.80278 0.1604 0
M  V30 7106 H 647.389 -2.19362 2.04207 0
M  V30 7107 H 644.95 -1.08106 1.20518 0
M  V30 7108 H 646.942 -4.03543 0.305802 0
M  V30 7109 H 645.512 -3.11759 -0.229134 0
M  V30 7110 H 644.732 -3.23413 2.25383 0
M  V30 7111 H 646.02 -4.42395 2.51325 0
M  V30 7112 H 645.418 -5.64094 -0.425937 0
M  V30 7113 H 643.975 -6.51713 -0.106663 0
M  V30 7114 N 647.408 -1.11026 -1.11852 0
M  V30 7115 C 648.355 -0.764662 -2.17765 0
M  V30 7116 C 649.325 0.261854 -1.64023 0
M  V30 7117 O 650.51 0.139748 -1.90288 0
M  V30 7118 C 647.65 -0.209317 -3.44465 0
M  V30 7119 C 646.763 -1.29187 -4.12231 0
M  V30 7120 C 645.898 -0.697523 -5.266 0
M  V30 7121 C 644.937 -1.76023 -5.86244 0
M  V30 7122 N 644.074 -1.18569 -6.92016 0
M  V30 7123 H 648.914 -1.67202 -2.46673 0
M  V30 7124 H 646.451 -0.835065 -1.21099 0
M  V30 7125 H 648.409 0.130599 -4.16996 0
M  V30 7126 H 647.039 0.661251 -3.15955 0
M  V30 7127 H 646.091 -1.74881 -3.37818 0
M  V30 7128 H 647.403 -2.09607 -4.52622 0
M  V30 7129 H 646.557 -0.307412 -6.05921 0
M  V30 7130 H 645.296 0.138044 -4.87505 0
M  V30 7131 H 644.301 -2.1597 -5.05606 0
M  V30 7132 H 645.526 -2.59875 -6.27409 0
M  V30 7133 H 643.472 -0.371695 -6.54946 0
M  V30 7134 H 643.389 -1.92666 -7.31038 0
M  V30 7135 H 644.657 -0.82233 -7.7515 0
M  V30 7136 N 648.886 1.2938 -0.899927 0
M  V30 7137 C 649.796 2.31462 -0.382437 0
M  V30 7138 C 650.812 1.65956 0.522929 0
M  V30 7139 O 651.988 1.97131 0.412454 0
M  V30 7140 C 649.053 3.44595 0.381472 0
M  V30 7141 C 648.114 4.25692 -0.555444 0
M  V30 7142 C 647.347 5.33422 0.172102 0
M  V30 7143 O 647.57 5.53053 1.396 0
M  V30 7144 O 646.504 5.99939 -0.485491 0
M  V30 7145 H 650.33 2.77706 -1.22934 0
M  V30 7146 H 647.915 1.33821 -0.664259 0
M  V30 7147 H 649.797 4.13474 0.813442 0
M  V30 7148 H 648.472 3.00458 1.20443 0
M  V30 7149 H 647.379 3.59453 -1.03653 0
M  V30 7150 H 648.712 4.73471 -1.34483 0
M  V30 7151 N 650.364 0.662433 1.43002 0
M  V30 7152 C 651.61 0.179857 2.02001 0
M  V30 7153 C 651.943 -1.20625 1.52195 0
M  V30 7154 O 651.218 -1.80726 0.718911 0
M  V30 7155 C 651.501 0.200845 3.59539 0
M  V30 7156 C 651.354 1.62153 4.19555 0
M  V30 7157 C 652.673 -0.457738 4.37713 0
M  V30 7158 H 649.792 0.0668305 0.733964 0
M  V30 7159 H 652.434 0.84487 1.70182 0
M  V30 7160 H 650.584 -0.365411 3.86778 0
M  V30 7161 H 652.256 2.23908 4.03315 0
M  V30 7162 H 650.499 2.16601 3.75854 0
M  V30 7163 H 651.17 1.58799 5.28665 0
M  V30 7164 H 653.646 0.0241495 4.16093 0
M  V30 7165 H 652.522 -0.412363 5.47349 0
M  V30 7166 H 652.783 -1.53336 4.14657 0
M  V30 7167 N 651.842 -1.52309 0.404946 0
M  V30 7168 C 653.119 -1.94237 -0.230544 0
M  V30 7169 C 653.499 -1.34154 -1.6299 0
M  V30 7170 O 652.847 -0.515713 -2.22604 0
M  V30 7171 C 653.057 -3.48166 -0.241106 0
M  V30 7172 C 654.405 -4.22074 -0.462488 0
M  V30 7173 O 655.429 -3.54754 -0.320644 0
M  V30 7174 O 654.288 -5.41443 -0.741708 0
M  V30 7175 H 651.382 -0.813766 -0.147358 0
M  V30 7176 H 653.928 -1.6333 0.460587 0
M  V30 7177 H 652.7 -3.84269 0.738467 0
M  V30 7178 H 652.323 -3.85422 -0.97651 0
M  V30 7179 N 653.32 -0.135238 -1.57019 0
M  V30 7180 C 654.548 0.526066 -2.001 0
M  V30 7181 C 654.963 1.59184 -1.01519 0
M  V30 7182 O 654.32 1.82497 -0.0104258 0
M  V30 7183 C 654.371 1.13744 -3.43139 0
M  V30 7184 O 654.092 0.114259 -4.37951 0
M  V30 7185 C 655.593 1.8805 -4.01438 0
M  V30 7186 H 652.813 0.137962 -0.656664 0
M  V30 7187 H 655.357 -0.226359 -2.03243 0
M  V30 7188 H 653.512 1.84056 -3.40885 0
M  V30 7189 H 653.926 0.56058 -5.21496 0
M  V30 7190 H 655.4 2.26133 -5.03555 0
M  V30 7191 H 655.877 2.76194 -3.41487 0
M  V30 7192 H 656.483 1.22464 -4.07287 0
M  V30 7193 N 654.798 1.5699 0.138552 0
M  V30 7194 C 656.023 1.88344 0.86841 0
M  V30 7195 C 656.448 0.725159 1.7356 0
M  V30 7196 O 655.806 -0.324992 1.78363 0
M  V30 7197 C 655.854 3.18334 1.69398 0
M  V30 7198 O 654.958 3.02863 2.79907 0
M  V30 7199 H 654.299 0.618577 0.241367 0
M  V30 7200 H 656.829 2.04207 0.126826 0
M  V30 7201 H 656.839 3.50567 2.08726 0
M  V30 7202 H 655.514 4.02238 1.05725 0
M  V30 7203 H 654.091 2.82056 2.43924 0
M  V30 7204 N 656.276 -0.40816 1.52223 0
M  V30 7205 C 657.186 -1.52202 1.78526 0
M  V30 7206 C 658.202 -1.60546 0.670892 0
M  V30 7207 O 659.378 -1.77242 0.956404 0
M  V30 7208 C 656.443 -2.87928 1.93128 0
M  V30 7209 C 655.504 -2.89463 3.17033 0
M  V30 7210 C 654.737 -4.18715 3.30929 0
M  V30 7211 O 654.96 -5.12662 2.50067 0
M  V30 7212 O 653.894 -4.27125 4.24084 0
M  V30 7213 H 657.72 -1.32911 2.73072 0
M  V30 7214 H 655.305 -0.594112 1.37079 0
M  V30 7215 H 657.187 -3.68426 2.04549 0
M  V30 7216 H 655.862 -3.07285 1.01772 0
M  V30 7217 H 654.769 -2.07815 3.11069 0
M  V30 7218 H 656.102 -2.75055 4.08174 0
M  V30 7219 N 657.755 -1.42862 -0.66545 0
M  V30 7220 C 658.702 -1.4707 -1.77874 0
M  V30 7221 C 659.672 -0.321654 -1.62956 0
M  V30 7222 O 660.857 -0.52707 -1.83376 0
M  V30 7223 C 657.997 -1.38788 -3.15962 0
M  V30 7224 C 657.11 -2.63801 -3.42101 0
M  V30 7225 C 656.245 -2.47594 -4.69969 0
M  V30 7226 C 655.284 -3.67936 -4.89172 0
M  V30 7227 N 654.421 -3.50614 -6.08288 0
M  V30 7228 H 659.261 -2.42204 -1.73613 0
M  V30 7229 H 656.798 -1.20239 -0.847401 0
M  V30 7230 H 658.756 -1.31982 -3.95773 0
M  V30 7231 H 657.386 -0.472431 -3.19324 0
M  V30 7232 H 656.438 -2.80935 -2.56475 0
M  V30 7233 H 657.75 -3.53228 -3.52181 0
M  V30 7234 H 656.904 -2.38427 -5.57886 0
M  V30 7235 H 655.643 -1.55672 -4.62188 0
M  V30 7236 H 654.648 -3.77525 -3.99694 0
M  V30 7237 H 655.873 -4.60851 -4.98792 0
M  V30 7238 H 653.819 -2.61417 -6.01662 0
M  V30 7239 H 653.736 -4.33634 -6.19272 0
M  V30 7240 H 655.004 -3.45276 -6.98859 0
M  V30 7241 N 659.233 0.902656 -1.29189 0
M  V30 7242 C 660.18 2.00643 -1.14066 0
M  V30 7243 C 661.15 1.66064 -0.0347756 0
M  V30 7244 O 662.335 1.8973 -0.201752 0
M  V30 7245 C 659.475 3.35214 -0.820104 0
M  V30 7246 C 658.588 3.82594 -2.00614 0
M  V30 7247 C 657.723 5.05727 -1.62522 0
M  V30 7248 C 656.762 5.45469 -2.77724 0
M  V30 7249 N 655.899 6.59789 -2.40048 0
M  V30 7250 H 660.739 2.1291 -2.08502 0
M  V30 7251 H 658.276 1.04271 -1.03759 0
M  V30 7252 H 660.234 4.12643 -0.614949 0
M  V30 7253 H 658.864 3.22682 0.0873452 0
M  V30 7254 H 657.916 3.01226 -2.32308 0
M  V30 7255 H 659.228 4.07999 -2.86946 0
M  V30 7256 H 658.382 5.90732 -1.38277 0
M  V30 7257 H 657.121 4.82155 -0.733333 0
M  V30 7258 H 656.126 4.59 -3.02653 0
M  V30 7259 H 657.351 5.71024 -3.67572 0
M  V30 7260 H 655.297 6.37826 -1.53343 0
M  V30 7261 H 655.214 6.84975 -3.19914 0
M  V30 7262 H 656.482 7.4807 -2.19116 0
M  V30 7263 N 660.711 1.11618 1.11262 0
M  V30 7264 C 661.641 0.79846 2.19424 0
M  V30 7265 C 662.622 -0.234003 1.68483 0
M  V30 7266 O 663.807 -0.0970704 1.93957 0
M  V30 7267 C 660.937 0.242892 3.4645 0
M  V30 7268 C 659.891 1.20744 4.10615 0
M  V30 7269 C 659.217 0.512494 5.32238 0
M  V30 7270 C 660.517 2.55884 4.55325 0
M  V30 7271 H 662.211 1.70286 2.46258 0
M  V30 7272 H 659.757 0.820195 1.18359 0
M  V30 7273 H 661.71 0.00840447 4.21399 0
M  V30 7274 H 660.434 -0.696811 3.1908 0
M  V30 7275 H 659.093 1.42759 3.37662 0
M  V30 7276 H 658.741 -0.432075 5.01141 0
M  V30 7277 H 658.441 1.15583 5.7612 0
M  V30 7278 H 659.965 0.286842 6.09926 0
M  V30 7279 H 661.379 2.37946 5.21588 0
M  V30 7280 H 659.776 3.16216 5.10027 0
M  V30 7281 H 660.846 3.14968 3.68678 0
M  V30 7282 N 662.189 -1.289 0.906776 0
M  V30 7283 C 663.119 -2.29932 0.406659 0
M  V30 7284 C 664.1 -1.6189 -0.522061 0
M  V30 7285 O 665.285 -1.8935 -0.431283 0
M  V30 7286 C 662.415 -3.45425 -0.360366 0
M  V30 7287 C 661.369 -4.25316 0.478574 0
M  V30 7288 C 660.695 -5.33076 -0.416373 0
M  V30 7289 C 661.995 -4.92739 1.7322 0
M  V30 7290 H 663.689 -2.72013 1.25097 0
M  V30 7291 H 661.235 -1.30768 0.602977 0
M  V30 7292 H 663.188 -4.15186 -0.721029 0
M  V30 7293 H 661.912 -3.02206 -1.23852 0
M  V30 7294 H 660.571 -3.57273 0.821662 0
M  V30 7295 H 660.219 -4.86101 -1.29287 0
M  V30 7296 H 659.919 -5.8743 0.141309 0
M  V30 7297 H 661.443 -6.05686 -0.773072 0
M  V30 7298 H 662.857 -5.54898 1.44086 0
M  V30 7299 H 661.254 -5.57057 2.23175 0
M  V30 7300 H 662.324 -4.17625 2.46408 0
M  V30 7301 N 663.667 -0.670007 -1.42649 0
M  V30 7302 C 664.577 0.0114788 -2.34597 0
M  V30 7303 C 665.593 0.794055 -1.54825 0
M  V30 7304 O 666.769 0.737472 -1.87412 0
M  V30 7305 C 663.834 0.954436 -3.33304 0
M  V30 7306 C 662.895 0.166925 -4.28975 0
M  V30 7307 C 662.128 1.06497 -5.22967 0
M  V30 7308 O 662.351 2.30446 -5.21777 0
M  V30 7309 O 661.285 0.528347 -5.99577 0
M  V30 7310 H 665.111 -0.745794 -2.944 0
M  V30 7311 H 662.696 -0.430228 -1.43071 0
M  V30 7312 H 664.578 1.49589 -3.93956 0
M  V30 7313 H 663.253 1.69164 -2.7598 0
M  V30 7314 H 662.16 -0.418515 -3.71752 0
M  V30 7315 H 663.493 -0.531067 -4.89327 0
M  V30 7316 N 665.145 1.52092 -0.413018 0
M  V30 7317 C 666.561 1.59471 -0.0640836 0
M  V30 7318 C 666.761 1.42562 1.42402 0
M  V30 7319 O 665.817 1.25453 2.19129 0
M  V30 7320 C 667.13 2.95392 -0.562474 0
M  V30 7321 C 668.678 3.08637 -0.520788 0
M  V30 7322 C 669.153 4.47044 -0.995752 0
M  V30 7323 N 670.644 4.53296 -0.952732 0
M  V30 7324 C 671.379 5.58669 -1.29138 0
M  V30 7325 N 670.875 6.71576 -1.70168 0
M  V30 7326 N 672.668 5.48898 -1.2111 0
M  V30 7327 H 664.819 1.6133 -1.38153 0
M  V30 7328 H 667.082 0.75916 -0.567785 0
M  V30 7329 H 666.788 3.13059 -1.60271 0
M  V30 7330 H 666.662 3.77191 0.0257875 0
M  V30 7331 H 669.049 2.90652 0.510412 0
M  V30 7332 H 669.13 2.28735 -1.14515 0
M  V30 7333 H 668.774 4.65773 -2.0253 0
M  V30 7334 H 668.704 5.25448 -0.348162 0
M  V30 7335 H 671.195 3.72248 -0.651119 0
M  V30 7336 H 671.508 7.47973 -1.9431 0
M  V30 7337 H 669.853 6.72847 -1.74075 0
M  V30 7338 H 673.044 4.59573 -0.889396 0
M  V30 7339 H 673.217 6.30912 -1.47833 0
M  V30 7340 N 666.623 0.143563 1.56945 0
M  V30 7341 C 667.553 -0.7936 2.196 0
M  V30 7342 C 668.534 -1.25955 1.14321 0
M  V30 7343 O 669.719 -1.31773 1.42651 0
M  V30 7344 C 666.849 -2.03424 2.81489 0
M  V30 7345 C 665.803 -1.70519 3.92565 0
M  V30 7346 C 665.129 -3.01817 4.41373 0
M  V30 7347 C 666.429 -0.95449 5.13504 0
M  V30 7348 H 668.123 -0.271423 2.98167 0
M  V30 7349 H 665.669 -0.12911 1.4342 0
M  V30 7350 H 667.622 -2.69463 3.23987 0
M  V30 7351 H 666.346 -2.58008 2.00248 0
M  V30 7352 H 665.005 -1.06859 3.5068 0
M  V30 7353 H 664.653 -3.54386 3.56959 0
M  V30 7354 H 664.353 -2.80565 5.16292 0
M  V30 7355 H 665.877 -3.68934 4.86539 0
M  V30 7356 H 667.291 -1.5169 5.52868 0
M  V30 7357 H 665.688 -0.842035 5.94163 0
M  V30 7358 H 666.758 0.0544033 4.84869 0
M  V30 7359 N 668.101 -1.57061 -0.130224 0
M  V30 7360 C 669.512 -1.73539 -0.68856 0
M  V30 7361 C 669.863 -0.760554 -1.80859 0
M  V30 7362 O 668.988 0.0690796 -2.1629 0
M  V30 7363 C 669.583 -3.14666 -1.25581 0
M  V30 7364 C 668.142 -3.32689 -1.76055 0
M  V30 7365 C 667.289 -2.69436 -0.655712 0
M  V30 7366 H 670.24 -1.58412 0.0956002 0
M  V30 7367 H 670.261 -3.15595 -2.12556 0
M  V30 7368 H 669.773 -3.85593 -0.440412 0
M  V30 7369 H 667.874 -2.66786 -2.60108 0
M  V30 7370 H 667.987 -4.4077 -1.87772 0
M  V30 7371 H 666.351 -2.30362 -1.08654 0
M  V30 7372 H 667.134 -3.42979 0.14852 0
M  V30 7373 N 669.579 0.400081 -1.52437 0
M  V30 7374 C 670.489 1.51253 -1.79331 0
M  V30 7375 C 671.505 1.60188 -0.679396 0
M  V30 7376 O 672.681 1.76733 -0.965791 0
M  V30 7377 C 669.746 2.869 -1.94652 0
M  V30 7378 C 668.807 2.87777 -3.18564 0
M  V30 7379 C 668.04 4.16954 -3.33145 0
M  V30 7380 O 668.263 5.11329 -2.52783 0
M  V30 7381 O 667.197 4.2487 -4.26343 0
M  V30 7382 H 671.023 1.31461 -2.73773 0
M  V30 7383 H 668.608 0.586834 -1.37392 0
M  V30 7384 H 670.49 3.67336 -2.065 0
M  V30 7385 H 669.165 3.06741 -1.034 0
M  V30 7386 H 668.072 2.06162 -3.12167 0
M  V30 7387 H 669.405 2.72886 -4.09627 0
M  V30 7388 N 671.057 1.43213 0.657864 0
M  V30 7389 C 672.303 1.44798 1.41991 0
M  V30 7390 C 672.636 0.070256 1.94073 0
M  V30 7391 O 671.911 -0.908177 1.71995 0
M  V30 7392 C 672.194 2.4865 2.60471 0
M  V30 7393 C 672.047 3.95679 2.13911 0
M  V30 7394 C 673.366 2.49292 3.62686 0
M  V30 7395 H 670.485 0.527244 0.514959 0
M  V30 7396 H 673.127 1.74733 0.74621 0
M  V30 7397 H 671.277 2.23254 3.17946 0
M  V30 7398 H 672.949 4.32116 1.61472 0
M  V30 7399 H 671.192 4.08733 1.45325 0
M  V30 7400 H 671.863 4.6395 2.99089 0
M  V30 7401 H 674.339 2.71917 3.14961 0
M  V30 7402 H 673.215 3.23907 4.43143 0
M  V30 7403 H 673.476 1.52502 4.14964 0
M  V30 7404 N 672.536 -0.895792 1.29666 0
M  V30 7405 C 673.446 -2.03329 1.17024 0
M  V30 7406 C 674.462 -1.73753 0.0925962 0
M  V30 7407 O 675.638 -1.99071 0.305431 0
M  V30 7408 C 672.703 -3.36072 0.851841 0
M  V30 7409 C 671.764 -3.7914 2.01373 0
M  V30 7410 C 670.997 -5.05549 1.71043 0
M  V30 7411 O 671.22 -5.66874 0.633213 0
M  V30 7412 O 670.154 -5.44764 2.5596 0
M  V30 7413 H 673.98 -2.16918 2.12556 0
M  V30 7414 H 671.565 -1.02007 1.09156 0
M  V30 7415 H 673.447 -4.15729 0.689006 0
M  V30 7416 H 672.122 -3.23616 -0.0736634 0
M  V30 7417 H 671.029 -3.00233 2.23183 0
M  V30 7418 H 672.362 -3.96186 2.92058 0
M  V30 7419 N 674.014 -1.12206 -1.10668 0
M  V30 7420 C 675.26 -0.877172 -1.82848 0
M  V30 7421 C 675.593 0.595571 -1.84842 0
M  V30 7422 O 674.868 1.44013 -1.30731 0
M  V30 7423 C 675.151 -1.44957 -3.29635 0
M  V30 7424 C 675.004 -2.99051 -3.35989 0
M  V30 7425 C 676.323 -1.10714 -4.25946 0
M  V30 7426 H 673.442 -0.320103 -0.663854 0
M  V30 7427 H 676.084 -1.38827 -1.2972 0
M  V30 7428 H 674.234 -1.01488 -3.7501 0
M  V30 7429 H 675.906 -3.51182 -2.99113 0
M  V30 7430 H 674.149 -3.34705 -2.75962 0
M  V30 7431 H 674.82 -3.34194 -4.39339 0
M  V30 7432 H 677.296 -1.48254 -3.88793 0
M  V30 7433 H 676.172 -1.5343 -5.2702 0
M  V30 7434 H 676.433 -0.019 -4.42096 0
M  V30 7435 N 675.492 1.28418 -0.913599 0
M  V30 7436 C 676.903 1.77024 -0.593237 0
M  V30 7437 C 677.254 1.74779 0.891441 0
M  V30 7438 O 676.379 1.34237 1.69733 0
M  V30 7439 C 676.974 3.21456 -1.07011 0
M  V30 7440 C 675.533 3.67786 -0.800664 0
M  V30 7441 C 674.68 2.48185 -1.23691 0
M  V30 7442 H 677.631 1.14883 -1.09487 0
M  V30 7443 H 677.652 3.78269 -0.411481 0
M  V30 7444 H 677.164 3.23058 -2.1507 0
M  V30 7445 H 675.265 3.71644 0.266725 0
M  V30 7446 H 675.378 4.57934 -1.4083 0
M  V30 7447 H 673.742 2.46116 -0.655655 0
M  V30 7448 H 674.525 2.52506 -2.32585 0
M  V30 7449 N 676.97 0.677563 1.42291 0
M  V30 7450 C 677.902 -0.0380218 2.29168 0
M  V30 7451 C 678.915 -0.762714 1.43828 0
M  V30 7452 O 680.104 -0.616413 1.67519 0
M  V30 7453 C 677.204 -1.07761 3.21311 0
M  V30 7454 C 676.377 -0.42618 4.35319 0
M  V30 7455 C 675.436 -1.36592 5.08162 0
M  V30 7456 O 674.462 -0.865174 5.62586 0
M  V30 7457 N 675.664 -2.69909 5.13935 0
M  V30 7458 H 678.429 0.707766 2.91223 0
M  V30 7459 H 675.99 0.52219 1.53247 0
M  V30 7460 H 677.982 -1.70761 3.6691 0
M  V30 7461 H 676.552 -1.72511 2.60689 0
M  V30 7462 H 675.772 0.383385 3.92331 0
M  V30 7463 H 677.06 0.0275277 5.08793 0
M  V30 7464 H 676.458 -3.13129 4.71134 0
M  V30 7465 H 675.015 -3.2815 5.6317 0
M  V30 7466 N 678.448 -1.51871 0.421078 0
M  V30 7467 C 679.398 -2.24171 -0.416111 0
M  V30 7468 C 680.382 -1.25763 -1.00362 0
M  V30 7469 O 681.574 -1.5094 -0.924452 0
M  V30 7470 C 678.703 -3.07533 -1.52571 0
M  V30 7471 C 677.789 -4.1336 -0.948399 0
M  V30 7472 N 678.18 -5.05704 -0.0987933 0
M  V30 7473 C 676.478 -4.29055 -1.21768 0
M  V30 7474 C 677.179 -5.8127 0.223705 0
M  V30 7475 N 676.155 -5.4221 -0.388524 0
M  V30 7476 H 679.957 -2.92925 0.239166 0
M  V30 7477 H 677.471 -1.60732 0.232191 0
M  V30 7478 H 679.468 -3.57893 -2.13819 0
M  V30 7479 H 678.128 -2.4032 -2.18349 0
M  V30 7480 H 679.139 -5.17214 0.266428 0
M  V30 7481 H 675.816 -3.73071 -1.87416 0
M  V30 7482 H 677.206 -6.65653 0.914076 0
M  V30 7483 N 679.926 -0.151884 -1.56866 0
M  V30 7484 C 680.856 0.781943 -2.20018 0
M  V30 7485 C 681.837 1.25347 -1.14987 0
M  V30 7486 O 683.022 1.31015 -1.43348 0
M  V30 7487 C 680.152 2.01928 -2.82564 0
M  V30 7488 C 679.106 1.68434 -3.93464 0
M  V30 7489 C 678.432 2.99472 -4.42968 0
M  V30 7490 C 679.732 0.927244 -5.14003 0
M  V30 7491 H 681.426 0.255607 -2.98307 0
M  V30 7492 H 678.972 0.121502 -1.43486 0
M  V30 7493 H 680.925 2.67741 -3.25411 0
M  V30 7494 H 679.649 2.56943 -2.01614 0
M  V30 7495 H 678.308 1.04998 -3.51242 0
M  V30 7496 H 677.956 3.52488 -3.58834 0
M  V30 7497 H 677.656 2.77823 -5.17772 0
M  V30 7498 H 679.18 3.66348 -4.88489 0
M  V30 7499 H 680.594 1.48756 -5.53665 0
M  V30 7500 H 678.991 0.810513 -5.94601 0
M  V30 7501 H 680.061 -0.0801163 -4.84834 0
M  V30 7502 O 681.443 1.61494 -0.0134355 0
M  V30 7503 H 682.134 1.84128 0.601368 0
M  V30 END ATOM
M  V30 BEGIN BOND
M  V30 END BOND
M  V30 END CTAB
M  END
$$$$
