drugbank_target|Q02809 Procollagen-lysine,2-oxoglutarate 5-dioxygenase 1 (DB00126)
 OpenBabel12092119243D

  0  0  0     0  0            999 V3000
M  V30 BEGIN CTAB
M  V30 COUNTS 11687 11843 0 0 0
M  V30 BEGIN ATOM
M  V30 1 H -0.908 1.98254 -0.117106 0
M  V30 2 N 0 1.576 0 0
M  V30 3 C 0.933 2.03868 1.02534 0
M  V30 4 C 1.911 0.928543 1.3348 0
M  V30 5 O 3.095 1.19667 1.45644 0
M  V30 6 C 0.222 2.43627 2.35294 0
M  V30 7 C -0.732 3.65373 2.2001 0
M  V30 8 S 0.101 5.13292 1.52614 0
M  V30 9 C 1.257 5.56322 2.86805 0
M  V30 10 H 1.49 2.90518 0.631377 0
M  V30 11 H -0.977 1.52953 0.210867 0
M  V30 12 H 0.981 2.67203 3.11629 0
M  V30 13 H -0.358 1.57376 2.7183 0
M  V30 14 H -1.165 3.90944 3.18086 0
M  V30 15 H -1.563 3.418 1.51819 0
M  V30 16 H 0.729 5.58782 3.83104 0
M  V30 17 H 1.672 6.56266 2.65933 0
M  V30 18 H 2.08 4.83886 2.90714 0
M  V30 19 N 1.4781 -0.272755 1.55222 0
M  V30 20 C 2.8941 -0.619959 1.47067 0
M  V30 21 C 3.0941 -1.895 0.684978 0
M  V30 22 O 2.1501 -2.51675 0.203931 0
M  V30 23 C 3.4631 -0.746693 2.91282 0
M  V30 24 C 5.0111 -0.840731 3.01497 0
M  V30 25 C 5.4861 -0.99924 4.46967 0
M  V30 26 N 6.9771 -1.06476 4.50796 0
M  V30 27 C 7.7121 -1.20621 5.6057 0
M  V30 28 N 7.2081 -1.31483 6.80209 0
M  V30 29 N 9.0011 -1.23733 5.48312 0
M  V30 30 H 1.1521 0.564606 2.04758 0
M  V30 31 H 3.4151 0.191177 0.928523 0
M  V30 32 H 3.1211 0.119753 3.51496 0
M  V30 33 H 2.9951 -1.6269 3.40311 0
M  V30 34 H 5.3821 -1.69764 2.41379 0
M  V30 35 H 5.4631 0.0640874 2.5572 0
M  V30 36 H 5.1071 -0.146984 5.07687 0
M  V30 37 H 5.0371 -1.91871 4.90401 0
M  V30 38 H 7.5281 -0.993196 3.64615 0
M  V30 39 H 7.8411 -1.42111 7.59621 0
M  V30 40 H 6.1861 -1.28487 6.8302 0
M  V30 41 H 9.3771 -1.14877 4.53785 0
M  V30 42 H 9.5501 -1.34412 6.33906 0
M  V30 43 N 2.9562 -1.48159 -0.537278 0
M  V30 44 C 4.3672 -1.49429 -1.11928 0
M  V30 45 C 4.7182 -0.26 -1.9447 0
M  V30 46 O 3.8432 0.633489 -2.0692 0
M  V30 47 C 4.4382 -2.70758 -2.03656 0
M  V30 48 C 2.9972 -2.74923 -2.57088 0
M  V30 49 C 2.1442 -2.42835 -1.3389 0
M  V30 50 H 5.0952 -1.55381 -0.322886 0
M  V30 51 H 5.1162 -2.48861 -2.87834 0
M  V30 52 H 4.6282 -3.60575 -1.43553 0
M  V30 53 H 2.7292 -1.89296 -3.20933 0
M  V30 54 H 2.8422 -3.76157 -2.9672 0
M  V30 55 H 1.2062 -1.93836 -1.65226 0
M  V30 56 H 1.9892 -3.34884 -0.755504 0
M  V30 57 N 4.4343 0.785586 -1.36625 0
M  V30 58 C 5.3643 1.91259 -1.33949 0
M  V30 59 C 6.3453 1.68795 -0.210325 0
M  V30 60 O 7.5303 1.89854 -0.408561 0
M  V30 61 C 4.6603 3.28339 -1.13186 0
M  V30 62 C 3.6143 3.65335 -2.22967 0
M  V30 63 C 2.9403 5.00806 -1.87342 0
M  V30 64 C 4.2403 3.7352 -3.65075 0
M  V30 65 H 5.9343 1.93755 -2.28253 0
M  V30 66 H 3.4803 0.930788 -1.09874 0
M  V30 67 H 5.4333 4.06804 -1.09948 0
M  V30 68 H 4.1573 3.2624 -0.153332 0
M  V30 69 H 2.8163 2.89169 -2.25337 0
M  V30 70 H 2.4643 4.95233 -0.880545 0
M  V30 71 H 2.1643 5.26529 -2.60846 0
M  V30 72 H 3.6883 5.81687 -1.85667 0
M  V30 73 H 5.1023 4.42168 -3.64911 0
M  V30 74 H 3.4993 4.10731 -4.37516 0
M  V30 75 H 4.5693 2.74527 -3.99703 0
M  V30 76 N 5.9124 1.20967 1.01018 0
M  V30 77 C 6.8424 0.988272 2.11555 0
M  V30 78 C 7.8234 -0.0849778 1.69888 0
M  V30 79 O 9.0084 0.0738202 1.9406 0
M  V30 80 C 6.1384 0.546528 3.42973 0
M  V30 81 C 5.0924 1.56375 3.9841 0
M  V30 82 C 4.4184 0.97842 5.25672 0
M  V30 83 C 5.7184 2.94922 4.31066 0
M  V30 84 H 7.4124 1.91276 2.30334 0
M  V30 85 H 4.9584 0.921073 1.1069 0
M  V30 86 H 6.9114 0.378839 4.19694 0
M  V30 87 H 5.6354 -0.413598 3.23971 0
M  V30 88 H 4.2944 1.71891 3.23804 0
M  V30 89 H 3.9424 0.0101688 5.02999 0
M  V30 90 H 3.6424 1.65784 5.63728 0
M  V30 91 H 5.1664 0.821939 6.05043 0
M  V30 92 H 6.5804 2.8288 4.9865 0
M  V30 93 H 4.9774 3.5983 4.80253 0
M  V30 94 H 6.0474 3.4616 3.39561 0
M  V30 95 N 7.3905 -1.2043 1.01659 0
M  V30 96 C 8.3205 -2.25466 0.607226 0
M  V30 97 C 9.3015 -1.65853 -0.377716 0
M  V30 98 O 10.4865 -1.92409 -0.263149 0
M  V30 99 C 7.6165 -3.47256 -0.0552949 0
M  V30 100 C 6.5705 -4.19462 0.850632 0
M  V30 101 C 5.8965 -5.34673 0.0538859 0
M  V30 102 C 7.1965 -4.75603 2.15868 0
M  V30 103 H 8.8905 -2.59962 1.48526 0
M  V30 104 H 6.4365 -1.2496 0.715605 0
M  V30 105 H 8.3895 -4.19917 -0.353233 0
M  V30 106 H 7.1135 -3.11924 -0.968045 0
M  V30 107 H 5.7725 -3.48667 1.13257 0
M  V30 108 H 5.4205 -4.95585 -0.860514 0
M  V30 109 H 5.1205 -5.83913 0.657192 0
M  V30 110 H 6.6445 -6.10138 -0.237598 0
M  V30 111 H 8.0585 -5.40083 1.92311 0
M  V30 112 H 6.4555 -5.3528 2.71284 0
M  V30 113 H 7.5255 -3.94346 2.82169 0
M  V30 114 N 8.8686 -0.792821 -1.36206 0
M  V30 115 C 9.7986 -0.207853 -2.32573 0
M  V30 116 C 10.7796 0.659055 -1.56813 0
M  V30 117 O 11.9646 0.592176 -1.84951 0
M  V30 118 C 9.0946 0.655449 -3.41059 0
M  V30 119 C 8.0486 -0.111842 -4.27854 0
M  V30 120 C 7.3746 0.872274 -5.27537 0
M  V30 121 C 8.6746 -1.30299 -5.05786 0
M  V30 122 H 10.3686 -1.01294 -2.81744 0
M  V30 123 H 7.9146 -0.48854 -1.3546 0
M  V30 124 H 9.8676 1.07464 -4.07467 0
M  V30 125 H 8.5916 1.49328 -2.90463 0
M  V30 126 H 7.2506 -0.512053 -3.63006 0
M  V30 127 H 6.8986 1.70523 -4.73214 0
M  V30 128 H 6.5986 0.363291 -5.86476 0
M  V30 129 H 8.1226 1.28996 -5.96818 0
M  V30 130 H 9.5366 -0.959379 -5.65216 0
M  V30 131 H 7.9336 -1.7455 -5.74154 0
M  V30 132 H 9.0036 -2.09663 -4.37229 0
M  V30 133 N 10.3467 1.47872 -0.545128 0
M  V30 134 C 11.3097 2.28337 0.198717 0
M  V30 135 C 12.3097 1.36255 0.853888 0
M  V30 136 O 13.4997 1.59003 0.711606 0
M  V30 137 C 10.6317 3.15585 1.28915 0
M  V30 138 H 11.8247 2.95567 -0.507941 0
M  V30 139 H 9.3777 1.53362 -0.301616 0
M  V30 140 H 10.1127 2.53019 2.02859 0
M  V30 141 H 9.8977 3.83337 0.824309 0
M  V30 142 H 11.3877 3.76243 1.81194 0
M  V30 143 N 11.8248 0.280983 1.55075 0
M  V30 144 C 12.7548 -0.597469 2.25727 0
M  V30 145 C 13.7358 -1.15417 1.24952 0
M  V30 146 O 14.9208 -1.18722 1.53684 0
M  V30 147 C 12.0508 -1.7789 2.98283 0
M  V30 148 C 11.0048 -1.35347 4.06036 0
M  V30 149 C 10.3308 -2.61846 4.66198 0
M  V30 150 C 11.6308 -0.499354 5.19907 0
M  V30 151 H 13.3248 -0.00824265 2.99399 0
M  V30 152 H 10.8708 -0.0025244 1.44 0
M  V30 153 H 12.8238 -2.39937 3.46422 0
M  V30 154 H 11.5478 -2.39405 2.22155 0
M  V30 155 H 10.2068 -0.756156 3.58717 0
M  V30 156 H 9.8548 -3.21632 3.86732 0
M  V30 157 H 9.5548 -2.3409 5.38958 0
M  V30 158 H 11.0788 -3.24732 5.1709 0
M  V30 159 H 12.4928 -1.02498 5.64063 0
M  V30 160 H 10.8898 -0.316424 5.99265 0
M  V30 161 H 11.9598 0.480459 4.82514 0
M  V30 162 N 13.3029 -1.57598 0.00835791 0
M  V30 163 C 14.2329 -2.1198 -0.979113 0
M  V30 164 C 15.2139 -1.03091 -1.35301 0
M  V30 165 O 16.3989 -1.30818 -1.43528 0
M  V30 166 C 13.5289 -2.62995 -2.26828 0
M  V30 167 C 12.4829 -3.76485 -2.03576 0
M  V30 168 C 11.8089 -4.13846 -3.38579 0
M  V30 169 C 13.1089 -5.0342 -1.39161 0
M  V30 170 H 14.8029 -2.94738 -0.526281 0
M  V30 171 H 12.3489 -1.41783 -0.251704 0
M  V30 172 H 14.3019 -2.99669 -2.96271 0
M  V30 173 H 13.0259 -1.7737 -2.7424 0
M  V30 174 H 11.6849 -3.40217 -1.36557 0
M  V30 175 H 11.3329 -3.25232 -3.83709 0
M  V30 176 H 11.0329 -4.90312 -3.23834 0
M  V30 177 H 12.5569 -4.53086 -4.09323 0
M  V30 178 H 13.9709 -5.37812 -1.98573 0
M  V30 179 H 12.3679 -5.84746 -1.34878 0
M  V30 180 H 13.4379 -4.83548 -0.361868 0
M  V30 181 N 14.781 0.264519 -1.55364 0
M  V30 182 C 16.029 0.993021 -1.76021 0
M  V30 183 C 16.35 1.86511 -0.569099 0
M  V30 184 O 15.62 1.91438 0.415735 0
M  V30 185 H 14.2 0.369639 -0.649135 0
M  V30 186 H 16.862 0.286707 -1.9278 0
M  V30 187 H 15.958 1.62502 -2.66457 0
M  V30 188 N 16.2591 1.48442 0.529413 0
M  V30 189 C 17.5051 1.57699 1.28463 0
M  V30 190 C 17.8601 0.247913 1.90796 0
M  V30 191 O 17.1531 -0.749279 1.76342 0
M  V30 192 C 17.3471 2.6523 2.39558 0
M  V30 193 C 17.1761 4.08464 1.88114 0
M  V30 194 C 15.9461 4.75596 1.70693 0
M  V30 195 C 18.1441 4.94613 1.40935 0
M  V30 196 N 16.1261 6.03245 1.13881 0
M  V30 197 C 17.4971 6.12511 0.960734 0
M  V30 198 C 19.5521 4.80833 1.29243 0
M  V30 199 C 18.2551 7.18149 0.406792 0
M  V30 200 C 20.2811 5.86593 0.752487 0
M  V30 201 C 19.6431 7.037 0.313946 0
M  V30 202 H 15.7421 0.631608 0.46108 0
M  V30 203 H 18.3261 1.85325 0.596886 0
M  V30 204 H 16.4971 2.39425 3.05827 0
M  V30 205 H 18.2291 2.64169 3.06589 0
M  V30 206 H 14.9841 4.31938 1.94232 0
M  V30 207 H 15.4081 6.71324 0.874831 0
M  V30 208 H 20.0501 3.90635 1.61754 0
M  V30 209 H 17.7681 8.0807 0.0693671 0
M  V30 210 H 21.3541 5.77985 0.665192 0
M  V30 211 H 20.2341 7.8414 -0.0973632 0
M  V30 212 N 17.7372 -0.778329 1.37039 0
M  V30 213 C 18.6672 -1.90546 1.34962 0
M  V30 214 C 19.6482 -1.68681 0.219274 0
M  V30 215 O 20.8332 -1.89634 0.418624 0
M  V30 216 C 17.9632 -3.27734 1.14925 0
M  V30 217 C 16.9172 -3.64147 2.24902 0
M  V30 218 C 16.2432 -4.99806 1.89996 0
M  V30 219 C 17.5432 -3.71579 3.67051 0
M  V30 220 H 19.2372 -1.92541 2.29277 0
M  V30 221 H 16.7832 -0.924948 1.10366 0
M  V30 222 H 18.7362 -4.06215 1.12104 0
M  V30 223 H 17.4602 -3.26154 0.170631 0
M  V30 224 H 16.1192 -2.8797 2.26868 0
M  V30 225 H 15.7672 -4.94759 0.906796 0
M  V30 226 H 15.4672 -5.25139 2.63634 0
M  V30 227 H 16.9912 -5.80694 1.88749 0
M  V30 228 H 18.4052 -4.40227 3.67251 0
M  V30 229 H 16.8022 -4.08405 4.39688 0
M  V30 230 H 17.8722 -2.72404 4.01154 0
M  V30 231 N 19.2153 -1.21501 -1.00376 0
M  V30 232 C 20.1453 -0.999478 -2.11028 0
M  V30 233 C 21.1263 0.0759671 -1.6993 0
M  V30 234 O 22.3113 -0.0841106 -1.94018 0
M  V30 235 C 19.4413 -0.564709 -3.42678 0
M  V30 236 C 18.3953 -1.58486 -3.97576 0
M  V30 237 C 17.7213 -1.00628 -5.25146 0
M  V30 238 C 19.0213 -2.97204 -4.29496 0
M  V30 239 H 20.7153 -1.92495 -2.29317 0
M  V30 240 H 18.2613 -0.92693 -1.102 0
M  V30 241 H 20.2143 -0.401091 -4.19487 0
M  V30 242 H 18.9383 0.396411 -3.24185 0
M  V30 243 H 17.5973 -1.73606 -3.22888 0
M  V30 244 H 17.2453 -0.0368439 -5.02987 0
M  V30 245 H 16.9453 -1.68771 -5.62841 0
M  V30 246 H 18.4693 -0.854015 -6.04598 0
M  V30 247 H 19.8833 -2.8552 -4.97143 0
M  V30 248 H 18.2803 -3.62372 -4.78338 0
M  V30 249 H 19.3503 -3.47956 -3.3772 0
M  V30 250 N 20.6934 1.19889 -1.02296 0
M  V30 251 C 21.6234 2.25141 -0.619174 0
M  V30 252 C 22.6044 1.66051 0.368915 0
M  V30 253 O 23.7894 1.92546 0.252941 0
M  V30 254 C 20.9194 3.4728 0.0368783 0
M  V30 255 C 19.8734 4.19005 -0.872865 0
M  V30 256 C 19.1994 5.34637 -0.0822402 0
M  V30 257 C 20.4994 4.74452 -2.18387 0
M  V30 258 H 22.1934 2.59171 -1.49903 0
M  V30 259 H 19.7394 1.24579 -0.722222 0
M  V30 260 H 21.6924 4.20098 0.330958 0
M  V30 261 H 20.4164 3.12433 0.95149 0
M  V30 262 H 19.0754 3.48061 -1.15105 0
M  V30 263 H 18.7234 4.96034 0.83422 0
M  V30 264 H 18.4234 5.83557 -0.688149 0
M  V30 265 H 19.9474 6.10255 0.205238 0
M  V30 266 H 21.3614 5.39055 -1.95172 0
M  V30 267 H 19.7584 5.33834 -2.74119 0
M  V30 268 H 20.8284 3.92844 -2.84257 0
M  V30 269 N 22.1715 0.800033 1.35784 0
M  V30 270 C 23.1345 0.211565 2.28221 0
M  V30 271 C 24.1345 -0.59728 1.49296 0
M  V30 272 O 25.3245 -0.416721 1.69142 0
M  V30 273 C 22.4565 -0.705846 3.33513 0
M  V30 274 H 23.6495 1.02677 2.81776 0
M  V30 275 H 21.2025 0.570211 1.45528 0
M  V30 276 H 21.9375 -1.54498 2.85133 0
M  V30 277 H 21.7225 -0.127655 3.91892 0
M  V30 278 H 23.2125 -1.11211 4.02519 0
M  V30 279 N 23.6496 -1.47581 0.552962 0
M  V30 280 C 24.5596 -2.33743 -0.200353 0
M  V30 281 C 25.5756 -1.47928 -0.916151 0
M  V30 282 O 26.7516 -1.80865 -0.885993 0
M  V30 283 C 23.8166 -3.24536 -1.21973 0
M  V30 284 C 22.8776 -4.26238 -0.511819 0
M  V30 285 C 22.1106 -5.12693 -1.48263 0
M  V30 286 O 22.3336 -5.01525 -2.71714 0
M  V30 287 O 21.2676 -5.93375 -1.00945 0
M  V30 288 H 25.0936 -2.9945 0.506304 0
M  V30 289 H 22.6786 -1.46071 0.313622 0
M  V30 290 H 24.5606 -3.80631 -1.80827 0
M  V30 291 H 23.2356 -2.61462 -1.90839 0
M  V30 292 H 22.1426 -3.73914 0.117799 0
M  V30 293 H 23.4756 -4.92014 0.135308 0
M  V30 294 N 25.1277 -0.289203 -1.54924 0
M  V30 295 C 26.0907 0.579144 -2.21762 0
M  V30 296 C 27.0907 1.07047 -1.1999 0
M  V30 297 O 28.2807 0.968384 -1.44803 0
M  V30 298 C 25.4127 1.80055 -2.8947 0
M  V30 299 H 26.6057 -0.00464908 -2.999 0
M  V30 300 H 24.1587 -0.0399306 -1.56249 0
M  V30 301 H 24.8937 2.42449 -2.15381 0
M  V30 302 H 24.6787 1.45602 -3.64064 0
M  V30 303 H 26.1687 2.41773 -3.40493 0
M  V30 304 N 26.6058 1.57591 -0.0167156 0
M  V30 305 C 27.5528 2.09462 0.969251 0
M  V30 306 C 28.5228 0.99381 1.33089 0
M  V30 307 O 29.7078 1.26726 1.42636 0
M  V30 308 C 26.8478 2.61622 2.25051 0
M  V30 309 C 25.9608 3.85666 1.94642 0
M  V30 310 C 25.0958 4.26266 3.16972 0
M  V30 311 C 24.1348 5.43101 2.82326 0
M  V30 312 N 23.2718 5.78915 3.97243 0
M  V30 313 H 28.1118 2.93428 0.519997 0
M  V30 314 H 25.6488 1.45044 0.245087 0
M  V30 315 H 27.6068 2.89949 2.99976 0
M  V30 316 H 26.2368 1.80505 2.67615 0
M  V30 317 H 25.2888 3.64145 1.10013 0
M  V30 318 H 26.6008 4.70678 1.65117 0
M  V30 319 H 25.7548 4.55963 4.00228 0
M  V30 320 H 24.4938 3.39996 3.49648 0
M  V30 321 H 23.4988 5.1311 1.97479 0
M  V30 322 H 24.7238 6.3106 2.50879 0
M  V30 323 H 22.6698 4.95602 4.29785 0
M  V30 324 H 22.5868 6.58539 3.71299 0
M  V30 325 H 23.8548 6.13212 4.81239 0
M  V30 326 N 28.0839 -0.256276 1.55502 0
M  V30 327 C 29.3319 -0.983672 1.76545 0
M  V30 328 C 29.6529 -1.86206 0.578982 0
M  V30 329 O 28.9229 -1.91656 -0.405577 0
M  V30 330 H 27.5029 -0.366191 0.651086 0
M  V30 331 H 30.1649 -0.276479 1.92929 0
M  V30 332 H 29.2609 -1.61087 2.67315 0
M  V30 333 N 29.562 -1.4872 -0.521534 0
M  V30 334 C 30.839 -1.4766 -1.2828 0
M  V30 335 C 31.219 -0.19292 -2.10217 0
M  V30 336 O 30.567 0.825193 -2.13079 0
M  V30 337 C 30.777 -2.74358 -2.15705 0
M  V30 338 C 32.125 -3.23028 -2.75569 0
M  V30 339 O 33.149 -2.75333 -2.25987 0
M  V30 340 O 32.008 -4.0604 -3.65778 0
M  V30 341 H 29.102 -0.590085 -0.579421 0
M  V30 342 H 31.648 -1.60963 -0.537492 0
M  V30 343 H 30.42 -3.59292 -1.54999 0
M  V30 344 H 30.043 -2.63816 -2.97467 0
M  V30 345 N 31.0401 0.771051 -1.3745 0
M  V30 346 C 32.0031 1.86598 -1.33093 0
M  V30 347 C 33.0031 1.59076 -0.234845 0
M  V30 348 O 34.1931 1.67145 -0.490732 0
M  V30 349 C 31.3251 3.23747 -1.06773 0
M  V30 350 H 32.5181 1.91873 -2.30488 0
M  V30 351 H 30.0711 0.970876 -1.2249 0
M  V30 352 H 30.8061 3.24148 -0.099129 0
M  V30 353 H 30.5911 3.45115 -1.86112 0
M  V30 354 H 32.0811 4.03824 -1.06377 0
M  V30 355 N 32.5182 1.22032 0.997298 0
M  V30 356 C 33.4652 0.986467 2.08656 0
M  V30 357 C 34.4352 -0.0902671 1.65855 0
M  V30 358 O 35.6202 0.0584294 1.90711 0
M  V30 359 C 32.7602 0.565569 3.40434 0
M  V30 360 C 31.8732 1.71259 3.96604 0
M  V30 361 C 31.0082 1.24011 5.16522 0
M  V30 362 C 30.0472 2.35896 5.64818 0
M  V30 363 N 29.1842 1.89726 6.7598 0
M  V30 364 H 34.0242 1.91892 2.27994 0
M  V30 365 H 31.5612 0.956199 1.11782 0
M  V30 366 H 33.5192 0.302738 4.161 0
M  V30 367 H 32.1492 -0.329879 3.2111 0
M  V30 368 H 31.2012 2.08986 3.17851 0
M  V30 369 H 32.5132 2.55436 4.28432 0
M  V30 370 H 31.6672 0.934395 5.99461 0
M  V30 371 H 30.4062 0.368487 4.86306 0
M  V30 372 H 29.4112 2.67261 4.8047 0
M  V30 373 H 30.6362 3.23567 5.97061 0
M  V30 374 H 28.5822 1.0492 6.47555 0
M  V30 375 H 28.4992 2.67471 7.07103 0
M  V30 376 H 29.7672 1.62211 7.62435 0
M  V30 377 N 33.9963 -1.19345 1.0293 0
M  V30 378 C 35.4073 -1.70725 0.755633 0
M  V30 379 C 35.7583 -1.82326 -0.724676 0
M  V30 380 O 34.8833 -1.49471 -1.56484 0
M  V30 381 C 35.4783 -3.10084 1.36503 0
M  V30 382 C 34.0373 -3.58723 1.13994 0
M  V30 383 C 33.1843 -2.35577 1.46283 0
M  V30 384 H 36.1353 -1.0418 1.19718 0
M  V30 385 H 36.1563 -3.72787 0.762217 0
M  V30 386 H 35.6683 -3.01609 2.44241 0
M  V30 387 H 33.7693 -3.72512 0.0807901 0
M  V30 388 H 33.8823 -4.42816 1.82894 0
M  V30 389 H 32.2463 -2.38935 0.88217 0
M  V30 390 H 33.0293 -2.29731 2.55105 0
M  V30 391 N 35.4744 -0.807222 -1.35358 0
M  V30 392 C 36.3844 -0.219594 -2.3357 0
M  V30 393 C 37.4004 0.637734 -1.61892 0
M  V30 394 O 38.5764 0.549336 -1.93763 0
M  V30 395 C 35.6414 0.62158 -3.41083 0
M  V30 396 C 34.7024 -0.256315 -4.28534 0
M  V30 397 C 33.9354 0.544807 -5.30912 0
M  V30 398 O 34.1584 1.77944 -5.41934 0
M  V30 399 O 33.0924 -0.0646478 -6.01865 0
M  V30 400 H 36.9184 -1.03208 -2.85625 0
M  V30 401 H 34.5034 -0.569025 -1.38139 0
M  V30 402 H 36.3854 1.10067 -4.06772 0
M  V30 403 H 35.0604 1.41165 -2.91297 0
M  V30 404 H 33.9674 -0.782559 -3.65823 0
M  V30 405 H 35.3004 -1.01034 -4.81719 0
M  V30 406 N 36.9525 1.47285 -0.560781 0
M  V30 407 C 38.2295 1.9558 0.0277798 0
M  V30 408 C 38.6095 1.5034 1.48192 0
M  V30 409 O 37.9575 0.743882 2.16052 0
M  V30 410 C 38.1675 3.48789 -0.121418 0
M  V30 411 C 39.5155 4.24594 0.0220912 0
M  V30 412 O 40.5395 3.56166 -0.0491439 0
M  V30 413 O 39.3985 5.46217 0.175958 0
M  V30 414 H 36.4925 0.824663 0.0621342 0
M  V30 415 H 39.0385 1.5767 -0.627556 0
M  V30 416 H 37.8105 3.74533 -1.13316 0
M  V30 417 H 37.4335 3.93473 0.571366 0
M  V30 418 N 38.4306 0.297415 1.54768 0
M  V30 419 C 39.3786 -0.596051 2.24833 0
M  V30 420 C 40.3726 -1.13992 1.25308 0
M  V30 421 O 41.5786 -1.09098 1.4317 0
M  V30 422 H 37.9536 -0.210814 0.721846 0
M  V30 423 H 39.9246 0.0174667 2.98395 0
M  V30 424 C 38.6736 -1.75818 2.99972 0
M  V30 425 H 37.9966 -1.3489 3.76357 0
M  V30 426 H 39.4366 -2.35949 3.52284 0
M  V30 427 C 37.8956 -2.66014 2.06732 0
M  V30 428 O 38.4256 -3.67009 1.63302 0
M  V30 429 N 36.6316 -2.33669 1.72763 0
M  V30 430 H 36.1786 -1.51586 2.08277 0
M  V30 431 H 36.1366 -2.94285 1.10652 0
M  V30 432 N 39.9087 -1.5758 0.0250728 0
M  V30 433 C 40.8387 -2.13007 -0.956575 0
M  V30 434 C 41.8197 -1.0452 -1.342 0
M  V30 435 O 43.0047 -1.32332 -1.42133 0
M  V30 436 C 40.1347 -2.65386 -2.24026 0
M  V30 437 C 39.0887 -3.78623 -1.99571 0
M  V30 438 C 38.4147 -4.17414 -3.3417 0
M  V30 439 C 39.7147 -5.04867 -1.33814 0
M  V30 440 H 41.4087 -2.9528 -0.494991 0
M  V30 441 H 38.9547 -1.42042 -0.236651 0
M  V30 442 H 40.9077 -3.02794 -2.93076 0
M  V30 443 H 39.6317 -1.80268 -2.72343 0
M  V30 444 H 38.2907 -3.41646 -1.32941 0
M  V30 445 H 37.9387 -3.29284 -3.80238 0
M  V30 446 H 37.6387 -4.93719 -3.18615 0
M  V30 447 H 39.1627 -4.57402 -4.04495 0
M  V30 448 H 40.5767 -5.39888 -1.92857 0
M  V30 449 H 38.9737 -5.86144 -1.28669 0
M  V30 450 H 40.0437 -4.83904 -0.310561 0
M  V30 451 N 41.3868 0.248026 -1.55636 0
M  V30 452 C 42.3168 1.31079 -1.93237 0
M  V30 453 C 43.2978 1.50264 -0.797174 0
M  V30 454 O 44.4828 1.62891 -1.05737 0
M  V30 455 C 41.6128 2.66575 -2.22609 0
M  V30 456 C 40.5668 2.62087 -3.3837 0
M  V30 457 C 39.8928 4.01369 -3.53281 0
M  V30 458 C 41.1928 2.19171 -4.7409 0
M  V30 459 H 42.8868 0.998556 -2.82257 0
M  V30 460 H 40.4328 0.47891 -1.35803 0
M  V30 461 H 42.3858 3.41057 -2.47503 0
M  V30 462 H 41.1098 2.99432 -1.30414 0
M  V30 463 H 39.7688 1.90063 -3.13483 0
M  V30 464 H 39.4168 4.31489 -2.58508 0
M  V30 465 H 39.1168 3.99254 -4.31127 0
M  V30 466 H 40.6408 4.77552 -3.80495 0
M  V30 467 H 42.0548 2.83384 -4.98363 0
M  V30 468 H 40.4518 2.2817 -5.5503 0
M  V30 469 H 41.5218 1.14336 -4.71227 0
M  V30 470 N 42.8649 1.48995 0.513639 0
M  V30 471 C 44.1109 1.58076 1.27042 0
M  V30 472 C 44.4439 0.261026 1.92438 0
M  V30 473 O 43.7189 -0.734393 1.80103 0
M  V30 474 C 44.0019 2.73091 2.34719 0
M  V30 475 C 43.8549 4.14821 1.73907 0
M  V30 476 C 45.1739 2.83796 3.36375 0
M  V30 477 H 42.2929 0.575391 0.460536 0
M  V30 478 H 44.9349 1.81232 0.570516 0
M  V30 479 H 43.0849 2.53479 2.94416 0
M  V30 480 H 44.7569 4.45917 1.18135 0
M  V30 481 H 42.9999 4.21058 1.0437 0
M  V30 482 H 43.6709 4.91147 2.51949 0
M  V30 483 H 46.1469 3.01611 2.86653 0
M  V30 484 H 45.0229 3.65971 4.09093 0
M  V30 485 H 45.2839 1.92624 3.9793 0
M  V30 486 N 44.343 -0.763751 1.37857 0
M  V30 487 C 45.273 -1.89103 1.36975 0
M  V30 488 C 46.254 -1.68439 0.237152 0
M  V30 489 O 47.439 -1.8918 0.438713 0
M  V30 490 C 44.569 -3.26496 1.18395 0
M  V30 491 C 43.523 -3.61741 2.28751 0
M  V30 492 C 42.849 -4.97762 1.95286 0
M  V30 493 C 44.149 -3.67665 3.70972 0
M  V30 494 H 45.843 -1.90099 2.31307 0
M  V30 495 H 43.389 -0.91319 1.11341 0
M  V30 496 H 45.342 -4.05003 1.16406 0
M  V30 497 H 44.066 -3.25955 0.205215 0
M  V30 498 H 42.725 -2.85547 2.29909 0
M  V30 499 H 42.373 -4.93769 0.959221 0
M  V30 500 H 42.073 -5.22313 2.69189 0
M  V30 501 H 43.597 -5.7866 1.94898 0
M  V30 502 H 45.011 -4.36307 3.719 0
M  V30 503 H 43.408 -4.03718 4.43995 0
M  V30 504 H 44.478 -2.68134 4.0402 0
M  V30 505 N 45.8211 -1.22559 -0.990812 0
M  V30 506 C 47.0491 -1.07779 -1.76611 0
M  V30 507 C 47.4641 0.371513 -1.85109 0
M  V30 508 O 46.8211 1.25737 -1.32274 0
M  V30 509 C 46.8721 -1.68512 -3.19822 0
M  V30 510 O 46.5931 -3.07774 -3.1178 0
M  V30 511 C 48.0941 -1.59035 -4.13791 0
M  V30 512 H 45.3141 -0.377729 -0.554583 0
M  V30 513 H 47.8581 -1.62195 -1.24551 0
M  V30 514 H 46.0131 -1.18154 -3.68942 0
M  V30 515 H 46.4271 -3.37062 -4.01858 0
M  V30 516 H 47.9011 -2.0625 -5.1202 0
M  V30 517 H 48.3781 -0.547273 -4.35777 0
M  V30 518 H 48.9841 -2.08709 -3.70568 0
M  V30 519 N 47.2992 1.18797 -1.03562 0
M  V30 520 C 48.5452 1.8893 -0.737113 0
M  V30 521 C 48.8782 1.79837 0.732956 0
M  V30 522 O 48.1532 1.19525 1.5344 0
M  V30 523 C 48.4362 3.39607 -1.19745 0
M  V30 524 C 48.2892 3.57537 -2.72924 0
M  V30 525 C 49.6082 4.33069 -0.783526 0
M  V30 526 H 46.7272 0.686057 -0.269249 0
M  V30 527 H 49.3692 1.39797 -1.28673 0
M  V30 528 H 47.5192 3.81583 -0.729855 0
M  V30 529 H 49.1912 3.24688 -3.27682 0
M  V30 530 H 47.4342 3.00363 -3.12993 0
M  V30 531 H 48.1052 4.63238 -3.00191 0
M  V30 532 H 50.5812 3.98846 -1.18581 0
M  V30 533 H 49.4572 5.3707 -1.13343 0
M  V30 534 H 49.7182 4.40986 0.313681 0
M  V30 535 N 48.7773 0.814389 1.34928 0
M  V30 536 C 49.7403 0.235759 2.27984 0
M  V30 537 C 50.7403 -0.581412 1.49921 0
M  V30 538 O 51.9303 -0.398758 1.69575 0
M  V30 539 C 49.0623 -0.670433 3.34242 0
M  V30 540 H 50.2553 1.05659 2.80671 0
M  V30 541 H 47.8083 0.585614 1.44915 0
M  V30 542 H 48.5433 -1.51466 2.86755 0
M  V30 543 H 48.3283 -0.0860822 3.92005 0
M  V30 544 H 49.8183 -1.06935 4.03676 0
M  V30 545 N 50.2554 -1.46986 0.568584 0
M  V30 546 C 51.4834 -2.0683 0.0539956 0
M  V30 547 C 51.8984 -1.41953 -1.24478 0
M  V30 548 O 51.2554 -0.519933 -1.74937 0
M  V30 549 C 51.3064 -3.61254 -0.133362 0
M  V30 550 O 51.0274 -4.237 1.11399 0
M  V30 551 C 52.5284 -4.37992 -0.683927 0
M  V30 552 H 49.7484 -0.669058 0.0510141 0
M  V30 553 H 52.2924 -1.88824 0.785234 0
M  V30 554 H 50.4474 -3.78735 -0.81477 0
M  V30 555 H 50.8614 -5.16388 0.91888 0
M  V30 556 H 52.3354 -5.46684 -0.764263 0
M  V30 557 H 52.8124 -4.05058 -1.69778 0
M  V30 558 H 53.4184 -4.25283 -0.0378494 0
M  V30 559 N 51.7335 -0.305618 -1.54608 0
M  V30 560 C 52.6805 0.568421 -2.23691 0
M  V30 561 C 53.6505 1.12592 -1.22116 0
M  V30 562 O 54.8355 1.16959 -1.50749 0
M  V30 563 C 51.9755 1.7322 -2.98477 0
M  V30 564 C 51.0885 1.20566 -4.14835 0
M  V30 565 C 50.2235 2.33368 -4.77193 0
M  V30 566 C 49.2625 1.7787 -5.85686 0
M  V30 567 N 48.3995 2.84263 -6.4198 0
M  V30 568 H 53.2395 -0.0272867 -2.97988 0
M  V30 569 H 50.7765 -0.0252363 -1.47078 0
M  V30 570 H 52.7345 2.41675 -3.40072 0
M  V30 571 H 51.3645 2.29947 -2.26548 0
M  V30 572 H 50.4165 0.413223 -3.78149 0
M  V30 573 H 51.7285 0.759417 -4.92985 0
M  V30 574 H 50.8825 3.09761 -5.21664 0
M  V30 575 H 49.6215 2.8132 -3.98385 0
M  V30 576 H 48.6265 0.99968 -5.40635 0
M  V30 577 H 49.8515 1.30816 -6.66381 0
M  V30 578 H 47.7975 3.31541 -5.66053 0
M  V30 579 H 47.7145 2.44149 -7.15491 0
M  V30 580 H 48.9825 3.6054 -6.91109 0
M  V30 581 N 53.2116 1.57565 -0.0334293 0
M  V30 582 C 54.1216 2.13943 0.962572 0
M  V30 583 C 55.1376 1.09276 1.35406 0
M  V30 584 O 56.3136 1.41355 1.4346 0
M  V30 585 C 53.3786 2.65887 2.22497 0
M  V30 586 C 52.4396 3.85286 1.8935 0
M  V30 587 C 51.6726 4.34743 3.09571 0
M  V30 588 O 51.8956 3.83352 4.22371 0
M  V30 589 O 50.8296 5.26538 2.91618 0
M  V30 590 H 54.6556 2.99333 0.513169 0
M  V30 591 H 52.2406 1.4822 0.18743 0
M  V30 592 H 54.1226 2.99346 2.96598 0
M  V30 593 H 52.7976 1.83578 2.6661 0
M  V30 594 H 51.7046 3.56746 1.1262 0
M  V30 595 H 53.0376 4.68771 1.5005 0
M  V30 596 N 54.6897 -0.239769 1.55765 0
M  V30 597 C 55.9177 -0.98417 1.81994 0
M  V30 598 C 56.3327 -1.7867 0.610124 0
M  V30 599 O 55.6897 -1.77571 -0.421271 0
M  V30 600 C 55.7407 -1.91635 3.06526 0
M  V30 601 O 55.4617 -1.14629 4.22838 0
M  V30 602 C 56.9627 -2.77616 3.45607 0
M  V30 603 H 54.1827 -0.28928 0.605441 0
M  V30 604 H 56.7267 -0.260499 2.02834 0
M  V30 605 H 54.8817 -2.5942 2.87715 0
M  V30 606 H 55.2957 -1.77745 4.93464 0
M  V30 607 H 56.7697 -3.38759 4.35828 0
M  V30 608 H 57.2467 -3.4909 2.6652 0
M  V30 609 H 57.8527 -2.15271 3.66795 0
M  V30 610 N 56.1678 -1.49265 -0.50573 0
M  V30 611 C 57.0778 -1.68312 -1.63427 0
M  V30 612 C 58.0938 -0.565682 -1.64548 0
M  V30 613 O 59.2698 -0.839801 -1.83055 0
M  V30 614 C 56.3348 -1.74107 -2.99813 0
M  V30 615 C 55.3958 -2.97653 -3.09356 0
M  V30 616 C 54.6288 -3.03163 -4.39236 0
M  V30 617 O 54.8518 -2.16396 -5.27758 0
M  V30 618 O 53.7858 -3.9558 -4.53652 0
M  V30 619 H 57.6118 -2.63907 -1.50289 0
M  V30 620 H 55.1968 -1.32951 -0.681502 0
M  V30 621 H 57.0788 -1.803 -3.80881 0
M  V30 622 H 55.7538 -0.816901 -3.13223 0
M  V30 623 H 54.6608 -2.96981 -2.27493 0
M  V30 624 H 55.9938 -3.89535 -3.00871 0
M  V30 625 N 57.6459 0.756429 -1.3826 0
M  V30 626 C 58.8939 1.51248 -1.34047 0
M  V30 627 C 59.2149 1.94875 0.0698372 0
M  V30 628 O 58.4849 1.67436 1.01696 0
M  V30 629 H 57.0649 0.561018 -0.493222 0
M  V30 630 H 59.7269 0.899347 -1.7291 0
M  V30 631 H 58.8229 2.40472 -1.98947 0
M  V30 632 N 59.124 1.23083 0.984299 0
M  V30 633 C 60.371 1.06057 1.72505 0
M  V30 634 C 60.699 -0.403105 1.90277 0
M  V30 635 O 59.954 -1.3149 1.44944 0
M  V30 636 C 60.253 1.72673 3.1292 0
M  V30 637 C 59.919 3.22586 3.15038 0
M  V30 638 C 58.581 3.63489 3.15324 0
M  V30 639 C 60.933 4.185 3.10657 0
M  V30 640 C 58.261 4.98772 3.08939 0
M  V30 641 C 60.613 5.53769 3.05814 0
M  V30 642 C 59.277 5.94041 3.04419 0
M  V30 643 H 58.547 0.388091 0.631242 0
M  V30 644 H 61.194 1.52963 1.15215 0
M  V30 645 H 59.499 1.18116 3.73572 0
M  V30 646 H 61.196 1.56982 3.68996 0
M  V30 647 H 57.786 2.90022 3.15571 0
M  V30 648 H 61.97 3.87911 3.09579 0
M  V30 649 H 57.226 5.29193 3.0621 0
M  V30 650 H 61.4 6.27808 3.0138 0
M  V30 651 H 59.027 6.98833 2.99227 0
M  V30 652 N 60.6021 -1.18246 1.0419 0
M  V30 653 C 62.0181 -1.40269 0.761366 0
M  V30 654 C 62.2181 -1.90777 -0.648578 0
M  V30 655 O 61.2741 -2.0929 -1.41258 0
M  V30 656 C 62.5871 -2.40237 1.8085 0
M  V30 657 C 64.1351 -2.53961 1.82955 0
M  V30 658 C 64.6101 -3.57194 2.86664 0
M  V30 659 N 66.1011 -3.64702 2.85563 0
M  V30 660 C 66.8361 -4.44309 3.6246 0
M  V30 661 N 66.3321 -5.27514 4.49111 0
M  V30 662 N 68.1251 -4.39084 3.50944 0
M  V30 663 H 60.2761 -0.837882 1.95175 0
M  V30 664 H 62.5391 -0.430608 0.84456 0
M  V30 665 H 62.2451 -2.10176 2.81991 0
M  V30 666 H 62.1191 -3.39601 1.64168 0
M  V30 667 H 64.5061 -2.83338 0.824855 0
M  V30 668 H 64.5871 -1.54706 2.03715 0
M  V30 669 H 64.2311 -3.28558 3.87314 0
M  V30 670 H 64.1611 -4.5613 2.6316 0
M  V30 671 H 66.6521 -3.05289 2.22727 0
M  V30 672 H 66.9651 -5.85411 5.04493 0
M  V30 673 H 65.3101 -5.2693 4.53178 0
M  V30 674 H 68.5011 -3.7313 2.82651 0
M  V30 675 H 68.6741 -5.00883 4.11121 0
M  V30 676 N 62.0802 -0.821533 -1.34494 0
M  V30 677 C 63.4962 -0.507117 -1.51329 0
M  V30 678 C 63.6962 0.968964 -1.76673 0
M  V30 679 O 62.7522 1.75348 -1.81685 0
M  V30 680 C 64.0652 -1.36544 -2.67911 0
M  V30 681 C 65.6132 -1.36242 -2.81793 0
M  V30 682 C 66.0882 -2.2052 -4.01416 0
M  V30 683 N 67.5792 -2.18136 -4.08621 0
M  V30 684 C 68.3142 -2.80095 -5.00334 0
M  V30 685 N 67.8102 -3.51039 -5.9728 0
M  V30 686 N 69.6032 -2.69656 -4.93196 0
M  V30 687 H 61.7542 -1.77729 -1.16302 0
M  V30 688 H 64.0172 -0.757291 -0.570276 0
M  V30 689 H 63.7232 -2.41361 -2.55808 0
M  V30 690 H 63.5972 -1.02917 -3.62888 0
M  V30 691 H 65.9842 -0.322041 -2.93338 0
M  V30 692 H 66.0652 -1.73866 -1.87628 0
M  V30 693 H 65.7092 -3.24607 -3.90631 0
M  V30 694 H 65.6392 -1.80247 -4.94791 0
M  V30 695 H 68.1302 -1.6653 -3.39229 0
M  V30 696 H 68.4432 -3.95565 -6.63889 0
M  V30 697 H 66.7882 -3.55145 -5.97409 0
M  V30 698 H 69.9792 -2.13808 -4.16418 0
M  V30 699 H 70.1522 -3.1823 -5.64476 0
M  V30 700 N 63.5583 1.46682 -0.576371 0
M  V30 701 C 64.8053 2.02412 -0.0595339 0
M  V30 702 C 65.1333 1.44859 1.29793 0
M  V30 703 O 64.3883 0.601099 1.8624 0
M  V30 704 C 64.6873 3.57345 0.062886 0
M  V30 705 C 64.3533 4.33908 -1.22616 0
M  V30 706 C 63.0153 4.54544 -1.57933 0
M  V30 707 C 65.3673 4.77919 -2.07948 0
M  V30 708 C 62.6953 5.16444 -2.78393 0
M  V30 709 C 65.0473 5.41149 -3.27629 0
M  V30 710 C 63.7113 5.60014 -3.63236 0
M  V30 711 H 62.9813 0.74068 -0.021785 0
M  V30 712 H 65.6283 1.76128 -0.751735 0
M  V30 713 H 63.9333 3.82729 0.838178 0
M  V30 714 H 65.6303 3.98136 0.478439 0
M  V30 715 H 62.2203 4.18138 -0.941202 0
M  V30 716 H 66.4043 4.61738 -1.81967 0
M  V30 717 H 61.6603 5.29242 -3.06126 0
M  V30 718 H 65.8343 5.74211 -3.94023 0
M  V30 719 H 63.4613 6.07748 -4.56669 0
M  V30 720 N 65.0364 0.313813 1.54444 0
M  V30 721 C 65.9834 -0.55655 2.23989 0
M  V30 722 C 66.9534 -1.11943 1.22711 0
M  V30 723 O 68.1384 -1.16158 1.51367 0
M  V30 724 C 65.2784 -1.71635 2.99392 0
M  V30 725 C 64.3914 -1.18364 4.15468 0
M  V30 726 C 63.5264 -2.30834 4.78424 0
M  V30 727 C 62.5654 -1.74762 5.86622 0
M  V30 728 N 61.7024 -2.80855 6.43479 0
M  V30 729 H 66.5424 0.0430893 2.97969 0
M  V30 730 H 64.0794 0.0330359 1.47063 0
M  V30 731 H 66.0374 -2.39868 3.41349 0
M  V30 732 H 64.6674 -2.28742 2.27765 0
M  V30 733 H 63.7194 -0.393163 3.78363 0
M  V30 734 H 65.0314 -0.733262 4.93381 0
M  V30 735 H 64.1854 -3.0699 5.23299 0
M  V30 736 H 62.9244 -2.79204 3.99871 0
M  V30 737 H 61.9294 -0.970995 5.41158 0
M  V30 738 H 63.1544 -1.2728 6.67066 0
M  V30 739 H 61.1004 -3.28535 5.67804 0
M  V30 740 H 61.0174 -2.40351 7.16776 0
M  V30 741 H 62.2854 -3.5687 6.93011 0
M  V30 742 N 66.5145 -1.57545 0.0417849 0
M  V30 743 C 67.9305 -1.56467 -0.314704 0
M  V30 744 C 68.1305 -1.04859 -1.72066 0
M  V30 745 O 67.1865 -0.700983 -2.42575 0
M  V30 746 C 68.4995 -3.00317 -0.15174 0
M  V30 747 C 70.0475 -3.12201 -0.223553 0
M  V30 748 C 70.5225 -4.57913 -0.0892295 0
M  V30 749 N 72.0135 -4.6297 -0.145808 0
M  V30 750 C 72.7485 -5.73362 -0.0658459 0
M  V30 751 N 72.2445 -6.92769 0.0659282 0
M  V30 752 N 74.0375 -5.6197 -0.12075 0
M  V30 753 H 66.1885 -1.89416 0.961014 0
M  V30 754 H 68.4515 -0.871862 0.372237 0
M  V30 755 H 68.1575 -3.42073 0.817254 0
M  V30 756 H 68.0315 -3.65892 -0.916692 0
M  V30 757 H 70.4185 -2.70349 -1.18301 0
M  V30 758 H 70.4995 -2.49323 0.571994 0
M  V30 759 H 70.1435 -5.00448 0.866867 0
M  V30 760 H 70.0735 -5.18786 -0.903802 0
M  V30 761 H 72.5645 -3.7709 -0.247286 0
M  V30 762 H 72.8775 -7.72707 0.119905 0
M  V30 763 H 71.2225 -6.94927 0.100885 0
M  V30 764 H 74.4135 -4.67572 -0.222187 0
M  V30 765 H 74.5865 -6.47977 -0.0549735 0
M  V30 766 N 67.9926 0.231505 -1.5589 0
M  V30 767 C 69.2176 0.978689 -1.82856 0
M  V30 768 C 69.6426 1.77559 -0.620846 0
M  V30 769 O 69.0006 1.76119 0.430305 0
M  V30 770 C 69.0486 1.87997 -3.07716 0
M  V30 771 O 68.1526 2.97393 -2.85712 0
M  V30 772 H 67.4936 0.277663 -0.603158 0
M  V30 773 H 70.0236 0.24783 -2.03093 0
M  V30 774 H 70.0336 2.2917 -3.37558 0
M  V30 775 H 68.7086 1.29417 -3.95252 0
M  V30 776 H 67.2856 2.60238 -2.67078 0
M  V30 777 N 69.4707 1.49531 0.497807 0
M  V30 778 C 70.4337 1.65916 1.58128 0
M  V30 779 C 71.4337 0.530825 1.51786 0
M  V30 780 O 72.6237 0.797342 1.54881 0
M  V30 781 C 69.7557 1.65951 2.9778 0
M  V30 782 H 70.9487 2.62556 1.44929 0
M  V30 783 H 68.5017 1.38611 0.722275 0
M  V30 784 H 69.2367 0.709065 3.16453 0
M  V30 785 H 69.0217 2.47897 3.03792 0
M  V30 786 H 70.5117 1.80673 3.76493 0
M  V30 787 N 70.9488 -0.749086 1.3866 0
M  V30 788 C 71.8808 -1.87273 1.32142 0
M  V30 789 C 72.8938 -1.61127 0.232787 0
M  V30 790 O 74.0828 -1.71623 0.49069 0
M  V30 791 C 71.1828 -3.23005 1.02571 0
M  V30 792 C 70.3558 -3.7662 2.22433 0
M  V30 793 C 69.4148 -4.90879 1.89537 0
M  V30 794 O 68.4408 -5.05276 2.62078 0
M  V30 795 N 69.6428 -5.74198 0.853031 0
M  V30 796 H 72.4078 -1.93373 2.28969 0
M  V30 797 H 69.9688 -0.929216 1.32579 0
M  V30 798 H 71.9608 -3.96992 0.786085 0
M  V30 799 H 70.5308 -3.12262 0.145249 0
M  V30 800 H 69.7508 -2.94147 2.62434 0
M  V30 801 H 71.0388 -4.09173 3.02415 0
M  V30 802 H 70.4368 -5.6514 0.25155 0
M  V30 803 H 68.9938 -6.48313 0.67329 0
M  V30 804 N 72.4269 -1.23603 -0.977757 0
M  V30 805 C 73.6739 -1.06971 -1.71941 0
M  V30 806 C 74.0019 0.393009 -1.90488 0
M  V30 807 O 73.2569 1.30719 -1.4564 0
M  V30 808 C 73.5559 -1.7433 -3.11999 0
M  V30 809 C 73.2219 -3.24252 -3.13323 0
M  V30 810 C 71.8839 -3.65156 -3.13392 0
M  V30 811 C 74.2359 -4.20141 -3.08433 0
M  V30 812 C 71.5639 -5.00403 -3.0629 0
M  V30 813 C 73.9159 -5.55384 -3.02873 0
M  V30 814 C 72.5799 -5.95647 -3.01265 0
M  V30 815 H 71.8499 -0.391433 -0.629175 0
M  V30 816 H 74.4969 -1.53572 -1.14403 0
M  V30 817 H 72.8019 -1.20096 -3.7294 0
M  V30 818 H 74.4989 -1.58936 -3.68158 0
M  V30 819 H 71.0889 -2.91692 -3.14029 0
M  V30 820 H 75.2729 -3.89547 -3.07517 0
M  V30 821 H 70.5289 -5.3081 -3.03399 0
M  V30 822 H 74.7029 -6.29398 -2.98046 0
M  V30 823 H 72.3299 -7.0041 -2.95516 0
M  V30 824 N 73.905 1.17692 -1.04816 0
M  V30 825 C 75.152 1.87859 -0.75599 0
M  V30 826 C 75.48 1.80812 0.716752 0
M  V30 827 O 74.735 1.20819 1.53952 0
M  V30 828 C 75.034 3.37462 -1.17703 0
M  V30 829 C 74.7 3.64713 -2.65133 0
M  V30 830 C 73.362 3.71859 -3.05408 0
M  V30 831 C 75.714 3.76492 -3.60421 0
M  V30 832 C 73.042 3.88271 -4.39843 0
M  V30 833 C 75.394 3.94421 -4.94585 0
M  V30 834 C 74.058 3.99806 -5.3452 0
M  V30 835 H 73.328 0.687425 -0.276636 0
M  V30 836 H 75.975 1.39255 -1.31455 0
M  V30 837 H 74.28 3.88097 -0.537395 0
M  V30 838 H 75.977 3.90109 -0.928218 0
M  V30 839 H 72.567 3.59772 -2.32942 0
M  V30 840 H 76.751 3.70295 -3.30447 0
M  V30 841 H 72.007 3.90687 -4.70291 0
M  V30 842 H 76.181 4.02477 -5.68318 0
M  V30 843 H 73.808 4.12276 -6.38696 0
M  V30 844 N 75.3831 0.828654 1.34056 0
M  V30 845 C 76.3311 0.242973 2.31327 0
M  V30 846 C 77.3251 -0.61944 1.57668 0
M  V30 847 O 78.5311 -0.51014 1.7262 0
M  V30 848 H 74.9061 0.059834 0.749616 0
M  V30 849 H 76.8771 1.07809 2.78244 0
M  V30 850 C 75.6261 -0.575733 3.429 0
M  V30 851 H 74.9491 0.0785582 3.99723 0
M  V30 852 H 76.3891 -0.951547 4.13185 0
M  V30 853 C 74.8481 -1.75044 2.87856 0
M  V30 854 O 75.3781 -2.84882 2.83205 0
M  V30 855 N 73.5841 -1.56903 2.44602 0
M  V30 856 H 73.1311 -0.675547 2.48584 0
M  V30 857 H 73.0891 -2.35652 2.08124 0
M  V30 858 N 76.8612 -1.46375 0.584142 0
M  V30 859 C 78.0912 -2.06461 0.0758195 0
M  V30 860 C 78.4992 -1.43322 -1.23512 0
M  V30 861 O 77.8422 -0.533216 -1.75791 0
M  V30 862 C 77.9042 -3.59131 -0.162773 0
M  V30 863 C 77.5682 -4.4447 1.06279 0
M  V30 864 C 78.5652 -4.80918 1.97519 0
M  V30 865 C 76.2502 -4.85584 1.28504 0
M  V30 866 C 78.2442 -5.57309 3.09331 0
M  V30 867 C 75.9312 -5.61734 2.4062 0
M  V30 868 C 76.9292 -5.9751 3.30863 0
M  V30 869 O 76.6172 -6.72121 4.41032 0
M  V30 870 H 76.3492 -0.673745 0.0551725 0
M  V30 871 H 78.9032 -1.88969 0.804984 0
M  V30 872 H 77.1332 -3.74936 -0.946565 0
M  V30 873 H 78.8222 -4.0114 -0.619782 0
M  V30 874 H 79.5882 -4.49732 1.81565 0
M  V30 875 H 75.4672 -4.57187 0.591702 0
M  V30 876 H 79.0112 -5.85152 3.79793 0
M  V30 877 H 74.9082 -5.92334 2.56537 0
M  V30 878 H 75.6762 -6.90547 4.39417 0
M  V30 879 N 78.3393 -0.321999 -1.54275 0
M  V30 880 C 79.2863 0.544664 -2.24281 0
M  V30 881 C 80.2563 1.1129 -1.23303 0
M  V30 882 O 81.4413 1.15354 -1.51981 0
M  V30 883 C 78.5813 1.70045 -3.00298 0
M  V30 884 C 77.6943 1.16159 -4.1609 0
M  V30 885 C 76.8293 2.28293 -4.79641 0
M  V30 886 C 75.8683 1.71648 -5.8754 0
M  V30 887 N 75.0053 2.77438 -6.44959 0
M  V30 888 H 79.8453 -0.0588907 -2.97942 0
M  V30 889 H 77.3823 -0.0408345 -1.47043 0
M  V30 890 H 79.3403 2.38054 -3.42616 0
M  V30 891 H 77.9703 2.27531 -2.28975 0
M  V30 892 H 77.0223 0.373092 -3.78566 0
M  V30 893 H 78.3343 0.707087 -4.93763 0
M  V30 894 H 77.4883 3.0421 -5.2492 0
M  V30 895 H 76.2273 2.77079 -4.01346 0
M  V30 896 H 75.2323 0.942282 -5.41665 0
M  V30 897 H 76.4573 1.23741 -6.67731 0
M  V30 898 H 74.4033 3.25519 -5.69538 0
M  V30 899 H 74.3203 2.36547 -7.1804 0
M  V30 900 H 75.5883 3.53189 -6.94894 0
M  V30 901 N 79.8174 1.5752 -0.0501392 0
M  V30 902 C 81.0664 1.91827 0.623328 0
M  V30 903 C 81.3794 0.930222 1.72065 0
M  V30 904 O 82.5854 1.1653 2.4522 0
M  V30 905 C 81.0414 3.40692 1.16003 0
M  V30 906 C 80.6494 4.479 0.0948811 0
M  V30 907 C 82.3934 3.84034 1.80881 0
M  V30 908 C 80.3004 5.87879 0.644411 0
M  V30 909 H 79.2304 0.715918 0.236596 0
M  V30 910 H 81.8814 1.83115 -0.118861 0
M  V30 911 H 80.2634 3.44405 1.9545 0
M  V30 912 H 81.4374 4.55775 -0.678675 0
M  V30 913 H 79.7524 4.13892 -0.45637 0
M  V30 914 H 82.3494 4.85984 2.22988 0
M  V30 915 H 82.6924 3.20225 2.6601 0
M  V30 916 H 83.2254 3.82833 1.0809 0
M  V30 917 H 79.9644 6.55282 -0.169229 0
M  V30 918 H 79.4844 5.83567 1.38598 0
M  V30 919 H 81.1634 6.37098 1.12763 0
M  V30 920 N 81.2955 -0.223234 1.56011 0
M  V30 921 C 82.2275 -1.30006 1.88762 0
M  V30 922 C 83.2405 -1.43129 0.775746 0
M  V30 923 O 84.4295 -1.44057 1.05403 0
M  V30 924 C 81.5295 -2.67589 2.07965 0
M  V30 925 C 80.7025 -2.76434 3.38973 0
M  V30 926 C 79.7615 -3.95019 3.47629 0
M  V30 927 O 78.7875 -3.83436 4.20672 0
M  V30 928 N 79.9895 -5.09249 2.78649 0
M  V30 929 H 82.7545 -1.02238 2.81722 0
M  V30 930 H 80.3155 -0.413278 1.56536 0
M  V30 931 H 82.3075 -3.45297 2.11073 0
M  V30 932 H 80.8775 -2.87964 1.21638 0
M  V30 933 H 80.0975 -1.85216 3.47978 0
M  V30 934 H 81.3855 -2.79313 4.25278 0
M  V30 935 H 80.7835 -5.21556 2.19081 0
M  V30 936 H 79.3405 -5.85007 2.8742 0
M  V30 937 N 82.7736 -1.49793 -0.48987 0
M  V30 938 C 83.7366 -1.66752 -1.57246 0
M  V30 939 C 84.7366 -0.538867 -1.51502 0
M  V30 940 O 85.9266 -0.805545 -1.54456 0
M  V30 941 C 83.0586 -1.67528 -2.96896 0
M  V30 942 H 84.2516 -2.63321 -1.43534 0
M  V30 943 H 81.8046 -1.38992 -0.714914 0
M  V30 944 H 82.5396 -0.725837 -3.16073 0
M  V30 945 H 82.3246 -2.49504 -3.02473 0
M  V30 946 H 83.8146 -1.82667 -3.7553 0
M  V30 947 N 84.2517 0.741722 -1.39055 0
M  V30 948 C 85.1817 1.869 -1.39966 0
M  V30 949 C 86.1627 1.6804 -0.26392 0
M  V30 950 O 87.3477 1.88458 -0.468755 0
M  V30 951 C 84.4777 3.24572 -1.23574 0
M  V30 952 C 83.4317 3.58056 -2.34477 0
M  V30 953 C 82.7577 4.94593 -2.0318 0
M  V30 954 C 84.0577 3.61716 -3.76774 0
M  V30 955 H 85.7517 1.86395 -2.34302 0
M  V30 956 H 83.2977 0.895361 -1.1278 0
M  V30 957 H 85.2507 4.031 -1.22834 0
M  V30 958 H 83.9747 3.25587 -0.257045 0
M  V30 959 H 82.6337 2.81854 -2.34423 0
M  V30 960 H 82.2817 4.92181 -1.03765 0
M  V30 961 H 81.9817 5.17964 -2.77465 0
M  V30 962 H 83.5057 5.75486 -2.04079 0
M  V30 963 H 84.9197 4.30335 -3.78794 0
M  V30 964 H 83.3167 3.96603 -4.50362 0
M  V30 965 H 84.3867 2.61672 -4.08235 0
M  V30 966 N 85.7298 1.2412 0.971189 0
M  V30 967 C 86.9778 1.07668 1.71032 0
M  V30 968 C 87.2988 -0.385797 1.91146 0
M  V30 969 O 86.5688 -1.27569 1.4867 0
M  V30 970 H 85.1488 0.395429 0.633755 0
M  V30 971 H 87.8108 1.55984 1.16855 0
M  V30 972 H 86.9068 1.57195 2.69622 0
M  V30 973 N 87.2079 -1.17134 1.05439 0
M  V30 974 C 88.1379 -2.2342 0.678649 0
M  V30 975 C 89.1189 -1.66971 -0.32476 0
M  V30 976 O 90.3039 -1.93149 -0.201802 0
M  V30 977 C 87.4339 -3.47256 0.0552099 0
M  V30 978 C 86.3879 -4.16543 0.98365 0
M  V30 979 C 85.7139 -5.34231 0.223961 0
M  V30 980 C 87.0139 -4.68495 2.3089 0
M  V30 981 H 88.7079 -2.55105 1.56722 0
M  V30 982 H 86.2539 -1.2262 0.754998 0
M  V30 983 H 88.2069 -4.20828 -0.21946 0
M  V30 984 H 86.9309 -3.14846 -0.868319 0
M  V30 985 H 85.5899 -3.44887 1.24293 0
M  V30 986 H 85.2379 -4.98071 -0.702412 0
M  V30 987 H 84.9379 -5.81527 0.842627 0
M  V30 988 H 86.4619 -6.10585 -0.0433671 0
M  V30 989 H 87.8759 -5.33691 2.09396 0
M  V30 990 H 86.2729 -5.26379 2.88176 0
M  V30 991 H 87.3429 -3.85169 2.94572 0
M  V30 992 N 88.686 -0.835752 -1.33615 0
M  V30 993 C 89.934 -0.429109 -1.97492 0
M  V30 994 C 90.255 1.01433 -1.66543 0
M  V30 995 O 89.525 1.70611 -0.962744 0
M  V30 996 H 88.105 -0.155686 -0.730596 0
M  V30 997 H 90.767 -1.06802 -1.63031 0
M  V30 998 H 89.863 -0.55861 -3.0706 0
M  V30 999 N 90.1641 1.46063 -0.591896 0
M  V30 1000 C 91.0741 2.34192 0.13831 0
M  V30 1001 C 92.0901 1.50305 0.876608 0
M  V30 1002 O 93.2661 1.8315 0.837728 0
M  V30 1003 C 90.3311 3.27656 1.13326 0
M  V30 1004 C 89.3921 4.27445 0.39863 0
M  V30 1005 C 88.6251 5.16443 1.34618 0
M  V30 1006 O 88.8481 5.08553 2.58321 0
M  V30 1007 O 87.7821 5.95843 0.851768 0
M  V30 1008 H 91.6081 2.98002 -0.58552 0
M  V30 1009 H 89.1931 1.45188 -0.352239 0
M  V30 1010 H 91.0751 3.85291 1.70671 0
M  V30 1011 H 89.7501 2.6643 1.83839 0
M  V30 1012 H 88.6571 3.73471 -0.216895 0
M  V30 1013 H 89.9901 4.91482 -0.265709 0
M  V30 1014 N 91.6422 0.330177 1.54103 0
M  V30 1015 C 92.9192 -0.325007 1.92881 0
M  V30 1016 C 93.2992 -1.6934 1.26045 0
M  V30 1017 O 92.6472 -2.24855 0.406526 0
M  V30 1018 C 92.8572 -0.410634 3.46576 0
M  V30 1019 C 94.2052 -0.667801 4.19316 0
M  V30 1020 O 95.2292 -0.49329 3.52768 0
M  V30 1021 O 94.0882 -1.00491 5.37181 0
M  V30 1022 H 91.1822 -0.186873 0.80561 0
M  V30 1023 H 93.7282 0.380376 1.65382 0
M  V30 1024 H 92.5002 0.550164 3.87413 0
M  V30 1025 H 92.1232 -1.16333 3.802 0
M  V30 1026 N 93.1203 -1.57491 0.0584922 0
M  V30 1027 C 94.3663 -1.94081 -0.608617 0
M  V30 1028 C 94.7213 -0.937438 -1.68017 0
M  V30 1029 O 94.0143 0.0423034 -1.91553 0
M  V30 1030 C 94.2083 -3.3513 -1.24188 0
M  V30 1031 C 94.0373 -4.49095 -0.233187 0
M  V30 1032 C 92.8073 -5.04988 0.177439 0
M  V30 1033 C 95.0053 -5.1162 0.524306 0
M  V30 1034 N 92.9873 -6.02487 1.17823 0
M  V30 1035 C 94.3583 -6.04493 1.37796 0
M  V30 1036 C 96.4133 -4.94489 0.581822 0
M  V30 1037 C 95.1163 -6.82075 2.28399 0
M  V30 1038 C 97.1423 -5.72703 1.47531 0
M  V30 1039 C 96.5043 -6.65214 2.31667 0
M  V30 1040 H 92.6033 -0.75752 -0.194134 0
M  V30 1041 H 95.1873 -1.94248 0.132533 0
M  V30 1042 H 93.3583 -3.35726 -1.95302 0
M  V30 1043 H 95.0903 -3.5899 -1.86838 0
M  V30 1044 H 91.8453 -4.73165 -0.203004 0
M  V30 1045 H 92.2693 -6.55933 1.67573 0
M  V30 1046 H 96.9113 -4.22765 -0.054443 0
M  V30 1047 H 94.6293 -7.53085 2.93067 0
M  V30 1048 H 98.2153 -5.61472 1.52448 0
M  V30 1049 H 97.0953 -7.24679 2.99683 0
M  V30 1050 N 94.5984 0.214957 -1.56127 0
M  V30 1051 C 95.5464 1.28601 -1.93816 0
M  V30 1052 C 96.5404 1.48175 -0.821016 0
M  V30 1053 O 97.7464 1.49271 -1.0059 0
M  V30 1054 H 94.1214 0.431302 -0.616022 0
M  V30 1055 H 96.0924 0.940991 -2.83175 0
M  V30 1056 C 94.8414 2.62779 -2.27689 0
M  V30 1057 H 94.1644 2.48527 -3.13168 0
M  V30 1058 H 95.6044 3.36517 -2.57939 0
M  V30 1059 C 94.0634 3.18285 -1.10436 0
M  V30 1060 O 94.5934 4.00002 -0.368945 0
M  V30 1061 N 92.7994 2.7675 -0.886433 0
M  V30 1062 H 92.3464 2.10404 -1.48619 0
M  V30 1063 H 92.3044 3.14229 -0.103656 0
M  V30 1064 N 96.0765 1.50051 0.48192 0
M  V30 1065 C 97.3225 1.60736 1.2366 0
M  V30 1066 C 97.6555 0.301786 1.91841 0
M  V30 1067 O 96.9305 -0.696025 1.8162 0
M  V30 1068 C 97.2135 2.78009 2.28874 0
M  V30 1069 C 97.0665 4.18416 1.65069 0
M  V30 1070 C 98.3855 2.90867 3.30279 0
M  V30 1071 H 95.5045 0.585031 0.448228 0
M  V30 1072 H 98.1465 1.82402 0.531946 0
M  V30 1073 H 96.2965 2.59667 2.88973 0
M  V30 1074 H 97.9685 4.48322 1.0865 0
M  V30 1075 H 96.2115 4.23177 0.954148 0
M  V30 1076 H 96.8825 4.96381 2.41474 0
M  V30 1077 H 99.3585 3.07623 2.80191 0
M  V30 1078 H 98.2345 3.74566 4.01238 0
M  V30 1079 H 98.4955 2.01021 3.93755 0
M  V30 1080 N 97.5546 -0.734337 1.39446 0
M  V30 1081 C 98.4646 -1.87879 1.40495 0
M  V30 1082 C 99.4806 -1.714 0.299672 0
M  V30 1083 O 100.657 -1.93991 0.541249 0
M  V30 1084 C 97.7216 -3.23477 1.24754 0
M  V30 1085 C 96.7826 -3.52344 2.45259 0
M  V30 1086 C 96.0156 -4.81473 2.30259 0
M  V30 1087 O 96.2386 -5.55237 1.30643 0
M  V30 1088 O 95.1726 -5.10254 3.19256 0
M  V30 1089 H 98.9986 -1.89949 2.36966 0
M  V30 1090 H 96.5836 -0.882243 1.20569 0
M  V30 1091 H 98.4656 -4.04509 1.18111 0
M  V30 1092 H 97.1406 -3.22176 0.313781 0
M  V30 1093 H 96.0476 -2.71396 2.57478 0
M  V30 1094 H 97.3806 -3.58426 3.37331 0
M  V30 1095 N 99.0327 -1.24633 -0.964593 0
M  V30 1096 C 99.9797 -1.04144 -2.05968 0
M  V30 1097 C 100.95 0.046262 -1.66036 0
M  V30 1098 O 102.135 -0.108972 -1.90489 0
M  V30 1099 C 99.2747 -0.65563 -3.38815 0
M  V30 1100 C 98.3877 -1.81714 -3.91923 0
M  V30 1101 C 97.5227 -1.37662 -5.13052 0
M  V30 1102 C 96.5617 -2.50788 -5.58365 0
M  V30 1103 N 95.6987 -2.07582 -6.70712 0
M  V30 1104 H 100.539 -1.9787 -2.22827 0
M  V30 1105 H 98.0757 -0.9855 -1.09208 0
M  V30 1106 H 100.034 -0.412954 -4.15151 0
M  V30 1107 H 98.6637 0.244627 -3.21872 0
M  V30 1108 H 97.7157 -2.1734 -3.12198 0
M  V30 1109 H 99.0277 -2.66705 -4.21509 0
M  V30 1110 H 98.1817 -1.093 -5.96773 0
M  V30 1111 H 96.9207 -0.497293 -4.85158 0
M  V30 1112 H 95.9257 -2.79906 -4.73215 0
M  V30 1113 H 97.1507 -3.39283 -5.88272 0
M  V30 1114 H 95.0967 -1.22051 -6.44546 0
M  V30 1115 H 95.0137 -2.86125 -6.99763 0
M  V30 1116 H 96.2817 -1.82369 -7.57867 0
M  V30 1117 N 100.511 1.16574 -1.06058 0
M  V30 1118 C 101.759 1.86677 -0.77434 0
M  V30 1119 C 102.08 1.81959 0.701147 0
M  V30 1120 O 101.35 1.2515 1.50713 0
M  V30 1121 H 99.9298 0.691134 -0.283449 0
M  V30 1122 H 102.592 1.41378 -1.34158 0
M  V30 1123 H 101.688 2.92181 -1.09711 0
M  V30 1124 N 101.989 0.842826 1.3317 0
M  V30 1125 C 103.217 0.454055 2.01856 0
M  V30 1126 C 103.632 -0.94587 1.63397 0
M  V30 1127 O 102.989 -1.61534 0.849302 0
M  V30 1128 C 103.04 0.569715 3.56982 0
M  V30 1129 O 102.761 1.91448 3.94055 0
M  V30 1130 C 104.262 0.178412 4.42941 0
M  V30 1131 H 101.482 0.17979 0.646465 0
M  V30 1132 H 104.026 1.1365 1.70012 0
M  V30 1133 H 102.181 -0.0648587 3.87346 0
M  V30 1134 H 102.595 1.90282 4.88767 0
M  V30 1135 H 104.069 0.310376 5.51127 0
M  V30 1136 H 104.546 -0.880056 4.30293 0
M  V30 1137 H 105.152 0.787579 4.17944 0
M  V30 1138 N 103.467 -1.45747 0.599634 0
M  V30 1139 C 104.692 -2.07178 0.0960198 0
M  V30 1140 C 105.117 -1.44268 -1.207 0
M  V30 1141 O 104.475 -0.532503 -1.73303 0
M  V30 1142 C 104.523 -3.60579 -0.0385348 0
M  V30 1143 O 103.627 -3.97713 -1.0908 0
M  V30 1144 H 102.968 -0.660251 0.0704593 0
M  V30 1145 H 105.498 -1.87124 0.827385 0
M  V30 1146 H 105.508 -4.07298 -0.239304 0
M  V30 1147 H 104.183 -4.05756 0.912947 0
M  V30 1148 H 102.76 -3.62678 -0.867135 0
M  V30 1149 N 104.945 -0.338344 -1.53925 0
M  V30 1150 C 105.908 0.508299 -2.23493 0
M  V30 1151 C 106.908 1.03175 -1.23335 0
M  V30 1152 O 108.098 0.921826 -1.47811 0
M  V30 1153 C 105.23 1.70754 -2.95052 0
M  V30 1154 H 106.423 -0.100058 -2.99733 0
M  V30 1155 H 103.976 -0.0896198 -1.56043 0
M  V30 1156 H 104.711 2.35474 -2.22986 0
M  V30 1157 H 104.496 1.33946 -3.68512 0
M  V30 1158 H 105.986 2.30818 -3.48013 0
M  V30 1159 N 106.423 1.57458 -0.0668435 0
M  V30 1160 C 107.671 1.92919 0.602214 0
M  V30 1161 C 107.992 0.947215 1.70449 0
M  V30 1162 O 107.262 -0.00544117 1.95899 0
M  V30 1163 H 105.842 0.71217 0.22544 0
M  V30 1164 H 108.504 1.94508 -0.123535 0
M  V30 1165 H 107.6 2.94589 1.03073 0
M  V30 1166 N 107.901 -0.206675 1.56239 0
M  V30 1167 C 109.149 -0.927007 1.79586 0
M  V30 1168 C 109.47 -1.8427 0.637929 0
M  V30 1169 O 108.74 -1.92849 -0.344398 0
M  V30 1170 H 107.32 -0.345292 0.662407 0
M  V30 1171 H 109.982 -0.21496 1.93711 0
M  V30 1172 H 109.078 -1.52501 2.72305 0
M  V30 1173 N 109.379 -1.50304 -0.473955 0
M  V30 1174 C 110.627 -1.60832 -1.22382 0
M  V30 1175 C 110.948 -0.30939 -1.9253 0
M  V30 1176 O 110.218 0.67296 -1.83978 0
M  V30 1177 H 108.798 -0.592652 -0.454723 0
M  V30 1178 H 111.46 -1.87068 -0.546968 0
M  V30 1179 H 110.556 -2.41803 -1.97327 0
M  V30 1180 N 110.857 0.726932 -1.39834 0
M  V30 1181 C 111.789 1.85147 -1.35104 0
M  V30 1182 C 112.802 1.60736 -0.258392 0
M  V30 1183 O 113.991 1.70821 -0.517931 0
M  V30 1184 C 111.091 3.21332 -1.07697 0
M  V30 1185 C 110.264 3.73033 -2.28396 0
M  V30 1186 C 109.323 4.87802 -1.97322 0
M  V30 1187 O 108.349 5.01043 -2.70083 0
M  V30 1188 N 109.551 5.72768 -0.944273 0
M  V30 1189 H 112.316 1.89706 -2.32017 0
M  V30 1190 H 109.877 0.908006 -1.3404 0
M  V30 1191 H 111.869 3.95691 -0.849144 0
M  V30 1192 H 110.439 3.11992 -0.194909 0
M  V30 1193 H 109.659 2.89934 -2.6708 0
M  V30 1194 H 110.947 4.0431 -3.08887 0
M  V30 1195 H 110.345 5.64669 -0.341427 0
M  V30 1196 H 108.902 6.4716 -0.776346 0
M  V30 1197 N 112.336 1.25143 0.95797 0
M  V30 1198 C 113.283 1.05235 2.05412 0
M  V30 1199 C 114.253 -0.0374561 1.66058 0
M  V30 1200 O 115.438 0.119073 1.90428 0
M  V30 1201 C 112.578 0.673589 3.38462 0
M  V30 1202 C 111.691 1.8379 3.90954 0
M  V30 1203 C 110.826 1.40381 5.12315 0
M  V30 1204 C 109.865 2.53746 5.57027 0
M  V30 1205 N 109.002 2.11136 6.69601 0
M  V30 1206 H 113.842 1.99048 2.21774 0
M  V30 1207 H 111.379 0.991277 1.08683 0
M  V30 1208 H 113.337 0.434964 4.14926 0
M  V30 1209 H 111.967 -0.227554 3.21997 0
M  V30 1210 H 111.019 2.18992 3.11041 0
M  V30 1211 H 112.331 2.68937 4.20089 0
M  V30 1212 H 111.485 1.12464 5.96185 0
M  V30 1213 H 110.224 0.523015 4.84887 0
M  V30 1214 H 109.229 2.82412 4.71724 0
M  V30 1215 H 110.454 3.42398 5.86464 0
M  V30 1216 H 108.4 1.25468 6.4389 0
M  V30 1217 H 108.317 2.89832 6.98236 0
M  V30 1218 H 109.585 1.86385 7.56889 0
M  V30 1219 N 113.814 -1.1601 1.06675 0
M  V30 1220 C 115.06 -1.86909 0.786945 0
M  V30 1221 C 115.393 -1.81717 -0.685018 0
M  V30 1222 O 114.668 -1.23551 -1.50218 0
M  V30 1223 C 114.951 -3.36313 1.28707 0
M  V30 1224 C 114.804 -3.50175 2.82308 0
M  V30 1225 C 116.123 -4.3084 0.898071 0
M  V30 1226 H 113.242 -0.678677 0.287343 0
M  V30 1227 H 115.884 -1.36336 1.32334 0
M  V30 1228 H 114.034 -3.79513 0.830768 0
M  V30 1229 H 115.706 -3.15886 3.36175 0
M  V30 1230 H 113.949 -2.91959 3.20847 0
M  V30 1231 H 114.62 -4.55116 3.12368 0
M  V30 1232 H 117.096 -3.95561 1.29114 0
M  V30 1233 H 115.972 -5.33876 1.27543 0
M  V30 1234 H 116.233 -4.41662 -0.196651 0
M  V30 1235 N 115.292 -0.849877 -1.32721 0
M  V30 1236 C 116.708 -0.539102 -1.50219 0
M  V30 1237 C 116.908 0.931271 -1.78689 0
M  V30 1238 O 115.964 1.71455 -1.85363 0
M  V30 1239 C 117.277 -1.42196 -2.64954 0
M  V30 1240 C 118.825 -1.42189 -2.78839 0
M  V30 1241 C 119.3 -2.28985 -3.96648 0
M  V30 1242 N 120.791 -2.26754 -4.03902 0
M  V30 1243 C 121.526 -2.90644 -4.94281 0
M  V30 1244 N 121.022 -3.63629 -5.897 0
M  V30 1245 N 122.815 -2.80057 -4.87365 0
M  V30 1246 H 114.966 -1.80156 -1.12506 0
M  V30 1247 H 117.229 -0.769217 -0.554085 0
M  V30 1248 H 116.935 -2.46733 -2.50631 0
M  V30 1249 H 116.809 -1.10591 -3.60624 0
M  V30 1250 H 119.196 -0.38419 -2.92588 0
M  V30 1251 H 119.277 -1.77807 -1.83898 0
M  V30 1252 H 118.921 -3.32819 -3.83658 0
M  V30 1253 H 118.851 -1.90702 -4.90857 0
M  V30 1254 H 121.342 -1.73688 -3.3562 0
M  V30 1255 H 121.655 -4.09558 -6.55349 0
M  V30 1256 H 120 -3.67737 -5.89741 0
M  V30 1257 H 123.191 -2.22593 -4.11789 0
M  V30 1258 H 123.364 -3.30132 -5.57599 0
M  V30 1259 N 116.77 1.45427 -0.607355 0
M  V30 1260 C 117.7 2.3329 0.0989352 0
M  V30 1261 C 118.681 1.46816 0.859007 0
M  V30 1262 O 119.866 1.75588 0.829604 0
M  V30 1263 C 116.996 3.29518 1.09705 0
M  V30 1264 C 115.95 4.25626 0.450206 0
M  V30 1265 C 115.276 5.11542 1.55655 0
M  V30 1266 C 116.576 5.18505 -0.628455 0
M  V30 1267 H 118.27 2.92595 -0.634716 0
M  V30 1268 H 115.816 1.40696 -0.306681 0
M  V30 1269 H 117.769 3.89855 1.59971 0
M  V30 1270 H 116.493 2.68372 1.86129 0
M  V30 1271 H 115.152 3.66586 -0.0315886 0
M  V30 1272 H 114.8 4.46765 2.31107 0
M  V30 1273 H 114.5 5.76647 1.12925 0
M  V30 1274 H 116.024 5.74748 2.06148 0
M  V30 1275 H 117.438 5.72916 -0.209877 0
M  V30 1276 H 115.835 5.92085 -0.977489 0
M  V30 1277 H 116.905 4.60948 -1.50514 0
M  V30 1278 N 118.248 0.346503 1.53744 0
M  V30 1279 C 119.178 -0.501193 2.28058 0
M  V30 1280 C 120.159 -1.10014 1.29734 0
M  V30 1281 O 121.344 -1.12097 1.58581 0
M  V30 1282 C 118.474 -1.65078 3.05559 0
M  V30 1283 C 117.428 -1.18003 4.11411 0
M  V30 1284 C 116.754 -2.41837 4.76884 0
M  V30 1285 C 118.054 -0.278394 5.21558 0
M  V30 1286 H 119.748 0.11875 2.99164 0
M  V30 1287 H 117.294 0.0585531 1.43881 0
M  V30 1288 H 119.247 -2.25028 3.56287 0
M  V30 1289 H 117.971 -2.29767 2.32109 0
M  V30 1290 H 116.63 -0.603331 3.61601 0
M  V30 1291 H 116.278 -3.0494 4.00026 0
M  V30 1292 H 115.978 -2.1102 5.48402 0
M  V30 1293 H 117.502 -3.02508 5.30397 0
M  V30 1294 H 118.916 -0.784823 5.67903 0
M  V30 1295 H 117.313 -0.0619707 6.00068 0
M  V30 1296 H 118.383 0.684677 4.80042 0
M  V30 1297 N 119.726 -1.57421 0.075193 0
M  V30 1298 C 120.673 -2.12915 -0.890843 0
M  V30 1299 C 121.643 -1.04252 -1.29309 0
M  V30 1300 O 122.828 -1.31933 -1.37834 0
M  V30 1301 C 119.968 -2.69795 -2.15186 0
M  V30 1302 C 119.081 -3.92624 -1.80194 0
M  V30 1303 C 118.216 -4.37736 -3.00933 0
M  V30 1304 C 117.255 -5.53205 -2.61974 0
M  V30 1305 N 116.392 -5.9326 -3.75483 0
M  V30 1306 H 121.232 -2.95156 -0.410735 0
M  V30 1307 H 118.769 -1.45854 -0.191086 0
M  V30 1308 H 120.727 -3.00883 -2.89008 0
M  V30 1309 H 119.357 -1.90313 -2.60731 0
M  V30 1310 H 118.409 -3.67977 -0.964218 0
M  V30 1311 H 119.721 -4.76482 -1.47534 0
M  V30 1312 H 118.875 -4.70503 -3.8303 0
M  V30 1313 H 117.614 -3.52739 -3.36789 0
M  V30 1314 H 116.619 -5.20086 -1.783 0
M  V30 1315 H 117.844 -6.39936 -2.27284 0
M  V30 1316 H 115.79 -5.11212 -4.11094 0
M  V30 1317 H 115.707 -6.71865 -3.46602 0
M  V30 1318 H 116.975 -6.30651 -4.58148 0
M  V30 1319 N 121.204 0.198386 -1.56346 0
M  V30 1320 C 122.151 1.24589 -1.94284 0
M  V30 1321 C 123.121 1.454 -0.802997 0
M  V30 1322 O 124.306 1.58588 -1.06087 0
M  V30 1323 C 121.446 2.58631 -2.28482 0
M  V30 1324 C 120.559 2.45426 -3.55514 0
M  V30 1325 C 119.694 3.7215 -3.79049 0
M  V30 1326 C 118.733 3.53763 -4.99518 0
M  V30 1327 N 117.87 4.72491 -5.19323 0
M  V30 1328 H 122.71 0.915356 -2.83593 0
M  V30 1329 H 120.247 0.440629 -1.40346 0
M  V30 1330 H 122.205 3.3672 -2.46324 0
M  V30 1331 H 120.835 2.89734 -1.42317 0
M  V30 1332 H 119.887 1.58652 -3.45737 0
M  V30 1333 H 121.199 2.27772 -4.43758 0
M  V30 1334 H 120.353 4.58679 -3.97113 0
M  V30 1335 H 119.092 3.92754 -2.89129 0
M  V30 1336 H 118.097 2.65619 -4.8138 0
M  V30 1337 H 119.322 3.34607 -5.90944 0
M  V30 1338 H 117.268 4.93365 -4.3235 0
M  V30 1339 H 117.185 4.5765 -6.01741 0
M  V30 1340 H 118.453 5.6038 -5.41843 0
M  V30 1341 N 122.682 1.50554 0.465978 0
M  V30 1342 C 123.645 1.69233 1.54574 0
M  V30 1343 C 124.645 0.562901 1.50626 0
M  V30 1344 O 125.835 0.830016 1.53155 0
M  V30 1345 C 122.967 1.7223 2.94193 0
M  V30 1346 H 124.16 2.65571 1.39327 0
M  V30 1347 H 121.713 1.40111 0.692711 0
M  V30 1348 H 122.448 0.77603 3.14878 0
M  V30 1349 H 122.233 2.54285 2.98466 0
M  V30 1350 H 123.723 1.88618 3.72576 0
M  V30 1351 N 124.16 -0.719506 1.40217 0
M  V30 1352 C 125.09 -1.8465 1.42922 0
M  V30 1353 C 126.071 -1.67599 0.29062 0
M  V30 1354 O 127.256 -1.87688 0.498677 0
M  V30 1355 C 124.386 -3.22565 1.28722 0
M  V30 1356 C 123.34 -3.54281 2.40144 0
M  V30 1357 C 122.666 -4.91298 2.11023 0
M  V30 1358 C 123.966 -3.55676 3.82481 0
M  V30 1359 H 125.66 -1.82644 2.37237 0
M  V30 1360 H 123.206 -0.877305 1.1419 0
M  V30 1361 H 125.159 -4.01095 1.29232 0
M  V30 1362 H 123.883 -3.25137 0.308811 0
M  V30 1363 H 122.542 -2.78088 2.38877 0
M  V30 1364 H 122.19 -4.90468 1.11582 0
M  V30 1365 H 121.89 -5.13485 2.8567 0
M  V30 1366 H 123.414 -5.72166 2.13209 0
M  V30 1367 H 124.828 -4.24254 3.85592 0
M  V30 1368 H 123.225 -3.89388 4.56614 0
M  V30 1369 H 124.295 -2.55144 4.12346 0
M  V30 1370 N 125.638 -1.25649 -0.95132 0
M  V30 1371 C 126.548 -1.08073 -2.08224 0
M  V30 1372 C 127.564 -0.0169666 -1.73992 0
M  V30 1373 O 128.74 -0.218593 -2.0021 0
M  V30 1374 C 125.805 -0.704922 -3.39458 0
M  V30 1375 C 124.866 -1.84699 -3.87537 0
M  V30 1376 C 124.099 -1.48902 -5.12508 0
M  V30 1377 O 124.322 -0.386156 -5.69091 0
M  V30 1378 O 123.256 -2.32033 -5.55378 0
M  V30 1379 H 127.082 -2.02924 -2.25954 0
M  V30 1380 H 124.667 -1.04618 -1.06656 0
M  V30 1381 H 126.549 -0.507609 -4.18332 0
M  V30 1382 H 125.224 0.214291 -3.2299 0
M  V30 1383 H 124.131 -2.09919 -3.09653 0
M  V30 1384 H 125.464 -2.74557 -4.08509 0
M  V30 1385 N 127.117 1.15442 -1.07289 0
M  V30 1386 C 128.064 2.20161 -0.692653 0
M  V30 1387 C 129.034 1.63073 0.31564 0
M  V30 1388 O 130.219 1.89725 0.202235 0
M  V30 1389 C 127.359 3.44967 -0.0959509 0
M  V30 1390 C 126.472 4.16256 -1.15564 0
M  V30 1391 C 125.607 5.28609 -0.524011 0
M  V30 1392 C 124.646 5.91715 -1.56653 0
M  V30 1393 N 123.783 6.9554 -0.957531 0
M  V30 1394 H 128.623 2.52037 -1.59002 0
M  V30 1395 H 126.16 1.2378 -0.794798 0
M  V30 1396 H 128.118 4.16341 0.267628 0
M  V30 1397 H 126.748 3.1361 0.764772 0
M  V30 1398 H 125.8 3.43385 -1.6368 0
M  V30 1399 H 127.112 4.59268 -1.94613 0
M  V30 1400 H 126.266 6.06604 -0.108032 0
M  V30 1401 H 125.005 4.86787 0.29825 0
M  V30 1402 H 124.01 5.12433 -1.9923 0
M  V30 1403 H 125.235 6.35614 -2.39107 0
M  V30 1404 H 123.181 6.55814 -0.156162 0
M  V30 1405 H 123.098 7.36977 -1.68526 0
M  V30 1406 H 124.366 7.77435 -0.567032 0
M  V30 1407 N 128.595 0.856903 1.32268 0
M  V30 1408 C 129.545 0.274899 2.26337 0
M  V30 1409 C 130.529 -0.580543 1.50062 0
M  V30 1410 O 131.721 -0.429559 1.71708 0
M  V30 1411 C 128.85 -0.533841 3.39124 0
M  V30 1412 C 127.936 0.334114 4.22782 0
M  V30 1413 N 128.327 1.42143 4.85416 0
M  V30 1414 C 126.625 0.124256 4.45827 0
M  V30 1415 C 127.326 1.95559 5.47843 0
M  V30 1416 N 126.302 1.25444 5.28928 0
M  V30 1417 H 130.104 1.10612 2.72291 0
M  V30 1418 H 127.618 0.703258 1.46383 0
M  V30 1419 H 129.615 -0.96722 4.05525 0
M  V30 1420 H 128.275 -1.36283 2.94715 0
M  V30 1421 H 129.286 1.80436 4.85451 0
M  V30 1422 H 125.963 -0.669837 4.12092 0
M  V30 1423 H 127.353 2.86714 6.07655 0
M  V30 1424 N 130.073 -1.45103 0.615059 0
M  V30 1425 C 131.036 -2.29025 -0.0895485 0
M  V30 1426 C 132.036 -1.40174 -0.787906 0
M  V30 1427 O 133.226 -1.62217 -0.634933 0
M  V30 1428 C 130.358 -3.21376 -1.13711 0
M  V30 1429 H 131.551 -2.92807 0.648382 0
M  V30 1430 H 129.104 -1.51749 0.374444 0
M  V30 1431 H 129.839 -2.6241 -1.90556 0
M  V30 1432 H 129.624 -3.86834 -0.640475 0
M  V30 1433 H 131.114 -3.84459 -1.63036 0
M  V30 1434 N 131.551 -0.354651 -1.53558 0
M  V30 1435 C 132.828 0.294281 -1.93374 0
M  V30 1436 C 133.208 1.67313 -1.28723 0
M  V30 1437 O 132.556 2.24179 -0.442247 0
M  V30 1438 C 132.766 0.355445 -3.47185 0
M  V30 1439 C 134.114 0.601007 -4.20325 0
M  V30 1440 O 135.138 0.437106 -3.53508 0
M  V30 1441 O 133.997 0.919322 -5.38712 0
M  V30 1442 H 131.091 0.174033 -0.808481 0
M  V30 1443 H 133.637 -0.406638 -1.64756 0
M  V30 1444 H 132.409 -0.611729 -3.86489 0
M  V30 1445 H 132.032 1.1027 -3.82003 0
M  V30 1446 N 133.029 1.57378 -0.0835403 0
M  V30 1447 C 133.976 2.13384 0.879539 0
M  V30 1448 C 134.946 1.04936 1.28754 0
M  V30 1449 O 136.131 1.32662 1.37133 0
M  V30 1450 C 133.271 2.70932 2.13752 0
M  V30 1451 C 132.384 3.93575 1.7811 0
M  V30 1452 C 131.519 4.39326 2.98607 0
M  V30 1453 C 130.558 5.54587 2.59037 0
M  V30 1454 N 129.695 5.95243 3.72331 0
M  V30 1455 H 134.535 2.9537 0.395076 0
M  V30 1456 H 132.072 1.45953 0.183349 0
M  V30 1457 H 134.03 3.02411 2.87408 0
M  V30 1458 H 132.66 1.91693 2.59718 0
M  V30 1459 H 131.712 3.68483 0.94469 0
M  V30 1460 H 133.024 4.77258 1.45005 0
M  V30 1461 H 132.178 4.72528 3.80529 0
M  V30 1462 H 130.917 3.5452 3.34913 0
M  V30 1463 H 129.922 5.21024 1.75539 0
M  V30 1464 H 131.147 6.41133 2.23887 0
M  V30 1465 H 129.093 5.13385 4.08378 0
M  V30 1466 H 129.01 6.73694 3.43034 0
M  V30 1467 H 130.278 6.33072 4.54797 0
M  V30 1468 N 134.507 -0.190092 1.56449 0
M  V30 1469 C 135.417 -1.25591 1.98152 0
M  V30 1470 C 136.433 -1.49519 0.889944 0
M  V30 1471 O 137.609 -1.62036 1.19609 0
M  V30 1472 C 134.674 -2.57916 2.3169 0
M  V30 1473 C 133.735 -2.42015 3.5458 0
M  V30 1474 C 132.968 -3.6803 3.8651 0
M  V30 1475 O 133.191 -4.72413 3.1966 0
M  V30 1476 O 132.125 -3.6326 4.79923 0
M  V30 1477 H 135.951 -0.931988 2.89046 0
M  V30 1478 H 133.536 -0.395488 1.4407 0
M  V30 1479 H 135.418 -3.36008 2.54316 0
M  V30 1480 H 134.093 -2.89925 1.43963 0
M  V30 1481 H 133 -1.62017 3.37196 0
M  V30 1482 H 134.333 -2.14937 4.4279 0
M  V30 1483 N 135.985 -1.50799 -0.457987 0
M  V30 1484 C 137.262 -1.52968 -1.21902 0
M  V30 1485 C 137.642 -0.281906 -2.09209 0
M  V30 1486 O 136.99 0.734076 -2.16388 0
M  V30 1487 C 137.2 -2.8326 -2.03875 0
M  V30 1488 C 138.548 -3.34425 -2.6162 0
M  V30 1489 O 139.572 -2.8467 -2.14106 0
M  V30 1490 O 138.431 -4.21188 -3.48228 0
M  V30 1491 H 135.525 -0.614129 -0.553873 0
M  V30 1492 H 138.071 -1.63098 -0.468739 0
M  V30 1493 H 136.843 -3.65543 -1.39621 0
M  V30 1494 H 136.466 -2.76195 -2.8601 0
M  V30 1495 N 137.463 0.71206 -1.40597 0
M  V30 1496 C 138.393 1.83889 -1.43899 0
M  V30 1497 C 139.374 1.67442 -0.299504 0
M  V30 1498 O 140.559 1.87421 -0.508624 0
M  V30 1499 C 137.689 3.21877 -1.30431 0
M  V30 1500 C 136.643 3.53002 -2.42019 0
M  V30 1501 C 135.969 4.90172 -2.13626 0
M  V30 1502 C 137.269 3.53643 -3.84362 0
M  V30 1503 H 138.963 1.81383 -2.38203 0
M  V30 1504 H 136.509 0.871237 -1.14654 0
M  V30 1505 H 138.462 4.00404 -1.31357 0
M  V30 1506 H 137.186 3.24968 -0.326049 0
M  V30 1507 H 135.845 2.76818 -2.40349 0
M  V30 1508 H 135.493 4.89869 -1.14182 0
M  V30 1509 H 135.193 5.11962 -2.88389 0
M  V30 1510 H 136.717 5.71028 -2.1624 0
M  V30 1511 H 138.131 4.22203 -3.87837 0
M  V30 1512 H 136.528 3.86961 -4.58673 0
M  V30 1513 H 137.598 2.52954 -4.13693 0
M  V30 1514 N 138.941 1.26152 0.944643 0
M  V30 1515 C 140.187 1.11657 1.69294 0
M  V30 1516 C 140.52 -0.339926 1.91202 0
M  V30 1517 O 139.795 -1.24994 1.49019 0
M  V30 1518 C 140.078 1.88236 3.06984 0
M  V30 1519 C 139.931 3.41772 2.92424 0
M  V30 1520 C 141.25 1.67343 4.07043 0
M  V30 1521 H 138.369 0.407004 0.614424 0
M  V30 1522 H 141.011 1.55106 1.09737 0
M  V30 1523 H 139.161 1.51308 3.57824 0
M  V30 1524 H 140.833 3.88433 2.48832 0
M  V30 1525 H 139.076 3.68974 2.28124 0
M  V30 1526 H 139.747 3.90579 3.90067 0
M  V30 1527 H 142.223 1.99509 3.65151 0
M  V30 1528 H 141.099 2.23346 5.01406 0
M  V30 1529 H 141.36 0.617158 4.37771 0
M  V30 1530 N 140.419 -1.14872 1.07899 0
M  V30 1531 C 141.668 -1.85135 0.800499 0
M  V30 1532 C 141.981 -1.83547 -0.676014 0
M  V30 1533 O 143.187 -2.49548 -1.06948 0
M  V30 1534 C 141.643 -3.3231 1.38197 0
M  V30 1535 C 141.251 -3.42329 2.8899 0
M  V30 1536 C 142.995 -4.0772 1.18174 0
M  V30 1537 C 140.902 -4.83684 3.403 0
M  V30 1538 H 139.832 -0.693563 0.29578 0
M  V30 1539 H 142.483 -1.29532 1.29976 0
M  V30 1540 H 140.865 -3.87618 0.810431 0
M  V30 1541 H 142.039 -2.97097 3.52236 0
M  V30 1542 H 140.354 -2.80369 3.07867 0
M  V30 1543 H 142.951 -5.12049 1.5398 0
M  V30 1544 H 143.294 -4.16124 0.12117 0
M  V30 1545 H 143.827 -3.58696 1.71994 0
M  V30 1546 H 140.566 -4.80465 4.45907 0
M  V30 1547 H 140.086 -5.29474 2.81811 0
M  V30 1548 H 141.765 -5.52558 3.36584 0
M  V30 1549 N 141.898 -0.863906 -1.31812 0
M  V30 1550 C 142.828 -0.330843 -2.31144 0
M  V30 1551 C 143.809 0.575005 -1.60087 0
M  V30 1552 O 144.994 0.493304 -1.8783 0
M  V30 1553 C 142.124 0.47374 -3.44054 0
M  V30 1554 C 141.078 -0.338481 -4.26659 0
M  V30 1555 C 140.404 0.591412 -5.31419 0
M  V30 1556 C 141.704 -1.56926 -4.98168 0
M  V30 1557 H 143.398 -1.16086 -2.75979 0
M  V30 1558 H 140.944 -0.559657 -1.32679 0
M  V30 1559 H 142.897 0.857143 -4.12591 0
M  V30 1560 H 141.621 1.33721 -2.9797 0
M  V30 1561 H 140.28 -0.703754 -3.59782 0
M  V30 1562 H 139.928 1.45199 -4.81587 0
M  V30 1563 H 139.628 0.0519022 -5.87577 0
M  V30 1564 H 141.152 0.97179 -6.02817 0
M  V30 1565 H 142.566 -1.25764 -5.59336 0
M  V30 1566 H 140.963 -2.04739 -5.64094 0
M  V30 1567 H 142.033 -2.32544 -4.25501 0
M  V30 1568 N 143.376 1.44774 -0.622745 0
M  V30 1569 C 144.623 2.02121 -0.1239 0
M  V30 1570 C 144.951 1.48915 1.25118 0
M  V30 1571 O 144.206 0.660045 1.84233 0
M  V30 1572 C 144.505 3.57364 -0.0508323 0
M  V30 1573 C 144.171 4.29787 -1.36358 0
M  V30 1574 C 142.833 4.4929 -1.72314 0
M  V30 1575 C 145.185 4.71062 -2.23048 0
M  V30 1576 C 142.513 5.07325 -2.94682 0
M  V30 1577 C 144.865 5.30452 -3.44679 0
M  V30 1578 C 143.529 5.48175 -3.80868 0
M  V30 1579 H 142.799 0.739612 -0.0453381 0
M  V30 1580 H 145.446 1.73648 -0.807389 0
M  V30 1581 H 143.751 3.85202 0.715991 0
M  V30 1582 H 145.448 3.99456 0.351533 0
M  V30 1583 H 142.038 4.14932 -1.07375 0
M  V30 1584 H 146.222 4.55715 -1.96565 0
M  V30 1585 H 141.478 5.19235 -3.22809 0
M  V30 1586 H 145.652 5.61385 -4.12092 0
M  V30 1587 H 143.279 5.92912 -4.75773 0
M  V30 1588 N 144.854 0.36279 1.53368 0
M  V30 1589 C 145.817 -0.472679 2.24273 0
M  V30 1590 C 146.817 -1.012 1.24961 0
M  V30 1591 O 148.007 -0.898194 1.49259 0
M  V30 1592 C 145.139 -1.66039 2.97731 0
M  V30 1593 H 146.332 0.14773 2.99536 0
M  V30 1594 H 143.885 0.114434 1.55881 0
M  V30 1595 H 144.62 -2.31896 2.26704 0
M  V30 1596 H 144.405 -1.28066 3.70596 0
M  V30 1597 H 145.895 -2.25252 3.51641 0
M  V30 1598 N 146.332 -1.57332 0.0918853 0
M  V30 1599 C 147.609 -1.85691 -0.614668 0
M  V30 1600 C 147.989 -0.988146 -1.86545 0
M  V30 1601 O 147.337 -0.0597055 -2.28422 0
M  V30 1602 C 147.547 -3.36294 -0.933126 0
M  V30 1603 C 148.895 -4.04275 -1.29796 0
M  V30 1604 O 149.919 -3.41157 -1.02424 0
M  V30 1605 O 148.778 -5.1564 -1.81047 0
M  V30 1606 H 145.872 -0.767802 -0.307261 0
M  V30 1607 H 148.418 -1.69244 0.12434 0
M  V30 1608 H 147.19 -3.91273 -0.0456404 0
M  V30 1609 H 146.813 -3.58076 -1.72822 0
M  V30 1610 N 147.81 0.181792 -1.56548 0
M  V30 1611 C 149.035 0.920019 -1.85877 0
M  V30 1612 C 149.46 1.75494 -0.677021 0
M  V30 1613 O 148.818 1.77399 0.374056 0
M  V30 1614 C 148.866 1.78112 -3.13542 0
M  V30 1615 O 147.97 2.88152 -2.95029 0
M  V30 1616 H 147.311 0.258334 -0.611686 0
M  V30 1617 H 149.841 0.183092 -2.03779 0
M  V30 1618 H 149.851 2.18314 -3.44678 0
M  V30 1619 H 148.526 1.16777 -3.99169 0
M  V30 1620 H 147.103 2.51609 -2.75222 0
M  V30 1621 N 149.288 1.51039 0.449983 0
M  V30 1622 C 150.518 1.66627 1.22143 0
M  V30 1623 C 150.926 0.357776 1.85786 0
M  V30 1624 O 150.269 -0.672424 1.70951 0
M  V30 1625 C 150.331 2.71562 2.35573 0
M  V30 1626 C 149.995 4.14526 1.92399 0
M  V30 1627 C 150.992 4.99717 1.43453 0
M  V30 1628 C 148.677 4.60559 2.00475 0
M  V30 1629 C 150.671 6.28998 1.03155 0
M  V30 1630 C 148.358 5.8984 1.59788 0
M  V30 1631 C 149.356 6.73886 1.11208 0
M  V30 1632 O 149.044 8.0075 0.710935 0
M  V30 1633 H 148.776 0.562635 0.374724 0
M  V30 1634 H 151.33 1.98146 0.541036 0
M  V30 1635 H 149.56 2.3533 3.06849 0
M  V30 1636 H 151.249 2.76156 2.97478 0
M  V30 1637 H 152.015 4.65361 1.36618 0
M  V30 1638 H 147.894 3.95273 2.37235 0
M  V30 1639 H 151.438 6.9455 0.651663 0
M  V30 1640 H 147.335 6.23713 1.66289 0
M  V30 1641 H 148.103 8.142 0.837913 0
M  V30 1642 N 150.766 -0.704594 1.40972 0
M  V30 1643 C 152.043 -1.45847 1.30338 0
M  V30 1644 C 152.423 -2.10973 -0.0732344 0
M  V30 1645 O 151.771 -2.00997 -1.08685 0
M  V30 1646 C 151.981 -2.48525 2.45023 0
M  V30 1647 C 153.329 -3.1404 2.8577 0
M  V30 1648 O 154.353 -2.58848 2.44696 0
M  V30 1649 O 153.212 -4.13981 3.56766 0
M  V30 1650 H 150.306 -0.649092 0.512454 0
M  V30 1651 H 152.852 -0.735836 1.52917 0
M  V30 1652 H 151.624 -1.98994 3.36923 0
M  V30 1653 H 151.247 -3.2831 2.24272 0
M  V30 1654 N 152.244 -1.26651 -0.937939 0
M  V30 1655 C 153.49 -1.12553 -1.687 0
M  V30 1656 C 153.823 0.329782 -1.91379 0
M  V30 1657 O 153.098 1.24202 -1.4968 0
M  V30 1658 C 153.381 -1.89862 -3.05981 0
M  V30 1659 C 153.234 -3.43318 -2.90607 0
M  V30 1660 C 154.553 -1.69499 -4.0615 0
M  V30 1661 H 151.672 -0.410257 -0.612257 0
M  V30 1662 H 154.314 -1.55685 -1.08913 0
M  V30 1663 H 152.464 -1.53204 -3.57017 0
M  V30 1664 H 154.136 -3.89747 -2.46769 0
M  V30 1665 H 152.379 -3.70179 -2.26164 0
M  V30 1666 H 153.05 -3.92642 -3.8799 0
M  V30 1667 H 155.526 -2.01442 -3.64088 0
M  V30 1668 H 154.402 -2.26002 -5.00214 0
M  V30 1669 H 154.663 -0.640365 -4.37438 0
M  V30 1670 N 153.722 1.14298 -1.08507 0
M  V30 1671 C 154.652 2.21542 -0.737646 0
M  V30 1672 C 155.633 1.67773 0.280377 0
M  V30 1673 O 156.818 1.93616 0.150521 0
M  V30 1674 C 153.948 3.46988 -0.147259 0
M  V30 1675 C 152.902 4.13789 -1.09374 0
M  V30 1676 C 152.228 5.33449 -0.365524 0
M  V30 1677 C 153.528 4.62208 -2.4323 0
M  V30 1678 H 155.222 2.5086 -1.6343 0
M  V30 1679 H 152.768 1.20576 -0.787243 0
M  V30 1680 H 154.721 4.21262 0.107808 0
M  V30 1681 H 153.445 3.17037 0.784538 0
M  V30 1682 H 152.104 3.4147 -1.33393 0
M  V30 1683 H 151.752 4.99759 0.57011 0
M  V30 1684 H 151.452 5.79088 -0.996512 0
M  V30 1685 H 152.976 6.10485 -0.118534 0
M  V30 1686 H 154.39 5.27952 -2.23472 0
M  V30 1687 H 152.787 5.18553 -3.02031 0
M  V30 1688 H 153.857 3.77224 -3.04681 0
M  V30 1689 N 155.201 0.870884 1.31352 0
M  V30 1690 C 156.448 0.482273 1.96673 0
M  V30 1691 C 156.776 -0.965638 1.68836 0
M  V30 1692 O 156.031 -1.69514 0.977937 0
M  V30 1693 C 156.33 0.687157 3.50732 0
M  V30 1694 C 155.996 2.108 3.9859 0
M  V30 1695 C 154.658 2.49656 4.1137 0
M  V30 1696 C 157.01 3.03459 4.23748 0
M  V30 1697 C 154.338 3.80412 4.46659 0
M  V30 1698 C 156.69 4.3373 4.60501 0
M  V30 1699 C 155.354 4.725 4.71487 0
M  V30 1700 H 154.624 0.176476 0.719679 0
M  V30 1701 H 157.271 1.10405 1.56471 0
M  V30 1702 H 155.576 -0.0177476 3.91796 0
M  V30 1703 H 157.273 0.366284 3.99324 0
M  V30 1704 H 153.863 1.79633 3.8914 0
M  V30 1705 H 158.047 2.74665 4.13368 0
M  V30 1706 H 153.303 4.1021 4.53362 0
M  V30 1707 H 157.477 5.05578 4.78919 0
M  V30 1708 H 155.104 5.73859 4.98588 0
M  V30 1709 N 156.679 -1.44442 0.630414 0
M  V30 1710 C 157.642 -2.29107 -0.0652523 0
M  V30 1711 C 158.642 -1.41002 -0.772995 0
M  V30 1712 O 159.832 -1.62881 -0.617692 0
M  V30 1713 C 156.964 -3.22564 -1.10296 0
M  V30 1714 H 158.157 -2.92103 0.679401 0
M  V30 1715 H 155.71 -1.51343 0.390517 0
M  V30 1716 H 156.445 -2.64416 -1.87762 0
M  V30 1717 H 156.23 -3.87491 -0.59941 0
M  V30 1718 H 157.72 -3.86167 -1.5895 0
M  V30 1719 N 158.157 -0.370918 -1.53173 0
M  V30 1720 C 159.382 0.220293 -2.06227 0
M  V30 1721 C 159.807 1.41243 -1.24225 0
M  V30 1722 O 159.165 1.79387 -0.262645 0
M  V30 1723 C 159.213 0.586663 -3.55796 0
M  V30 1724 O 158.317 1.68317 -3.76488 0
M  V30 1725 H 157.658 0.0308099 -0.663285 0
M  V30 1726 H 160.188 -0.533068 -1.97534 0
M  V30 1727 H 160.198 0.85617 -3.98916 0
M  V30 1728 H 158.873 -0.285013 -4.14922 0
M  V30 1729 H 157.45 1.40881 -3.45264 0
M  V30 1730 N 159.635 1.57281 -0.100228 0
M  V30 1731 C 160.883 1.94153 0.561157 0
M  V30 1732 C 161.204 0.983157 1.68401 0
M  V30 1733 O 160.474 0.0361132 1.95867 0
M  V30 1734 H 159.054 0.716791 0.210283 0
M  V30 1735 H 161.716 1.94202 -0.164765 0
M  V30 1736 H 160.812 2.96709 0.968008 0
M  V30 1737 N 161.113 -0.173488 1.56642 0
M  V30 1738 C 162.524 -0.736155 1.71574 0
M  V30 1739 C 162.875 -1.82888 0.710389 0
M  V30 1740 O 162 -2.16017 -0.1287 0
M  V30 1741 C 162.595 -1.34211 3.11083 0
M  V30 1742 C 161.154 -1.85162 3.27707 0
M  V30 1743 C 160.301 -0.729765 2.67525 0
M  V30 1744 H 163.252 0.0518786 1.58615 0
M  V30 1745 H 163.273 -2.21178 3.09613 0
M  V30 1746 H 162.785 -0.546579 3.84232 0
M  V30 1747 H 160.886 -2.67366 2.59512 0
M  V30 1748 H 160.999 -1.99855 4.35425 0
M  V30 1749 H 159.363 -1.14965 2.27278 0
M  V30 1750 H 160.146 0.0538806 3.43258 0
M  V30 1751 N 162.591 -1.51276 -0.441967 0
M  V30 1752 C 164.007 -1.39349 -0.778083 0
M  V30 1753 C 164.207 -0.472212 -1.95889 0
M  V30 1754 O 163.263 0.0743551 -2.5239 0
M  V30 1755 C 164.576 -2.81292 -1.0628 0
M  V30 1756 C 166.124 -2.9041 -1.16751 0
M  V30 1757 C 166.599 -4.33251 -1.48519 0
M  V30 1758 N 168.09 -4.36336 -1.55453 0
M  V30 1759 C 168.825 -5.43885 -1.81596 0
M  V30 1760 N 168.321 -6.61601 -2.05562 0
M  V30 1761 N 170.114 -5.3136 -1.8334 0
M  V30 1762 H 162.265 -2.09729 0.335774 0
M  V30 1763 H 164.528 -0.943925 0.0878028 0
M  V30 1764 H 164.234 -3.50678 -0.267905 0
M  V30 1765 H 164.108 -3.20334 -1.99163 0
M  V30 1766 H 166.495 -2.21225 -1.95304 0
M  V30 1767 H 166.576 -2.54871 -0.217801 0
M  V30 1768 H 166.22 -5.02984 -0.704958 0
M  V30 1769 H 166.15 -4.66299 -2.44689 0
M  V30 1770 H 168.641 -3.51466 -1.38853 0
M  V30 1771 H 168.954 -7.39361 -2.24867 0
M  V30 1772 H 167.299 -6.64725 -2.02894 0
M  V30 1773 H 170.49 -4.38382 -1.64132 0
M  V30 1774 H 170.663 -6.15258 -2.03377 0
M  V30 1775 N 164.069 0.697108 -1.41344 0
M  V30 1776 C 164.979 1.84088 -1.45427 0
M  V30 1777 C 165.995 1.70545 -0.34501 0
M  V30 1778 O 167.171 1.92488 -0.592492 0
M  V30 1779 C 164.236 3.20056 -1.33286 0
M  V30 1780 C 163.297 3.45718 -2.54514 0
M  V30 1781 C 162.53 4.75199 -2.42944 0
M  V30 1782 O 162.753 5.51579 -1.45318 0
M  V30 1783 O 161.687 5.0161 -3.32672 0
M  V30 1784 H 165.513 1.836 -2.41919 0
M  V30 1785 H 163.098 0.849966 -1.22866 0
M  V30 1786 H 164.98 4.01236 -1.28794 0
M  V30 1787 H 163.655 3.2123 -0.39909 0
M  V30 1788 H 162.562 2.64474 -2.64583 0
M  V30 1789 H 163.895 3.49356 -3.46715 0
M  V30 1790 N 165.547 1.27147 0.931209 0
M  V30 1791 C 166.477 1.12081 2.04842 0
M  V30 1792 C 167.458 0.0232364 1.70084 0
M  V30 1793 O 168.643 0.197085 1.93197 0
M  V30 1794 C 165.773 0.76354 3.38803 0
M  V30 1795 C 164.727 1.81396 3.87659 0
M  V30 1796 C 164.053 1.31075 5.18385 0
M  V30 1797 C 165.353 3.21739 4.11438 0
M  V30 1798 H 167.047 2.05537 2.17703 0
M  V30 1799 H 164.593 0.989603 1.04608 0
M  V30 1800 H 166.546 0.644982 4.16435 0
M  V30 1801 H 165.27 -0.206727 3.25945 0
M  V30 1802 H 163.929 1.92136 3.12217 0
M  V30 1803 H 163.577 0.330037 5.01916 0
M  V30 1804 H 163.277 2.013 5.52044 0
M  V30 1805 H 164.801 1.20506 5.98591 0
M  V30 1806 H 166.215 3.14019 4.79651 0
M  V30 1807 H 164.612 3.89644 4.56397 0
M  V30 1808 H 165.682 3.67054 3.16859 0
M  V30 1809 N 167.025 -1.13721 1.09112 0
M  V30 1810 C 167.955 -2.21148 0.749385 0
M  V30 1811 C 168.936 -1.6792 -0.271475 0
M  V30 1812 O 170.121 -1.93693 -0.140251 0
M  V30 1813 C 167.251 -3.46905 0.165659 0
M  V30 1814 C 166.205 -4.13203 1.11567 0
M  V30 1815 C 165.531 -5.33248 0.393809 0
M  V30 1816 C 166.831 -4.60912 2.45678 0
M  V30 1817 H 168.525 -2.4999 1.64758 0
M  V30 1818 H 166.071 -1.20156 0.793626 0
M  V30 1819 H 168.024 -4.21313 -0.085466 0
M  V30 1820 H 166.748 -3.17449 -0.767714 0
M  V30 1821 H 165.407 -3.40758 1.35202 0
M  V30 1822 H 165.055 -5.00054 -0.543599 0
M  V30 1823 H 164.755 -5.78552 1.02721 0
M  V30 1824 H 166.279 -6.10413 0.150908 0
M  V30 1825 H 167.693 -5.26759 2.26269 0
M  V30 1826 H 166.09 -5.16944 3.04776 0
M  V30 1827 H 167.16 -3.75603 3.06677 0
M  V30 1828 N 168.503 -0.877838 -1.30888 0
M  V30 1829 C 169.45 -0.337538 -2.28318 0
M  V30 1830 C 170.42 0.568346 -1.56074 0
M  V30 1831 O 171.605 0.498298 -1.84178 0
M  V30 1832 C 168.745 0.448142 -3.42178 0
M  V30 1833 C 167.858 -0.48615 -4.29256 0
M  V30 1834 C 166.993 0.314427 -5.30269 0
M  V30 1835 C 166.032 -0.615791 -6.08995 0
M  V30 1836 N 165.169 0.14902 -7.01942 0
M  V30 1837 H 170.009 -1.17356 -2.73919 0
M  V30 1838 H 167.546 -0.590094 -1.34745 0
M  V30 1839 H 169.504 0.919517 -4.06941 0
M  V30 1840 H 168.134 1.24879 -2.97666 0
M  V30 1841 H 167.186 -1.076 -3.64865 0
M  V30 1842 H 168.498 -1.19909 -4.84173 0
M  V30 1843 H 167.652 0.847969 -6.00745 0
M  V30 1844 H 166.391 1.06062 -4.76027 0
M  V30 1845 H 165.396 -1.16102 -5.37401 0
M  V30 1846 H 166.621 -1.36097 -6.65323 0
M  V30 1847 H 164.567 0.877884 -6.50099 0
M  V30 1848 H 164.484 -0.504433 -7.54315 0
M  V30 1849 H 165.752 0.663537 -7.76671 0
M  V30 1850 N 169.982 1.44106 -0.638065 0
M  V30 1851 C 170.929 2.30715 0.062701 0
M  V30 1852 C 171.899 1.43882 0.829883 0
M  V30 1853 O 173.084 1.72775 0.809532 0
M  V30 1854 C 170.224 3.29258 1.03358 0
M  V30 1855 C 169.337 4.31192 0.26409 0
M  V30 1856 C 168.472 5.16825 1.22741 0
M  V30 1857 C 167.511 6.10462 0.447475 0
M  V30 1858 N 166.648 6.8877 1.36161 0
M  V30 1859 H 171.488 2.90096 -0.681781 0
M  V30 1860 H 169.025 1.42925 -0.347988 0
M  V30 1861 H 170.983 3.84886 1.60992 0
M  V30 1862 H 169.613 2.71562 1.74511 0
M  V30 1863 H 168.665 3.77981 -0.428295 0
M  V30 1864 H 169.977 4.97619 -0.343052 0
M  V30 1865 H 169.131 5.77004 1.87487 0
M  V30 1866 H 167.87 4.50488 1.86847 0
M  V30 1867 H 166.875 5.49386 -0.213433 0
M  V30 1868 H 168.1 6.78837 -0.188968 0
M  V30 1869 H 166.046 6.25096 1.98975 0
M  V30 1870 H 165.963 7.51663 0.808656 0
M  V30 1871 H 167.231 7.53467 1.99769 0
M  V30 1872 N 171.46 0.379036 1.52974 0
M  V30 1873 C 172.707 -0.206421 2.01445 0
M  V30 1874 C 173.035 -1.47668 1.26587 0
M  V30 1875 O 172.29 -1.92514 0.351675 0
M  V30 1876 C 172.589 -0.53096 3.53434 0
M  V30 1877 C 172.255 0.646546 4.46241 0
M  V30 1878 C 170.917 0.969604 4.7133 0
M  V30 1879 C 173.269 1.43479 5.01062 0
M  V30 1880 C 170.597 2.08263 5.48492 0
M  V30 1881 C 172.949 2.53834 5.7944 0
M  V30 1882 C 171.613 2.86659 6.02812 0
M  V30 1883 H 170.883 -0.0755349 0.73714 0
M  V30 1884 H 173.53 0.514271 1.84465 0
M  V30 1885 H 171.835 -1.33285 3.68432 0
M  V30 1886 H 173.532 -0.996417 3.88423 0
M  V30 1887 H 170.122 0.384734 4.2687 0
M  V30 1888 H 174.306 1.19844 4.81613 0
M  V30 1889 H 169.562 2.34078 5.64816 0
M  V30 1890 H 173.736 3.15319 6.20924 0
M  V30 1891 H 171.363 3.73026 6.62387 0
M  V30 1892 N 172.938 -1.57226 0.108567 0
M  V30 1893 C 174.354 -1.5766 -0.248058 0
M  V30 1894 C 174.554 -1.12063 -1.67464 0
M  V30 1895 O 173.61 -0.803236 -2.39383 0
M  V30 1896 C 174.923 -3.0069 -0.0242287 0
M  V30 1897 C 176.471 -3.12868 -0.0909372 0
M  V30 1898 C 176.946 -4.57879 0.105067 0
M  V30 1899 N 178.437 -4.63172 0.0506846 0
M  V30 1900 C 179.172 -5.73126 0.177396 0
M  V30 1901 N 178.668 -6.91866 0.359696 0
M  V30 1902 N 180.461 -5.61977 0.117709 0
M  V30 1903 H 172.612 -1.85169 1.04049 0
M  V30 1904 H 174.875 -0.85529 0.40888 0
M  V30 1905 H 174.581 -3.38299 0.961604 0
M  V30 1906 H 174.455 -3.6945 -0.76068 0
M  V30 1907 H 176.842 -2.75124 -1.06729 0
M  V30 1908 H 176.923 -2.46672 0.677225 0
M  V30 1909 H 176.567 -4.96321 1.07834 0
M  V30 1910 H 176.497 -5.22153 -0.682954 0
M  V30 1911 H 178.988 -3.778 -0.0871266 0
M  V30 1912 H 179.301 -7.71503 0.447529 0
M  V30 1913 H 177.646 -6.93874 0.395536 0
M  V30 1914 H 180.837 -4.68094 -0.0236741 0
M  V30 1915 H 181.01 -6.47627 0.219905 0
M  V30 1916 N 174.416 0.165178 -1.56732 0
M  V30 1917 C 175.348 1.22911 -1.93457 0
M  V30 1918 C 176.361 1.40152 -0.828333 0
M  V30 1919 O 177.55 1.40046 -1.10677 0
M  V30 1920 C 174.65 2.59686 -2.17753 0
M  V30 1921 C 173.823 2.63663 -3.48999 0
M  V30 1922 C 172.882 3.81845 -3.62051 0
M  V30 1923 O 171.908 3.67559 -4.34613 0
M  V30 1924 N 173.11 4.98557 -2.97357 0
M  V30 1925 H 175.875 0.917118 -2.85323 0
M  V30 1926 H 173.436 0.354895 -1.57962 0
M  V30 1927 H 175.428 3.37225 -2.23743 0
M  V30 1928 H 173.998 2.83251 -1.32242 0
M  V30 1929 H 173.218 1.72173 -3.54612 0
M  V30 1930 H 174.506 2.63336 -4.35352 0
M  V30 1931 H 173.904 5.13065 -2.38287 0
M  V30 1932 H 172.461 5.73936 -3.08934 0
M  V30 1933 N 175.894 1.51508 0.433938 0
M  V30 1934 C 176.857 1.72473 1.50949 0
M  V30 1935 C 177.857 0.594725 1.49398 0
M  V30 1936 O 179.047 0.862315 1.5136 0
M  V30 1937 C 176.179 1.78431 2.90474 0
M  V30 1938 H 177.372 2.68467 1.33662 0
M  V30 1939 H 174.925 1.41549 0.662836 0
M  V30 1940 H 175.66 0.842645 3.13161 0
M  V30 1941 H 175.445 2.60558 2.93005 0
M  V30 1942 H 176.935 1.96479 3.68491 0
M  V30 1943 N 177.372 -0.689602 1.41712 0
M  V30 1944 C 178.788 -1.00093 1.24312 0
M  V30 1945 C 178.988 -2.01036 0.136729 0
M  V30 1946 O 178.044 -2.47562 -0.496918 0
M  V30 1947 C 179.357 -1.51985 2.59463 0
M  V30 1948 C 180.905 -1.63838 2.66695 0
M  V30 1949 C 181.38 -2.1913 4.02177 0
M  V30 1950 N 182.871 -2.26483 4.04054 0
M  V30 1951 C 183.606 -2.70306 5.0569 0
M  V30 1952 N 183.102 -3.13691 6.17713 0
M  V30 1953 N 184.895 -2.69923 4.9305 0
M  V30 1954 H 177.046 -0.0210029 2.1239 0
M  V30 1955 H 179.309 -0.0718733 0.945272 0
M  V30 1956 H 179.015 -0.85269 3.41207 0
M  V30 1957 H 178.889 -2.50103 2.82362 0
M  V30 1958 H 181.276 -2.29664 1.85306 0
M  V30 1959 H 181.357 -0.642492 2.476 0
M  V30 1960 H 181.001 -1.53918 4.84016 0
M  V30 1961 H 180.931 -3.19482 4.18615 0
M  V30 1962 H 183.422 -1.95874 3.23174 0
M  V30 1963 H 183.735 -3.45773 6.9113 0
M  V30 1964 H 182.08 -3.11585 6.21241 0
M  V30 1965 H 185.271 -2.35382 4.04614 0
M  V30 1966 H 185.444 -3.03758 5.72394 0
M  V30 1967 N 178.85 -1.27639 -0.924453 0
M  V30 1968 C 180.075 -1.17101 -1.71179 0
M  V30 1969 C 180.5 0.268134 -1.86179 0
M  V30 1970 O 179.858 1.19415 -1.36418 0
M  V30 1971 C 179.906 -1.86313 -3.08739 0
M  V30 1972 O 179.01 -1.16331 -3.95652 0
M  V30 1973 H 178.351 -0.407091 -0.524569 0
M  V30 1974 H 180.881 -1.68767 -1.15666 0
M  V30 1975 H 180.891 -1.938 -3.59034 0
M  V30 1976 H 179.566 -2.91001 -2.97138 0
M  V30 1977 H 178.143 -1.16935 -3.54091 0
M  V30 1978 N 180.328 1.1314 -1.09713 0
M  V30 1979 C 181.26 2.18343 -0.697056 0
M  V30 1980 C 182.273 1.60669 0.262551 0
M  V30 1981 O 183.462 1.78435 0.0481527 0
M  V30 1982 C 180.562 3.38899 -0.00684728 0
M  V30 1983 C 179.735 4.26078 -0.988741 0
M  V30 1984 C 178.794 5.25155 -0.331394 0
M  V30 1985 O 177.82 5.60701 -0.979926 0
M  V30 1986 N 179.022 5.73271 0.913261 0
M  V30 1987 H 181.787 2.5328 -1.60216 0
M  V30 1988 H 179.348 1.28491 -0.984971 0
M  V30 1989 H 181.34 4.02255 0.444191 0
M  V30 1990 H 179.91 3.02175 0.800551 0
M  V30 1991 H 179.13 3.59453 -1.61826 0
M  V30 1992 H 180.418 4.81178 -1.65364 0
M  V30 1993 H 179.816 5.46544 1.45966 0
M  V30 1994 H 178.373 6.3855 1.30757 0
M  V30 1995 N 181.806 0.884767 1.30421 0
M  V30 1996 C 183.052 0.503851 1.96441 0
M  V30 1997 C 183.385 -0.944518 1.69684 0
M  V30 1998 O 182.66 -1.66737 1.00145 0
M  V30 1999 C 182.943 0.779085 3.51571 0
M  V30 2000 C 182.796 2.27807 3.87846 0
M  V30 2001 C 184.115 0.255452 4.39358 0
M  V30 2002 H 181.234 0.184533 0.713524 0
M  V30 2003 H 183.876 1.10872 1.54297 0
M  V30 2004 H 182.026 0.264274 3.876 0
M  V30 2005 H 183.698 2.86127 3.61841 0
M  V30 2006 H 181.941 2.74479 3.35922 0
M  V30 2007 H 182.612 2.42125 4.96064 0
M  V30 2008 H 185.088 0.696079 4.10236 0
M  V30 2009 H 183.964 0.477361 5.4682 0
M  V30 2010 H 184.225 -0.843293 4.33983 0
M  V30 2011 N 183.284 -1.43765 0.645699 0
M  V30 2012 C 184.53 -2.02197 0.156271 0
M  V30 2013 C 184.863 -1.50776 -1.22393 0
M  V30 2014 O 184.138 -0.697771 -1.81553 0
M  V30 2015 C 184.421 -3.59749 0.158872 0
M  V30 2016 C 184.274 -4.21419 1.57245 0
M  V30 2017 C 185.593 -4.37149 -0.50879 0
M  V30 2018 H 182.712 -0.734694 0.0582602 0
M  V30 2019 H 185.354 -1.71157 0.824951 0
M  V30 2020 H 183.504 -3.86325 -0.410525 0
M  V30 2021 H 185.176 -4.059 2.19186 0
M  V30 2022 H 183.419 -3.78356 2.122 0
M  V30 2023 H 184.09 -5.30482 1.52619 0
M  V30 2024 H 186.566 -4.16093 -0.024412 0
M  V30 2025 H 185.442 -5.4683 -0.476213 0
M  V30 2026 H 185.703 -4.12839 -1.58165 0
M  V30 2027 N 184.763 -0.387143 -1.52771 0
M  V30 2028 C 186.01 0.195735 -2.01552 0
M  V30 2029 C 186.338 1.46995 -1.27369 0
M  V30 2030 O 185.593 1.92325 -0.361879 0
M  V30 2031 C 185.892 0.512209 -3.53711 0
M  V30 2032 C 185.558 -0.670202 -4.45891 0
M  V30 2033 C 184.22 -0.994586 -4.70809 0
M  V30 2034 C 186.572 -1.46134 -5.00294 0
M  V30 2035 C 183.9 -2.11169 -5.4738 0
M  V30 2036 C 186.252 -2.56903 -5.78086 0
M  V30 2037 C 184.916 -2.89852 -6.01284 0
M  V30 2038 H 184.186 0.0716246 -0.73753 0
M  V30 2039 H 186.833 -0.524046 -1.8419 0
M  V30 2040 H 185.138 1.31329 -3.69134 0
M  V30 2041 H 186.835 0.975804 -3.88946 0
M  V30 2042 H 183.425 -0.407366 -4.2666 0
M  V30 2043 H 187.609 -1.22397 -4.80971 0
M  V30 2044 H 182.865 -2.3707 -5.63567 0
M  V30 2045 H 187.039 -3.18608 -6.19243 0
M  V30 2046 H 184.666 -3.76533 -6.60399 0
M  V30 2047 N 186.241 1.57166 -0.116904 0
M  V30 2048 C 187.466 1.999 0.55271 0
M  V30 2049 C 187.891 0.996039 1.59564 0
M  V30 2050 O 187.249 -0.032556 1.81271 0
M  V30 2051 C 187.297 3.4152 1.15742 0
M  V30 2052 O 186.401 3.44106 2.27299 0
M  V30 2053 H 185.742 0.649447 0.138258 0
M  V30 2054 H 188.272 2.03573 -0.204759 0
M  V30 2055 H 188.282 3.79684 1.49346 0
M  V30 2056 H 186.957 4.14034 0.393493 0
M  V30 2057 H 185.534 3.17759 1.9515 0
M  V30 2058 N 187.719 -0.156864 1.56817 0
M  V30 2059 C 188.682 -1.17781 1.96622 0
M  V30 2060 C 189.682 -1.36401 0.851555 0
M  V30 2061 O 190.872 -1.33561 1.11836 0
M  V30 2062 C 188.004 -2.54008 2.27361 0
M  V30 2063 H 189.197 -0.836564 2.87996 0
M  V30 2064 H 186.75 -0.39985 1.51099 0
M  V30 2065 H 187.485 -2.9312 1.38748 0
M  V30 2066 H 187.27 -2.41856 3.08623 0
M  V30 2067 H 188.76 -3.27558 2.59029 0
M  V30 2068 N 189.197 -1.51736 -0.425897 0
M  V30 2069 C 190.107 -1.76738 -1.54275 0
M  V30 2070 C 191.123 -0.65211 -1.61318 0
M  V30 2071 O 192.299 -0.935654 -1.78346 0
M  V30 2072 C 189.364 -1.89755 -2.90162 0
M  V30 2073 C 188.425 -3.13633 -2.93143 0
M  V30 2074 C 187.658 -3.2602 -4.22548 0
M  V30 2075 O 187.881 -2.44067 -5.15546 0
M  V30 2076 O 186.815 -4.19071 -4.32046 0
M  V30 2077 H 190.641 -2.71502 -1.36089 0
M  V30 2078 H 188.226 -1.36376 -0.610069 0
M  V30 2079 H 190.108 -2.00236 -3.70788 0
M  V30 2080 H 188.783 -0.981785 -3.08452 0
M  V30 2081 H 187.69 -3.08622 -2.11431 0
M  V30 2082 H 189.023 -4.04936 -2.798 0
M  V30 2083 N 190.675 0.682077 -1.42076 0
M  V30 2084 C 191.585 1.82535 -1.47371 0
M  V30 2085 C 192.601 1.7017 -0.363079 0
M  V30 2086 O 193.777 1.91848 -0.612875 0
M  V30 2087 C 190.842 3.18624 -1.36674 0
M  V30 2088 C 189.903 3.42999 -2.58167 0
M  V30 2089 C 189.136 4.72595 -2.4797 0
M  V30 2090 O 189.359 5.50006 -1.5116 0
M  V30 2091 O 188.293 4.98054 -3.37974 0
M  V30 2092 H 192.119 1.81023 -2.43853 0
M  V30 2093 H 189.704 0.836887 -1.2376 0
M  V30 2094 H 191.586 3.99847 -1.33043 0
M  V30 2095 H 190.261 3.20789 -0.433138 0
M  V30 2096 H 189.168 2.61653 -2.67373 0
M  V30 2097 H 190.501 3.45659 -3.50401 0
M  V30 2098 N 192.153 1.28127 0.917671 0
M  V30 2099 C 193.083 1.14248 2.03641 0
M  V30 2100 C 194.064 0.0412748 1.7005 0
M  V30 2101 O 195.249 0.217566 1.92977 0
M  V30 2102 C 192.379 0.799431 3.37974 0
M  V30 2103 C 191.333 1.85497 3.85713 0
M  V30 2104 C 190.659 1.36565 5.16966 0
M  V30 2105 C 191.959 3.26085 4.08002 0
M  V30 2106 H 193.653 2.07835 2.15511 0
M  V30 2107 H 191.199 1.00064 1.03553 0
M  V30 2108 H 193.152 0.689114 4.15727 0
M  V30 2109 H 191.876 -0.172145 3.26146 0
M  V30 2110 H 190.535 1.95437 3.10161 0
M  V30 2111 H 190.183 0.383253 5.01538 0
M  V30 2112 H 189.883 2.07143 5.49878 0
M  V30 2113 H 191.407 1.26848 5.97279 0
M  V30 2114 H 192.821 3.19089 4.76293 0
M  V30 2115 H 191.218 3.94462 4.52238 0
M  V30 2116 H 192.288 3.70394 3.12948 0
M  V30 2117 N 193.631 -1.12557 1.10312 0
M  V30 2118 C 194.88 -1.83395 0.839588 0
M  V30 2119 C 195.193 -1.84939 -0.636929 0
M  V30 2120 O 196.399 -2.51761 -1.01631 0
M  V30 2121 C 194.855 -3.29303 1.45215 0
M  V30 2122 C 194.463 -3.36122 2.96186 0
M  V30 2123 C 196.207 -4.05121 1.26796 0
M  V30 2124 C 194.114 -4.76357 3.50483 0
M  V30 2125 H 193.044 -0.687133 0.310425 0
M  V30 2126 H 195.695 -1.26746 1.32694 0
M  V30 2127 H 194.077 -3.85812 0.892469 0
M  V30 2128 H 195.251 -2.89559 3.58458 0
M  V30 2129 H 193.566 -2.73776 3.13745 0
M  V30 2130 H 196.163 -5.08668 1.64806 0
M  V30 2131 H 196.506 -4.15773 0.209409 0
M  V30 2132 H 197.039 -3.54967 1.79563 0
M  V30 2133 H 193.778 -4.70899 4.55998 0
M  V30 2134 H 193.298 -5.23377 2.92978 0
M  V30 2135 H 194.977 -5.45294 3.48228 0
M  V30 2136 N 195.109 -0.891671 -1.2995 0
M  V30 2137 C 196.339 -0.527893 -1.99742 0
M  V30 2138 C 196.747 0.88979 -1.66971 0
M  V30 2139 O 196.09 1.59766 -0.906667 0
M  V30 2140 C 196.152 -0.630804 -3.53922 0
M  V30 2141 C 195.816 -2.01401 -4.10228 0
M  V30 2142 C 196.813 -2.98422 -4.25724 0
M  V30 2143 C 194.498 -2.32121 -4.45449 0
M  V30 2144 C 196.492 -4.24293 -4.75662 0
M  V30 2145 C 194.179 -3.58237 -4.95086 0
M  V30 2146 C 195.177 -4.54137 -5.10146 0
M  V30 2147 O 194.865 -5.78014 -5.58708 0
M  V30 2148 H 194.597 -0.201953 -0.645129 0
M  V30 2149 H 197.151 -1.20076 -1.66646 0
M  V30 2150 H 195.381 0.0990616 -3.86573 0
M  V30 2151 H 197.07 -0.277338 -4.04951 0
M  V30 2152 H 197.836 -2.76001 -3.98809 0
M  V30 2153 H 193.715 -1.5824 -4.32991 0
M  V30 2154 H 197.259 -4.99153 -4.87332 0
M  V30 2155 H 193.156 -3.80491 -5.21437 0
M  V30 2156 H 193.924 -5.8049 -5.77039 0
M  V30 2157 N 196.587 1.43421 -0.653314 0
M  V30 2158 C 197.998 1.85065 -0.246537 0
M  V30 2159 C 198.349 1.54688 1.2069 0
M  V30 2160 O 197.474 0.995896 1.92122 0
M  V30 2161 C 198.069 3.35922 -0.440666 0
M  V30 2162 C 196.628 3.76297 -0.0882064 0
M  V30 2163 C 195.775 2.67147 -0.743484 0
M  V30 2164 H 198.726 1.33572 -0.856979 0
M  V30 2165 H 198.747 3.79204 0.313798 0
M  V30 2166 H 198.259 3.58 -1.49858 0
M  V30 2167 H 196.36 3.5983 0.96711 0
M  V30 2168 H 196.473 4.76338 -0.513738 0
M  V30 2169 H 194.837 2.54086 -0.176712 0
M  V30 2170 H 195.62 2.92053 -1.80443 0
M  V30 2171 N 198.065 0.39524 1.52563 0
M  V30 2172 C 199.342 -0.242908 1.94086 0
M  V30 2173 C 199.722 -1.63841 1.33114 0
M  V30 2174 O 199.07 -2.22928 0.501529 0
M  V30 2175 C 199.28 -0.26327 3.48006 0
M  V30 2176 C 200.628 -0.489354 4.21771 0
M  V30 2177 O 201.652 -0.343226 3.54543 0
M  V30 2178 O 200.511 -0.776169 5.4096 0
M  V30 2179 H 197.605 -0.152536 0.812811 0
M  V30 2180 H 200.151 0.450178 1.6362 0
M  V30 2181 H 198.923 0.713985 3.84731 0
M  V30 2182 H 198.546 -1.00103 3.84792 0
M  V30 2183 N 199.544 -1.57102 0.125237 0
M  V30 2184 C 200.96 -1.57915 -0.231322 0
M  V30 2185 C 201.16 -1.13833 -1.66266 0
M  V30 2186 O 200.216 -0.828581 -2.38518 0
M  V30 2187 C 201.529 -3.00699 0.00766489 0
M  V30 2188 C 203.077 -3.12947 -0.0577483 0
M  V30 2189 C 203.552 -4.57742 0.153626 0
M  V30 2190 N 205.043 -4.63092 0.0998073 0
M  V30 2191 C 205.778 -5.72905 0.238174 0
M  V30 2192 N 205.274 -6.91445 0.433057 0
M  V30 2193 N 207.067 -5.6182 0.177308 0
M  V30 2194 H 199.218 -1.84055 1.06007 0
M  V30 2195 H 201.481 -0.850905 0.417929 0
M  V30 2196 H 201.187 -3.3726 0.997431 0
M  V30 2197 H 201.061 -3.70236 -0.721452 0
M  V30 2198 H 203.448 -2.7624 -1.03804 0
M  V30 2199 H 203.529 -2.4594 0.70335 0
M  V30 2200 H 203.173 -4.95149 1.13092 0
M  V30 2201 H 203.103 -5.22848 -0.627534 0
M  V30 2202 H 205.594 -3.77871 -0.047051 0
M  V30 2203 H 205.907 -7.70985 0.529332 0
M  V30 2204 H 204.252 -6.93415 0.469109 0
M  V30 2205 H 207.443 -4.68093 0.0259748 0
M  V30 2206 H 207.616 -6.47357 0.288582 0
M  V30 2207 N 201.022 0.148545 -1.56898 0
M  V30 2208 C 202.438 0.501131 -1.51528 0
M  V30 2209 C 202.638 1.83458 -0.833399 0
M  V30 2210 O 201.694 2.49259 -0.40328 0
M  V30 2211 C 203.007 0.512864 -2.96294 0
M  V30 2212 C 204.555 0.598487 -3.07225 0
M  V30 2213 C 205.03 0.640897 -4.53494 0
M  V30 2214 N 206.521 0.703163 -4.57832 0
M  V30 2215 C 207.256 0.756935 -5.68382 0
M  V30 2216 N 206.752 0.770147 -6.88506 0
M  V30 2217 N 208.545 0.797698 -5.56411 0
M  V30 2218 H 200.696 -0.725532 -1.99624 0
M  V30 2219 H 202.959 -0.264358 -0.910395 0
M  V30 2220 H 202.665 -0.398691 -3.49433 0
M  V30 2221 H 202.539 1.35133 -3.52163 0
M  V30 2222 H 204.926 1.50046 -2.54106 0
M  V30 2223 H 205.007 -0.267093 -2.54402 0
M  V30 2224 H 204.651 -0.256915 -5.0725 0
M  V30 2225 H 204.581 1.52295 -5.04097 0
M  V30 2226 H 207.072 0.700314 -3.71354 0
M  V30 2227 H 207.385 0.812983 -7.68512 0
M  V30 2228 H 205.73 0.738049 -6.9107 0
M  V30 2229 H 208.921 0.784535 -4.61479 0
M  V30 2230 H 209.094 0.83614 -6.42583 0
M  V30 2231 N 202.5 1.5196 0.417844 0
M  V30 2232 C 203.43 1.77634 1.51554 0
M  V30 2233 C 204.411 0.626918 1.58126 0
M  V30 2234 O 205.596 0.871632 1.7354 0
M  V30 2235 C 202.726 1.91911 2.8946 0
M  V30 2236 C 201.68 3.07463 2.97743 0
M  V30 2237 C 201.006 3.06951 4.37819 0
M  V30 2238 C 202.306 4.47082 2.70027 0
M  V30 2239 H 204 2.6955 1.3032 0
M  V30 2240 H 201.546 1.29706 0.625492 0
M  V30 2241 H 203.499 2.08455 3.6623 0
M  V30 2242 H 202.223 0.966598 3.11969 0
M  V30 2243 H 200.882 2.90656 2.23416 0
M  V30 2244 H 200.53 2.09438 4.57323 0
M  V30 2245 H 200.23 3.84556 4.44286 0
M  V30 2246 H 201.754 3.25613 5.16535 0
M  V30 2247 H 203.168 4.6414 3.36522 0
M  V30 2248 H 201.565 5.2654 2.87881 0
M  V30 2249 H 202.635 4.55777 1.65514 0
M  V30 2250 N 203.978 -0.674533 1.42435 0
M  V30 2251 C 204.888 -1.81751 1.48337 0
M  V30 2252 C 205.904 -1.69975 0.372099 0
M  V30 2253 O 207.08 -1.91521 0.62304 0
M  V30 2254 C 204.145 -3.17895 1.38361 0
M  V30 2255 C 203.206 -3.41625 2.59982 0
M  V30 2256 C 202.439 -4.71274 2.50473 0
M  V30 2257 O 202.662 -5.49197 1.54075 0
M  V30 2258 O 201.596 -4.96254 3.4061 0
M  V30 2259 H 205.422 -1.79728 2.44809 0
M  V30 2260 H 203.007 -0.830312 1.24202 0
M  V30 2261 H 204.889 -3.99136 1.35161 0
M  V30 2262 H 203.564 -3.20555 0.450144 0
M  V30 2263 H 202.471 -2.60231 2.68757 0
M  V30 2264 H 203.804 -3.43796 3.52229 0
M  V30 2265 N 205.456 -1.28612 -0.910864 0
M  V30 2266 C 206.684 -1.18792 -1.69399 0
M  V30 2267 C 207.099 0.253039 -1.87097 0
M  V30 2268 O 206.456 1.17071 -1.40003 0
M  V30 2269 C 206.507 -1.88511 -3.08457 0
M  V30 2270 O 206.228 -3.26979 -2.91576 0
M  V30 2271 C 207.729 -1.85029 -4.02839 0
M  V30 2272 H 204.949 -0.412233 -0.529438 0
M  V30 2273 H 207.493 -1.69788 -1.13984 0
M  V30 2274 H 205.648 -1.41379 -3.60681 0
M  V30 2275 H 206.062 -3.61936 -3.79608 0
M  V30 2276 H 207.536 -2.38395 -4.97867 0
M  V30 2277 H 208.013 -0.823303 -4.31414 0
M  V30 2278 H 208.619 -2.31853 -3.56545 0
M  V30 2279 N 206.934 1.1197 -1.10907 0
M  V30 2280 C 207.881 2.17846 -0.762345 0
M  V30 2281 C 208.851 1.63995 0.263599 0
M  V30 2282 O 210.036 1.90273 0.141773 0
M  V30 2283 C 207.176 3.44487 -0.205651 0
M  V30 2284 C 206.289 4.12369 -1.28748 0
M  V30 2285 C 205.424 5.26674 -0.691919 0
M  V30 2286 C 204.463 5.86431 -1.75399 0
M  V30 2287 N 203.6 6.92142 -1.17833 0
M  V30 2288 H 208.44 2.46851 -1.6694 0
M  V30 2289 H 205.977 1.21188 -0.833776 0
M  V30 2290 H 207.935 4.16981 0.135037 0
M  V30 2291 H 206.565 3.15884 0.664613 0
M  V30 2292 H 205.617 3.38003 -1.74522 0
M  V30 2293 H 206.929 4.52844 -2.09125 0
M  V30 2294 H 206.083 6.05953 -0.300963 0
M  V30 2295 H 204.822 4.8749 0.143232 0
M  V30 2296 H 203.827 5.05835 -2.15432 0
M  V30 2297 H 205.052 6.27685 -2.59208 0
M  V30 2298 H 202.998 6.54985 -0.364725 0
M  V30 2299 H 202.915 7.31242 -1.91887 0
M  V30 2300 H 204.183 7.75237 -0.81408 0
M  V30 2301 N 208.412 0.89855 1.29475 0
M  V30 2302 C 209.642 0.538479 1.99459 0
M  V30 2303 C 210.05 -0.880922 1.67441 0
M  V30 2304 O 209.393 -1.59283 0.915127 0
M  V30 2305 C 209.455 0.649564 3.53583 0
M  V30 2306 C 209.119 2.03573 4.09154 0
M  V30 2307 C 210.116 3.00675 4.24135 0
M  V30 2308 C 207.801 2.3448 4.44212 0
M  V30 2309 C 209.795 4.26809 4.73405 0
M  V30 2310 C 207.482 3.60857 4.93179 0
M  V30 2311 C 208.48 4.56836 5.0773 0
M  V30 2312 O 208.168 5.80969 5.55635 0
M  V30 2313 H 207.9 0.205372 0.644048 0
M  V30 2314 H 210.454 1.20958 1.66007 0
M  V30 2315 H 208.684 -0.0785592 3.8662 0
M  V30 2316 H 210.373 0.29881 4.04799 0
M  V30 2317 H 211.139 2.78112 3.97339 0
M  V30 2318 H 207.018 1.60534 4.32145 0
M  V30 2319 H 210.562 5.0173 4.84678 0
M  V30 2320 H 206.459 3.83251 5.19412 0
M  V30 2321 H 207.227 5.83542 5.73952 0
M  V30 2322 N 209.89 -1.43072 0.660911 0
M  V30 2323 C 211.301 -1.84932 0.256348 0
M  V30 2324 C 211.652 -1.55325 -1.19868 0
M  V30 2325 O 210.777 -1.00607 -1.91591 0
M  V30 2326 C 211.372 -3.35684 0.458475 0
M  V30 2327 C 209.931 -3.76245 0.108161 0
M  V30 2328 C 209.078 -2.66749 0.757641 0
M  V30 2329 H 212.029 -1.33116 0.864051 0
M  V30 2330 H 212.05 -3.79365 -0.293683 0
M  V30 2331 H 211.562 -3.572 1.51755 0
M  V30 2332 H 209.663 -3.60338 -0.948014 0
M  V30 2333 H 209.776 -4.76058 0.538992 0
M  V30 2334 H 208.14 -2.53989 0.190185 0
M  V30 2335 H 208.923 -2.91092 1.81989 0
M  V30 2336 N 211.368 -0.403325 -1.52352 0
M  V30 2337 C 212.614 0.174605 -2.02047 0
M  V30 2338 C 212.947 1.45282 -1.28867 0
M  V30 2339 O 212.222 1.90483 -0.393257 0
M  V30 2340 C 212.505 0.428238 -3.57545 0
M  V30 2341 C 212.358 -0.866248 -4.4138 0
M  V30 2342 C 213.677 1.21287 -4.23057 0
M  V30 2343 H 210.796 0.0619851 -0.734389 0
M  V30 2344 H 213.438 -0.53565 -1.82293 0
M  V30 2345 H 211.588 1.03327 -3.74507 0
M  V30 2346 H 213.26 -1.50265 -4.3614 0
M  V30 2347 H 211.503 -1.47851 -4.07827 0
M  V30 2348 H 212.174 -0.643249 -5.48239 0
M  V30 2349 H 214.65 0.700703 -4.10158 0
M  V30 2350 H 213.526 1.35909 -5.31808 0
M  V30 2351 H 213.787 2.23193 -3.81625 0
M  V30 2352 N 212.846 1.57033 -0.133567 0
M  V30 2353 C 214.092 1.95976 0.521649 0
M  V30 2354 C 214.425 1.01779 1.65393 0
M  V30 2355 O 213.7 0.0576581 1.94415 0
M  V30 2356 C 213.983 3.44738 1.04057 0
M  V30 2357 C 213.836 4.49711 -0.0892897 0
M  V30 2358 C 215.155 3.95682 1.92675 0
M  V30 2359 H 212.274 0.712579 0.188149 0
M  V30 2360 H 214.916 1.88813 -0.212076 0
M  V30 2361 H 213.066 3.50973 1.66583 0
M  V30 2362 H 214.738 4.55565 -0.725152 0
M  V30 2363 H 212.981 4.27261 -0.750378 0
M  V30 2364 H 213.652 5.51099 0.315284 0
M  V30 2365 H 216.128 3.91841 1.39998 0
M  V30 2366 H 215.004 5.00262 2.25897 0
M  V30 2367 H 215.265 3.37239 2.85872 0
M  V30 2368 N 214.325 -0.140222 1.56975 0
M  V30 2369 C 215.55 -0.870414 1.88251 0
M  V30 2370 C 215.975 -1.73637 0.723312 0
M  V30 2371 O 215.333 -1.78329 -0.32689 0
M  V30 2372 C 215.381 -1.69737 3.18154 0
M  V30 2373 O 214.485 -2.80229 3.02565 0
M  V30 2374 H 213.826 -0.242025 0.61832 0
M  V30 2375 H 216.356 -0.128999 2.04193 0
M  V30 2376 H 216.366 -2.09099 3.50345 0
M  V30 2377 H 215.041 -1.06152 4.02125 0
M  V30 2378 H 213.618 -2.44224 2.81796 0
M  V30 2379 N 215.803 -1.52179 -0.40978 0
M  V30 2380 C 217.08 -1.56769 -1.16974 0
M  V30 2381 C 217.46 -0.348322 -2.08206 0
M  V30 2382 O 216.808 0.664862 -2.18613 0
M  V30 2383 C 217.018 -2.89603 -1.9476 0
M  V30 2384 C 218.366 -3.42579 -2.50849 0
M  V30 2385 O 219.39 -2.91338 -2.04941 0
M  V30 2386 O 218.249 -4.32054 -3.34652 0
M  V30 2387 H 215.343 -0.631439 -0.534054 0
M  V30 2388 H 217.889 -1.64507 -0.416613 0
M  V30 2389 H 216.661 -3.698 -1.27921 0
M  V30 2390 H 216.284 -2.85155 -2.77079 0
M  V30 2391 N 217.281 0.66697 -1.42791 0
M  V30 2392 C 218.529 1.42417 -1.43394 0
M  V30 2393 C 218.85 1.94925 -0.0542373 0
M  V30 2394 O 218.12 1.73564 0.908415 0
M  V30 2395 H 216.7 0.528515 -0.527902 0
M  V30 2396 H 219.362 0.787562 -1.78279 0
M  V30 2397 H 218.458 2.27333 -2.13837 0
M  V30 2398 N 218.759 1.29093 0.90403 0
M  V30 2399 C 219.706 1.13853 2.00764 0
M  V30 2400 C 220.676 0.0330084 1.66067 0
M  V30 2401 O 221.861 0.199733 1.89752 0
M  V30 2402 C 219.001 0.816537 3.35301 0
M  V30 2403 C 218.114 2.00206 3.82807 0
M  V30 2404 C 217.249 1.61983 5.059 0
M  V30 2405 C 216.288 2.77143 5.45764 0
M  V30 2406 N 215.425 2.39346 6.60044 0
M  V30 2407 H 220.265 2.08276 2.13132 0
M  V30 2408 H 217.802 1.03648 1.04381 0
M  V30 2409 H 219.76 0.610557 4.12708 0
M  V30 2410 H 218.39 -0.090779 3.22672 0
M  V30 2411 H 217.442 2.31988 3.01473 0
M  V30 2412 H 218.754 2.86512 4.08304 0
M  V30 2413 H 217.908 1.37649 5.90879 0
M  V30 2414 H 216.647 0.728202 4.82233 0
M  V30 2415 H 215.652 3.02165 4.59322 0
M  V30 2416 H 216.877 3.66964 5.71414 0
M  V30 2417 H 214.823 1.52665 6.37989 0
M  V30 2418 H 214.74 3.19185 6.85315 0
M  V30 2419 H 216.008 2.1832 7.48303 0
M  V30 2420 N 220.237 -1.11381 1.11499 0
M  V30 2421 C 221.653 -1.35143 0.849031 0
M  V30 2422 C 221.853 -1.94515 -0.525938 0
M  V30 2423 O 220.909 -2.1785 -1.27662 0
M  V30 2424 C 222.222 -2.28249 1.95762 0
M  V30 2425 C 223.77 -2.41812 1.98736 0
M  V30 2426 C 224.245 -3.3824 3.088 0
M  V30 2427 N 225.736 -3.45803 3.08179 0
M  V30 2428 C 226.471 -4.20358 3.89982 0
M  V30 2429 N 225.967 -4.97884 4.8175 0
M  V30 2430 N 227.76 -4.15877 3.78157 0
M  V30 2431 H 219.911 -0.712062 2.00109 0
M  V30 2432 H 222.174 -0.376025 0.870235 0
M  V30 2433 H 221.88 -1.91817 2.94787 0
M  V30 2434 H 221.754 -3.28473 1.85433 0
M  V30 2435 H 224.141 -2.77518 1.00338 0
M  V30 2436 H 224.222 -1.41437 2.13141 0
M  V30 2437 H 223.866 -3.03261 4.07425 0
M  V30 2438 H 223.796 -4.38471 2.91635 0
M  V30 2439 H 226.287 -2.90506 2.41691 0
M  V30 2440 H 226.6 -5.52142 5.40702 0
M  V30 2441 H 224.945 -4.97043 4.85771 0
M  V30 2442 H 228.136 -3.544 3.05808 0
M  V30 2443 H 228.309 -4.73723 4.42143 0
M  V30 2444 N 221.715 -0.905404 -1.28997 0
M  V30 2445 C 222.962 -0.534248 -1.95325 0
M  V30 2446 C 223.29 0.920535 -1.71337 0
M  V30 2447 O 222.545 1.66861 -1.02254 0
M  V30 2448 C 222.844 -0.779906 -3.48787 0
M  V30 2449 C 222.51 -2.21293 -3.92861 0
M  V30 2450 C 221.172 -2.60475 -4.04606 0
M  V30 2451 C 223.524 -3.14587 -4.15553 0
M  V30 2452 C 220.852 -3.9212 -4.36416 0
M  V30 2453 C 223.204 -4.45787 -4.48839 0
M  V30 2454 C 221.868 -4.84834 -4.58794 0
M  V30 2455 H 221.138 -0.195495 -0.714747 0
M  V30 2456 H 223.785 -1.14514 -1.53488 0
M  V30 2457 H 222.09 -0.0861365 -3.91705 0
M  V30 2458 H 223.787 -0.472029 -3.98212 0
M  V30 2459 H 220.377 -1.89887 -3.84241 0
M  V30 2460 H 224.561 -2.85528 -4.0594 0
M  V30 2461 H 219.817 -4.22086 -4.42327 0
M  V30 2462 H 223.991 -5.18098 -4.65346 0
M  V30 2463 H 221.618 -5.86877 -4.83197 0
M  V30 2464 N 223.193 1.4272 -0.668489 0
M  V30 2465 C 224.123 2.335 -0.000100175 0
M  V30 2466 C 225.104 1.50328 0.795964 0
M  V30 2467 O 226.289 1.78949 0.754385 0
M  V30 2468 C 223.419 3.33874 0.956302 0
M  V30 2469 C 222.373 4.27152 0.269278 0
M  V30 2470 C 221.699 5.17684 1.33818 0
M  V30 2471 C 222.999 5.15373 -0.847805 0
M  V30 2472 H 224.693 2.89639 -0.758244 0
M  V30 2473 H 222.239 1.39269 -0.366079 0
M  V30 2474 H 224.192 3.9629 1.43292 0
M  V30 2475 H 222.916 2.76025 1.74579 0
M  V30 2476 H 221.575 3.66123 -0.187042 0
M  V30 2477 H 221.223 4.56165 2.1195 0
M  V30 2478 H 220.923 5.80918 0.883659 0
M  V30 2479 H 222.447 5.82974 1.81586 0
M  V30 2480 H 223.861 5.7151 -0.452681 0
M  V30 2481 H 222.258 5.87407 -1.22773 0
M  V30 2482 H 223.328 4.5415 -1.69929 0
M  V30 2483 N 224.671 0.411399 1.52136 0
M  V30 2484 C 225.919 -0.163322 2.01439 0
M  V30 2485 C 226.24 -1.45453 1.29879 0
M  V30 2486 O 225.51 -1.91225 0.4254 0
M  V30 2487 H 224.09 -0.0633447 0.744309 0
M  V30 2488 H 226.752 0.548161 1.87033 0
M  V30 2489 H 225.848 -0.357817 3.10042 0
M  V30 2490 N 226.149 -1.5696 0.141893 0
M  V30 2491 C 227.374 -2.00754 -0.520838 0
M  V30 2492 C 227.799 -1.0213 -1.57959 0
M  V30 2493 O 227.157 0.00371324 -1.813 0
M  V30 2494 C 227.205 -3.43318 -1.10294 0
M  V30 2495 O 226.309 -3.47679 -2.21795 0
M  V30 2496 H 225.65 -0.651564 -0.127908 0
M  V30 2497 H 228.18 -2.03221 0.23712 0
M  V30 2498 H 228.19 -3.82012 -1.43287 0
M  V30 2499 H 226.865 -4.14608 -0.327574 0
M  V30 2500 H 225.442 -3.20824 -1.9007 0
M  V30 2501 N 227.627 0.131896 -1.57047 0
M  V30 2502 C 228.875 0.840269 -1.83804 0
M  V30 2503 C 229.196 1.81017 -0.72512 0
M  V30 2504 O 228.466 1.94272 0.251995 0
M  V30 2505 H 227.046 0.313294 -0.678127 0
M  V30 2506 H 229.708 0.122294 -1.94516 0
M  V30 2507 H 228.804 1.39335 -2.79271 0
M  V30 2508 N 229.106 1.52395 0.401703 0
M  V30 2509 C 230.354 1.66488 1.14569 0
M  V30 2510 C 230.675 0.400897 1.90835 0
M  V30 2511 O 229.945 -0.584415 1.8698 0
M  V30 2512 H 228.525 0.613672 0.425929 0
M  V30 2513 H 231.187 1.89464 0.457093 0
M  V30 2514 H 230.283 2.50942 1.85566 0
M  V30 2515 N 230.584 -0.659388 1.43143 0
M  V30 2516 C 231.831 -1.41935 1.44433 0
M  V30 2517 C 232.159 -1.94387 0.0663522 0
M  V30 2518 O 231.414 -1.72314 -0.927706 0
M  V30 2519 C 231.713 -2.62206 2.42864 0
M  V30 2520 C 231.379 -2.28208 3.88886 0
M  V30 2521 C 230.041 -2.18647 4.28657 0
M  V30 2522 C 232.393 -2.00887 4.8093 0
M  V30 2523 C 229.721 -1.79914 5.58433 0
M  V30 2524 C 232.073 -1.63653 6.11065 0
M  V30 2525 C 230.737 -1.52614 6.49819 0
M  V30 2526 H 230.007 -0.519376 0.528517 0
M  V30 2527 H 232.654 -0.750453 1.76183 0
M  V30 2528 H 230.959 -3.34199 2.04495 0
M  V30 2529 H 232.656 -3.2041 2.41119 0
M  V30 2530 H 229.246 -2.36557 3.57406 0
M  V30 2531 H 233.43 -2.07198 4.5098 0
M  V30 2532 H 228.686 -1.69948 5.87305 0
M  V30 2533 H 232.86 -1.41543 6.81864 0
M  V30 2534 H 230.487 -1.22371 7.50286 0
M  V30 2535 N 232.062 -1.29571 -0.897171 0
M  V30 2536 C 233.311 -1.1706 -1.64256 0
M  V30 2537 C 233.624 0.276476 -1.93636 0
M  V30 2538 O 234.83 0.52294 -2.66416 0
M  V30 2539 C 233.286 -2.0475 -2.95982 0
M  V30 2540 C 232.894 -3.54295 -2.74187 0
M  V30 2541 C 234.638 -2.0097 -3.73914 0
M  V30 2542 C 232.545 -4.34081 -4.01656 0
M  V30 2543 H 231.475 -0.43452 -0.616205 0
M  V30 2544 H 234.126 -1.54229 -0.994268 0
M  V30 2545 H 232.508 -1.60452 -3.62038 0
M  V30 2546 H 233.682 -4.06662 -2.1671 0
M  V30 2547 H 231.997 -3.59773 -2.09648 0
M  V30 2548 H 234.594 -2.57838 -4.68427 0
M  V30 2549 H 234.937 -0.990273 -4.0435 0
M  V30 2550 H 235.47 -2.43325 -3.14703 0
M  V30 2551 H 232.209 -5.36671 -3.76384 0
M  V30 2552 H 231.729 -3.86483 -4.58684 0
M  V30 2553 H 233.408 -4.44877 -4.69781 0
M  V30 2554 N 233.54 1.10788 -1.12088 0
M  V30 2555 C 234.788 1.8231 -0.872205 0
M  V30 2556 C 235.109 1.85419 0.603709 0
M  V30 2557 O 234.379 1.32963 1.43867 0
M  V30 2558 H 232.959 0.675137 -0.319686 0
M  V30 2559 H 235.621 1.34068 -1.41463 0
M  V30 2560 H 234.717 2.85955 -1.25045 0
M  V30 2561 N 235.018 0.912232 1.28515 0
M  V30 2562 C 236.248 0.559604 1.98877 0
M  V30 2563 C 236.656 -0.863113 1.68366 0
M  V30 2564 O 235.999 -1.58304 0.931969 0
M  V30 2565 C 236.061 0.68703 3.52874 0
M  V30 2566 C 235.725 2.07901 4.06972 0
M  V30 2567 C 236.722 3.05157 4.20922 0
M  V30 2568 C 234.407 2.39178 4.417 0
M  V30 2569 C 236.401 4.31806 4.68852 0
M  V30 2570 C 234.088 3.66068 4.89324 0
M  V30 2571 C 235.086 4.62195 5.02856 0
M  V30 2572 O 234.774 5.86829 5.49442 0
M  V30 2573 H 234.506 0.212191 0.641834 0
M  V30 2574 H 237.06 1.22712 1.64715 0
M  V30 2575 H 235.29 -0.0375486 3.86682 0
M  V30 2576 H 236.979 0.341727 4.04459 0
M  V30 2577 H 237.745 2.82311 3.94367 0
M  V30 2578 H 233.624 1.65109 4.30418 0
M  V30 2579 H 237.168 5.06842 4.79329 0
M  V30 2580 H 233.065 3.88739 5.15318 0
M  V30 2581 H 233.833 5.89597 5.6773 0
M  V30 2582 N 236.496 -1.42363 0.676048 0
M  V30 2583 C 237.459 -2.29199 0.00766941 0
M  V30 2584 C 238.459 -1.43389 -0.727745 0
M  V30 2585 O 239.649 -1.64764 -0.56556 0
M  V30 2586 C 236.781 -3.2591 -0.999785 0
M  V30 2587 H 237.974 -2.89794 0.771988 0
M  V30 2588 H 235.527 -1.50024 0.438468 0
M  V30 2589 H 236.262 -2.70256 -1.79255 0
M  V30 2590 H 236.047 -3.89202 -0.475829 0
M  V30 2591 H 237.537 -3.91028 -1.46583 0
M  V30 2592 N 237.974 -0.419461 -1.51915 0
M  V30 2593 C 239.385 0.0477853 -1.86639 0
M  V30 2594 C 239.736 1.43531 -1.33766 0
M  V30 2595 O 238.861 2.05401 -0.68113 0
M  V30 2596 C 239.456 0.0934885 -3.38671 0
M  V30 2597 C 238.015 0.505097 -3.72996 0
M  V30 2598 C 237.162 -0.313792 -2.75519 0
M  V30 2599 H 240.113 -0.636088 -1.45395 0
M  V30 2600 H 240.134 0.906667 -3.6954 0
M  V30 2601 H 239.646 -0.916501 -3.77123 0
M  V30 2602 H 237.747 1.52135 -3.40126 0
M  V30 2603 H 237.86 0.242309 -4.78487 0
M  V30 2604 H 236.224 0.225363 -2.53701 0
M  V30 2605 H 237.007 -1.32232 -3.16812 0
M  V30 2606 N 239.452 1.56882 -0.150215 0
M  V30 2607 C 240.4 2.18214 0.805313 0
M  V30 2608 C 241.394 1.14006 1.25296 0
M  V30 2609 O 242.6 1.3225 1.22107 0
M  V30 2610 H 238.975 0.698762 0.277913 0
M  V30 2611 H 240.946 2.97231 0.263862 0
M  V30 2612 C 239.695 2.82065 2.03309 0
M  V30 2613 H 239.018 3.61968 1.69763 0
M  V30 2614 H 240.458 3.28477 2.68103 0
M  V30 2615 C 238.917 1.80739 2.84315 0
M  V30 2616 O 239.447 1.27983 3.80767 0
M  V30 2617 N 237.653 1.4997 2.48913 0
M  V30 2618 H 237.2 1.93062 1.70542 0
M  V30 2619 H 237.158 0.824217 3.03404 0
M  V30 2620 N 240.93 -0.123565 1.57115 0
M  V30 2621 C 241.86 -1.15309 2.03042 0
M  V30 2622 C 242.841 -1.43454 0.914061 0
M  V30 2623 O 244.026 -1.53973 1.18347 0
M  V30 2624 C 241.156 -2.48043 2.43089 0
M  V30 2625 C 240.11 -2.3437 3.58127 0
M  V30 2626 C 239.436 -3.72026 3.84059 0
M  V30 2627 C 240.736 -1.80804 4.90007 0
M  V30 2628 H 242.43 -0.771102 2.893 0
M  V30 2629 H 239.976 -0.369479 1.39179 0
M  V30 2630 H 241.929 -3.20311 2.73823 0
M  V30 2631 H 240.653 -2.88122 1.53796 0
M  V30 2632 H 239.312 -1.64551 3.27595 0
M  V30 2633 H 238.96 -4.09582 2.91979 0
M  V30 2634 H 238.66 -3.63732 4.6149 0
M  V30 2635 H 240.184 -4.45806 4.1724 0
M  V30 2636 H 241.598 -2.42886 5.19307 0
M  V30 2637 H 239.995 -1.83343 5.71407 0
M  V30 2638 H 241.065 -0.76528 4.78823 0
M  V30 2639 N 242.408 -1.52605 -0.393616 0
M  V30 2640 C 243.633 -1.71592 -1.16495 0
M  V30 2641 C 244.058 -0.43133 -1.83088 0
M  V30 2642 O 243.416 0.612523 -1.7064 0
M  V30 2643 C 243.464 -2.86318 -2.19213 0
M  V30 2644 O 242.568 -2.52969 -3.257 0
M  V30 2645 H 241.909 -0.570734 -0.33935 0
M  V30 2646 H 244.439 -1.99377 -0.459324 0
M  V30 2647 H 244.449 -3.1168 -2.63286 0
M  V30 2648 H 243.124 -3.79511 -1.7013 0
M  V30 2649 H 241.701 -2.38332 -2.86797 0
M  V30 2650 N 243.887 0.651787 -1.4349 0
M  V30 2651 C 244.834 1.76462 -1.4876 0
M  V30 2652 C 245.804 1.62641 -0.337189 0
M  V30 2653 O 246.989 1.82864 -0.544544 0
M  V30 2654 C 244.129 3.14623 -1.41796 0
M  V30 2655 C 243.242 3.39568 -2.67053 0
M  V30 2656 C 242.377 4.67585 -2.52068 0
M  V30 2657 C 241.416 4.85639 -3.72587 0
M  V30 2658 N 240.553 6.04915 -3.56402 0
M  V30 2659 H 245.393 1.71293 -2.43849 0
M  V30 2660 H 242.93 0.835889 -1.21043 0
M  V30 2661 H 244.888 3.94496 -1.35753 0
M  V30 2662 H 243.518 3.18859 -0.50288 0
M  V30 2663 H 242.57 2.53783 -2.8337 0
M  V30 2664 H 243.882 3.48795 -3.56572 0
M  V30 2665 H 243.036 5.55586 -2.4374 0
M  V30 2666 H 241.775 4.60681 -1.60075 0
M  V30 2667 H 240.78 3.96073 -3.81321 0
M  V30 2668 H 242.005 4.94372 -4.65589 0
M  V30 2669 H 239.951 5.9914 -2.67146 0
M  V30 2670 H 239.868 6.15106 -4.39524 0
M  V30 2671 H 241.136 6.95533 -3.51929 0
M  V30 2672 N 245.365 1.30045 0.890287 0
M  V30 2673 C 246.295 1.18541 2.01172 0
M  V30 2674 C 247.276 0.0773356 1.69924 0
M  V30 2675 O 248.461 0.25845 1.92473 0
M  V30 2676 C 245.591 0.870941 3.36202 0
M  V30 2677 C 244.545 1.93637 3.81692 0
M  V30 2678 C 243.871 1.475 5.13953 0
M  V30 2679 C 245.171 3.34666 4.00994 0
M  V30 2680 H 246.865 2.12359 2.11054 0
M  V30 2681 H 244.411 1.02238 1.01407 0
M  V30 2682 H 246.364 0.777141 4.14172 0
M  V30 2683 H 245.088 -0.102926 3.26438 0
M  V30 2684 H 243.747 2.01972 3.05946 0
M  V30 2685 H 243.395 0.489551 5.00612 0
M  V30 2686 H 243.095 2.1876 5.4536 0
M  V30 2687 H 244.619 1.39489 5.94454 0
M  V30 2688 H 246.033 3.2912 4.69417 0
M  V30 2689 H 244.43 4.03966 4.43769 0
M  V30 2690 H 245.5 3.76949 3.05021 0
M  V30 2691 N 246.843 -1.10192 1.12674 0
M  V30 2692 C 248.089 -1.82475 0.884915 0
M  V30 2693 C 248.422 -1.85093 -0.58773 0
M  V30 2694 O 247.697 -1.3134 -1.43457 0
M  V30 2695 C 247.98 -3.29018 1.46353 0
M  V30 2696 C 247.833 -3.34718 3.00473 0
M  V30 2697 C 249.152 -4.25473 1.12519 0
M  V30 2698 H 246.271 -0.662492 0.322915 0
M  V30 2699 H 248.913 -1.2913 1.39375 0
M  V30 2700 H 247.063 -3.74576 1.03077 0
M  V30 2701 H 248.735 -2.97622 3.52447 0
M  V30 2702 H 246.978 -2.74541 3.35872 0
M  V30 2703 H 247.649 -4.37918 3.36053 0
M  V30 2704 H 250.125 -3.88161 1.499 0
M  V30 2705 H 249.001 -5.26365 1.55663 0
M  V30 2706 H 249.262 -4.42084 0.0377407 0
M  V30 2707 N 248.321 -0.919034 -1.28029 0
M  V30 2708 C 249.284 -0.416182 -2.2539 0
M  V30 2709 C 250.284 0.460438 -1.54067 0
M  V30 2710 O 251.474 0.262744 -1.72207 0
M  V30 2711 C 248.606 0.402707 -3.38513 0
M  V30 2712 H 249.799 -1.27629 -2.71387 0
M  V30 2713 H 247.352 -0.698919 -1.39803 0
M  V30 2714 H 248.087 1.282 -2.97885 0
M  V30 2715 H 247.872 -0.225698 -3.9145 0
M  V30 2716 H 249.362 0.745191 -4.10897 0
M  V30 2717 N 249.799 1.42003 -0.683588 0
M  V30 2718 C 250.709 2.34597 -0.0109075 0
M  V30 2719 C 251.725 1.55576 0.779245 0
M  V30 2720 O 252.901 1.88107 0.719555 0
M  V30 2721 C 249.966 3.34199 0.922588 0
M  V30 2722 C 249.027 4.29115 0.125984 0
M  V30 2723 C 248.26 5.23959 1.01502 0
M  V30 2724 O 248.483 5.23952 2.25456 0
M  V30 2725 O 247.417 6.00053 0.47111 0
M  V30 2726 H 251.243 2.93675 -0.773853 0
M  V30 2727 H 248.828 1.42654 -0.443861 0
M  V30 2728 H 250.71 3.95365 1.45823 0
M  V30 2729 H 249.385 2.77582 1.66523 0
M  V30 2730 H 248.292 3.71335 -0.453969 0
M  V30 2731 H 249.625 4.88798 -0.577736 0
M  V30 2732 N 251.277 0.427512 1.51691 0
M  V30 2733 C 252.523 -0.134744 2.02953 0
M  V30 2734 C 252.878 -1.41235 1.30654 0
M  V30 2735 O 252.171 -1.87168 0.409713 0
M  V30 2736 C 252.365 -0.418249 3.54944 0
M  V30 2737 C 252.194 0.830327 4.41968 0
M  V30 2738 C 250.964 1.36097 4.86627 0
M  V30 2739 C 253.162 1.7137 4.84909 0
M  V30 2740 N 251.144 2.56311 5.57833 0
M  V30 2741 C 252.515 2.76195 5.55082 0
M  V30 2742 C 254.57 1.72928 4.66905 0
M  V30 2743 C 253.273 3.82512 6.09161 0
M  V30 2744 C 255.299 2.78175 5.21894 0
M  V30 2745 C 254.661 3.8172 5.92004 0
M  V30 2746 H 250.76 -0.0103958 0.781931 0
M  V30 2747 H 253.344 0.585981 1.85673 0
M  V30 2748 H 251.515 -1.10801 3.7226 0
M  V30 2749 H 253.247 -0.970999 3.92879 0
M  V30 2750 H 250.002 0.916311 4.64651 0
M  V30 2751 H 250.426 3.17242 5.98069 0
M  V30 2752 H 255.068 0.942081 4.12171 0
M  V30 2753 H 252.786 4.62077 6.62956 0
M  V30 2754 H 256.372 2.8031 5.09821 0
M  V30 2755 H 255.252 4.61821 6.33791 0
M  V30 2756 N 252.755 -1.56801 0.158532 0
M  V30 2757 C 253.665 -2.20916 -0.789518 0
M  V30 2758 C 254.681 -1.1969 -1.26294 0
M  V30 2759 O 255.857 -1.52308 -1.31773 0
M  V30 2760 C 252.922 -2.82727 -2.00665 0
M  V30 2761 C 251.983 -3.99114 -1.58134 0
M  V30 2762 C 251.216 -4.57968 -2.74045 0
M  V30 2763 O 251.439 -4.15704 -3.90572 0
M  V30 2764 O 250.373 -5.48047 -2.48855 0
M  V30 2765 H 254.199 -3.02464 -0.273681 0
M  V30 2766 H 251.784 -1.4924 -0.0690548 0
M  V30 2767 H 253.666 -3.21968 -2.71872 0
M  V30 2768 H 252.341 -2.04184 -2.51179 0
M  V30 2769 H 251.248 -3.64567 -0.839155 0
M  V30 2770 H 252.581 -4.79212 -1.12325 0
M  V30 2771 N 254.233 0.115231 -1.57178 0
M  V30 2772 C 255.481 0.820727 -1.84685 0
M  V30 2773 C 255.802 1.80237 -0.744279 0
M  V30 2774 O 255.072 1.94529 0.231375 0
M  V30 2775 H 253.652 0.306084 -0.681411 0
M  V30 2776 H 256.314 0.101656 -1.94635 0
M  V30 2777 H 255.41 1.36366 -2.80733 0
M  V30 2778 N 255.711 1.52812 0.385517 0
M  V30 2779 C 256.643 1.74096 1.49074 0
M  V30 2780 C 257.656 0.621462 1.50472 0
M  V30 2781 O 258.845 0.897245 1.54311 0
M  V30 2782 C 255.945 1.78774 2.87911 0
M  V30 2783 C 255.118 3.08134 3.10439 0
M  V30 2784 C 254.177 3.04313 4.29278 0
M  V30 2785 O 253.203 3.78168 4.25415 0
M  V30 2786 N 254.405 2.23741 5.35649 0
M  V30 2787 H 257.17 2.69455 1.31202 0
M  V30 2788 H 254.731 1.51343 0.575065 0
M  V30 2789 H 256.723 1.73721 3.65518 0
M  V30 2790 H 255.293 0.907869 2.99126 0
M  V30 2791 H 254.513 3.26649 2.20667 0
M  V30 2792 H 255.801 3.93662 3.22347 0
M  V30 2793 H 255.199 1.63211 5.41645 0
M  V30 2794 H 253.756 2.24524 6.11909 0
M  V30 2795 N 257.189 -0.644168 1.43834 0
M  V30 2796 C 258.466 -1.40188 1.36406 0
M  V30 2797 C 258.846 -2.11094 0.0163124 0
M  V30 2798 O 258.194 -2.05426 -1.00062 0
M  V30 2799 C 258.404 -2.3791 2.55343 0
M  V30 2800 C 259.752 -3.01637 2.98832 0
M  V30 2801 O 260.776 -2.48237 2.55455 0
M  V30 2802 O 259.635 -3.98477 3.74003 0
M  V30 2803 H 256.729 -0.626773 0.539523 0
M  V30 2804 H 259.275 -0.670317 1.559 0
M  V30 2805 H 258.047 -1.84525 3.4506 0
M  V30 2806 H 257.67 -3.18503 2.37995 0
M  V30 2807 N 258.668 -1.30515 -0.883378 0
M  V30 2808 C 259.893 -1.22487 -1.67367 0
M  V30 2809 C 260.318 0.208767 -1.86938 0
M  V30 2810 O 259.676 1.15015 -1.40148 0
M  V30 2811 C 259.724 -1.96041 -3.02655 0
M  V30 2812 O 258.828 -1.28859 -3.91751 0
M  V30 2813 H 258.169 -0.423573 -0.511353 0
M  V30 2814 H 260.699 -1.72362 -1.10239 0
M  V30 2815 H 260.709 -2.05124 -3.52687 0
M  V30 2816 H 259.384 -3.00307 -2.8773 0
M  V30 2817 H 257.961 -1.28141 -3.50192 0
M  V30 2818 N 260.146 1.09593 -1.13257 0
M  V30 2819 C 261.423 1.78293 -0.804432 0
M  V30 2820 C 261.803 1.99004 0.70431 0
M  V30 2821 O 261.151 1.59007 1.641 0
M  V30 2822 C 261.361 3.10707 -1.5894 0
M  V30 2823 C 262.709 3.85443 -1.78099 0
M  V30 2824 O 263.733 3.20454 -1.55525 0
M  V30 2825 O 262.592 5.02108 -2.15753 0
M  V30 2826 H 259.686 0.773156 -0.293528 0
M  V30 2827 H 262.232 1.16164 -1.23709 0
M  V30 2828 H 261.004 2.91106 -2.61482 0
M  V30 2829 H 260.627 3.80558 -1.15157 0
M  V30 2830 N 261.624 0.925811 1.2754 0
M  V30 2831 C 262.849 0.580924 1.99098 0
M  V30 2832 C 263.274 -0.833555 1.68622 0
M  V30 2833 O 262.632 -1.55903 0.925422 0
M  V30 2834 C 262.68 0.811186 3.51358 0
M  V30 2835 O 261.784 -0.124129 4.12213 0
M  V30 2836 H 261.125 0.223873 0.625122 0
M  V30 2837 H 263.655 1.24455 1.62395 0
M  V30 2838 H 263.665 0.72601 4.01489 0
M  V30 2839 H 262.34 1.84227 3.72872 0
M  V30 2840 H 260.917 0.0108006 3.72898 0
M  V30 2841 N 263.102 -1.41638 0.69111 0
M  V30 2842 C 264.379 -1.95036 0.148421 0
M  V30 2843 C 264.759 -1.63072 -1.34055 0
M  V30 2844 O 264.107 -0.93538 -2.08478 0
M  V30 2845 C 264.317 -3.46279 0.434951 0
M  V30 2846 C 265.665 -4.23069 0.360275 0
M  V30 2847 O 266.689 -3.54277 0.369613 0
M  V30 2848 O 265.548 -5.45583 0.316534 0
M  V30 2849 H 262.642 -0.826908 0.0123654 0
M  V30 2850 H 265.188 -1.5138 0.766963 0
M  V30 2851 H 263.96 -3.6281 1.46576 0
M  V30 2852 H 263.583 -3.97019 -0.214787 0
M  V30 2853 N 264.58 -0.43555 -1.51462 0
M  V30 2854 C 265.512 0.41257 -2.25456 0
M  V30 2855 C 266.525 0.987822 -1.29406 0
M  V30 2856 O 267.714 0.882266 -1.55172 0
M  V30 2857 C 264.814 1.58894 -2.99342 0
M  V30 2858 C 263.987 1.13288 -4.22474 0
M  V30 2859 C 263.046 2.17917 -4.78956 0
M  V30 2860 O 262.072 1.77425 -5.40841 0
M  V30 2861 N 263.274 3.50382 -4.62832 0
M  V30 2862 H 266.039 -0.221603 -2.9888 0
M  V30 2863 H 263.6 -0.264342 -1.59727 0
M  V30 2864 H 265.592 2.28508 -3.34015 0
M  V30 2865 H 264.162 2.12849 -2.28941 0
M  V30 2866 H 263.382 0.263881 -3.93316 0
M  V30 2867 H 264.67 0.805542 -5.02383 0
M  V30 2868 H 264.068 3.86013 -4.13534 0
M  V30 2869 H 262.625 4.15895 -5.01871 0
M  V30 2870 N 266.058 1.56714 -0.166846 0
M  V30 2871 C 266.988 2.20754 0.760913 0
M  V30 2872 C 267.969 1.16178 1.24244 0
M  V30 2873 O 269.154 1.44592 1.29641 0
M  V30 2874 C 266.284 2.84478 1.99223 0
M  V30 2875 C 265.238 3.95053 1.64672 0
M  V30 2876 C 264.564 4.45805 2.95232 0
M  V30 2877 C 265.864 5.14865 0.878155 0
M  V30 2878 H 267.558 2.98537 0.22713 0
M  V30 2879 H 265.104 1.43596 0.107805 0
M  V30 2880 H 267.057 3.27951 2.64624 0
M  V30 2881 H 265.781 2.04056 2.55007 0
M  V30 2882 H 264.44 3.52228 1.01641 0
M  V30 2883 H 264.088 3.62181 3.49047 0
M  V30 2884 H 263.788 5.204 2.7287 0
M  V30 2885 H 265.312 4.91962 3.6167 0
M  V30 2886 H 266.726 5.55059 1.43466 0
M  V30 2887 H 265.123 5.95348 0.753738 0
M  V30 2888 H 266.193 4.84735 -0.126377 0
M  V30 2889 N 267.536 -0.106894 1.57237 0
M  V30 2890 C 268.783 -0.812526 1.85484 0
M  V30 2891 C 269.111 -1.79304 0.753687 0
M  V30 2892 O 268.366 -1.94047 -0.253853 0
M  V30 2893 C 268.665 -1.58628 3.20268 0
M  V30 2894 C 268.331 -0.748967 4.44636 0
M  V30 2895 C 266.993 -0.518104 4.78403 0
M  V30 2896 C 269.345 -0.166122 5.20935 0
M  V30 2897 C 266.673 0.305659 5.85903 0
M  V30 2898 C 269.025 0.644899 6.29304 0
M  V30 2899 C 267.689 0.885965 6.61594 0
M  V30 2900 H 266.959 -0.297324 0.678734 0
M  V30 2901 H 269.606 -0.0744332 1.91355 0
M  V30 2902 H 267.911 -2.39562 3.10028 0
M  V30 2903 H 269.608 -2.13643 3.39349 0
M  V30 2904 H 266.198 -0.939006 4.18187 0
M  V30 2905 H 270.382 -0.33167 4.95191 0
M  V30 2906 H 265.638 0.501528 6.0934 0
M  V30 2907 H 269.812 1.10345 6.87602 0
M  V30 2908 H 267.439 1.52609 7.44725 0
M  V30 2909 N 269.014 -1.53014 -0.377408 0
M  V30 2910 C 270.244 -1.72265 -1.14054 0
M  V30 2911 C 270.652 -0.44601 -1.83868 0
M  V30 2912 O 269.995 0.590095 -1.73964 0
M  V30 2913 C 270.057 -2.82492 -2.22348 0
M  V30 2914 C 269.721 -4.23233 -1.72402 0
M  V30 2915 C 270.718 -5.05992 -1.19448 0
M  V30 2916 C 268.403 -4.696 -1.78273 0
M  V30 2917 C 270.397 -6.33203 -0.730268 0
M  V30 2918 C 268.084 -5.96792 -1.31464 0
M  V30 2919 C 269.082 -6.78424 -0.789297 0
M  V30 2920 O 268.77 -8.0323 -0.328077 0
M  V30 2921 H 268.502 -0.579873 -0.347453 0
M  V30 2922 H 271.056 -2.00502 -0.445882 0
M  V30 2923 H 269.286 -2.49702 -2.95272 0
M  V30 2924 H 270.975 -2.90034 -2.83963 0
M  V30 2925 H 271.741 -4.71349 -1.14259 0
M  V30 2926 H 267.62 -4.06142 -2.18106 0
M  V30 2927 H 271.164 -6.96868 -0.319542 0
M  V30 2928 H 267.061 -6.30937 -1.36342 0
M  V30 2929 H 267.829 -8.1727 -0.448493 0
M  V30 2930 N 270.492 0.636531 -1.44174 0
M  V30 2931 C 271.72 1.42353 -1.50144 0
M  V30 2932 C 272.135 1.88389 -0.124575 0
M  V30 2933 O 271.492 1.6051 0.868489 0
M  V30 2934 C 271.543 2.64744 -2.46156 0
M  V30 2935 O 271.264 2.20629 -3.7849 0
M  V30 2936 C 272.765 3.57929 -2.61537 0
M  V30 2937 H 269.985 0.436752 -0.5094 0
M  V30 2938 H 272.529 0.778933 -1.89084 0
M  V30 2939 H 270.684 3.25307 -2.10366 0
M  V30 2940 H 271.098 2.99938 -4.30276 0
M  V30 2941 H 272.572 4.40428 -3.32757 0
M  V30 2942 H 273.049 4.06382 -1.66585 0
M  V30 2943 H 273.655 3.03238 -2.98206 0
M  V30 2944 N 271.97 1.30982 0.876444 0
M  V30 2945 C 272.917 1.18085 1.98304 0
M  V30 2946 C 273.887 0.0682263 1.6596 0
M  V30 2947 O 275.072 0.239937 1.89285 0
M  V30 2948 C 272.212 0.887475 3.33493 0
M  V30 2949 C 271.325 2.08281 3.78475 0
M  V30 2950 C 270.46 1.72678 5.0235 0
M  V30 2951 C 269.499 2.88657 5.39762 0
M  V30 2952 N 268.636 2.53292 6.54819 0
M  V30 2953 H 273.476 2.1275 2.08666 0
M  V30 2954 H 271.013 1.05839 1.02159 0
M  V30 2955 H 272.971 0.697961 4.1132 0
M  V30 2956 H 271.601 -0.022315 3.22792 0
M  V30 2957 H 270.653 2.3833 2.96484 0
M  V30 2958 H 271.965 2.95108 4.02135 0
M  V30 2959 H 271.119 1.50151 5.87826 0
M  V30 2960 H 269.858 0.830327 4.8058 0
M  V30 2961 H 268.863 3.1184 4.52809 0
M  V30 2962 H 270.088 3.79002 5.63502 0
M  V30 2963 H 268.034 1.66163 6.34607 0
M  V30 2964 H 267.951 3.3365 6.7839 0
M  V30 2965 H 269.219 2.34143 7.43503 0
M  V30 2966 N 273.449 -1.08991 1.13837 0
M  V30 2967 C 274.698 -1.80631 0.897509 0
M  V30 2968 C 275.011 -1.86872 -0.57777 0
M  V30 2969 O 276.217 -2.54866 -0.935701 0
M  V30 2970 C 274.673 -3.24517 1.55618 0
M  V30 2971 C 274.281 -3.26529 3.0673 0
M  V30 2972 C 276.025 -4.00882 1.3962 0
M  V30 2973 C 273.932 -4.64965 3.65461 0
M  V30 2974 H 272.862 -0.67691 0.332129 0
M  V30 2975 H 275.513 -1.2246 1.3666 0
M  V30 2976 H 273.895 -3.82778 1.01476 0
M  V30 2977 H 275.069 -2.78008 3.67489 0
M  V30 2978 H 273.384 -2.63656 3.22296 0
M  V30 2979 H 275.981 -5.03167 1.80906 0
M  V30 2980 H 276.324 -4.14896 0.341578 0
M  V30 2981 H 276.857 -3.49075 1.90766 0
M  V30 2982 H 273.596 -4.56153 4.70749 0
M  V30 2983 H 273.116 -5.13792 3.09481 0
M  V30 2984 H 274.795 -5.3394 3.654 0
M  V30 2985 N 274.927 -0.932562 -1.27047 0
M  V30 2986 C 276.174 -0.575559 -1.94148 0
M  V30 2987 C 276.502 0.883984 -1.73251 0
M  V30 2988 O 275.757 1.64655 -1.0577 0
M  V30 2989 C 276.056 -0.853713 -3.47054 0
M  V30 2990 C 275.722 -2.29577 -3.88079 0
M  V30 2991 C 274.384 -2.68999 -3.9899 0
M  V30 2992 C 276.736 -3.23331 -4.08787 0
M  V30 2993 C 274.064 -4.01289 -4.28 0
M  V30 2994 C 276.416 -4.55207 -4.39282 0
M  V30 2995 C 275.08 -4.94457 -4.48407 0
M  V30 2996 H 274.35 -0.210612 -0.710439 0
M  V30 2997 H 276.997 -1.17744 -1.51025 0
M  V30 2998 H 275.302 -0.169204 -3.91434 0
M  V30 2999 H 276.999 -0.55639 -3.97121 0
M  V30 3000 H 273.589 -1.97994 -3.80127 0
M  V30 3001 H 277.773 -2.94074 -3.99793 0
M  V30 3002 H 273.029 -4.31374 -4.33275 0
M  V30 3003 H 277.203 -5.27852 -4.54252 0
M  V30 3004 H 274.83 -5.96994 -4.7064 0
M  V30 3005 N 276.405 1.4127 -0.698611 0
M  V30 3006 C 277.335 2.33447 -0.049629 0
M  V30 3007 C 278.316 1.51982 0.763898 0
M  V30 3008 O 279.501 1.80509 0.716257 0
M  V30 3009 C 276.631 3.35828 0.885267 0
M  V30 3010 C 275.585 4.27627 0.178613 0
M  V30 3011 C 274.911 5.20406 1.22807 0
M  V30 3012 C 276.211 5.13459 -0.956933 0
M  V30 3013 H 277.905 2.87966 -0.81951 0
M  V30 3014 H 275.451 1.38461 -0.395538 0
M  V30 3015 H 277.404 3.9924 1.34854 0
M  V30 3016 H 276.128 2.79666 1.68685 0
M  V30 3017 H 274.787 3.65643 -0.26466 0
M  V30 3018 H 274.435 4.60558 2.02226 0
M  V30 3019 H 274.135 5.82661 0.760239 0
M  V30 3020 H 275.659 5.86695 1.69179 0
M  V30 3021 H 277.073 5.70421 -0.573805 0
M  V30 3022 H 275.47 5.8467 -1.35205 0
M  V30 3023 H 276.54 4.50443 -1.79524 0
M  V30 3024 N 277.883 0.443576 1.51229 0
M  V30 3025 C 279.16 -0.181038 1.9476 0
M  V30 3026 C 279.54 -1.59523 1.38259 0
M  V30 3027 O 278.888 -2.2122 0.572198 0
M  V30 3028 C 279.098 -0.152422 3.48667 0
M  V30 3029 C 280.446 -0.354923 4.23114 0
M  V30 3030 O 281.47 -0.230257 3.55455 0
M  V30 3031 O 280.329 -0.603674 5.43156 0
M  V30 3032 H 277.423 -0.1266 0.817252 0
M  V30 3033 H 279.969 0.502004 1.62105 0
M  V30 3034 H 278.741 0.836022 3.82265 0
M  V30 3035 H 278.364 -0.878107 3.87782 0
M  V30 3036 N 279.361 -1.56624 0.175154 0
M  V30 3037 C 280.772 -1.83561 -0.340916 0
M  V30 3038 C 281.123 -1.09511 -1.62794 0
M  V30 3039 O 280.248 -0.349389 -2.13561 0
M  V30 3040 C 280.843 -3.32979 -0.625313 0
M  V30 3041 C 279.402 -3.60399 -1.08581 0
M  V30 3042 C 278.549 -2.77024 -0.123722 0
M  V30 3043 H 281.5 -1.53593 0.399344 0
M  V30 3044 H 281.521 -3.50666 -1.47694 0
M  V30 3045 H 281.033 -3.86847 0.311575 0
M  V30 3046 H 279.134 -3.11945 -2.03767 0
M  V30 3047 H 279.247 -4.68711 -0.992317 0
M  V30 3048 H 277.611 -2.46993 -0.621821 0
M  V30 3049 H 278.394 -3.33674 0.807256 0
M  V30 3050 N 280.839 0.0985539 -1.57292 0
M  V30 3051 C 281.749 1.13824 -2.05137 0
M  V30 3052 C 282.765 1.44076 -0.975604 0
M  V30 3053 O 283.941 1.54786 -1.28853 0
M  V30 3054 C 281.006 2.43969 -2.46333 0
M  V30 3055 C 280.067 2.2093 -3.68087 0
M  V30 3056 C 279.3 3.44869 -4.0731 0
M  V30 3057 O 279.523 4.52972 -3.46659 0
M  V30 3058 O 278.457 3.34661 -5.00285 0
M  V30 3059 H 282.283 0.761881 -2.93988 0
M  V30 3060 H 279.868 0.310818 -1.46131 0
M  V30 3061 H 281.75 3.20609 -2.73473 0
M  V30 3062 H 280.425 2.81038 -1.60621 0
M  V30 3063 H 279.332 1.42081 -3.46069 0
M  V30 3064 H 280.665 1.88755 -4.54568 0
M  V30 3065 N 282.317 1.53212 0.369288 0
M  V30 3066 C 283.264 1.79388 1.45219 0
M  V30 3067 C 284.234 0.638059 1.53356 0
M  V30 3068 O 285.419 0.879852 1.69302 0
M  V30 3069 C 282.559 1.98623 2.82211 0
M  V30 3070 C 281.672 3.26337 2.8307 0
M  V30 3071 C 280.807 3.35779 4.11614 0
M  V30 3072 C 279.846 4.5754 4.06601 0
M  V30 3073 N 278.983 4.64155 5.26787 0
M  V30 3074 H 283.823 2.71794 1.22198 0
M  V30 3075 H 281.36 1.34642 0.592444 0
M  V30 3076 H 283.318 2.07761 3.61789 0
M  V30 3077 H 281.948 1.09558 3.03639 0
M  V30 3078 H 281 3.26171 1.95747 0
M  V30 3079 H 282.312 4.15988 2.75237 0
M  V30 3080 H 281.466 3.44208 4.99606 0
M  V30 3081 H 280.205 2.44137 4.22195 0
M  V30 3082 H 279.21 4.49215 3.16996 0
M  V30 3083 H 280.435 5.50519 3.97625 0
M  V30 3084 H 278.381 3.75413 5.3796 0
M  V30 3085 H 278.298 5.47706 5.21109 0
M  V30 3086 H 279.566 4.76863 6.16621 0
M  V30 3087 N 283.795 -0.628877 1.44509 0
M  V30 3088 C 285.211 -0.947305 1.28446 0
M  V30 3089 C 285.411 -2.00275 0.221872 0
M  V30 3090 O 284.467 -2.49447 -0.391471 0
M  V30 3091 C 285.78 -1.40843 2.65676 0
M  V30 3092 C 287.328 -1.52379 2.73404 0
M  V30 3093 C 287.803 -2.01875 4.11109 0
M  V30 3094 N 289.294 -2.09142 4.13296 0
M  V30 3095 C 290.029 -2.48615 5.16699 0
M  V30 3096 N 289.525 -2.87209 6.30462 0
M  V30 3097 N 291.318 -2.48768 5.04054 0
M  V30 3098 H 283.469 0.0690977 2.12288 0
M  V30 3099 H 285.732 -0.0317164 0.947469 0
M  V30 3100 H 285.438 -0.707206 3.44516 0
M  V30 3101 H 285.312 -2.37902 2.92716 0
M  V30 3102 H 287.699 -2.21598 1.9488 0
M  V30 3103 H 287.78 -0.536898 2.50102 0
M  V30 3104 H 287.424 -1.3325 4.90109 0
M  V30 3105 H 287.354 -3.0144 4.31789 0
M  V30 3106 H 289.845 -1.81991 3.31191 0
M  V30 3107 H 290.158 -3.16149 7.05174 0
M  V30 3108 H 288.503 -2.84955 6.33897 0
M  V30 3109 H 291.694 -2.18009 4.14234 0
M  V30 3110 H 291.867 -2.79207 5.84763 0
M  V30 3111 N 285.273 -1.31445 -0.869486 0
M  V30 3112 C 286.183 -1.21097 -2.0093 0
M  V30 3113 C 287.199 -0.127584 -1.73532 0
M  V30 3114 O 288.375 -0.345477 -1.98415 0
M  V30 3115 C 285.44 -0.919378 -3.34288 0
M  V30 3116 C 284.501 -2.08971 -3.75006 0
M  V30 3117 C 283.734 -1.81194 -5.02001 0
M  V30 3118 O 283.957 -0.747296 -5.65484 0
M  V30 3119 O 282.891 -2.66883 -5.39497 0
M  V30 3120 H 286.717 -2.16883 -2.12592 0
M  V30 3121 H 284.302 -1.11189 -0.997868 0
M  V30 3122 H 286.184 -0.772625 -4.14257 0
M  V30 3123 H 284.859 0.00844772 -3.23699 0
M  V30 3124 H 283.766 -2.29187 -2.95676 0
M  V30 3125 H 285.099 -2.9998 -3.90221 0
M  V30 3126 N 286.751 1.08385 -1.14413 0
M  V30 3127 C 287.683 2.1519 -0.789036 0
M  V30 3128 C 288.696 1.61638 0.19417 0
M  V30 3129 O 289.885 1.78479 -0.0275711 0
M  V30 3130 C 286.985 3.38565 -0.15058 0
M  V30 3131 C 286.158 4.21501 -1.16857 0
M  V30 3132 C 285.217 5.23277 -0.553832 0
M  V30 3133 O 284.243 5.56041 -1.21686 0
M  V30 3134 N 285.445 5.76629 0.669296 0
M  V30 3135 H 288.21 2.46257 -1.70814 0
M  V30 3136 H 285.771 1.24198 -1.03858 0
M  V30 3137 H 287.763 4.03777 0.273181 0
M  V30 3138 H 286.333 3.05299 0.671667 0
M  V30 3139 H 285.553 3.52265 -1.76926 0
M  V30 3140 H 286.841 4.73731 -1.85624 0
M  V30 3141 H 286.239 5.52243 1.22654 0
M  V30 3142 H 284.796 6.43521 1.03556 0
M  V30 3143 N 288.23 0.939286 1.26551 0
M  V30 3144 C 289.479 0.581601 1.93133 0
M  V30 3145 C 289.792 -0.883224 1.74524 0
M  V30 3146 O 290.998 -1.3502 2.35546 0
M  V30 3147 C 289.454 0.989425 3.46032 0
M  V30 3148 C 289.062 2.47573 3.73379 0
M  V30 3149 C 290.806 0.703544 4.18629 0
M  V30 3150 C 288.713 2.82235 5.19709 0
M  V30 3151 H 287.643 0.213803 0.723052 0
M  V30 3152 H 290.294 1.14167 1.4366 0
M  V30 3153 H 288.676 0.357902 3.94379 0
M  V30 3154 H 289.85 3.15614 3.35744 0
M  V30 3155 H 288.165 2.73471 3.1401 0
M  V30 3156 H 290.762 0.938869 5.26393 0
M  V30 3157 H 291.105 -0.359639 4.14744 0
M  V30 3158 H 291.638 1.2947 3.76141 0
M  V30 3159 H 288.377 3.87509 5.28694 0
M  V30 3160 H 287.897 2.18854 5.58447 0
M  V30 3161 H 289.576 2.70599 5.87695 0
M  V30 3162 N 289.708 -1.40897 0.706093 0
M  V30 3163 C 290.656 -2.32572 0.0361893 0
M  V30 3164 C 291.65 -1.51532 -0.757266 0
M  V30 3165 O 292.856 -1.67396 -0.661703 0
M  V30 3166 H 289.231 -0.751966 -0.00709935 0
M  V30 3167 H 291.202 -2.86733 0.826249 0
M  V30 3168 C 289.951 -3.36418 -0.87854 0
M  V30 3169 H 289.274 -3.98836 -0.277401 0
M  V30 3170 H 290.714 -4.0308 -1.3154 0
M  V30 3171 C 289.173 -2.71141 -1.99961 0
M  V30 3172 O 289.703 -2.56735 -3.0895 0
M  V30 3173 N 287.909 -2.29671 -1.78043 0
M  V30 3174 H 287.456 -2.41588 -0.894042 0
M  V30 3175 H 287.414 -1.86332 -2.53235 0
M  V30 3176 N 291.186 -0.45159 -1.50991 0
M  V30 3177 C 292.435 0.111653 -2.01391 0
M  V30 3178 C 292.748 1.42529 -1.33959 0
M  V30 3179 O 293.954 2.07232 -1.75405 0
M  V30 3180 C 292.41 0.249514 -3.59034 0
M  V30 3181 C 292.018 -1.05453 -4.35412 0
M  V30 3182 C 293.762 0.765762 -4.17536 0
M  V30 3183 C 291.669 -0.881529 -5.84793 0
M  V30 3184 H 290.599 0.0455022 -0.752626 0
M  V30 3185 H 293.25 -0.583524 -1.73975 0
M  V30 3186 H 291.632 1.00803 -3.82955 0
M  V30 3187 H 292.806 -1.82248 -4.23229 0
M  V30 3188 H 291.121 -1.50039 -3.88429 0
M  V30 3189 H 293.718 0.911913 -5.26866 0
M  V30 3190 H 294.061 1.75201 -3.77638 0
M  V30 3191 H 294.594 0.0651744 -3.97747 0
M  V30 3192 H 291.333 -1.84057 -6.29129 0
M  V30 3193 H 290.853 -0.153625 -5.99603 0
M  V30 3194 H 292.532 -0.540363 -6.4474 0
M  V30 3195 N 292.664 1.56529 -0.183458 0
M  V30 3196 C 293.892 2.01623 0.464285 0
M  V30 3197 C 294.307 1.06366 1.55986 0
M  V30 3198 O 293.664 0.0665398 1.82379 0
M  V30 3199 C 293.715 3.46475 1.03139 0
M  V30 3200 O 293.436 4.38095 -0.0204675 0
M  V30 3201 C 294.937 4.0703 1.75617 0
M  V30 3202 H 292.157 0.660596 0.117704 0
M  V30 3203 H 294.701 2.02451 -0.288751 0
M  V30 3204 H 292.856 3.46383 1.73486 0
M  V30 3205 H 293.27 5.22973 0.399952 0
M  V30 3206 H 294.744 5.10271 2.10542 0
M  V30 3207 H 295.221 3.49819 2.65563 0
M  V30 3208 H 295.827 4.1086 1.09882 0
M  V30 3209 N 294.142 -0.090211 1.57342 0
M  V30 3210 C 295.072 -1.10976 2.05443 0
M  V30 3211 C 296.053 -1.41482 0.944284 0
M  V30 3212 O 297.238 -1.51428 1.21586 0
M  V30 3213 C 294.368 -2.42831 2.48295 0
M  V30 3214 C 293.322 -2.26721 3.63018 0
M  V30 3215 C 292.648 -3.63796 3.91863 0
M  V30 3216 C 293.948 -1.7037 4.93732 0
M  V30 3217 H 295.642 -0.709564 2.9087 0
M  V30 3218 H 293.188 -0.339874 1.39932 0
M  V30 3219 H 295.141 -3.14431 2.80555 0
M  V30 3220 H 293.865 -2.84795 1.59873 0
M  V30 3221 H 292.524 -1.57565 3.31012 0
M  V30 3222 H 292.172 -4.03297 3.00601 0
M  V30 3223 H 291.872 -3.53861 4.69101 0
M  V30 3224 H 293.396 -4.36855 4.26603 0
M  V30 3225 H 294.81 -2.31816 5.24342 0
M  V30 3226 H 293.207 -1.71181 5.75167 0
M  V30 3227 H 294.277 -0.663542 4.80339 0
M  V30 3228 N 295.62 -1.53406 -0.361157 0
M  V30 3229 C 296.897 -1.60411 -1.11927 0
M  V30 3230 C 297.277 -0.414385 -2.06993 0
M  V30 3231 O 296.625 0.594976 -2.20618 0
M  V30 3232 C 296.835 -2.95652 -1.85448 0
M  V30 3233 C 298.183 -3.50386 -2.39823 0
M  V30 3234 O 299.207 -2.97711 -1.95568 0
M  V30 3235 O 298.066 -4.42482 -3.20737 0
M  V30 3236 H 295.16 -0.64811 -0.513695 0
M  V30 3237 H 297.706 -1.65749 -0.364065 0
M  V30 3238 H 296.478 -3.73682 -1.16091 0
M  V30 3239 H 296.101 -2.93825 -2.67866 0
M  V30 3240 N 297.098 0.621204 -1.44841 0
M  V30 3241 C 298.048 1.72663 -1.48901 0
M  V30 3242 C 299.032 1.56964 -0.353702 0
M  V30 3243 O 300.224 1.66532 -0.599669 0
M  V30 3244 C 297.353 3.11381 -1.44557 0
M  V30 3245 C 296.439 3.32514 -2.6324 0
M  V30 3246 N 296.83 3.23969 -3.8843 0
M  V30 3247 C 295.128 3.63343 -2.58647 0
M  V30 3248 C 295.829 3.46062 -4.67564 0
M  V30 3249 N 294.805 3.69407 -3.98797 0
M  V30 3250 H 298.607 1.64529 -2.43531 0
M  V30 3251 H 296.121 0.82401 -1.39942 0
M  V30 3252 H 298.118 3.90667 -1.4555 0
M  V30 3253 H 296.778 3.20674 -0.509731 0
M  V30 3254 H 297.789 3.02669 -4.20252 0
M  V30 3255 H 294.466 3.79556 -1.73906 0
M  V30 3256 H 295.856 3.44963 -5.76585 0
M  V30 3257 N 298.576 1.31904 0.862503 0
M  V30 3258 C 299.992 1.10724 1.14945 0
M  V30 3259 C 300.192 -0.117421 2.01158 0
M  V30 3260 O 299.248 -0.804595 2.39338 0
M  V30 3261 C 300.561 2.38267 1.83437 0
M  V30 3262 C 302.109 2.43949 1.96106 0
M  V30 3263 C 302.584 3.71394 2.68013 0
M  V30 3264 N 304.075 3.72331 2.75543 0
M  V30 3265 C 304.81 4.67641 3.31812 0
M  V30 3266 N 304.306 5.73313 3.88953 0
M  V30 3267 N 306.099 4.5515 3.29841 0
M  V30 3268 H 298.25 2.10436 0.288191 0
M  V30 3269 H 300.513 0.928705 0.190292 0
M  V30 3270 H 300.219 3.27759 1.27542 0
M  V30 3271 H 300.093 2.48633 2.83657 0
M  V30 3272 H 302.48 1.54922 2.51164 0
M  V30 3273 H 302.561 2.37543 0.949059 0
M  V30 3274 H 302.205 4.60791 2.13621 0
M  V30 3275 H 302.135 3.75069 3.69636 0
M  V30 3276 H 304.626 2.95947 2.34997 0
M  V30 3277 H 304.939 6.42107 4.30022 0
M  V30 3278 H 303.284 5.77077 3.87308 0
M  V30 3279 H 306.475 3.71766 2.84443 0
M  V30 3280 H 306.648 5.29604 3.73394 0
M  V30 3281 N 300.054 -1.07777 1.14986 0
M  V30 3282 C 301.294 -1.81888 0.932527 0
M  V30 3283 C 301.658 -1.84509 -0.531064 0
M  V30 3284 O 302.859 -2.54448 -0.866577 0
M  V30 3285 C 301.13 -3.23244 1.52473 0
M  V30 3286 S 302.689 -4.14154 1.44989 0
M  V30 3287 H 299.507 -0.626752 0.335712 0
M  V30 3288 H 302.109 -1.29503 1.46455 0
M  V30 3289 H 300.813 -3.18922 2.58296 0
M  V30 3290 H 300.344 -3.80704 0.991381 0
M  V30 3291 H 302.359 -4.94247 0.439799 0
M  V30 3292 N 301.532 -0.945985 -1.26051 0
M  V30 3293 C 302.948 -0.649045 -1.45807 0
M  V30 3294 C 303.148 0.796158 -1.85104 0
M  V30 3295 O 302.204 1.57233 -1.97571 0
M  V30 3296 C 303.517 -1.61458 -2.53677 0
M  V30 3297 C 305.065 -1.62481 -2.67524 0
M  V30 3298 C 305.54 -2.57776 -3.7857 0
M  V30 3299 N 307.031 -2.5609 -3.85969 0
M  V30 3300 C 307.766 -3.26508 -4.7136 0
M  V30 3301 N 307.262 -4.0637 -5.61102 0
M  V30 3302 N 309.055 -3.15437 -4.65248 0
M  V30 3303 H 301.206 -1.88005 -0.988328 0
M  V30 3304 H 303.469 -0.808198 -0.4955 0
M  V30 3305 H 303.175 -2.64644 -2.31638 0
M  V30 3306 H 303.049 -1.37036 -3.51427 0
M  V30 3307 H 305.436 -0.600167 -2.88933 0
M  V30 3308 H 305.517 -1.90958 -1.70202 0
M  V30 3309 H 305.161 -3.60361 -3.57913 0
M  V30 3310 H 305.091 -2.26587 -4.75359 0
M  V30 3311 H 307.582 -1.98105 -3.21812 0
M  V30 3312 H 307.895 -4.57042 -6.23164 0
M  V30 3313 H 306.24 -4.10469 -5.60839 0
M  V30 3314 H 309.431 -2.52525 -3.94143 0
M  V30 3315 H 309.604 -3.70584 -5.31575 0
M  V30 3316 N 303.011 1.40521 -0.713556 0
M  V30 3317 C 304.26 2.00155 -0.249192 0
M  V30 3318 C 304.573 1.57224 1.16362 0
M  V30 3319 O 305.779 2.09542 1.72639 0
M  V30 3320 C 304.235 3.5773 -0.3946 0
M  V30 3321 C 303.843 4.09635 -1.81392 0
M  V30 3322 C 305.587 4.24499 0.00907364 0
M  V30 3323 C 303.494 5.59707 -1.91003 0
M  V30 3324 H 302.424 0.74868 -0.0894114 0
M  V30 3325 H 305.075 1.60784 -0.884352 0
M  V30 3326 H 303.457 3.94792 0.30911 0
M  V30 3327 H 304.631 3.83955 -2.54785 0
M  V30 3328 H 302.946 3.55456 -2.16888 0
M  V30 3329 H 305.543 5.34683 -0.0420404 0
M  V30 3330 H 305.886 4.02824 1.05065 0
M  V30 3331 H 306.419 3.92536 -0.645007 0
M  V30 3332 H 303.158 5.86234 -2.93275 0
M  V30 3333 H 302.678 5.87258 -1.22019 0
M  V30 3334 H 304.357 6.24776 -1.6812 0
M  V30 3335 N 304.489 0.459591 1.5075 0
M  V30 3336 C 305.736 -0.0993495 2.02256 0
M  V30 3337 C 306.064 -1.40751 1.34237 0
M  V30 3338 O 305.319 -1.90379 0.453228 0
M  V30 3339 C 305.618 -0.342866 3.55752 0
M  V30 3340 C 305.284 0.88218 4.42186 0
M  V30 3341 C 303.946 1.21808 4.65528 0
M  V30 3342 C 306.298 1.69837 4.92752 0
M  V30 3343 C 303.626 2.37045 5.36681 0
M  V30 3344 C 305.978 2.84192 5.65171 0
M  V30 3345 C 304.642 3.1821 5.8677 0
M  V30 3346 H 303.912 -0.0363545 0.740108 0
M  V30 3347 H 306.559 0.611329 1.8148 0
M  V30 3348 H 304.864 -1.13567 3.7498 0
M  V30 3349 H 306.561 -0.789121 3.93159 0
M  V30 3350 H 303.151 0.610467 4.2423 0
M  V30 3351 H 307.335 1.45205 4.74583 0
M  V30 3352 H 302.591 2.63689 5.51614 0
M  V30 3353 H 306.765 3.4779 6.03337 0
M  V30 3354 H 304.392 4.07613 6.41682 0
M  V30 3355 N 305.967 -1.56429 0.191757 0
M  V30 3356 C 306.899 -2.16154 -0.762245 0
M  V30 3357 C 307.912 -1.12247 -1.17917 0
M  V30 3358 O 309.101 -1.39353 -1.11548 0
M  V30 3359 C 306.201 -2.70606 -2.04024 0
M  V30 3360 C 305.374 -3.99381 -1.78364 0
M  V30 3361 C 304.433 -4.38692 -2.90578 0
M  V30 3362 O 303.459 -5.06179 -2.6033 0
M  V30 3363 N 304.661 -4.01922 -4.18854 0
M  V30 3364 H 307.426 -2.98643 -0.251526 0
M  V30 3365 H 304.987 -1.61897 0.00967373 0
M  V30 3366 H 306.979 -2.93891 -2.78227 0
M  V30 3367 H 305.549 -1.9259 -2.46227 0
M  V30 3368 H 304.769 -3.84262 -0.879581 0
M  V30 3369 H 306.057 -4.83445 -1.58614 0
M  V30 3370 H 305.455 -3.47631 -4.46283 0
M  V30 3371 H 304.012 -4.30165 -4.89695 0
M  V30 3372 N 307.445 0.0818655 -1.57387 0
M  V30 3373 C 308.393 1.11712 -2.04018 0
M  V30 3374 C 309.387 1.40683 -0.94364 0
M  V30 3375 O 310.593 1.40209 -1.12878 0
M  V30 3376 H 306.968 0.377542 -0.650358 0
M  V30 3377 H 308.939 0.697614 -2.90131 0
M  V30 3378 C 307.688 2.42537 -2.49141 0
M  V30 3379 H 307.011 2.21092 -3.33104 0
M  V30 3380 H 308.451 3.13446 -2.85531 0
M  V30 3381 C 306.91 3.0778 -1.37014 0
M  V30 3382 O 307.44 3.95436 -0.706621 0
M  V30 3383 N 305.646 2.68242 -1.11779 0
M  V30 3384 H 305.193 1.97052 -1.65917 0
M  V30 3385 H 305.151 3.1222 -0.369594 0
M  V30 3386 N 308.923 1.53595 0.353017 0
M  V30 3387 C 309.853 1.83902 1.43883 0
M  V30 3388 C 310.834 0.693421 1.55324 0
M  V30 3389 O 312.019 0.944452 1.69687 0
M  V30 3390 C 309.149 2.04016 2.8106 0
M  V30 3391 C 308.103 3.19814 2.84434 0
M  V30 3392 C 307.429 3.25244 4.24406 0
M  V30 3393 C 308.729 4.58133 2.50822 0
M  V30 3394 H 310.423 2.74835 1.1877 0
M  V30 3395 H 307.969 1.32242 0.569917 0
M  V30 3396 H 309.922 2.238 3.57059 0
M  V30 3397 H 308.646 1.09804 3.07588 0
M  V30 3398 H 307.305 2.9987 2.10887 0
M  V30 3399 H 306.953 2.28646 4.48029 0
M  V30 3400 H 306.653 4.03054 4.27576 0
M  V30 3401 H 308.177 3.47228 5.0226 0
M  V30 3402 H 309.591 4.77995 3.16534 0
M  V30 3403 H 307.988 5.38276 2.6529 0
M  V30 3404 H 309.058 4.62387 1.46034 0
M  V30 3405 N 310.401 -0.613514 1.45168 0
M  V30 3406 C 311.678 -1.37263 1.39349 0
M  V30 3407 C 312.058 -2.11012 0.0610848 0
M  V30 3408 O 311.406 -2.07502 -0.956825 0
M  V30 3409 C 311.616 -2.3244 2.60332 0
M  V30 3410 C 312.964 -2.9523 3.05163 0
M  V30 3411 O 313.988 -2.42762 2.60663 0
M  V30 3412 O 312.847 -3.90454 3.82372 0
M  V30 3413 H 309.941 -0.615188 0.552696 0
M  V30 3414 H 312.487 -0.637097 1.57287 0
M  V30 3415 H 311.259 -1.77164 3.48896 0
M  V30 3416 H 310.882 -3.13383 2.44698 0
M  V30 3417 N 311.879 -1.3236 -0.855495 0
M  V30 3418 C 313.127 -1.22629 -1.60644 0
M  V30 3419 C 313.448 0.212136 -1.93843 0
M  V30 3420 O 312.718 1.13666 -1.59552 0
M  V30 3421 H 311.298 -0.450882 -0.595579 0
M  V30 3422 H 313.96 -1.65871 -1.02337 0
M  V30 3423 H 313.056 -1.80832 -2.54374 0
M  V30 3424 N 313.357 1.07166 -1.15556 0
M  V30 3425 C 314.32 2.12589 -0.856644 0
M  V30 3426 C 315.32 1.6015 0.14444 0
M  V30 3427 O 316.51 1.7399 -0.0854163 0
M  V30 3428 C 313.642 3.39753 -0.279405 0
M  V30 3429 H 314.835 2.40539 -1.79112 0
M  V30 3430 H 312.388 1.23086 -0.963298 0
M  V30 3431 H 313.123 3.17447 0.663174 0
M  V30 3432 H 312.908 3.79117 -1.00063 0
M  V30 3433 H 314.398 4.17507 -0.0879113 0
M  V30 3434 N 314.835 0.952656 1.25548 0
M  V30 3435 C 315.765 0.489287 2.28316 0
M  V30 3436 C 316.746 -0.463359 1.63667 0
M  V30 3437 O 317.931 -0.36274 1.90782 0
M  V30 3438 C 315.061 -0.235603 3.465 0
M  V30 3439 C 314.015 0.631593 4.23314 0
M  V30 3440 C 313.341 -0.223923 5.34231 0
M  V30 3441 C 314.641 1.90871 4.86174 0
M  V30 3442 H 316.335 1.34822 2.67326 0
M  V30 3443 H 313.881 0.649728 1.28509 0
M  V30 3444 H 315.834 -0.570882 4.17515 0
M  V30 3445 H 314.558 -1.12877 3.06474 0
M  V30 3446 H 313.217 0.949929 3.54079 0
M  V30 3447 H 312.865 -1.11678 4.90446 0
M  V30 3448 H 312.565 0.35299 5.86539 0
M  V30 3449 H 314.089 -0.554214 6.0808 0
M  V30 3450 H 315.503 1.63997 5.49343 0
M  V30 3451 H 313.9 2.43112 5.4865 0
M  V30 3452 H 314.97 2.61304 4.08471 0
M  V30 3453 N 316.313 -1.40141 0.720998 0
M  V30 3454 C 317.59 -1.94677 0.189757 0
M  V30 3455 C 317.97 -1.65879 -1.30566 0
M  V30 3456 O 317.318 -0.979391 -2.06447 0
M  V30 3457 C 317.528 -3.45279 0.508304 0
M  V30 3458 C 318.876 -4.22209 0.449934 0
M  V30 3459 O 319.9 -3.53413 0.444677 0
M  V30 3460 O 318.759 -5.44788 0.432189 0
M  V30 3461 H 315.853 -0.826459 0.0299026 0
M  V30 3462 H 318.399 -1.49719 0.7989 0
M  V30 3463 H 317.171 -3.59619 1.54239 0
M  V30 3464 H 316.794 -3.97386 -0.130525 0
M  V30 3465 N 317.792 -0.46758 -1.50504 0
M  V30 3466 C 318.702 0.33382 -2.32213 0
M  V30 3467 C 319.718 0.999323 -1.42441 0
M  V30 3468 O 320.894 0.988068 -1.75497 0
M  V30 3469 C 317.959 1.4035 -3.17022 0
M  V30 3470 C 317.02 0.754961 -4.2261 0
M  V30 3471 C 316.253 1.77367 -5.03365 0
M  V30 3472 O 316.476 2.99976 -4.8515 0
M  V30 3473 O 315.41 1.34744 -5.86624 0
M  V30 3474 H 319.236 -0.334067 -3.01857 0
M  V30 3475 H 316.821 -0.229496 -1.47627 0
M  V30 3476 H 318.703 2.02318 -3.69656 0
M  V30 3477 H 317.378 2.05492 -2.5011 0
M  V30 3478 H 316.285 0.0964244 -3.73976 0
M  V30 3479 H 317.618 0.146545 -4.91982 0
M  V30 3480 N 319.27 1.56325 -0.20005 0
M  V30 3481 C 320.516 1.98012 0.438059 0
M  V30 3482 C 320.849 1.08702 1.60927 0
M  V30 3483 O 320.124 0.140064 1.93995 0
M  V30 3484 C 320.407 3.48841 0.893419 0
M  V30 3485 C 320.26 4.48928 -0.279947 0
M  V30 3486 C 321.579 4.03498 1.75719 0
M  V30 3487 H 318.698 0.719918 0.157757 0
M  V30 3488 H 321.34 1.87743 -0.291968 0
M  V30 3489 H 319.49 3.57723 1.51547 0
M  V30 3490 H 321.162 4.52079 -0.91772 0
M  V30 3491 H 319.405 4.23694 -0.930919 0
M  V30 3492 H 320.076 5.5194 0.0812601 0
M  V30 3493 H 322.552 3.97427 1.23253 0
M  V30 3494 H 321.428 5.09393 2.04476 0
M  V30 3495 H 321.689 3.4906 2.71311 0
M  V30 3496 N 320.748 -0.0735177 1.57428 0
M  V30 3497 C 321.994 -0.774145 1.87443 0
M  V30 3498 C 322.327 -1.77311 0.792103 0
M  V30 3499 O 321.602 -1.93492 -0.197793 0
M  V30 3500 C 321.885 -1.48367 3.28115 0
M  V30 3501 C 321.738 -0.501227 4.46999 0
M  V30 3502 C 323.057 -2.429 3.66998 0
M  V30 3503 H 320.176 -0.279971 0.681752 0
M  V30 3504 H 322.818 -0.0373616 1.89963 0
M  V30 3505 H 320.968 -2.11171 3.26097 0
M  V30 3506 H 322.64 0.121468 4.6114 0
M  V30 3507 H 320.883 0.183593 4.33411 0
M  V30 3508 H 321.554 -1.03526 5.42205 0
M  V30 3509 H 324.03 -1.90175 3.70098 0
M  V30 3510 H 322.906 -2.89549 4.66318 0
M  V30 3511 H 323.167 -3.27628 2.96837 0
M  V30 3512 N 322.226 -1.5378 -0.344866 0
M  V30 3513 C 323.156 -1.84662 -1.42906 0
M  V30 3514 C 324.137 -0.701648 -1.54955 0
M  V30 3515 O 325.322 -0.953438 -1.69184 0
M  V30 3516 C 322.452 -2.05503 -2.79974 0
M  V30 3517 C 321.406 -3.21318 -2.82734 0
M  V30 3518 C 320.732 -3.2749 -4.22675 0
M  V30 3519 C 322.032 -4.59456 -2.48389 0
M  V30 3520 H 323.726 -2.75461 -1.17311 0
M  V30 3521 H 321.272 -1.32542 -0.562896 0
M  V30 3522 H 323.225 -2.25691 -3.55867 0
M  V30 3523 H 321.949 -1.11434 -3.07002 0
M  V30 3524 H 320.608 -3.00984 -2.09294 0
M  V30 3525 H 320.256 -2.31019 -4.4681 0
M  V30 3526 H 319.956 -4.05316 -4.25433 0
M  V30 3527 H 321.48 -3.49887 -5.00412 0
M  V30 3528 H 322.894 -4.79667 -3.13995 0
M  V30 3529 H 321.291 -5.39675 -2.62432 0
M  V30 3530 H 322.361 -4.63155 -1.4358 0
M  V30 3531 N 323.704 0.605807 -1.45491 0
M  V30 3532 C 324.651 1.7164 -1.54299 0
M  V30 3533 C 325.621 1.61486 -0.388761 0
M  V30 3534 O 326.806 1.81039 -0.602445 0
M  V30 3535 C 323.946 3.09953 -1.51734 0
M  V30 3536 C 323.059 3.309 -2.77721 0
M  V30 3537 C 322.194 4.59329 -2.66816 0
M  V30 3538 C 321.233 4.7354 -3.87848 0
M  V30 3539 N 320.37 5.9327 -3.75467 0
M  V30 3540 H 325.21 1.63449 -2.49176 0
M  V30 3541 H 322.747 0.796957 -1.23641 0
M  V30 3542 H 324.705 3.89977 -1.48235 0
M  V30 3543 H 323.335 3.17098 -0.604068 0
M  V30 3544 H 322.387 2.44639 -2.913 0
M  V30 3545 H 323.699 3.37274 -3.67488 0
M  V30 3546 H 322.853 5.4755 -2.61292 0
M  V30 3547 H 321.592 4.55355 -1.74651 0
M  V30 3548 H 320.597 3.83741 -3.93729 0
M  V30 3549 H 321.822 4.79309 -4.81082 0
M  V30 3550 H 319.768 5.90338 -2.86072 0
M  V30 3551 H 319.685 6.00811 -4.5887 0
M  V30 3552 H 320.953 6.83984 -3.73879 0
M  V30 3553 N 325.182 1.32811 0.848464 0
M  V30 3554 C 326.429 1.23724 1.60308 0
M  V30 3555 C 326.757 -0.1994 1.93475 0
M  V30 3556 O 326.012 -1.15406 1.5805 0
M  V30 3557 C 326.311 2.04831 2.92881 0
M  V30 3558 C 325.977 3.54125 2.79117 0
M  V30 3559 C 324.639 3.94829 2.7507 0
M  V30 3560 C 326.991 4.49036 2.64606 0
M  V30 3561 C 324.319 5.28675 2.544 0
M  V30 3562 C 326.671 5.83033 2.4547 0
M  V30 3563 C 325.335 6.22931 2.39819 0
M  V30 3564 H 324.605 0.452737 0.586609 0
M  V30 3565 H 327.252 1.64301 0.983743 0
M  V30 3566 H 325.557 1.57001 3.58968 0
M  V30 3567 H 327.254 1.95164 3.50303 0
M  V30 3568 H 323.844 3.21801 2.83094 0
M  V30 3569 H 328.028 4.18505 2.66772 0
M  V30 3570 H 323.284 5.58637 2.48465 0
M  V30 3571 H 327.458 6.56186 2.33222 0
M  V30 3572 H 325.085 7.26584 2.23562 0
M  V30 3573 N 326.66 -1.06551 1.16123 0
M  V30 3574 C 327.57 -2.17484 0.879662 0
M  V30 3575 C 328.586 -1.73377 -0.147104 0
M  V30 3576 O 329.762 -2.01379 0.0289128 0
M  V30 3577 C 326.827 -3.44591 0.381829 0
M  V30 3578 C 325.888 -4.0322 1.4735 0
M  V30 3579 C 325.121 -5.24261 0.999324 0
M  V30 3580 O 325.344 -5.70198 -0.151957 0
M  V30 3581 O 324.278 -5.74775 1.78653 0
M  V30 3582 H 328.104 -2.44075 1.80724 0
M  V30 3583 H 325.689 -1.16042 0.940992 0
M  V30 3584 H 327.571 -4.21254 0.111053 0
M  V30 3585 H 326.246 -3.19532 -0.51777 0
M  V30 3586 H 325.153 -3.2806 1.79798 0
M  V30 3587 H 326.486 -4.32568 2.34831 0
M  V30 3588 N 328.138 -0.959301 -1.25041 0
M  V30 3589 C 329.071 -0.427418 -2.24161 0
M  V30 3590 C 330.049 0.493837 -1.54919 0
M  V30 3591 O 331.233 0.427144 -1.83597 0
M  V30 3592 C 328.36 0.383893 -3.36517 0
M  V30 3593 C 327.406 -0.478431 -4.23808 0
M  V30 3594 S 328.239 -1.91353 -5.00144 0
M  V30 3595 C 329.395 -1.11077 -6.15965 0
M  V30 3596 H 329.628 -1.26743 -2.6893 0
M  V30 3597 H 327.161 -0.763714 -1.34189 0
M  V30 3598 H 329.119 0.846039 -4.01687 0
M  V30 3599 H 327.78 1.19878 -2.90324 0
M  V30 3600 H 326.973 0.14406 -5.03794 0
M  V30 3601 H 326.575 -0.87597 -3.63597 0
M  V30 3602 H 328.867 -0.361699 -6.76534 0
M  V30 3603 H 329.81 -1.88472 -6.82557 0
M  V30 3604 H 330.218 -0.638843 -5.60873 0
M  V30 3605 N 329.616 1.39756 -0.72842 0
M  V30 3606 C 330.864 2.00248 -0.272946 0
M  V30 3607 C 331.185 1.58077 1.14178 0
M  V30 3608 O 330.455 0.826014 1.77634 0
M  V30 3609 H 329.035 0.740554 -0.0979247 0
M  V30 3610 H 331.697 1.70903 -0.936912 0
M  V30 3611 H 330.793 3.10495 -0.316142 0
M  V30 3612 N 331.094 0.475555 1.50254 0
M  V30 3613 C 332.044 -0.335025 2.25525 0
M  V30 3614 C 333.028 -0.957625 1.29299 0
M  V30 3615 O 334.22 -0.869436 1.54175 0
M  V30 3616 C 331.349 -1.41385 3.12834 0
M  V30 3617 C 330.435 -0.798762 4.1651 0
M  V30 3618 N 330.826 0.0835815 5.05731 0
M  V30 3619 C 329.124 -1.06221 4.33166 0
M  V30 3620 C 329.825 0.433113 5.80085 0
M  V30 3621 N 328.801 -0.1928 5.43258 0
M  V30 3622 H 332.603 0.344612 2.91873 0
M  V30 3623 H 330.117 0.289986 1.5979 0
M  V30 3624 H 332.114 -2.00777 3.65368 0
M  V30 3625 H 330.774 -2.09543 2.48036 0
M  V30 3626 H 331.785 0.452715 5.15918 0
M  V30 3627 H 328.462 -1.73844 3.79585 0
M  V30 3628 H 329.852 1.15346 6.61925 0
M  V30 3629 N 332.573 -1.56217 0.208337 0
M  V30 3630 C 333.819 -1.98242 -0.427552 0
M  V30 3631 C 334.152 -1.09554 -1.60348 0
M  V30 3632 O 333.427 -0.15035 -1.93918 0
M  V30 3633 C 333.71 -3.4931 -0.874907 0
M  V30 3634 C 333.563 -4.48773 0.303751 0
M  V30 3635 C 334.882 -4.04424 -1.73577 0
M  V30 3636 H 332.001 -0.720744 -0.153936 0
M  V30 3637 H 334.643 -1.87586 0.30192 0
M  V30 3638 H 332.793 -3.58522 -1.49648 0
M  V30 3639 H 334.465 -4.51586 0.941682 0
M  V30 3640 H 332.708 -4.23194 0.953375 0
M  V30 3641 H 333.379 -5.51976 -0.0519883 0
M  V30 3642 H 335.855 -3.98075 -1.21143 0
M  V30 3643 H 334.731 -5.1047 -2.01771 0
M  V30 3644 H 334.992 -3.50494 -2.69456 0
M  V30 3645 N 334.051 0.0651679 -1.57465 0
M  V30 3646 C 335.467 0.420105 -1.53972 0
M  V30 3647 C 335.667 1.78782 -0.929474 0
M  V30 3648 O 334.723 2.46771 -0.534839 0
M  V30 3649 C 336.036 0.355084 -2.98596 0
M  V30 3650 C 337.584 0.434792 -3.09965 0
M  V30 3651 C 338.059 0.399609 -4.56253 0
M  V30 3652 N 339.55 0.459488 -4.60915 0
M  V30 3653 C 340.285 0.454584 -5.71595 0
M  V30 3654 N 339.781 0.404102 -6.9162 0
M  V30 3655 N 341.574 0.501635 -5.59857 0
M  V30 3656 H 333.725 -0.830328 -1.95498 0
M  V30 3657 H 335.988 -0.312244 -0.895102 0
M  V30 3658 H 335.694 -0.583357 -3.46828 0
M  V30 3659 H 335.568 1.16275 -3.58831 0
M  V30 3660 H 337.955 1.36366 -2.61703 0
M  V30 3661 H 338.036 -0.40157 -2.52628 0
M  V30 3662 H 337.68 -0.525436 -5.05175 0
M  V30 3663 H 337.61 1.25359 -5.11461 0
M  V30 3664 H 340.101 0.502482 -3.74544 0
M  V30 3665 H 340.414 0.404468 -7.71741 0
M  V30 3666 H 338.759 0.37069 -6.94011 0
M  V30 3667 H 341.95 0.538812 -4.64989 0
M  V30 3668 H 342.123 0.494345 -6.46112 0
M  V30 3669 N 335.529 1.53961 0.336706 0
M  V30 3670 C 336.492 1.81724 1.39675 0
M  V30 3671 C 337.492 0.688532 1.45313 0
M  V30 3672 O 338.682 0.956829 1.45569 0
M  V30 3673 C 335.814 1.96543 2.78538 0
M  V30 3674 H 337.007 2.76424 1.16318 0
M  V30 3675 H 334.56 1.45478 0.571474 0
M  V30 3676 H 335.295 1.0401 3.07168 0
M  V30 3677 H 335.08 2.78665 2.75841 0
M  V30 3678 H 336.57 2.19516 3.5525 0
M  V30 3679 N 337.007 -0.598083 1.45811 0
M  V30 3680 C 338.423 -0.919847 1.30426 0
M  V30 3681 C 338.623 -1.99759 0.264303 0
M  V30 3682 O 337.679 -2.50221 -0.338472 0
M  V30 3683 C 338.992 -1.35176 2.68603 0
M  V30 3684 C 340.54 -1.46546 2.76574 0
M  V30 3685 C 341.015 -1.9311 4.15298 0
M  V30 3686 N 342.506 -2.00328 4.1764 0
M  V30 3687 C 343.241 -2.37599 5.21856 0
M  V30 3688 N 342.737 -2.73771 6.36413 0
M  V30 3689 N 344.53 -2.38021 5.09218 0
M  V30 3690 H 336.681 0.114111 2.12093 0
M  V30 3691 H 338.944 -0.0116121 0.947929 0
M  V30 3692 H 338.65 -0.633969 3.45939 0
M  V30 3693 H 338.524 -2.3164 2.97696 0
M  V30 3694 H 340.911 -2.17415 1.99537 0
M  V30 3695 H 340.992 -0.483727 2.51185 0
M  V30 3696 H 340.636 -1.22824 4.92825 0
M  V30 3697 H 340.566 -2.92213 4.38086 0
M  V30 3698 H 343.057 -1.74925 3.34977 0
M  V30 3699 H 343.37 -3.0112 7.11721 0
M  V30 3700 H 341.715 -2.71445 6.39799 0
M  V30 3701 H 344.906 -2.09174 4.18765 0
M  V30 3702 H 345.079 -2.66741 5.90554 0
M  V30 3703 N 338.485 -1.33259 -0.841409 0
M  V30 3704 C 339.433 -1.23279 -1.97244 0
M  V30 3705 C 340.427 -0.134706 -1.68864 0
M  V30 3706 O 341.633 -0.298501 -1.77508 0
M  V30 3707 H 338.008 -0.382497 -0.647457 0
M  V30 3708 H 339.979 -2.18906 -2.02787 0
M  V30 3709 C 338.728 -0.986268 -3.33419 0
M  V30 3710 H 338.051 -1.82347 -3.55794 0
M  V30 3711 H 339.491 -0.956728 -4.13065 0
M  V30 3712 C 337.95 0.310842 -3.35463 0
M  V30 3713 O 338.48 1.31838 -3.79449 0
M  V30 3714 N 336.686 0.337485 -2.88634 0
M  V30 3715 H 336.233 -0.482967 -2.53032 0
M  V30 3716 H 336.191 1.20518 -2.90384 0
M  V30 3717 N 339.963 1.05934 -1.16686 0
M  V30 3718 C 340.893 2.1546 -0.899949 0
M  V30 3719 C 341.874 1.69391 0.155154 0
M  V30 3720 O 343.059 1.94199 0.00648693 0
M  V30 3721 C 340.189 3.44939 -0.404241 0
M  V30 3722 C 339.143 4.04536 -1.39767 0
M  V30 3723 C 338.469 5.29268 -0.760216 0
M  V30 3724 C 339.769 4.42893 -2.76845 0
M  V30 3725 H 341.463 2.38046 -1.81588 0
M  V30 3726 H 339.009 1.14404 -0.874514 0
M  V30 3727 H 340.962 4.20901 -0.204971 0
M  V30 3728 H 339.686 3.21983 0.547206 0
M  V30 3729 H 338.345 3.30635 -1.58355 0
M  V30 3730 H 337.993 5.02611 0.197831 0
M  V30 3731 H 337.693 5.70101 -1.42332 0
M  V30 3732 H 339.217 6.07924 -0.57105 0
M  V30 3733 H 340.631 5.09921 -2.62019 0
M  V30 3734 H 339.028 4.94721 -3.39663 0
M  V30 3735 H 340.098 3.53584 -3.31823 0
M  V30 3736 N 341.441 0.965919 1.2453 0
M  V30 3737 C 342.404 0.499547 2.2369 0
M  V30 3738 C 343.404 -0.40294 1.5567 0
M  V30 3739 O 344.594 -0.19865 1.73064 0
M  V30 3740 C 341.726 -0.276792 3.39774 0
M  V30 3741 H 342.919 1.37613 2.66463 0
M  V30 3742 H 340.472 0.750324 1.37112 0
M  V30 3743 H 341.207 -1.17055 3.02438 0
M  V30 3744 H 340.992 0.370826 3.90343 0
M  V30 3745 H 342.482 -0.592175 4.1338 0
M  V30 3746 N 342.919 -1.39368 0.735821 0
M  V30 3747 C 344.149 -2.04498 0.293967 0
M  V30 3748 C 344.557 -1.55593 -1.07645 0
M  V30 3749 O 343.9 -0.716324 -1.69158 0
M  V30 3750 C 343.962 -3.58836 0.218342 0
M  V30 3751 C 343.626 -4.30721 1.52736 0
M  V30 3752 C 344.623 -4.57305 2.47322 0
M  V30 3753 C 342.308 -4.69251 1.79189 0
M  V30 3754 C 344.302 -5.21429 3.66593 0
M  V30 3755 C 341.989 -5.33104 2.98737 0
M  V30 3756 C 342.987 -5.59125 3.9226 0
M  V30 3757 O 342.675 -6.21653 5.09708 0
M  V30 3758 H 342.407 -0.664118 0.126189 0
M  V30 3759 H 344.961 -1.79385 1.00051 0
M  V30 3760 H 343.191 -3.8285 -0.544314 0
M  V30 3761 H 344.88 -4.05447 -0.191626 0
M  V30 3762 H 345.646 -4.27983 2.28156 0
M  V30 3763 H 341.525 -4.48354 1.07239 0
M  V30 3764 H 345.069 -5.41656 4.39607 0
M  V30 3765 H 340.966 -5.61846 3.17803 0
M  V30 3766 H 341.734 -6.40146 5.10054 0
M  V30 3767 N 344.397 -0.483516 -1.5 0
M  V30 3768 C 345.674 0.129337 -1.95172 0
M  V30 3769 C 346.054 1.55802 -1.4244 0
M  V30 3770 O 345.402 2.19625 -0.630649 0
M  V30 3771 C 345.612 0.0599251 -3.48949 0
M  V30 3772 C 346.96 0.242617 -4.23906 0
M  V30 3773 O 347.984 0.135933 -3.55941 0
M  V30 3774 O 346.843 0.459454 -5.44565 0
M  V30 3775 H 343.937 0.104887 -0.820322 0
M  V30 3776 H 346.483 -0.544807 -1.60717 0
M  V30 3777 H 345.255 -0.937079 -3.79914 0
M  V30 3778 H 344.878 0.774984 -3.89974 0
M  V30 3779 N 345.875 1.56104 -0.216619 0
M  V30 3780 C 347.103 2.02563 0.421413 0
M  V30 3781 C 347.518 1.0965 1.53695 0
M  V30 3782 O 346.875 0.10521 1.82196 0
M  V30 3783 C 346.926 3.48584 0.957665 0
M  V30 3784 O 346.647 4.37953 -0.113389 0
M  V30 3785 C 348.148 4.10664 1.66943 0
M  V30 3786 H 345.368 0.662944 0.103665 0
M  V30 3787 H 347.912 2.01793 -0.331629 0
M  V30 3788 H 346.067 3.49985 1.661 0
M  V30 3789 H 346.481 5.23704 0.288932 0
M  V30 3790 H 347.955 5.14622 1.99671 0
M  V30 3791 H 348.432 3.55373 2.58083 0
M  V30 3792 H 349.038 4.13098 1.01142 0
M  V30 3793 N 347.353 -0.0568162 1.57498 0
M  V30 3794 C 348.283 -1.06593 2.0775 0
M  V30 3795 C 349.264 -1.39448 0.974082 0
M  V30 3796 O 350.449 -1.48815 1.24771 0
M  V30 3797 C 347.579 -2.37509 2.5339 0
M  V30 3798 C 346.533 -2.1897 3.67745 0
M  V30 3799 C 345.859 -3.55402 3.99492 0
M  V30 3800 C 347.159 -1.59859 4.97235 0
M  V30 3801 H 348.853 -0.647706 2.9231 0
M  V30 3802 H 346.399 -0.310116 1.40621 0
M  V30 3803 H 348.352 -3.08409 2.87162 0
M  V30 3804 H 347.076 -2.8134 1.65878 0
M  V30 3805 H 345.735 -1.50508 3.3428 0
M  V30 3806 H 345.383 -3.9683 3.09088 0
M  V30 3807 H 345.083 -3.43831 4.76502 0
M  V30 3808 H 346.607 -4.27708 4.35773 0
M  V30 3809 H 348.021 -2.20642 5.29141 0
M  V30 3810 H 346.418 -1.58942 5.78669 0
M  V30 3811 H 347.488 -0.561506 4.81638 0
M  V30 3812 N 348.832 -1.54138 -0.328536 0
M  V30 3813 C 350.243 -1.63395 -0.903272 0
M  V30 3814 C 350.594 -0.524828 -1.8905 0
M  V30 3815 O 349.719 0.343068 -2.13663 0
M  V30 3816 C 350.314 -2.9618 -1.64507 0
M  V30 3817 C 348.873 -3.0765 -2.1686 0
M  V30 3818 C 348.02 -2.58933 -0.992416 0
M  V30 3819 H 350.971 -1.58344 -0.106253 0
M  V30 3820 H 350.992 -2.86061 -2.50897 0
M  V30 3821 H 350.504 -3.76884 -0.926302 0
M  V30 3822 H 348.605 -2.31611 -2.91868 0
M  V30 3823 H 348.718 -4.1337 -2.42202 0
M  V30 3824 H 347.082 -2.14706 -1.37016 0
M  V30 3825 H 347.865 -3.42089 -0.288041 0
M  V30 3826 N 350.31 0.590341 -1.46126 0
M  V30 3827 C 351.556 1.35082 -1.51264 0
M  V30 3828 C 351.889 1.93534 -0.160711 0
M  V30 3829 O 351.164 1.76045 0.826956 0
M  V30 3830 C 351.447 2.48588 -2.6053 0
M  V30 3831 C 351.3 1.95221 -4.05227 0
M  V30 3832 C 352.619 3.50662 -2.6594 0
M  V30 3833 H 349.738 0.489803 -0.550692 0
M  V30 3834 H 352.38 0.663887 -1.78024 0
M  V30 3835 H 350.53 3.07186 -2.37843 0
M  V30 3836 H 352.202 1.41139 -4.39178 0
M  V30 3837 H 350.445 1.26101 -4.15068 0
M  V30 3838 H 351.116 2.77121 -4.77397 0
M  V30 3839 H 353.592 3.01934 -2.86313 0
M  V30 3840 H 352.468 4.27551 -3.44226 0
M  V30 3841 H 352.729 4.07399 -1.71694 0
M  V30 3842 N 351.788 1.33704 0.83433 0
M  V30 3843 C 352.718 1.26967 1.95963 0
M  V30 3844 C 353.699 0.149337 1.69443 0
M  V30 3845 O 354.884 0.339852 1.91203 0
M  V30 3846 C 352.014 1.01275 3.32206 0
M  V30 3847 C 350.968 2.09652 3.73136 0
M  V30 3848 C 350.294 1.69166 5.07235 0
M  V30 3849 C 351.594 3.51372 3.86439 0
M  V30 3850 H 353.288 2.2112 2.01857 0
M  V30 3851 H 350.834 1.06447 0.969793 0
M  V30 3852 H 352.787 0.952106 4.10503 0
M  V30 3853 H 351.511 0.0356203 3.26581 0
M  V30 3854 H 350.17 2.14766 2.97104 0
M  V30 3855 H 349.818 0.701437 4.98085 0
M  V30 3856 H 349.518 2.41694 5.35591 0
M  V30 3857 H 351.042 1.64576 5.88003 0
M  V30 3858 H 352.456 3.48734 4.55036 0
M  V30 3859 H 350.853 4.22425 4.26236 0
M  V30 3860 H 351.923 3.89546 2.88759 0
M  V30 3861 N 353.266 -1.05314 1.17247 0
M  V30 3862 C 354.515 -1.77685 0.954521 0
M  V30 3863 C 354.828 -1.88616 -0.518025 0
M  V30 3864 O 356.034 -2.57714 -0.854144 0
M  V30 3865 C 354.49 -3.19402 1.65863 0
M  V30 3866 C 354.098 -3.16605 3.16963 0
M  V30 3867 C 355.842 -3.96237 1.52303 0
M  V30 3868 C 353.749 -4.53103 3.80068 0
M  V30 3869 H 352.679 -0.666 0.353496 0
M  V30 3870 H 355.33 -1.1805 1.40486 0
M  V30 3871 H 353.712 -3.79355 1.13602 0
M  V30 3872 H 354.886 -2.66176 3.76148 0
M  V30 3873 H 353.201 -2.53268 3.30521 0
M  V30 3874 H 355.798 -4.97157 1.96822 0
M  V30 3875 H 356.141 -4.136 0.473401 0
M  V30 3876 H 356.674 -3.42829 2.01775 0
M  V30 3877 H 353.413 -4.40946 4.85023 0
M  V30 3878 H 352.933 -5.03686 3.2567 0
M  V30 3879 H 354.612 -5.22045 3.82202 0
M  V30 3880 N 354.744 -0.972509 -1.24016 0
M  V30 3881 C 355.694 -0.477561 -2.22942 0
M  V30 3882 C 356.678 0.44308 -1.54679 0
M  V30 3883 O 357.87 0.273219 -1.74879 0
M  V30 3884 C 354.999 0.226348 -3.42553 0
M  V30 3885 C 354.085 -0.713403 -4.18057 0
M  V30 3886 N 354.476 -1.8527 -4.70647 0
M  V30 3887 C 352.774 -0.525145 -4.42898 0
M  V30 3888 C 353.475 -2.44089 -5.28011 0
M  V30 3889 N 352.451 -1.72556 -5.15486 0
M  V30 3890 H 356.253 -1.34678 -2.61226 0
M  V30 3891 H 353.767 -0.832196 -1.39457 0
M  V30 3892 H 355.764 0.598184 -4.12586 0
M  V30 3893 H 354.424 1.09195 -3.05788 0
M  V30 3894 H 355.435 -2.2341 -4.67235 0
M  V30 3895 H 352.112 0.296096 -4.16449 0
M  V30 3896 H 353.502 -3.40259 -5.79374 0
M  V30 3897 N 356.222 1.38976 -0.743202 0
M  V30 3898 C 357.47 1.99948 -0.29417 0
M  V30 3899 C 357.791 1.59279 1.12495 0
M  V30 3900 O 357.061 0.844808 1.76748 0
M  V30 3901 H 355.641 0.739473 -0.105774 0
M  V30 3902 H 358.303 1.699 -0.954986 0
M  V30 3903 H 357.399 3.10142 -0.349056 0
M  V30 3904 N 357.7 0.491464 1.49741 0
M  V30 3905 C 358.648 -0.305837 2.30581 0
M  V30 3906 C 359.642 -0.971642 1.38764 0
M  V30 3907 O 360.848 -0.90042 1.5586 0
M  V30 3908 H 357.223 -0.117482 0.742767 0
M  V30 3909 H 359.194 0.396093 2.95759 0
M  V30 3910 C 357.943 -1.36319 3.19863 0
M  V30 3911 H 357.266 -0.860258 3.90435 0
M  V30 3912 H 358.706 -1.89323 3.79385 0
M  V30 3913 C 357.165 -2.37621 2.38826 0
M  V30 3914 O 357.695 -3.43311 2.08567 0
M  V30 3915 N 355.901 -2.09849 2.01026 0
M  V30 3916 H 355.448 -1.23922 2.25834 0
M  V30 3917 H 355.406 -2.77859 1.47112 0
M  V30 3918 N 359.178 -1.55987 0.224894 0
M  V30 3919 C 360.426 -1.97998 -0.405099 0
M  V30 3920 C 360.747 -1.11387 -1.60056 0
M  V30 3921 O 360.017 -0.191645 -1.9496 0
M  V30 3922 H 358.597 -0.731235 -0.152658 0
M  V30 3923 H 361.259 -1.92279 0.318567 0
M  V30 3924 H 360.355 -3.03463 -0.729167 0
M  V30 3925 N 360.656 0.0484629 -1.57525 0
M  V30 3926 C 362.067 0.597486 -1.76881 0
M  V30 3927 C 362.418 1.76664 -0.853475 0
M  V30 3928 O 361.543 2.16357 -0.0433656 0
M  V30 3929 C 362.138 1.09066 -3.20765 0
M  V30 3930 C 360.697 1.58535 -3.41385 0
M  V30 3931 C 359.844 0.514868 -2.72478 0
M  V30 3932 H 362.795 -0.177758 -1.57701 0
M  V30 3933 H 362.816 1.95875 -3.2621 0
M  V30 3934 H 362.328 0.239521 -3.8736 0
M  V30 3935 H 360.429 2.45898 -2.79937 0
M  V30 3936 H 360.542 1.64622 -4.49929 0
M  V30 3937 H 358.906 0.965407 -2.35695 0
M  V30 3938 H 359.689 -0.32648 -3.41744 0
M  V30 3939 N 362.134 1.5431 0.320358 0
M  V30 3940 C 363.362 1.76636 1.07738 0
M  V30 3941 C 363.777 0.51649 1.81598 0
M  V30 3942 O 363.134 -0.512942 1.75143 0
M  V30 3943 C 363.185 2.96158 2.07299 0
M  V30 3944 O 362.906 4.16313 1.36438 0
M  V30 3945 C 364.407 3.3072 2.95193 0
M  V30 3946 H 361.627 0.589597 0.320339 0
M  V30 3947 H 364.171 2.01207 0.36551 0
M  V30 3948 H 362.326 2.73851 2.74016 0
M  V30 3949 H 362.74 4.83565 2.03138 0
M  V30 3950 H 364.214 4.17643 3.60941 0
M  V30 3951 H 364.691 2.48026 3.62463 0
M  V30 3952 H 365.297 3.55117 2.34034 0
M  V30 3953 N 363.613 -0.582584 1.46437 0
M  V30 3954 C 364.56 -1.69164 1.5701 0
M  V30 3955 C 365.53 -1.60847 0.414403 0
M  V30 3956 O 366.715 -1.80058 0.631171 0
M  V30 3957 C 363.855 -3.075 1.56646 0
M  V30 3958 C 362.968 -3.2644 2.82951 0
M  V30 3959 C 362.103 -4.55026 2.7409 0
M  V30 3960 C 361.142 -4.6731 3.95333 0
M  V30 3961 N 360.279 -5.87221 3.84858 0
M  V30 3962 H 365.119 -1.59464 2.51744 0
M  V30 3963 H 362.656 -0.777186 1.24893 0
M  V30 3964 H 364.614 -3.8757 1.5442 0
M  V30 3965 H 363.244 -3.16096 0.654439 0
M  V30 3966 H 362.296 -2.39974 2.95155 0
M  V30 3967 H 363.608 -3.31385 3.72808 0
M  V30 3968 H 362.762 -5.43324 2.6997 0
M  V30 3969 H 361.501 -4.52519 1.81873 0
M  V30 3970 H 360.506 -3.77429 3.99784 0
M  V30 3971 H 361.731 -4.71595 4.88646 0
M  V30 3972 H 359.677 -5.85712 2.95427 0
M  V30 3973 H 359.594 -5.93435 4.6837 0
M  V30 3974 H 360.862 -6.7795 3.84713 0
M  V30 3975 N 365.091 -1.34144 -0.827227 0
M  V30 3976 C 366.021 -1.28005 -1.95287 0
M  V30 3977 C 367.002 -0.158321 -1.69362 0
M  V30 3978 O 368.187 -0.349987 -1.9102 0
M  V30 3979 C 365.317 -1.03036 -3.31664 0
M  V30 3980 C 364.271 -2.11628 -3.72019 0
M  V30 3981 C 363.597 -1.71854 -5.0633 0
M  V30 3982 C 364.897 -3.53417 -3.8457 0
M  V30 3983 H 366.591 -2.22187 -2.00682 0
M  V30 3984 H 364.137 -1.0696 -0.964135 0
M  V30 3985 H 366.09 -0.973863 -4.09993 0
M  V30 3986 H 364.814 -0.0529391 -3.26557 0
M  V30 3987 H 363.473 -2.16339 -2.95961 0
M  V30 3988 H 363.121 -0.727841 -4.97706 0
M  V30 3989 H 362.821 -2.44531 -5.34302 0
M  V30 3990 H 364.345 -1.67692 -5.87122 0
M  V30 3991 H 365.759 -3.51142 -4.5318 0
M  V30 3992 H 364.156 -4.24679 -4.2399 0
M  V30 3993 H 365.226 -3.91072 -2.86689 0
M  V30 3994 N 366.569 1.04691 -1.17803 0
M  V30 3995 C 367.501 2.12571 -0.857097 0
M  V30 3996 C 368.514 1.62174 0.142647 0
M  V30 3997 O 369.703 1.78301 -0.0843387 0
M  V30 3998 C 366.803 3.37915 -0.258216 0
M  V30 3999 C 365.976 4.1757 -1.30207 0
M  V30 4000 C 365.035 5.2125 -0.720029 0
M  V30 4001 O 364.061 5.51888 -1.39314 0
M  V30 4002 N 365.263 5.78466 0.485507 0
M  V30 4003 H 368.028 2.40698 -1.78562 0
M  V30 4004 H 365.589 1.20831 -1.07757 0
M  V30 4005 H 367.581 4.04442 0.144584 0
M  V30 4006 H 366.151 3.07281 0.574199 0
M  V30 4007 H 365.371 3.46458 -1.88043 0
M  V30 4008 H 366.659 4.67586 -2.00601 0
M  V30 4009 H 366.057 5.55866 1.05022 0
M  V30 4010 H 364.614 6.4649 0.830307 0
M  V30 4011 N 368.047 0.979072 1.23499 0
M  V30 4012 C 368.977 0.537606 2.27227 0
M  V30 4013 C 369.958 -0.428539 1.64613 0
M  V30 4014 O 371.143 -0.322191 1.91509 0
M  V30 4015 C 368.273 -0.162052 3.46922 0
M  V30 4016 C 367.227 0.721242 4.21879 0
M  V30 4017 C 366.553 -0.110555 5.34586 0
M  V30 4018 C 367.853 2.01141 4.82016 0
M  V30 4019 H 369.547 1.40462 2.64406 0
M  V30 4020 H 367.093 0.67684 1.27102 0
M  V30 4021 H 369.046 -0.482192 4.18632 0
M  V30 4022 H 367.77 -1.06351 3.08799 0
M  V30 4023 H 366.429 1.02482 3.51984 0
M  V30 4024 H 366.077 -1.0125 4.92704 0
M  V30 4025 H 365.777 0.477325 5.85658 0
M  V30 4026 H 367.301 -0.425107 6.09118 0
M  V30 4027 H 368.715 1.75612 5.45741 0
M  V30 4028 H 367.112 2.54695 5.43369 0
M  V30 4029 H 368.182 2.69909 4.02836 0
M  V30 4030 N 369.525 -1.3858 0.750561 0
M  V30 4031 C 370.473 -2.32339 0.110162 0
M  V30 4032 C 371.467 -1.53864 -0.708674 0
M  V30 4033 O 372.673 -1.69417 -0.608112 0
M  V30 4034 H 369.048 -0.751812 0.0168275 0
M  V30 4035 H 371.019 -2.83959 0.917053 0
M  V30 4036 C 369.768 -3.39043 -0.771067 0
M  V30 4037 H 369.091 -3.99517 -0.150374 0
M  V30 4038 H 370.531 -4.07061 -1.1865 0
M  V30 4039 C 368.99 -2.77365 -1.91234 0
M  V30 4040 O 369.52 -2.66434 -3.00626 0
M  V30 4041 N 367.726 -2.35219 -1.70646 0
M  V30 4042 H 367.273 -2.4431 -0.81673 0
M  V30 4043 H 367.231 -1.94294 -2.47178 0
M  V30 4044 N 371.003 -0.499398 -1.49478 0
M  V30 4045 C 372.233 0.0424839 -2.06556 0
M  V30 4046 C 372.641 1.31514 -1.36018 0
M  V30 4047 O 371.984 1.78555 -0.431718 0
M  V30 4048 C 372.046 0.368074 -3.57611 0
M  V30 4049 C 371.71 -0.806631 -4.49825 0
M  V30 4050 C 372.707 -1.69667 -4.91436 0
M  V30 4051 C 370.392 -1.00498 -4.92144 0
M  V30 4052 C 372.386 -2.76923 -5.74101 0
M  V30 4053 C 370.073 -2.08072 -5.74586 0
M  V30 4054 C 371.071 -2.96119 -6.15469 0
M  V30 4055 O 370.759 -4.01836 -6.96264 0
M  V30 4056 H 370.491 -0.0165165 -0.675798 0
M  V30 4057 H 373.045 -0.695497 -1.93267 0
M  V30 4058 H 371.275 1.15963 -3.68903 0
M  V30 4059 H 372.964 0.848381 -3.96935 0
M  V30 4060 H 373.73 -1.55524 -4.59388 0
M  V30 4061 H 369.609 -0.329036 -4.59824 0
M  V30 4062 H 373.153 -3.45676 -6.05932 0
M  V30 4063 H 369.05 -2.22211 -6.06047 0
M  V30 4064 H 369.818 -3.9917 -7.14567 0
M  V30 4065 N 372.481 1.55866 -0.233164 0
M  V30 4066 C 373.411 2.23783 0.666599 0
M  V30 4067 C 374.392 1.21343 1.19205 0
M  V30 4068 O 375.577 1.4996 1.23392 0
M  V30 4069 C 372.707 2.92671 1.86978 0
M  V30 4070 C 371.661 4.01682 1.47768 0
M  V30 4071 C 370.987 4.57926 2.76058 0
M  V30 4072 C 372.287 5.18126 0.658993 0
M  V30 4073 H 373.981 2.99232 0.100306 0
M  V30 4074 H 371.527 1.43924 0.046804 0
M  V30 4075 H 373.48 3.3888 2.50476 0
M  V30 4076 H 372.204 2.14688 2.46123 0
M  V30 4077 H 370.863 3.56222 0.866106 0
M  V30 4078 H 370.511 3.76659 3.33372 0
M  V30 4079 H 370.211 5.31505 2.50552 0
M  V30 4080 H 371.735 5.06859 3.40479 0
M  V30 4081 H 373.149 5.60644 1.19795 0
M  V30 4082 H 371.546 5.98009 0.500552 0
M  V30 4083 H 372.616 4.83763 -0.331856 0
M  V30 4084 N 373.959 -0.0401083 1.57549 0
M  V30 4085 C 375.207 -0.731677 1.8839 0
M  V30 4086 C 375.528 -1.76481 0.829425 0
M  V30 4087 O 374.798 -1.95411 -0.1383 0
M  V30 4088 H 373.378 -0.273225 0.695239 0
M  V30 4089 H 376.04 -0.00867725 1.94898 0
M  V30 4090 H 375.136 -1.22816 2.86919 0
M  V30 4091 N 375.437 -1.54477 -0.31217 0
M  V30 4092 C 376.385 -1.85395 -1.40469 0
M  V30 4093 C 377.379 -0.726749 -1.53019 0
M  V30 4094 O 378.585 -0.910582 -1.55269 0
M  V30 4095 H 374.96 -0.587845 -0.46898 0
M  V30 4096 H 376.931 -2.76736 -1.11623 0
M  V30 4097 C 375.68 -2.10811 -2.76503 0
M  V30 4098 H 375.003 -2.97014 -2.67625 0
M  V30 4099 H 376.443 -2.3639 -3.51988 0
M  V30 4100 C 374.902 -0.903165 -3.24568 0
M  V30 4101 O 375.432 -0.118085 -4.01526 0
M  V30 4102 N 373.638 -0.711634 -2.81752 0
M  V30 4103 H 373.185 -1.35171 -2.19286 0
M  V30 4104 H 373.143 0.0930473 -3.14262 0
M  V30 4105 N 376.915 0.57481 -1.46744 0
M  V30 4106 C 378.145 1.35659 -1.55821 0
M  V30 4107 C 378.553 1.88129 -0.201036 0
M  V30 4108 O 377.896 1.64723 0.813134 0
M  V30 4109 C 377.958 2.57473 -2.50894 0
M  V30 4110 C 377.622 2.26415 -3.9697 0
M  V30 4111 C 378.619 1.84771 -4.85958 0
M  V30 4112 C 376.304 2.38316 -4.42166 0
M  V30 4113 C 378.298 1.55434 -6.18158 0
M  V30 4114 C 375.985 2.08591 -5.74398 0
M  V30 4115 C 376.983 1.67216 -6.62214 0
M  V30 4116 O 376.671 1.37859 -7.91991 0
M  V30 4117 H 376.403 0.420496 -0.529301 0
M  V30 4118 H 378.957 0.704967 -1.92923 0
M  V30 4119 H 377.187 3.25468 -2.08824 0
M  V30 4120 H 378.876 3.19546 -2.50291 0
M  V30 4121 H 379.642 1.75085 -4.52295 0
M  V30 4122 H 375.521 2.69483 -3.74032 0
M  V30 4123 H 379.065 1.23065 -6.86659 0
M  V30 4124 H 374.962 2.17905 -6.07608 0
M  V30 4125 H 375.73 1.51638 -8.04331 0
M  V30 4126 N 378.394 1.34581 0.820102 0
M  V30 4127 C 379.643 1.26437 1.57151 0
M  V30 4128 C 379.956 -0.163111 1.94919 0
M  V30 4129 O 381.162 -0.366722 2.69012 0
M  V30 4130 C 379.618 2.21658 2.83541 0
M  V30 4131 C 379.226 3.69679 2.53065 0
M  V30 4132 C 380.97 2.22428 3.61561 0
M  V30 4133 C 378.877 4.56761 3.75664 0
M  V30 4134 H 377.807 0.469707 0.589823 0
M  V30 4135 H 380.458 1.59763 0.902656 0
M  V30 4136 H 378.84 1.81287 3.52067 0
M  V30 4137 H 380.014 4.18605 1.92631 0
M  V30 4138 H 378.329 3.71384 1.88316 0
M  V30 4139 H 380.926 2.8471 4.52597 0
M  V30 4140 H 381.269 1.22434 3.97889 0
M  V30 4141 H 381.802 2.61259 2.99981 0
M  V30 4142 H 378.541 5.57702 3.44454 0
M  V30 4143 H 378.061 4.12568 4.35371 0
M  V30 4144 H 379.74 4.71509 4.43044 0
M  V30 4145 N 379.872 -1.04064 1.18357 0
M  V30 4146 C 381.283 -1.58719 0.98312 0
M  V30 4147 C 381.634 -1.90556 -0.467193 0
M  V30 4148 O 380.759 -1.69561 -1.34454 0
M  V30 4149 C 381.354 -2.88379 1.77828 0
M  V30 4150 C 379.913 -3.3965 1.62218 0
M  V30 4151 C 379.06 -2.13235 1.77274 0
M  V30 4152 H 382.011 -0.867359 1.32901 0
M  V30 4153 H 382.032 -3.58773 1.26737 0
M  V30 4154 H 381.544 -2.65176 2.83379 0
M  V30 4155 H 379.645 -3.67866 0.592036 0
M  V30 4156 H 379.758 -4.13475 2.42023 0
M  V30 4157 H 378.122 -2.24542 1.20221 0
M  V30 4158 H 378.905 -1.92487 2.8426 0
M  V30 4159 N 381.35 -0.985608 -1.22978 0
M  V30 4160 C 382.766 -0.695104 -1.43668 0
M  V30 4161 C 382.966 0.736866 -1.87543 0
M  V30 4162 O 382.022 1.50868 -2.02473 0
M  V30 4163 C 383.335 -1.69447 -2.48412 0
M  V30 4164 C 384.883 -1.70909 -2.62219 0
M  V30 4165 C 385.358 -2.6969 -3.70178 0
M  V30 4166 N 386.849 -2.6824 -3.77626 0
M  V30 4167 C 387.584 -3.41339 -4.60733 0
M  V30 4168 N 387.08 -4.24015 -5.4789 0
M  V30 4169 N 388.873 -3.30079 -4.54977 0
M  V30 4170 H 381.024 -1.91054 -0.928016 0
M  V30 4171 H 383.287 -0.823553 -0.469536 0
M  V30 4172 H 382.993 -2.7188 -2.23102 0
M  V30 4173 H 382.867 -1.48147 -3.46889 0
M  V30 4174 H 385.254 -0.691785 -2.86877 0
M  V30 4175 H 385.335 -1.96276 -1.6404 0
M  V30 4176 H 384.979 -3.71566 -3.46268 0
M  V30 4177 H 384.909 -2.41595 -4.67909 0
M  V30 4178 H 387.4 -2.08243 -3.15346 0
M  V30 4179 H 387.713 -4.76636 -6.08308 0
M  V30 4180 H 386.058 -4.28104 -5.47496 0
M  V30 4181 H 389.249 -2.64937 -3.85909 0
M  V30 4182 H 389.422 -3.87308 -5.19516 0
M  V30 4183 N 382.828 1.3818 -0.7579 0
M  V30 4184 C 384.075 2.00019 -0.315985 0
M  V30 4185 C 384.403 1.60163 1.10355 0
M  V30 4186 O 383.658 0.83264 1.77103 0
M  V30 4187 C 383.957 3.55252 -0.391218 0
M  V30 4188 C 383.623 4.14834 -1.76702 0
M  V30 4189 C 382.285 4.30821 -2.14353 0
M  V30 4190 C 384.637 4.47658 -2.66931 0
M  V30 4191 C 381.965 4.76928 -3.41696 0
M  V30 4192 C 384.317 4.95184 -3.93669 0
M  V30 4193 C 382.981 5.09377 -4.31383 0
M  V30 4194 H 382.251 0.731923 -0.115627 0
M  V30 4195 H 384.898 1.65161 -0.969223 0
M  V30 4196 H 383.203 3.90273 0.34558 0
M  V30 4197 H 384.9 4.00988 -0.030805 0
M  V30 4198 H 381.49 4.02808 -1.46435 0
M  V30 4199 H 385.674 4.34904 -2.39106 0
M  V30 4200 H 380.93 4.86103 -3.70829 0
M  V30 4201 H 385.104 5.19551 -4.63724 0
M  V30 4202 H 382.731 5.44865 -5.30119 0
M  V30 4203 N 384.306 0.507319 1.49211 0
M  V30 4204 C 385.552 -0.0269732 2.03382 0
M  V30 4205 C 385.907 -1.34111 1.37957 0
M  V30 4206 O 385.2 -1.84733 0.508351 0
M  V30 4207 C 385.394 -0.229513 3.56662 0
M  V30 4208 C 385.223 1.06344 4.36945 0
M  V30 4209 C 383.993 1.617 4.78729 0
M  V30 4210 C 386.191 1.96833 4.75143 0
M  V30 4211 N 384.173 2.8552 5.43463 0
M  V30 4212 C 385.544 3.0523 5.39661 0
M  V30 4213 C 387.599 1.97434 4.57082 0
M  V30 4214 C 386.302 4.14265 5.88028 0
M  V30 4215 C 388.328 3.05448 5.06414 0
M  V30 4216 C 387.69 4.12564 5.70938 0
M  V30 4217 H 383.789 0.0310673 0.781383 0
M  V30 4218 H 386.373 0.683579 1.82305 0
M  V30 4219 H 384.544 -0.909127 3.7761 0
M  V30 4220 H 386.276 -0.761377 3.97473 0
M  V30 4221 H 383.031 1.16132 4.59141 0
M  V30 4222 H 383.455 3.48499 5.80412 0
M  V30 4223 H 388.097 1.15924 4.06597 0
M  V30 4224 H 385.815 4.96569 6.3753 0
M  V30 4225 H 389.401 3.06941 4.94246 0
M  V30 4226 H 388.281 4.94767 6.0842 0
M  V30 4227 N 385.784 -1.5574 0.241426 0
M  V30 4228 C 387.012 -2.03208 -0.389134 0
M  V30 4229 C 387.427 -1.12082 -1.51931 0
M  V30 4230 O 386.784 -0.134183 -1.82006 0
M  V30 4231 C 386.835 -3.50064 -0.902087 0
M  V30 4232 O 386.556 -4.37717 0.18305 0
M  V30 4233 C 388.057 -4.13268 -1.60389 0
M  V30 4234 H 385.277 -0.664509 -0.0931053 0
M  V30 4235 H 387.821 -2.0124 0.36369 0
M  V30 4236 H 385.976 -3.52583 -1.60511 0
M  V30 4237 H 386.39 -5.24097 -0.205579 0
M  V30 4238 H 387.864 -5.17733 -1.91458 0
M  V30 4239 H 388.341 -3.59434 -2.52397 0
M  V30 4240 H 388.947 -4.14655 -0.945576 0
M  V30 4241 N 387.262 0.0317525 -1.57568 0
M  V30 4242 C 388.509 0.723104 -1.89149 0
M  V30 4243 C 388.837 1.75504 -0.838377 0
M  V30 4244 O 388.092 1.95037 0.160982 0
M  V30 4245 C 388.391 1.43167 -3.27472 0
M  V30 4246 C 388.057 0.535972 -4.47703 0
M  V30 4247 C 386.719 0.289262 -4.8033 0
M  V30 4248 C 389.071 -0.0826125 -5.21135 0
M  V30 4249 C 386.399 -0.584853 -5.83778 0
M  V30 4250 C 388.751 -0.944414 -6.25511 0
M  V30 4251 C 387.415 -1.20061 -6.56614 0
M  V30 4252 H 386.685 0.264602 -0.692146 0
M  V30 4253 H 389.332 -0.0169496 -1.91492 0
M  V30 4254 H 387.637 2.24497 -3.21105 0
M  V30 4255 H 389.334 1.97209 -3.49155 0
M  V30 4256 H 385.924 0.738414 -4.22191 0
M  V30 4257 H 390.108 0.0950302 -4.96209 0
M  V30 4258 H 385.364 -0.79168 -6.06253 0
M  V30 4259 H 389.538 -1.43026 -6.81554 0
M  V30 4260 H 387.165 -1.87967 -7.36595 0
M  V30 4261 N 388.74 1.54641 0.303973 0
M  V30 4262 C 389.65 1.88439 1.39743 0
M  V30 4263 C 390.666 0.778239 1.55626 0
M  V30 4264 O 391.842 1.07442 1.70347 0
M  V30 4265 C 388.907 2.12212 2.74166 0
M  V30 4266 C 387.968 3.35936 2.67293 0
M  V30 4267 C 387.201 3.58566 3.95305 0
M  V30 4268 O 387.424 2.84263 4.9452 0
M  V30 4269 O 386.358 4.52078 3.97378 0
M  V30 4270 H 390.184 2.81458 1.14083 0
M  V30 4271 H 387.769 1.40793 0.499768 0
M  V30 4272 H 389.651 2.29067 3.53704 0
M  V30 4273 H 388.326 1.22379 2.99675 0
M  V30 4274 H 387.233 3.24448 1.86237 0
M  V30 4275 H 388.566 4.2589 2.46736 0
M  V30 4276 N 390.218 -0.567019 1.47046 0
M  V30 4277 C 391.446 -1.35027 1.56765 0
M  V30 4278 C 391.861 -1.8758 0.214316 0
M  V30 4279 O 391.218 -1.64471 -0.790919 0
M  V30 4280 C 391.269 -2.52698 2.58507 0
M  V30 4281 O 390.99 -2.0232 3.88585 0
M  V30 4282 C 392.491 -3.45043 2.78316 0
M  V30 4283 H 389.711 -0.41195 0.529658 0
M  V30 4284 H 392.255 -0.687832 1.92585 0
M  V30 4285 H 390.41 -3.149 2.25648 0
M  V30 4286 H 390.824 -2.79068 4.44096 0
M  V30 4287 H 392.298 -4.2405 3.53391 0
M  V30 4288 H 392.775 -3.97971 1.85784 0
M  V30 4289 H 393.381 -2.88665 3.12334 0
M  V30 4290 N 391.696 -1.35014 -0.812953 0
M  V30 4291 C 392.944 -1.27678 -1.56661 0
M  V30 4292 C 393.265 0.150359 -1.94419 0
M  V30 4293 O 392.535 1.08532 -1.63088 0
M  V30 4294 H 391.115 -0.469602 -0.580933 0
M  V30 4295 H 393.777 -1.69043 -0.970076 0
M  V30 4296 H 392.873 -1.88833 -2.48492 0
M  V30 4297 N 393.175 1.03435 -1.18907 0
M  V30 4298 C 394.415 1.78302 -0.999391 0
M  V30 4299 C 394.779 1.86353 0.462219 0
M  V30 4300 O 395.98 2.57489 0.771543 0
M  V30 4301 C 394.251 3.17362 -1.64365 0
M  V30 4302 S 395.81 4.08488 -1.6026 0
M  V30 4303 H 392.628 0.613861 -0.358742 0
M  V30 4304 H 395.23 1.23979 -1.51161 0
M  V30 4305 H 393.934 3.09116 -2.69955 0
M  V30 4306 H 393.465 3.76762 -1.13199 0
M  V30 4307 H 395.48 4.92274 -0.622932 0
M  V30 4308 N 394.653 0.992116 1.22453 0
M  V30 4309 C 395.881 0.685944 1.95198 0
M  V30 4310 C 396.296 -0.749233 1.73297 0
M  V30 4311 O 395.653 -1.50549 1.03156 0
M  V30 4312 C 395.704 0.981395 3.47924 0
M  V30 4313 O 395.425 2.36018 3.6909 0
M  V30 4314 C 396.926 0.692815 4.37853 0
M  V30 4315 H 394.146 0.253821 0.621141 0
M  V30 4316 H 396.69 1.32668 1.55626 0
M  V30 4317 H 394.845 0.386481 3.85467 0
M  V30 4318 H 395.259 2.45884 4.63294 0
M  V30 4319 H 396.733 0.949818 5.43767 0
M  V30 4320 H 397.21 -0.373181 4.37612 0
M  V30 4321 H 397.816 1.26874 4.05935 0
M  V30 4322 N 396.131 -1.37776 0.765217 0
M  V30 4323 C 397.377 -2.00145 0.327072 0
M  V30 4324 C 397.71 -1.60607 -1.09175 0
M  V30 4325 O 396.985 -0.849127 -1.74986 0
M  V30 4326 C 397.268 -3.57109 0.46319 0
M  V30 4327 C 397.121 -4.06576 1.92395 0
M  V30 4328 C 398.44 -4.39888 -0.136473 0
M  V30 4329 H 395.559 -0.727113 0.120316 0
M  V30 4330 H 398.201 -1.63549 0.967039 0
M  V30 4331 H 396.351 -3.88414 -0.0816358 0
M  V30 4332 H 398.023 -3.85864 2.52798 0
M  V30 4333 H 396.266 -3.59011 2.43503 0
M  V30 4334 H 396.937 -5.15639 1.97028 0
M  V30 4335 H 399.413 -4.14803 0.328317 0
M  V30 4336 H 398.289 -5.48899 -0.0110582 0
M  V30 4337 H 398.55 -4.24758 -1.22608 0
M  V30 4338 N 397.609 -0.515225 -1.4894 0
M  V30 4339 C 398.849 0.0223983 -2.04388 0
M  V30 4340 C 399.213 1.32961 -1.38511 0
M  V30 4341 O 400.414 1.95236 -1.8476 0
M  V30 4342 C 398.685 0.157056 -3.57055 0
M  V30 4343 S 400.244 0.646875 -4.34006 0
M  V30 4344 H 397.062 -0.00500662 -0.710982 0
M  V30 4345 H 399.664 -0.69243 -1.82827 0
M  V30 4346 H 398.368 -0.799412 -4.02539 0
M  V30 4347 H 397.899 0.896704 -3.83044 0
M  V30 4348 H 399.914 1.91381 -4.57808 0
M  V30 4349 N 399.087 1.5561 -0.249682 0
M  V30 4350 C 400.364 1.90932 0.424761 0
M  V30 4351 C 400.744 1.17078 1.75658 0
M  V30 4352 O 400.092 0.289176 2.26663 0
M  V30 4353 C 400.302 3.43975 0.590109 0
M  V30 4354 C 401.65 4.15281 0.884714 0
M  V30 4355 O 402.674 3.49729 0.67587 0
M  V30 4356 O 401.533 5.31236 1.28259 0
M  V30 4357 H 398.627 0.794815 0.228468 0
M  V30 4358 H 401.173 1.67135 -0.293954 0
M  V30 4359 H 399.945 3.89748 -0.34818 0
M  V30 4360 H 399.568 3.73644 1.35926 0
M  V30 4361 N 400.565 -0.0233959 1.57583 0
M  V30 4362 C 401.475 -1.03907 2.10334 0
M  V30 4363 C 402.491 -1.39257 1.04323 0
M  V30 4364 O 403.667 -1.48462 1.36091 0
M  V30 4365 C 400.732 -2.31938 2.57693 0
M  V30 4366 C 399.793 -2.03117 3.78209 0
M  V30 4367 C 399.026 -3.25043 4.233 0
M  V30 4368 O 399.249 -4.35916 3.67876 0
M  V30 4369 O 398.183 -3.10411 5.15683 0
M  V30 4370 H 402.009 -0.620748 2.97288 0
M  V30 4371 H 399.594 -0.240743 1.47448 0
M  V30 4372 H 401.476 -3.07196 2.88458 0
M  V30 4373 H 400.151 -2.73055 1.73847 0
M  V30 4374 H 399.058 -1.25408 3.52454 0
M  V30 4375 H 400.391 -1.66852 4.63056 0
M  V30 4376 N 402.043 -1.548 -0.295768 0
M  V30 4377 C 403.291 -1.73985 -1.02828 0
M  V30 4378 C 403.612 -0.531406 -1.87619 0
M  V30 4379 O 402.882 0.454221 -1.90561 0
M  V30 4380 H 401.462 -0.641556 -0.382642 0
M  V30 4381 H 404.124 -1.92163 -0.325489 0
M  V30 4382 H 403.22 -2.63129 -1.67838 0
M  V30 4383 N 403.521 0.559213 -1.47345 0
M  V30 4384 C 404.451 1.67622 -1.62558 0
M  V30 4385 C 405.432 1.63331 -0.475087 0
M  V30 4386 O 406.617 1.80983 -0.704182 0
M  V30 4387 C 403.747 3.0626 -1.63774 0
M  V30 4388 C 402.701 3.25397 -2.7803 0
M  V30 4389 C 402.027 4.64801 -2.64318 0
M  V30 4390 C 403.327 3.10965 -4.19641 0
M  V30 4391 H 405.021 1.55146 -2.56067 0
M  V30 4392 H 402.567 0.744961 -1.23233 0
M  V30 4393 H 404.52 3.84247 -1.73008 0
M  V30 4394 H 403.244 3.1969 -0.66825 0
M  V30 4395 H 401.903 2.49817 -2.68304 0
M  V30 4396 H 401.551 4.75028 -1.65401 0
M  V30 4397 H 401.251 4.78555 -3.40968 0
M  V30 4398 H 402.775 5.44926 -2.75478 0
M  V30 4399 H 404.189 3.78772 -4.30354 0
M  V30 4400 H 402.586 3.36229 -4.97062 0
M  V30 4401 H 403.656 2.07736 -4.38148 0
M  V30 4402 N 404.999 1.35443 0.805782 0
M  V30 4403 C 406.415 1.15499 1.10146 0
M  V30 4404 C 406.615 -0.0319975 2.01475 0
M  V30 4405 O 405.671 -0.70236 2.42535 0
M  V30 4406 C 406.984 2.45833 1.73166 0
M  V30 4407 C 408.532 2.52047 1.85583 0
M  V30 4408 C 409.007 3.82427 2.52019 0
M  V30 4409 N 410.498 3.83682 2.59504 0
M  V30 4410 C 411.233 4.81294 3.11679 0
M  V30 4411 N 410.729 5.89294 3.64287 0
M  V30 4412 N 412.522 4.6873 3.1024 0
M  V30 4413 H 404.673 2.11469 0.198678 0
M  V30 4414 H 406.936 0.93594 0.150731 0
M  V30 4415 H 406.642 3.32874 1.13526 0
M  V30 4416 H 406.516 2.6044 2.72857 0
M  V30 4417 H 408.903 1.65435 2.44367 0
M  V30 4418 H 408.984 2.41354 0.847455 0
M  V30 4419 H 408.628 4.69437 1.93885 0
M  V30 4420 H 408.558 3.90409 3.53395 0
M  V30 4421 H 411.049 3.05648 2.22234 0
M  V30 4422 H 411.362 6.59768 4.02401 0
M  V30 4423 H 409.707 5.92985 3.62483 0
M  V30 4424 H 412.898 3.83496 2.68419 0
M  V30 4425 H 413.071 5.44965 3.50596 0
M  V30 4426 N 406.477 -1.02803 1.19454 0
M  V30 4427 C 407.702 -1.80378 1.02364 0
M  V30 4428 C 408.127 -1.83282 -0.423007 0
M  V30 4429 O 407.485 -1.25945 -1.30413 0
M  V30 4430 C 407.533 -3.23248 1.59821 0
M  V30 4431 O 406.637 -4.04 0.828105 0
M  V30 4432 H 405.978 -0.556799 0.361761 0
M  V30 4433 H 408.508 -1.29385 1.58495 0
M  V30 4434 H 408.518 -3.73994 1.63073 0
M  V30 4435 H 407.193 -3.2045 2.65113 0
M  V30 4436 H 405.77 -3.62635 0.86891 0
M  V30 4437 N 407.956 -0.998596 -1.21925 0
M  V30 4438 C 408.886 -0.573688 -2.26343 0
M  V30 4439 C 409.867 0.402296 -1.65274 0
M  V30 4440 O 411.052 0.291683 -1.91997 0
M  V30 4441 C 408.182 0.106839 -3.47136 0
M  V30 4442 C 407.136 -0.788269 -4.20678 0
M  V30 4443 C 406.462 0.0254927 -5.34694 0
M  V30 4444 C 407.762 -2.08784 -4.78755 0
M  V30 4445 H 409.456 -1.44651 -2.62138 0
M  V30 4446 H 407.002 -0.696975 -1.26009 0
M  V30 4447 H 408.955 0.415531 -4.19346 0
M  V30 4448 H 407.679 1.01424 -3.10452 0
M  V30 4449 H 406.338 -1.08069 -3.50309 0
M  V30 4450 H 405.986 0.933989 -4.94253 0
M  V30 4451 H 405.686 -0.570437 -5.84825 0
M  V30 4452 H 407.21 0.328147 -6.09718 0
M  V30 4453 H 408.624 -1.84272 -5.42878 0
M  V30 4454 H 407.021 -2.63307 -5.39249 0
M  V30 4455 H 408.091 -2.76284 -3.98491 0
M  V30 4456 N 409.434 1.37368 -0.772513 0
M  V30 4457 C 410.381 2.30262 -0.157488 0
M  V30 4458 C 411.351 1.51137 0.688965 0
M  V30 4459 O 412.536 1.79704 0.641168 0
M  V30 4460 C 409.676 3.37611 0.715045 0
M  V30 4461 C 408.789 4.31746 -0.148098 0
M  V30 4462 C 407.924 5.26171 0.729213 0
M  V30 4463 C 406.963 6.11948 -0.136418 0
M  V30 4464 N 406.1 6.98613 0.698914 0
M  V30 4465 H 410.94 2.82277 -0.955179 0
M  V30 4466 H 408.477 1.38957 -0.482631 0
M  V30 4467 H 410.435 3.98479 1.23575 0
M  V30 4468 H 409.065 2.86959 1.47833 0
M  V30 4469 H 408.117 3.72178 -0.786613 0
M  V30 4470 H 409.429 4.92084 -0.81579 0
M  V30 4471 H 408.583 5.92247 1.31637 0
M  V30 4472 H 407.322 4.66246 1.43059 0
M  V30 4473 H 406.327 5.4485 -0.736102 0
M  V30 4474 H 407.552 6.73945 -0.835134 0
M  V30 4475 H 405.498 6.41215 1.38489 0
M  V30 4476 H 405.415 7.55948 0.0885358 0
M  V30 4477 H 406.683 7.69077 1.27044 0
M  V30 4478 N 410.912 0.523116 1.48665 0
M  V30 4479 C 412.16 -0.0134497 2.02096 0
M  V30 4480 C 412.481 -1.35418 1.40311 0
M  V30 4481 O 411.751 -1.87543 0.566074 0
M  V30 4482 H 410.331 -0.00795915 0.746958 0
M  V30 4483 H 412.993 0.685388 1.82451 0
M  V30 4484 H 412.089 -0.126849 3.11842 0
M  V30 4485 N 412.39 -1.55475 0.257931 0
M  V30 4486 C 413.639 -1.98383 -0.364275 0
M  V30 4487 C 413.952 -1.14952 -1.58258 0
M  V30 4488 O 415.158 -1.47924 -2.27664 0
M  V30 4489 C 413.614 -3.53037 -0.699479 0
M  V30 4490 C 413.222 -4.45223 0.498046 0
M  V30 4491 C 414.966 -4.04575 -1.28526 0
M  V30 4492 C 412.873 -5.91238 0.138383 0
M  V30 4493 H 411.803 -0.740911 -0.13988 0
M  V30 4494 H 414.454 -1.79936 0.359883 0
M  V30 4495 H 412.836 -3.6722 -1.48207 0
M  V30 4496 H 414.01 -4.42803 1.27522 0
M  V30 4497 H 412.325 -4.04226 0.999503 0
M  V30 4498 H 414.922 -5.11196 -1.56788 0
M  V30 4499 H 415.265 -3.5258 -2.21344 0
M  V30 4500 H 415.798 -3.93762 -0.565337 0
M  V30 4501 H 412.537 -6.47294 1.03398 0
M  V30 4502 H 412.057 -5.96768 -0.602374 0
M  V30 4503 H 413.736 -6.46413 -0.27553 0
M  V30 4504 N 413.868 0.0150385 -1.57593 0
M  V30 4505 C 415.116 0.701613 -1.8953 0
M  V30 4506 C 415.437 1.75139 -0.857396 0
M  V30 4507 O 414.707 1.95607 0.107194 0
M  V30 4508 H 413.287 0.26213 -0.699498 0
M  V30 4509 H 415.949 -0.0223304 -1.94887 0
M  V30 4510 H 415.045 1.18236 -2.88837 0
M  V30 4511 N 415.346 1.54954 0.287554 0
M  V30 4512 C 416.623 1.65569 1.04146 0
M  V30 4513 C 417.003 0.512672 2.0478 0
M  V30 4514 O 416.351 -0.489038 2.23205 0
M  V30 4515 C 416.561 3.04163 1.71131 0
M  V30 4516 C 417.909 3.61429 2.22832 0
M  V30 4517 O 418.933 3.06702 1.81141 0
M  V30 4518 O 417.792 4.57281 2.9926 0
M  V30 4519 H 414.886 0.671881 0.482188 0
M  V30 4520 H 417.432 1.67297 0.28457 0
M  V30 4521 H 416.204 3.78796 0.981303 0
M  V30 4522 H 415.827 3.06271 2.53543 0
M  V30 4523 N 416.824 -0.551391 1.4764 0
M  V30 4524 C 417.734 -1.68525 1.63207 0
M  V30 4525 C 418.75 -1.6621 0.514815 0
M  V30 4526 O 419.926 -1.85551 0.783113 0
M  V30 4527 C 416.991 -3.05025 1.64805 0
M  V30 4528 C 416.052 -3.18362 2.88 0
M  V30 4529 C 415.285 -4.4835 2.89513 0
M  V30 4530 O 415.508 -5.34163 2.00065 0
M  V30 4531 O 414.442 -4.65602 3.81443 0
M  V30 4532 H 418.268 -1.58333 2.59161 0
M  V30 4533 H 415.853 -0.722063 1.30792 0
M  V30 4534 H 417.735 -3.86245 1.68502 0
M  V30 4535 H 416.41 -3.15587 0.720197 0
M  V30 4536 H 415.317 -2.36518 2.89845 0
M  V30 4537 H 416.65 -3.12707 3.80099 0
M  V30 4538 N 418.302 -1.35869 -0.798587 0
M  V30 4539 C 419.265 -1.29307 -1.89242 0
M  V30 4540 C 420.265 -0.202747 -1.59517 0
M  V30 4541 O 421.455 -0.456957 -1.681 0
M  V30 4542 C 418.587 -1.00229 -3.25833 0
M  V30 4543 H 419.78 -2.26576 -1.96478 0
M  V30 4544 H 417.333 -1.20509 -0.995358 0
M  V30 4545 H 418.068 -0.033801 -3.24282 0
M  V30 4546 H 417.853 -1.79121 -3.48795 0
M  V30 4547 H 419.343 -0.98219 -4.05885 0
M  V30 4548 N 419.78 1.02168 -1.19998 0
M  V30 4549 C 420.71 2.12488 -0.96804 0
M  V30 4550 C 421.691 1.69799 0.101185 0
M  V30 4551 O 422.876 1.94121 -0.0552993 0
M  V30 4552 C 420.006 3.43479 -0.513776 0
M  V30 4553 C 418.96 3.99884 -1.52566 0
M  V30 4554 C 418.286 5.26582 -0.928214 0
M  V30 4555 C 419.586 4.33861 -2.90795 0
M  V30 4556 H 421.28 2.32149 -1.89069 0
M  V30 4557 H 418.826 1.11564 -0.910468 0
M  V30 4558 H 420.779 4.20036 -0.338774 0
M  V30 4559 H 419.503 3.23561 0.444493 0
M  V30 4560 H 418.162 3.25429 -1.68794 0
M  V30 4561 H 417.81 5.02986 0.0378289 0
M  V30 4562 H 417.51 5.65284 -1.60397 0
M  V30 4563 H 419.034 6.05799 -0.764167 0
M  V30 4564 H 420.448 5.01327 -2.78109 0
M  V30 4565 H 418.845 4.83664 -3.55231 0
M  V30 4566 H 419.915 3.42848 -3.42904 0
M  V30 4567 N 421.258 1.00505 1.21394 0
M  V30 4568 C 422.669 0.721082 1.72213 0
M  V30 4569 C 423.02 -0.761263 1.80829 0
M  V30 4570 O 422.145 -1.59464 1.46288 0
M  V30 4571 C 422.74 1.30228 3.12772 0
M  V30 4572 C 421.299 1.06743 3.60947 0
M  V30 4573 C 420.446 1.41507 2.38477 0
M  V30 4574 H 423.397 1.17594 1.06571 0
M  V30 4575 H 423.418 0.686955 3.74247 0
M  V30 4576 H 422.93 2.38115 3.06468 0
M  V30 4577 H 421.031 0.00572162 3.726 0
M  V30 4578 H 421.144 1.73936 4.46411 0
M  V30 4579 H 419.508 0.833852 2.40664 0
M  V30 4580 H 420.291 2.50424 2.34824 0
M  V30 4581 N 422.737 -1.36956 0.779787 0
M  V30 4582 C 423.965 -2.03755 0.359398 0
M  V30 4583 C 424.38 -1.58807 -1.02106 0
M  V30 4584 O 423.737 -0.773024 -1.6532 0
M  V30 4585 C 423.788 -3.59251 0.402568 0
M  V30 4586 O 423.509 -4.02557 1.72858 0
M  V30 4587 C 425.01 -4.43291 -0.0284068 0
M  V30 4588 H 422.23 -0.654148 0.149437 0
M  V30 4589 H 424.774 -1.75128 1.05595 0
M  V30 4590 H 422.929 -3.86621 -0.245478 0
M  V30 4591 H 423.343 -4.97111 1.67275 0
M  V30 4592 H 424.817 -5.51975 0.0529466 0
M  V30 4593 H 425.294 -4.25719 -1.07982 0
M  V30 4594 H 425.9 -4.21163 0.591758 0
M  V30 4595 N 424.215 -0.530993 -1.48385 0
M  V30 4596 C 425.461 0.00274135 -2.028 0
M  V30 4597 C 425.794 1.33838 -1.40716 0
M  V30 4598 O 425.069 1.86465 -0.553277 0
M  V30 4599 C 425.352 0.123676 -3.59888 0
M  V30 4600 C 425.205 -1.2372 -4.3245 0
M  V30 4601 C 426.524 0.849967 -4.31814 0
M  V30 4602 H 423.643 -0.000477758 -0.737 0
M  V30 4603 H 426.285 -0.688217 -1.77098 0
M  V30 4604 H 424.435 0.712157 -3.81917 0
M  V30 4605 H 426.107 -1.86687 -4.21836 0
M  V30 4606 H 424.35 -1.81882 -3.93829 0
M  V30 4607 H 425.021 -1.10557 -5.40815 0
M  V30 4608 H 427.497 0.350572 -4.14621 0
M  V30 4609 H 426.373 0.903486 -5.41413 0
M  V30 4610 H 426.634 1.90047 -3.99167 0
M  V30 4611 N 425.693 1.55336 -0.266172 0
M  V30 4612 C 426.623 2.25146 0.618981 0
M  V30 4613 C 427.604 1.23845 1.16604 0
M  V30 4614 O 428.789 1.52544 1.20183 0
M  V30 4615 C 425.919 2.96572 1.80728 0
M  V30 4616 C 424.873 4.04726 1.39215 0
M  V30 4617 C 424.199 4.63678 2.66283 0
M  V30 4618 C 425.499 5.19407 0.548942 0
M  V30 4619 H 427.193 2.99377 0.0368116 0
M  V30 4620 H 424.739 1.43991 0.0162651 0
M  V30 4621 H 426.692 3.44116 2.43232 0
M  V30 4622 H 425.416 2.19861 2.41514 0
M  V30 4623 H 424.075 3.57979 0.790351 0
M  V30 4624 H 423.723 3.83646 3.25308 0
M  V30 4625 H 423.423 5.367 2.39222 0
M  V30 4626 H 424.947 5.13967 3.29651 0
M  V30 4627 H 426.361 5.63059 1.07876 0
M  V30 4628 H 424.758 5.98936 0.373593 0
M  V30 4629 H 425.828 4.8295 -0.434394 0
M  V30 4630 N 427.171 -0.0066808 1.57599 0
M  V30 4631 C 428.417 -0.693947 1.90558 0
M  V30 4632 C 428.75 -1.73792 0.866594 0
M  V30 4633 O 428.025 -1.94156 -0.115548 0
M  V30 4634 C 428.308 -1.34317 3.34112 0
M  V30 4635 C 428.161 -0.311189 4.48722 0
M  V30 4636 C 429.48 -2.27116 3.7697 0
M  V30 4637 H 426.599 -0.250803 0.693013 0
M  V30 4638 H 429.241 0.043242 1.89951 0
M  V30 4639 H 427.391 -1.9715 3.3476 0
M  V30 4640 H 429.063 0.316944 4.6021 0
M  V30 4641 H 427.306 0.367253 4.32243 0
M  V30 4642 H 427.977 -0.804366 5.46108 0
M  V30 4643 H 430.453 -1.74306 3.77831 0
M  V30 4644 H 429.329 -2.69511 4.78179 0
M  V30 4645 H 429.59 -3.14743 3.10466 0
M  V30 4646 N 428.649 -1.55105 -0.279332 0
M  V30 4647 C 429.897 -1.75066 -1.00977 0
M  V30 4648 C 430.218 -0.551276 -1.87045 0
M  V30 4649 O 429.488 0.433984 -1.91032 0
M  V30 4650 H 428.068 -0.645578 -0.375816 0
M  V30 4651 H 430.73 -1.92497 -0.305089 0
M  V30 4652 H 429.826 -2.64894 -1.65038 0
M  V30 4653 N 430.127 0.543554 -1.4793 0
M  V30 4654 C 431.373 1.30201 -1.55485 0
M  V30 4655 C 431.706 1.92925 -0.222201 0
M  V30 4656 O 430.981 1.78586 0.77053 0
M  V30 4657 C 431.264 2.40174 -2.68307 0
M  V30 4658 C 431.117 1.8223 -4.11233 0
M  V30 4659 C 432.436 3.42024 -2.76961 0
M  V30 4660 H 429.555 0.472036 -0.565996 0
M  V30 4661 H 432.197 0.606914 -1.80046 0
M  V30 4662 H 430.347 2.99463 -2.47495 0
M  V30 4663 H 432.019 1.27096 -4.43446 0
M  V30 4664 H 430.262 1.12832 -4.18869 0
M  V30 4665 H 430.933 2.61793 -4.85972 0
M  V30 4666 H 433.409 2.92672 -2.95774 0
M  V30 4667 H 432.285 4.16383 -3.57654 0
M  V30 4668 H 432.546 4.0173 -1.84568 0
M  V30 4669 N 431.605 1.3629 0.791371 0
M  V30 4670 C 432.852 1.30412 1.54916 0
M  V30 4671 C 433.18 -0.117162 1.94147 0
M  V30 4672 O 432.435 -1.08599 1.62803 0
M  V30 4673 C 432.734 2.17068 2.8393 0
M  V30 4674 C 432.4 3.65645 2.63846 0
M  V30 4675 C 431.062 4.0614 2.58077 0
M  V30 4676 C 433.414 4.59855 2.45322 0
M  V30 4677 C 430.742 5.3899 2.31748 0
M  V30 4678 C 433.094 5.9292 2.2052 0
M  V30 4679 C 431.758 6.32542 2.13183 0
M  V30 4680 H 431.028 0.47721 0.566879 0
M  V30 4681 H 433.675 1.68325 0.913172 0
M  V30 4682 H 431.98 1.72085 3.51986 0
M  V30 4683 H 433.677 2.09846 3.4171 0
M  V30 4684 H 430.267 3.33518 2.69191 0
M  V30 4685 H 434.451 4.29443 2.48782 0
M  V30 4686 H 429.707 5.68672 2.24548 0
M  V30 4687 H 433.881 6.65487 2.05182 0
M  V30 4688 H 431.508 7.35412 1.92544 0
M  V30 4689 N 433.083 -1.0153 1.20538 0
M  V30 4690 C 434.332 -1.74558 1.01057 0
M  V30 4691 C 434.645 -1.90168 -0.457756 0
M  V30 4692 O 435.851 -2.60301 -0.771722 0
M  V30 4693 C 434.307 -3.13963 1.75941 0
M  V30 4694 C 433.915 -3.06361 3.26875 0
M  V30 4695 C 435.659 -3.91191 1.64832 0
M  V30 4696 C 433.566 -4.40782 3.94291 0
M  V30 4697 H 432.496 -0.654417 0.374505 0
M  V30 4698 H 435.147 -1.13521 1.44171 0
M  V30 4699 H 433.529 -3.75549 1.25614 0
M  V30 4700 H 434.703 -2.54074 3.84425 0
M  V30 4701 H 433.018 -2.42625 3.38411 0
M  V30 4702 H 435.615 -4.90644 2.12539 0
M  V30 4703 H 435.958 -4.11884 0.604745 0
M  V30 4704 H 436.491 -3.36236 2.12579 0
M  V30 4705 H 433.23 -4.25292 4.98805 0
M  V30 4706 H 432.75 -4.9307 3.41529 0
M  V30 4707 H 434.429 -5.09621 3.98617 0
M  V30 4708 N 434.561 -1.01147 -1.20859 0
M  V30 4709 C 435.471 -0.58686 -2.27141 0
M  V30 4710 C 436.487 0.373198 -1.69951 0
M  V30 4711 O 437.663 0.235423 -2.00019 0
M  V30 4712 C 434.728 0.0733602 -3.46622 0
M  V30 4713 C 433.789 -0.931995 -4.19061 0
M  V30 4714 C 433.022 -0.303186 -5.32838 0
M  V30 4715 O 433.245 0.898395 -5.63281 0
M  V30 4716 O 432.179 -1.01735 -5.9324 0
M  V30 4717 H 436.005 -1.47155 -2.65667 0
M  V30 4718 H 433.59 -0.780689 -1.2738 0
M  V30 4719 H 435.472 0.442333 -4.19072 0
M  V30 4720 H 434.147 0.932329 -3.09983 0
M  V30 4721 H 433.054 -1.35224 -3.48805 0
M  V30 4722 H 434.387 -1.76076 -4.59628 0
M  V30 4723 N 436.039 1.36541 -0.78704 0
M  V30 4724 C 436.971 2.28761 -0.141773 0
M  V30 4725 C 437.984 1.49365 0.647599 0
M  V30 4726 O 439.173 1.71836 0.483173 0
M  V30 4727 C 436.273 3.28771 0.822368 0
M  V30 4728 C 435.446 4.3732 0.0835594 0
M  V30 4729 C 434.505 5.17307 0.963296 0
M  V30 4730 O 433.531 5.67638 0.421419 0
M  V30 4731 N 434.733 5.33515 2.28784 0
M  V30 4732 H 437.498 2.84777 -0.933919 0
M  V30 4733 H 435.059 1.48682 -0.640735 0
M  V30 4734 H 437.051 3.79169 1.41468 0
M  V30 4735 H 435.621 2.73412 1.5154 0
M  V30 4736 H 434.841 3.88118 -0.689809 0
M  V30 4737 H 436.129 5.0701 -0.426358 0
M  V30 4738 H 435.527 4.94234 2.75226 0
M  V30 4739 H 434.084 5.87165 2.82985 0
M  V30 4740 N 437.518 0.538854 1.48102 0
M  V30 4741 C 438.929 0.100679 1.86428 0
M  V30 4742 C 439.28 -1.32447 1.44749 0
M  V30 4743 O 438.405 -1.99339 0.842199 0
M  V30 4744 C 439 0.175933 3.38343 0
M  V30 4745 C 437.559 -0.207098 3.7583 0
M  V30 4746 C 436.706 0.531741 2.72154 0
M  V30 4747 H 439.657 0.749614 1.3988 0
M  V30 4748 H 439.678 -0.610144 3.75576 0
M  V30 4749 H 439.19 1.21328 3.68648 0
M  V30 4750 H 437.291 -1.24626 3.5114 0
M  V30 4751 H 437.404 0.138687 4.78899 0
M  V30 4752 H 435.768 -0.0230462 2.5469 0
M  V30 4753 H 436.551 1.56989 3.05302 0
M  V30 4754 N 438.996 -1.55193 0.274407 0
M  V30 4755 C 440.224 -2.03987 -0.345943 0
M  V30 4756 C 440.639 -1.15279 -1.4952 0
M  V30 4757 O 439.996 -0.172759 -1.8168 0
M  V30 4758 C 440.047 -3.51898 -0.827631 0
M  V30 4759 O 439.768 -4.37231 0.275855 0
M  V30 4760 C 441.269 -4.16577 -1.51587 0
M  V30 4761 H 438.489 -0.666335 -0.0789892 0
M  V30 4762 H 441.033 -2.00423 0.406294 0
M  V30 4763 H 439.188 -3.55909 -1.52996 0
M  V30 4764 H 439.602 -5.24415 -0.0943638 0
M  V30 4765 H 441.076 -5.21678 -1.80433 0
M  V30 4766 H 441.553 -3.64707 -2.44716 0
M  V30 4767 H 442.159 -4.16568 -0.857409 0
M  V30 4768 N 440.474 -0.00167713 -1.576 0
M  V30 4769 C 441.885 0.54091 -1.78693 0
M  V30 4770 C 442.236 1.7386 -0.909247 0
M  V30 4771 O 441.361 2.16109 -0.112176 0
M  V30 4772 C 441.956 0.98806 -3.24072 0
M  V30 4773 C 440.515 1.47594 -3.46256 0
M  V30 4774 C 439.662 0.42792 -2.73978 0
M  V30 4775 H 442.613 -0.22784 -1.57056 0
M  V30 4776 H 442.634 1.85398 -3.32277 0
M  V30 4777 H 442.146 0.116164 -3.87926 0
M  V30 4778 H 440.247 2.36868 -2.87618 0
M  V30 4779 H 440.36 1.50225 -4.54939 0
M  V30 4780 H 438.724 0.889934 -2.38647 0
M  V30 4781 H 439.507 -0.435038 -3.40532 0
M  V30 4782 N 441.952 1.55251 0.271103 0
M  V30 4783 C 443.199 1.75946 1.00245 0
M  V30 4784 C 443.527 0.561611 1.86215 0
M  V30 4785 O 442.782 -0.455832 1.90317 0
M  V30 4786 C 443.081 3.01879 1.91321 0
M  V30 4787 C 442.747 4.34337 1.21086 0
M  V30 4788 C 441.409 4.70338 1.01666 0
M  V30 4789 C 443.761 5.16325 0.71119 0
M  V30 4790 C 441.089 5.8588 0.310099 0
M  V30 4791 C 443.441 6.32597 0.0182157 0
M  V30 4792 C 442.105 6.67236 -0.18768 0
M  V30 4793 H 441.375 0.643833 0.366824 0
M  V30 4794 H 444.022 1.89521 0.27458 0
M  V30 4795 H 442.327 2.83212 2.70736 0
M  V30 4796 H 444.024 3.15088 2.48033 0
M  V30 4797 H 440.614 4.06043 1.37213 0
M  V30 4798 H 444.798 4.88987 0.848844 0
M  V30 4799 H 440.054 6.1124 0.139873 0
M  V30 4800 H 444.228 6.9538 -0.376711 0
M  V30 4801 H 441.855 7.56618 -0.73715 0
M  V30 4802 N 443.43 -0.535701 1.48216 0
M  V30 4803 C 444.676 -1.29375 1.56173 0
M  V30 4804 C 445.009 -1.92804 0.232429 0
M  V30 4805 O 444.284 -1.78992 -0.761048 0
M  V30 4806 C 444.567 -2.38747 2.69577 0
M  V30 4807 C 444.42 -1.80046 4.12193 0
M  V30 4808 C 445.739 -3.40551 2.78771 0
M  V30 4809 H 442.858 -0.469027 0.568491 0
M  V30 4810 H 445.5 -0.597358 1.80365 0
M  V30 4811 H 443.65 -2.98147 2.4908 0
M  V30 4812 H 445.322 -1.24742 4.44114 0
M  V30 4813 H 443.565 -1.10609 4.19462 0
M  V30 4814 H 444.236 -2.59212 4.87353 0
M  V30 4815 H 446.712 -2.91099 2.97322 0
M  V30 4816 H 445.588 -4.1448 3.59857 0
M  V30 4817 H 445.849 -4.00746 1.86696 0
M  V30 4818 N 444.908 -1.36708 -0.784132 0
M  V30 4819 C 446.133 -1.34565 -1.5782 0
M  V30 4820 C 446.558 0.0695257 -1.87971 0
M  V30 4821 O 445.916 1.04302 -1.48293 0
M  V30 4822 C 445.964 -2.17952 -2.87279 0
M  V30 4823 O 445.068 -1.57563 -3.81114 0
M  V30 4824 H 444.409 -0.460337 -0.478524 0
M  V30 4825 H 446.939 -1.80064 -0.971495 0
M  V30 4826 H 446.949 -2.30721 -3.365 0
M  V30 4827 H 445.624 -3.20823 -2.64661 0
M  V30 4828 H 444.201 -1.53764 -3.39722 0
M  V30 4829 N 446.386 1.0089 -1.21074 0
M  V30 4830 C 447.316 2.1145 -0.990523 0
M  V30 4831 C 448.297 1.69897 0.0831699 0
M  V30 4832 O 449.482 1.94052 -0.0758853 0
M  V30 4833 C 446.612 3.42914 -0.550177 0
M  V30 4834 C 445.566 3.98244 -1.56799 0
M  V30 4835 C 444.892 5.25568 -0.984013 0
M  V30 4836 C 446.192 4.30752 -2.95381 0
M  V30 4837 H 447.886 2.3013 -1.91521 0
M  V30 4838 H 445.432 1.10592 -0.92225 0
M  V30 4839 H 447.385 4.19653 -0.383305 0
M  V30 4840 H 446.109 3.24014 0.41015 0
M  V30 4841 H 444.768 3.23621 -1.72236 0
M  V30 4842 H 444.416 5.02998 -0.0155216 0
M  V30 4843 H 444.116 5.63551 -1.66384 0
M  V30 4844 H 445.64 6.04955 -0.828378 0
M  V30 4845 H 447.054 4.98349 -2.8341 0
M  V30 4846 H 445.451 4.79869 -3.60341 0
M  V30 4847 H 446.521 3.39192 -3.46521 0
M  V30 4848 N 447.864 1.01787 1.20321 0
M  V30 4849 C 449.111 0.707936 1.89722 0
M  V30 4850 C 449.439 -0.762535 1.78929 0
M  V30 4851 O 448.694 -1.56977 1.16861 0
M  V30 4852 C 448.993 1.09076 3.40349 0
M  V30 4853 C 448.659 2.55765 3.71342 0
M  V30 4854 C 447.321 2.95845 3.79511 0
M  V30 4855 C 449.673 3.50723 3.85542 0
M  V30 4856 C 447.001 4.2982 3.99339 0
M  V30 4857 C 449.353 4.84387 4.06881 0
M  V30 4858 C 448.017 5.24172 4.1328 0
M  V30 4859 H 447.287 0.259052 0.694243 0
M  V30 4860 H 449.934 1.27868 1.42555 0
M  V30 4861 H 448.239 0.438453 3.89339 0
M  V30 4862 H 449.936 0.828636 3.92345 0
M  V30 4863 H 446.526 2.2371 3.65584 0
M  V30 4864 H 450.71 3.20916 3.78585 0
M  V30 4865 H 445.966 4.60196 4.02529 0
M  V30 4866 H 450.14 5.57891 4.1681 0
M  V30 4867 H 447.767 6.27997 4.28396 0
M  V30 4868 N 449.342 -1.36122 0.79427 0
M  V30 4869 C 450.589 -1.99111 0.368905 0
M  V30 4870 C 450.917 -1.63032 -1.0607 0
M  V30 4871 O 450.172 -0.879303 -1.74833 0
M  V30 4872 C 450.471 -3.5409 0.48527 0
M  V30 4873 C 450.137 -4.10003 1.87638 0
M  V30 4874 C 448.799 -4.24986 2.257 0
M  V30 4875 C 451.151 -4.40423 2.78706 0
M  V30 4876 C 448.479 -4.67701 3.54221 0
M  V30 4877 C 450.831 -4.84573 4.0666 0
M  V30 4878 C 449.495 -4.97761 4.44737 0
M  V30 4879 H 448.765 -0.7286 0.134992 0
M  V30 4880 H 451.412 -1.62534 1.01267 0
M  V30 4881 H 449.717 -3.91052 -0.241984 0
M  V30 4882 H 451.414 -4.00766 0.137109 0
M  V30 4883 H 448.004 -3.98784 1.57064 0
M  V30 4884 H 452.188 -4.28412 2.50553 0
M  V30 4885 H 447.444 -4.761 3.83587 0
M  V30 4886 H 451.618 -5.07074 4.77336 0
M  V30 4887 H 449.245 -5.30618 5.44379 0
M  V30 4888 N 450.82 -0.546701 -1.47814 0
M  V30 4889 C 451.752 0.244196 -2.27895 0
M  V30 4890 C 452.765 0.88911 -1.36377 0
M  V30 4891 O 453.954 0.764733 -1.61289 0
M  V30 4892 C 451.054 1.36252 -3.10304 0
M  V30 4893 C 450.227 0.816382 -4.29714 0
M  V30 4894 C 449.286 1.81789 -4.93801 0
M  V30 4895 O 448.312 1.36818 -5.52512 0
M  V30 4896 N 449.514 3.15085 -4.87547 0
M  V30 4897 H 452.279 -0.442694 -2.96412 0
M  V30 4898 H 449.84 -0.382095 -1.57327 0
M  V30 4899 H 451.832 2.03102 -3.50045 0
M  V30 4900 H 450.402 1.95281 -2.44099 0
M  V30 4901 H 449.622 -0.0285981 -3.9419 0
M  V30 4902 H 450.91 0.430668 -5.06974 0
M  V30 4903 H 450.308 3.54275 -4.41028 0
M  V30 4904 H 448.865 3.77522 -5.31339 0
M  V30 4905 N 452.299 1.55045 -0.282633 0
M  V30 4906 C 453.715 1.59441 0.0712997 0
M  V30 4907 C 453.915 1.2998 1.53972 0
M  V30 4908 O 452.971 1.06431 2.28973 0
M  V30 4909 C 454.284 2.99097 -0.310104 0
M  V30 4910 C 455.832 3.1194 -0.257343 0
M  V30 4911 C 456.307 4.53875 -0.613297 0
M  V30 4912 N 457.798 4.5974 -0.565134 0
M  V30 4913 C 458.533 5.67603 -0.81326 0
M  V30 4914 N 458.029 6.83582 -1.1264 0
M  V30 4915 N 459.822 5.57187 -0.741553 0
M  V30 4916 H 451.973 1.72458 -1.23984 0
M  V30 4917 H 454.236 0.804549 -0.501403 0
M  V30 4918 H 453.942 3.25516 -1.33163 0
M  V30 4919 H 453.816 3.75616 0.345366 0
M  V30 4920 H 456.203 2.85281 0.754905 0
M  V30 4921 H 456.284 2.37618 -0.947178 0
M  V30 4922 H 455.928 4.81261 -1.62327 0
M  V30 4923 H 455.858 5.26508 0.09841 0
M  V30 4924 H 458.349 3.76427 -0.333294 0
M  V30 4925 H 458.662 7.6175 -1.30219 0
M  V30 4926 H 457.007 6.85179 -1.16425 0
M  V30 4927 H 460.198 4.65457 -0.496705 0
M  V30 4928 H 460.371 6.41171 -0.938306 0
M  V30 4929 N 453.777 0.010035 1.57597 0
M  V30 4930 C 454.707 -0.976857 2.12084 0
M  V30 4931 C 455.688 -1.35191 1.03235 0
M  V30 4932 O 456.873 -1.43389 1.3097 0
M  V30 4933 C 454.003 -2.26548 2.63236 0
M  V30 4934 C 452.957 -2.03175 3.76701 0
M  V30 4935 C 452.283 -3.38138 4.14206 0
M  V30 4936 C 453.583 -1.38625 5.03568 0
M  V30 4937 H 455.277 -0.523145 2.94794 0
M  V30 4938 H 452.823 -0.250195 1.4181 0
M  V30 4939 H 454.776 -2.95952 2.99984 0
M  V30 4940 H 453.5 -2.74051 1.77661 0
M  V30 4941 H 452.159 -1.36195 3.40362 0
M  V30 4942 H 451.807 -3.83363 3.25641 0
M  V30 4943 H 451.507 -3.23312 4.90656 0
M  V30 4944 H 453.031 -4.08841 4.53521 0
M  V30 4945 H 454.445 -1.98 5.38023 0
M  V30 4946 H 452.842 -1.34256 5.84889 0
M  V30 4947 H 453.912 -0.356722 4.83586 0
M  V30 4948 N 455.255 -1.55392 -0.262866 0
M  V30 4949 C 456.185 -1.91978 -1.32917 0
M  V30 4950 C 457.166 -0.7828 -1.51017 0
M  V30 4951 O 458.351 -1.04178 -1.63892 0
M  V30 4952 C 455.481 -2.20055 -2.68687 0
M  V30 4953 C 454.435 -3.35854 -2.65304 0
M  V30 4954 C 453.761 -3.49435 -4.04721 0
M  V30 4955 C 455.061 -4.71977 -2.23685 0
M  V30 4956 H 456.755 -2.81292 -1.02544 0
M  V30 4957 H 454.301 -1.3534 -0.491846 0
M  V30 4958 H 456.254 -2.44237 -3.43404 0
M  V30 4959 H 454.978 -1.27551 -3.00663 0
M  V30 4960 H 453.637 -3.11655 -1.93045 0
M  V30 4961 H 453.285 -2.54379 -4.33936 0
M  V30 4962 H 452.985 -4.27297 -4.0335 0
M  V30 4963 H 454.509 -3.7592 -4.81161 0
M  V30 4964 H 455.923 -4.95637 -2.88127 0
M  V30 4965 H 454.32 -5.52828 -2.33456 0
M  V30 4966 H 455.39 -4.70115 -1.18827 0
M  V30 4967 N 456.733 0.527833 -1.48498 0
M  V30 4968 C 458.149 0.856571 -1.34666 0
M  V30 4969 C 458.349 1.98271 -0.35931 0
M  V30 4970 O 457.405 2.51551 0.218703 0
M  V30 4971 C 458.718 1.22207 -2.74747 0
M  V30 4972 C 460.266 1.33183 -2.83251 0
M  V30 4973 C 460.741 1.73075 -4.24039 0
M  V30 4974 N 462.232 1.80174 -4.26722 0
M  V30 4975 C 462.967 2.1243 -5.32598 0
M  V30 4976 N 462.463 2.43096 -6.4875 0
M  V30 4977 N 464.256 2.13454 -5.19994 0
M  V30 4978 H 456.407 -0.215174 -2.11307 0
M  V30 4979 H 458.67 -0.0336281 -0.947403 0
M  V30 4980 H 458.376 0.468195 -3.4857 0
M  V30 4981 H 458.25 2.17173 -3.08409 0
M  V30 4982 H 460.637 2.07647 -2.09683 0
M  V30 4983 H 460.718 0.363333 -2.53206 0
M  V30 4984 H 460.362 0.991712 -4.98124 0
M  V30 4985 H 460.292 2.70979 -4.51529 0
M  V30 4986 H 462.783 1.58744 -3.42942 0
M  V30 4987 H 463.096 2.6682 -7.25277 0
M  V30 4988 H 461.441 2.40611 -6.52021 0
M  V30 4989 H 464.632 1.88956 -4.28268 0
M  V30 4990 H 464.805 2.38261 -6.02608 0
M  V30 4991 N 458.211 1.37122 0.776871 0
M  V30 4992 C 459.141 1.35164 1.90402 0
M  V30 4993 C 460.122 0.221069 1.68657 0
M  V30 4994 O 461.307 0.420642 1.8959 0
M  V30 4995 C 458.437 1.15274 3.27611 0
M  V30 4996 C 457.391 2.25289 3.63908 0
M  V30 4997 C 456.717 1.90527 4.99603 0
M  V30 4998 C 458.017 3.67446 3.71188 0
M  V30 4999 H 459.711 2.29482 1.92297 0
M  V30 5000 H 457.257 1.10465 0.923773 0
M  V30 5001 H 459.21 1.12536 4.06096 0
M  V30 5002 H 457.934 0.174102 3.26136 0
M  V30 5003 H 456.593 2.27174 2.87728 0
M  V30 5004 H 456.241 0.91206 4.94662 0
M  V30 5005 H 455.941 2.64193 5.24858 0
M  V30 5006 H 457.465 1.89367 5.80493 0
M  V30 5007 H 458.879 3.67719 4.39836 0
M  V30 5008 H 457.276 4.40123 4.07936 0
M  V30 5009 H 458.346 4.01443 2.71977 0
M  V30 5010 N 459.689 -1.00246 1.21608 0
M  V30 5011 C 460.639 -2.07492 0.945051 0
M  V30 5012 C 461.623 -1.60585 -0.100675 0
M  V30 5013 O 462.815 -1.76667 0.10859 0
M  V30 5014 C 459.944 -3.39425 0.514342 0
M  V30 5015 C 459.03 -3.92993 1.59428 0
M  V30 5016 N 459.421 -4.19898 2.81991 0
M  V30 5017 C 457.719 -4.21297 1.46374 0
M  V30 5018 C 458.42 -4.63297 3.51754 0
M  V30 5019 N 457.396 -4.66421 2.79199 0
M  V30 5020 H 461.198 -2.26222 1.87619 0
M  V30 5021 H 458.712 -1.18339 1.11219 0
M  V30 5022 H 460.709 -4.15808 0.301527 0
M  V30 5023 H 459.369 -3.22101 -0.410008 0
M  V30 5024 H 460.38 -4.08377 3.1851 0
M  V30 5025 H 457.057 -4.13095 0.604863 0
M  V30 5026 H 458.447 -4.92816 4.56708 0
M  V30 5027 N 461.167 -1.02423 -1.1978 0
M  V30 5028 C 462.397 -0.736387 -1.93031 0
M  V30 5029 C 462.805 0.708023 -1.75453 0
M  V30 5030 O 462.148 1.4927 -1.07071 0
M  V30 5031 C 462.21 -1.00194 -3.45255 0
M  V30 5032 C 461.874 -2.43698 -3.86601 0
M  V30 5033 C 462.871 -3.41814 -3.91738 0
M  V30 5034 C 460.556 -2.77975 -4.18372 0
M  V30 5035 C 462.55 -4.72265 -4.28071 0
M  V30 5036 C 460.237 -4.08636 -4.54378 0
M  V30 5037 C 461.235 -5.05592 -4.59201 0
M  V30 5038 O 460.923 -6.33914 -4.94376 0
M  V30 5039 H 460.655 -0.269116 -0.620123 0
M  V30 5040 H 463.209 -1.37043 -1.52998 0
M  V30 5041 H 461.439 -0.310747 -3.85449 0
M  V30 5042 H 463.128 -0.704488 -3.9974 0
M  V30 5043 H 463.894 -3.16671 -3.67348 0
M  V30 5044 H 459.773 -2.0319 -4.13805 0
M  V30 5045 H 463.317 -5.4794 -4.3175 0
M  V30 5046 H 459.214 -4.33556 -4.78226 0
M  V30 5047 H 459.982 -6.38317 -5.12341 0
M  V30 5048 N 462.645 1.35699 -0.801477 0
M  V30 5049 C 464.056 1.81415 -0.441073 0
M  V30 5050 C 464.407 1.66595 1.03636 0
M  V30 5051 O 463.532 1.19369 1.80499 0
M  V30 5052 C 464.127 3.29369 -0.793819 0
M  V30 5053 C 462.686 3.73248 -0.486083 0
M  V30 5054 C 461.833 2.57775 -1.02213 0
M  V30 5055 H 464.784 1.23749 -0.993572 0
M  V30 5056 H 464.805 3.80395 -0.0894158 0
M  V30 5057 H 464.317 3.40123 -1.86917 0
M  V30 5058 H 462.418 3.68046 0.580735 0
M  V30 5059 H 462.531 4.68222 -1.01513 0
M  V30 5060 H 460.895 2.50788 -0.444712 0
M  V30 5061 H 461.678 2.71309 -2.10348 0
M  V30 5062 N 464.123 0.554532 1.47522 0
M  V30 5063 C 465.055 -0.232106 2.28022 0
M  V30 5064 C 466.068 -0.881865 1.36847 0
M  V30 5065 O 467.257 -0.756168 1.61692 0
M  V30 5066 C 464.357 -1.34604 3.11022 0
M  V30 5067 C 463.53 -0.793582 4.30141 0
M  V30 5068 C 462.589 -1.79168 4.94758 0
M  V30 5069 O 461.615 -1.33886 5.5323 0
M  V30 5070 N 462.817 -3.12495 4.89211 0
M  V30 5071 H 465.582 0.458407 2.96173 0
M  V30 5072 H 463.143 0.390433 1.57122 0
M  V30 5073 H 465.135 -2.01243 3.51118 0
M  V30 5074 H 463.705 -1.93983 2.45131 0
M  V30 5075 H 462.925 0.0495025 3.94169 0
M  V30 5076 H 464.213 -0.403776 5.07195 0
M  V30 5077 H 463.611 -3.51931 4.42901 0
M  V30 5078 H 462.168 -3.74698 5.33333 0
M  V30 5079 N 465.601 -1.54893 0.290851 0
M  V30 5080 C 466.548 -2.23138 -0.58974 0
M  V30 5081 C 467.518 -1.21036 -1.13752 0
M  V30 5082 O 468.703 -1.49626 -1.18392 0
M  V30 5083 C 465.843 -2.96811 -1.76061 0
M  V30 5084 C 464.956 -4.13665 -1.24519 0
M  V30 5085 C 464.091 -4.74944 -2.3791 0
M  V30 5086 C 463.13 -5.83963 -1.83451 0
M  V30 5087 N 462.267 -6.39239 -2.90376 0
M  V30 5088 H 467.107 -2.98 -0.00114915 0
M  V30 5089 H 464.644 -1.47096 0.0112006 0
M  V30 5090 H 466.602 -3.37751 -2.44909 0
M  V30 5091 H 465.232 -2.24344 -2.32098 0
M  V30 5092 H 464.284 -3.77737 -0.449288 0
M  V30 5093 H 465.596 -4.92238 -0.806424 0
M  V30 5094 H 464.75 -5.18684 -3.14724 0
M  V30 5095 H 463.489 -3.95682 -2.85109 0
M  V30 5096 H 462.494 -5.39657 -1.05122 0
M  V30 5097 H 463.719 -6.65103 -1.37169 0
M  V30 5098 H 461.665 -5.62864 -3.36927 0
M  V30 5099 H 461.582 -7.13129 -2.50965 0
M  V30 5100 H 462.85 -6.87637 -3.67118 0
M  V30 5101 N 467.08 -0.0183926 -1.57589 0
M  V30 5102 C 468.03 0.975944 -2.06057 0
M  V30 5103 C 469.014 1.29204 -0.958908 0
M  V30 5104 O 470.206 1.27995 -1.22255 0
M  V30 5105 C 467.335 2.26194 -2.58247 0
M  V30 5106 C 466.421 1.97467 -3.75323 0
M  V30 5107 N 466.812 1.38968 -4.86335 0
M  V30 5108 C 465.11 2.27515 -3.83605 0
M  V30 5109 C 465.811 1.27131 -5.67638 0
M  V30 5110 N 464.787 1.76319 -5.14211 0
M  V30 5111 H 468.589 0.518444 -2.89291 0
M  V30 5112 H 466.103 0.18688 -1.61321 0
M  V30 5113 H 468.1 2.98289 -2.91255 0
M  V30 5114 H 466.76 2.7258 -1.76438 0
M  V30 5115 H 467.771 1.06608 -5.06809 0
M  V30 5116 H 464.448 2.76649 -3.12684 0
M  V30 5117 H 465.838 0.819882 -6.66879 0
M  V30 5118 N 468.558 1.5553 0.254621 0
M  V30 5119 C 469.491 1.84624 1.34124 0
M  V30 5120 C 470.469 0.700693 1.46728 0
M  V30 5121 O 471.653 0.94564 1.63064 0
M  V30 5122 C 468.78 2.02412 2.71564 0
M  V30 5123 C 467.826 3.25028 2.7615 0
M  V30 5124 S 468.659 4.81893 2.33538 0
M  V30 5125 C 469.815 5.02677 3.72917 0
M  V30 5126 H 470.048 2.76501 1.09245 0
M  V30 5127 H 467.581 1.47537 0.455211 0
M  V30 5128 H 469.539 2.13345 3.50705 0
M  V30 5129 H 468.2 1.11391 2.93685 0
M  V30 5130 H 467.393 3.34418 3.77069 0
M  V30 5131 H 466.995 3.12781 2.05046 0
M  V30 5132 H 469.287 4.89546 4.68349 0
M  V30 5133 H 470.23 6.0468 3.68467 0
M  V30 5134 H 470.638 4.30561 3.65072 0
M  V30 5135 N 470.036 -0.519951 1.48776 0
M  V30 5136 C 471.452 -0.849418 1.35119 0
M  V30 5137 C 471.652 -1.98077 0.36982 0
M  V30 5138 O 470.708 -2.51664 -0.205359 0
M  V30 5139 C 472.021 -1.20748 2.75391 0
M  V30 5140 C 473.569 -1.31679 2.83954 0
M  V30 5141 C 474.044 -1.70824 4.24951 0
M  V30 5142 N 475.535 -1.77908 4.27672 0
M  V30 5143 C 476.27 -2.09603 5.33717 0
M  V30 5144 N 475.766 -2.39652 6.5003 0
M  V30 5145 N 477.559 -2.10694 5.21119 0
M  V30 5146 H 469.71 0.226377 2.1119 0
M  V30 5147 H 471.973 0.0386519 0.947212 0
M  V30 5148 H 471.679 -0.449703 3.48813 0
M  V30 5149 H 471.553 -2.15534 3.09556 0
M  V30 5150 H 473.94 -2.06532 2.10781 0
M  V30 5151 H 474.021 -0.3499 2.53396 0
M  V30 5152 H 473.665 -0.965282 4.98643 0
M  V30 5153 H 473.595 -2.6858 4.52959 0
M  V30 5154 H 476.086 -1.56923 3.43779 0
M  V30 5155 H 476.399 -2.6297 7.26682 0
M  V30 5156 H 474.744 -2.37149 6.53288 0
M  V30 5157 H 477.935 -1.86682 4.29264 0
M  V30 5158 H 478.108 -2.35062 6.03863 0
M  V30 5159 N 471.514 -1.37532 -0.769588 0
M  V30 5160 C 472.444 -1.36172 -1.89682 0
M  V30 5161 C 473.425 -0.23001 -1.68538 0
M  V30 5162 O 474.61 -0.43069 -1.89364 0
M  V30 5163 C 471.74 -1.1701 -3.26995 0
M  V30 5164 C 470.694 -2.27216 -3.62708 0
M  V30 5165 C 470.02 -1.93174 -4.98586 0
M  V30 5166 C 471.32 -3.6941 -3.69234 0
M  V30 5167 H 473.014 -2.30499 -1.91078 0
M  V30 5168 H 470.56 -1.10953 -0.917902 0
M  V30 5169 H 472.513 -1.14688 -4.05493 0
M  V30 5170 H 471.237 -0.191395 -3.26039 0
M  V30 5171 H 469.896 -2.28697 -2.86519 0
M  V30 5172 H 469.544 -0.938281 -4.94171 0
M  V30 5173 H 469.244 -2.66973 -5.23449 0
M  V30 5174 H 470.768 -1.92443 -5.79481 0
M  V30 5175 H 472.182 -3.70047 -4.37879 0
M  V30 5176 H 470.579 -4.4228 -4.05597 0
M  V30 5177 H 471.649 -4.0288 -2.69844 0
M  V30 5178 N 472.992 0.995999 -1.22138 0
M  V30 5179 C 474.239 1.7351 -1.04406 0
M  V30 5180 C 474.567 1.89884 0.421244 0
M  V30 5181 O 473.822 1.43683 1.32867 0
M  V30 5182 C 474.121 3.14553 -1.6968 0
M  V30 5183 C 473.787 3.18102 -3.19565 0
M  V30 5184 C 472.449 3.18778 -3.60464 0
M  V30 5185 C 474.801 3.14636 -4.15516 0
M  V30 5186 C 472.129 3.13684 -4.95801 0
M  V30 5187 C 474.481 3.11084 -5.50826 0
M  V30 5188 C 473.145 3.10074 -5.91109 0
M  V30 5189 H 472.415 0.634916 -0.38205 0
M  V30 5190 H 475.062 1.1667 -1.51857 0
M  V30 5191 H 473.367 3.74682 -1.14546 0
M  V30 5192 H 475.064 3.70477 -1.53454 0
M  V30 5193 H 471.654 3.18324 -2.86998 0
M  V30 5194 H 475.838 3.13266 -3.84939 0
M  V30 5195 H 471.094 3.11245 -5.26247 0
M  V30 5196 H 475.268 3.07357 -6.24904 0
M  V30 5197 H 472.895 3.05882 -6.95946 0
M  V30 5198 N 474.47 1.03057 1.19235 0
M  V30 5199 C 475.719 0.72326 1.88287 0
M  V30 5200 C 476.032 -0.751333 1.80594 0
M  V30 5201 O 477.238 -1.17176 2.44912 0
M  V30 5202 C 475.694 1.24338 3.3774 0
M  V30 5203 C 475.302 2.74587 3.53986 0
M  V30 5204 C 477.046 1.01213 4.12257 0
M  V30 5205 C 474.953 3.20009 4.97341 0
M  V30 5206 H 473.883 0.266848 0.705201 0
M  V30 5207 H 476.534 1.24509 1.34795 0
M  V30 5208 H 474.916 0.649457 3.90638 0
M  V30 5209 H 476.09 3.39649 3.11408 0
M  V30 5210 H 474.405 2.9601 2.9286 0
M  V30 5211 H 477.002 1.32675 5.17978 0
M  V30 5212 H 477.345 -0.051001 4.16269 0
M  V30 5213 H 477.878 1.57014 3.65501 0
M  V30 5214 H 474.617 4.25659 4.98493 0
M  V30 5215 H 474.137 2.59676 5.40674 0
M  V30 5216 H 475.816 3.13447 5.66003 0
M  V30 5217 N 475.948 -1.35272 0.808662 0
M  V30 5218 C 476.898 -2.27181 0.193124 0
M  V30 5219 C 477.882 -1.47871 -0.634265 0
M  V30 5220 O 479.074 -1.70048 -0.491182 0
M  V30 5221 C 476.203 -3.36979 -0.655751 0
M  V30 5222 C 475.289 -4.23712 0.181481 0
M  V30 5223 N 475.68 -4.90225 1.24551 0
M  V30 5224 C 473.978 -4.45985 -0.0365493 0
M  V30 5225 C 474.679 -5.54537 1.75682 0
M  V30 5226 N 473.655 -5.33107 1.06294 0
M  V30 5227 H 477.457 -2.76101 1.00724 0
M  V30 5228 H 474.971 -1.48823 0.650029 0
M  V30 5229 H 476.968 -4.01774 -1.11279 0
M  V30 5230 H 475.628 -2.89611 -1.46819 0
M  V30 5231 H 476.639 -4.91641 1.62818 0
M  V30 5232 H 473.316 -4.09409 -0.817964 0
M  V30 5233 H 474.706 -6.17597 2.64621 0
M  V30 5234 N 477.426 -0.562348 -1.47226 0
M  V30 5235 C 478.374 0.195476 -2.31777 0
M  V30 5236 C 479.368 0.90433 -1.43242 0
M  V30 5237 O 480.574 0.825031 -1.59979 0
M  V30 5238 H 476.949 0.0819095 -0.747526 0
M  V30 5239 H 478.92 -0.536753 -2.93533 0
M  V30 5240 C 477.669 1.20902 -3.26003 0
M  V30 5241 H 476.992 0.672997 -3.94095 0
M  V30 5242 H 478.432 1.71006 -3.87986 0
M  V30 5243 C 476.891 2.25955 -2.49891 0
M  V30 5244 O 477.421 3.32969 -2.2471 0
M  V30 5245 N 475.627 2.00019 -2.1081 0
M  V30 5246 H 475.174 1.13006 -2.31489 0
M  V30 5247 H 475.132 2.70523 -1.60201 0
M  V30 5248 N 478.904 1.54736 -0.299062 0
M  V30 5249 C 479.854 2.20155 0.592932 0
M  V30 5250 C 480.838 1.1739 1.10038 0
M  V30 5251 O 482.03 1.43116 1.04147 0
M  V30 5252 C 479.159 2.94437 1.76527 0
M  V30 5253 C 478.245 4.04516 1.27388 0
M  V30 5254 N 478.636 5.03319 0.500339 0
M  V30 5255 C 476.934 4.18022 1.55478 0
M  V30 5256 C 477.635 5.81209 0.238909 0
M  V30 5257 N 476.611 5.37408 0.818163 0
M  V30 5258 H 480.413 2.93899 -0.00563596 0
M  V30 5259 H 477.927 1.62068 -0.103732 0
M  V30 5260 H 479.924 3.3977 2.41582 0
M  V30 5261 H 478.584 2.22209 2.36756 0
M  V30 5262 H 479.595 5.17696 0.145419 0
M  V30 5263 H 476.272 3.56998 2.16469 0
M  V30 5264 H 477.662 6.70812 -0.382223 0
M  V30 5265 N 480.382 0.0267497 1.57577 0
M  V30 5266 C 481.292 -0.971633 2.13533 0
M  V30 5267 C 482.308 -1.35868 1.08701 0
M  V30 5268 O 483.484 -1.44058 1.40746 0
M  V30 5269 C 480.549 -2.23622 2.64941 0
M  V30 5270 C 479.61 -1.90982 3.8448 0
M  V30 5271 C 478.843 -3.11411 4.33427 0
M  V30 5272 O 479.066 -4.23992 3.81558 0
M  V30 5273 O 478 -2.93848 5.25297 0
M  V30 5274 H 481.826 -0.525853 2.99113 0
M  V30 5275 H 479.411 -0.193712 1.48139 0
M  V30 5276 H 481.293 -2.97864 2.98086 0
M  V30 5277 H 479.968 -2.67386 1.82446 0
M  V30 5278 H 478.875 -1.14132 3.56265 0
M  V30 5279 H 480.208 -1.52036 4.6813 0
M  V30 5280 N 481.861 -1.55662 -0.24637 0
M  V30 5281 C 482.793 -1.86811 -1.32794 0
M  V30 5282 C 483.806 -0.754413 -1.44265 0
M  V30 5283 O 484.995 -1.03253 -1.45606 0
M  V30 5284 C 482.095 -2.0397 -2.70646 0
M  V30 5285 C 481.268 -3.34832 -2.81436 0
M  V30 5286 C 480.327 -3.41727 -4.00136 0
M  V30 5287 O 479.353 -4.14934 -3.89639 0
M  V30 5288 N 480.555 -2.71058 -5.1333 0
M  V30 5289 H 483.32 -2.80174 -1.06409 0
M  V30 5290 H 480.881 -1.55906 -0.43647 0
M  V30 5291 H 482.873 -2.05924 -3.48393 0
M  V30 5292 H 481.443 -1.1735 -2.89738 0
M  V30 5293 H 480.663 -3.4519 -1.90361 0
M  V30 5294 H 481.951 -4.21085 -2.85595 0
M  V30 5295 H 481.349 -2.11314 -5.2475 0
M  V30 5296 H 479.906 -2.78704 -5.89209 0
M  V30 5297 N 483.339 0.512053 -1.4905 0
M  V30 5298 C 484.289 1.61142 -1.61298 0
M  V30 5299 C 485.273 1.53908 -0.46916 0
M  V30 5300 O 486.465 1.61625 -0.721547 0
M  V30 5301 C 483.594 2.998 -1.67256 0
M  V30 5302 C 482.68 3.12072 -2.87179 0
M  V30 5303 N 483.071 2.94263 -4.11391 0
M  V30 5304 C 481.369 3.43156 -2.84886 0
M  V30 5305 C 482.07 3.10426 -4.91946 0
M  V30 5306 N 481.046 3.38808 -4.251 0
M  V30 5307 H 484.848 1.46011 -2.55065 0
M  V30 5308 H 482.362 0.717934 -1.45669 0
M  V30 5309 H 484.359 3.78794 -1.74128 0
M  V30 5310 H 483.019 3.1601 -0.746195 0
M  V30 5311 H 484.03 2.70661 -4.41546 0
M  V30 5312 H 480.707 3.65611 -2.01581 0
M  V30 5313 H 482.097 3.01243 -6.00585 0
M  V30 5314 N 484.817 1.37938 0.762283 0
M  V30 5315 C 485.767 1.30976 1.86626 0
M  V30 5316 C 486.751 0.195714 1.59705 0
M  V30 5317 O 487.943 0.430937 1.71674 0
M  V30 5318 C 485.072 1.12847 3.24223 0
M  V30 5319 C 484.158 2.28836 3.57064 0
M  V30 5320 N 484.549 3.54256 3.61022 0
M  V30 5321 C 482.847 2.21198 3.87282 0
M  V30 5322 C 483.548 4.30798 3.90881 0
M  V30 5323 N 482.524 3.60049 4.07266 0
M  V30 5324 H 486.326 2.25946 1.87951 0
M  V30 5325 H 483.84 1.31046 0.959206 0
M  V30 5326 H 485.837 1.05943 4.03214 0
M  V30 5327 H 484.497 0.188024 3.24155 0
M  V30 5328 H 485.508 3.8804 3.42995 0
M  V30 5329 H 482.185 1.35264 3.94981 0
M  V30 5330 H 483.575 5.39386 4.00639 0
M  V30 5331 N 486.295 -0.989507 1.22664 0
M  V30 5332 C 487.242 -2.08024 0.999733 0
M  V30 5333 C 488.212 -1.65909 -0.0797047 0
M  V30 5334 O 489.397 -1.90669 0.0705715 0
M  V30 5335 C 486.537 -3.40067 0.587234 0
M  V30 5336 C 485.65 -3.95505 1.73781 0
M  V30 5337 C 484.785 -5.15722 1.27297 0
M  V30 5338 C 483.824 -5.63305 2.39488 0
M  V30 5339 N 482.961 -6.74758 1.94026 0
M  V30 5340 H 487.801 -2.26768 1.9334 0
M  V30 5341 H 485.338 -1.11171 0.963297 0
M  V30 5342 H 487.296 -4.15899 0.329227 0
M  V30 5343 H 485.926 -3.21314 -0.309426 0
M  V30 5344 H 484.978 -3.16513 2.11006 0
M  V30 5345 H 486.29 -4.26797 2.58158 0
M  V30 5346 H 485.444 -5.98854 0.972546 0
M  V30 5347 H 484.183 -4.86061 0.399445 0
M  V30 5348 H 483.188 -4.78759 2.70315 0
M  V30 5349 H 484.413 -5.94988 3.27362 0
M  V30 5350 H 482.359 -6.46874 1.09041 0
M  V30 5351 H 482.276 -7.05386 2.71968 0
M  V30 5352 H 483.544 -7.61387 1.67062 0
M  V30 5353 N 487.773 -1.03688 -1.18687 0
M  V30 5354 C 488.736 -0.629115 -2.20397 0
M  V30 5355 C 489.736 0.311495 -1.57754 0
M  V30 5356 O 490.926 0.0974107 -1.73927 0
M  V30 5357 C 488.058 0.0782231 -3.4081 0
M  V30 5358 H 489.251 -1.52915 -2.57987 0
M  V30 5359 H 486.804 -0.828988 -1.32505 0
M  V30 5360 H 487.539 0.992233 -3.08748 0
M  V30 5361 H 487.324 -0.597776 -3.87517 0
M  V30 5362 H 488.814 0.350156 -4.16129 0
M  V30 5363 N 489.251 1.34841 -0.815825 0
M  V30 5364 C 490.183 2.28409 -0.190265 0
M  V30 5365 C 491.196 1.50705 0.615771 0
M  V30 5366 O 492.385 1.72822 0.446616 0
M  V30 5367 C 489.485 3.30441 0.752446 0
M  V30 5368 C 488.658 4.37399 -0.00922152 0
M  V30 5369 C 487.717 5.19234 0.853351 0
M  V30 5370 O 486.743 5.68404 0.300919 0
M  V30 5371 N 487.945 5.38248 2.17416 0
M  V30 5372 H 490.71 2.82732 -0.994114 0
M  V30 5373 H 488.271 1.47289 -0.672129 0
M  V30 5374 H 490.263 3.82084 1.33394 0
M  V30 5375 H 488.833 2.76565 1.45707 0
M  V30 5376 H 488.053 3.86567 -0.771979 0
M  V30 5377 H 489.341 5.05992 -0.533807 0
M  V30 5378 H 488.739 4.99961 2.6468 0
M  V30 5379 H 487.296 5.93035 2.70467 0
M  V30 5380 N 490.729 0.570148 1.46925 0
M  V30 5381 C 491.975 0.0510284 2.02736 0
M  V30 5382 C 492.308 -1.3006 1.44215 0
M  V30 5383 O 491.583 -1.84932 0.602521 0
M  V30 5384 C 491.866 -0.028215 3.60089 0
M  V30 5385 C 491.719 1.35142 4.29018 0
M  V30 5386 C 493.038 -0.735181 4.33916 0
M  V30 5387 H 490.157 0.0200178 0.736728 0
M  V30 5388 H 492.799 0.73493 1.75211 0
M  V30 5389 H 490.949 -0.610648 3.83671 0
M  V30 5390 H 492.621 1.97806 4.16738 0
M  V30 5391 H 490.864 1.9226 3.88868 0
M  V30 5392 H 491.535 1.24857 5.37694 0
M  V30 5393 H 494.011 -0.240519 4.15404 0
M  V30 5394 H 492.887 -0.759622 5.43618 0
M  V30 5395 H 493.148 -1.79397 4.04066 0
M  V30 5396 N 492.207 -1.54576 0.307264 0
M  V30 5397 C 493.117 -2.27435 -0.57536 0
M  V30 5398 C 494.133 -1.31183 -1.14311 0
M  V30 5399 O 495.309 -1.64175 -1.16656 0
M  V30 5400 C 492.374 -3.00566 -1.72803 0
M  V30 5401 C 491.435 -4.12369 -1.19373 0
M  V30 5402 C 490.668 -4.82003 -2.29147 0
M  V30 5403 O 490.891 -4.51038 -3.49171 0
M  V30 5404 O 489.825 -5.69271 -1.95485 0
M  V30 5405 H 493.651 -3.03696 0.0158558 0
M  V30 5406 H 491.236 -1.49219 0.0735064 0
M  V30 5407 H 493.118 -3.46416 -2.39946 0
M  V30 5408 H 491.793 -2.27195 -2.30574 0
M  V30 5409 H 490.7 -3.70905 -0.487851 0
M  V30 5410 H 492.033 -4.87736 -0.661376 0
M  V30 5411 N 493.685 -0.035106 -1.57561 0
M  V30 5412 C 494.595 0.960295 -2.14046 0
M  V30 5413 C 495.611 1.3529 -1.0942 0
M  V30 5414 O 496.787 1.43309 -1.41508 0
M  V30 5415 C 493.852 2.22214 -2.66124 0
M  V30 5416 C 492.913 1.8894 -3.85487 0
M  V30 5417 C 492.146 3.09109 -4.35072 0
M  V30 5418 O 492.369 4.21963 -3.83802 0
M  V30 5419 O 491.303 2.91058 -5.26848 0
M  V30 5420 H 495.129 0.509983 -2.99387 0
M  V30 5421 H 492.714 0.185853 -1.48239 0
M  V30 5422 H 494.596 2.96279 -2.99661 0
M  V30 5423 H 493.271 2.66414 -1.83862 0
M  V30 5424 H 492.178 1.12241 -3.56865 0
M  V30 5425 H 493.511 1.49551 -4.6893 0
M  V30 5426 N 495.163 1.55791 0.238111 0
M  V30 5427 C 496.41 1.78033 0.964907 0
M  V30 5428 C 496.738 0.600984 1.84982 0
M  V30 5429 O 495.993 -0.41536 1.91241 0
M  V30 5430 C 496.292 3.05869 1.84875 0
M  V30 5431 C 495.958 4.36808 1.11846 0
M  V30 5432 C 494.62 4.72388 0.916662 0
M  V30 5433 C 496.972 5.17717 0.60151 0
M  V30 5434 C 494.3 5.86406 0.185756 0
M  V30 5435 C 496.652 6.32494 -0.115972 0
M  V30 5436 C 495.316 6.66688 -0.329168 0
M  V30 5437 H 494.586 0.651469 0.353085 0
M  V30 5438 H 497.233 1.90061 0.234318 0
M  V30 5439 H 495.538 2.88891 2.64668 0
M  V30 5440 H 497.235 3.20278 2.41294 0
M  V30 5441 H 493.825 4.08862 1.28569 0
M  V30 5442 H 498.009 4.90678 0.744932 0
M  V30 5443 H 493.265 6.11399 0.0101886 0
M  V30 5444 H 497.439 6.94425 -0.524127 0
M  V30 5445 H 495.066 7.54884 -0.897474 0
M  V30 5446 N 496.642 -0.504142 1.49319 0
M  V30 5447 C 497.572 -1.61473 1.68667 0
M  V30 5448 C 498.553 -1.61455 0.535378 0
M  V30 5449 O 499.738 -1.78245 0.770868 0
M  V30 5450 C 496.868 -2.99971 1.75028 0
M  V30 5451 C 495.822 -3.14854 2.89916 0
M  V30 5452 C 495.148 -4.54671 2.81387 0
M  V30 5453 C 496.448 -2.95176 4.30893 0
M  V30 5454 H 498.142 -1.45535 2.61648 0
M  V30 5455 H 495.688 -0.698711 1.25913 0
M  V30 5456 H 497.641 -3.77562 1.8715 0
M  V30 5457 H 496.365 -3.1699 0.786441 0
M  V30 5458 H 495.024 -2.39687 2.77391 0
M  V30 5459 H 494.672 -4.68562 1.82917 0
M  V30 5460 H 494.372 -4.6557 3.58494 0
M  V30 5461 H 495.896 -5.34327 2.95512 0
M  V30 5462 H 497.31 -3.62538 4.44116 0
M  V30 5463 H 495.707 -3.17549 5.09198 0
M  V30 5464 H 496.777 -1.91332 4.45556 0
M  V30 5465 N 498.12 -1.38341 -0.754957 0
M  V30 5466 C 499.083 -1.35262 -1.85032 0
M  V30 5467 C 500.083 -0.253393 -1.58791 0
M  V30 5468 O 501.273 -0.510205 -1.66561 0
M  V30 5469 C 498.405 -1.10544 -3.22479 0
M  V30 5470 H 499.598 -2.32712 -1.8917 0
M  V30 5471 H 497.151 -1.23614 -0.956515 0
M  V30 5472 H 497.886 -0.136952 -3.24011 0
M  V30 5473 H 497.671 -1.90127 -3.4292 0
M  V30 5474 H 499.161 -1.11082 -4.02555 0
M  V30 5475 N 499.598 0.982988 -1.23187 0
M  V30 5476 C 500.53 2.07729 -0.968572 0
M  V30 5477 C 501.543 1.62702 0.0564821 0
M  V30 5478 O 502.732 1.77603 -0.178733 0
M  V30 5479 C 499.832 3.36071 -0.436974 0
M  V30 5480 C 499.005 4.10081 -1.52159 0
M  V30 5481 C 498.064 5.16701 -0.99532 0
M  V30 5482 O 497.09 5.43727 -1.68373 0
M  V30 5483 N 498.292 5.80226 0.178192 0
M  V30 5484 H 501.057 2.30894 -1.9107 0
M  V30 5485 H 498.618 1.14949 -1.1401 0
M  V30 5486 H 500.61 4.04639 -0.0700051 0
M  V30 5487 H 499.18 3.09893 0.410509 0
M  V30 5488 H 498.4 3.36004 -2.06144 0
M  V30 5489 H 499.688 4.56295 -2.25105 0
M  V30 5490 H 499.086 5.60651 0.754096 0
M  V30 5491 H 497.643 6.49982 0.486449 0
M  V30 5492 N 501.076 1.04316 1.18135 0
M  V30 5493 C 502.026 0.606731 2.19779 0
M  V30 5494 C 503.01 -0.352144 1.56999 0
M  V30 5495 O 504.202 -0.170795 1.76174 0
M  V30 5496 C 501.331 -0.0262443 3.4329 0
M  V30 5497 C 500.417 0.955928 4.13186 0
M  V30 5498 N 500.808 2.12395 4.59045 0
M  V30 5499 C 499.106 0.782473 4.39082 0
M  V30 5500 C 499.807 2.74458 5.12882 0
M  V30 5501 N 498.783 2.02316 5.04548 0
M  V30 5502 H 502.585 1.49679 2.5293 0
M  V30 5503 H 500.099 0.912088 1.34368 0
M  V30 5504 H 502.096 -0.356617 4.15372 0
M  V30 5505 H 500.756 -0.911811 3.11635 0
M  V30 5506 H 501.767 2.50272 4.53414 0
M  V30 5507 H 498.444 -0.0527906 4.17467 0
M  V30 5508 H 499.834 3.73459 5.5855 0
M  V30 5509 N 502.554 -1.34406 0.822964 0
M  V30 5510 C 503.802 -1.97892 0.410245 0
M  V30 5511 C 504.123 -1.65567 -1.03017 0
M  V30 5512 O 503.393 -0.94642 -1.71522 0
M  V30 5513 H 501.973 -0.732049 0.148707 0
M  V30 5514 H 504.635 -1.64043 1.05242 0
M  V30 5515 H 503.731 -3.07579 0.529284 0
M  V30 5516 N 504.032 -0.577932 -1.46621 0
M  V30 5517 C 505.257 -0.0652536 -2.07297 0
M  V30 5518 C 505.682 1.22828 -1.4246 0
M  V30 5519 O 505.04 1.74075 -0.506718 0
M  V30 5520 C 505.088 0.0920589 -3.60482 0
M  V30 5521 O 504.192 1.14972 -3.96049 0
M  V30 5522 H 503.533 -0.06065 -0.661224 0
M  V30 5523 H 506.063 -0.799515 -1.88332 0
M  V30 5524 H 506.073 0.299741 -4.06897 0
M  V30 5525 H 504.748 -0.852612 -4.07067 0
M  V30 5526 H 503.325 0.920879 -3.61351 0
M  V30 5527 N 505.51 1.54411 -0.315457 0
M  V30 5528 C 506.42 2.27737 0.56329 0
M  V30 5529 C 507.436 1.31787 1.13614 0
M  V30 5530 O 508.612 1.64791 1.15784 0
M  V30 5531 C 505.677 3.01478 1.71207 0
M  V30 5532 C 504.738 4.12997 1.17185 0
M  V30 5533 C 503.971 4.83212 2.26588 0
M  V30 5534 O 504.194 4.52884 3.46775 0
M  V30 5535 O 503.128 5.70299 1.92463 0
M  V30 5536 H 506.954 3.03683 -0.0319614 0
M  V30 5537 H 504.539 1.49178 -0.0814188 0
M  V30 5538 H 506.421 3.47683 2.38106 0
M  V30 5539 H 505.096 2.28414 2.29366 0
M  V30 5540 H 504.003 3.71159 0.468174 0
M  V30 5541 H 505.336 4.8808 0.635501 0
M  V30 5542 N 506.988 0.0434614 1.5754 0
M  V30 5543 C 508.218 -0.640905 1.96408 0
M  V30 5544 C 508.626 -1.65365 0.919297 0
M  V30 5545 O 507.969 -1.83395 -0.105795 0
M  V30 5546 C 508.031 -1.39141 3.31482 0
M  V30 5547 C 507.695 -0.535375 4.53853 0
M  V30 5548 C 508.692 0.195335 5.19533 0
M  V30 5549 C 506.377 -0.468564 5.0011 0
M  V30 5550 C 508.371 0.981377 6.298 0
M  V30 5551 C 506.058 0.321171 6.10255 0
M  V30 5552 C 507.056 1.04484 6.74961 0
M  V30 5553 O 506.744 1.8216 7.8299 0
M  V30 5554 H 506.476 -0.180584 0.651433 0
M  V30 5555 H 509.03 0.103848 2.05137 0
M  V30 5556 H 507.26 -2.18162 3.19284 0
M  V30 5557 H 508.949 -1.96526 3.55151 0
M  V30 5558 H 509.715 0.15314 4.84758 0
M  V30 5559 H 505.594 -1.02142 4.49542 0
M  V30 5560 H 509.138 1.54674 6.80237 0
M  V30 5561 H 505.035 0.365032 6.44467 0
M  V30 5562 H 505.803 1.74289 7.99728 0
M  V30 5563 N 508.466 -1.55915 -0.229846 0
M  V30 5564 C 509.398 -1.88209 -1.30805 0
M  V30 5565 C 510.411 -0.769672 -1.43457 0
M  V30 5566 O 511.6 -1.04792 -1.44502 0
M  V30 5567 C 508.7 -2.06829 -2.68468 0
M  V30 5568 C 507.873 -3.37798 -2.77869 0
M  V30 5569 C 506.932 -3.45952 -3.96489 0
M  V30 5570 O 505.958 -4.19043 -3.85216 0
M  V30 5571 N 507.16 -2.76488 -5.10426 0
M  V30 5572 H 509.925 -2.81286 -1.03431 0
M  V30 5573 H 507.486 -1.5636 -0.41991 0
M  V30 5574 H 509.478 -2.09608 -3.46189 0
M  V30 5575 H 508.048 -1.20416 -2.88477 0
M  V30 5576 H 507.268 -3.4719 -1.86689 0
M  V30 5577 H 508.556 -4.24091 -2.81113 0
M  V30 5578 H 507.954 -2.16868 -5.2248 0
M  V30 5579 H 506.511 -2.84938 -5.8622 0
M  V30 5580 N 509.944 0.496216 -1.49584 0
M  V30 5581 C 511.169 1.27865 -1.63295 0
M  V30 5582 C 511.594 1.85592 -0.306156 0
M  V30 5583 O 510.952 1.66092 0.726851 0
M  V30 5584 C 511 2.38128 -2.7079 0
M  V30 5585 O 510.104 3.42108 -2.30296 0
M  V30 5586 H 509.445 0.377279 -0.546403 0
M  V30 5587 H 511.975 0.593497 -1.95803 0
M  V30 5588 H 511.985 2.8382 -2.93104 0
M  V30 5589 H 510.66 1.95479 -3.67098 0
M  V30 5590 H 509.237 3.02301 -2.18331 0
M  V30 5591 N 511.423 1.38739 0.74761 0
M  V30 5592 C 512.669 1.35475 1.50912 0
M  V30 5593 C 513.002 -0.0533093 1.94127 0
M  V30 5594 O 512.277 -1.01572 1.65871 0
M  V30 5595 C 512.56 2.31582 2.75757 0
M  V30 5596 C 512.413 3.81274 2.38642 0
M  V30 5597 C 513.732 2.25722 3.77806 0
M  V30 5598 H 510.851 0.493427 0.547447 0
M  V30 5599 H 513.493 1.69634 0.855823 0
M  V30 5600 H 511.643 2.02582 3.31501 0
M  V30 5601 H 513.315 4.20972 1.88626 0
M  V30 5602 H 511.558 3.98664 1.71025 0
M  V30 5603 H 512.229 4.4399 3.27989 0
M  V30 5604 H 514.705 2.51336 3.31616 0
M  V30 5605 H 513.581 2.95069 4.62845 0
M  V30 5606 H 513.842 1.25803 4.23823 0
M  V30 5607 N 512.901 -0.976442 1.23707 0
M  V30 5608 C 513.848 -2.06952 1.02174 0
M  V30 5609 C 514.818 -1.65984 -0.0621034 0
M  V30 5610 O 516.003 -1.90584 0.0907906 0
M  V30 5611 C 513.143 -3.39425 0.62327 0
M  V30 5612 C 512.256 -3.9364 1.77966 0
M  V30 5613 C 511.391 -5.14343 1.3276 0
M  V30 5614 C 510.43 -5.60733 2.45449 0
M  V30 5615 N 509.567 -6.72662 2.01172 0
M  V30 5616 H 514.407 -2.24704 1.95734 0
M  V30 5617 H 511.944 -1.10143 0.975034 0
M  V30 5618 H 513.902 -4.15526 0.37332 0
M  V30 5619 H 512.532 -3.21624 -0.275329 0
M  V30 5620 H 511.584 -3.14258 2.14351 0
M  V30 5621 H 512.896 -4.24035 2.62671 0
M  V30 5622 H 512.05 -5.97789 1.03601 0
M  V30 5623 H 510.789 -4.8561 0.450975 0
M  V30 5624 H 509.794 -4.75865 2.75378 0
M  V30 5625 H 511.019 -5.91483 3.33654 0
M  V30 5626 H 508.965 -6.45681 1.15895 0
M  V30 5627 H 508.882 -7.02462 2.79434 0
M  V30 5628 H 510.15 -7.59572 1.75129 0
M  V30 5629 N 514.379 -1.04941 -1.1758 0
M  V30 5630 C 515.309 -0.669172 -2.23706 0
M  V30 5631 C 516.29 0.331835 -1.66832 0
M  V30 5632 O 517.475 0.209988 -1.93061 0
M  V30 5633 C 514.605 -0.0404889 -3.47276 0
M  V30 5634 C 513.559 -0.965983 -4.16957 0
M  V30 5635 C 512.885 -0.201312 -5.34321 0
M  V30 5636 C 514.185 -2.28902 -4.69469 0
M  V30 5637 H 515.879 -1.55639 -2.55767 0
M  V30 5638 H 513.425 -0.749793 -1.22939 0
M  V30 5639 H 515.378 0.237298 -4.20731 0
M  V30 5640 H 514.102 0.881658 -3.14475 0
M  V30 5641 H 512.761 -1.22829 -3.45411 0
M  V30 5642 H 512.409 0.723519 -4.97769 0
M  V30 5643 H 512.109 -0.817968 -5.81879 0
M  V30 5644 H 513.633 0.0692499 -6.10561 0
M  V30 5645 H 515.047 -2.07132 -5.34574 0
M  V30 5646 H 513.444 -2.85942 -5.27596 0
M  V30 5647 H 514.514 -2.92937 -3.86414 0
M  V30 5648 N 515.857 1.33968 -0.830081 0
M  V30 5649 C 517.103 1.98357 -0.422191 0
M  V30 5650 C 517.436 1.65633 1.01387 0
M  V30 5651 O 516.711 0.931648 1.70735 0
M  V30 5652 C 516.994 3.54492 -0.633043 0
M  V30 5653 C 516.847 3.96934 -2.11574 0
M  V30 5654 C 518.166 4.40039 -0.0735584 0
M  V30 5655 H 515.285 0.720544 -0.154871 0
M  V30 5656 H 517.927 1.58749 -1.04397 0
M  V30 5657 H 516.077 3.88361 -0.103775 0
M  V30 5658 H 517.749 3.73363 -2.7092 0
M  V30 5659 H 515.992 3.46984 -2.60354 0
M  V30 5660 H 516.663 5.05651 -2.21406 0
M  V30 5661 H 519.139 4.12764 -0.52585 0
M  V30 5662 H 518.015 5.48327 -0.250841 0
M  V30 5663 H 518.276 4.30124 1.02202 0
M  V30 5664 N 517.335 0.585699 1.46312 0
M  V30 5665 C 518.583 0.072278 2.01971 0
M  V30 5666 C 518.904 -1.29345 1.45928 0
M  V30 5667 O 518.174 -1.84973 0.645109 0
M  V30 5668 H 516.754 0.023729 0.746623 0
M  V30 5669 H 519.416 0.762155 1.7938 0
M  V30 5670 H 518.512 0.00552767 3.121 0
M  V30 5671 N 518.813 -1.54241 0.323641 0
M  V30 5672 C 520.224 -1.85975 -0.164405 0
M  V30 5673 C 520.575 -1.24529 -1.51615 0
M  V30 5674 O 519.7 -0.551351 -2.09258 0
M  V30 5675 C 520.295 -3.37424 -0.305091 0
M  V30 5676 C 518.854 -3.69107 -0.737358 0
M  V30 5677 C 518.001 -2.76942 0.140884 0
M  V30 5678 H 520.952 -1.49088 0.543922 0
M  V30 5679 H 520.973 -3.63147 -1.13598 0
M  V30 5680 H 520.485 -3.82116 0.678876 0
M  V30 5681 H 518.586 -3.29947 -1.73107 0
M  V30 5682 H 518.699 -4.76035 -0.541053 0
M  V30 5683 H 517.063 -2.51795 -0.383572 0
M  V30 5684 H 517.846 -3.24461 1.12162 0
M  V30 5685 N 520.291 -0.0518155 -1.57515 0
M  V30 5686 C 521.201 0.937539 -2.15052 0
M  V30 5687 C 522.217 1.34121 -1.10849 0
M  V30 5688 O 523.393 1.418 -1.4302 0
M  V30 5689 C 520.458 2.19379 -2.68466 0
M  V30 5690 C 519.519 1.84841 -3.87469 0
M  V30 5691 C 518.752 3.04477 -4.38326 0
M  V30 5692 O 518.975 4.17868 -3.88256 0
M  V30 5693 O 517.909 2.85453 -5.29906 0
M  V30 5694 H 521.735 0.478201 -2.99912 0
M  V30 5695 H 519.32 0.17012 -1.48428 0
M  V30 5696 H 521.202 2.93084 -3.02787 0
M  V30 5697 H 519.877 2.64449 -1.86677 0
M  V30 5698 H 518.784 1.08449 -3.58036 0
M  V30 5699 H 520.117 1.44569 -4.7049 0
M  V30 5700 N 521.769 1.56035 0.221574 0
M  V30 5701 C 523.015 1.79312 0.947372 0
M  V30 5702 C 523.348 0.621453 1.83988 0
M  V30 5703 O 522.623 -0.379287 1.90766 0
M  V30 5704 C 522.906 3.1267 1.78633 0
M  V30 5705 C 522.759 4.40284 0.920312 0
M  V30 5706 C 524.078 3.4247 2.7641 0
M  V30 5707 H 521.197 0.652328 0.342982 0
M  V30 5708 H 523.839 1.88765 0.216244 0
M  V30 5709 H 521.989 3.04741 2.40967 0
M  V30 5710 H 523.661 4.60232 0.313718 0
M  V30 5711 H 521.904 4.33212 0.225734 0
M  V30 5712 H 522.575 5.30033 1.54171 0
M  V30 5713 H 525.051 3.50526 2.24211 0
M  V30 5714 H 523.927 4.3695 3.32213 0
M  V30 5715 H 524.188 2.64635 3.54148 0
M  V30 5716 N 523.247 -0.488276 1.49845 0
M  V30 5717 C 524.663 -0.820566 1.3689 0
M  V30 5718 C 524.863 -1.97248 0.411752 0
M  V30 5719 O 523.919 -2.52042 -0.151931 0
M  V30 5720 C 525.232 -1.1488 2.77891 0
M  V30 5721 C 526.78 -1.25626 2.86683 0
M  V30 5722 C 527.255 -1.61772 4.28479 0
M  V30 5723 N 528.746 -1.68797 4.31349 0
M  V30 5724 C 529.481 -1.98235 5.38043 0
M  V30 5725 N 528.977 -2.2581 6.54967 0
M  V30 5726 N 530.77 -1.99593 5.2547 0
M  V30 5727 H 522.921 0.271123 2.10662 0
M  V30 5728 H 525.184 0.058735 0.946179 0
M  V30 5729 H 524.89 -0.375614 3.49688 0
M  V30 5730 H 524.764 -2.08919 3.14058 0
M  V30 5731 H 527.151 -2.02014 2.15114 0
M  V30 5732 H 527.232 -0.296072 2.54081 0
M  V30 5733 H 526.876 -0.859295 5.00578 0
M  V30 5734 H 526.806 -2.58912 4.58554 0
M  V30 5735 H 529.297 -1.49595 3.4703 0
M  V30 5736 H 529.61 -2.47497 7.32096 0
M  V30 5737 H 527.955 -2.23239 6.58171 0
M  V30 5738 H 531.146 -1.77535 4.33127 0
M  V30 5739 H 531.319 -2.222 6.08713 0
M  V30 5740 N 524.725 -1.39134 -0.740242 0
M  V30 5741 C 525.658 -1.3182 -1.86276 0
M  V30 5742 C 526.636 -0.192794 -1.61453 0
M  V30 5743 O 527.82 -0.372365 -1.84786 0
M  V30 5744 C 524.947 -1.04564 -3.22155 0
M  V30 5745 C 523.993 -2.19224 -3.65846 0
M  V30 5746 S 524.826 -3.81466 -3.75824 0
M  V30 5747 C 525.982 -3.56425 -5.14502 0
M  V30 5748 H 526.215 -2.26822 -1.92195 0
M  V30 5749 H 523.748 -1.25127 -0.904576 0
M  V30 5750 H 525.706 -0.895228 -4.00619 0
M  V30 5751 H 524.367 -0.112578 -3.13898 0
M  V30 5752 H 523.56 -1.95732 -4.6444 0
M  V30 5753 H 523.162 -2.30441 -2.94572 0
M  V30 5754 H 525.454 -3.13366 -6.00673 0
M  V30 5755 H 526.397 -4.54462 -5.43019 0
M  V30 5756 H 526.805 -2.90641 -4.8393 0
M  V30 5757 N 526.204 0.969867 -1.24223 0
M  V30 5758 C 527.167 2.04564 -1.03373 0
M  V30 5759 C 528.167 1.60798 0.00819206 0
M  V30 5760 O 529.357 1.72641 -0.232567 0
M  V30 5761 C 526.489 3.36163 -0.566343 0
M  V30 5762 H 527.682 2.24494 -1.98853 0
M  V30 5763 H 525.235 1.1448 -1.06415 0
M  V30 5764 H 525.97 3.21925 0.391751 0
M  V30 5765 H 525.755 3.69273 -1.31834 0
M  V30 5766 H 527.245 4.1526 -0.441435 0
M  V30 5767 N 527.682 1.05563 1.17022 0
M  V30 5768 C 528.63 0.653887 2.2322 0
M  V30 5769 C 529.624 -0.326642 1.66221 0
M  V30 5770 O 530.83 -0.192301 1.7897 0
M  V30 5771 H 527.205 0.193297 0.726733 0
M  V30 5772 H 529.176 1.5596 2.54399 0
M  V30 5773 C 527.925 0.0485434 3.47666 0
M  V30 5774 H 527.248 0.79413 3.91834 0
M  V30 5775 H 528.688 -0.195133 4.23551 0
M  V30 5776 C 527.147 -1.20583 3.14581 0
M  V30 5777 O 527.677 -2.29475 3.29703 0
M  V30 5778 N 525.883 -1.10493 2.68774 0
M  V30 5779 H 525.43 -0.218795 2.56669 0
M  V30 5780 H 525.388 -1.94507 2.47011 0
M  V30 5781 N 529.16 -1.33526 0.837174 0
M  V30 5782 C 530.123 -2.27551 0.274421 0
M  V30 5783 C 531.123 -1.50886 -0.555881 0
M  V30 5784 O 532.313 -1.70227 -0.369918 0
M  V30 5785 C 529.445 -3.35332 -0.613605 0
M  V30 5786 H 530.638 -2.78837 1.10408 0
M  V30 5787 H 528.191 -1.439 0.610126 0
M  V30 5788 H 528.926 -2.89285 -1.46577 0
M  V30 5789 H 528.711 -3.92095 -0.0195341 0
M  V30 5790 H 530.201 -4.05433 -1.00068 0
M  V30 5791 N 530.638 -0.59345 -1.46 0
M  V30 5792 C 531.915 -0.0157933 -1.95594 0
M  V30 5793 C 532.295 1.44807 -1.53604 0
M  V30 5794 O 531.643 2.14342 -0.791824 0
M  V30 5795 C 531.853 -0.199081 -3.48432 0
M  V30 5796 C 533.201 -0.0724943 -4.24538 0
M  V30 5797 O 534.225 -0.128469 -3.55968 0
M  V30 5798 O 533.084 0.0542426 -5.46473 0
M  V30 5799 H 530.178 0.043749 -0.825842 0
M  V30 5800 H 532.724 -0.662522 -1.56233 0
M  V30 5801 H 531.496 -1.21631 -3.71916 0
M  V30 5802 H 531.119 0.483576 -3.94648 0
M  V30 5803 N 532.116 1.54067 -0.331816 0
M  V30 5804 C 533.079 2.23275 0.517768 0
M  V30 5805 C 534.079 1.22897 1.03697 0
M  V30 5806 O 535.269 1.47419 0.928084 0
M  V30 5807 C 532.401 2.94326 1.72004 0
M  V30 5808 H 533.594 2.99773 -0.0873507 0
M  V30 5809 H 531.147 1.56079 -0.0830042 0
M  V30 5810 H 531.882 2.21986 2.36417 0
M  V30 5811 H 531.667 3.67941 1.35507 0
M  V30 5812 H 533.157 3.47031 2.32291 0
M  V30 5813 N 533.594 0.0601682 1.57485 0
M  V30 5814 C 535.01 -0.296422 1.56823 0
M  V30 5815 C 535.21 -1.70831 1.0686 0
M  V30 5816 O 534.266 -2.4174 0.729245 0
M  V30 5817 C 535.579 -0.116681 3.00474 0
M  V30 5818 C 537.127 -0.187103 3.1244 0
M  V30 5819 C 537.602 -0.035783 4.57986 0
M  V30 5820 N 539.093 -0.0917676 4.63109 0
M  V30 5821 C 539.828 0.00107251 5.734 0
M  V30 5822 N 539.324 0.146773 6.92645 0
M  V30 5823 N 541.117 -0.0551577 5.62073 0
M  V30 5824 H 533.268 0.983055 1.88281 0
M  V30 5825 H 535.531 0.382386 0.867459 0
M  V30 5826 H 535.237 0.85712 3.41096 0
M  V30 5827 H 535.111 -0.873929 3.66936 0
M  V30 5828 H 537.498 -1.15138 2.71712 0
M  V30 5829 H 537.579 0.601052 2.48638 0
M  V30 5830 H 537.223 0.925212 4.99402 0
M  V30 5831 H 537.153 -0.843196 5.19806 0
M  V30 5832 H 539.644 -0.203261 3.77353 0
M  V30 5833 H 539.957 0.210076 7.72514 0
M  V30 5834 H 538.302 0.181979 6.94762 0
M  V30 5835 H 541.493 -0.167605 4.678 0
M  V30 5836 H 541.666 0.020652 6.47997 0
M  V30 5837 N 535.072 -1.5615 -0.213296 0
M  V30 5838 C 536.02 -1.93953 -1.28394 0
M  V30 5839 C 537.014 -0.822592 -1.48087 0
M  V30 5840 O 538.22 -1.00748 -1.49164 0
M  V30 5841 H 534.595 -0.61648 -0.430646 0
M  V30 5842 H 536.566 -2.83275 -0.937977 0
M  V30 5843 C 535.315 -2.27969 -2.62537 0
M  V30 5844 H 534.638 -3.13432 -2.48194 0
M  V30 5845 H 536.078 -2.58297 -3.36242 0
M  V30 5846 C 534.537 -1.10775 -3.18167 0
M  V30 5847 O 535.067 -0.373201 -3.99963 0
M  V30 5848 N 533.273 -0.889377 -2.76656 0
M  V30 5849 H 532.82 -1.48843 -2.10246 0
M  V30 5850 H 532.778 -0.107 -3.14218 0
M  V30 5851 N 536.55 0.480323 -1.50102 0
M  V30 5852 C 537.483 1.59789 -1.62919 0
M  V30 5853 C 538.461 1.55429 -0.477557 0
M  V30 5854 O 539.645 1.75186 -0.695851 0
M  V30 5855 C 536.772 2.98351 -1.60325 0
M  V30 5856 C 535.818 3.20899 -2.80938 0
M  V30 5857 S 536.651 3.01791 -4.4236 0
M  V30 5858 C 537.807 4.42712 -4.42444 0
M  V30 5859 H 538.04 1.48676 -2.57454 0
M  V30 5860 H 535.573 0.666996 -1.3925 0
M  V30 5861 H 537.531 3.7824 -1.59514 0
M  V30 5862 H 536.192 3.06862 -0.670419 0
M  V30 5863 H 535.385 4.22102 -2.75401 0
M  V30 5864 H 534.987 2.48768 -2.79268 0
M  V30 5865 H 537.279 5.3518 -4.15438 0
M  V30 5866 H 538.222 4.53294 -5.43995 0
M  V30 5867 H 538.63 4.24359 -3.72263 0
M  V30 5868 N 538.028 1.39524 0.732853 0
M  V30 5869 C 539.276 1.36594 1.48951 0
M  V30 5870 C 539.597 -0.0367507 1.94965 0
M  V30 5871 O 538.867 -0.988391 1.69138 0
M  V30 5872 H 537.447 0.502673 0.552566 0
M  V30 5873 H 540.109 1.74411 0.869869 0
M  V30 5874 H 539.205 2.03 2.3706 0
M  V30 5875 N 539.506 -0.963266 1.24736 0
M  V30 5876 C 540.469 -2.04013 1.04457 0
M  V30 5877 C 541.469 -1.608 0.000335555 0
M  V30 5878 O 542.659 -1.72515 0.241719 0
M  V30 5879 C 539.791 -3.35858 0.584162 0
M  V30 5880 H 540.984 -2.23436 2.00041 0
M  V30 5881 H 538.537 -1.13914 1.07021 0
M  V30 5882 H 539.272 -3.22128 -0.374673 0
M  V30 5883 H 539.057 -3.68568 1.3379 0
M  V30 5884 H 540.547 -4.1502 0.463451 0
M  V30 5885 N 540.985 -1.06182 -1.16461 0
M  V30 5886 C 542.262 -0.691364 -1.82974 0
M  V30 5887 C 542.642 0.827377 -1.9421 0
M  V30 5888 O 541.99 1.73723 -1.48434 0
M  V30 5889 C 542.2 -1.39199 -3.20038 0
M  V30 5890 C 543.548 -1.53647 -3.95825 0
M  V30 5891 O 544.572 -1.35181 -3.29552 0
M  V30 5892 O 543.431 -1.83932 -5.14618 0
M  V30 5893 H 540.525 -0.244605 -0.789998 0
M  V30 5894 H 543.071 -1.16203 -1.23673 0
M  V30 5895 H 541.843 -2.42766 -3.06888 0
M  V30 5896 H 541.466 -0.911335 -3.87015 0
M  V30 5897 N 542.463 1.3308 -0.844243 0
M  V30 5898 C 543.393 2.3161 -0.296493 0
M  V30 5899 C 544.374 1.59215 0.598707 0
M  V30 5900 O 545.559 1.87077 0.521134 0
M  V30 5901 C 542.689 3.43313 0.524762 0
M  V30 5902 C 541.643 4.27115 -0.275106 0
M  V30 5903 C 540.969 5.30483 0.670236 0
M  V30 5904 C 542.269 5.00443 -1.49514 0
M  V30 5905 H 543.963 2.77672 -1.11976 0
M  V30 5906 H 541.509 1.33496 -0.539899 0
M  V30 5907 H 543.462 4.11273 0.918298 0
M  V30 5908 H 542.186 2.95952 1.3813 0
M  V30 5909 H 540.845 3.60787 -0.650267 0
M  V30 5910 H 540.493 4.79379 1.52332 0
M  V30 5911 H 540.193 5.87435 0.139123 0
M  V30 5912 H 541.717 6.01308 1.06117 0
M  V30 5913 H 543.131 5.61141 -1.17447 0
M  V30 5914 H 541.528 5.67071 -1.96343 0
M  V30 5915 H 542.598 4.28906 -2.26202 0
M  V30 5916 N 543.941 0.601185 1.45683 0
M  V30 5917 C 545.181 0.0968037 2.04171 0
M  V30 5918 C 545.545 -1.2466 1.46027 0
M  V30 5919 O 546.746 -1.84132 1.95829 0
M  V30 5920 C 545.017 0.051384 3.57363 0
M  V30 5921 S 546.576 -0.392737 4.37039 0
M  V30 5922 H 543.394 0.0464504 0.709481 0
M  V30 5923 H 545.996 0.797846 1.78479 0
M  V30 5924 H 544.7 1.03274 3.97193 0
M  V30 5925 H 544.231 -0.671853 3.87621 0
M  V30 5926 H 546.246 -1.64364 4.68187 0
M  V30 5927 N 545.419 -1.53889 0.339982 0
M  V30 5928 C 546.835 -1.59595 -0.0120752 0
M  V30 5929 C 547.035 -1.35605 -1.49042 0
M  V30 5930 O 546.091 -1.14856 -2.24865 0
M  V30 5931 C 547.404 -2.9774 0.420898 0
M  V30 5932 C 548.952 -3.1077 0.37294 0
M  V30 5933 C 549.427 -4.51286 0.781327 0
M  V30 5934 N 550.918 -4.57325 0.735374 0
M  V30 5935 C 551.653 -5.64194 1.02336 0
M  V30 5936 N 551.149 -6.7893 1.37933 0
M  V30 5937 N 552.942 -5.54051 0.947838 0
M  V30 5938 H 545.093 -1.67738 1.30299 0
M  V30 5939 H 547.356 -0.785385 0.530918 0
M  V30 5940 H 547.062 -3.20349 1.45152 0
M  V30 5941 H 546.936 -3.76639 -0.205721 0
M  V30 5942 H 549.323 -2.87886 -0.648505 0
M  V30 5943 H 549.404 -2.33939 1.03472 0
M  V30 5944 H 549.048 -4.74905 1.80077 0
M  V30 5945 H 548.978 -5.26511 0.0970679 0
M  V30 5946 H 551.469 -3.74931 0.472773 0
M  V30 5947 H 551.782 -7.56392 1.58402 0
M  V30 5948 H 550.127 -6.80386 1.41774 0
M  V30 5949 H 553.318 -4.63293 0.669115 0
M  V30 5950 H 553.491 -6.37246 1.17563 0
M  V30 5951 N 546.897 -0.0685191 -1.57451 0
M  V30 5952 C 547.829 0.929372 -2.09512 0
M  V30 5953 C 548.842 1.26354 -1.02657 0
M  V30 5954 O 550.031 1.2213 -1.30179 0
M  V30 5955 C 547.131 2.24612 -2.53777 0
M  V30 5956 C 546.304 2.09128 -3.84167 0
M  V30 5957 C 545.363 3.24079 -4.14559 0
M  V30 5958 O 544.389 2.99215 -4.8421 0
M  V30 5959 N 545.591 4.49077 -3.67845 0
M  V30 5960 H 548.356 0.484901 -2.95751 0
M  V30 5961 H 545.917 0.11729 -1.61475 0
M  V30 5962 H 547.909 3.00412 -2.71172 0
M  V30 5963 H 546.479 2.60569 -1.72692 0
M  V30 5964 H 545.699 1.17815 -3.76182 0
M  V30 5965 H 546.987 1.9603 -4.69521 0
M  V30 5966 H 546.385 4.72165 -3.11571 0
M  V30 5967 H 544.942 5.21915 -3.90446 0
M  V30 5968 N 548.375 1.56261 0.205012 0
M  V30 5969 C 549.652 1.70856 0.952233 0
M  V30 5970 C 550.032 0.620501 2.01775 0
M  V30 5971 O 549.38 -0.370035 2.25484 0
M  V30 5972 C 549.59 3.12807 1.54767 0
M  V30 5973 C 550.938 3.72733 2.0336 0
M  V30 5974 O 551.962 3.15873 1.64629 0
M  V30 5975 O 550.821 4.72501 2.746 0
M  V30 5976 H 547.915 0.696496 0.445895 0
M  V30 5977 H 550.461 1.6857 0.195489 0
M  V30 5978 H 549.233 3.83465 0.779132 0
M  V30 5979 H 548.856 3.1928 2.36951 0
M  V30 5980 N 549.853 -0.472356 1.50355 0
M  V30 5981 C 551.269 -0.806001 1.37753 0
M  V30 5982 C 551.469 -1.968 0.432649 0
M  V30 5983 O 550.525 -2.52189 -0.12519 0
M  V30 5984 C 551.838 -1.11926 2.79093 0
M  V30 5985 C 553.386 -1.22579 2.87999 0
M  V30 5986 C 553.861 -1.57218 4.3017 0
M  V30 5987 N 555.352 -1.64212 4.33115 0
M  V30 5988 C 556.087 -1.92517 5.40116 0
M  V30 5989 N 555.583 -2.1885 6.57325 0
M  V30 5990 N 557.376 -1.94008 5.27558 0
M  V30 5991 H 549.527 0.293451 2.10363 0
M  V30 5992 H 551.79 0.0687672 0.945503 0
M  V30 5993 H 551.496 -0.338504 3.50067 0
M  V30 5994 H 551.37 -2.05577 3.16256 0
M  V30 5995 H 553.757 -1.99722 2.17245 0
M  V30 5996 H 553.838 -0.269107 2.54381 0
M  V30 5997 H 553.482 -0.806154 5.01461 0
M  V30 5998 H 553.412 -2.54034 4.61275 0
M  V30 5999 H 555.903 -1.45906 3.48597 0
M  V30 6000 H 556.216 -2.39718 7.3468 0
M  V30 6001 H 554.561 -2.16245 6.60502 0
M  V30 6002 H 557.752 -1.72931 4.34986 0
M  V30 6003 H 557.925 -2.15731 6.11035 0
M  V30 6004 N 551.331 -1.39911 -0.725443 0
M  V30 6005 C 552.556 -1.41137 -1.5197 0
M  V30 6006 C 552.981 -0.010262 -1.88097 0
M  V30 6007 O 552.339 0.979184 -1.52583 0
M  V30 6008 C 552.387 -2.2994 -2.77777 0
M  V30 6009 O 551.491 -1.73586 -3.74088 0
M  V30 6010 H 550.832 -0.480219 -0.458569 0
M  V30 6011 H 553.362 -1.84023 -0.894249 0
M  V30 6012 H 553.372 -2.44785 -3.26411 0
M  V30 6013 H 552.047 -3.31759 -2.50816 0
M  V30 6014 H 550.624 -1.68035 -3.32894 0
M  V30 6015 N 552.809 0.956637 -1.25245 0
M  V30 6016 C 554.049 1.71585 -1.11076 0
M  V30 6017 C 554.413 1.88916 0.34277 0
M  V30 6018 O 555.614 2.61875 0.606227 0
M  V30 6019 C 553.885 3.06267 -1.84215 0
M  V30 6020 S 555.444 3.97469 -1.85914 0
M  V30 6021 H 552.262 0.589803 -0.397055 0
M  V30 6022 H 554.864 1.14114 -1.58739 0
M  V30 6023 H 553.568 2.91322 -2.89067 0
M  V30 6024 H 553.099 3.688 -1.36931 0
M  V30 6025 H 555.114 4.87316 -0.93474 0
M  V30 6026 N 554.287 1.06798 1.15896 0
M  V30 6027 C 555.515 0.808694 1.90441 0
M  V30 6028 C 555.93 -0.637506 1.77711 0
M  V30 6029 O 555.287 -1.43684 1.12522 0
M  V30 6030 C 555.338 1.20068 3.40978 0
M  V30 6031 O 555.059 2.59013 3.53333 0
M  V30 6032 C 556.56 0.96987 4.3256 0
M  V30 6033 H 553.78 0.292809 0.603742 0
M  V30 6034 H 556.324 1.42296 1.46874 0
M  V30 6035 H 554.479 0.630842 3.82229 0
M  V30 6036 H 554.893 2.7485 4.46719 0
M  V30 6037 H 556.367 1.29371 5.36626 0
M  V30 6038 H 556.844 -0.0941209 4.39099 0
M  V30 6039 H 557.45 1.52433 3.97044 0
M  V30 6040 N 555.766 -1.3263 0.851289 0
M  V30 6041 C 556.996 -2.01271 0.466222 0
M  V30 6042 C 557.404 -1.64156 -0.940714 0
M  V30 6043 O 556.747 -0.857109 -1.62479 0
M  V30 6044 C 556.809 -3.55695 0.521672 0
M  V30 6045 C 556.473 -4.16227 1.88691 0
M  V30 6046 C 557.47 -4.34699 2.85189 0
M  V30 6047 C 555.155 -4.52377 2.18313 0
M  V30 6048 C 557.149 -4.88484 4.09465 0
M  V30 6049 C 554.836 -5.05868 3.42843 0
M  V30 6050 C 555.834 -5.23869 4.38235 0
M  V30 6051 O 555.522 -5.76218 5.6056 0
M  V30 6052 H 555.254 -0.651034 0.18202 0
M  V30 6053 H 557.808 -1.7026 1.14894 0
M  V30 6054 H 556.038 -3.86086 -0.217888 0
M  V30 6055 H 557.727 -4.05613 0.152682 0
M  V30 6056 H 558.493 -4.07107 2.63607 0
M  V30 6057 H 554.372 -4.37652 1.44851 0
M  V30 6058 H 557.916 -5.02451 4.83931 0
M  V30 6059 H 553.813 -5.32891 3.64277 0
M  V30 6060 H 554.581 -5.94616 5.62471 0
M  V30 6061 N 557.244 -0.608902 -1.45362 0
M  V30 6062 C 558.474 -0.110852 -2.06302 0
M  V30 6063 C 558.882 1.21062 -1.45398 0
M  V30 6064 O 558.225 1.74861 -0.562976 0
M  V30 6065 C 558.287 0.101793 -3.59356 0
M  V30 6066 C 557.951 -1.13808 -4.42602 0
M  V30 6067 C 558.948 -2.05653 -4.77496 0
M  V30 6068 C 556.633 -1.36727 -4.83333 0
M  V30 6069 C 558.627 -3.18745 -5.51978 0
M  V30 6070 C 556.314 -2.5012 -5.57569 0
M  V30 6071 C 557.312 -3.40957 -5.91809 0
M  V30 6072 O 557 -4.52376 -6.64538 0
M  V30 6073 H 556.732 -0.0666001 -0.672711 0
M  V30 6074 H 559.286 -0.836942 -1.87575 0
M  V30 6075 H 557.516 0.88279 -3.76489 0
M  V30 6076 H 559.205 0.551607 -4.02134 0
M  V30 6077 H 559.971 -1.89172 -4.46586 0
M  V30 6078 H 555.85 -0.669216 -4.56117 0
M  V30 6079 H 559.394 -3.8967 -5.78622 0
M  V30 6080 H 555.291 -2.66553 -5.87894 0
M  V30 6081 H 556.059 -4.51075 -6.82989 0
M  V30 6082 N 558.722 1.53707 -0.348139 0
M  V30 6083 C 559.969 2.00988 0.246966 0
M  V30 6084 C 560.297 1.23586 1.50189 0
M  V30 6085 O 559.552 0.312817 1.93184 0
M  V30 6086 C 559.851 3.52292 0.602061 0
M  V30 6087 C 559.517 4.47453 -0.556509 0
M  V30 6088 C 558.179 4.73188 -0.874446 0
M  V30 6089 C 560.531 5.03851 -1.33354 0
M  V30 6090 C 557.859 5.52577 -1.9717 0
M  V30 6091 C 560.211 5.84437 -2.42108 0
M  V30 6092 C 558.875 6.08465 -2.74456 0
M  V30 6093 H 558.145 0.735469 0.0903712 0
M  V30 6094 H 560.792 1.85464 -0.477001 0
M  V30 6095 H 559.097 3.65672 1.40681 0
M  V30 6096 H 560.794 3.86337 1.07447 0
M  V30 6097 H 557.384 4.27558 -0.298652 0
M  V30 6098 H 561.568 4.8393 -1.10117 0
M  V30 6099 H 556.824 5.69418 -2.22651 0
M  V30 6100 H 560.998 6.27151 -3.02745 0
M  V30 6101 H 558.625 6.69768 -3.59604 0
M  V30 6102 N 560.2 0.0768682 1.57412 0
M  V30 6103 C 561.425 -0.603404 1.98428 0
M  V30 6104 C 561.85 -1.62047 0.955108 0
M  V30 6105 O 561.208 -1.81129 -0.0786778 0
M  V30 6106 C 561.256 -1.24396 3.38464 0
M  V30 6107 O 560.36 -2.35982 3.3821 0
M  V30 6108 H 559.701 -0.154741 0.645718 0
M  V30 6109 H 562.231 0.152885 2.04028 0
M  V30 6110 H 562.241 -1.5896 3.7576 0
M  V30 6111 H 560.916 -0.498735 4.12899 0
M  V30 6112 H 559.493 -2.03173 3.1269 0
M  V30 6113 N 561.678 -1.56367 -0.196722 0
M  V30 6114 C 562.924 -1.80796 -0.918725 0
M  V30 6115 C 563.257 -0.650645 -1.82976 0
M  V30 6116 O 562.532 0.348889 -1.91345 0
M  V30 6117 C 562.815 -3.15472 -1.73636 0
M  V30 6118 C 562.668 -4.41693 -0.85015 0
M  V30 6119 C 563.987 -3.46824 -2.70927 0
M  V30 6120 H 561.106 -0.657702 -0.332561 0
M  V30 6121 H 563.748 -1.89086 -0.186186 0
M  V30 6122 H 561.898 -3.08536 -2.36088 0
M  V30 6123 H 563.57 -4.60673 -0.240459 0
M  V30 6124 H 561.813 -4.33517 -0.156785 0
M  V30 6125 H 562.484 -5.32419 -1.45719 0
M  V30 6126 H 564.96 -3.54049 -2.18607 0
M  V30 6127 H 563.836 -4.4218 -3.25219 0
M  V30 6128 H 564.097 -2.70236 -3.49893 0
M  V30 6129 N 563.156 0.464375 -1.50603 0
M  V30 6130 C 564.433 1.22549 -1.5245 0
M  V30 6131 C 564.813 2.09327 -0.273035 0
M  V30 6132 O 564.161 2.16074 0.743242 0
M  V30 6133 C 564.371 2.05074 -2.82393 0
M  V30 6134 C 565.719 2.63036 -3.33313 0
M  V30 6135 O 566.743 2.1531 -2.8376 0
M  V30 6136 O 565.602 3.5001 -4.19709 0
M  V30 6137 H 562.696 0.556471 -0.611775 0
M  V30 6138 H 565.242 0.475648 -1.62898 0
M  V30 6139 H 564.014 1.41169 -3.64948 0
M  V30 6140 H 563.637 2.87179 -2.7498 0
M  V30 6141 N 564.634 1.40294 0.718013 0
M  V30 6142 C 565.597 1.4012 1.81381 0
M  V30 6143 C 566.597 0.295405 1.58063 0
M  V30 6144 O 567.787 0.554187 1.6515 0
M  V30 6145 C 564.919 1.19056 3.19435 0
M  V30 6146 H 566.112 2.37645 1.82933 0
M  V30 6147 H 563.665 1.26107 0.923405 0
M  V30 6148 H 564.4 0.222809 3.23534 0
M  V30 6149 H 564.185 1.99152 3.37758 0
M  V30 6150 H 565.675 1.21716 3.99468 0
M  V30 6151 N 566.112 -0.949982 1.2575 0
M  V30 6152 C 567.389 -1.6718 1.01539 0
M  V30 6153 C 567.769 -2.06095 -0.456942 0
M  V30 6154 O 567.117 -1.77792 -1.43534 0
M  V30 6155 C 567.327 -2.8906 1.95564 0
M  V30 6156 C 568.675 -3.60909 2.23673 0
M  V30 6157 O 569.699 -2.9915 1.9336 0
M  V30 6158 O 568.558 -4.72127 2.75243 0
M  V30 6159 H 565.652 -0.731697 0.385419 0
M  V30 6160 H 568.198 -1.00249 1.36924 0
M  V30 6161 H 566.97 -2.57128 2.94959 0
M  V30 6162 H 566.593 -3.63719 1.60605 0
M  V30 6163 N 567.59 -1.07411 -1.15328 0
M  V30 6164 C 568.836 -0.798831 -1.86404 0
M  V30 6165 C 569.169 0.673433 -1.8215 0
M  V30 6166 O 568.444 1.49428 -1.24505 0
M  V30 6167 C 568.727 -1.30846 -3.35487 0
M  V30 6168 C 568.58 -2.84532 -3.4837 0
M  V30 6169 C 569.899 -0.925486 -4.30259 0
M  V30 6170 H 567.018 -0.291659 -0.676834 0
M  V30 6171 H 569.66 -1.332 -1.35491 0
M  V30 6172 H 567.81 -0.854916 -3.78977 0
M  V30 6173 H 569.482 -3.3818 -3.13739 0
M  V30 6174 H 567.725 -3.22699 -2.8991 0
M  V30 6175 H 568.396 -3.15259 -4.53118 0
M  V30 6176 H 570.872 -1.3163 -3.94731 0
M  V30 6177 H 569.748 -1.3094 -5.33053 0
M  V30 6178 H 570.009 0.168525 -4.41779 0
M  V30 6179 N 569.068 1.32177 -0.85831 0
M  V30 6180 C 570.031 2.27086 -0.310588 0
M  V30 6181 C 571.031 1.51751 0.531806 0
M  V30 6182 O 572.221 1.70794 0.34279 0
M  V30 6183 C 569.353 3.36266 0.560179 0
M  V30 6184 H 570.546 2.77045 -1.1483 0
M  V30 6185 H 568.099 1.42911 -0.632942 0
M  V30 6186 H 568.834 2.9158 1.41956 0
M  V30 6187 H 568.619 3.92077 -0.0428473 0
M  V30 6188 H 570.109 4.06974 0.936056 0
M  V30 6189 N 570.547 0.616602 1.45037 0
M  V30 6190 C 571.477 -0.0840787 2.33349 0
M  V30 6191 C 572.458 -0.849641 1.4736 0
M  V30 6192 O 573.643 -0.818407 1.76113 0
M  V30 6193 C 570.773 -1.07604 3.3021 0
M  V30 6194 C 569.727 -0.423096 4.25904 0
M  V30 6195 C 569.053 -1.52394 5.12523 0
M  V30 6196 C 570.353 0.661457 5.18095 0
M  V30 6197 H 572.047 0.653333 2.92185 0
M  V30 6198 H 569.593 0.315634 1.40498 0
M  V30 6199 H 571.546 -1.57485 3.90866 0
M  V30 6200 H 570.27 -1.84416 2.69552 0
M  V30 6201 H 568.929 0.05493 3.66559 0
M  V30 6202 H 568.577 -2.28257 4.48227 0
M  V30 6203 H 568.277 -1.09251 5.77354 0
M  V30 6204 H 569.801 -2.02485 5.76049 0
M  V30 6205 H 571.215 0.246353 5.7277 0
M  V30 6206 H 569.612 1.01517 5.91451 0
M  V30 6207 H 570.682 1.53446 4.59981 0
M  V30 6208 N 572.025 -1.5352 0.356285 0
M  V30 6209 C 573.253 -2.05534 -0.237328 0
M  V30 6210 C 573.668 -1.23043 -1.43199 0
M  V30 6211 O 573.025 -0.268821 -1.80509 0
M  V30 6212 C 573.076 -3.55791 -0.639933 0
M  V30 6213 O 572.797 -4.35154 0.507233 0
M  V30 6214 C 574.298 -4.24027 -1.29292 0
M  V30 6215 H 571.518 -0.669585 -0.0435572 0
M  V30 6216 H 574.062 -1.97988 0.511963 0
M  V30 6217 H 572.217 -3.63518 -1.33915 0
M  V30 6218 H 572.631 -5.24178 0.18375 0
M  V30 6219 H 574.105 -5.30509 -1.52527 0
M  V30 6220 H 574.582 -3.77166 -2.25039 0
M  V30 6221 H 575.188 -4.20527 -0.63539 0
M  V30 6222 N 573.503 -0.0852151 -1.57369 0
M  V30 6223 C 574.413 0.891712 -2.16992 0
M  V30 6224 C 575.429 1.3174 -1.13669 0
M  V30 6225 O 576.605 1.38735 -1.45995 0
M  V30 6226 C 573.67 2.13635 -2.73059 0
M  V30 6227 C 572.731 1.7658 -3.91303 0
M  V30 6228 C 571.964 2.95111 -4.44686 0
M  V30 6229 O 572.187 4.09539 -3.97032 0
M  V30 6230 O 571.121 2.74149 -5.35841 0
M  V30 6231 H 574.947 0.414477 -3.00858 0
M  V30 6232 H 572.532 0.138598 -1.48756 0
M  V30 6233 H 574.414 2.86595 -3.08935 0
M  V30 6234 H 573.089 2.6043 -1.92244 0
M  V30 6235 H 571.996 1.00831 -3.60255 0
M  V30 6236 H 573.329 1.34557 -4.7345 0
M  V30 6237 N 574.981 1.5647 0.188427 0
M  V30 6238 C 576.392 1.70864 0.752494 0
M  V30 6239 C 576.743 0.692905 1.83557 0
M  V30 6240 O 575.868 -0.149307 2.15884 0
M  V30 6241 C 576.463 3.09789 1.37173 0
M  V30 6242 C 575.022 3.25925 1.88281 0
M  V30 6243 C 574.169 2.66817 0.755259 0
M  V30 6244 H 577.12 1.58657 -0.0367408 0
M  V30 6245 H 577.141 3.07489 2.24122 0
M  V30 6246 H 576.653 3.83693 0.583219 0
M  V30 6247 H 574.754 2.56948 2.6983 0
M  V30 6248 H 574.867 4.33498 2.04001 0
M  V30 6249 H 573.231 2.2617 1.17128 0
M  V30 6250 H 574.014 3.43294 -0.0211237 0
M  V30 6251 N 576.459 -0.456382 1.50847 0
M  V30 6252 C 577.407 -1.57318 1.71329 0
M  V30 6253 C 578.401 -1.59187 0.579287 0
M  V30 6254 O 579.607 -1.6316 0.76018 0
M  V30 6255 H 575.982 -0.5223 0.541024 0
M  V30 6256 H 577.953 -1.3721 2.64983 0
M  V30 6257 C 576.702 -2.95142 1.83811 0
M  V30 6258 H 576.025 -2.94428 2.70467 0
M  V30 6259 H 577.465 -3.72702 2.02161 0
M  V30 6260 C 575.924 -3.31636 0.593224 0
M  V30 6261 O 576.454 -4.00852 -0.260898 0
M  V30 6262 N 574.66 -2.87205 0.442902 0
M  V30 6263 H 574.207 -2.31051 1.13901 0
M  V30 6264 H 574.165 -3.11986 -0.38884 0
M  V30 6265 N 577.937 -1.40673 -0.710563 0
M  V30 6266 C 579.162 -1.42741 -1.50465 0
M  V30 6267 C 579.587 -0.0302116 -1.88076 0
M  V30 6268 O 578.945 0.962945 -1.53613 0
M  V30 6269 C 578.993 -2.32873 -2.75322 0
M  V30 6270 O 578.097 -1.77544 -3.72226 0
M  V30 6271 H 577.438 -0.485056 -0.45345 0
M  V30 6272 H 579.968 -1.84961 -0.874681 0
M  V30 6273 H 579.978 -2.48233 -3.23797 0
M  V30 6274 H 578.653 -3.34401 -2.47283 0
M  V30 6275 H 577.23 -1.71556 -3.31093 0
M  V30 6276 N 579.415 0.9433 -1.26252 0
M  V30 6277 C 580.345 2.05902 -1.10122 0
M  V30 6278 C 581.326 1.70099 -0.00700552 0
M  V30 6279 O 582.511 1.93377 -0.178641 0
M  V30 6280 C 579.641 3.39516 -0.731175 0
M  V30 6281 C 578.595 3.89372 -1.77688 0
M  V30 6282 C 577.921 5.19613 -1.26122 0
M  V30 6283 C 579.221 4.14489 -3.17799 0
M  V30 6284 H 580.915 2.19655 -2.03451 0
M  V30 6285 H 578.461 1.05548 -0.979576 0
M  V30 6286 H 580.414 4.17031 -0.605215 0
M  V30 6287 H 579.138 3.25733 0.23782 0
M  V30 6288 H 577.797 3.14036 -1.89148 0
M  V30 6289 H 577.445 5.02208 -0.282128 0
M  V30 6290 H 577.145 5.53939 -1.96023 0
M  V30 6291 H 578.669 5.99713 -1.14789 0
M  V30 6292 H 580.083 4.82625 -3.09428 0
M  V30 6293 H 578.48 4.60094 -3.85271 0
M  V30 6294 H 579.55 3.20347 -3.64014 0
M  V30 6295 N 580.893 1.08022 1.14757 0
M  V30 6296 C 582.309 0.807072 1.3769 0
M  V30 6297 C 582.509 -0.585504 1.92806 0
M  V30 6298 O 581.565 -1.34301 2.13821 0
M  V30 6299 C 582.878 1.88651 2.34161 0
M  V30 6300 C 584.426 1.91206 2.47809 0
M  V30 6301 C 584.901 2.98253 3.47576 0
M  V30 6302 N 586.392 2.974 3.55117 0
M  V30 6303 C 587.127 3.76872 4.32152 0
M  V30 6304 N 586.623 4.66212 5.12463 0
M  V30 6305 N 588.416 3.6519 4.27309 0
M  V30 6306 H 580.567 1.97824 0.77326 0
M  V30 6307 H 582.83 0.85826 0.402608 0
M  V30 6308 H 582.536 2.88749 2.00791 0
M  V30 6309 H 582.41 1.75244 3.3402 0
M  V30 6310 H 584.797 0.917564 2.80472 0
M  V30 6311 H 584.878 2.08691 1.47925 0
M  V30 6312 H 584.522 3.97907 3.15646 0
M  V30 6313 H 584.452 2.78014 4.47231 0
M  V30 6314 H 586.943 2.32643 2.97801 0
M  V30 6315 H 587.256 5.23468 5.68508 0
M  V30 6316 H 585.601 4.70257 5.11745 0
M  V30 6317 H 588.792 2.94765 3.63636 0
M  V30 6318 H 588.965 4.27366 4.87095 0
M  V30 6319 N 582.371 -1.3172 0.865308 0
M  V30 6320 C 583.301 -2.31109 0.333302 0
M  V30 6321 C 584.282 -1.60148 -0.573301 0
M  V30 6322 O 585.467 -1.87882 -0.491305 0
M  V30 6323 C 582.597 -3.44104 -0.470078 0
M  V30 6324 C 581.551 -4.26623 0.343021 0
M  V30 6325 C 580.877 -5.31482 -0.585756 0
M  V30 6326 C 582.177 -4.98001 1.57456 0
M  V30 6327 H 583.871 -2.75855 1.1638 0
M  V30 6328 H 581.417 -1.3262 0.561069 0
M  V30 6329 H 583.37 -4.12682 -0.852752 0
M  V30 6330 H 582.094 -2.98112 -1.33404 0
M  V30 6331 H 580.753 -3.59707 0.707583 0
M  V30 6332 H 580.401 -4.81741 -1.44686 0
M  V30 6333 H 580.101 -5.87582 -0.0456494 0
M  V30 6334 H 581.625 -6.0292 -0.965375 0
M  V30 6335 H 583.039 -5.59201 1.26359 0
M  V30 6336 H 581.436 -5.63876 2.05339 0
M  V30 6337 H 582.506 -4.25253 2.32997 0
M  V30 6338 N 583.85 -0.624285 -1.44708 0
M  V30 6339 C 584.779 0.0717025 -2.3339 0
M  V30 6340 C 585.76 0.841814 -1.47809 0
M  V30 6341 O 586.946 0.809056 -1.76544 0
M  V30 6342 C 584.076 1.05852 -3.30776 0
M  V30 6343 C 583.029 0.400503 -4.26122 0
M  V30 6344 C 582.356 1.49674 -5.13324 0
M  V30 6345 C 583.656 -0.688924 -5.17737 0
M  V30 6346 H 585.35 -0.668819 -2.91834 0
M  V30 6347 H 582.896 -0.32308 -1.40329 0
M  V30 6348 H 584.849 1.5541 -3.91696 0
M  V30 6349 H 583.572 1.82984 -2.70526 0
M  V30 6350 H 582.231 -0.0743687 -3.66525 0
M  V30 6351 H 581.88 2.25877 -4.49431 0
M  V30 6352 H 581.58 1.06188 -5.77926 0
M  V30 6353 H 583.104 1.99427 -5.77115 0
M  V30 6354 H 584.518 -0.276724 -5.72632 0
M  V30 6355 H 582.915 -1.04652 -5.90904 0
M  V30 6356 H 583.985 -1.55884 -4.5916 0
M  V30 6357 N 585.328 1.53329 -0.364422 0
M  V30 6358 C 586.577 2.00421 0.226747 0
M  V30 6359 C 586.89 1.25581 1.49963 0
M  V30 6360 O 588.096 1.63256 2.16933 0
M  V30 6361 C 586.552 3.57017 0.454618 0
M  V30 6362 C 586.16 4.40734 -0.803568 0
M  V30 6363 C 587.904 4.12468 1.00351 0
M  V30 6364 C 585.811 5.8888 -0.545345 0
M  V30 6365 H 584.741 0.748787 0.0885082 0
M  V30 6366 H 587.392 1.7703 -0.482983 0
M  V30 6367 H 585.774 3.76558 1.22558 0
M  V30 6368 H 586.948 4.32967 -1.57723 0
M  V30 6369 H 585.263 3.96381 -1.27559 0
M  V30 6370 H 587.86 5.20783 1.212 0
M  V30 6371 H 588.203 3.6699 1.9653 0
M  V30 6372 H 588.736 3.96721 0.29274 0
M  V30 6373 H 585.475 6.38633 -1.47743 0
M  V30 6374 H 584.995 5.99499 0.189842 0
M  V30 6375 H 586.674 6.46776 -0.170425 0
M  V30 6376 N 586.806 0.0935595 1.57322 0
M  V30 6377 C 587.738 -0.895923 2.10964 0
M  V30 6378 C 588.751 -1.24705 1.04654 0
M  V30 6379 O 589.94 -1.20044 1.32105 0
M  V30 6380 C 587.04 -2.20546 2.57318 0
M  V30 6381 C 586.213 -2.0299 3.87445 0
M  V30 6382 C 585.272 -3.17443 4.19662 0
M  V30 6383 O 584.298 -2.91474 4.88909 0
M  V30 6384 N 585.5 -4.43168 3.74943 0
M  V30 6385 H 588.265 -0.437788 2.96485 0
M  V30 6386 H 585.826 -0.0915863 1.61641 0
M  V30 6387 H 587.818 -2.9606 2.75917 0
M  V30 6388 H 586.388 -2.57789 1.76816 0
M  V30 6389 H 585.608 -1.11815 3.78009 0
M  V30 6390 H 586.896 -1.88535 4.7258 0
M  V30 6391 H 586.294 -4.67149 3.19043 0
M  V30 6392 H 584.851 -5.15637 3.987 0
M  V30 6393 N 588.284 -1.56567 -0.180126 0
M  V30 6394 C 589.216 -1.92275 -1.24751 0
M  V30 6395 C 590.229 -0.814922 -1.40936 0
M  V30 6396 O 591.418 -1.09336 -1.41095 0
M  V30 6397 C 588.518 -2.15265 -2.61752 0
M  V30 6398 C 587.691 -3.46467 -2.66981 0
M  V30 6399 C 586.75 -3.58391 -3.85283 0
M  V30 6400 O 585.776 -4.31086 -3.7169 0
M  V30 6401 N 586.978 -2.92587 -5.01371 0
M  V30 6402 H 589.743 -2.84435 -0.944302 0
M  V30 6403 H 587.304 -1.57617 -0.369952 0
M  V30 6404 H 589.296 -2.20515 -3.39345 0
M  V30 6405 H 587.866 -1.29533 -2.845 0
M  V30 6406 H 587.086 -3.52953 -1.75549 0
M  V30 6407 H 588.374 -4.32819 -2.67479 0
M  V30 6408 H 587.772 -2.3338 -5.15316 0
M  V30 6409 H 586.329 -3.03444 -5.76858 0
M  V30 6410 N 589.762 0.448376 -1.51087 0
M  V30 6411 C 590.71 1.56407 -1.72161 0
M  V30 6412 C 591.704 1.58878 -0.587721 0
M  V30 6413 O 592.91 1.62755 -0.768822 0
M  V30 6414 H 589.285 0.519423 -0.543786 0
M  V30 6415 H 591.256 1.35803 -2.65707 0
M  V30 6416 C 590.005 2.94163 -1.85373 0
M  V30 6417 H 589.328 2.9299 -2.72024 0
M  V30 6418 H 590.768 3.71625 -2.04135 0
M  V30 6419 C 589.227 3.31317 -0.610803 0
M  V30 6420 O 589.757 4.00985 0.239636 0
M  V30 6421 N 587.963 2.86966 -0.458127 0
M  V30 6422 H 587.51 2.30443 -1.15124 0
M  V30 6423 H 587.468 3.12188 0.372289 0
M  V30 6424 N 591.24 1.41047 0.703093 0
M  V30 6425 C 592.187 1.42302 1.81711 0
M  V30 6426 C 593.157 0.278336 1.63751 0
M  V30 6427 O 594.342 0.478266 1.84709 0
M  V30 6428 C 591.482 1.30362 3.19531 0
M  V30 6429 C 590.595 2.54638 3.48975 0
M  V30 6430 C 589.73 2.35047 4.76368 0
M  V30 6431 C 588.769 3.54837 4.98756 0
M  V30 6432 N 587.906 3.34363 6.1737 0
M  V30 6433 H 592.746 2.37516 1.79973 0
M  V30 6434 H 590.283 1.1795 0.878983 0
M  V30 6435 H 592.241 1.21443 3.99134 0
M  V30 6436 H 590.871 0.387602 3.20464 0
M  V30 6437 H 589.923 2.74037 2.63833 0
M  V30 6438 H 591.235 3.43766 3.61423 0
M  V30 6439 H 590.389 2.23552 5.64012 0
M  V30 6440 H 589.128 1.43363 4.66153 0
M  V30 6441 H 588.133 3.66795 4.09563 0
M  V30 6442 H 589.358 4.47464 5.10835 0
M  V30 6443 H 587.304 2.45373 6.08382 0
M  V30 6444 H 587.221 4.17063 6.30551 0
M  V30 6445 H 588.489 3.26626 7.07768 0
M  V30 6446 N 592.718 -0.936591 1.26751 0
M  V30 6447 C 593.666 -2.0573 1.08527 0
M  V30 6448 C 594.66 -1.69397 0.0108784 0
M  V30 6449 O 595.866 -1.79215 0.167915 0
M  V30 6450 H 592.241 -0.673691 0.334133 0
M  V30 6451 H 594.212 -2.1825 2.03493 0
M  V30 6452 C 592.961 -3.39738 0.739845 0
M  V30 6453 H 592.284 -3.68174 1.55845 0
M  V30 6454 H 593.724 -4.18955 0.652149 0
M  V30 6455 C 592.183 -3.32292 -0.555288 0
M  V30 6456 O 592.713 -3.68794 -1.59229 0
M  V30 6457 N 590.919 -2.85394 -0.54762 0
M  V30 6458 H 590.466 -2.55886 0.296667 0
M  V30 6459 H 590.424 -2.80795 -1.41427 0
M  V30 6460 N 594.196 -1.08629 -1.14182 0
M  V30 6461 C 595.442 -0.818556 -1.85546 0
M  V30 6462 C 595.775 0.654076 -1.82854 0
M  V30 6463 O 595.05 1.48099 -1.26083 0
M  V30 6464 C 595.333 -1.34397 -3.3408 0
M  V30 6465 C 595.186 -2.8821 -3.45333 0
M  V30 6466 C 596.505 -0.971069 -4.29253 0
M  V30 6467 H 593.624 -0.298821 -0.673702 0
M  V30 6468 H 596.266 -1.34629 -1.34071 0
M  V30 6469 H 594.416 -0.895064 -3.78049 0
M  V30 6470 H 596.088 -3.41488 -3.10134 0
M  V30 6471 H 594.331 -3.25756 -2.86471 0
M  V30 6472 H 595.002 -3.20047 -4.49749 0
M  V30 6473 H 597.478 -1.35809 -3.93313 0
M  V30 6474 H 596.354 -1.36586 -5.31635 0
M  V30 6475 H 596.615 0.121659 -4.41933 0
M  V30 6476 N 595.674 1.31259 -0.872281 0
M  V30 6477 C 596.923 1.95893 -0.480493 0
M  V30 6478 C 597.236 1.697 0.972688 0
M  V30 6479 O 598.442 2.28214 1.47073 0
M  V30 6480 C 596.898 3.50705 -0.808342 0
M  V30 6481 C 596.506 3.85735 -2.27844 0
M  V30 6482 C 598.25 4.21719 -0.485136 0
M  V30 6483 C 596.157 5.33668 -2.54858 0
M  V30 6484 H 595.087 0.733182 -0.175955 0
M  V30 6485 H 597.738 1.49396 -1.0655 0
M  V30 6486 H 596.12 3.95706 -0.152558 0
M  V30 6487 H 597.294 3.51686 -2.97748 0
M  V30 6488 H 595.609 3.27792 -2.56791 0
M  V30 6489 H 598.206 5.30559 -0.664166 0
M  V30 6490 H 598.549 4.12316 0.574592 0
M  V30 6491 H 599.082 3.82359 -1.09756 0
M  V30 6492 H 595.821 5.48109 -3.59523 0
M  V30 6493 H 595.341 5.69061 -1.8955 0
M  V30 6494 H 597.02 6.00958 -2.39706 0
M  V30 6495 N 597.152 0.631951 1.44375 0
M  V30 6496 C 598.115 -0.0628142 2.29114 0
M  V30 6497 C 599.115 -0.771494 1.41084 0
M  V30 6498 O 600.305 -0.615959 1.62947 0
M  V30 6499 C 597.437 -1.09953 3.22681 0
M  V30 6500 H 598.63 0.682509 2.92031 0
M  V30 6501 H 596.183 0.392128 1.51301 0
M  V30 6502 H 596.918 -1.87481 2.64616 0
M  V30 6503 H 596.703 -0.595286 3.87555 0
M  V30 6504 H 598.193 -1.58538 3.86336 0
M  V30 6505 N 598.631 -1.53133 0.372548 0
M  V30 6506 C 600.042 -1.86404 -0.105155 0
M  V30 6507 C 600.393 -1.29289 -1.47576 0
M  V30 6508 O 599.518 -0.617646 -2.07398 0
M  V30 6509 C 600.113 -3.38223 -0.197588 0
M  V30 6510 C 598.672 -3.71266 -0.619556 0
M  V30 6511 C 597.819 -2.76353 0.228919 0
M  V30 6512 H 600.77 -1.47282 0.591077 0
M  V30 6513 H 600.791 -3.66577 -1.01987 0
M  V30 6514 H 600.303 -3.79763 0.800099 0
M  V30 6515 H 598.404 -3.35287 -1.62522 0
M  V30 6516 H 598.517 -4.77515 -0.389332 0
M  V30 6517 H 596.881 -2.52888 -0.303271 0
M  V30 6518 H 597.664 -3.20728 1.22428 0
M  V30 6519 N 600.109 -0.101901 -1.5727 0
M  V30 6520 C 601.039 0.851544 -2.17419 0
M  V30 6521 C 602.02 1.28942 -1.10941 0
M  V30 6522 O 603.205 1.35509 -1.39107 0
M  V30 6523 C 600.335 2.10816 -2.75996 0
M  V30 6524 C 599.289 1.80867 -3.87906 0
M  V30 6525 C 598.615 3.13413 -4.33216 0
M  V30 6526 C 599.915 1.0903 -5.10793 0
M  V30 6527 H 601.609 0.350381 -2.97343 0
M  V30 6528 H 599.155 0.16709 -1.43027 0
M  V30 6529 H 601.108 2.77959 -3.16729 0
M  V30 6530 H 599.832 2.63227 -1.93337 0
M  V30 6531 H 598.491 1.16119 -3.47724 0
M  V30 6532 H 598.139 3.63725 -3.47438 0
M  V30 6533 H 597.839 2.94155 -5.08671 0
M  V30 6534 H 599.363 3.81704 -4.76586 0
M  V30 6535 H 600.777 1.66295 -5.48652 0
M  V30 6536 H 599.174 0.99927 -5.91722 0
M  V30 6537 H 600.244 0.0741704 -4.84843 0
M  V30 6538 N 601.587 1.56661 0.17182 0
M  V30 6539 C 602.52 1.91474 1.24149 0
M  V30 6540 C 603.498 0.777485 1.42807 0
M  V30 6541 O 604.682 1.03075 1.57822 0
M  V30 6542 C 601.809 2.16523 2.60453 0
M  V30 6543 C 600.855 3.39209 2.58533 0
M  V30 6544 S 601.688 4.93594 2.07665 0
M  V30 6545 C 602.844 5.21737 3.45747 0
M  V30 6546 H 603.077 2.81903 0.944346 0
M  V30 6547 H 600.61 1.49743 0.376364 0
M  V30 6548 H 602.568 2.31635 3.38903 0
M  V30 6549 H 601.229 1.26802 2.87368 0
M  V30 6550 H 600.422 3.53935 3.58812 0
M  V30 6551 H 600.024 3.2321 1.88178 0
M  V30 6552 H 602.316 5.13684 4.41741 0
M  V30 6553 H 603.259 6.23361 3.35896 0
M  V30 6554 H 603.667 4.49307 3.41736 0
M  V30 6555 N 603.065 -0.440357 1.51323 0
M  V30 6556 C 604.293 -1.21255 1.67645 0
M  V30 6557 C 604.708 -1.85088 0.37252 0
M  V30 6558 O 604.065 -1.70582 -0.648683 0
M  V30 6559 C 604.116 -2.29881 2.78993 0
M  V30 6560 O 603.837 -1.68659 4.04334 0
M  V30 6561 C 605.338 -3.20214 3.06558 0
M  V30 6562 H 602.558 -0.36558 0.562666 0
M  V30 6563 H 605.102 -0.52214 1.97722 0
M  V30 6564 H 603.257 -2.94643 2.51524 0
M  V30 6565 H 603.671 -2.40426 4.6615 0
M  V30 6566 H 605.145 -3.92575 3.88058 0
M  V30 6567 H 605.622 -3.80794 2.18844 0
M  V30 6568 H 606.228 -2.61156 3.35675 0
M  V30 6569 N 604.543 -1.41418 -0.695603 0
M  V30 6570 C 605.959 -1.23887 -1.00619 0
M  V30 6571 C 606.159 -0.128206 -2.01092 0
M  V30 6572 O 605.215 0.507408 -2.47349 0
M  V30 6573 C 606.528 -2.58816 -1.53083 0
M  V30 6574 C 608.076 -2.65998 -1.64967 0
M  V30 6575 C 608.551 -4.01244 -2.20833 0
M  V30 6576 N 610.042 -4.0309 -2.28194 0
M  V30 6577 C 610.777 -5.04539 -2.72448 0
M  V30 6578 N 610.273 -6.16378 -3.16306 0
M  V30 6579 N 612.066 -4.91901 -2.72011 0
M  V30 6580 H 604.217 -2.12379 -0.0300061 0
M  V30 6581 H 606.48 -0.944958 -0.0758797 0
M  V30 6582 H 606.186 -3.40842 -0.867147 0
M  V30 6583 H 606.06 -2.81299 -2.51298 0
M  V30 6584 H 608.447 -1.84331 -2.30448 0
M  V30 6585 H 608.528 -2.47325 -0.652982 0
M  V30 6586 H 608.172 -4.83359 -1.55968 0
M  V30 6587 H 608.102 -4.17257 -3.21254 0
M  V30 6588 H 610.593 -3.22341 -1.97242 0
M  V30 6589 H 610.906 -6.89658 -3.487 0
M  V30 6590 H 609.251 -6.19914 -3.14215 0
M  V30 6591 H 612.442 -4.03613 -2.37095 0
M  V30 6592 H 612.615 -5.71102 -3.06181 0
M  V30 6593 N 606.021 0.929856 -1.27246 0
M  V30 6594 C 606.971 2.01629 -1.06442 0
M  V30 6595 C 607.955 1.60899 0.00687842 0
M  V30 6596 O 609.147 1.75733 -0.211407 0
M  V30 6597 C 606.276 3.35849 -0.711361 0
M  V30 6598 C 605.362 3.8303 -1.82069 0
M  V30 6599 N 605.753 4.02743 -3.05993 0
M  V30 6600 C 604.051 4.12046 -1.70687 0
M  V30 6601 C 604.752 4.42001 -3.78167 0
M  V30 6602 N 603.728 4.4935 -3.05918 0
M  V30 6603 H 607.53 2.14898 -2.00489 0
M  V30 6604 H 605.044 1.11654 -1.17929 0
M  V30 6605 H 607.041 4.13343 -0.543442 0
M  V30 6606 H 605.701 3.23944 0.221517 0
M  V30 6607 H 606.712 3.89112 -3.41778 0
M  V30 6608 H 603.389 4.08866 -0.844681 0
M  V30 6609 H 604.779 4.6535 -4.84664 0
M  V30 6610 N 607.499 1.09233 1.13605 0
M  V30 6611 C 608.747 0.825525 1.84471 0
M  V30 6612 C 609.068 -0.650702 1.83823 0
M  V30 6613 O 608.338 -1.47204 1.29259 0
M  V30 6614 H 606.918 0.3024 0.683054 0
M  V30 6615 H 609.58 1.38006 1.37624 0
M  V30 6616 H 608.676 1.17727 2.89045 0
M  V30 6617 N 608.977 -1.30795 0.87923 0
M  V30 6618 C 610.393 -1.48981 0.57243 0
M  V30 6619 C 610.593 -1.80719 -0.891236 0
M  V30 6620 O 609.649 -1.89136 -1.67283 0
M  V30 6621 C 610.962 -2.61721 1.48063 0
M  V30 6622 C 612.51 -2.75603 1.48365 0
M  V30 6623 C 612.985 -3.91449 2.37763 0
M  V30 6624 N 614.476 -3.98751 2.35695 0
M  V30 6625 C 615.211 -4.87684 3.01583 0
M  V30 6626 N 614.707 -5.81454 3.76674 0
M  V30 6627 N 616.5 -4.81005 2.90844 0
M  V30 6628 H 608.651 -1.08465 1.82617 0
M  V30 6629 H 610.914 -0.536813 0.781368 0
M  V30 6630 H 610.62 -2.45073 2.52254 0
M  V30 6631 H 610.494 -3.58071 1.18596 0
M  V30 6632 H 612.881 -2.9166 0.44927 0
M  V30 6633 H 612.962 -1.79891 1.81859 0
M  V30 6634 H 612.606 -3.76149 3.41283 0
M  V30 6635 H 612.536 -4.86487 2.01589 0
M  V30 6636 H 615.027 -3.31668 1.81121 0
M  V30 6637 H 615.34 -6.46063 4.24054 0
M  V30 6638 H 613.685 -5.81403 3.80782 0
M  V30 6639 H 616.876 -4.06728 2.31711 0
M  V30 6640 H 617.049 -5.50107 3.42471 0
M  V30 6641 N 610.455 -0.639598 -1.44038 0
M  V30 6642 C 611.385 0.0469443 -2.33453 0
M  V30 6643 C 612.366 0.82609 -1.48694 0
M  V30 6644 O 613.551 0.790285 -1.77393 0
M  V30 6645 C 610.681 1.02338 -3.3188 0
M  V30 6646 C 609.635 0.355284 -4.26523 0
M  V30 6647 C 608.961 1.44221 -5.14883 0
M  V30 6648 C 610.261 -0.743798 -5.16977 0
M  V30 6649 H 611.955 -0.699735 -2.91108 0
M  V30 6650 H 609.501 -0.337946 -1.39978 0
M  V30 6651 H 611.454 1.51247 -3.93322 0
M  V30 6652 H 610.178 1.80105 -2.72451 0
M  V30 6653 H 608.837 -0.113239 -3.66425 0
M  V30 6654 H 608.485 2.21097 -4.51802 0
M  V30 6655 H 608.185 1.00052 -5.79019 0
M  V30 6656 H 609.709 1.93295 -5.79197 0
M  V30 6657 H 611.123 -0.337444 -5.72306 0
M  V30 6658 H 609.52 -1.10914 -5.89761 0
M  V30 6659 H 610.59 -1.60745 -4.57481 0
M  V30 6660 N 611.933 1.52934 -0.380664 0
M  V30 6661 C 613.179 2.02443 0.197089 0
M  V30 6662 C 613.534 1.26249 1.45186 0
M  V30 6663 O 612.827 0.351964 1.8834 0
M  V30 6664 C 613.021 3.5349 0.527199 0
M  V30 6665 C 612.85 4.44312 -0.694027 0
M  V30 6666 C 611.62 4.90582 -1.21068 0
M  V30 6667 C 613.818 4.8995 -1.56377 0
M  V30 6668 N 611.8 5.65451 -2.39036 0
M  V30 6669 C 613.171 5.63313 -2.58995 0
M  V30 6670 C 615.226 4.72002 -1.58488 0
M  V30 6671 C 613.929 6.20635 -3.63599 0
M  V30 6672 C 615.955 5.30201 -2.61995 0
M  V30 6673 C 615.317 6.03463 -3.63335 0
M  V30 6674 H 611.416 0.781241 0.0344357 0
M  V30 6675 H 614 1.87387 -0.528609 0
M  V30 6676 H 612.171 3.68677 1.22196 0
M  V30 6677 H 613.903 3.89707 1.09135 0
M  V30 6678 H 610.658 4.67249 -0.772995 0
M  V30 6679 H 611.082 6.07541 -2.98701 0
M  V30 6680 H 615.724 4.14873 -0.814891 0
M  V30 6681 H 613.442 6.76852 -4.41472 0
M  V30 6682 H 617.028 5.182 -2.645 0
M  V30 6683 H 615.908 6.47693 -4.42113 0
M  V30 6684 N 613.412 0.11024 1.57214 0
M  V30 6685 C 614.637 -0.561179 1.99664 0
M  V30 6686 C 615.062 -1.59985 0.989266 0
M  V30 6687 O 614.42 -1.81255 -0.0402399 0
M  V30 6688 C 614.468 -1.17189 3.41027 0
M  V30 6689 O 613.572 -2.28755 3.4314 0
M  V30 6690 H 612.913 -0.14101 0.648855 0
M  V30 6691 H 615.443 0.196128 2.03658 0
M  V30 6692 H 615.453 -1.50954 3.79047 0
M  V30 6693 H 614.128 -0.411041 4.13864 0
M  V30 6694 H 612.705 -1.96495 3.16929 0
M  V30 6695 N 614.89 -1.56749 -0.16351 0
M  V30 6696 C 615.838 -1.97939 -1.22159 0
M  V30 6697 C 616.832 -0.869288 -1.45395 0
M  V30 6698 O 618.038 -1.05443 -1.45883 0
M  V30 6699 H 614.413 -0.629869 -0.410815 0
M  V30 6700 H 616.384 -2.86115 -0.847381 0
M  V30 6701 C 615.133 -2.36206 -2.55151 0
M  V30 6702 H 614.456 -3.2117 -2.38097 0
M  V30 6703 H 615.896 -2.68863 -3.27854 0
M  V30 6704 C 614.355 -1.20841 -3.14482 0
M  V30 6705 O 614.885 -0.500258 -3.98573 0
M  V30 6706 N 613.091 -0.976943 -2.73686 0
M  V30 6707 H 612.638 -1.55457 -2.05404 0
M  V30 6708 H 612.596 -0.206912 -3.13718 0
M  V30 6709 N 616.368 0.432326 -1.51554 0
M  V30 6710 C 617.615 1.18134 -1.64471 0
M  V30 6711 C 617.943 1.91076 -0.363349 0
M  V30 6712 O 617.198 1.84492 0.65279 0
M  V30 6713 C 617.497 2.21907 -2.80164 0
M  V30 6714 C 617.163 1.65941 -4.19255 0
M  V30 6715 C 615.825 1.50401 -4.57092 0
M  V30 6716 C 618.177 1.24843 -5.06027 0
M  V30 6717 C 615.505 0.922443 -5.79403 0
M  V30 6718 C 617.857 0.68113 -6.28922 0
M  V30 6719 C 616.521 0.512673 -6.65528 0
M  V30 6720 H 615.791 0.432283 -0.601841 0
M  V30 6721 H 618.438 0.471701 -1.856 0
M  V30 6722 H 616.743 2.98928 -2.53277 0
M  V30 6723 H 618.44 2.79691 -2.87357 0
M  V30 6724 H 615.03 1.79014 -3.89425 0
M  V30 6725 H 619.214 1.35667 -4.77397 0
M  V30 6726 H 614.47 0.779733 -6.06408 0
M  V30 6727 H 618.644 0.35418 -6.95499 0
M  V30 6728 H 616.271 0.0599084 -7.60176 0
M  V30 6729 N 617.846 1.41785 0.688094 0
M  V30 6730 C 619.092 1.42753 1.4489 0
M  V30 6731 C 619.447 0.0384235 1.92362 0
M  V30 6732 O 618.74 -0.937066 1.67122 0
M  V30 6733 C 618.934 2.37532 2.67046 0
M  V30 6734 C 618.763 3.85521 2.31525 0
M  V30 6735 C 617.533 4.54152 2.21527 0
M  V30 6736 C 619.731 4.76299 1.94019 0
M  V30 6737 N 617.713 5.87233 1.78969 0
M  V30 6738 C 619.084 5.98386 1.62279 0
M  V30 6739 C 621.139 4.63877 1.80895 0
M  V30 6740 C 619.842 7.09433 1.18732 0
M  V30 6741 C 621.868 5.74893 1.38752 0
M  V30 6742 C 621.23 6.96083 1.07927 0
M  V30 6743 H 617.329 0.577575 0.527192 0
M  V30 6744 H 619.913 1.77713 0.795375 0
M  V30 6745 H 618.084 2.04656 3.30107 0
M  V30 6746 H 619.816 2.29169 3.33562 0
M  V30 6747 H 616.571 4.08188 2.40166 0
M  V30 6748 H 616.995 6.57785 1.60151 0
M  V30 6749 H 621.637 3.70671 2.03378 0
M  V30 6750 H 619.355 8.02497 0.949937 0
M  V30 6751 H 622.941 5.67287 1.29136 0
M  V30 6752 H 621.821 7.80527 0.758111 0
M  V30 6753 N 619.324 -0.923095 1.27737 0
M  V30 6754 C 620.572 -1.66797 1.14119 0
M  V30 6755 C 620.893 -1.92479 -0.312541 0
M  V30 6756 O 620.163 -1.53432 -1.218 0
M  V30 6757 H 618.743 -0.618196 0.419336 0
M  V30 6758 H 621.405 -1.10815 1.60331 0
M  V30 6759 H 620.501 -2.63424 1.67374 0
M  V30 6760 N 620.802 -1.09834 -1.13024 0
M  V30 6761 C 621.765 -0.745058 -2.16752 0
M  V30 6762 C 622.765 0.227435 -1.59183 0
M  V30 6763 O 623.955 0.0050786 -1.74199 0
M  V30 6764 C 621.087 -0.102543 -3.40746 0
M  V30 6765 H 622.28 -1.66375 -2.49518 0
M  V30 6766 H 619.833 -0.898061 -1.27924 0
M  V30 6767 H 620.568 0.827177 -3.13573 0
M  V30 6768 H 620.353 -0.80235 -3.83803 0
M  V30 6769 H 621.843 0.129082 -4.174 0
M  V30 6770 N 622.28 1.30327 -0.886154 0
M  V30 6771 C 623.21 2.30549 -0.370028 0
M  V30 6772 C 624.191 1.61039 0.547751 0
M  V30 6773 O 625.376 1.8864 0.461353 0
M  V30 6774 C 622.506 3.44808 0.415275 0
M  V30 6775 C 621.46 4.26024 -0.41085 0
M  V30 6776 C 620.786 5.32347 0.501128 0
M  V30 6777 C 622.086 4.95433 -1.65359 0
M  V30 6778 H 623.78 2.73969 -1.20754 0
M  V30 6779 H 621.326 1.3171 -0.582097 0
M  V30 6780 H 623.279 4.13986 0.78699 0
M  V30 6781 H 622.003 3.00197 1.28644 0
M  V30 6782 H 620.662 3.58535 -0.764719 0
M  V30 6783 H 620.31 4.83982 1.37004 0
M  V30 6784 H 620.01 5.87581 -0.0478356 0
M  V30 6785 H 621.534 6.0438 0.869333 0
M  V30 6786 H 622.948 5.5712 -1.35239 0
M  V30 6787 H 621.345 5.60537 -2.14284 0
M  V30 6788 H 622.415 4.21493 -2.39733 0
M  V30 6789 N 623.758 0.647228 1.43697 0
M  V30 6790 C 624.983 0.164083 2.0675 0
M  V30 6791 C 625.408 -1.15892 1.48158 0
M  V30 6792 O 624.766 -1.71459 0.589194 0
M  V30 6793 C 624.814 0.0800368 3.60511 0
M  V30 6794 O 623.918 -0.959453 4.01084 0
M  V30 6795 H 623.259 0.0921288 0.657578 0
M  V30 6796 H 625.789 0.88846 1.84303 0
M  V30 6797 H 625.799 -0.105263 4.07864 0
M  V30 6798 H 624.474 1.04586 4.02535 0
M  V30 6799 H 623.051 -0.747425 3.65333 0
M  V30 6800 N 625.236 -1.5273 0.388769 0
M  V30 6801 C 626.199 -2.25043 -0.434544 0
M  V30 6802 C 627.199 -1.26661 -0.990644 0
M  V30 6803 O 628.389 -1.50762 -0.872731 0
M  V30 6804 C 625.521 -3.00507 -1.60961 0
M  V30 6805 H 626.714 -2.99242 0.198549 0
M  V30 6806 H 624.267 -1.55664 0.140875 0
M  V30 6807 H 625.002 -2.30607 -2.28015 0
M  V30 6808 H 624.787 -3.72716 -1.21757 0
M  V30 6809 H 626.277 -3.55413 -2.19251 0
M  V30 6810 N 626.714 -0.118576 -1.57153 0
M  V30 6811 C 627.991 0.583062 -1.86708 0
M  V30 6812 C 628.371 1.84841 -1.01967 0
M  V30 6813 O 627.719 2.28288 -0.0984673 0
M  V30 6814 C 627.929 0.875912 -3.3783 0
M  V30 6815 C 629.277 1.22916 -4.0642 0
M  V30 6816 O 630.301 0.966188 -3.42846 0
M  V30 6817 O 629.16 1.72269 -5.18638 0
M  V30 6818 H 626.254 0.294185 -0.772906 0
M  V30 6819 H 628.8 -0.153048 -1.69008 0
M  V30 6820 H 627.572 -0.0207776 -3.91294 0
M  V30 6821 H 627.195 1.66719 -3.60958 0
M  V30 6822 N 628.193 1.56834 0.155195 0
M  V30 6823 C 629.441 1.82536 0.867462 0
M  V30 6824 C 629.762 0.698168 1.82073 0
M  V30 6825 O 629.032 -0.280807 1.93877 0
M  V30 6826 H 627.612 0.673401 0.323327 0
M  V30 6827 H 630.274 1.94313 0.151156 0
M  V30 6828 H 629.37 2.77171 1.43466 0
M  V30 6829 N 629.671 -0.424282 1.51781 0
M  V30 6830 C 630.901 -1.19297 1.68677 0
M  V30 6831 C 631.309 -1.85152 0.389258 0
M  V30 6832 O 630.652 -1.72067 -0.643311 0
M  V30 6833 C 630.714 -2.30929 2.75521 0
M  V30 6834 C 630.378 -1.85335 4.17732 0
M  V30 6835 C 631.375 -1.34951 5.0208 0
M  V30 6836 C 629.06 -1.92629 4.63896 0
M  V30 6837 C 631.054 -0.924636 6.30658 0
M  V30 6838 C 628.741 -1.49754 5.92467 0
M  V30 6839 C 629.739 -0.997543 6.75676 0
M  V30 6840 O 629.427 -0.57492 8.01842 0
M  V30 6841 H 629.159 -0.36512 0.568914 0
M  V30 6842 H 631.713 -0.507327 1.99036 0
M  V30 6843 H 629.943 -3.02811 2.40505 0
M  V30 6844 H 631.632 -2.92748 2.81165 0
M  V30 6845 H 632.398 -1.287 4.67612 0
M  V30 6846 H 628.277 -2.30491 3.99243 0
M  V30 6847 H 631.821 -0.533682 6.95556 0
M  V30 6848 H 627.718 -1.55679 6.26446 0
M  V30 6849 H 628.486 -0.699597 8.15505 0
M  V30 6850 N 631.149 -1.42148 -0.680565 0
M  V30 6851 C 632.379 -1.45485 -1.46689 0
M  V30 6852 C 632.787 -0.0629451 -1.89095 0
M  V30 6853 O 632.13 0.931397 -1.58337 0
M  V30 6854 C 632.192 -2.31397 -2.75129 0
M  V30 6855 C 631.856 -3.79353 -2.54834 0
M  V30 6856 C 632.853 -4.71148 -2.19808 0
M  V30 6857 C 630.538 -4.23557 -2.70008 0
M  V30 6858 C 632.532 -6.05139 -2.00215 0
M  V30 6859 C 630.219 -5.57609 -2.50031 0
M  V30 6860 C 631.217 -6.48216 -2.15187 0
M  V30 6861 O 630.905 -7.79792 -1.95397 0
M  V30 6862 H 630.637 -0.497139 -0.458071 0
M  V30 6863 H 633.191 -1.87252 -0.844139 0
M  V30 6864 H 631.421 -1.84468 -3.39865 0
M  V30 6865 H 633.11 -2.26257 -3.36991 0
M  V30 6866 H 633.876 -4.38282 -2.07686 0
M  V30 6867 H 629.755 -3.53327 -2.96109 0
M  V30 6868 H 633.299 -6.75823 -1.72941 0
M  V30 6869 H 629.196 -5.9005 -2.61748 0
M  V30 6870 H 629.964 -7.91091 -2.10042 0
M  V30 6871 N 632.627 0.916307 -1.28225 0
M  V30 6872 C 633.59 1.99996 -1.11957 0
M  V30 6873 C 634.59 1.60688 -0.0600152 0
M  V30 6874 O 635.78 1.71499 -0.30558 0
M  V30 6875 C 632.912 3.33458 -0.708411 0
M  V30 6876 H 634.105 2.15858 -2.08196 0
M  V30 6877 H 631.658 1.09863 -1.11175 0
M  V30 6878 H 632.393 3.23297 0.254859 0
M  V30 6879 H 632.178 3.63349 -1.47377 0
M  V30 6880 H 633.668 4.13014 -0.617164 0
M  V30 6881 N 634.105 1.10431 1.1244 0
M  V30 6882 C 635.521 0.836096 1.35947 0
M  V30 6883 C 635.721 -0.544475 1.94004 0
M  V30 6884 O 634.777 -1.29735 2.16622 0
M  V30 6885 C 636.09 1.93575 2.30107 0
M  V30 6886 C 637.638 1.9642 2.43697 0
M  V30 6887 C 638.113 3.05559 3.41171 0
M  V30 6888 N 639.604 3.04865 3.48728 0
M  V30 6889 C 640.339 3.85954 4.24061 0
M  V30 6890 N 639.835 4.76977 5.02458 0
M  V30 6891 N 641.628 3.74172 4.19466 0
M  V30 6892 H 633.779 1.9942 0.731124 0
M  V30 6893 H 636.042 0.866607 0.384312 0
M  V30 6894 H 635.748 2.92943 1.94621 0
M  V30 6895 H 635.622 1.8229 3.30227 0
M  V30 6896 H 638.009 0.97685 2.78463 0
M  V30 6897 H 638.09 2.11782 1.43465 0
M  V30 6898 H 637.734 4.04513 3.07135 0
M  V30 6899 H 637.664 2.87438 4.41234 0
M  V30 6900 H 640.155 2.38908 2.92799 0
M  V30 6901 H 640.468 5.35409 5.57277 0
M  V30 6902 H 638.813 4.81006 5.01655 0
M  V30 6903 H 642.004 3.02412 3.57302 0
M  V30 6904 H 642.177 4.37602 4.77921 0
M  V30 6905 N 635.583 -1.29855 0.893053 0
M  V30 6906 C 636.808 -2.00512 0.530066 0
M  V30 6907 C 637.233 -1.66446 -0.876199 0
M  V30 6908 O 636.591 -0.885446 -1.58207 0
M  V30 6909 C 636.639 -3.53308 0.721505 0
M  V30 6910 O 635.743 -4.11764 -0.228994 0
M  V30 6911 H 635.084 -0.630617 0.207891 0
M  V30 6912 H 637.614 -1.6551 1.20282 0
M  V30 6913 H 637.624 -4.03206 0.623599 0
M  V30 6914 H 636.299 -3.77439 1.74678 0
M  V30 6915 H 634.876 -3.72805 -0.0841034 0
M  V30 6916 N 637.061 -0.65484 -1.43351 0
M  V30 6917 C 637.971 0.0363603 -2.34572 0
M  V30 6918 C 638.987 0.810432 -1.53974 0
M  V30 6919 O 640.163 0.757308 -1.86619 0
M  V30 6920 C 637.228 0.989733 -3.32273 0
M  V30 6921 C 636.289 0.212414 -4.28774 0
M  V30 6922 C 635.522 1.12038 -5.21808 0
M  V30 6923 O 635.745 2.35967 -5.19303 0
M  V30 6924 O 634.679 0.59191 -5.98982 0
M  V30 6925 H 638.505 -0.714527 -2.95175 0
M  V30 6926 H 636.09 -0.415029 -1.4352 0
M  V30 6927 H 637.972 1.53759 -3.92347 0
M  V30 6928 H 636.647 1.72082 -2.74171 0
M  V30 6929 H 635.554 -0.379062 -3.72175 0
M  V30 6930 H 636.887 -0.479138 -4.89862 0
M  V30 6931 N 638.539 1.52521 -0.396863 0
M  V30 6932 C 639.816 1.94112 0.240842 0
M  V30 6933 C 640.196 1.33288 1.637 0
M  V30 6934 O 639.544 0.503901 2.22875 0
M  V30 6935 C 639.754 3.48033 0.259567 0
M  V30 6936 C 641.102 4.21822 0.484866 0
M  V30 6937 O 642.126 3.54579 0.339453 0
M  V30 6938 O 640.985 5.41042 0.770412 0
M  V30 6939 H 638.079 0.812973 0.151671 0
M  V30 6940 H 640.625 1.63572 -0.451918 0
M  V30 6941 H 639.397 3.84655 -0.718078 0
M  V30 6942 H 639.02 3.84899 0.996937 0
M  V30 6943 N 640.017 0.126909 1.57088 0
M  V30 6944 C 641.247 -0.535892 1.99529 0
M  V30 6945 C 641.655 -1.60259 1.00566 0
M  V30 6946 O 640.998 -1.83698 -0.00843269 0
M  V30 6947 C 641.06 -1.21374 3.38391 0
M  V30 6948 C 640.724 -0.294044 4.56053 0
M  V30 6949 C 641.721 0.470454 5.17767 0
M  V30 6950 C 639.406 -0.202808 5.0189 0
M  V30 6951 C 641.4 1.31384 6.23712 0
M  V30 6952 C 639.087 0.644203 6.07695 0
M  V30 6953 C 640.085 1.40115 6.68473 0
M  V30 6954 O 639.773 2.23408 7.72233 0
M  V30 6955 H 639.505 -0.145799 0.66009 0
M  V30 6956 H 642.059 0.212441 2.04298 0
M  V30 6957 H 640.289 -2.00931 3.30399 0
M  V30 6958 H 641.978 -1.77424 3.65069 0
M  V30 6959 H 642.744 0.409884 4.83265 0
M  V30 6960 H 638.623 -0.781688 4.54324 0
M  V30 6961 H 642.167 1.90514 6.71081 0
M  V30 6962 H 638.064 0.706137 6.41626 0
M  V30 6963 H 638.832 2.16436 7.89365 0
M  V30 6964 N 641.495 -1.56914 -0.146875 0
M  V30 6965 C 642.741 -1.83628 -0.860741 0
M  V30 6966 C 643.074 -0.708528 -1.80813 0
M  V30 6967 O 642.349 0.287838 -1.92358 0
M  V30 6968 C 642.632 -3.20836 -1.63511 0
M  V30 6969 C 642.485 -4.44174 -0.709199 0
M  V30 6970 C 643.804 -3.55268 -2.59756 0
M  V30 6971 H 640.923 -0.667949 -0.311468 0
M  V30 6972 H 643.565 -1.89582 -0.125936 0
M  V30 6973 H 641.715 -3.15891 -2.26153 0
M  V30 6974 H 643.387 -4.61205 -0.0937781 0
M  V30 6975 H 641.63 -4.33796 -0.0187856 0
M  V30 6976 H 642.301 -5.36785 -1.28707 0
M  V30 6977 H 644.777 -3.60824 -2.07232 0
M  V30 6978 H 643.653 -4.52303 -3.10987 0
M  V30 6979 H 643.914 -2.81231 -3.41118 0
M  V30 6980 N 642.974 0.416227 -1.52004 0
M  V30 6981 C 644.251 1.17637 -1.56272 0
M  V30 6982 C 644.631 2.08352 -0.339493 0
M  V30 6983 O 643.979 2.1833 0.674124 0
M  V30 6984 C 644.189 1.95986 -2.88774 0
M  V30 6985 C 645.537 2.52299 -3.41512 0
M  V30 6986 O 646.561 2.06174 -2.90467 0
M  V30 6987 O 645.42 3.3648 -4.30631 0
M  V30 6988 H 642.514 0.536726 -0.629169 0
M  V30 6989 H 645.06 0.423583 -1.64329 0
M  V30 6990 H 643.832 1.29487 -3.69254 0
M  V30 6991 H 643.455 2.78285 -2.83978 0
M  V30 6992 N 644.452 1.42507 0.673017 0
M  V30 6993 C 645.701 1.42364 1.42883 0
M  V30 6994 C 646.014 0.0441598 1.9555 0
M  V30 6995 O 647.22 -0.0798679 2.71382 0
M  V30 6996 C 645.676 2.5043 2.58482 0
M  V30 6997 C 645.284 3.94392 2.12506 0
M  V30 6998 C 647.028 2.59455 3.35981 0
M  V30 6999 C 644.935 4.93964 3.25198 0
M  V30 7000 H 643.865 0.52951 0.536782 0
M  V30 7001 H 646.516 1.68422 0.728448 0
M  V30 7002 H 644.898 2.1754 3.30896 0
M  V30 7003 H 646.072 4.36645 1.47233 0
M  V30 7004 H 644.387 3.89233 1.4794 0
M  V30 7005 H 646.984 3.31025 4.19912 0
M  V30 7006 H 647.327 1.63869 3.82691 0
M  V30 7007 H 647.86 2.91549 2.70637 0
M  V30 7008 H 644.599 5.91034 2.83477 0
M  V30 7009 H 644.119 4.56341 3.89247 0
M  V30 7010 H 645.798 5.15763 3.90637 0
M  V30 7011 N 645.93 -0.909495 1.28709 0
M  V30 7012 C 647.176 -1.66151 1.16283 0
M  V30 7013 C 647.509 -1.92067 -0.287069 0
M  V30 7014 O 646.784 -1.52409 -1.20837 0
M  V30 7015 C 647.067 -3.01676 1.9663 0
M  V30 7016 C 646.92 -2.82888 3.49707 0
M  V30 7017 C 648.239 -4.02274 1.78504 0
M  V30 7018 H 645.358 -0.602966 0.423793 0
M  V30 7019 H 648 -1.05418 1.58073 0
M  V30 7020 H 646.15 -3.53515 1.61119 0
M  V30 7021 H 647.822 -2.38026 3.95147 0
M  V30 7022 H 646.065 -2.17862 3.75125 0
M  V30 7023 H 646.736 -3.79147 4.01187 0
M  V30 7024 H 649.212 -3.59511 2.09503 0
M  V30 7025 H 648.088 -4.95056 2.37088 0
M  V30 7026 H 648.349 -4.35903 0.737647 0
M  V30 7027 N 647.408 -1.11026 -1.11852 0
M  V30 7028 C 648.34 -0.72249 -2.17515 0
M  V30 7029 C 649.353 0.243782 -1.60964 0
M  V30 7030 O 650.542 0.0273252 -1.78479 0
M  V30 7031 C 647.642 -0.0463979 -3.38868 0
M  V30 7032 C 646.815 -1.0384 -4.24895 0
M  V30 7033 C 645.874 -0.392659 -5.24733 0
M  V30 7034 O 644.9 -1.0453 -5.5952 0
M  V30 7035 N 646.102 0.846296 -5.74298 0
M  V30 7036 H 648.867 -1.63161 -2.51393 0
M  V30 7037 H 646.428 -0.999899 -1.27333 0
M  V30 7038 H 648.42 0.397215 -4.02746 0
M  V30 7039 H 646.99 0.765231 -3.03089 0
M  V30 7040 H 646.21 -1.6601 -3.57539 0
M  V30 7041 H 647.498 -1.70968 -4.79215 0
M  V30 7042 H 646.896 1.39578 -5.4821 0
M  V30 7043 H 645.453 1.23296 -6.40032 0
M  V30 7044 N 648.886 1.2938 -0.899927 0
M  V30 7045 C 650.134 1.95164 -0.524924 0
M  V30 7046 C 650.455 1.71292 0.931888 0
M  V30 7047 O 649.725 1.04481 1.65712 0
M  V30 7048 H 648.305 0.722133 -0.191135 0
M  V30 7049 H 650.967 1.57628 -1.14627 0
M  V30 7050 H 650.063 3.0397 -0.707711 0
M  V30 7051 N 650.364 0.662433 1.43002 0
M  V30 7052 C 651.78 0.330835 1.56133 0
M  V30 7053 C 651.98 -1.16454 1.64441 0
M  V30 7054 O 651.036 -1.94964 1.60453 0
M  V30 7055 C 652.349 1.05029 2.81761 0
M  V30 7056 C 653.897 1.03142 2.95518 0
M  V30 7057 C 654.372 1.73196 4.2399 0
M  V30 7058 N 655.863 1.70004 4.30875 0
M  V30 7059 C 656.598 2.21074 5.29069 0
M  V30 7060 N 656.094 2.80473 6.33488 0
M  V30 7061 N 657.887 2.1152 5.20784 0
M  V30 7062 H 650.038 1.63272 1.35853 0
M  V30 7063 H 652.301 0.687149 0.653092 0
M  V30 7064 H 652.007 2.10542 2.81718 0
M  V30 7065 H 651.881 0.607664 3.72273 0
M  V30 7066 H 654.268 -0.0153339 2.95096 0
M  V30 7067 H 654.349 1.51282 2.0627 0
M  V30 7068 H 653.993 2.77833 4.25172 0
M  V30 7069 H 653.923 1.22515 5.1215 0
M  V30 7070 H 656.414 1.26667 3.56039 0
M  V30 7071 H 656.727 3.17094 7.04749 0
M  V30 7072 H 655.072 2.84538 6.34085 0
M  V30 7073 H 658.263 1.64814 4.38126 0
M  V30 7074 H 658.436 2.51629 5.97149 0
M  V30 7075 N 651.842 -1.52309 0.404946 0
M  V30 7076 C 653.258 -1.59503 0.0556255 0
M  V30 7077 C 653.458 -1.41805 -1.43156 0
M  V30 7078 O 652.514 -1.2429 -2.19792 0
M  V30 7079 C 653.827 -2.95687 0.546801 0
M  V30 7080 C 655.375 -3.08909 0.504413 0
M  V30 7081 C 655.85 -4.47566 0.97203 0
M  V30 7082 N 657.341 -4.53795 0.928679 0
M  V30 7083 C 658.076 -5.59346 1.26174 0
M  V30 7084 N 657.572 -6.72469 1.66604 0
M  V30 7085 N 659.365 -5.49532 1.18198 0
M  V30 7086 H 651.516 -1.6206 1.37296 0
M  V30 7087 H 653.779 -0.762161 0.563751 0
M  V30 7088 H 653.485 -3.13905 1.58609 0
M  V30 7089 H 653.359 -3.77172 -0.0457905 0
M  V30 7090 H 655.746 -2.90378 -0.525819 0
M  V30 7091 H 655.827 -2.2934 1.13301 0
M  V30 7092 H 655.471 -4.6684 2.00057 0
M  V30 7093 H 655.401 -5.25625 0.320292 0
M  V30 7094 H 657.892 -3.72588 0.631369 0
M  V30 7095 H 658.205 -7.48993 1.9034 0
M  V30 7096 H 656.55 -6.73761 1.70504 0
M  V30 7097 H 659.741 -4.60038 0.865011 0
M  V30 7098 H 659.914 -6.31687 1.44485 0
M  V30 7099 N 653.32 -0.135238 -1.57019 0
M  V30 7100 C 654.566 0.519563 -1.96032 0
M  V30 7101 C 654.899 1.65284 -1.01955 0
M  V30 7102 O 654.174 1.94408 -0.059727 0
M  V30 7103 C 654.457 1.0369 -3.44848 0
M  V30 7104 C 654.31 -0.0940754 -4.49702 0
M  V30 7105 C 655.629 1.92254 -3.95887 0
M  V30 7106 H 652.748 0.18739 -0.712779 0
M  V30 7107 H 655.39 -0.214086 -1.8879 0
M  V30 7108 H 653.54 1.66209 -3.5115 0
M  V30 7109 H 655.212 -0.73 -4.55487 0
M  V30 7110 H 653.455 -0.754924 -4.27181 0
M  V30 7111 H 654.126 0.309419 -5.51132 0
M  V30 7112 H 656.602 1.39581 -3.9199 0
M  V30 7113 H 655.478 2.25364 -5.00502 0
M  V30 7114 H 655.739 2.85513 -3.37543 0
M  V30 7115 N 654.798 1.5699 0.138552 0
M  V30 7116 C 656.046 1.83446 0.848053 0
M  V30 7117 C 656.367 0.71744 1.81322 0
M  V30 7118 O 655.637 -0.260228 1.94164 0
M  V30 7119 H 654.217 0.676792 0.316166 0
M  V30 7120 H 656.879 1.94462 0.130538 0
M  V30 7121 H 655.975 2.78677 1.40518 0
M  V30 7122 N 656.276 -0.40816 1.52223 0
M  V30 7123 C 657.522 -1.15673 1.66576 0
M  V30 7124 C 657.855 -1.90141 0.394996 0
M  V30 7125 O 657.13 -1.84798 -0.606613 0
M  V30 7126 C 657.413 -2.15042 2.88841 0
M  V30 7127 C 657.266 -1.44465 4.25969 0
M  V30 7128 C 658.585 -3.15699 3.0663 0
M  V30 7129 H 655.704 -0.41916 0.606196 0
M  V30 7130 H 658.346 -0.442348 1.84779 0
M  V30 7131 H 656.496 -2.75964 2.73452 0
M  V30 7132 H 658.168 -0.866544 4.53088 0
M  V30 7133 H 656.411 -0.746612 4.27327 0
M  V30 7134 H 657.082 -2.16976 5.07568 0
M  V30 7135 H 659.558 -2.64854 3.20923 0
M  V30 7136 H 658.434 -3.82491 3.9369 0
M  V30 7137 H 658.695 -3.83481 2.19987 0
M  V30 7138 N 657.755 -1.42862 -0.66545 0
M  V30 7139 C 659.001 -1.4504 -1.426 0
M  V30 7140 C 659.356 -0.0690217 -1.92276 0
M  V30 7141 O 658.649 0.91036 -1.68591 0
M  V30 7142 C 658.843 -2.4175 -2.63233 0
M  V30 7143 C 658.672 -3.89155 -2.25362 0
M  V30 7144 C 657.442 -4.57619 -2.14273 0
M  V30 7145 C 659.64 -4.79326 -1.86417 0
M  V30 7146 N 657.622 -5.90006 -1.69604 0
M  V30 7147 C 658.993 -6.00892 -1.52738 0
M  V30 7148 C 661.048 -4.66696 -1.73492 0
M  V30 7149 C 659.751 -7.11232 -1.0743 0
M  V30 7150 C 661.777 -5.77027 -1.29589 0
M  V30 7151 C 661.139 -6.97712 -0.968393 0
M  V30 7152 H 657.238 -0.585889 -0.517936 0
M  V30 7153 H 659.822 -1.78956 -0.767002 0
M  V30 7154 H 657.993 -2.09881 -3.26809 0
M  V30 7155 H 659.725 -2.34447 -3.29874 0
M  V30 7156 H 656.48 -4.11957 -2.33641 0
M  V30 7157 H 656.904 -6.60249 -1.49666 0
M  V30 7158 H 661.546 -3.7386 -1.97455 0
M  V30 7159 H 659.264 -8.03907 -0.822147 0
M  V30 7160 H 662.85 -5.6927 -1.20095 0
M  V30 7161 H 661.73 -7.81634 -0.63384 0
M  V30 7162 N 659.233 0.902656 -1.29189 0
M  V30 7163 C 660.181 2.0278 -1.13943 0
M  V30 7164 C 661.175 1.69308 -0.055787 0
M  V30 7165 O 662.381 1.78707 -0.215371 0
M  V30 7166 H 658.756 0.664595 -0.351877 0
M  V30 7167 H 660.727 2.12778 -2.09208 0
M  V30 7168 C 659.476 3.37657 -0.82966 0
M  V30 7169 H 658.799 3.63913 -1.65551 0
M  V30 7170 H 660.239 4.17078 -0.762998 0
M  V30 7171 C 658.698 3.33648 0.466991 0
M  V30 7172 O 659.228 3.72886 1.49395 0
M  V30 7173 N 657.434 2.86745 0.471761 0
M  V30 7174 H 656.981 2.55009 -0.364406 0
M  V30 7175 H 656.939 2.84446 1.33933 0
M  V30 7176 N 660.711 1.11618 1.11262 0
M  V30 7177 C 661.957 0.867463 1.83311 0
M  V30 7178 C 662.29 -0.605366 1.84524 0
M  V30 7179 O 661.565 -1.44704 1.29965 0
M  V30 7180 C 661.848 1.43207 3.30399 0
M  V30 7181 C 661.701 2.97265 3.3757 0
M  V30 7182 C 663.02 1.08454 4.26528 0
M  V30 7183 H 660.139 0.316578 0.665543 0
M  V30 7184 H 662.781 1.38137 1.30454 0
M  V30 7185 H 660.931 0.994982 3.75543 0
M  V30 7186 H 662.603 3.49591 3.00971 0
M  V30 7187 H 660.846 3.33237 2.77733 0
M  V30 7188 H 661.517 3.31859 4.41105 0
M  V30 7189 H 663.993 1.4619 3.89574 0
M  V30 7190 H 662.869 1.50633 5.27826 0
M  V30 7191 H 663.13 -0.00444568 4.421 0
M  V30 7192 N 662.189 -1.289 0.906776 0
M  V30 7193 C 663.6 -1.77336 0.58384 0
M  V30 7194 C 663.951 -1.74304 -0.900697 0
M  V30 7195 O 663.076 -1.33335 -1.70443 0
M  V30 7196 C 663.671 -3.22019 1.05304 0
M  V30 7197 C 662.23 -3.68205 0.781148 0
M  V30 7198 C 661.377 -2.48837 1.22373 0
M  V30 7199 H 664.328 -1.15462 1.08877 0
M  V30 7200 H 664.349 -3.78481 0.391414 0
M  V30 7201 H 663.861 -3.24194 2.13353 0
M  V30 7202 H 661.962 -3.71497 -0.28643 0
M  V30 7203 H 662.075 -4.58675 1.384 0
M  V30 7204 H 660.439 -2.46461 0.642594 0
M  V30 7205 H 661.222 -2.53736 2.31242 0
M  V30 7206 N 663.667 -0.670007 -1.42649 0
M  V30 7207 C 664.897 -0.198252 -2.05647 0
M  V30 7208 C 665.305 1.14786 -1.50402 0
M  V30 7209 O 664.648 1.72316 -0.636634 0
M  V30 7210 C 664.71 -0.0507132 -3.59464 0
M  V30 7211 C 664.374 -1.32478 -4.37377 0
M  V30 7212 C 665.371 -2.2572 -4.68344 0
M  V30 7213 C 663.056 -1.57104 -4.77099 0
M  V30 7214 C 665.05 -3.4187 -5.37963 0
M  V30 7215 C 662.737 -2.73543 -5.46459 0
M  V30 7216 C 663.735 -3.65751 -5.76815 0
M  V30 7217 O 663.423 -4.80154 -6.44753 0
M  V30 7218 H 663.155 -0.0950721 -0.669281 0
M  V30 7219 H 665.709 -0.915745 -1.83857 0
M  V30 7220 H 663.939 0.722314 -3.79894 0
M  V30 7221 H 665.628 0.380552 -4.04112 0
M  V30 7222 H 666.394 -2.07943 -4.38161 0
M  V30 7223 H 662.273 -0.862069 -4.52868 0
M  V30 7224 H 665.817 -4.13861 -5.61574 0
M  V30 7225 H 661.714 -2.91248 -5.7606 0
M  V30 7226 H 662.482 -4.79637 -6.63243 0
M  V30 7227 N 665.145 1.52092 -0.413018 0
M  V30 7228 C 666.394 2.01041 0.16287 0
M  V30 7229 C 666.707 1.30288 1.45892 0
M  V30 7230 O 667.913 1.70075 2.11629 0
M  V30 7231 C 666.369 3.58283 0.340806 0
M  V30 7232 C 665.977 4.37955 -0.943377 0
M  V30 7233 C 667.721 4.15452 0.871774 0
M  V30 7234 C 665.628 5.86847 -0.732417 0
M  V30 7235 H 664.558 0.751224 0.0646414 0
M  V30 7236 H 667.209 1.75404 -0.539059 0
M  V30 7237 H 665.591 3.80266 1.10516 0
M  V30 7238 H 666.765 4.2773 -1.71418 0
M  V30 7239 H 665.08 3.92122 -1.40105 0
M  V30 7240 H 667.677 5.24375 1.0457 0
M  V30 7241 H 668.02 3.73057 1.84755 0
M  V30 7242 H 668.553 3.97452 0.166377 0
M  V30 7243 H 665.292 6.33609 -1.67986 0
M  V30 7244 H 664.812 5.998 -0.000980058 0
M  V30 7245 H 666.491 6.45906 -0.376105 0
M  V30 7246 N 666.623 0.143563 1.56945 0
M  V30 7247 C 667.848 -0.518701 2.00809 0
M  V30 7248 C 668.273 -1.5785 1.02298 0
M  V30 7249 O 667.631 -1.813 -0.0017839 0
M  V30 7250 C 667.679 -1.09929 3.43436 0
M  V30 7251 O 666.783 -2.21425 3.47915 0
M  V30 7252 H 666.124 -0.127215 0.6517 0
M  V30 7253 H 668.654 0.239283 2.03196 0
M  V30 7254 H 668.664 -1.4288 3.82164 0
M  V30 7255 H 667.339 -0.323162 4.14643 0
M  V30 7256 H 665.916 -1.89728 3.21026 0
M  V30 7257 N 668.101 -1.57061 -0.130224 0
M  V30 7258 C 669.049 -2.00486 -1.17933 0
M  V30 7259 C 670.043 -0.899933 -1.43519 0
M  V30 7260 O 671.249 -1.08514 -1.43613 0
M  V30 7261 H 667.624 -0.638441 -0.397363 0
M  V30 7262 H 669.595 -2.87848 -0.786501 0
M  V30 7263 C 668.344 -2.41565 -2.50084 0
M  V30 7264 H 667.667 -3.26148 -2.31231 0
M  V30 7265 H 669.107 -2.75757 -3.22078 0
M  V30 7266 C 667.566 -1.27485 -3.11848 0
M  V30 7267 O 668.096 -0.584688 -3.97422 0
M  V30 7268 N 666.302 -1.03478 -2.71552 0
M  V30 7269 H 665.849 -1.59779 -2.02061 0
M  V30 7270 H 665.807 -0.27341 -3.13209 0
M  V30 7271 N 669.579 0.400081 -1.52437 0
M  V30 7272 C 670.828 1.14332 -1.66166 0
M  V30 7273 C 671.141 1.91419 -0.402253 0
M  V30 7274 O 672.347 2.6824 -0.419487 0
M  V30 7275 C 670.803 2.08137 -2.9361 0
M  V30 7276 C 670.411 1.36524 -4.26691 0
M  V30 7277 C 672.155 2.82664 -3.16703 0
M  V30 7278 C 670.062 2.29031 -5.45251 0
M  V30 7279 H 668.992 0.430499 -0.61902 0
M  V30 7280 H 671.643 0.407017 -1.78929 0
M  V30 7281 H 670.025 2.85358 -2.74567 0
M  V30 7282 H 671.199 0.646061 -4.56249 0
M  V30 7283 H 669.514 0.74002 -4.09771 0
M  V30 7284 H 672.111 3.52037 -4.0246 0
M  V30 7285 H 672.454 3.46122 -2.31312 0
M  V30 7286 H 672.987 2.12541 -3.36261 0
M  V30 7287 H 669.726 1.70206 -6.33017 0
M  V30 7288 H 669.246 2.98896 -5.2002 0
M  V30 7289 H 670.925 2.89359 -5.78689 0
M  V30 7290 N 671.057 1.43213 0.657864 0
M  V30 7291 C 672.287 1.478 1.44356 0
M  V30 7292 C 672.695 0.0930206 1.88971 0
M  V30 7293 O 672.038 -0.906089 1.59799 0
M  V30 7294 C 672.1 2.35745 2.71412 0
M  V30 7295 C 671.764 3.83359 2.48767 0
M  V30 7296 C 672.761 4.74585 2.12285 0
M  V30 7297 C 670.446 4.27799 2.63235 0
M  V30 7298 C 672.44 6.08247 1.90562 0
M  V30 7299 C 670.127 5.61516 2.41128 0
M  V30 7300 C 671.125 6.51557 2.04847 0
M  V30 7301 O 670.813 7.82802 1.82967 0
M  V30 7302 H 670.545 0.504363 0.450104 0
M  V30 7303 H 673.099 1.88572 0.814241 0
M  V30 7304 H 671.329 1.89852 3.36887 0
M  V30 7305 H 673.018 2.31589 3.33348 0
M  V30 7306 H 673.784 4.41531 2.00687 0
M  V30 7307 H 669.663 3.57993 2.90451 0
M  V30 7308 H 673.207 6.78489 1.62168 0
M  V30 7309 H 669.104 5.94139 2.52327 0
M  V30 7310 H 669.872 7.94332 1.97429 0
M  V30 7311 N 672.536 -0.895792 1.29666 0
M  V30 7312 C 673.466 -2.01673 1.17688 0
M  V30 7313 C 674.447 -1.69955 0.0701317 0
M  V30 7314 O 675.632 -1.9258 0.250289 0
M  V30 7315 C 672.762 -3.36568 0.856681 0
M  V30 7316 C 671.716 -3.82509 1.92017 0
M  V30 7317 C 671.042 -5.14574 1.4532 0
M  V30 7318 C 672.342 -4.02409 3.32963 0
M  V30 7319 H 674.036 -2.11953 2.11463 0
M  V30 7320 H 671.582 -1.01839 1.01807 0
M  V30 7321 H 673.535 -4.14498 0.759577 0
M  V30 7322 H 672.259 -3.26391 -0.116763 0
M  V30 7323 H 670.918 -3.068 2.00673 0
M  V30 7324 H 670.566 -5.00815 0.468325 0
M  V30 7325 H 670.266 -5.46283 2.16447 0
M  V30 7326 H 671.79 -5.9504 1.36968 0
M  V30 7327 H 673.204 -4.70808 3.27127 0
M  V30 7328 H 671.601 -4.45478 4.02082 0
M  V30 7329 H 672.671 -3.06616 3.75652 0
M  V30 7330 N 674.014 -1.12206 -1.10668 0
M  V30 7331 C 675.263 -0.870595 -1.81944 0
M  V30 7332 C 675.576 0.605447 -1.85994 0
M  V30 7333 O 676.782 0.973433 -2.53449 0
M  V30 7334 C 675.238 -1.50783 -3.26791 0
M  V30 7335 C 674.846 -3.01849 -3.31046 0
M  V30 7336 C 676.59 -1.33653 -4.02911 0
M  V30 7337 C 674.497 -3.58518 -4.70339 0
M  V30 7338 H 673.427 -0.322043 -0.681765 0
M  V30 7339 H 676.078 -1.34827 -1.24475 0
M  V30 7340 H 674.46 -0.957825 -3.84242 0
M  V30 7341 H 675.634 -3.63321 -2.83433 0
M  V30 7342 H 673.949 -3.18346 -2.68411 0
M  V30 7343 H 676.546 -1.73416 -5.05797 0
M  V30 7344 H 676.889 -0.279949 -4.15358 0
M  V30 7345 H 677.422 -1.85562 -3.51868 0
M  V30 7346 H 674.161 -4.63925 -4.63091 0
M  V30 7347 H 673.681 -3.01819 -5.18329 0
M  V30 7348 H 675.36 -3.57434 -5.39305 0
M  V30 7349 N 675.492 1.28418 -0.913599 0
M  V30 7350 C 676.439 2.27301 -0.400373 0
M  V30 7351 C 677.409 1.57582 0.52509 0
M  V30 7352 O 678.594 1.85482 0.447318 0
M  V30 7353 C 675.734 3.43284 0.35361 0
M  V30 7354 C 674.847 4.27752 -0.604341 0
M  V30 7355 C 673.982 5.30934 0.168075 0
M  V30 7356 C 673.021 6.07065 -0.783499 0
M  V30 7357 N 672.158 7.02086 -0.0446112 0
M  V30 7358 H 676.998 2.70579 -1.24865 0
M  V30 7359 H 674.535 1.33067 -0.627028 0
M  V30 7360 H 676.493 4.09322 0.806945 0
M  V30 7361 H 675.123 3.00997 1.16623 0
M  V30 7362 H 674.175 3.61759 -1.17621 0
M  V30 7363 H 675.487 4.80682 -1.33216 0
M  V30 7364 H 674.641 6.02855 0.681979 0
M  V30 7365 H 673.38 4.78771 0.928947 0
M  V30 7366 H 672.385 5.33995 -1.30878 0
M  V30 7367 H 673.61 6.61317 -1.54392 0
M  V30 7368 H 671.556 6.52273 0.698272 0
M  V30 7369 H 671.473 7.52637 -0.712258 0
M  V30 7370 H 672.741 7.78205 0.449102 0
M  V30 7371 N 676.97 0.677563 1.42291 0
M  V30 7372 C 678.218 0.200578 2.01102 0
M  V30 7373 C 678.539 -1.19803 1.53858 0
M  V30 7374 O 677.809 -1.80496 0.761439 0
M  V30 7375 H 676.389 0.0711634 0.743603 0
M  V30 7376 H 679.051 0.874691 1.7417 0
M  V30 7377 H 678.147 0.204 3.11433 0
M  V30 7378 N 678.448 -1.51871 0.421078 0
M  V30 7379 C 679.673 -2.0684 -0.152371 0
M  V30 7380 C 680.098 -1.28802 -1.37083 0
M  V30 7381 O 679.456 -0.321482 -1.78427 0
M  V30 7382 C 679.504 -3.57532 -0.469368 0
M  V30 7383 O 678.608 -3.81818 -1.55848 0
M  V30 7384 H 677.949 -0.663939 -0.00898586 0
M  V30 7385 H 680.479 -1.95674 0.597724 0
M  V30 7386 H 680.489 -4.01515 -0.724553 0
M  V30 7387 H 679.164 -4.13761 0.421276 0
M  V30 7388 H 677.741 -3.49709 -1.29453 0
M  V30 7389 N 679.926 -0.151884 -1.56866 0
M  V30 7390 C 680.889 0.771861 -2.15812 0
M  V30 7391 C 681.889 1.17181 -1.10115 0
M  V30 7392 O 683.079 1.09194 -1.35729 0
M  V30 7393 C 680.211 2.04806 -2.7252 0
M  V30 7394 H 681.404 0.259021 -2.98779 0
M  V30 7395 H 678.957 0.097588 -1.55995 0
M  V30 7396 H 679.692 2.60445 -1.93233 0
M  V30 7397 H 679.477 1.77044 -3.49854 0
M  V30 7398 H 680.967 2.70771 -3.1792 0
M  V30 7399 N 681.404 1.57128 0.121893 0
M  V30 7400 C 682.334 2.03165 1.15092 0
M  V30 7401 C 683.315 0.915587 1.43356 0
M  V30 7402 O 684.5 1.1851 1.53847 0
M  V30 7403 C 681.63 2.43352 2.47784 0
M  V30 7404 C 680.584 3.58376 2.33989 0
M  V30 7405 C 679.91 3.84454 3.71617 0
M  V30 7406 C 681.21 4.90199 1.80283 0
M  V30 7407 H 682.904 2.89382 0.768023 0
M  V30 7408 H 680.45 1.39218 0.367998 0
M  V30 7409 H 682.403 2.74163 3.20019 0
M  V30 7410 H 681.127 1.54103 2.87958 0
M  V30 7411 H 679.786 3.2777 1.64202 0
M  V30 7412 H 679.434 2.92414 4.09271 0
M  V30 7413 H 679.134 4.61877 3.6324 0
M  V30 7414 H 680.658 4.17714 4.45362 0
M  V30 7415 H 682.072 5.19565 2.42333 0
M  V30 7416 H 680.469 5.71601 1.82735 0
M  V30 7417 H 681.539 4.78904 0.760184 0
M  V30 7418 N 682.882 -0.391992 1.52647 0
M  V30 7419 C 684.298 -0.731848 1.41831 0
M  V30 7420 C 684.498 -1.9423 0.536361 0
M  V30 7421 O 683.554 -2.52499 0.00866571 0
M  V30 7422 C 684.867 -0.969743 2.84634 0
M  V30 7423 C 686.415 -1.0714 2.94092 0
M  V30 7424 C 686.89 -1.34195 4.37899 0
M  V30 7425 N 688.381 -1.41023 4.41211 0
M  V30 7426 C 689.116 -1.63616 5.49561 0
M  V30 7427 N 688.612 -1.83699 6.68002 0
M  V30 7428 N 690.405 -1.65771 5.371 0
M  V30 7429 H 682.556 0.404547 2.08512 0
M  V30 7430 H 684.819 0.11879 0.940528 0
M  V30 7431 H 684.525 -0.152465 3.51369 0
M  V30 7432 H 684.399 -1.88523 3.26709 0
M  V30 7433 H 686.786 -1.87925 2.27526 0
M  V30 7434 H 686.867 -0.133887 2.55449 0
M  V30 7435 H 686.511 -0.539207 5.0503 0
M  V30 7436 H 686.441 -2.29226 4.74092 0
M  V30 7437 H 688.932 -1.27223 3.55841 0
M  V30 7438 H 689.245 -2.00437 7.46354 0
M  V30 7439 H 687.59 -1.8093 6.71036 0
M  V30 7440 H 690.781 -1.4963 4.43541 0
M  V30 7441 H 690.954 -1.83038 6.21612 0
M  V30 7442 N 684.36 -1.4356 -0.65026 0
M  V30 7443 C 685.608 -1.45046 -1.40734 0
M  V30 7444 C 685.929 -0.0769822 -1.94848 0
M  V30 7445 O 685.199 0.888098 -1.74613 0
M  V30 7446 H 683.779 -0.534034 -0.522318 0
M  V30 7447 H 686.441 -1.79186 -0.766703 0
M  V30 7448 H 685.537 -2.16476 -2.24822 0
M  V30 7449 N 685.838 0.888903 -1.30139 0
M  V30 7450 C 686.748 2.02705 -1.18101 0
M  V30 7451 C 687.764 1.73702 -0.101809 0
M  V30 7452 O 688.94 1.98906 -0.315984 0
M  V30 7453 C 686.005 3.35616 -0.869651 0
M  V30 7454 C 685.066 3.78067 -2.03381 0
M  V30 7455 C 684.299 5.04635 -1.73721 0
M  V30 7456 O 684.522 5.66531 -0.663267 0
M  V30 7457 O 683.456 5.43399 -2.58845 0
M  V30 7458 H 687.282 2.15788 -2.13704 0
M  V30 7459 H 684.867 1.01426 -1.09695 0
M  V30 7460 H 686.749 4.15358 -0.711043 0
M  V30 7461 H 685.424 3.23651 0.0565002 0
M  V30 7462 H 684.331 2.99046 -2.24772 0
M  V30 7463 H 685.664 3.94631 -2.94155 0
M  V30 7464 N 687.317 1.12792 1.10072 0
M  V30 7465 C 688.247 0.821688 2.18565 0
M  V30 7466 C 689.228 -0.21612 1.68721 0
M  V30 7467 O 690.413 -0.0764932 1.94049 0
M  V30 7468 C 687.543 0.279624 3.46172 0
M  V30 7469 C 686.497 1.25092 4.09312 0
M  V30 7470 C 685.823 0.568916 5.31665 0
M  V30 7471 C 687.123 2.60699 4.52585 0
M  V30 7472 H 688.817 1.72888 2.44438 0
M  V30 7473 H 686.363 0.832702 1.17482 0
M  V30 7474 H 688.316 0.053099 4.21367 0
M  V30 7475 H 687.04 -0.662929 3.19801 0
M  V30 7476 H 685.699 1.46332 3.36129 0
M  V30 7477 H 685.347 -0.378898 5.01571 0
M  V30 7478 H 685.047 1.21687 5.74862 0
M  V30 7479 H 686.571 0.351517 6.09587 0
M  V30 7480 H 687.985 2.43465 5.19035 0
M  V30 7481 H 686.382 3.21608 5.06644 0
M  V30 7482 H 687.452 3.1886 3.65317 0
M  V30 7483 N 688.795 -1.27931 0.920396 0
M  V30 7484 C 689.727 -2.26175 0.371169 0
M  V30 7485 C 690.74 -1.55122 -0.494065 0
M  V30 7486 O 691.929 -1.75825 -0.30787 0
M  V30 7487 C 689.029 -3.35376 -0.487481 0
M  V30 7488 C 688.202 -4.35943 0.356772 0
M  V30 7489 C 687.261 -5.24374 -0.438042 0
M  V30 7490 O 686.287 -5.68998 0.151715 0
M  V30 7491 N 687.489 -5.53823 -1.73956 0
M  V30 7492 H 690.254 -2.73938 1.21564 0
M  V30 7493 H 687.815 -1.41482 0.787047 0
M  V30 7494 H 689.807 -3.91476 -1.02609 0
M  V30 7495 H 688.377 -2.87269 -1.23269 0
M  V30 7496 H 687.597 -3.7921 1.07672 0
M  V30 7497 H 688.885 -5.0015 0.934206 0
M  V30 7498 H 688.283 -5.19413 -2.24114 0
M  V30 7499 H 686.84 -6.12653 -2.22486 0
M  V30 7500 N 690.273 -0.685099 -1.4193 0
M  V30 7501 C 691.498 -0.218842 -2.06242 0
M  V30 7502 C 691.923 1.11923 -1.51178 0
M  V30 7503 O 691.281 1.69837 -0.634446 0
M  V30 7504 C 691.329 -0.175592 -3.60172 0
M  V30 7505 O 690.433 0.852776 -4.03487 0
M  V30 7506 H 689.774 -0.109531 -0.654904 0
M  V30 7507 H 692.304 -0.937013 -1.81882 0
M  V30 7508 H 692.314 -0.00291151 -4.08 0
M  V30 7509 H 690.989 -1.15222 -3.99621 0
M  V30 7510 H 689.566 0.650301 -3.67186 0
M  V30 7511 N 691.751 1.51645 -0.429126 0
M  V30 7512 C 692.976 2.06917 0.141399 0
M  V30 7513 C 693.401 1.29527 1.36398 0
M  V30 7514 O 692.759 0.33094 1.78254 0
M  V30 7515 C 692.807 3.57776 0.4504 0
M  V30 7516 O 691.911 3.82639 1.53821 0
M  V30 7517 H 691.252 0.663978 0.0054647 0
M  V30 7518 H 693.782 1.95355 -0.608093 0
M  V30 7519 H 693.792 4.01894 0.703249 0
M  V30 7520 H 692.467 4.13532 -0.443213 0
M  V30 7521 H 691.044 3.5039 1.27597 0
M  V30 7522 N 693.229 0.160201 1.56784 0
M  V30 7523 C 694.506 -0.533355 1.88188 0
M  V30 7524 C 694.886 -1.82072 1.06831 0
M  V30 7525 O 694.234 -2.27946 0.158959 0
M  V30 7526 C 694.444 -0.786034 3.40033 0
M  V30 7527 C 695.792 -1.12097 4.09536 0
M  V30 7528 O 696.816 -0.874949 3.45287 0
M  V30 7529 O 695.675 -1.58457 5.23023 0
M  V30 7530 H 692.769 -0.273589 0.780434 0
M  V30 7531 H 695.315 0.197803 1.68543 0
M  V30 7532 H 694.087 0.124515 3.91102 0
M  V30 7533 H 693.71 -1.57091 3.65251 0
M  V30 7534 N 694.707 -1.5719 -0.113559 0
M  V30 7535 C 695.637 -2.03772 -1.14013 0
M  V30 7536 C 696.618 -0.923176 -1.42869 0
M  V30 7537 O 697.803 -1.19325 -1.53216 0
M  V30 7538 C 694.933 -2.44663 -2.4649 0
M  V30 7539 C 693.887 -3.59612 -2.32085 0
M  V30 7540 C 693.213 -3.8642 -3.69573 0
M  V30 7541 C 694.513 -4.91149 -1.7768 0
M  V30 7542 H 696.207 -2.89785 -0.752665 0
M  V30 7543 H 693.753 -1.39412 -0.360609 0
M  V30 7544 H 695.706 -2.75857 -3.18561 0
M  V30 7545 H 694.43 -1.55628 -2.87137 0
M  V30 7546 H 693.089 -3.28636 -1.62461 0
M  V30 7547 H 692.737 -2.94581 -4.07715 0
M  V30 7548 H 692.437 -4.63797 -3.60786 0
M  V30 7549 H 693.961 -4.2007 -4.4314 0
M  V30 7550 H 695.375 -5.20843 -2.39574 0
M  V30 7551 H 693.772 -5.72562 -1.79701 0
M  V30 7552 H 694.842 -4.79301 -0.734776 0
M  V30 7553 N 696.185 0.383891 -1.52853 0
M  V30 7554 C 697.432 1.12842 -1.68146 0
M  V30 7555 C 697.76 1.89823 -0.423954 0
M  V30 7556 O 697.015 1.86475 0.593765 0
M  V30 7557 C 697.314 2.12881 -2.87082 0
M  V30 7558 C 696.98 1.52519 -4.24322 0
M  V30 7559 C 695.642 1.35783 -4.61645 0
M  V30 7560 C 697.994 1.0868 -5.09743 0
M  V30 7561 C 695.322 0.737643 -5.82044 0
M  V30 7562 C 697.674 0.480699 -6.30771 0
M  V30 7563 C 696.338 0.300681 -6.66822 0
M  V30 7564 H 695.608 0.412917 -0.615289 0
M  V30 7565 H 698.255 0.412416 -1.87006 0
M  V30 7566 H 696.56 2.90719 -2.62659 0
M  V30 7567 H 698.257 2.70408 -2.96109 0
M  V30 7568 H 694.847 1.66534 -3.94923 0
M  V30 7569 H 699.031 1.2041 -4.81472 0
M  V30 7570 H 694.287 0.586415 -6.08581 0
M  V30 7571 H 698.461 0.132733 -6.96273 0
M  V30 7572 H 696.088 -0.181966 -7.59982 0
M  V30 7573 N 697.663 1.43903 0.642637 0
M  V30 7574 C 698.613 1.46321 1.74854 0
M  V30 7575 C 699.597 0.330361 1.57472 0
M  V30 7576 O 700.789 0.574881 1.67404 0
M  V30 7577 C 697.918 1.39919 3.13493 0
M  V30 7578 C 697.004 2.58274 3.36385 0
M  V30 7579 N 697.395 3.83578 3.29699 0
M  V30 7580 C 695.693 2.53224 3.67142 0
M  V30 7581 C 696.394 4.62375 3.52965 0
M  V30 7582 N 695.37 3.93269 3.75287 0
M  V30 7583 H 699.172 2.41062 1.68126 0
M  V30 7584 H 696.686 1.38704 0.844693 0
M  V30 7585 H 698.683 1.39735 3.92785 0
M  V30 7586 H 697.343 0.46207 3.21395 0
M  V30 7587 H 698.354 4.15713 3.08874 0
M  V30 7588 H 695.031 1.68252 3.82096 0
M  V30 7589 H 696.421 5.714 3.53485 0
M  V30 7590 N 699.141 -0.881989 1.30609 0
M  V30 7591 C 700.091 -1.97539 1.13852 0
M  V30 7592 C 701.075 -1.60813 0.0528428 0
M  V30 7593 O 702.267 -1.74827 0.276484 0
M  V30 7594 C 699.396 -3.32977 0.835519 0
M  V30 7595 C 698.482 -3.76008 1.96159 0
M  V30 7596 N 698.873 -3.91109 3.20729 0
M  V30 7597 C 697.171 -4.05427 1.85863 0
M  V30 7598 C 697.872 -4.27661 3.94311 0
M  V30 7599 N 696.848 -4.37686 3.22385 0
M  V30 7600 H 700.65 -2.07309 2.08327 0
M  V30 7601 H 698.164 -1.072 1.21992 0
M  V30 7602 H 700.161 -4.11041 0.696477 0
M  V30 7603 H 698.821 -3.24542 -0.101135 0
M  V30 7604 H 699.832 -3.7616 3.55984 0
M  V30 7605 H 696.509 -4.05449 0.995847 0
M  V30 7606 H 697.899 -4.47042 5.01601 0
M  V30 7607 N 700.619 -1.13374 -1.09472 0
M  V30 7608 C 701.844 -0.918711 -1.85942 0
M  V30 7609 C 702.269 0.527225 -1.8056 0
M  V30 7610 O 701.627 1.37408 -1.18274 0
M  V30 7611 C 701.675 -1.41056 -3.31867 0
M  V30 7612 O 700.779 -0.595496 -4.08078 0
M  V30 7613 H 700.12 -0.329297 -0.576593 0
M  V30 7614 H 702.65 -1.50829 -1.38245 0
M  V30 7615 H 702.66 -1.41398 -3.82715 0
M  V30 7616 H 701.335 -2.46335 -3.35099 0
M  V30 7617 H 699.912 -0.659911 -3.67014 0
M  V30 7618 N 702.098 1.27442 -0.927168 0
M  V30 7619 C 703.045 2.26863 -0.424459 0
M  V30 7620 C 704.015 1.5813 0.508346 0
M  V30 7621 O 705.2 1.85946 0.42762 0
M  V30 7622 C 702.34 3.43639 0.31718 0
M  V30 7623 C 701.453 4.27087 -0.649675 0
M  V30 7624 C 700.588 5.31082 0.111753 0
M  V30 7625 C 699.627 6.062 -0.847843 0
M  V30 7626 N 698.764 7.01999 -0.119074 0
M  V30 7627 H 703.604 2.69239 -1.27728 0
M  V30 7628 H 701.141 1.32394 -0.641106 0
M  V30 7629 H 703.099 4.10155 0.763486 0
M  V30 7630 H 701.729 3.02217 1.13424 0
M  V30 7631 H 700.781 3.60491 -1.21451 0
M  V30 7632 H 702.093 4.79242 -1.38307 0
M  V30 7633 H 701.247 6.03544 0.618 0
M  V30 7634 H 699.986 4.7973 0.878114 0
M  V30 7635 H 698.991 5.32577 -1.36534 0
M  V30 7636 H 700.216 6.59642 -1.61398 0
M  V30 7637 H 698.162 6.52977 0.629051 0
M  V30 7638 H 698.079 7.5184 -0.792046 0
M  V30 7639 H 699.347 7.78638 0.366537 0
M  V30 7640 N 703.576 0.692616 1.41565 0
M  V30 7641 C 704.506 0.0397325 2.33466 0
M  V30 7642 C 705.487 -0.770334 1.51657 0
M  V30 7643 O 706.672 -0.723903 1.80203 0
M  V30 7644 C 703.802 -0.899495 3.3545 0
M  V30 7645 C 702.756 -0.196738 4.27548 0
M  V30 7646 C 702.082 -1.25012 5.19881 0
M  V30 7647 C 703.382 0.935158 5.1386 0
M  V30 7648 H 705.076 0.807296 2.88311 0
M  V30 7649 H 702.622 0.389665 1.38628 0
M  V30 7650 H 704.575 -1.36545 3.98665 0
M  V30 7651 H 703.299 -1.69869 2.78948 0
M  V30 7652 H 701.958 0.249158 3.65752 0
M  V30 7653 H 701.606 -2.04177 4.59696 0
M  V30 7654 H 701.306 -0.784931 5.82334 0
M  V30 7655 H 702.83 -1.71665 5.85972 0
M  V30 7656 H 704.244 0.549619 5.70659 0
M  V30 7657 H 702.641 1.32726 5.85238 0
M  V30 7658 H 703.711 1.77613 4.512 0
M  V30 7659 N 705.054 -1.51416 0.437162 0
M  V30 7660 C 706.331 -1.94682 -0.189292 0
M  V30 7661 C 706.711 -1.37581 -1.60108 0
M  V30 7662 O 706.059 -0.562815 -2.2146 0
M  V30 7663 C 706.269 -3.48599 -0.167201 0
M  V30 7664 C 707.617 -4.2296 -0.372856 0
M  V30 7665 O 708.641 -3.55354 -0.245323 0
M  V30 7666 O 707.5 -5.42895 -0.626693 0
M  V30 7667 H 704.594 -0.816708 -0.130063 0
M  V30 7668 H 707.14 -1.62316 0.495128 0
M  V30 7669 H 705.912 -3.82616 0.81981 0
M  V30 7670 H 705.535 -3.87406 -0.894537 0
M  V30 7671 N 706.532 -0.168513 -1.56696 0
M  V30 7672 C 707.943 0.348694 -1.83415 0
M  V30 7673 C 708.294 1.63257 -1.0882 0
M  V30 7674 O 707.419 2.13707 -0.340333 0
M  V30 7675 C 708.014 0.639423 -3.32711 0
M  V30 7676 C 706.573 1.10108 -3.59935 0
M  V30 7677 C 705.72 0.135464 -2.76969 0
M  V30 7678 H 708.671 -0.392829 -1.53761 0
M  V30 7679 H 708.692 1.49179 -3.50037 0
M  V30 7680 H 708.204 -0.295173 -3.86976 0
M  V30 7681 H 706.305 2.05088 -3.11079 0
M  V30 7682 H 706.418 1.01218 -4.68286 0
M  V30 7683 H 704.782 0.632286 -2.46727 0
M  V30 7684 H 705.565 -0.793104 -3.34013 0
M  V30 7685 N 708.01 1.57248 0.105221 0
M  V30 7686 C 709.287 1.76566 0.841647 0
M  V30 7687 C 709.667 0.747566 1.9742 0
M  V30 7688 O 709.015 -0.225886 2.27381 0
M  V30 7689 C 709.225 3.22016 1.3456 0
M  V30 7690 C 710.573 3.84911 1.79244 0
M  V30 7691 O 711.597 3.25703 1.44207 0
M  V30 7692 O 710.456 4.89008 2.43995 0
M  V30 7693 H 707.55 0.723443 0.400698 0
M  V30 7694 H 710.096 1.69472 0.0878893 0
M  V30 7695 H 708.868 3.87644 0.533685 0
M  V30 7696 H 708.491 3.33703 2.16167 0
M  V30 7697 N 709.488 -0.375779 1.53054 0
M  V30 7698 C 710.421 -1.48187 1.7354 0
M  V30 7699 C 711.399 -1.5177 0.583495 0
M  V30 7700 O 712.583 -1.69976 0.81488 0
M  V30 7701 C 709.71 -2.86598 1.80497 0
M  V30 7702 C 708.756 -3.00784 3.02376 0
M  V30 7703 S 709.589 -2.70601 4.62099 0
M  V30 7704 C 710.745 -4.11181 4.71891 0
M  V30 7705 H 710.978 -1.30587 2.67085 0
M  V30 7706 H 708.511 -0.569485 1.43514 0
M  V30 7707 H 710.469 -3.66353 1.85192 0
M  V30 7708 H 709.13 -3.01514 0.880217 0
M  V30 7709 H 708.323 -4.02128 3.03824 0
M  V30 7710 H 707.925 -2.28939 2.95742 0
M  V30 7711 H 710.217 -5.0529 4.51319 0
M  V30 7712 H 711.16 -4.14742 5.73929 0
M  V30 7713 H 711.568 -3.97706 4.00612 0
M  V30 7714 N 710.966 -1.44241 -0.634997 0
M  V30 7715 C 711.929 -1.50457 -1.72903 0
M  V30 7716 C 712.929 -0.387058 -1.56072 0
M  V30 7717 O 714.119 -0.649531 -1.61638 0
M  V30 7718 C 711.251 -1.37477 -3.1195 0
M  V30 7719 H 712.444 -2.47907 -1.68767 0
M  V30 7720 H 709.997 -1.31276 -0.84831 0
M  V30 7721 H 710.732 -0.41106 -3.21684 0
M  V30 7722 H 710.517 -2.18506 -3.25573 0
M  V30 7723 H 712.007 -1.44799 -3.91692 0
M  V30 7724 N 712.444 0.87505 -1.31075 0
M  V30 7725 C 713.691 1.62768 -1.20469 0
M  V30 7726 C 714.019 1.93034 0.23834 0
M  V30 7727 O 713.274 1.55693 1.18567 0
M  V30 7728 C 713.573 2.96948 -1.98888 0
M  V30 7729 C 713.239 2.86195 -3.4843 0
M  V30 7730 C 711.901 2.82969 -3.89207 0
M  V30 7731 C 714.253 2.73599 -4.43614 0
M  V30 7732 C 711.581 2.64999 -5.23443 0
M  V30 7733 C 713.933 2.57166 -5.77969 0
M  V30 7734 C 712.597 2.52321 -6.17973 0
M  V30 7735 H 711.867 0.595611 -0.440827 0
M  V30 7736 H 714.514 1.01665 -1.62285 0
M  V30 7737 H 712.819 3.62058 -1.49737 0
M  V30 7738 H 714.516 3.54164 -1.88067 0
M  V30 7739 H 711.106 2.8952 -3.16032 0
M  V30 7740 H 715.29 2.7515 -4.13045 0
M  V30 7741 H 710.546 2.5967 -5.53517 0
M  V30 7742 H 714.72 2.46396 -6.51354 0
M  V30 7743 H 712.347 2.38156 -7.21932 0
M  V30 7744 N 713.922 1.13953 1.08869 0
M  V30 7745 C 715.162 0.915128 1.8277 0
M  V30 7746 C 715.526 -0.548647 1.83994 0
M  V30 7747 O 716.727 -0.890817 2.5361 0
M  V30 7748 C 714.998 1.49382 3.24684 0
M  V30 7749 S 716.557 1.4103 4.15519 0
M  V30 7750 H 713.375 0.329716 0.629927 0
M  V30 7751 H 715.977 1.45213 1.30895 0
M  V30 7752 H 714.681 2.55241 3.21372 0
M  V30 7753 H 714.212 0.955008 3.81632 0
M  V30 7754 H 716.227 0.392617 4.94644 0
M  V30 7755 N 715.4 -1.26948 0.933913 0
M  V30 7756 C 716.363 -2.24889 0.442457 0
M  V30 7757 C 717.363 -1.54594 -0.442426 0
M  V30 7758 O 718.553 -1.72502 -0.242629 0
M  V30 7759 C 715.685 -3.3896 -0.363173 0
M  V30 7760 H 716.878 -2.69879 1.30787 0
M  V30 7761 H 714.431 -1.38978 0.715187 0
M  V30 7762 H 715.166 -2.99361 -1.24714 0
M  V30 7763 H 714.951 -3.9116 0.271366 0
M  V30 7764 H 716.441 -4.11739 -0.697186 0
M  V30 7765 N 716.879 -0.700114 -1.41195 0
M  V30 7766 C 717.827 -0.0263301 -2.32585 0
M  V30 7767 C 718.821 0.763683 -1.51209 0
M  V30 7768 O 720.027 0.668793 -1.67114 0
M  V30 7769 H 716.402 0.0102869 -0.75193 0
M  V30 7770 H 718.373 -0.814087 -2.8708 0
M  V30 7771 C 717.122 0.892793 -3.36042 0
M  V30 7772 H 716.445 0.294306 -3.98715 0
M  V30 7773 H 717.885 1.33247 -4.02518 0
M  V30 7774 C 716.344 2.01109 -2.7029 0
M  V30 7775 O 716.874 3.10035 -2.55423 0
M  V30 7776 N 715.08 1.79015 -2.28915 0
M  V30 7777 H 714.627 0.904275 -2.41207 0
M  V30 7778 H 714.585 2.54022 -1.85257 0
M  V30 7779 N 718.357 1.51182 -0.445186 0
M  V30 7780 C 719.606 2.01342 0.120189 0
M  V30 7781 C 719.919 1.33353 1.43095 0
M  V30 7782 O 721.125 1.74525 2.07974 0
M  V30 7783 C 719.581 3.58925 0.264732 0
M  V30 7784 C 719.189 4.35855 -1.03606 0
M  V30 7785 C 720.933 4.17208 0.783455 0
M  V30 7786 C 718.84 5.85162 -0.856731 0
M  V30 7787 H 717.77 0.752426 0.0486922 0
M  V30 7788 H 720.421 1.74221 -0.576143 0
M  V30 7789 H 718.803 3.82525 1.02425 0
M  V30 7790 H 719.977 4.23997 -1.80452 0
M  V30 7791 H 718.292 3.89062 -1.48391 0
M  V30 7792 H 720.889 5.26475 0.934239 0
M  V30 7793 H 721.232 3.76892 1.768 0
M  V30 7794 H 721.765 3.97715 0.0820346 0
M  V30 7795 H 718.504 6.29904 -1.81388 0
M  V30 7796 H 718.024 5.99663 -0.128206 0
M  V30 7797 H 719.703 6.44963 -0.513027 0
M  V30 7798 N 719.835 0.176821 1.56605 0
M  V30 7799 C 721.251 -0.179278 1.5859 0
M  V30 7800 C 721.451 -1.62433 1.19238 0
M  V30 7801 O 720.507 -2.35665 0.906552 0
M  V30 7802 C 721.82 0.106524 3.00511 0
M  V30 7803 C 723.368 0.0451731 3.12967 0
M  V30 7804 C 723.843 0.304038 4.5699 0
M  V30 7805 N 725.334 0.252008 4.62514 0
M  V30 7806 C 726.069 0.426404 5.71812 0
M  V30 7807 N 725.565 0.660155 6.89648 0
M  V30 7808 N 727.358 0.361926 5.60934 0
M  V30 7809 H 719.509 1.12001 1.8047 0
M  V30 7810 H 721.772 0.445679 0.836704 0
M  V30 7811 H 721.478 1.10778 3.33798 0
M  V30 7812 H 721.352 -0.599337 3.72408 0
M  V30 7813 H 723.739 -0.946662 2.79504 0
M  V30 7814 H 723.82 0.78383 2.43495 0
M  V30 7815 H 723.464 1.29311 4.91163 0
M  V30 7816 H 723.394 -0.455294 5.24628 0
M  V30 7817 H 725.885 0.0772102 3.77821 0
M  V30 7818 H 726.198 0.782529 7.68828 0
M  V30 7819 H 724.543 0.696835 6.91498 0
M  V30 7820 H 727.734 0.17986 4.67754 0
M  V30 7821 H 727.907 0.501263 6.46058 0
M  V30 7822 N 721.313 -1.57302 -0.09688 0
M  V30 7823 C 722.245 -1.98618 -1.14384 0
M  V30 7824 C 723.258 -0.888483 -1.36418 0
M  V30 7825 O 724.447 -1.16661 -1.35101 0
M  V30 7826 C 721.547 -2.28838 -2.49973 0
M  V30 7827 C 720.72 -3.60132 -2.48241 0
M  V30 7828 C 719.779 -3.7831 -3.65743 0
M  V30 7829 O 718.805 -4.50183 -3.48316 0
M  V30 7830 N 720.007 -3.18752 -4.85157 0
M  V30 7831 H 722.772 -2.8904 -0.792202 0
M  V30 7832 H 720.333 -1.59356 -0.285883 0
M  V30 7833 H 722.325 -2.38193 -3.27179 0
M  V30 7834 H 720.895 -1.44431 -2.77233 0
M  V30 7835 H 720.115 -3.61763 -1.56593 0
M  V30 7836 H 721.403 -4.46389 -2.4416 0
M  V30 7837 H 720.801 -2.60368 -5.0222 0
M  V30 7838 H 719.358 -3.33595 -5.59962 0
M  V30 7839 N 722.791 0.367657 -1.53252 0
M  V30 7840 C 723.723 1.47032 -1.75824 0
M  V30 7841 C 724.736 1.49736 -0.63898 0
M  V30 7842 O 725.925 1.53253 -0.915193 0
M  V30 7843 C 723.025 2.85805 -1.82122 0
M  V30 7844 C 722.198 3.06822 -3.11736 0
M  V30 7845 C 721.257 4.25698 -3.09302 0
M  V30 7846 O 720.283 4.20972 -3.83107 0
M  V30 7847 N 721.485 5.33002 -2.29977 0
M  V30 7848 H 724.25 1.28048 -2.70968 0
M  V30 7849 H 721.811 0.557363 -1.52004 0
M  V30 7850 H 723.803 3.63465 -1.77975 0
M  V30 7851 H 722.373 2.98046 -0.942716 0
M  V30 7852 H 721.593 2.1684 -3.29202 0
M  V30 7853 H 722.881 3.17731 -3.97397 0
M  V30 7854 H 722.279 5.39703 -1.69521 0
M  V30 7855 H 720.836 6.09247 -2.3165 0
M  V30 7856 N 724.269 1.44576 0.627338 0
M  V30 7857 C 725.546 1.38033 1.38586 0
M  V30 7858 C 725.926 0.0409468 2.1106 0
M  V30 7859 O 725.274 -0.976582 2.0658 0
M  V30 7860 C 725.484 2.58102 2.34913 0
M  V30 7861 C 726.832 3.02332 2.98129 0
M  V30 7862 O 727.856 2.58334 2.45238 0
M  V30 7863 O 726.715 3.78628 3.94085 0
M  V30 7864 H 723.809 0.546801 0.620434 0
M  V30 7865 H 726.355 1.56672 0.652077 0
M  V30 7866 H 725.127 3.4719 1.80485 0
M  V30 7867 H 724.75 2.41696 3.15703 0
M  V30 7868 N 725.747 -0.868086 1.31537 0
M  V30 7869 C 726.993 -1.62367 1.2151 0
M  V30 7870 C 727.326 -1.92883 -0.225819 0
M  V30 7871 O 726.601 -1.56176 -1.15927 0
M  V30 7872 C 726.884 -2.95268 2.06129 0
M  V30 7873 C 726.737 -2.71619 3.58529 0
M  V30 7874 C 728.056 -3.96391 1.91212 0
M  V30 7875 H 725.175 -0.589178 0.442762 0
M  V30 7876 H 727.817 -1.00336 1.61347 0
M  V30 7877 H 725.967 -3.4821 1.72284 0
M  V30 7878 H 727.639 -2.25334 4.0252 0
M  V30 7879 H 725.882 -2.05817 3.81866 0
M  V30 7880 H 726.553 -3.66192 4.13047 0
M  V30 7881 H 729.029 -3.52663 2.20834 0
M  V30 7882 H 727.905 -4.87263 2.52718 0
M  V30 7883 H 728.166 -4.33335 0.875953 0
M  V30 7884 N 727.225 -1.14528 -1.08264 0
M  V30 7885 C 728.472 -0.914405 -1.80679 0
M  V30 7886 C 728.8 0.558952 -1.86295 0
M  V30 7887 O 728.055 1.43017 -1.33584 0
M  V30 7888 C 728.354 -1.46226 -3.26117 0
M  V30 7889 C 728.02 -2.95451 -3.40616 0
M  V30 7890 C 726.682 -3.36191 -3.4428 0
M  V30 7891 C 729.034 -3.91399 -3.44175 0
M  V30 7892 C 726.362 -4.71539 -3.49096 0
M  V30 7893 C 728.714 -5.26606 -3.50526 0
M  V30 7894 C 727.378 -5.66856 -3.52464 0
M  V30 7895 H 726.648 -0.334604 -0.661151 0
M  V30 7896 H 729.295 -1.4292 -1.27461 0
M  V30 7897 H 727.6 -0.868442 -3.82054 0
M  V30 7898 H 729.297 -1.25955 -3.80705 0
M  V30 7899 H 725.887 -2.62955 -3.38456 0
M  V30 7900 H 730.071 -3.61004 -3.40573 0
M  V30 7901 H 725.327 -5.02082 -3.4889 0
M  V30 7902 H 729.501 -6.00758 -3.52225 0
M  V30 7903 H 727.128 -6.71718 -3.55948 0
M  V30 7904 N 728.703 1.26451 -0.940633 0
M  V30 7905 C 729.636 2.24771 -0.394094 0
M  V30 7906 C 730.614 1.54169 0.516781 0
M  V30 7907 O 731.798 1.82942 0.454352 0
M  V30 7908 C 728.925 3.3591 0.433807 0
M  V30 7909 C 727.971 4.24472 -0.415464 0
M  V30 7910 S 728.804 5.0293 -1.83907 0
M  V30 7911 C 729.96 6.17546 -1.01921 0
M  V30 7912 H 730.193 2.70782 -1.22737 0
M  V30 7913 H 727.726 1.35308 -0.743709 0
M  V30 7914 H 729.684 4.00387 0.905576 0
M  V30 7915 H 728.345 2.88512 1.24175 0
M  V30 7916 H 727.538 5.03525 0.218833 0
M  V30 7917 H 727.14 3.64857 -0.821897 0
M  V30 7918 H 729.432 6.76996 -0.261227 0
M  V30 7919 H 730.375 6.8528 -1.78318 0
M  V30 7920 H 730.783 5.6176 -0.555511 0
M  V30 7921 N 730.181 0.707592 1.40822 0
M  V30 7922 C 731.428 0.243671 2.01029 0
M  V30 7923 C 731.756 -1.16057 1.5608 0
M  V30 7924 O 731.011 -1.7999 0.768251 0
M  V30 7925 C 731.31 0.262892 3.56432 0
M  V30 7926 C 730.976 1.61632 4.20935 0
M  V30 7927 C 729.638 1.98682 4.38268 0
M  V30 7928 C 731.99 2.50619 4.5699 0
M  V30 7929 C 729.318 3.2428 4.88937 0
M  V30 7930 C 731.67 3.75562 5.09054 0
M  V30 7931 C 730.334 4.12739 5.24598 0
M  V30 7932 H 729.604 0.0891654 0.735616 0
M  V30 7933 H 732.251 0.909051 1.68548 0
M  V30 7934 H 730.556 -0.486052 3.88773 0
M  V30 7935 H 732.253 -0.113775 4.00839 0
M  V30 7936 H 728.843 1.31818 4.07826 0
M  V30 7937 H 733.027 2.23272 4.43242 0
M  V30 7938 H 728.283 3.53064 4.99155 0
M  V30 7939 H 732.457 4.44692 5.35931 0
M  V30 7940 H 730.084 5.10132 5.63622 0
M  V30 7941 N 731.66 -1.50943 0.453197 0
M  V30 7942 C 732.59 -2.31005 -0.34044 0
M  V30 7943 C 733.571 -1.37112 -1.00669 0
M  V30 7944 O 734.756 -1.66033 -1.0073 0
M  V30 7945 C 731.886 -3.16358 -1.433 0
M  V30 7946 C 730.84 -4.18658 -0.889363 0
M  V30 7947 C 730.166 -4.92633 -2.07887 0
M  V30 7948 C 731.466 -5.22227 0.0871142 0
M  V30 7949 H 733.16 -2.97601 0.327723 0
M  V30 7950 H 730.706 -1.43119 0.159054 0
M  V30 7951 H 732.659 -3.71155 -1.99555 0
M  V30 7952 H 731.383 -2.47613 -2.12968 0
M  V30 7953 H 730.042 -3.64936 -0.348915 0
M  V30 7954 H 729.69 -4.20376 -2.76211 0
M  V30 7955 H 729.39 -5.61819 -1.72143 0
M  V30 7956 H 730.914 -5.50258 -2.64666 0
M  V30 7957 H 732.328 -5.72001 -0.385656 0
M  V30 7958 H 730.725 -5.99032 0.357926 0
M  V30 7959 H 731.795 -4.74077 1.01879 0
M  V30 7960 N 733.138 -0.185124 -1.56509 0
M  V30 7961 C 734.366 0.462139 -2.01673 0
M  V30 7962 C 734.781 1.55873 -1.06532 0
M  V30 7963 O 734.138 1.82371 -0.0684805 0
M  V30 7964 C 734.189 1.0277 -3.46584 0
M  V30 7965 O 733.91 -0.0251296 -4.38093 0
M  V30 7966 C 735.411 1.75183 -4.07217 0
M  V30 7967 H 732.631 0.117001 -0.660721 0
M  V30 7968 H 735.175 -0.290905 -2.0242 0
M  V30 7969 H 733.33 1.73118 -3.46568 0
M  V30 7970 H 733.744 0.394387 -5.23015 0
M  V30 7971 H 735.218 2.09999 -5.10494 0
M  V30 7972 H 735.695 2.6519 -3.50101 0
M  V30 7973 H 736.301 1.09445 -4.10977 0
M  V30 7974 N 734.616 1.57351 0.0885366 0
M  V30 7975 C 735.564 2.03542 1.12576 0
M  V30 7976 C 736.558 0.937668 1.41082 0
M  V30 7977 O 737.764 1.12283 1.40686 0
M  V30 7978 H 734.139 0.648752 0.380296 0
M  V30 7979 H 736.11 2.89833 0.709906 0
M  V30 7980 C 734.859 2.4811 2.43591 0
M  V30 7981 H 734.182 3.32164 2.22502 0
M  V30 7982 H 735.622 2.842 3.14653 0
M  V30 7983 C 734.081 1.35708 3.08359 0
M  V30 7984 O 734.611 0.689852 3.95732 0
M  V30 7985 N 732.817 1.10641 2.68713 0
M  V30 7986 H 732.364 1.6508 1.97753 0
M  V30 7987 H 732.322 0.356355 3.12374 0
M  V30 7988 N 736.094 -0.359525 1.53444 0
M  V30 7989 C 737.51 -0.701599 1.43352 0
M  V30 7990 C 737.71 -1.93049 0.577439 0
M  V30 7991 O 736.766 -2.52423 0.0622224 0
M  V30 7992 C 738.079 -0.90915 2.86627 0
M  V30 7993 C 739.627 -1.00878 2.96298 0
M  V30 7994 C 740.102 -1.24876 4.40647 0
M  V30 7995 N 741.593 -1.31632 4.44103 0
M  V30 7996 C 742.328 -1.51922 5.52908 0
M  V30 7997 N 741.824 -1.69489 6.71748 0
M  V30 7998 N 743.617 -1.54341 5.40496 0
M  V30 7999 H 735.768 0.448685 2.07607 0
M  V30 8000 H 738.031 0.138713 0.937797 0
M  V30 8001 H 737.737 -0.0778997 3.51614 0
M  V30 8002 H 737.611 -1.81551 3.30634 0
M  V30 8003 H 739.998 -1.83057 2.31461 0
M  V30 8004 H 740.079 -0.0796721 2.55676 0
M  V30 8005 H 739.723 -0.431961 5.0606 0
M  V30 8006 H 739.653 -2.19118 4.78848 0
M  V30 8007 H 742.144 -1.19646 3.5846 0
M  V30 8008 H 742.457 -1.84561 7.50438 0
M  V30 8009 H 740.802 -1.66655 6.74723 0
M  V30 8010 H 743.993 -1.40188 4.46615 0
M  V30 8011 H 744.166 -1.69812 6.25354 0
M  V30 8012 N 737.572 -1.44907 -0.619662 0
M  V30 8013 C 738.522 -1.49085 -1.72504 0
M  V30 8014 C 739.506 -0.355372 -1.56926 0
M  V30 8015 O 740.698 -0.601441 -1.66468 0
M  V30 8016 C 737.827 -1.44889 -3.11227 0
M  V30 8017 C 736.913 -2.63593 -3.32234 0
M  V30 8018 N 737.304 -3.88775 -3.23555 0
M  V30 8019 C 735.602 -2.59033 -3.63067 0
M  V30 8020 C 736.303 -4.67932 -3.45564 0
M  V30 8021 N 735.279 -3.9919 -3.68983 0
M  V30 8022 H 739.081 -2.43706 -1.6427 0
M  V30 8023 H 736.595 -1.4003 -0.82252 0
M  V30 8024 H 738.592 -1.45966 -3.90512 0
M  V30 8025 H 737.252 -0.513143 -3.2062 0
M  V30 8026 H 738.263 -4.20574 -3.02221 0
M  V30 8027 H 734.94 -1.7431 -3.79371 0
M  V30 8028 H 736.33 -5.76952 -3.44349 0
M  V30 8029 N 739.05 0.861098 -1.31996 0
M  V30 8030 C 740.278 1.6474 -1.25173 0
M  V30 8031 C 740.693 1.87926 0.181425 0
M  V30 8032 O 740.05 1.4437 1.1164 0
M  V30 8033 C 740.101 3.01036 -2.0015 0
M  V30 8034 O 739.822 2.7888 -3.37872 0
M  V30 8035 C 741.323 3.95481 -2.00273 0
M  V30 8036 H 738.543 0.513314 -0.432146 0
M  V30 8037 H 741.087 1.07419 -1.74016 0
M  V30 8038 H 739.242 3.55021 -1.55046 0
M  V30 8039 H 739.656 3.65514 -3.76165 0
M  V30 8040 H 741.13 4.88403 -2.57229 0
M  V30 8041 H 741.607 4.27957 -0.987407 0
M  V30 8042 H 742.213 3.47433 -2.45296 0
M  V30 8043 N 740.528 1.15101 1.07655 0
M  V30 8044 C 741.458 0.867864 2.16773 0
M  V30 8045 C 742.439 -0.180283 1.69142 0
M  V30 8046 O 743.624 -0.0353152 1.94168 0
M  V30 8047 C 740.754 0.35299 3.45501 0
M  V30 8048 C 739.708 1.33746 4.06566 0
M  V30 8049 C 739.034 0.681562 5.30338 0
M  V30 8050 C 740.334 2.7024 4.46954 0
M  V30 8051 H 742.028 1.78034 2.40716 0
M  V30 8052 H 739.574 0.857435 1.15689 0
M  V30 8053 H 741.527 0.142465 4.21159 0
M  V30 8054 H 740.251 -0.594945 3.21135 0
M  V30 8055 H 738.91 1.53429 3.32949 0
M  V30 8056 H 738.558 -0.272422 5.02262 0
M  V30 8057 H 738.258 1.33853 5.72151 0
M  V30 8058 H 739.782 0.48074 6.08705 0
M  V30 8059 H 741.196 2.5442 5.13754 0
M  V30 8060 H 739.593 3.32282 4.99709 0
M  V30 8061 H 740.663 3.26537 3.58471 0
M  V30 8062 N 742.006 -1.2595 0.947325 0
M  V30 8063 C 743.254 -1.93081 0.596996 0
M  V30 8064 C 743.575 -1.74632 -0.867672 0
M  V30 8065 O 742.845 -1.1056 -1.6172 0
M  V30 8066 H 741.425 -0.714542 0.217805 0
M  V30 8067 H 744.087 -1.53265 1.20398 0
M  V30 8068 H 743.183 -3.01134 0.82004 0
M  V30 8069 N 743.484 -0.715051 -1.40445 0
M  V30 8070 C 744.434 -0.038591 -2.27967 0
M  V30 8071 C 745.418 0.733099 -1.43229 0
M  V30 8072 O 746.61 0.605388 -1.66325 0
M  V30 8073 C 743.739 0.882801 -3.31755 0
M  V30 8074 C 742.825 0.106325 -4.23967 0
M  V30 8075 N 743.216 -0.910143 -4.97544 0
M  V30 8076 C 741.514 0.33896 -4.4471 0
M  V30 8077 C 742.215 -1.37665 -5.65175 0
M  V30 8078 N 741.191 -0.698905 -5.39088 0
M  V30 8079 H 744.993 -0.81765 -2.82297 0
M  V30 8080 H 742.507 -0.547591 -1.5289 0
M  V30 8081 H 744.504 1.38273 -3.93302 0
M  V30 8082 H 743.164 1.66124 -2.78985 0
M  V30 8083 H 744.175 -1.29097 -5.01552 0
M  V30 8084 H 740.852 1.09377 -4.02918 0
M  V30 8085 H 742.242 -2.22122 -6.34123 0
M  V30 8086 N 744.962 1.50701 -0.461195 0
M  V30 8087 C 745.892 2.31182 0.328184 0
M  V30 8088 C 746.873 1.37644 0.999408 0
M  V30 8089 O 748.058 1.66565 0.99848 0
M  V30 8090 C 745.188 3.17113 1.41621 0
M  V30 8091 C 744.142 4.19124 0.867148 0
M  V30 8092 C 743.468 4.93728 2.05272 0
M  V30 8093 C 744.768 5.22174 -0.114808 0
M  V30 8094 H 746.462 2.97423 -0.343501 0
M  V30 8095 H 744.008 1.43033 -0.166641 0
M  V30 8096 H 745.961 3.72208 1.97584 0
M  V30 8097 H 744.685 2.48739 2.11652 0
M  V30 8098 H 743.344 3.65116 0.329557 0
M  V30 8099 H 742.992 4.21835 2.73978 0
M  V30 8100 H 742.692 5.62724 1.69161 0
M  V30 8101 H 744.216 5.51654 2.61744 0
M  V30 8102 H 745.63 5.72198 0.355316 0
M  V30 8103 H 744.027 5.98833 -0.389689 0
M  V30 8104 H 745.097 4.7353 -1.04391 0
M  V30 8105 N 746.441 0.193421 1.56409 0
M  V30 8106 C 747.371 -0.723334 2.22014 0
M  V30 8107 C 748.352 -1.22254 1.1827 0
M  V30 8108 O 749.537 -1.27168 1.46771 0
M  V30 8109 C 746.667 -1.94366 2.87818 0
M  V30 8110 C 745.621 -1.57943 3.97791 0
M  V30 8111 C 744.947 -2.87623 4.50752 0
M  V30 8112 C 746.247 -0.790639 5.16281 0
M  V30 8113 H 747.941 -0.176426 2.9888 0
M  V30 8114 H 745.487 -0.0834166 1.43758 0
M  V30 8115 H 747.44 -2.5902 3.32396 0
M  V30 8116 H 746.164 -2.51507 2.08355 0
M  V30 8117 H 744.823 -0.956482 3.53903 0
M  V30 8118 H 744.471 -3.4285 3.68053 0
M  V30 8119 H 744.171 -2.63998 5.24956 0
M  V30 8120 H 745.695 -3.53268 4.9803 0
M  V30 8121 H 747.109 -1.34024 5.57414 0
M  V30 8122 H 745.506 -0.65258 5.96541 0
M  V30 8123 H 746.576 0.208633 4.84451 0
M  V30 8124 N 747.919 -1.57396 -0.0801906 0
M  V30 8125 C 749.144 -1.91437 -0.797909 0
M  V30 8126 C 749.569 -0.789075 -1.70749 0
M  V30 8127 O 748.927 0.25857 -1.79447 0
M  V30 8128 C 748.975 -3.24402 -1.57467 0
M  V30 8129 O 748.079 -3.13043 -2.68473 0
M  V30 8130 H 747.42 -0.627109 -0.218243 0
M  V30 8131 H 749.95 -2.04537 -0.050949 0
M  V30 8132 H 749.96 -3.58072 -1.95571 0
M  V30 8133 H 748.635 -4.05884 -0.907229 0
M  V30 8134 H 747.212 -2.90915 -2.33287 0
M  V30 8135 N 749.397 0.351382 -1.53633 0
M  V30 8136 C 750.327 1.43688 -1.84055 0
M  V30 8137 C 751.308 1.55251 -0.695073 0
M  V30 8138 O 752.493 1.69587 -0.946257 0
M  V30 8139 C 749.623 2.80843 -2.04315 0
M  V30 8140 C 748.577 2.84094 -3.20117 0
M  V30 8141 C 747.903 4.2406 -3.25696 0
M  V30 8142 C 749.203 2.50334 -4.58399 0
M  V30 8143 H 750.897 1.18478 -2.74961 0
M  V30 8144 H 748.443 0.568509 -1.32303 0
M  V30 8145 H 750.396 3.56821 -2.2418 0
M  V30 8146 H 749.12 3.07471 -1.10132 0
M  V30 8147 H 747.779 2.10568 -3.00094 0
M  V30 8148 H 747.427 4.47785 -2.29123 0
M  V30 8149 H 747.127 4.27147 -4.03509 0
M  V30 8150 H 748.651 5.0189 -3.47762 0
M  V30 8151 H 750.065 3.16025 -4.78332 0
M  V30 8152 H 748.462 2.64717 -5.38558 0
M  V30 8153 H 749.532 1.45542 -4.62543 0
M  V30 8154 N 750.875 1.45233 0.611969 0
M  V30 8155 C 752.152 1.39495 1.37115 0
M  V30 8156 C 752.532 0.0633303 2.11005 0
M  V30 8157 O 751.88 -0.954617 2.07604 0
M  V30 8158 C 752.09 2.60579 2.32163 0
M  V30 8159 C 753.438 3.05477 2.94905 0
M  V30 8160 O 754.462 2.60921 2.42485 0
M  V30 8161 O 753.321 3.82787 3.90047 0
M  V30 8162 H 750.415 0.55335 0.614599 0
M  V30 8163 H 752.961 1.57355 0.635423 0
M  V30 8164 H 751.733 3.49085 1.76793 0
M  V30 8165 H 751.356 2.45031 3.13122 0
M  V30 8166 N 752.353 -0.854086 1.3245 0
M  V30 8167 C 753.578 -1.64597 1.26185 0
M  V30 8168 C 754.003 -1.87357 -0.167074 0
M  V30 8169 O 753.361 -1.42675 -1.11864 0
M  V30 8170 C 753.409 -2.98213 2.02734 0
M  V30 8171 O 752.513 -3.88784 1.37554 0
M  V30 8172 H 751.854 -0.50179 0.434859 0
M  V30 8173 H 754.384 -1.06372 1.74775 0
M  V30 8174 H 754.394 -3.4803 2.1293 0
M  V30 8175 H 753.069 -2.80969 3.06642 0
M  V30 8176 H 751.646 -3.4725 1.3591 0
M  V30 8177 N 753.831 -1.1567 -1.07043 0
M  V30 8178 C 755.061 -0.956083 -1.83146 0
M  V30 8179 C 755.469 0.498969 -1.82502 0
M  V30 8180 O 754.812 1.35791 -1.23719 0
M  V30 8181 C 754.874 -1.39704 -3.31245 0
M  V30 8182 C 754.538 -2.87045 -3.55604 0
M  V30 8183 C 755.535 -3.85092 -3.49285 0
M  V30 8184 C 753.22 -3.24787 -3.8317 0
M  V30 8185 C 755.214 -5.18885 -3.70185 0
M  V30 8186 C 752.901 -4.58751 -4.03721 0
M  V30 8187 C 753.899 -5.55609 -3.97224 0
M  V30 8188 O 753.587 -6.87154 -4.17223 0
M  V30 8189 H 753.319 -0.339473 -0.58458 0
M  V30 8190 H 755.873 -1.53922 -1.36005 0
M  V30 8191 H 754.103 -0.757326 -3.79212 0
M  V30 8192 H 755.792 -1.16503 -3.88821 0
M  V30 8193 H 756.558 -3.5728 -3.27988 0
M  V30 8194 H 752.437 -2.49979 -3.87339 0
M  V30 8195 H 755.981 -5.94473 -3.6503 0
M  V30 8196 H 751.878 -4.86277 -4.24505 0
M  V30 8197 H 752.646 -6.93618 -4.34553 0
M  V30 8198 N 755.309 1.25446 -0.953992 0
M  V30 8199 C 756.725 1.4539 -0.658316 0
M  V30 8200 C 756.925 1.85607 0.784356 0
M  V30 8201 O 755.981 1.98568 1.55972 0
M  V30 8202 C 757.294 2.52643 -1.6307 0
M  V30 8203 C 758.842 2.66484 -1.64181 0
M  V30 8204 C 759.317 3.76921 -2.60182 0
M  V30 8205 N 760.808 3.84331 -2.58542 0
M  V30 8206 C 761.543 4.69271 -3.29503 0
M  V30 8207 N 761.039 5.58503 -4.09934 0
M  V30 8208 N 762.832 4.6323 -3.18393 0
M  V30 8209 H 754.983 0.976337 -1.8863 0
M  V30 8210 H 757.246 0.490343 -0.811337 0
M  V30 8211 H 756.952 2.29949 -2.66114 0
M  V30 8212 H 756.826 3.50547 -1.39271 0
M  V30 8213 H 759.213 2.88545 -0.618552 0
M  V30 8214 H 759.294 1.68982 -1.92038 0
M  V30 8215 H 758.938 3.55612 -3.62633 0
M  V30 8216 H 758.868 4.73906 -2.29609 0
M  V30 8217 H 761.359 3.20544 -2.0015 0
M  V30 8218 H 761.672 6.20241 -4.61 0
M  V30 8219 H 760.017 5.58214 -4.14032 0
M  V30 8220 H 763.208 3.92527 -2.5503 0
M  V30 8221 H 763.381 5.29204 -3.73961 0
M  V30 8222 N 756.787 0.722489 1.40064 0
M  V30 8223 C 758.015 0.274838 2.05066 0
M  V30 8224 C 758.43 -1.08586 1.54449 0
M  V30 8225 O 757.787 -1.68375 0.704003 0
M  V30 8226 C 757.838 0.253673 3.60609 0
M  V30 8227 O 757.559 1.56064 4.0936 0
M  V30 8228 C 759.06 -0.211684 4.42794 0
M  V30 8229 H 756.28 0.12226 0.659768 0
M  V30 8230 H 758.824 0.982632 1.79345 0
M  V30 8231 H 756.979 -0.405137 3.85276 0
M  V30 8232 H 757.393 1.46576 5.03603 0
M  V30 8233 H 758.867 -0.175341 5.51721 0
M  V30 8234 H 759.344 -1.25493 4.2089 0
M  V30 8235 H 759.95 0.4171 4.2325 0
M  V30 8236 N 758.265 -1.50454 0.469181 0
M  V30 8237 C 759.493 -2.06729 -0.0842134 0
M  V30 8238 C 759.908 -1.33326 -1.33677 0
M  V30 8239 O 759.265 -0.401977 -1.78018 0
M  V30 8240 C 759.316 -3.59557 -0.374253 0
M  V30 8241 O 759.037 -4.30192 0.828622 0
M  V30 8242 C 760.538 -4.32449 -0.974824 0
M  V30 8243 H 757.758 -0.670971 0.006231 0
M  V30 8244 H 760.302 -1.93645 0.657415 0
M  V30 8245 H 758.457 -3.7245 -1.06581 0
M  V30 8246 H 758.871 -5.21371 0.572066 0
M  V30 8247 H 760.345 -5.40361 -1.12755 0
M  V30 8248 H 760.822 -3.92819 -1.96442 0
M  V30 8249 H 761.428 -4.24082 -0.321703 0
M  V30 8250 N 759.743 -0.201713 -1.56304 0
M  V30 8251 C 760.693 0.729444 -2.16016 0
M  V30 8252 C 761.677 1.17164 -1.10279 0
M  V30 8253 O 762.869 1.12893 -1.36324 0
M  V30 8254 C 759.998 1.94594 -2.82822 0
M  V30 8255 C 759.084 1.52434 -3.95758 0
M  V30 8256 N 759.475 0.814106 -4.99205 0
M  V30 8257 C 757.773 1.81314 -4.07481 0
M  V30 8258 C 758.474 0.601896 -5.78578 0
M  V30 8259 N 757.45 1.15263 -5.3124 0
M  V30 8260 H 761.252 0.178163 -2.93359 0
M  V30 8261 H 758.766 -0.00218038 -1.624 0
M  V30 8262 H 760.763 2.62357 -3.23998 0
M  V30 8263 H 759.423 2.50188 -2.06969 0
M  V30 8264 H 760.434 0.468872 -5.15773 0
M  V30 8265 H 757.111 2.3837 -3.42762 0
M  V30 8266 H 758.501 0.0380119 -6.71889 0
M  V30 8267 N 761.222 1.57436 0.0718424 0
M  V30 8268 C 762.152 2.06724 1.08571 0
M  V30 8269 C 763.133 0.960731 1.40371 0
M  V30 8270 O 764.318 1.23345 1.49999 0
M  V30 8271 C 761.448 2.51112 2.39916 0
M  V30 8272 C 760.402 3.65639 2.22469 0
M  V30 8273 C 759.728 3.96082 3.59198 0
M  V30 8274 C 761.028 4.95687 1.64596 0
M  V30 8275 H 762.722 2.91679 0.675569 0
M  V30 8276 H 760.268 1.40319 0.32352 0
M  V30 8277 H 762.221 2.84206 3.11135 0
M  V30 8278 H 760.945 1.63186 2.8291 0
M  V30 8279 H 759.604 3.32828 1.53691 0
M  V30 8280 H 759.252 3.05287 3.99761 0
M  V30 8281 H 758.952 4.73199 3.48362 0
M  V30 8282 H 760.476 4.31672 4.31847 0
M  V30 8283 H 761.89 5.27011 2.25681 0
M  V30 8284 H 760.287 5.77126 1.64457 0
M  V30 8285 H 761.357 4.8108 0.60744 0
M  V30 8286 N 762.7 -0.34323 1.53817 0
M  V30 8287 C 763.65 -1.42217 1.78208 0
M  V30 8288 C 764.634 -1.4774 0.637304 0
M  V30 8289 O 765.826 -1.52605 0.896705 0
M  V30 8290 C 762.955 -2.79354 1.9954 0
M  V30 8291 C 762.041 -2.78222 3.20084 0
M  V30 8292 N 762.432 -2.46719 4.41547 0
M  V30 8293 C 760.73 -3.09368 3.21259 0
M  V30 8294 C 761.431 -2.53828 5.23399 0
M  V30 8295 N 760.407 -2.89464 4.60121 0
M  V30 8296 H 764.209 -1.16759 2.69712 0
M  V30 8297 H 761.723 -0.551592 1.52746 0
M  V30 8298 H 763.72 -3.57095 2.15148 0
M  V30 8299 H 762.38 -3.05759 1.09278 0
M  V30 8300 H 763.391 -2.19912 4.68891 0
M  V30 8301 H 760.068 -3.40942 2.40966 0
M  V30 8302 H 761.458 -2.32629 6.30344 0
M  V30 8303 N 764.178 -1.45556 -0.604258 0
M  V30 8304 C 765.126 -1.5482 -1.7359 0
M  V30 8305 C 766.12 -0.417966 -1.64163 0
M  V30 8306 O 767.326 -0.594007 -1.69916 0
M  V30 8307 H 763.701 -0.486352 -0.573556 0
M  V30 8308 H 765.672 -2.5001 -1.62903 0
M  V30 8309 C 764.421 -1.53521 -3.11972 0
M  V30 8310 H 763.744 -2.39818 -3.19886 0
M  V30 8311 H 765.184 -1.64061 -3.90973 0
M  V30 8312 C 763.643 -0.260191 -3.35894 0
M  V30 8313 O 764.173 0.658582 -3.96265 0
M  V30 8314 N 762.379 -0.154839 -2.90187 0
M  V30 8315 H 761.926 -0.903378 -2.4124 0
M  V30 8316 H 761.884 0.697437 -3.06567 0
M  V30 8317 N 765.656 0.84705 -1.32902 0
M  V30 8318 C 766.933 1.58583 -1.14503 0
M  V30 8319 C 767.313 2.09075 0.291724 0
M  V30 8320 O 766.661 1.88636 1.28952 0
M  V30 8321 C 766.871 2.72605 -2.17916 0
M  V30 8322 C 768.219 3.41993 -2.51646 0
M  V30 8323 O 769.243 2.82838 -2.1652 0
M  V30 8324 O 768.102 4.48761 -3.1189 0
M  V30 8325 H 765.196 0.698756 -0.442345 0
M  V30 8326 H 767.742 0.890516 -1.44457 0
M  V30 8327 H 766.514 2.32876 -3.14459 0
M  V30 8328 H 766.137 3.49807 -1.89 0
M  V30 8329 N 767.134 1.16236 1.06428 0
M  V30 8330 C 768.064 0.890807 2.1584 0
M  V30 8331 C 769.045 -0.162333 1.69324 0
M  V30 8332 O 770.23 -0.0147191 1.94194 0
M  V30 8333 C 767.36 0.389615 3.45108 0
M  V30 8334 C 766.314 1.38051 4.05125 0
M  V30 8335 C 765.64 0.737773 5.29586 0
M  V30 8336 C 766.94 2.74965 4.44062 0
M  V30 8337 H 768.634 1.80577 2.38814 0
M  V30 8338 H 766.18 0.869657 1.14774 0
M  V30 8339 H 768.133 0.187127 4.20984 0
M  V30 8340 H 766.857 -0.560851 3.21748 0
M  V30 8341 H 765.516 1.56952 3.31303 0
M  V30 8342 H 765.164 -0.219135 5.02522 0
M  V30 8343 H 764.864 1.39914 5.70699 0
M  V30 8344 H 766.388 0.545275 6.0816 0
M  V30 8345 H 767.802 2.59855 5.11027 0
M  V30 8346 H 766.199 3.37563 4.96156 0
M  V30 8347 H 767.269 3.30321 3.54987 0
M  V30 8348 N 768.612 -1.24939 0.960631 0
M  V30 8349 C 769.858 -1.93425 0.629155 0
M  V30 8350 C 770.213 -1.73784 -0.825635 0
M  V30 8351 O 769.506 -1.07595 -1.58536 0
M  V30 8352 C 769.7 -3.45066 0.930809 0
M  V30 8353 C 769.529 -3.79455 2.41337 0
M  V30 8354 C 768.299 -4.01195 3.07197 0
M  V30 8355 C 770.497 -3.86492 3.39306 0
M  V30 8356 N 768.479 -4.22626 4.45265 0
M  V30 8357 C 769.85 -4.12682 4.62702 0
M  V30 8358 C 771.905 -3.69198 3.34061 0
M  V30 8359 C 770.608 -4.23376 5.81502 0
M  V30 8360 C 772.634 -3.81135 4.52206 0
M  V30 8361 C 771.996 -4.07743 5.74391 0
M  V30 8362 H 768.095 -0.729791 0.280943 0
M  V30 8363 H 770.679 -1.50597 1.23404 0
M  V30 8364 H 768.85 -3.86776 0.354801 0
M  V30 8365 H 770.582 -4.00826 0.558627 0
M  V30 8366 H 767.337 -3.97319 2.5775 0
M  V30 8367 H 767.761 -4.37335 5.16785 0
M  V30 8368 H 772.403 -3.47639 2.40638 0
M  V30 8369 H 770.121 -4.4375 6.75361 0
M  V30 8370 H 773.707 -3.69133 4.49702 0
M  V30 8371 H 772.587 -4.16768 6.64284 0
M  V30 8372 N 770.09 -0.729906 -1.39679 0
M  V30 8373 C 771 -0.0880322 -2.34435 0
M  V30 8374 C 772.016 0.727674 -1.58053 0
M  V30 8375 O 773.192 0.657321 -1.90371 0
M  V30 8376 C 770.257 0.812211 -3.37052 0
M  V30 8377 C 769.318 -0.0151681 -4.29297 0
M  V30 8378 C 768.551 0.842202 -5.27013 0
M  V30 8379 O 768.774 2.08108 -5.31081 0
M  V30 8380 O 767.708 0.27357 -6.01278 0
M  V30 8381 H 771.534 -0.869989 -2.90972 0
M  V30 8382 H 769.119 -0.490522 -1.41118 0
M  V30 8383 H 771.001 1.32745 -3.99946 0
M  V30 8384 H 769.676 1.57307 -2.82907 0
M  V30 8385 H 768.583 -0.575811 -3.69642 0
M  V30 8386 H 769.916 -0.738129 -4.86634 0
M  V30 8387 N 771.568 1.50203 -0.477153 0
M  V30 8388 C 772.814 2.02658 0.0758507 0
M  V30 8389 C 773.147 1.358 1.38824 0
M  V30 8390 O 772.422 0.485696 1.88338 0
M  V30 8391 C 772.705 3.59208 0.253339 0
M  V30 8392 C 772.558 4.36629 -1.0805 0
M  V30 8393 C 773.877 4.28469 1.00509 0
M  V30 8394 H 770.996 0.736538 0.0260921 0
M  V30 8395 H 773.638 1.79464 -0.623925 0
M  V30 8396 H 771.788 3.79101 0.849378 0
M  V30 8397 H 773.46 4.28292 -1.71358 0
M  V30 8398 H 771.703 4.0013 -1.67566 0
M  V30 8399 H 772.374 5.44449 -0.909883 0
M  V30 8400 H 774.85 4.13087 0.499818 0
M  V30 8401 H 773.726 5.37804 1.09808 0
M  V30 8402 H 773.987 3.92057 2.04314 0
M  V30 8403 N 773.046 0.209999 1.56195 0
M  V30 8404 C 774.293 -0.424813 1.97994 0
M  V30 8405 C 774.621 -1.60589 1.09733 0
M  V30 8406 O 773.876 -1.95201 0.139693 0
M  V30 8407 C 774.175 -0.91312 3.45539 0
M  V30 8408 C 773.841 0.156187 4.50629 0
M  V30 8409 C 772.503 0.449966 4.79092 0
M  V30 8410 C 774.855 0.879959 5.13718 0
M  V30 8411 C 772.183 1.47223 5.67928 0
M  V30 8412 C 774.535 1.89148 6.0366 0
M  V30 8413 C 773.199 2.1923 6.30472 0
M  V30 8414 H 772.469 -0.15545 0.724511 0
M  V30 8415 H 775.116 0.310095 1.88973 0
M  V30 8416 H 773.421 -1.72658 3.51705 0
M  V30 8417 H 775.118 -1.41395 3.75245 0
M  V30 8418 H 771.708 -0.0829466 4.2852 0
M  V30 8419 H 775.892 0.66623 4.91808 0
M  V30 8420 H 771.148 1.71105 5.86969 0
M  V30 8421 H 775.322 2.45745 6.516 0
M  V30 8422 H 772.949 2.98587 6.99107 0
M  V30 8423 N 774.524 -1.57472 -0.0634922 0
M  V30 8424 C 775.749 -1.92273 -0.77756 0
M  V30 8425 C 776.174 -0.807141 -1.69902 0
M  V30 8426 O 775.532 0.239523 -1.79711 0
M  V30 8427 C 775.58 -3.26054 -1.54017 0
M  V30 8428 O 774.684 -3.15873 -2.65138 0
M  V30 8429 H 774.025 -0.629389 -0.211579 0
M  V30 8430 H 776.555 -2.04579 -0.0292523 0
M  V30 8431 H 776.565 -3.60127 -1.91763 0
M  V30 8432 H 775.24 -4.06824 -0.864128 0
M  V30 8433 H 773.817 -2.93373 -2.30189 0
M  V30 8434 N 776.003 0.335068 -1.53997 0
M  V30 8435 C 776.951 1.43206 -1.83289 0
M  V30 8436 C 777.945 1.54081 -0.703953 0
M  V30 8437 O 779.151 1.56603 -0.887432 0
M  V30 8438 H 775.526 0.477655 -0.580818 0
M  V30 8439 H 777.497 1.15719 -2.75049 0
M  V30 8440 C 776.246 2.79602 -2.06683 0
M  V30 8441 H 775.569 2.72004 -2.93008 0
M  V30 8442 H 777.009 3.55459 -2.31139 0
M  V30 8443 C 775.468 3.25873 -0.854883 0
M  V30 8444 O 775.998 4.01657 -0.0584648 0
M  V30 8445 N 774.204 2.82777 -0.669729 0
M  V30 8446 H 773.751 2.21269 -1.31901 0
M  V30 8447 H 773.709 3.1409 0.13969 0
M  V30 8448 N 777.481 1.45874 0.596531 0
M  V30 8449 C 778.892 1.44798 1.17857 0
M  V30 8450 C 779.243 0.181443 1.95359 0
M  V30 8451 O 778.368 -0.716336 2.042 0
M  V30 8452 C 778.963 2.62333 2.14398 0
M  V30 8453 C 777.522 2.64342 2.67955 0
M  V30 8454 C 776.669 2.37244 1.43564 0
M  V30 8455 H 779.62 1.53954 0.385222 0
M  V30 8456 H 779.641 2.37063 2.97626 0
M  V30 8457 H 779.153 3.54499 1.57963 0
M  V30 8458 H 777.254 1.76213 3.28298 0
M  V30 8459 H 777.367 3.63897 3.11634 0
M  V30 8460 H 775.731 1.87022 1.72901 0
M  V30 8461 H 776.514 3.31568 0.889805 0
M  V30 8462 N 778.959 -0.83999 1.33349 0
M  V30 8463 C 779.869 -1.98182 1.25543 0
M  V30 8464 C 780.885 -1.73204 0.166208 0
M  V30 8465 O 782.061 -1.97596 0.389589 0
M  V30 8466 C 779.126 -3.32157 0.993614 0
M  V30 8467 C 778.187 -3.70258 2.17273 0
M  V30 8468 C 777.42 -4.9784 1.92331 0
M  V30 8469 O 777.643 -5.63679 0.873074 0
M  V30 8470 O 776.577 -5.33418 2.78835 0
M  V30 8471 H 780.403 -2.07708 2.21565 0
M  V30 8472 H 777.988 -0.972852 1.13384 0
M  V30 8473 H 779.87 -4.12433 0.864711 0
M  V30 8474 H 778.545 -3.23637 0.0636596 0
M  V30 8475 H 777.452 -2.90497 2.35716 0
M  V30 8476 H 778.785 -3.83442 3.08598 0
M  V30 8477 N 780.437 -1.16799 -1.0581 0
M  V30 8478 C 781.714 -0.862616 -1.75551 0
M  V30 8479 C 782.094 0.6385 -2.01212 0
M  V30 8480 O 781.442 1.58784 -1.64317 0
M  V30 8481 C 781.652 -1.6907 -3.05314 0
M  V30 8482 C 783 -1.90675 -3.79379 0
M  V30 8483 O 784.024 -1.65976 -3.15167 0
M  V30 8484 O 782.883 -2.32145 -4.94743 0
M  V30 8485 H 779.977 -0.318789 -0.763088 0
M  V30 8486 H 782.523 -1.27461 -1.12034 0
M  V30 8487 H 781.295 -2.70912 -2.82352 0
M  V30 8488 H 780.918 -1.27606 -3.76567 0
M  V30 8489 N 781.915 1.24427 -0.967243 0
M  V30 8490 C 783.161 1.93089 -0.639404 0
M  V30 8491 C 783.516 1.7422 0.816407 0
M  V30 8492 O 782.809 1.08435 1.57964 0
M  V30 8493 C 783.003 3.44568 -0.949096 0
M  V30 8494 C 782.832 3.7817 -2.43346 0
M  V30 8495 C 781.602 3.99561 -3.09321 0
M  V30 8496 C 783.8 3.84687 -3.41351 0
M  V30 8497 N 781.782 4.20259 -4.475 0
M  V30 8498 C 783.153 4.10223 -4.64884 0
M  V30 8499 C 785.208 3.67421 -3.36015 0
M  V30 8500 C 783.911 4.20286 -5.8374 0
M  V30 8501 C 785.937 3.78731 -4.54221 0
M  V30 8502 C 785.299 4.04691 -5.76545 0
M  V30 8503 H 781.398 0.728291 -0.284809 0
M  V30 8504 H 783.982 1.49941 -1.24201 0
M  V30 8505 H 782.153 3.86582 -0.375308 0
M  V30 8506 H 783.885 4.00524 -0.579876 0
M  V30 8507 H 780.64 3.95946 -2.59853 0
M  V30 8508 H 781.064 4.34588 -5.19097 0
M  V30 8509 H 785.706 3.46358 -2.42479 0
M  V30 8510 H 783.424 4.40162 -6.77704 0
M  V30 8511 H 787.01 3.66743 -4.51653 0
M  V30 8512 H 785.89 4.1324 -6.66485 0
M  V30 8513 N 783.393 0.737304 1.3929 0
M  V30 8514 C 784.34 0.0988364 2.30588 0
M  V30 8515 C 785.31 -0.727206 1.49335 0
M  V30 8516 O 786.495 -0.686694 1.78014 0
M  V30 8517 C 783.635 -0.800734 3.35682 0
M  V30 8518 C 782.748 0.0381731 4.31983 0
M  V30 8519 C 781.883 -0.862884 5.24145 0
M  V30 8520 C 780.922 -0.0193639 6.12097 0
M  V30 8521 N 780.059 -0.87648 6.96608 0
M  V30 8522 H 784.899 0.883031 2.84617 0
M  V30 8523 H 782.436 0.447111 1.4014 0
M  V30 8524 H 784.394 -1.33676 3.95205 0
M  V30 8525 H 783.024 -1.55088 2.83103 0
M  V30 8526 H 782.076 0.691641 3.74059 0
M  V30 8527 H 783.388 0.690294 4.94 0
M  V30 8528 H 782.542 -1.46667 5.88705 0
M  V30 8529 H 781.281 -1.54878 4.62454 0
M  V30 8530 H 780.286 0.597202 5.46547 0
M  V30 8531 H 781.511 0.663348 6.75852 0
M  V30 8532 H 779.457 -1.54762 6.37483 0
M  V30 8533 H 779.374 -0.280892 7.55478 0
M  V30 8534 H 780.642 -1.46575 7.65595 0
M  V30 8535 N 784.871 -1.49948 0.485112 0
M  V30 8536 C 785.781 -2.32587 -0.306697 0
M  V30 8537 C 786.797 -1.43598 -0.982632 0
M  V30 8538 O 787.973 -1.76638 -0.967519 0
M  V30 8539 C 785.038 -3.18638 -1.3664 0
M  V30 8540 C 784.099 -4.23462 -0.705589 0
M  V30 8541 C 783.332 -5.05401 -1.7148 0
M  V30 8542 O 783.555 -4.88618 -2.94293 0
M  V30 8543 O 782.489 -5.88157 -1.27889 0
M  V30 8544 H 786.315 -3.01447 0.369272 0
M  V30 8545 H 783.9 -1.47349 0.246709 0
M  V30 8546 H 785.782 -3.71992 -1.9799 0
M  V30 8547 H 784.457 -2.52491 -2.02559 0
M  V30 8548 H 783.364 -3.74063 -0.0527733 0
M  V30 8549 H 784.697 -4.92119 -0.0891187 0
M  V30 8550 N 786.349 -0.21828 -1.56081 0
M  V30 8551 C 787.296 0.693189 -2.20144 0
M  V30 8552 C 788.266 1.19274 -1.15598 0
M  V30 8553 O 789.451 1.25243 -1.4394 0
M  V30 8554 C 786.591 1.89715 -2.88275 0
M  V30 8555 C 785.704 1.4368 -4.07407 0
M  V30 8556 C 784.839 2.59807 -4.63329 0
M  V30 8557 C 783.878 2.10492 -5.74769 0
M  V30 8558 N 783.015 3.1988 -6.24997 0
M  V30 8559 H 787.855 0.14016 -2.9767 0
M  V30 8560 H 785.392 0.0574292 -1.46988 0
M  V30 8561 H 787.35 2.60398 -3.25958 0
M  V30 8562 H 785.98 2.42311 -2.13273 0
M  V30 8563 H 785.032 0.625007 -3.7523 0
M  V30 8564 H 786.344 1.03517 -4.8794 0
M  V30 8565 H 785.498 3.38577 -5.03438 0
M  V30 8566 H 784.237 3.03256 -3.81951 0
M  V30 8567 H 783.242 1.30182 -5.34165 0
M  V30 8568 H 784.467 1.68045 -6.5798 0
M  V30 8569 H 782.413 3.62817 -5.46534 0
M  V30 8570 H 782.33 2.83958 -7.00645 0
M  V30 8571 H 783.598 3.98796 -6.69763 0
M  V30 8572 N 787.827 1.57504 0.0551401 0
M  V30 8573 C 789.057 1.92015 0.762472 0
M  V30 8574 C 789.465 0.814088 1.7079 0
M  V30 8575 O 788.808 -0.220273 1.82375 0
M  V30 8576 C 788.87 3.22132 1.59598 0
M  V30 8577 C 788.534 4.49617 0.818141 0
M  V30 8578 C 789.531 5.19738 0.129933 0
M  V30 8579 C 787.216 4.96201 0.780387 0
M  V30 8580 C 789.21 6.34704 -0.585616 0
M  V30 8581 C 786.897 6.11069 0.0610756 0
M  V30 8582 C 787.895 6.80174 -0.62071 0
M  V30 8583 O 787.583 7.92849 -1.3284 0
M  V30 8584 H 787.315 0.638866 0.220967 0
M  V30 8585 H 789.869 2.05385 0.0246362 0
M  V30 8586 H 788.099 3.05016 2.37701 0
M  V30 8587 H 789.788 3.42166 2.18351 0
M  V30 8588 H 790.554 4.84767 0.150299 0
M  V30 8589 H 786.433 4.42275 1.30054 0
M  V30 8590 H 789.977 6.88578 -1.11833 0
M  V30 8591 H 785.874 6.45488 0.0386945 0
M  V30 8592 H 786.642 8.09062 -1.23938 0
M  V30 8593 N 789.305 -0.326896 1.54172 0
M  V30 8594 C 790.554 -1.06274 1.71431 0
M  V30 8595 C 790.867 -1.89282 0.493123 0
M  V30 8596 O 792.073 -2.65933 0.54699 0
M  V30 8597 C 790.529 -1.93892 3.03206 0
M  V30 8598 C 790.137 -1.16011 4.32719 0
M  V30 8599 C 791.881 -2.67232 3.29829 0
M  V30 8600 C 789.788 -2.02755 5.55558 0
M  V30 8601 H 788.718 -0.400475 0.638855 0
M  V30 8602 H 791.369 -0.321184 1.80667 0
M  V30 8603 H 789.751 -2.71933 2.87869 0
M  V30 8604 H 790.925 -0.427643 4.58811 0
M  V30 8605 H 789.24 -0.54367 4.12836 0
M  V30 8606 H 791.837 -3.32434 4.18798 0
M  V30 8607 H 792.18 -3.34692 2.47562 0
M  V30 8608 H 792.713 -1.96255 3.46018 0
M  V30 8609 H 789.452 -1.3981 6.40417 0
M  V30 8610 H 788.972 -2.73745 5.33689 0
M  V30 8611 H 790.651 -2.61419 5.91835 0
M  V30 8612 N 790.784 -1.46188 -0.588786 0
M  V30 8613 C 791.734 -1.5271 -1.69303 0
M  V30 8614 C 792.718 -0.388578 -1.56137 0
M  V30 8615 O 793.91 -0.636616 -1.65155 0
M  V30 8616 C 791.039 -1.51457 -3.08084 0
M  V30 8617 C 790.125 -2.70581 -3.26568 0
M  V30 8618 N 790.516 -3.9555 -3.15236 0
M  V30 8619 C 788.814 -2.66676 -3.57491 0
M  V30 8620 C 789.515 -4.75157 -3.35561 0
M  V30 8621 N 788.491 -4.06927 -3.60432 0
M  V30 8622 H 792.293 -2.47136 -1.59063 0
M  V30 8623 H 789.807 -1.41743 -0.792632 0
M  V30 8624 H 791.804 -1.54216 -3.87328 0
M  V30 8625 H 790.464 -0.581036 -3.19459 0
M  V30 8626 H 791.475 -4.2689 -2.93232 0
M  V30 8627 H 788.152 -1.82317 -3.75588 0
M  V30 8628 H 789.542 -5.84126 -3.32034 0
M  V30 8629 N 792.262 0.832906 -1.33792 0
M  V30 8630 C 793.194 1.95042 -1.2038 0
M  V30 8631 C 794.207 1.62253 -0.133299 0
M  V30 8632 O 795.396 1.74315 -0.384261 0
M  V30 8633 C 792.496 3.287 -0.825215 0
M  V30 8634 C 791.669 3.89581 -1.98861 0
M  V30 8635 C 790.728 5.01602 -1.59003 0
M  V30 8636 O 789.754 5.20431 -2.30522 0
M  V30 8637 N 790.956 5.78356 -0.498446 0
M  V30 8638 H 793.721 2.07083 -2.16649 0
M  V30 8639 H 791.282 1.00896 -1.26616 0
M  V30 8640 H 793.274 4.01074 -0.540559 0
M  V30 8641 H 791.844 3.12565 0.0469796 0
M  V30 8642 H 791.064 3.09723 -2.43856 0
M  V30 8643 H 792.352 4.26989 -2.76691 0
M  V30 8644 H 791.75 5.65618 0.0963297 0
M  V30 8645 H 790.307 6.51226 -0.273485 0
M  V30 8646 N 793.74 1.17359 1.05189 0
M  V30 8647 C 794.688 0.886527 2.15043 0
M  V30 8648 C 795.682 -0.148834 1.68745 0
M  V30 8649 O 796.888 -0.00175123 1.8 0
M  V30 8650 H 793.263 0.269147 0.702185 0
M  V30 8651 H 795.234 1.82016 2.36459 0
M  V30 8652 C 793.983 0.416333 3.45198 0
M  V30 8653 H 793.306 1.20449 3.81225 0
M  V30 8654 H 794.746 0.254362 4.23236 0
M  V30 8655 C 793.205 -0.866016 3.25579 0
M  V30 8656 O 793.735 -1.9328 3.52144 0
M  V30 8657 N 791.941 -0.814179 2.78961 0
M  V30 8658 H 791.488 0.0541618 2.57543 0
M  V30 8659 H 791.446 -1.67264 2.66214 0
M  V30 8660 N 795.218 -1.23913 0.973828 0
M  V30 8661 C 796.448 -1.95911 0.655938 0
M  V30 8662 C 796.856 -1.72375 -0.779967 0
M  V30 8663 O 796.199 -1.00807 -1.5357 0
M  V30 8664 C 796.261 -3.49103 0.858324 0
M  V30 8665 C 795.925 -3.96347 2.27504 0
M  V30 8666 C 796.922 -4.05537 3.25324 0
M  V30 8667 C 794.607 -4.29509 2.60437 0
M  V30 8668 C 796.601 -4.47233 4.5416 0
M  V30 8669 C 794.288 -4.70887 3.89498 0
M  V30 8670 C 795.286 -4.79714 4.86172 0
M  V30 8671 O 794.974 -5.20166 6.1293 0
M  V30 8672 H 794.706 -0.630721 0.243244 0
M  V30 8673 H 797.26 -1.58534 1.30599 0
M  V30 8674 H 795.49 -3.86405 0.151097 0
M  V30 8675 H 797.179 -4.02311 0.538592 0
M  V30 8676 H 797.945 -3.80128 3.0121 0
M  V30 8677 H 793.824 -4.21853 1.85906 0
M  V30 8678 H 797.368 -4.54038 5.29618 0
M  V30 8679 H 793.265 -4.95744 4.1341 0
M  V30 8680 H 794.033 -5.38298 6.16586 0
M  V30 8681 N 796.696 -0.74468 -1.38897 0
M  V30 8682 C 797.924 -0.307428 -2.04603 0
M  V30 8683 C 798.339 1.06115 -1.56157 0
M  V30 8684 O 797.696 1.67233 -0.730701 0
M  V30 8685 C 797.747 -0.31101 -3.6016 0
M  V30 8686 O 797.468 -1.62557 -4.06825 0
M  V30 8687 C 798.969 0.141213 -4.43075 0
M  V30 8688 H 796.189 -0.132741 -0.657739 0
M  V30 8689 H 798.733 -1.01104 -1.77759 0
M  V30 8690 H 796.888 0.343792 -3.85872 0
M  V30 8691 H 797.302 -1.54569 -5.01207 0
M  V30 8692 H 798.776 0.0875449 -5.51931 0
M  V30 8693 H 799.253 1.18782 -4.22833 0
M  V30 8694 H 799.859 -0.484383 -4.22533 0
M  V30 8695 N 798.174 1.49689 -0.493057 0
M  V30 8696 C 799.121 2.28976 0.28959 0
M  V30 8697 C 800.091 1.35011 0.967536 0
M  V30 8698 O 801.276 1.63964 0.975736 0
M  V30 8699 C 798.416 3.1748 1.35279 0
M  V30 8700 C 797.529 4.26496 0.687418 0
M  V30 8701 C 796.664 5.02226 1.73038 0
M  V30 8702 C 795.703 6.03089 1.04645 0
M  V30 8703 N 794.84 6.72014 2.03325 0
M  V30 8704 H 799.68 2.954 -0.392798 0
M  V30 8705 H 797.217 1.45657 -0.205554 0
M  V30 8706 H 799.175 3.67162 1.98111 0
M  V30 8707 H 797.805 2.53057 2.00405 0
M  V30 8708 H 796.857 3.80362 -0.0540001 0
M  V30 8709 H 798.169 4.98578 0.14864 0
M  V30 8710 H 797.323 5.55737 2.43395 0
M  V30 8711 H 796.062 4.29899 2.303 0
M  V30 8712 H 795.067 5.48817 0.328606 0
M  V30 8713 H 796.292 6.77398 0.480428 0
M  V30 8714 H 794.238 6.02464 2.59564 0
M  V30 8715 H 794.155 7.40046 1.54492 0
M  V30 8716 H 795.423 7.30133 2.72995 0
M  V30 8717 N 799.652 0.226554 1.55963 0
M  V30 8718 C 800.615 -0.668015 2.19249 0
M  V30 8719 C 801.615 -1.11794 1.1558 0
M  V30 8720 O 802.805 -1.02593 1.40784 0
M  V30 8721 C 799.937 -1.91571 2.81981 0
M  V30 8722 H 801.13 -0.116175 2.99675 0
M  V30 8723 H 798.683 -0.0230497 1.56283 0
M  V30 8724 H 799.418 -2.50929 2.05439 0
M  V30 8725 H 799.203 -1.6015 3.57903 0
M  V30 8726 H 800.693 -2.55294 3.30477 0
M  V30 8727 N 801.13 -1.57531 -0.0467866 0
M  V30 8728 C 802.06 -2.08425 -1.05268 0
M  V30 8729 C 803.041 -0.982941 -1.38825 0
M  V30 8730 O 804.226 -1.25716 -1.48018 0
M  V30 8731 C 801.356 -2.54897 -2.35891 0
M  V30 8732 C 800.31 -3.69132 -2.16623 0
M  V30 8733 C 799.636 -4.01747 -3.52851 0
M  V30 8734 C 800.936 -4.98243 -1.56689 0
M  V30 8735 H 802.63 -2.92716 -0.62908 0
M  V30 8736 H 800.176 -1.40816 -0.301156 0
M  V30 8737 H 802.129 -2.8912 -3.06574 0
M  V30 8738 H 800.853 -1.67666 -2.80278 0
M  V30 8739 H 799.512 -3.35231 -1.48377 0
M  V30 8740 H 799.16 -3.11608 -3.94853 0
M  V30 8741 H 798.86 -4.78681 -3.4079 0
M  V30 8742 H 800.384 -4.38487 -4.24925 0
M  V30 8743 H 801.798 -5.30535 -2.17268 0
M  V30 8744 H 800.195 -5.79669 -1.55255 0
M  V30 8745 H 801.265 -4.81986 -0.530827 0
M  V30 8746 N 802.608 0.318715 -1.54344 0
M  V30 8747 C 803.571 1.37545 -1.83342 0
M  V30 8748 C 804.571 1.445 -0.705444 0
M  V30 8749 O 805.761 1.44443 -0.973752 0
M  V30 8750 C 802.893 2.76225 -1.99781 0
M  V30 8751 H 804.086 1.13084 -2.77762 0
M  V30 8752 H 801.639 0.554457 -1.46135 0
M  V30 8753 H 802.374 3.05934 -1.07588 0
M  V30 8754 H 802.159 2.7257 -2.81865 0
M  V30 8755 H 803.649 3.52664 -2.23647 0
M  V30 8756 N 804.086 1.46499 0.581025 0
M  V30 8757 C 805.334 1.51596 1.33653 0
M  V30 8758 C 805.655 0.169859 1.94259 0
M  V30 8759 O 804.925 -0.803776 1.78651 0
M  V30 8760 H 803.505 0.558346 0.496244 0
M  V30 8761 H 806.167 1.8264 0.680338 0
M  V30 8762 H 805.263 2.26956 2.14237 0
M  V30 8763 N 805.565 -0.825799 1.34232 0
M  V30 8764 C 806.512 -1.93651 1.2557 0
M  V30 8765 C 807.482 -1.65578 0.131536 0
M  V30 8766 O 808.667 -1.88231 0.312027 0
M  V30 8767 C 805.807 -3.29862 1.01415 0
M  V30 8768 C 804.92 -3.70247 2.22579 0
M  V30 8769 C 804.055 -4.95392 1.91731 0
M  V30 8770 C 803.094 -5.28349 3.09053 0
M  V30 8771 N 802.231 -6.44671 2.78107 0
M  V30 8772 H 807.071 -2.00392 2.20561 0
M  V30 8773 H 804.608 -0.980441 1.09662 0
M  V30 8774 H 806.566 -4.08356 0.854485 0
M  V30 8775 H 805.196 -3.22642 0.100936 0
M  V30 8776 H 804.248 -2.87169 2.49476 0
M  V30 8777 H 805.56 -3.90575 3.10246 0
M  V30 8778 H 804.714 -5.81665 1.72484 0
M  V30 8779 H 803.453 -4.77059 1.0132 0
M  V30 8780 H 802.458 -4.40574 3.289 0
M  V30 8781 H 803.683 -5.48622 4.00239 0
M  V30 8782 H 801.629 -6.278 1.9027 0
M  V30 8783 H 801.546 -6.65158 3.59306 0
M  V30 8784 H 802.814 -7.34022 2.62358 0
M  V30 8785 N 807.043 -1.17915 -1.04565 0
M  V30 8786 C 807.973 -0.925033 -2.14395 0
M  V30 8787 C 808.954 0.135375 -1.6956 0
M  V30 8788 O 810.139 -0.0161774 -1.94193 0
M  V30 8789 C 807.269 -0.444469 -3.44444 0
M  V30 8790 C 806.223 -1.44478 -4.02877 0
M  V30 8791 C 805.549 -0.821933 -5.28345 0
M  V30 8792 C 806.849 -2.81995 -4.39632 0
M  V30 8793 H 808.543 -1.84354 -2.35911 0
M  V30 8794 H 806.089 -0.887806 -1.13375 0
M  V30 8795 H 808.042 -0.254078 -4.20633 0
M  V30 8796 H 806.766 0.509592 -3.226 0
M  V30 8797 H 805.425 -1.62203 -3.28764 0
M  V30 8798 H 805.073 0.139161 -5.02807 0
M  V30 8799 H 804.773 -1.48976 -5.68401 0
M  V30 8800 H 806.297 -0.641959 -6.07216 0
M  V30 8801 H 807.711 -2.67952 -5.06828 0
M  V30 8802 H 806.108 -3.45414 -4.90723 0
M  V30 8803 H 807.178 -3.35927 -3.49687 0
M  V30 8804 N 808.521 1.23394 -0.980386 0
M  V30 8805 C 809.767 1.92094 -0.650223 0
M  V30 8806 C 810.1 1.76309 0.814173 0
M  V30 8807 O 809.375 1.12406 1.5873 0
M  V30 8808 C 809.658 3.44713 -1.04139 0
M  V30 8809 C 809.511 3.69606 -2.56342 0
M  V30 8810 C 810.83 4.36191 -0.585296 0
M  V30 8811 H 807.949 0.697618 -0.237695 0
M  V30 8812 H 810.591 1.45517 -1.22167 0
M  V30 8813 H 808.741 3.84513 -0.55515 0
M  V30 8814 H 810.413 3.39288 -3.1254 0
M  V30 8815 H 808.656 3.14318 -2.98976 0
M  V30 8816 H 809.327 4.76441 -2.78762 0
M  V30 8817 H 811.803 4.03836 -1.00276 0
M  V30 8818 H 810.679 5.41679 -0.887428 0
M  V30 8819 H 810.94 4.39097 0.51438 0
M  V30 8820 N 809.999 0.752036 1.385 0
M  V30 8821 C 810.909 0.125318 2.34265 0
M  V30 8822 C 811.925 -0.702437 1.59191 0
M  V30 8823 O 813.101 -0.626951 1.91393 0
M  V30 8824 C 810.166 -0.758486 3.38301 0
M  V30 8825 C 809.227 0.0834636 4.29219 0
M  V30 8826 C 808.46 -0.758252 5.28286 0
M  V30 8827 O 808.683 -1.99632 5.34325 0
M  V30 8828 O 807.617 -0.177878 6.01637 0
M  V30 8829 H 811.443 0.91617 2.89551 0
M  V30 8830 H 809.028 0.512911 1.4032 0
M  V30 8831 H 810.91 -1.26365 4.02007 0
M  V30 8832 H 809.585 -1.52786 2.85374 0
M  V30 8833 H 808.492 0.634545 3.68679 0
M  V30 8834 H 809.825 0.815455 4.85398 0
M  V30 8835 N 811.477 -1.49425 0.500989 0
M  V30 8836 C 812.705 -2.06861 -0.0403443 0
M  V30 8837 C 813.12 -1.36132 -1.30819 0
M  V30 8838 O 812.477 -0.439647 -1.77125 0
M  V30 8839 C 812.528 -3.6027 -0.297902 0
M  V30 8840 O 812.249 -4.28338 0.919686 0
M  V30 8841 C 813.75 -4.34419 -0.882876 0
M  V30 8842 H 810.97 -0.670688 0.0204619 0
M  V30 8843 H 813.514 -1.92207 0.698342 0
M  V30 8844 H 811.669 -3.74627 -0.98657 0
M  V30 8845 H 812.083 -5.2004 0.682528 0
M  V30 8846 H 813.557 -5.42631 -1.01268 0
M  V30 8847 H 814.034 -3.96898 -1.88066 0
M  V30 8848 H 814.64 -4.24669 -0.231677 0
M  V30 8849 N 812.955 -0.234822 -1.55841 0
M  V30 8850 C 814.366 0.270588 -1.84729 0
M  V30 8851 C 814.717 1.58494 -1.15646 0
M  V30 8852 O 813.842 2.12071 -0.430667 0
M  V30 8853 C 814.437 0.497733 -3.35124 0
M  V30 8854 C 812.996 0.947428 -3.64281 0
M  V30 8855 C 812.143 0.01787 -2.77294 0
M  V30 8856 H 815.094 -0.457691 -1.51957 0
M  V30 8857 H 815.115 1.34199 -3.56049 0
M  V30 8858 H 814.627 -0.459037 -3.85376 0
M  V30 8859 H 812.728 1.91709 -3.19497 0
M  V30 8860 H 812.841 0.812651 -4.72158 0
M  V30 8861 H 811.205 0.527071 -2.49187 0
M  V30 8862 H 811.988 -0.934056 -3.30349 0
M  V30 8863 N 814.433 1.57553 0.0384317 0
M  V30 8864 C 815.673 1.90687 0.736069 0
M  V30 8865 C 816.037 0.832381 1.73019 0
M  V30 8866 O 817.238 1.04777 2.47538 0
M  V30 8867 C 815.509 3.28994 1.39635 0
M  V30 8868 S 817.068 3.83944 2.12444 0
M  V30 8869 H 813.886 0.667799 0.244059 0
M  V30 8870 H 816.488 1.95498 -0.00901643 0
M  V30 8871 H 815.192 4.05067 0.659465 0
M  V30 8872 H 814.723 3.27463 2.18018 0
M  V30 8873 H 816.738 3.61916 3.39457 0
M  V30 8874 N 815.911 -0.310526 1.54511 0
M  V30 8875 C 817.322 -0.884142 1.64438 0
M  V30 8876 C 817.673 -1.88425 0.546855 0
M  V30 8877 O 816.798 -2.14049 -0.31811 0
M  V30 8878 C 817.393 -1.6104 2.9808 0
M  V30 8879 C 815.952 -2.13255 3.1016 0
M  V30 8880 C 815.099 -0.96213 2.60074 0
M  V30 8881 H 818.05 -0.0877666 1.58457 0
M  V30 8882 H 818.071 -2.47541 2.8897 0
M  V30 8883 H 817.583 -0.882255 3.77939 0
M  V30 8884 H 815.684 -2.89145 2.35002 0
M  V30 8885 H 815.797 -2.37361 4.16169 0
M  V30 8886 H 814.161 -1.34501 2.16291 0
M  V30 8887 H 814.944 -0.248098 3.42402 0
M  V30 8888 N 817.389 -1.46805 -0.573248 0
M  V30 8889 C 818.666 -1.43082 -1.33368 0
M  V30 8890 C 819.046 -0.119252 -2.10763 0
M  V30 8891 O 818.394 0.899239 -2.10062 0
M  V30 8892 C 818.604 -2.66643 -2.25172 0
M  V30 8893 C 819.952 -3.13188 -2.86702 0
M  V30 8894 O 820.976 -2.67258 -2.35482 0
M  V30 8895 O 819.835 -3.92994 -3.79761 0
M  V30 8896 H 816.929 -0.569451 -0.599712 0
M  V30 8897 H 819.475 -1.58984 -0.59348 0
M  V30 8898 H 818.247 -3.53649 -1.67475 0
M  V30 8899 H 817.87 -2.53247 -3.06516 0
M  V30 8900 N 818.867 0.818669 -1.34668 0
M  V30 8901 C 820.113 1.57746 -1.27453 0
M  V30 8902 C 820.446 1.93588 0.154077 0
M  V30 8903 O 819.721 1.60371 1.10051 0
M  V30 8904 C 820.004 2.87414 -2.16945 0
M  V30 8905 C 819.857 2.58125 -3.68363 0
M  V30 8906 C 821.176 3.89021 -2.05792 0
M  V30 8907 H 818.295 0.572339 -0.464324 0
M  V30 8908 H 820.937 0.942784 -1.64959 0
M  V30 8909 H 819.087 3.41576 -1.85089 0
M  V30 8910 H 820.759 2.10239 -4.10606 0
M  V30 8911 H 819.002 1.91503 -3.89242 0
M  V30 8912 H 819.673 3.5061 -4.26353 0
M  V30 8913 H 822.149 3.44224 -2.33771 0
M  V30 8914 H 821.025 4.77548 -2.70628 0
M  V30 8915 H 821.286 4.29786 -1.03618 0
M  V30 8916 N 820.346 1.18468 1.03938 0
M  V30 8917 C 821.576 1.0043 1.80547 0
M  V30 8918 C 821.984 -0.450407 1.83761 0
M  V30 8919 O 821.327 -1.32463 1.27276 0
M  V30 8920 C 821.389 1.48437 3.27424 0
M  V30 8921 C 821.053 2.96372 3.47869 0
M  V30 8922 C 822.05 3.94217 3.38953 0
M  V30 8923 C 819.735 3.34831 3.74424 0
M  V30 8924 C 821.729 5.28517 3.56298 0
M  V30 8925 C 819.416 4.69294 3.91416 0
M  V30 8926 C 820.414 5.65946 3.82354 0
M  V30 8927 O 820.102 6.97974 3.98858 0
M  V30 8928 H 819.834 0.354853 0.575374 0
M  V30 8929 H 822.388 1.57473 1.31876 0
M  V30 8930 H 820.618 0.857601 3.7707 0
M  V30 8931 H 822.307 1.2677 3.85596 0
M  V30 8932 H 823.073 3.6585 3.184 0
M  V30 8933 H 818.952 2.60161 3.80575 0
M  V30 8934 H 822.496 6.03943 3.49141 0
M  V30 8935 H 818.393 4.97361 4.11463 0
M  V30 8936 H 819.161 7.04895 4.1601 0
M  V30 8937 N 821.824 -1.22873 0.986916 0
M  V30 8938 C 823.07 -1.92047 0.670042 0
M  V30 8939 C 823.425 -1.75497 -0.788587 0
M  V30 8940 O 822.718 -1.10934 -1.56218 0
M  V30 8941 C 822.912 -3.43014 1.00379 0
M  V30 8942 C 822.741 -3.74251 2.49332 0
M  V30 8943 C 821.511 -3.94589 3.15638 0
M  V30 8944 C 823.709 -3.79208 3.47428 0
M  V30 8945 N 821.691 -4.13086 4.54129 0
M  V30 8946 C 823.062 -4.02775 4.71352 0
M  V30 8947 C 825.117 -3.62029 3.41818 0
M  V30 8948 C 823.82 -4.10946 5.90352 0
M  V30 8949 C 825.846 -3.71457 4.60189 0
M  V30 8950 C 825.208 -3.95468 5.82911 0
M  V30 8951 H 821.307 -0.723668 0.29636 0
M  V30 8952 H 823.891 -1.47946 1.26571 0
M  V30 8953 H 822.062 -3.85936 0.436762 0
M  V30 8954 H 823.794 -3.99551 0.643522 0
M  V30 8955 H 820.549 -3.91762 2.66119 0
M  V30 8956 H 820.973 -4.26275 5.25945 0
M  V30 8957 H 825.615 -3.42457 2.47958 0
M  V30 8958 H 823.333 -4.29324 6.84621 0
M  V30 8959 H 826.919 -3.59511 4.57431 0
M  V30 8960 H 825.799 -4.02584 6.72975 0
M  V30 8961 N 823.302 -0.75937 -1.38099 0
M  V30 8962 C 824.549 -0.318113 -1.99986 0
M  V30 8963 C 824.877 1.10184 -1.6028 0
M  V30 8964 O 824.132 1.77015 -0.834524 0
M  V30 8965 C 824.431 -0.394999 -3.55211 0
M  V30 8966 C 824.097 -1.77143 -4.14646 0
M  V30 8967 C 822.759 -2.14811 -4.30592 0
M  V30 8968 C 825.111 -2.67407 -4.47373 0
M  V30 8969 C 822.439 -3.42203 -4.76565 0
M  V30 8970 C 824.791 -3.94196 -4.94765 0
M  V30 8971 C 823.455 -4.31925 -5.08918 0
M  V30 8972 H 822.725 -0.116406 -0.7318 0
M  V30 8973 H 825.372 -0.97098 -1.65058 0
M  V30 8974 H 823.677 0.341426 -3.9031 0
M  V30 8975 H 825.374 -0.0350722 -4.00985 0
M  V30 8976 H 821.964 -1.46864 -4.02652 0
M  V30 8977 H 826.148 -2.39569 -4.3465 0
M  V30 8978 H 821.404 -3.71346 -4.85708 0
M  V30 8979 H 825.578 -4.64276 -5.19057 0
M  V30 8980 H 823.205 -5.30699 -5.443 0
M  V30 8981 N 824.78 1.49157 -0.508906 0
M  V30 8982 C 826.191 1.86593 -0.0630975 0
M  V30 8983 C 826.542 1.42051 1.35337 0
M  V30 8984 O 825.667 0.801866 2.00995 0
M  V30 8985 C 826.262 3.38629 -0.107729 0
M  V30 8986 C 824.821 3.75336 0.282776 0
M  V30 8987 C 823.968 2.7317 -0.4768 0
M  V30 8988 H 826.919 1.41362 -0.72128 0
M  V30 8989 H 826.94 3.74271 0.685689 0
M  V30 8990 H 826.452 3.71017 -1.13876 0
M  V30 8991 H 824.553 3.48558 1.31675 0
M  V30 8992 H 824.666 4.79081 -0.0421728 0
M  V30 8993 H 823.03 2.54591 0.0743552 0
M  V30 8994 H 823.813 3.08403 -1.50807 0
M  V30 8995 N 826.258 0.243083 1.55714 0
M  V30 8996 C 827.507 -0.383188 1.98027 0
M  V30 8997 C 827.82 -1.59347 1.13436 0
M  V30 8998 O 829.026 -2.29065 1.45745 0
M  V30 8999 C 827.482 -0.733135 3.52354 0
M  V30 9000 C 827.09 0.455539 4.45678 0
M  V30 9001 C 828.834 -1.32381 4.03331 0
M  V30 9002 C 826.741 0.0819591 5.91343 0
M  V30 9003 H 825.671 -0.146944 0.739543 0
M  V30 9004 H 828.322 0.342697 1.80272 0
M  V30 9005 H 826.704 -1.51704 3.65789 0
M  V30 9006 H 827.878 1.23291 4.44 0
M  V30 9007 H 826.193 0.960886 4.05162 0
M  V30 9008 H 828.79 -1.61658 5.09677 0
M  V30 9009 H 829.133 -2.24698 3.50452 0
M  V30 9010 H 829.666 -0.602885 3.93205 0
M  V30 9011 H 826.405 0.972171 6.48251 0
M  V30 9012 H 825.925 -0.659291 5.96166 0
M  V30 9013 H 827.604 -0.3372 6.46121 0
M  V30 9014 N 827.736 -1.57571 -0.0300757 0
M  V30 9015 C 828.983 -1.89226 -0.721091 0
M  V30 9016 C 829.311 -0.840244 -1.75414 0
M  V30 9017 O 828.566 0.158906 -1.95054 0
M  V30 9018 C 828.865 -3.27624 -1.42818 0
M  V30 9019 C 828.531 -4.4776 -0.531208 0
M  V30 9020 C 827.193 -4.8036 -0.28415 0
M  V30 9021 C 829.545 -5.21125 0.0881582 0
M  V30 9022 C 826.873 -5.83715 0.591065 0
M  V30 9023 C 829.225 -6.2541 0.95107 0
M  V30 9024 C 827.889 -6.56486 1.2076 0
M  V30 9025 H 827.159 -0.692428 -0.263866 0
M  V30 9026 H 829.806 -1.91491 0.0189874 0
M  V30 9027 H 828.111 -3.21343 -2.24155 0
M  V30 9028 H 829.808 -3.49365 -1.96838 0
M  V30 9029 H 826.398 -4.2227 -0.73392 0
M  V30 9030 H 830.582 -4.96219 -0.0897496 0
M  V30 9031 H 825.838 -6.06168 0.798132 0
M  V30 9032 H 830.012 -6.81402 1.43751 0
M  V30 9033 H 827.639 -7.36395 1.88751 0
M  V30 9034 N 829.214 0.302327 -1.54673 0
M  V30 9035 C 830.442 1.05669 -1.77881 0
M  V30 9036 C 830.857 1.80983 -0.537648 0
M  V30 9037 O 830.214 1.7573 0.492467 0
M  V30 9038 C 830.265 2.03828 -2.98557 0
M  V30 9039 O 829.986 1.3157 -4.17877 0
M  V30 9040 C 831.487 2.91314 -3.34143 0
M  V30 9041 H 828.707 0.313436 -0.593295 0
M  V30 9042 H 831.251 0.342003 -2.0162 0
M  V30 9043 H 829.406 2.70801 -2.7703 0
M  V30 9044 H 829.82 1.97481 -4.85903 0
M  V30 9045 H 831.294 3.56042 -4.21827 0
M  V30 9046 H 831.771 3.59544 -2.52239 0
M  V30 9047 H 832.377 2.29874 -3.57824 0
M  V30 9048 N 830.692 1.47107 0.565454 0
M  V30 9049 C 831.602 1.61591 1.70075 0
M  V30 9050 C 832.618 0.498931 1.66693 0
M  V30 9051 O 833.794 0.765372 1.8629 0
M  V30 9052 C 830.859 1.61887 3.06583 0
M  V30 9053 C 829.92 2.84949 3.21096 0
M  V30 9054 C 829.153 2.85221 4.51093 0
M  V30 9055 O 829.376 1.94959 5.36048 0
M  V30 9056 O 828.31 3.76982 4.69221 0
M  V30 9057 H 832.136 2.57638 1.60799 0
M  V30 9058 H 829.721 1.30097 0.73451 0
M  V30 9059 H 831.603 1.64809 3.87835 0
M  V30 9060 H 830.278 0.69005 3.16259 0
M  V30 9061 H 829.185 2.87575 2.39273 0
M  V30 9062 H 830.518 3.77098 3.1632 0
M  V30 9063 N 832.17 -0.811516 1.35101 0
M  V30 9064 C 833.416 -1.57068 1.28287 0
M  V30 9065 C 833.749 -1.93667 -0.143808 0
M  V30 9066 O 833.024 -1.60953 -1.09199 0
M  V30 9067 C 833.307 -2.86259 2.18466 0
M  V30 9068 C 833.16 -2.56168 3.69727 0
M  V30 9069 C 834.479 -3.87924 2.07852 0
M  V30 9070 H 831.598 -0.569869 0.467353 0
M  V30 9071 H 834.24 -0.934023 1.65457 0
M  V30 9072 H 832.39 -3.4059 1.86898 0
M  V30 9073 H 834.062 -2.08059 4.11715 0
M  V30 9074 H 832.305 -1.89436 3.90252 0
M  V30 9075 H 832.976 -3.48344 4.28206 0
M  V30 9076 H 835.452 -3.4298 2.35593 0
M  V30 9077 H 834.328 -4.76106 2.73157 0
M  V30 9078 H 834.589 -4.2923 1.05896 0
M  V30 9079 N 833.648 -1.19017 -1.03309 0
M  V30 9080 C 834.611 -0.926076 -2.09658 0
M  V30 9081 C 835.611 0.0917077 -1.60538 0
M  V30 9082 O 836.801 -0.142574 -1.73616 0
M  V30 9083 C 833.933 -0.390958 -3.38651 0
M  V30 9084 H 835.126 -1.86923 -2.3452 0
M  V30 9085 H 832.679 -1.00325 -1.19853 0
M  V30 9086 H 833.414 0.558446 -3.19456 0
M  V30 9087 H 833.199 -1.12474 -3.75622 0
M  V30 9088 H 834.689 -0.225131 -4.16993 0
M  V30 9089 N 835.127 1.22348 -0.993418 0
M  V30 9090 C 836.367 1.92835 -0.677779 0
M  V30 9091 C 836.731 1.75624 0.775893 0
M  V30 9092 O 837.932 2.40379 1.20297 0
M  V30 9093 C 836.203 3.40906 -1.07322 0
M  V30 9094 S 837.762 4.29966 -0.876032 0
M  V30 9095 H 834.58 0.666421 -0.247799 0
M  V30 9096 H 837.182 1.48133 -1.27581 0
M  V30 9097 H 835.886 3.50946 -2.12756 0
M  V30 9098 H 835.417 3.90618 -0.467015 0
M  V30 9099 H 837.432 4.95652 0.233162 0
M  V30 9100 N 836.605 0.766683 1.37694 0
M  V30 9101 C 837.882 0.25366 1.93948 0
M  V30 9102 C 838.262 -1.25041 1.70082 0
M  V30 9103 O 837.61 -2.03115 1.04674 0
M  V30 9104 C 837.82 0.621549 3.43421 0
M  V30 9105 C 839.168 0.588504 4.20502 0
M  V30 9106 O 840.192 0.560632 3.5176 0
M  V30 9107 O 839.051 0.61107 5.43073 0
M  V30 9108 H 836.145 0.0570586 0.825029 0
M  V30 9109 H 838.691 0.847693 1.47011 0
M  V30 9110 H 837.463 1.65979 3.54354 0
M  V30 9111 H 837.086 0.000197027 3.976 0
M  V30 9112 N 838.083 -1.48885 0.516809 0
M  V30 9113 C 838.993 -2.33185 -0.257293 0
M  V30 9114 C 840.009 -1.4565 -0.951952 0
M  V30 9115 O 841.185 -1.78651 -0.929834 0
M  V30 9116 C 838.25 -3.21465 -1.29851 0
M  V30 9117 C 837.311 -4.24863 -0.615608 0
M  V30 9118 C 836.544 -5.08925 -1.60722 0
M  V30 9119 O 836.767 -4.9475 -2.83863 0
M  V30 9120 O 835.701 -5.90737 -1.15384 0
M  V30 9121 H 839.527 -3.00596 0.433131 0
M  V30 9122 H 837.112 -1.46792 0.277908 0
M  V30 9123 H 838.994 -3.76108 -1.90055 0
M  V30 9124 H 837.669 -2.5673 -1.97158 0
M  V30 9125 H 836.576 -3.74091 0.0265829 0
M  V30 9126 H 837.909 -4.92198 0.0152871 0
M  V30 9127 N 839.561 -0.251338 -1.55583 0
M  V30 9128 C 840.491 0.640437 -2.24545 0
M  V30 9129 C 841.472 1.17781 -1.22726 0
M  V30 9130 O 842.657 1.21633 -1.5139 0
M  V30 9131 C 839.787 1.8355 -2.94834 0
M  V30 9132 C 838.741 1.4307 -4.03379 0
M  V30 9133 C 838.067 2.70695 -4.61116 0
M  V30 9134 C 839.367 0.59848 -5.1886 0
M  V30 9135 H 841.061 0.0653772 -2.99329 0
M  V30 9136 H 838.607 0.0300042 -1.43969 0
M  V30 9137 H 840.56 2.46505 -3.4178 0
M  V30 9138 H 839.284 2.43601 -2.17546 0
M  V30 9139 H 837.943 0.824474 -3.57209 0
M  V30 9140 H 837.591 3.28954 -3.80524 0
M  V30 9141 H 837.291 2.44332 -5.34393 0
M  V30 9142 H 838.815 3.34541 -5.10798 0
M  V30 9143 H 840.229 1.13244 -5.62004 0
M  V30 9144 H 838.626 0.430728 -5.98552 0
M  V30 9145 H 839.696 -0.38829 -4.83343 0
M  V30 9146 N 841.039 1.57585 0.0217189 0
M  V30 9147 C 842.285 1.89887 0.712099 0
M  V30 9148 C 842.618 0.849971 1.74611 0
M  V30 9149 O 841.893 -0.13407 1.94037 0
M  V30 9150 C 842.176 3.32815 1.37499 0
M  V30 9151 C 842.029 4.48405 0.353993 0
M  V30 9152 C 843.348 3.74786 2.30703 0
M  V30 9153 H 840.467 0.690588 0.257405 0
M  V30 9154 H 843.109 1.89983 -0.0251145 0
M  V30 9155 H 841.259 3.32863 2.00335 0
M  V30 9156 H 842.931 4.60491 -0.273015 0
M  V30 9157 H 841.174 4.32573 -0.32599 0
M  V30 9158 H 841.845 5.45316 0.85644 0
M  V30 9159 H 844.321 3.76151 1.77904 0
M  V30 9160 H 843.197 4.75585 2.74061 0
M  V30 9161 H 843.458 3.07449 3.17691 0
M  V30 9162 N 842.517 -0.29412 1.54831 0
M  V30 9163 C 843.427 -1.3854 1.89325 0
M  V30 9164 C 844.443 -1.55127 0.788133 0
M  V30 9165 O 845.619 -1.6966 1.08524 0
M  V30 9166 C 842.684 -2.72809 2.13954 0
M  V30 9167 C 841.745 -2.65148 3.37631 0
M  V30 9168 C 840.978 -3.93014 3.61076 0
M  V30 9169 O 841.201 -4.927 2.87406 0
M  V30 9170 O 840.135 -3.94491 4.54599 0
M  V30 9171 H 843.961 -1.12289 2.82179 0
M  V30 9172 H 841.546 -0.490793 1.41108 0
M  V30 9173 H 843.428 -3.52238 2.31315 0
M  V30 9174 H 842.103 -2.9889 1.24285 0
M  V30 9175 H 841.01 -1.84168 3.25627 0
M  V30 9176 H 842.343 -2.4402 4.27452 0
M  V30 9177 N 843.995 -1.47404 -0.557645 0
M  V30 9178 C 844.905 -1.62491 -1.69216 0
M  V30 9179 C 845.921 -0.507764 -1.66426 0
M  V30 9180 O 847.097 -0.775241 -1.85882 0
M  V30 9181 C 844.162 -1.63511 -3.05721 0
M  V30 9182 C 843.223 -2.86648 -3.1958 0
M  V30 9183 C 842.456 -2.87609 -4.49574 0
M  V30 9184 O 842.679 -1.97799 -5.35006 0
M  V30 9185 O 841.613 -3.79465 -4.67215 0
M  V30 9186 H 845.439 -2.58487 -1.59431 0
M  V30 9187 H 843.024 -1.30485 -0.7276 0
M  V30 9188 H 844.906 -1.66863 -3.86956 0
M  V30 9189 H 843.581 -0.706812 -3.15889 0
M  V30 9190 H 842.488 -2.8884 -2.37744 0
M  V30 9191 H 843.821 -3.7877 -3.14316 0
M  V30 9192 N 845.473 0.80434 -1.35529 0
M  V30 9193 C 846.406 1.92222 -1.22987 0
M  V30 9194 C 847.384 1.62177 -0.117269 0
M  V30 9195 O 848.568 1.86321 -0.285761 0
M  V30 9196 C 845.695 3.26682 -0.894223 0
M  V30 9197 C 844.741 3.75674 -2.01919 0
M  V30 9198 S 845.574 3.93209 -3.6352 0
M  V30 9199 C 846.73 5.30568 -3.32037 0
M  V30 9200 H 846.963 2.02567 -2.1761 0
M  V30 9201 H 844.496 0.961961 -1.20771 0
M  V30 9202 H 846.454 4.04359 -0.707371 0
M  V30 9203 H 845.115 3.14082 0.0339729 0
M  V30 9204 H 844.308 4.73065 -1.73854 0
M  V30 9205 H 843.91 3.05001 -2.16449 0
M  V30 9206 H 846.202 6.14637 -2.85004 0
M  V30 9207 H 847.145 5.63628 -4.28636 0
M  V30 9208 H 847.553 4.96961 -2.6775 0
M  V30 9209 N 846.951 1.19563 1.02676 0
M  V30 9210 C 847.861 0.950691 2.14474 0
M  V30 9211 C 848.877 -0.0900219 1.73767 0
M  V30 9212 O 850.053 0.0951063 2.01175 0
M  V30 9213 C 847.118 0.494917 3.43149 0
M  V30 9214 C 846.179 1.60527 3.98158 0
M  V30 9215 C 845.412 1.17115 5.20692 0
M  V30 9216 O 845.635 0.0355937 5.70389 0
M  V30 9217 O 844.569 1.97454 5.68591 0
M  V30 9218 H 848.395 1.88651 2.38001 0
M  V30 9219 H 845.98 0.978635 1.12885 0
M  V30 9220 H 847.862 0.249492 4.20661 0
M  V30 9221 H 846.537 -0.412434 3.21062 0
M  V30 9222 H 845.444 1.90487 3.21971 0
M  V30 9223 H 846.777 2.48925 4.24614 0
M  V30 9224 N 848.429 -1.21819 0.999893 0
M  V30 9225 C 849.379 -2.21823 0.527104 0
M  V30 9226 C 850.363 -1.55628 -0.408515 0
M  V30 9227 O 851.555 -1.75444 -0.234196 0
M  V30 9228 C 848.684 -3.42972 -0.149986 0
M  V30 9229 C 847.77 -4.16364 0.806349 0
M  V30 9230 N 848.161 -4.66403 1.95708 0
M  V30 9231 C 846.459 -4.41618 0.623672 0
M  V30 9232 C 847.16 -5.22443 2.5579 0
M  V30 9233 N 846.136 -5.11514 1.83995 0
M  V30 9234 H 849.938 -2.58161 1.40464 0
M  V30 9235 H 847.452 -1.37569 0.863054 0
M  V30 9236 H 849.449 -4.13816 -0.50613 0
M  V30 9237 H 848.109 -3.08145 -1.02357 0
M  V30 9238 H 849.12 -4.62142 2.33763 0
M  V30 9239 H 845.797 -4.17005 -0.203257 0
M  V30 9240 H 847.187 -5.7165 3.5308 0
M  V30 9241 N 849.908 -0.773975 -1.37286 0
M  V30 9242 C 851.155 -0.339306 -1.99637 0
M  V30 9243 C 851.483 1.08478 -1.61439 0
M  V30 9244 O 850.738 1.7612 -0.853252 0
M  V30 9245 C 851.037 -0.432651 -3.54772 0
M  V30 9246 C 850.703 -1.81531 -4.12744 0
M  V30 9247 C 849.365 -2.19366 -4.2829 0
M  V30 9248 C 851.717 -2.72137 -4.44512 0
M  V30 9249 C 849.045 -3.47239 -4.72908 0
M  V30 9250 C 851.397 -3.99421 -4.90556 0
M  V30 9251 C 850.061 -4.37298 -5.04308 0
M  V30 9252 H 849.331 -0.124161 -0.730524 0
M  V30 9253 H 851.978 -0.988432 -1.64019 0
M  V30 9254 H 850.283 0.30001 -3.9065 0
M  V30 9255 H 851.98 -0.0776 -4.00925 0
M  V30 9256 H 848.57 -1.51126 -4.01072 0
M  V30 9257 H 852.754 -2.44165 -4.32084 0
M  V30 9258 H 848.01 -3.76477 -4.81742 0
M  V30 9259 H 852.184 -4.69756 -5.14104 0
M  V30 9260 H 849.811 -5.36442 -5.38641 0
M  V30 9261 N 851.386 1.48609 -0.524698 0
M  V30 9262 C 852.634 2.02097 0.0112991 0
M  V30 9263 C 852.955 1.40455 1.35268 0
M  V30 9264 O 852.225 0.56807 1.87483 0
M  V30 9265 H 850.805 0.746966 0.00716426 0
M  V30 9266 H 853.467 1.82378 -0.687329 0
M  V30 9267 H 852.563 3.11855 0.123531 0
M  V30 9268 N 852.864 0.259585 1.55447 0
M  V30 9269 C 853.796 -0.667548 2.19263 0
M  V30 9270 C 854.809 -1.12925 1.17268 0
M  V30 9271 O 855.998 -1.05384 1.44071 0
M  V30 9272 C 853.098 -1.92066 2.7922 0
M  V30 9273 C 852.271 -1.60832 4.06758 0
M  V30 9274 C 851.33 -2.71231 4.50911 0
M  V30 9275 O 850.356 -2.38077 5.17019 0
M  V30 9276 N 851.558 -4.00984 4.19752 0
M  V30 9277 H 854.323 -0.121449 2.99454 0
M  V30 9278 H 851.884 0.0800519 1.61702 0
M  V30 9279 H 853.876 -2.65186 3.0571 0
M  V30 9280 H 852.446 -2.37621 2.03113 0
M  V30 9281 H 851.666 -0.711685 3.87722 0
M  V30 9282 H 852.954 -1.37445 4.89884 0
M  V30 9283 H 852.352 -4.30748 3.66706 0
M  V30 9284 H 850.909 -4.7053 4.51048 0
M  V30 9285 N 854.342 -1.57594 -0.0133615 0
M  V30 9286 C 855.588 -1.91105 -0.696457 0
M  V30 9287 C 855.943 -0.859872 -1.72116 0
M  V30 9288 O 855.236 0.129579 -1.91161 0
M  V30 9289 C 855.43 -3.29121 -1.39336 0
M  V30 9290 C 855.259 -4.47565 -0.437666 0
M  V30 9291 C 854.029 -5.05272 -0.0529454 0
M  V30 9292 C 856.227 -5.13479 0.290537 0
M  V30 9293 N 854.209 -6.07232 0.902355 0
M  V30 9294 C 855.58 -6.10147 1.10097 0
M  V30 9295 C 857.635 -4.96627 0.355804 0
M  V30 9296 C 856.338 -6.91778 1.97069 0
M  V30 9297 C 858.364 -5.78833 1.21271 0
M  V30 9298 C 857.726 -6.75083 2.01102 0
M  V30 9299 H 853.825 -0.747882 -0.228464 0
M  V30 9300 H 856.409 -1.94651 0.0438462 0
M  V30 9301 H 854.58 -3.26474 -2.10403 0
M  V30 9302 H 856.312 -3.501 -2.03008 0
M  V30 9303 H 853.067 -4.71747 -0.418486 0
M  V30 9304 H 853.491 -6.6289 1.37498 0
M  V30 9305 H 858.133 -4.22077 -0.247105 0
M  V30 9306 H 855.851 -7.65662 2.58433 0
M  V30 9307 H 859.437 -5.67838 1.26694 0
M  V30 9308 H 858.317 -7.37587 2.66337 0
M  V30 9309 N 855.82 0.285905 -1.54985 0
M  V30 9310 C 857.045 1.04207 -1.7932 0
M  V30 9311 C 857.47 1.79622 -0.558343 0
M  V30 9312 O 856.828 1.74506 0.491661 0
M  V30 9313 C 856.876 1.98648 -3.0095 0
M  V30 9314 O 855.98 3.07207 -2.75132 0
M  V30 9315 H 855.321 0.298596 -0.593074 0
M  V30 9316 H 857.851 0.318736 -2.02102 0
M  V30 9317 H 857.861 2.4084 -3.29333 0
M  V30 9318 H 856.536 1.43167 -3.90482 0
M  V30 9319 H 855.113 2.69423 -2.57809 0
M  V30 9320 N 857.298 1.47698 0.54982 0
M  V30 9321 C 858.228 1.63622 1.66583 0
M  V30 9322 C 859.209 0.485477 1.63025 0
M  V30 9323 O 860.394 0.715692 1.80531 0
M  V30 9324 C 857.524 1.65721 3.05211 0
M  V30 9325 C 856.478 2.80097 3.2362 0
M  V30 9326 C 855.804 2.67272 4.63109 0
M  V30 9327 C 857.104 4.21612 3.08286 0
M  V30 9328 H 858.798 2.57049 1.53512 0
M  V30 9329 H 856.344 1.23705 0.737099 0
M  V30 9330 H 858.297 1.75451 3.83138 0
M  V30 9331 H 857.021 0.688593 3.19258 0
M  V30 9332 H 855.68 2.69889 2.48104 0
M  V30 9333 H 855.328 1.68422 4.73965 0
M  V30 9334 H 855.028 3.44008 4.76374 0
M  V30 9335 H 856.552 2.78942 5.43161 0
M  V30 9336 H 857.966 4.32758 3.76024 0
M  V30 9337 H 856.363 4.99193 3.33057 0
M  V30 9338 H 857.433 4.39462 2.04942 0
M  V30 9339 N 858.776 -0.797141 1.35954 0
M  V30 9340 C 860.024 -1.55161 1.29497 0
M  V30 9341 C 860.345 -1.94582 -0.127659 0
M  V30 9342 O 859.615 -1.64343 -1.06622 0
M  V30 9343 H 858.195 -0.575413 0.47635 0
M  V30 9344 H 860.857 -0.950282 1.70164 0
M  V30 9345 H 859.953 -2.46272 1.9172 0
M  V30 9346 N 860.254 -1.20106 -1.0204 0
M  V30 9347 C 861.202 -0.943231 -2.12617 0
M  V30 9348 C 862.196 0.104042 -1.6908 0
M  V30 9349 O 863.402 -0.0459732 -1.79941 0
M  V30 9350 H 859.777 -0.28767 -0.694802 0
M  V30 9351 H 861.748 -1.88221 -2.3155 0
M  V30 9352 C 860.497 -0.50771 -3.43973 0
M  V30 9353 H 859.82 -1.30514 -3.77897 0
M  V30 9354 H 861.26 -0.366486 -4.22413 0
M  V30 9355 C 859.719 0.77939 -3.27761 0
M  V30 9356 O 860.249 1.83876 -3.57145 0
M  V30 9357 N 858.455 0.739931 -2.81022 0
M  V30 9358 H 858.002 -0.122426 -2.57309 0
M  V30 9359 H 857.96 1.60147 -2.70556 0
M  V30 9360 N 861.732 1.21287 -1.00634 0
M  V30 9361 C 862.68 2.25733 -0.561026 0
M  V30 9362 C 863.674 1.64728 0.395095 0
M  V30 9363 O 864.88 1.78022 0.266141 0
M  V30 9364 H 861.255 0.734104 -0.163081 0
M  V30 9365 H 863.226 2.60631 -1.45307 0
M  V30 9366 C 861.975 3.47569 0.0952587 0
M  V30 9367 H 861.298 3.94782 -0.631427 0
M  V30 9368 H 862.738 4.22382 0.370105 0
M  V30 9369 C 861.197 3.09326 1.33488 0
M  V30 9370 O 861.727 3.19933 2.42912 0
M  V30 9371 N 859.933 2.63976 1.21512 0
M  V30 9372 H 859.48 2.55545 0.324741 0
M  V30 9373 H 859.438 2.38757 2.04555 0
M  V30 9374 N 863.21 0.781244 1.36873 0
M  V30 9375 C 864.157 0.172146 2.30157 0
M  V30 9376 C 865.127 -0.679328 1.51573 0
M  V30 9377 O 866.312 -0.629713 1.80109 0
M  V30 9378 C 863.452 -0.693534 3.38059 0
M  V30 9379 C 862.565 0.175586 4.31643 0
M  V30 9380 C 861.7 -0.695695 5.26625 0
M  V30 9381 C 860.739 0.17538 6.11849 0
M  V30 9382 N 859.876 -0.654416 6.99043 0
M  V30 9383 H 864.716 0.973133 2.81663 0
M  V30 9384 H 862.253 0.491469 1.38647 0
M  V30 9385 H 864.211 -1.21035 3.99257 0
M  V30 9386 H 862.841 -1.46003 2.87894 0
M  V30 9387 H 861.893 0.810295 3.7167 0
M  V30 9388 H 863.205 0.847107 4.91554 0
M  V30 9389 H 862.359 -1.27863 5.93073 0
M  V30 9390 H 861.098 -1.40087 4.67148 0
M  V30 9391 H 860.103 0.77078 5.4437 0
M  V30 9392 H 861.328 0.87803 6.734 0
M  V30 9393 H 859.274 -1.34403 6.42084 0
M  V30 9394 H 859.191 -0.0403998 7.55989 0
M  V30 9395 H 860.459 -1.22144 7.69871 0
M  V30 9396 N 864.689 -1.48329 0.532571 0
M  V30 9397 C 865.966 -1.95492 -0.0650985 0
M  V30 9398 C 866.346 -1.47485 -1.51034 0
M  V30 9399 O 865.694 -0.702516 -2.17433 0
M  V30 9400 C 865.904 -3.48957 0.0548341 0
M  V30 9401 C 867.252 -4.24475 -0.103115 0
M  V30 9402 O 868.276 -3.56195 -0.0188343 0
M  V30 9403 O 867.135 -5.45781 -0.280164 0
M  V30 9404 H 864.229 -0.823327 -0.0778603 0
M  V30 9405 H 866.775 -1.58839 0.597353 0
M  V30 9406 H 865.547 -3.76628 1.06148 0
M  V30 9407 H 865.17 -3.92311 -0.64635 0
M  V30 9408 N 866.167 -0.267825 -1.55308 0
M  V30 9409 C 867.115 0.638848 -2.23655 0
M  V30 9410 C 868.109 1.16363 -1.2311 0
M  V30 9411 O 869.315 1.1181 -1.41062 0
M  V30 9412 H 865.69 0.224551 -0.717691 0
M  V30 9413 H 867.661 0.0394809 -2.98374 0
M  V30 9414 C 866.41 1.8151 -2.96562 0
M  V30 9415 H 865.733 1.42048 -3.73715 0
M  V30 9416 H 867.173 2.42629 -3.47717 0
M  V30 9417 C 865.632 2.69911 -2.01618 0
M  V30 9418 O 866.162 3.70058 -1.56268 0
M  V30 9419 N 864.368 2.36924 -1.68272 0
M  V30 9420 H 863.915 1.55533 -2.05347 0
M  V30 9421 H 863.873 2.96343 -1.05016 0
M  V30 9422 N 867.645 1.57599 0.00500368 0
M  V30 9423 C 869.061 1.55463 0.361015 0
M  V30 9424 C 869.261 0.997051 1.75103 0
M  V30 9425 O 868.317 0.628661 2.44549 0
M  V30 9426 C 869.63 2.99734 0.240828 0
M  V30 9427 C 871.178 3.11399 0.316138 0
M  V30 9428 C 871.653 4.57446 0.22513 0
M  V30 9429 N 873.144 4.62334 0.283186 0
M  V30 9430 C 873.879 5.72914 0.23603 0
M  V30 9431 N 873.375 6.92659 0.139762 0
M  V30 9432 N 875.168 5.61364 0.287529 0
M  V30 9433 H 867.319 1.92185 -0.904359 0
M  V30 9434 H 869.582 0.882529 -0.34619 0
M  V30 9435 H 869.288 3.44348 -0.715343 0
M  V30 9436 H 869.162 3.63009 1.02491 0
M  V30 9437 H 871.549 2.66718 1.26275 0
M  V30 9438 H 871.63 2.50911 -0.497725 0
M  V30 9439 H 871.274 5.02801 -0.717917 0
M  V30 9440 H 871.204 5.15874 1.05742 0
M  V30 9441 H 873.695 3.7619 0.359123 0
M  V30 9442 H 874.008 7.72722 0.10954 0
M  V30 9443 H 872.353 6.9492 0.105462 0
M  V30 9444 H 875.544 4.66707 0.360897 0
M  V30 9445 H 875.717 6.47528 0.247313 0
M  V30 9446 N 869.123 -0.277682 1.55134 0
M  V30 9447 C 870.372 -1.00766 1.74726 0
M  V30 9448 C 870.685 -1.87617 0.553092 0
M  V30 9449 O 871.891 -2.64058 0.631318 0
M  V30 9450 C 870.347 -1.84147 3.09221 0
M  V30 9451 C 869.955 -1.02186 4.3619 0
M  V30 9452 C 871.699 -2.56604 3.38164 0
M  V30 9453 C 869.606 -1.84978 5.61727 0
M  V30 9454 H 868.536 -0.379948 0.651273 0
M  V30 9455 H 871.187 -0.263543 1.81598 0
M  V30 9456 H 869.569 -2.62637 2.96375 0
M  V30 9457 H 870.743 -0.281459 4.5994 0
M  V30 9458 H 869.058 -0.412054 4.14356 0
M  V30 9459 H 871.655 -3.18942 4.29162 0
M  V30 9460 H 871.998 -3.26647 2.58085 0
M  V30 9461 H 872.531 -1.85147 3.52087 0
M  V30 9462 H 869.27 -1.19365 6.4454 0
M  V30 9463 H 868.79 -2.56628 5.42128 0
M  V30 9464 H 870.469 -2.42458 5.99853 0
M  V30 9465 N 870.601 -1.47988 -0.541979 0
M  V30 9466 C 871.533 -1.5769 -1.66332 0
M  V30 9467 C 872.546 -0.461994 -1.56107 0
M  V30 9468 O 873.735 -0.732306 -1.62787 0
M  V30 9469 C 870.835 -1.47939 -3.04905 0
M  V30 9470 C 870.008 -2.74263 -3.40733 0
M  V30 9471 C 869.067 -2.58133 -4.58534 0
M  V30 9472 O 868.093 -3.31991 -4.62354 0
M  V30 9473 N 869.295 -1.6696 -5.55972 0
M  V30 9474 H 872.06 -2.54389 -1.5845 0
M  V30 9475 H 869.621 -1.4456 -0.728979 0
M  V30 9476 H 871.613 -1.34861 -3.81569 0
M  V30 9477 H 870.183 -0.592626 -3.06931 0
M  V30 9478 H 869.403 -3.01992 -2.53366 0
M  V30 9479 H 870.691 -3.58094 -3.6145 0
M  V30 9480 H 870.089 -1.06134 -5.55655 0
M  V30 9481 H 868.646 -1.59826 -6.31901 0
M  V30 9482 N 872.079 0.78992 -1.36375 0
M  V30 9483 C 873.327 1.54472 -1.30319 0
M  V30 9484 C 873.648 1.94647 0.117338 0
M  V30 9485 O 872.918 1.64906 1.05748 0
M  V30 9486 H 871.498 0.572879 -0.479394 0
M  V30 9487 H 874.16 0.941245 -1.70665 0
M  V30 9488 H 873.256 2.45252 -1.93024 0
M  V30 9489 N 873.557 1.20646 1.01402 0
M  V30 9490 C 874.805 1.01618 1.74695 0
M  V30 9491 C 875.126 -0.452438 1.89679 0
M  V30 9492 O 874.396 -1.32693 1.44116 0
M  V30 9493 H 872.976 0.373013 0.647202 0
M  V30 9494 H 875.638 1.518 1.22241 0
M  V30 9495 H 874.734 1.47666 2.74957 0
M  V30 9496 N 875.035 -1.20752 1.01276 0
M  V30 9497 C 876.265 -1.93725 0.717934 0
M  V30 9498 C 876.673 -1.74769 -0.724732 0
M  V30 9499 O 876.016 -1.05642 -1.50285 0
M  V30 9500 C 876.078 -3.46196 0.968954 0
M  V30 9501 C 875.742 -3.88909 2.39998 0
M  V30 9502 C 876.739 -3.94982 3.38061 0
M  V30 9503 C 874.424 -4.21006 2.7397 0
M  V30 9504 C 876.418 -4.32558 4.68159 0
M  V30 9505 C 874.105 -4.58257 4.04282 0
M  V30 9506 C 875.103 -4.64004 5.01187 0
M  V30 9507 O 874.791 -5.00403 6.29168 0
M  V30 9508 H 874.523 -0.622663 0.263186 0
M  V30 9509 H 877.077 -1.54299 1.35577 0
M  V30 9510 H 875.307 -3.85728 0.273952 0
M  V30 9511 H 876.996 -4.00394 0.666312 0
M  V30 9512 H 877.762 -3.70353 3.13151 0
M  V30 9513 H 873.641 -4.15725 1.99233 0
M  V30 9514 H 877.185 -4.36959 5.43795 0
M  V30 9515 H 873.082 -4.82341 4.28973 0
M  V30 9516 H 873.85 -5.18409 6.33399 0
M  V30 9517 N 876.513 -0.788492 -1.36457 0
M  V30 9518 C 877.423 -0.187385 -2.3385 0
M  V30 9519 C 878.439 0.659984 -1.60998 0
M  V30 9520 O 879.615 0.575986 -1.92988 0
M  V30 9521 C 876.68 0.668525 -3.40194 0
M  V30 9522 C 875.741 -0.197234 -4.28847 0
M  V30 9523 C 874.974 0.61792 -5.30111 0
M  V30 9524 O 875.197 1.85396 -5.3943 0
M  V30 9525 O 874.131 0.0183016 -6.01897 0
M  V30 9526 H 877.957 -0.992617 -2.87021 0
M  V30 9527 H 875.542 -0.549934 -1.3891 0
M  V30 9528 H 877.424 1.15663 -4.05216 0
M  V30 9529 H 876.099 1.45166 -2.89324 0
M  V30 9530 H 875.006 -0.73207 -3.66867 0
M  V30 9531 H 876.339 -0.943863 -4.83065 0
M  V30 9532 N 877.991 1.48044 -0.54043 0
M  V30 9533 C 878.939 2.31461 0.229862 0
M  V30 9534 C 879.933 1.41884 0.925495 0
M  V30 9535 O 881.139 1.58736 0.848689 0
M  V30 9536 H 877.514 0.746227 0.0929975 0
M  V30 9537 H 879.485 2.94297 -0.493118 0
M  V30 9538 C 878.234 3.24172 1.25729 0
M  V30 9539 H 877.557 3.93052 0.731426 0
M  V30 9540 H 878.997 3.85404 1.76747 0
M  V30 9541 C 877.456 2.4651 2.2964 0
M  V30 9542 O 877.986 2.19742 3.36268 0
M  V30 9543 N 876.192 2.07817 2.03127 0
M  V30 9544 H 875.739 2.29786 1.1643 0
M  V30 9545 H 875.697 1.56168 2.72872 0
M  V30 9546 N 879.47 0.276058 1.55163 0
M  V30 9547 C 880.716 -0.340959 1.99913 0
M  V30 9548 C 881.049 -1.55434 1.16422 0
M  V30 9549 O 880.324 -1.93081 0.234517 0
M  V30 9550 C 880.607 -0.722211 3.52783 0
M  V30 9551 C 880.46 0.498575 4.47028 0
M  V30 9552 C 881.779 -1.5583 4.11589 0
M  V30 9553 H 878.898 -0.122455 0.726756 0
M  V30 9554 H 881.54 0.38319 1.86096 0
M  V30 9555 H 879.69 -1.33919 3.64689 0
M  V30 9556 H 881.362 1.13713 4.47065 0
M  V30 9557 H 879.605 1.13646 4.18649 0
M  V30 9558 H 880.276 0.188041 5.5168 0
M  V30 9559 H 882.752 -1.03722 4.02965 0
M  V30 9560 H 881.628 -1.79387 5.1876 0
M  V30 9561 H 881.889 -2.53963 3.61877 0
M  V30 9562 N 880.948 -1.576 0.00335426 0
M  V30 9563 C 882.359 -1.7875 -0.539008 0
M  V30 9564 C 882.71 -0.911097 -1.73763 0
M  V30 9565 O 881.835 -0.114476 -2.16097 0
M  V30 9566 C 882.43 -3.24177 -0.984611 0
M  V30 9567 C 880.989 -3.46412 -1.47226 0
M  V30 9568 C 880.136 -2.74024 -0.425004 0
M  V30 9569 H 883.087 -1.57032 0.229511 0
M  V30 9570 H 883.108 -3.32474 -1.85044 0
M  V30 9571 H 882.62 -3.87938 -0.112035 0
M  V30 9572 H 880.721 -2.8787 -2.36562 0
M  V30 9573 H 880.834 -4.55098 -1.49741 0
M  V30 9574 H 879.198 -2.38741 -0.887394 0
M  V30 9575 H 879.981 -3.40486 0.438662 0
M  V30 9576 N 882.426 0.269451 -1.5528 0
M  V30 9577 C 883.654 1.01872 -1.80082 0
M  V30 9578 C 884.069 1.79802 -0.575917 0
M  V30 9579 O 883.426 1.76735 0.455081 0
M  V30 9580 C 883.477 1.9745 -3.02813 0
M  V30 9581 O 883.198 1.22677 -4.20573 0
M  V30 9582 C 884.699 2.8416 -3.40247 0
M  V30 9583 H 881.919 0.300781 -0.59981 0
M  V30 9584 H 884.463 0.29916 -2.023 0
M  V30 9585 H 882.618 2.64864 -2.82712 0
M  V30 9586 H 883.032 1.87129 -4.89982 0
M  V30 9587 H 884.506 3.47014 -4.29284 0
M  V30 9588 H 884.983 3.54113 -2.59809 0
M  V30 9589 H 885.589 2.22232 -3.6262 0
M  V30 9590 N 883.904 1.48273 0.534124 0
M  V30 9591 C 885.153 1.55334 1.28663 0
M  V30 9592 C 885.466 0.230345 1.94239 0
M  V30 9593 O 886.672 0.179161 2.70908 0
M  V30 9594 C 885.128 2.73927 2.33435 0
M  V30 9595 C 884.736 4.12852 1.73947 0
M  V30 9596 C 886.48 2.90298 3.09722 0
M  V30 9597 C 884.387 5.22711 2.76636 0
M  V30 9598 H 883.317 0.578262 0.483869 0
M  V30 9599 H 885.968 1.74598 0.564602 0
M  V30 9600 H 884.35 2.48089 3.08655 0
M  V30 9601 H 885.524 4.48691 1.04944 0
M  V30 9602 H 883.839 4.01562 1.10167 0
M  V30 9603 H 886.436 3.69542 3.86449 0
M  V30 9604 H 886.779 1.99598 3.6533 0
M  V30 9605 H 887.312 3.16017 2.41616 0
M  V30 9606 H 884.051 6.15362 2.25852 0
M  V30 9607 H 883.571 4.91364 3.43979 0
M  V30 9608 H 885.25 5.50648 3.39699 0
M  V30 9609 N 885.382 -0.782676 1.36792 0
M  V30 9610 C 886.659 -1.52939 1.21939 0
M  V30 9611 C 887.039 -2.10228 -0.191639 0
M  V30 9612 O 886.387 -1.94574 -1.19805 0
M  V30 9613 C 886.597 -2.61898 2.30674 0
M  V30 9614 C 887.945 -3.29598 2.67676 0
M  V30 9615 O 888.969 -2.72186 2.29768 0
M  V30 9616 O 887.828 -4.3337 3.32946 0
M  V30 9617 H 884.922 -0.676856 0.47518 0
M  V30 9618 H 887.468 -0.82058 1.48542 0
M  V30 9619 H 886.24 -2.17607 3.25212 0
M  V30 9620 H 885.863 -3.40391 2.05475 0
M  V30 9621 N 886.86 -1.21182 -1.00761 0
M  V30 9622 C 888.109 -1.02166 -1.73911 0
M  V30 9623 C 888.422 0.445638 -1.90456 0
M  V30 9624 O 889.628 0.755132 -2.60787 0
M  V30 9625 C 888.084 -1.77936 -3.12837 0
M  V30 9626 C 887.692 -3.28819 -3.04273 0
M  V30 9627 C 889.436 -1.67319 -3.90134 0
M  V30 9628 C 887.343 -3.97089 -4.38262 0
M  V30 9629 H 886.273 -0.378665 -0.652019 0
M  V30 9630 H 888.924 -1.44891 -1.12601 0
M  V30 9631 H 887.306 -1.28003 -3.74742 0
M  V30 9632 H 888.48 -3.86035 -2.51622 0
M  V30 9633 H 886.795 -3.39949 -2.40465 0
M  V30 9634 H 889.392 -2.15659 -4.8928 0
M  V30 9635 H 889.735 -0.630959 -4.11491 0
M  V30 9636 H 890.268 -2.14716 -3.34876 0
M  V30 9637 H 887.007 -5.01503 -4.22107 0
M  V30 9638 H 886.527 -3.44662 -4.90885 0
M  V30 9639 H 888.206 -4.01854 -5.07072 0
M  V30 9640 N 888.338 1.20213 -1.01915 0
M  V30 9641 C 889.288 2.20957 -0.562327 0
M  V30 9642 C 890.272 1.56258 0.383704 0
M  V30 9643 O 891.464 1.75794 0.206255 0
M  V30 9644 C 888.593 3.43167 0.0954035 0
M  V30 9645 C 887.679 4.15028 -0.872487 0
M  V30 9646 N 888.07 4.63231 -2.03103 0
M  V30 9647 C 886.368 4.4057 -0.69385 0
M  V30 9648 C 887.069 5.18307 -2.64069 0
M  V30 9649 N 886.045 5.08522 -1.9211 0
M  V30 9650 H 889.847 2.55894 -1.44553 0
M  V30 9651 H 887.361 1.36178 -0.884831 0
M  V30 9652 H 889.358 4.14569 0.440232 0
M  V30 9653 H 888.018 3.09734 0.974413 0
M  V30 9654 H 889.029 4.58365 -2.41086 0
M  V30 9655 H 885.706 4.17276 0.136889 0
M  V30 9656 H 887.096 5.65961 -3.6213 0
M  V30 9657 N 889.816 0.795718 1.36037 0
M  V30 9658 C 890.749 0.144269 2.27744 0
M  V30 9659 C 891.727 -0.683351 1.47543 0
M  V30 9660 O 892.911 -0.652976 1.76829 0
M  V30 9661 C 890.038 -0.800944 3.29094 0
M  V30 9662 C 889.084 -0.0543234 4.26465 0
M  V30 9663 S 889.917 1.27426 5.20118 0
M  V30 9664 C 891.073 0.333213 6.25012 0
M  V30 9665 H 891.306 0.921827 2.82648 0
M  V30 9666 H 888.839 0.590241 1.42673 0
M  V30 9667 H 890.797 -1.34082 3.87985 0
M  V30 9668 H 889.458 -1.5518 2.7309 0
M  V30 9669 H 888.651 -0.771788 4.98056 0
M  V30 9670 H 888.253 0.415264 3.71687 0
M  V30 9671 H 890.545 -0.485604 6.75757 0
M  V30 9672 H 891.488 1.01798 7.00744 0
M  V30 9673 H 891.896 -0.066256 5.64461 0
M  V30 9674 N 891.294 -1.47756 0.548274 0
M  V30 9675 C 892.242 -2.3158 -0.217584 0
M  V30 9676 C 893.236 -1.42372 -0.917957 0
M  V30 9677 O 894.442 -1.59184 -0.840259 0
M  V30 9678 H 890.817 -0.74671 -0.0890388 0
M  V30 9679 H 892.788 -2.94032 0.508719 0
M  V30 9680 C 891.537 -3.24834 -1.24008 0
M  V30 9681 H 890.86 -3.93435 -0.710572 0
M  V30 9682 H 892.3 -3.86336 -1.74701 0
M  V30 9683 C 890.759 -2.47724 -2.2833 0
M  V30 9684 O 891.289 -2.21522 -3.35098 0
M  V30 9685 N 889.495 -2.08891 -2.02022 0
M  V30 9686 H 889.042 -2.30401 -1.1521 0
M  V30 9687 H 889 -1.57613 -2.7204 0
M  V30 9688 N 892.772 -0.284283 -1.55015 0
M  V30 9689 C 893.704 0.63258 -2.20298 0
M  V30 9690 C 894.717 1.11045 -1.1905 0
M  V30 9691 O 895.906 1.03078 -1.4573 0
M  V30 9692 C 893.006 1.87599 -2.82241 0
M  V30 9693 C 892.179 1.5434 -4.09265 0
M  V30 9694 C 891.238 2.64023 -4.55169 0
M  V30 9695 O 890.264 2.29821 -5.20741 0
M  V30 9696 N 891.466 3.94255 -4.26079 0
M  V30 9697 H 894.231 0.0737928 -2.99609 0
M  V30 9698 H 891.792 -0.105767 -1.61554 0
M  V30 9699 H 893.784 2.60289 -3.0989 0
M  V30 9700 H 892.354 2.3436 -2.06868 0
M  V30 9701 H 891.574 0.649912 -3.88806 0
M  V30 9702 H 892.862 1.29634 -4.92009 0
M  V30 9703 H 892.26 4.24859 -3.73512 0
M  V30 9704 H 890.817 4.63295 -4.58477 0
M  V30 9705 N 894.251 1.57596 -0.0117121 0
M  V30 9706 C 895.5 1.9025 0.669921 0
M  V30 9707 C 895.813 0.887986 1.74282 0
M  V30 9708 O 897.019 1.10516 2.47989 0
M  V30 9709 C 895.475 3.37762 1.24277 0
M  V30 9710 C 895.083 4.47535 0.204076 0
M  V30 9711 C 896.827 3.79509 1.90192 0
M  V30 9712 C 894.734 5.86132 0.787577 0
M  V30 9713 H 893.664 0.709935 0.253984 0
M  V30 9714 H 896.315 1.8335 -0.0741718 0
M  V30 9715 H 894.697 3.39537 2.03791 0
M  V30 9716 H 895.871 4.57294 -0.56733 0
M  V30 9717 H 894.186 4.14881 -0.355305 0
M  V30 9718 H 896.783 4.80402 2.34773 0
M  V30 9719 H 897.126 3.13643 2.7374 0
M  V30 9720 H 897.659 3.80084 1.17394 0
M  V30 9721 H 894.398 6.55499 -0.00938418 0
M  V30 9722 H 893.918 5.80014 1.52787 0
M  V30 9723 H 895.597 6.34158 1.28265 0
M  V30 9724 N 895.729 -0.261212 1.5542 0
M  V30 9725 C 896.977 -0.989272 1.76232 0
M  V30 9726 C 897.298 -1.86389 0.573067 0
M  V30 9727 O 896.568 -1.91526 -0.41166 0
M  V30 9728 H 895.148 -0.368256 0.64992 0
M  V30 9729 H 897.81 -0.282603 1.9284 0
M  V30 9730 H 896.906 -1.61935 2.66802 0
M  V30 9731 N 897.207 -1.48554 -0.526253 0
M  V30 9732 C 898.454 -1.56761 -1.28188 0
M  V30 9733 C 898.782 -0.24315 -1.92974 0
M  V30 9734 O 898.037 0.766883 -1.80048 0
M  V30 9735 C 898.336 -2.65739 -2.38993 0
M  V30 9736 C 898.002 -4.08057 -1.91834 0
M  V30 9737 C 896.664 -4.46792 -1.78691 0
M  V30 9738 C 899.016 -4.9723 -1.56242 0
M  V30 9739 C 896.344 -5.72501 -1.28296 0
M  V30 9740 C 898.696 -6.23432 -1.07309 0
M  V30 9741 C 897.36 -6.6102 -0.927853 0
M  V30 9742 H 896.63 -0.573631 -0.469072 0
M  V30 9743 H 899.277 -1.82287 -0.586842 0
M  V30 9744 H 897.582 -2.34088 -3.14181 0
M  V30 9745 H 899.279 -2.69304 -2.97113 0
M  V30 9746 H 895.869 -3.77469 -2.03016 0
M  V30 9747 H 900.053 -4.67979 -1.65255 0
M  V30 9748 H 895.309 -6.00345 -1.15742 0
M  V30 9749 H 899.483 -6.91923 -0.788412 0
M  V30 9750 H 897.11 -7.58314 -0.535162 0
M  V30 9751 N 898.685 0.775411 -1.37205 0
M  V30 9752 C 899.595 1.91967 -1.34855 0
M  V30 9753 C 900.611 1.72214 -0.248656 0
M  V30 9754 O 901.787 1.95512 -0.483421 0
M  V30 9755 C 898.852 3.27038 -1.15096 0
M  V30 9756 C 897.913 3.5947 -2.34691 0
M  V30 9757 C 897.146 4.88097 -2.15865 0
M  V30 9758 O 897.369 5.58871 -1.14102 0
M  V30 9759 O 896.303 5.19507 -3.03967 0
M  V30 9760 H 900.129 1.969 -2.31223 0
M  V30 9761 H 897.714 0.917647 -1.17897 0
M  V30 9762 H 899.596 4.07837 -1.0605 0
M  V30 9763 H 898.271 3.22965 -0.217999 0
M  V30 9764 H 897.178 2.7892 -2.49308 0
M  V30 9765 H 898.511 3.68282 -3.26541 0
M  V30 9766 N 900.163 1.21714 1.00117 0
M  V30 9767 C 901.579 0.97532 1.26332 0
M  V30 9768 C 901.779 -0.336029 1.98678 0
M  V30 9769 O 900.835 -1.06073 2.29139 0
M  V30 9770 C 902.148 2.16848 2.0832 0
M  V30 9771 C 903.696 2.21115 2.21533 0
M  V30 9772 C 904.171 3.3996 3.06906 0
M  V30 9773 N 905.662 3.40071 3.14494 0
M  V30 9774 C 906.397 4.28678 3.80818 0
M  V30 9775 N 905.893 5.2749 4.49139 0
M  V30 9776 N 907.686 4.16476 3.77497 0
M  V30 9777 H 899.837 2.06039 0.515897 0
M  V30 9778 H 902.1 0.902423 0.290408 0
M  V30 9779 H 901.806 3.119 1.62515 0
M  V30 9780 H 901.68 2.16226 3.09073 0
M  V30 9781 H 904.067 1.26616 2.66557 0
M  V30 9782 H 904.148 2.2578 1.20238 0
M  V30 9783 H 903.792 4.34755 2.62585 0
M  V30 9784 H 903.722 3.32534 4.08324 0
M  V30 9785 H 906.213 2.68563 2.65861 0
M  V30 9786 H 906.526 5.91397 4.97463 0
M  V30 9787 H 904.871 5.31412 4.47914 0
M  V30 9788 H 908.062 3.38539 3.23278 0
M  V30 9789 H 908.235 4.85739 4.28908 0
M  V30 9790 N 901.641 -1.19671 1.02551 0
M  V30 9791 C 902.551 -2.26441 0.613329 0
M  V30 9792 C 903.567 -1.70375 -0.353339 0
M  V30 9793 O 904.743 -2.0028 -0.212064 0
M  V30 9794 C 901.808 -3.46684 -0.0329028 0
M  V30 9795 C 900.869 -4.17945 0.980837 0
M  V30 9796 C 900.102 -5.32448 0.36535 0
M  V30 9797 O 900.325 -5.64291 -0.832596 0
M  V30 9798 O 899.259 -5.92012 1.08652 0
M  V30 9799 H 903.085 -2.63932 1.50246 0
M  V30 9800 H 900.67 -1.2646 0.795502 0
M  V30 9801 H 902.552 -4.1956 -0.393395 0
M  V30 9802 H 901.227 -3.1105 -0.896089 0
M  V30 9803 H 900.134 -3.47204 1.39286 0
M  V30 9804 H 901.467 -4.57542 1.81428 0
M  V30 9805 N 903.119 -0.802921 -1.35613 0
M  V30 9806 C 904.365 -0.391259 -1.99601 0
M  V30 9807 C 904.72 1.02922 -1.62557 0
M  V30 9808 O 904.013 1.70357 -0.876878 0
M  V30 9809 C 904.207 -0.507806 -3.53774 0
M  V30 9810 C 904.036 -1.93807 -4.05794 0
M  V30 9811 C 902.806 -2.56564 -4.3532 0
M  V30 9812 C 905.004 -2.90211 -4.24596 0
M  V30 9813 N 902.986 -3.91038 -4.73247 0
M  V30 9814 C 904.357 -4.09548 -4.65479 0
M  V30 9815 C 906.412 -2.87091 -4.06796 0
M  V30 9816 C 905.115 -5.26191 -4.90424 0
M  V30 9817 C 907.141 -4.02933 -4.32896 0
M  V30 9818 C 906.503 -5.21017 -4.74047 0
M  V30 9819 H 902.602 -0.190867 -0.758349 0
M  V30 9820 H 905.186 -1.04338 -1.64382 0
M  V30 9821 H 903.357 0.114306 -3.88232 0
M  V30 9822 H 905.089 -0.0710855 -4.04638 0
M  V30 9823 H 901.844 -2.07945 -4.25507 0
M  V30 9824 H 902.268 -4.60262 -4.96475 0
M  V30 9825 H 906.91 -1.96951 -3.74126 0
M  V30 9826 H 904.628 -6.16906 -5.2197 0
M  V30 9827 H 908.214 -4.01895 -4.2068 0
M  V30 9828 H 907.094 -6.09165 -4.93849 0
M  V30 9829 N 904.597 1.47463 -0.556102 0
M  V30 9830 C 905.547 2.27007 0.212592 0
M  V30 9831 C 906.531 1.34288 0.886312 0
M  V30 9832 O 907.723 1.5865 0.784801 0
M  V30 9833 C 904.852 3.20021 1.24263 0
M  V30 9834 C 903.938 4.2022 0.572385 0
M  V30 9835 N 904.329 5.04539 -0.35691 0
M  V30 9836 C 902.627 4.38276 0.826441 0
M  V30 9837 C 903.328 5.76895 -0.746134 0
M  V30 9838 N 902.304 5.43506 -0.101225 0
M  V30 9839 H 906.106 2.89582 -0.501925 0
M  V30 9840 H 903.62 1.57988 -0.375961 0
M  V30 9841 H 905.617 3.7569 1.80728 0
M  V30 9842 H 904.277 2.59003 1.95826 0
M  V30 9843 H 905.288 5.12715 -0.731012 0
M  V30 9844 H 901.965 3.88429 1.53066 0
M  V30 9845 H 903.355 6.5472 -1.50967 0
M  V30 9846 N 906.075 0.2925 1.54862 0
M  V30 9847 C 907.022 -0.587365 2.23201 0
M  V30 9848 C 907.992 -1.13623 1.21157 0
M  V30 9849 O 909.177 -1.18233 1.49752 0
M  V30 9850 C 906.317 -1.75745 2.96998 0
M  V30 9851 C 905.43 -1.24078 4.13798 0
M  V30 9852 C 904.565 -2.37405 4.75197 0
M  V30 9853 C 903.604 -1.82829 5.84157 0
M  V30 9854 N 902.741 -2.89696 6.39547 0
M  V30 9855 H 907.581 0.00202207 2.98 0
M  V30 9856 H 905.118 0.012766 1.47094 0
M  V30 9857 H 907.076 -2.44549 3.38011 0
M  V30 9858 H 905.706 -2.3186 2.24591 0
M  V30 9859 H 904.758 -0.445268 3.77785 0
M  V30 9860 H 906.07 -0.801186 4.92324 0
M  V30 9861 H 905.224 -3.14172 5.19019 0
M  V30 9862 H 903.963 -2.84688 3.95985 0
M  V30 9863 H 902.968 -1.04548 5.39768 0
M  V30 9864 H 904.193 -1.36461 6.65248 0
M  V30 9865 H 902.139 -3.36328 5.63222 0
M  V30 9866 H 902.056 -2.50206 7.13395 0
M  V30 9867 H 903.324 -3.66386 6.88027 0
M  V30 9868 N 907.553 -1.57587 0.0200696 0
M  V30 9869 C 908.8 -1.91424 -0.660525 0
M  V30 9870 C 909.128 -0.895626 -1.72652 0
M  V30 9871 O 908.383 0.096771 -1.95461 0
M  V30 9872 C 908.682 -3.32002 -1.32323 0
M  V30 9873 C 908.348 -4.49223 -0.388487 0
M  V30 9874 C 907.01 -4.81021 -0.131184 0
M  V30 9875 C 909.362 -5.20581 0.253906 0
M  V30 9876 C 906.69 -5.81539 0.776471 0
M  V30 9877 C 909.042 -6.22067 1.14956 0
M  V30 9878 C 907.706 -6.52311 1.41584 0
M  V30 9879 H 906.976 -0.700472 -0.241703 0
M  V30 9880 H 909.623 -1.91333 0.0798991 0
M  V30 9881 H 907.928 -3.28312 -2.13819 0
M  V30 9882 H 909.625 -3.5545 -1.85623 0
M  V30 9883 H 906.215 -4.24391 -0.599207 0
M  V30 9884 H 910.399 -4.96253 0.068164 0
M  V30 9885 H 905.655 -6.03322 0.990575 0
M  V30 9886 H 909.829 -6.76484 1.65357 0
M  V30 9887 H 907.456 -7.30017 2.12083 0
M  V30 9888 N 909.032 0.252966 -1.55557 0
M  V30 9889 C 909.962 1.31691 -1.9282 0
M  V30 9890 C 910.943 1.50516 -0.7924 0
M  V30 9891 O 912.128 1.63225 -1.05219 0
M  V30 9892 C 909.258 2.67281 -2.21762 0
M  V30 9893 C 908.212 2.6316 -3.37536 0
M  V30 9894 C 907.538 4.02488 -3.52005 0
M  V30 9895 C 908.838 2.20675 -4.73392 0
M  V30 9896 H 910.532 1.00751 -2.81939 0
M  V30 9897 H 908.078 0.483219 -1.3565 0
M  V30 9898 H 910.031 3.41842 -2.46419 0
M  V30 9899 H 908.755 2.99845 -1.29463 0
M  V30 9900 H 907.414 1.91057 -3.12878 0
M  V30 9901 H 907.062 4.32307 -2.57137 0
M  V30 9902 H 906.762 4.00621 -4.29857 0
M  V30 9903 H 908.286 4.78758 -3.78977 0
M  V30 9904 H 909.7 2.84965 -4.97461 0
M  V30 9905 H 908.097 2.29931 -5.54303 0
M  V30 9906 H 909.167 1.15831 -4.70862 0
M  V30 9907 N 910.51 1.48831 0.518367 0
M  V30 9908 C 911.44 1.67119 1.63075 0
M  V30 9909 C 912.421 0.519948 1.61958 0
M  V30 9910 O 913.606 0.753824 1.78972 0
M  V30 9911 C 910.736 1.72158 3.01627 0
M  V30 9912 C 909.69 2.86898 3.17606 0
M  V30 9913 C 909.016 2.77035 4.57335 0
M  V30 9914 C 910.316 4.28057 2.99274 0
M  V30 9915 H 912.01 2.60248 1.48025 0
M  V30 9916 H 909.556 1.2524 0.710694 0
M  V30 9917 H 911.509 1.83539 3.7933 0
M  V30 9918 H 910.233 0.756157 3.17726 0
M  V30 9919 H 908.892 2.75091 2.42323 0
M  V30 9920 H 908.54 1.78438 4.70286 0
M  V30 9921 H 908.24 3.54036 4.6897 0
M  V30 9922 H 909.764 2.904 5.37122 0
M  V30 9923 H 911.178 4.40636 3.6676 0
M  V30 9924 H 909.575 5.06145 3.22393 0
M  V30 9925 H 910.645 4.4371 1.95574 0
M  V30 9926 N 911.988 -0.768124 1.37614 0
M  V30 9927 C 912.898 -1.91249 1.35871 0
M  V30 9928 C 913.914 -1.7208 0.257786 0
M  V30 9929 O 915.09 -1.95253 0.493782 0
M  V30 9930 C 912.155 -3.26423 1.16829 0
M  V30 9931 C 911.216 -3.5822 2.36594 0
M  V30 9932 C 910.449 -4.86945 2.1845 0
M  V30 9933 O 910.672 -5.58258 1.17064 0
M  V30 9934 O 909.606 -5.17888 3.06718 0
M  V30 9935 H 913.432 -1.95671 2.32264 0
M  V30 9936 H 911.017 -0.911382 1.18382 0
M  V30 9937 H 912.899 -4.07269 1.08212 0
M  V30 9938 H 911.574 -3.22845 0.235123 0
M  V30 9939 H 910.481 -2.77594 2.50783 0
M  V30 9940 H 911.814 -3.66545 3.2849 0
M  V30 9941 N 913.466 -1.22244 -0.994698 0
M  V30 9942 C 914.696 -1.07062 -1.76695 0
M  V30 9943 C 915.104 0.381895 -1.85306 0
M  V30 9944 O 914.447 1.27648 -1.32105 0
M  V30 9945 C 914.509 -1.60487 -3.2169 0
M  V30 9946 C 914.173 -3.09079 -3.36629 0
M  V30 9947 C 915.17 -4.06526 -3.24088 0
M  V30 9948 C 912.855 -3.48497 -3.61739 0
M  V30 9949 C 914.849 -5.41377 -3.36437 0
M  V30 9950 C 912.536 -4.83498 -3.73729 0
M  V30 9951 C 913.534 -5.79747 -3.61086 0
M  V30 9952 O 913.222 -7.12297 -3.72678 0
M  V30 9953 H 912.954 -0.375963 -0.561807 0
M  V30 9954 H 915.508 -1.62259 -1.25941 0
M  V30 9955 H 913.738 -0.996957 -3.73628 0
M  V30 9956 H 915.427 -1.40994 -3.80625 0
M  V30 9957 H 916.193 -3.77415 -3.04602 0
M  V30 9958 H 912.072 -2.74106 -3.70657 0
M  V30 9959 H 915.616 -6.16485 -3.26485 0
M  V30 9960 H 911.513 -5.1229 -3.92721 0
M  V30 9961 H 912.281 -7.1985 -3.89562 0
M  V30 9962 N 914.944 1.19125 -1.03184 0
M  V30 9963 C 916.193 1.8821 -0.725264 0
M  V30 9964 C 916.506 1.80674 0.749411 0
M  V30 9965 O 917.712 2.45037 1.16915 0
M  V30 9966 C 916.168 3.37607 -1.24697 0
M  V30 9967 C 915.776 3.53693 -2.74964 0
M  V30 9968 C 917.52 4.12149 -1.01652 0
M  V30 9969 C 915.427 4.97001 -3.20538 0
M  V30 9970 H 914.357 0.704916 -0.267599 0
M  V30 9971 H 917.008 1.34663 -1.24652 0
M  V30 9972 H 915.39 3.90569 -0.653614 0
M  V30 9973 H 916.564 3.11046 -3.39981 0
M  V30 9974 H 914.879 2.92544 -2.96322 0
M  V30 9975 H 917.476 5.17837 -1.33226 0
M  V30 9976 H 917.819 4.16274 0.0465712 0
M  V30 9977 H 918.352 3.65334 -1.57403 0
M  V30 9978 H 915.091 4.9804 -4.26189 0
M  V30 9979 H 914.611 5.40398 -2.60251 0
M  V30 9980 H 916.29 5.65669 -3.14049 0
M  V30 9981 N 916.422 0.810101 1.35185 0
M  V30 9982 C 917.385 0.22852 2.28058 0
M  V30 9983 C 918.385 -0.586168 1.49735 0
M  V30 9984 O 919.575 -0.40414 1.69447 0
M  V30 9985 C 916.707 -0.681041 3.34028 0
M  V30 9986 H 917.9 1.04768 2.81005 0
M  V30 9987 H 915.453 0.58101 1.451 0
M  V30 9988 H 916.188 -1.52375 2.86273 0
M  V30 9989 H 915.973 -0.0985276 3.91976 0
M  V30 9990 H 917.463 -1.08217 4.03335 0
M  V30 9991 N 917.9 -1.47166 0.563914 0
M  V30 9992 C 919.311 -1.86231 0.132307 0
M  V30 9993 C 919.662 -1.46976 -1.29971 0
M  V30 9994 O 918.787 -0.875911 -1.97881 0
M  V30 9995 C 919.382 -3.37996 0.233335 0
M  V30 9996 C 917.941 -3.76127 -0.143278 0
M  V30 9997 C 917.088 -2.71212 0.577857 0
M  V30 9998 H 920.039 -1.38588 0.773249 0
M  V30 9999 H 920.06 -3.76558 -0.546309 0
M  V30 10000 H 919.572 -3.66535 1.27568 0
M  V30 10001 H 917.673 -3.53205 -1.18648 0
M  V30 10002 H 917.786 -4.78595 0.219952 0
M  V30 10003 H 916.15 -2.54692 0.020186 0
M  V30 10004 H 916.933 -3.02593 1.62149 0
M  V30 10005 N 919.378 -0.300708 -1.54705 0
M  V30 10006 C 920.311 0.617513 -2.19686 0
M  V30 10007 C 921.289 1.1331 -1.16617 0
M  V30 10008 O 922.473 1.20135 -1.45258 0
M  V30 10009 C 919.6 1.84486 -2.84047 0
M  V30 10010 C 918.646 1.46253 -4.0064 0
M  V30 10011 S 919.479 0.518718 -5.32982 0
M  V30 10012 C 920.635 1.75387 -6.00825 0
M  V30 10013 H 920.868 0.0654548 -2.97228 0
M  V30 10014 H 918.401 -0.0848492 -1.54167 0
M  V30 10015 H 920.359 2.54921 -3.21754 0
M  V30 10016 H 919.02 2.36808 -2.06351 0
M  V30 10017 H 918.213 2.37648 -4.44454 0
M  V30 10018 H 917.815 0.838129 -3.64488 0
M  V30 10019 H 920.107 2.69448 -6.21614 0
M  V30 10020 H 921.05 1.35829 -6.9495 0
M  V30 10021 H 921.458 1.93045 -5.30466 0
M  V30 10022 N 920.856 1.57574 -0.0284266 0
M  V30 10023 C 922.084 1.96071 0.660575 0
M  V30 10024 C 922.499 0.904881 1.65703 0
M  V30 10025 O 921.856 -0.113379 1.82147 0
M  V30 10026 C 921.907 3.34634 1.36756 0
M  V30 10027 O 921.628 4.36167 0.411041 0
M  V30 10028 C 923.129 3.87758 2.14845 0
M  V30 10029 H 920.349 0.645794 0.182183 0
M  V30 10030 H 922.893 2.04311 -0.0879858 0
M  V30 10031 H 921.048 3.27616 2.06753 0
M  V30 10032 H 921.462 5.16493 0.913 0
M  V30 10033 H 922.936 4.87058 2.59767 0
M  V30 10034 H 923.413 3.21967 2.9872 0
M  V30 10035 H 924.019 3.98043 1.49807 0
M  V30 10036 N 922.334 -0.244713 1.55689 0
M  V30 10037 C 923.244 -1.32447 1.93636 0
M  V30 10038 C 924.26 -1.52541 0.837086 0
M  V30 10039 O 925.436 -1.66121 1.13867 0
M  V30 10040 C 922.501 -2.65864 2.22525 0
M  V30 10041 C 921.562 -2.54273 3.45896 0
M  V30 10042 C 920.795 -3.81327 3.73397 0
M  V30 10043 O 921.018 -4.83307 3.02936 0
M  V30 10044 O 919.952 -3.79829 4.66919 0
M  V30 10045 H 923.778 -1.03255 2.85608 0
M  V30 10046 H 921.363 -0.445652 1.42598 0
M  V30 10047 H 923.245 -3.447 2.42404 0
M  V30 10048 H 921.92 -2.94784 1.33731 0
M  V30 10049 H 920.827 -1.73715 3.31321 0
M  V30 10050 H 922.16 -2.30297 4.34999 0
M  V30 10051 N 923.813 -1.49104 -0.510467 0
M  V30 10052 C 924.76 -1.65074 -1.61305 0
M  V30 10053 C 925.73 -0.492362 -1.58635 0
M  V30 10054 O 926.915 -0.718241 -1.76765 0
M  V30 10055 C 924.055 -1.71457 -2.99493 0
M  V30 10056 C 923.168 -2.98536 -3.12251 0
M  V30 10057 C 922.303 -2.95957 -4.41116 0
M  V30 10058 C 921.342 -4.17655 -4.47471 0
M  V30 10059 N 920.479 -4.13041 -5.67751 0
M  V30 10060 H 925.319 -2.59222 -1.46996 0
M  V30 10061 H 922.856 -1.28535 -0.715346 0
M  V30 10062 H 924.814 -1.7314 -3.79577 0
M  V30 10063 H 923.444 -0.807834 -3.12528 0
M  V30 10064 H 922.496 -3.06509 -2.25292 0
M  V30 10065 H 923.808 -3.88527 -3.12807 0
M  V30 10066 H 922.962 -2.96149 -5.2951 0
M  V30 10067 H 921.701 -2.03728 -4.4311 0
M  V30 10068 H 920.706 -4.17717 -3.57481 0
M  V30 10069 H 921.931 -5.11066 -4.472 0
M  V30 10070 H 919.877 -3.23643 -5.70606 0
M  V30 10071 H 919.794 -4.96757 -5.69884 0
M  V30 10072 H 921.062 -4.17322 -6.58379 0
M  V30 10073 N 925.291 0.760815 -1.38019 0
M  V30 10074 C 926.221 1.88811 -1.37377 0
M  V30 10075 C 927.202 1.68388 -0.240737 0
M  V30 10076 O 928.387 1.89086 -0.442739 0
M  V30 10077 C 925.517 3.26244 -1.1909 0
M  V30 10078 C 924.471 3.61254 -2.29521 0
M  V30 10079 C 923.797 4.97346 -1.96345 0
M  V30 10080 C 925.097 3.66874 -3.71753 0
M  V30 10081 H 926.791 1.89606 -2.31711 0
M  V30 10082 H 924.337 0.910818 -1.11535 0
M  V30 10083 H 926.29 4.04755 -1.17267 0
M  V30 10084 H 925.014 3.2591 -0.212152 0
M  V30 10085 H 923.673 2.85057 -2.30517 0
M  V30 10086 H 923.321 4.93564 -0.969728 0
M  V30 10087 H 923.021 5.21739 -2.703 0
M  V30 10088 H 924.545 5.78244 -1.96129 0
M  V30 10089 H 925.959 4.35514 -3.72828 0
M  V30 10090 H 924.356 4.02772 -4.44853 0
M  V30 10091 H 925.426 2.67273 -4.0459 0
M  V30 10092 N 926.769 1.22769 0.988202 0
M  V30 10093 C 927.999 1.07998 1.76125 0
M  V30 10094 C 928.407 -0.372062 1.85506 0
M  V30 10095 O 927.75 -1.26946 1.3278 0
M  V30 10096 C 927.812 1.6219 3.20834 0
M  V30 10097 C 927.476 3.1086 3.34986 0
M  V30 10098 C 928.473 4.08239 3.21927 0
M  V30 10099 C 926.158 3.50411 3.59886 0
M  V30 10100 C 928.152 5.43154 3.33561 0
M  V30 10101 C 925.839 4.85473 3.71159 0
M  V30 10102 C 926.837 5.81653 3.58006 0
M  V30 10103 O 926.525 7.14263 3.68895 0
M  V30 10104 H 926.257 0.378937 0.559806 0
M  V30 10105 H 928.811 1.62925 1.25078 0
M  V30 10106 H 927.041 1.01676 3.73094 0
M  V30 10107 H 928.73 1.43011 3.79872 0
M  V30 10108 H 929.496 3.79025 3.02597 0
M  V30 10109 H 925.375 2.76068 3.69198 0
M  V30 10110 H 928.919 6.18207 3.23211 0
M  V30 10111 H 924.816 5.14365 3.89998 0
M  V30 10112 H 925.584 7.21906 3.85739 0
M  V30 10113 N 928.247 -1.18576 1.03814 0
M  V30 10114 C 929.658 -1.70159 0.768299 0
M  V30 10115 C 930.009 -1.8286 -0.711106 0
M  V30 10116 O 929.134 -1.5063 -1.55369 0
M  V30 10117 C 929.729 -3.09062 1.38804 0
M  V30 10118 C 928.288 -3.57866 1.16656 0
M  V30 10119 C 927.435 -2.34484 1.48029 0
M  V30 10120 H 930.386 -1.03287 1.20488 0
M  V30 10121 H 930.407 -3.72211 0.7899 0
M  V30 10122 H 929.919 -2.99785 2.46476 0
M  V30 10123 H 928.02 -3.72442 0.108471 0
M  V30 10124 H 928.133 -4.41445 1.8618 0
M  V30 10125 H 926.497 -2.38273 0.899902 0
M  V30 10126 H 927.28 -2.27829 2.56805 0
M  V30 10127 N 929.725 -0.817259 -1.34754 0
M  V30 10128 C 930.973 -0.401852 -1.98065 0
M  V30 10129 C 931.294 1.03718 -1.65129 0
M  V30 10130 O 930.564 1.71921 -0.939141 0
M  V30 10131 H 929.144 -0.145603 -0.732672 0
M  V30 10132 H 931.806 -1.04545 -1.64488 0
M  V30 10133 H 930.902 -0.516241 -3.07801 0
M  V30 10134 N 931.203 1.46865 -0.571711 0
M  V30 10135 C 932.433 2.06518 -0.0583129 0
M  V30 10136 C 932.841 1.4227 1.24723 0
M  V30 10137 O 932.184 0.518293 1.76237 0
M  V30 10138 C 932.246 3.5898 0.193214 0
M  V30 10139 C 931.91 4.45355 -1.02507 0
M  V30 10140 C 932.907 4.82575 -1.93435 0
M  V30 10141 C 930.592 4.86656 -1.24382 0
M  V30 10142 C 932.586 5.59912 -3.04595 0
M  V30 10143 C 930.273 5.63754 -2.35849 0
M  V30 10144 C 931.271 6.00294 -3.25785 0
M  V30 10145 O 930.959 6.75836 -4.35318 0
M  V30 10146 H 930.691 0.674188 -0.0494584 0
M  V30 10147 H 933.245 1.89644 -0.788934 0
M  V30 10148 H 931.475 3.7412 0.978319 0
M  V30 10149 H 933.164 4.006 0.653769 0
M  V30 10150 H 933.93 4.51256 -1.77745 0
M  V30 10151 H 929.809 4.57672 -0.55292 0
M  V30 10152 H 933.353 5.88351 -3.74818 0
M  V30 10153 H 929.25 5.94487 -2.51506 0
M  V30 10154 H 930.018 6.94247 -4.33547 0
M  V30 10155 N 932.681 0.308908 1.54543 0
M  V30 10156 C 933.911 -0.299983 2.04411 0
M  V30 10157 C 934.319 -1.47463 1.18538 0
M  V30 10158 O 933.662 -1.82547 0.205463 0
M  V30 10159 C 933.724 -0.811579 3.50219 0
M  V30 10160 C 933.388 0.238834 4.56375 0
M  V30 10161 C 934.385 1.06997 5.08771 0
M  V30 10162 C 932.07 0.382808 5.00839 0
M  V30 10163 C 934.064 2.03096 6.04178 0
M  V30 10164 C 931.751 1.34723 5.96065 0
M  V30 10165 C 932.749 2.16978 6.47618 0
M  V30 10166 O 932.437 3.11783 7.40977 0
M  V30 10167 H 932.169 -0.0679682 0.672574 0
M  V30 10168 H 934.723 0.448815 2.00437 0
M  V30 10169 H 932.953 -1.61104 3.51543 0
M  V30 10170 H 934.642 -1.33721 3.83241 0
M  V30 10171 H 935.408 0.969654 4.75208 0
M  V30 10172 H 931.287 -0.247507 4.60335 0
M  V30 10173 H 934.831 2.67338 6.44342 0
M  V30 10174 H 930.728 1.44824 6.29044 0
M  V30 10175 H 931.496 3.06853 7.58804 0
M  V30 10176 N 934.159 -1.57557 0.0367827 0
M  V30 10177 C 935.387 -1.96419 -0.650168 0
M  V30 10178 C 935.802 -0.913656 -1.6522 0
M  V30 10179 O 935.159 0.103718 -1.82205 0
M  V30 10180 C 935.21 -3.35355 -1.3498 0
M  V30 10181 O 934.931 -4.36379 -0.387905 0
M  V30 10182 C 936.432 -3.88892 -2.12786 0
M  V30 10183 H 933.652 -0.646751 -0.178756 0
M  V30 10184 H 936.196 -2.04261 0.0988197 0
M  V30 10185 H 934.351 -3.28708 -2.05012 0
M  V30 10186 H 934.765 -5.16969 -0.885596 0
M  V30 10187 H 936.239 -4.88428 -2.5718 0
M  V30 10188 H 936.716 -3.23547 -2.97008 0
M  V30 10189 H 937.322 -3.98831 -1.47694 0
M  V30 10190 N 935.637 0.236453 -1.55816 0
M  V30 10191 C 937.053 0.585465 -1.48474 0
M  V30 10192 C 937.253 1.8785 -0.72902 0
M  V30 10193 O 936.309 2.51131 -0.262614 0
M  V30 10194 C 937.622 0.678506 -2.92945 0
M  V30 10195 C 939.17 0.770135 -3.03378 0
M  V30 10196 C 939.645 0.894649 -4.49177 0
M  V30 10197 N 941.136 0.959253 -4.53158 0
M  V30 10198 C 941.871 1.07505 -5.63232 0
M  V30 10199 N 941.367 1.15572 -6.83092 0
M  V30 10200 N 943.16 1.10902 -5.51051 0
M  V30 10201 H 935.311 -0.612241 -2.03385 0
M  V30 10202 H 937.574 -0.212796 -0.923808 0
M  V30 10203 H 937.28 -0.201757 -3.51121 0
M  V30 10204 H 937.154 1.54703 -3.44016 0
M  V30 10205 H 939.541 1.64085 -2.45276 0
M  V30 10206 H 939.622 -0.123753 -2.555 0
M  V30 10207 H 939.266 0.0284537 -5.07892 0
M  V30 10208 H 939.196 1.80373 -4.94745 0
M  V30 10209 H 941.687 0.907827 -3.66834 0
M  V30 10210 H 942 1.24343 -7.62731 0
M  V30 10211 H 940.345 1.12511 -6.85833 0
M  V30 10212 H 943.536 1.04255 -4.56343 0
M  V30 10213 H 943.709 1.19581 -6.36871 0
M  V30 10214 N 937.115 1.49373 0.502552 0
M  V30 10215 C 938.078 1.65413 1.58654 0
M  V30 10216 C 939.078 0.526003 1.51953 0
M  V30 10217 O 940.268 0.792421 1.55133 0
M  V30 10218 C 937.4 1.65005 2.98306 0
M  V30 10219 H 938.593 2.62095 1.45762 0
M  V30 10220 H 936.146 1.38381 0.726672 0
M  V30 10221 H 936.881 0.699014 3.16677 0
M  V30 10222 H 936.666 2.46931 3.04578 0
M  V30 10223 H 938.156 1.79477 3.77065 0
M  V30 10224 N 938.594 -0.753485 1.38421 0
M  V30 10225 C 939.526 -1.87692 1.31547 0
M  V30 10226 C 940.539 -1.612 0.227671 0
M  V30 10227 O 941.728 -1.71778 0.485238 0
M  V30 10228 C 938.828 -3.23329 1.01545 0
M  V30 10229 C 938.001 -3.77324 2.21236 0
M  V30 10230 C 937.06 -4.91478 1.87977 0
M  V30 10231 O 936.086 -5.06106 2.60472 0
M  V30 10232 N 937.288 -5.74466 0.834796 0
M  V30 10233 H 940.053 -1.94099 2.28354 0
M  V30 10234 H 937.614 -0.933421 1.32283 0
M  V30 10235 H 939.606 -3.9724 0.773477 0
M  V30 10236 H 938.176 -3.12307 0.135334 0
M  V30 10237 H 937.396 -2.94978 2.61498 0
M  V30 10238 H 938.684 -4.10131 3.01115 0
M  V30 10239 H 938.082 -5.65217 0.233606 0
M  V30 10240 H 936.639 -6.48524 0.652703 0
M  V30 10241 N 940.072 -1.23292 -0.981677 0
M  V30 10242 C 941.319 -1.06424 -1.72279 0
M  V30 10243 C 941.647 0.399055 -1.90362 0
M  V30 10244 O 940.902 1.31181 -1.45224 0
M  V30 10245 C 941.201 -1.73339 -3.12551 0
M  V30 10246 C 940.867 -3.23256 -3.14351 0
M  V30 10247 C 939.529 -3.64159 -3.14549 0
M  V30 10248 C 941.881 -4.1916 -3.09765 0
M  V30 10249 C 939.209 -4.99428 -3.07877 0
M  V30 10250 C 941.561 -5.54419 -3.04635 0
M  V30 10251 C 940.225 -5.94688 -3.03154 0
M  V30 10252 H 939.495 -0.389434 -0.630415 0
M  V30 10253 H 942.142 -1.53208 -1.1489 0
M  V30 10254 H 940.447 -1.18911 -3.73319 0
M  V30 10255 H 942.144 -1.57767 -3.68661 0
M  V30 10256 H 938.734 -2.90693 -3.14953 0
M  V30 10257 H 942.918 -3.88569 -3.08753 0
M  V30 10258 H 938.174 -5.29844 -3.05083 0
M  V30 10259 H 942.348 -6.28448 -3.00043 0
M  V30 10260 H 939.975 -6.99468 -2.97739 0
M  V30 10261 N 941.55 1.18024 -1.04442 0
M  V30 10262 C 942.827 1.8398 -0.664125 0
M  V30 10263 C 943.207 1.92961 0.856116 0
M  V30 10264 O 942.555 1.45839 1.75907 0
M  V30 10265 C 942.765 3.22069 -1.34433 0
M  V30 10266 C 944.113 3.98063 -1.47754 0
M  V30 10267 O 945.137 3.31523 -1.30274 0
M  V30 10268 O 943.996 5.17291 -1.76272 0
M  V30 10269 H 941.09 0.793543 -0.23285 0
M  V30 10270 H 943.636 1.25385 -1.14354 0
M  V30 10271 H 942.408 3.10458 -2.38184 0
M  V30 10272 H 942.031 3.88325 -0.853782 0
M  V30 10273 N 943.028 0.824394 1.34319 0
M  V30 10274 C 943.958 0.262077 2.32025 0
M  V30 10275 C 944.939 -0.622277 1.58309 0
M  V30 10276 O 946.124 -0.548848 1.86283 0
M  V30 10277 C 943.254 -0.57567 3.42496 0
M  V30 10278 C 942.208 0.21167 4.27476 0
M  V30 10279 C 941.534 -0.748913 5.29429 0
M  V30 10280 C 942.834 1.42068 5.02607 0
M  V30 10281 H 944.528 1.07842 2.79304 0
M  V30 10282 H 942.074 0.520022 1.34282 0
M  V30 10283 H 944.027 -0.979251 4.09864 0
M  V30 10284 H 942.751 -1.42508 2.93869 0
M  V30 10285 H 941.41 0.596636 3.61712 0
M  V30 10286 H 941.058 -1.59432 4.77064 0
M  V30 10287 H 940.758 -0.226313 5.87164 0
M  V30 10288 H 942.282 -1.15032 5.99667 0
M  V30 10289 H 943.696 1.09103 5.62823 0
M  V30 10290 H 942.093 1.87903 5.69923 0
M  V30 10291 H 943.163 2.1981 4.32217 0
M  V30 10292 N 944.506 -1.46559 0.579492 0
M  V30 10293 C 945.469 -2.28739 -0.145371 0
M  V30 10294 C 946.469 -1.38211 -0.821854 0
M  V30 10295 O 947.659 -1.6062 -0.674302 0
M  V30 10296 C 944.791 -3.18507 -1.21515 0
M  V30 10297 H 945.984 -2.94301 0.576786 0
M  V30 10298 H 943.537 -1.52616 0.337327 0
M  V30 10299 H 944.272 -2.57685 -1.96899 0
M  V30 10300 H 944.057 -3.85157 -0.734616 0
M  V30 10301 H 945.547 -3.80369 -1.72363 0
M  V30 10302 N 945.984 -0.3171 -1.54377 0
M  V30 10303 C 947.231 0.28741 -2.0045 0
M  V30 10304 C 947.559 1.52648 -1.20535 0
M  V30 10305 O 946.814 1.93775 -0.273831 0
M  V30 10306 C 947.113 0.672917 -3.51008 0
M  V30 10307 C 946.779 -0.466245 -4.48483 0
M  V30 10308 C 945.441 -0.778933 -4.74854 0
M  V30 10309 C 947.793 -1.23176 -5.06436 0
M  V30 10310 C 945.121 -1.85997 -5.56437 0
M  V30 10311 C 947.473 -2.30284 -5.89196 0
M  V30 10312 C 946.137 -2.62141 -6.13872 0
M  V30 10313 H 945.407 0.105171 -0.733499 0
M  V30 10314 H 948.054 -0.439538 -1.86388 0
M  V30 10315 H 946.359 1.48019 -3.62764 0
M  V30 10316 H 948.056 1.15209 -3.84094 0
M  V30 10317 H 944.646 -0.212449 -4.28073 0
M  V30 10318 H 948.83 -1.00344 -4.8605 0
M  V30 10319 H 944.086 -2.11134 -5.73788 0
M  V30 10320 H 948.26 -2.90048 -6.33123 0
M  V30 10321 H 945.887 -3.46037 -6.76877 0
M  V30 10322 N 947.462 1.57535 -0.0451378 0
M  V30 10323 C 948.708 1.92736 0.630921 0
M  V30 10324 C 949.041 0.923265 1.70849 0
M  V30 10325 O 948.316 -0.0516512 1.94431 0
M  V30 10326 C 948.599 3.38348 1.23259 0
M  V30 10327 C 948.452 4.49503 0.16349 0
M  V30 10328 C 949.771 3.84233 2.14599 0
M  V30 10329 H 946.89 0.700884 0.227883 0
M  V30 10330 H 949.532 1.89706 -0.10567 0
M  V30 10331 H 947.682 3.41061 1.86037 0
M  V30 10332 H 949.354 4.58919 -0.46808 0
M  V30 10333 H 947.597 4.30802 -0.509166 0
M  V30 10334 H 948.268 5.48457 0.624382 0
M  V30 10335 H 950.744 3.83358 1.6179 0
M  V30 10336 H 949.62 4.86781 2.53644 0
M  V30 10337 H 949.881 3.20646 3.04366 0
M  V30 10338 N 948.94 -0.228186 1.55939 0
M  V30 10339 C 950.186 -0.954964 1.78909 0
M  V30 10340 C 950.519 -1.8425 0.613648 0
M  V30 10341 O 949.794 -1.90604 -0.38737 0
M  V30 10342 C 950.077 -1.79957 3.1191 0
M  V30 10343 C 949.93 -0.938968 4.3989 0
M  V30 10344 C 951.249 -2.77859 3.41295 0
M  V30 10345 H 948.368 -0.345745 0.650868 0
M  V30 10346 H 951.01 -0.224244 1.88672 0
M  V30 10347 H 949.16 -2.42256 3.03717 0
M  V30 10348 H 950.832 -0.333225 4.60095 0
M  V30 10349 H 949.075 -0.244096 4.33113 0
M  V30 10350 H 949.746 -1.56416 5.29375 0
M  V30 10351 H 952.222 -2.25695 3.49572 0
M  V30 10352 H 951.098 -3.34062 4.35538 0
M  V30 10353 H 951.359 -3.55266 2.63132 0
M  V30 10354 N 950.418 -1.49637 -0.494624 0
M  V30 10355 C 951.834 -1.36541 -0.826361 0
M  V30 10356 C 952.034 -0.403386 -1.97421 0
M  V30 10357 O 951.09 0.162614 -2.51976 0
M  V30 10358 C 952.403 -2.77401 -1.16057 0
M  V30 10359 C 953.951 -2.86148 -1.26841 0
M  V30 10360 C 954.426 -4.27789 -1.63587 0
M  V30 10361 N 955.917 -4.3063 -1.70624 0
M  V30 10362 C 956.652 -5.37198 -2.00514 0
M  V30 10363 N 956.148 -6.54004 -2.28584 0
M  V30 10364 N 957.941 -5.2462 -2.01818 0
M  V30 10365 H 950.092 -2.10776 0.26219 0
M  V30 10366 H 952.355 -0.946419 0.0547235 0
M  V30 10367 H 952.061 -3.49526 -0.390434 0
M  V30 10368 H 951.935 -3.1317 -2.10249 0
M  V30 10369 H 954.322 -2.14256 -2.02925 0
M  V30 10370 H 954.403 -2.53953 -0.30684 0
M  V30 10371 H 954.047 -5.00209 -0.880507 0
M  V30 10372 H 953.977 -4.57453 -2.60854 0
M  V30 10373 H 956.468 -3.46393 -1.51065 0
M  V30 10374 H 956.781 -7.31041 -2.50598 0
M  V30 10375 H 955.126 -6.57219 -2.26027 0
M  V30 10376 H 958.317 -4.32371 -1.79369 0
M  V30 10377 H 958.49 -6.07765 -2.24778 0
M  V30 10378 N 951.896 0.746133 -1.38819 0
M  V30 10379 C 953.126 1.53316 -1.38484 0
M  V30 10380 C 953.534 1.89183 0.0253332 0
M  V30 10381 O 952.877 1.5382 1.00424 0
M  V30 10382 C 952.939 2.85623 -2.18311 0
M  V30 10383 C 952.603 2.72253 -3.67052 0
M  V30 10384 C 953.6 2.41547 -4.60381 0
M  V30 10385 C 951.285 2.89472 -4.10501 0
M  V30 10386 C 953.279 2.28226 -5.9514 0
M  V30 10387 C 950.966 2.7577 -5.45338 0
M  V30 10388 C 951.964 2.45191 -6.37472 0
M  V30 10389 O 951.652 2.31561 -7.69828 0
M  V30 10390 H 951.384 0.480763 -0.475229 0
M  V30 10391 H 953.938 0.93057 -1.83111 0
M  V30 10392 H 952.168 3.481 -1.68414 0
M  V30 10393 H 953.857 3.47178 -2.10291 0
M  V30 10394 H 954.623 2.27905 -4.28117 0
M  V30 10395 H 950.502 3.12269 -3.3913 0
M  V30 10396 H 954.046 2.04279 -6.6702 0
M  V30 10397 H 949.943 2.88987 -5.77197 0
M  V30 10398 H 950.711 2.46716 -7.80432 0
M  V30 10399 N 953.375 1.23811 0.975125 0
M  V30 10400 C 954.322 1.02394 2.06843 0
M  V30 10401 C 955.292 -0.060337 1.6599 0
M  V30 10402 O 956.477 0.0928187 1.90574 0
M  V30 10403 C 953.617 0.626882 3.39359 0
M  V30 10404 C 952.73 1.78385 3.9345 0
M  V30 10405 C 951.865 1.33307 5.14201 0
M  V30 10406 C 950.904 2.46045 5.60471 0
M  V30 10407 N 950.041 2.01888 6.72448 0
M  V30 10408 H 954.881 1.95973 2.24496 0
M  V30 10409 H 952.418 0.976206 1.10039 0
M  V30 10410 H 954.376 0.377742 4.15486 0
M  V30 10411 H 953.006 -0.271907 3.21653 0
M  V30 10412 H 952.058 2.14685 3.14029 0
M  V30 10413 H 953.37 2.63122 4.23755 0
M  V30 10414 H 952.524 1.04237 5.97678 0
M  V30 10415 H 951.263 0.456143 4.85562 0
M  V30 10416 H 950.268 2.75884 4.75571 0
M  V30 10417 H 951.493 3.34283 5.91127 0
M  V30 10418 H 949.439 1.16583 6.45558 0
M  V30 10419 H 949.356 2.80182 7.02164 0
M  V30 10420 H 950.624 1.75937 7.59386 0
M  V30 10421 N 954.853 -1.17469 1.05066 0
M  V30 10422 C 956.264 -1.69334 0.786304 0
M  V30 10423 C 956.615 -1.83604 -0.691671 0
M  V30 10424 O 955.74 -1.52269 -1.53763 0
M  V30 10425 C 956.335 -3.07572 1.42074 0
M  V30 10426 C 954.894 -3.56609 1.20446 0
M  V30 10427 C 954.041 -2.329 1.50508 0
M  V30 10428 H 956.992 -1.02003 1.21577 0
M  V30 10429 H 957.013 -3.71352 0.829334 0
M  V30 10430 H 956.525 -2.97154 2.49642 0
M  V30 10431 H 954.626 -3.72306 0.147968 0
M  V30 10432 H 954.739 -4.39446 1.90852 0
M  V30 10433 H 953.103 -2.37305 0.925124 0
M  V30 10434 H 953.886 -2.25093 2.59207 0
M  V30 10435 N 956.331 -0.831506 -1.3388 0
M  V30 10436 C 957.608 -0.345907 -1.92517 0
M  V30 10437 C 957.988 1.16784 -1.75854 0
M  V30 10438 O 957.336 1.97889 -1.14245 0
M  V30 10439 C 957.546 -0.784692 -3.40064 0
M  V30 10440 C 958.894 -0.78846 -4.17215 0
M  V30 10441 O 959.918 -0.727823 -3.48685 0
M  V30 10442 O 958.777 -0.869481 -5.39539 0
M  V30 10443 H 955.871 -0.0963568 -0.821367 0
M  V30 10444 H 958.417 -0.916868 -1.42799 0
M  V30 10445 H 957.189 -1.82697 -3.46031 0
M  V30 10446 H 956.812 -0.189897 -3.97146 0
M  V30 10447 N 957.809 1.4625 -0.587256 0
M  V30 10448 C 958.719 2.34147 0.145744 0
M  V30 10449 C 959.735 1.50026 0.881376 0
M  V30 10450 O 960.911 1.82884 0.843539 0
M  V30 10451 C 957.976 3.27294 1.14366 0
M  V30 10452 C 957.037 4.27317 0.412199 0
M  V30 10453 C 956.27 5.16013 1.36257 0
M  V30 10454 O 956.493 5.0773 2.59934 0
M  V30 10455 O 955.427 5.95569 0.870681 0
M  V30 10456 H 959.253 2.98187 -0.576055 0
M  V30 10457 H 956.838 1.45299 -0.347628 0
M  V30 10458 H 958.72 3.84747 1.71894 0
M  V30 10459 H 957.395 2.65845 1.84684 0
M  V30 10460 H 956.302 3.73538 -0.205036 0
M  V30 10461 H 957.635 4.91564 -0.250104 0
M  V30 10462 N 959.287 0.325282 1.54207 0
M  V30 10463 C 960.219 -0.57395 2.21897 0
M  V30 10464 C 961.232 -1.0785 1.21952 0
M  V30 10465 O 962.421 -0.991782 1.48411 0
M  V30 10466 C 959.521 -1.8005 2.87115 0
M  V30 10467 C 958.694 -1.43435 4.13213 0
M  V30 10468 C 957.753 -2.51862 4.62009 0
M  V30 10469 O 956.779 -2.15934 5.26651 0
M  V30 10470 N 957.981 -3.8282 4.36382 0
M  V30 10471 H 960.746 0.00566918 2.99699 0
M  V30 10472 H 958.307 0.148563 1.61217 0
M  V30 10473 H 960.299 -2.51981 3.16682 0
M  V30 10474 H 958.869 -2.28792 2.13009 0
M  V30 10475 H 958.089 -0.546598 3.90392 0
M  V30 10476 H 959.377 -1.16544 4.95273 0
M  V30 10477 H 958.775 -4.14807 3.84645 0
M  V30 10478 H 957.332 -4.50976 4.70599 0
M  V30 10479 N 960.765 -1.57509 0.0534917 0
M  V30 10480 C 962.176 -1.80374 -0.481867 0
M  V30 10481 C 962.527 -0.965917 -1.70776 0
M  V30 10482 O 961.652 -0.183167 -2.15623 0
M  V30 10483 C 962.247 -3.27146 -0.880978 0
M  V30 10484 C 960.806 -3.50921 -1.3613 0
M  V30 10485 C 959.953 -2.75237 -0.337611 0
M  V30 10486 H 962.904 -1.56222 0.279353 0
M  V30 10487 H 962.925 -3.38193 -1.74373 0
M  V30 10488 H 962.437 -3.88098 0.011441 0
M  V30 10489 H 960.538 -2.95251 -2.27283 0
M  V30 10490 H 960.651 -4.59632 -1.35186 0
M  V30 10491 H 959.015 -2.41444 -0.810991 0
M  V30 10492 H 959.798 -3.38918 0.546763 0
M  V30 10493 N 962.243 0.219913 -1.56058 0
M  V30 10494 C 963.468 0.965073 -1.83579 0
M  V30 10495 C 963.893 1.77092 -0.634024 0
M  V30 10496 O 963.251 1.76434 0.417205 0
M  V30 10497 C 963.299 1.85705 -3.09105 0
M  V30 10498 O 962.403 2.95261 -2.87914 0
M  V30 10499 H 961.744 0.273173 -0.605204 0
M  V30 10500 H 964.274 0.23273 -2.03272 0
M  V30 10501 H 964.284 2.26655 -3.39252 0
M  V30 10502 H 962.959 1.26476 -3.96203 0
M  V30 10503 H 961.536 2.58246 -2.69005 0
M  V30 10504 N 963.721 1.49897 0.486681 0
M  V30 10505 C 964.651 1.7054 1.59494 0
M  V30 10506 C 965.632 0.554184 1.60819 0
M  V30 10507 O 966.817 0.791617 1.77333 0
M  V30 10508 C 963.947 1.78517 2.97908 0
M  V30 10509 C 962.901 2.93571 3.11449 0
M  V30 10510 C 962.227 2.86674 4.51356 0
M  V30 10511 C 963.527 4.34308 2.90127 0
M  V30 10512 H 965.221 2.63329 1.42472 0
M  V30 10513 H 962.767 1.2672 0.683969 0
M  V30 10514 H 964.72 1.91544 3.75352 0
M  V30 10515 H 963.444 0.823381 3.16051 0
M  V30 10516 H 962.103 2.80169 2.36433 0
M  V30 10517 H 961.751 1.88373 4.66395 0
M  V30 10518 H 961.451 3.63903 4.61355 0
M  V30 10519 H 962.975 3.01728 5.30841 0
M  V30 10520 H 964.389 4.48317 3.57331 0
M  V30 10521 H 962.786 5.12869 3.11585 0
M  V30 10522 H 963.856 4.47759 1.86119 0
M  V30 10523 N 965.199 -0.738761 1.39212 0
M  V30 10524 C 966.132 -1.86135 1.32018 0
M  V30 10525 C 967.11 -1.61432 0.194512 0
M  V30 10526 O 968.294 -1.84746 0.374331 0
M  V30 10527 C 965.421 -3.22044 1.04907 0
M  V30 10528 C 964.467 -3.65612 2.19613 0
M  V30 10529 S 965.3 -3.75418 3.81866 0
M  V30 10530 C 966.456 -5.14122 3.56972 0
M  V30 10531 H 966.689 -1.91954 2.27027 0
M  V30 10532 H 964.222 -0.903244 1.25223 0
M  V30 10533 H 966.18 -4.00524 0.899491 0
M  V30 10534 H 964.841 -3.13886 0.115918 0
M  V30 10535 H 964.034 -4.64232 1.96227 0
M  V30 10536 H 963.636 -2.94327 2.30755 0
M  V30 10537 H 965.928 -6.00339 3.14005 0
M  V30 10538 H 966.871 -5.42535 4.55039 0
M  V30 10539 H 967.279 -4.8362 2.91156 0
M  V30 10540 N 966.677 -1.24326 -0.968545 0
M  V30 10541 C 968.088 -1.07561 -1.52603 0
M  V30 10542 C 968.439 0.353245 -1.92994 0
M  V30 10543 O 967.564 1.24151 -1.77244 0
M  V30 10544 C 968.159 -1.94634 -2.77314 0
M  V30 10545 C 966.718 -1.82095 -3.29421 0
M  V30 10546 C 965.865 -1.8962 -2.02335 0
M  V30 10547 H 968.816 -1.37815 -0.786932 0
M  V30 10548 H 968.837 -1.47812 -3.50616 0
M  V30 10549 H 968.349 -2.98621 -2.47885 0
M  V30 10550 H 966.45 -0.809376 -3.63703 0
M  V30 10551 H 966.563 -2.66142 -3.98378 0
M  V30 10552 H 964.927 -1.33339 -2.17009 0
M  V30 10553 H 965.71 -2.95185 -1.75273 0
M  V30 10554 N 968.156 1.1691 -1.05688 0
M  V30 10555 C 969.106 2.19056 -0.632339 0
M  V30 10556 C 970.09 1.574 0.333797 0
M  V30 10557 O 971.282 1.76361 0.150223 0
M  V30 10558 C 968.411 3.43297 -0.0138209 0
M  V30 10559 C 967.497 4.12042 -1.00408 0
M  V30 10560 N 967.888 4.56535 -2.17737 0
M  V30 10561 C 966.186 4.38139 -0.833663 0
M  V30 10562 C 966.887 5.09644 -2.80425 0
M  V30 10563 N 965.863 5.02153 -2.08191 0
M  V30 10564 H 969.665 2.51165 -1.52621 0
M  V30 10565 H 967.179 1.33294 -0.927707 0
M  V30 10566 H 969.176 4.1576 0.308117 0
M  V30 10567 H 967.836 3.12677 0.87538 0
M  V30 10568 H 968.847 4.50463 -2.55546 0
M  V30 10569 H 965.524 4.175 0.00406684 0
M  V30 10570 H 966.914 5.54153 -3.79952 0
M  V30 10571 N 969.634 0.838594 1.33437 0
M  V30 10572 C 970.584 0.243681 2.26694 0
M  V30 10573 C 971.568 -0.601168 1.49247 0
M  V30 10574 O 972.76 -0.453181 1.711 0
M  V30 10575 C 969.889 -0.580525 3.38356 0
M  V30 10576 C 968.975 0.275819 4.23202 0
M  V30 10577 N 969.366 1.3544 4.87329 0
M  V30 10578 C 967.664 0.0628047 4.45956 0
M  V30 10579 C 968.365 1.87991 5.50486 0
M  V30 10580 N 967.341 1.18143 5.30607 0
M  V30 10581 H 971.143 1.06849 2.73789 0
M  V30 10582 H 968.657 0.683019 1.47338 0
M  V30 10583 H 970.654 -1.02301 4.04153 0
M  V30 10584 H 969.314 -1.40331 2.92809 0
M  V30 10585 H 970.325 1.73729 4.87892 0
M  V30 10586 H 967.002 -0.726563 4.11129 0
M  V30 10587 H 968.392 2.78312 6.11549 0
M  V30 10588 N 971.112 -1.45937 0.595003 0
M  V30 10589 C 972.389 -1.95592 0.0178748 0
M  V30 10590 C 972.769 -1.53758 -1.44643 0
M  V30 10591 O 972.117 -0.794104 -2.14257 0
M  V30 10592 C 972.327 -3.4841 0.202789 0
M  V30 10593 C 973.675 -4.2453 0.0770121 0
M  V30 10594 O 974.699 -3.55954 0.132257 0
M  V30 10595 O 973.558 -5.46479 -0.0484271 0
M  V30 10596 H 970.652 -0.825888 -0.0428702 0
M  V30 10597 H 973.198 -1.56162 0.664184 0
M  V30 10598 H 971.97 -3.71787 1.22027 0
M  V30 10599 H 971.593 -3.947 -0.479376 0
M  V30 10600 N 972.59 -0.333456 -1.54032 0
M  V30 10601 C 973.553 0.515392 -2.2333 0
M  V30 10602 C 974.553 1.03566 -1.23007 0
M  V30 10603 O 975.743 0.926514 -1.47517 0
M  V30 10604 C 972.875 1.7169 -2.94508 0
M  V30 10605 H 974.068 -0.0905407 -2.99763 0
M  V30 10606 H 971.621 -0.0846651 -1.56071 0
M  V30 10607 H 972.356 2.3618 -2.22237 0
M  V30 10608 H 972.141 1.35115 -3.68085 0
M  V30 10609 H 973.631 2.31922 -3.47278 0
M  V30 10610 N 974.068 1.57479 -0.061844 0
M  V30 10611 C 975.293 1.97843 0.622311 0
M  V30 10612 C 975.718 0.939602 1.62951 0
M  V30 10613 O 975.076 -0.095958 1.81046 0
M  V30 10614 C 975.124 3.37262 1.2762 0
M  V30 10615 O 974.228 3.35943 2.39199 0
M  V30 10616 H 973.569 0.644212 0.160896 0
M  V30 10617 H 976.099 2.04165 -0.133409 0
M  V30 10618 H 976.109 3.74226 1.62539 0
M  V30 10619 H 974.784 4.12404 0.538112 0
M  V30 10620 H 973.361 3.10737 2.06148 0
M  V30 10621 N 975.546 -0.211634 1.56173 0
M  V30 10622 C 976.774 -0.951184 1.83739 0
M  V30 10623 C 977.189 -1.7754 0.642252 0
M  V30 10624 O 976.546 -1.78302 -0.389174 0
M  V30 10625 C 976.597 -1.86075 3.09933 0
M  V30 10626 O 976.318 -1.06983 4.24837 0
M  V30 10627 C 977.819 -2.71337 3.50559 0
M  V30 10628 H 975.039 -0.278312 0.61056 0
M  V30 10629 H 977.583 -0.223871 2.03271 0
M  V30 10630 H 975.738 -2.54189 2.92347 0
M  V30 10631 H 976.152 -1.68815 4.9659 0
M  V30 10632 H 977.626 -3.30843 4.41868 0
M  V30 10633 H 978.103 -3.44226 2.72773 0
M  V30 10634 H 978.709 -2.0862 3.70618 0
M  V30 10635 N 977.024 -1.50153 -0.478725 0
M  V30 10636 C 978.271 -1.6076 -1.23136 0
M  V30 10637 C 978.599 -0.30442 -1.92103 0
M  V30 10638 O 977.854 0.709213 -1.82397 0
M  V30 10639 C 978.153 -2.73208 -2.30417 0
M  V30 10640 C 977.819 -4.13953 -1.78755 0
M  V30 10641 C 976.481 -4.52251 -1.64386 0
M  V30 10642 C 978.833 -5.01949 -1.40344 0
M  V30 10643 C 976.161 -5.76292 -1.10018 0
M  V30 10644 C 978.513 -6.2653 -0.874206 0
M  V30 10645 C 977.177 -6.63637 -0.717085 0
M  V30 10646 H 976.447 -0.588264 -0.450585 0
M  V30 10647 H 979.094 -1.84061 -0.528551 0
M  V30 10648 H 977.399 -2.43965 -3.06575 0
M  V30 10649 H 979.096 -2.7862 -2.88395 0
M  V30 10650 H 975.686 -3.83736 -1.90904 0
M  V30 10651 H 979.87 -4.73 -1.50283 0
M  V30 10652 H 975.126 -6.03723 -0.965838 0
M  V30 10653 H 979.3 -6.94081 -0.567883 0
M  V30 10654 H 976.927 -7.59633 -0.293639 0
M  V30 10655 N 978.502 0.731368 -1.39602 0
M  V30 10656 C 979.73 1.52059 -1.40305 0
M  V30 10657 C 980.145 1.888 0.00147921 0
M  V30 10658 O 979.502 1.54354 0.973715 0
M  V30 10659 C 979.553 2.80588 -2.27931 0
M  V30 10660 O 979.274 2.45406 -3.62915 0
M  V30 10661 C 980.775 3.74592 -2.37056 0
M  V30 10662 H 977.995 0.469787 -0.479104 0
M  V30 10663 H 980.539 0.903436 -1.83462 0
M  V30 10664 H 978.694 3.38626 -1.88178 0
M  V30 10665 H 979.108 3.27996 -4.09291 0
M  V30 10666 H 980.582 4.61662 -3.02609 0
M  V30 10667 H 981.059 4.16597 -1.39081 0
M  V30 10668 H 981.665 3.22471 -2.77295 0
M  V30 10669 N 979.98 1.24838 0.961938 0
M  V30 10670 C 981.229 1.0855 1.69999 0
M  V30 10671 C 981.542 -0.374645 1.91979 0
M  V30 10672 O 982.748 -0.657822 2.6341 0
M  V30 10673 C 981.204 1.89424 3.06017 0
M  V30 10674 C 980.812 3.39885 2.9186 0
M  V30 10675 C 982.556 1.81684 3.83655 0
M  V30 10676 C 980.463 4.13082 4.23223 0
M  V30 10677 H 979.393 0.402603 0.637516 0
M  V30 10678 H 982.044 1.4897 1.07146 0
M  V30 10679 H 980.426 1.41823 3.69733 0
M  V30 10680 H 981.6 3.95108 2.37121 0
M  V30 10681 H 979.915 3.4864 2.27683 0
M  V30 10682 H 982.512 2.3367 4.80939 0
M  V30 10683 H 982.855 0.783247 4.08865 0
M  V30 10684 H 983.388 2.26997 3.26676 0
M  V30 10685 H 980.127 5.16824 4.03204 0
M  V30 10686 H 979.647 3.62644 4.77755 0
M  V30 10687 H 981.326 4.20397 4.91808 0
M  V30 10688 N 981.458 -1.16348 1.06306 0
M  V30 10689 C 982.406 -2.22799 0.668087 0
M  V30 10690 C 983.4 -1.66426 -0.316051 0
M  V30 10691 O 984.606 -1.79089 -0.180902 0
M  V30 10692 H 980.981 -0.725487 0.19792 0
M  V30 10693 H 982.952 -2.53401 1.57577 0
M  V30 10694 C 981.701 -3.47628 0.0706797 0
M  V30 10695 H 981.024 -3.9132 0.819064 0
M  V30 10696 H 982.464 -4.23666 -0.16816 0
M  V30 10697 C 980.923 -3.15343 -1.18577 0
M  V30 10698 O 981.453 -3.31158 -2.27371 0
M  V30 10699 N 979.659 -2.69472 -1.08779 0
M  V30 10700 H 979.206 -2.56803 -0.202447 0
M  V30 10701 H 979.164 -2.48244 -1.92931 0
M  V30 10702 N 982.937 -0.845659 -1.3299 0
M  V30 10703 C 984.186 -0.440928 -1.96822 0
M  V30 10704 C 984.499 1.00668 -1.67706 0
M  V30 10705 O 985.705 1.51641 -2.25205 0
M  V30 10706 C 984.161 -0.73752 -3.52262 0
M  V30 10707 C 983.769 -2.20026 -3.90247 0
M  V30 10708 C 985.513 -0.400072 -4.22611 0
M  V30 10709 C 983.42 -2.44054 -5.38694 0
M  V30 10710 H 982.35 -0.161148 -0.736578 0
M  V30 10711 H 985.001 -1.03519 -1.51513 0
M  V30 10712 H 983.383 -0.0728025 -3.95933 0
M  V30 10713 H 984.557 -2.90602 -3.57613 0
M  V30 10714 H 982.872 -2.50135 -3.32899 0
M  V30 10715 H 985.469 -0.557136 -5.3179 0
M  V30 10716 H 985.812 0.657547 -4.11074 0
M  V30 10717 H 986.345 -1.0203 -3.84493 0
M  V30 10718 H 983.084 -3.48407 -5.55241 0
M  V30 10719 H 982.604 -1.78047 -5.72765 0
M  V30 10720 H 984.283 -2.27549 -6.05665 0
M  V30 10721 N 984.415 1.45619 -0.602734 0
M  V30 10722 C 985.378 2.28941 0.108962 0
M  V30 10723 C 986.378 1.39501 0.799762 0
M  V30 10724 O 987.568 1.61673 0.648663 0
M  V30 10725 C 984.7 3.204 1.16432 0
M  V30 10726 H 985.893 2.93346 -0.623534 0
M  V30 10727 H 983.446 1.52061 -0.361565 0
M  V30 10728 H 984.181 2.60785 1.92774 0
M  V30 10729 H 983.966 3.86277 0.673248 0
M  V30 10730 H 985.456 3.83063 1.6629 0
M  V30 10731 N 985.893 0.34162 1.53853 0
M  V30 10732 C 986.823 -0.508431 2.27897 0
M  V30 10733 C 987.804 -1.10425 1.29384 0
M  V30 10734 O 988.989 -1.126 1.58224 0
M  V30 10735 C 986.119 -1.66048 3.05034 0
M  V30 10736 C 985.073 -1.19309 4.11035 0
M  V30 10737 C 984.399 -2.4335 4.76114 0
M  V30 10738 C 985.699 -0.294952 5.21467 0
M  V30 10739 H 987.393 0.109251 2.99201 0
M  V30 10740 H 984.939 0.0539847 1.43899 0
M  V30 10741 H 986.892 -2.26158 3.5557 0
M  V30 10742 H 985.616 -2.30503 2.31379 0
M  V30 10743 H 984.275 -0.614809 3.61408 0
M  V30 10744 H 983.923 -3.06208 3.99056 0
M  V30 10745 H 983.623 -2.1276 5.47729 0
M  V30 10746 H 985.147 -3.0419 5.29434 0
M  V30 10747 H 986.561 -0.80285 5.67651 0
M  V30 10748 H 984.958 -0.0810221 6.00045 0
M  V30 10749 H 986.028 0.669433 4.80257 0
M  V30 10750 N 987.371 -1.57444 0.0701946 0
M  V30 10751 C 988.319 -2.13834 -0.915302 0
M  V30 10752 C 989.313 -1.07483 -1.30934 0
M  V30 10753 O 990.519 -1.25865 -1.28678 0
M  V30 10754 H 986.894 -0.683716 -0.313108 0
M  V30 10755 H 988.865 -2.95503 -0.414758 0
M  V30 10756 C 987.614 -2.71355 -2.17398 0
M  V30 10757 H 986.937 -3.52861 -1.87961 0
M  V30 10758 H 988.377 -3.1441 -2.84469 0
M  V30 10759 C 986.836 -1.66038 -2.93143 0
M  V30 10760 O 987.366 -1.08443 -3.86786 0
M  V30 10761 N 985.572 -1.3711 -2.56221 0
M  V30 10762 H 985.119 -1.84135 -1.80145 0
M  V30 10763 H 985.077 -0.66877 -3.07205 0
M  V30 10764 N 988.849 0.203349 -1.56283 0
M  V30 10765 C 990.265 0.55384 -1.49682 0
M  V30 10766 C 990.465 1.86261 -0.768701 0
M  V30 10767 O 989.521 2.50517 -0.315824 0
M  V30 10768 C 990.834 0.616216 -2.94318 0
M  V30 10769 C 992.382 0.705611 -3.04943 0
M  V30 10770 C 992.857 0.79917 -4.50974 0
M  V30 10771 N 994.348 0.862916 -4.55091 0
M  V30 10772 C 995.083 0.955334 -5.65386 0
M  V30 10773 N 994.579 1.01057 -6.8539 0
M  V30 10774 N 996.372 0.991884 -5.53279 0
M  V30 10775 H 988.523 -0.655244 -2.0204 0
M  V30 10776 H 990.786 -0.232344 -0.919087 0
M  V30 10777 H 990.492 -0.27619 -3.50614 0
M  V30 10778 H 990.366 1.47371 -3.4722 0
M  V30 10779 H 992.753 1.58845 -2.48701 0
M  V30 10780 H 992.834 -0.177921 -2.5518 0
M  V30 10781 H 992.478 -0.0792841 -5.07838 0
M  V30 10782 H 992.408 1.69838 -4.9846 0
M  V30 10783 H 994.899 0.829812 -3.68677 0
M  V30 10784 H 995.212 1.08137 -7.65197 0
M  V30 10785 H 993.557 0.979384 -6.88065 0
M  V30 10786 H 996.748 0.945514 -4.58451 0
M  V30 10787 H 996.921 1.06045 -6.39264 0
M  V30 10788 N 990.327 1.50405 0.470755 0
M  V30 10789 C 991.573 1.6165 1.22462 0
M  V30 10790 C 991.906 0.316034 1.91611 0
M  V30 10791 O 991.181 -0.682509 1.82132 0
M  V30 10792 C 991.464 2.79702 2.26801 0
M  V30 10793 C 991.317 4.19631 1.61955 0
M  V30 10794 C 992.636 2.93313 3.28109 0
M  V30 10795 H 989.755 0.588345 0.443868 0
M  V30 10796 H 992.397 1.82792 0.518376 0
M  V30 10797 H 990.547 2.61807 2.87036 0
M  V30 10798 H 992.219 4.49117 1.05316 0
M  V30 10799 H 990.462 4.23874 0.922674 0
M  V30 10800 H 991.133 4.98162 2.37779 0
M  V30 10801 H 993.609 3.09697 2.77897 0
M  V30 10802 H 992.485 3.77537 3.98443 0
M  V30 10803 H 992.746 2.03942 3.9225 0
M  V30 10804 N 991.805 -0.723954 1.39988 0
M  V30 10805 C 993.053 -1.48078 1.3754 0
M  V30 10806 C 993.374 -1.94985 -0.0243358 0
M  V30 10807 O 992.644 -1.69764 -0.977602 0
M  V30 10808 H 991.224 -0.549354 0.506181 0
M  V30 10809 H 993.886 -0.858746 1.74962 0
M  V30 10810 H 992.982 -2.35763 2.04505 0
M  V30 10811 N 993.283 -1.25346 -0.955304 0
M  V30 10812 C 994.529 -1.10218 -1.70235 0
M  V30 10813 C 994.862 0.356124 -1.90907 0
M  V30 10814 O 994.137 1.26253 -1.47954 0
M  V30 10815 C 994.42 -1.85627 -3.08569 0
M  V30 10816 C 994.273 -3.39281 -2.95311 0
M  V30 10817 C 995.592 -1.63886 -4.08448 0
M  V30 10818 H 992.711 -0.401781 -0.617852 0
M  V30 10819 H 995.353 -1.5417 -1.11048 0
M  V30 10820 H 993.503 -1.48269 -3.59094 0
M  V30 10821 H 995.175 -3.8631 -2.52116 0
M  V30 10822 H 993.418 -3.67027 -2.31244 0
M  V30 10823 H 994.089 -3.87258 -3.93364 0
M  V30 10824 H 996.565 -1.96406 -3.6683 0
M  V30 10825 H 995.441 -2.19087 -5.03281 0
M  V30 10826 H 995.702 -0.580021 -4.38279 0
M  V30 10827 N 994.761 1.15782 -1.06922 0
M  V30 10828 C 996.038 1.8253 -0.703 0
M  V30 10829 C 996.418 1.94733 0.814994 0
M  V30 10830 O 995.766 1.49537 1.72774 0
M  V30 10831 C 995.976 3.19145 -1.41234 0
M  V30 10832 C 997.324 3.94839 -1.56164 0
M  V30 10833 O 998.348 3.28685 -1.37277 0
M  V30 10834 O 997.207 5.13436 -1.87205 0
M  V30 10835 H 994.301 0.788425 -0.24963 0
M  V30 10836 H 996.847 1.22931 -1.16988 0
M  V30 10837 H 995.619 3.05336 -2.44715 0
M  V30 10838 H 995.242 3.86427 -0.935959 0
M  V30 10839 N 996.239 0.8527 1.3254 0
M  V30 10840 C 997.469 0.468363 2.01221 0
M  V30 10841 C 997.877 -0.938966 1.64256 0
M  V30 10842 O 997.22 -1.62387 0.858837 0
M  V30 10843 C 997.282 0.525457 3.55639 0
M  V30 10844 C 996.946 1.89133 4.16026 0
M  V30 10845 C 997.943 2.85652 4.34395 0
M  V30 10846 C 995.628 2.18795 4.52144 0
M  V30 10847 C 997.622 4.09985 4.88048 0
M  V30 10848 C 995.309 3.43381 5.05502 0
M  V30 10849 C 996.307 4.38792 5.23403 0
M  V30 10850 O 995.995 5.61173 5.75622 0
M  V30 10851 H 995.727 0.182712 0.65084 0
M  V30 10852 H 998.281 1.15076 1.70138 0
M  V30 10853 H 996.511 -0.213779 3.86109 0
M  V30 10854 H 998.2 0.156999 4.05596 0
M  V30 10855 H 998.966 2.6404 4.06827 0
M  V30 10856 H 994.845 1.45317 4.37498 0
M  V30 10857 H 998.389 4.84465 5.01936 0
M  V30 10858 H 994.286 3.64844 5.32503 0
M  V30 10859 H 995.054 5.63104 5.94017 0
M  V30 10860 N 997.718 -1.45297 0.610449 0
M  V30 10861 C 998.628 -2.34349 -0.108475 0
M  V30 10862 C 999.644 -1.51409 -0.857397 0
M  V30 10863 O 1000.82 -1.84202 -0.814337 0
M  V30 10864 C 997.885 -3.29072 -1.09144 0
M  V30 10865 C 996.946 -4.27918 -0.344165 0
M  V30 10866 C 996.179 -5.18116 -1.28031 0
M  V30 10867 O 996.402 -5.11802 -2.51824 0
M  V30 10868 O 995.336 -5.96879 -0.775821 0
M  V30 10869 H 999.162 -2.97232 0.623421 0
M  V30 10870 H 996.747 -1.44728 0.3707 0
M  V30 10871 H 998.629 -3.87433 -1.65751 0
M  V30 10872 H 997.304 -2.68749 -1.80431 0
M  V30 10873 H 996.211 -3.73164 0.264437 0
M  V30 10874 H 997.544 -4.91104 0.328275 0
M  V30 10875 N 999.196 -0.349774 -1.5367 0
M  V30 10876 C 1000.44 0.244343 -2.00617 0
M  V30 10877 C 1000.76 1.50567 -1.23914 0
M  V30 10878 O 1000.03 1.92784 -0.348016 0
M  V30 10879 H 998.615 0.0932792 -0.741153 0
M  V30 10880 H 1001.28 -0.472367 -1.89089 0
M  V30 10881 H 1000.37 0.482433 -3.08349 0
M  V30 10882 N 1000.67 1.57404 -0.0785433 0
M  V30 10883 C 1001.92 1.93361 0.58786 0
M  V30 10884 C 1002.24 0.959856 1.6974 0
M  V30 10885 O 1001.51 0.0091173 1.95898 0
M  V30 10886 H 1000.09 0.713825 0.220141 0
M  V30 10887 H 1002.75 1.94411 -0.137986 0
M  V30 10888 H 1001.85 2.95346 1.00881 0
M  V30 10889 N 1002.15 -0.195058 1.56388 0
M  V30 10890 C 1003.4 -0.913636 1.8027 0
M  V30 10891 C 1003.72 -1.83791 0.651606 0
M  V30 10892 O 1002.99 -1.931 -0.330057 0
M  V30 10893 H 1001.57 -0.34036 0.664954 0
M  V30 10894 H 1004.23 -0.200559 1.93865 0
M  V30 10895 H 1003.33 -1.50473 2.7343 0
M  V30 10896 N 1003.63 -1.50653 -0.462772 0
M  V30 10897 C 1004.87 -1.637 -1.22399 0
M  V30 10898 C 1005.23 -0.333847 -1.89075 0
M  V30 10899 O 1006.43 -0.339837 -2.66643 0
M  V30 10900 C 1004.71 -2.79018 -2.23347 0
M  V30 10901 S 1006.26 -3.12248 -3.08296 0
M  V30 10902 H 1003.08 -0.576998 -0.415444 0
M  V30 10903 H 1005.68 -1.88468 -0.519631 0
M  V30 10904 H 1004.39 -3.72174 -1.72958 0
M  V30 10905 H 1003.92 -2.56362 -2.98399 0
M  V30 10906 H 1005.93 -2.56716 -4.24631 0
M  V30 10907 N 1005.11 0.71652 -1.4037 0
M  V30 10908 C 1006.52 1.02447 -1.22379 0
M  V30 10909 C 1006.72 2.0126 -0.0983394 0
M  V30 10910 O 1005.78 2.46569 0.544071 0
M  V30 10911 C 1007.09 1.56909 -2.56515 0
M  V30 10912 C 1008.64 1.68898 -2.6352 0
M  V30 10913 C 1009.12 2.26765 -3.97922 0
M  V30 10914 N 1010.61 2.34152 -3.99658 0
M  V30 10915 C 1011.34 2.79907 -5.00439 0
M  V30 10916 N 1010.84 3.25422 -6.11615 0
M  V30 10917 N 1012.63 2.79283 -4.87809 0
M  V30 10918 H 1004.78 0.0615306 -2.12311 0
M  V30 10919 H 1007.05 0.0898994 -0.943728 0
M  V30 10920 H 1006.75 0.917649 -3.39517 0
M  V30 10921 H 1006.63 2.55446 -2.77538 0
M  V30 10922 H 1009.01 2.33159 -1.8089 0
M  V30 10923 H 1009.09 0.689626 -2.46329 0
M  V30 10924 H 1008.74 1.63126 -4.80991 0
M  V30 10925 H 1008.67 3.27413 -4.12442 0
M  V30 10926 H 1011.16 2.02006 -3.19378 0
M  V30 10927 H 1011.47 3.58899 -6.84406 0
M  V30 10928 H 1009.82 3.23383 -6.15181 0
M  V30 10929 H 1013.01 2.43061 -4.00049 0
M  V30 10930 H 1013.18 3.14626 -5.66493 0
M  V30 10931 N 1006.59 1.25851 0.948643 0
M  V30 10932 C 1007.83 1.10954 1.69397 0
M  V30 10933 C 1008.16 -0.348443 1.91353 0
M  V30 10934 O 1007.42 -1.27285 1.48651 0
M  V30 10935 C 1007.72 1.81565 3.07846 0
M  V30 10936 C 1007.38 3.31477 3.0567 0
M  V30 10937 C 1006.04 3.72371 3.04784 0
M  V30 10938 C 1008.4 4.27225 2.98543 0
M  V30 10939 C 1005.72 5.07416 2.94527 0
M  V30 10940 C 1008.08 5.62301 2.89828 0
M  V30 10941 C 1006.74 6.02516 2.87281 0
M  V30 10942 H 1006.01 0.406011 0.619868 0
M  V30 10943 H 1008.66 1.562 1.10787 0
M  V30 10944 H 1006.96 1.28767 3.70035 0
M  V30 10945 H 1008.66 1.67486 3.64348 0
M  V30 10946 H 1005.25 2.98941 3.07135 0
M  V30 10947 H 1009.43 3.96618 2.98342 0
M  V30 10948 H 1004.69 5.37746 2.90928 0
M  V30 10949 H 1008.86 6.36182 2.83276 0
M  V30 10950 H 1006.49 7.07116 2.79089 0
M  V30 10951 N 1008.06 -1.15214 1.07534 0
M  V30 10952 C 1008.99 -2.2216 0.718837 0
M  V30 10953 C 1009.98 -1.6753 -0.29459 0
M  V30 10954 O 1011.16 -1.93481 -0.166931 0
M  V30 10955 C 1008.29 -3.471 0.117836 0
M  V30 10956 C 1007.24 -4.14701 1.05862 0
M  V30 10957 C 1006.57 -5.3374 0.320284 0
M  V30 10958 C 1007.87 -4.64254 2.39302 0
M  V30 10959 H 1009.56 -2.52237 1.61297 0
M  V30 10960 H 1007.11 -1.21239 0.776992 0
M  V30 10961 H 1009.06 -4.21156 -0.143519 0
M  V30 10962 H 1007.79 -3.16361 -0.811389 0
M  V30 10963 H 1006.45 -3.42589 1.30493 0
M  V30 10964 H 1006.09 -4.99257 -0.61246 0
M  V30 10965 H 1005.79 -5.79912 0.947381 0
M  V30 10966 H 1007.32 -6.10563 0.0667721 0
M  V30 10967 H 1008.73 -5.29827 2.18988 0
M  V30 10968 H 1007.13 -5.21095 2.97623 0
M  V30 10969 H 1008.2 -3.79793 3.01472 0
M  V30 10970 N 1009.54 -0.859717 -1.32086 0
M  V30 10971 C 1010.96 -0.55025 -1.49815 0
M  V30 10972 C 1011.16 0.917966 -1.79376 0
M  V30 10973 O 1010.21 1.70073 -1.86632 0
M  V30 10974 C 1011.53 -1.44161 -2.6389 0
M  V30 10975 C 1013.08 -1.44257 -2.77775 0
M  V30 10976 C 1013.55 -2.31926 -3.94936 0
M  V30 10977 N 1015.04 -2.2975 -4.02206 0
M  V30 10978 C 1015.78 -2.9431 -4.92107 0
M  V30 10979 N 1015.27 -3.68001 -5.86981 0
M  V30 10980 N 1017.07 -2.83671 -4.8527 0
M  V30 10981 H 1009.22 -1.80987 -1.11164 0
M  V30 10982 H 1011.48 -0.773313 -0.548353 0
M  V30 10983 H 1011.19 -2.48588 -2.4879 0
M  V30 10984 H 1011.06 -1.13268 -3.59792 0
M  V30 10985 H 1013.45 -0.405923 -2.92295 0
M  V30 10986 H 1013.53 -1.79169 -1.82571 0
M  V30 10987 H 1013.17 -3.35661 -3.81174 0
M  V30 10988 H 1013.1 -1.94344 -4.89426 0
M  V30 10989 H 1015.59 -1.76177 -3.3432 0
M  V30 10990 H 1015.91 -4.14417 -6.52287 0
M  V30 10991 H 1014.25 -3.72109 -5.86992 0
M  V30 10992 H 1017.44 -2.25647 -4.10123 0
M  V30 10993 H 1017.61 -3.34267 -5.5513 0
M  V30 10994 N 1011.02 1.44971 -0.618145 0
M  V30 10995 C 1012.25 2.06228 -0.123985 0
M  V30 10996 C 1012.66 1.46166 1.20134 0
M  V30 10997 O 1012 0.574099 1.74499 0
M  V30 10998 C 1012.06 3.59413 0.0789098 0
M  V30 10999 C 1011.73 4.41869 -1.16624 0
M  V30 11000 C 1012.72 4.76177 -2.0869 0
M  V30 11001 C 1010.41 4.82453 -1.39802 0
M  V30 11002 C 1012.4 5.49938 -3.22254 0
M  V30 11003 C 1010.09 5.55965 -2.53665 0
M  V30 11004 C 1011.09 5.89626 -3.44718 0
M  V30 11005 O 1010.78 6.61644 -4.56598 0
M  V30 11006 H 1010.51 0.672274 -0.0708822 0
M  V30 11007 H 1013.06 1.87038 -0.848868 0
M  V30 11008 H 1011.29 3.77043 0.8588 0
M  V30 11009 H 1012.98 4.02478 0.52599 0
M  V30 11010 H 1013.75 4.45372 -1.92012 0
M  V30 11011 H 1009.63 4.55681 -0.698245 0
M  V30 11012 H 1013.17 5.76129 -3.93347 0
M  V30 11013 H 1009.07 5.86185 -2.70291 0
M  V30 11014 H 1009.84 6.80103 -4.55414 0
M  V30 11015 N 1012.5 0.357919 1.53482 0
M  V30 11016 C 1013.45 -0.507364 2.26999 0
M  V30 11017 C 1014.44 -1.08987 1.29685 0
M  V30 11018 O 1015.65 -1.03396 1.47341 0
M  V30 11019 H 1012.02 -0.182326 0.729562 0
M  V30 11020 H 1013.99 0.134547 2.98097 0
M  V30 11021 C 1012.74 -1.63911 3.06641 0
M  V30 11022 H 1012.06 -1.20017 3.81361 0
M  V30 11023 H 1013.5 -2.21943 3.61272 0
M  V30 11024 C 1011.96 -2.57697 2.17011 0
M  V30 11025 O 1012.49 -3.60318 1.77578 0
M  V30 11026 N 1010.7 -2.2671 1.818 0
M  V30 11027 H 1010.25 -1.43296 2.14065 0
M  V30 11028 H 1010.2 -2.89716 1.22115 0
M  V30 11029 N 1013.98 -1.5736 0.0868897 0
M  V30 11030 C 1015.22 -1.95933 -0.582212 0
M  V30 11031 C 1015.58 -0.967238 -1.65857 0
M  V30 11032 O 1016.78 -1.24116 -2.3843 0
M  V30 11033 C 1015.05 -3.39049 -1.1305 0
M  V30 11034 S 1016.61 -3.99612 -1.81262 0
M  V30 11035 H 1013.43 -0.685082 -0.190221 0
M  V30 11036 H 1016.03 -1.94808 0.164341 0
M  V30 11037 H 1014.74 -4.09026 -0.335492 0
M  V30 11038 H 1014.27 -3.43752 -1.91307 0
M  V30 11039 H 1016.28 -3.87747 -3.09624 0
M  V30 11040 N 1015.45 0.186762 -1.56489 0
M  V30 11041 C 1016.68 0.925916 -1.85584 0
M  V30 11042 C 1017.1 1.75708 -0.671446 0
M  V30 11043 O 1016.46 1.7728 0.379687 0
M  V30 11044 C 1016.51 1.79107 -3.12975 0
M  V30 11045 O 1015.61 2.89088 -2.94112 0
M  V30 11046 H 1014.96 0.260275 -0.610863 0
M  V30 11047 H 1017.49 0.189561 -2.0372 0
M  V30 11048 H 1017.5 2.19408 -3.43983 0
M  V30 11049 H 1016.17 1.18044 -3.98796 0
M  V30 11050 H 1014.75 2.52482 -2.74422 0
M  V30 11051 N 1016.93 1.50896 0.454776 0
M  V30 11052 C 1018.18 1.61936 1.20248 0
M  V30 11053 C 1018.49 0.332983 1.92745 0
M  V30 11054 O 1019.7 0.322512 2.69578 0
M  V30 11055 C 1018.16 2.85916 2.18587 0
M  V30 11056 C 1017.76 4.21492 1.51818 0
M  V30 11057 C 1019.51 3.06307 2.93898 0
M  V30 11058 C 1017.42 5.3664 2.48539 0
M  V30 11059 H 1016.35 0.603098 0.452536 0
M  V30 11060 H 1019 1.77345 0.471257 0
M  V30 11061 H 1017.38 2.64101 2.95071 0
M  V30 11062 H 1018.55 4.53623 0.810123 0
M  V30 11063 H 1016.87 4.06837 0.887265 0
M  V30 11064 H 1019.46 3.89507 3.66317 0
M  V30 11065 H 1019.81 2.18683 3.54236 0
M  V30 11066 H 1020.34 3.2838 2.24525 0
M  V30 11067 H 1017.08 6.26469 1.92916 0
M  V30 11068 H 1016.6 5.08907 3.17449 0
M  V30 11069 H 1018.28 5.67881 3.10033 0
M  V30 11070 N 1018.41 -0.709066 1.40748 0
M  V30 11071 C 1019.83 -1.01797 1.22921 0
M  V30 11072 C 1020.03 -2.01205 0.109011 0
M  V30 11073 O 1019.08 -2.46854 -0.530987 0
M  V30 11074 C 1020.4 -1.55546 2.57344 0
M  V30 11075 C 1021.94 -1.67498 2.64412 0
M  V30 11076 C 1022.42 -2.24652 3.99119 0
M  V30 11077 N 1023.91 -2.3203 4.00895 0
M  V30 11078 C 1024.64 -2.7725 5.01917 0
M  V30 11079 N 1024.14 -3.22174 6.13332 0
M  V30 11080 N 1025.93 -2.76692 4.89283 0
M  V30 11081 H 1018.08 -0.0502704 2.12341 0
M  V30 11082 H 1020.35 -0.0848933 0.944191 0
M  V30 11083 H 1020.05 -0.899631 3.39999 0
M  V30 11084 H 1019.93 -2.53971 2.78888 0
M  V30 11085 H 1022.31 -2.32196 1.82123 0
M  V30 11086 H 1022.4 -0.676553 2.46691 0
M  V30 11087 H 1022.04 -1.60573 4.81849 0
M  V30 11088 H 1021.97 -3.25221 4.14173 0
M  V30 11089 H 1024.46 -2.00309 3.20444 0
M  V30 11090 H 1024.77 -3.55265 6.86299 0
M  V30 11091 H 1023.12 -3.20116 6.16888 0
M  V30 11092 H 1026.31 -2.40936 4.01332 0
M  V30 11093 H 1026.48 -3.11617 5.68154 0
M  V30 11094 N 1019.89 -1.26353 -0.941956 0
M  V30 11095 C 1020.85 -1.07904 -2.02211 0
M  V30 11096 C 1021.85 -0.0276283 -1.60776 0
M  V30 11097 O 1023.04 -0.270965 -1.7208 0
M  V30 11098 C 1020.17 -0.641084 -3.34818 0
M  V30 11099 H 1021.37 -2.03804 -2.20009 0
M  V30 11100 H 1018.92 -1.08939 -1.12081 0
M  V30 11101 H 1019.66 0.319943 -3.22718 0
M  V30 11102 H 1019.44 -1.40027 -3.66244 0
M  V30 11103 H 1020.93 -0.533826 -4.14174 0
M  V30 11104 N 1021.37 1.14642 -1.08144 0
M  V30 11105 C 1022.78 1.6719 -0.830923 0
M  V30 11106 C 1023.13 1.85373 0.642749 0
M  V30 11107 O 1022.25 1.56293 1.49671 0
M  V30 11108 C 1022.85 3.03697 -1.50179 0
M  V30 11109 C 1021.41 3.5329 -1.29858 0
M  V30 11110 C 1020.56 2.28828 -1.5663 0
M  V30 11111 H 1023.51 0.987441 -1.24239 0
M  V30 11112 H 1023.53 3.69023 -0.9275 0
M  V30 11113 H 1023.04 2.90431 -2.57432 0
M  V30 11114 H 1021.14 3.71783 -0.246626 0
M  V30 11115 H 1021.25 4.34231 -2.02436 0
M  V30 11116 H 1019.62 2.34769 -0.987716 0
M  V30 11117 H 1020.4 2.18141 -2.65084 0
M  V30 11118 N 1022.85 0.866709 1.31628 0
M  V30 11119 C 1024.26 0.558188 1.49521 0
M  V30 11120 C 1024.46 -0.90844 1.7986 0
M  V30 11121 O 1023.52 -1.6908 1.87531 0
M  V30 11122 C 1024.83 1.45559 2.63122 0
M  V30 11123 C 1026.38 1.45728 2.77006 0
M  V30 11124 C 1026.85 2.34017 3.937 0
M  V30 11125 N 1028.34 2.31879 4.00982 0
M  V30 11126 C 1029.08 2.96915 4.90539 0
M  V30 11127 N 1028.58 3.71109 5.85021 0
M  V30 11128 N 1030.37 2.86241 4.83759 0
M  V30 11129 H 1022.52 1.81574 1.10203 0
M  V30 11130 H 1024.78 0.77621 0.544244 0
M  V30 11131 H 1024.49 2.49904 2.47469 0
M  V30 11132 H 1024.36 1.15174 3.59186 0
M  V30 11133 H 1026.75 0.421419 2.92075 0
M  V30 11134 H 1026.83 1.80134 1.81619 0
M  V30 11135 H 1026.47 3.37678 3.79389 0
M  V30 11136 H 1026.4 1.96937 4.88388 0
M  V30 11137 H 1028.9 1.77948 3.33381 0
M  V30 11138 H 1029.21 4.1787 6.5008 0
M  V30 11139 H 1027.55 3.75217 5.8501 0
M  V30 11140 H 1030.74 2.27819 4.08921 0
M  V30 11141 H 1030.92 3.37206 5.5335 0
M  V30 11142 N 1024.32 -1.44642 0.625825 0
M  V30 11143 C 1025.27 -2.30653 -0.082259 0
M  V30 11144 C 1026.24 -1.43174 -0.842052 0
M  V30 11145 O 1027.43 -1.72082 -0.824151 0
M  V30 11146 C 1024.57 -3.2837 -1.06146 0
M  V30 11147 C 1023.68 -4.30953 -0.300638 0
M  V30 11148 C 1022.81 -5.15766 -1.27118 0
M  V30 11149 C 1021.85 -6.10061 -0.499215 0
M  V30 11150 N 1020.99 -6.87591 -1.41995 0
M  V30 11151 H 1025.83 -2.90664 0.657161 0
M  V30 11152 H 1023.37 -1.43215 0.335859 0
M  V30 11153 H 1025.32 -3.83507 -1.6425 0
M  V30 11154 H 1023.95 -2.70072 -1.76807 0
M  V30 11155 H 1023.01 -3.78331 0.396234 0
M  V30 11156 H 1024.32 -4.97892 0.300851 0
M  V30 11157 H 1023.47 -5.75394 -1.92372 0
M  V30 11158 H 1022.21 -4.48888 -1.9066 0
M  V30 11159 H 1021.22 -5.49547 0.166848 0
M  V30 11160 H 1022.44 -6.78973 0.131409 0
M  V30 11161 H 1020.39 -6.23387 -2.04267 0
M  V30 11162 H 1020.3 -7.5095 -0.872354 0
M  V30 11163 H 1021.57 -7.51746 -2.0615 0
M  V30 11164 N 1025.8 -0.366053 -1.5329 0
M  V30 11165 C 1027.05 0.223051 -2.00865 0
M  V30 11166 C 1027.37 1.49244 -1.25504 0
M  V30 11167 O 1026.64 1.92404 -0.368444 0
M  V30 11168 H 1025.22 0.085413 -0.742101 0
M  V30 11169 H 1027.88 -0.492396 -1.88578 0
M  V30 11170 H 1026.98 0.449701 -3.08843 0
M  V30 11171 N 1027.28 1.57312 -0.0952337 0
M  V30 11172 C 1028.53 1.95449 0.563155 0
M  V30 11173 C 1028.88 0.976396 1.65784 0
M  V30 11174 O 1028.17 0.00241533 1.916 0
M  V30 11175 C 1028.37 3.37937 1.16332 0
M  V30 11176 C 1028.2 4.49517 0.128308 0
M  V30 11177 C 1026.97 5.04437 -0.295252 0
M  V30 11178 C 1029.16 5.10257 -0.643571 0
M  V30 11179 N 1027.15 5.99573 -1.31852 0
M  V30 11180 C 1028.52 6.01113 -1.51867 0
M  V30 11181 C 1030.57 4.92996 -0.697074 0
M  V30 11182 C 1029.28 6.76559 -2.44256 0
M  V30 11183 C 1031.3 5.69104 -1.60857 0
M  V30 11184 C 1030.66 6.59626 -2.47129 0
M  V30 11185 H 1026.76 0.761844 0.176402 0
M  V30 11186 H 1029.35 1.93886 -0.177833 0
M  V30 11187 H 1027.52 3.40193 1.87413 0
M  V30 11188 H 1029.25 3.63253 1.78408 0
M  V30 11189 H 1026 4.7351 0.0925153 0
M  V30 11190 H 1026.43 6.51843 -1.82836 0
M  V30 11191 H 1031.07 4.22777 -0.0442422 0
M  V30 11192 H 1028.79 7.4604 -3.10564 0
M  V30 11193 H 1032.37 5.57761 -1.65511 0
M  V30 11194 H 1031.25 7.17487 -3.16515 0
M  V30 11195 N 1028.76 -0.17846 1.56586 0
M  V30 11196 C 1029.99 -0.911996 1.85715 0
M  V30 11197 C 1030.4 -1.76138 0.679766 0
M  V30 11198 O 1029.76 -1.79088 -0.351266 0
M  V30 11199 C 1029.81 -1.79459 3.1381 0
M  V30 11200 O 1029.53 -0.979476 4.2701 0
M  V30 11201 C 1031.03 -2.6384 3.56235 0
M  V30 11202 H 1028.25 -0.265299 0.616326 0
M  V30 11203 H 1030.79 -0.180704 2.037 0
M  V30 11204 H 1028.95 -2.4793 2.97673 0
M  V30 11205 H 1029.36 -1.58244 5.00059 0
M  V30 11206 H 1030.84 -3.21396 4.48786 0
M  V30 11207 H 1031.31 -3.38363 2.80013 0
M  V30 11208 H 1031.92 -2.00712 3.7496 0
M  V30 11209 N 1030.24 -1.51135 -0.446768 0
M  V30 11210 C 1031.17 -1.74709 -1.54916 0
M  V30 11211 C 1032.15 -0.596628 -1.59293 0
M  V30 11212 O 1033.33 -0.838356 -1.75172 0
M  V30 11213 C 1030.46 -1.86353 -2.9307 0
M  V30 11214 C 1029.42 -3.01725 -3.03556 0
M  V30 11215 C 1028.74 -2.9854 -4.43597 0
M  V30 11216 C 1030.04 -4.41848 -2.7851 0
M  V30 11217 H 1031.74 -2.67014 -1.3544 0
M  V30 11218 H 1029.28 -1.28489 -0.650131 0
M  V30 11219 H 1031.23 -2.01428 -3.70141 0
M  V30 11220 H 1029.96 -0.906887 -3.13756 0
M  V30 11221 H 1028.62 -2.86339 -2.28922 0
M  V30 11222 H 1028.27 -2.00673 -4.61237 0
M  V30 11223 H 1027.97 -3.76008 -4.51544 0
M  V30 11224 H 1029.49 -3.15696 -5.22655 0
M  V30 11225 H 1030.9 -4.57633 -3.45319 0
M  V30 11226 H 1029.3 -5.2095 -2.97877 0
M  V30 11227 H 1030.37 -4.52536 -1.74182 0
M  V30 11228 N 1031.71 0.701592 -1.41122 0
M  V30 11229 C 1032.65 1.8257 -1.36907 0
M  V30 11230 C 1033.62 1.6086 -0.237245 0
M  V30 11231 O 1034.81 1.83688 -0.423182 0
M  V30 11232 C 1031.94 3.19149 -1.13408 0
M  V30 11233 C 1030.98 3.59661 -2.29229 0
M  V30 11234 S 1031.81 3.65161 -3.91685 0
M  V30 11235 C 1032.97 5.04477 -3.70478 0
M  V30 11236 H 1033.2 1.85867 -2.32036 0
M  V30 11237 H 1030.74 0.869726 -1.27574 0
M  V30 11238 H 1032.69 3.97998 -1.00537 0
M  V30 11239 H 1031.36 3.13468 -0.199099 0
M  V30 11240 H 1030.55 4.58866 -2.08466 0
M  V30 11241 H 1030.15 2.88105 -2.38477 0
M  V30 11242 H 1032.44 5.91803 -3.29811 0
M  V30 11243 H 1033.39 5.3028 -4.69264 0
M  V30 11244 H 1033.79 4.75731 -3.03876 0
M  V30 11245 N 1033.19 1.2685 0.935242 0
M  V30 11246 C 1034.14 1.05586 2.02078 0
M  V30 11247 C 1035.13 -0.013699 1.60894 0
M  V30 11248 O 1036.32 0.203956 1.75821 0
M  V30 11249 C 1033.45 0.697118 3.36148 0
M  V30 11250 C 1032.53 1.80444 3.83798 0
M  V30 11251 N 1032.92 3.04283 4.04037 0
M  V30 11252 C 1031.22 1.68939 4.12766 0
M  V30 11253 C 1031.92 3.7629 4.436 0
M  V30 11254 N 1030.9 3.04011 4.50642 0
M  V30 11255 H 1034.7 1.99577 2.15746 0
M  V30 11256 H 1032.21 1.17455 1.12153 0
M  V30 11257 H 1034.21 0.525915 4.1357 0
M  V30 11258 H 1032.87 -0.235247 3.23847 0
M  V30 11259 H 1033.88 3.40125 3.90558 0
M  V30 11260 H 1030.56 0.827341 4.0922 0
M  V30 11261 H 1031.95 4.82687 4.67401 0
M  V30 11262 N 1034.67 -1.14067 1.0875 0
M  V30 11263 C 1036.08 -1.66747 0.839778 0
M  V30 11264 C 1036.43 -1.85711 -0.632909 0
M  V30 11265 O 1035.56 -1.57084 -1.48841 0
M  V30 11266 C 1036.15 -3.02896 1.51787 0
M  V30 11267 C 1034.71 -3.52596 1.3173 0
M  V30 11268 C 1033.86 -2.27994 1.57841 0
M  V30 11269 H 1036.81 -0.980838 1.24761 0
M  V30 11270 H 1036.83 -3.68526 0.947057 0
M  V30 11271 H 1036.34 -2.89062 2.58969 0
M  V30 11272 H 1034.44 -3.71647 0.266339 0
M  V30 11273 H 1034.56 -4.33151 2.04736 0
M  V30 11274 H 1032.92 -2.34241 1.00015 0
M  V30 11275 H 1033.7 -2.16732 2.66237 0
M  V30 11276 N 1036.15 -0.873678 -1.31166 0
M  V30 11277 C 1037.4 -0.485497 -1.96182 0
M  V30 11278 C 1037.72 0.96621 -1.69379 0
M  V30 11279 O 1036.99 1.67783 -1.01121 0
M  V30 11280 H 1035.57 -0.176547 -0.725838 0
M  V30 11281 H 1038.23 -1.11428 -1.59906 0
M  V30 11282 H 1037.33 -0.646325 -3.05334 0
M  V30 11283 N 1037.63 1.44308 -0.633487 0
M  V30 11284 C 1039.04 1.56768 -0.29931 0
M  V30 11285 C 1039.24 1.62061 1.19743 0
M  V30 11286 O 1038.3 1.56492 1.98158 0
M  V30 11287 C 1039.61 2.8382 -0.993307 0
M  V30 11288 C 1041.16 2.97536 -0.971674 0
M  V30 11289 C 1041.63 4.27393 -1.64618 0
M  V30 11290 N 1043.13 4.34212 -1.61288 0
M  V30 11291 C 1043.86 5.33415 -2.1037 0
M  V30 11292 N 1043.36 6.3901 -2.67653 0
M  V30 11293 N 1045.15 5.24939 -2.00985 0
M  V30 11294 H 1037.3 1.39115 -1.60501 0
M  V30 11295 H 1039.56 0.666804 -0.673852 0
M  V30 11296 H 1039.27 2.85902 -2.04823 0
M  V30 11297 H 1039.14 3.73422 -0.532537 0
M  V30 11298 H 1041.53 2.95005 0.0747854 0
M  V30 11299 H 1041.61 2.09276 -1.47096 0
M  V30 11300 H 1041.26 4.30683 -2.6921 0
M  V30 11301 H 1041.19 5.14515 -1.12171 0
M  V30 11302 H 1043.68 3.58519 -1.19468 0
M  V30 11303 H 1043.99 7.10994 -3.02831 0
M  V30 11304 H 1042.33 6.39689 -2.71705 0
M  V30 11305 H 1045.53 4.41357 -1.55953 0
M  V30 11306 H 1045.7 6.02097 -2.39547 0
M  V30 11307 N 1039.1 0.374177 1.53094 0
M  V30 11308 C 1040.03 -0.459976 2.28925 0
M  V30 11309 C 1041.02 -1.07656 1.31698 0
M  V30 11310 O 1042.2 -1.09219 1.60577 0
M  V30 11311 C 1039.33 -1.5954 3.08487 0
M  V30 11312 C 1038.28 -1.10563 4.13473 0
M  V30 11313 C 1037.61 -2.33196 4.81169 0
M  V30 11314 C 1038.91 -0.184275 5.21975 0
M  V30 11315 H 1040.6 0.172692 2.98902 0
M  V30 11316 H 1038.15 0.0844956 1.43752 0
M  V30 11317 H 1040.1 -2.18565 3.60288 0
M  V30 11318 H 1038.83 -2.25543 2.36216 0
M  V30 11319 H 1037.49 -0.53801 3.62631 0
M  V30 11320 H 1037.13 -2.97675 4.05461 0
M  V30 11321 H 1036.83 -2.01094 5.52119 0
M  V30 11322 H 1038.36 -2.92892 5.35767 0
M  V30 11323 H 1039.77 -0.682262 5.69226 0
M  V30 11324 H 1038.17 0.0462746 6.00082 0
M  V30 11325 H 1039.24 0.771152 4.78729 0
M  V30 11326 N 1040.58 -1.57259 0.103575 0
M  V30 11327 C 1041.81 -1.99 -0.566275 0
M  V30 11328 C 1042.23 -0.982909 -1.61197 0
M  V30 11329 O 1041.58 0.026345 -1.82481 0
M  V30 11330 C 1041.63 -3.40778 -1.20635 0
M  V30 11331 O 1041.35 -4.37632 -0.202472 0
M  V30 11332 C 1042.86 -3.97567 -1.961 0
M  V30 11333 H 1040.08 -0.653751 -0.151164 0
M  V30 11334 H 1042.62 -2.03658 0.185365 0
M  V30 11335 H 1040.77 -3.37107 -1.90886 0
M  V30 11336 H 1041.19 -5.2026 -0.665535 0
M  V30 11337 H 1042.66 -4.98897 -2.36233 0
M  V30 11338 H 1043.14 -3.35853 -2.83018 0
M  V30 11339 H 1043.75 -4.04737 -1.30645 0
M  V30 11340 N 1042.06 0.170153 -1.56679 0
M  V30 11341 C 1043.01 1.21531 -1.9291 0
M  V30 11342 C 1043.99 1.39742 -0.797553 0
M  V30 11343 O 1045.19 1.41693 -1.06075 0
M  V30 11344 C 1042.32 2.55447 -2.29351 0
M  V30 11345 C 1041.4 2.40925 -3.49022 0
M  V30 11346 N 1041.79 1.96118 -4.66231 0
M  V30 11347 C 1040.09 2.71747 -3.53652 0
M  V30 11348 C 1040.79 1.94086 -5.48366 0
M  V30 11349 N 1039.77 2.36533 -4.89441 0
M  V30 11350 H 1043.57 0.860602 -2.81018 0
M  V30 11351 H 1041.08 0.378415 -1.5793 0
M  V30 11352 H 1043.08 3.30972 -2.53502 0
M  V30 11353 H 1041.74 2.9172 -1.42583 0
M  V30 11354 H 1042.75 1.66438 -4.90427 0
M  V30 11355 H 1039.43 3.1205 -2.77365 0
M  V30 11356 H 1040.82 1.61132 -6.52293 0
M  V30 11357 N 1043.54 1.5137 0.438746 0
M  V30 11358 C 1044.77 1.6753 1.20901 0
M  V30 11359 C 1045.18 0.371573 1.85515 0
M  V30 11360 O 1044.52 -0.659701 1.71446 0
M  V30 11361 C 1044.58 2.73305 2.33548 0
M  V30 11362 C 1044.25 4.15944 1.89313 0
M  V30 11363 C 1045.24 5.00769 1.39736 0
M  V30 11364 C 1042.93 4.62036 1.97047 0
M  V30 11365 C 1044.92 6.29747 0.984773 0
M  V30 11366 C 1042.61 5.91011 1.554 0
M  V30 11367 C 1043.61 6.74693 1.06197 0
M  V30 11368 O 1043.29 8.01256 0.651407 0
M  V30 11369 H 1043.03 0.565404 0.370532 0
M  V30 11370 H 1045.58 1.98543 0.526296 0
M  V30 11371 H 1043.81 2.37604 3.05092 0
M  V30 11372 H 1045.5 2.78359 2.95417 0
M  V30 11373 H 1046.27 4.66363 1.33156 0
M  V30 11374 H 1042.14 3.97025 2.34291 0
M  V30 11375 H 1045.69 6.95015 0.600029 0
M  V30 11376 H 1041.59 6.24932 1.6165 0
M  V30 11377 H 1042.35 8.148 0.777382 0
M  V30 11378 N 1045.02 -0.694098 1.41492 0
M  V30 11379 C 1045.97 -1.80016 1.39923 0
M  V30 11380 C 1046.95 -1.58561 0.273377 0
M  V30 11381 O 1048.14 -1.69368 0.514157 0
M  V30 11382 C 1045.27 -3.18333 1.28526 0
M  V30 11383 C 1044.36 -3.45478 2.45979 0
M  V30 11384 N 1044.75 -3.43313 3.71443 0
M  V30 11385 C 1043.05 -3.76033 2.39824 0
M  V30 11386 C 1043.75 -3.69404 4.4935 0
M  V30 11387 N 1042.72 -3.89221 3.79484 0
M  V30 11388 H 1046.53 -1.76707 2.34844 0
M  V30 11389 H 1044.04 -0.894148 1.35568 0
M  V30 11390 H 1046.04 -3.97567 1.25484 0
M  V30 11391 H 1044.7 -3.22852 0.345904 0
M  V30 11392 H 1045.71 -3.2366 4.04308 0
M  V30 11393 H 1042.38 -3.87913 1.54368 0
M  V30 11394 H 1043.77 -3.73854 5.58285 0
M  V30 11395 N 1046.49 -1.27344 -0.928501 0
M  V30 11396 C 1047.4 -1.11812 -2.06241 0
M  V30 11397 C 1048.42 -0.048347 -1.73933 0
M  V30 11398 O 1049.6 -0.25467 -1.99783 0
M  V30 11399 C 1046.66 -0.766036 -3.38131 0
M  V30 11400 C 1045.72 -1.91659 -3.84142 0
M  V30 11401 C 1044.96 -1.58121 -5.09738 0
M  V30 11402 O 1045.18 -0.488742 -5.68302 0
M  V30 11403 O 1044.11 -2.42013 -5.51102 0
M  V30 11404 H 1047.94 -2.06967 -2.22258 0
M  V30 11405 H 1045.52 -1.06524 -1.04752 0
M  V30 11406 H 1047.41 -0.582982 -4.17348 0
M  V30 11407 H 1046.08 0.155998 -3.23324 0
M  V30 11408 H 1044.99 -2.1547 -3.05816 0
M  V30 11409 H 1046.32 -2.8188 -4.0349 0
M  V30 11410 N 1047.97 1.13488 -1.09353 0
M  V30 11411 C 1049.22 1.84383 -0.827488 0
M  V30 11412 C 1049.54 1.83892 0.648745 0
M  V30 11413 O 1048.81 1.29415 1.47066 0
M  V30 11414 H 1047.39 0.682732 -0.303127 0
M  V30 11415 H 1050.05 1.37477 -1.38152 0
M  V30 11416 H 1049.15 2.88919 -1.18035 0
M  V30 11417 N 1049.45 0.880621 1.30701 0
M  V30 11418 C 1050.38 0.360251 2.30704 0
M  V30 11419 C 1051.36 -0.554572 1.60806 0
M  V30 11420 O 1052.55 -0.469345 1.88443 0
M  V30 11421 C 1049.68 -0.429888 3.44629 0
M  V30 11422 C 1048.63 0.392786 4.26194 0
M  V30 11423 C 1047.96 -0.52369 5.32129 0
M  V30 11424 C 1049.26 1.63258 4.96129 0
M  V30 11425 H 1050.95 1.19591 2.74478 0
M  V30 11426 H 1048.5 0.576508 1.31956 0
M  V30 11427 H 1050.45 -0.804532 4.13649 0
M  V30 11428 H 1049.17 -1.29916 2.99649 0
M  V30 11429 H 1047.83 0.749514 3.58856 0
M  V30 11430 H 1047.48 -1.39054 4.83397 0
M  V30 11431 H 1047.18 0.0229272 5.87596 0
M  V30 11432 H 1048.71 -0.894946 6.04006 0
M  V30 11433 H 1050.12 1.32877 5.57689 0
M  V30 11434 H 1048.52 2.11906 5.61441 0
M  V30 11435 H 1049.59 2.37944 4.22505 0
M  V30 11436 N 1050.93 -1.4397 0.641131 0
M  V30 11437 C 1052.34 -1.85267 0.230838 0
M  V30 11438 C 1052.69 -1.53659 -1.21998 0
M  V30 11439 O 1051.82 -0.979572 -1.92959 0
M  V30 11440 C 1052.41 -3.36284 0.412171 0
M  V30 11441 C 1050.97 -3.76358 0.0563004 0
M  V30 11442 C 1050.12 -2.67768 0.720809 0
M  V30 11443 H 1053.07 -1.34294 0.845624 0
M  V30 11444 H 1053.09 -3.78924 -0.345936 0
M  V30 11445 H 1052.6 -3.59258 1.46818 0
M  V30 11446 H 1050.7 -3.58997 -0.997582 0
M  V30 11447 H 1050.82 -4.76756 0.473335 0
M  V30 11448 H 1049.18 -2.54227 0.155164 0
M  V30 11449 H 1049.96 -2.93573 1.77961 0
M  V30 11450 N 1052.41 -0.382291 -1.52893 0
M  V30 11451 C 1053.64 0.202408 -2.05908 0
M  V30 11452 C 1054.05 1.4109 -1.25456 0
M  V30 11453 O 1053.41 1.80027 -0.29942 0
M  V30 11454 C 1053.46 0.579452 -3.56826 0
M  V30 11455 O 1053.18 -0.58102 -4.3423 0
M  V30 11456 C 1054.68 1.22076 -4.2616 0
M  V30 11457 H 1051.9 0.0321859 -0.670228 0
M  V30 11458 H 1054.44 -0.545494 -1.9709 0
M  V30 11459 H 1052.6 1.27726 -3.65739 0
M  V30 11460 H 1053.01 -0.272693 -5.23791 0
M  V30 11461 H 1054.49 1.435 -5.33021 0
M  V30 11462 H 1054.96 2.18605 -3.80931 0
M  V30 11463 H 1055.57 0.563922 -4.21545 0
M  V30 11464 N 1053.89 1.57202 -0.111913 0
M  V30 11465 C 1055.11 1.99297 0.555713 0
M  V30 11466 C 1055.53 0.991444 1.60673 0
M  V30 11467 O 1054.89 -0.0166672 1.82492 0
M  V30 11468 C 1054.94 3.41413 1.18826 0
M  V30 11469 O 1054.66 4.37733 0.179261 0
M  V30 11470 C 1056.16 3.98602 1.93989 0
M  V30 11471 H 1053.38 0.654543 0.147695 0
M  V30 11472 H 1055.92 2.03557 -0.196163 0
M  V30 11473 H 1054.08 3.38115 1.89096 0
M  V30 11474 H 1054.49 5.20606 0.637935 0
M  V30 11475 H 1055.97 5.00143 2.33584 0
M  V30 11476 H 1056.44 3.37349 2.81233 0
M  V30 11477 H 1057.05 4.05424 1.28497 0
M  V30 11478 N 1055.36 -0.161842 1.56767 0
M  V30 11479 C 1056.78 -0.51396 1.51098 0
M  V30 11480 C 1056.98 -1.84158 0.817815 0
M  V30 11481 O 1056.04 -2.49592 0.382133 0
M  V30 11482 C 1057.35 -0.537966 2.95849 0
M  V30 11483 C 1058.9 -0.624512 3.06706 0
M  V30 11484 C 1059.37 -0.679322 4.52934 0
M  V30 11485 N 1060.86 -0.741953 4.57219 0
M  V30 11486 C 1061.6 -0.805096 5.6772 0
M  V30 11487 N 1061.09 -0.828492 6.87828 0
M  V30 11488 N 1062.89 -0.844843 5.55715 0
M  V30 11489 H 1055.04 0.708581 2.00232 0
M  V30 11490 H 1057.3 0.25663 0.912603 0
M  V30 11491 H 1057.01 0.369052 3.49758 0
M  V30 11492 H 1056.88 -1.38113 3.51005 0
M  V30 11493 H 1059.27 -1.52195 2.52825 0
M  V30 11494 H 1059.35 0.245515 2.54619 0
M  V30 11495 H 1058.99 0.213901 5.07449 0
M  V30 11496 H 1058.92 -1.56563 5.02788 0
M  V30 11497 H 1061.41 -0.731772 3.70747 0
M  V30 11498 H 1061.73 -0.878109 7.67795 0
M  V30 11499 H 1060.07 -0.796612 6.9042 0
M  V30 11500 H 1063.26 -0.823632 4.60797 0
M  V30 11501 H 1063.44 -0.890588 6.41851 0
M  V30 11502 N 1056.84 -1.516 -0.430713 0
M  V30 11503 C 1058.09 -1.64271 -1.17726 0
M  V30 11504 C 1058.41 -0.364406 -1.91565 0
M  V30 11505 O 1057.68 0.619991 -1.8583 0
M  V30 11506 H 1056.26 -0.605432 -0.437562 0
M  V30 11507 H 1058.92 -1.88557 -0.493166 0
M  V30 11508 H 1058.02 -2.47355 -1.90321 0
M  V30 11509 N 1058.32 0.686584 -1.41858 0
M  V30 11510 C 1059.55 1.47519 -1.45072 0
M  V30 11511 C 1059.96 1.88709 -0.0585868 0
M  V30 11512 O 1059.32 1.57373 0.924116 0
M  V30 11513 C 1059.37 2.73195 -2.36742 0
M  V30 11514 O 1059.09 2.33736 -3.70539 0
M  V30 11515 C 1060.59 3.66861 -2.48854 0
M  V30 11516 H 1057.81 0.454307 -0.493808 0
M  V30 11517 H 1060.36 0.844612 -1.86243 0
M  V30 11518 H 1058.51 3.32468 -1.98856 0
M  V30 11519 H 1058.93 3.14809 -4.19518 0
M  V30 11520 H 1060.4 4.51801 -3.17143 0
M  V30 11521 H 1060.88 4.11961 -1.52265 0
M  V30 11522 H 1061.48 3.13486 -2.87414 0
M  V30 11523 N 1059.8 1.27835 0.921735 0
M  V30 11524 C 1061.21 1.05369 1.19873 0
M  V30 11525 C 1061.41 -0.208997 2.00413 0
M  V30 11526 O 1060.47 -0.912861 2.35421 0
M  V30 11527 C 1061.78 2.29658 1.94108 0
M  V30 11528 C 1063.33 2.34756 2.07023 0
M  V30 11529 C 1063.81 3.5879 2.84664 0
M  V30 11530 N 1065.3 3.59383 2.9223 0
M  V30 11531 C 1066.03 4.52029 3.52785 0
M  V30 11532 N 1065.53 5.54986 4.14683 0
M  V30 11533 N 1067.32 4.39641 3.50246 0
M  V30 11534 H 1059.47 2.08903 0.383819 0
M  V30 11535 H 1061.73 0.919065 0.232429 0
M  V30 11536 H 1061.44 3.21604 1.4235 0
M  V30 11537 H 1061.31 2.35444 2.94696 0
M  V30 11538 H 1063.7 1.43312 2.57965 0
M  V30 11539 H 1063.78 2.32969 1.05636 0
M  V30 11540 H 1063.43 4.50574 2.34404 0
M  V30 11541 H 1063.36 3.57829 3.86349 0
M  V30 11542 H 1065.85 2.84927 2.48244 0
M  V30 11543 H 1066.16 6.21837 4.58845 0
M  V30 11544 H 1064.51 5.58822 4.13211 0
M  V30 11545 H 1067.7 3.58413 3.01094 0
M  V30 11546 H 1067.87 5.12033 3.97148 0
M  V30 11547 N 1061.28 -1.12907 1.09954 0
M  V30 11548 C 1062.51 -1.87866 0.859656 0
M  V30 11549 C 1062.91 -1.79664 -0.593096 0
M  V30 11550 O 1062.26 -1.16499 -1.42034 0
M  V30 11551 C 1062.32 -3.38055 1.22308 0
M  V30 11552 C 1061.98 -3.70035 2.68185 0
M  V30 11553 C 1062.98 -3.68817 3.66428 0
M  V30 11554 C 1060.66 -3.99523 3.04444 0
M  V30 11555 C 1062.66 -3.96639 4.98955 0
M  V30 11556 C 1060.35 -4.27006 4.37161 0
M  V30 11557 C 1061.34 -4.25549 5.34225 0
M  V30 11558 O 1061.03 -4.52354 6.64553 0
M  V30 11559 H 1060.76 -0.601425 0.308649 0
M  V30 11560 H 1063.32 -1.43817 1.46649 0
M  V30 11561 H 1061.55 -3.82634 0.559322 0
M  V30 11562 H 1063.24 -3.94348 0.961479 0
M  V30 11563 H 1064 -3.46104 3.3976 0
M  V30 11564 H 1059.88 -3.99801 2.29521 0
M  V30 11565 H 1063.43 -3.95418 5.74709 0
M  V30 11566 H 1059.32 -4.49192 4.6357 0
M  V30 11567 H 1060.09 -4.69997 6.70108 0
M  V30 11568 N 1062.75 -0.88754 -1.30232 0
M  V30 11569 C 1064 -0.503322 -1.95319 0
M  V30 11570 C 1064.32 0.952817 -1.70824 0
M  V30 11571 O 1065.52 1.444 -2.29915 0
M  V30 11572 C 1063.98 -0.849216 -3.49738 0
M  V30 11573 C 1063.59 -2.3233 -3.83049 0
M  V30 11574 C 1065.33 -0.53432 -4.21124 0
M  V30 11575 C 1063.24 -2.61069 -5.30657 0
M  V30 11576 H 1062.17 -0.1845 -0.731078 0
M  V30 11577 H 1064.82 -1.08287 -1.48143 0
M  V30 11578 H 1063.2 -0.198729 -3.95501 0
M  V30 11579 H 1064.37 -3.01832 -3.48187 0
M  V30 11580 H 1062.69 -2.60599 -3.24773 0
M  V30 11581 H 1065.29 -0.726039 -5.29748 0
M  V30 11582 H 1065.63 0.526434 -4.12958 0
M  V30 11583 H 1066.16 -1.14211 -3.81052 0
M  V30 11584 H 1062.9 -3.65895 -5.43876 0
M  V30 11585 H 1062.42 -1.96179 -5.6681 0
M  V30 11586 H 1064.1 -2.46703 -5.98119 0
M  V30 11587 N 1064.23 1.43628 -0.648757 0
M  V30 11588 C 1065.2 2.29172 0.0360713 0
M  V30 11589 C 1066.2 1.41974 0.754976 0
M  V30 11590 O 1067.39 1.63654 0.5969 0
M  V30 11591 C 1064.52 3.23942 1.0618 0
M  V30 11592 H 1065.71 2.91214 -0.716544 0
M  V30 11593 H 1063.26 1.50833 -0.409759 0
M  V30 11594 H 1064 2.66786 1.8438 0
M  V30 11595 H 1063.78 3.88223 0.550016 0
M  V30 11596 H 1065.27 3.8816 1.54019 0
M  V30 11597 N 1065.71 0.390394 1.52688 0
M  V30 11598 C 1066.96 -0.191729 2.01892 0
M  V30 11599 C 1067.29 -1.4637 1.27631 0
M  V30 11600 O 1066.56 -1.90809 0.377094 0
M  V30 11601 C 1066.85 -0.458535 3.57169 0
M  V30 11602 C 1066.7 0.828796 4.42098 0
M  V30 11603 C 1068.02 -1.2487 4.22014 0
M  V30 11604 H 1065.14 -0.0682091 0.733837 0
M  V30 11605 H 1067.78 0.520176 1.82741 0
M  V30 11606 H 1065.93 -1.06498 3.73618 0
M  V30 11607 H 1067.6 1.46562 4.37398 0
M  V30 11608 H 1065.85 1.44388 4.09066 0
M  V30 11609 H 1066.52 0.596746 5.48765 0
M  V30 11610 H 1068.99 -0.735452 4.09549 0
M  V30 11611 H 1067.87 -1.40412 5.30637 0
M  V30 11612 H 1068.13 -2.2642 3.79719 0
M  V30 11613 N 1067.19 -1.57141 0.120249 0
M  V30 11614 C 1068.41 -2.00017 -0.548454 0
M  V30 11615 C 1068.84 -0.999433 -1.59352 0
M  V30 11616 O 1068.2 0.0286978 -1.81277 0
M  V30 11617 C 1068.24 -3.41766 -1.15015 0
M  V30 11618 O 1067.35 -3.44589 -2.26566 0
M  V30 11619 H 1066.69 -0.649739 -0.136875 0
M  V30 11620 H 1069.22 -2.03529 0.209092 0
M  V30 11621 H 1069.23 -3.80001 -1.48537 0
M  V30 11622 H 1067.9 -4.14117 -0.384681 0
M  V30 11623 H 1066.48 -3.18174 -1.94473 0
M  V30 11624 N 1068.67 0.153526 -1.5685 0
M  V30 11625 C 1069.91 0.867232 -1.8299 0
M  V30 11626 C 1070.24 1.81462 -0.700125 0
M  V30 11627 O 1069.5 1.93207 0.311348 0
M  V30 11628 C 1069.8 1.68066 -3.15418 0
M  V30 11629 C 1069.46 0.880635 -4.42217 0
M  V30 11630 C 1068.12 0.659899 -4.76654 0
M  V30 11631 C 1070.48 0.320698 -5.20212 0
M  V30 11632 C 1067.8 -0.131588 -5.86552 0
M  V30 11633 C 1070.16 -0.457794 -6.30941 0
M  V30 11634 C 1068.82 -0.689168 -6.63933 0
M  V30 11635 H 1068.09 0.317343 -0.669608 0
M  V30 11636 H 1070.74 0.131208 -1.9105 0
M  V30 11637 H 1069.04 2.4866 -3.02779 0
M  V30 11638 H 1070.74 2.23623 -3.32857 0
M  V30 11639 H 1067.33 1.06274 -4.15215 0
M  V30 11640 H 1071.51 0.47853 -4.93988 0
M  V30 11641 H 1066.77 -0.320413 -6.1056 0
M  V30 11642 H 1070.94 -0.898839 -6.90575 0
M  V30 11643 H 1068.57 -1.30433 -7.48927 0
M  V30 11644 N 1070.14 1.51827 0.422667 0
M  V30 11645 C 1071.39 1.65464 1.17258 0
M  V30 11646 C 1071.72 0.376834 1.90509 0
M  V30 11647 O 1071 -0.624219 1.84211 0
M  V30 11648 C 1071.28 2.86776 2.17788 0
M  V30 11649 C 1071.13 4.24571 1.48523 0
M  V30 11650 C 1072.45 3.03603 3.18611 0
M  V30 11651 H 1069.57 0.602169 0.424925 0
M  V30 11652 H 1072.21 1.84349 0.45996 0
M  V30 11653 H 1070.36 2.70806 2.78561 0
M  V30 11654 H 1072.04 4.5224 0.909739 0
M  V30 11655 H 1070.28 4.26595 0.787354 0
M  V30 11656 H 1070.95 5.05475 2.2181 0
M  V30 11657 H 1073.43 3.18381 2.67904 0
M  V30 11658 H 1072.3 3.90022 3.8623 0
M  V30 11659 H 1072.56 2.16318 3.85563 0
M  V30 11660 N 1071.62 -0.679052 1.4222 0
M  V30 11661 C 1072.9 -1.43473 1.32947 0
M  V30 11662 C 1073.28 -2.11071 -0.0351689 0
M  V30 11663 O 1072.63 -2.02925 -1.05042 0
M  V30 11664 C 1072.84 -2.44065 2.49466 0
M  V30 11665 C 1074.19 -3.08834 2.91387 0
M  V30 11666 O 1075.21 -2.54392 2.49325 0
M  V30 11667 O 1074.07 -4.07478 3.64175 0
M  V30 11668 H 1071.16 -0.639743 0.524078 0
M  V30 11669 H 1073.71 -0.708134 1.54219 0
M  V30 11670 H 1072.48 -1.92884 3.40457 0
M  V30 11671 H 1072.1 -3.24212 2.30158 0
M  V30 11672 N 1073.1 -1.28322 -0.914942 0
M  V30 11673 C 1074.51 -1.13937 -1.47903 0
M  V30 11674 C 1074.86 0.271072 -1.94318 0
M  V30 11675 O 1073.99 1.16522 -1.8235 0
M  V30 11676 C 1074.58 -2.06221 -2.68809 0
M  V30 11677 C 1073.14 -1.95903 -3.21402 0
M  V30 11678 C 1072.29 -1.98031 -1.94111 0
M  V30 11679 H 1075.24 -1.41029 -0.727772 0
M  V30 11680 H 1075.26 -1.6255 -3.44031 0
M  V30 11681 H 1074.77 -3.08866 -2.34997 0
M  V30 11682 H 1072.87 -0.962907 -3.59943 0
M  V30 11683 H 1072.99 -2.82799 -3.86732 0
M  V30 11684 H 1071.35 -1.42423 -2.11158 0
M  V30 11685 H 1072.13 -3.02354 -1.62595 0
M  V30 11686 O 1074.62 1.04977 -1.22727 0
M  V30 11687 H 1075.31 1.66219 -0.994539 0
M  V30 END ATOM
M  V30 BEGIN BOND
M  V30 END BOND
M  V30 END CTAB
M  END
$$$$
