drugbank_target|Q03393 6-pyruvoyl tetrahydrobiopterin synthase (DB00688; DB03886)
 OpenBabel12092120543D

  0  0  0     0  0            999 V3000
M  V30 BEGIN CTAB
M  V30 COUNTS 2285 2308 0 0 0
M  V30 BEGIN ATOM
M  V30 1 H -0.908 1.98254 -0.117106 0
M  V30 2 N 0 1.576 0 0
M  V30 3 C 0.933 2.03868 1.02534 0
M  V30 4 C 1.911 0.928543 1.3348 0
M  V30 5 O 3.095 1.19667 1.45644 0
M  V30 6 C 0.222 2.43627 2.35294 0
M  V30 7 C -0.732 3.65373 2.2001 0
M  V30 8 S 0.101 5.13292 1.52614 0
M  V30 9 C 1.257 5.56322 2.86805 0
M  V30 10 H 1.49 2.90518 0.631377 0
M  V30 11 H -0.977 1.52953 0.210867 0
M  V30 12 H 0.981 2.67203 3.11629 0
M  V30 13 H -0.358 1.57376 2.7183 0
M  V30 14 H -1.165 3.90944 3.18086 0
M  V30 15 H -1.563 3.418 1.51819 0
M  V30 16 H 0.729 5.58782 3.83104 0
M  V30 17 H 1.672 6.56266 2.65933 0
M  V30 18 H 2.08 4.83886 2.90714 0
M  V30 19 N 1.4781 -0.272755 1.55222 0
M  V30 20 C 2.7031 -1.02683 1.80197 0
M  V30 21 C 3.1281 -1.79142 0.573551 0
M  V30 22 O 2.4861 -1.74917 -0.476849 0
M  V30 23 C 2.5341 -1.9609 3.02624 0
M  V30 24 O 1.6381 -3.04863 2.77727 0
M  V30 25 H 0.9791 -0.293557 0.595584 0
M  V30 26 H 3.5091 -0.30159 2.02365 0
M  V30 27 H 3.5191 -2.38039 3.31363 0
M  V30 28 H 2.1941 -1.39851 3.91682 0
M  V30 29 H 0.7711 -2.67228 2.60084 0
M  V30 30 N 2.9562 -1.48159 -0.537278 0
M  V30 31 C 4.1842 -1.59454 -1.31841 0
M  V30 32 C 4.5992 -0.252065 -1.8711 0
M  V30 33 O 3.9562 0.757621 -1.66031 0
M  V30 34 C 4.0072 -2.63546 -2.47439 0
M  V30 35 O 3.7282 -3.92583 -1.94449 0
M  V30 36 C 5.2292 -2.85212 -3.39366 0
M  V30 37 H 2.4492 -0.53785 -0.401196 0
M  V30 38 H 4.9932 -1.93932 -0.648891 0
M  V30 39 H 3.1482 -2.31946 -3.1029 0
M  V30 40 H 3.5622 -4.49629 -2.70063 0
M  V30 41 H 5.0362 -3.61863 -4.16844 0
M  V30 42 H 5.5132 -1.93765 -3.94147 0
M  V30 43 H 6.1192 -3.18086 -2.82314 0
M  V30 44 N 4.4343 0.785586 -1.36625 0
M  V30 45 C 5.3443 1.92964 -1.33425 0
M  V30 46 C 6.3603 1.72394 -0.235851 0
M  V30 47 O 7.5363 1.95866 -0.468878 0
M  V30 48 C 4.6013 3.27884 -1.12662 0
M  V30 49 C 3.6623 3.61204 -2.32013 0
M  V30 50 C 2.8953 4.89687 -2.12231 0
M  V30 51 O 3.1183 5.59704 -1.09945 0
M  V30 52 O 2.0523 5.21752 -3.00098 0
M  V30 53 H 5.8783 1.98613 -2.29753 0
M  V30 54 H 3.4633 0.926384 -1.17211 0
M  V30 55 H 5.3453 4.08614 -1.03016 0
M  V30 56 H 4.0203 3.23118 -0.193991 0
M  V30 57 H 2.9273 2.80765 -2.47228 0
M  V30 58 H 4.2603 3.70698 -3.23796 0
M  V30 59 N 5.9124 1.20967 1.01018 0
M  V30 60 C 7.1604 1.02172 1.74371 0
M  V30 61 C 7.4814 -0.446414 1.89821 0
M  V30 62 O 6.7514 -1.32234 1.44537 0
M  V30 63 H 5.3314 0.375066 0.646014 0
M  V30 64 H 7.9934 1.52187 1.21758 0
M  V30 65 H 7.0894 1.48538 2.74487 0
M  V30 66 N 7.3905 -1.2043 1.01659 0
M  V30 67 C 8.6385 -1.89423 0.704522 0
M  V30 68 C 8.9595 -1.79231 -0.768197 0
M  V30 69 O 8.2295 -1.1947 -1.55254 0
M  V30 70 H 6.8095 -0.701178 0.257602 0
M  V30 71 H 9.4715 -1.4626 1.28818 0
M  V30 72 H 8.5675 -2.96052 0.987916 0
M  V30 73 N 8.8686 -0.792821 -1.36206 0
M  V30 74 C 10.1166 -0.366062 -1.98757 0
M  V30 75 C 10.4376 1.0668 -1.63231 0
M  V30 76 O 9.7076 1.73587 -0.907978 0
M  V30 77 H 8.2876 -0.132364 -0.735179 0
M  V30 78 H 10.9496 -1.01562 -1.66347 0
M  V30 79 H 10.0456 -0.460638 -3.08682 0
M  V30 80 N 10.3467 1.47872 -0.545128 0
M  V30 81 C 11.7627 1.5829 -0.204032 0
M  V30 82 C 11.9627 1.54529 1.29317 0
M  V30 83 O 11.0187 1.44232 2.07252 0
M  V30 84 C 12.3317 2.89304 -0.819987 0
M  V30 85 C 13.8797 3.02864 -0.790105 0
M  V30 86 C 14.3547 4.3656 -1.38491 0
M  V30 87 N 15.8457 4.43165 -1.34755 0
M  V30 88 C 16.5807 5.45153 -1.77753 0
M  V30 89 N 16.0767 6.54016 -2.2855 0
M  V30 90 N 17.8697 5.36125 -1.68897 0
M  V30 91 H 10.0207 1.4856 -1.51802 0
M  V30 92 H 12.2837 0.706305 -0.632327 0
M  V30 93 H 11.9897 2.97757 -1.87173 0
M  V30 94 H 11.8637 3.75957 -0.305915 0
M  V30 95 H 14.2507 2.94014 0.252913 0
M  V30 96 H 14.3317 2.17782 -1.34181 0
M  V30 97 H 13.9757 4.46164 -2.42693 0
M  V30 98 H 13.9057 5.20353 -0.808754 0
M  V30 99 H 16.3967 3.65083 -0.975855 0
M  V30 100 H 16.7097 7.27994 -2.59314 0
M  V30 101 H 15.0547 6.54938 -2.32553 0
M  V30 102 H 18.2457 4.49975 -1.28998 0
M  V30 103 H 18.4187 6.15472 -2.02726 0
M  V30 104 N 11.8248 0.280983 1.55075 0
M  V30 105 C 13.2408 -0.0729964 1.59433 0
M  V30 106 C 13.4408 -1.5411 1.29817 0
M  V30 107 O 12.4968 -2.29086 1.06187 0
M  V30 108 C 13.8098 0.306921 2.9913 0
M  V30 109 C 15.3578 0.254023 3.11968 0
M  V30 110 C 15.8328 0.608467 4.5394 0
M  V30 111 N 17.3238 0.560241 4.59799 0
M  V30 112 C 18.0588 0.80722 5.6769 0
M  V30 113 N 17.5548 1.11912 6.83701 0
M  V30 114 N 19.3478 0.735623 5.57266 0
M  V30 115 H 11.4988 1.238 1.7259 0
M  V30 116 H 13.7618 0.500547 0.805082 0
M  V30 117 H 13.4678 1.32816 3.25657 0
M  V30 118 H 13.3418 -0.349363 3.75579 0
M  V30 119 H 15.7288 -0.75794 2.852 0
M  V30 120 H 15.8098 0.944649 2.37718 0
M  V30 121 H 15.4538 1.61814 4.81434 0
M  V30 122 H 15.3838 -0.104013 5.26497 0
M  V30 123 H 17.8748 0.329288 3.76463 0
M  V30 124 H 18.1878 1.29409 7.61888 0
M  V30 125 H 16.5328 1.15695 6.85303 0
M  V30 126 H 19.7238 0.491752 4.6551 0
M  V30 127 H 19.8968 0.931482 6.4127 0
M  V30 128 N 13.3029 -1.57598 0.00835791 0
M  V30 129 C 14.5429 -1.92788 -0.679136 0
M  V30 130 C 14.9069 -0.883378 -1.70471 0
M  V30 131 O 16.1079 -1.12079 -2.44319 0
M  V30 132 C 14.3789 -3.32994 -1.29807 0
M  V30 133 S 15.9379 -3.90082 -2.00952 0
M  V30 134 H 12.7559 -0.67475 -0.224127 0
M  V30 135 H 15.3579 -1.95385 0.0670497 0
M  V30 136 H 14.0619 -4.06846 -0.538922 0
M  V30 137 H 13.5929 -3.33791 -2.082 0
M  V30 138 H 15.6079 -3.71834 -3.28563 0
M  V30 139 N 14.781 0.264519 -1.55364 0
M  V30 140 C 15.713 1.34965 -1.85248 0
M  V30 141 C 16.726 1.45136 -0.737525 0
M  V30 142 O 17.915 1.46801 -1.01547 0
M  V30 143 C 15.015 2.73008 -2.00797 0
M  V30 144 C 14.188 2.85324 -3.31525 0
M  V30 145 C 13.247 4.04097 -3.37034 0
M  V30 146 O 12.273 3.94455 -4.10358 0
M  V30 147 N 13.475 5.16458 -2.65049 0
M  V30 148 H 16.24 1.09672 -2.78913 0
M  V30 149 H 13.801 0.454635 -1.55386 0
M  V30 150 H 15.793 3.50772 -2.01844 0
M  V30 151 H 14.363 2.91087 -1.1396 0
M  V30 152 H 13.583 1.94377 -3.42945 0
M  V30 153 H 14.871 2.9049 -4.17724 0
M  V30 154 H 14.269 5.27181 -2.05175 0
M  V30 155 H 12.826 5.92422 -2.71809 0
M  V30 156 N 16.2591 1.48442 0.529413 0
M  V30 157 C 17.2221 1.62524 1.61612 0
M  V30 158 C 18.2221 0.498509 1.52877 0
M  V30 159 O 19.4121 0.76431 1.56537 0
M  V30 160 C 16.5441 1.59597 3.01233 0
M  V30 161 H 17.7371 2.59423 1.50465 0
M  V30 162 H 15.2901 1.37047 0.751514 0
M  V30 163 H 16.0251 0.641781 3.17886 0
M  V30 164 H 15.8101 2.41397 3.08982 0
M  V30 165 H 17.3001 1.72646 3.80241 0
M  V30 166 N 17.7372 -0.778329 1.37039 0
M  V30 167 C 18.6692 -1.90034 1.2814 0
M  V30 168 C 19.6822 -1.61585 0.198558 0
M  V30 169 O 20.8712 -1.72625 0.454175 0
M  V30 170 C 17.9712 -3.25108 0.956968 0
M  V30 171 C 17.1442 -3.81253 2.14394 0
M  V30 172 C 16.2032 -4.94789 1.79082 0
M  V30 173 O 15.2292 -5.10721 2.51301 0
M  V30 174 N 16.4312 -5.75878 0.731043 0
M  V30 175 H 19.1962 -1.98186 2.24816 0
M  V30 176 H 16.7572 -0.957129 1.30578 0
M  V30 177 H 18.7492 -3.9857 0.701701 0
M  V30 178 H 17.3192 -3.125 0.0789812 0
M  V30 179 H 16.5392 -2.99647 2.56135 0
M  V30 180 H 17.8272 -4.15495 2.93668 0
M  V30 181 H 17.2252 -5.65547 0.131618 0
M  V30 182 H 15.7822 -6.49596 0.535622 0
M  V30 183 N 19.2153 -1.21501 -1.00376 0
M  V30 184 C 20.4613 -1.03452 -1.74429 0
M  V30 185 C 20.7943 0.430764 -1.89362 0
M  V30 186 O 20.0693 1.31962 -1.42886 0
M  V30 187 C 20.3523 -1.73375 -3.15615 0
M  V30 188 C 20.2053 -3.27431 -3.08397 0
M  V30 189 C 21.5243 -1.47732 -4.14564 0
M  V30 190 H 18.6433 -0.377226 -0.633143 0
M  V30 191 H 21.2853 -1.49693 -1.17013 0
M  V30 192 H 19.4353 -1.34064 -3.64636 0
M  V30 193 H 21.1073 -3.76119 -2.67081 0
M  V30 194 H 19.3503 -3.5767 -2.45468 0
M  V30 195 H 20.0213 -3.71524 -4.08258 0
M  V30 196 H 22.4973 -1.8186 -3.74254 0
M  V30 197 H 21.3733 -1.99169 -5.11491 0
M  V30 198 H 21.6343 -0.407589 -4.40217 0
M  V30 199 N 20.6934 1.19889 -1.02296 0
M  V30 200 C 21.9184 1.9393 -0.735237 0
M  V30 201 C 22.3434 1.74639 0.698782 0
M  V30 202 O 21.7014 1.04481 1.48167 0
M  V30 203 C 21.7494 3.43916 -1.08417 0
M  V30 204 O 20.8534 4.11917 -0.199446 0
M  V30 205 H 20.1944 0.605645 -0.272196 0
M  V30 206 H 22.7244 1.52137 -1.36804 0
M  V30 207 H 22.7344 3.9456 -1.03856 0
M  V30 208 H 21.4094 3.5728 -2.12894 0
M  V30 209 H 19.9864 3.71666 -0.303136 0
M  V30 210 N 22.1715 0.800033 1.35784 0
M  V30 211 C 23.5875 0.482977 1.52117 0
M  V30 212 C 23.7875 -0.996948 1.75109 0
M  V30 213 O 22.8435 -1.78216 1.78872 0
M  V30 214 C 24.1565 1.32264 2.70049 0
M  V30 215 C 25.7045 1.31742 2.83924 0
M  V30 216 C 26.1795 2.14106 4.04874 0
M  V30 217 N 27.6705 2.11607 4.12039 0
M  V30 218 C 28.4055 2.72099 5.04727 0
M  V30 219 N 27.9015 3.41492 6.02789 0
M  V30 220 N 29.6945 2.61776 4.97423 0
M  V30 221 H 21.8455 1.75856 1.19115 0
M  V30 222 H 24.1085 0.748122 0.582252 0
M  V30 223 H 23.8145 2.37261 2.59616 0
M  V30 224 H 23.6885 0.971303 3.6448 0
M  V30 225 H 26.0755 0.275333 2.93813 0
M  V30 226 H 26.1565 1.70859 1.9037 0
M  V30 227 H 25.8005 3.18351 3.95746 0
M  V30 228 H 25.7305 1.72353 4.97596 0
M  V30 229 H 28.2215 1.61112 3.41835 0
M  V30 230 H 28.5345 3.84953 6.70098 0
M  V30 231 H 26.8795 3.45596 6.02983 0
M  V30 232 H 30.0705 2.07157 4.19766 0
M  V30 233 H 30.2435 3.0921 5.69468 0
M  V30 234 N 23.6496 -1.47581 0.552962 0
M  V30 235 C 25.0656 -1.5818 0.212424 0
M  V30 236 C 25.2656 -1.55213 -1.28496 0
M  V30 237 O 24.3216 -1.45329 -2.06484 0
M  V30 238 C 25.6346 -2.88865 0.835318 0
M  V30 239 C 27.1826 -3.0244 0.806156 0
M  V30 240 C 27.6576 -4.35819 1.40804 0
M  V30 241 N 29.1486 -4.42444 1.37103 0
M  V30 242 C 29.8836 -5.44202 1.80641 0
M  V30 243 N 29.3796 -6.52795 2.32015 0
M  V30 244 N 31.1726 -5.35222 1.71738 0
M  V30 245 H 23.3236 -1.47753 1.52587 0
M  V30 246 H 25.5866 -0.702941 0.636064 0
M  V30 247 H 25.2926 -2.9676 1.88749 0
M  V30 248 H 25.1666 -3.7579 0.325848 0
M  V30 249 H 27.5536 -2.94144 -0.237317 0
M  V30 250 H 27.6346 -2.17068 1.35334 0
M  V30 251 H 27.2786 -4.44871 2.45056 0
M  V30 252 H 27.2086 -5.19916 0.836338 0
M  V30 253 H 29.6996 -3.6456 0.995202 0
M  V30 254 H 30.0126 -7.26609 2.63171 0
M  V30 255 H 28.3576 -6.53696 2.36023 0
M  V30 256 H 31.5486 -4.49284 1.31382 0
M  V30 257 H 31.7216 -6.14389 2.05987 0
M  V30 258 N 25.1277 -0.289203 -1.54924 0
M  V30 259 C 26.3767 0.324231 -1.99077 0
M  V30 260 C 26.6897 1.5591 -1.18117 0
M  V30 261 O 27.8957 2.24637 -1.52481 0
M  V30 262 C 26.3517 0.628209 -3.54375 0
M  V30 263 C 25.9597 -0.587647 -4.44129 0
M  V30 264 C 27.7037 1.20349 -4.07083 0
M  V30 265 C 25.6107 -0.257475 -5.90839 0
M  V30 266 H 24.5407 0.124924 -0.743579 0
M  V30 267 H 27.1917 -0.396063 -1.79175 0
M  V30 268 H 25.5737 1.40778 -3.70132 0
M  V30 269 H 26.7477 -1.36418 -4.40144 0
M  V30 270 H 25.0627 -1.08074 -4.0213 0
M  V30 271 H 27.6597 1.46456 -5.14252 0
M  V30 272 H 28.0027 2.14195 -3.56968 0
M  V30 273 H 28.5357 0.485889 -3.94821 0
M  V30 274 H 25.2747 -1.16419 -6.45079 0
M  V30 275 H 24.7947 0.482018 -5.9786 0
M  V30 276 H 26.4737 0.145238 -6.46837 0
M  V30 277 N 26.6058 1.57591 -0.0167156 0
M  V30 278 C 27.8308 1.9598 0.67872 0
M  V30 279 C 28.2558 0.892546 1.65575 0
M  V30 280 O 27.6138 -0.147772 1.80697 0
M  V30 281 C 27.6618 3.33468 1.37227 0
M  V30 282 O 26.7658 3.28954 2.48722 0
M  V30 283 H 26.1068 0.639339 0.17928 0
M  V30 284 H 28.6368 2.04463 -0.0748802 0
M  V30 285 H 28.6468 3.69417 1.7319 0
M  V30 286 H 27.3218 4.10694 0.656007 0
M  V30 287 H 25.8988 3.04705 2.14963 0
M  V30 288 N 28.0839 -0.256276 1.55502 0
M  V30 289 C 29.3309 -0.985619 1.76895 0
M  V30 290 C 29.6589 -1.85671 0.579355 0
M  V30 291 O 28.9139 -1.90744 -0.437651 0
M  V30 292 C 29.2129 -1.88432 3.03691 0
M  V30 293 C 28.8789 -1.16936 4.35473 0
M  V30 294 C 27.5409 -0.97173 4.71286 0
M  V30 295 C 29.8929 -0.661889 5.1698 0
M  V30 296 C 27.2209 -0.254179 5.86149 0
M  V30 297 C 29.5729 0.042149 6.32586 0
M  V30 298 C 28.2369 0.25134 6.67027 0
M  V30 299 H 27.5069 -0.360663 0.647304 0
M  V30 300 H 30.1539 -0.256483 1.89775 0
M  V30 301 H 28.4589 -2.68021 2.85783 0
M  V30 302 H 30.1559 -2.45015 3.1744 0
M  V30 303 H 26.7459 -1.33332 4.07333 0
M  V30 304 H 30.9299 -0.802145 4.89775 0
M  V30 305 H 26.1859 -0.0815408 6.11346 0
M  V30 306 H 30.3599 0.443049 6.94989 0
M  V30 307 H 27.9869 0.809314 7.5588 0
M  V30 308 N 29.562 -1.4872 -0.521534 0
M  V30 309 C 30.787 -1.61101 -1.30618 0
M  V30 310 C 31.212 -0.274611 -1.86085 0
M  V30 311 O 30.57 0.754937 -1.64834 0
M  V30 312 C 30.618 -2.66709 -2.4269 0
M  V30 313 O 29.722 -2.24456 -3.45967 0
M  V30 314 H 29.063 -0.539921 -0.386499 0
M  V30 315 H 31.593 -1.94767 -0.626645 0
M  V30 316 H 31.603 -2.88245 -2.88754 0
M  V30 317 H 30.278 -3.63727 -2.01682 0
M  V30 318 H 28.855 -2.13168 -3.05964 0
M  V30 319 N 31.0401 0.771051 -1.3745 0
M  V30 320 C 32.0031 1.86598 -1.33093 0
M  V30 321 C 33.0031 1.59076 -0.234845 0
M  V30 322 O 34.1931 1.67145 -0.490732 0
M  V30 323 C 31.3251 3.23747 -1.06773 0
M  V30 324 H 32.5181 1.91873 -2.30488 0
M  V30 325 H 30.0711 0.970876 -1.2249 0
M  V30 326 H 30.8061 3.24148 -0.099129 0
M  V30 327 H 30.5911 3.45115 -1.86112 0
M  V30 328 H 32.0811 4.03824 -1.06377 0
M  V30 329 N 32.5182 1.22032 0.997298 0
M  V30 330 C 33.7432 1.06921 1.77715 0
M  V30 331 C 34.1682 -0.376226 1.84299 0
M  V30 332 O 33.5262 -1.27165 1.29223 0
M  V30 333 C 33.5742 1.67996 3.19076 0
M  V30 334 O 32.6782 0.930653 4.01762 0
M  V30 335 H 32.0192 0.375814 0.547412 0
M  V30 336 H 34.5492 1.61737 1.25309 0
M  V30 337 H 34.5592 1.72538 3.69723 0
M  V30 338 H 33.2342 2.73182 3.13599 0
M  V30 339 H 31.8112 0.960917 3.60307 0
M  V30 340 N 33.9963 -1.19345 1.0293 0
M  V30 341 C 34.9463 -2.20472 0.58104 0
M  V30 342 C 35.9303 -1.56578 -0.370442 0
M  V30 343 O 37.1223 -1.75963 -0.191344 0
M  V30 344 C 34.2513 -3.43236 -0.066306 0
M  V30 345 C 33.3373 -4.14274 0.907642 0
M  V30 346 N 33.7283 -4.61492 2.07023 0
M  V30 347 C 32.0263 -4.39966 0.731177 0
M  V30 348 C 32.7273 -5.1605 2.68454 0
M  V30 349 N 31.7033 -5.06875 1.96414 0
M  V30 350 H 35.5053 -2.54659 1.46717 0
M  V30 351 H 33.0193 -1.35423 0.896345 0
M  V30 352 H 35.0163 -4.14927 -0.405068 0
M  V30 353 H 33.6763 -3.10549 -0.948118 0
M  V30 354 H 34.6873 -4.56304 2.44963 0
M  V30 355 H 31.3643 -4.17377 -0.101507 0
M  V30 356 H 32.7543 -5.6287 3.66915 0
M  V30 357 N 35.4744 -0.807222 -1.35358 0
M  V30 358 C 36.8904 -0.491038 -1.51858 0
M  V30 359 C 37.0904 0.987648 -1.75635 0
M  V30 360 O 36.1464 1.77265 -1.79815 0
M  V30 361 C 37.4594 -1.33695 -2.69344 0
M  V30 362 C 39.0074 -1.33246 -2.83222 0
M  V30 363 C 39.4824 -2.1625 -4.03733 0
M  V30 364 N 40.9734 -2.1379 -4.10911 0
M  V30 365 C 41.7084 -2.74772 -5.03277 0
M  V30 366 N 41.2044 -3.44684 -6.0097 0
M  V30 367 N 42.9974 -2.6441 -4.96028 0
M  V30 368 H 35.1484 -1.76485 -1.18181 0
M  V30 369 H 37.4114 -0.751199 -0.578276 0
M  V30 370 H 37.1174 -2.38634 -2.58354 0
M  V30 371 H 36.9914 -0.990618 -3.6396 0
M  V30 372 H 39.3784 -0.290911 -2.93663 0
M  V30 373 H 39.4594 -1.71866 -1.89461 0
M  V30 374 H 39.1034 -3.20445 -3.94052 0
M  V30 375 H 39.0334 -1.74989 -4.96675 0
M  V30 376 H 41.5244 -1.62923 -3.40976 0
M  V30 377 H 41.8374 -3.88501 -6.68047 0
M  V30 378 H 40.1824 -3.48788 -6.01142 0
M  V30 379 H 43.3734 -2.0938 -4.18662 0
M  V30 380 H 43.5464 -3.12225 -5.6782 0
M  V30 381 N 36.9525 1.47285 -0.560781 0
M  V30 382 C 37.8825 2.32857 0.173105 0
M  V30 383 C 38.8635 1.44009 0.905281 0
M  V30 384 O 40.0485 1.7286 0.885046 0
M  V30 385 C 37.1785 3.25861 1.20133 0
M  V30 386 C 36.1325 4.23978 0.585388 0
M  V30 387 C 35.4585 5.06332 1.7185 0
M  V30 388 C 36.7585 5.20242 -0.463178 0
M  V30 389 H 38.4525 2.94466 -0.541307 0
M  V30 390 H 35.9985 1.41601 -0.261764 0
M  V30 391 H 37.9515 3.84569 1.72293 0
M  V30 392 H 36.6755 2.62315 1.94573 0
M  V30 393 H 35.3345 3.66501 0.085054 0
M  V30 394 H 34.9825 4.39186 2.45203 0
M  V30 395 H 34.6825 5.72762 1.31213 0
M  V30 396 H 36.2065 5.67899 2.24329 0
M  V30 397 H 37.6205 5.73293 -0.027502 0
M  V30 398 H 36.0175 5.94896 -0.788627 0
M  V30 399 H 37.0875 4.65504 -1.35773 0
M  V30 400 N 38.4306 0.297415 1.54768 0
M  V30 401 C 39.6606 -0.315165 2.04182 0
M  V30 402 C 40.0686 -1.4834 1.17439 0
M  V30 403 O 39.4116 -1.82695 0.191891 0
M  V30 404 C 39.4736 -0.837583 3.49607 0
M  V30 405 C 39.1376 0.204912 4.5654 0
M  V30 406 C 40.1346 1.03214 5.09552 0
M  V30 407 C 37.8196 0.345578 5.0111 0
M  V30 408 C 39.8136 1.986 6.05671 0
M  V30 409 C 37.5006 1.30289 5.97049 0
M  V30 410 C 38.4986 2.12159 6.49213 0
M  V30 411 O 38.1866 3.06268 7.43273 0
M  V30 412 H 37.9186 -0.0729646 0.672051 0
M  V30 413 H 40.4726 0.433907 2.00765 0
M  V30 414 H 38.7026 -1.63712 3.50336 0
M  V30 415 H 40.3916 -1.36566 3.82236 0
M  V30 416 H 41.1576 0.934312 4.75916 0
M  V30 417 H 37.0366 -0.28171 4.60138 0
M  V30 418 H 40.5806 2.62542 6.46311 0
M  V30 419 H 36.4776 1.40145 6.30103 0
M  V30 420 H 37.2456 3.01205 7.61064 0
M  V30 421 N 39.9087 -1.5758 0.0250728 0
M  V30 422 C 41.1337 -1.96337 -0.668317 0
M  V30 423 C 41.5587 -0.901314 -1.651 0
M  V30 424 O 40.9167 0.138187 -1.80773 0
M  V30 425 C 40.9647 -3.34191 -1.35457 0
M  V30 426 O 40.0687 -3.30269 -2.46974 0
M  V30 427 H 39.4097 -0.640281 -0.175887 0
M  V30 428 H 41.9397 -2.0442 0.0857224 0
M  V30 429 H 41.9497 -3.70331 -1.71228 0
M  V30 430 H 40.6247 -4.11036 -0.634218 0
M  V30 431 H 39.2017 -3.05841 -2.13344 0
M  V30 432 N 41.3868 0.248026 -1.55636 0
M  V30 433 C 42.3338 1.30707 -1.90222 0
M  V30 434 C 43.3038 1.47881 -0.756332 0
M  V30 435 O 44.4888 1.61883 -1.00988 0
M  V30 436 C 41.6288 2.65769 -2.20138 0
M  V30 437 C 40.7418 2.56612 -3.47526 0
M  V30 438 C 39.8768 3.8402 -3.67017 0
M  V30 439 C 38.9158 3.69476 -4.8801 0
M  V30 440 N 38.0528 4.88774 -5.04029 0
M  V30 441 H 42.8928 1.00512 -2.80538 0
M  V30 442 H 40.4298 0.485055 -1.38873 0
M  V30 443 H 42.3878 3.44386 -2.35487 0
M  V30 444 H 41.0178 2.94115 -1.33027 0
M  V30 445 H 40.0698 1.69571 -3.40514 0
M  V30 446 H 41.3818 2.41774 -4.36287 0
M  V30 447 H 40.5358 4.7108 -3.8232 0
M  V30 448 H 39.2748 4.01754 -2.76487 0
M  V30 449 H 38.2798 2.80799 -4.72686 0
M  V30 450 H 39.5048 3.53238 -5.8 0
M  V30 451 H 37.4508 5.0687 -4.16435 0
M  V30 452 H 37.3678 4.76562 -5.86877 0
M  V30 453 H 38.6358 5.77335 -5.23741 0
M  V30 454 N 42.8649 1.48995 0.513639 0
M  V30 455 C 44.1119 1.57843 1.26854 0
M  V30 456 C 44.4399 0.259501 1.92761 0
M  V30 457 O 43.6949 -0.75159 1.80692 0
M  V30 458 C 43.9939 2.67756 2.36731 0
M  V30 459 C 43.6599 4.09669 1.88368 0
M  V30 460 C 42.3219 4.48291 1.74896 0
M  V30 461 C 44.6739 4.98537 1.52021 0
M  V30 462 C 42.0019 5.73568 1.23438 0
M  V30 463 C 44.3539 6.24319 1.0202 0
M  V30 464 C 43.0179 6.61783 0.871778 0
M  V30 465 H 42.2879 0.577587 0.464192 0
M  V30 466 H 44.9349 1.82778 0.571366 0
M  V30 467 H 43.2399 2.36743 3.12185 0
M  V30 468 H 44.9369 2.71813 2.9482 0
M  V30 469 H 41.5269 3.79176 1.99808 0
M  V30 470 H 45.7109 4.69363 1.61281 0
M  V30 471 H 40.9669 6.01304 1.10648 0
M  V30 472 H 45.1409 6.92566 0.729722 0
M  V30 473 H 42.7679 7.5874 0.470852 0
M  V30 474 N 44.343 -0.763751 1.37857 0
M  V30 475 C 45.273 -1.89103 1.36975 0
M  V30 476 C 46.254 -1.68439 0.237152 0
M  V30 477 O 47.439 -1.8918 0.438713 0
M  V30 478 C 44.569 -3.26496 1.18395 0
M  V30 479 C 43.523 -3.61741 2.28751 0
M  V30 480 C 42.849 -4.97762 1.95286 0
M  V30 481 C 44.149 -3.67665 3.70972 0
M  V30 482 H 45.843 -1.90099 2.31307 0
M  V30 483 H 43.389 -0.91319 1.11341 0
M  V30 484 H 45.342 -4.05003 1.16406 0
M  V30 485 H 44.066 -3.25955 0.205215 0
M  V30 486 H 42.725 -2.85547 2.29909 0
M  V30 487 H 42.373 -4.93769 0.959221 0
M  V30 488 H 42.073 -5.22313 2.69189 0
M  V30 489 H 43.597 -5.7866 1.94898 0
M  V30 490 H 45.011 -4.36307 3.719 0
M  V30 491 H 43.408 -4.03718 4.43995 0
M  V30 492 H 44.478 -2.68134 4.0402 0
M  V30 493 N 45.8211 -1.22559 -0.990812 0
M  V30 494 C 47.0461 -1.07862 -1.77145 0
M  V30 495 C 47.4711 0.366447 -1.84496 0
M  V30 496 O 46.8291 1.26478 -1.29896 0
M  V30 497 C 46.8771 -1.69686 -3.18181 0
M  V30 498 O 45.9811 -0.951946 -4.01263 0
M  V30 499 H 45.3221 -0.378712 -0.545411 0
M  V30 500 H 47.8521 -1.62399 -1.2445 0
M  V30 501 H 47.8621 -1.74496 -3.68802 0
M  V30 502 H 46.5371 -2.74841 -3.12146 0
M  V30 503 H 45.1141 -0.980011 -3.59792 0
M  V30 504 N 47.2992 1.18797 -1.03562 0
M  V30 505 C 48.5762 1.84469 -0.650434 0
M  V30 506 C 48.9562 1.92319 0.870433 0
M  V30 507 O 48.3042 1.44528 1.76986 0
M  V30 508 C 48.5142 3.2306 -1.32036 0
M  V30 509 C 49.8622 3.9915 -1.44792 0
M  V30 510 O 50.8862 3.32481 -1.27806 0
M  V30 511 O 49.7452 5.18587 -1.72423 0
M  V30 512 H 46.8392 0.795251 -0.226946 0
M  V30 513 H 49.3852 1.26231 -1.13419 0
M  V30 514 H 48.1572 3.1222 -2.3587 0
M  V30 515 H 47.7802 3.88949 -0.8249 0
M  V30 516 N 48.7773 0.814389 1.34928 0
M  V30 517 C 49.6873 0.231978 2.3345 0
M  V30 518 C 50.7033 -0.629139 1.62228 0
M  V30 519 O 51.8793 -0.539052 1.94052 0
M  V30 520 C 48.9443 -0.603482 3.41407 0
M  V30 521 C 48.0053 0.279037 4.28392 0
M  V30 522 C 47.2383 -0.516643 5.31193 0
M  V30 523 O 47.4613 -1.75068 5.4287 0
M  V30 524 O 46.3953 0.0965652 6.01823 0
M  V30 525 H 50.2213 1.04721 2.85074 0
M  V30 526 H 47.8063 0.576343 1.37836 0
M  V30 527 H 49.6883 -1.07908 4.0735 0
M  V30 528 H 48.3633 -1.39618 2.92042 0
M  V30 529 H 47.2703 0.801948 3.65403 0
M  V30 530 H 48.6033 1.03588 4.81176 0
M  V30 531 N 50.2554 -1.46986 0.568584 0
M  V30 532 C 51.1654 -2.33942 -0.17555 0
M  V30 533 C 52.1814 -1.48891 -0.90041 0
M  V30 534 O 53.3574 -1.81794 -0.86676 0
M  V30 535 C 50.4224 -3.25811 -1.18524 0
M  V30 536 C 49.4834 -4.26757 -0.466582 0
M  V30 537 C 48.7164 -5.14236 -1.42817 0
M  V30 538 O 48.9394 -5.04379 -2.66379 0
M  V30 539 O 47.8734 -5.94412 -0.946453 0
M  V30 540 H 51.6994 -2.98896 0.538036 0
M  V30 541 H 49.2844 -1.4573 0.329097 0
M  V30 542 H 51.1664 -3.82527 -1.76779 0
M  V30 543 H 49.8414 -2.63471 -1.88055 0
M  V30 544 H 48.7484 -3.73769 0.157451 0
M  V30 545 H 50.0814 -4.91843 0.187485 0
M  V30 546 N 51.7335 -0.305618 -1.54608 0
M  V30 547 C 52.6815 0.584119 -2.25146 0
M  V30 548 C 53.6755 1.13326 -1.25911 0
M  V30 549 O 54.8815 1.08337 -1.43747 0
M  V30 550 H 51.2565 0.206983 -0.722954 0
M  V30 551 H 53.2275 -0.033291 -2.98381 0
M  V30 552 C 51.9765 1.74225 -3.009 0
M  V30 553 H 51.2995 1.32892 -3.77067 0
M  V30 554 H 52.7395 2.34077 -3.53531 0
M  V30 555 C 51.1985 2.64914 -2.0814 0
M  V30 556 O 51.7285 3.66137 -1.65246 0
M  V30 557 N 49.9345 2.3275 -1.74 0
M  V30 558 H 49.4815 1.50479 -2.09078 0
M  V30 559 H 49.4395 2.93694 -1.12211 0
M  V30 560 N 53.2116 1.57565 -0.0334293 0
M  V30 561 C 54.1416 2.13511 0.945265 0
M  V30 562 C 55.1226 1.05231 1.33643 0
M  V30 563 O 56.3076 1.33084 1.41429 0
M  V30 564 C 53.4376 2.6657 2.22616 0
M  V30 565 C 52.3916 3.79676 1.97561 0
M  V30 566 C 51.7176 4.1918 3.31952 0
M  V30 567 C 53.0176 5.0557 1.31135 0
M  V30 568 H 54.7116 2.95538 0.479325 0
M  V30 569 H 52.2576 1.42166 0.229115 0
M  V30 570 H 54.2106 3.04344 2.91466 0
M  V30 571 H 52.9346 1.8171 2.71384 0
M  V30 572 H 51.5936 3.42347 1.31127 0
M  V30 573 H 51.2416 3.31296 3.78487 0
M  V30 574 H 50.9416 4.95402 3.15992 0
M  V30 575 H 52.4656 4.59541 4.02063 0
M  V30 576 H 53.8796 5.40903 1.89992 0
M  V30 577 H 52.2766 5.86818 1.25559 0
M  V30 578 H 53.3466 4.84062 0.284894 0
M  V30 579 N 54.6897 -0.239769 1.55765 0
M  V30 580 C 55.6367 -1.29696 1.90913 0
M  V30 581 C 56.6067 -1.47478 0.764164 0
M  V30 582 O 57.7917 -1.61345 1.01845 0
M  V30 583 C 54.9317 -2.64598 2.21544 0
M  V30 584 C 54.0447 -2.54765 3.48882 0
M  V30 585 C 53.1797 -3.82069 3.69049 0
M  V30 586 C 52.2187 -3.66883 4.89963 0
M  V30 587 N 51.3557 -4.86094 5.06614 0
M  V30 588 H 56.1957 -0.990224 2.81067 0
M  V30 589 H 53.7327 -0.477684 1.39128 0
M  V30 590 H 55.6907 -3.43132 2.3731 0
M  V30 591 H 54.3207 -2.93405 1.34585 0
M  V30 592 H 53.3727 -1.67763 3.41409 0
M  V30 593 H 54.6847 -2.39457 4.37563 0
M  V30 594 H 53.8387 -4.69046 3.84812 0
M  V30 595 H 52.5777 -4.00282 2.78614 0
M  V30 596 H 51.5827 -2.78289 4.74168 0
M  V30 597 H 52.8077 -3.50157 5.81865 0
M  V30 598 H 50.7537 -5.04655 4.19117 0
M  V30 599 H 50.6707 -4.73443 5.89396 0
M  V30 600 H 51.9387 -5.74549 5.26795 0
M  V30 601 N 56.1678 -1.49265 -0.50573 0
M  V30 602 C 57.0978 -1.68495 -1.61653 0
M  V30 603 C 58.0788 -0.53366 -1.61512 0
M  V30 604 O 59.2638 -0.76897 -1.78327 0
M  V30 605 C 56.3938 -1.74709 -3.00157 0
M  V30 606 C 55.3478 -2.89581 -3.15162 0
M  V30 607 C 54.6738 -2.80903 -4.5497 0
M  V30 608 C 55.9738 -4.30578 -2.95634 0
M  V30 609 H 57.6678 -2.61493 -1.45814 0
M  V30 610 H 55.2138 -1.25838 -0.70005 0
M  V30 611 H 57.1668 -1.86748 -3.77761 0
M  V30 612 H 55.8908 -0.783067 -3.17074 0
M  V30 613 H 54.5498 -2.77136 -2.39982 0
M  V30 614 H 54.1978 -1.82419 -4.68756 0
M  V30 615 H 53.8978 -3.57999 -4.65951 0
M  V30 616 H 55.4218 -2.94944 -5.34641 0
M  V30 617 H 56.8358 -4.4373 -3.63011 0
M  V30 618 H 55.2328 -5.0886 -3.18091 0
M  V30 619 H 56.3028 -4.45352 -1.91806 0
M  V30 620 N 57.6459 0.756429 -1.3826 0
M  V30 621 C 58.8929 1.51547 -1.34312 0
M  V30 622 C 59.2209 1.94382 0.0677144 0
M  V30 623 O 58.4759 1.65514 1.04421 0
M  V30 624 C 58.7749 2.78313 -2.24224 0
M  V30 625 C 58.4409 2.54455 -3.72241 0
M  V30 626 C 57.1029 2.47657 -4.12576 0
M  V30 627 C 59.4549 2.3354 -4.65949 0
M  V30 628 C 56.7829 2.17956 -5.44713 0
M  V30 629 C 59.1349 2.05359 -5.9834 0
M  V30 630 C 57.7989 1.97016 -6.37762 0
M  V30 631 H 57.0689 0.55455 -0.491482 0
M  V30 632 H 59.7159 0.870039 -1.70595 0
M  V30 633 H 58.0209 3.47492 -1.80987 0
M  V30 634 H 59.7179 3.36259 -2.18474 0
M  V30 635 H 56.3079 2.60616 -3.40261 0
M  V30 636 H 60.4919 2.37772 -4.35635 0
M  V30 637 H 55.7479 2.10003 -5.74203 0
M  V30 638 H 59.9219 1.88179 -6.70494 0
M  V30 639 H 57.5489 1.73766 -7.40074 0
M  V30 640 N 59.124 1.23083 0.984299 0
M  V30 641 C 60.372 1.05848 1.72165 0
M  V30 642 C 60.693 -0.406049 1.90726 0
M  V30 643 O 59.963 -1.29139 1.47309 0
M  V30 644 H 58.543 0.388685 0.637913 0
M  V30 645 H 61.205 1.54736 1.18503 0
M  V30 646 H 60.301 1.54327 2.71274 0
M  V30 647 N 60.6021 -1.18246 1.0419 0
M  V30 648 C 61.5491 -2.2192 0.634037 0
M  V30 649 C 62.5191 -1.62179 -0.358765 0
M  V30 650 O 63.7041 -1.89122 -0.252466 0
M  V30 651 C 60.8441 -3.451 0.00445535 0
M  V30 652 C 59.9571 -4.19174 1.04487 0
M  V30 653 C 59.0921 -5.29813 0.383676 0
M  V30 654 C 58.1311 -5.9566 1.4091 0
M  V30 655 N 57.2681 -6.97834 0.772784 0
M  V30 656 H 62.1081 -2.56164 1.52263 0
M  V30 657 H 59.6451 -1.25843 0.761701 0
M  V30 658 H 61.6031 -4.15485 -0.377919 0
M  V30 659 H 60.2331 -3.11472 -0.847652 0
M  V30 660 H 59.2851 -3.47604 1.54518 0
M  V30 661 H 60.5971 -4.64267 1.82368 0
M  V30 662 H 59.7511 -6.06677 -0.0528366 0
M  V30 663 H 58.4901 -4.85825 -0.427208 0
M  V30 664 H 57.4951 -5.17535 1.85574 0
M  V30 665 H 58.7201 -6.4173 2.22171 0
M  V30 666 H 56.6661 -6.55998 -0.0177708 0
M  V30 667 H 56.5831 -7.41186 1.48928 0
M  V30 668 H 57.8511 -7.78665 0.36071 0
M  V30 669 N 62.0802 -0.821533 -1.34494 0
M  V30 670 C 63.3202 -0.414785 -2.00147 0
M  V30 671 C 63.6842 1.00299 -1.6372 0
M  V30 672 O 64.8852 1.51255 -2.22206 0
M  V30 673 C 63.1562 -0.609403 -3.52166 0
M  V30 674 S 64.7152 -0.295297 -4.37805 0
M  V30 675 H 61.5332 -0.15679 -0.693497 0
M  V30 676 H 64.1352 -1.06705 -1.63812 0
M  V30 677 H 62.8392 -1.64096 -3.76166 0
M  V30 678 H 62.3702 0.0576414 -3.93358 0
M  V30 679 H 64.3852 0.891531 -4.88125 0
M  V30 680 N 63.5583 1.46682 -0.576371 0
M  V30 681 C 64.5063 2.31953 0.17335 0
M  V30 682 C 65.5003 1.44098 0.89062 0
M  V30 683 O 66.7063 1.60759 0.809728 0
M  V30 684 H 63.0813 0.748273 0.0747727 0
M  V30 685 H 65.0523 2.93007 -0.564738 0
M  V30 686 C 63.8013 3.27142 1.17786 0
M  V30 687 H 63.1243 3.94719 0.635361 0
M  V30 688 H 64.5643 3.896 1.67296 0
M  V30 689 C 63.0233 2.52036 2.23561 0
M  V30 690 O 63.5533 2.27877 3.3081 0
M  V30 691 N 61.7593 2.12709 1.97998 0
M  V30 692 H 61.3063 2.32557 1.10792 0
M  V30 693 H 61.2643 1.62776 2.68982 0
M  V30 694 N 65.0364 0.313813 1.54444 0
M  V30 695 C 65.9844 -0.572171 2.25453 0
M  V30 696 C 66.9784 -1.12657 1.2651 0
M  V30 697 O 68.1844 -1.07573 1.44319 0
M  V30 698 H 64.5594 -0.203146 0.724041 0
M  V30 699 H 66.5304 0.0491145 2.9836 0
M  V30 700 C 65.2794 -1.72626 3.0182 0
M  V30 701 H 64.6024 -1.30891 3.77767 0
M  V30 702 H 66.0424 -2.32199 3.54767 0
M  V30 703 C 64.5014 -2.63806 2.09542 0
M  V30 704 O 65.0314 -3.65256 1.67185 0
M  V30 705 N 63.2374 -2.31824 1.75232 0
M  V30 706 H 62.7844 -1.49368 2.09873 0
M  V30 707 H 62.7424 -2.93095 1.13767 0
M  V30 708 N 66.5145 -1.57545 0.0417849 0
M  V30 709 C 67.9255 -1.80011 -0.495259 0
M  V30 710 C 68.2765 -0.953199 -1.71489 0
M  V30 711 O 67.4015 -0.167138 -2.15754 0
M  V30 712 C 67.9965 -3.26482 -0.905265 0
M  V30 713 C 66.5555 -3.499 -1.38734 0
M  V30 714 C 65.7025 -2.74979 -0.358056 0
M  V30 715 H 68.6535 -1.56425 0.267736 0
M  V30 716 H 68.6745 -3.36887 -1.76882 0
M  V30 717 H 68.1865 -3.88096 -0.017401 0
M  V30 718 H 66.2875 -2.93553 -2.29471 0
M  V30 719 H 66.4005 -4.58615 -1.38598 0
M  V30 720 H 64.7645 -2.40834 -0.828912 0
M  V30 721 H 65.5475 -3.39315 0.521561 0
M  V30 722 N 67.9926 0.231505 -1.5589 0
M  V30 723 C 68.9406 1.30649 -1.92441 0
M  V30 724 C 69.9346 1.49037 -0.805254 0
M  V30 725 O 71.1406 1.50329 -0.990007 0
M  V30 726 H 67.5156 0.437812 -0.611412 0
M  V30 727 H 69.4866 0.970973 -2.82161 0
M  V30 728 C 68.2356 2.65179 -2.24889 0
M  V30 729 H 67.5586 2.51835 -3.10514 0
M  V30 730 H 68.9986 3.39234 -2.54355 0
M  V30 731 C 67.4576 3.19439 -1.07054 0
M  V30 732 O 67.9876 4.00371 -0.326499 0
M  V30 733 N 66.1936 2.77675 -0.85703 0
M  V30 734 H 65.7406 2.11969 -1.46379 0
M  V30 735 H 65.6986 3.14321 -0.0703223 0
M  V30 736 N 69.4707 1.49531 0.497807 0
M  V30 737 C 70.7187 1.58865 1.24926 0
M  V30 738 C 71.0397 0.278721 1.92998 0
M  V30 739 O 70.3097 -0.702144 1.82885 0
M  V30 740 H 68.8897 0.585343 0.464094 0
M  V30 741 H 71.5517 1.86174 0.57666 0
M  V30 742 H 70.6477 2.38633 2.01149 0
M  V30 743 N 70.9488 -0.749086 1.3866 0
M  V30 744 C 71.8988 -1.85368 1.32751 0
M  V30 745 C 72.8828 -1.59511 0.210945 0
M  V30 746 O 74.0748 -1.71255 0.447299 0
M  V30 747 C 71.2038 -3.23131 1.15935 0
M  V30 748 C 70.2898 -3.54864 2.32233 0
M  V30 749 N 70.6808 -3.57625 3.57684 0
M  V30 750 C 68.9788 -3.85154 2.24883 0
M  V30 751 C 69.6798 -3.86753 4.34508 0
M  V30 752 N 68.6558 -4.03812 3.63918 0
M  V30 753 H 72.4578 -1.85787 2.27729 0
M  V30 754 H 69.9718 -0.946658 1.31955 0
M  V30 755 H 71.9688 -4.02185 1.09786 0
M  V30 756 H 70.6288 -3.23961 0.218947 0
M  V30 757 H 71.6398 -3.39276 3.91295 0
M  V30 758 H 68.3168 -3.93672 1.39027 0
M  V30 759 H 69.7068 -3.95474 5.43185 0
M  V30 760 N 72.4269 -1.23603 -0.977757 0
M  V30 761 C 73.6749 -1.06759 -1.71601 0
M  V30 762 C 73.9959 0.395929 -1.90938 0
M  V30 763 O 73.2659 1.28356 -1.47992 0
M  V30 764 H 71.8459 -0.392062 -0.635843 0
M  V30 765 H 74.5079 -1.55362 -1.1768 0
M  V30 766 H 73.6039 -1.55763 -2.70452 0
M  V30 767 N 73.905 1.17692 -1.04816 0
M  V30 768 C 74.855 2.1952 -0.616042 0
M  V30 769 C 75.839 1.57147 0.345485 0
M  V30 770 O 77.031 1.76245 0.163325 0
M  V30 771 C 74.16 3.43298 0.0116917 0
M  V30 772 C 73.246 4.12777 -0.973435 0
M  V30 773 N 73.637 4.5814 -2.14339 0
M  V30 774 C 71.935 4.38747 -0.80108 0
M  V30 775 C 72.636 5.11713 -2.7663 0
M  V30 776 N 71.612 5.03686 -2.04453 0
M  V30 777 H 75.414 2.52293 -1.5075 0
M  V30 778 H 72.928 1.3398 -0.917776 0
M  V30 779 H 74.925 4.15519 0.339006 0
M  V30 780 H 73.585 3.12018 0.898593 0
M  V30 781 H 74.596 4.52349 -2.52191 0
M  V30 782 H 71.273 4.17485 0.0350934 0
M  V30 783 H 72.663 5.56962 -3.75823 0
M  V30 784 N 75.3831 0.828654 1.34056 0
M  V30 785 C 76.3311 0.242973 2.31327 0
M  V30 786 C 77.3251 -0.61944 1.57668 0
M  V30 787 O 78.5311 -0.51014 1.7262 0
M  V30 788 H 74.9061 0.059834 0.749616 0
M  V30 789 H 76.8771 1.07809 2.78244 0
M  V30 790 C 75.6261 -0.575733 3.429 0
M  V30 791 H 74.9491 0.0785582 3.99723 0
M  V30 792 H 76.3891 -0.951547 4.13185 0
M  V30 793 C 74.8481 -1.75044 2.87856 0
M  V30 794 O 75.3781 -2.84882 2.83205 0
M  V30 795 N 73.5841 -1.56903 2.44602 0
M  V30 796 H 73.1311 -0.675547 2.48584 0
M  V30 797 H 73.0891 -2.35652 2.08124 0
M  V30 798 N 76.8612 -1.46375 0.584142 0
M  V30 799 C 78.0912 -2.06461 0.0758195 0
M  V30 800 C 78.4992 -1.43322 -1.23512 0
M  V30 801 O 77.8422 -0.533216 -1.75791 0
M  V30 802 C 77.9042 -3.59131 -0.162773 0
M  V30 803 C 77.5682 -4.4447 1.06279 0
M  V30 804 C 78.5652 -4.80918 1.97519 0
M  V30 805 C 76.2502 -4.85584 1.28504 0
M  V30 806 C 78.2442 -5.57309 3.09331 0
M  V30 807 C 75.9312 -5.61734 2.4062 0
M  V30 808 C 76.9292 -5.9751 3.30863 0
M  V30 809 O 76.6172 -6.72121 4.41032 0
M  V30 810 H 76.3492 -0.673745 0.0551725 0
M  V30 811 H 78.9032 -1.88969 0.804984 0
M  V30 812 H 77.1332 -3.74936 -0.946565 0
M  V30 813 H 78.8222 -4.0114 -0.619782 0
M  V30 814 H 79.5882 -4.49732 1.81565 0
M  V30 815 H 75.4672 -4.57187 0.591702 0
M  V30 816 H 79.0112 -5.85152 3.79793 0
M  V30 817 H 74.9082 -5.92334 2.56537 0
M  V30 818 H 75.6762 -6.90547 4.39417 0
M  V30 819 N 78.3393 -0.321999 -1.54275 0
M  V30 820 C 79.2863 0.544664 -2.24281 0
M  V30 821 C 80.2563 1.1129 -1.23303 0
M  V30 822 O 81.4413 1.15354 -1.51981 0
M  V30 823 C 78.5813 1.70045 -3.00298 0
M  V30 824 C 77.6943 1.16159 -4.1609 0
M  V30 825 C 76.8293 2.28293 -4.79641 0
M  V30 826 C 75.8683 1.71648 -5.8754 0
M  V30 827 N 75.0053 2.77438 -6.44959 0
M  V30 828 H 79.8453 -0.0588907 -2.97942 0
M  V30 829 H 77.3823 -0.0408345 -1.47043 0
M  V30 830 H 79.3403 2.38054 -3.42616 0
M  V30 831 H 77.9703 2.27531 -2.28975 0
M  V30 832 H 77.0223 0.373092 -3.78566 0
M  V30 833 H 78.3343 0.707087 -4.93763 0
M  V30 834 H 77.4883 3.0421 -5.2492 0
M  V30 835 H 76.2273 2.77079 -4.01346 0
M  V30 836 H 75.2323 0.942282 -5.41665 0
M  V30 837 H 76.4573 1.23741 -6.67731 0
M  V30 838 H 74.4033 3.25519 -5.69538 0
M  V30 839 H 74.3203 2.36547 -7.1804 0
M  V30 840 H 75.5883 3.53189 -6.94894 0
M  V30 841 N 79.8174 1.5752 -0.0501392 0
M  V30 842 C 81.0634 1.92936 0.624798 0
M  V30 843 C 81.3964 0.928685 1.70555 0
M  V30 844 O 80.6714 -0.0454779 1.94447 0
M  V30 845 C 80.9544 3.38737 1.22185 0
M  V30 846 C 80.8074 4.49552 0.149218 0
M  V30 847 C 82.1264 3.84913 2.13378 0
M  V30 848 H 79.2454 0.701604 0.225657 0
M  V30 849 H 81.8874 1.89671 -0.111693 0
M  V30 850 H 80.0374 3.4165 1.84953 0
M  V30 851 H 81.7094 4.58768 -0.482648 0
M  V30 852 H 79.9524 4.30638 -0.522841 0
M  V30 853 H 80.6234 5.48653 0.606966 0
M  V30 854 H 83.0994 3.8387 1.60572 0
M  V30 855 H 81.9754 4.87584 2.52097 0
M  V30 856 H 82.2364 3.21611 3.03346 0
M  V30 857 N 81.2955 -0.223234 1.56011 0
M  V30 858 C 82.5415 -0.949279 1.79211 0
M  V30 859 C 82.8745 -1.84054 0.619494 0
M  V30 860 O 82.1495 -1.90726 -0.381317 0
M  V30 861 C 82.4325 -1.78965 3.12479 0
M  V30 862 C 82.2855 -0.924997 4.40186 0
M  V30 863 C 83.6045 -2.76774 3.42175 0
M  V30 864 H 80.7235 -0.343676 0.651963 0
M  V30 865 H 83.3655 -0.218253 1.88742 0
M  V30 866 H 81.5155 -2.41291 3.04485 0
M  V30 867 H 83.1875 -0.318615 4.60198 0
M  V30 868 H 81.4305 -0.230344 4.33188 0
M  V30 869 H 82.1015 -1.54735 5.29869 0
M  V30 870 H 84.5775 -2.24584 3.50287 0
M  V30 871 H 83.4535 -3.32678 4.36597 0
M  V30 872 H 83.7145 -3.54429 2.64258 0
M  V30 873 N 82.7736 -1.49793 -0.48987 0
M  V30 874 C 84.0196 -1.60078 -1.24511 0
M  V30 875 C 84.3526 -0.291608 -1.91998 0
M  V30 876 O 83.6276 0.705647 -1.81248 0
M  V30 877 C 83.9106 -2.76791 -2.30345 0
M  V30 878 C 83.7636 -4.17535 -1.67286 0
M  V30 879 C 85.0826 -2.89111 -3.31817 0
M  V30 880 H 82.2016 -0.582645 -0.451324 0
M  V30 881 H 84.8436 -1.82117 -0.541612 0
M  V30 882 H 82.9936 -2.5813 -2.90346 0
M  V30 883 H 84.6656 -4.4774 -1.11026 0
M  V30 884 H 82.9086 -4.22665 -0.976577 0
M  V30 885 H 83.5796 -4.95094 -2.44103 0
M  V30 886 H 86.0556 -3.06133 -2.81819 0
M  V30 887 H 84.9316 -3.72433 -4.03219 0
M  V30 888 H 85.1926 -1.9893 -3.94815 0
M  V30 889 N 84.2517 0.741722 -1.39055 0
M  V30 890 C 85.4797 1.53098 -1.39171 0
M  V30 891 C 85.8947 1.88794 0.0155099 0
M  V30 892 O 85.2517 1.53626 0.985159 0
M  V30 893 C 85.3027 2.82274 -2.2584 0
M  V30 894 O 85.0237 2.48097 -3.61081 0
M  V30 895 C 86.5247 3.76343 -2.34266 0
M  V30 896 H 83.7447 0.473335 -0.4756 0
M  V30 897 H 86.2887 0.917045 -1.82785 0
M  V30 898 H 84.4437 3.40015 -1.85656 0
M  V30 899 H 84.8577 3.31029 -4.06842 0
M  V30 900 H 86.3317 4.63898 -2.9917 0
M  V30 901 H 86.8087 4.17619 -1.35982 0
M  V30 902 H 87.4147 3.24523 -2.74891 0
M  V30 903 N 85.7298 1.2412 0.971189 0
M  V30 904 C 86.9758 1.08041 1.71625 0
M  V30 905 C 87.3088 -0.380407 1.90438 0
M  V30 906 O 86.5838 -1.28127 1.46334 0
M  V30 907 C 86.8668 1.81682 3.10908 0
M  V30 908 C 86.7198 3.35493 2.99608 0
M  V30 909 C 88.0388 1.58671 4.10501 0
M  V30 910 H 85.1578 0.39388 0.622919 0
M  V30 911 H 87.7998 1.52743 1.13003 0
M  V30 912 H 85.9498 1.43684 3.60953 0
M  V30 913 H 87.6218 3.83068 2.57015 0
M  V30 914 H 85.8648 3.64052 2.35899 0
M  V30 915 H 86.5358 3.82217 3.98264 0
M  V30 916 H 89.0118 1.91719 3.69301 0
M  V30 917 H 87.8878 2.1266 5.06031 0
M  V30 918 H 88.1488 0.524161 4.38982 0
M  V30 919 N 87.2079 -1.17134 1.05439 0
M  V30 920 C 88.1579 -2.1919 0.627675 0
M  V30 921 C 89.1419 -1.57328 -0.337147 0
M  V30 922 O 90.3339 -1.76329 -0.153976 0
M  V30 923 C 87.4629 -3.43299 0.00651435 0
M  V30 924 C 86.5489 -4.12255 0.995312 0
M  V30 925 N 86.9399 -4.56997 2.16765 0
M  V30 926 C 85.2379 -4.38316 0.824336 0
M  V30 927 C 85.9389 -5.10239 2.7934 0
M  V30 928 N 84.9149 -5.02595 2.07122 0
M  V30 929 H 88.7169 -2.5149 1.52086 0
M  V30 930 H 86.2309 -1.33491 0.924868 0
M  V30 931 H 88.2279 -4.15693 -0.316965 0
M  V30 932 H 86.8879 -3.1249 -0.882033 0
M  V30 933 H 87.8989 -4.51006 2.54587 0
M  V30 934 H 84.5759 -4.17498 -0.0129526 0
M  V30 935 H 85.9659 -5.54961 3.78772 0
M  V30 936 N 88.686 -0.835752 -1.33615 0
M  V30 937 C 89.934 -0.429109 -1.97492 0
M  V30 938 C 90.255 1.01433 -1.66543 0
M  V30 939 O 89.525 1.70611 -0.962744 0
M  V30 940 H 88.105 -0.155686 -0.730596 0
M  V30 941 H 90.767 -1.06802 -1.63031 0
M  V30 942 H 89.863 -0.55861 -3.0706 0
M  V30 943 N 90.1641 1.46063 -0.591896 0
M  V30 944 C 91.0741 2.34192 0.13831 0
M  V30 945 C 92.0901 1.50305 0.876608 0
M  V30 946 O 93.2661 1.8315 0.837728 0
M  V30 947 C 90.3311 3.27656 1.13326 0
M  V30 948 C 89.3921 4.27445 0.39863 0
M  V30 949 C 88.6251 5.16443 1.34618 0
M  V30 950 O 88.8481 5.08553 2.58321 0
M  V30 951 O 87.7821 5.95843 0.851768 0
M  V30 952 H 91.6081 2.98002 -0.58552 0
M  V30 953 H 89.1931 1.45188 -0.352239 0
M  V30 954 H 91.0751 3.85291 1.70671 0
M  V30 955 H 89.7501 2.6643 1.83839 0
M  V30 956 H 88.6571 3.73471 -0.216895 0
M  V30 957 H 89.9901 4.91482 -0.265709 0
M  V30 958 N 91.6422 0.330177 1.54103 0
M  V30 959 C 92.8912 -0.271336 1.99867 0
M  V30 960 C 93.2042 -1.52723 1.22209 0
M  V30 961 O 94.4102 -2.20515 1.58383 0
M  V30 962 C 92.8662 -0.534032 3.55916 0
M  V30 963 C 92.4742 0.705193 4.42415 0
M  V30 964 C 94.2182 -1.09514 4.1013 0
M  V30 965 C 92.1252 0.414035 5.89949 0
M  V30 966 H 91.0552 -0.105166 0.74663 0
M  V30 967 H 93.7062 0.443429 1.78062 0
M  V30 968 H 92.0882 -1.30915 3.73734 0
M  V30 969 H 93.2622 1.4804 4.36372 0
M  V30 970 H 91.5772 1.18698 3.99124 0
M  V30 971 H 94.1742 -1.3277 5.17954 0
M  V30 972 H 94.5172 -2.04656 3.62521 0
M  V30 973 H 95.0502 -0.381038 3.95971 0
M  V30 974 H 91.7892 1.33481 6.41766 0
M  V30 975 H 91.3092 -0.323336 5.98928 0
M  V30 976 H 92.9882 0.0263105 6.46995 0
M  V30 977 N 93.1203 -1.57491 0.0584922 0
M  V30 978 C 94.3973 -1.84346 -0.653918 0
M  V30 979 C 94.7773 -0.948355 -1.88599 0
M  V30 980 O 94.1253 -0.0112403 -2.28497 0
M  V30 981 C 94.3353 -3.34239 -1.00425 0
M  V30 982 C 95.6833 -4.01431 -1.38342 0
M  V30 983 O 96.7073 -3.38907 -1.09637 0
M  V30 984 O 95.5663 -5.11683 -1.91943 0
M  V30 985 H 92.6603 -0.761112 -0.323478 0
M  V30 986 H 95.2063 -1.6947 0.0884125 0
M  V30 987 H 93.9783 -3.91089 -0.128625 0
M  V30 988 H 93.6013 -3.54329 -1.80378 0
M  V30 989 N 94.5984 0.214957 -1.56127 0
M  V30 990 C 96.0094 0.781386 -1.69562 0
M  V30 991 C 96.3604 1.84707 -0.66165 0
M  V30 992 O 95.4854 2.156 0.185927 0
M  V30 993 C 96.0804 1.42411 -3.07416 0
M  V30 994 C 94.6394 1.93786 -3.22683 0
M  V30 995 C 93.7864 0.800438 -2.65496 0
M  V30 996 H 96.7374 -0.00980633 -1.58697 0
M  V30 997 H 96.7584 2.29309 -3.0364 0
M  V30 998 H 96.2704 0.64826 -3.82648 0
M  V30 999 H 94.3714 2.74152 -2.52332 0
M  V30 1000 H 94.4844 2.1133 -4.29973 0
M  V30 1001 H 92.8484 1.2095 -2.2415 0
M  V30 1002 H 93.6314 0.0371471 -3.4328 0
M  V30 1003 N 96.0765 1.50051 0.48192 0
M  V30 1004 C 97.0395 1.67584 1.5636 0
M  V30 1005 C 98.0395 0.546894 1.51214 0
M  V30 1006 O 99.2295 0.813725 1.54026 0
M  V30 1007 C 96.3615 1.691 2.96003 0
M  V30 1008 H 97.5545 2.64078 1.42136 0
M  V30 1009 H 95.1075 1.39369 0.707533 0
M  V30 1010 H 95.8425 0.742589 3.15684 0
M  V30 1011 H 95.6275 2.51105 3.01146 0
M  V30 1012 H 97.1175 1.84656 3.74556 0
M  V30 1013 N 97.5546 -0.734337 1.39446 0
M  V30 1014 C 98.7826 -1.52358 1.39981 0
M  V30 1015 C 99.1976 -1.88799 -0.0054975 0
M  V30 1016 O 98.5546 -1.54146 -0.976998 0
M  V30 1017 C 98.6056 -2.81072 2.27333 0
M  V30 1018 O 98.3266 -2.46178 3.62392 0
M  V30 1019 C 99.8276 -3.75096 2.36259 0
M  V30 1020 H 97.0476 -0.470806 0.478103 0
M  V30 1021 H 99.5916 -0.907339 1.83269 0
M  V30 1022 H 97.7466 -3.39026 1.87457 0
M  V30 1023 H 98.1606 -3.28866 4.08592 0
M  V30 1024 H 99.6346 -4.62305 3.01626 0
M  V30 1025 H 100.112 -4.16892 1.38194 0
M  V30 1026 H 100.718 -3.23061 2.76608 0
M  V30 1027 N 99.0327 -1.24633 -0.964593 0
M  V30 1028 C 100.281 -1.08573 -1.70459 0
M  V30 1029 C 100.602 0.375655 -1.91347 0
M  V30 1030 O 99.8717 1.26779 -1.49345 0
M  V30 1031 H 98.4517 -0.398784 -0.631649 0
M  V30 1032 H 101.114 -1.56601 -1.16026 0
M  V30 1033 H 100.21 -1.58623 -2.68785 0
M  V30 1034 N 100.511 1.16574 -1.06058 0
M  V30 1035 C 101.444 2.19798 -0.61352 0
M  V30 1036 C 102.422 1.58509 0.362453 0
M  V30 1037 O 103.606 1.86527 0.271994 0
M  V30 1038 C 100.733 3.3855 0.100915 0
M  V30 1039 C 99.7788 4.18317 -0.831438 0
M  V30 1040 S 100.612 4.82375 -2.32539 0
M  V30 1041 C 101.768 6.04508 -1.62238 0
M  V30 1042 H 102.001 2.5738 -1.48805 0
M  V30 1043 H 99.5338 1.27327 -0.873338 0
M  V30 1044 H 101.492 4.07358 0.506898 0
M  V30 1045 H 100.153 2.99338 0.951604 0
M  V30 1046 H 99.3458 5.03232 -0.278071 0
M  V30 1047 H 98.9478 3.5499 -1.17719 0
M  V30 1048 H 101.24 6.71133 -0.926622 0
M  V30 1049 H 102.183 6.64389 -2.44934 0
M  V30 1050 H 102.591 5.53559 -1.106 0
M  V30 1051 N 101.989 0.842826 1.3317 0
M  V30 1052 C 103.235 0.441099 1.97945 0
M  V30 1053 C 103.568 -0.998024 1.66593 0
M  V30 1054 O 102.843 -1.69839 0.947898 0
M  V30 1055 C 103.126 0.666841 3.53872 0
M  V30 1056 C 102.979 2.15352 3.94897 0
M  V30 1057 C 104.298 0.115544 4.39948 0
M  V30 1058 H 101.417 0.161739 0.719034 0
M  V30 1059 H 104.059 1.05907 1.57746 0
M  V30 1060 H 102.209 0.140828 3.88245 0
M  V30 1061 H 103.881 2.7447 3.70761 0
M  V30 1062 H 102.124 2.63653 3.44484 0
M  V30 1063 H 102.795 2.26221 5.03516 0
M  V30 1064 H 105.271 0.565213 4.12243 0
M  V30 1065 H 104.147 0.303152 5.48062 0
M  V30 1066 H 104.408 -0.980935 4.3108 0
M  V30 1067 N 103.467 -1.45747 0.599634 0
M  V30 1068 C 104.4 -2.27547 -0.172552 0
M  V30 1069 C 105.378 -1.36657 -0.881116 0
M  V30 1070 O 106.562 -1.66081 -0.891595 0
M  V30 1071 C 103.689 -3.14829 -1.24903 0
M  V30 1072 C 102.735 -4.21603 -0.644465 0
M  V30 1073 S 103.568 -5.32754 0.541606 0
M  V30 1074 C 104.724 -6.23604 -0.535656 0
M  V30 1075 H 104.957 -2.92691 0.521468 0
M  V30 1076 H 102.49 -1.49473 0.386947 0
M  V30 1077 H 104.448 -3.65675 -1.86527 0
M  V30 1078 H 103.109 -2.48965 -1.91508 0
M  V30 1079 H 102.302 -4.82566 -1.45417 0
M  V30 1080 H 101.904 -3.73857 -0.103534 0
M  V30 1081 H 104.196 -6.62519 -1.41686 0
M  V30 1082 H 105.139 -7.0809 0.0376246 0
M  V30 1083 H 105.547 -5.58103 -0.84741 0
M  V30 1084 N 104.945 -0.338344 -1.53925 0
M  V30 1085 C 105.893 0.536231 -2.26335 0
M  V30 1086 C 106.887 1.1063 -1.28286 0
M  V30 1087 O 108.093 1.05264 -1.46012 0
M  V30 1088 H 104.468 0.191602 -0.727181 0
M  V30 1089 H 106.439 -0.0965747 -2.98244 0
M  V30 1090 C 105.188 1.67803 -3.04528 0
M  V30 1091 H 104.511 1.24864 -3.79801 0
M  V30 1092 H 105.951 2.26526 -3.58416 0
M  V30 1093 C 104.41 2.60439 -2.13712 0
M  V30 1094 O 104.94 3.6255 -1.72975 0
M  V30 1095 N 103.146 2.29006 -1.78898 0
M  V30 1096 H 102.693 1.46011 -2.12223 0
M  V30 1097 H 102.651 2.91248 -1.18416 0
M  V30 1098 N 106.423 1.57458 -0.0668435 0
M  V30 1099 C 107.353 2.15468 0.899764 0
M  V30 1100 C 108.334 1.08042 1.31381 0
M  V30 1101 O 109.519 1.36054 1.38574 0
M  V30 1102 C 106.649 2.71232 2.16911 0
M  V30 1103 C 105.603 3.83781 1.89463 0
M  V30 1104 C 104.929 4.26127 3.22986 0
M  V30 1105 C 106.229 5.08238 1.20381 0
M  V30 1106 H 107.923 2.96488 0.416529 0
M  V30 1107 H 105.469 1.4262 0.198908 0
M  V30 1108 H 107.422 3.10458 2.84945 0
M  V30 1109 H 106.146 1.87426 2.67468 0
M  V30 1110 H 104.805 3.45051 1.23836 0
M  V30 1111 H 104.453 3.39249 3.71374 0
M  V30 1112 H 104.153 5.01993 3.05413 0
M  V30 1113 H 105.677 4.67966 3.92225 0
M  V30 1114 H 107.091 5.44811 1.78475 0
M  V30 1115 H 105.488 5.89349 1.13083 0
M  V30 1116 H 106.558 4.84558 0.182153 0
M  V30 1117 N 107.901 -0.206675 1.56239 0
M  V30 1118 C 108.864 -1.23976 1.92776 0
M  V30 1119 C 109.864 -1.39041 0.807729 0
M  V30 1120 O 111.054 -1.37051 1.0753 0
M  V30 1121 C 108.186 -2.61112 2.19165 0
M  V30 1122 H 109.379 -0.927764 2.85189 0
M  V30 1123 H 106.932 -0.447718 1.4975 0
M  V30 1124 H 107.667 -2.97386 1.29352 0
M  V30 1125 H 107.452 -2.51552 3.00772 0
M  V30 1126 H 108.942 -3.35633 2.48476 0
M  V30 1127 N 109.379 -1.50304 -0.473955 0
M  V30 1128 C 110.656 -1.51667 -1.23518 0
M  V30 1129 C 111.036 -0.259701 -2.09496 0
M  V30 1130 O 110.384 0.756986 -2.15597 0
M  V30 1131 C 110.594 -2.81082 -2.06868 0
M  V30 1132 C 111.942 -3.31631 -2.65153 0
M  V30 1133 O 112.966 -2.82384 -2.17113 0
M  V30 1134 O 111.825 -4.17471 -3.52675 0
M  V30 1135 H 108.919 -0.60822 -0.560355 0
M  V30 1136 H 111.465 -1.62592 -0.486011 0
M  V30 1137 H 110.237 -3.64041 -1.4349 0
M  V30 1138 H 109.86 -2.73146 -2.88924 0
M  V30 1139 N 110.857 0.726932 -1.39834 0
M  V30 1140 C 111.787 1.85405 -1.41941 0
M  V30 1141 C 112.768 1.67751 -0.281728 0
M  V30 1142 O 113.953 1.8795 -0.488717 0
M  V30 1143 C 111.083 3.23243 -1.2701 0
M  V30 1144 C 110.037 3.55549 -2.38262 0
M  V30 1145 C 109.363 4.9241 -2.08415 0
M  V30 1146 C 110.663 3.577 -3.80589 0
M  V30 1147 H 112.357 1.83899 -2.36266 0
M  V30 1148 H 109.903 0.883349 -1.13723 0
M  V30 1149 H 111.856 4.01775 -1.27103 0
M  V30 1150 H 110.58 3.25296 -0.291564 0
M  V30 1151 H 109.239 2.79351 -2.37399 0
M  V30 1152 H 108.887 4.91052 -1.0898 0
M  V30 1153 H 108.587 5.14992 -2.82943 0
M  V30 1154 H 110.111 5.73289 -2.10171 0
M  V30 1155 H 111.525 4.26293 -3.83337 0
M  V30 1156 H 109.922 3.91804 -4.54543 0
M  V30 1157 H 110.992 2.57328 -4.10987 0
M  V30 1158 N 112.336 1.25143 0.95797 0
M  V30 1159 C 113.283 1.05235 2.05412 0
M  V30 1160 C 114.253 -0.0374561 1.66058 0
M  V30 1161 O 115.438 0.119073 1.90428 0
M  V30 1162 C 112.578 0.673589 3.38462 0
M  V30 1163 C 111.691 1.8379 3.90954 0
M  V30 1164 C 110.826 1.40381 5.12315 0
M  V30 1165 C 109.865 2.53746 5.57027 0
M  V30 1166 N 109.002 2.11136 6.69601 0
M  V30 1167 H 113.842 1.99048 2.21774 0
M  V30 1168 H 111.379 0.991277 1.08683 0
M  V30 1169 H 113.337 0.434964 4.14926 0
M  V30 1170 H 111.967 -0.227554 3.21997 0
M  V30 1171 H 111.019 2.18992 3.11041 0
M  V30 1172 H 112.331 2.68937 4.20089 0
M  V30 1173 H 111.485 1.12464 5.96185 0
M  V30 1174 H 110.224 0.523015 4.84887 0
M  V30 1175 H 109.229 2.82412 4.71724 0
M  V30 1176 H 110.454 3.42398 5.86464 0
M  V30 1177 H 108.4 1.25468 6.4389 0
M  V30 1178 H 108.317 2.89832 6.98236 0
M  V30 1179 H 109.585 1.86385 7.56889 0
M  V30 1180 N 113.814 -1.1601 1.06675 0
M  V30 1181 C 114.761 -2.20525 0.680967 0
M  V30 1182 C 115.731 -1.62904 -0.324283 0
M  V30 1183 O 116.916 -1.89615 -0.212294 0
M  V30 1184 C 114.056 -3.45013 0.0776551 0
M  V30 1185 C 113.169 -4.16863 1.13355 0
M  V30 1186 C 112.304 -5.2888 0.49597 0
M  V30 1187 C 111.343 -5.92537 1.53513 0
M  V30 1188 N 110.48 -6.96038 0.920631 0
M  V30 1189 H 115.32 -2.52876 1.57663 0
M  V30 1190 H 112.857 -1.24199 0.788223 0
M  V30 1191 H 114.815 -4.16193 -0.289704 0
M  V30 1192 H 113.445 -3.132 -0.781393 0
M  V30 1193 H 112.497 -3.44248 1.61857 0
M  V30 1194 H 113.809 -4.60294 1.92174 0
M  V30 1195 H 112.963 -6.06653 0.0758604 0
M  V30 1196 H 111.702 -4.86622 -0.324062 0
M  V30 1197 H 110.707 -5.13482 1.9651 0
M  V30 1198 H 111.932 -6.36873 2.35733 0
M  V30 1199 H 109.878 -6.55888 0.12138 0
M  V30 1200 H 109.795 -7.3786 1.64616 0
M  V30 1201 H 111.063 -7.77725 0.525795 0
M  V30 1202 N 115.292 -0.849877 -1.32721 0
M  V30 1203 C 116.522 -0.46408 -2.0132 0
M  V30 1204 C 116.93 0.94246 -1.64056 0
M  V30 1205 O 116.273 1.6257 -0.855379 0
M  V30 1206 C 116.335 -0.517887 -3.5575 0
M  V30 1207 C 115.999 -1.88248 -4.16427 0
M  V30 1208 C 116.996 -2.84726 -4.35002 0
M  V30 1209 C 114.681 -2.17832 -4.52609 0
M  V30 1210 C 116.675 -4.08945 -4.8892 0
M  V30 1211 C 114.362 -3.42304 -5.06232 0
M  V30 1212 C 115.36 -4.37677 -5.24335 0
M  V30 1213 O 115.048 -5.59946 -5.76815 0
M  V30 1214 H 114.78 -0.181327 -0.651227 0
M  V30 1215 H 117.334 -1.14713 -1.70382 0
M  V30 1216 H 115.564 0.221997 -3.86062 0
M  V30 1217 H 117.253 -0.148366 -4.05629 0
M  V30 1218 H 118.019 -2.63174 -4.07388 0
M  V30 1219 H 113.898 -1.44385 -4.37806 0
M  V30 1220 H 117.442 -4.83396 -5.02966 0
M  V30 1221 H 113.339 -3.63709 -5.33278 0
M  V30 1222 H 114.107 -5.61838 -5.95214 0
M  V30 1223 N 116.77 1.45427 -0.607355 0
M  V30 1224 C 117.703 2.27635 0.160482 0
M  V30 1225 C 118.681 1.37122 0.873857 0
M  V30 1226 O 119.865 1.66551 0.882775 0
M  V30 1227 C 116.992 3.15486 1.23231 0
M  V30 1228 C 116.038 4.21939 0.622097 0
M  V30 1229 S 116.871 5.32459 -0.569852 0
M  V30 1230 C 118.027 6.23879 0.502577 0
M  V30 1231 H 118.26 2.9241 -0.536983 0
M  V30 1232 H 115.793 1.49265 -0.394868 0
M  V30 1233 H 117.751 3.66659 1.84585 0
M  V30 1234 H 116.412 2.49977 1.90185 0
M  V30 1235 H 115.605 4.8333 1.42856 0
M  V30 1236 H 115.207 3.73906 0.0837063 0
M  V30 1237 H 117.499 6.63261 1.38171 0
M  V30 1238 H 118.442 7.0806 -0.0751759 0
M  V30 1239 H 118.85 5.58545 0.8178 0
M  V30 1240 N 118.248 0.346503 1.53744 0
M  V30 1241 C 119.158 -0.517293 2.28826 0
M  V30 1242 C 120.174 -1.10935 1.3405 0
M  V30 1243 O 121.35 -1.1244 1.6709 0
M  V30 1244 C 118.415 -1.65098 3.04866 0
M  V30 1245 C 117.476 -1.0884 4.15274 0
M  V30 1246 C 116.709 -2.16806 4.87679 0
M  V30 1247 O 116.932 -3.3758 4.59778 0
M  V30 1248 O 115.866 -1.80934 5.74061 0
M  V30 1249 H 119.692 0.0931396 3.03557 0
M  V30 1250 H 117.277 0.111458 1.48984 0
M  V30 1251 H 119.159 -2.31053 3.5241 0
M  V30 1252 H 117.834 -2.24717 2.32989 0
M  V30 1253 H 116.741 -0.3933 3.72027 0
M  V30 1254 H 118.074 -0.537036 4.89261 0
M  V30 1255 N 119.726 -1.57421 0.075193 0
M  V30 1256 C 120.636 -2.1642 -0.905511 0
M  V30 1257 C 121.652 -1.12828 -1.32461 0
M  V30 1258 O 122.828 -1.45109 -1.39661 0
M  V30 1259 C 119.893 -2.71693 -2.15369 0
M  V30 1260 C 118.954 -3.90171 -1.79068 0
M  V30 1261 C 118.187 -4.42798 -2.97936 0
M  V30 1262 O 118.41 -3.94416 -4.12058 0
M  V30 1263 O 117.344 -5.34085 -2.77555 0
M  V30 1264 H 121.17 -3.00588 -0.433626 0
M  V30 1265 H 118.755 -1.48664 -0.148067 0
M  V30 1266 H 120.637 -3.07104 -2.88557 0
M  V30 1267 H 119.312 -1.90582 -2.61649 0
M  V30 1268 H 118.219 -3.59606 -1.03122 0
M  V30 1269 H 119.552 -4.72584 -1.37569 0
M  V30 1270 N 121.204 0.198386 -1.56346 0
M  V30 1271 C 122.167 1.22952 -1.93431 0
M  V30 1272 C 123.167 1.38611 -0.815092 0
M  V30 1273 O 124.357 1.36479 -1.08255 0
M  V30 1274 C 121.489 2.59946 -2.20546 0
M  V30 1275 H 122.682 0.912626 -2.85677 0
M  V30 1276 H 120.235 0.43977 -1.49986 0
M  V30 1277 H 120.97 2.96696 -1.30927 0
M  V30 1278 H 120.755 2.49953 -3.02102 0
M  V30 1279 H 122.245 3.3431 -2.50253 0
M  V30 1280 N 122.682 1.50554 0.465978 0
M  V30 1281 C 123.931 1.61038 1.21448 0
M  V30 1282 C 124.244 0.31865 1.92987 0
M  V30 1283 O 125.45 0.302469 2.6981 0
M  V30 1284 C 123.906 2.84283 2.20706 0
M  V30 1285 C 123.514 4.20352 1.54946 0
M  V30 1286 C 125.258 3.04115 2.96166 0
M  V30 1287 C 123.165 5.34778 2.5252 0
M  V30 1288 H 122.095 0.599718 0.457005 0
M  V30 1289 H 124.746 1.7699 0.484424 0
M  V30 1290 H 123.128 2.61901 2.97025 0
M  V30 1291 H 124.302 4.53008 0.843811 0
M  V30 1292 H 122.617 4.06167 0.917475 0
M  V30 1293 H 125.214 3.86774 3.69202 0
M  V30 1294 H 125.557 2.16045 3.55852 0
M  V30 1295 H 126.09 3.26702 2.26959 0
M  V30 1296 H 122.829 6.25018 1.97566 0
M  V30 1297 H 122.349 5.06534 3.21222 0
M  V30 1298 H 124.028 5.65561 3.14245 0
M  V30 1299 N 124.16 -0.719506 1.40217 0
M  V30 1300 C 125.093 -1.84298 1.34571 0
M  V30 1301 C 126.071 -1.61149 0.216741 0
M  V30 1302 O 127.255 -1.84212 0.399756 0
M  V30 1303 C 124.382 -3.20568 1.09335 0
M  V30 1304 C 123.428 -3.62551 2.24631 0
M  V30 1305 S 124.261 -3.7012 3.87004 0
M  V30 1306 C 125.417 -5.09154 3.64024 0
M  V30 1307 H 125.65 -1.88807 2.2965 0
M  V30 1308 H 123.183 -0.885901 1.26456 0
M  V30 1309 H 125.141 -3.99246 0.954602 0
M  V30 1310 H 123.802 -3.13696 0.159164 0
M  V30 1311 H 122.995 -4.61483 2.02606 0
M  V30 1312 H 122.597 -2.91119 2.34789 0
M  V30 1313 H 124.889 -5.95955 3.22248 0
M  V30 1314 H 125.832 -5.36213 4.62473 0
M  V30 1315 H 126.24 -4.79562 2.97793 0
M  V30 1316 N 125.638 -1.25649 -0.95132 0
M  V30 1317 C 126.57 -1.02112 -2.05197 0
M  V30 1318 C 127.583 0.0150571 -1.62793 0
M  V30 1319 O 128.772 -0.223874 -1.77091 0
M  V30 1320 C 125.872 -0.522361 -3.3485 0
M  V30 1321 C 125.045 -1.62546 -4.06076 0
M  V30 1322 C 124.104 -1.12649 -5.14001 0
M  V30 1323 O 123.13 -1.82156 -5.39266 0
M  V30 1324 N 124.332 0.03047 -5.80492 0
M  V30 1325 H 127.097 -1.96885 -2.25957 0
M  V30 1326 H 124.658 -1.16899 -1.1201 0
M  V30 1327 H 126.65 -0.172961 -4.0433 0
M  V30 1328 H 125.22 0.33151 -3.10837 0
M  V30 1329 H 124.44 -2.14628 -3.30649 0
M  V30 1330 H 125.728 -2.36644 -4.50419 0
M  V30 1331 H 125.126 0.611169 -5.62389 0
M  V30 1332 H 123.683 0.320875 -6.5101 0
M  V30 1333 N 127.117 1.15442 -1.07289 0
M  V30 1334 C 128.528 1.67803 -0.818475 0
M  V30 1335 C 128.879 1.8489 0.656507 0
M  V30 1336 O 128.004 1.55176 1.50829 0
M  V30 1337 C 128.599 3.04805 -1.47917 0
M  V30 1338 C 127.158 3.54245 -1.27229 0
M  V30 1339 C 126.305 2.29986 -1.54925 0
M  V30 1340 H 129.256 0.996646 -1.23502 0
M  V30 1341 H 129.277 3.69702 -0.90005 0
M  V30 1342 H 128.789 2.92336 -2.55267 0
M  V30 1343 H 126.89 3.71956 -0.21899 0
M  V30 1344 H 127.003 4.35723 -1.99203 0
M  V30 1345 H 125.367 2.35496 -0.970242 0
M  V30 1346 H 126.15 2.20105 -2.63455 0
M  V30 1347 N 128.595 0.856903 1.32268 0
M  V30 1348 C 129.525 0.31858 2.31316 0
M  V30 1349 C 130.506 -0.583487 1.59779 0
M  V30 1350 O 131.691 -0.503259 1.87566 0
M  V30 1351 C 128.821 -0.491979 3.43798 0
M  V30 1352 C 127.775 0.315849 4.26833 0
M  V30 1353 C 127.101 -0.619586 5.31098 0
M  V30 1354 C 128.401 1.54282 4.98993 0
M  V30 1355 H 130.095 1.14621 2.76591 0
M  V30 1356 H 127.641 0.552613 1.32974 0
M  V30 1357 H 129.594 -0.879012 4.1213 0
M  V30 1358 H 128.318 -1.35299 2.97257 0
M  V30 1359 H 126.977 0.684664 3.6015 0
M  V30 1360 H 126.625 -1.47751 4.8081 0
M  V30 1361 H 126.325 -0.0830621 5.87541 0
M  V30 1362 H 127.849 -1.00375 6.02293 0
M  V30 1363 H 129.263 1.22796 5.59995 0
M  V30 1364 H 127.66 2.01745 5.65172 0
M  V30 1365 H 128.73 2.30285 4.26728 0
M  V30 1366 N 130.073 -1.45103 0.615059 0
M  V30 1367 C 131.35 -1.95549 0.0448276 0
M  V30 1368 C 131.73 -1.55737 -1.4251 0
M  V30 1369 O 131.078 -0.823556 -2.13143 0
M  V30 1370 C 131.288 -3.48098 0.250785 0
M  V30 1371 C 132.636 -4.24384 0.135509 0
M  V30 1372 O 133.66 -3.55738 0.181299 0
M  V30 1373 O 132.519 -5.46493 0.0268878 0
M  V30 1374 H 129.613 -0.8264 -0.0314845 0
M  V30 1375 H 132.159 -1.55232 0.685642 0
M  V30 1376 H 130.931 -3.7007 1.27139 0
M  V30 1377 H 130.554 -3.95323 -0.424937 0
M  V30 1378 N 131.551 -0.354651 -1.53558 0
M  V30 1379 C 132.501 0.513179 -2.2215 0
M  V30 1380 C 133.485 1.05734 -1.21281 0
M  V30 1381 O 134.677 0.989202 -1.46778 0
M  V30 1382 C 131.806 1.65798 -3.00609 0
M  V30 1383 C 130.892 1.12722 -4.08845 0
M  V30 1384 N 131.283 0.318563 -5.04796 0
M  V30 1385 C 129.581 1.40307 -4.23356 0
M  V30 1386 C 130.282 0.0292224 -5.81693 0
M  V30 1387 N 129.258 0.623891 -5.40008 0
M  V30 1388 H 133.06 -0.111586 -2.93688 0
M  V30 1389 H 130.574 -0.162091 -1.61589 0
M  V30 1390 H 132.571 2.29176 -3.48258 0
M  V30 1391 H 131.231 2.28591 -2.306 0
M  V30 1392 H 132.242 -0.0413091 -5.17884 0
M  V30 1393 H 128.919 2.03458 -3.6457 0
M  V30 1394 H 130.309 -0.623808 -6.68998 0
M  V30 1395 N 133.029 1.57378 -0.0835403 0
M  V30 1396 C 133.976 2.13384 0.879539 0
M  V30 1397 C 134.946 1.04936 1.28754 0
M  V30 1398 O 136.131 1.32662 1.37133 0
M  V30 1399 C 133.271 2.70932 2.13752 0
M  V30 1400 C 132.384 3.93575 1.7811 0
M  V30 1401 C 131.519 4.39326 2.98607 0
M  V30 1402 C 130.558 5.54587 2.59037 0
M  V30 1403 N 129.695 5.95243 3.72331 0
M  V30 1404 H 134.535 2.9537 0.395076 0
M  V30 1405 H 132.072 1.45953 0.183349 0
M  V30 1406 H 134.03 3.02411 2.87408 0
M  V30 1407 H 132.66 1.91693 2.59718 0
M  V30 1408 H 131.712 3.68483 0.94469 0
M  V30 1409 H 133.024 4.77258 1.45005 0
M  V30 1410 H 132.178 4.72528 3.80529 0
M  V30 1411 H 130.917 3.5452 3.34913 0
M  V30 1412 H 129.922 5.21024 1.75539 0
M  V30 1413 H 131.147 6.41133 2.23887 0
M  V30 1414 H 129.093 5.13385 4.08378 0
M  V30 1415 H 129.01 6.73694 3.43034 0
M  V30 1416 H 130.278 6.33072 4.54797 0
M  V30 1417 N 134.507 -0.190092 1.56449 0
M  V30 1418 C 135.455 -1.25501 1.95837 0
M  V30 1419 C 136.449 -1.4685 0.844485 0
M  V30 1420 O 137.655 -1.47651 1.02952 0
M  V30 1421 H 134.03 -0.421447 0.622805 0
M  V30 1422 H 136.001 -0.895821 2.84636 0
M  V30 1423 C 134.75 -2.59124 2.31841 0
M  V30 1424 H 134.073 -2.43514 3.17082 0
M  V30 1425 H 135.513 -3.32371 2.6326 0
M  V30 1426 C 133.972 -3.16488 1.15486 0
M  V30 1427 O 134.502 -3.99365 0.432535 0
M  V30 1428 N 132.708 -2.75305 0.930349 0
M  V30 1429 H 132.255 -2.08013 1.51948 0
M  V30 1430 H 132.213 -3.14024 0.153634 0
M  V30 1431 N 135.985 -1.50799 -0.457987 0
M  V30 1432 C 136.915 -1.73553 -1.5621 0
M  V30 1433 C 137.896 -0.584774 -1.59732 0
M  V30 1434 O 139.081 -0.825314 -1.7579 0
M  V30 1435 C 136.211 -1.84169 -2.94447 0
M  V30 1436 C 135.165 -2.99461 -3.0579 0
M  V30 1437 C 134.491 -2.95235 -4.45803 0
M  V30 1438 C 135.791 -4.39766 -2.81786 0
M  V30 1439 H 137.485 -2.66 -1.37421 0
M  V30 1440 H 135.031 -1.28002 -0.659662 0
M  V30 1441 H 136.984 -1.98672 -3.71628 0
M  V30 1442 H 135.708 -0.883545 -3.14422 0
M  V30 1443 H 134.367 -2.8463 -2.31044 0
M  V30 1444 H 134.015 -1.97239 -4.62715 0
M  V30 1445 H 133.715 -3.72642 -4.54326 0
M  V30 1446 H 135.239 -3.11803 -5.24987 0
M  V30 1447 H 136.653 -4.55054 -3.4871 0
M  V30 1448 H 135.05 -5.18722 -3.0174 0
M  V30 1449 H 136.12 -4.51229 -1.7754 0
M  V30 1450 N 137.463 0.71206 -1.40597 0
M  V30 1451 C 138.74 1.46536 -1.29563 0
M  V30 1452 C 139.12 2.10931 0.0844217 0
M  V30 1453 O 138.468 2.00418 1.0975 0
M  V30 1454 C 138.678 2.49821 -2.43701 0
M  V30 1455 C 140.026 3.15551 -2.841 0
M  V30 1456 O 141.05 2.60142 -2.4332 0
M  V30 1457 O 139.909 4.15867 -3.54566 0
M  V30 1458 H 137.003 0.651801 -0.509004 0
M  V30 1459 H 139.549 0.743935 -1.52524 0
M  V30 1460 H 138.321 2.00778 -3.35863 0
M  V30 1461 H 137.944 3.29495 -2.22528 0
M  V30 1462 N 138.941 1.26152 0.944643 0
M  V30 1463 C 139.874 1.01729 2.04271 0
M  V30 1464 C 140.852 -0.0568101 1.62501 0
M  V30 1465 O 142.036 0.0848987 1.88309 0
M  V30 1466 C 139.163 0.539792 3.34371 0
M  V30 1467 C 138.209 1.60593 3.9511 0
M  V30 1468 S 139.042 3.19392 4.29825 0
M  V30 1469 C 140.198 2.73402 5.63029 0
M  V30 1470 H 140.431 1.94703 2.24673 0
M  V30 1471 H 137.964 1.09793 1.08558 0
M  V30 1472 H 139.922 0.270956 4.09605 0
M  V30 1473 H 138.583 -0.369609 3.11918 0
M  V30 1474 H 137.776 1.22275 4.88943 0
M  V30 1475 H 137.378 1.82596 3.26397 0
M  V30 1476 H 139.67 2.1765 6.41588 0
M  V30 1477 H 140.613 3.65913 6.06229 0
M  V30 1478 H 141.021 2.13077 5.22741 0
M  V30 1479 N 140.419 -1.14872 1.07899 0
M  V30 1480 C 141.696 -1.81928 0.71845 0
M  V30 1481 C 142.076 -1.95417 -0.798455 0
M  V30 1482 O 141.424 -1.50997 -1.715 0
M  V30 1483 C 141.634 -3.17937 1.43935 0
M  V30 1484 C 142.982 -3.93501 1.59506 0
M  V30 1485 O 144.006 -3.27509 1.40058 0
M  V30 1486 O 142.865 -5.1183 1.91551 0
M  V30 1487 H 139.959 -0.78628 0.256305 0
M  V30 1488 H 142.505 -1.21934 1.18026 0
M  V30 1489 H 141.277 -3.0325 2.47295 0
M  V30 1490 H 140.9 -3.85619 0.968687 0
M  V30 1491 N 141.898 -0.863906 -1.31812 0
M  V30 1492 C 143.144 -0.472535 -1.97218 0
M  V30 1493 C 143.477 0.971394 -1.68159 0
M  V30 1494 O 142.752 1.68309 -0.974798 0
M  V30 1495 C 143.035 -0.723054 -3.52766 0
M  V30 1496 C 142.888 -2.21608 -3.91421 0
M  V30 1497 C 144.207 -0.185522 -4.39709 0
M  V30 1498 H 141.326 -0.173158 -0.71637 0
M  V30 1499 H 143.968 -1.08403 -1.56041 0
M  V30 1500 H 142.118 -0.202577 -3.87971 0
M  V30 1501 H 143.79 -2.80334 -3.66347 0
M  V30 1502 H 142.033 -2.691 -3.40246 0
M  V30 1503 H 142.704 -2.34203 -4.99853 0
M  V30 1504 H 145.18 -0.630726 -4.11292 0
M  V30 1505 H 144.056 -0.390306 -5.47511 0
M  V30 1506 H 144.317 0.912229 -4.32586 0
M  V30 1507 N 143.376 1.44774 -0.622745 0
M  V30 1508 C 144.787 1.85546 -0.207226 0
M  V30 1509 C 145.138 1.52093 1.23944 0
M  V30 1510 O 144.263 0.95492 1.94191 0
M  V30 1511 C 144.858 3.36781 -0.369313 0
M  V30 1512 C 143.417 3.76399 -0.00836847 0
M  V30 1513 C 142.564 2.68664 -0.686651 0
M  V30 1514 H 145.515 1.3536 -0.828454 0
M  V30 1515 H 145.536 3.78453 0.394162 0
M  V30 1516 H 145.048 3.61098 -1.42231 0
M  V30 1517 H 143.149 3.57698 1.04322 0
M  V30 1518 H 143.262 4.7732 -0.412584 0
M  V30 1519 H 141.626 2.54404 -0.122777 0
M  V30 1520 H 142.409 2.95815 -1.74208 0
M  V30 1521 N 144.854 0.36279 1.53368 0
M  V30 1522 C 146.084 -0.228281 2.05335 0
M  V30 1523 C 146.492 -1.43226 1.23625 0
M  V30 1524 O 145.835 -1.81717 0.269206 0
M  V30 1525 C 145.897 -0.688549 3.52845 0
M  V30 1526 C 145.561 0.398362 4.5526 0
M  V30 1527 C 146.558 1.24732 5.04716 0
M  V30 1528 C 144.243 0.557805 4.99193 0
M  V30 1529 C 146.237 2.2411 5.96702 0
M  V30 1530 C 143.924 1.55495 5.90986 0
M  V30 1531 C 144.922 2.39503 6.39631 0
M  V30 1532 O 144.61 3.37517 7.29615 0
M  V30 1533 H 144.342 -0.044395 0.674541 0
M  V30 1534 H 146.896 0.518668 1.98744 0
M  V30 1535 H 145.126 -1.48706 3.56964 0
M  V30 1536 H 146.815 -1.20231 3.87685 0
M  V30 1537 H 147.581 1.13532 4.71525 0
M  V30 1538 H 143.46 -0.0862959 4.60919 0
M  V30 1539 H 147.004 2.89718 6.34594 0
M  V30 1540 H 142.901 1.66744 6.23592 0
M  V30 1541 H 143.669 3.33213 7.47604 0
M  V30 1542 N 146.332 -1.57332 0.0918853 0
M  V30 1543 C 147.579 -1.94236 -0.572577 0
M  V30 1544 C 147.907 -0.973398 -1.6839 0
M  V30 1545 O 147.162 0.00756912 -1.95699 0
M  V30 1546 C 147.461 -3.37689 -1.17051 0
M  V30 1547 C 147.127 -4.50527 -0.183304 0
M  V30 1548 C 145.789 -4.81119 0.0882276 0
M  V30 1549 C 148.141 -5.18883 0.49095 0
M  V30 1550 C 145.469 -5.77395 1.04076 0
M  V30 1551 C 147.821 -6.1618 1.43193 0
M  V30 1552 C 146.485 -6.45179 1.71173 0
M  V30 1553 H 145.755 -0.710762 -0.209521 0
M  V30 1554 H 148.402 -1.9077 0.167036 0
M  V30 1555 H 146.707 -3.37718 -1.9863 0
M  V30 1556 H 148.404 -3.63543 -1.69227 0
M  V30 1557 H 144.994 -4.26681 -0.405124 0
M  V30 1558 H 149.178 -4.95427 0.294312 0
M  V30 1559 H 144.434 -5.98179 1.26457 0
M  V30 1560 H 148.608 -6.68243 1.96023 0
M  V30 1561 H 146.235 -7.1959 2.4514 0
M  V30 1562 N 147.81 0.181792 -1.56548 0
M  V30 1563 C 148.773 1.20894 -1.94724 0
M  V30 1564 C 149.773 1.37738 -0.829747 0
M  V30 1565 O 150.963 1.35323 -1.09697 0
M  V30 1566 C 148.095 2.57593 -2.23291 0
M  V30 1567 H 149.288 0.882275 -2.86629 0
M  V30 1568 H 146.841 0.423838 -1.50444 0
M  V30 1569 H 147.576 2.95291 -1.34067 0
M  V30 1570 H 147.361 2.46735 -3.04736 0
M  V30 1571 H 148.851 3.31637 -2.53785 0
M  V30 1572 N 149.288 1.51039 0.449983 0
M  V30 1573 C 150.565 1.53612 1.21089 0
M  V30 1574 C 150.945 0.292997 2.09057 0
M  V30 1575 O 150.293 -0.72259 2.16774 0
M  V30 1576 C 150.503 2.84337 2.0237 0
M  V30 1577 C 151.851 3.35807 2.59843 0
M  V30 1578 O 152.875 2.85802 2.12593 0
M  V30 1579 O 151.734 4.23029 3.45989 0
M  V30 1580 H 148.828 0.617057 0.550608 0
M  V30 1581 H 151.374 1.63344 0.460082 0
M  V30 1582 H 150.146 3.66278 1.37681 0
M  V30 1583 H 149.769 2.77708 2.84542 0
M  V30 1584 N 150.766 -0.704594 1.40972 0
M  V30 1585 C 152.012 -1.46675 1.40051 0
M  V30 1586 C 152.345 -1.94199 0.00641102 0
M  V30 1587 O 151.62 -1.68916 -0.964235 0
M  V30 1588 C 151.903 -2.68505 2.39952 0
M  V30 1589 C 151.756 -2.26805 3.88432 0
M  V30 1590 C 153.075 -3.70686 2.37233 0
M  V30 1591 H 150.194 -0.532015 0.510028 0
M  V30 1592 H 152.836 -0.803255 1.72185 0
M  V30 1593 H 150.986 -3.25114 2.1268 0
M  V30 1594 H 152.658 -1.75592 4.26574 0
M  V30 1595 H 150.901 -1.58685 4.03734 0
M  V30 1596 H 151.572 -3.14181 4.53866 0
M  V30 1597 H 154.048 -3.23731 2.61415 0
M  V30 1598 H 152.924 -4.53553 3.09162 0
M  V30 1599 H 153.185 -4.19754 1.38777 0
M  V30 1600 N 152.244 -1.26651 -0.937939 0
M  V30 1601 C 153.49 -1.12553 -1.687 0
M  V30 1602 C 153.823 0.329782 -1.91379 0
M  V30 1603 O 153.098 1.24202 -1.4968 0
M  V30 1604 C 153.381 -1.89862 -3.05981 0
M  V30 1605 C 153.234 -3.43318 -2.90607 0
M  V30 1606 C 154.553 -1.69499 -4.0615 0
M  V30 1607 H 151.672 -0.410257 -0.612257 0
M  V30 1608 H 154.314 -1.55685 -1.08913 0
M  V30 1609 H 152.464 -1.53204 -3.57017 0
M  V30 1610 H 154.136 -3.89747 -2.46769 0
M  V30 1611 H 152.379 -3.70179 -2.26164 0
M  V30 1612 H 153.05 -3.92642 -3.8799 0
M  V30 1613 H 155.526 -2.01442 -3.64088 0
M  V30 1614 H 154.402 -2.26002 -5.00214 0
M  V30 1615 H 154.663 -0.640365 -4.37438 0
M  V30 1616 N 153.722 1.14298 -1.08507 0
M  V30 1617 C 154.947 1.8976 -0.837001 0
M  V30 1618 C 155.372 1.78097 0.605228 0
M  V30 1619 O 154.73 1.12188 1.4242 0
M  V30 1620 C 154.778 3.37685 -1.26495 0
M  V30 1621 O 153.882 4.10281 -0.417514 0
M  V30 1622 H 153.223 0.590365 -0.303917 0
M  V30 1623 H 155.753 1.44672 -1.44676 0
M  V30 1624 H 155.763 3.88501 -1.24625 0
M  V30 1625 H 154.438 3.45492 -2.31534 0
M  V30 1626 H 153.015 3.69536 -0.499722 0
M  V30 1627 N 155.201 0.870884 1.31352 0
M  V30 1628 C 156.429 0.49677 2.00848 0
M  V30 1629 C 156.844 -0.910998 1.65367 0
M  V30 1630 O 156.201 -1.59696 0.883374 0
M  V30 1631 C 156.252 0.645308 3.55694 0
M  V30 1632 O 155.973 1.99764 3.89905 0
M  V30 1633 C 157.474 0.272326 4.42463 0
M  V30 1634 H 154.694 0.193462 0.642506 0
M  V30 1635 H 157.238 1.1723 1.67563 0
M  V30 1636 H 155.393 0.0173176 3.87396 0
M  V30 1637 H 155.807 2.00607 4.84621 0
M  V30 1638 H 157.281 0.427208 5.50344 0
M  V30 1639 H 157.758 -0.788587 4.32062 0
M  V30 1640 H 158.364 0.876054 4.1618 0
M  V30 1641 N 156.679 -1.44442 0.630414 0
M  V30 1642 C 157.907 -2.06414 0.141671 0
M  V30 1643 C 158.322 -1.47105 -1.18345 0
M  V30 1644 O 157.679 -0.593662 -1.72574 0
M  V30 1645 C 157.73 -3.61494 0.0199784 0
M  V30 1646 O 157.451 -4.18594 1.29269 0
M  V30 1647 C 158.952 -4.40499 -0.497544 0
M  V30 1648 H 156.172 -0.666292 0.0793452 0
M  V30 1649 H 158.716 -1.85323 0.864614 0
M  V30 1650 H 156.871 -3.8185 -0.653402 0
M  V30 1651 H 157.285 -5.12026 1.13707 0
M  V30 1652 H 158.759 -5.49433 -0.531708 0
M  V30 1653 H 159.236 -4.11895 -1.52445 0
M  V30 1654 H 159.842 -4.25061 0.142562 0
M  V30 1655 N 158.157 -0.370918 -1.53173 0
M  V30 1656 C 159.067 0.480823 -2.2962 0
M  V30 1657 C 160.083 1.08789 -1.35798 0
M  V30 1658 O 161.259 1.09768 -1.68858 0
M  V30 1659 C 158.324 1.60227 -3.07454 0
M  V30 1660 C 157.385 1.0222 -4.16953 0
M  V30 1661 C 156.618 2.0902 -4.91066 0
M  V30 1662 O 156.841 3.30222 -4.65091 0
M  V30 1663 O 155.775 1.71778 -5.76867 0
M  V30 1664 H 159.601 -0.141421 -3.03371 0
M  V30 1665 H 157.186 -0.135146 -1.48787 0
M  V30 1666 H 159.068 2.25417 -3.56041 0
M  V30 1667 H 157.743 2.20982 -2.36535 0
M  V30 1668 H 156.65 0.334064 -3.72605 0
M  V30 1669 H 157.983 0.459131 -4.90054 0
M  V30 1670 N 159.635 1.57281 -0.100228 0
M  V30 1671 C 160.583 2.15542 0.874328 0
M  V30 1672 C 161.577 1.09962 1.28859 0
M  V30 1673 O 162.783 1.28298 1.26252 0
M  V30 1674 H 159.158 0.689567 0.300003 0
M  V30 1675 H 161.129 2.96241 0.35829 0
M  V30 1676 C 159.878 2.75454 2.1218 0
M  V30 1677 H 159.201 3.56384 1.81193 0
M  V30 1678 H 160.641 3.19781 2.78417 0
M  V30 1679 C 159.1 1.71602 2.89921 0
M  V30 1680 O 159.63 1.15804 3.84646 0
M  V30 1681 N 157.836 1.41975 2.53558 0
M  V30 1682 H 157.383 1.87539 1.76598 0
M  V30 1683 H 157.341 0.727274 3.05873 0
M  V30 1684 N 161.113 -0.173488 1.56642 0
M  V30 1685 C 162.359 -0.891784 1.8214 0
M  V30 1686 C 162.692 -1.8199 0.677736 0
M  V30 1687 O 161.967 -1.91842 -0.320446 0
M  V30 1688 C 162.25 -1.68933 3.18015 0
M  V30 1689 C 162.103 -0.784487 4.42906 0
M  V30 1690 C 163.422 -2.65748 3.50808 0
M  V30 1691 H 160.541 -0.322761 0.662567 0
M  V30 1692 H 163.183 -0.158095 1.89341 0
M  V30 1693 H 161.333 -2.31482 3.12007 0
M  V30 1694 H 163.005 -0.172046 4.60979 0
M  V30 1695 H 161.248 -0.0924117 4.33702 0
M  V30 1696 H 161.919 -1.37799 5.34524 0
M  V30 1697 H 164.395 -2.13327 3.57255 0
M  V30 1698 H 163.271 -3.18619 4.4696 0
M  V30 1699 H 163.532 -3.45842 2.75401 0
M  V30 1700 N 162.591 -1.51276 -0.441967 0
M  V30 1701 C 163.554 -1.7167 -1.51862 0
M  V30 1702 C 164.554 -0.586793 -1.49711 0
M  V30 1703 O 165.744 -0.854276 -1.51815 0
M  V30 1704 C 162.876 -1.76889 -2.91416 0
M  V30 1705 H 164.069 -2.67754 -1.35084 0
M  V30 1706 H 161.622 -1.41196 -0.670333 0
M  V30 1707 H 162.357 -0.826026 -3.13604 0
M  V30 1708 H 162.142 -2.59001 -2.94382 0
M  V30 1709 H 163.632 -1.94522 -3.69528 0
M  V30 1710 N 164.069 0.697108 -1.41344 0
M  V30 1711 C 165.315 1.4593 -1.40827 0
M  V30 1712 C 165.648 1.94193 -0.0167098 0
M  V30 1713 O 164.923 1.69425 0.955263 0
M  V30 1714 C 165.206 2.67229 -2.41373 0
M  V30 1715 C 165.059 2.24741 -3.8963 0
M  V30 1716 C 166.378 3.69423 -2.39196 0
M  V30 1717 H 163.497 0.529303 -0.512842 0
M  V30 1718 H 166.139 0.794112 -1.72609 0
M  V30 1719 H 164.289 3.23982 -2.14401 0
M  V30 1720 H 165.961 1.73327 -4.27499 0
M  V30 1721 H 164.204 1.56542 -4.0457 0
M  V30 1722 H 164.875 3.1177 -4.55525 0
M  V30 1723 H 167.351 3.2234 -2.63128 0
M  V30 1724 H 166.227 4.51907 -3.11563 0
M  V30 1725 H 166.488 4.19012 -1.41001 0
M  V30 1726 N 165.547 1.27147 0.931209 0
M  V30 1727 C 166.777 1.15914 1.71019 0
M  V30 1728 C 167.185 -0.287112 1.87009 0
M  V30 1729 O 166.528 -1.20761 1.38429 0
M  V30 1730 C 166.59 1.76647 3.13107 0
M  V30 1731 C 166.254 3.25807 3.20467 0
M  V30 1732 C 167.251 4.22489 3.02983 0
M  V30 1733 C 164.936 3.66452 3.43538 0
M  V30 1734 C 166.93 5.57794 3.08454 0
M  V30 1735 C 164.617 5.01888 3.48643 0
M  V30 1736 C 165.615 5.97369 3.31119 0
M  V30 1737 O 165.303 7.30337 3.35952 0
M  V30 1738 H 165.035 0.404062 0.54195 0
M  V30 1739 H 167.589 1.68457 1.17521 0
M  V30 1740 H 165.819 1.18578 3.68071 0
M  V30 1741 H 167.508 1.60179 3.72958 0
M  V30 1742 H 168.274 3.92425 2.85004 0
M  V30 1743 H 164.153 2.92611 3.5623 0
M  V30 1744 H 167.697 6.32298 2.94694 0
M  V30 1745 H 163.594 5.31609 3.66145 0
M  V30 1746 H 164.362 7.38739 3.5243 0
M  V30 1747 N 167.025 -1.13721 1.09112 0
M  V30 1748 C 168.274 -1.84275 0.82009 0
M  V30 1749 C 168.587 -1.84253 -0.656509 0
M  V30 1750 O 169.793 -2.50668 -1.04296 0
M  V30 1751 C 168.249 -3.30825 1.41714 0
M  V30 1752 C 167.857 -3.39244 2.92605 0
M  V30 1753 C 169.601 -4.06443 1.22492 0
M  V30 1754 C 167.508 -4.80047 3.45411 0
M  V30 1755 H 166.438 -0.690387 0.30312 0
M  V30 1756 H 169.089 -1.28146 1.31343 0
M  V30 1757 H 167.471 -3.86737 0.851498 0
M  V30 1758 H 168.645 -2.93344 3.55367 0
M  V30 1759 H 166.96 -2.77088 3.10823 0
M  V30 1760 H 169.557 -5.10387 1.59402 0
M  V30 1761 H 169.9 -4.15972 0.165299 0
M  V30 1762 H 170.433 -3.56852 1.75788 0
M  V30 1763 H 167.172 -4.75709 4.50978 0
M  V30 1764 H 166.692 -5.26455 2.87411 0
M  V30 1765 H 168.371 -5.48957 3.42425 0
M  V30 1766 N 168.503 -0.877838 -1.30888 0
M  V30 1767 C 169.749 -0.502773 -1.97088 0
M  V30 1768 C 170.104 0.936274 -1.68082 0
M  V30 1769 O 169.397 1.65162 -0.971196 0
M  V30 1770 C 169.591 -0.705748 -3.50363 0
M  V30 1771 C 169.42 -2.16297 -3.94266 0
M  V30 1772 C 168.19 -2.80614 -4.20219 0
M  V30 1773 C 170.388 -3.13606 -4.07622 0
M  V30 1774 N 168.37 -4.17007 -4.50532 0
M  V30 1775 C 169.741 -4.35051 -4.41736 0
M  V30 1776 C 171.796 -3.09491 -3.90026 0
M  V30 1777 C 170.499 -5.52911 -4.60089 0
M  V30 1778 C 172.525 -4.26616 -4.09576 0
M  V30 1779 C 171.887 -5.46825 -4.44029 0
M  V30 1780 H 167.986 -0.233168 -0.746429 0
M  V30 1781 H 170.57 -1.13408 -1.58261 0
M  V30 1782 H 168.741 -0.103976 -3.88261 0
M  V30 1783 H 170.473 -0.298291 -4.03599 0
M  V30 1784 H 167.228 -2.3152 -4.13153 0
M  V30 1785 H 167.652 -4.87426 -4.69834 0
M  V30 1786 H 172.294 -2.17657 -3.62471 0
M  V30 1787 H 170.012 -6.45255 -4.86489 0
M  V30 1788 H 173.598 -4.24894 -3.97438 0
M  V30 1789 H 172.478 -6.35947 -4.58848 0
M  V30 1790 N 169.982 1.44106 -0.638065 0
M  V30 1791 C 171.259 1.95453 -0.0759321 0
M  V30 1792 C 171.639 1.57984 1.40015 0
M  V30 1793 O 170.987 0.857361 2.11806 0
M  V30 1794 C 171.197 3.47655 -0.306132 0
M  V30 1795 C 172.545 4.24114 -0.203008 0
M  V30 1796 O 173.569 3.55405 -0.237871 0
M  V30 1797 O 172.428 5.46381 -0.113827 0
M  V30 1798 H 169.522 0.826797 0.0183332 0
M  V30 1799 H 172.068 1.54122 -0.710251 0
M  V30 1800 H 170.84 3.68 -1.3301 0
M  V30 1801 H 170.463 3.95949 0.361991 0
M  V30 1802 N 171.46 0.379036 1.52974 0
M  V30 1803 C 172.408 -0.476033 2.27677 0
M  V30 1804 C 173.402 -1.0719 1.31174 0
M  V30 1805 O 174.608 -1.01355 1.48752 0
M  V30 1806 H 170.983 -0.172255 0.732006 0
M  V30 1807 H 172.954 0.175615 2.97883 0
M  V30 1808 C 171.703 -1.5967 3.0887 0
M  V30 1809 H 171.026 -1.1475 3.82978 0
M  V30 1810 H 172.466 -2.16943 3.64296 0
M  V30 1811 C 170.925 -2.54682 2.20542 0
M  V30 1812 O 171.455 -3.57836 1.82527 0
M  V30 1813 N 169.661 -2.24183 1.84907 0
M  V30 1814 H 169.208 -1.40333 2.1602 0
M  V30 1815 H 169.166 -2.88006 1.26096 0
M  V30 1816 N 172.938 -1.57226 0.108567 0
M  V30 1817 C 173.868 -2.17778 -0.84232 0
M  V30 1818 C 174.849 -1.11487 -1.2847 0
M  V30 1819 O 176.034 -1.39681 -1.34918 0
M  V30 1820 C 173.164 -2.76888 -2.09644 0
M  V30 1821 C 172.118 -3.88669 -1.79221 0
M  V30 1822 C 171.444 -4.34541 -3.11574 0
M  V30 1823 C 172.744 -5.11251 -1.06864 0
M  V30 1824 H 174.438 -2.97489 -0.337774 0
M  V30 1825 H 171.984 -1.43097 -0.161025 0
M  V30 1826 H 173.937 -3.17904 -2.76614 0
M  V30 1827 H 172.661 -1.94451 -2.62405 0
M  V30 1828 H 171.32 -3.48213 -1.14644 0
M  V30 1829 H 170.968 -3.48977 -3.62249 0
M  V30 1830 H 170.668 -5.09914 -2.91996 0
M  V30 1831 H 172.192 -4.782 -3.7968 0
M  V30 1832 H 173.606 -5.49352 -1.63968 0
M  V30 1833 H 172.003 -5.9214 -0.974178 0
M  V30 1834 H 173.073 -4.8487 -0.0536168 0
M  V30 1835 N 174.416 0.165178 -1.56732 0
M  V30 1836 C 175.348 1.22911 -1.93457 0
M  V30 1837 C 176.361 1.40152 -0.828333 0
M  V30 1838 O 177.55 1.40046 -1.10677 0
M  V30 1839 C 174.65 2.59686 -2.17753 0
M  V30 1840 C 173.823 2.63663 -3.48999 0
M  V30 1841 C 172.882 3.81845 -3.62051 0
M  V30 1842 O 171.908 3.67559 -4.34613 0
M  V30 1843 N 173.11 4.98557 -2.97357 0
M  V30 1844 H 175.875 0.917118 -2.85323 0
M  V30 1845 H 173.436 0.354895 -1.57962 0
M  V30 1846 H 175.428 3.37225 -2.23743 0
M  V30 1847 H 173.998 2.83251 -1.32242 0
M  V30 1848 H 173.218 1.72173 -3.54612 0
M  V30 1849 H 174.506 2.63336 -4.35352 0
M  V30 1850 H 173.904 5.13065 -2.38287 0
M  V30 1851 H 172.461 5.73936 -3.08934 0
M  V30 1852 N 175.894 1.51508 0.433938 0
M  V30 1853 C 176.841 1.73068 1.52696 0
M  V30 1854 C 177.811 0.572441 1.55924 0
M  V30 1855 O 178.996 0.807253 1.72882 0
M  V30 1856 C 176.136 1.86474 2.90381 0
M  V30 1857 C 175.249 3.14037 2.96656 0
M  V30 1858 C 174.384 3.18019 4.25485 0
M  V30 1859 C 173.423 4.39882 4.2564 0
M  V30 1860 N 172.56 4.41394 5.45999 0
M  V30 1861 H 177.4 2.66366 1.33615 0
M  V30 1862 H 174.937 1.32008 0.649018 0
M  V30 1863 H 176.895 1.92229 3.70275 0
M  V30 1864 H 175.525 0.965809 3.08013 0
M  V30 1865 H 174.577 3.17575 2.09404 0
M  V30 1866 H 175.889 4.0394 2.92633 0
M  V30 1867 H 175.043 3.22708 5.13755 0
M  V30 1868 H 173.782 2.2601 4.3217 0
M  V30 1869 H 172.787 4.35366 3.35763 0
M  V30 1870 H 174.012 5.33159 4.20617 0
M  V30 1871 H 171.958 3.52258 5.53399 0
M  V30 1872 H 171.875 5.25111 5.4387 0
M  V30 1873 H 173.143 4.50281 6.36292 0
M  V30 1874 N 177.372 -0.689602 1.41712 0
M  V30 1875 C 178.618 -1.45181 1.41599 0
M  V30 1876 C 178.951 -1.94181 0.0270081 0
M  V30 1877 O 178.226 -1.6993 -0.946265 0
M  V30 1878 C 178.509 -2.65945 2.42787 0
M  V30 1879 C 178.362 -2.22672 3.90816 0
M  V30 1880 C 179.681 -3.68149 2.41151 0
M  V30 1881 H 176.8 -0.526576 0.515642 0
M  V30 1882 H 179.442 -0.784947 1.73028 0
M  V30 1883 H 177.592 -3.2284 2.16116 0
M  V30 1884 H 179.264 -1.71058 4.28412 0
M  V30 1885 H 177.507 -1.54394 4.05395 0
M  V30 1886 H 178.178 -3.0935 4.57172 0
M  V30 1887 H 180.654 -3.2094 2.64834 0
M  V30 1888 H 179.53 -4.50248 3.13955 0
M  V30 1889 H 179.791 -4.18259 1.43221 0
M  V30 1890 N 178.85 -1.27639 -0.924453 0
M  V30 1891 C 179.78 -1.13166 -2.04244 0
M  V30 1892 C 180.761 -0.032256 -1.70069 0
M  V30 1893 O 181.946 -0.207328 -1.9309 0
M  V30 1894 C 179.076 -0.781496 -3.38393 0
M  V30 1895 C 178.03 -1.83449 -3.86692 0
M  V30 1896 C 177.356 -1.33822 -5.17683 0
M  V30 1897 C 178.656 -3.23917 -4.09726 0
M  V30 1898 H 180.35 -2.06689 -2.1661 0
M  V30 1899 H 177.896 -0.995136 -1.04082 0
M  V30 1900 H 179.849 -0.667057 -4.16087 0
M  V30 1901 H 178.573 0.189439 -3.2605 0
M  V30 1902 H 177.232 -1.93789 -3.11193 0
M  V30 1903 H 176.88 -0.35665 -5.01734 0
M  V30 1904 H 176.58 -2.04224 -5.50968 0
M  V30 1905 H 178.104 -1.23679 -5.97943 0
M  V30 1906 H 179.518 -3.16559 -4.77978 0
M  V30 1907 H 177.915 -3.92059 -4.54324 0
M  V30 1908 H 178.985 -3.68729 -3.14908 0
M  V30 1909 N 180.328 1.1314 -1.09713 0
M  V30 1910 C 181.739 1.66029 -0.853885 0
M  V30 1911 C 182.09 1.86241 0.617142 0
M  V30 1912 O 181.215 1.5834 1.47503 0
M  V30 1913 C 181.81 3.01599 -1.5435 0
M  V30 1914 C 180.369 3.51467 -1.34714 0
M  V30 1915 C 179.516 2.26648 -1.59769 0
M  V30 1916 H 182.467 0.970226 -1.25588 0
M  V30 1917 H 182.488 3.67709 -0.978267 0
M  V30 1918 H 182 2.86856 -2.6141 0
M  V30 1919 H 180.101 3.71408 -0.297838 0
M  V30 1920 H 180.214 4.314 -2.08401 0
M  V30 1921 H 178.578 2.33385 -1.01998 0
M  V30 1922 H 179.361 2.14467 -2.68065 0
M  V30 1923 N 181.806 0.884767 1.30421 0
M  V30 1924 C 183.052 0.503851 1.96441 0
M  V30 1925 C 183.385 -0.944518 1.69684 0
M  V30 1926 O 182.66 -1.66737 1.00145 0
M  V30 1927 C 182.943 0.779085 3.51571 0
M  V30 1928 C 182.796 2.27807 3.87846 0
M  V30 1929 C 184.115 0.255452 4.39358 0
M  V30 1930 H 181.234 0.184533 0.713524 0
M  V30 1931 H 183.876 1.10872 1.54297 0
M  V30 1932 H 182.026 0.264274 3.876 0
M  V30 1933 H 183.698 2.86127 3.61841 0
M  V30 1934 H 181.941 2.74479 3.35922 0
M  V30 1935 H 182.612 2.42125 4.96064 0
M  V30 1936 H 185.088 0.696079 4.10236 0
M  V30 1937 H 183.964 0.477361 5.4682 0
M  V30 1938 H 184.225 -0.843293 4.33983 0
M  V30 1939 N 183.284 -1.43765 0.645699 0
M  V30 1940 C 184.532 -2.01499 0.155731 0
M  V30 1941 C 184.853 -1.51151 -1.232 0
M  V30 1942 O 184.123 -0.721044 -1.82148 0
M  V30 1943 H 182.703 -0.745003 0.0545817 0
M  V30 1944 H 185.365 -1.76075 0.835677 0
M  V30 1945 H 184.461 -3.1181 0.134577 0
M  V30 1946 N 184.763 -0.387143 -1.52771 0
M  V30 1947 C 186.009 0.196025 -2.0185 0
M  V30 1948 C 186.342 1.46641 -1.27319 0
M  V30 1949 O 185.617 1.90889 -0.373032 0
M  V30 1950 C 185.9 0.466136 -3.5707 0
M  V30 1951 C 185.753 -0.819385 -4.42274 0
M  V30 1952 C 187.072 1.25768 -4.21747 0
M  V30 1953 H 184.191 0.0697708 -0.73369 0
M  V30 1954 H 186.833 -0.516286 -1.82851 0
M  V30 1955 H 184.983 1.07293 -3.7339 0
M  V30 1956 H 186.655 -1.4563 -4.37709 0
M  V30 1957 H 184.898 -1.43517 -4.09372 0
M  V30 1958 H 185.569 -0.585065 -5.48891 0
M  V30 1959 H 188.045 0.744167 -4.09391 0
M  V30 1960 H 186.921 1.41541 -5.30337 0
M  V30 1961 H 187.182 2.27228 -3.79236 0
M  V30 1962 N 186.241 1.57166 -0.116904 0
M  V30 1963 C 187.171 2.18222 0.830759 0
M  V30 1964 C 188.152 1.12167 1.27877 0
M  V30 1965 O 189.337 1.40394 1.34176 0
M  V30 1966 C 186.467 2.77996 2.08172 0
M  V30 1967 C 185.421 3.89614 1.77157 0
M  V30 1968 C 184.747 4.36187 3.09265 0
M  V30 1969 C 186.047 5.1181 1.04151 0
M  V30 1970 H 187.741 2.97664 0.321992 0
M  V30 1971 H 185.287 1.4318 0.153434 0
M  V30 1972 H 187.24 3.19366 2.74924 0
M  V30 1973 H 185.964 1.9584 2.6137 0
M  V30 1974 H 184.623 3.48816 1.12796 0
M  V30 1975 H 184.271 3.50893 3.60393 0
M  V30 1976 H 183.971 5.11455 2.89288 0
M  V30 1977 H 185.495 4.80207 3.77139 0
M  V30 1978 H 186.909 5.50214 1.61052 0
M  V30 1979 H 185.306 5.92648 0.942762 0
M  V30 1980 H 186.376 4.84892 0.0279022 0
M  V30 1981 N 187.719 -0.156864 1.56817 0
M  V30 1982 C 188.949 -0.885031 1.86684 0
M  V30 1983 C 189.357 -1.75696 0.701954 0
M  V30 1984 O 188.7 -1.80569 -0.337732 0
M  V30 1985 C 188.762 -1.80092 3.11138 0
M  V30 1986 C 188.426 -1.10714 4.43386 0
M  V30 1987 C 189.423 -0.465714 5.1781 0
M  V30 1988 C 187.108 -1.09959 4.90117 0
M  V30 1989 C 189.102 0.174002 6.37162 0
M  V30 1990 C 186.789 -0.456055 6.09396 0
M  V30 1991 C 187.787 0.179622 6.82764 0
M  V30 1992 O 187.475 0.812975 7.99779 0
M  V30 1993 H 187.207 -0.261813 0.623242 0
M  V30 1994 H 189.761 -0.157383 2.04796 0
M  V30 1995 H 187.991 -2.56926 2.89009 0
M  V30 1996 H 189.68 -2.40018 3.27332 0
M  V30 1997 H 190.446 -0.463427 4.82781 0
M  V30 1998 H 186.325 -1.58378 4.3294 0
M  V30 1999 H 189.869 0.670765 6.94368 0
M  V30 2000 H 185.766 -0.455975 6.43888 0
M  V30 2001 H 186.534 0.71366 8.15383 0
M  V30 2002 N 189.197 -1.51736 -0.425897 0
M  V30 2003 C 190.144 -1.73875 -1.51776 0
M  V30 2004 C 191.114 -0.580702 -1.55618 0
M  V30 2005 O 192.299 -0.81641 -1.72451 0
M  V30 2006 C 189.439 -1.88012 -2.89388 0
M  V30 2007 C 188.552 -3.15606 -2.94986 0
M  V30 2008 C 187.687 -3.20271 -4.23793 0
M  V30 2009 C 186.726 -4.42134 -4.23302 0
M  V30 2010 N 185.863 -4.44284 -5.43651 0
M  V30 2011 H 190.703 -2.67071 -1.32201 0
M  V30 2012 H 188.24 -1.32351 -0.642008 0
M  V30 2013 H 190.198 -1.9419 -3.69251 0
M  V30 2014 H 188.828 -0.98213 -3.07496 0
M  V30 2015 H 187.88 -3.18681 -2.07717 0
M  V30 2016 H 189.192 -4.05486 -2.90486 0
M  V30 2017 H 188.346 -3.25428 -5.12036 0
M  V30 2018 H 187.085 -2.28299 -4.30965 0
M  V30 2019 H 186.09 -4.3714 -3.3345 0
M  V30 2020 H 187.315 -5.35382 -4.17783 0
M  V30 2021 H 185.261 -3.55188 -5.51523 0
M  V30 2022 H 185.178 -5.27988 -5.41078 0
M  V30 2023 H 186.446 -4.53649 -6.33895 0
M  V30 2024 N 190.675 0.682077 -1.42076 0
M  V30 2025 C 191.921 1.44428 -1.42367 0
M  V30 2026 C 192.254 1.94164 -0.0373056 0
M  V30 2027 O 191.529 1.70429 0.937239 0
M  V30 2028 C 191.812 2.64654 -2.44194 0
M  V30 2029 C 191.665 2.20596 -3.91991 0
M  V30 2030 C 192.984 3.66865 -2.431 0
M  V30 2031 H 190.103 0.523834 -0.518428 0
M  V30 2032 H 192.745 0.77576 -1.73442 0
M  V30 2033 H 190.895 3.2169 -2.17826 0
M  V30 2034 H 192.567 1.68783 -4.29313 0
M  V30 2035 H 190.81 1.52242 -4.06208 0
M  V30 2036 H 191.481 3.06921 -4.58807 0
M  V30 2037 H 193.957 3.19531 -2.66532 0
M  V30 2038 H 192.833 4.48577 -3.16339 0
M  V30 2039 H 193.094 4.17493 -1.45437 0
M  V30 2040 N 192.153 1.28127 0.917671 0
M  V30 2041 C 193.1 1.11717 2.0196 0
M  V30 2042 C 194.07 0.0153929 1.66093 0
M  V30 2043 O 195.255 0.179596 1.89953 0
M  V30 2044 C 192.395 0.780927 3.36148 0
M  V30 2045 C 191.508 1.96135 3.84909 0
M  V30 2046 C 190.643 1.56609 5.0759 0
M  V30 2047 C 189.682 2.71339 5.48673 0
M  V30 2048 N 188.819 2.32332 6.62545 0
M  V30 2049 H 193.659 2.06003 2.15329 0
M  V30 2050 H 191.196 1.02535 1.05475 0
M  V30 2051 H 193.154 0.56675 4.13333 0
M  V30 2052 H 191.784 -0.124998 3.22558 0
M  V30 2053 H 190.836 2.28777 3.03916 0
M  V30 2054 H 192.148 2.82165 4.1132 0
M  V30 2055 H 191.302 1.31374 5.92305 0
M  V30 2056 H 190.041 0.677014 4.82978 0
M  V30 2057 H 189.046 2.97276 4.62501 0
M  V30 2058 H 190.271 3.60882 5.75274 0
M  V30 2059 H 188.217 1.45889 6.39572 0
M  V30 2060 H 188.134 3.11899 6.88662 0
M  V30 2061 H 189.402 2.10371 7.50576 0
M  V30 2062 N 193.631 -1.12557 1.10312 0
M  V30 2063 C 194.877 -1.84311 0.846011 0
M  V30 2064 C 195.21 -1.83805 -0.626859 0
M  V30 2065 O 194.485 -1.28268 -1.46211 0
M  V30 2066 C 194.768 -3.32048 1.39341 0
M  V30 2067 C 194.621 -3.41016 2.93305 0
M  V30 2068 C 195.94 -4.27764 1.03468 0
M  V30 2069 H 193.059 -0.669192 0.30879 0
M  V30 2070 H 195.701 -1.32057 1.36605 0
M  V30 2071 H 193.851 -3.76678 0.951087 0
M  V30 2072 H 195.523 -3.05031 3.46055 0
M  V30 2073 H 193.766 -2.81603 3.29973 0
M  V30 2074 H 194.437 -4.44948 3.26689 0
M  V30 2075 H 196.913 -3.91253 1.41633 0
M  V30 2076 H 195.789 -5.29549 1.44463 0
M  V30 2077 H 196.05 -4.42064 -0.0560404 0
M  V30 2078 N 195.109 -0.891671 -1.2995 0
M  V30 2079 C 196.339 -0.527893 -1.99742 0
M  V30 2080 C 196.747 0.88979 -1.66971 0
M  V30 2081 O 196.09 1.59766 -0.906667 0
M  V30 2082 C 196.152 -0.630804 -3.53922 0
M  V30 2083 C 195.816 -2.01401 -4.10228 0
M  V30 2084 C 196.813 -2.98422 -4.25724 0
M  V30 2085 C 194.498 -2.32121 -4.45449 0
M  V30 2086 C 196.492 -4.24293 -4.75662 0
M  V30 2087 C 194.179 -3.58237 -4.95086 0
M  V30 2088 C 195.177 -4.54137 -5.10146 0
M  V30 2089 O 194.865 -5.78014 -5.58708 0
M  V30 2090 H 194.597 -0.201953 -0.645129 0
M  V30 2091 H 197.151 -1.20076 -1.66646 0
M  V30 2092 H 195.381 0.0990616 -3.86573 0
M  V30 2093 H 197.07 -0.277338 -4.04951 0
M  V30 2094 H 197.836 -2.76001 -3.98809 0
M  V30 2095 H 193.715 -1.5824 -4.32991 0
M  V30 2096 H 197.259 -4.99153 -4.87332 0
M  V30 2097 H 193.156 -3.80491 -5.21437 0
M  V30 2098 H 193.924 -5.8049 -5.77039 0
M  V30 2099 N 196.587 1.43421 -0.653314 0
M  V30 2100 C 197.497 2.34568 0.0388565 0
M  V30 2101 C 198.513 1.53888 0.81207 0
M  V30 2102 O 199.689 1.86539 0.759294 0
M  V30 2103 C 196.754 3.32167 0.993269 0
M  V30 2104 C 195.815 4.28751 0.216977 0
M  V30 2105 C 195.048 5.21688 1.12593 0
M  V30 2106 O 195.271 5.19052 2.36519 0
M  V30 2107 O 194.205 5.98919 0.598284 0
M  V30 2108 H 198.031 2.95251 -0.711386 0
M  V30 2109 H 195.616 1.43564 -0.413502 0
M  V30 2110 H 197.498 3.92183 1.54176 0
M  V30 2111 H 196.173 2.73987 1.72374 0
M  V30 2112 H 195.08 3.72215 -0.375101 0
M  V30 2113 H 196.413 4.89913 -0.473924 0
M  V30 2114 N 198.065 0.39524 1.52563 0
M  V30 2115 C 199.293 -0.184943 2.06072 0
M  V30 2116 C 199.708 -1.40021 1.26647 0
M  V30 2117 O 199.065 -1.79767 0.314672 0
M  V30 2118 C 199.116 -0.549179 3.57304 0
M  V30 2119 O 198.837 0.617813 4.33722 0
M  V30 2120 C 200.338 -1.18459 4.2718 0
M  V30 2121 H 197.558 -0.0265025 0.670476 0
M  V30 2122 H 200.102 0.562184 1.96621 0
M  V30 2123 H 198.257 -1.2462 3.66809 0
M  V30 2124 H 198.671 0.317091 5.23541 0
M  V30 2125 H 200.145 -1.38976 5.34219 0
M  V30 2126 H 200.622 -2.15368 3.82771 0
M  V30 2127 H 201.228 -0.528163 4.22008 0
M  V30 2128 N 199.544 -1.57102 0.125237 0
M  V30 2129 C 200.821 -1.86953 -0.575142 0
M  V30 2130 C 201.201 -1.02749 -1.84407 0
M  V30 2131 O 200.549 -0.108144 -2.28244 0
M  V30 2132 C 200.759 -3.38198 -0.861583 0
M  V30 2133 C 202.107 -4.06937 -1.21192 0
M  V30 2134 O 203.131 -3.43252 -0.951645 0
M  V30 2135 O 201.99 -5.19364 -1.70068 0
M  V30 2136 H 199.084 -0.774147 -0.290906 0
M  V30 2137 H 201.63 -1.68942 0.160211 0
M  V30 2138 H 200.402 -3.91282 0.0373647 0
M  V30 2139 H 200.025 -3.61661 -1.65188 0
M  V30 2140 N 201.022 0.148545 -1.56898 0
M  V30 2141 C 201.97 1.20265 -1.99096 0
M  V30 2142 C 202.964 1.44559 -0.883123 0
M  V30 2143 O 204.17 1.4487 -1.0683 0
M  V30 2144 H 200.545 0.404786 -0.63376 0
M  V30 2145 H 202.516 0.82004 -2.86911 0
M  V30 2146 C 201.265 2.52886 -2.3863 0
M  V30 2147 H 200.588 2.35021 -3.23427 0
M  V30 2148 H 202.028 3.25274 -2.7198 0
M  V30 2149 C 200.487 3.13315 -1.23837 0
M  V30 2150 O 201.017 3.98077 -0.538268 0
M  V30 2151 N 199.223 2.72742 -1.00301 0
M  V30 2152 H 198.77 2.03912 -1.5741 0
M  V30 2153 H 198.728 3.13507 -0.236838 0
M  V30 2154 N 202.5 1.5196 0.417844 0
M  V30 2155 C 203.448 1.75278 1.52907 0
M  V30 2156 C 204.442 0.619611 1.57662 0
M  V30 2157 O 205.648 0.801457 1.61173 0
M  V30 2158 H 202.023 0.554141 0.508362 0
M  V30 2159 H 203.994 2.68389 1.30422 0
M  V30 2160 C 202.743 1.91262 2.90369 0
M  V30 2161 H 202.066 2.77872 2.8745 0
M  V30 2162 H 203.506 2.11581 3.67436 0
M  V30 2163 C 201.965 0.677431 3.30019 0
M  V30 2164 O 202.495 -0.158799 4.01386 0
M  V30 2165 N 200.701 0.515851 2.85985 0
M  V30 2166 H 200.248 1.19744 2.28077 0
M  V30 2167 H 200.206 -0.309315 3.12875 0
M  V30 2168 N 203.978 -0.674533 1.42435 0
M  V30 2169 C 205.227 -1.43034 1.42212 0
M  V30 2170 C 205.54 -1.95555 0.0420788 0
M  V30 2171 O 206.746 -2.71374 -0.0827558 0
M  V30 2172 C 205.202 -2.58748 2.50155 0
M  V30 2173 C 204.81 -2.12925 3.94166 0
M  V30 2174 C 206.554 -3.36257 2.59098 0
M  V30 2175 C 204.461 -3.25723 4.93618 0
M  V30 2176 H 203.391 -0.537345 0.528939 0
M  V30 2177 H 206.042 -0.73024 1.68344 0
M  V30 2178 H 204.424 -3.31128 2.17188 0
M  V30 2179 H 205.598 -1.47697 4.36488 0
M  V30 2180 H 203.913 -1.48354 3.89076 0
M  V30 2181 H 206.51 -4.20264 3.30578 0
M  V30 2182 H 206.853 -3.82866 1.63461 0
M  V30 2183 H 207.386 -2.70947 2.9126 0
M  V30 2184 H 204.125 -2.84105 5.90732 0
M  V30 2185 H 203.645 -3.89732 4.55926 0
M  V30 2186 H 205.324 -3.91186 5.15347 0
M  V30 2187 N 205.456 -1.28612 -0.910864 0
M  V30 2188 C 206.702 -1.16106 -1.66274 0
M  V30 2189 C 207.035 0.289113 -1.92036 0
M  V30 2190 O 206.31 1.21 -1.52281 0
M  V30 2191 C 206.593 -1.96309 -3.01885 0
M  V30 2192 C 206.446 -3.49405 -2.8326 0
M  V30 2193 C 207.765 -1.78076 -4.02463 0
M  V30 2194 H 204.884 -0.423152 -0.603417 0
M  V30 2195 H 207.526 -1.57961 -1.05586 0
M  V30 2196 H 205.676 -1.60742 -3.53687 0
M  V30 2197 H 207.348 -3.94894 -2.38446 0
M  V30 2198 H 205.591 -3.74893 -2.18261 0
M  V30 2199 H 206.262 -4.00784 -3.79574 0
M  V30 2200 H 208.738 -2.0912 -3.59733 0
M  V30 2201 H 207.614 -2.36561 -4.95308 0
M  V30 2202 H 207.875 -0.733008 -4.35981 0
M  V30 2203 N 206.934 1.1197 -1.10907 0
M  V30 2204 C 208.18 1.8386 -0.855773 0
M  V30 2205 C 208.513 1.84134 0.617103 0
M  V30 2206 O 207.788 1.29041 1.45529 0
M  V30 2207 C 208.071 3.31305 -1.411 0
M  V30 2208 C 207.924 3.39456 -2.9511 0
M  V30 2209 C 209.243 4.2721 -1.05736 0
M  V30 2210 H 206.362 0.667545 -0.312334 0
M  V30 2211 H 209.004 1.31331 -1.37303 0
M  V30 2212 H 207.154 3.76169 -0.97105 0
M  V30 2213 H 208.826 3.03191 -3.47668 0
M  V30 2214 H 207.069 2.79849 -3.31462 0
M  V30 2215 H 207.74 4.43209 -3.29044 0
M  V30 2216 H 210.216 3.90497 -1.43706 0
M  V30 2217 H 209.092 5.28775 -1.47269 0
M  V30 2218 H 209.353 4.42088 0.0325958 0
M  V30 2219 N 208.412 0.89855 1.29475 0
M  V30 2220 C 209.642 0.538479 1.99459 0
M  V30 2221 C 210.05 -0.880922 1.67441 0
M  V30 2222 O 209.393 -1.59283 0.915127 0
M  V30 2223 C 209.455 0.649564 3.53583 0
M  V30 2224 C 209.119 2.03573 4.09154 0
M  V30 2225 C 210.116 3.00675 4.24135 0
M  V30 2226 C 207.801 2.3448 4.44212 0
M  V30 2227 C 209.795 4.26809 4.73405 0
M  V30 2228 C 207.482 3.60857 4.93179 0
M  V30 2229 C 208.48 4.56836 5.0773 0
M  V30 2230 O 208.168 5.80969 5.55635 0
M  V30 2231 H 207.9 0.205372 0.644048 0
M  V30 2232 H 210.454 1.20958 1.66007 0
M  V30 2233 H 208.684 -0.0785592 3.8662 0
M  V30 2234 H 210.373 0.29881 4.04799 0
M  V30 2235 H 211.139 2.78112 3.97339 0
M  V30 2236 H 207.018 1.60534 4.32145 0
M  V30 2237 H 210.562 5.0173 4.84678 0
M  V30 2238 H 206.459 3.83251 5.19412 0
M  V30 2239 H 207.227 5.83542 5.73952 0
M  V30 2240 N 209.89 -1.43072 0.660911 0
M  V30 2241 C 210.837 -2.30785 -0.0259884 0
M  V30 2242 C 211.807 -1.45184 -0.806888 0
M  V30 2243 O 212.992 -1.74041 -0.781943 0
M  V30 2244 C 210.132 -3.30861 -0.981067 0
M  V30 2245 C 209.245 -4.31558 -0.195458 0
M  V30 2246 C 208.38 -5.18712 -1.14503 0
M  V30 2247 C 207.419 -6.11097 -0.350299 0
M  V30 2248 N 206.556 -6.90849 -1.25186 0
M  V30 2249 H 211.396 -2.88975 0.727846 0
M  V30 2250 H 208.933 -1.42353 0.370682 0
M  V30 2251 H 210.891 -3.87399 -1.54849 0
M  V30 2252 H 209.521 -2.74304 -1.70169 0
M  V30 2253 H 208.573 -3.77252 0.488374 0
M  V30 2254 H 209.885 -4.9701 0.422176 0
M  V30 2255 H 209.039 -5.79914 -1.78284 0
M  V30 2256 H 207.778 -4.53404 -1.79656 0
M  V30 2257 H 206.783 -5.48976 0.300808 0
M  V30 2258 H 208.008 -6.7845 0.296941 0
M  V30 2259 H 205.954 -6.28182 -1.89005 0
M  V30 2260 H 205.871 -7.52854 -0.688971 0
M  V30 2261 H 207.139 -7.5655 -1.87757 0
M  V30 2262 N 211.368 -0.403325 -1.52352 0
M  V30 2263 C 212.616 0.174003 -2.0135 0
M  V30 2264 C 212.937 1.46139 -1.29106 0
M  V30 2265 O 212.207 1.91448 -0.415253 0
M  V30 2266 H 210.787 0.0672911 -0.743963 0
M  V30 2267 H 213.449 -0.538235 -1.87321 0
M  V30 2268 H 212.545 0.374254 -3.09848 0
M  V30 2269 N 212.846 1.57033 -0.133567 0
M  V30 2270 C 213.756 2.19632 0.824564 0
M  V30 2271 C 214.772 1.17666 1.28182 0
M  V30 2272 O 215.948 1.50193 1.3418 0
M  V30 2273 C 213.013 2.79499 2.05137 0
M  V30 2274 C 212.074 3.96548 1.64464 0
M  V30 2275 C 211.307 4.5355 2.81297 0
M  V30 2276 O 211.53 4.09438 3.97136 0
M  V30 2277 O 210.464 5.44018 2.57542 0
M  V30 2278 H 214.29 3.01991 0.321766 0
M  V30 2279 H 211.875 1.49112 0.0927889 0
M  V30 2280 H 213.757 3.17602 2.7696 0
M  V30 2281 H 212.432 2.00162 2.54395 0
M  V30 2282 H 211.339 3.63186 0.897048 0
M  V30 2283 H 212.672 4.77364 1.19934 0
M  V30 2284 O 214.363 -0.00541248 1.61499 0
M  V30 2285 H 215.054 -0.622816 1.83414 0
M  V30 END ATOM
M  V30 BEGIN BOND
M  V30 END BOND
M  V30 END CTAB
M  END
$$$$
