drugbank_target|Q03426 Mevalonate kinase (DB04695)
 OpenBabel12092120463D

  0  0  0     0  0            999 V3000
M  V30 BEGIN CTAB
M  V30 COUNTS 6028 6079 0 0 0
M  V30 BEGIN ATOM
M  V30 1 H -0.908 1.98254 -0.117106 0
M  V30 2 N 0 1.576 0 0
M  V30 3 C 0.933 2.03868 1.02534 0
M  V30 4 C 1.911 0.928543 1.3348 0
M  V30 5 O 3.095 1.19667 1.45644 0
M  V30 6 C 0.222 2.43627 2.35294 0
M  V30 7 C -0.732 3.65373 2.2001 0
M  V30 8 S 0.101 5.13292 1.52614 0
M  V30 9 C 1.257 5.56322 2.86805 0
M  V30 10 H 1.49 2.90518 0.631377 0
M  V30 11 H -0.977 1.52953 0.210867 0
M  V30 12 H 0.981 2.67203 3.11629 0
M  V30 13 H -0.358 1.57376 2.7183 0
M  V30 14 H -1.165 3.90944 3.18086 0
M  V30 15 H -1.563 3.418 1.51819 0
M  V30 16 H 0.729 5.58782 3.83104 0
M  V30 17 H 1.672 6.56266 2.65933 0
M  V30 18 H 2.08 4.83886 2.90714 0
M  V30 19 N 1.4781 -0.272755 1.55222 0
M  V30 20 C 2.4081 -1.34136 1.91127 0
M  V30 21 C 3.3891 -1.51513 0.773168 0
M  V30 22 O 4.5741 -1.64552 1.03132 0
M  V30 23 C 1.7041 -2.70083 2.1834 0
M  V30 24 C 0.6581 -2.67437 3.34158 0
M  V30 25 C -0.0159 -4.06938 3.46851 0
M  V30 26 C 1.2841 -2.26686 4.70543 0
M  V30 27 H 2.9781 -1.04333 2.80633 0
M  V30 28 H 0.5241 -0.500454 1.35024 0
M  V30 29 H 2.4771 -3.44952 2.42046 0
M  V30 30 H 1.2011 -3.01469 1.25634 0
M  V30 31 H -0.1399 -1.95026 3.1042 0
M  V30 32 H -0.4919 -4.35547 2.51611 0
M  V30 33 H -0.7919 -4.06062 4.2472 0
M  V30 34 H 0.7321 -4.83545 3.72849 0
M  V30 35 H 2.1461 -2.91277 4.93792 0
M  V30 36 H 0.5431 -2.36971 5.5133 0
M  V30 37 H 1.6131 -1.21818 4.69349 0
M  V30 38 N 2.9562 -1.48159 -0.537278 0
M  V30 39 C 4.1812 -1.59707 -1.32319 0
M  V30 40 C 4.6062 -0.254859 -1.86365 0
M  V30 41 O 3.9642 0.772378 -1.64024 0
M  V30 42 C 4.0122 -2.6412 -2.45505 0
M  V30 43 O 3.1162 -2.20774 -3.48328 0
M  V30 44 H 2.4572 -0.535791 -0.392204 0
M  V30 45 H 4.9872 -1.94092 -0.647268 0
M  V30 46 H 4.9972 -2.85166 -2.91795 0
M  V30 47 H 3.6722 -3.61567 -2.05528 0
M  V30 48 H 2.2492 -2.09911 -3.08207 0
M  V30 49 N 4.4343 0.785586 -1.36625 0
M  V30 50 C 5.3443 1.92964 -1.33425 0
M  V30 51 C 6.3603 1.72394 -0.235851 0
M  V30 52 O 7.5363 1.95866 -0.468878 0
M  V30 53 C 4.6013 3.27884 -1.12662 0
M  V30 54 C 3.6623 3.61204 -2.32013 0
M  V30 55 C 2.8953 4.89687 -2.12231 0
M  V30 56 O 3.1183 5.59704 -1.09945 0
M  V30 57 O 2.0523 5.21752 -3.00098 0
M  V30 58 H 5.8783 1.98613 -2.29753 0
M  V30 59 H 3.4633 0.926384 -1.17211 0
M  V30 60 H 5.3453 4.08614 -1.03016 0
M  V30 61 H 4.0203 3.23118 -0.193991 0
M  V30 62 H 2.9273 2.80765 -2.47228 0
M  V30 63 H 4.2603 3.70698 -3.23796 0
M  V30 64 N 5.9124 1.20967 1.01018 0
M  V30 65 C 7.1584 1.02526 1.74975 0
M  V30 66 C 7.4914 -0.4408 1.89131 0
M  V30 67 O 6.7664 -1.32718 1.42184 0
M  V30 68 C 7.0494 1.71699 3.1653 0
M  V30 69 C 6.9024 3.25791 3.10129 0
M  V30 70 C 8.2214 1.45531 4.15342 0
M  V30 71 H 5.3404 0.373863 0.635134 0
M  V30 72 H 7.9824 1.49071 1.17805 0
M  V30 73 H 6.1324 1.32128 3.65341 0
M  V30 74 H 7.8044 3.74697 2.69072 0
M  V30 75 H 6.0474 3.56363 2.47362 0
M  V30 76 H 6.7184 3.69353 4.10222 0
M  V30 77 H 9.1944 1.79872 3.75213 0
M  V30 78 H 8.0704 1.96453 5.1254 0
M  V30 79 H 8.3314 0.384237 4.40427 0
M  V30 80 N 7.3905 -1.2043 1.01659 0
M  V30 81 C 8.3205 -2.25466 0.607226 0
M  V30 82 C 9.3015 -1.65853 -0.377716 0
M  V30 83 O 10.4865 -1.92409 -0.263149 0
M  V30 84 C 7.6165 -3.47256 -0.0552949 0
M  V30 85 C 6.5705 -4.19462 0.850632 0
M  V30 86 C 5.8965 -5.34673 0.0538859 0
M  V30 87 C 7.1965 -4.75603 2.15868 0
M  V30 88 H 8.8905 -2.59962 1.48526 0
M  V30 89 H 6.4365 -1.2496 0.715605 0
M  V30 90 H 8.3895 -4.19917 -0.353233 0
M  V30 91 H 7.1135 -3.11924 -0.968045 0
M  V30 92 H 5.7725 -3.48667 1.13257 0
M  V30 93 H 5.4205 -4.95585 -0.860514 0
M  V30 94 H 5.1205 -5.83913 0.657192 0
M  V30 95 H 6.6445 -6.10138 -0.237598 0
M  V30 96 H 8.0585 -5.40083 1.92311 0
M  V30 97 H 6.4555 -5.3528 2.71284 0
M  V30 98 H 7.5255 -3.94346 2.82169 0
M  V30 99 N 8.8686 -0.792821 -1.36206 0
M  V30 100 C 9.7986 -0.207853 -2.32573 0
M  V30 101 C 10.7796 0.659055 -1.56813 0
M  V30 102 O 11.9646 0.592176 -1.84951 0
M  V30 103 C 9.0946 0.655449 -3.41059 0
M  V30 104 C 8.0486 -0.111842 -4.27854 0
M  V30 105 C 7.3746 0.872274 -5.27537 0
M  V30 106 C 8.6746 -1.30299 -5.05786 0
M  V30 107 H 10.3686 -1.01294 -2.81744 0
M  V30 108 H 7.9146 -0.48854 -1.3546 0
M  V30 109 H 9.8676 1.07464 -4.07467 0
M  V30 110 H 8.5916 1.49328 -2.90463 0
M  V30 111 H 7.2506 -0.512053 -3.63006 0
M  V30 112 H 6.8986 1.70523 -4.73214 0
M  V30 113 H 6.5986 0.363291 -5.86476 0
M  V30 114 H 8.1226 1.28996 -5.96818 0
M  V30 115 H 9.5366 -0.959379 -5.65216 0
M  V30 116 H 7.9336 -1.7455 -5.74154 0
M  V30 117 H 9.0036 -2.09663 -4.37229 0
M  V30 118 N 10.3467 1.47872 -0.545128 0
M  V30 119 C 11.5927 2.02793 -0.0166104 0
M  V30 120 C 11.9257 1.41987 1.32489 0
M  V30 121 O 11.2007 0.571045 1.85928 0
M  V30 122 C 11.4837 3.59989 0.0893294 0
M  V30 123 C 11.3367 4.3125 -1.27841 0
M  V30 124 C 12.6557 4.32606 0.808724 0
M  V30 125 H 9.7747 0.736962 -0.00751035 0
M  V30 126 H 12.4167 1.76433 -0.705085 0
M  V30 127 H 10.5667 3.82579 0.675681 0
M  V30 128 H 12.2387 4.20035 -1.90704 0
M  V30 129 H 10.4817 3.92076 -1.85632 0
M  V30 130 H 11.1527 5.39736 -1.15713 0
M  V30 131 H 13.6287 4.14936 0.310992 0
M  V30 132 H 12.5047 5.42251 0.851782 0
M  V30 133 H 12.7657 4.00963 1.86229 0
M  V30 134 N 11.8248 0.280983 1.55075 0
M  V30 135 C 13.0498 -0.340154 2.04592 0
M  V30 136 C 13.4748 -1.48246 1.15779 0
M  V30 137 O 12.8328 -1.80614 0.15761 0
M  V30 138 C 12.8808 -0.793104 3.5177 0
M  V30 139 O 11.9848 -1.89981 3.66034 0
M  V30 140 H 11.3258 -0.0694289 0.66036 0
M  V30 141 H 13.8558 0.416993 2.00306 0
M  V30 142 H 13.8658 -1.08729 3.93245 0
M  V30 143 H 12.5408 0.0426163 4.15878 0
M  V30 144 H 11.1178 -1.60771 3.36463 0
M  V30 145 N 13.3029 -1.57598 0.00835791 0
M  V30 146 C 14.2659 -2.07884 -0.965242 0
M  V30 147 C 15.2659 -0.989825 -1.26725 0
M  V30 148 O 16.4559 -1.25218 -1.21104 0
M  V30 149 C 13.5879 -2.52731 -2.28779 0
M  V30 150 H 14.7809 -2.95178 -0.530112 0
M  V30 151 H 12.3339 -1.54458 -0.239283 0
M  V30 152 H 13.0689 -1.68705 -2.76964 0
M  V30 153 H 12.8539 -3.32272 -2.08177 0
M  V30 154 H 14.3439 -2.91933 -2.98605 0
M  V30 155 N 14.781 0.264519 -1.55364 0
M  V30 156 C 16.192 0.834936 -1.6699 0
M  V30 157 C 16.543 1.86718 -0.602552 0
M  V30 158 O 15.668 2.14899 0.254425 0
M  V30 159 C 16.263 1.5212 -3.02729 0
M  V30 160 C 14.822 2.03954 -3.16354 0
M  V30 161 C 13.969 0.884498 -2.62815 0
M  V30 162 H 16.92 0.0406869 -1.58648 0
M  V30 163 H 16.941 2.38853 -2.96191 0
M  V30 164 H 16.453 0.769668 -3.80392 0
M  V30 165 H 14.554 2.82041 -2.43482 0
M  V30 166 H 14.667 2.24902 -4.23032 0
M  V30 167 H 13.031 1.2802 -2.20188 0
M  V30 168 H 13.814 0.14634 -3.42988 0
M  V30 169 N 16.2591 1.48442 0.529413 0
M  V30 170 C 17.5071 1.56179 1.28267 0
M  V30 171 C 17.8281 0.237721 1.93546 0
M  V30 172 O 17.0981 -0.740779 1.81354 0
M  V30 173 H 15.6781 0.575367 0.476405 0
M  V30 174 H 18.3401 1.84909 0.61602 0
M  V30 175 H 17.4361 2.34312 2.06165 0
M  V30 176 N 17.7372 -0.778329 1.37039 0
M  V30 177 C 18.6842 -1.89139 1.32269 0
M  V30 178 C 19.6542 -1.65017 0.189387 0
M  V30 179 O 20.8392 -1.87024 0.377693 0
M  V30 180 C 17.9792 -3.26112 1.12894 0
M  V30 181 C 17.0922 -3.62233 2.35396 0
M  V30 182 C 16.2272 -4.8838 2.08946 0
M  V30 183 C 15.2662 -5.17212 3.2735 0
M  V30 184 N 14.4032 -6.34546 3.00492 0
M  V30 185 H 19.2432 -1.92552 2.27437 0
M  V30 186 H 16.7802 -0.941473 1.13025 0
M  V30 187 H 18.7382 -4.05116 0.996835 0
M  V30 188 H 17.3682 -3.22091 0.213758 0
M  V30 189 H 16.4202 -2.78265 2.5937 0
M  V30 190 H 17.7322 -3.79481 3.23721 0
M  V30 191 H 16.8862 -5.75274 1.92729 0
M  V30 192 H 15.6252 -4.73222 1.17949 0
M  V30 193 H 14.6302 -4.28796 3.44113 0
M  V30 194 H 15.8552 -5.34283 4.19188 0
M  V30 195 H 13.8012 -6.20759 2.12118 0
M  V30 196 H 13.7182 -6.52179 3.82358 0
M  V30 197 H 14.9862 -7.24394 2.87879 0
M  V30 198 N 19.2153 -1.21501 -1.00376 0
M  V30 199 C 20.4613 -1.03452 -1.74429 0
M  V30 200 C 20.7943 0.430764 -1.89362 0
M  V30 201 O 20.0693 1.31962 -1.42886 0
M  V30 202 C 20.3523 -1.73375 -3.15615 0
M  V30 203 C 20.2053 -3.27431 -3.08397 0
M  V30 204 C 21.5243 -1.47732 -4.14564 0
M  V30 205 H 18.6433 -0.377226 -0.633143 0
M  V30 206 H 21.2853 -1.49693 -1.17013 0
M  V30 207 H 19.4353 -1.34064 -3.64636 0
M  V30 208 H 21.1073 -3.76119 -2.67081 0
M  V30 209 H 19.3503 -3.5767 -2.45468 0
M  V30 210 H 20.0213 -3.71524 -4.08258 0
M  V30 211 H 22.4973 -1.8186 -3.74254 0
M  V30 212 H 21.3733 -1.99169 -5.11491 0
M  V30 213 H 21.6343 -0.407589 -4.40217 0
M  V30 214 N 20.6934 1.19889 -1.02296 0
M  V30 215 C 21.9424 1.88743 -0.711257 0
M  V30 216 C 22.2554 1.80112 0.762817 0
M  V30 217 O 23.4614 2.44161 1.18733 0
M  V30 218 C 21.9174 3.38525 -1.22185 0
M  V30 219 C 21.5254 3.55727 -2.72328 0
M  V30 220 C 23.2694 4.12893 -0.985864 0
M  V30 221 C 21.1764 4.99369 -3.16835 0
M  V30 222 H 20.1064 0.706885 -0.262353 0
M  V30 223 H 22.7574 1.35586 -1.23648 0
M  V30 224 H 21.1394 3.91044 -0.624571 0
M  V30 225 H 22.3134 3.13564 -3.3766 0
M  V30 226 H 20.6284 2.94739 -2.9414 0
M  V30 227 H 23.2254 5.18813 -1.29374 0
M  V30 228 H 23.5684 4.16228 0.0775055 0
M  V30 229 H 24.1014 3.66494 -1.54684 0
M  V30 230 H 20.8404 5.01193 -4.22476 0
M  V30 231 H 20.3604 5.42317 -2.56228 0
M  V30 232 H 22.0394 5.67988 -3.09837 0
M  V30 233 N 22.1715 0.800033 1.35784 0
M  V30 234 C 23.1015 0.220184 2.3246 0
M  V30 235 C 24.0825 -0.65073 1.57161 0
M  V30 236 O 25.2675 -0.582359 1.85263 0
M  V30 237 C 22.3975 -0.637353 3.41402 0
M  V30 238 C 21.3515 0.134531 4.27789 0
M  V30 239 C 20.6775 -0.844285 5.27992 0
M  V30 240 C 21.9775 1.32979 5.05088 0
M  V30 241 H 23.6715 1.02787 2.81203 0
M  V30 242 H 21.2175 0.495717 1.35199 0
M  V30 243 H 23.1705 -1.05302 4.08031 0
M  V30 244 H 21.8945 -1.47785 2.91251 0
M  V30 245 H 20.5535 0.531296 3.6273 0
M  V30 246 H 20.2015 -1.68011 4.74111 0
M  V30 247 H 19.9015 -0.332184 5.8666 0
M  V30 248 H 21.4255 -1.2583 5.97494 0
M  V30 249 H 22.8395 0.98934 5.64699 0
M  V30 250 H 21.2365 1.77593 5.7322 0
M  V30 251 H 22.3065 2.11978 4.36111 0
M  V30 252 N 23.6496 -1.47581 0.552962 0
M  V30 253 C 24.5996 -2.26961 -0.217423 0
M  V30 254 C 25.5836 -1.34099 -0.889168 0
M  V30 255 O 26.7756 -1.58483 -0.788176 0
M  V30 256 C 23.9046 -3.19756 -1.24944 0
M  V30 257 C 22.9906 -4.20097 -0.581327 0
M  V30 258 N 23.3816 -5.04614 0.346171 0
M  V30 259 C 21.6796 -4.38099 -0.835767 0
M  V30 260 C 22.3806 -5.77052 0.733854 0
M  V30 261 N 21.3566 -5.43526 0.0896567 0
M  V30 262 H 25.1586 -2.89688 0.495761 0
M  V30 263 H 22.6726 -1.58068 0.372597 0
M  V30 264 H 24.6696 -3.75305 -1.81527 0
M  V30 265 H 23.3296 -2.58585 -1.96376 0
M  V30 266 H 24.3406 -5.12869 0.720098 0
M  V30 267 H 21.0176 -3.88102 -1.53892 0
M  V30 268 H 22.4076 -6.5504 1.49574 0
M  V30 269 N 25.1277 -0.289203 -1.54924 0
M  V30 270 C 26.3757 0.322879 -1.99504 0
M  V30 271 C 26.6967 1.55313 -1.1791 0
M  V30 272 O 25.9667 1.94001 -0.272097 0
M  V30 273 H 24.5467 0.122291 -0.736922 0
M  V30 274 H 27.2087 -0.397802 -1.90797 0
M  V30 275 H 26.3047 0.603061 -3.06218 0
M  V30 276 N 26.6058 1.57591 -0.0167156 0
M  V30 277 C 27.5158 2.1291 0.98521 0
M  V30 278 C 28.5318 1.07834 1.36557 0
M  V30 279 O 29.7078 1.39826 1.44951 0
M  V30 280 C 26.7728 2.63512 2.25305 0
M  V30 281 C 25.8338 3.83256 1.93426 0
M  V30 282 C 25.0668 4.31435 3.14165 0
M  V30 283 O 25.2898 3.78851 4.26413 0
M  V30 284 O 24.2238 5.23416 2.97186 0
M  V30 285 H 28.0498 2.98772 0.544888 0
M  V30 286 H 25.6348 1.48012 0.203141 0
M  V30 287 H 27.5168 2.96183 2.99756 0
M  V30 288 H 26.1918 1.8074 2.68542 0
M  V30 289 H 25.0988 3.55531 1.16398 0
M  V30 290 H 26.4318 4.67153 1.55013 0
M  V30 291 N 28.0839 -0.256276 1.55502 0
M  V30 292 C 29.0339 -1.31981 1.85916 0
M  V30 293 C 30.0179 -1.43927 0.719296 0
M  V30 294 O 31.2099 -1.47326 0.981019 0
M  V30 295 C 28.3389 -2.67703 2.14918 0
M  V30 296 C 27.4249 -2.59801 3.35208 0
M  V30 297 N 27.8159 -2.21524 4.54709 0
M  V30 298 C 26.1139 -2.90832 3.38131 0
M  V30 299 C 26.8149 -2.24024 5.36832 0
M  V30 300 N 25.7909 -2.63158 4.75656 0
M  V30 301 H 29.5929 -1.01423 2.75845 0
M  V30 302 H 27.1069 -0.464911 1.55603 0
M  V30 303 H 29.1039 -3.44445 2.34869 0
M  V30 304 H 27.7639 -2.99137 1.26282 0
M  V30 305 H 28.7749 -1.93223 4.80505 0
M  V30 306 H 25.4519 -3.26867 2.59739 0
M  V30 307 H 26.8419 -1.9685 6.42417 0
M  V30 308 N 29.562 -1.4872 -0.521534 0
M  V30 309 C 30.525 -1.63379 -1.60748 0
M  V30 310 C 31.525 -0.50661 -1.52611 0
M  V30 311 O 32.715 -0.772601 -1.5613 0
M  V30 312 C 29.847 -1.61192 -3.00383 0
M  V30 313 H 31.04 -2.60217 -1.49087 0
M  V30 314 H 28.593 -1.37444 -0.744235 0
M  V30 315 H 29.328 -0.65863 -3.17541 0
M  V30 316 H 29.113 -2.43032 -3.07698 0
M  V30 317 H 30.603 -1.7466 -3.7932 0
M  V30 318 N 31.0401 0.771051 -1.3745 0
M  V30 319 C 32.2861 1.5319 -1.32894 0
M  V30 320 C 32.6191 1.94008 0.0862511 0
M  V30 321 O 31.8941 1.64124 1.04373 0
M  V30 322 C 32.1771 2.79648 -2.26868 0
M  V30 323 C 32.0301 2.45079 -3.77169 0
M  V30 324 C 33.3491 3.81583 -2.19277 0
M  V30 325 H 30.4681 0.555744 -0.484064 0
M  V30 326 H 33.1101 0.884492 -1.68157 0
M  V30 327 H 31.2601 3.34891 -1.96926 0
M  V30 328 H 32.9321 1.95745 -4.1771 0
M  V30 329 H 31.1751 1.77767 -3.95704 0
M  V30 330 H 31.8461 3.35478 -4.38359 0
M  V30 331 H 34.3221 3.35835 -2.45671 0
M  V30 332 H 33.1981 4.67787 -2.87171 0
M  V30 333 H 33.4591 4.25897 -1.18592 0
M  V30 334 N 32.5182 1.22032 0.997298 0
M  V30 335 C 33.7642 1.04376 1.73878 0
M  V30 336 C 34.0972 -0.420716 1.89588 0
M  V30 337 O 33.3722 -1.31202 1.43583 0
M  V30 338 C 33.6552 1.75047 3.14691 0
M  V30 339 C 33.5082 3.29062 3.06656 0
M  V30 340 C 34.8272 1.49928 4.13775 0
M  V30 341 H 31.9462 0.380578 0.631133 0
M  V30 342 H 34.5882 1.50312 1.16217 0
M  V30 343 H 32.7382 1.35996 3.63919 0
M  V30 344 H 34.4102 3.7753 2.65083 0
M  V30 345 H 32.6532 3.58967 2.43568 0
M  V30 346 H 33.3242 3.73683 4.06282 0
M  V30 347 H 35.8002 1.83842 3.73285 0
M  V30 348 H 34.6762 2.01878 5.10428 0
M  V30 349 H 34.9372 0.430929 4.39995 0
M  V30 350 N 33.9963 -1.19345 1.0293 0
M  V30 351 C 34.9463 -2.20472 0.58104 0
M  V30 352 C 35.9303 -1.56578 -0.370442 0
M  V30 353 O 37.1223 -1.75963 -0.191344 0
M  V30 354 C 34.2513 -3.43236 -0.066306 0
M  V30 355 C 33.3373 -4.14274 0.907642 0
M  V30 356 N 33.7283 -4.61492 2.07023 0
M  V30 357 C 32.0263 -4.39966 0.731177 0
M  V30 358 C 32.7273 -5.1605 2.68454 0
M  V30 359 N 31.7033 -5.06875 1.96414 0
M  V30 360 H 35.5053 -2.54659 1.46717 0
M  V30 361 H 33.0193 -1.35423 0.896345 0
M  V30 362 H 35.0163 -4.14927 -0.405068 0
M  V30 363 H 33.6763 -3.10549 -0.948118 0
M  V30 364 H 34.6873 -4.56304 2.44963 0
M  V30 365 H 31.3643 -4.17377 -0.101507 0
M  V30 366 H 32.7543 -5.6287 3.66915 0
M  V30 367 N 35.4744 -0.807222 -1.35358 0
M  V30 368 C 36.7224 -0.387122 -1.98358 0
M  V30 369 C 37.0434 1.04942 -1.64354 0
M  V30 370 O 36.3134 1.72615 -0.926339 0
M  V30 371 H 34.8934 -0.140154 -0.733734 0
M  V30 372 H 37.5554 -1.0332 -1.6526 0
M  V30 373 H 36.6514 -0.493352 -3.08176 0
M  V30 374 N 36.9525 1.47285 -0.560781 0
M  V30 375 C 37.8995 2.30058 0.18491 0
M  V30 376 C 38.8695 1.39281 0.904986 0
M  V30 377 O 40.0545 1.68241 0.899979 0
M  V30 378 C 37.1945 3.23317 1.20666 0
M  V30 379 C 36.3075 4.29186 0.492285 0
M  V30 380 C 35.4425 5.09592 1.49964 0
M  V30 381 C 34.4815 6.07232 0.770439 0
M  V30 382 N 33.6185 6.80584 1.72479 0
M  V30 383 H 38.4585 2.93302 -0.527048 0
M  V30 384 H 35.9955 1.44568 -0.271738 0
M  V30 385 H 37.9535 3.75811 1.81168 0
M  V30 386 H 36.5835 2.61929 1.88661 0
M  V30 387 H 35.6355 3.7972 -0.227333 0
M  V30 388 H 36.9475 4.98738 -0.0787929 0
M  V30 389 H 36.1015 5.66254 2.17809 0
M  V30 390 H 34.8405 4.3995 2.10464 0
M  V30 391 H 33.8455 5.49745 0.0780846 0
M  V30 392 H 35.0705 6.78884 0.171134 0
M  V30 393 H 33.0165 6.1367 2.3183 0
M  V30 394 H 32.9335 7.46319 1.20596 0
M  V30 395 H 34.2015 7.41818 2.39428 0
M  V30 396 N 38.4306 0.297415 1.54768 0
M  V30 397 C 39.6766 -0.313376 2.00364 0
M  V30 398 C 40.0096 -1.53815 1.18553 0
M  V30 399 O 39.2846 -1.92739 0.261103 0
M  V30 400 C 39.5676 -0.673525 3.53745 0
M  V30 401 C 39.4206 0.560133 4.46299 0
M  V30 402 C 40.7396 -1.50143 4.13697 0
M  V30 403 H 37.8586 -0.112428 0.728374 0
M  V30 404 H 40.5006 0.4088 1.8555 0
M  V30 405 H 38.6506 -1.28881 3.665 0
M  V30 406 H 40.3226 1.19863 4.45455 0
M  V30 407 H 38.5656 1.19405 4.17043 0
M  V30 408 H 39.2366 0.26405 5.51368 0
M  V30 409 H 41.7126 -0.981588 4.04356 0
M  V30 410 H 40.5886 -1.72221 5.21182 0
M  V30 411 H 40.8496 -2.48952 3.65343 0
M  V30 412 N 39.9087 -1.5758 0.0250728 0
M  V30 413 C 40.8717 -2.08896 -0.943139 0
M  V30 414 C 41.8717 -1.00321 -1.25668 0
M  V30 415 O 43.0617 -1.26495 -1.19769 0
M  V30 416 C 40.1937 -2.55143 -2.26086 0
M  V30 417 H 41.3867 -2.95723 -0.498775 0
M  V30 418 H 38.9397 -1.54703 -0.222888 0
M  V30 419 H 39.6747 -1.71633 -2.75159 0
M  V30 420 H 39.4597 -3.34461 -2.04641 0
M  V30 421 H 40.9497 -2.95083 -2.95492 0
M  V30 422 N 41.3868 0.248026 -1.55636 0
M  V30 423 C 42.3168 1.31079 -1.93237 0
M  V30 424 C 43.2978 1.50264 -0.797174 0
M  V30 425 O 44.4828 1.62891 -1.05737 0
M  V30 426 C 41.6128 2.66575 -2.22609 0
M  V30 427 C 40.5668 2.62087 -3.3837 0
M  V30 428 C 39.8928 4.01369 -3.53281 0
M  V30 429 C 41.1928 2.19171 -4.7409 0
M  V30 430 H 42.8868 0.998556 -2.82257 0
M  V30 431 H 40.4328 0.47891 -1.35803 0
M  V30 432 H 42.3858 3.41057 -2.47503 0
M  V30 433 H 41.1098 2.99432 -1.30414 0
M  V30 434 H 39.7688 1.90063 -3.13483 0
M  V30 435 H 39.4168 4.31489 -2.58508 0
M  V30 436 H 39.1168 3.99254 -4.31127 0
M  V30 437 H 40.6408 4.77552 -3.80495 0
M  V30 438 H 42.0548 2.83384 -4.98363 0
M  V30 439 H 40.4518 2.2817 -5.5503 0
M  V30 440 H 41.5218 1.14336 -4.71227 0
M  V30 441 N 42.8649 1.48995 0.513639 0
M  V30 442 C 43.8279 1.64229 1.59879 0
M  V30 443 C 44.8279 0.514696 1.5234 0
M  V30 444 O 46.0179 0.78087 1.55718 0
M  V30 445 C 43.1499 1.62783 2.99524 0
M  V30 446 H 44.3429 2.61004 1.47705 0
M  V30 447 H 41.8959 1.37837 0.736936 0
M  V30 448 H 42.6309 0.675461 3.17188 0
M  V30 449 H 42.4159 2.4466 3.06404 0
M  V30 450 H 43.9059 1.76669 3.78388 0
M  V30 451 N 44.343 -0.763751 1.37857 0
M  V30 452 C 45.589 -1.52483 1.33704 0
M  V30 453 C 45.922 -1.94051 -0.0759612 0
M  V30 454 O 45.197 -1.64675 -1.03501 0
M  V30 455 C 45.48 -2.78441 2.28348 0
M  V30 456 C 45.333 -2.43075 3.78463 0
M  V30 457 C 46.652 -3.80415 2.21298 0
M  V30 458 H 43.771 -0.553169 0.487005 0
M  V30 459 H 46.413 -0.875562 1.68624 0
M  V30 460 H 44.563 -3.33842 1.987 0
M  V30 461 H 46.235 -1.93527 4.18742 0
M  V30 462 H 44.478 -1.75666 3.96641 0
M  V30 463 H 45.149 -3.33149 4.40132 0
M  V30 464 H 47.625 -3.34527 2.47449 0
M  V30 465 H 46.501 -4.66257 2.89647 0
M  V30 466 H 46.762 -4.25262 1.20849 0
M  V30 467 N 45.8211 -1.22559 -0.990812 0
M  V30 468 C 47.0461 -1.07862 -1.77145 0
M  V30 469 C 47.4711 0.366447 -1.84496 0
M  V30 470 O 46.8291 1.26478 -1.29896 0
M  V30 471 C 46.8771 -1.69686 -3.18181 0
M  V30 472 O 45.9811 -0.951946 -4.01263 0
M  V30 473 H 45.3221 -0.378712 -0.545411 0
M  V30 474 H 47.8521 -1.62399 -1.2445 0
M  V30 475 H 47.8621 -1.74496 -3.68802 0
M  V30 476 H 46.5371 -2.74841 -3.12146 0
M  V30 477 H 45.1141 -0.980011 -3.59792 0
M  V30 478 N 47.2992 1.18797 -1.03562 0
M  V30 479 C 48.2292 2.24472 -0.643019 0
M  V30 480 C 49.2102 1.66433 0.351283 0
M  V30 481 O 50.3952 1.92803 0.232505 0
M  V30 482 C 47.5252 3.473 4.24935e-05 0
M  V30 483 C 46.4792 4.18055 -0.917257 0
M  V30 484 C 45.8052 5.34519 -0.138941 0
M  V30 485 C 47.1052 4.72109 -2.23407 0
M  V30 486 H 48.7992 2.57566 -1.52643 0
M  V30 487 H 46.3452 1.23806 -0.735394 0
M  V30 488 H 48.2982 4.20426 0.286383 0
M  V30 489 H 47.0222 3.13424 0.918299 0
M  V30 490 H 45.6812 3.46821 -1.1879 0
M  V30 491 H 45.3292 4.96891 0.781562 0
M  V30 492 H 45.0292 5.82794 -0.750005 0
M  V30 493 H 46.5532 6.10438 0.1405 0
M  V30 494 H 47.9672 5.36955 -2.00879 0
M  V30 495 H 46.3642 5.30897 -2.79765 0
M  V30 496 H 47.4342 3.89807 -2.88407 0
M  V30 497 N 48.7773 0.814389 1.34928 0
M  V30 498 C 49.7253 0.218424 2.31572 0
M  V30 499 C 50.7193 -0.636128 1.57002 0
M  V30 500 O 51.9253 -0.52842 1.72069 0
M  V30 501 H 48.3003 0.0518799 0.750208 0
M  V30 502 H 50.2713 1.04852 2.79372 0
M  V30 503 C 49.0203 -0.61207 3.4227 0
M  V30 504 H 48.3433 0.0361578 3.99784 0
M  V30 505 H 49.7833 -0.995317 4.12152 0
M  V30 506 C 48.2423 -1.78087 2.85984 0
M  V30 507 O 48.7723 -2.8787 2.80168 0
M  V30 508 N 46.9783 -1.59488 2.42924 0
M  V30 509 H 46.5253 -0.701874 2.47854 0
M  V30 510 H 46.4833 -2.37846 2.05613 0
M  V30 511 N 50.2554 -1.46986 0.568584 0
M  V30 512 C 51.1854 -2.32946 -0.160753 0
M  V30 513 C 52.1664 -1.44487 -0.897631 0
M  V30 514 O 53.3514 -1.73327 -0.875867 0
M  V30 515 C 50.4814 -3.26494 -1.18403 0
M  V30 516 C 49.4354 -4.24282 -0.562895 0
M  V30 517 C 48.7614 -5.07236 -1.69163 0
M  V30 518 C 50.0614 -5.19989 0.490761 0
M  V30 519 H 51.7554 -2.94175 0.556916 0
M  V30 520 H 49.3014 -1.4146 0.26927 0
M  V30 521 H 51.2544 -3.85477 -1.70251 0
M  V30 522 H 49.9784 -2.63343 -1.93179 0
M  V30 523 H 48.6374 -3.66541 -0.0656164 0
M  V30 524 H 48.2854 -4.4048 -2.42871 0
M  V30 525 H 47.9854 -5.7345 -1.28174 0
M  V30 526 H 49.5094 -5.6908 -2.21314 0
M  V30 527 H 50.9234 -5.73271 0.0579047 0
M  V30 528 H 49.3204 -5.94469 0.820165 0
M  V30 529 H 50.3904 -4.64777 1.3824 0
M  V30 530 N 51.7335 -0.305618 -1.54608 0
M  V30 531 C 53.1495 0.0476228 -1.59529 0
M  V30 532 C 53.3495 1.52025 -1.32252 0
M  V30 533 O 52.4055 2.27368 -1.09818 0
M  V30 534 C 53.7185 -0.354471 -2.98603 0
M  V30 535 C 55.2665 -0.303622 -3.11524 0
M  V30 536 C 55.7415 -0.680608 -4.52915 0
M  V30 537 N 57.2325 -0.63332 -4.5885 0
M  V30 538 C 57.9675 -0.897432 -5.66334 0
M  V30 539 N 57.4635 -1.22775 -6.81834 0
M  V30 540 N 59.2565 -0.824186 -5.56025 0
M  V30 541 H 51.4075 -1.2653 -1.70599 0
M  V30 542 H 53.6705 -0.513291 -0.797017 0
M  V30 543 H 53.3765 -1.3798 -3.23503 0
M  V30 544 H 53.2505 0.289568 -3.76087 0
M  V30 545 H 55.6375 0.712472 -2.8637 0
M  V30 546 H 55.7185 -0.982348 -2.36185 0
M  V30 547 H 55.3625 -1.69453 -4.78799 0
M  V30 548 H 55.2925 0.0202385 -5.26596 0
M  V30 549 H 57.7835 -0.389138 -3.75891 0
M  V30 550 H 58.0965 -1.41513 -7.59733 0
M  V30 551 H 56.4415 -1.26583 -6.83375 0
M  V30 552 H 59.6325 -0.565748 -4.64669 0
M  V30 553 H 59.8055 -1.03338 -6.39707 0
M  V30 554 N 53.2116 1.57565 -0.0334293 0
M  V30 555 C 54.4396 1.9628 0.654347 0
M  V30 556 C 54.8546 0.910138 1.65414 0
M  V30 557 O 54.2116 -0.107595 1.82183 0
M  V30 558 C 54.2626 3.35067 1.35693 0
M  V30 559 O 53.9836 4.36296 0.397191 0
M  V30 560 C 55.4846 3.88439 2.13613 0
M  V30 561 H 52.7046 0.646369 0.180132 0
M  V30 562 H 55.2486 2.04282 -0.0944721 0
M  V30 563 H 53.4036 3.2827 2.05712 0
M  V30 564 H 53.8176 5.1678 0.896597 0
M  V30 565 H 55.2916 4.8788 2.58219 0
M  V30 566 H 55.7686 3.22914 2.97696 0
M  V30 567 H 56.3746 3.98516 1.48543 0
M  V30 568 N 54.6897 -0.239769 1.55765 0
M  V30 569 C 55.9367 -0.966801 1.7793 0
M  V30 570 C 56.2647 -1.85046 0.599015 0
M  V30 571 O 55.5197 -1.91197 -0.417395 0
M  V30 572 C 55.8187 -1.852 3.05672 0
M  V30 573 C 55.4847 -1.1231 4.36689 0
M  V30 574 C 54.1467 -0.921689 4.72291 0
M  V30 575 C 56.4987 -0.607019 5.17653 0
M  V30 576 C 53.8267 -0.191996 5.86386 0
M  V30 577 C 56.1787 0.109241 6.32506 0
M  V30 578 C 54.8427 0.322073 6.66723 0
M  V30 579 H 54.1127 -0.353778 0.651093 0
M  V30 580 H 56.7597 -0.23634 1.90036 0
M  V30 581 H 55.0647 -2.64975 2.8861 0
M  V30 582 H 56.7617 -2.41635 3.20021 0
M  V30 583 H 53.3517 -1.29004 4.08725 0
M  V30 584 H 57.5357 -0.750153 4.90598 0
M  V30 585 H 52.7917 -0.0166949 6.11398 0
M  V30 586 H 56.9657 0.516737 6.9448 0
M  V30 587 H 54.5927 0.88944 7.54979 0
M  V30 588 N 56.1678 -1.49265 -0.50573 0
M  V30 589 C 57.0978 -1.68495 -1.61653 0
M  V30 590 C 58.0788 -0.53366 -1.61512 0
M  V30 591 O 59.2638 -0.76897 -1.78327 0
M  V30 592 C 56.3938 -1.74709 -3.00157 0
M  V30 593 C 55.3478 -2.89581 -3.15162 0
M  V30 594 C 54.6738 -2.80903 -4.5497 0
M  V30 595 C 55.9738 -4.30578 -2.95634 0
M  V30 596 H 57.6678 -2.61493 -1.45814 0
M  V30 597 H 55.2138 -1.25838 -0.70005 0
M  V30 598 H 57.1668 -1.86748 -3.77761 0
M  V30 599 H 55.8908 -0.783067 -3.17074 0
M  V30 600 H 54.5498 -2.77136 -2.39982 0
M  V30 601 H 54.1978 -1.82419 -4.68756 0
M  V30 602 H 53.8978 -3.57999 -4.65951 0
M  V30 603 H 55.4218 -2.94944 -5.34641 0
M  V30 604 H 56.8358 -4.4373 -3.63011 0
M  V30 605 H 55.2328 -5.0886 -3.18091 0
M  V30 606 H 56.3028 -4.45352 -1.91806 0
M  V30 607 N 57.6459 0.756429 -1.3826 0
M  V30 608 C 59.0619 1.0591 -1.19395 0
M  V30 609 C 59.2619 2.01459 -0.0406567 0
M  V30 610 O 58.3179 2.44909 0.614467 0
M  V30 611 C 59.6309 1.64191 -2.51916 0
M  V30 612 C 61.1789 1.76376 -2.58574 0
M  V30 613 C 61.6539 2.38069 -3.91264 0
M  V30 614 N 63.1449 2.45503 -3.92788 0
M  V30 615 C 63.8799 2.94126 -4.92217 0
M  V30 616 N 63.3759 3.42805 -6.02043 0
M  V30 617 N 65.1689 2.9314 -4.7961 0
M  V30 618 H 57.3199 0.122313 -2.12048 0
M  V30 619 H 59.5829 0.116892 -0.940766 0
M  V30 620 H 59.2889 1.01451 -3.3675 0
M  V30 621 H 59.1629 2.6329 -2.70108 0
M  V30 622 H 61.5499 2.38244 -1.74137 0
M  V30 623 H 61.6309 0.759894 -2.44252 0
M  V30 624 H 61.2749 1.76835 -4.76121 0
M  V30 625 H 61.2049 3.39091 -4.02895 0
M  V30 626 H 63.6959 2.1107 -3.13461 0
M  V30 627 H 64.0089 3.78354 -6.73846 0
M  V30 628 H 62.3539 3.4087 -6.05667 0
M  V30 629 H 65.5449 2.54419 -3.92923 0
M  V30 630 H 65.7179 3.30721 -5.5725 0
M  V30 631 N 59.124 1.23083 0.984299 0
M  V30 632 C 60.054 1.03292 2.09411 0
M  V30 633 C 61.035 -0.048923 1.7003 0
M  V30 634 O 62.22 0.114967 1.93859 0
M  V30 635 C 59.35 0.619155 3.41736 0
M  V30 636 C 58.304 1.64791 3.95004 0
M  V30 637 C 57.63 1.0897 5.23478 0
M  V30 638 C 58.93 3.03999 4.24714 0
M  V30 639 H 60.624 1.96119 2.26225 0
M  V30 640 H 58.17 0.944344 1.08711 0
M  V30 641 H 60.123 0.467777 4.18796 0
M  V30 642 H 58.847 -0.344786 3.24775 0
M  V30 643 H 57.506 1.78721 3.20085 0
M  V30 644 H 57.154 0.11686 5.02864 0
M  V30 645 H 56.854 1.77704 5.60085 0
M  V30 646 H 58.378 0.950093 6.03163 0
M  V30 647 H 59.792 2.93393 4.92538 0
M  V30 648 H 58.189 3.69936 4.72512 0
M  V30 649 H 59.259 3.53285 3.32142 0
M  V30 650 N 60.6021 -1.18246 1.0419 0
M  V30 651 C 61.5341 -2.2142 0.592088 0
M  V30 652 C 62.5471 -1.59233 -0.338909 0
M  V30 653 O 63.7361 -1.78002 -0.133231 0
M  V30 654 C 60.8361 -3.38546 -0.154854 0
M  V30 655 C 60.0091 -4.3031 0.784328 0
M  V30 656 C 59.0681 -5.26138 0.0804583 0
M  V30 657 O 58.0941 -5.64738 0.711292 0
M  V30 658 N 59.2961 -5.68261 -1.18574 0
M  V30 659 H 62.0611 -2.60636 1.47949 0
M  V30 660 H 59.6221 -1.33044 0.922544 0
M  V30 661 H 61.6141 -3.99678 -0.635606 0
M  V30 662 H 60.1841 -2.98012 -0.943811 0
M  V30 663 H 59.4041 -3.66764 1.44491 0
M  V30 664 H 60.6921 -4.8852 1.42218 0
M  V30 665 H 60.0901 -5.38957 -1.71876 0
M  V30 666 H 58.6471 -6.31584 -1.61074 0
M  V30 667 N 62.0802 -0.821533 -1.34494 0
M  V30 668 C 63.4912 -0.467956 -1.8074 0
M  V30 669 C 63.8422 1.01151 -1.68116 0
M  V30 670 O 62.9672 1.78707 -1.22036 0
M  V30 671 C 63.5622 -0.842627 -3.28154 0
M  V30 672 C 62.1212 -0.541439 -3.72485 0
M  V30 673 C 61.2682 -1.06028 -2.56229 0
M  V30 674 H 64.2192 -1.01183 -1.22261 0
M  V30 675 H 64.2402 -0.145876 -3.8022 0
M  V30 676 H 63.7522 -1.91945 -3.37311 0
M  V30 677 H 61.8532 0.526034 -3.68868 0
M  V30 678 H 61.9662 -1.08453 -4.66663 0
M  V30 679 H 60.3302 -0.481892 -2.501 0
M  V30 680 H 61.1132 -2.14352 -2.68157 0
M  V30 681 N 63.5583 1.46682 -0.576371 0
M  V30 682 C 64.5083 2.27278 0.181288 0
M  V30 683 C 65.4923 1.35497 0.867721 0
M  V30 684 O 66.6843 1.59717 0.762863 0
M  V30 685 C 63.8133 3.21703 1.19841 0
M  V30 686 C 62.8993 4.20969 0.51442 0
M  V30 687 N 63.2903 5.03999 -0.426407 0
M  V30 688 C 61.5883 4.39373 0.765963 0
M  V30 689 C 62.2893 5.75812 -0.825565 0
M  V30 690 N 61.2653 5.43315 -0.176116 0
M  V30 691 H 65.0673 2.88863 -0.541785 0
M  V30 692 H 62.5813 1.57455 -0.397697 0
M  V30 693 H 64.5783 3.78145 1.75533 0
M  V30 694 H 63.2383 2.61677 1.92238 0
M  V30 695 H 64.2493 5.11659 -0.8016 0
M  V30 696 H 60.9263 3.90502 1.47698 0
M  V30 697 H 62.3163 6.52577 -1.59976 0
M  V30 698 N 65.0364 0.313813 1.54444 0
M  V30 699 C 66.2614 -0.296681 2.05267 0
M  V30 700 C 66.6864 -1.45757 1.18897 0
M  V30 701 O 66.0444 -1.80239 0.195886 0
M  V30 702 C 66.0924 -0.71831 3.53373 0
M  V30 703 O 65.1964 -1.82175 3.69981 0
M  V30 704 H 64.5374 -0.0554061 0.661684 0
M  V30 705 H 67.0674 0.459387 1.99376 0
M  V30 706 H 67.0774 -1.00364 3.95463 0
M  V30 707 H 65.7524 0.130821 4.15694 0
M  V30 708 H 64.3294 -1.53598 3.39797 0
M  V30 709 N 66.5145 -1.57545 0.0417849 0
M  V30 710 C 67.4625 -2.12148 -0.953723 0
M  V30 711 C 68.4565 -1.05104 -1.32852 0
M  V30 712 O 69.6625 -1.23524 -1.30927 0
M  V30 713 H 66.0375 -0.677957 -0.325389 0
M  V30 714 H 68.0085 -2.94707 -0.467991 0
M  V30 715 C 66.7575 -2.6739 -2.22257 0
M  V30 716 H 66.0805 -3.49413 -1.94295 0
M  V30 717 H 67.5205 -3.09227 -2.90094 0
M  V30 718 C 65.9795 -1.60723 -2.96091 0
M  V30 719 O 66.5095 -1.01449 -3.88679 0
M  V30 720 N 64.7155 -1.32466 -2.58652 0
M  V30 721 H 64.2625 -1.80856 -1.83437 0
M  V30 722 H 64.2205 -0.61325 -3.08361 0
M  V30 723 N 67.9926 0.231505 -1.5589 0
M  V30 724 C 69.2406 0.955461 -1.78088 0
M  V30 725 C 69.5616 1.85262 -0.608533 0
M  V30 726 O 68.8316 1.92277 0.375035 0
M  V30 727 H 67.4116 0.355787 -0.656829 0
M  V30 728 H 70.0736 0.245751 -1.93344 0
M  V30 729 H 69.1696 1.56814 -2.69844 0
M  V30 730 N 69.4707 1.49531 0.497807 0
M  V30 731 C 70.4177 1.66436 1.59899 0
M  V30 732 C 71.3877 0.505793 1.58212 0
M  V30 733 O 72.5727 0.733202 1.7615 0
M  V30 734 C 69.7127 1.7399 2.98029 0
M  V30 735 C 68.8257 3.01172 3.09708 0
M  V30 736 C 67.9607 2.99686 4.38591 0
M  V30 737 C 66.9997 4.21434 4.43914 0
M  V30 738 N 66.1367 4.1784 5.64229 0
M  V30 739 H 70.9767 2.60459 1.44793 0
M  V30 740 H 68.5137 1.29137 0.704423 0
M  V30 741 H 70.4717 1.76352 3.78095 0
M  V30 742 H 69.1017 0.834301 3.11832 0
M  V30 743 H 68.1537 3.08408 2.22685 0
M  V30 744 H 69.4657 3.91165 3.09502 0
M  V30 745 H 68.6197 3.00628 5.2698 0
M  V30 746 H 67.3587 2.07477 4.41367 0
M  V30 747 H 66.3637 4.20733 3.53926 0
M  V30 748 H 67.5887 5.14839 4.42851 0
M  V30 749 H 65.5347 3.28469 5.67841 0
M  V30 750 H 65.4517 5.01571 5.65652 0
M  V30 751 H 66.7197 4.22889 6.54817 0
M  V30 752 N 70.9488 -0.749086 1.3866 0
M  V30 753 C 72.1948 -1.51056 1.35314 0
M  V30 754 C 72.5278 -1.94121 -0.0553751 0
M  V30 755 O 71.8028 -1.65763 -1.01749 0
M  V30 756 C 72.0858 -2.76003 2.31288 0
M  V30 757 C 71.9388 -2.39047 3.8102 0
M  V30 758 C 73.2578 -3.78046 2.2532 0
M  V30 759 H 70.3768 -0.547972 0.492844 0
M  V30 760 H 73.0188 -0.857628 1.69543 0
M  V30 761 H 71.1688 -3.31716 2.02229 0
M  V30 762 H 72.8408 -1.89074 4.20771 0
M  V30 763 H 71.0838 -1.71449 3.98482 0
M  V30 764 H 71.7548 -3.28462 4.4364 0
M  V30 765 H 74.2308 -3.31884 2.50983 0
M  V30 766 H 73.1068 -4.63159 2.94576 0
M  V30 767 H 73.3678 -4.23957 1.25352 0
M  V30 768 N 72.4269 -1.23603 -0.977757 0
M  V30 769 C 73.7039 -0.977897 -1.69401 0
M  V30 770 C 74.0839 0.502738 -2.05026 0
M  V30 771 O 73.4319 1.47459 -1.74551 0
M  V30 772 C 73.6419 -1.89077 -2.93345 0
M  V30 773 C 74.9899 -2.15579 -3.65802 0
M  V30 774 O 76.0139 -1.86648 -3.03383 0
M  V30 775 O 74.8729 -2.64658 -4.78141 0
M  V30 776 H 71.9669 -0.369025 -0.740101 0
M  V30 777 H 74.5129 -1.34657 -1.03274 0
M  V30 778 H 73.2849 -2.89158 -2.63634 0
M  V30 779 H 72.9079 -1.52463 -3.67207 0
M  V30 780 N 73.905 1.17692 -1.04816 0
M  V30 781 C 74.835 2.23777 -0.666791 0
M  V30 782 C 75.816 1.66796 0.33361 0
M  V30 783 O 77.001 1.93039 0.212042 0
M  V30 784 C 74.131 3.47281 -0.0367933 0
M  V30 785 C 73.085 4.17059 -0.961546 0
M  V30 786 C 72.411 5.34342 -0.195626 0
M  V30 787 C 73.711 4.69713 -2.28402 0
M  V30 788 H 75.405 2.55933 -1.55367 0
M  V30 789 H 72.951 1.23019 -0.748484 0
M  V30 790 H 74.904 4.20706 0.241775 0
M  V30 791 H 73.628 3.14381 0.885004 0
M  V30 792 H 72.287 3.45541 -1.22462 0
M  V30 793 H 71.935 4.97692 0.728816 0
M  V30 794 H 71.635 5.81966 -0.811775 0
M  V30 795 H 73.159 6.10553 0.0757473 0
M  V30 796 H 74.573 5.34794 -2.06563 0
M  V30 797 H 72.97 5.279 -2.8538 0
M  V30 798 H 74.04 3.86726 -2.92525 0
M  V30 799 N 75.3831 0.828654 1.34056 0
M  V30 800 C 76.6081 0.431637 2.02859 0
M  V30 801 C 77.0331 -0.956339 1.61975 0
M  V30 802 O 76.3911 -1.62338 0.807228 0
M  V30 803 C 76.4391 0.548323 3.56407 0
M  V30 804 O 75.5431 -0.429556 4.10157 0
M  V30 805 H 74.8841 0.176886 0.640006 0
M  V30 806 H 77.4141 1.12066 1.71179 0
M  V30 807 H 77.4241 0.426196 4.05768 0
M  V30 808 H 76.0991 1.5606 3.8551 0
M  V30 809 H 74.6761 -0.265836 3.71951 0
M  V30 810 N 76.8612 -1.46375 0.584142 0
M  V30 811 C 77.7912 -2.33103 -0.136037 0
M  V30 812 C 78.7722 -1.45431 -0.882255 0
M  V30 813 O 79.9572 -1.74246 -0.857434 0
M  V30 814 C 77.0872 -3.27731 -1.14933 0
M  V30 815 C 76.0412 -4.24855 -0.517862 0
M  V30 816 C 75.3672 -5.09001 -1.63773 0
M  V30 817 C 76.6672 -5.19439 0.545886 0
M  V30 818 H 78.3612 -2.93568 0.588086 0
M  V30 819 H 75.9072 -1.41166 0.284259 0
M  V30 820 H 77.8602 -3.87261 -1.66153 0
M  V30 821 H 76.5842 -2.65377 -1.90375 0
M  V30 822 H 75.2432 -3.6659 -0.0267361 0
M  V30 823 H 74.8912 -4.43031 -2.38185 0
M  V30 824 H 74.5912 -5.74777 -1.22085 0
M  V30 825 H 76.1152 -5.71396 -2.15266 0
M  V30 826 H 77.5292 -5.73177 0.118704 0
M  V30 827 H 75.9262 -5.93566 0.88317 0
M  V30 828 H 76.9962 -4.63285 1.43162 0
M  V30 829 N 78.3393 -0.321999 -1.54275 0
M  V30 830 C 79.7503 0.166384 -1.85957 0
M  V30 831 C 80.1013 1.51747 -1.24367 0
M  V30 832 O 79.2263 2.09317 -0.549124 0
M  V30 833 C 79.8213 0.308681 -3.37391 0
M  V30 834 C 78.3803 0.741286 -3.69028 0
M  V30 835 C 77.5273 -0.137937 -2.76957 0
M  V30 836 H 80.4783 -0.542335 -1.49146 0
M  V30 837 H 80.4993 1.13984 -3.63026 0
M  V30 838 H 80.0113 -0.674809 -3.82188 0
M  V30 839 H 78.1123 1.73458 -3.29762 0
M  V30 840 H 78.2253 0.546118 -4.75977 0
M  V30 841 H 76.5893 0.386251 -2.51754 0
M  V30 842 H 77.3723 -1.11816 -3.2458 0
M  V30 843 N 79.8174 1.5752 -0.0501392 0
M  V30 844 C 80.7654 2.12651 0.942459 0
M  V30 845 C 81.7594 1.05807 1.32292 0
M  V30 846 O 82.9654 1.24217 1.3027 0
M  V30 847 H 79.3404 0.679673 0.321789 0
M  V30 848 H 81.3114 2.94951 0.452356 0
M  V30 849 C 80.0604 2.68565 2.20836 0
M  V30 850 H 79.3834 3.50439 1.92439 0
M  V30 851 H 80.8234 3.10761 2.8845 0
M  V30 852 C 79.2824 1.62291 2.95234 0
M  V30 853 O 79.8124 1.03508 3.88135 0
M  V30 854 N 78.0184 1.33836 2.57946 0
M  V30 855 H 77.5654 1.81826 1.82475 0
M  V30 856 H 77.5234 0.629595 3.08032 0
M  V30 857 N 81.2955 -0.223234 1.56011 0
M  V30 858 C 82.5445 -0.945912 1.78144 0
M  V30 859 C 82.8575 -1.85567 0.618396 0
M  V30 860 O 84.0635 -2.61688 0.723318 0
M  V30 861 C 82.5195 -1.73216 3.15475 0
M  V30 862 C 82.1275 -0.868619 4.39499 0
M  V30 863 C 83.8715 -2.44615 3.46935 0
M  V30 864 C 81.7785 -1.65212 5.67855 0
M  V30 865 H 80.7085 -0.356929 0.664167 0
M  V30 866 H 83.3595 -0.199845 1.82409 0
M  V30 867 H 81.7415 -2.52107 3.05382 0
M  V30 868 H 82.9155 -0.120366 4.60643 0
M  V30 869 H 81.2305 -0.26683 4.15544 0
M  V30 870 H 83.8275 -3.03732 4.40058 0
M  V30 871 H 84.1705 -3.17417 2.69355 0
M  V30 872 H 84.7035 -1.72715 3.58349 0
M  V30 873 H 81.4425 -0.967407 6.48322 0
M  V30 874 H 80.9625 -2.37503 5.50774 0
M  V30 875 H 82.6415 -2.21322 6.07968 0
M  V30 876 N 82.7736 -1.49793 -0.48987 0
M  V30 877 C 84.0216 -1.59525 -1.24081 0
M  V30 878 C 84.3426 -0.288953 -1.92847 0
M  V30 879 O 83.6126 0.692436 -1.83254 0
M  V30 880 H 82.1926 -0.587796 -0.460983 0
M  V30 881 H 84.8546 -1.86477 -0.566778 0
M  V30 882 H 83.9506 -2.39696 -1.99881 0
M  V30 883 N 84.2517 0.741722 -1.39055 0
M  V30 884 C 85.5007 1.49656 -1.35225 0
M  V30 885 C 85.8137 1.95533 0.0512708 0
M  V30 886 O 87.0197 2.7067 0.212138 0
M  V30 887 C 85.4757 2.70389 -2.37525 0
M  V30 888 C 85.0837 2.31489 -3.83558 0
M  V30 889 C 86.8277 3.48236 -2.42759 0
M  V30 890 C 84.7347 3.48903 -4.77515 0
M  V30 891 H 83.6647 0.56197 -0.502699 0
M  V30 892 H 86.3157 0.809727 -1.64668 0
M  V30 893 H 84.6977 3.41113 -2.01142 0
M  V30 894 H 85.8717 1.68354 -4.28945 0
M  V30 895 H 84.1867 1.66749 -3.81554 0
M  V30 896 H 86.7837 4.35558 -3.1015 0
M  V30 897 H 87.1267 3.90229 -1.45008 0
M  V30 898 H 87.6597 2.84535 -2.78002 0
M  V30 899 H 84.3987 3.11966 -5.76504 0
M  V30 900 H 83.9187 4.11041 -4.36813 0
M  V30 901 H 85.5977 4.15328 -4.96096 0
M  V30 902 N 85.7298 1.2412 0.971189 0
M  V30 903 C 86.6768 1.0305 2.06517 0
M  V30 904 C 87.6468 -0.0550666 1.66009 0
M  V30 905 O 88.8318 0.0988688 1.90544 0
M  V30 906 C 85.9718 0.637653 3.39158 0
M  V30 907 C 85.0848 1.79633 3.92882 0
M  V30 908 C 84.2198 1.34939 5.13775 0
M  V30 909 C 83.2588 2.47823 5.59687 0
M  V30 910 N 82.3958 2.04022 6.71803 0
M  V30 911 H 87.2358 1.96685 2.23873 0
M  V30 912 H 84.7728 0.979694 1.09729 0
M  V30 913 H 86.7308 0.390931 4.15364 0
M  V30 914 H 85.3608 -0.261693 3.21737 0
M  V30 915 H 84.4128 2.15681 3.13346 0
M  V30 916 H 85.7248 2.64466 4.22918 0
M  V30 917 H 84.8788 1.06134 5.97345 0
M  V30 918 H 83.6178 0.471557 4.85415 0
M  V30 919 H 82.6228 2.77392 4.74693 0
M  V30 920 H 83.8478 3.36158 5.90063 0
M  V30 921 H 81.7938 1.18632 6.45184 0
M  V30 922 H 81.7108 2.82409 7.01271 0
M  V30 923 H 82.9788 1.78347 7.58823 0
M  V30 924 N 87.2079 -1.17134 1.05439 0
M  V30 925 C 88.6239 -1.39454 0.776201 0
M  V30 926 C 88.8239 -1.91454 -0.628307 0
M  V30 927 O 87.8799 -2.10777 -1.39031 0
M  V30 928 C 89.1929 -2.38305 1.83388 0
M  V30 929 C 90.7409 -2.52006 1.85639 0
M  V30 930 C 91.2159 -3.54133 2.90437 0
M  V30 931 N 92.7069 -3.61653 2.89415 0
M  V30 932 C 93.4419 -4.4044 3.67152 0
M  V30 933 N 92.9379 -5.22721 4.54681 0
M  V30 934 N 94.7309 -4.35337 3.55581 0
M  V30 935 H 86.8819 -0.817134 1.96053 0
M  V30 936 H 89.1449 -0.421626 0.849079 0
M  V30 937 H 88.8509 -2.07173 2.84204 0
M  V30 938 H 88.7249 -3.37841 1.67761 0
M  V30 939 H 91.1119 -2.82447 0.85486 0
M  V30 940 H 91.1929 -1.52537 2.05344 0
M  V30 941 H 90.8369 -3.24431 3.90777 0
M  V30 942 H 90.7669 -4.53313 2.67983 0
M  V30 943 H 93.2579 -3.02909 2.25952 0
M  V30 944 H 93.5709 -5.80027 5.10674 0
M  V30 945 H 91.9159 -5.22093 4.58741 0
M  V30 946 H 95.1069 -3.70112 2.86592 0
M  V30 947 H 95.2799 -4.96494 4.1641 0
M  V30 948 N 88.686 -0.835752 -1.33615 0
M  V30 949 C 89.649 -0.272 -2.2758 0
M  V30 950 C 90.649 0.557487 -1.50827 0
M  V30 951 O 91.839 0.37173 -1.70188 0
M  V30 952 C 88.971 0.617173 -3.35267 0
M  V30 953 H 90.164 -1.10111 -2.78954 0
M  V30 954 H 87.717 -0.608594 -1.43965 0
M  V30 955 H 88.452 1.46884 -2.89129 0
M  V30 956 H 88.237 0.0237066 -3.92093 0
M  V30 957 H 89.727 1.005 -4.05326 0
M  V30 958 N 90.1641 1.46063 -0.591896 0
M  V30 959 C 91.4101 2.03203 -0.0894879 0
M  V30 960 C 91.7651 1.45407 1.25994 0
M  V30 961 O 91.0581 0.61326 1.8152 0
M  V30 962 C 91.2521 3.57391 0.0249813 0
M  V30 963 C 91.0811 4.30142 -1.3118 0
M  V30 964 C 89.8511 4.68688 -1.88838 0
M  V30 965 C 92.0491 4.63098 -2.23708 0
M  V30 966 N 90.0311 5.26228 -3.1616 0
M  V30 967 C 91.4021 5.21305 -3.3562 0
M  V30 968 C 93.4571 4.45031 -2.23274 0
M  V30 969 C 92.1601 5.63351 -4.47245 0
M  V30 970 C 94.1861 4.881 -3.33935 0
M  V30 971 C 93.5481 5.46386 -4.44569 0
M  V30 972 H 89.6471 0.778323 -0.0757431 0
M  V30 973 H 92.2311 1.78094 -0.78681 0
M  V30 974 H 90.4021 3.82195 0.69149 0
M  V30 975 H 92.1341 4.0118 0.532613 0
M  V30 976 H 88.8891 4.5174 -1.42223 0
M  V30 977 H 89.3131 5.59512 -3.8115 0
M  V30 978 H 93.9551 3.99295 -1.39008 0
M  V30 979 H 91.6731 6.08061 -5.32247 0
M  V30 980 H 95.2591 4.75866 -3.34728 0
M  V30 981 H 94.1391 5.79102 -5.28782 0
M  V30 982 N 91.6422 0.330177 1.54103 0
M  V30 983 C 92.9192 -0.325007 1.92881 0
M  V30 984 C 93.2992 -1.6934 1.26045 0
M  V30 985 O 92.6472 -2.24855 0.406526 0
M  V30 986 C 92.8572 -0.410634 3.46576 0
M  V30 987 C 94.2052 -0.667801 4.19316 0
M  V30 988 O 95.2292 -0.49329 3.52768 0
M  V30 989 O 94.0882 -1.00491 5.37181 0
M  V30 990 H 91.1822 -0.186873 0.80561 0
M  V30 991 H 93.7282 0.380376 1.65382 0
M  V30 992 H 92.5002 0.550164 3.87413 0
M  V30 993 H 92.1232 -1.16333 3.802 0
M  V30 994 N 93.1203 -1.57491 0.0584922 0
M  V30 995 C 94.3663 -1.93264 -0.614558 0
M  V30 996 C 94.6993 -0.937717 -1.7006 0
M  V30 997 O 93.9743 0.0351652 -1.94468 0
M  V30 998 C 94.2573 -3.3938 -1.20386 0
M  V30 999 C 94.1103 -4.49625 -0.125375 0
M  V30 1000 C 95.4293 -3.86039 -2.11334 0
M  V30 1001 H 92.5483 -0.702791 -0.221933 0
M  V30 1002 H 95.1903 -1.8961 0.12175 0
M  V30 1003 H 93.3403 -3.42626 -1.83139 0
M  V30 1004 H 95.0123 -4.58506 0.506971 0
M  V30 1005 H 93.2553 -4.30354 0.545672 0
M  V30 1006 H 93.9263 -5.48967 -0.577861 0
M  V30 1007 H 96.4023 -3.84716 -1.58534 0
M  V30 1008 H 95.2783 -4.88914 -2.49507 0
M  V30 1009 H 95.5393 -3.23215 -3.01636 0
M  V30 1010 N 94.5984 0.214957 -1.56127 0
M  V30 1011 C 95.5614 1.24997 -1.92116 0
M  V30 1012 C 96.5614 1.39467 -0.800344 0
M  V30 1013 O 97.7514 1.37619 -1.06802 0
M  V30 1014 C 94.8834 2.62271 -2.17777 0
M  V30 1015 H 96.0764 0.942875 -2.84693 0
M  V30 1016 H 93.6294 0.455654 -1.49511 0
M  V30 1017 H 94.3644 2.98068 -1.27773 0
M  V30 1018 H 94.1494 2.53143 -2.99434 0
M  V30 1019 H 95.6394 3.36946 -2.46693 0
M  V30 1020 N 96.0765 1.50051 0.48192 0
M  V30 1021 C 97.4925 1.37237 0.814756 0
M  V30 1022 C 97.6925 0.420109 1.97072 0
M  V30 1023 O 96.7485 -0.141246 2.52105 0
M  V30 1024 C 98.0615 2.78375 1.13701 0
M  V30 1025 C 99.6095 2.87213 1.2441 0
M  V30 1026 C 100.084 4.29161 1.59954 0
M  V30 1027 N 101.575 4.32061 1.66967 0
M  V30 1028 C 102.31 5.38879 1.95952 0
M  V30 1029 N 101.806 6.55918 2.23031 0
M  V30 1030 N 103.599 5.26312 1.97363 0
M  V30 1031 H 95.7505 2.10546 -0.28005 0
M  V30 1032 H 98.0135 0.945921 -0.0627454 0
M  V30 1033 H 97.7195 3.49845 0.360787 0
M  V30 1034 H 97.5935 3.14941 2.07586 0
M  V30 1035 H 99.9805 2.15969 2.01101 0
M  V30 1036 H 100.061 2.54204 0.285299 0
M  V30 1037 H 99.7055 5.00938 0.838067 0
M  V30 1038 H 99.6355 4.59648 2.56966 0
M  V30 1039 H 102.126 3.47661 1.48123 0
M  V30 1040 H 102.439 7.33139 2.44391 0
M  V30 1041 H 100.784 6.59112 2.20447 0
M  V30 1042 H 103.975 4.33876 1.75697 0
M  V30 1043 H 104.148 6.09649 2.19618 0
M  V30 1044 N 97.5546 -0.734337 1.39446 0
M  V30 1045 C 98.4846 -1.86155 1.40955 0
M  V30 1046 C 99.4656 -1.67898 0.272827 0
M  V30 1047 O 100.651 -1.88207 0.478743 0
M  V30 1048 C 97.7806 -3.23912 1.25294 0
M  V30 1049 C 96.7346 -3.56808 2.36373 0
M  V30 1050 C 96.0606 -4.93508 2.058 0
M  V30 1051 C 97.3606 -3.59713 3.78687 0
M  V30 1052 H 99.0546 -1.8515 2.35287 0
M  V30 1053 H 96.6006 -0.889367 1.13253 0
M  V30 1054 H 98.5536 -4.02443 1.2497 0
M  V30 1055 H 97.2776 -3.25446 0.274308 0
M  V30 1056 H 95.9366 -2.80606 2.35914 0
M  V30 1057 H 95.5846 -4.91623 1.06374 0
M  V30 1058 H 95.2846 -5.16486 2.80208 0
M  V30 1059 H 96.8086 -5.74396 2.07128 0
M  V30 1060 H 98.2226 -4.2832 3.81071 0
M  V30 1061 H 96.6196 -3.94209 4.52459 0
M  V30 1062 H 97.6896 -2.59504 4.09617 0
M  V30 1063 N 99.0327 -1.24633 -0.964593 0
M  V30 1064 C 99.9647 -0.999302 -2.06268 0
M  V30 1065 C 100.978 0.0323226 -1.62768 0
M  V30 1066 O 102.167 -0.205079 -1.77318 0
M  V30 1067 C 99.2667 -0.486816 -3.35385 0
M  V30 1068 C 98.4397 -1.5823 -4.07777 0
M  V30 1069 C 97.4987 -1.07191 -5.15166 0
M  V30 1070 O 96.5247 -1.76426 -5.41168 0
M  V30 1071 N 97.7267 0.0920373 -5.80427 0
M  V30 1072 H 100.492 -1.94477 -2.28033 0
M  V30 1073 H 98.0527 -1.15704 -1.13244 0
M  V30 1074 H 100.045 -0.130066 -4.04491 0
M  V30 1075 H 98.6147 0.364459 -3.10468 0
M  V30 1076 H 97.8347 -2.11109 -3.32906 0
M  V30 1077 H 99.1227 -2.31854 -4.52903 0
M  V30 1078 H 98.5207 0.670784 -5.61709 0
M  V30 1079 H 97.0777 0.389905 -6.50633 0
M  V30 1080 N 100.511 1.16574 -1.06058 0
M  V30 1081 C 101.736 1.91493 -0.796562 0
M  V30 1082 C 102.161 1.76773 0.642868 0
M  V30 1083 O 101.519 1.09142 1.44768 0
M  V30 1084 C 101.567 3.40293 -1.19303 0
M  V30 1085 O 100.671 4.11074 -0.330394 0
M  V30 1086 H 100.012 0.596678 -0.291326 0
M  V30 1087 H 102.542 1.47708 -1.41575 0
M  V30 1088 H 102.552 3.91057 -1.16356 0
M  V30 1089 H 101.227 3.50326 -2.24153 0
M  V30 1090 H 99.8038 3.70513 -0.421225 0
M  V30 1091 N 101.989 0.842826 1.3317 0
M  V30 1092 C 102.919 0.294028 2.31641 0
M  V30 1093 C 103.9 -0.600401 1.59151 0
M  V30 1094 O 105.085 -0.523124 1.87022 0
M  V30 1095 C 102.215 -0.528416 3.43257 0
M  V30 1096 C 101.169 0.27056 4.27144 0
M  V30 1097 C 100.495 -0.675881 5.30411 0
M  V30 1098 C 101.795 1.48981 5.00602 0
M  V30 1099 H 103.489 1.11681 2.77791 0
M  V30 1100 H 101.035 0.538478 1.33553 0
M  V30 1101 H 102.988 -0.922674 4.11175 0
M  V30 1102 H 101.712 -1.38445 2.95805 0
M  V30 1103 H 100.371 0.646427 3.60856 0
M  V30 1104 H 100.019 -1.52842 4.79216 0
M  V30 1105 H 99.7189 -0.145374 5.8742 0
M  V30 1106 H 101.243 -1.06757 6.01195 0
M  V30 1107 H 102.657 1.16849 5.61266 0
M  V30 1108 H 101.054 1.95739 5.6728 0
M  V30 1109 H 102.124 2.25746 4.29147 0
M  V30 1110 N 103.467 -1.45747 0.599634 0
M  V30 1111 C 104.744 -1.95585 0.0240846 0
M  V30 1112 C 105.124 -1.54217 -1.44154 0
M  V30 1113 O 104.472 -0.800903 -2.14004 0
M  V30 1114 C 104.682 -3.48344 0.21385 0
M  V30 1115 C 106.03 -4.24504 0.0904902 0
M  V30 1116 O 107.054 -3.55911 0.143558 0
M  V30 1117 O 105.913 -5.46491 -0.0310766 0
M  V30 1118 H 103.007 -0.82602 -0.0402478 0
M  V30 1119 H 105.553 -1.55951 0.669139 0
M  V30 1120 H 104.325 -3.71397 1.23206 0
M  V30 1121 H 103.948 -3.9485 -0.466842 0
M  V30 1122 N 104.945 -0.338344 -1.53925 0
M  V30 1123 C 106.173 0.261298 -2.05243 0
M  V30 1124 C 106.588 1.44625 -1.21363 0
M  V30 1125 O 105.945 1.80811 -0.247736 0
M  V30 1126 C 105.996 0.681412 -3.5502 0
M  V30 1127 O 105.717 -0.456414 -4.35716 0
M  V30 1128 C 107.218 1.34232 -4.22489 0
M  V30 1129 H 104.438 0.0513685 -0.669031 0
M  V30 1130 H 106.982 -0.488822 -1.98572 0
M  V30 1131 H 105.137 1.38148 -3.61931 0
M  V30 1132 H 105.551 -0.122564 -5.24357 0
M  V30 1133 H 107.025 1.58708 -5.28693 0
M  V30 1134 H 107.502 2.29426 -3.74514 0
M  V30 1135 H 108.108 0.684424 -4.19757 0
M  V30 1136 N 106.423 1.57458 -0.0668435 0
M  V30 1137 C 107.648 1.9804 0.616027 0
M  V30 1138 C 108.073 0.944771 1.62652 0
M  V30 1139 O 107.431 -0.0902094 1.81075 0
M  V30 1140 C 107.479 3.37665 1.26549 0
M  V30 1141 O 106.583 3.36701 2.38131 0
M  V30 1142 H 105.924 0.644719 0.158849 0
M  V30 1143 H 108.454 2.04121 -0.139891 0
M  V30 1144 H 108.464 3.7474 1.6135 0
M  V30 1145 H 107.139 4.12573 0.525016 0
M  V30 1146 H 105.716 3.1139 2.0516 0
M  V30 1147 N 107.901 -0.206675 1.56239 0
M  V30 1148 C 109.148 -0.928842 1.79941 0
M  V30 1149 C 109.476 -1.83734 0.638131 0
M  V30 1150 O 108.731 -1.92039 -0.376746 0
M  V30 1151 C 109.03 -1.78675 3.09532 0
M  V30 1152 C 108.696 -1.03022 4.38973 0
M  V30 1153 C 107.358 -0.821302 4.74139 0
M  V30 1154 C 109.71 -0.497081 5.18824 0
M  V30 1155 C 107.038 -0.0675719 5.86661 0
M  V30 1156 C 109.39 0.24338 6.32132 0
M  V30 1157 C 108.054 0.463422 6.65889 0
M  V30 1158 H 107.324 -0.339887 0.658451 0
M  V30 1159 H 109.971 -0.195977 1.90495 0
M  V30 1160 H 108.276 -2.58794 2.94165 0
M  V30 1161 H 109.973 -2.34792 3.25075 0
M  V30 1162 H 106.563 -1.20306 4.11369 0
M  V30 1163 H 110.747 -0.645921 4.92079 0
M  V30 1164 H 106.003 0.112995 6.11296 0
M  V30 1165 H 110.177 0.66393 6.93228 0
M  V30 1166 H 107.804 1.04938 7.52922 0
M  V30 1167 N 109.379 -1.50304 -0.473955 0
M  V30 1168 C 110.309 -1.71886 -1.58042 0
M  V30 1169 C 111.29 -0.567799 -1.60344 0
M  V30 1170 O 112.475 -0.806623 -1.76656 0
M  V30 1171 C 109.605 -1.81036 -2.96384 0
M  V30 1172 C 108.559 -2.962 -3.08949 0
M  V30 1173 C 107.885 -2.9049 -4.48909 0
M  V30 1174 C 109.185 -4.36752 -2.86434 0
M  V30 1175 H 110.879 -2.64527 -1.40234 0
M  V30 1176 H 108.425 -1.27295 -0.673201 0
M  V30 1177 H 110.378 -1.94719 -3.73714 0
M  V30 1178 H 109.102 -0.850147 -3.15341 0
M  V30 1179 H 107.761 -2.82164 -2.3405 0
M  V30 1180 H 107.409 -1.92321 -4.64781 0
M  V30 1181 H 107.109 -3.67802 -4.58253 0
M  V30 1182 H 108.633 -3.06218 -5.28264 0
M  V30 1183 H 110.047 -4.5133 -3.53517 0
M  V30 1184 H 108.444 -5.15493 -3.07225 0
M  V30 1185 H 109.514 -4.49321 -1.82316 0
M  V30 1186 N 110.857 0.726932 -1.39834 0
M  V30 1187 C 111.767 1.87131 -1.41489 0
M  V30 1188 C 112.783 1.71239 -0.308757 0
M  V30 1189 O 113.959 1.93701 -0.551529 0
M  V30 1190 C 111.024 3.22811 -1.26468 0
M  V30 1191 C 110.085 3.51039 -2.47124 0
M  V30 1192 C 109.318 4.80245 -2.3281 0
M  V30 1193 O 109.541 5.54537 -1.33585 0
M  V30 1194 O 108.475 5.08554 -3.21957 0
M  V30 1195 H 112.301 1.8869 -2.3797 0
M  V30 1196 H 109.886 0.875837 -1.21035 0
M  V30 1197 H 111.768 4.03877 -1.20255 0
M  V30 1198 H 110.443 3.22005 -0.330862 0
M  V30 1199 H 109.35 2.70027 -2.58914 0
M  V30 1200 H 110.683 3.56632 -3.39227 0
M  V30 1201 N 112.336 1.25143 0.95797 0
M  V30 1202 C 113.268 1.01023 2.05735 0
M  V30 1203 C 114.281 -0.0236902 1.62783 0
M  V30 1204 O 115.47 0.21448 1.77207 0
M  V30 1205 C 112.57 0.504595 3.35122 0
M  V30 1206 C 111.743 1.6039 4.06932 0
M  V30 1207 C 110.802 1.09922 5.14591 0
M  V30 1208 O 109.828 1.79293 5.40225 0
M  V30 1209 N 111.03 -0.0612545 5.80468 0
M  V30 1210 H 113.795 1.95683 2.26998 0
M  V30 1211 H 111.356 1.16303 1.12629 0
M  V30 1212 H 113.348 0.151516 4.04416 0
M  V30 1213 H 111.918 -0.347989 3.10657 0
M  V30 1214 H 111.138 2.12872 3.31782 0
M  V30 1215 H 112.426 2.34252 4.51667 0
M  V30 1216 H 111.824 -0.640985 5.62057 0
M  V30 1217 H 110.381 -0.355395 6.5083 0
M  V30 1218 N 113.814 -1.1601 1.06675 0
M  V30 1219 C 115.062 -1.86264 0.784229 0
M  V30 1220 C 115.383 -1.82328 -0.691488 0
M  V30 1221 O 114.653 -1.25947 -1.50047 0
M  V30 1222 H 113.233 -0.689621 0.28711 0
M  V30 1223 H 115.895 -1.40664 1.34906 0
M  V30 1224 H 114.991 -2.91595 1.11259 0
M  V30 1225 N 115.292 -0.849877 -1.32721 0
M  V30 1226 C 116.569 -0.372405 -1.92022 0
M  V30 1227 C 116.949 1.1435 -1.77447 0
M  V30 1228 O 116.297 1.96296 -1.16962 0
M  V30 1229 C 116.507 -0.831482 -3.3895 0
M  V30 1230 C 117.855 -0.845882 -4.16089 0
M  V30 1231 O 118.879 -0.775806 -3.47649 0
M  V30 1232 O 117.738 -0.943753 -5.38289 0
M  V30 1233 H 114.832 -0.107667 -0.819961 0
M  V30 1234 H 117.378 -0.93646 -1.41522 0
M  V30 1235 H 116.15 -1.87448 -3.4348 0
M  V30 1236 H 115.773 -0.24461 -3.96847 0
M  V30 1237 N 116.77 1.45427 -0.607355 0
M  V30 1238 C 118.016 2.0254 -0.102607 0
M  V30 1239 C 118.349 1.47478 1.26348 0
M  V30 1240 O 117.624 0.64939 1.83339 0
M  V30 1241 C 117.907 3.60044 -0.0634347 0
M  V30 1242 C 117.76 4.2544 -1.46017 0
M  V30 1243 C 119.079 4.35646 0.624514 0
M  V30 1244 H 116.198 0.73598 -0.0387607 0
M  V30 1245 H 118.84 1.73284 -0.779282 0
M  V30 1246 H 116.99 3.85101 0.512808 0
M  V30 1247 H 118.662 4.11569 -2.08347 0
M  V30 1248 H 116.905 3.83849 -2.02094 0
M  V30 1249 H 117.576 5.34342 -1.385 0
M  V30 1250 H 120.052 4.15882 0.134723 0
M  V30 1251 H 118.928 5.45376 0.621028 0
M  V30 1252 H 119.189 4.08501 1.69055 0
M  V30 1253 N 118.248 0.346503 1.53744 0
M  V30 1254 C 119.476 -0.25041 2.05379 0
M  V30 1255 C 119.891 -1.43979 1.22129 0
M  V30 1256 O 119.248 -1.80677 0.257321 0
M  V30 1257 C 119.299 -0.662575 3.55376 0
M  V30 1258 O 119.02 0.479515 4.35468 0
M  V30 1259 C 120.521 -1.31989 4.23195 0
M  V30 1260 H 117.741 -0.0478198 0.669294 0
M  V30 1261 H 120.285 0.499346 1.9831 0
M  V30 1262 H 118.44 -1.36227 3.62658 0
M  V30 1263 H 118.854 0.15037 5.24284 0
M  V30 1264 H 120.328 -1.55902 5.29527 0
M  V30 1265 H 120.805 -2.27436 3.75725 0
M  V30 1266 H 121.411 -0.662154 4.20114 0
M  V30 1267 N 119.726 -1.57421 0.075193 0
M  V30 1268 C 120.954 -1.97946 -0.602076 0
M  V30 1269 C 121.369 -0.953674 -1.62943 0
M  V30 1270 O 120.726 0.0592551 -1.82404 0
M  V30 1271 C 120.777 -3.38546 -1.26762 0
M  V30 1272 O 120.498 -4.37195 -0.281376 0
M  V30 1273 C 121.999 -3.93966 -2.03239 0
M  V30 1274 H 119.219 -0.650918 -0.162931 0
M  V30 1275 H 121.763 -2.03959 0.148601 0
M  V30 1276 H 119.918 -3.33609 -1.96936 0
M  V30 1277 H 120.332 -5.18975 -0.759267 0
M  V30 1278 H 121.806 -4.94555 -2.45193 0
M  V30 1279 H 122.283 -3.30693 -2.8903 0
M  V30 1280 H 122.889 -4.02315 -1.37924 0
M  V30 1281 N 121.204 0.198386 -1.56346 0
M  V30 1282 C 122.615 0.763358 -1.70381 0
M  V30 1283 C 122.966 1.83995 -0.681203 0
M  V30 1284 O 122.091 2.15785 0.16305 0
M  V30 1285 C 122.686 1.39143 -3.08909 0
M  V30 1286 C 121.245 1.90352 -3.2472 0
M  V30 1287 C 120.392 0.772233 -2.6633 0
M  V30 1288 H 123.343 -0.0266377 -1.58678 0
M  V30 1289 H 123.364 2.26076 -3.06055 0
M  V30 1290 H 122.876 0.607638 -3.83314 0
M  V30 1291 H 120.977 2.71461 -2.55225 0
M  V30 1292 H 121.09 2.06757 -4.3219 0
M  V30 1293 H 119.454 1.18566 -2.2542 0
M  V30 1294 H 120.237 0.00073556 -3.433 0
M  V30 1295 N 122.682 1.50554 0.465978 0
M  V30 1296 C 123.91 1.65563 1.24083 0
M  V30 1297 C 124.325 0.341051 1.85694 0
M  V30 1298 O 123.682 -0.677543 1.69457 0
M  V30 1299 C 123.733 2.75051 2.34583 0
M  V30 1300 O 123.454 4.01413 1.75497 0
M  V30 1301 C 124.955 3.01078 3.25372 0
M  V30 1302 H 122.175 0.55638 0.375077 0
M  V30 1303 H 124.719 1.96807 0.555624 0
M  V30 1304 H 122.874 2.46486 2.9887 0
M  V30 1305 H 123.288 4.62002 2.48303 0
M  V30 1306 H 124.762 3.81339 3.99105 0
M  V30 1307 H 125.239 2.12349 3.84453 0
M  V30 1308 H 125.845 3.31194 2.66816 0
M  V30 1309 N 124.16 -0.719506 1.40217 0
M  V30 1310 C 125.385 -1.51371 1.4178 0
M  V30 1311 C 125.81 -1.88091 0.0182355 0
M  V30 1312 O 125.168 -1.52997 -0.972707 0
M  V30 1313 C 125.216 -2.768 2.31115 0
M  V30 1314 O 124.32 -3.73349 1.7517 0
M  V30 1315 H 123.661 -0.456529 0.482159 0
M  V30 1316 H 126.191 -0.88644 1.844 0
M  V30 1317 H 126.201 -3.25371 2.46167 0
M  V30 1318 H 124.876 -2.49407 3.3282 0
M  V30 1319 H 123.453 -3.32179 1.69444 0
M  V30 1320 N 125.638 -1.25649 -0.95132 0
M  V30 1321 C 126.548 -1.08073 -2.08224 0
M  V30 1322 C 127.564 -0.0169666 -1.73992 0
M  V30 1323 O 128.74 -0.218593 -2.0021 0
M  V30 1324 C 125.805 -0.704922 -3.39458 0
M  V30 1325 C 124.866 -1.84699 -3.87537 0
M  V30 1326 C 124.099 -1.48902 -5.12508 0
M  V30 1327 O 124.322 -0.386156 -5.69091 0
M  V30 1328 O 123.256 -2.32033 -5.55378 0
M  V30 1329 H 127.082 -2.02924 -2.25954 0
M  V30 1330 H 124.667 -1.04618 -1.06656 0
M  V30 1331 H 126.549 -0.507609 -4.18332 0
M  V30 1332 H 125.224 0.214291 -3.2299 0
M  V30 1333 H 124.131 -2.09919 -3.09653 0
M  V30 1334 H 125.464 -2.74557 -4.08509 0
M  V30 1335 N 127.117 1.15442 -1.07289 0
M  V30 1336 C 128.049 2.19773 -0.650585 0
M  V30 1337 C 129.062 1.60076 0.296572 0
M  V30 1338 O 130.251 1.78293 0.0859905 0
M  V30 1339 C 127.351 3.38838 0.0650398 0
M  V30 1340 C 126.524 4.2808 -0.898141 0
M  V30 1341 C 125.583 5.2574 -0.219926 0
M  V30 1342 O 124.609 5.62654 -0.860773 0
M  V30 1343 N 125.811 5.71205 1.03466 0
M  V30 1344 H 128.576 2.56622 -1.54808 0
M  V30 1345 H 126.137 1.30551 -0.957494 0
M  V30 1346 H 128.129 4.01222 0.529415 0
M  V30 1347 H 126.699 3.00409 0.864466 0
M  V30 1348 H 125.919 3.62804 -1.54165 0
M  V30 1349 H 127.207 4.84577 -1.5512 0
M  V30 1350 H 126.605 5.43325 1.57526 0
M  V30 1351 H 125.162 6.35633 1.44272 0
M  V30 1352 N 128.595 0.856903 1.32268 0
M  V30 1353 C 129.841 0.462069 1.97466 0
M  V30 1354 C 130.174 -0.980298 1.67642 0
M  V30 1355 O 129.449 -1.68824 0.965858 0
M  V30 1356 C 129.732 0.704336 3.53145 0
M  V30 1357 C 129.585 2.19529 3.9259 0
M  V30 1358 C 130.904 0.1622 4.39801 0
M  V30 1359 H 128.023 0.169357 0.717278 0
M  V30 1360 H 130.665 1.07574 1.56614 0
M  V30 1361 H 128.815 0.181999 3.88073 0
M  V30 1362 H 130.487 2.78387 3.67829 0
M  V30 1363 H 128.73 2.67292 3.41668 0
M  V30 1364 H 129.401 2.31549 5.01088 0
M  V30 1365 H 131.877 0.608905 4.11621 0
M  V30 1366 H 130.753 0.361265 5.4771 0
M  V30 1367 H 131.014 -0.935158 4.32096 0
M  V30 1368 N 130.073 -1.45103 0.615059 0
M  V30 1369 C 130.983 -2.34382 -0.101034 0
M  V30 1370 C 131.999 -1.51681 -0.852585 0
M  V30 1371 O 133.175 -1.8446 -0.808484 0
M  V30 1372 C 130.24 -3.29417 -1.08099 0
M  V30 1373 C 129.301 -4.28025 -0.330577 0
M  V30 1374 C 128.534 -5.1852 -1.26385 0
M  V30 1375 O 128.757 -5.12598 -2.50198 0
M  V30 1376 O 127.691 -5.97122 -0.756866 0
M  V30 1377 H 131.517 -2.97033 0.632855 0
M  V30 1378 H 129.102 -1.4461 0.375293 0
M  V30 1379 H 130.984 -3.87958 -1.6452 0
M  V30 1380 H 129.659 -2.69321 -1.79577 0
M  V30 1381 H 128.566 -3.73078 0.276283 0
M  V30 1382 H 129.899 -4.90997 0.343866 0
M  V30 1383 N 131.551 -0.354651 -1.53558 0
M  V30 1384 C 132.498 0.496968 -2.25386 0
M  V30 1385 C 133.468 1.0865 -1.25636 0
M  V30 1386 O 134.653 1.12104 -1.54394 0
M  V30 1387 C 131.793 1.63637 -3.03837 0
M  V30 1388 C 130.906 1.07307 -4.18461 0
M  V30 1389 C 130.041 2.18068 -4.84376 0
M  V30 1390 C 129.08 1.59147 -5.91049 0
M  V30 1391 N 128.217 2.63695 -6.50699 0
M  V30 1392 H 133.057 -0.122075 -2.9775 0
M  V30 1393 H 130.594 -0.0720154 -1.46924 0
M  V30 1394 H 132.552 2.30734 -3.47589 0
M  V30 1395 H 131.182 2.22623 -2.33749 0
M  V30 1396 H 130.234 0.292708 -3.79272 0
M  V30 1397 H 131.546 0.602193 -4.95152 0
M  V30 1398 H 130.7 2.93007 -5.31255 0
M  V30 1399 H 129.439 2.68504 -4.07133 0
M  V30 1400 H 128.444 0.827175 -5.43542 0
M  V30 1401 H 129.669 1.09549 -6.70206 0
M  V30 1402 H 127.615 3.13365 -5.76315 0
M  V30 1403 H 127.532 2.21263 -7.22896 0
M  V30 1404 H 128.8 3.3837 -7.02229 0
M  V30 1405 N 133.029 1.57378 -0.0835403 0
M  V30 1406 C 133.959 2.1641 0.87686 0
M  V30 1407 C 134.94 1.09429 1.30228 0
M  V30 1408 O 136.125 1.37516 1.37124 0
M  V30 1409 C 133.255 2.73517 2.14022 0
M  V30 1410 C 132.209 3.85769 1.85381 0
M  V30 1411 C 131.535 4.29529 3.18448 0
M  V30 1412 C 132.835 5.09486 1.14984 0
M  V30 1413 H 134.529 2.96914 0.385059 0
M  V30 1414 H 132.075 1.42823 0.18377 0
M  V30 1415 H 134.028 3.13463 2.81636 0
M  V30 1416 H 132.752 1.90252 2.65465 0
M  V30 1417 H 131.411 3.46345 1.20169 0
M  V30 1418 H 131.059 3.43169 3.67755 0
M  V30 1419 H 130.759 5.05204 3.00071 0
M  V30 1420 H 132.283 4.72099 3.8724 0
M  V30 1421 H 133.697 5.46674 1.72687 0
M  V30 1422 H 132.094 5.90515 1.06826 0
M  V30 1423 H 133.164 4.84724 0.130749 0
M  V30 1424 N 134.507 -0.190092 1.56449 0
M  V30 1425 C 135.454 -1.23557 1.94942 0
M  V30 1426 C 136.424 -1.44972 0.810696 0
M  V30 1427 O 137.609 -1.58023 1.06927 0
M  V30 1428 C 134.749 -2.57416 2.2985 0
M  V30 1429 C 133.862 -2.43537 3.5681 0
M  V30 1430 C 132.997 -3.70134 3.81017 0
M  V30 1431 C 132.036 -3.51109 5.01387 0
M  V30 1432 N 131.173 -4.6973 5.21822 0
M  V30 1433 H 136.013 -0.900304 2.84075 0
M  V30 1434 H 133.55 -0.43318 1.40577 0
M  V30 1435 H 135.508 -3.35409 2.48106 0
M  V30 1436 H 134.138 -2.88975 1.43852 0
M  V30 1437 H 133.19 -1.56816 3.46573 0
M  V30 1438 H 134.502 -2.25415 4.4496 0
M  V30 1439 H 133.656 -4.56566 3.9954 0
M  V30 1440 H 132.395 -3.91215 2.91207 0
M  V30 1441 H 131.4 -2.63063 4.82782 0
M  V30 1442 H 132.625 -3.31468 5.9271 0
M  V30 1443 H 130.571 -4.91065 4.34961 0
M  V30 1444 H 130.488 -4.54452 6.0416 0
M  V30 1445 H 131.756 -5.57499 5.44808 0
M  V30 1446 N 135.985 -1.50799 -0.457987 0
M  V30 1447 C 136.895 -1.73426 -1.57989 0
M  V30 1448 C 137.911 -0.617745 -1.62665 0
M  V30 1449 O 139.087 -0.897614 -1.80291 0
M  V30 1450 C 136.152 -1.83557 -2.94122 0
M  V30 1451 C 135.213 -3.07345 -2.99729 0
M  V30 1452 C 134.446 -3.16983 -4.29368 0
M  V30 1453 O 134.669 -2.33077 -5.20607 0
M  V30 1454 O 133.603 -4.09812 -4.40837 0
M  V30 1455 H 137.429 -2.68555 -1.41817 0
M  V30 1456 H 135.014 -1.35052 -0.638859 0
M  V30 1457 H 136.896 -1.92326 -3.74952 0
M  V30 1458 H 135.571 -0.916137 -3.10465 0
M  V30 1459 H 134.478 -3.04068 -2.1793 0
M  V30 1460 H 135.811 -3.9891 -2.88326 0
M  V30 1461 N 137.463 0.71206 -1.40597 0
M  V30 1462 C 138.709 1.47416 -1.39271 0
M  V30 1463 C 139.042 1.942 0.00388791 0
M  V30 1464 O 138.317 1.68403 0.973179 0
M  V30 1465 C 138.6 2.69774 -2.38525 0
M  V30 1466 C 138.453 2.28861 -3.87224 0
M  V30 1467 C 139.772 3.71939 -2.35264 0
M  V30 1468 H 136.891 0.534713 -0.5072 0
M  V30 1469 H 139.533 0.812375 -1.71757 0
M  V30 1470 H 137.683 3.26238 -2.10953 0
M  V30 1471 H 139.355 1.77852 -4.25636 0
M  V30 1472 H 137.598 1.60824 -4.02887 0
M  V30 1473 H 138.269 3.16584 -4.52193 0
M  V30 1474 H 140.745 3.25113 -2.59694 0
M  V30 1475 H 139.621 4.55186 -3.06753 0
M  V30 1476 H 139.882 4.20484 -1.36549 0
M  V30 1477 N 138.941 1.26152 0.944643 0
M  V30 1478 C 139.904 1.07474 2.0244 0
M  V30 1479 C 140.904 0.0242064 1.60782 0
M  V30 1480 O 142.094 0.267302 1.72137 0
M  V30 1481 C 139.226 0.633956 3.34953 0
M  V30 1482 H 140.419 2.03336 2.20442 0
M  V30 1483 H 137.972 1.087 1.12312 0
M  V30 1484 H 138.707 -0.326811 3.22649 0
M  V30 1485 H 138.492 1.39247 3.66542 0
M  V30 1486 H 139.982 0.52501 4.14287 0
M  V30 1487 N 140.419 -1.14872 1.07899 0
M  V30 1488 C 141.667 -1.85422 0.803941 0
M  V30 1489 C 141.988 -1.83051 -0.67211 0
M  V30 1490 O 141.258 -1.27532 -1.48703 0
M  V30 1491 H 139.838 -0.686537 0.294408 0
M  V30 1492 H 142.5 -1.39226 1.3639 0
M  V30 1493 H 141.596 -2.90399 1.14346 0
M  V30 1494 N 141.898 -0.863906 -1.31812 0
M  V30 1495 C 142.828 -0.330843 -2.31144 0
M  V30 1496 C 143.809 0.575005 -1.60087 0
M  V30 1497 O 144.994 0.493304 -1.8783 0
M  V30 1498 C 142.124 0.47374 -3.44054 0
M  V30 1499 C 141.078 -0.338481 -4.26659 0
M  V30 1500 C 140.404 0.591412 -5.31419 0
M  V30 1501 C 141.704 -1.56926 -4.98168 0
M  V30 1502 H 143.398 -1.16086 -2.75979 0
M  V30 1503 H 140.944 -0.559657 -1.32679 0
M  V30 1504 H 142.897 0.857143 -4.12591 0
M  V30 1505 H 141.621 1.33721 -2.9797 0
M  V30 1506 H 140.28 -0.703754 -3.59782 0
M  V30 1507 H 139.928 1.45199 -4.81587 0
M  V30 1508 H 139.628 0.0519022 -5.87577 0
M  V30 1509 H 141.152 0.97179 -6.02817 0
M  V30 1510 H 142.566 -1.25764 -5.59336 0
M  V30 1511 H 140.963 -2.04739 -5.64094 0
M  V30 1512 H 142.033 -2.32544 -4.25501 0
M  V30 1513 N 143.376 1.44774 -0.622745 0
M  V30 1514 C 144.787 1.85546 -0.207226 0
M  V30 1515 C 145.138 1.52093 1.23944 0
M  V30 1516 O 144.263 0.95492 1.94191 0
M  V30 1517 C 144.858 3.36781 -0.369313 0
M  V30 1518 C 143.417 3.76399 -0.00836847 0
M  V30 1519 C 142.564 2.68664 -0.686651 0
M  V30 1520 H 145.515 1.3536 -0.828454 0
M  V30 1521 H 145.536 3.78453 0.394162 0
M  V30 1522 H 145.048 3.61098 -1.42231 0
M  V30 1523 H 143.149 3.57698 1.04322 0
M  V30 1524 H 143.262 4.7732 -0.412584 0
M  V30 1525 H 141.626 2.54404 -0.122777 0
M  V30 1526 H 142.409 2.95815 -1.74208 0
M  V30 1527 N 144.854 0.36279 1.53368 0
M  V30 1528 C 146.131 -0.284021 1.93527 0
M  V30 1529 C 146.511 -1.66628 1.29608 0
M  V30 1530 O 145.859 -2.23942 0.45413 0
M  V30 1531 C 146.069 -0.337028 3.47369 0
M  V30 1532 C 147.417 -0.578708 4.20638 0
M  V30 1533 O 148.441 -0.418352 3.53735 0
M  V30 1534 O 147.3 -0.89074 5.39192 0
M  V30 1535 H 144.394 -0.169743 0.809393 0
M  V30 1536 H 146.94 0.41537 1.64538 0
M  V30 1537 H 145.712 0.632217 3.86159 0
M  V30 1538 H 145.335 -1.08243 3.82582 0
M  V30 1539 N 146.332 -1.57332 0.0918853 0
M  V30 1540 C 147.609 -1.85691 -0.614668 0
M  V30 1541 C 147.989 -0.988146 -1.86545 0
M  V30 1542 O 147.337 -0.0597055 -2.28422 0
M  V30 1543 C 147.547 -3.36294 -0.933126 0
M  V30 1544 C 148.895 -4.04275 -1.29796 0
M  V30 1545 O 149.919 -3.41157 -1.02424 0
M  V30 1546 O 148.778 -5.1564 -1.81047 0
M  V30 1547 H 145.872 -0.767802 -0.307261 0
M  V30 1548 H 148.418 -1.69244 0.12434 0
M  V30 1549 H 147.19 -3.91273 -0.0456404 0
M  V30 1550 H 146.813 -3.58076 -1.72822 0
M  V30 1551 N 147.81 0.181792 -1.56548 0
M  V30 1552 C 149.05 0.906711 -1.83189 0
M  V30 1553 C 149.414 1.79882 -0.671312 0
M  V30 1554 O 150.615 2.56054 -0.81792 0
M  V30 1555 C 148.886 1.69023 -3.14906 0
M  V30 1556 S 150.445 2.46535 -3.62996 0
M  V30 1557 H 147.263 0.303877 -0.642791 0
M  V30 1558 H 149.865 0.169107 -1.94767 0
M  V30 1559 H 148.569 1.02571 -3.97376 0
M  V30 1560 H 148.1 2.46941 -3.06241 0
M  V30 1561 H 150.115 3.71014 -3.29489 0
M  V30 1562 N 149.288 1.51039 0.449983 0
M  V30 1563 C 150.251 1.70863 1.5277 0
M  V30 1564 C 151.251 0.578846 1.5002 0
M  V30 1565 O 152.441 0.846213 1.52266 0
M  V30 1566 C 149.573 1.75341 2.9235 0
M  V30 1567 H 150.766 2.67034 1.36502 0
M  V30 1568 H 148.319 1.40838 0.677812 0
M  V30 1569 H 149.054 0.809383 3.14037 0
M  V30 1570 H 148.839 2.57436 2.95752 0
M  V30 1571 H 150.329 1.92559 3.70555 0
M  V30 1572 N 150.766 -0.704594 1.40972 0
M  V30 1573 C 152.012 -1.46675 1.40051 0
M  V30 1574 C 152.345 -1.94199 0.00641102 0
M  V30 1575 O 151.62 -1.68916 -0.964235 0
M  V30 1576 C 151.903 -2.68505 2.39952 0
M  V30 1577 C 151.756 -2.26805 3.88432 0
M  V30 1578 C 153.075 -3.70686 2.37233 0
M  V30 1579 H 150.194 -0.532015 0.510028 0
M  V30 1580 H 152.836 -0.803255 1.72185 0
M  V30 1581 H 150.986 -3.25114 2.1268 0
M  V30 1582 H 152.658 -1.75592 4.26574 0
M  V30 1583 H 150.901 -1.58685 4.03734 0
M  V30 1584 H 151.572 -3.14181 4.53866 0
M  V30 1585 H 154.048 -3.23731 2.61415 0
M  V30 1586 H 152.924 -4.53553 3.09162 0
M  V30 1587 H 153.185 -4.19754 1.38777 0
M  V30 1588 N 152.244 -1.26651 -0.937939 0
M  V30 1589 C 153.472 -1.15173 -1.7188 0
M  V30 1590 C 153.887 0.292668 -1.86518 0
M  V30 1591 O 153.244 1.20014 -1.37488 0
M  V30 1592 C 153.295 -1.81925 -3.12387 0
M  V30 1593 O 153.016 -3.2072 -2.98446 0
M  V30 1594 C 154.517 -1.76442 -4.06673 0
M  V30 1595 H 151.737 -0.400911 -0.538063 0
M  V30 1596 H 154.281 -1.67332 -1.1756 0
M  V30 1597 H 152.436 -1.33696 -3.63599 0
M  V30 1598 H 152.85 -3.53802 -3.872 0
M  V30 1599 H 154.324 -2.27781 -5.02812 0
M  V30 1600 H 154.801 -0.731608 -4.33064 0
M  V30 1601 H 155.407 -2.24238 -3.61382 0
M  V30 1602 N 153.722 1.14298 -1.08507 0
M  V30 1603 C 154.632 2.23027 -0.727753 0
M  V30 1604 C 155.648 1.71952 0.26619 0
M  V30 1605 O 156.824 2.011 0.109882 0
M  V30 1606 C 153.889 3.46403 -0.143541 0
M  V30 1607 C 152.95 4.12413 -1.19223 0
M  V30 1608 C 152.183 5.29899 -0.635798 0
M  V30 1609 O 152.406 5.67796 0.544393 0
M  V30 1610 O 151.34 5.85717 -1.38634 0
M  V30 1611 H 155.166 2.55945 -1.63481 0
M  V30 1612 H 152.751 1.22248 -0.858817 0
M  V30 1613 H 154.633 4.21018 0.179404 0
M  V30 1614 H 153.308 3.15206 0.736659 0
M  V30 1615 H 152.215 3.39667 -1.56772 0
M  V30 1616 H 153.548 4.47718 -2.04474 0
M  V30 1617 N 155.201 0.870884 1.31352 0
M  V30 1618 C 156.617 0.562932 1.49343 0
M  V30 1619 C 156.817 -0.902725 1.80148 0
M  V30 1620 O 155.873 -1.68484 1.88067 0
M  V30 1621 C 157.186 1.46393 2.62659 0
M  V30 1622 C 158.734 1.46607 2.76542 0
M  V30 1623 C 159.209 2.35266 3.92955 0
M  V30 1624 N 160.7 2.33151 4.00243 0
M  V30 1625 C 161.435 2.98471 4.89594 0
M  V30 1626 N 160.931 3.72964 5.8384 0
M  V30 1627 N 162.724 2.87775 4.82848 0
M  V30 1628 H 154.875 1.81923 1.09626 0
M  V30 1629 H 157.138 0.777934 0.541777 0
M  V30 1630 H 156.844 2.50689 2.46674 0
M  V30 1631 H 156.718 1.16314 3.58819 0
M  V30 1632 H 159.105 0.43069 2.9194 0
M  V30 1633 H 159.186 1.8071 1.81046 0
M  V30 1634 H 158.83 3.38881 3.78315 0
M  V30 1635 H 158.76 1.98487 4.87761 0
M  V30 1636 H 161.251 1.79006 3.32814 0
M  V30 1637 H 161.564 4.19932 6.4875 0
M  V30 1638 H 159.909 3.77073 5.83816 0
M  V30 1639 H 163.1 2.29116 4.08195 0
M  V30 1640 H 163.273 3.38961 5.52277 0
M  V30 1641 N 156.679 -1.44442 0.630414 0
M  V30 1642 C 157.609 -2.33418 -0.0618083 0
M  V30 1643 C 158.59 -1.48165 -0.835541 0
M  V30 1644 O 159.775 -1.76886 -0.801564 0
M  V30 1645 C 156.905 -3.31222 -1.04449 0
M  V30 1646 C 155.859 -4.26288 -0.382436 0
M  V30 1647 C 155.185 -5.13954 -1.47497 0
M  V30 1648 C 156.485 -5.1744 0.710865 0
M  V30 1649 H 158.179 -2.91548 0.681184 0
M  V30 1650 H 155.725 -1.40191 0.329026 0
M  V30 1651 H 157.678 -3.92351 -1.53748 0
M  V30 1652 H 156.402 -2.71299 -1.81836 0
M  V30 1653 H 155.061 -3.6649 0.0899054 0
M  V30 1654 H 154.709 -4.50385 -2.2397 0
M  V30 1655 H 154.409 -5.7837 -1.03737 0
M  V30 1656 H 155.933 -5.77955 -1.96979 0
M  V30 1657 H 157.347 -5.72509 0.300996 0
M  V30 1658 H 155.744 -5.90455 1.07156 0
M  V30 1659 H 156.814 -4.58496 1.57829 0
M  V30 1660 N 158.157 -0.370918 -1.53173 0
M  V30 1661 C 159.12 0.460778 -2.24521 0
M  V30 1662 C 160.12 1.00536 -1.25496 0
M  V30 1663 O 161.31 0.890266 -1.49733 0
M  V30 1664 C 158.442 1.64457 -2.98608 0
M  V30 1665 H 159.635 -0.163613 -2.99453 0
M  V30 1666 H 157.188 -0.122699 -1.55818 0
M  V30 1667 H 157.923 2.30691 -2.2793 0
M  V30 1668 H 157.708 1.26099 -3.7127 0
M  V30 1669 H 159.198 2.23384 -3.5283 0
M  V30 1670 N 159.635 1.57281 -0.100228 0
M  V30 1671 C 160.881 1.94826 0.563101 0
M  V30 1672 C 161.214 0.982475 1.67514 0
M  V30 1673 O 160.489 0.0164069 1.94493 0
M  V30 1674 C 160.772 3.42453 1.11346 0
M  V30 1675 C 160.625 4.498 0.00612081 0
M  V30 1676 C 161.944 3.91506 2.01024 0
M  V30 1677 H 159.063 0.708428 0.203221 0
M  V30 1678 H 161.705 1.8922 -0.171979 0
M  V30 1679 H 159.855 3.47361 1.7399 0
M  V30 1680 H 161.527 4.57 -0.628357 0
M  V30 1681 H 159.77 4.28756 -0.659581 0
M  V30 1682 H 160.441 5.50306 0.432109 0
M  V30 1683 H 162.917 3.88784 1.48278 0
M  V30 1684 H 161.793 4.95358 2.36457 0
M  V30 1685 H 162.054 3.31099 2.92961 0
M  V30 1686 N 161.113 -0.173488 1.56642 0
M  V30 1687 C 162.043 -1.2171 1.99271 0
M  V30 1688 C 163.024 -1.46289 0.867959 0
M  V30 1689 O 164.209 -1.5766 1.13388 0
M  V30 1690 C 161.339 -2.55651 2.35074 0
M  V30 1691 C 160.293 -2.45645 3.50489 0
M  V30 1692 C 159.619 -3.84056 3.72028 0
M  V30 1693 C 160.919 -1.96302 4.84007 0
M  V30 1694 H 162.613 -0.86275 2.867 0
M  V30 1695 H 160.159 -0.413571 1.37933 0
M  V30 1696 H 162.112 -3.2886 2.63494 0
M  V30 1697 H 160.836 -2.92869 1.44552 0
M  V30 1698 H 159.495 -1.7489 3.22194 0
M  V30 1699 H 159.143 -4.18664 2.788 0
M  V30 1700 H 158.843 -3.7823 4.49684 0
M  V30 1701 H 160.367 -4.58854 4.02846 0
M  V30 1702 H 161.781 -2.59284 5.11317 0
M  V30 1703 H 160.178 -2.01429 5.65284 0
M  V30 1704 H 161.248 -0.917226 4.76146 0
M  V30 1705 N 162.591 -1.51276 -0.441967 0
M  V30 1706 C 163.554 -1.7167 -1.51862 0
M  V30 1707 C 164.554 -0.586793 -1.49711 0
M  V30 1708 O 165.744 -0.854276 -1.51815 0
M  V30 1709 C 162.876 -1.76889 -2.91416 0
M  V30 1710 H 164.069 -2.67754 -1.35084 0
M  V30 1711 H 161.622 -1.41196 -0.670333 0
M  V30 1712 H 162.357 -0.826026 -3.13604 0
M  V30 1713 H 162.142 -2.59001 -2.94382 0
M  V30 1714 H 163.632 -1.94522 -3.69528 0
M  V30 1715 N 164.069 0.697108 -1.41344 0
M  V30 1716 C 165.316 1.45714 -1.40619 0
M  V30 1717 C 165.644 1.94494 -0.0147907 0
M  V30 1718 O 164.899 1.69794 0.973066 0
M  V30 1719 C 165.198 2.68553 -2.35826 0
M  V30 1720 C 164.864 2.38438 -3.82698 0
M  V30 1721 C 163.526 2.29936 -4.22709 0
M  V30 1722 C 165.878 2.13567 -4.75435 0
M  V30 1723 C 163.206 1.94656 -5.53467 0
M  V30 1724 C 165.558 1.79797 -6.06511 0
M  V30 1725 C 164.222 1.69789 -6.45545 0
M  V30 1726 H 163.492 0.533206 -0.51456 0
M  V30 1727 H 166.139 0.796901 -1.74131 0
M  V30 1728 H 164.444 3.39503 -1.95563 0
M  V30 1729 H 166.141 3.2669 -2.32539 0
M  V30 1730 H 162.731 2.4595 -3.51008 0
M  V30 1731 H 166.915 2.19082 -4.45328 0
M  V30 1732 H 162.171 1.8546 -5.82593 0
M  V30 1733 H 166.345 1.59572 -6.77872 0
M  V30 1734 H 163.972 1.4222 -7.46778 0
M  V30 1735 N 165.547 1.27147 0.931209 0
M  V30 1736 C 166.477 1.12081 2.04842 0
M  V30 1737 C 167.458 0.0232364 1.70084 0
M  V30 1738 O 168.643 0.197085 1.93197 0
M  V30 1739 C 165.773 0.76354 3.38803 0
M  V30 1740 C 164.727 1.81396 3.87659 0
M  V30 1741 C 164.053 1.31075 5.18385 0
M  V30 1742 C 165.353 3.21739 4.11438 0
M  V30 1743 H 167.047 2.05537 2.17703 0
M  V30 1744 H 164.593 0.989603 1.04608 0
M  V30 1745 H 166.546 0.644982 4.16435 0
M  V30 1746 H 165.27 -0.206727 3.25945 0
M  V30 1747 H 163.929 1.92136 3.12217 0
M  V30 1748 H 163.577 0.330037 5.01916 0
M  V30 1749 H 163.277 2.013 5.52044 0
M  V30 1750 H 164.801 1.20506 5.98591 0
M  V30 1751 H 166.215 3.14019 4.79651 0
M  V30 1752 H 164.612 3.89644 4.56397 0
M  V30 1753 H 165.682 3.67054 3.16859 0
M  V30 1754 N 167.025 -1.13721 1.09112 0
M  V30 1755 C 168.255 -1.88499 0.845671 0
M  V30 1756 C 168.663 -1.79218 -0.606432 0
M  V30 1757 O 168.006 -1.1544 -1.42896 0
M  V30 1758 C 168.068 -3.38954 1.19793 0
M  V30 1759 C 167.732 -3.72018 2.65428 0
M  V30 1760 C 168.729 -3.7153 3.63677 0
M  V30 1761 C 166.414 -4.01775 3.01467 0
M  V30 1762 C 168.408 -4.00336 4.95994 0
M  V30 1763 C 166.095 -4.30243 4.33975 0
M  V30 1764 C 167.093 -4.29508 5.31048 0
M  V30 1765 O 166.781 -4.5728 6.61173 0
M  V30 1766 H 166.513 -0.603702 0.304171 0
M  V30 1767 H 169.067 -1.44903 1.45576 0
M  V30 1768 H 167.297 -3.83039 0.530871 0
M  V30 1769 H 168.986 -3.95052 0.932146 0
M  V30 1770 H 169.752 -3.4862 3.37179 0
M  V30 1771 H 165.631 -4.01496 2.26544 0
M  V30 1772 H 169.175 -3.99678 5.71755 0
M  V30 1773 H 165.072 -4.52625 4.60219 0
M  V30 1774 H 165.84 -4.74964 6.66597 0
M  V30 1775 N 168.503 -0.877838 -1.30888 0
M  V30 1776 C 169.433 -0.35534 -2.3078 0
M  V30 1777 C 170.414 0.557994 -1.60687 0
M  V30 1778 O 171.599 0.473355 -1.88343 0
M  V30 1779 C 168.729 0.437221 -3.44537 0
M  V30 1780 C 167.683 -0.383715 -4.26276 0
M  V30 1781 C 167.009 0.535014 -5.32017 0
M  V30 1782 C 168.309 -1.62201 -4.96476 0
M  V30 1783 H 170.003 -1.19007 -2.74732 0
M  V30 1784 H 167.549 -0.573698 -1.32078 0
M  V30 1785 H 169.502 0.813334 -4.13477 0
M  V30 1786 H 168.226 1.30553 -2.99372 0
M  V30 1787 H 166.885 -0.741874 -3.59015 0
M  V30 1788 H 166.533 1.40083 -4.831 0
M  V30 1789 H 166.233 -0.0104211 -5.87599 0
M  V30 1790 H 167.757 0.907799 -6.03814 0
M  V30 1791 H 169.171 -1.31689 -5.5797 0
M  V30 1792 H 167.568 -2.10711 -5.61891 0
M  V30 1793 H 168.638 -2.37044 -4.23011 0
M  V30 1794 N 169.982 1.44106 -0.638065 0
M  V30 1795 C 171.212 2.06037 -0.152394 0
M  V30 1796 C 171.62 1.47808 1.18108 0
M  V30 1797 O 170.963 0.598092 1.73691 0
M  V30 1798 C 171.025 3.59488 0.0293714 0
M  V30 1799 C 170.689 4.4022 -1.22702 0
M  V30 1800 C 171.686 4.73256 -2.15232 0
M  V30 1801 C 169.371 4.8048 -1.46437 0
M  V30 1802 C 171.365 5.45444 -3.29802 0
M  V30 1803 C 169.052 5.52417 -2.61303 0
M  V30 1804 C 170.05 5.84819 -3.52811 0
M  V30 1805 O 169.738 6.55289 -4.65673 0
M  V30 1806 H 169.47 0.671233 -0.0801401 0
M  V30 1807 H 172.024 1.85851 -0.874563 0
M  V30 1808 H 170.254 3.78191 0.806758 0
M  V30 1809 H 171.943 4.03164 0.470475 0
M  V30 1810 H 172.709 4.42684 -1.98131 0
M  V30 1811 H 168.588 4.54676 -0.760977 0
M  V30 1812 H 172.132 5.70653 -4.01249 0
M  V30 1813 H 168.029 5.82404 -2.78344 0
M  V30 1814 H 168.797 6.73762 -4.64744 0
M  V30 1815 N 171.46 0.379036 1.52974 0
M  V30 1816 C 172.39 -0.452706 2.29069 0
M  V30 1817 C 173.371 -1.07237 1.32039 0
M  V30 1818 O 174.556 -1.08708 1.60923 0
M  V30 1819 C 171.686 -1.5856 3.08992 0
M  V30 1820 C 170.64 -1.0925 4.13822 0
M  V30 1821 C 169.966 -2.31668 4.81907 0
M  V30 1822 C 171.266 -0.167702 5.22031 0
M  V30 1823 H 172.96 0.182181 2.98845 0
M  V30 1824 H 170.506 0.0890592 1.43724 0
M  V30 1825 H 172.459 -2.1742 3.6098 0
M  V30 1826 H 171.183 -2.24792 2.36931 0
M  V30 1827 H 169.842 -0.526494 3.628 0
M  V30 1828 H 169.49 -2.96386 4.06404 0
M  V30 1829 H 169.19 -1.9934 5.52754 0
M  V30 1830 H 170.714 -2.91189 5.36695 0
M  V30 1831 H 172.128 -0.664186 5.6944 0
M  V30 1832 H 170.525 0.0653265 6.00064 0
M  V30 1833 H 171.595 0.786347 4.78482 0
M  V30 1834 N 172.938 -1.57226 0.108567 0
M  V30 1835 C 174.163 -1.99604 -0.563303 0
M  V30 1836 C 174.588 -0.987563 -1.6009 0
M  V30 1837 O 173.946 0.0421687 -1.81251 0
M  V30 1838 C 173.994 -3.40902 -1.17552 0
M  V30 1839 O 173.098 -3.42896 -2.2912 0
M  V30 1840 H 172.439 -0.648704 -0.1417 0
M  V30 1841 H 174.969 -2.03679 0.193961 0
M  V30 1842 H 174.979 -3.78886 -1.51357 0
M  V30 1843 H 173.654 -4.1382 -0.415445 0
M  V30 1844 H 172.231 -3.1672 -1.96832 0
M  V30 1845 N 174.416 0.165178 -1.56732 0
M  V30 1846 C 175.665 0.879143 -1.81532 0
M  V30 1847 C 175.978 1.83144 -0.686842 0
M  V30 1848 O 177.184 2.58823 -0.819944 0
M  V30 1849 C 175.64 1.61388 -3.21686 0
M  V30 1850 C 175.248 0.704904 -4.4242 0
M  V30 1851 C 176.992 2.3157 -3.55774 0
M  V30 1852 C 174.899 1.44022 -5.73595 0
M  V30 1853 H 173.829 0.332033 -0.676957 0
M  V30 1854 H 176.48 0.132008 -1.83025 0
M  V30 1855 H 174.862 2.40599 -3.14529 0
M  V30 1856 H 176.036 -0.0506815 -4.60772 0
M  V30 1857 H 174.351 0.112419 -4.16248 0
M  V30 1858 H 176.948 2.8719 -4.51028 0
M  V30 1859 H 177.291 3.07201 -2.8095 0
M  V30 1860 H 177.824 1.59297 -3.64513 0
M  V30 1861 H 174.563 0.72612 -6.51466 0
M  V30 1862 H 174.083 2.16898 -5.5921 0
M  V30 1863 H 175.762 1.98606 -6.15764 0
M  V30 1864 N 175.894 1.51508 0.433938 0
M  V30 1865 C 177.134 1.66006 1.19253 0
M  V30 1866 C 177.498 0.369868 1.88404 0
M  V30 1867 O 178.699 0.39066 2.65946 0
M  V30 1868 C 176.97 2.83229 2.17981 0
M  V30 1869 S 178.529 3.18075 3.02281 0
M  V30 1870 H 175.347 0.584821 0.404358 0
M  V30 1871 H 177.949 1.89425 0.48357 0
M  V30 1872 H 176.653 3.75407 1.65824 0
M  V30 1873 H 176.184 2.6201 2.93453 0
M  V30 1874 H 178.199 2.64772 4.19655 0
M  V30 1875 N 177.372 -0.689602 1.41712 0
M  V30 1876 C 178.788 -1.00093 1.24312 0
M  V30 1877 C 178.988 -2.01036 0.136729 0
M  V30 1878 O 178.044 -2.47562 -0.496918 0
M  V30 1879 C 179.357 -1.51985 2.59463 0
M  V30 1880 C 180.905 -1.63838 2.66695 0
M  V30 1881 C 181.38 -2.1913 4.02177 0
M  V30 1882 N 182.871 -2.26483 4.04054 0
M  V30 1883 C 183.606 -2.70306 5.0569 0
M  V30 1884 N 183.102 -3.13691 6.17713 0
M  V30 1885 N 184.895 -2.69923 4.9305 0
M  V30 1886 H 177.046 -0.0210029 2.1239 0
M  V30 1887 H 179.309 -0.0718733 0.945272 0
M  V30 1888 H 179.015 -0.85269 3.41207 0
M  V30 1889 H 178.889 -2.50103 2.82362 0
M  V30 1890 H 181.276 -2.29664 1.85306 0
M  V30 1891 H 181.357 -0.642492 2.476 0
M  V30 1892 H 181.001 -1.53918 4.84016 0
M  V30 1893 H 180.931 -3.19482 4.18615 0
M  V30 1894 H 183.422 -1.95874 3.23174 0
M  V30 1895 H 183.735 -3.45773 6.9113 0
M  V30 1896 H 182.08 -3.11585 6.21241 0
M  V30 1897 H 185.271 -2.35382 4.04614 0
M  V30 1898 H 185.444 -3.03758 5.72394 0
M  V30 1899 N 178.85 -1.27639 -0.924453 0
M  V30 1900 C 179.797 -1.10644 -2.0255 0
M  V30 1901 C 180.767 -0.00658438 -1.66099 0
M  V30 1902 O 181.952 -0.16952 -1.90045 0
M  V30 1903 C 179.092 -0.76309 -3.36557 0
M  V30 1904 C 178.205 -1.94091 -3.85944 0
M  V30 1905 C 177.34 -1.53914 -5.08413 0
M  V30 1906 C 176.379 -2.68425 -5.50104 0
M  V30 1907 N 175.516 -2.28815 -6.63768 0
M  V30 1908 H 180.356 -2.04858 -2.16419 0
M  V30 1909 H 177.893 -1.01974 -1.06017 0
M  V30 1910 H 179.851 -0.544822 -4.13627 0
M  V30 1911 H 178.481 0.142102 -3.22487 0
M  V30 1912 H 177.533 -2.27162 -3.05125 0
M  V30 1913 H 178.845 -2.7998 -4.12811 0
M  V30 1914 H 177.999 -1.28231 -5.92994 0
M  V30 1915 H 176.738 -0.651391 -4.8333 0
M  V30 1916 H 175.743 -2.94819 -4.64071 0
M  V30 1917 H 176.968 -3.57826 -5.7718 0
M  V30 1918 H 174.914 -1.42495 -6.40337 0
M  V30 1919 H 174.831 -3.08242 -6.90306 0
M  V30 1920 H 176.099 -2.06387 -7.51681 0
M  V30 1921 N 180.328 1.1314 -1.09713 0
M  V30 1922 C 181.26 2.18343 -0.697056 0
M  V30 1923 C 182.273 1.60669 0.262551 0
M  V30 1924 O 183.462 1.78435 0.0481527 0
M  V30 1925 C 180.562 3.38899 -0.00684728 0
M  V30 1926 C 179.735 4.26078 -0.988741 0
M  V30 1927 C 178.794 5.25155 -0.331394 0
M  V30 1928 O 177.82 5.60701 -0.979926 0
M  V30 1929 N 179.022 5.73271 0.913261 0
M  V30 1930 H 181.787 2.5328 -1.60216 0
M  V30 1931 H 179.348 1.28491 -0.984971 0
M  V30 1932 H 181.34 4.02255 0.444191 0
M  V30 1933 H 179.91 3.02175 0.800551 0
M  V30 1934 H 179.13 3.59453 -1.61826 0
M  V30 1935 H 180.418 4.81178 -1.65364 0
M  V30 1936 H 179.816 5.46544 1.45966 0
M  V30 1937 H 178.373 6.3855 1.30757 0
M  V30 1938 N 181.806 0.884767 1.30421 0
M  V30 1939 C 183.222 0.57874 1.48737 0
M  V30 1940 C 183.422 -0.883567 1.81095 0
M  V30 1941 O 182.478 -1.6648 1.89844 0
M  V30 1942 C 183.791 1.49171 2.61091 0
M  V30 1943 C 185.339 1.49532 2.74971 0
M  V30 1944 C 185.814 2.39421 3.90438 0
M  V30 1945 N 187.305 2.37383 3.97748 0
M  V30 1946 C 188.04 3.03647 4.86401 0
M  V30 1947 N 187.536 3.79136 5.79852 0
M  V30 1948 N 189.329 2.9288 4.79768 0
M  V30 1949 H 181.48 1.83075 1.0769 0
M  V30 1950 H 183.743 0.783637 0.533495 0
M  V30 1951 H 183.449 2.53291 2.44001 0
M  V30 1952 H 183.323 1.20113 3.57565 0
M  V30 1953 H 185.71 0.46163 2.91467 0
M  V30 1954 H 185.791 1.8262 1.79119 0
M  V30 1955 H 185.435 3.42874 3.74699 0
M  V30 1956 H 185.365 2.03649 4.85628 0
M  V30 1957 H 187.856 1.82525 3.30897 0
M  V30 1958 H 188.169 4.26789 6.4426 0
M  V30 1959 H 186.514 3.83243 5.79784 0
M  V30 1960 H 189.705 2.33433 4.05742 0
M  V30 1961 H 189.878 3.448 5.4865 0
M  V30 1962 N 183.284 -1.43765 0.645699 0
M  V30 1963 C 184.247 -2.29163 -0.0409488 0
M  V30 1964 C 185.247 -1.41813 -0.757996 0
M  V30 1965 O 186.437 -1.63527 -0.600382 0
M  V30 1966 C 183.569 -3.23716 -1.06869 0
M  V30 1967 H 184.762 -2.91366 0.710345 0
M  V30 1968 H 182.315 -1.5092 0.406547 0
M  V30 1969 H 183.05 -2.66393 -1.84947 0
M  V30 1970 H 182.835 -3.88105 -0.558277 0
M  V30 1971 H 184.325 -3.87831 -1.54845 0
M  V30 1972 N 184.763 -0.387143 -1.52771 0
M  V30 1973 C 185.693 0.440551 -2.29306 0
M  V30 1974 C 186.674 1.06535 -1.32606 0
M  V30 1975 O 187.859 1.07853 -1.61497 0
M  V30 1976 C 184.989 1.56919 -3.09829 0
M  V30 1977 C 183.943 1.07054 -4.14395 0
M  V30 1978 C 183.269 2.29109 -4.83129 0
M  V30 1979 C 184.569 0.140015 -5.22112 0
M  V30 1980 H 186.263 -0.198026 -2.98744 0
M  V30 1981 H 183.809 -0.09668 -1.43675 0
M  V30 1982 H 185.762 2.15503 -3.62128 0
M  V30 1983 H 184.486 2.23532 -2.3812 0
M  V30 1984 H 183.145 0.507247 -3.63074 0
M  V30 1985 H 182.793 2.94227 -4.0797 0
M  V30 1986 H 182.493 1.96406 -5.53804 0
M  V30 1987 H 184.017 2.88339 -5.38231 0
M  V30 1988 H 185.431 0.633978 -5.69784 0
M  V30 1989 H 183.828 -0.0971485 -6.00021 0
M  V30 1990 H 184.898 -0.811711 -4.78058 0
M  V30 1991 N 186.241 1.57166 -0.116904 0
M  V30 1992 C 187.652 1.82169 0.408809 0
M  V30 1993 C 188.003 1.03393 1.66746 0
M  V30 1994 O 187.128 0.269886 2.1471 0
M  V30 1995 C 187.723 3.30429 0.748466 0
M  V30 1996 C 186.282 3.5612 1.21882 0
M  V30 1997 C 185.429 2.76374 0.226452 0
M  V30 1998 H 188.38 1.5497 -0.342063 0
M  V30 1999 H 188.401 3.44943 1.60607 0
M  V30 2000 H 187.913 3.87737 -0.167784 0
M  V30 2001 H 186.014 3.04168 2.15204 0
M  V30 2002 H 186.127 4.64705 1.16559 0
M  V30 2003 H 184.491 2.44515 0.713063 0
M  V30 2004 H 185.274 3.3644 -0.682859 0
M  V30 2005 N 187.719 -0.156864 1.56817 0
M  V30 2006 C 188.944 -0.890331 1.87318 0
M  V30 2007 C 189.369 -1.74394 0.704855 0
M  V30 2008 O 188.727 -1.77972 -0.345786 0
M  V30 2009 C 188.775 -1.73102 3.16336 0
M  V30 2010 O 187.879 -2.83422 2.99576 0
M  V30 2011 H 187.22 -0.24857 0.615718 0
M  V30 2012 H 189.75 -0.150649 2.04045 0
M  V30 2013 H 189.76 -2.12803 3.48107 0
M  V30 2014 H 188.435 -1.10412 4.00976 0
M  V30 2015 H 187.012 -2.47199 2.7919 0
M  V30 2016 N 189.197 -1.51736 -0.425897 0
M  V30 2017 C 190.127 -1.76827 -1.52494 0
M  V30 2018 C 191.108 -0.618524 -1.58456 0
M  V30 2019 O 192.293 -0.862416 -1.74 0
M  V30 2020 C 189.423 -1.90374 -2.90474 0
M  V30 2021 C 188.377 -3.0588 -2.99369 0
M  V30 2022 C 187.703 -3.04625 -4.3944 0
M  V30 2023 C 189.003 -4.45644 -2.72394 0
M  V30 2024 H 190.697 -2.68855 -1.31748 0
M  V30 2025 H 188.243 -1.29372 -0.632362 0
M  V30 2026 H 190.196 -2.0651 -3.6733 0
M  V30 2027 H 188.92 -0.95004 -3.12477 0
M  V30 2028 H 187.579 -2.89467 -2.24954 0
M  V30 2029 H 187.227 -2.0701 -4.58428 0
M  V30 2030 H 186.927 -3.82195 -4.46319 0
M  V30 2031 H 188.451 -3.22869 -5.18255 0
M  V30 2032 H 189.865 -4.62348 -3.38979 0
M  V30 2033 H 188.262 -5.25006 -2.9067 0
M  V30 2034 H 189.332 -4.54893 -1.67929 0
M  V30 2035 N 190.675 0.682077 -1.42076 0
M  V30 2036 C 191.952 1.43755 -1.32642 0
M  V30 2037 C 192.332 2.11063 0.0396611 0
M  V30 2038 O 191.68 2.02701 1.05474 0
M  V30 2039 C 191.89 2.44596 -2.48946 0
M  V30 2040 C 193.238 3.09454 -2.9073 0
M  V30 2041 O 194.262 2.54922 -2.48783 0
M  V30 2042 O 193.121 4.08253 -3.63307 0
M  V30 2043 H 190.215 0.640857 -0.522715 0
M  V30 2044 H 192.761 0.711415 -1.54068 0
M  V30 2045 H 191.533 1.93609 -3.40046 0
M  V30 2046 H 191.156 3.24701 -2.29467 0
M  V30 2047 N 192.153 1.28127 0.917671 0
M  V30 2048 C 193.402 1.14432 1.66097 0
M  V30 2049 C 193.715 -0.307247 1.93172 0
M  V30 2050 O 194.921 -0.565259 2.65551 0
M  V30 2051 C 193.377 2.00015 2.99202 0
M  V30 2052 C 192.985 3.49889 2.79789 0
M  V30 2053 C 194.729 1.94996 3.77064 0
M  V30 2054 C 192.636 4.27636 4.08511 0
M  V30 2055 H 191.566 0.424662 0.62304 0
M  V30 2056 H 194.217 1.52628 1.01868 0
M  V30 2057 H 192.599 1.54672 3.64544 0
M  V30 2058 H 193.773 4.03162 2.23152 0
M  V30 2059 H 192.088 3.56392 2.15345 0
M  V30 2060 H 194.685 2.50354 4.72469 0
M  V30 2061 H 195.028 0.925819 4.05875 0
M  V30 2062 H 195.561 2.38287 3.18534 0
M  V30 2063 H 192.3 5.30615 3.84874 0
M  V30 2064 H 191.82 3.79137 4.64774 0
M  V30 2065 H 193.499 4.37346 4.76799 0
M  V30 2066 N 193.631 -1.12557 1.10312 0
M  V30 2067 C 194.877 -1.84311 0.846011 0
M  V30 2068 C 195.21 -1.83805 -0.626859 0
M  V30 2069 O 194.485 -1.28268 -1.46211 0
M  V30 2070 C 194.768 -3.32048 1.39341 0
M  V30 2071 C 194.621 -3.41016 2.93305 0
M  V30 2072 C 195.94 -4.27764 1.03468 0
M  V30 2073 H 193.059 -0.669192 0.30879 0
M  V30 2074 H 195.701 -1.32057 1.36605 0
M  V30 2075 H 193.851 -3.76678 0.951087 0
M  V30 2076 H 195.523 -3.05031 3.46055 0
M  V30 2077 H 193.766 -2.81603 3.29973 0
M  V30 2078 H 194.437 -4.44948 3.26689 0
M  V30 2079 H 196.913 -3.91253 1.41633 0
M  V30 2080 H 195.789 -5.29549 1.44463 0
M  V30 2081 H 196.05 -4.42064 -0.0560404 0
M  V30 2082 N 195.109 -0.891671 -1.2995 0
M  V30 2083 C 196.355 -0.514261 -1.96171 0
M  V30 2084 C 196.688 0.935506 -1.70182 0
M  V30 2085 O 195.963 1.66204 -1.01028 0
M  V30 2086 C 196.246 -0.797719 -3.51153 0
M  V30 2087 C 196.099 -2.2986 -3.86632 0
M  V30 2088 C 197.418 -0.278749 -4.39216 0
M  V30 2089 H 194.537 -0.188314 -0.712535 0
M  V30 2090 H 197.179 -1.11689 -1.53706 0
M  V30 2091 H 195.329 -0.284826 -3.87455 0
M  V30 2092 H 197.001 -2.88042 -3.60319 0
M  V30 2093 H 195.244 -2.76257 -3.34462 0
M  V30 2094 H 195.915 -2.44753 -4.94773 0
M  V30 2095 H 198.391 -0.717825 -4.09862 0
M  V30 2096 H 197.267 -0.506353 -5.46559 0
M  V30 2097 H 197.528 0.820266 -4.34424 0
M  V30 2098 N 196.587 1.43421 -0.653314 0
M  V30 2099 C 197.833 2.02641 -0.175593 0
M  V30 2100 C 198.188 1.5062 1.19713 0
M  V30 2101 O 197.481 0.689697 1.78756 0
M  V30 2102 C 197.675 3.57176 -0.126623 0
M  V30 2103 C 197.504 4.24191 -1.49306 0
M  V30 2104 C 196.274 4.60257 -2.08547 0
M  V30 2105 C 198.472 4.53193 -2.43148 0
M  V30 2106 N 196.454 5.12345 -3.38194 0
M  V30 2107 C 197.825 5.06601 -3.57429 0
M  V30 2108 C 199.88 4.35161 -2.41949 0
M  V30 2109 C 198.583 5.43875 -4.70736 0
M  V30 2110 C 200.609 4.73498 -3.54336 0
M  V30 2111 C 199.971 5.27039 -4.67343 0
M  V30 2112 H 196.07 0.77441 -0.108686 0
M  V30 2113 H 198.654 1.74596 -0.861638 0
M  V30 2114 H 196.825 3.84784 0.528766 0
M  V30 2115 H 198.557 4.03078 0.36198 0
M  V30 2116 H 195.312 4.45302 -1.61255 0
M  V30 2117 H 195.736 5.42842 -4.04538 0
M  V30 2118 H 200.378 3.9304 -1.55818 0
M  V30 2119 H 198.096 5.8494 -5.57558 0
M  V30 2120 H 201.682 4.61241 -3.5461 0
M  V30 2121 H 200.562 5.56153 -5.52868 0
M  V30 2122 N 198.065 0.39524 1.52563 0
M  V30 2123 C 199.29 -0.187456 2.06551 0
M  V30 2124 C 199.715 -1.39249 1.26457 0
M  V30 2125 O 199.073 -1.78947 0.291151 0
M  V30 2126 C 199.121 -0.529985 3.56684 0
M  V30 2127 O 198.225 -1.62307 3.79118 0
M  V30 2128 H 197.566 -0.0202537 0.663691 0
M  V30 2129 H 200.096 0.564426 1.96661 0
M  V30 2130 H 200.106 -0.792598 4.00227 0
M  V30 2131 H 198.781 0.350987 4.14416 0
M  V30 2132 H 197.358 -1.3537 3.47461 0
M  V30 2133 N 199.544 -1.57102 0.125237 0
M  V30 2134 C 200.454 -2.19191 -0.8362 0
M  V30 2135 C 201.47 -1.16985 -1.28805 0
M  V30 2136 O 202.646 -1.49479 -1.34974 0
M  V30 2137 C 199.711 -2.78407 -2.06617 0
M  V30 2138 C 198.772 -3.9567 -1.66565 0
M  V30 2139 C 198.005 -4.52052 -2.83698 0
M  V30 2140 O 198.228 -4.07326 -3.99302 0
M  V30 2141 O 197.162 -5.42645 -2.60423 0
M  V30 2142 H 200.988 -3.01816 -0.337776 0
M  V30 2143 H 198.573 -1.4906 -0.100695 0
M  V30 2144 H 200.455 -3.16129 -2.7864 0
M  V30 2145 H 199.13 -1.9881 -2.55453 0
M  V30 2146 H 198.037 -3.62705 -0.916296 0
M  V30 2147 H 199.37 -4.76722 -1.22464 0
M  V30 2148 N 201.022 0.148545 -1.56898 0
M  V30 2149 C 201.952 1.18524 -2.01182 0
M  V30 2150 C 202.933 1.4489 -0.891123 0
M  V30 2151 O 204.118 1.55836 -1.15882 0
M  V30 2152 C 201.248 2.51879 -2.39112 0
M  V30 2153 C 200.202 2.40038 -3.54353 0
M  V30 2154 C 199.528 3.78089 -3.78091 0
M  V30 2155 C 200.828 1.88577 -4.87069 0
M  V30 2156 H 202.522 0.817029 -2.88036 0
M  V30 2157 H 200.068 0.391575 -1.38574 0
M  V30 2158 H 202.021 3.24627 -2.68692 0
M  V30 2159 H 200.745 2.90532 -1.49193 0
M  V30 2160 H 199.404 1.69742 -3.24936 0
M  V30 2161 H 199.052 4.14175 -2.85426 0
M  V30 2162 H 198.752 3.71028 -4.55645 0
M  V30 2163 H 200.276 4.52387 -4.10095 0
M  V30 2164 H 201.69 2.51117 -5.15377 0
M  V30 2165 H 200.087 1.9241 -5.68417 0
M  V30 2166 H 201.157 0.84136 -4.77545 0
M  V30 2167 N 202.5 1.5196 0.417844 0
M  V30 2168 C 203.911 1.57851 0.997 0
M  V30 2169 C 204.262 0.413714 1.91789 0
M  V30 2170 O 203.387 -0.467057 2.113 0
M  V30 2171 C 203.982 2.86085 1.81496 0
M  V30 2172 C 202.541 2.94483 2.34428 0
M  V30 2173 C 201.688 2.52707 1.14169 0
M  V30 2174 H 204.639 1.57455 0.198392 0
M  V30 2175 H 204.66 2.70947 2.67148 0
M  V30 2176 H 204.172 3.70842 1.14446 0
M  V30 2177 H 202.273 2.142 3.04875 0
M  V30 2178 H 202.386 3.98546 2.65891 0
M  V30 2179 H 200.75 2.06353 1.49301 0
M  V30 2180 H 201.533 3.39828 0.486999 0
M  V30 2181 N 203.978 -0.674533 1.42435 0
M  V30 2182 C 205.389 -1.25514 1.38214 0
M  V30 2183 C 205.74 -1.96055 0.0755464 0
M  V30 2184 O 204.865 -2.00028 -0.8257 0
M  V30 2185 C 205.46 -2.28269 2.50357 0
M  V30 2186 C 204.019 -2.81856 2.49467 0
M  V30 2187 C 203.166 -1.56182 2.29134 0
M  V30 2188 H 206.117 -0.467902 1.51646 0
M  V30 2189 H 206.138 -3.10009 2.20624 0
M  V30 2190 H 205.65 -1.769 3.45439 0
M  V30 2191 H 203.751 -3.37346 1.58204 0
M  V30 2192 H 203.864 -3.30854 3.46515 0
M  V30 2193 H 202.228 -1.82761 1.774 0
M  V30 2194 H 203.011 -1.06778 3.26272 0
M  V30 2195 N 205.456 -1.28612 -0.910864 0
M  V30 2196 C 206.704 -1.15705 -1.65701 0
M  V30 2197 C 207.025 0.29416 -1.92769 0
M  V30 2198 O 206.295 1.20331 -1.54588 0
M  V30 2199 H 204.875 -0.425216 -0.614167 0
M  V30 2200 H 207.537 -1.61381 -1.0928 0
M  V30 2201 H 206.633 -1.6988 -2.61815 0
M  V30 2202 N 206.934 1.1197 -1.10907 0
M  V30 2203 C 207.897 2.16031 -0.765707 0
M  V30 2204 C 208.897 1.59393 0.212235 0
M  V30 2205 O 210.087 1.74196 -0.0115441 0
M  V30 2206 C 207.219 3.40632 -0.135053 0
M  V30 2207 H 208.412 2.47919 -1.68748 0
M  V30 2208 H 205.965 1.27061 -0.910226 0
M  V30 2209 H 206.7 3.14348 0.797218 0
M  V30 2210 H 206.485 3.8302 -0.838937 0
M  V30 2211 H 207.975 4.17505 0.0892469 0
M  V30 2212 N 208.412 0.89855 1.29475 0
M  V30 2213 C 209.66 0.522847 1.9522 0
M  V30 2214 C 209.981 -0.93371 1.71192 0
M  V30 2215 O 209.251 -1.65823 1.04305 0
M  V30 2216 H 207.831 0.190366 0.722336 0
M  V30 2217 H 210.493 1.14459 1.5775 0
M  V30 2218 H 209.589 0.704476 3.04045 0
M  V30 2219 N 209.89 -1.43072 0.660911 0
M  V30 2220 C 210.82 -2.33497 -0.0122829 0
M  V30 2221 C 211.801 -1.49903 -0.803925 0
M  V30 2222 O 212.986 -1.78546 -0.763864 0
M  V30 2223 C 210.116 -3.33363 -0.973994 0
M  V30 2224 C 209.07 -4.27003 -0.291928 0
M  V30 2225 C 208.396 -5.16967 -1.36562 0
M  V30 2226 C 209.696 -5.15816 0.820462 0
M  V30 2227 H 211.39 -2.90038 0.742873 0
M  V30 2228 H 208.936 -1.39461 0.358688 0
M  V30 2229 H 210.889 -3.95524 -1.45392 0
M  V30 2230 H 209.613 -2.75095 -1.7604 0
M  V30 2231 H 208.272 -3.66217 0.167623 0
M  V30 2232 H 207.92 -4.55034 -2.14366 0
M  V30 2233 H 207.62 -5.80441 -0.914454 0
M  V30 2234 H 209.144 -5.82003 -1.84675 0
M  V30 2235 H 210.558 -5.71742 0.422366 0
M  V30 2236 H 208.955 -5.8805 1.19656 0
M  V30 2237 H 210.025 -4.55045 1.67518 0
M  V30 2238 N 211.368 -0.403325 -1.52352 0
M  V30 2239 C 212.616 0.174003 -2.0135 0
M  V30 2240 C 212.937 1.46139 -1.29106 0
M  V30 2241 O 212.207 1.91448 -0.415253 0
M  V30 2242 H 210.787 0.0672911 -0.743963 0
M  V30 2243 H 213.449 -0.538235 -1.87321 0
M  V30 2244 H 212.545 0.374254 -3.09848 0
M  V30 2245 N 212.846 1.57033 -0.133567 0
M  V30 2246 C 214.071 2.00475 0.531477 0
M  V30 2247 C 214.496 1.01291 1.58499 0
M  V30 2248 O 213.854 -0.0133279 1.81295 0
M  V30 2249 C 213.902 3.42729 1.12113 0
M  V30 2250 O 213.006 3.46498 2.23636 0
M  V30 2251 H 212.347 0.650876 0.131362 0
M  V30 2252 H 214.877 2.03344 -0.22634 0
M  V30 2253 H 214.887 3.81246 1.4531 0
M  V30 2254 H 213.562 4.14428 0.349557 0
M  V30 2255 H 212.139 3.19811 1.91769 0
M  V30 2256 N 214.325 -0.140222 1.56975 0
M  V30 2257 C 215.55 -0.870414 1.88251 0
M  V30 2258 C 215.975 -1.73637 0.723312 0
M  V30 2259 O 215.333 -1.78329 -0.32689 0
M  V30 2260 C 215.381 -1.69737 3.18154 0
M  V30 2261 O 214.485 -2.80229 3.02565 0
M  V30 2262 H 213.826 -0.242025 0.61832 0
M  V30 2263 H 216.356 -0.128999 2.04193 0
M  V30 2264 H 216.366 -2.09099 3.50345 0
M  V30 2265 H 215.041 -1.06152 4.02125 0
M  V30 2266 H 213.618 -2.44224 2.81796 0
M  V30 2267 N 215.803 -1.52179 -0.40978 0
M  V30 2268 C 216.766 -1.74853 -1.48186 0
M  V30 2269 C 217.766 -0.618417 -1.48433 0
M  V30 2270 O 218.956 -0.886286 -1.49969 0
M  V30 2271 C 216.088 -1.8303 -2.87598 0
M  V30 2272 H 217.281 -2.70559 -1.29374 0
M  V30 2273 H 214.834 -1.42586 -0.640233 0
M  V30 2274 H 215.569 -0.89236 -3.11781 0
M  V30 2275 H 215.354 -2.65187 -2.88822 0
M  V30 2276 H 216.844 -2.02316 -3.65319 0
M  V30 2277 N 217.281 0.66697 -1.42791 0
M  V30 2278 C 218.244 1.76211 -1.46568 0
M  V30 2279 C 219.244 1.56896 -0.352196 0
M  V30 2280 O 220.434 1.63044 -0.613364 0
M  V30 2281 C 217.566 3.14935 -1.30494 0
M  V30 2282 H 218.759 1.74247 -2.44086 0
M  V30 2283 H 216.312 0.877342 -1.29354 0
M  V30 2284 H 217.047 3.2252 -0.339301 0
M  V30 2285 H 216.832 3.30359 -2.11199 0
M  V30 2286 H 218.322 3.94821 -1.36038 0
M  V30 2287 N 218.759 1.29093 0.90403 0
M  V30 2288 C 219.989 1.19516 1.68522 0
M  V30 2289 C 220.397 -0.24738 1.87576 0
M  V30 2290 O 219.74 -1.17798 1.40959 0
M  V30 2291 C 219.802 1.83249 3.0929 0
M  V30 2292 C 219.466 3.32531 3.13484 0
M  V30 2293 C 220.463 4.28821 2.93953 0
M  V30 2294 C 218.148 3.73656 3.35688 0
M  V30 2295 C 220.142 5.64212 2.96553 0
M  V30 2296 C 217.829 5.0917 3.37919 0
M  V30 2297 C 218.827 6.04258 3.18373 0
M  V30 2298 O 218.515 7.37298 3.20385 0
M  V30 2299 H 218.247 0.415467 0.533257 0
M  V30 2300 H 220.801 1.70912 1.13922 0
M  V30 2301 H 219.031 1.26358 3.65473 0
M  V30 2302 H 220.72 1.68054 3.69476 0
M  V30 2303 H 221.486 3.98382 2.76616 0
M  V30 2304 H 217.365 3.00101 3.49943 0
M  V30 2305 H 220.909 6.38407 2.81216 0
M  V30 2306 H 216.806 5.39256 3.54787 0
M  V30 2307 H 217.574 7.46048 3.36681 0
M  V30 2308 N 220.237 -1.11381 1.11499 0
M  V30 2309 C 221.462 -1.87475 0.887019 0
M  V30 2310 C 221.887 -1.79639 -0.557796 0
M  V30 2311 O 221.245 -1.15924 -1.39396 0
M  V30 2312 C 221.293 -3.34213 1.35403 0
M  V30 2313 O 220.397 -4.0903 0.526146 0
M  V30 2314 H 219.738 -0.582099 0.319463 0
M  V30 2315 H 222.268 -1.40785 1.48461 0
M  V30 2316 H 222.278 -3.8506 1.34881 0
M  V30 2317 H 220.953 -3.39232 2.40612 0
M  V30 2318 H 219.53 -3.68082 0.597522 0
M  V30 2319 N 221.715 -0.905404 -1.28997 0
M  V30 2320 C 222.961 -0.535039 -1.95615 0
M  V30 2321 C 223.294 0.917404 -1.71165 0
M  V30 2322 O 222.569 1.65123 -1.02785 0
M  V30 2323 C 222.852 -0.834918 -3.50287 0
M  V30 2324 C 222.705 -2.33948 -3.84172 0
M  V30 2325 C 224.024 -0.325318 -4.38896 0
M  V30 2326 H 221.143 -0.195861 -0.710498 0
M  V30 2327 H 223.785 -1.13313 -1.52513 0
M  V30 2328 H 221.935 -0.325904 -3.87131 0
M  V30 2329 H 223.607 -2.91847 -3.57243 0
M  V30 2330 H 221.85 -2.79789 -3.31513 0
M  V30 2331 H 222.521 -2.49987 -4.92149 0
M  V30 2332 H 224.997 -0.761256 -4.09077 0
M  V30 2333 H 223.873 -0.564295 -5.45992 0
M  V30 2334 H 224.134 0.774144 -4.35269 0
M  V30 2335 N 223.193 1.4272 -0.668489 0
M  V30 2336 C 224.433 2.03497 -0.19194 0
M  V30 2337 C 224.797 1.51684 1.17712 0
M  V30 2338 O 225.998 2.04205 1.74796 0
M  V30 2339 C 224.269 3.56734 -0.218032 0
M  V30 2340 S 225.828 4.38395 0.188438 0
M  V30 2341 H 222.646 0.706542 -0.0794959 0
M  V30 2342 H 225.248 1.74563 -0.880235 0
M  V30 2343 H 223.952 3.91943 -1.2169 0
M  V30 2344 H 223.483 3.90333 0.490303 0
M  V30 2345 H 225.498 4.75345 1.42345 0
M  V30 2346 N 224.671 0.411399 1.52136 0
M  V30 2347 C 225.601 -0.404015 2.29978 0
M  V30 2348 C 226.582 -1.04412 1.34284 0
M  V30 2349 O 227.767 -1.0527 1.63192 0
M  V30 2350 C 224.897 -1.5197 3.12286 0
M  V30 2351 C 223.851 -1.00448 4.16046 0
M  V30 2352 C 223.177 -2.21393 4.86712 0
M  V30 2353 C 224.477 -0.0569336 5.22269 0
M  V30 2354 H 226.171 0.245529 2.98392 0
M  V30 2355 H 223.717 0.119525 1.43503 0
M  V30 2356 H 225.67 -2.09715 3.6551 0
M  V30 2357 H 224.394 -2.19716 2.41646 0
M  V30 2358 H 223.053 -0.449421 3.63835 0
M  V30 2359 H 222.701 -2.87699 4.12599 0
M  V30 2360 H 222.401 -1.87571 5.56858 0
M  V30 2361 H 223.925 -2.7974 5.4275 0
M  V30 2362 H 225.339 -0.54325 5.7072 0
M  V30 2363 H 223.736 0.192594 5.99791 0
M  V30 2364 H 224.806 0.887663 4.76706 0
M  V30 2365 N 226.149 -1.5696 0.141893 0
M  V30 2366 C 227.112 -2.15316 -0.785587 0
M  V30 2367 C 228.112 -1.09366 -1.1788 0
M  V30 2368 O 229.302 -1.35031 -1.10056 0
M  V30 2369 C 226.434 -2.71211 -2.06537 0
M  V30 2370 H 227.627 -2.98608 -0.278041 0
M  V30 2371 H 225.18 -1.5593 -0.107519 0
M  V30 2372 H 225.915 -1.91571 -2.6167 0
M  V30 2373 H 225.7 -3.4872 -1.79268 0
M  V30 2374 H 227.19 -3.16189 -2.72789 0
M  V30 2375 N 227.627 0.131896 -1.57047 0
M  V30 2376 C 228.59 1.14638 -1.98471 0
M  V30 2377 C 229.59 1.35029 -0.873148 0
M  V30 2378 O 230.78 1.31764 -1.13946 0
M  V30 2379 C 227.912 2.50358 -2.31373 0
M  V30 2380 H 229.105 0.79064 -2.8929 0
M  V30 2381 H 226.658 0.375761 -1.51716 0
M  V30 2382 H 227.393 2.90876 -1.43393 0
M  V30 2383 H 227.178 2.36915 -3.12432 0
M  V30 2384 H 228.668 3.23395 -2.64207 0
M  V30 2385 N 229.106 1.52395 0.401703 0
M  V30 2386 C 230.069 1.75636 1.47257 0
M  V30 2387 C 231.069 0.62628 1.48103 0
M  V30 2388 O 232.259 0.894227 1.49497 0
M  V30 2389 C 229.391 1.84553 2.86624 0
M  V30 2390 H 230.584 2.71241 1.27938 0
M  V30 2391 H 228.137 1.42923 0.632662 0
M  V30 2392 H 228.872 0.908882 3.11303 0
M  V30 2393 H 228.657 2.66715 2.87412 0
M  V30 2394 H 230.147 2.04251 3.64241 0
M  V30 2395 N 230.584 -0.659388 1.43143 0
M  V30 2396 C 231.514 -1.78422 1.50625 0
M  V30 2397 C 232.495 -1.66216 0.361443 0
M  V30 2398 O 233.68 -1.85404 0.577834 0
M  V30 2399 C 230.81 -3.16815 1.42287 0
M  V30 2400 C 229.764 -3.43777 2.54954 0
M  V30 2401 C 229.09 -4.81905 2.31671 0
M  V30 2402 C 230.39 -3.39134 3.97222 0
M  V30 2403 H 232.084 -1.72417 2.44771 0
M  V30 2404 H 229.63 -0.828084 1.17808 0
M  V30 2405 H 231.583 -3.95253 1.46127 0
M  V30 2406 H 230.307 -3.23534 0.446435 0
M  V30 2407 H 228.966 -2.67707 2.50457 0
M  V30 2408 H 228.614 -4.85294 1.32284 0
M  V30 2409 H 228.314 -5.00906 3.07192 0
M  V30 2410 H 229.838 -5.62609 2.37284 0
M  V30 2411 H 231.252 -4.07518 4.03239 0
M  V30 2412 H 229.649 -3.69671 4.72719 0
M  V30 2413 H 230.719 -2.37426 4.22797 0
M  V30 2414 N 232.062 -1.29571 -0.897171 0
M  V30 2415 C 232.992 -1.17473 -2.01798 0
M  V30 2416 C 233.973 -0.068323 -1.69963 0
M  V30 2417 O 235.158 -0.248239 -1.92607 0
M  V30 2418 C 232.288 -0.853099 -3.36659 0
M  V30 2419 C 231.242 -1.9161 -3.82713 0
M  V30 2420 C 230.568 -1.44773 -5.14728 0
M  V30 2421 C 231.868 -3.32535 -4.02763 0
M  V30 2422 H 233.562 -2.11237 -2.12177 0
M  V30 2423 H 231.108 -1.01699 -1.01948 0
M  V30 2424 H 233.061 -0.755165 -4.14578 0
M  V30 2425 H 231.785 0.120236 -3.26379 0
M  V30 2426 H 230.444 -2.00346 -3.07013 0
M  V30 2427 H 230.092 -0.462995 -5.00865 0
M  V30 2428 H 229.792 -2.15865 -5.46513 0
M  V30 2429 H 231.316 -1.36334 -5.95185 0
M  V30 2430 H 232.73 -3.26626 -4.71156 0
M  V30 2431 H 231.127 -4.01607 -4.45905 0
M  V30 2432 H 232.197 -3.75326 -3.07016 0
M  V30 2433 N 233.54 1.10788 -1.12088 0
M  V30 2434 C 234.768 1.86461 -0.896651 0
M  V30 2435 C 235.183 1.80492 0.553912 0
M  V30 2436 O 234.54 1.19102 1.38278 0
M  V30 2437 C 234.591 3.35006 -1.35843 0
M  V30 2438 O 234.312 3.40866 -2.75213 0
M  V30 2439 C 235.813 4.27565 -1.1706 0
M  V30 2440 H 233.033 0.589425 -0.320654 0
M  V30 2441 H 235.577 1.40076 -1.48993 0
M  V30 2442 H 233.732 3.7887 -0.808458 0
M  V30 2443 H 234.146 4.33411 -2.9539 0
M  V30 2444 H 235.62 5.30007 -1.54263 0
M  V30 2445 H 236.097 4.3906 -0.110814 0
M  V30 2446 H 236.703 3.89501 -1.70789 0
M  V30 2447 N 235.018 0.912232 1.28515 0
M  V30 2448 C 236.264 0.545405 1.95328 0
M  V30 2449 C 236.597 -0.908313 1.71649 0
M  V30 2450 O 235.872 -1.64575 1.03659 0
M  V30 2451 C 236.155 0.853483 3.4984 0
M  V30 2452 C 236.008 2.35982 3.82926 0
M  V30 2453 C 237.327 0.348589 4.38717 0
M  V30 2454 H 234.446 0.199626 0.709449 0
M  V30 2455 H 237.088 1.1412 1.5191 0
M  V30 2456 H 235.238 0.34643 3.86952 0
M  V30 2457 H 236.91 2.93738 3.55691 0
M  V30 2458 H 235.153 2.81543 3.30024 0
M  V30 2459 H 235.824 2.52593 4.90816 0
M  V30 2460 H 238.3 0.78294 4.08668 0
M  V30 2461 H 237.176 0.593242 5.45685 0
M  V30 2462 H 237.437 -0.751049 4.35674 0
M  V30 2463 N 236.496 -1.42363 0.676048 0
M  V30 2464 C 237.736 -2.03392 0.20273 0
M  V30 2465 C 238.1 -1.52306 -1.16906 0
M  V30 2466 O 239.301 -2.05129 -1.73711 0
M  V30 2467 C 237.572 -3.56614 0.236947 0
M  V30 2468 S 239.131 -4.38489 -0.165186 0
M  V30 2469 H 235.949 -0.70611 0.0832418 0
M  V30 2470 H 238.551 -1.74093 0.88948 0
M  V30 2471 H 237.255 -3.91293 1.23767 0
M  V30 2472 H 236.786 -3.90587 -0.469596 0
M  V30 2473 H 238.801 -4.76093 -1.39822 0
M  V30 2474 N 237.974 -0.419461 -1.51915 0
M  V30 2475 C 238.884 0.407528 -2.31033 0
M  V30 2476 C 239.9 1.04413 -1.3919 0
M  V30 2477 O 241.076 1.0434 -1.72265 0
M  V30 2478 C 238.141 1.50365 -3.12396 0
M  V30 2479 C 237.202 0.889029 -4.19994 0
M  V30 2480 C 236.435 1.93291 -4.97468 0
M  V30 2481 O 236.658 3.15259 -4.75361 0
M  V30 2482 O 235.592 1.53339 -5.8204 0
M  V30 2483 H 239.418 -0.237865 -3.02767 0
M  V30 2484 H 237.003 -0.182413 -1.48282 0
M  V30 2485 H 238.885 2.13975 -3.63032 0
M  V30 2486 H 237.56 2.13345 -2.43445 0
M  V30 2487 H 236.467 0.215353 -3.7348 0
M  V30 2488 H 237.8 0.302991 -4.91267 0
M  V30 2489 N 239.452 1.56882 -0.150215 0
M  V30 2490 C 240.362 2.20494 0.801222 0
M  V30 2491 C 241.378 1.19019 1.26927 0
M  V30 2492 O 242.554 1.51607 1.32579 0
M  V30 2493 C 239.619 2.81659 2.02161 0
M  V30 2494 C 238.68 3.9827 1.60249 0
M  V30 2495 C 237.913 4.56508 2.7647 0
M  V30 2496 O 238.136 4.13627 3.92771 0
M  V30 2497 O 237.07 5.46719 2.51757 0
M  V30 2498 H 240.896 3.02315 0.289717 0
M  V30 2499 H 238.481 1.49202 0.0769684 0
M  V30 2500 H 240.363 3.20522 2.73576 0
M  V30 2501 H 239.038 2.02849 2.52258 0
M  V30 2502 H 237.945 3.64117 0.858477 0
M  V30 2503 H 239.278 4.78609 1.14864 0
M  V30 2504 N 240.93 -0.123565 1.57115 0
M  V30 2505 C 242.179 -0.830704 1.83799 0
M  V30 2506 C 242.492 -1.81259 0.735158 0
M  V30 2507 O 243.698 -2.56558 0.888278 0
M  V30 2508 C 242.154 -1.52802 3.25852 0
M  V30 2509 C 241.762 -0.587356 4.44133 0
M  V30 2510 C 243.506 -2.22056 3.61789 0
M  V30 2511 C 241.413 -1.28764 5.77212 0
M  V30 2512 H 240.343 -0.313967 0.685522 0
M  V30 2513 H 242.994 -0.0834359 1.8331 0
M  V30 2514 H 241.376 -2.32175 3.20797 0
M  V30 2515 H 242.55 0.172829 4.60476 0
M  V30 2516 H 240.865 -0.00201892 4.164 0
M  V30 2517 H 243.462 -2.75131 4.58483 0
M  V30 2518 H 243.805 -2.99644 2.88997 0
M  V30 2519 H 244.338 -1.49576 3.68608 0
M  V30 2520 H 241.077 -0.55314 6.53162 0
M  V30 2521 H 240.597 -2.01995 5.64764 0
M  V30 2522 H 242.276 -1.8221 6.20813 0
M  V30 2523 N 242.408 -1.52605 -0.393616 0
M  V30 2524 C 243.819 -1.59417 -0.971761 0
M  V30 2525 C 244.17 -0.444173 -1.91106 0
M  V30 2526 O 243.295 0.433382 -2.12016 0
M  V30 2527 C 243.89 -2.88936 -1.76921 0
M  V30 2528 C 242.449 -2.98175 -2.29714 0
M  V30 2529 C 241.596 -2.54491 -1.10135 0
M  V30 2530 H 244.547 -1.57751 -0.173317 0
M  V30 2531 H 244.568 -2.75163 -2.62804 0
M  V30 2532 H 244.08 -3.72616 -1.08532 0
M  V30 2533 H 242.181 -2.19024 -3.01429 0
M  V30 2534 H 242.294 -4.02726 -2.59517 0
M  V30 2535 H 240.658 -2.08702 -1.45999 0
M  V30 2536 H 241.441 -3.4056 -0.432874 0
M  V30 2537 N 243.887 0.651787 -1.4349 0
M  V30 2538 C 244.835 1.78586 -1.49029 0
M  V30 2539 C 245.829 1.65448 -0.363767 0
M  V30 2540 O 247.035 1.71777 -0.537821 0
M  V30 2541 H 243.41 0.589236 -0.467231 0
M  V30 2542 H 245.381 1.71035 -2.44519 0
M  V30 2543 C 244.13 3.16851 -1.43181 0
M  V30 2544 H 243.453 3.27598 -2.29171 0
M  V30 2545 H 244.893 3.96156 -1.51118 0
M  V30 2546 C 243.352 3.36568 -0.149616 0
M  V30 2547 O 243.882 3.93885 0.788509 0
M  V30 2548 N 242.088 2.90539 -0.0593484 0
M  V30 2549 H 241.635 2.4408 -0.823575 0
M  V30 2550 H 241.593 3.04108 0.797853 0
M  V30 2551 N 245.365 1.30045 0.890287 0
M  V30 2552 C 246.776 1.16738 1.45702 0
M  V30 2553 C 247.127 -0.233939 1.948 0
M  V30 2554 O 246.252 -1.13021 1.84541 0
M  V30 2555 C 246.847 2.11313 2.64825 0
M  V30 2556 C 245.406 2.02001 3.17604 0
M  V30 2557 C 244.553 2.01699 1.90296 0
M  V30 2558 H 247.504 1.42392 0.700726 0
M  V30 2559 H 247.525 1.69086 3.40867 0
M  V30 2560 H 247.037 3.13294 2.2906 0
M  V30 2561 H 245.138 1.03142 3.5804 0
M  V30 2562 H 245.251 2.90128 3.81264 0
M  V30 2563 H 243.615 1.46427 2.08402 0
M  V30 2564 H 244.398 3.05402 1.56795 0
M  V30 2565 N 246.843 -1.10192 1.12674 0
M  V30 2566 C 247.773 -2.18652 0.819362 0
M  V30 2567 C 248.754 -1.68698 -0.217915 0
M  V30 2568 O 249.939 -1.94041 -0.0785581 0
M  V30 2569 C 247.069 -3.46202 0.27594 0
M  V30 2570 C 246.023 -4.09444 1.24656 0
M  V30 2571 C 245.349 -5.31725 0.563258 0
M  V30 2572 C 246.649 -4.52863 2.60217 0
M  V30 2573 H 248.343 -2.44622 1.72628 0
M  V30 2574 H 245.889 -1.17571 0.831451 0
M  V30 2575 H 247.842 -4.21372 0.0486149 0
M  V30 2576 H 246.566 -3.1973 -0.666331 0
M  V30 2577 H 245.225 -3.36284 1.45974 0
M  V30 2578 H 244.873 -5.0153 -0.384235 0
M  V30 2579 H 244.573 -5.74991 1.21075 0
M  V30 2580 H 246.097 -6.09624 0.34503 0
M  V30 2581 H 247.511 -5.19294 2.42913 0
M  V30 2582 H 245.908 -5.06986 3.21068 0
M  V30 2583 H 246.978 -3.65656 3.18471 0
M  V30 2584 N 248.321 -0.919034 -1.28029 0
M  V30 2585 C 249.268 -0.410005 -2.27129 0
M  V30 2586 C 250.238 0.518405 -1.57803 0
M  V30 2587 O 251.423 0.439451 -1.8567 0
M  V30 2588 C 248.563 0.339054 -3.4343 0
M  V30 2589 C 247.676 -0.622468 -4.27492 0
M  V30 2590 C 246.811 0.145567 -5.31001 0
M  V30 2591 C 245.85 -0.809226 -6.06727 0
M  V30 2592 N 244.987 -0.0743728 -7.02061 0
M  V30 2593 H 249.827 -1.26011 -2.70047 0
M  V30 2594 H 247.364 -0.632663 -1.328 0
M  V30 2595 H 249.322 0.789586 -4.0966 0
M  V30 2596 H 247.952 1.15346 -3.01488 0
M  V30 2597 H 247.004 -1.19153 -3.61257 0
M  V30 2598 H 248.316 -1.35252 -4.80113 0
M  V30 2599 H 247.47 0.656417 -6.03139 0
M  V30 2600 H 246.209 0.908643 -4.79161 0
M  V30 2601 H 245.214 -1.3314 -5.33436 0
M  V30 2602 H 246.439 -1.57194 -6.60656 0
M  V30 2603 H 244.385 0.670616 -6.52563 0
M  V30 2604 H 244.302 -0.744157 -7.52329 0
M  V30 2605 H 245.57 0.416109 -7.78389 0
M  V30 2606 N 249.799 1.42003 -0.683588 0
M  V30 2607 C 251.076 1.95112 -0.138075 0
M  V30 2608 C 251.456 1.62359 1.34918 0
M  V30 2609 O 250.804 0.924311 2.08971 0
M  V30 2610 C 251.014 3.46505 -0.416581 0
M  V30 2611 C 252.362 4.23254 -0.337834 0
M  V30 2612 O 253.386 3.54468 -0.35082 0
M  V30 2613 O 252.245 5.45743 -0.287596 0
M  V30 2614 H 249.339 0.826961 -0.00797996 0
M  V30 2615 H 251.885 1.51784 -0.758924 0
M  V30 2616 H 250.657 3.63582 -1.4465 0
M  V30 2617 H 250.28 3.969 0.235839 0
M  V30 2618 N 251.277 0.427512 1.51691 0
M  V30 2619 C 252.525 -0.141948 2.01601 0
M  V30 2620 C 252.846 -1.44067 1.31414 0
M  V30 2621 O 252.116 -1.90763 0.445658 0
M  V30 2622 H 250.696 -0.0554468 0.744939 0
M  V30 2623 H 253.358 0.567968 1.86441 0
M  V30 2624 H 252.454 -0.324913 3.10404 0
M  V30 2625 N 252.755 -1.56801 0.158532 0
M  V30 2626 C 254.032 -1.88131 -0.535357 0
M  V30 2627 C 254.412 -1.06638 -1.82186 0
M  V30 2628 O 253.76 -0.156533 -2.27963 0
M  V30 2629 C 253.97 -3.39949 -0.789653 0
M  V30 2630 C 255.318 -4.09416 -1.12533 0
M  V30 2631 O 256.342 -3.45194 -0.878622 0
M  V30 2632 O 255.201 -5.22855 -1.59014 0
M  V30 2633 H 252.295 -0.780143 -0.27442 0
M  V30 2634 H 254.841 -1.68564 0.19601 0
M  V30 2635 H 253.613 -3.91115 0.120353 0
M  V30 2636 H 253.236 -3.65084 -1.57479 0
M  V30 2637 N 254.233 0.115231 -1.57178 0
M  V30 2638 C 255.473 0.828199 -1.8687 0
M  V30 2639 C 255.837 1.76873 -0.747002 0
M  V30 2640 O 257.038 2.52354 -0.925785 0
M  V30 2641 C 255.309 1.55515 -3.21792 0
M  V30 2642 S 256.868 2.30917 -3.73125 0
M  V30 2643 H 253.686 0.27634 -0.655101 0
M  V30 2644 H 256.288 0.0863469 -1.95309 0
M  V30 2645 H 254.992 0.856248 -4.01368 0
M  V30 2646 H 254.523 2.3373 -3.16439 0
M  V30 2647 H 256.538 3.56705 -3.44929 0
M  V30 2648 N 255.711 1.52812 0.385517 0
M  V30 2649 C 256.957 1.68275 1.13188 0
M  V30 2650 C 257.29 0.423179 1.89533 0
M  V30 2651 O 256.565 -0.579113 1.85679 0
M  V30 2652 C 256.848 2.92001 2.1073 0
M  V30 2653 C 256.701 4.28067 1.38125 0
M  V30 2654 C 258.02 3.11283 3.11113 0
M  V30 2655 H 255.139 0.612352 0.410115 0
M  V30 2656 H 257.781 1.85415 0.414869 0
M  V30 2657 H 255.931 2.77519 2.71874 0
M  V30 2658 H 257.603 4.54324 0.799187 0
M  V30 2659 H 255.846 4.28388 0.683092 0
M  V30 2660 H 256.517 5.10733 2.09417 0
M  V30 2661 H 258.993 3.2482 2.6006 0
M  V30 2662 H 257.869 3.99325 3.76605 0
M  V30 2663 H 258.13 2.25656 3.80173 0
M  V30 2664 N 257.189 -0.644168 1.43834 0
M  V30 2665 C 258.137 -1.77793 1.49974 0
M  V30 2666 C 259.131 -1.65253 0.372536 0
M  V30 2667 O 260.337 -1.7149 0.546924 0
M  V30 2668 H 256.712 -0.58675 0.47035 0
M  V30 2669 H 258.683 -1.69736 2.45423 0
M  V30 2670 C 257.432 -3.16087 1.4486 0
M  V30 2671 H 256.755 -3.26378 2.30905 0
M  V30 2672 H 258.195 -3.95349 1.53217 0
M  V30 2673 C 256.654 -3.36484 0.167463 0
M  V30 2674 O 257.184 -3.94298 -0.767609 0
M  V30 2675 N 255.39 -2.90504 0.0747556 0
M  V30 2676 H 254.937 -2.4364 0.836507 0
M  V30 2677 H 254.895 -3.04527 -0.781714 0
M  V30 2678 N 258.668 -1.30515 -0.883378 0
M  V30 2679 C 260.084 -1.08881 -1.16692 0
M  V30 2680 C 260.284 0.149409 -2.00945 0
M  V30 2681 O 259.34 0.84257 -2.38027 0
M  V30 2682 C 260.653 -2.35319 -1.87204 0
M  V30 2683 C 262.201 -2.40799 -1.99962 0
M  V30 2684 C 262.676 -3.67083 -2.73887 0
M  V30 2685 N 264.167 -3.679 -2.81432 0
M  V30 2686 C 264.902 -4.62303 -3.3921 0
M  V30 2687 N 264.398 -5.67052 -3.98025 0
M  V30 2688 N 266.191 -4.49845 -3.3704 0
M  V30 2689 H 258.342 -2.09951 -0.321633 0
M  V30 2690 H 260.605 -0.92556 -0.205043 0
M  V30 2691 H 260.311 -3.25689 -1.3274 0
M  V30 2692 H 260.185 -2.44089 -2.87577 0
M  V30 2693 H 262.572 -1.50907 -2.53597 0
M  V30 2694 H 262.653 -2.36003 -0.98673 0
M  V30 2695 H 262.297 -4.57334 -2.20925 0
M  V30 2696 H 262.227 -3.69141 -3.75556 0
M  V30 2697 H 264.718 -2.92171 -2.39676 0
M  V30 2698 H 265.031 -6.35184 -4.40183 0
M  V30 2699 H 263.376 -5.70842 -3.96439 0
M  V30 2700 H 266.567 -3.67194 -2.90321 0
M  V30 2701 H 266.74 -5.23597 -3.81772 0
M  V30 2702 N 260.146 1.09593 -1.13257 0
M  V30 2703 C 261.392 1.82181 -0.904521 0
M  V30 2704 C 261.747 1.83967 0.563358 0
M  V30 2705 O 261.04 1.29566 1.41149 0
M  V30 2706 C 261.234 3.27802 -1.42411 0
M  V30 2707 C 261.063 3.40201 -2.94097 0
M  V30 2708 C 259.833 3.52104 -3.62424 0
M  V30 2709 C 262.031 3.32875 -3.92044 0
M  V30 2710 N 260.013 3.53169 -5.0214 0
M  V30 2711 C 261.384 3.40789 -5.17941 0
M  V30 2712 C 263.439 3.16531 -3.84334 0
M  V30 2713 C 262.142 3.34042 -6.37031 0
M  V30 2714 C 264.168 3.11109 -5.02956 0
M  V30 2715 C 263.53 3.19614 -6.27715 0
M  V30 2716 H 259.629 0.681015 -0.384373 0
M  V30 2717 H 262.213 1.3099 -1.44048 0
M  V30 2718 H 260.384 3.77466 -0.915086 0
M  V30 2719 H 262.116 3.88393 -1.13722 0
M  V30 2720 H 258.871 3.5548 -3.12939 0
M  V30 2721 H 259.295 3.57291 -5.75041 0
M  V30 2722 H 263.937 3.08827 -2.88766 0
M  V30 2723 H 261.655 3.4051 -7.32857 0
M  V30 2724 H 265.241 2.99601 -4.98729 0
M  V30 2725 H 264.121 3.15432 -7.17964 0
M  V30 2726 N 261.624 0.925811 1.2754 0
M  V30 2727 C 262.852 0.581509 1.9856 0
M  V30 2728 C 263.267 -0.840041 1.69082 0
M  V30 2729 O 262.624 -1.55805 0.950312 0
M  V30 2730 C 262.675 0.795589 3.52637 0
M  V30 2731 O 262.396 2.16121 3.81082 0
M  V30 2732 C 263.897 0.459744 4.4091 0
M  V30 2733 H 261.117 0.220538 0.633722 0
M  V30 2734 H 263.661 1.24232 1.6244 0
M  V30 2735 H 261.816 0.18161 3.86974 0
M  V30 2736 H 262.23 2.2098 4.75676 0
M  V30 2737 H 263.704 0.660244 5.48037 0
M  V30 2738 H 264.181 -0.604625 4.35018 0
M  V30 2739 H 264.787 1.05178 4.12089 0
M  V30 2740 N 263.102 -1.41638 0.69111 0
M  V30 2741 C 264.049 -2.30789 0.0229705 0
M  V30 2742 C 265.019 -1.46863 -0.775911 0
M  V30 2743 O 266.204 -1.75661 -0.74485 0
M  V30 2744 C 263.344 -3.32868 -0.910666 0
M  V30 2745 C 262.457 -4.31875 -0.103874 0
M  V30 2746 C 261.592 -5.21024 -1.03475 0
M  V30 2747 C 260.631 -6.11702 -0.220598 0
M  V30 2748 N 259.768 -6.93349 -1.10504 0
M  V30 2749 H 264.608 -2.87366 0.788978 0
M  V30 2750 H 262.145 -1.41535 0.400794 0
M  V30 2751 H 264.103 -3.90596 -1.46597 0
M  V30 2752 H 262.733 -2.77851 -1.64312 0
M  V30 2753 H 261.785 -3.76131 0.568285 0
M  V30 2754 H 263.097 -4.96003 0.527504 0
M  V30 2755 H 262.251 -5.83565 -1.65943 0
M  V30 2756 H 260.99 -4.57112 -1.69999 0
M  V30 2757 H 259.995 -5.48215 0.417187 0
M  V30 2758 H 261.22 -6.77668 0.440784 0
M  V30 2759 H 259.166 -6.3205 -1.75638 0
M  V30 2760 H 259.083 -7.54146 -0.529125 0
M  V30 2761 H 260.351 -7.60362 -1.71667 0
M  V30 2762 N 264.58 -0.43555 -1.51462 0
M  V30 2763 C 265.49 0.383001 -2.31453 0
M  V30 2764 C 266.506 1.02931 -1.4029 0
M  V30 2765 O 267.682 1.02507 -1.73362 0
M  V30 2766 C 264.747 1.47043 -3.13973 0
M  V30 2767 C 263.808 0.844433 -4.20913 0
M  V30 2768 C 263.041 1.88004 -4.9949 0
M  V30 2769 O 263.264 3.10199 -4.78678 0
M  V30 2770 O 262.198 1.47157 -5.83634 0
M  V30 2771 H 266.024 -0.269964 -3.02498 0
M  V30 2772 H 263.609 -0.19813 -1.4808 0
M  V30 2773 H 265.491 2.10113 -3.65281 0
M  V30 2774 H 264.166 2.10751 -2.45695 0
M  V30 2775 H 263.073 0.175729 -3.73687 0
M  V30 2776 H 264.406 0.250869 -4.9156 0
M  V30 2777 N 266.058 1.56714 -0.166846 0
M  V30 2778 C 267.335 1.88412 0.525373 0
M  V30 2779 C 267.715 1.07602 1.81618 0
M  V30 2780 O 267.063 0.168621 2.27877 0
M  V30 2781 C 267.273 3.40363 0.771613 0
M  V30 2782 C 268.621 4.10007 1.1036 0
M  V30 2783 O 269.645 3.45655 0.860304 0
M  V30 2784 O 268.504 5.2369 1.56239 0
M  V30 2785 H 265.598 0.781587 0.270278 0
M  V30 2786 H 268.144 1.68458 -0.204946 0
M  V30 2787 H 266.916 3.91046 -0.141093 0
M  V30 2788 H 266.539 3.65914 1.55541 0
M  V30 2789 N 267.536 -0.106894 1.57237 0
M  V30 2790 C 268.466 -1.13148 2.04254 0
M  V30 2791 C 269.447 -1.42476 0.929224 0
M  V30 2792 O 270.632 -1.52709 1.19973 0
M  V30 2793 C 267.762 -2.4545 2.45706 0
M  V30 2794 C 266.716 -2.30558 3.60592 0
M  V30 2795 C 266.042 -3.67931 3.87983 0
M  V30 2796 C 267.342 -1.75597 4.91897 0
M  V30 2797 H 269.036 -0.740374 2.90101 0
M  V30 2798 H 266.582 -0.354696 1.39563 0
M  V30 2799 H 268.535 -3.17389 2.77205 0
M  V30 2800 H 267.259 -2.86475 1.56843 0
M  V30 2801 H 265.918 -1.61067 3.29322 0
M  V30 2802 H 265.566 -4.06462 2.96306 0
M  V30 2803 H 265.266 -3.58817 4.65322 0
M  V30 2804 H 266.79 -4.41356 4.21945 0
M  V30 2805 H 268.204 -2.37364 5.21854 0
M  V30 2806 H 266.601 -1.77272 5.73319 0
M  V30 2807 H 267.671 -0.714451 4.79608 0
M  V30 2808 N 269.014 -1.53014 -0.377408 0
M  V30 2809 C 269.924 -1.81557 -1.48574 0
M  V30 2810 C 270.94 -0.703102 -1.59162 0
M  V30 2811 O 272.116 -0.99192 -1.75279 0
M  V30 2812 C 269.181 -1.9889 -2.83978 0
M  V30 2813 C 268.242 -3.22801 -2.83016 0
M  V30 2814 C 267.475 -3.39298 -4.11962 0
M  V30 2815 O 267.698 -2.60345 -5.0752 0
M  V30 2816 O 266.632 -4.32604 -4.18494 0
M  V30 2817 H 270.458 -2.75695 -1.27382 0
M  V30 2818 H 268.043 -1.38248 -0.566373 0
M  V30 2819 H 269.925 -2.11931 -3.6423 0
M  V30 2820 H 268.6 -1.07942 -3.05172 0
M  V30 2821 H 267.507 -3.15193 -2.01505 0
M  V30 2822 H 268.84 -4.13632 -2.66775 0
M  V30 2823 N 270.492 0.636531 -1.44174 0
M  V30 2824 C 271.422 1.76003 -1.53444 0
M  V30 2825 C 272.403 1.65619 -0.387841 0
M  V30 2826 O 273.588 1.84461 -0.607257 0
M  V30 2827 C 270.718 3.14511 -1.4731 0
M  V30 2828 C 269.672 3.39677 -2.60391 0
M  V30 2829 C 268.998 4.78159 -2.39308 0
M  V30 2830 C 270.298 3.32772 -4.02567 0
M  V30 2831 H 271.992 1.68501 -2.47483 0
M  V30 2832 H 269.538 0.809237 -1.19111 0
M  V30 2833 H 271.491 3.92878 -1.52397 0
M  V30 2834 H 270.215 3.22783 -0.49785 0
M  V30 2835 H 268.874 2.63688 -2.54684 0
M  V30 2836 H 268.522 4.83128 -1.39988 0
M  V30 2837 H 268.222 4.95956 -3.15122 0
M  V30 2838 H 269.746 5.58762 -2.46205 0
M  V30 2839 H 271.16 4.01051 -4.09672 0
M  V30 2840 H 269.557 3.62104 -4.7854 0
M  V30 2841 H 270.627 2.30669 -4.2652 0
M  V30 2842 N 271.97 1.30982 0.876444 0
M  V30 2843 C 273.219 1.19658 1.62373 0
M  V30 2844 C 273.532 -0.245636 1.94052 0
M  V30 2845 O 274.738 -0.48049 2.67214 0
M  V30 2846 C 273.194 2.09433 2.92687 0
M  V30 2847 C 272.802 3.58613 2.68516 0
M  V30 2848 C 274.546 2.06893 3.70669 0
M  V30 2849 C 272.453 4.40416 3.94699 0
M  V30 2850 H 271.383 0.444268 0.609214 0
M  V30 2851 H 274.034 1.55791 0.969605 0
M  V30 2852 H 272.416 1.66191 3.59439 0
M  V30 2853 H 273.59 4.10058 2.10212 0
M  V30 2854 H 271.905 3.63063 2.03898 0
M  V30 2855 H 274.502 2.65258 4.64265 0
M  V30 2856 H 274.845 1.05448 4.02724 0
M  V30 2857 H 275.378 2.48301 3.10792 0
M  V30 2858 H 272.117 5.42591 3.67798 0
M  V30 2859 H 271.637 3.93731 4.52477 0
M  V30 2860 H 273.316 4.52294 4.62644 0
M  V30 2861 N 273.449 -1.08991 1.13837 0
M  V30 2862 C 274.397 -2.17841 0.815347 0
M  V30 2863 C 275.391 -1.68164 -0.204233 0
M  V30 2864 O 276.597 -1.79897 -0.0609304 0
M  V30 2865 H 272.972 -0.710654 0.245915 0
M  V30 2866 H 274.943 -2.42315 1.74143 0
M  V30 2867 C 273.692 -3.46381 0.302614 0
M  V30 2868 H 273.015 -3.84979 1.0785 0
M  V30 2869 H 274.455 -4.23844 0.115074 0
M  V30 2870 C 272.914 -3.22556 -0.972591 0
M  V30 2871 O 273.444 -3.45599 -2.04754 0
M  V30 2872 N 271.65 -2.76134 -0.905455 0
M  V30 2873 H 271.197 -2.57582 -0.0305421 0
M  V30 2874 H 271.155 -2.60571 -1.75926 0
M  V30 2875 N 274.927 -0.932562 -1.27047 0
M  V30 2876 C 275.874 -0.434072 -2.26681 0
M  V30 2877 C 276.844 0.501639 -1.58344 0
M  V30 2878 O 278.029 0.419734 -1.86126 0
M  V30 2879 C 275.169 0.30261 -3.43771 0
M  V30 2880 C 274.282 -0.667774 -4.26808 0
M  V30 2881 C 273.417 0.0892393 -5.31125 0
M  V30 2882 C 272.456 -0.873532 -6.05835 0
M  V30 2883 N 271.593 -0.148832 -7.01942 0
M  V30 2884 H 276.433 -1.28868 -2.68695 0
M  V30 2885 H 273.97 -0.646713 -1.32121 0
M  V30 2886 H 275.928 0.746092 -4.10474 0
M  V30 2887 H 274.558 1.12142 -3.02695 0
M  V30 2888 H 273.61 -1.22978 -3.59973 0
M  V30 2889 H 274.922 -1.40337 -4.78651 0
M  V30 2890 H 274.076 0.592409 -6.03801 0
M  V30 2891 H 272.815 0.85777 -4.80097 0
M  V30 2892 H 271.82 -1.38791 -5.31994 0
M  V30 2893 H 273.045 -1.64193 -6.58952 0
M  V30 2894 H 270.991 0.601365 -6.53238 0
M  V30 2895 H 270.908 -0.82391 -7.51497 0
M  V30 2896 H 272.176 0.333527 -7.78786 0
M  V30 2897 N 276.405 1.4127 -0.698611 0
M  V30 2898 C 277.651 2.01979 -0.239972 0
M  V30 2899 C 278.006 1.54353 1.14861 0
M  V30 2900 O 277.299 0.746218 1.76471 0
M  V30 2901 C 277.493 3.56592 -0.240192 0
M  V30 2902 C 277.322 4.19226 -1.62726 0
M  V30 2903 C 276.092 4.53389 -2.23084 0
M  V30 2904 C 278.29 4.45228 -2.57443 0
M  V30 2905 N 276.272 5.01327 -3.54323 0
M  V30 2906 C 277.643 4.94973 -3.73365 0
M  V30 2907 C 279.698 4.27243 -2.55671 0
M  V30 2908 C 278.401 5.28624 -4.878 0
M  V30 2909 C 280.427 4.61985 -3.69221 0
M  V30 2910 C 279.789 5.11904 -4.83873 0
M  V30 2911 H 275.888 0.770561 -0.133269 0
M  V30 2912 H 278.472 1.71767 -0.916748 0
M  V30 2913 H 276.643 3.86271 0.406082 0
M  V30 2914 H 278.375 4.04025 0.23356 0
M  V30 2915 H 275.13 4.39946 -1.75341 0
M  V30 2916 H 275.554 5.29697 -4.21604 0
M  V30 2917 H 280.196 3.87884 -1.68243 0
M  V30 2918 H 277.914 5.66905 -5.75885 0
M  V30 2919 H 281.5 4.49725 -3.69105 0
M  V30 2920 H 280.38 5.38282 -5.70282 0
M  V30 2921 N 277.883 0.443576 1.51229 0
M  V30 2922 C 278.846 -0.353132 2.26463 0
M  V30 2923 C 279.846 -0.944338 1.3015 0
M  V30 2924 O 281.036 -0.817813 1.5381 0
M  V30 2925 C 278.168 -1.50023 3.06114 0
M  V30 2926 H 279.361 0.3063 2.98332 0
M  V30 2927 H 276.914 0.196902 1.55055 0
M  V30 2928 H 277.649 -2.19553 2.38677 0
M  V30 2929 H 277.434 -1.08241 3.76864 0
M  V30 2930 H 278.924 -2.06296 3.63087 0
M  V30 2931 N 279.361 -1.56624 0.175154 0
M  V30 2932 C 280.608 -1.96999 -0.468811 0
M  V30 2933 C 280.936 -1.06129 -1.62994 0
M  V30 2934 O 280.191 -0.0961771 -1.95464 0
M  V30 2935 C 280.49 -3.43419 -0.989864 0
M  V30 2936 C 280.156 -4.50866 0.0557687 0
M  V30 2937 C 278.818 -4.79975 0.343134 0
M  V30 2938 C 281.17 -5.15551 0.765308 0
M  V30 2939 C 278.498 -5.71066 1.34536 0
M  V30 2940 C 280.85 -6.07724 1.75654 0
M  V30 2941 C 279.514 -6.35199 2.05132 0
M  V30 2942 H 278.784 -0.720869 -0.17155 0
M  V30 2943 H 281.431 -1.89616 0.267924 0
M  V30 2944 H 279.736 -3.47772 -1.80449 0
M  V30 2945 H 281.433 -3.72002 -1.49719 0
M  V30 2946 H 278.023 -4.28229 -0.178381 0
M  V30 2947 H 282.207 -4.9317 0.556513 0
M  V30 2948 H 277.463 -5.90635 1.57988 0
M  V30 2949 H 281.637 -6.56912 2.31169 0
M  V30 2950 H 279.264 -7.05584 2.8294 0
M  V30 2951 N 280.839 0.0985539 -1.57292 0
M  V30 2952 C 281.771 1.14595 -1.98496 0
M  V30 2953 C 282.784 1.36512 -0.887031 0
M  V30 2954 O 283.973 1.35225 -1.16518 0
M  V30 2955 C 281.073 2.50216 -2.28572 0
M  V30 2956 C 280.246 2.48624 -3.59868 0
M  V30 2957 C 279.305 3.66146 -3.7792 0
M  V30 2958 O 278.331 3.48795 -4.49812 0
M  V30 2959 N 279.533 4.85496 -3.18235 0
M  V30 2960 H 282.298 0.795277 -2.88956 0
M  V30 2961 H 279.859 0.287579 -1.59325 0
M  V30 2962 H 281.851 3.27432 -2.37845 0
M  V30 2963 H 280.421 2.77387 -1.44136 0
M  V30 2964 H 279.641 1.56978 -3.61596 0
M  V30 2965 H 280.929 2.44635 -4.46129 0
M  V30 2966 H 280.327 5.02497 -2.59833 0
M  V30 2967 H 278.884 5.60317 -3.32999 0
M  V30 2968 N 282.317 1.53212 0.369288 0
M  V30 2969 C 283.565 1.68881 1.11012 0
M  V30 2970 C 283.886 0.441285 1.89941 0
M  V30 2971 O 283.156 -0.544623 1.88177 0
M  V30 2972 H 281.736 0.622569 0.412816 0
M  V30 2973 H 284.398 1.90391 0.416802 0
M  V30 2974 H 283.494 2.54822 1.80201 0
M  V30 2975 N 283.795 -0.628877 1.44509 0
M  V30 2976 C 284.705 -1.7694 1.54044 0
M  V30 2977 C 285.721 -1.68705 0.425987 0
M  V30 2978 O 286.897 -1.89442 0.683656 0
M  V30 2979 C 283.962 -3.13332 1.48405 0
M  V30 2980 C 283.023 -3.33181 2.70719 0
M  V30 2981 C 282.256 -4.63067 2.6534 0
M  V30 2982 O 282.479 -5.44017 1.71469 0
M  V30 2983 O 281.413 -4.85167 3.56226 0
M  V30 2984 H 285.239 -1.71848 2.50403 0
M  V30 2985 H 282.824 -0.790378 1.26781 0
M  V30 2986 H 284.706 -3.94634 1.47791 0
M  V30 2987 H 283.381 -3.1896 0.551898 0
M  V30 2988 H 282.288 -2.51549 2.769 0
M  V30 2989 H 283.621 -3.32416 3.62988 0
M  V30 2990 N 285.273 -1.31445 -0.869486 0
M  V30 2991 C 286.689 -1.10113 -1.15531 0
M  V30 2992 C 286.889 0.128087 -2.01092 0
M  V30 2993 O 285.945 0.817276 -2.38908 0
M  V30 2994 C 287.258 -2.37291 -1.84698 0
M  V30 2995 C 288.806 -2.42906 -1.97397 0
M  V30 2996 C 289.281 -3.69967 -2.69979 0
M  V30 2997 N 290.772 -3.70864 -2.77514 0
M  V30 2998 C 291.507 -4.65875 -3.34287 0
M  V30 2999 N 291.003 -5.71242 -3.91988 0
M  V30 3000 N 292.796 -4.53394 -3.3225 0
M  V30 3001 H 284.947 -2.1028 -0.299347 0
M  V30 3002 H 287.21 -0.927683 -0.195214 0
M  V30 3003 H 286.916 -3.27078 -1.29278 0
M  V30 3004 H 286.79 -2.47125 -2.84972 0
M  V30 3005 H 289.177 -1.53588 -2.51982 0
M  V30 3006 H 289.258 -2.37036 -0.961643 0
M  V30 3007 H 288.902 -4.59652 -2.16062 0
M  V30 3008 H 288.832 -3.73103 -3.7162 0
M  V30 3009 H 291.323 -2.94697 -2.36563 0
M  V30 3010 H 291.636 -6.39817 -4.33421 0
M  V30 3011 H 289.981 -5.75015 -3.90362 0
M  V30 3012 H 293.172 -3.70252 -2.8641 0
M  V30 3013 H 293.345 -5.27617 -3.76197 0
M  V30 3014 N 286.751 1.08385 -1.14413 0
M  V30 3015 C 287.684 2.14642 -0.774871 0
M  V30 3016 C 288.662 1.60761 0.243876 0
M  V30 3017 O 289.846 1.88031 0.132883 0
M  V30 3018 C 286.973 3.38366 -0.150491 0
M  V30 3019 C 286.019 4.10997 -1.13945 0
M  V30 3020 S 286.852 4.63797 -2.67679 0
M  V30 3021 C 288.008 5.90808 -2.06631 0
M  V30 3022 H 288.241 2.45633 -1.67487 0
M  V30 3023 H 285.774 1.20498 -0.96538 0
M  V30 3024 H 287.732 4.09996 0.203334 0
M  V30 3025 H 286.393 3.05572 0.72694 0
M  V30 3026 H 285.586 4.99783 -0.65059 0
M  V30 3027 H 285.188 3.4528 -1.43727 0
M  V30 3028 H 287.48 6.62411 -1.4219 0
M  V30 3029 H 288.423 6.4439 -2.93542 0
M  V30 3030 H 288.831 5.4383 -1.51357 0
M  V30 3031 N 288.23 0.939286 1.26551 0
M  V30 3032 C 289.479 0.581601 1.93133 0
M  V30 3033 C 289.792 -0.883224 1.74524 0
M  V30 3034 O 290.998 -1.3502 2.35546 0
M  V30 3035 C 289.454 0.989425 3.46032 0
M  V30 3036 C 289.062 2.47573 3.73379 0
M  V30 3037 C 290.806 0.703544 4.18629 0
M  V30 3038 C 288.713 2.82235 5.19709 0
M  V30 3039 H 287.643 0.213803 0.723052 0
M  V30 3040 H 290.294 1.14167 1.4366 0
M  V30 3041 H 288.676 0.357902 3.94379 0
M  V30 3042 H 289.85 3.15614 3.35744 0
M  V30 3043 H 288.165 2.73471 3.1401 0
M  V30 3044 H 290.762 0.938869 5.26393 0
M  V30 3045 H 291.105 -0.359639 4.14744 0
M  V30 3046 H 291.638 1.2947 3.76141 0
M  V30 3047 H 288.377 3.87509 5.28694 0
M  V30 3048 H 287.897 2.18854 5.58447 0
M  V30 3049 H 289.576 2.70599 5.87695 0
M  V30 3050 N 289.708 -1.40897 0.706093 0
M  V30 3051 C 290.658 -2.27987 0.0240746 0
M  V30 3052 C 291.642 -1.42759 -0.742204 0
M  V30 3053 O 292.834 -1.65936 -0.615966 0
M  V30 3054 C 289.963 -3.31186 -0.903907 0
M  V30 3055 C 289.049 -4.2389 -0.133318 0
M  V30 3056 N 289.44 -4.98113 0.878444 0
M  V30 3057 C 287.738 -4.44485 -0.367269 0
M  V30 3058 C 288.439 -5.6604 1.34064 0
M  V30 3059 N 287.415 -5.39522 0.664565 0
M  V30 3060 H 291.217 -2.82812 0.799658 0
M  V30 3061 H 288.731 -1.53235 0.537845 0
M  V30 3062 H 290.728 -3.92413 -1.40775 0
M  V30 3063 H 289.388 -2.77922 -1.67897 0
M  V30 3064 H 290.399 -5.02364 1.25901 0
M  V30 3065 H 287.076 -4.02213 -1.1194 0
M  V30 3066 H 288.466 -6.35524 2.1808 0
M  V30 3067 N 291.186 -0.45159 -1.50991 0
M  V30 3068 C 292.434 0.109857 -2.01801 0
M  V30 3069 C 292.755 1.41958 -1.3369 0
M  V30 3070 O 292.025 1.9003 -0.475951 0
M  V30 3071 H 290.605 0.0435884 -0.745727 0
M  V30 3072 H 293.267 -0.597557 -1.85514 0
M  V30 3073 H 292.363 0.275489 -3.10882 0
M  V30 3074 N 292.664 1.56529 -0.183458 0
M  V30 3075 C 293.612 2.19873 0.758845 0
M  V30 3076 C 294.606 1.16638 1.22849 0
M  V30 3077 O 295.812 1.3481 1.19274 0
M  V30 3078 H 292.187 0.7045 0.263029 0
M  V30 3079 H 294.158 2.97724 0.200755 0
M  V30 3080 C 292.907 2.86314 1.9728 0
M  V30 3081 H 292.23 3.65487 1.62047 0
M  V30 3082 H 293.67 3.3409 2.61075 0
M  V30 3083 C 292.129 1.86729 2.80418 0
M  V30 3084 O 292.659 1.36031 3.77966 0
M  V30 3085 N 290.865 1.55216 2.45675 0
M  V30 3086 H 290.412 1.96636 1.66409 0
M  V30 3087 H 290.37 0.888388 3.01588 0
M  V30 3088 N 294.142 -0.090211 1.57342 0
M  V30 3089 C 295.553 -0.644173 1.75235 0
M  V30 3090 C 295.904 -1.78865 0.806335 0
M  V30 3091 O 295.029 -2.16395 -0.0140128 0
M  V30 3092 C 295.624 -1.17532 3.1776 0
M  V30 3093 C 294.183 -1.67531 3.37061 0
M  V30 3094 C 293.33 -0.58693 2.71017 0
M  V30 3095 H 296.281 0.135884 1.58117 0
M  V30 3096 H 296.302 -2.04455 3.20902 0
M  V30 3097 H 295.814 -0.342138 3.86589 0
M  V30 3098 H 293.915 -2.53234 2.73319 0
M  V30 3099 H 294.028 -1.76493 4.45406 0
M  V30 3100 H 292.392 -1.02756 2.33052 0
M  V30 3101 H 293.175 0.235758 3.4249 0
M  V30 3102 N 295.62 -1.53406 -0.361157 0
M  V30 3103 C 296.845 -1.74024 -1.12829 0
M  V30 3104 C 297.27 -0.470069 -1.82132 0
M  V30 3105 O 296.628 0.57619 -1.719 0
M  V30 3106 C 296.676 -2.90903 -2.13091 0
M  V30 3107 O 295.78 -2.59821 -3.20261 0
M  V30 3108 H 295.121 -0.577804 -0.327168 0
M  V30 3109 H 297.651 -2.00307 -0.41693 0
M  V30 3110 H 297.661 -3.17194 -2.56616 0
M  V30 3111 H 296.336 -3.83034 -1.62042 0
M  V30 3112 H 294.913 -2.44362 -2.81677 0
M  V30 3113 N 297.098 0.621204 -1.44841 0
M  V30 3114 C 298.346 1.37783 -1.47852 0
M  V30 3115 C 298.667 1.94653 -0.116224 0
M  V30 3116 O 297.937 1.76367 0.852737 0
M  V30 3117 H 296.517 0.511453 -0.544449 0
M  V30 3118 H 299.179 0.730446 -1.80694 0
M  V30 3119 H 298.275 2.20414 -2.20961 0
M  V30 3120 N 298.576 1.31904 0.862503 0
M  V30 3121 C 299.822 1.22197 1.61851 0
M  V30 3122 C 300.155 -0.217641 1.92977 0
M  V30 3123 O 299.43 -1.15264 1.56666 0
M  V30 3124 C 299.713 2.07378 2.94391 0
M  V30 3125 C 299.566 3.59678 2.70096 0
M  V30 3126 C 300.885 1.92891 3.95577 0
M  V30 3127 H 298.004 0.445255 0.587296 0
M  V30 3128 H 300.646 1.6177 0.99651 0
M  V30 3129 H 298.796 1.73758 3.47477 0
M  V30 3130 H 300.468 4.03472 2.23625 0
M  V30 3131 H 298.711 3.82735 2.04197 0
M  V30 3132 H 299.382 4.14595 3.64438 0
M  V30 3133 H 301.858 2.22327 3.51724 0
M  V30 3134 H 300.734 2.54781 4.86187 0
M  V30 3135 H 300.995 0.894315 4.3296 0
M  V30 3136 N 300.054 -1.07777 1.14986 0
M  V30 3137 C 301.331 -1.7699 0.832695 0
M  V30 3138 C 301.711 -2.001 -0.672561 0
M  V30 3139 O 301.059 -1.61598 -1.6155 0
M  V30 3140 C 301.269 -3.08139 1.63863 0
M  V30 3141 C 302.617 -3.8256 1.84208 0
M  V30 3142 O 303.641 -3.17939 1.60603 0
M  V30 3143 O 302.5 -4.98612 2.23714 0
M  V30 3144 H 299.594 -0.768389 0.305791 0
M  V30 3145 H 302.14 -1.14182 1.25541 0
M  V30 3146 H 300.912 -2.86909 2.6608 0
M  V30 3147 H 300.535 -3.78678 1.21197 0
M  V30 3148 N 301.532 -0.945985 -1.26051 0
M  V30 3149 C 302.48 -0.450259 -2.282 0
M  V30 3150 C 303.474 0.47497 -1.62605 0
M  V30 3151 O 304.68 0.352653 -1.76512 0
M  V30 3152 H 301.055 -0.127081 -0.741184 0
M  V30 3153 H 303.026 -1.32422 -2.67408 0
M  V30 3154 C 301.775 0.26467 -3.46691 0
M  V30 3155 H 301.098 -0.438123 -3.97392 0
M  V30 3156 H 302.538 0.575678 -4.20074 0
M  V30 3157 C 300.997 1.48416 -3.02447 0
M  V30 3158 O 301.527 2.58227 -3.07704 0
M  V30 3159 N 299.733 1.34243 -2.57735 0
M  V30 3160 H 299.28 0.448994 -2.53657 0
M  V30 3161 H 299.238 2.15957 -2.28495 0
M  V30 3162 N 303.011 1.40521 -0.713556 0
M  V30 3163 C 303.974 2.29098 -0.0684347 0
M  V30 3164 C 304.974 1.45268 0.689472 0
M  V30 3165 O 306.164 1.66205 0.521677 0
M  V30 3166 C 303.296 3.28446 0.913024 0
M  V30 3167 H 304.489 2.87645 -0.84855 0
M  V30 3168 H 302.042 1.48809 -0.47809 0
M  V30 3169 H 302.777 2.74913 1.72027 0
M  V30 3170 H 302.562 3.90327 0.372472 0
M  V30 3171 H 304.052 3.94777 1.36165 0
M  V30 3172 N 304.489 0.459591 1.5075 0
M  V30 3173 C 305.735 -0.0994966 2.02556 0
M  V30 3174 C 306.068 -1.40399 1.3417 0
M  V30 3175 O 305.343 -1.88892 0.463683 0
M  V30 3176 C 305.626 -0.295242 3.58888 0
M  V30 3177 C 305.479 1.02947 4.37861 0
M  V30 3178 C 306.798 -1.05502 4.27267 0
M  V30 3179 H 303.917 -0.034686 0.736183 0
M  V30 3180 H 306.559 0.602938 1.8018 0
M  V30 3181 H 304.709 -0.893563 3.78084 0
M  V30 3182 H 306.381 1.66348 4.30263 0
M  V30 3183 H 304.624 1.62885 4.02058 0
M  V30 3184 H 305.295 0.846281 5.45474 0
M  V30 3185 H 307.771 -0.547993 4.12476 0
M  V30 3186 H 306.647 -1.16077 5.36486 0
M  V30 3187 H 306.908 -2.08875 3.89645 0
M  V30 3188 N 305.967 -1.56429 0.191757 0
M  V30 3189 C 307.192 -2.02309 -0.456706 0
M  V30 3190 C 307.617 -1.07103 -1.5463 0
M  V30 3191 O 306.975 -0.0539677 -1.8122 0
M  V30 3192 C 307.023 -3.46654 -0.993159 0
M  V30 3193 O 306.127 -3.54559 -2.10622 0
M  V30 3194 H 305.468 -0.655303 -0.107114 0
M  V30 3195 H 307.998 -2.02364 0.301653 0
M  V30 3196 H 308.008 -3.86377 -1.31061 0
M  V30 3197 H 306.683 -4.1544 -0.195504 0
M  V30 3198 H 305.26 -3.26708 -1.79767 0
M  V30 3199 N 307.445 0.0818655 -1.57387 0
M  V30 3200 C 308.673 0.796108 -1.9097 0
M  V30 3201 C 309.088 1.71626 -0.786757 0
M  V30 3202 O 308.445 1.80908 0.240513 0
M  V30 3203 C 308.496 1.59829 -3.24248 0
M  V30 3204 O 308.217 0.715131 -4.32224 0
M  V30 3205 C 309.718 2.41442 -3.7178 0
M  V30 3206 H 306.938 0.22691 -0.631469 0
M  V30 3207 H 309.482 0.0551439 -2.04426 0
M  V30 3208 H 307.637 2.29163 -3.12351 0
M  V30 3209 H 308.051 1.27205 -5.08841 0
M  V30 3210 H 309.525 2.932 -4.67694 0
M  V30 3211 H 310.002 3.2051 -3.00283 0
M  V30 3212 H 310.608 1.77283 -3.86589 0
M  V30 3213 N 308.923 1.53595 0.353017 0
M  V30 3214 C 310.169 1.71581 1.09232 0
M  V30 3215 C 310.524 0.468328 1.86613 0
M  V30 3216 O 309.817 -0.538911 1.83865 0
M  V30 3217 C 310.011 2.91313 2.07054 0
M  V30 3218 C 309.84 4.27585 1.39287 0
M  V30 3219 C 308.61 4.92233 1.1417 0
M  V30 3220 C 310.808 5.07656 0.824005 0
M  V30 3221 N 308.79 6.124 0.428841 0
M  V30 3222 C 310.161 6.19531 0.241195 0
M  V30 3223 C 312.216 4.92609 0.723922 0
M  V30 3224 C 310.919 7.18002 -0.431952 0
M  V30 3225 C 312.945 5.91365 0.0645334 0
M  V30 3226 C 312.307 7.02571 -0.507347 0
M  V30 3227 H 308.406 0.680987 0.384422 0
M  V30 3228 H 310.99 1.91013 0.377096 0
M  V30 3229 H 309.161 2.73398 2.75877 0
M  V30 3230 H 310.893 2.98062 2.73753 0
M  V30 3231 H 307.648 4.51612 1.42631 0
M  V30 3232 H 308.072 6.76944 0.0874131 0
M  V30 3233 H 312.714 4.06808 1.15181 0
M  V30 3234 H 310.432 8.03384 -0.871758 0
M  V30 3235 H 314.018 5.81799 -0.0121469 0
M  V30 3236 H 312.898 7.77675 -1.0095 0
M  V30 3237 N 310.401 -0.613514 1.45168 0
M  V30 3238 C 311.649 -1.36997 1.48581 0
M  V30 3239 C 311.97 -1.94589 0.126545 0
M  V30 3240 O 311.24 -1.76816 -0.843372 0
M  V30 3241 H 309.82 -0.508558 0.547154 0
M  V30 3242 H 312.482 -0.720853 1.81079 0
M  V30 3243 H 311.578 -2.1924 2.22127 0
M  V30 3244 N 311.879 -1.3236 -0.855495 0
M  V30 3245 C 313.127 -1.22629 -1.60644 0
M  V30 3246 C 313.448 0.212136 -1.93843 0
M  V30 3247 O 312.718 1.13666 -1.59552 0
M  V30 3248 H 311.298 -0.450882 -0.595579 0
M  V30 3249 H 313.96 -1.65871 -1.02337 0
M  V30 3250 H 313.056 -1.80832 -2.54374 0
M  V30 3251 N 313.357 1.07166 -1.15556 0
M  V30 3252 C 314.32 2.12589 -0.856644 0
M  V30 3253 C 315.32 1.6015 0.14444 0
M  V30 3254 O 316.51 1.7399 -0.0854163 0
M  V30 3255 C 313.642 3.39753 -0.279405 0
M  V30 3256 H 314.835 2.40539 -1.79112 0
M  V30 3257 H 312.388 1.23086 -0.963298 0
M  V30 3258 H 313.123 3.17447 0.663174 0
M  V30 3259 H 312.908 3.79117 -1.00063 0
M  V30 3260 H 314.398 4.17507 -0.0879113 0
M  V30 3261 N 314.835 0.952656 1.25548 0
M  V30 3262 C 315.765 0.489287 2.28316 0
M  V30 3263 C 316.746 -0.463359 1.63667 0
M  V30 3264 O 317.931 -0.36274 1.90782 0
M  V30 3265 C 315.061 -0.235603 3.465 0
M  V30 3266 C 314.015 0.631593 4.23314 0
M  V30 3267 C 313.341 -0.223923 5.34231 0
M  V30 3268 C 314.641 1.90871 4.86174 0
M  V30 3269 H 316.335 1.34822 2.67326 0
M  V30 3270 H 313.881 0.649728 1.28509 0
M  V30 3271 H 315.834 -0.570882 4.17515 0
M  V30 3272 H 314.558 -1.12877 3.06474 0
M  V30 3273 H 313.217 0.949929 3.54079 0
M  V30 3274 H 312.865 -1.11678 4.90446 0
M  V30 3275 H 312.565 0.35299 5.86539 0
M  V30 3276 H 314.089 -0.554214 6.0808 0
M  V30 3277 H 315.503 1.63997 5.49343 0
M  V30 3278 H 313.9 2.43112 5.4865 0
M  V30 3279 H 314.97 2.61304 4.08471 0
M  V30 3280 N 316.313 -1.40141 0.720998 0
M  V30 3281 C 317.729 -1.54632 0.395113 0
M  V30 3282 C 317.929 -1.69115 -1.09555 0
M  V30 3283 O 316.985 -1.68377 -1.88163 0
M  V30 3284 C 318.298 -2.77177 1.1659 0
M  V30 3285 C 319.846 -2.91 1.15274 0
M  V30 3286 C 320.321 -4.16465 1.90579 0
M  V30 3287 N 321.812 -4.23476 1.87675 0
M  V30 3288 C 322.547 -5.19475 2.42762 0
M  V30 3289 N 322.043 -6.21348 3.06428 0
M  V30 3290 N 323.836 -5.11592 2.32874 0
M  V30 3291 H 315.987 -1.28986 1.68749 0
M  V30 3292 H 318.25 -0.62412 0.713567 0
M  V30 3293 H 317.956 -2.72771 2.22011 0
M  V30 3294 H 317.83 -3.69442 0.76108 0
M  V30 3295 H 320.217 -2.94907 0.106702 0
M  V30 3296 H 320.298 -1.99838 1.59682 0
M  V30 3297 H 319.942 -4.1332 2.95176 0
M  V30 3298 H 319.872 -5.06646 1.43587 0
M  V30 3299 H 322.363 -3.50497 1.41281 0
M  V30 3300 H 322.676 -6.91034 3.45965 0
M  V30 3301 H 321.021 -6.21777 3.10514 0
M  V30 3302 H 324.212 -4.30936 1.82789 0
M  V30 3303 H 324.385 -5.86233 2.76106 0
M  V30 3304 N 317.792 -0.46758 -1.50504 0
M  V30 3305 C 319.022 0.086288 -2.0642 0
M  V30 3306 C 319.43 1.34369 -1.33197 0
M  V30 3307 O 318.773 1.79431 -0.393747 0
M  V30 3308 C 318.835 0.443846 -3.5675 0
M  V30 3309 C 318.499 -0.711035 -4.51435 0
M  V30 3310 C 319.496 -1.59205 -4.94924 0
M  V30 3311 C 317.181 -0.900363 -4.94165 0
M  V30 3312 C 319.175 -2.64683 -5.79846 0
M  V30 3313 C 316.862 -1.95837 -5.7887 0
M  V30 3314 C 317.86 -2.82997 -6.21612 0
M  V30 3315 O 317.548 -3.86977 -7.0463 0
M  V30 3316 H 317.28 -0.00217814 -0.675996 0
M  V30 3317 H 319.834 -0.654346 -1.94698 0
M  V30 3318 H 318.064 1.23762 -3.6636 0
M  V30 3319 H 319.753 0.932386 -3.95046 0
M  V30 3320 H 320.519 -1.45745 -4.62583 0
M  V30 3321 H 316.398 -0.231427 -4.60419 0
M  V30 3322 H 319.942 -3.32745 -6.13128 0
M  V30 3323 H 315.839 -2.09305 -6.10624 0
M  V30 3324 H 316.607 -3.83923 -7.22873 0
M  V30 3325 N 319.27 1.56325 -0.20005 0
M  V30 3326 C 320.22 2.15939 0.731743 0
M  V30 3327 C 321.204 1.10154 1.17281 0
M  V30 3328 O 322.396 1.36203 1.13038 0
M  V30 3329 C 319.525 2.82614 1.94895 0
M  V30 3330 C 318.611 3.95596 1.52855 0
M  V30 3331 N 319.002 4.99118 0.819418 0
M  V30 3332 C 317.3 4.07288 1.81748 0
M  V30 3333 C 318.001 5.78513 0.608053 0
M  V30 3334 N 316.977 5.31117 1.15828 0
M  V30 3335 H 320.779 2.9334 0.181285 0
M  V30 3336 H 318.293 1.624 -0.000452172 0
M  V30 3337 H 320.29 3.23718 2.62702 0
M  V30 3338 H 318.95 2.06702 2.50408 0
M  V30 3339 H 319.961 5.15723 0.47436 0
M  V30 3340 H 316.638 3.42509 2.38734 0
M  V30 3341 H 318.028 6.71885 0.0451619 0
M  V30 3342 N 320.748 -0.0735177 1.57428 0
M  V30 3343 C 321.68 -1.11423 2.00294 0
M  V30 3344 C 322.693 -1.35084 0.908637 0
M  V30 3345 O 323.882 -1.33355 1.18654 0
M  V30 3346 C 320.982 -2.46548 2.32523 0
M  V30 3347 C 320.155 -2.42867 3.63778 0
M  V30 3348 C 319.214 -3.60087 3.83697 0
M  V30 3349 O 318.24 -3.41595 4.55304 0
M  V30 3350 N 319.442 -4.80372 3.25919 0
M  V30 3351 H 322.207 -0.749206 2.90184 0
M  V30 3352 H 319.768 -0.262195 1.59763 0
M  V30 3353 H 321.76 -3.23607 2.43024 0
M  V30 3354 H 320.33 -2.75059 1.48531 0
M  V30 3355 H 319.55 -1.51206 3.64047 0
M  V30 3356 H 320.838 -2.37506 4.49965 0
M  V30 3357 H 320.236 -4.983 2.67795 0
M  V30 3358 H 318.793 -5.54948 3.41871 0
M  V30 3359 N 322.226 -1.5378 -0.344866 0
M  V30 3360 C 323.474 -1.70625 -1.08311 0
M  V30 3361 C 323.795 -0.471447 -1.89215 0
M  V30 3362 O 323.065 0.514616 -1.8902 0
M  V30 3363 H 321.645 -0.629058 -0.402859 0
M  V30 3364 H 324.307 -1.9103 -0.386459 0
M  V30 3365 H 323.403 -2.57656 -1.76124 0
M  V30 3366 N 323.704 0.605807 -1.45491 0
M  V30 3367 C 324.651 1.7164 -1.54299 0
M  V30 3368 C 325.621 1.61486 -0.388761 0
M  V30 3369 O 326.806 1.81039 -0.602445 0
M  V30 3370 C 323.946 3.09953 -1.51734 0
M  V30 3371 C 323.059 3.309 -2.77721 0
M  V30 3372 C 322.194 4.59329 -2.66816 0
M  V30 3373 C 321.233 4.7354 -3.87848 0
M  V30 3374 N 320.37 5.9327 -3.75467 0
M  V30 3375 H 325.21 1.63449 -2.49176 0
M  V30 3376 H 322.747 0.796957 -1.23641 0
M  V30 3377 H 324.705 3.89977 -1.48235 0
M  V30 3378 H 323.335 3.17098 -0.604068 0
M  V30 3379 H 322.387 2.44639 -2.913 0
M  V30 3380 H 323.699 3.37274 -3.67488 0
M  V30 3381 H 322.853 5.4755 -2.61292 0
M  V30 3382 H 321.592 4.55355 -1.74651 0
M  V30 3383 H 320.597 3.83741 -3.93729 0
M  V30 3384 H 321.822 4.79309 -4.81082 0
M  V30 3385 H 319.768 5.90338 -2.86072 0
M  V30 3386 H 319.685 6.00811 -4.5887 0
M  V30 3387 H 320.953 6.83984 -3.73879 0
M  V30 3388 N 325.182 1.32811 0.848464 0
M  V30 3389 C 326.431 1.23075 1.59798 0
M  V30 3390 C 326.744 -0.204419 1.94529 0
M  V30 3391 O 327.95 -0.423701 2.68173 0
M  V30 3392 C 326.406 2.15594 2.88179 0
M  V30 3393 C 326.014 3.64228 2.60849 0
M  V30 3394 C 327.758 2.14709 3.66197 0
M  V30 3395 C 325.665 4.48689 3.85269 0
M  V30 3396 H 324.595 0.457091 0.599653 0
M  V30 3397 H 327.246 1.57813 0.936342 0
M  V30 3398 H 325.628 1.73778 3.55833 0
M  V30 3399 H 326.802 4.14424 2.01467 0
M  V30 3400 H 325.117 3.67306 1.96151 0
M  V30 3401 H 327.714 2.75046 4.58534 0
M  V30 3402 H 328.057 1.13966 4.00397 0
M  V30 3403 H 328.59 2.54837 3.05455 0
M  V30 3404 H 325.329 5.5027 3.56207 0
M  V30 3405 H 324.849 4.03241 4.44024 0
M  V30 3406 H 326.528 4.62006 4.52946 0
M  V30 3407 N 326.66 -1.06551 1.16123 0
M  V30 3408 C 327.885 -1.83544 0.965735 0
M  V30 3409 C 328.31 -1.81843 -0.481102 0
M  V30 3410 O 327.668 -1.21732 -1.34354 0
M  V30 3411 C 327.716 -3.28169 1.49457 0
M  V30 3412 O 326.82 -4.0643 0.699157 0
M  V30 3413 H 326.161 -0.568026 0.343864 0
M  V30 3414 H 328.691 -1.34362 1.54299 0
M  V30 3415 H 328.701 -3.78992 1.51092 0
M  V30 3416 H 327.376 -3.28722 2.54784 0
M  V30 3417 H 325.953 -3.65216 0.7531 0
M  V30 3418 N 328.138 -0.959301 -1.25041 0
M  V30 3419 C 329.363 -0.633507 -1.97488 0
M  V30 3420 C 329.788 0.788555 -1.70773 0
M  V30 3421 O 329.146 1.53394 -0.966431 0
M  V30 3422 C 329.194 -0.904057 -3.49083 0
M  V30 3423 O 328.298 0.0147939 -4.12397 0
M  V30 3424 H 327.639 -0.240368 -0.618966 0
M  V30 3425 H 330.169 -1.28717 -1.59038 0
M  V30 3426 H 330.179 -0.832203 -3.99423 0
M  V30 3427 H 328.854 -1.94048 -3.67856 0
M  V30 3428 H 327.431 -0.109664 -3.72739 0
M  V30 3429 N 329.616 1.39756 -0.72842 0
M  V30 3430 C 330.546 2.33289 -0.0991354 0
M  V30 3431 C 331.527 1.53568 0.731489 0
M  V30 3432 O 332.712 1.81987 0.677807 0
M  V30 3433 C 329.842 3.3763 0.813834 0
M  V30 3434 C 328.796 4.2791 0.0878663 0
M  V30 3435 C 328.122 5.22894 1.11741 0
M  V30 3436 C 329.422 5.11314 -1.06563 0
M  V30 3437 H 331.116 2.86163 -0.880408 0
M  V30 3438 H 328.662 1.37591 -0.424819 0
M  V30 3439 H 330.615 4.0201 1.26355 0
M  V30 3440 H 329.339 2.83181 1.62715 0
M  V30 3441 H 327.998 3.65 -0.342159 0
M  V30 3442 H 327.646 4.64744 1.92412 0
M  V30 3443 H 327.346 5.84143 0.636477 0
M  V30 3444 H 328.87 5.90151 1.56697 0
M  V30 3445 H 330.284 5.69076 -0.694671 0
M  V30 3446 H 328.681 5.81671 -1.47577 0
M  V30 3447 H 329.751 4.46534 -1.89038 0
M  V30 3448 N 331.094 0.475555 1.50254 0
M  V30 3449 C 332.041 -0.316293 2.28622 0
M  V30 3450 C 333.011 -0.983227 1.33873 0
M  V30 3451 O 334.196 -0.994805 1.62814 0
M  V30 3452 C 331.336 -1.38975 3.1588 0
M  V30 3453 C 330.449 -0.737146 4.25664 0
M  V30 3454 C 329.584 -1.78887 5.00173 0
M  V30 3455 C 328.623 -1.11676 6.01826 0
M  V30 3456 N 327.76 -2.11154 6.69596 0
M  V30 3457 H 332.6 0.358297 2.95838 0
M  V30 3458 H 330.137 0.188541 1.45887 0
M  V30 3459 H 332.095 -2.02383 3.64825 0
M  V30 3460 H 330.725 -2.03344 2.50701 0
M  V30 3461 H 329.777 0.0096065 3.80399 0
M  V30 3462 H 331.089 -0.206816 4.98371 0
M  V30 3463 H 330.243 -2.49865 5.52859 0
M  V30 3464 H 328.982 -2.35302 4.27182 0
M  V30 3465 H 327.987 -0.392633 5.48396 0
M  V30 3466 H 329.212 -0.55945 6.76792 0
M  V30 3467 H 327.158 -2.66577 5.99394 0
M  V30 3468 H 327.075 -1.63118 7.38193 0
M  V30 3469 H 328.343 -2.81497 7.26897 0
M  V30 3470 N 332.573 -1.56217 0.208337 0
M  V30 3471 C 333.989 -1.58919 -0.14729 0
M  V30 3472 C 334.189 -1.22486 -1.59998 0
M  V30 3473 O 333.245 -0.953849 -2.3379 0
M  V30 3474 C 334.558 -3.00236 0.167048 0
M  V30 3475 C 336.106 -3.12813 0.108219 0
M  V30 3476 C 336.581 -4.56284 0.396049 0
M  V30 3477 N 338.072 -4.61912 0.345142 0
M  V30 3478 C 338.807 -5.70837 0.541523 0
M  V30 3479 N 338.303 -6.88178 0.798968 0
M  V30 3480 N 340.096 -5.60091 0.474867 0
M  V30 3481 H 332.247 -1.78177 1.15614 0
M  V30 3482 H 334.51 -0.827555 0.462446 0
M  V30 3483 H 334.216 -3.31499 1.1748 0
M  V30 3484 H 334.09 -3.7354 -0.524184 0
M  V30 3485 H 336.477 -2.81354 -0.890157 0
M  V30 3486 H 336.558 -2.41866 0.832729 0
M  V30 3487 H 336.202 -4.88458 1.3918 0
M  V30 3488 H 336.132 -5.25439 -0.349502 0
M  V30 3489 H 338.623 -3.77589 0.153316 0
M  V30 3490 H 338.936 -7.67095 0.93727 0
M  V30 3491 H 337.281 -6.89953 0.836013 0
M  V30 3492 H 340.472 -4.67297 0.274064 0
M  V30 3493 H 340.645 -6.44917 0.631326 0
M  V30 3494 N 334.051 0.0651679 -1.57465 0
M  V30 3495 C 335.276 0.779605 -1.9219 0
M  V30 3496 C 335.701 1.69988 -0.805333 0
M  V30 3497 O 335.059 1.79685 0.241435 0
M  V30 3498 C 335.107 1.54364 -3.2589 0
M  V30 3499 O 334.211 2.65474 -3.1559 0
M  V30 3500 H 333.552 0.212249 -0.629163 0
M  V30 3501 H 336.082 0.0314294 -2.04576 0
M  V30 3502 H 336.092 1.92146 -3.59922 0
M  V30 3503 H 334.767 0.868457 -4.06732 0
M  V30 3504 H 333.344 2.30501 -2.93128 0
M  V30 3505 N 335.529 1.53961 0.336706 0
M  V30 3506 C 336.94 1.62914 0.911925 0
M  V30 3507 C 337.291 0.514795 1.89326 0
M  V30 3508 O 336.416 -0.354395 2.13478 0
M  V30 3509 C 337.011 2.95304 1.66076 0
M  V30 3510 C 335.57 3.06496 2.18489 0
M  V30 3511 C 334.717 2.58403 1.00613 0
M  V30 3512 H 337.668 1.58285 0.114649 0
M  V30 3513 H 337.689 2.84727 2.5241 0
M  V30 3514 H 337.201 3.76387 0.946276 0
M  V30 3515 H 335.302 2.3006 2.93092 0
M  V30 3516 H 335.415 4.1208 2.44391 0
M  V30 3517 H 333.779 2.13977 1.38152 0
M  V30 3518 H 334.562 3.41932 0.306179 0
M  V30 3519 N 337.007 -0.598083 1.45811 0
M  V30 3520 C 337.97 -1.69018 1.54808 0
M  V30 3521 C 338.97 -1.55037 0.426652 0
M  V30 3522 O 340.16 -1.59932 0.690456 0
M  V30 3523 C 337.292 -3.0835 1.45371 0
M  V30 3524 H 338.485 -1.62403 2.52121 0
M  V30 3525 H 336.038 -0.814626 1.33392 0
M  V30 3526 H 336.773 -3.20534 0.492793 0
M  V30 3527 H 336.558 -3.19907 2.26721 0
M  V30 3528 H 338.048 -3.8788 1.54721 0
M  V30 3529 N 338.485 -1.33259 -0.841409 0
M  V30 3530 C 339.415 -1.25926 -1.96634 0
M  V30 3531 C 340.396 -0.140349 -1.6952 0
M  V30 3532 O 341.581 -0.329707 -1.91381 0
M  V30 3533 C 338.711 -0.99512 -3.32738 0
M  V30 3534 C 337.665 -2.0767 -3.74242 0
M  V30 3535 C 336.991 -1.66474 -5.08125 0
M  V30 3536 C 338.291 -3.49318 -3.88297 0
M  V30 3537 H 339.985 -2.20046 -2.03027 0
M  V30 3538 H 337.531 -1.05931 -0.975425 0
M  V30 3539 H 339.484 -0.930323 -4.11002 0
M  V30 3540 H 338.208 -0.0183004 -3.26595 0
M  V30 3541 H 336.867 -2.13187 -2.98239 0
M  V30 3542 H 336.515 -0.675012 -4.9845 0
M  V30 3543 H 336.215 -2.3885 -5.36865 0
M  V30 3544 H 337.739 -1.61455 -5.88867 0
M  V30 3545 H 339.153 -3.46316 -4.56879 0
M  V30 3546 H 337.55 -4.20158 -4.28471 0
M  V30 3547 H 338.62 -3.8801 -2.9082 0
M  V30 3548 N 339.963 1.05934 -1.16686 0
M  V30 3549 C 340.895 2.13468 -0.834503 0
M  V30 3550 C 341.908 1.62013 0.15984 0
M  V30 3551 O 343.097 1.7838 -0.0654228 0
M  V30 3552 C 340.197 3.3817 -0.222361 0
M  V30 3553 C 339.37 4.18928 -1.25771 0
M  V30 3554 C 338.429 5.21985 -0.664703 0
M  V30 3555 O 337.455 5.53334 -1.33453 0
M  V30 3556 N 338.657 5.77919 0.546834 0
M  V30 3557 H 341.422 2.42578 -1.75999 0
M  V30 3558 H 338.983 1.21967 -1.06469 0
M  V30 3559 H 340.975 4.04266 0.187472 0
M  V30 3560 H 339.545 3.06655 0.606758 0
M  V30 3561 H 338.765 3.48433 -1.84358 0
M  V30 3562 H 340.053 4.69687 -1.95631 0
M  V30 3563 H 339.451 5.54721 1.10912 0
M  V30 3564 H 338.008 6.45573 0.898829 0
M  V30 3565 N 341.441 0.965919 1.2453 0
M  V30 3566 C 342.69 0.622437 1.91856 0
M  V30 3567 C 343.003 -0.846006 1.76358 0
M  V30 3568 O 344.209 -1.29993 2.38357 0
M  V30 3569 C 342.665 1.0626 3.43856 0
M  V30 3570 C 342.273 2.55437 3.68043 0
M  V30 3571 C 344.017 0.792183 4.17043 0
M  V30 3572 C 341.924 2.93196 5.13605 0
M  V30 3573 H 340.854 0.229092 0.718354 0
M  V30 3574 H 343.505 1.17189 1.41206 0
M  V30 3575 H 341.887 0.441476 3.93531 0
M  V30 3576 H 343.061 3.22665 3.28974 0
M  V30 3577 H 341.376 2.8007 3.08139 0
M  V30 3578 H 343.973 1.05031 5.24283 0
M  V30 3579 H 344.316 -0.271584 4.15413 0
M  V30 3580 H 344.849 1.37419 3.73311 0
M  V30 3581 H 341.588 3.98636 5.20355 0
M  V30 3582 H 341.108 2.30651 5.53679 0
M  V30 3583 H 342.787 2.83004 5.81823 0
M  V30 3584 N 342.919 -1.39368 0.735821 0
M  V30 3585 C 343.849 -2.33234 0.111506 0
M  V30 3586 C 344.83 -1.53954 -0.723334 0
M  V30 3587 O 346.015 -1.82344 -0.668147 0
M  V30 3588 C 343.145 -3.38057 -0.795917 0
M  V30 3589 C 342.099 -4.2795 -0.065172 0
M  V30 3590 C 341.425 -5.23479 -1.08967 0
M  V30 3591 C 342.725 -5.10741 1.09273 0
M  V30 3592 H 344.419 -2.85692 0.895571 0
M  V30 3593 H 341.965 -1.37364 0.432109 0
M  V30 3594 H 343.918 -4.02675 -1.24221 0
M  V30 3595 H 342.642 -2.8404 -1.61211 0
M  V30 3596 H 341.301 -3.64813 0.361511 0
M  V30 3597 H 340.949 -4.65758 -1.89944 0
M  V30 3598 H 340.649 -5.84472 -0.605489 0
M  V30 3599 H 342.173 -5.90974 -1.53565 0
M  V30 3600 H 343.587 -5.68699 0.724841 0
M  V30 3601 H 341.984 -5.8088 1.50659 0
M  V30 3602 H 343.054 -4.45525 1.91404 0
M  V30 3603 N 344.397 -0.483516 -1.5 0
M  V30 3604 C 345.327 0.293829 -2.31644 0
M  V30 3605 C 346.308 0.978864 -1.39112 0
M  V30 3606 O 347.493 0.973644 -1.68029 0
M  V30 3607 C 344.623 1.36897 -3.19181 0
M  V30 3608 C 343.577 0.804833 -4.20365 0
M  V30 3609 C 342.903 1.9792 -4.96721 0
M  V30 3610 C 344.203 -0.192313 -5.21946 0
M  V30 3611 H 345.897 -0.387616 -2.9688 0
M  V30 3612 H 343.443 -0.187856 -1.42769 0
M  V30 3613 H 345.396 1.92037 -3.751 0
M  V30 3614 H 344.12 2.07936 -2.51853 0
M  V30 3615 H 342.779 0.275319 -3.65565 0
M  V30 3616 H 342.427 2.67686 -4.25856 0
M  V30 3617 H 342.127 1.60789 -5.65173 0
M  V30 3618 H 343.651 2.53526 -5.55479 0
M  V30 3619 H 345.065 0.270333 -5.72662 0
M  V30 3620 H 343.462 -0.478543 -5.98189 0
M  V30 3621 H 344.532 -1.11409 -4.71928 0
M  V30 3622 N 345.875 1.56104 -0.216619 0
M  V30 3623 C 347.103 2.02563 0.421413 0
M  V30 3624 C 347.518 1.0965 1.53695 0
M  V30 3625 O 346.875 0.10521 1.82196 0
M  V30 3626 C 346.926 3.48584 0.957665 0
M  V30 3627 O 346.647 4.37953 -0.113389 0
M  V30 3628 C 348.148 4.10664 1.66943 0
M  V30 3629 H 345.368 0.662944 0.103665 0
M  V30 3630 H 347.912 2.01793 -0.331629 0
M  V30 3631 H 346.067 3.49985 1.661 0
M  V30 3632 H 346.481 5.23704 0.288932 0
M  V30 3633 H 347.955 5.14622 1.99671 0
M  V30 3634 H 348.432 3.55373 2.58083 0
M  V30 3635 H 349.038 4.13098 1.01142 0
M  V30 3636 N 347.353 -0.0568162 1.57498 0
M  V30 3637 C 348.301 -1.08452 2.05769 0
M  V30 3638 C 349.295 -1.39164 0.965903 0
M  V30 3639 O 350.501 -1.38395 1.15095 0
M  V30 3640 H 346.876 -0.367148 0.656282 0
M  V30 3641 H 348.847 -0.651368 2.91204 0
M  V30 3642 C 347.596 -2.38543 2.52968 0
M  V30 3643 H 346.919 -2.15765 3.36579 0
M  V30 3644 H 348.359 -3.08863 2.90481 0
M  V30 3645 C 346.818 -3.05562 1.41893 0
M  V30 3646 O 347.348 -3.94262 0.769442 0
M  V30 3647 N 345.554 -2.6643 1.16032 0
M  V30 3648 H 345.101 -1.94387 1.6903 0
M  V30 3649 H 345.059 -3.11593 0.419219 0
M  V30 3650 N 348.832 -1.54138 -0.328536 0
M  V30 3651 C 350.06 -1.76062 -1.08673 0
M  V30 3652 C 350.475 -0.506852 -1.81869 0
M  V30 3653 O 349.832 0.522223 -1.74869 0
M  V30 3654 C 349.883 -2.95054 -2.08866 0
M  V30 3655 O 349.604 -4.15583 -1.38644 0
M  V30 3656 C 351.105 -3.2915 -2.96943 0
M  V30 3657 H 348.325 -0.587889 -0.323461 0
M  V30 3658 H 350.869 -2.0101 -0.376175 0
M  V30 3659 H 349.024 -2.72394 -2.75464 0
M  V30 3660 H 349.438 -4.82481 -2.05699 0
M  V30 3661 H 350.912 -4.15723 -3.63151 0
M  V30 3662 H 351.389 -2.461 -3.63774 0
M  V30 3663 H 351.995 -3.53871 -2.35914 0
M  V30 3664 N 350.31 0.590341 -1.46126 0
M  V30 3665 C 351.257 1.69994 -1.56111 0
M  V30 3666 C 352.227 1.61065 -0.405867 0
M  V30 3667 O 353.412 1.8039 -0.621613 0
M  V30 3668 C 350.552 3.08326 -1.55013 0
M  V30 3669 C 349.665 3.27936 -2.81215 0
M  V30 3670 C 348.8 4.56473 -2.71673 0
M  V30 3671 C 347.839 4.694 -3.92849 0
M  V30 3672 N 346.976 5.89254 -3.81738 0
M  V30 3673 H 351.816 1.60797 -2.50895 0
M  V30 3674 H 349.353 0.783799 -1.24479 0
M  V30 3675 H 351.311 3.88383 -1.52362 0
M  V30 3676 H 349.941 3.16439 -0.637667 0
M  V30 3677 H 348.993 2.41536 -2.93879 0
M  V30 3678 H 350.305 3.33357 -3.71045 0
M  V30 3679 H 349.459 5.44748 -2.67085 0
M  V30 3680 H 348.198 4.53477 -1.7947 0
M  V30 3681 H 347.203 3.79544 -3.97777 0
M  V30 3682 H 348.428 4.7418 -4.86138 0
M  V30 3683 H 346.374 5.87271 -2.92317 0
M  V30 3684 H 346.291 5.95911 -4.65217 0
M  V30 3685 H 347.559 6.79981 -3.81112 0
M  V30 3686 N 351.788 1.33704 0.83433 0
M  V30 3687 C 353.034 1.25603 1.59222 0
M  V30 3688 C 353.367 -0.176659 1.93395 0
M  V30 3689 O 352.642 -1.11915 1.59076 0
M  V30 3690 C 352.925 2.13576 2.89926 0
M  V30 3691 C 352.778 3.65326 2.62406 0
M  V30 3692 C 354.097 2.01238 3.91397 0
M  V30 3693 H 351.216 0.457613 0.577719 0
M  V30 3694 H 353.858 1.63848 0.961972 0
M  V30 3695 H 352.008 1.8109 3.43713 0
M  V30 3696 H 353.68 4.08124 2.15017 0
M  V30 3697 H 351.923 3.8698 1.96033 0
M  V30 3698 H 352.594 4.22232 3.55562 0
M  V30 3699 H 355.07 2.29738 3.46929 0
M  V30 3700 H 353.946 2.65036 4.80673 0
M  V30 3701 H 354.207 0.985951 4.30966 0
M  V30 3702 N 353.266 -1.05314 1.17247 0
M  V30 3703 C 354.677 -1.59753 0.96623 0
M  V30 3704 C 355.028 -1.9005 -0.487378 0
M  V30 3705 O 354.153 -1.68126 -1.36245 0
M  V30 3706 C 354.748 -2.90249 1.74759 0
M  V30 3707 C 353.307 -3.41352 1.58606 0
M  V30 3708 C 352.454 -2.15103 1.75002 0
M  V30 3709 H 355.405 -0.881406 1.31973 0
M  V30 3710 H 355.426 -3.60097 1.22925 0
M  V30 3711 H 354.938 -2.68166 2.8055 0
M  V30 3712 H 353.039 -3.68474 0.552985 0
M  V30 3713 H 353.152 -4.16019 2.37624 0
M  V30 3714 H 351.516 -2.25804 1.17833 0
M  V30 3715 H 352.299 -1.95491 2.82202 0
M  V30 3716 N 354.744 -0.972509 -1.24016 0
M  V30 3717 C 356.16 -0.679827 -1.44397 0
M  V30 3718 C 356.36 0.756716 -1.86751 0
M  V30 3719 O 355.416 1.53007 -2.00861 0
M  V30 3720 C 356.729 -1.66803 -2.50195 0
M  V30 3721 C 358.277 -1.68119 -2.64017 0
M  V30 3722 C 358.752 -2.65748 -3.73017 0
M  V30 3723 N 360.243 -2.64219 -3.8045 0
M  V30 3724 C 360.978 -3.36433 -4.64328 0
M  V30 3725 N 360.474 -4.1818 -5.52356 0
M  V30 3726 N 362.267 -3.25235 -4.58453 0
M  V30 3727 H 354.418 -1.90059 -0.948228 0
M  V30 3728 H 356.681 -0.818527 -0.478245 0
M  V30 3729 H 356.387 -2.69498 -2.25973 0
M  V30 3730 H 356.261 -1.4446 -3.48441 0
M  V30 3731 H 358.648 -0.661319 -2.87594 0
M  V30 3732 H 358.729 -1.94525 -1.66113 0
M  V30 3733 H 358.373 -3.67872 -3.50189 0
M  V30 3734 H 358.303 -2.36619 -4.70446 0
M  V30 3735 H 360.794 -2.04887 -3.17537 0
M  V30 3736 H 361.107 -4.70157 -6.13329 0
M  V30 3737 H 359.452 -4.22273 -5.52006 0
M  V30 3738 H 362.643 -2.60829 -3.88698 0
M  V30 3739 H 362.816 -3.81776 -5.23594 0
M  V30 3740 N 356.222 1.38976 -0.743202 0
M  V30 3741 C 357.17 2.32394 -0.0978389 0
M  V30 3742 C 358.164 1.53486 0.716824 0
M  V30 3743 O 359.37 1.69092 0.617088 0
M  V30 3744 H 355.745 0.75189 -0.0128402 0
M  V30 3745 H 357.716 2.84441 -0.901981 0
M  V30 3746 C 356.465 3.38629 0.789036 0
M  V30 3747 H 355.788 3.99432 0.171559 0
M  V30 3748 H 357.228 4.06426 1.20807 0
M  V30 3749 C 355.687 2.76347 1.92702 0
M  V30 3750 O 356.217 2.64836 3.02034 0
M  V30 3751 N 354.423 2.34311 1.71891 0
M  V30 3752 H 353.97 2.43873 0.829675 0
M  V30 3753 H 353.928 1.9298 2.48205 0
M  V30 3754 N 357.7 0.491464 1.49741 0
M  V30 3755 C 358.928 -0.0535151 2.06831 0
M  V30 3756 C 359.343 -1.31683 1.35296 0
M  V30 3757 O 358.7 -1.77402 0.42836 0
M  V30 3758 C 358.751 -0.320835 3.60073 0
M  V30 3759 O 358.472 0.892394 4.28915 0
M  V30 3760 C 359.973 -0.910519 4.33848 0
M  V30 3761 H 357.193 0.0161909 0.670805 0
M  V30 3762 H 359.737 0.68609 1.92647 0
M  V30 3763 H 357.892 -1.0104 3.73991 0
M  V30 3764 H 358.306 0.649401 5.20464 0
M  V30 3765 H 359.78 -1.04721 5.41976 0
M  V30 3766 H 360.257 -1.90589 3.95692 0
M  V30 3767 H 360.863 -0.258712 4.24512 0
M  V30 3768 N 359.178 -1.55987 0.224894 0
M  V30 3769 C 360.594 -1.59066 -0.130426 0
M  V30 3770 C 360.794 -1.24176 -1.5869 0
M  V30 3771 O 359.85 -0.978592 -2.32766 0
M  V30 3772 C 361.163 -3.00042 0.198883 0
M  V30 3773 C 362.711 -3.1268 0.141391 0
M  V30 3774 C 363.186 -4.55839 0.444422 0
M  V30 3775 N 364.677 -4.6152 0.394115 0
M  V30 3776 C 365.412 -5.70231 0.602038 0
M  V30 3777 N 364.908 -6.87291 0.871914 0
M  V30 3778 N 366.701 -5.59555 0.534245 0
M  V30 3779 H 358.852 -1.76941 1.17497 0
M  V30 3780 H 361.115 -0.822604 0.471197 0
M  V30 3781 H 360.821 -3.30234 1.2099 0
M  V30 3782 H 360.695 -3.74075 -0.484535 0
M  V30 3783 H 363.082 -2.82283 -0.860265 0
M  V30 3784 H 363.163 -2.40969 0.858335 0
M  V30 3785 H 362.807 -4.86954 1.44353 0
M  V30 3786 H 362.737 -5.2578 -0.293752 0
M  V30 3787 H 365.228 -3.77405 0.193356 0
M  V30 3788 H 365.541 -7.66058 1.01858 0
M  V30 3789 H 363.886 -6.89028 0.909145 0
M  V30 3790 H 367.077 -4.6698 0.323612 0
M  V30 3791 H 367.25 -6.44211 0.699693 0
M  V30 3792 N 360.656 0.0484629 -1.57525 0
M  V30 3793 C 361.619 1.03956 -2.04269 0
M  V30 3794 C 362.619 1.30211 -0.943496 0
M  V30 3795 O 363.809 1.25539 -1.20771 0
M  V30 3796 C 360.941 2.37742 -2.44319 0
M  V30 3797 H 362.134 0.636182 -2.93075 0
M  V30 3798 H 359.687 0.294811 -1.53494 0
M  V30 3799 H 360.422 2.82866 -1.5861 0
M  V30 3800 H 360.207 2.20021 -3.24551 0
M  V30 3801 H 361.697 3.08936 -2.80978 0
M  V30 3802 N 362.134 1.5431 0.320358 0
M  V30 3803 C 363.064 1.86912 1.3995 0
M  V30 3804 C 364.045 0.726211 1.53819 0
M  V30 3805 O 365.23 0.980233 1.67646 0
M  V30 3806 C 362.36 2.09932 2.7667 0
M  V30 3807 C 361.314 3.25776 2.77586 0
M  V30 3808 C 360.64 3.34173 4.17412 0
M  V30 3809 C 361.94 4.6335 2.41048 0
M  V30 3810 H 363.634 2.77292 1.12914 0
M  V30 3811 H 361.18 1.33421 0.541738 0
M  V30 3812 H 363.133 2.31324 3.52232 0
M  V30 3813 H 361.857 1.16304 3.0519 0
M  V30 3814 H 360.516 3.04276 2.04479 0
M  V30 3815 H 360.164 2.38098 4.43078 0
M  V30 3816 H 359.864 4.12033 4.18931 0
M  V30 3817 H 361.388 3.57803 4.94782 0
M  V30 3818 H 362.802 4.84602 3.06324 0
M  V30 3819 H 361.199 5.43782 2.53813 0
M  V30 3820 H 362.269 4.65381 1.36193 0
M  V30 3821 N 363.613 -0.582584 1.46437 0
M  V30 3822 C 364.859 -1.34278 1.51978 0
M  V30 3823 C 365.192 -1.93446 0.170973 0
M  V30 3824 O 364.467 -1.76481 -0.817608 0
M  V30 3825 C 364.75 -2.47203 2.61845 0
M  V30 3826 C 364.603 -1.93069 4.06257 0
M  V30 3827 C 365.922 -3.49247 2.67795 0
M  V30 3828 H 363.041 -0.486876 0.553282 0
M  V30 3829 H 365.683 -0.654437 1.78374 0
M  V30 3830 H 363.833 -3.0592 2.39469 0
M  V30 3831 H 365.505 -1.38808 4.3992 0
M  V30 3832 H 363.748 -1.23898 4.1573 0
M  V30 3833 H 364.419 -2.74586 4.7886 0
M  V30 3834 H 366.895 -3.00411 2.8791 0
M  V30 3835 H 365.771 -4.25719 3.46489 0
M  V30 3836 H 366.032 -4.06482 1.73852 0
M  V30 3837 N 365.091 -1.34144 -0.827227 0
M  V30 3838 C 366.054 -1.25264 -1.91942 0
M  V30 3839 C 367.054 -0.168866 -1.59911 0
M  V30 3840 O 368.244 -0.421198 -1.69031 0
M  V30 3841 C 365.376 -0.932952 -3.27885 0
M  V30 3842 H 366.569 -2.22357 -2.0124 0
M  V30 3843 H 364.122 -1.1837 -1.0207 0
M  V30 3844 H 364.857 0.0349917 -3.24281 0
M  V30 3845 H 364.642 -1.71682 -3.52516 0
M  V30 3846 H 366.132 -0.895874 -4.07877 0
M  V30 3847 N 366.569 1.04691 -1.17803 0
M  V30 3848 C 367.817 1.7743 -0.967617 0
M  V30 3849 C 368.138 1.88359 0.504574 0
M  V30 3850 O 367.408 1.40402 1.36617 0
M  V30 3851 H 365.988 0.657242 -0.355024 0
M  V30 3852 H 368.65 1.2638 -1.48371 0
M  V30 3853 H 367.746 2.78924 -1.40027 0
M  V30 3854 N 368.047 0.979072 1.23499 0
M  V30 3855 C 369.293 0.648178 1.92163 0
M  V30 3856 C 369.626 -0.816049 1.76222 0
M  V30 3857 O 368.901 -1.58849 1.12237 0
M  V30 3858 C 369.184 1.03773 3.44824 0
M  V30 3859 C 369.037 2.55948 3.69879 0
M  V30 3860 C 370.356 0.580653 4.36253 0
M  V30 3861 H 367.475 0.236952 0.69787 0
M  V30 3862 H 370.117 1.22012 1.45647 0
M  V30 3863 H 368.267 0.551058 3.84572 0
M  V30 3864 H 369.939 3.12179 3.3962 0
M  V30 3865 H 368.182 2.98641 3.14636 0
M  V30 3866 H 368.853 2.78255 4.76737 0
M  V30 3867 H 371.329 0.998465 4.03943 0
M  V30 3868 H 370.205 0.881663 5.41773 0
M  V30 3869 H 370.466 -0.519052 4.39042 0
M  V30 3870 N 369.525 -1.3858 0.750561 0
M  V30 3871 C 370.941 -1.53759 0.427824 0
M  V30 3872 C 371.141 -1.71401 -1.05943 0
M  V30 3873 O 370.197 -1.72331 -1.84549 0
M  V30 3874 C 371.51 -2.74642 1.22443 0
M  V30 3875 C 373.058 -2.88489 1.2142 0
M  V30 3876 C 373.533 -4.12329 1.9937 0
M  V30 3877 N 375.024 -4.194 1.96616 0
M  V30 3878 C 375.759 -5.14209 2.53727 0
M  V30 3879 N 375.255 -6.14709 3.19539 0
M  V30 3880 N 377.048 -5.06537 2.43673 0
M  V30 3881 H 369.199 -1.25377 1.71447 0
M  V30 3882 H 371.462 -0.608844 0.726645 0
M  V30 3883 H 371.168 -2.68 2.27747 0
M  V30 3884 H 371.042 -3.67745 0.839273 0
M  V30 3885 H 373.429 -2.94614 0.169232 0
M  V30 3886 H 373.51 -1.96406 1.63885 0
M  V30 3887 H 373.154 -4.06966 3.03877 0
M  V30 3888 H 373.084 -5.03486 1.54302 0
M  V30 3889 H 375.575 -3.47421 1.48684 0
M  V30 3890 H 375.888 -6.8354 3.60545 0
M  V30 3891 H 374.233 -6.1505 3.23633 0
M  V30 3892 H 377.424 -4.26962 1.91889 0
M  V30 3893 H 377.597 -5.80245 2.88479 0
M  V30 3894 N 371.003 -0.499398 -1.49478 0
M  V30 3895 C 371.951 0.293604 -2.3074 0
M  V30 3896 C 372.945 0.96427 -1.39277 0
M  V30 3897 O 374.151 0.892141 -1.56336 0
M  V30 3898 H 370.526 0.113541 -0.743379 0
M  V30 3899 H 372.497 -0.411772 -2.95545 0
M  V30 3900 C 371.246 1.3462 -3.20582 0
M  V30 3901 H 370.569 0.83954 -3.90886 0
M  V30 3902 H 372.009 1.87308 -3.80384 0
M  V30 3903 C 370.468 2.36351 -2.40083 0
M  V30 3904 O 370.998 3.422 -2.10385 0
M  V30 3905 N 369.204 2.0878 -2.02137 0
M  V30 3906 H 368.751 1.22723 -2.26488 0
M  V30 3907 H 368.709 2.77075 -1.48583 0
M  V30 3908 N 372.481 1.55866 -0.233164 0
M  V30 3909 C 373.897 1.59133 0.121988 0
M  V30 3910 C 374.097 1.25016 1.58029 0
M  V30 3911 O 373.153 0.990922 2.32243 0
M  V30 3912 C 374.466 2.99932 -0.214792 0
M  V30 3913 C 376.014 3.12601 -0.157971 0
M  V30 3914 C 376.489 4.55597 -0.46859 0
M  V30 3915 N 377.98 4.61305 -0.418585 0
M  V30 3916 C 378.715 5.69903 -0.63227 0
M  V30 3917 N 378.211 6.86819 -0.90835 0
M  V30 3918 N 380.004 5.59264 -0.563913 0
M  V30 3919 H 372.155 1.76315 -1.18434 0
M  V30 3920 H 374.418 0.820093 -0.475553 0
M  V30 3921 H 374.124 3.29588 -1.22739 0
M  V30 3922 H 373.998 3.74327 0.464691 0
M  V30 3923 H 376.385 2.82735 0.845283 0
M  V30 3924 H 376.466 2.40511 -0.871102 0
M  V30 3925 H 376.11 4.86182 -1.46934 0
M  V30 3926 H 376.04 5.25928 0.265865 0
M  V30 3927 H 378.531 3.77297 -0.213368 0
M  V30 3928 H 378.844 7.65507 -1.05919 0
M  V30 3929 H 377.189 6.88536 -0.945673 0
M  V30 3930 H 380.38 4.66802 -0.348372 0
M  V30 3931 H 380.553 6.43831 -0.733847 0
M  V30 3932 N 373.959 -0.0401083 1.57549 0
M  V30 3933 C 374.889 -1.04384 2.08869 0
M  V30 3934 C 375.87 -1.38407 0.988817 0
M  V30 3935 O 377.055 -1.47483 1.26342 0
M  V30 3936 C 374.185 -2.34808 2.55895 0
M  V30 3937 C 373.139 -2.15057 3.70047 0
M  V30 3938 C 372.465 -3.51145 4.03239 0
M  V30 3939 C 373.765 -1.54576 4.98902 0
M  V30 3940 H 375.459 -0.616666 2.92981 0
M  V30 3941 H 373.005 -0.295184 1.40942 0
M  V30 3942 H 374.958 -3.05346 2.90417 0
M  V30 3943 H 373.682 -2.79565 1.68853 0
M  V30 3944 H 372.341 -1.46954 3.35857 0
M  V30 3945 H 371.989 -3.93529 3.13279 0
M  V30 3946 H 371.689 -3.38758 4.80122 0
M  V30 3947 H 373.213 -4.23062 4.40285 0
M  V30 3948 H 374.627 -2.15017 5.31451 0
M  V30 3949 H 373.024 -1.52796 5.80322 0
M  V30 3950 H 374.094 -0.51039 4.82206 0
M  V30 3951 N 375.437 -1.54477 -0.31217 0
M  V30 3952 C 376.367 -1.87652 -1.38957 0
M  V30 3953 C 377.348 -0.734358 -1.53431 0
M  V30 3954 O 378.533 -0.98911 -1.67123 0
M  V30 3955 C 375.663 -2.11396 -2.75552 0
M  V30 3956 C 374.617 -3.27243 -2.75855 0
M  V30 3957 C 373.943 -3.36382 -4.15633 0
M  V30 3958 C 375.243 -4.64622 -2.38587 0
M  V30 3959 H 376.937 -2.77887 -1.11442 0
M  V30 3960 H 374.483 -1.33707 -0.534655 0
M  V30 3961 H 376.436 -2.33189 -3.51 0
M  V30 3962 H 375.16 -1.17921 -3.04569 0
M  V30 3963 H 373.819 -3.05356 -2.02863 0
M  V30 3964 H 373.467 -2.40445 -4.41809 0
M  V30 3965 H 373.167 -4.14249 -4.1674 0
M  V30 3966 H 374.691 -3.60422 -4.92877 0
M  V30 3967 H 376.105 -4.86219 -3.03749 0
M  V30 3968 H 374.502 -5.45121 -2.50925 0
M  V30 3969 H 375.572 -4.66097 -1.33723 0
M  V30 3970 N 376.915 0.57481 -1.46744 0
M  V30 3971 C 377.862 1.68329 -1.57905 0
M  V30 3972 C 378.832 1.60625 -0.422927 0
M  V30 3973 O 380.017 1.79721 -0.640711 0
M  V30 3974 C 377.157 3.06665 -1.58274 0
M  V30 3975 C 376.27 3.24935 -2.84678 0
M  V30 3976 C 375.405 4.53566 -2.76499 0
M  V30 3977 C 374.444 4.65207 -3.97806 0
M  V30 3978 N 373.581 5.85172 -3.87967 0
M  V30 3979 H 378.421 1.58127 -2.52587 0
M  V30 3980 H 375.958 0.770552 -1.25303 0
M  V30 3981 H 377.916 3.86745 -1.56473 0
M  V30 3982 H 376.546 3.15745 -0.671194 0
M  V30 3983 H 375.598 2.38405 -2.96424 0
M  V30 3984 H 376.91 3.29403 -3.7456 0
M  V30 3985 H 376.064 5.41885 -2.72848 0
M  V30 3986 H 374.803 4.51548 -1.8427 0
M  V30 3987 H 373.808 3.75304 -4.0178 0
M  V30 3988 H 375.033 4.68997 -4.9114 0
M  V30 3989 H 372.979 5.84137 -2.98529 0
M  V30 3990 H 372.896 5.90943 -4.71511 0
M  V30 3991 H 374.164 6.759 -3.88303 0
M  V30 3992 N 378.394 1.34581 0.820102 0
M  V30 3993 C 379.641 1.27096 1.57648 0
M  V30 3994 C 379.969 -0.158317 1.93855 0
M  V30 3995 O 379.224 -1.12028 1.60463 0
M  V30 3996 C 379.523 2.10997 2.8847 0
M  V30 3997 C 379.189 3.59966 2.71543 0
M  V30 3998 C 377.851 4.00575 2.66634 0
M  V30 3999 C 380.203 4.54548 2.55021 0
M  V30 4000 C 377.531 5.33953 2.43128 0
M  V30 4001 C 379.883 5.88109 2.33047 0
M  V30 4002 C 378.547 6.27878 2.26552 0
M  V30 4003 H 377.817 0.465078 0.576874 0
M  V30 4004 H 380.464 1.6635 0.948671 0
M  V30 4005 H 378.769 1.6458 3.55557 0
M  V30 4006 H 380.466 2.0255 3.46084 0
M  V30 4007 H 377.056 3.27733 2.76205 0
M  V30 4008 H 381.24 4.24069 2.57835 0
M  V30 4009 H 376.496 5.63781 2.3656 0
M  V30 4010 H 380.67 6.60985 2.19251 0
M  V30 4011 H 378.297 7.31162 2.081 0
M  V30 4012 N 379.872 -1.04064 1.18357 0
M  V30 4013 C 381.283 -1.58719 0.98312 0
M  V30 4014 C 381.634 -1.90556 -0.467193 0
M  V30 4015 O 380.759 -1.69561 -1.34454 0
M  V30 4016 C 381.354 -2.88379 1.77828 0
M  V30 4017 C 379.913 -3.3965 1.62218 0
M  V30 4018 C 379.06 -2.13235 1.77274 0
M  V30 4019 H 382.011 -0.867359 1.32901 0
M  V30 4020 H 382.032 -3.58773 1.26737 0
M  V30 4021 H 381.544 -2.65176 2.83379 0
M  V30 4022 H 379.645 -3.67866 0.592036 0
M  V30 4023 H 379.758 -4.13475 2.42023 0
M  V30 4024 H 378.122 -2.24542 1.20221 0
M  V30 4025 H 378.905 -1.92487 2.8426 0
M  V30 4026 N 381.35 -0.985608 -1.22978 0
M  V30 4027 C 382.26 -0.538548 -2.28335 0
M  V30 4028 C 383.276 0.409163 -1.69121 0
M  V30 4029 O 384.452 0.277797 -1.99475 0
M  V30 4030 C 381.517 0.146867 -3.46389 0
M  V30 4031 C 380.578 -0.842896 -4.20944 0
M  V30 4032 C 379.811 -0.190095 -5.33361 0
M  V30 4033 O 380.034 1.01767 -5.61248 0
M  V30 4034 O 378.968 -0.891289 -5.95264 0
M  V30 4035 H 382.794 -1.41487 -2.68729 0
M  V30 4036 H 380.379 -0.753495 -1.29007 0
M  V30 4037 H 382.261 0.531125 -4.1804 0
M  V30 4038 H 380.936 0.997871 -3.07935 0
M  V30 4039 H 379.843 -1.27795 -3.51595 0
M  V30 4040 H 381.176 -1.66287 -4.6326 0
M  V30 4041 N 382.828 1.3818 -0.7579 0
M  V30 4042 C 384.077 1.99261 -0.312744 0
M  V30 4043 C 384.39 1.60846 1.11301 0
M  V30 4044 O 385.596 2.14929 1.65885 0
M  V30 4045 C 384.052 3.56294 -0.50821 0
M  V30 4046 C 383.66 4.03657 -1.94333 0
M  V30 4047 C 385.404 4.24313 -0.125982 0
M  V30 4048 C 383.311 5.53347 -2.08712 0
M  V30 4049 H 382.241 0.745456 -0.113185 0
M  V30 4050 H 384.892 1.57889 -0.935056 0
M  V30 4051 H 383.274 3.95575 0.183353 0
M  V30 4052 H 384.448 3.75655 -2.66871 0
M  V30 4053 H 382.763 3.48376 -2.28086 0
M  V30 4054 H 385.36 5.34279 -0.212125 0
M  V30 4055 H 385.703 4.05962 0.921964 0
M  V30 4056 H 386.236 3.90285 -0.769563 0
M  V30 4057 H 382.975 5.76607 -3.11777 0
M  V30 4058 H 382.495 5.83078 -1.4064 0
M  V30 4059 H 384.174 6.19111 -1.87912 0
M  V30 4060 N 384.306 0.507319 1.49211 0
M  V30 4061 C 385.552 -0.0350047 2.0277 0
M  V30 4062 C 385.885 -1.3606 1.38569 0
M  V30 4063 O 385.16 -1.87321 0.523542 0
M  V30 4064 C 385.443 -0.180916 3.59645 0
M  V30 4065 C 385.296 1.16825 4.34364 0
M  V30 4066 C 386.615 -0.918558 4.30407 0
M  V30 4067 H 383.734 -0.0112473 0.736914 0
M  V30 4068 H 386.376 0.659956 1.7817 0
M  V30 4069 H 384.526 -0.772826 3.80736 0
M  V30 4070 H 386.198 1.79952 4.24753 0
M  V30 4071 H 384.441 1.75594 3.96673 0
M  V30 4072 H 385.112 1.01939 5.42506 0
M  V30 4073 H 387.588 -0.41649 4.1401 0
M  V30 4074 H 386.464 -0.989505 5.39907 0
M  V30 4075 H 386.725 -1.96373 3.96093 0
M  V30 4076 N 385.784 -1.5574 0.241426 0
M  V30 4077 C 386.747 -2.19877 -0.647063 0
M  V30 4078 C 387.747 -1.16642 -1.10686 0
M  V30 4079 O 388.937 -1.41757 -1.01245 0
M  V30 4080 C 386.069 -2.83797 -1.88871 0
M  V30 4081 H 387.262 -2.99772 -0.087574 0
M  V30 4082 H 384.815 -1.56298 -0.00813574 0
M  V30 4083 H 385.55 -2.07824 -2.48957 0
M  V30 4084 H 385.335 -3.59414 -1.56728 0
M  V30 4085 H 386.825 -3.32898 -2.52129 0
M  V30 4086 N 387.262 0.0317525 -1.57568 0
M  V30 4087 C 388.673 0.578692 -1.77505 0
M  V30 4088 C 389.024 1.75749 -0.872164 0
M  V30 4089 O 388.149 2.16298 -0.0663106 0
M  V30 4090 C 388.744 1.05658 -3.21904 0
M  V30 4091 C 387.303 1.54906 -3.43047 0
M  V30 4092 C 386.45 0.485939 -2.73009 0
M  V30 4093 H 389.401 -0.194475 -1.57504 0
M  V30 4094 H 389.422 1.92404 -3.28269 0
M  V30 4095 H 388.934 0.198422 -3.87592 0
M  V30 4096 H 387.035 2.42915 -2.82529 0
M  V30 4097 H 387.148 1.59841 -4.5165 0
M  V30 4098 H 385.512 0.940354 -2.36705 0
M  V30 4099 H 386.295 -0.362709 -3.41379 0
M  V30 4100 N 388.74 1.54641 0.303973 0
M  V30 4101 C 389.67 1.88386 1.3796 0
M  V30 4102 C 390.651 0.742485 1.5304 0
M  V30 4103 O 391.836 0.997959 1.66597 0
M  V30 4104 C 388.966 2.12854 2.74427 0
M  V30 4105 C 387.92 3.28702 2.74115 0
M  V30 4106 C 387.246 3.38582 4.13844 0
M  V30 4107 C 388.546 4.65881 2.3612 0
M  V30 4108 H 390.24 2.78474 1.09966 0
M  V30 4109 H 387.786 1.33988 0.527556 0
M  V30 4110 H 389.739 2.35047 3.49758 0
M  V30 4111 H 388.463 1.19535 3.03939 0
M  V30 4112 H 387.122 3.06428 2.0124 0
M  V30 4113 H 386.77 2.42784 4.40528 0
M  V30 4114 H 386.47 4.16453 4.14537 0
M  V30 4115 H 387.994 3.63031 4.90959 0
M  V30 4116 H 389.408 4.87823 3.01167 0
M  V30 4117 H 387.805 5.46444 2.48031 0
M  V30 4118 H 388.875 4.66799 1.3125 0
M  V30 4119 N 390.218 -0.567019 1.47046 0
M  V30 4120 C 391.148 -1.68482 1.61667 0
M  V30 4121 C 392.129 -1.6358 0.466418 0
M  V30 4122 O 393.314 -1.81354 0.694574 0
M  V30 4123 C 390.444 -3.07124 1.62148 0
M  V30 4124 C 389.398 -3.26867 2.76301 0
M  V30 4125 C 388.724 -4.66196 2.61849 0
M  V30 4126 C 390.024 -3.13186 4.17986 0
M  V30 4127 H 391.718 -1.56502 2.5524 0
M  V30 4128 H 389.264 -0.751486 1.22836 0
M  V30 4129 H 391.217 -3.8516 1.70968 0
M  V30 4130 H 389.941 -3.2004 0.651287 0
M  V30 4131 H 388.6 -2.51237 2.66975 0
M  V30 4132 H 388.248 -4.75898 1.62879 0
M  V30 4133 H 387.948 -4.80356 3.38425 0
M  V30 4134 H 389.472 -5.46379 2.72584 0
M  V30 4135 H 390.886 -3.81049 4.2834 0
M  V30 4136 H 389.283 -3.3886 4.95272 0
M  V30 4137 H 390.353 -2.10057 4.3704 0
M  V30 4138 N 391.696 -1.35014 -0.812953 0
M  V30 4139 C 392.924 -1.31031 -1.6012 0
M  V30 4140 C 393.339 0.113558 -1.88458 0
M  V30 4141 O 392.696 1.06363 -1.48301 0
M  V30 4142 C 392.747 -2.10872 -2.93624 0
M  V30 4143 O 392.468 -3.47706 -2.66518 0
M  V30 4144 C 393.969 -2.14401 -3.88004 0
M  V30 4145 H 391.189 -0.45037 -0.497401 0
M  V30 4146 H 393.733 -1.77775 -1.01076 0
M  V30 4147 H 391.888 -1.67744 -3.492 0
M  V30 4148 H 392.302 -3.89097 -3.51715 0
M  V30 4149 H 393.776 -2.74669 -4.78812 0
M  V30 4150 H 394.253 -1.14105 -4.24119 0
M  V30 4151 H 394.859 -2.57662 -3.38364 0
M  V30 4152 N 393.175 1.03435 -1.18907 0
M  V30 4153 C 394.4 1.80919 -1.01406 0
M  V30 4154 C 394.825 1.83055 0.432721 0
M  V30 4155 O 394.183 1.25252 1.31079 0
M  V30 4156 C 394.231 3.24091 -1.58105 0
M  V30 4157 O 393.335 4.04434 -0.806669 0
M  V30 4158 H 392.676 0.558709 -0.358803 0
M  V30 4159 H 395.206 1.30223 -1.57807 0
M  V30 4160 H 395.216 3.74853 -1.61087 0
M  V30 4161 H 393.891 3.21851 -2.6341 0
M  V30 4162 H 392.468 3.63091 -0.849666 0
M  V30 4163 N 394.653 0.992116 1.22453 0
M  V30 4164 C 395.902 0.662992 1.90492 0
M  V30 4165 C 396.215 -0.808407 1.78113 0
M  V30 4166 O 397.421 -1.24908 2.41061 0
M  V30 4167 C 395.877 1.1353 3.41524 0
M  V30 4168 C 395.485 2.63187 3.62542 0
M  V30 4169 C 397.229 0.880465 4.15269 0
M  V30 4170 C 395.136 3.04024 5.0727 0
M  V30 4171 H 394.066 0.244278 0.713333 0
M  V30 4172 H 396.717 1.20157 1.38688 0
M  V30 4173 H 395.099 0.52485 3.92506 0
M  V30 4174 H 396.273 3.2957 3.22056 0
M  V30 4175 H 394.588 2.86543 3.02129 0
M  V30 4176 H 397.185 1.16128 5.21937 0
M  V30 4177 H 397.528 -0.183408 4.15896 0
M  V30 4178 H 398.061 1.45307 3.70312 0
M  V30 4179 H 394.8 4.09584 5.11782 0
M  V30 4180 H 394.32 2.42343 5.48662 0
M  V30 4181 H 395.999 2.95282 5.75689 0
M  V30 4182 N 396.131 -1.37776 0.765217 0
M  V30 4183 C 397.408 -1.93975 0.251596 0
M  V30 4184 C 397.788 -1.69949 -1.25222 0
M  V30 4185 O 397.136 -1.04457 -2.03226 0
M  V30 4186 C 397.346 -3.43487 0.617895 0
M  V30 4187 C 398.694 -4.20564 0.584029 0
M  V30 4188 O 399.718 -3.5182 0.556888 0
M  V30 4189 O 398.577 -5.43138 0.605291 0
M  V30 4190 H 395.671 -0.82509 0.0561806 0
M  V30 4191 H 398.217 -1.47101 0.846128 0
M  V30 4192 H 396.989 -3.5453 1.65602 0
M  V30 4193 H 396.612 -3.976 -0.00403411 0
M  V30 4194 N 397.609 -0.515225 -1.4894 0
M  V30 4195 C 398.572 0.244681 -2.2789 0
M  V30 4196 C 399.572 0.881166 -1.34507 0
M  V30 4197 O 400.762 0.743497 -1.57537 0
M  V30 4198 C 397.894 1.35247 -3.12923 0
M  V30 4199 H 399.087 -0.448289 -2.96531 0
M  V30 4200 H 396.64 -0.270656 -1.53939 0
M  V30 4201 H 397.375 2.07916 -2.48881 0
M  V30 4202 H 397.16 0.901374 -3.81599 0
M  V30 4203 H 398.65 1.88737 -3.72516 0
M  V30 4204 N 399.087 1.5561 -0.249682 0
M  V30 4205 C 400.336 1.98187 0.37479 0
M  V30 4206 C 400.649 1.14111 1.58865 0
M  V30 4207 O 401.855 1.46714 2.28445 0
M  V30 4208 C 400.311 3.52661 0.718192 0
M  V30 4209 C 399.919 4.45481 -0.474428 0
M  V30 4210 C 401.663 4.03888 1.3067 0
M  V30 4211 C 399.57 5.91303 -0.107026 0
M  V30 4212 H 398.5 0.740159 0.143808 0
M  V30 4213 H 401.151 1.80125 -0.350336 0
M  V30 4214 H 399.533 3.66429 1.50152 0
M  V30 4215 H 400.707 4.43473 -1.25172 0
M  V30 4216 H 399.022 4.04751 -0.978052 0
M  V30 4217 H 401.619 5.10358 1.59496 0
M  V30 4218 H 401.962 3.51401 2.23211 0
M  V30 4219 H 402.495 3.93457 0.586211 0
M  V30 4220 H 399.234 6.47833 -0.999642 0
M  V30 4221 H 398.754 5.9644 0.634013 0
M  V30 4222 H 400.433 6.46258 0.309807 0
M  V30 4223 N 400.565 -0.0233959 1.57583 0
M  V30 4224 C 401.79 -0.728376 1.94189 0
M  V30 4225 C 402.215 -1.67793 0.850119 0
M  V30 4226 O 401.573 -1.80262 -0.19371 0
M  V30 4227 C 401.621 -1.45669 3.29868 0
M  V30 4228 O 400.725 -2.57013 3.22518 0
M  V30 4229 H 400.066 -0.195493 0.63457 0
M  V30 4230 H 402.596 0.0228214 2.04587 0
M  V30 4231 H 402.606 -1.82535 3.6489 0
M  V30 4232 H 401.281 -0.760314 4.08891 0
M  V30 4233 H 399.858 -2.22648 2.99136 0
M  V30 4234 N 402.043 -1.548 -0.295768 0
M  V30 4235 C 402.973 -1.89115 -1.36959 0
M  V30 4236 C 403.954 -0.75059 -1.52644 0
M  V30 4237 O 405.139 -1.00678 -1.66065 0
M  V30 4238 C 402.269 -2.14307 -2.73295 0
M  V30 4239 C 401.223 -3.30151 -2.72368 0
M  V30 4240 C 400.549 -3.40772 -4.12042 0
M  V30 4241 C 401.849 -4.67126 -2.33646 0
M  V30 4242 H 403.543 -2.79053 -1.08488 0
M  V30 4243 H 401.089 -1.34266 -0.520443 0
M  V30 4244 H 403.042 -2.36898 -3.48507 0
M  V30 4245 H 401.766 -1.21145 -3.03301 0
M  V30 4246 H 400.425 -3.0749 -1.99613 0
M  V30 4247 H 400.073 -2.45117 -4.39234 0
M  V30 4248 H 399.773 -4.18645 -4.12322 0
M  V30 4249 H 401.297 -3.6563 -4.89027 0
M  V30 4250 H 402.711 -4.89414 -2.98575 0
M  V30 4251 H 401.108 -5.47751 -2.45129 0
M  V30 4252 H 402.178 -4.67489 -1.28772 0
M  V30 4253 N 403.521 0.559213 -1.47345 0
M  V30 4254 C 404.431 1.69388 -1.62311 0
M  V30 4255 C 405.447 1.6648 -0.505993 0
M  V30 4256 O 406.623 1.85964 -0.773262 0
M  V30 4257 C 403.688 3.05894 -1.63185 0
M  V30 4258 C 402.749 3.19885 -2.86307 0
M  V30 4259 C 401.982 4.49879 -2.87131 0
M  V30 4260 O 402.205 5.35217 -1.97229 0
M  V30 4261 O 401.139 4.67618 -3.78968 0
M  V30 4262 H 404.965 1.59706 -2.58317 0
M  V30 4263 H 402.55 0.728989 -1.30407 0
M  V30 4264 H 404.432 3.87133 -1.66451 0
M  V30 4265 H 403.107 3.15964 -0.70345 0
M  V30 4266 H 402.014 2.38052 -2.88587 0
M  V30 4267 H 403.347 3.14718 -3.78435 0
M  V30 4268 N 404.999 1.35443 0.805782 0
M  V30 4269 C 406.239 1.30127 1.57627 0
M  V30 4270 C 406.603 -0.122567 1.91608 0
M  V30 4271 O 407.804 -0.300107 2.67119 0
M  V30 4272 C 406.075 2.18314 2.82973 0
M  V30 4273 S 407.634 2.30521 3.7337 0
M  V30 4274 H 404.452 0.462439 0.540066 0
M  V30 4275 H 407.054 1.70843 0.95042 0
M  V30 4276 H 405.758 3.20741 2.56034 0
M  V30 4277 H 405.289 1.78558 3.50543 0
M  V30 4278 H 407.304 1.49062 4.73281 0
M  V30 4279 N 406.477 -1.02803 1.19454 0
M  V30 4280 C 407.387 -2.14575 0.948408 0
M  V30 4281 C 408.403 -1.73757 -0.091871 0
M  V30 4282 O 409.579 -2.01185 0.0929654 0
M  V30 4283 C 406.644 -3.43202 0.491265 0
M  V30 4284 C 405.705 -3.98328 1.60103 0
M  V30 4285 C 404.938 -5.20816 1.16561 0
M  V30 4286 O 405.161 -5.70392 0.0295238 0
M  V30 4287 O 404.095 -5.68801 1.96849 0
M  V30 4288 H 407.921 -2.38202 1.88397 0
M  V30 4289 H 405.506 -1.12989 0.977433 0
M  V30 4290 H 407.388 -4.20687 0.245015 0
M  V30 4291 H 406.063 -3.21018 -0.415851 0
M  V30 4292 H 404.97 -3.22174 1.90144 0
M  V30 4293 H 406.303 -4.24879 2.48473 0
M  V30 4294 N 407.956 -0.998596 -1.21925 0
M  V30 4295 C 409.372 -0.710303 -1.42923 0
M  V30 4296 C 409.572 0.716933 -1.88314 0
M  V30 4297 O 408.628 1.48712 -2.04062 0
M  V30 4298 C 409.941 -1.72072 -2.466 0
M  V30 4299 C 411.489 -1.73681 -2.60392 0
M  V30 4300 C 411.964 -2.73601 -3.67296 0
M  V30 4301 N 413.455 -2.7223 -3.7476 0
M  V30 4302 C 414.19 -3.46206 -4.57087 0
M  V30 4303 N 413.686 -4.29802 -5.43362 0
M  V30 4304 N 415.479 -3.34886 -4.51451 0
M  V30 4305 H 407.63 -1.92028 -0.9077 0
M  V30 4306 H 409.893 -0.828487 -0.460775 0
M  V30 4307 H 409.599 -2.74231 -2.20206 0
M  V30 4308 H 409.473 -1.51818 -3.45299 0
M  V30 4309 H 411.86 -0.722173 -2.86127 0
M  V30 4310 H 411.941 -1.98005 -1.61949 0
M  V30 4311 H 411.585 -3.75217 -3.42307 0
M  V30 4312 H 411.515 -2.46545 -4.65321 0
M  V30 4313 H 414.006 -2.11576 -3.1312 0
M  V30 4314 H 414.319 -4.83061 -6.03218 0
M  V30 4315 H 412.664 -4.33887 -5.42925 0
M  V30 4316 H 415.855 -2.69015 -3.83078 0
M  V30 4317 H 416.028 -3.92796 -5.15379 0
M  V30 4318 N 409.434 1.37368 -0.772513 0
M  V30 4319 C 410.68 1.99969 -0.337681 0
M  V30 4320 C 411.013 1.61184 1.08321 0
M  V30 4321 O 410.288 0.858395 1.74533 0
M  V30 4322 C 410.571 3.56858 -0.482121 0
M  V30 4323 C 410.424 4.0555 -1.94549 0
M  V30 4324 C 411.743 4.39955 0.113143 0
M  V30 4325 H 408.862 0.726464 -0.124171 0
M  V30 4326 H 411.504 1.63034 -0.975699 0
M  V30 4327 H 409.654 3.88452 0.0610361 0
M  V30 4328 H 411.326 3.84518 -2.54841 0
M  V30 4329 H 409.569 3.57715 -2.45403 0
M  V30 4330 H 410.24 5.14587 -1.9976 0
M  V30 4331 H 412.716 4.14623 -0.35031 0
M  V30 4332 H 411.592 5.48897 -0.0180514 0
M  V30 4333 H 411.853 4.25403 1.20354 0
M  V30 4334 N 410.912 0.523116 1.48665 0
M  V30 4335 C 411.842 -0.23231 2.32342 0
M  V30 4336 C 412.823 -0.941637 1.41659 0
M  V30 4337 O 414.008 -0.928751 1.70552 0
M  V30 4338 C 411.138 -1.28387 3.22698 0
M  V30 4339 C 410.092 -0.693098 4.22351 0
M  V30 4340 C 409.418 -1.8468 5.01794 0
M  V30 4341 C 410.718 0.33063 5.21252 0
M  V30 4342 H 412.412 0.466192 2.95748 0
M  V30 4343 H 409.958 0.225643 1.42221 0
M  V30 4344 H 411.911 -1.82024 3.80059 0
M  V30 4345 H 410.635 -2.01186 2.57278 0
M  V30 4346 H 409.294 -0.178299 3.66166 0
M  V30 4347 H 408.942 -2.56301 4.32804 0
M  V30 4348 H 408.642 -1.45747 5.69238 0
M  V30 4349 H 410.166 -2.38709 5.62006 0
M  V30 4350 H 411.58 -0.118407 5.73178 0
M  V30 4351 H 409.977 0.636974 5.9671 0
M  V30 4352 H 411.047 1.23883 4.68808 0
M  V30 4353 N 412.39 -1.55475 0.257931 0
M  V30 4354 C 413.638 -1.98813 -0.363009 0
M  V30 4355 C 413.959 -1.14757 -1.57657 0
M  V30 4356 O 413.229 -0.232956 -1.9451 0
M  V30 4357 H 411.809 -0.734308 -0.137113 0
M  V30 4358 H 414.471 -1.9156 0.359281 0
M  V30 4359 H 413.567 -3.04941 -0.664634 0
M  V30 4360 N 413.868 0.0150385 -1.57593 0
M  V30 4361 C 414.778 1.02791 -2.10882 0
M  V30 4362 C 415.794 1.38702 -1.0506 0
M  V30 4363 O 416.97 1.47739 -1.36877 0
M  V30 4364 C 414.035 2.30568 -2.58919 0
M  V30 4365 C 413.096 2.01108 -3.79281 0
M  V30 4366 C 412.329 3.22794 -4.25018 0
M  V30 4367 O 412.552 4.33959 -3.70183 0
M  V30 4368 O 411.486 3.07672 -5.17322 0
M  V30 4369 H 415.312 0.604973 -2.97613 0
M  V30 4370 H 412.897 0.23292 -1.47573 0
M  V30 4371 H 414.779 3.05662 -2.90084 0
M  V30 4372 H 413.454 2.72129 -1.75293 0
M  V30 4373 H 412.361 1.23537 -3.53114 0
M  V30 4374 H 413.694 1.64394 -4.63935 0
M  V30 4375 N 415.346 1.54954 0.287554 0
M  V30 4376 C 416.279 1.81737 1.3801 0
M  V30 4377 C 417.257 0.669412 1.48181 0
M  V30 4378 O 418.441 0.910839 1.65033 0
M  V30 4379 C 415.568 1.96606 2.75796 0
M  V30 4380 C 414.614 3.19098 2.82982 0
M  V30 4381 S 415.447 4.7683 2.43707 0
M  V30 4382 C 416.603 4.94653 3.83496 0
M  V30 4383 H 416.836 2.74122 1.15085 0
M  V30 4384 H 414.369 1.46538 0.486403 0
M  V30 4385 H 416.327 2.05858 3.55152 0
M  V30 4386 H 414.988 1.05136 2.95982 0
M  V30 4387 H 414.181 3.26344 3.84077 0
M  V30 4388 H 413.783 3.08361 2.11635 0
M  V30 4389 H 416.075 4.79502 4.78628 0
M  V30 4390 H 417.018 5.96728 3.8121 0
M  V30 4391 H 417.426 4.2272 3.74123 0
M  V30 4392 N 416.824 -0.551391 1.4764 0
M  V30 4393 C 418.072 -1.30572 1.54258 0
M  V30 4394 C 418.393 -1.93877 0.208963 0
M  V30 4395 O 417.663 -1.80234 -0.767619 0
M  V30 4396 H 416.243 -0.484894 0.568231 0
M  V30 4397 H 418.905 -0.643402 1.83974 0
M  V30 4398 H 418.001 -2.09621 2.31226 0
M  V30 4399 N 418.302 -1.35869 -0.798587 0
M  V30 4400 C 419.212 -1.31578 -1.94228 0
M  V30 4401 C 420.228 -0.21939 -1.72611 0
M  V30 4402 O 421.404 -0.450167 -1.96305 0
M  V30 4403 C 418.469 -1.09528 -3.28944 0
M  V30 4404 C 417.53 -2.28556 -3.63402 0
M  V30 4405 C 416.763 -2.07549 -4.9169 0
M  V30 4406 O 416.986 -1.046 -5.60727 0
M  V30 4407 O 415.92 -2.95106 -5.24591 0
M  V30 4408 H 419.746 -2.27847 -2.00796 0
M  V30 4409 H 417.331 -1.16322 -0.937526 0
M  V30 4410 H 419.213 -0.991127 -4.09579 0
M  V30 4411 H 417.888 -0.16315 -3.23289 0
M  V30 4412 H 416.795 -2.44538 -2.83112 0
M  V30 4413 H 418.128 -3.20244 -3.73771 0
M  V30 4414 N 419.78 1.02168 -1.19998 0
M  V30 4415 C 420.743 2.08765 -0.94604 0
M  V30 4416 C 421.743 1.60618 0.0763846 0
M  V30 4417 O 422.933 1.73472 -0.159135 0
M  V30 4418 C 420.065 3.38262 -0.423255 0
M  V30 4419 H 421.258 2.32726 -1.89153 0
M  V30 4420 H 418.811 1.1889 -1.01464 0
M  V30 4421 H 419.546 3.19974 0.527938 0
M  V30 4422 H 419.331 3.74532 -1.16053 0
M  V30 4423 H 420.821 4.16759 -0.264911 0
M  V30 4424 N 421.258 1.00505 1.21394 0
M  V30 4425 C 422.669 0.721082 1.72213 0
M  V30 4426 C 423.02 -0.761263 1.80829 0
M  V30 4427 O 422.145 -1.59464 1.46288 0
M  V30 4428 C 422.74 1.30228 3.12772 0
M  V30 4429 C 421.299 1.06743 3.60947 0
M  V30 4430 C 420.446 1.41507 2.38477 0
M  V30 4431 H 423.397 1.17594 1.06571 0
M  V30 4432 H 423.418 0.686955 3.74247 0
M  V30 4433 H 422.93 2.38115 3.06468 0
M  V30 4434 H 421.031 0.00572162 3.726 0
M  V30 4435 H 421.144 1.73936 4.46411 0
M  V30 4436 H 419.508 0.833852 2.40664 0
M  V30 4437 H 420.291 2.50424 2.34824 0
M  V30 4438 N 422.737 -1.36956 0.779787 0
M  V30 4439 C 423.7 -2.2851 0.177662 0
M  V30 4440 C 424.7 -1.48393 -0.619377 0
M  V30 4441 O 425.89 -1.68505 -0.441785 0
M  V30 4442 C 423.022 -3.32428 -0.755279 0
M  V30 4443 H 424.215 -2.83269 0.984823 0
M  V30 4444 H 421.768 -1.46358 0.548544 0
M  V30 4445 H 422.503 -2.82808 -1.58714 0
M  V30 4446 H 422.288 -3.91659 -0.185817 0
M  V30 4447 H 423.778 -4.00824 -1.17174 0
M  V30 4448 N 424.215 -0.530993 -1.48385 0
M  V30 4449 C 425.626 -0.0907905 -1.86479 0
M  V30 4450 C 425.977 1.33213 -1.44044 0
M  V30 4451 O 425.102 1.99783 -0.831615 0
M  V30 4452 C 425.697 -0.157987 -3.38431 0
M  V30 4453 C 424.256 0.227026 -3.75715 0
M  V30 4454 C 423.403 -0.5173 -2.72432 0
M  V30 4455 H 426.354 -0.742186 -1.40276 0
M  V30 4456 H 426.375 0.630053 -3.75247 0
M  V30 4457 H 425.887 -1.19372 -3.69286 0
M  V30 4458 H 423.988 1.26486 -3.50474 0
M  V30 4459 H 424.101 -0.113288 -4.78966 0
M  V30 4460 H 422.465 0.0365527 -2.54674 0
M  V30 4461 H 423.248 -1.55368 -3.0613 0
M  V30 4462 N 425.693 1.55336 -0.266172 0
M  V30 4463 C 426.603 2.2583 0.635458 0
M  V30 4464 C 427.619 1.28106 1.17749 0
M  V30 4465 O 428.795 1.61024 1.20968 0
M  V30 4466 C 425.86 2.95879 1.80712 0
M  V30 4467 C 424.921 4.09059 1.30265 0
M  V30 4468 C 424.154 4.75759 2.41846 0
M  V30 4469 O 424.377 4.41622 3.61007 0
M  V30 4470 O 423.311 5.63888 2.1051 0
M  V30 4471 H 427.137 3.03631 0.0646693 0
M  V30 4472 H 424.722 1.49361 -0.0339177 0
M  V30 4473 H 426.604 3.39932 2.49047 0
M  V30 4474 H 425.279 2.21002 2.36516 0
M  V30 4475 H 424.186 3.69482 0.586019 0
M  V30 4476 H 425.519 4.85811 0.790458 0
M  V30 4477 N 427.171 -0.0066808 1.57599 0
M  V30 4478 C 428.103 -1.02827 2.04839 0
M  V30 4479 C 429.116 -1.31108 0.965113 0
M  V30 4480 O 430.305 -1.28202 1.24203 0
M  V30 4481 C 427.405 -2.36464 2.42771 0
M  V30 4482 C 426.578 -2.27219 3.73751 0
M  V30 4483 C 425.637 -3.43489 3.98625 0
M  V30 4484 O 424.663 -3.21976 4.69382 0
M  V30 4485 N 425.865 -4.66116 3.46 0
M  V30 4486 H 428.63 -0.625455 2.93101 0
M  V30 4487 H 426.191 -0.194198 1.60731 0
M  V30 4488 H 428.183 -3.13008 2.56531 0
M  V30 4489 H 426.753 -2.68512 1.60063 0
M  V30 4490 H 425.973 -1.35629 3.70133 0
M  V30 4491 H 427.261 -2.18208 4.59633 0
M  V30 4492 H 426.659 -4.86493 2.88688 0
M  V30 4493 H 425.216 -5.39949 3.65101 0
M  V30 4494 N 428.649 -1.55105 -0.279332 0
M  V30 4495 C 429.879 -1.7917 -1.02867 0
M  V30 4496 C 430.287 -0.56204 -1.80659 0
M  V30 4497 O 429.63 0.478266 -1.77365 0
M  V30 4498 C 429.692 -2.96061 -2.03932 0
M  V30 4499 C 429.356 -4.33341 -1.45137 0
M  V30 4500 C 430.353 -5.12565 -0.870266 0
M  V30 4501 C 428.038 -4.79987 -1.48048 0
M  V30 4502 C 430.032 -6.36565 -0.326097 0
M  V30 4503 C 427.719 -6.03944 -0.932443 0
M  V30 4504 C 428.717 -6.8207 -0.356247 0
M  V30 4505 O 428.405 -8.03691 0.183412 0
M  V30 4506 H 428.137 -0.600796 -0.309872 0
M  V30 4507 H 430.691 -2.02932 -0.317468 0
M  V30 4508 H 428.921 -2.67975 -2.78794 0
M  V30 4509 H 430.61 -3.07506 -2.64943 0
M  V30 4510 H 431.376 -4.77661 -0.840521 0
M  V30 4511 H 427.255 -4.1919 -1.91835 0
M  V30 4512 H 430.799 -6.97489 0.124286 0
M  V30 4513 H 426.696 -6.3833 -0.959407 0
M  V30 4514 H 427.464 -8.18468 0.0721681 0
M  V30 4515 N 430.127 0.543554 -1.4793 0
M  V30 4516 C 431.057 1.65888 -1.64327 0
M  V30 4517 C 432.038 1.62818 -0.492383 0
M  V30 4518 O 433.223 1.80226 -0.723338 0
M  V30 4519 C 430.353 3.04506 -1.67013 0
M  V30 4520 C 429.307 3.2243 -2.81466 0
M  V30 4521 C 428.633 4.61972 -2.69233 0
M  V30 4522 C 429.933 3.06496 -4.22915 0
M  V30 4523 H 431.627 1.52421 -2.57698 0
M  V30 4524 H 429.173 0.731849 -1.24016 0
M  V30 4525 H 431.126 3.82391 -1.77074 0
M  V30 4526 H 429.85 3.18964 -0.70212 0
M  V30 4527 H 428.509 2.46957 -2.70938 0
M  V30 4528 H 428.157 4.73247 -1.7043 0
M  V30 4529 H 427.857 4.74911 -3.46025 0
M  V30 4530 H 429.381 5.41974 -2.81242 0
M  V30 4531 H 430.795 3.74186 -4.34348 0
M  V30 4532 H 429.192 3.30938 -5.006 0
M  V30 4533 H 430.262 2.03077 -4.40327 0
M  V30 4534 N 431.605 1.3629 0.791371 0
M  V30 4535 C 432.851 1.30605 1.55146 0
M  V30 4536 C 433.184 -0.115042 1.93859 0
M  V30 4537 O 432.459 -1.06798 1.62556 0
M  V30 4538 C 432.742 2.22692 2.82985 0
M  V30 4539 C 432.595 3.73489 2.50651 0
M  V30 4540 C 433.914 2.13588 3.84796 0
M  V30 4541 H 431.033 0.475761 0.562868 0
M  V30 4542 H 433.675 1.66825 0.909358 0
M  V30 4543 H 431.825 1.91933 3.37778 0
M  V30 4544 H 433.497 4.14758 2.01924 0
M  V30 4545 H 431.74 3.93021 1.83622 0
M  V30 4546 H 432.411 4.3333 3.41949 0
M  V30 4547 H 434.887 2.40659 3.39445 0
M  V30 4548 H 433.763 2.80195 4.71998 0
M  V30 4549 H 434.024 1.12256 4.27611 0
M  V30 4550 N 433.083 -1.0153 1.20538 0
M  V30 4551 C 434.013 -2.11972 0.979295 0
M  V30 4552 C 434.994 -1.6985 -0.0921787 0
M  V30 4553 O 436.179 -1.94089 0.0655932 0
M  V30 4554 C 433.309 -3.43201 0.531984 0
M  V30 4555 C 432.263 -3.9907 1.54685 0
M  V30 4556 C 431.589 -5.26082 0.956127 0
M  V30 4557 C 432.889 -4.32313 2.93092 0
M  V30 4558 H 434.583 -2.31143 1.90298 0
M  V30 4559 H 432.129 -1.11079 0.916372 0
M  V30 4560 H 434.082 -4.1985 0.361044 0
M  V30 4561 H 432.806 -3.23792 -0.427327 0
M  V30 4562 H 431.465 -3.2453 1.70517 0
M  V30 4563 H 431.113 -5.02999 -0.0111538 0
M  V30 4564 H 430.813 -5.64426 1.63393 0
M  V30 4565 H 432.337 -6.05386 0.796284 0
M  V30 4566 H 433.751 -4.99845 2.80763 0
M  V30 4567 H 432.148 -4.81774 3.57791 0
M  V30 4568 H 433.218 -3.41025 3.44717 0
M  V30 4569 N 434.561 -1.01147 -1.20859 0
M  V30 4570 C 435.471 -0.58686 -2.27141 0
M  V30 4571 C 436.487 0.373198 -1.69951 0
M  V30 4572 O 437.663 0.235423 -2.00019 0
M  V30 4573 C 434.728 0.0733602 -3.46622 0
M  V30 4574 C 433.789 -0.931995 -4.19061 0
M  V30 4575 C 433.022 -0.303186 -5.32838 0
M  V30 4576 O 433.245 0.898395 -5.63281 0
M  V30 4577 O 432.179 -1.01735 -5.9324 0
M  V30 4578 H 436.005 -1.47155 -2.65667 0
M  V30 4579 H 433.59 -0.780689 -1.2738 0
M  V30 4580 H 435.472 0.442333 -4.19072 0
M  V30 4581 H 434.147 0.932329 -3.09983 0
M  V30 4582 H 433.054 -1.35224 -3.48805 0
M  V30 4583 H 434.387 -1.76076 -4.59628 0
M  V30 4584 N 436.039 1.36541 -0.78704 0
M  V30 4585 C 436.949 2.3387 -0.184896 0
M  V30 4586 C 437.965 1.60927 0.661697 0
M  V30 4587 O 439.141 1.92927 0.57804 0
M  V30 4588 C 436.206 3.40122 0.672145 0
M  V30 4589 C 435.267 4.28867 -0.19267 0
M  V30 4590 C 434.5 5.30045 0.623561 0
M  V30 4591 O 434.723 5.39232 1.8597 0
M  V30 4592 O 433.657 6.01895 0.0247068 0
M  V30 4593 H 437.483 2.87126 -0.989562 0
M  V30 4594 H 435.068 1.38969 -0.548455 0
M  V30 4595 H 436.95 4.05093 1.16094 0
M  V30 4596 H 435.625 2.89169 1.45474 0
M  V30 4597 H 434.532 3.66945 -0.728166 0
M  V30 4598 H 435.865 4.83165 -0.938722 0
M  V30 4599 N 437.518 0.538854 1.48102 0
M  V30 4600 C 438.448 -0.207654 2.32575 0
M  V30 4601 C 439.429 -0.926559 1.4265 0
M  V30 4602 O 440.614 -0.91061 1.71527 0
M  V30 4603 C 437.744 -1.24957 3.24042 0
M  V30 4604 C 436.698 -0.648263 4.23062 0
M  V30 4605 C 436.024 -1.79348 5.03725 0
M  V30 4606 C 437.324 0.385897 5.20872 0
M  V30 4607 H 439.018 0.497534 2.95237 0
M  V30 4608 H 436.564 0.240715 1.41974 0
M  V30 4609 H 438.517 -1.77983 3.81969 0
M  V30 4610 H 437.241 -1.98446 2.59397 0
M  V30 4611 H 435.9 -0.139452 3.66335 0
M  V30 4612 H 435.548 -2.51696 4.35498 0
M  V30 4613 H 435.248 -1.39702 5.70751 0
M  V30 4614 H 436.772 -2.32735 5.64506 0
M  V30 4615 H 438.186 -0.057607 5.73271 0
M  V30 4616 H 436.583 0.700227 5.96001 0
M  V30 4617 H 437.653 1.28848 4.67468 0
M  V30 4618 N 438.996 -1.55193 0.274407 0
M  V30 4619 C 440.245 -1.98758 -0.343213 0
M  V30 4620 C 440.558 -1.16624 -1.5703 0
M  V30 4621 O 441.764 -1.5033 -2.26082 0
M  V30 4622 C 440.22 -3.53759 -0.661996 0
M  V30 4623 C 439.828 -4.4467 0.54524 0
M  V30 4624 C 441.572 -4.05916 -1.24228 0
M  V30 4625 C 439.479 -5.91058 0.201084 0
M  V30 4626 H 438.409 -0.742353 -0.132014 0
M  V30 4627 H 441.06 -1.79545 0.378948 0
M  V30 4628 H 439.442 -3.68772 -1.44304 0
M  V30 4629 H 440.616 -4.41426 1.32212 0
M  V30 4630 H 438.931 -4.03143 1.04232 0
M  V30 4631 H 441.528 -5.12831 -1.51357 0
M  V30 4632 H 441.871 -3.54908 -2.17592 0
M  V30 4633 H 442.404 -3.9434 -0.523542 0
M  V30 4634 H 439.143 -6.46161 1.10258 0
M  V30 4635 H 438.663 -5.97373 -0.539045 0
M  V30 4636 H 440.342 -6.46669 -0.206954 0
M  V30 4637 N 440.474 -0.00167713 -1.576 0
M  V30 4638 C 441.751 0.719951 -1.81868 0
M  V30 4639 C 442.131 1.91895 -0.879747 0
M  V30 4640 O 441.479 2.28389 0.0711423 0
M  V30 4641 C 441.689 1.12409 -3.30402 0
M  V30 4642 C 443.037 1.52724 -3.96182 0
M  V30 4643 O 444.061 1.21784 -3.34734 0
M  V30 4644 O 442.92 2.10265 -5.04431 0
M  V30 4645 H 440.014 0.350707 -0.748955 0
M  V30 4646 H 442.56 -0.0272597 -1.69678 0
M  V30 4647 H 441.332 0.269532 -3.90371 0
M  V30 4648 H 440.955 1.93035 -3.47596 0
M  V30 4649 N 441.952 1.55251 0.271103 0
M  V30 4650 C 442.885 1.83191 1.36075 0
M  V30 4651 C 443.863 0.685091 1.47463 0
M  V30 4652 O 445.047 0.928292 1.64058 0
M  V30 4653 C 442.174 1.99521 2.73696 0
M  V30 4654 C 441.22 3.22081 2.79582 0
M  V30 4655 S 442.053 4.79388 2.38636 0
M  V30 4656 C 443.209 4.98693 3.78228 0
M  V30 4657 H 443.442 2.75327 1.12171 0
M  V30 4658 H 440.975 1.47046 0.470833 0
M  V30 4659 H 442.933 2.09613 3.52948 0
M  V30 4660 H 441.594 1.0827 2.9485 0
M  V30 4661 H 440.787 3.304 3.80594 0
M  V30 4662 H 440.389 3.10589 2.08352 0
M  V30 4663 H 442.681 4.84551 4.73515 0
M  V30 4664 H 443.624 6.00738 3.7486 0
M  V30 4665 H 444.032 4.26665 3.69618 0
M  V30 4666 N 443.43 -0.535701 1.48216 0
M  V30 4667 C 444.378 -1.66179 1.62749 0
M  V30 4668 C 445.372 -1.62034 0.49409 0
M  V30 4669 O 446.578 -1.6696 0.672624 0
M  V30 4670 H 442.953 -0.550244 0.512578 0
M  V30 4671 H 444.924 -1.51063 2.57337 0
M  V30 4672 C 443.673 -3.04471 1.67907 0
M  V30 4673 H 442.996 -3.08351 2.54479 0
M  V30 4674 H 444.436 -3.82894 1.82121 0
M  V30 4675 C 442.895 -3.34314 0.416596 0
M  V30 4676 O 443.425 -3.98905 -0.473014 0
M  V30 4677 N 441.631 -2.89149 0.290038 0
M  V30 4678 H 441.178 -2.36764 1.01493 0
M  V30 4679 H 441.136 -3.09486 -0.55367 0
M  V30 4680 N 444.908 -1.36708 -0.784132 0
M  V30 4681 C 445.84 -1.27333 -1.90575 0
M  V30 4682 C 446.853 -0.191706 -1.61667 0
M  V30 4683 O 448.042 -0.446854 -1.72816 0
M  V30 4684 C 445.142 -0.943177 -3.25511 0
M  V30 4685 C 444.315 -2.12776 -3.82158 0
M  V30 4686 C 443.374 -1.76983 -4.95544 0
M  V30 4687 O 442.4 -2.49134 -5.11782 0
M  V30 4688 N 443.602 -0.706624 -5.76183 0
M  V30 4689 H 446.367 -2.23974 -1.99138 0
M  V30 4690 H 443.928 -1.30171 -0.962656 0
M  V30 4691 H 445.92 -0.684799 -3.98864 0
M  V30 4692 H 444.49 -0.0657333 -3.12531 0
M  V30 4693 H 443.71 -2.54863 -3.0073 0
M  V30 4694 H 444.998 -2.91904 -4.16737 0
M  V30 4695 H 444.396 -0.107643 -5.65598 0
M  V30 4696 H 442.953 -0.50808 -6.49817 0
M  V30 4697 N 446.386 1.0089 -1.21074 0
M  V30 4698 C 447.336 2.0799 -0.934034 0
M  V30 4699 C 448.32 1.60529 0.10919 0
M  V30 4700 O 449.512 1.76722 -0.0992198 0
M  V30 4701 C 446.641 3.39693 -0.496334 0
M  V30 4702 C 445.727 3.93833 -1.57341 0
M  V30 4703 N 446.118 4.21388 -2.7976 0
M  V30 4704 C 444.416 4.22067 -1.44137 0
M  V30 4705 C 445.117 4.65156 -3.49292 0
M  V30 4706 N 444.093 4.67895 -2.76722 0
M  V30 4707 H 447.895 2.27213 -1.86417 0
M  V30 4708 H 445.409 1.18927 -1.10589 0
M  V30 4709 H 447.406 4.15962 -0.279471 0
M  V30 4710 H 446.066 3.21879 0.427084 0
M  V30 4711 H 447.077 4.10061 -3.1634 0
M  V30 4712 H 443.754 4.1341 -0.582947 0
M  V30 4713 H 445.144 4.95231 -4.54088 0
M  V30 4714 N 447.864 1.01787 1.20321 0
M  V30 4715 C 448.814 0.559976 2.21016 0
M  V30 4716 C 449.798 -0.385366 1.56217 0
M  V30 4717 O 450.99 -0.208126 1.75772 0
M  V30 4718 C 448.119 -0.0990553 3.43157 0
M  V30 4719 C 447.205 0.86807 4.15121 0
M  V30 4720 N 447.596 2.0261 4.63447 0
M  V30 4721 C 445.894 0.689162 4.40643 0
M  V30 4722 C 446.595 2.63518 5.18588 0
M  V30 4723 N 445.571 1.91569 5.08726 0
M  V30 4724 H 449.373 1.44281 2.56048 0
M  V30 4725 H 446.887 0.883381 1.36272 0
M  V30 4726 H 448.884 -0.444643 4.14522 0
M  V30 4727 H 447.544 -0.977709 3.0963 0
M  V30 4728 H 448.555 2.40598 4.58621 0
M  V30 4729 H 445.232 -0.14133 4.17261 0
M  V30 4730 H 446.622 3.61527 5.66346 0
M  V30 4731 N 449.342 -1.36122 0.79427 0
M  V30 4732 C 450.272 -2.32551 0.210328 0
M  V30 4733 C 451.253 -1.56884 -0.657386 0
M  V30 4734 O 452.438 -1.85014 -0.590207 0
M  V30 4735 C 449.568 -3.41128 -0.651819 0
M  V30 4736 C 448.522 -4.27842 0.116395 0
M  V30 4737 C 447.848 -5.2763 -0.86666 0
M  V30 4738 C 449.148 -5.05647 1.30837 0
M  V30 4739 H 450.842 -2.81636 1.01594 0
M  V30 4740 H 448.388 -1.35407 0.489981 0
M  V30 4741 H 450.341 -4.07581 -1.07031 0
M  V30 4742 H 449.065 -2.90622 -1.49019 0
M  V30 4743 H 447.724 -3.62952 0.515915 0
M  V30 4744 H 447.372 -4.73395 -1.70019 0
M  V30 4745 H 447.072 -5.86514 -0.35705 0
M  V30 4746 H 448.596 -5.96955 -1.28361 0
M  V30 4747 H 450.01 -5.65113 0.965393 0
M  V30 4748 H 448.407 -5.73967 1.75161 0
M  V30 4749 H 449.477 -4.37006 2.10128 0
M  V30 4750 N 450.82 -0.546701 -1.47814 0
M  V30 4751 C 451.768 0.220048 -2.31557 0
M  V30 4752 C 452.762 0.919472 -1.42275 0
M  V30 4753 O 453.968 0.841953 -1.59095 0
M  V30 4754 H 450.343 0.0898334 -0.746615 0
M  V30 4755 H 452.314 -0.505589 -2.94086 0
M  V30 4756 C 451.063 1.24353 -3.24702 0
M  V30 4757 H 450.386 0.714758 -3.93359 0
M  V30 4758 H 451.826 1.75112 -3.8615 0
M  V30 4759 C 450.285 2.28593 -2.47481 0
M  V30 4760 O 450.815 3.35334 -2.21165 0
M  V30 4761 N 449.021 2.02244 -2.08676 0
M  V30 4762 H 448.568 1.15455 -2.30278 0
M  V30 4763 H 448.526 2.72207 -1.57323 0
M  V30 4764 N 452.299 1.55045 -0.282633 0
M  V30 4765 C 453.262 2.21515 0.588539 0
M  V30 4766 C 454.262 1.19535 1.07554 0
M  V30 4767 O 455.452 1.44391 0.974514 0
M  V30 4768 C 452.584 2.88704 1.8128 0
M  V30 4769 H 453.777 2.99899 0.00806397 0
M  V30 4770 H 451.33 1.56265 -0.0333067 0
M  V30 4771 H 452.065 2.14352 2.43359 0
M  V30 4772 H 451.85 3.63443 1.47144 0
M  V30 4773 H 453.34 3.39465 2.43214 0
M  V30 4774 N 453.777 0.010035 1.57597 0
M  V30 4775 C 454.707 -0.976857 2.12084 0
M  V30 4776 C 455.688 -1.35191 1.03235 0
M  V30 4777 O 456.873 -1.43389 1.3097 0
M  V30 4778 C 454.003 -2.26548 2.63236 0
M  V30 4779 C 452.957 -2.03175 3.76701 0
M  V30 4780 C 452.283 -3.38138 4.14206 0
M  V30 4781 C 453.583 -1.38625 5.03568 0
M  V30 4782 H 455.277 -0.523145 2.94794 0
M  V30 4783 H 452.823 -0.250195 1.4181 0
M  V30 4784 H 454.776 -2.95952 2.99984 0
M  V30 4785 H 453.5 -2.74051 1.77661 0
M  V30 4786 H 452.159 -1.36195 3.40362 0
M  V30 4787 H 451.807 -3.83363 3.25641 0
M  V30 4788 H 451.507 -3.23312 4.90656 0
M  V30 4789 H 453.031 -4.08841 4.53521 0
M  V30 4790 H 454.445 -1.98 5.38023 0
M  V30 4791 H 452.842 -1.34256 5.84889 0
M  V30 4792 H 453.912 -0.356722 4.83586 0
M  V30 4793 N 455.255 -1.55392 -0.262866 0
M  V30 4794 C 456.503 -1.76127 -0.991147 0
M  V30 4795 C 456.824 -0.571083 -1.8645 0
M  V30 4796 O 456.094 0.413698 -1.91482 0
M  V30 4797 H 454.674 -0.649528 -0.368948 0
M  V30 4798 H 457.336 -1.9281 -0.284655 0
M  V30 4799 H 456.432 -2.6663 -1.62219 0
M  V30 4800 N 456.733 0.527833 -1.48498 0
M  V30 4801 C 457.979 1.28545 -1.56857 0
M  V30 4802 C 458.312 1.92678 -0.242651 0
M  V30 4803 O 457.587 1.79394 0.751545 0
M  V30 4804 C 457.87 2.37314 -2.70839 0
M  V30 4805 C 457.723 1.77858 -4.13142 0
M  V30 4806 C 459.042 3.39068 -2.80573 0
M  V30 4807 H 456.161 0.466006 -0.570971 0
M  V30 4808 H 458.803 0.587784 -1.8068 0
M  V30 4809 H 456.953 2.96821 -2.50658 0
M  V30 4810 H 458.625 1.22385 -4.44769 0
M  V30 4811 H 456.868 1.08383 -4.20042 0
M  V30 4812 H 457.539 2.56624 -4.88721 0
M  V30 4813 H 460.015 2.89518 -2.98862 0
M  V30 4814 H 458.891 4.12566 -3.6205 0
M  V30 4815 H 459.152 3.9975 -1.88818 0
M  V30 4816 N 458.211 1.37122 0.776871 0
M  V30 4817 C 459.459 1.31787 1.53221 0
M  V30 4818 C 459.78 -0.0987589 1.9475 0
M  V30 4819 O 459.05 -1.0417 1.65908 0
M  V30 4820 H 457.63 0.484839 0.568278 0
M  V30 4821 H 460.292 1.71556 0.924917 0
M  V30 4822 H 459.388 1.95355 2.43398 0
M  V30 4823 N 459.689 -1.00246 1.21608 0
M  V30 4824 C 460.639 -2.07492 0.945051 0
M  V30 4825 C 461.623 -1.60585 -0.100675 0
M  V30 4826 O 462.815 -1.76667 0.10859 0
M  V30 4827 C 459.944 -3.39425 0.514342 0
M  V30 4828 C 459.03 -3.92993 1.59428 0
M  V30 4829 N 459.421 -4.19898 2.81991 0
M  V30 4830 C 457.719 -4.21297 1.46374 0
M  V30 4831 C 458.42 -4.63297 3.51754 0
M  V30 4832 N 457.396 -4.66421 2.79199 0
M  V30 4833 H 461.198 -2.26222 1.87619 0
M  V30 4834 H 458.712 -1.18339 1.11219 0
M  V30 4835 H 460.709 -4.15808 0.301527 0
M  V30 4836 H 459.369 -3.22101 -0.410008 0
M  V30 4837 H 460.38 -4.08377 3.1851 0
M  V30 4838 H 457.057 -4.13095 0.604863 0
M  V30 4839 H 458.447 -4.92816 4.56708 0
M  V30 4840 N 461.167 -1.02423 -1.1978 0
M  V30 4841 C 462.13 -0.605703 -2.21052 0
M  V30 4842 C 463.13 0.328209 -1.57415 0
M  V30 4843 O 464.32 0.115853 -1.73814 0
M  V30 4844 C 461.452 0.114366 -3.40708 0
M  V30 4845 H 462.645 -1.5017 -2.59594 0
M  V30 4846 H 460.198 -0.814888 -1.33376 0
M  V30 4847 H 460.933 1.02492 -3.07678 0
M  V30 4848 H 460.718 -0.556641 -3.88129 0
M  V30 4849 H 462.208 0.394272 -4.15735 0
M  V30 4850 N 462.645 1.35699 -0.801477 0
M  V30 4851 C 463.87 2.03687 -0.390678 0
M  V30 4852 C 464.295 1.60015 0.988778 0
M  V30 4853 O 463.653 0.774357 1.63931 0
M  V30 4854 C 463.701 3.57439 -0.476404 0
M  V30 4855 O 462.805 4.09208 0.512106 0
M  V30 4856 H 462.146 0.64344 -0.163956 0
M  V30 4857 H 464.676 1.73403 -1.08594 0
M  V30 4858 H 464.686 4.06544 -0.344357 0
M  V30 4859 H 463.361 3.88576 -1.48262 0
M  V30 4860 H 461.938 3.7134 0.340721 0
M  V30 4861 N 464.123 0.554532 1.47522 0
M  V30 4862 C 465.053 -0.182974 2.32782 0
M  V30 4863 C 466.034 -0.911377 1.43624 0
M  V30 4864 O 467.219 -0.892366 1.72483 0
M  V30 4865 C 464.349 -1.21513 3.25349 0
M  V30 4866 C 463.303 -0.603355 4.23726 0
M  V30 4867 C 462.629 -1.73995 5.05598 0
M  V30 4868 C 463.929 0.441121 5.20434 0
M  V30 4869 H 465.623 0.52882 2.94693 0
M  V30 4870 H 463.169 0.255759 1.41711 0
M  V30 4871 H 465.122 -1.73922 3.83835 0
M  V30 4872 H 463.846 -1.95683 2.61487 0
M  V30 4873 H 462.505 -0.10059 3.66462 0
M  V30 4874 H 462.153 -2.47063 4.38143 0
M  V30 4875 H 461.853 -1.3364 5.72201 0
M  V30 4876 H 463.377 -2.26735 5.66942 0
M  V30 4877 H 464.791 0.00319931 5.733 0
M  V30 4878 H 463.188 0.763402 5.95224 0
M  V30 4879 H 464.258 1.33799 4.66075 0
M  V30 4880 N 465.601 -1.54893 0.290851 0
M  V30 4881 C 466.878 -1.91991 -0.373989 0
M  V30 4882 C 467.258 -1.21694 -1.72493 0
M  V30 4883 O 466.606 -0.34917 -2.25816 0
M  V30 4884 C 466.816 -3.45419 -0.498703 0
M  V30 4885 C 468.164 -4.1748 -0.774298 0
M  V30 4886 O 469.188 -3.51398 -0.582908 0
M  V30 4887 O 468.047 -5.3445 -1.14129 0
M  V30 4888 H 465.141 -0.800593 -0.207315 0
M  V30 4889 H 467.687 -1.66297 0.338164 0
M  V30 4890 H 466.459 -3.88688 0.451392 0
M  V30 4891 H 466.082 -3.77117 -1.25972 0
M  V30 4892 N 467.08 -0.0183926 -1.57589 0
M  V30 4893 C 468.012 0.995557 -2.06449 0
M  V30 4894 C 469.025 1.29556 -0.985849 0
M  V30 4895 O 470.214 1.2621 -1.26227 0
M  V30 4896 C 467.314 2.32572 -2.46502 0
M  V30 4897 C 466.487 2.21245 -3.77319 0
M  V30 4898 C 465.546 3.37104 -4.04039 0
M  V30 4899 O 464.572 3.14468 -4.74445 0
M  V30 4900 N 465.774 4.60553 -3.53372 0
M  V30 4901 H 468.539 0.578746 -2.94059 0
M  V30 4902 H 466.1 0.168603 -1.6102 0
M  V30 4903 H 468.092 3.08887 -2.61478 0
M  V30 4904 H 466.662 2.65931 -1.64315 0
M  V30 4905 H 465.882 1.29723 -3.72244 0
M  V30 4906 H 467.17 2.10868 -4.63047 0
M  V30 4907 H 466.568 4.81839 -2.96391 0
M  V30 4908 H 465.125 5.34072 -3.73644 0
M  V30 4909 N 468.558 1.5553 0.254621 0
M  V30 4910 C 469.488 1.9268 1.31897 0
M  V30 4911 C 470.469 0.790797 1.506 0
M  V30 4912 O 471.654 1.05045 1.63337 0
M  V30 4913 C 468.784 2.21477 2.67517 0
M  V30 4914 C 467.738 3.37256 2.63519 0
M  V30 4915 C 467.064 3.51576 4.02862 0
M  V30 4916 C 468.364 4.73157 2.21179 0
M  V30 4917 H 470.058 2.81832 1.01051 0
M  V30 4918 H 467.604 1.35599 0.484662 0
M  V30 4919 H 469.557 2.46055 3.42104 0
M  V30 4920 H 468.281 1.29144 2.99982 0
M  V30 4921 H 466.94 3.12675 1.9139 0
M  V30 4922 H 466.588 2.56676 4.32581 0
M  V30 4923 H 466.288 4.2943 4.01078 0
M  V30 4924 H 467.812 3.78467 4.79161 0
M  V30 4925 H 469.226 4.97158 2.85494 0
M  V30 4926 H 467.623 5.54058 2.30521 0
M  V30 4927 H 468.693 4.70739 1.16332 0
M  V30 4928 N 470.036 -0.519951 1.48776 0
M  V30 4929 C 471.276 -1.2856 1.58908 0
M  V30 4930 C 471.64 -1.90212 0.261418 0
M  V30 4931 O 472.841 -2.67746 0.237791 0
M  V30 4932 C 471.112 -2.33836 2.70288 0
M  V30 4933 S 472.671 -3.19992 3.0025 0
M  V30 4934 H 469.489 -0.43717 0.560717 0
M  V30 4935 H 472.091 -0.591205 1.86346 0
M  V30 4936 H 470.795 -1.87041 3.653 0
M  V30 4937 H 470.326 -3.07969 2.44783 0
M  V30 4938 H 472.341 -4.34122 2.40317 0
M  V30 4939 N 471.514 -1.37532 -0.769588 0
M  V30 4940 C 472.446 -1.29347 -1.89214 0
M  V30 4941 C 473.459 -0.208842 -1.61455 0
M  V30 4942 O 474.648 -0.465158 -1.72333 0
M  V30 4943 C 471.748 -0.977649 -3.24492 0
M  V30 4944 C 470.921 -2.16817 -3.7988 0
M  V30 4945 C 469.98 -1.82229 -4.93639 0
M  V30 4946 O 469.006 -2.54548 -5.09111 0
M  V30 4947 N 470.208 -0.767696 -5.75401 0
M  V30 4948 H 472.973 -2.26073 -1.96751 0
M  V30 4949 H 470.534 -1.31185 -0.948795 0
M  V30 4950 H 472.526 -0.727065 -3.98115 0
M  V30 4951 H 471.096 -0.0988777 -3.12444 0
M  V30 4952 H 470.316 -2.58038 -2.9801 0
M  V30 4953 H 471.604 -2.96308 -4.13617 0
M  V30 4954 H 471.002 -0.167626 -5.65452 0
M  V30 4955 H 469.559 -0.576973 -6.49241 0
M  V30 4956 N 472.992 0.995999 -1.22138 0
M  V30 4957 C 474.238 1.73767 -1.04561 0
M  V30 4958 C 474.571 1.89633 0.418698 0
M  V30 4959 O 473.846 1.43723 1.3105 0
M  V30 4960 C 474.129 3.14505 -1.75382 0
M  V30 4961 C 473.982 3.06306 -3.29388 0
M  V30 4962 C 475.301 4.13615 -1.50369 0
M  V30 4963 H 472.42 0.630728 -0.38125 0
M  V30 4964 H 475.062 1.16057 -1.50435 0
M  V30 4965 H 473.212 3.63775 -1.36383 0
M  V30 4966 H 474.884 2.64681 -3.77812 0
M  V30 4967 H 473.127 2.43186 -3.59226 0
M  V30 4968 H 473.798 4.05884 -3.74116 0
M  V30 4969 H 476.274 3.73089 -1.84239 0
M  V30 4970 H 475.15 5.10212 -2.02421 0
M  V30 4971 H 475.411 4.39949 -0.435611 0
M  V30 4972 N 474.47 1.03057 1.19235 0
M  V30 4973 C 475.698 0.747697 1.92917 0
M  V30 4974 C 476.113 -0.69372 1.75593 0
M  V30 4975 O 475.47 -1.47191 1.07894 0
M  V30 4976 C 475.521 1.09159 3.44625 0
M  V30 4977 O 475.242 2.47641 3.61394 0
M  V30 4978 C 476.743 0.831763 4.35427 0
M  V30 4979 H 473.963 0.273453 0.612751 0
M  V30 4980 H 476.507 1.37552 1.51327 0
M  V30 4981 H 474.662 0.508919 3.84043 0
M  V30 4982 H 475.076 2.60499 4.55237 0
M  V30 4983 H 476.55 1.12233 5.4047 0
M  V30 4984 H 477.027 -0.233769 4.38577 0
M  V30 4985 H 477.633 1.39725 4.01693 0
M  V30 4986 N 475.948 -1.35272 0.808662 0
M  V30 4987 C 477.364 -1.51806 0.492653 0
M  V30 4988 C 477.564 -1.7574 -0.985778 0
M  V30 4989 O 476.62 -1.80003 -1.77074 0
M  V30 4990 C 477.933 -2.69202 1.33981 0
M  V30 4991 C 479.481 -2.8308 1.33547 0
M  V30 4992 C 479.956 -4.03502 2.16679 0
M  V30 4993 N 481.447 -4.10684 2.14227 0
M  V30 4994 C 482.182 -5.02984 2.75308 0
M  V30 4995 N 481.678 -6.00603 3.45323 0
M  V30 4996 N 483.471 -4.95746 2.64938 0
M  V30 4997 H 475.622 -1.17993 1.76611 0
M  V30 4998 H 477.885 -0.577476 0.751814 0
M  V30 4999 H 477.591 -2.581 2.38909 0
M  V30 5000 H 477.465 -3.63854 0.994491 0
M  V30 5001 H 479.852 -2.93631 0.294036 0
M  V30 5002 H 479.933 -1.89278 1.72068 0
M  V30 5003 H 479.577 -3.93711 3.20864 0
M  V30 5004 H 479.507 -4.96489 1.75517 0
M  V30 5005 H 481.998 -3.40802 1.63285 0
M  V30 5006 H 482.311 -6.67633 3.89212 0
M  V30 5007 H 480.656 -6.0077 3.49428 0
M  V30 5008 H 483.847 -4.18439 2.09825 0
M  V30 5009 H 484.02 -5.67487 3.12829 0
M  V30 5010 N 477.426 -0.562348 -1.47226 0
M  V30 5011 C 478.389 0.172056 -2.28553 0
M  V30 5012 C 479.389 0.837928 -1.37242 0
M  V30 5013 O 480.579 0.693001 -1.59822 0
M  V30 5014 C 477.711 1.25223 -3.17068 0
M  V30 5015 H 478.904 -0.542401 -2.94954 0
M  V30 5016 H 476.457 -0.319493 -1.53 0
M  V30 5017 H 477.192 1.99892 -2.55369 0
M  V30 5018 H 476.977 0.779515 -3.84273 0
M  V30 5019 H 478.467 1.76791 -3.78332 0
M  V30 5020 N 478.904 1.54736 -0.299062 0
M  V30 5021 C 480.32 1.59507 0.0543849 0
M  V30 5022 C 480.52 1.31606 1.52585 0
M  V30 5023 O 479.576 1.08853 2.27832 0
M  V30 5024 C 480.889 2.98751 -0.34181 0
M  V30 5025 C 482.437 3.1165 -0.290414 0
M  V30 5026 C 482.912 4.53199 -0.661402 0
M  V30 5027 N 484.403 4.59114 -0.613863 0
M  V30 5028 C 485.138 5.66709 -0.873417 0
M  V30 5029 N 484.634 6.82349 -1.19884 0
M  V30 5030 N 486.427 5.56369 -0.800608 0
M  V30 5031 H 478.578 1.71133 -1.25806 0
M  V30 5032 H 480.841 0.799186 -0.509908 0
M  V30 5033 H 480.547 3.24085 -1.36608 0
M  V30 5034 H 480.421 3.75961 0.305508 0
M  V30 5035 H 482.808 2.86066 0.724605 0
M  V30 5036 H 482.889 2.366 -0.972327 0
M  V30 5037 H 482.533 4.79513 -1.67422 0
M  V30 5038 H 482.463 5.26583 0.0425612 0
M  V30 5039 H 484.954 3.76053 -0.3732 0
M  V30 5040 H 485.267 7.60326 -1.38291 0
M  V30 5041 H 483.612 6.83906 -1.23685 0
M  V30 5042 H 486.803 4.64904 -0.546045 0
M  V30 5043 H 486.976 6.40139 -1.00626 0
M  V30 5044 N 480.382 0.0267497 1.57577 0
M  V30 5045 C 481.63 -0.651116 1.91324 0
M  V30 5046 C 481.951 -1.72804 0.90353 0
M  V30 5047 O 481.221 -1.95822 -0.0552946 0
M  V30 5048 H 479.801 -0.243491 0.706202 0
M  V30 5049 H 482.463 0.0739935 1.94759 0
M  V30 5050 H 481.559 -1.10536 2.9187 0
M  V30 5051 N 481.861 -1.55662 -0.24637 0
M  V30 5052 C 482.791 -1.93377 -1.30873 0
M  V30 5053 C 483.772 -0.798773 -1.50179 0
M  V30 5054 O 484.957 -1.0591 -1.62778 0
M  V30 5055 C 482.087 -2.22893 -2.66338 0
M  V30 5056 C 481.041 -3.38649 -2.61727 0
M  V30 5057 C 480.367 -3.53708 -4.00992 0
M  V30 5058 C 481.667 -4.74323 -2.18666 0
M  V30 5059 H 483.361 -2.82363 -0.995552 0
M  V30 5060 H 480.907 -1.35854 -0.477464 0
M  V30 5061 H 482.86 -2.47866 -3.40794 0
M  V30 5062 H 481.584 -1.30733 -2.99293 0
M  V30 5063 H 480.243 -3.13685 -1.89729 0
M  V30 5064 H 479.891 -2.58967 -4.31214 0
M  V30 5065 H 479.591 -4.31551 -3.98795 0
M  V30 5066 H 481.115 -3.81003 -4.77147 0
M  V30 5067 H 482.529 -4.98665 -2.82854 0
M  V30 5068 H 480.926 -5.55273 -2.27579 0
M  V30 5069 H 481.996 -4.71349 -1.13834 0
M  V30 5070 N 483.339 0.512053 -1.4905 0
M  V30 5071 C 484.289 1.61142 -1.61298 0
M  V30 5072 C 485.273 1.53908 -0.46916 0
M  V30 5073 O 486.465 1.61625 -0.721547 0
M  V30 5074 C 483.594 2.998 -1.67256 0
M  V30 5075 C 482.68 3.12072 -2.87179 0
M  V30 5076 N 483.071 2.94263 -4.11391 0
M  V30 5077 C 481.369 3.43156 -2.84886 0
M  V30 5078 C 482.07 3.10426 -4.91946 0
M  V30 5079 N 481.046 3.38808 -4.251 0
M  V30 5080 H 484.848 1.46011 -2.55065 0
M  V30 5081 H 482.362 0.717934 -1.45669 0
M  V30 5082 H 484.359 3.78794 -1.74128 0
M  V30 5083 H 483.019 3.1601 -0.746195 0
M  V30 5084 H 484.03 2.70661 -4.41546 0
M  V30 5085 H 480.707 3.65611 -2.01581 0
M  V30 5086 H 482.097 3.01243 -6.00585 0
M  V30 5087 N 484.817 1.37938 0.762283 0
M  V30 5088 C 486.042 1.37059 1.55659 0
M  V30 5089 C 486.467 -0.0396123 1.88058 0
M  V30 5090 O 485.825 -1.01929 1.49934 0
M  V30 5091 C 485.873 2.22494 2.83776 0
M  V30 5092 O 484.977 1.63607 3.78559 0
M  V30 5093 H 484.318 0.467892 0.47114 0
M  V30 5094 H 486.848 1.81587 0.942725 0
M  V30 5095 H 486.858 2.36045 3.32786 0
M  V30 5096 H 485.533 3.24993 2.59524 0
M  V30 5097 H 484.11 1.5915 3.37233 0
M  V30 5098 N 486.295 -0.989507 1.22664 0
M  V30 5099 C 487.242 -2.08024 0.999733 0
M  V30 5100 C 488.212 -1.65909 -0.0797047 0
M  V30 5101 O 489.397 -1.90669 0.0705715 0
M  V30 5102 C 486.537 -3.40067 0.587234 0
M  V30 5103 C 485.65 -3.95505 1.73781 0
M  V30 5104 C 484.785 -5.15722 1.27297 0
M  V30 5105 C 483.824 -5.63305 2.39488 0
M  V30 5106 N 482.961 -6.74758 1.94026 0
M  V30 5107 H 487.801 -2.26768 1.9334 0
M  V30 5108 H 485.338 -1.11171 0.963297 0
M  V30 5109 H 487.296 -4.15899 0.329227 0
M  V30 5110 H 485.926 -3.21314 -0.309426 0
M  V30 5111 H 484.978 -3.16513 2.11006 0
M  V30 5112 H 486.29 -4.26797 2.58158 0
M  V30 5113 H 485.444 -5.98854 0.972546 0
M  V30 5114 H 484.183 -4.86061 0.399445 0
M  V30 5115 H 483.188 -4.78759 2.70315 0
M  V30 5116 H 484.413 -5.94988 3.27362 0
M  V30 5117 H 482.359 -6.46874 1.09041 0
M  V30 5118 H 482.276 -7.05386 2.71968 0
M  V30 5119 H 483.544 -7.61387 1.67062 0
M  V30 5120 N 487.773 -1.03688 -1.18687 0
M  V30 5121 C 488.703 -0.645407 -2.24403 0
M  V30 5122 C 489.684 0.349511 -1.66471 0
M  V30 5123 O 490.869 0.230453 -1.92828 0
M  V30 5124 C 487.999 -0.00365337 -3.473 0
M  V30 5125 C 486.953 -0.921705 -4.17958 0
M  V30 5126 C 486.279 -0.144629 -5.34504 0
M  V30 5127 C 487.579 -2.23909 -4.71871 0
M  V30 5128 H 489.273 -1.52917 -2.57404 0
M  V30 5129 H 486.819 -0.736711 -1.23728 0
M  V30 5130 H 488.772 0.281908 -4.20456 0
M  V30 5131 H 487.496 0.914963 -3.13522 0
M  V30 5132 H 486.155 -1.19159 -3.46694 0
M  V30 5133 H 485.803 0.776274 -4.96974 0
M  V30 5134 H 485.503 -0.756206 -5.82714 0
M  V30 5135 H 487.027 0.134004 -6.10453 0
M  V30 5136 H 488.441 -2.0145 -5.36741 0
M  V30 5137 H 486.838 -2.8033 -5.30599 0
M  V30 5138 H 487.908 -2.88822 -3.895 0
M  V30 5139 N 489.251 1.34841 -0.815825 0
M  V30 5140 C 490.479 2.0273 -0.413294 0
M  V30 5141 C 490.894 1.61459 0.978599 0
M  V30 5142 O 490.251 0.816584 1.63212 0
M  V30 5143 C 490.302 3.58058 -0.497676 0
M  V30 5144 O 490.023 3.97832 -1.8347 0
M  V30 5145 C 491.524 4.4321 -0.0891339 0
M  V30 5146 H 488.744 0.649956 -0.166728 0
M  V30 5147 H 491.288 1.72267 -1.10201 0
M  V30 5148 H 489.443 3.87136 0.142886 0
M  V30 5149 H 489.857 4.92501 -1.80396 0
M  V30 5150 H 491.331 5.5164 -0.199274 0
M  V30 5151 H 491.808 4.28432 0.966571 0
M  V30 5152 H 492.414 4.19446 -0.703214 0
M  V30 5153 N 490.729 0.570148 1.46925 0
M  V30 5154 C 491.977 0.0508523 2.02036 0
M  V30 5155 C 492.298 -1.30885 1.44548 0
M  V30 5156 O 491.568 -1.85647 0.625453 0
M  V30 5157 H 490.148 0.0158088 0.746833 0
M  V30 5158 H 492.81 0.743086 1.80178 0
M  V30 5159 H 491.906 -0.027575 3.12088 0
M  V30 5160 N 492.207 -1.54576 0.307264 0
M  V30 5161 C 493.17 -2.22423 -0.553224 0
M  V30 5162 C 494.17 -1.21231 -1.05639 0
M  V30 5163 O 495.36 -1.45923 -0.951419 0
M  V30 5164 C 492.492 -2.91552 -1.76664 0
M  V30 5165 H 493.685 -2.99874 0.0396484 0
M  V30 5166 H 491.238 -1.56192 0.0581629 0
M  V30 5167 H 491.973 -2.18196 -2.39918 0
M  V30 5168 H 491.758 -3.65738 -1.41343 0
M  V30 5169 H 493.248 -3.43292 -2.37783 0
M  V30 5170 N 493.685 -0.035106 -1.57561 0
M  V30 5171 C 494.933 0.64096 -1.91667 0
M  V30 5172 C 495.254 1.72323 -0.912681 0
M  V30 5173 O 494.524 1.95849 0.0449089 0
M  V30 5174 H 493.104 0.239743 -0.707483 0
M  V30 5175 H 495.766 -0.084321 -1.94718 0
M  V30 5176 H 494.862 1.08987 -2.92452 0
M  V30 5177 N 495.163 1.55791 0.238111 0
M  V30 5178 C 496.411 1.77681 0.963001 0
M  V30 5179 C 496.732 0.600674 1.85518 0
M  V30 5180 O 496.002 -0.383182 1.92116 0
M  V30 5181 H 494.582 0.655315 0.358568 0
M  V30 5182 H 497.244 1.93239 0.253945 0
M  V30 5183 H 496.34 2.69177 1.57956 0
M  V30 5184 N 496.642 -0.504142 1.49319 0
M  V30 5185 C 497.89 -1.25598 1.58334 0
M  V30 5186 C 498.211 -1.93114 0.270538 0
M  V30 5187 O 497.481 -1.82585 -0.709891 0
M  V30 5188 H 496.061 -0.466571 0.58337 0
M  V30 5189 H 498.723 -0.584547 1.85928 0
M  V30 5190 H 497.819 -2.02159 2.37778 0
M  V30 5191 N 498.12 -1.38341 -0.754957 0
M  V30 5192 C 499.368 -1.34208 -1.51105 0
M  V30 5193 C 499.689 0.0677634 -1.94882 0
M  V30 5194 O 498.959 1.01517 -1.67544 0
M  V30 5195 H 497.539 -0.493819 -0.560493 0
M  V30 5196 H 500.201 -1.73005 -0.897507 0
M  V30 5197 H 499.297 -1.99203 -2.4026 0
M  V30 5198 N 499.598 0.982988 -1.23187 0
M  V30 5199 C 500.838 1.73903 -1.07412 0
M  V30 5200 C 501.202 1.88146 0.382764 0
M  V30 5201 O 502.403 2.6053 0.661638 0
M  V30 5202 C 500.674 3.10105 -1.77678 0
M  V30 5203 S 502.233 4.01323 -1.77441 0
M  V30 5204 H 499.051 0.598093 -0.384456 0
M  V30 5205 H 501.653 1.17456 -1.56283 0
M  V30 5206 H 500.357 2.97388 -2.82822 0
M  V30 5207 H 499.888 3.71622 -1.29077 0
M  V30 5208 H 501.903 4.89189 -0.831162 0
M  V30 5209 N 501.076 1.04316 1.18135 0
M  V30 5210 C 502.324 0.746542 1.87806 0
M  V30 5211 C 502.645 -0.728082 1.80898 0
M  V30 5212 O 501.915 -1.52554 1.22899 0
M  V30 5213 H 500.495 0.273157 0.695265 0
M  V30 5214 H 503.157 1.32044 1.43354 0
M  V30 5215 H 502.253 1.05362 2.93778 0
M  V30 5216 N 502.554 -1.34406 0.822964 0
M  V30 5217 C 503.803 -1.97542 0.407458 0
M  V30 5218 C 504.116 -1.65973 -1.035 0
M  V30 5219 O 505.322 -2.22598 -1.55442 0
M  V30 5220 C 503.778 -3.53463 0.677623 0
M  V30 5221 C 503.386 -3.93925 2.1337 0
M  V30 5222 C 505.13 -4.23229 0.328284 0
M  V30 5223 C 503.037 -5.42759 2.34876 0
M  V30 5224 H 501.967 -0.739207 0.148623 0
M  V30 5225 H 504.618 -1.53248 1.00932 0
M  V30 5226 H 503 -3.96 0.00558965 0
M  V30 5227 H 504.174 -3.62494 2.8449 0
M  V30 5228 H 502.489 -3.37097 2.44448 0
M  V30 5229 H 505.086 -5.32659 0.466794 0
M  V30 5230 H 505.429 -4.09899 -0.727224 0
M  V30 5231 H 505.962 -3.86169 0.954896 0
M  V30 5232 H 502.701 -5.61075 3.38932 0
M  V30 5233 H 502.221 -5.75704 1.68299 0
M  V30 5234 H 503.9 -6.0944 2.17236 0
M  V30 5235 N 504.032 -0.577932 -1.46621 0
M  V30 5236 C 505.26 -0.0671642 -2.06791 0
M  V30 5237 C 505.675 1.23571 -1.42743 0
M  V30 5238 O 505.032 1.74602 -0.531062 0
M  V30 5239 C 505.083 0.110357 -3.61332 0
M  V30 5240 O 504.804 -1.14095 -4.22982 0
M  V30 5241 C 506.305 0.656025 -4.38419 0
M  V30 5242 H 503.525 -0.0552732 -0.66872 0
M  V30 5243 H 506.069 -0.797242 -1.8832 0
M  V30 5244 H 504.224 0.790637 -3.79246 0
M  V30 5245 H 504.638 -0.951742 -5.15793 0
M  V30 5246 H 506.112 0.729438 -5.47159 0
M  V30 5247 H 506.589 1.67195 -4.06131 0
M  V30 5248 H 507.195 0.0107692 -4.25299 0
M  V30 5249 N 505.51 1.54411 -0.315457 0
M  V30 5250 C 506.44 2.27002 0.547039 0
M  V30 5251 C 507.421 1.27492 1.12605 0
M  V30 5252 O 508.606 1.5629 1.15269 0
M  V30 5253 C 505.736 3.02171 1.71201 0
M  V30 5254 C 504.69 4.0895 1.26268 0
M  V30 5255 C 504.016 4.71915 2.51396 0
M  V30 5256 C 505.316 5.20891 0.383419 0
M  V30 5257 H 507.01 2.99343 -0.0584517 0
M  V30 5258 H 504.556 1.4397 -0.0295527 0
M  V30 5259 H 506.509 3.51681 2.32161 0
M  V30 5260 H 505.233 2.27433 2.34397 0
M  V30 5261 H 503.892 3.60312 0.676062 0
M  V30 5262 H 503.54 3.93801 3.12937 0
M  V30 5263 H 503.24 5.44039 2.22026 0
M  V30 5264 H 504.764 5.24195 3.13133 0
M  V30 5265 H 506.178 5.66206 0.899082 0
M  V30 5266 H 504.575 5.99821 0.182857 0
M  V30 5267 H 505.645 4.81324 -0.587821 0
M  V30 5268 N 506.988 0.0434614 1.5754 0
M  V30 5269 C 507.918 -0.931651 2.14109 0
M  V30 5270 C 508.899 -1.32971 1.06079 0
M  V30 5271 O 510.084 -1.40579 1.33982 0
M  V30 5272 C 507.214 -2.20914 2.67982 0
M  V30 5273 C 506.168 -1.95139 3.80926 0
M  V30 5274 C 505.494 -3.29276 4.21285 0
M  V30 5275 C 506.794 -1.27913 5.06395 0
M  V30 5276 H 508.488 -0.460497 2.95837 0
M  V30 5277 H 506.034 -0.220058 1.42309 0
M  V30 5278 H 507.987 -2.89522 3.06194 0
M  V30 5279 H 506.711 -2.70221 1.83434 0
M  V30 5280 H 505.37 -1.28945 3.43175 0
M  V30 5281 H 505.018 -3.76369 3.33699 0
M  V30 5282 H 504.718 -3.12831 4.97404 0
M  V30 5283 H 506.242 -3.99129 4.62091 0
M  V30 5284 H 507.656 -1.86544 5.42102 0
M  V30 5285 H 506.053 -1.2182 5.87605 0
M  V30 5286 H 507.123 -0.254066 4.84234 0
M  V30 5287 N 508.466 -1.55915 -0.229846 0
M  V30 5288 C 509.413 -1.91734 -1.28478 0
M  V30 5289 C 510.383 -0.773539 -1.46988 0
M  V30 5290 O 511.568 -1.02871 -1.60693 0
M  V30 5291 C 508.708 -2.23224 -2.63182 0
M  V30 5292 C 507.821 -3.50497 -2.52539 0
M  V30 5293 C 506.956 -3.71474 -3.79711 0
M  V30 5294 C 505.995 -4.92289 -3.63755 0
M  V30 5295 N 505.132 -5.09698 -4.82858 0
M  V30 5296 H 509.972 -2.81692 -0.972308 0
M  V30 5297 H 507.509 -1.39429 -0.468815 0
M  V30 5298 H 509.467 -2.3949 -3.41614 0
M  V30 5299 H 508.097 -1.36451 -2.92542 0
M  V30 5300 H 507.149 -3.4247 -1.65585 0
M  V30 5301 H 508.461 -4.39079 -2.36666 0
M  V30 5302 H 507.615 -3.87791 -4.66586 0
M  V30 5303 H 506.354 -2.81157 -3.985 0
M  V30 5304 H 505.359 -4.7593 -2.75264 0
M  V30 5305 H 506.584 -5.84083 -3.46445 0
M  V30 5306 H 504.53 -4.22322 -5.01976 0
M  V30 5307 H 504.447 -5.92399 -4.69681 0
M  V30 5308 H 505.715 -5.30443 -5.71183 0
M  V30 5309 N 509.944 0.496216 -1.49584 0
M  V30 5310 C 511.355 1.07765 -1.52459 0
M  V30 5311 C 511.706 1.93679 -0.31353 0
M  V30 5312 O 510.831 2.08588 0.576186 0
M  V30 5313 C 511.426 1.96111 -2.76271 0
M  V30 5314 C 509.985 2.49409 -2.81908 0
M  V30 5315 C 509.132 1.27142 -2.46435 0
M  V30 5316 H 512.083 0.279914 -1.56212 0
M  V30 5317 H 512.104 2.80862 -2.56704 0
M  V30 5318 H 511.616 1.33555 -3.64396 0
M  V30 5319 H 509.717 3.1559 -1.98074 0
M  V30 5320 H 509.83 2.86234 -3.84196 0
M  V30 5321 H 508.194 1.59818 -1.98319 0
M  V30 5322 H 508.977 0.662866 -3.3684 0
M  V30 5323 N 511.423 1.38739 0.74761 0
M  V30 5324 C 512.671 1.35007 1.50391 0
M  V30 5325 C 512.992 -0.0574274 1.94915 0
M  V30 5326 O 512.262 -1.00628 1.6808 0
M  V30 5327 H 510.842 0.496784 0.557866 0
M  V30 5328 H 513.504 1.73479 0.888319 0
M  V30 5329 H 512.6 2.00474 2.392 0
M  V30 5330 N 512.901 -0.976442 1.23707 0
M  V30 5331 C 513.831 -2.08749 1.04624 0
M  V30 5332 C 514.812 -1.70057 -0.0380956 0
M  V30 5333 O 515.997 -1.93782 0.127308 0
M  V30 5334 C 513.127 -3.41335 0.640902 0
M  V30 5335 C 512.081 -3.93947 1.67302 0
M  V30 5336 C 511.407 -5.22774 1.12301 0
M  V30 5337 C 512.707 -4.22769 3.06697 0
M  V30 5338 H 514.401 -2.24972 1.97555 0
M  V30 5339 H 511.947 -1.08108 0.951247 0
M  V30 5340 H 513.9 -4.18489 0.494434 0
M  V30 5341 H 512.624 -3.24988 -0.324099 0
M  V30 5342 H 511.283 -3.18941 1.80755 0
M  V30 5343 H 510.931 -5.0278 0.148877 0
M  V30 5344 H 510.631 -5.58942 1.81267 0
M  V30 5345 H 512.155 -6.02546 0.988479 0
M  V30 5346 H 513.569 -4.90659 2.96524 0
M  V30 5347 H 511.966 -4.70147 3.72937 0
M  V30 5348 H 513.036 -3.29885 3.55392 0
M  V30 5349 N 514.379 -1.04941 -1.1758 0
M  V30 5350 C 515.289 -0.658826 -2.25159 0
M  V30 5351 C 516.305 0.318941 -1.71052 0
M  V30 5352 O 517.481 0.171669 -2.00667 0
M  V30 5353 C 514.546 -0.0369522 -3.4668 0
M  V30 5354 C 513.607 -1.06484 -4.15884 0
M  V30 5355 C 512.84 -0.472551 -5.31604 0
M  V30 5356 O 513.063 0.718736 -5.65854 0
M  V30 5357 O 511.997 -1.20557 -5.89703 0
M  V30 5358 H 515.823 -1.55533 -2.60851 0
M  V30 5359 H 513.408 -0.820819 -1.24832 0
M  V30 5360 H 515.29 0.308784 -4.20267 0
M  V30 5361 H 513.965 0.833238 -3.12792 0
M  V30 5362 H 512.872 -1.46253 -3.44327 0
M  V30 5363 H 514.205 -1.9061 -4.53794 0
M  V30 5364 N 515.857 1.33968 -0.830081 0
M  V30 5365 C 516.789 2.28194 -0.21448 0
M  V30 5366 C 517.802 1.5135 0.599752 0
M  V30 5367 O 518.991 1.73286 0.42826 0
M  V30 5368 C 516.091 3.31221 0.717356 0
M  V30 5369 C 515.264 4.37365 -0.055613 0
M  V30 5370 C 514.323 5.2011 0.798231 0
M  V30 5371 O 513.349 5.68691 0.240616 0
M  V30 5372 N 514.551 5.40523 2.11695 0
M  V30 5373 H 517.316 2.81662 -1.02405 0
M  V30 5374 H 514.877 1.46568 -0.687713 0
M  V30 5375 H 516.869 3.83477 1.29334 0
M  V30 5376 H 515.439 2.78095 1.42765 0
M  V30 5377 H 514.659 3.85727 -0.812936 0
M  V30 5378 H 515.947 5.05397 -0.587444 0
M  V30 5379 H 515.345 5.0274 2.59363 0
M  V30 5380 H 513.902 5.95871 2.64162 0
M  V30 5381 N 517.335 0.585699 1.46312 0
M  V30 5382 C 518.746 0.159938 1.86014 0
M  V30 5383 C 519.097 -1.27775 1.48889 0
M  V30 5384 O 518.222 -1.96559 0.90519 0
M  V30 5385 C 518.817 0.283485 3.37612 0
M  V30 5386 C 517.376 -0.0874256 3.76298 0
M  V30 5387 C 516.523 0.618055 2.70325 0
M  V30 5388 H 519.474 0.793737 1.37425 0
M  V30 5389 H 519.495 -0.490348 3.77327 0
M  V30 5390 H 519.007 1.32995 3.64601 0
M  V30 5391 H 517.108 -1.13391 3.54927 0
M  V30 5392 H 517.221 0.290975 4.78216 0
M  V30 5393 H 515.585 0.057993 2.54634 0
M  V30 5394 H 516.368 1.66623 3.00153 0
M  V30 5395 N 518.813 -1.54241 0.323641 0
M  V30 5396 C 519.723 -2.28033 -0.551205 0
M  V30 5397 C 520.739 -1.32388 -1.12913 0
M  V30 5398 O 521.915 -1.65403 -1.14908 0
M  V30 5399 C 518.98 -3.02382 -1.69606 0
M  V30 5400 C 518.041 -4.13612 -1.14993 0
M  V30 5401 C 517.274 -4.84407 -2.24022 0
M  V30 5402 O 517.497 -4.54716 -3.44368 0
M  V30 5403 O 516.431 -5.71312 -1.89436 0
M  V30 5404 H 520.257 -3.03662 0.048066 0
M  V30 5405 H 517.842 -1.49133 0.0893289 0
M  V30 5406 H 519.724 -3.48941 -2.36259 0
M  V30 5407 H 518.399 -2.29628 -2.28151 0
M  V30 5408 H 517.306 -3.71402 -0.448484 0
M  V30 5409 H 518.639 -4.8841 -0.609608 0
M  V30 5410 N 520.291 -0.0518155 -1.57515 0
M  V30 5411 C 521.537 0.622745 -1.93002 0
M  V30 5412 C 521.87 1.70456 -0.930499 0
M  V30 5413 O 521.145 1.94452 0.0434086 0
M  V30 5414 C 521.428 1.21824 -3.38867 0
M  V30 5415 C 521.281 0.144434 -4.49568 0
M  V30 5416 C 522.6 2.12968 -3.8514 0
M  V30 5417 H 519.719 0.22491 -0.701844 0
M  V30 5418 H 522.361 -0.113711 -1.89659 0
M  V30 5419 H 520.511 1.8459 -3.41846 0
M  V30 5420 H 522.183 -0.48753 -4.58717 0
M  V30 5421 H 520.426 -0.527424 -4.30582 0
M  V30 5422 H 521.097 0.601127 -5.48717 0
M  V30 5423 H 523.573 1.60163 -3.8404 0
M  V30 5424 H 522.449 2.51578 -4.87852 0
M  V30 5425 H 522.71 3.03004 -3.21934 0
M  V30 5426 N 521.769 1.56035 0.221574 0
M  V30 5427 C 522.679 1.95581 1.29558 0
M  V30 5428 C 523.695 0.859639 1.51282 0
M  V30 5429 O 524.871 1.16321 1.64413 0
M  V30 5430 C 521.936 2.26447 2.62531 0
M  V30 5431 C 520.997 3.49632 2.4911 0
M  V30 5432 C 520.23 3.79017 3.75742 0
M  V30 5433 O 520.453 3.10077 4.78757 0
M  V30 5434 O 519.387 4.72507 3.72855 0
M  V30 5435 H 523.213 2.8711 0.990035 0
M  V30 5436 H 520.798 1.43244 0.424434 0
M  V30 5437 H 522.68 2.47494 3.41064 0
M  V30 5438 H 521.355 1.38092 2.92766 0
M  V30 5439 H 520.262 3.33864 1.68777 0
M  V30 5440 H 521.595 4.3837 2.23814 0
M  V30 5441 N 523.247 -0.488276 1.49845 0
M  V30 5442 C 524.21 -1.57069 1.66919 0
M  V30 5443 C 525.21 -1.51445 0.540479 0
M  V30 5444 O 526.4 -1.5437 0.807188 0
M  V30 5445 C 523.532 -2.96718 1.67844 0
M  V30 5446 H 524.725 -1.43254 2.63474 0
M  V30 5447 H 522.278 -0.713435 1.39068 0
M  V30 5448 H 523.013 -3.15996 0.7292 0
M  V30 5449 H 522.798 -3.02208 2.49826 0
M  V30 5450 H 524.288 -3.75335 1.83066 0
M  V30 5451 N 524.725 -1.39134 -0.740242 0
M  V30 5452 C 525.953 -1.39334 -1.5295 0
M  V30 5453 C 526.368 0.0135008 -1.88795 0
M  V30 5454 O 525.725 0.983524 -1.5373 0
M  V30 5455 C 525.776 -2.2614 -2.82034 0
M  V30 5456 O 525.497 -3.61345 -2.47712 0
M  V30 5457 C 526.998 -2.34666 -3.76094 0
M  V30 5458 H 524.218 -0.476103 -0.472828 0
M  V30 5459 H 526.762 -1.82883 -0.9151 0
M  V30 5460 H 524.917 -1.86018 -3.39818 0
M  V30 5461 H 525.331 -4.07194 -3.30595 0
M  V30 5462 H 526.805 -2.99663 -4.63579 0
M  V30 5463 H 527.282 -1.36426 -4.17474 0
M  V30 5464 H 527.888 -2.75236 -3.2423 0
M  V30 5465 N 526.204 0.969867 -1.24223 0
M  V30 5466 C 527.151 2.06407 -1.0327 0
M  V30 5467 C 528.121 1.66014 0.0533 0
M  V30 5468 O 529.306 1.90533 -0.100896 0
M  V30 5469 C 526.446 3.3909 -0.641262 0
M  V30 5470 C 525.559 3.9269 -1.80051 0
M  V30 5471 C 524.694 5.13631 -1.35486 0
M  V30 5472 C 523.733 5.59423 -2.48419 0
M  V30 5473 N 522.87 6.71586 -2.04737 0
M  V30 5474 H 527.71 2.23663 -1.96923 0
M  V30 5475 H 525.247 1.09624 -0.980862 0
M  V30 5476 H 527.205 4.15323 -0.395351 0
M  V30 5477 H 525.835 3.21765 0.258269 0
M  V30 5478 H 524.887 3.13116 -2.16014 0
M  V30 5479 H 526.199 4.22636 -2.64916 0
M  V30 5480 H 525.353 5.97231 -1.0677 0
M  V30 5481 H 524.092 4.85364 -0.476722 0
M  V30 5482 H 523.097 4.74398 -2.77897 0
M  V30 5483 H 524.322 5.89705 -3.36786 0
M  V30 5484 H 522.268 6.45058 -1.19318 0
M  V30 5485 H 522.185 7.0097 -2.83156 0
M  V30 5486 H 523.453 7.58633 -1.79154 0
M  V30 5487 N 527.682 1.05563 1.17022 0
M  V30 5488 C 528.614 0.617888 2.20714 0
M  V30 5489 C 529.627 -0.320303 1.59618 0
M  V30 5490 O 530.816 -0.112449 1.78145 0
M  V30 5491 C 527.916 -0.115333 3.38704 0
M  V30 5492 C 527.089 0.834493 4.29366 0
M  V30 5493 C 526.148 0.141855 5.26009 0
M  V30 5494 O 525.174 0.777151 5.6387 0
M  V30 5495 N 526.376 -1.11934 5.69606 0
M  V30 5496 H 529.141 1.50981 2.58892 0
M  V30 5497 H 526.702 0.938008 1.31958 0
M  V30 5498 H 528.694 -0.588918 4.00392 0
M  V30 5499 H 527.264 -0.908967 2.99093 0
M  V30 5500 H 526.484 1.48762 3.65053 0
M  V30 5501 H 527.772 1.4791 4.86827 0
M  V30 5502 H 527.17 -1.65574 5.40927 0
M  V30 5503 H 525.727 -1.53692 6.33421 0
M  V30 5504 N 529.16 -1.33526 0.837174 0
M  V30 5505 C 530.123 -2.27551 0.274421 0
M  V30 5506 C 531.123 -1.50886 -0.555881 0
M  V30 5507 O 532.313 -1.70227 -0.369918 0
M  V30 5508 C 529.445 -3.35332 -0.613605 0
M  V30 5509 H 530.638 -2.78837 1.10408 0
M  V30 5510 H 528.191 -1.439 0.610126 0
M  V30 5511 H 528.926 -2.89285 -1.46577 0
M  V30 5512 H 528.711 -3.92095 -0.0195341 0
M  V30 5513 H 530.201 -4.05433 -1.00068 0
M  V30 5514 N 530.638 -0.59345 -1.46 0
M  V30 5515 C 531.568 0.121192 -2.33185 0
M  V30 5516 C 532.549 0.872977 -1.4599 0
M  V30 5517 O 533.734 0.846321 -1.74789 0
M  V30 5518 C 530.864 1.12844 -3.28456 0
M  V30 5519 C 529.818 0.4908 -4.25177 0
M  V30 5520 C 529.144 1.60529 -5.10034 0
M  V30 5521 C 530.444 -0.578949 -5.19081 0
M  V30 5522 H 532.138 -0.606767 -2.93187 0
M  V30 5523 H 529.684 -0.293242 -1.40983 0
M  V30 5524 H 531.637 1.63684 -3.88311 0
M  V30 5525 H 530.361 1.88681 -2.66584 0
M  V30 5526 H 529.02 0.00339328 -3.666 0
M  V30 5527 H 528.668 2.35359 -4.44539 0
M  V30 5528 H 528.368 1.18422 -5.75543 0
M  V30 5529 H 529.892 2.11623 -5.72755 0
M  V30 5530 H 531.306 -0.155199 -5.7309 0
M  V30 5531 H 529.703 -0.920947 -5.92991 0
M  V30 5532 H 530.773 -1.46109 -4.62364 0
M  V30 5533 N 532.116 1.54067 -0.331816 0
M  V30 5534 C 533.344 2.05131 0.269996 0
M  V30 5535 C 533.759 1.20749 1.45138 0
M  V30 5536 O 533.116 0.240069 1.80914 0
M  V30 5537 C 533.167 3.54728 0.696456 0
M  V30 5538 O 532.888 4.35906 -0.43794 0
M  V30 5539 C 534.389 4.21916 1.36021 0
M  V30 5540 H 531.609 0.668807 0.0542042 0
M  V30 5541 H 534.153 1.98777 -0.4804 0
M  V30 5542 H 532.308 3.61342 1.39681 0
M  V30 5543 H 532.722 5.24404 -0.100334 0
M  V30 5544 H 534.196 5.28015 1.60947 0
M  V30 5545 H 534.673 3.73538 2.31011 0
M  V30 5546 H 535.279 4.19463 0.702212 0
M  V30 5547 N 533.594 0.0601682 1.57485 0
M  V30 5548 C 534.819 -0.624416 1.97777 0
M  V30 5549 C 535.244 -1.63051 0.937867 0
M  V30 5550 O 534.602 -1.81036 -0.0978845 0
M  V30 5551 C 534.65 -1.27979 3.37126 0
M  V30 5552 O 533.754 -2.39556 3.35688 0
M  V30 5553 H 533.095 -0.161581 0.64404 0
M  V30 5554 H 535.625 0.131237 2.04179 0
M  V30 5555 H 535.635 -1.62937 3.74053 0
M  V30 5556 H 534.31 -0.542501 4.12347 0
M  V30 5557 H 532.887 -2.06478 3.10517 0
M  V30 5558 N 535.072 -1.5615 -0.213296 0
M  V30 5559 C 536.312 -1.81325 -0.943435 0
M  V30 5560 C 536.676 -0.634934 -1.81198 0
M  V30 5561 O 537.877 -0.766166 -2.5765 0
M  V30 5562 C 536.148 -3.11437 -1.75334 0
M  V30 5563 S 537.707 -3.57955 -2.53799 0
M  V30 5564 H 534.525 -0.636538 -0.316766 0
M  V30 5565 H 537.127 -1.94387 -0.208313 0
M  V30 5566 H 535.831 -3.95228 -1.10556 0
M  V30 5567 H 535.362 -3.01204 -2.53061 0
M  V30 5568 H 537.377 -3.21947 -3.77577 0
M  V30 5569 N 536.55 0.480323 -1.50102 0
M  V30 5570 C 537.798 1.23063 -1.60312 0
M  V30 5571 C 538.119 1.92659 -0.301226 0
M  V30 5572 O 537.389 1.83691 0.680753 0
M  V30 5573 H 535.969 0.457231 -0.590719 0
M  V30 5574 H 538.631 0.554893 -1.86834 0
M  V30 5575 H 537.727 1.9835 -2.40964 0
M  V30 5576 N 538.028 1.39524 0.732853 0
M  V30 5577 C 539.275 1.36865 1.49246 0
M  V30 5578 C 539.603 -0.0347118 1.94469 0
M  V30 5579 O 538.858 -1.01596 1.67262 0
M  V30 5580 C 539.157 2.28916 2.74468 0
M  V30 5581 C 538.823 3.76506 2.481 0
M  V30 5582 C 537.485 4.16721 2.40619 0
M  V30 5583 C 539.837 4.69846 2.25598 0
M  V30 5584 C 537.165 5.48334 2.08679 0
M  V30 5585 C 539.517 6.01739 1.95174 0
M  V30 5586 C 538.181 6.41015 1.86163 0
M  V30 5587 H 537.451 0.500824 0.546129 0
M  V30 5588 H 540.098 1.72047 0.840958 0
M  V30 5589 H 538.403 1.86859 3.4437 0
M  V30 5590 H 540.1 2.2415 3.32502 0
M  V30 5591 H 536.69 3.44635 2.54803 0
M  V30 5592 H 540.874 4.39608 2.30344 0
M  V30 5593 H 536.13 5.77685 2.00226 0
M  V30 5594 H 540.304 6.73591 1.76771 0
M  V30 5595 H 537.931 7.42917 1.61179 0
M  V30 5596 N 539.506 -0.963266 1.24736 0
M  V30 5597 C 540.783 -1.68248 0.9976 0
M  V30 5598 C 541.163 -2.05599 -0.478776 0
M  V30 5599 O 540.511 -1.7626 -1.45412 0
M  V30 5600 C 540.721 -2.91118 1.92487 0
M  V30 5601 C 542.069 -3.63261 2.19833 0
M  V30 5602 O 543.093 -3.01184 1.90176 0
M  V30 5603 O 541.952 -4.75019 2.7022 0
M  V30 5604 H 539.046 -0.735744 0.377637 0
M  V30 5605 H 541.592 -1.01696 1.35853 0
M  V30 5606 H 540.364 -2.60242 2.92215 0
M  V30 5607 H 539.987 -3.65402 1.56738 0
M  V30 5608 N 540.985 -1.06182 -1.16461 0
M  V30 5609 C 542.225 -0.787048 -1.8864 0
M  V30 5610 C 542.589 0.674093 -1.79778 0
M  V30 5611 O 543.79 1.06341 -2.46871 0
M  V30 5612 C 542.061 -1.2666 -3.34203 0
M  V30 5613 S 543.62 -1.12071 -4.24247 0
M  V30 5614 H 540.438 -0.285539 -0.651144 0
M  V30 5615 H 543.04 -1.35851 -1.40587 0
M  V30 5616 H 541.744 -2.32496 -3.38192 0
M  V30 5617 H 541.275 -0.689841 -3.87304 0
M  V30 5618 H 543.29 -0.0509341 -4.96174 0
M  V30 5619 N 542.463 1.3308 -0.844243 0
M  V30 5620 C 543.393 2.3161 -0.296493 0
M  V30 5621 C 544.374 1.59215 0.598707 0
M  V30 5622 O 545.559 1.87077 0.521134 0
M  V30 5623 C 542.689 3.43313 0.524762 0
M  V30 5624 C 541.643 4.27115 -0.275106 0
M  V30 5625 C 540.969 5.30483 0.670236 0
M  V30 5626 C 542.269 5.00443 -1.49514 0
M  V30 5627 H 543.963 2.77672 -1.11976 0
M  V30 5628 H 541.509 1.33496 -0.539899 0
M  V30 5629 H 543.462 4.11273 0.918298 0
M  V30 5630 H 542.186 2.95952 1.3813 0
M  V30 5631 H 540.845 3.60787 -0.650267 0
M  V30 5632 H 540.493 4.79379 1.52332 0
M  V30 5633 H 540.193 5.87435 0.139123 0
M  V30 5634 H 541.717 6.01308 1.06117 0
M  V30 5635 H 543.131 5.61141 -1.17447 0
M  V30 5636 H 541.528 5.67071 -1.96343 0
M  V30 5637 H 542.598 4.28906 -2.26202 0
M  V30 5638 N 543.941 0.601185 1.45683 0
M  V30 5639 C 544.851 -0.123395 2.34275 0
M  V30 5640 C 545.867 -0.86702 1.5086 0
M  V30 5641 O 547.043 -0.826049 1.8368 0
M  V30 5642 C 544.108 -1.11237 3.2837 0
M  V30 5643 C 543.169 -0.371405 4.2769 0
M  V30 5644 C 542.402 -1.31327 5.1729 0
M  V30 5645 O 542.625 -2.55078 5.10188 0
M  V30 5646 O 541.559 -0.813811 5.96373 0
M  V30 5647 H 545.385 0.604483 2.97623 0
M  V30 5648 H 542.97 0.361477 1.44961 0
M  V30 5649 H 544.852 -1.68214 3.8637 0
M  V30 5650 H 543.527 -1.82139 2.67595 0
M  V30 5651 H 542.434 0.24067 3.73325 0
M  V30 5652 H 543.767 0.296998 4.91303 0
M  V30 5653 N 545.419 -1.53889 0.339982 0
M  V30 5654 C 546.647 -2.05271 -0.259114 0
M  V30 5655 C 547.062 -1.21517 -1.44496 0
M  V30 5656 O 546.419 -0.24966 -1.80784 0
M  V30 5657 C 546.47 -3.55092 -0.677634 0
M  V30 5658 O 546.191 -4.35667 0.461051 0
M  V30 5659 C 547.692 -4.22631 -1.33782 0
M  V30 5660 H 544.912 -0.669085 -0.0506566 0
M  V30 5661 H 547.456 -1.9852 0.490935 0
M  V30 5662 H 545.611 -3.62077 -1.37763 0
M  V30 5663 H 546.025 -5.24343 0.128144 0
M  V30 5664 H 547.499 -5.28861 -1.58145 0
M  V30 5665 H 547.976 -3.74758 -2.29027 0
M  V30 5666 H 548.582 -4.19829 -0.679957 0
M  V30 5667 N 546.897 -0.0685191 -1.57451 0
M  V30 5668 C 548.122 0.613919 -1.98106 0
M  V30 5669 C 548.547 1.62551 -0.946501 0
M  V30 5670 O 547.905 1.81085 0.0882824 0
M  V30 5671 C 547.953 1.26189 -3.378 0
M  V30 5672 O 547.057 2.37773 -3.36954 0
M  V30 5673 H 546.398 0.158163 -0.644888 0
M  V30 5674 H 548.928 -0.142063 -2.04106 0
M  V30 5675 H 548.938 1.60951 -3.74912 0
M  V30 5676 H 547.613 0.520625 -4.12629 0
M  V30 5677 H 546.19 2.04829 -3.11608 0
M  V30 5678 N 548.375 1.56261 0.205012 0
M  V30 5679 C 549.624 1.79236 0.925058 0
M  V30 5680 C 549.937 0.640011 1.84833 0
M  V30 5681 O 551.143 0.753809 2.60826 0
M  V30 5682 C 549.599 3.17475 1.69522 0
M  V30 5683 C 549.207 4.40482 0.817269 0
M  V30 5684 C 550.951 3.49766 2.4055 0
M  V30 5685 C 548.858 5.69744 1.58573 0
M  V30 5686 H 547.788 0.668287 0.349153 0
M  V30 5687 H 550.439 1.82629 0.178544 0
M  V30 5688 H 548.821 3.08304 2.48526 0
M  V30 5689 H 549.995 4.60752 0.0665988 0
M  V30 5690 H 548.31 4.15827 0.218316 0
M  V30 5691 H 550.907 4.43573 2.98575 0
M  V30 5692 H 551.25 2.73041 3.14252 0
M  V30 5693 H 551.783 3.60341 1.68522 0
M  V30 5694 H 548.522 6.49407 0.891679 0
M  V30 5695 H 548.042 5.53509 2.31059 0
M  V30 5696 H 549.721 6.1051 2.14212 0
M  V30 5697 N 549.853 -0.472356 1.50355 0
M  V30 5698 C 551.101 -1.22211 1.60962 0
M  V30 5699 C 551.422 -1.92497 0.311439 0
M  V30 5700 O 550.692 -1.8405 -0.671002 0
M  V30 5701 H 549.272 -0.454092 0.593135 0
M  V30 5702 H 551.934 -0.544977 1.87126 0
M  V30 5703 H 551.03 -1.9707 2.42012 0
M  V30 5704 N 551.331 -1.39911 -0.725443 0
M  V30 5705 C 552.294 -1.39156 -1.82121 0
M  V30 5706 C 553.294 -0.287018 -1.58218 0
M  V30 5707 O 554.484 -0.545421 -1.65441 0
M  V30 5708 C 551.616 -1.1736 -3.20062 0
M  V30 5709 H 552.809 -2.36672 -1.84191 0
M  V30 5710 H 550.362 -1.25615 -0.930079 0
M  V30 5711 H 551.097 -0.205648 -3.23647 0
M  V30 5712 H 550.882 -1.97358 -3.3881 0
M  V30 5713 H 552.372 -1.19596 -4.00108 0
M  V30 5714 N 552.809 0.956637 -1.25245 0
M  V30 5715 C 554.22 1.51569 -1.09012 0
M  V30 5716 C 554.571 1.93322 0.334813 0
M  V30 5717 O 553.696 1.78421 1.22454 0
M  V30 5718 C 554.291 2.75444 -1.97271 0
M  V30 5719 C 552.85 3.27669 -1.8523 0
M  V30 5720 C 551.997 2.00517 -1.91542 0
M  V30 5721 H 554.948 0.773746 -1.3856 0
M  V30 5722 H 554.969 3.4919 -1.51151 0
M  V30 5723 H 554.481 2.45024 -3.00973 0
M  V30 5724 H 552.582 3.62914 -0.844045 0
M  V30 5725 H 552.695 3.9582 -2.69932 0
M  V30 5726 H 551.059 2.15727 -1.35404 0
M  V30 5727 H 551.842 1.72448 -2.96844 0
M  V30 5728 N 554.287 1.06798 1.15896 0
M  V30 5729 C 555.535 0.786211 1.8618 0
M  V30 5730 C 555.856 -0.689547 1.82401 0
M  V30 5731 O 555.126 -1.49913 1.26107 0
M  V30 5732 H 553.706 0.287843 0.689315 0
M  V30 5733 H 556.368 1.35055 1.40521 0
M  V30 5734 H 555.464 1.1157 2.91477 0
M  V30 5735 N 555.766 -1.3263 0.851289 0
M  V30 5736 C 557.012 -1.9766 0.453694 0
M  V30 5737 C 557.345 -1.67225 -0.987396 0
M  V30 5738 O 556.62 -0.958693 -1.69232 0
M  V30 5739 C 556.903 -3.5344 0.68936 0
M  V30 5740 C 556.756 -3.93517 2.17862 0
M  V30 5741 C 558.075 -4.39866 0.143555 0
M  V30 5742 H 555.194 -0.717989 0.166314 0
M  V30 5743 H 557.836 -1.57068 1.06909 0
M  V30 5744 H 555.986 -3.88147 0.165546 0
M  V30 5745 H 557.658 -3.69006 2.76826 0
M  V30 5746 H 555.901 -3.42798 2.65841 0
M  V30 5747 H 556.572 -5.02065 2.29422 0
M  V30 5748 H 559.048 -4.11875 0.591451 0
M  V30 5749 H 557.924 -5.47858 0.338043 0
M  V30 5750 H 558.185 -4.31696 -0.953466 0
M  V30 5751 N 557.244 -0.608902 -1.45362 0
M  V30 5752 C 558.469 -0.10921 -2.07112 0
M  V30 5753 C 558.894 1.19779 -1.45033 0
M  V30 5754 O 558.252 1.72961 -0.543527 0
M  V30 5755 C 558.3 0.0155745 -3.60597 0
M  V30 5756 O 557.404 1.06546 -3.98399 0
M  V30 5757 H 556.745 -0.0746619 -0.659789 0
M  V30 5758 H 559.275 -0.839283 -1.86594 0
M  V30 5759 H 559.285 0.213364 -4.07442 0
M  V30 5760 H 557.96 -0.938765 -4.05167 0
M  V30 5761 H 556.537 0.844024 -3.63223 0
M  V30 5762 N 558.722 1.53707 -0.348139 0
M  V30 5763 C 559.971 2.0017 0.247992 0
M  V30 5764 C 560.284 1.23983 1.51286 0
M  V30 5765 O 561.49 1.60946 2.18652 0
M  V30 5766 C 559.946 3.56515 0.492459 0
M  V30 5767 C 559.554 4.41562 -0.756777 0
M  V30 5768 C 561.298 4.11381 1.0472 0
M  V30 5769 C 559.205 5.89426 -0.482856 0
M  V30 5770 H 558.135 0.747806 0.0964452 0
M  V30 5771 H 560.786 1.77532 -0.464179 0
M  V30 5772 H 559.168 3.75236 1.26545 0
M  V30 5773 H 560.342 4.34615 -1.53122 0
M  V30 5774 H 558.657 3.97711 -1.23348 0
M  V30 5775 H 561.254 5.19468 1.26717 0
M  V30 5776 H 561.597 3.64885 2.00411 0
M  V30 5777 H 562.13 3.96389 0.334801 0
M  V30 5778 H 558.869 6.40164 -1.40962 0
M  V30 5779 H 558.389 5.99264 0.253416 0
M  V30 5780 H 560.068 6.4692 -0.101816 0
M  V30 5781 N 560.2 0.0768682 1.57412 0
M  V30 5782 C 561.15 -0.898795 2.09537 0
M  V30 5783 C 562.134 -1.25556 1.0062 0
M  V30 5784 O 563.326 -1.23369 1.26921 0
M  V30 5785 C 560.455 -2.16453 2.66464 0
M  V30 5786 C 559.541 -1.83401 3.82393 0
M  V30 5787 N 559.932 -1.20823 4.91157 0
M  V30 5788 C 558.23 -2.13121 3.91785 0
M  V30 5789 C 558.931 -1.05976 5.71965 0
M  V30 5790 N 557.907 -1.57113 5.204 0
M  V30 5791 H 561.709 -0.410718 2.91016 0
M  V30 5792 H 559.223 -0.126878 1.61904 0
M  V30 5793 H 561.22 -2.87274 3.02125 0
M  V30 5794 H 559.88 -2.65844 1.86433 0
M  V30 5795 H 560.891 -0.877249 5.10416 0
M  V30 5796 H 557.568 -2.64854 3.22736 0
M  V30 5797 H 558.958 -0.571809 6.69462 0
M  V30 5798 N 561.678 -1.56367 -0.196722 0
M  V30 5799 C 562.903 -1.84991 -0.937714 0
M  V30 5800 C 563.328 -0.660244 -1.76132 0
M  V30 5801 O 562.686 0.390967 -1.77034 0
M  V30 5802 C 562.734 -3.11828 -1.81096 0
M  V30 5803 O 561.838 -2.92266 -2.90955 0
M  V30 5804 H 561.179 -0.609193 -0.264159 0
M  V30 5805 H 563.709 -2.03595 -0.202529 0
M  V30 5806 H 563.719 -3.42579 -2.21594 0
M  V30 5807 H 562.394 -3.98037 -1.2058 0
M  V30 5808 H 560.971 -2.72809 -2.54224 0
M  V30 5809 N 563.156 0.464375 -1.50603 0
M  V30 5810 C 564.119 1.54393 -1.69397 0
M  V30 5811 C 565.119 1.50566 -0.564504 0
M  V30 5812 O 566.309 1.53066 -0.831645 0
M  V30 5813 C 563.441 2.9401 -1.72543 0
M  V30 5814 H 564.634 1.39044 -2.65719 0
M  V30 5815 H 562.187 0.69122 -1.40185 0
M  V30 5816 H 562.922 3.14795 -0.77938 0
M  V30 5817 H 562.707 2.98195 -2.54602 0
M  V30 5818 H 564.197 3.72375 -1.89015 0
M  V30 5819 N 564.634 1.40294 0.718013 0
M  V30 5820 C 565.862 1.4175 1.50714 0
M  V30 5821 C 566.277 0.0165366 1.88793 0
M  V30 5822 O 565.634 -0.958942 1.55276 0
M  V30 5823 C 565.685 2.30598 2.784 0
M  V30 5824 O 565.406 3.6524 2.41932 0
M  V30 5825 C 566.907 2.4062 3.72313 0
M  V30 5826 H 564.127 0.483565 0.465194 0
M  V30 5827 H 566.671 1.84316 0.885889 0
M  V30 5828 H 564.826 1.91401 3.36815 0
M  V30 5829 H 565.24 4.12402 3.24076 0
M  V30 5830 H 566.714 3.07001 4.58753 0
M  V30 5831 H 567.191 1.4305 4.15251 0
M  V30 5832 H 567.797 2.80359 3.19811 0
M  V30 5833 N 566.112 -0.949982 1.2575 0
M  V30 5834 C 567.337 -1.73503 1.13628 0
M  V30 5835 C 567.762 -1.85601 -0.30559 0
M  V30 5836 O 567.12 -1.33984 -1.22139 0
M  V30 5837 C 567.168 -3.1243 1.80055 0
M  V30 5838 O 566.272 -3.97916 1.08336 0
M  V30 5839 H 565.613 -0.532665 0.396439 0
M  V30 5840 H 568.143 -1.19043 1.66403 0
M  V30 5841 H 568.153 -3.62866 1.86527 0
M  V30 5842 H 566.828 -3.02941 2.84956 0
M  V30 5843 H 565.405 -3.56375 1.09777 0
M  V30 5844 N 567.59 -1.07411 -1.15328 0
M  V30 5845 C 568.52 -0.716472 -2.22236 0
M  V30 5846 C 569.501 0.296373 -1.67498 0
M  V30 5847 O 570.686 0.168989 -1.93463 0
M  V30 5848 C 567.816 -0.114142 -3.47112 0
M  V30 5849 C 566.77 -1.05421 -4.14814 0
M  V30 5850 C 566.096 -0.314604 -5.33774 0
M  V30 5851 C 567.396 -2.38808 -4.64508 0
M  V30 5852 H 569.09 -1.61029 -2.52408 0
M  V30 5853 H 566.636 -0.775702 -1.21321 0
M  V30 5854 H 568.589 0.148001 -4.2114 0
M  V30 5855 H 567.313 0.814755 -3.16274 0
M  V30 5856 H 565.972 -1.30128 -3.42728 0
M  V30 5857 H 565.62 0.617772 -4.99192 0
M  V30 5858 H 565.32 -0.941209 -5.80013 0
M  V30 5859 H 566.844 -0.0602747 -6.1057 0
M  V30 5860 H 568.258 -2.18424 -5.3006 0
M  V30 5861 H 566.655 -2.97069 -5.21412 0
M  V30 5862 H 567.725 -3.01067 -3.80114 0
M  V30 5863 N 569.068 1.32177 -0.85831 0
M  V30 5864 C 570.345 1.91781 -0.384624 0
M  V30 5865 C 570.725 1.78171 1.13217 0
M  V30 5866 O 570.073 1.18209 1.95548 0
M  V30 5867 C 570.283 3.38414 -0.853047 0
M  V30 5868 C 571.631 4.15542 -0.872359 0
M  V30 5869 O 572.655 3.47148 -0.797926 0
M  V30 5870 O 571.514 5.37678 -0.978009 0
M  V30 5871 H 568.608 0.819259 -0.112886 0
M  V30 5872 H 571.154 1.40923 -0.945453 0
M  V30 5873 H 569.926 3.4228 -1.89632 0
M  V30 5874 H 569.549 3.96683 -0.269874 0
M  V30 5875 N 570.547 0.616602 1.45037 0
M  V30 5876 C 571.772 0.120192 2.07051 0
M  V30 5877 C 572.197 -1.19008 1.45666 0
M  V30 5878 O 571.555 -1.7267 0.552692 0
M  V30 5879 C 571.603 0.00354901 3.606 0
M  V30 5880 O 570.707 -1.04431 3.98958 0
M  V30 5881 H 570.048 0.0781599 0.659384 0
M  V30 5882 H 572.578 0.849167 1.86146 0
M  V30 5883 H 572.588 -0.191754 4.07549 0
M  V30 5884 H 571.263 0.960239 4.04663 0
M  V30 5885 H 569.84 -0.824749 3.63665 0
M  V30 5886 N 572.025 -1.5352 0.356285 0
M  V30 5887 C 573.441 -1.59599 0.00485267 0
M  V30 5888 C 573.641 -1.37179 -1.47595 0
M  V30 5889 O 572.697 -1.17234 -2.23635 0
M  V30 5890 C 574.01 -2.97277 0.452454 0
M  V30 5891 C 575.558 -3.10357 0.405881 0
M  V30 5892 C 576.033 -4.50432 0.829148 0
M  V30 5893 N 577.524 -4.5652 0.783838 0
M  V30 5894 C 578.259 -5.63077 1.08315 0
M  V30 5895 N 577.755 -6.77429 1.45126 0
M  V30 5896 N 579.548 -5.53014 1.00655 0
M  V30 5897 H 571.699 -1.66346 1.32071 0
M  V30 5898 H 573.962 -0.77971 0.539218 0
M  V30 5899 H 573.668 -3.18792 1.48542 0
M  V30 5900 H 573.542 -3.76836 -0.165762 0
M  V30 5901 H 575.929 -2.88558 -0.617934 0
M  V30 5902 H 576.01 -2.32828 1.05947 0
M  V30 5903 H 575.654 -4.72968 1.85103 0
M  V30 5904 H 575.584 -5.26378 0.152906 0
M  V30 5905 H 578.075 -3.74408 0.512513 0
M  V30 5906 H 578.388 -7.54669 1.66415 0
M  V30 5907 H 576.733 -6.78844 1.48983 0
M  V30 5908 H 579.924 -4.62557 0.718215 0
M  V30 5909 H 580.097 -6.35964 1.24315 0
M  V30 5910 N 573.503 -0.0852151 -1.57369 0
M  V30 5911 C 574.749 0.581666 -1.94279 0
M  V30 5912 C 575.082 1.68444 -0.966446 0
M  V30 5913 O 574.357 1.945 0.00215277 0
M  V30 5914 C 574.64 1.14609 -3.41375 0
M  V30 5915 C 574.493 0.0490414 -4.49773 0
M  V30 5916 C 575.812 2.04751 -3.8957 0
M  V30 5917 H 572.931 0.209972 -0.706456 0
M  V30 5918 H 575.573 -0.153915 -1.89376 0
M  V30 5919 H 573.723 1.77297 -3.45685 0
M  V30 5920 H 575.395 -0.584721 -4.57579 0
M  V30 5921 H 573.638 -0.618638 -4.29366 0
M  V30 5922 H 574.309 0.484601 -5.49869 0
M  V30 5923 H 576.785 1.51981 -3.87351 0
M  V30 5924 H 575.661 2.41173 -4.93079 0
M  V30 5925 H 575.922 2.96107 -3.28288 0
M  V30 5926 N 574.981 1.5647 0.188427 0
M  V30 5927 C 575.913 1.91611 1.25769 0
M  V30 5928 C 576.926 0.807436 1.41366 0
M  V30 5929 O 578.115 1.08586 1.41673 0
M  V30 5930 C 575.215 2.13874 2.6289 0
M  V30 5931 C 574.388 3.45047 2.68815 0
M  V30 5932 C 573.447 3.56342 3.87178 0
M  V30 5933 O 572.473 4.29109 3.73971 0
M  V30 5934 N 573.675 2.89924 5.02916 0
M  V30 5935 H 576.44 2.8393 0.959373 0
M  V30 5936 H 574.001 1.57418 0.378306 0
M  V30 5937 H 575.993 2.18713 3.4051 0
M  V30 5938 H 574.563 1.28022 2.85183 0
M  V30 5939 H 573.783 3.52017 1.77419 0
M  V30 5940 H 575.071 4.31395 2.6977 0
M  V30 5941 H 574.469 2.30644 5.16546 0
M  V30 5942 H 573.026 3.0038 5.78459 0
M  V30 5943 N 576.459 -0.456382 1.50847 0
M  V30 5944 C 577.391 -1.57033 1.66953 0
M  V30 5945 C 578.404 -1.53207 0.550593 0
M  V30 5946 O 579.593 -1.58328 0.824285 0
M  V30 5947 C 576.693 -2.95937 1.65149 0
M  V30 5948 C 575.866 -3.24475 2.93317 0
M  V30 5949 C 574.925 -4.43007 2.83957 0
M  V30 5950 O 573.951 -4.42592 3.57912 0
M  V30 5951 N 575.153 -5.45503 1.9851 0
M  V30 5952 H 577.918 -1.43629 2.63042 0
M  V30 5953 H 575.479 -0.645037 1.48495 0
M  V30 5954 H 577.471 -3.73224 1.56481 0
M  V30 5955 H 576.041 -3.03036 0.767343 0
M  V30 5956 H 575.261 -2.35664 3.16 0
M  V30 5957 H 576.549 -3.4036 3.78196 0
M  V30 5958 H 575.947 -5.48668 1.37766 0
M  V30 5959 H 574.504 -6.21716 1.95735 0
M  V30 5960 N 577.937 -1.40673 -0.710563 0
M  V30 5961 C 578.9 -1.4108 -1.80635 0
M  V30 5962 C 579.9 -0.303783 -1.57904 0
M  V30 5963 O 581.09 -0.562937 -1.64853 0
M  V30 5964 C 578.222 -1.20748 -3.18799 0
M  V30 5965 H 579.415 -2.38612 -1.81671 0
M  V30 5966 H 576.968 -1.26595 -0.916704 0
M  V30 5967 H 577.703 -0.239964 -3.23411 0
M  V30 5968 H 577.488 -2.00941 -3.36698 0
M  V30 5969 H 578.978 -1.23833 -3.98817 0
M  V30 5970 N 579.415 0.9433 -1.26252 0
M  V30 5971 C 580.345 2.05902 -1.10122 0
M  V30 5972 C 581.326 1.70099 -0.00700552 0
M  V30 5973 O 582.511 1.93377 -0.178641 0
M  V30 5974 C 579.641 3.39516 -0.731175 0
M  V30 5975 C 578.595 3.89372 -1.77688 0
M  V30 5976 C 577.921 5.19613 -1.26122 0
M  V30 5977 C 579.221 4.14489 -3.17799 0
M  V30 5978 H 580.915 2.19655 -2.03451 0
M  V30 5979 H 578.461 1.05548 -0.979576 0
M  V30 5980 H 580.414 4.17031 -0.605215 0
M  V30 5981 H 579.138 3.25733 0.23782 0
M  V30 5982 H 577.797 3.14036 -1.89148 0
M  V30 5983 H 577.445 5.02208 -0.282128 0
M  V30 5984 H 577.145 5.53939 -1.96023 0
M  V30 5985 H 578.669 5.99713 -1.14789 0
M  V30 5986 H 580.083 4.82625 -3.09428 0
M  V30 5987 H 578.48 4.60094 -3.85271 0
M  V30 5988 H 579.55 3.20347 -3.64014 0
M  V30 5989 N 580.893 1.08022 1.14757 0
M  V30 5990 C 582.17 0.720386 1.81851 0
M  V30 5991 C 582.55 -0.796375 1.95502 0
M  V30 5992 O 581.898 -1.71339 1.51179 0
M  V30 5993 C 582.108 1.44273 3.17783 0
M  V30 5994 C 583.456 1.59925 3.93331 0
M  V30 5995 O 584.48 1.40407 3.2736 0
M  V30 5996 O 583.339 1.92096 5.11626 0
M  V30 5997 H 580.433 0.257142 0.786007 0
M  V30 5998 H 582.979 1.18155 1.21809 0
M  V30 5999 H 581.751 2.47618 3.02987 0
M  V30 6000 H 581.374 0.97279 3.85516 0
M  V30 6001 N 582.371 -1.3172 0.865308 0
M  V30 6002 C 583.619 -1.96487 0.472995 0
M  V30 6003 C 583.94 -1.68761 -0.976975 0
M  V30 6004 O 583.21 -1.00051 -1.68424 0
M  V30 6005 H 581.79 -0.726947 0.171922 0
M  V30 6006 H 584.452 -1.60612 1.10407 0
M  V30 6007 H 583.548 -3.0574 0.62687 0
M  V30 6008 N 583.85 -0.624285 -1.44708 0
M  V30 6009 C 584.779 0.0717025 -2.3339 0
M  V30 6010 C 585.76 0.841814 -1.47809 0
M  V30 6011 O 586.946 0.809056 -1.76544 0
M  V30 6012 C 584.076 1.05852 -3.30776 0
M  V30 6013 C 583.029 0.400503 -4.26122 0
M  V30 6014 C 582.356 1.49674 -5.13324 0
M  V30 6015 C 583.656 -0.688924 -5.17737 0
M  V30 6016 H 585.35 -0.668819 -2.91834 0
M  V30 6017 H 582.896 -0.32308 -1.40329 0
M  V30 6018 H 584.849 1.5541 -3.91696 0
M  V30 6019 H 583.572 1.82984 -2.70526 0
M  V30 6020 H 582.231 -0.0743687 -3.66525 0
M  V30 6021 H 581.88 2.25877 -4.49431 0
M  V30 6022 H 581.58 1.06188 -5.77926 0
M  V30 6023 H 583.104 1.99427 -5.77115 0
M  V30 6024 H 584.518 -0.276724 -5.72632 0
M  V30 6025 H 582.915 -1.04652 -5.90904 0
M  V30 6026 H 583.985 -1.55884 -4.5916 0
M  V30 6027 O 585.367 1.53348 -0.50662 0
M  V30 6028 H 586.058 1.93698 0.00952266 0
M  V30 END ATOM
M  V30 BEGIN BOND
M  V30 END BOND
M  V30 END CTAB
M  END
$$$$
