drugbank_target|Q03721 Potassium voltage-gated channel subfamily C member 4 (DB00228; DB01069; DB01110)
 OpenBabel12092120303D

  0  0  0     0  0            999 V3000
M  V30 BEGIN CTAB
M  V30 COUNTS 9755 9873 0 0 0
M  V30 BEGIN ATOM
M  V30 1 H -0.908 1.98254 -0.117106 0
M  V30 2 N 0 1.576 0 0
M  V30 3 C 0.933 2.03868 1.02534 0
M  V30 4 C 1.911 0.928543 1.3348 0
M  V30 5 O 3.095 1.19667 1.45644 0
M  V30 6 C 0.222 2.43627 2.35294 0
M  V30 7 C -0.732 3.65373 2.2001 0
M  V30 8 S 0.101 5.13292 1.52614 0
M  V30 9 C 1.257 5.56322 2.86805 0
M  V30 10 H 1.49 2.90518 0.631377 0
M  V30 11 H -0.977 1.52953 0.210867 0
M  V30 12 H 0.981 2.67203 3.11629 0
M  V30 13 H -0.358 1.57376 2.7183 0
M  V30 14 H -1.165 3.90944 3.18086 0
M  V30 15 H -1.563 3.418 1.51819 0
M  V30 16 H 0.729 5.58782 3.83104 0
M  V30 17 H 1.672 6.56266 2.65933 0
M  V30 18 H 2.08 4.83886 2.90714 0
M  V30 19 N 1.4781 -0.272755 1.55222 0
M  V30 20 C 2.7271 -1.00211 1.75045 0
M  V30 21 C 3.0401 -1.87441 0.559046 0
M  V30 22 O 4.2461 -2.63856 0.639698 0
M  V30 23 C 2.7021 -1.83165 3.09804 0
M  V30 24 C 2.3101 -1.008 4.36513 0
M  V30 25 C 4.0541 -2.55529 3.38977 0
M  V30 26 C 1.9611 -1.83194 5.62311 0
M  V30 27 H 0.8911 -0.377878 0.652476 0
M  V30 28 H 3.5421 -0.257776 1.8168 0
M  V30 29 H 1.9241 -2.61694 2.97207 0
M  V30 30 H 3.0981 -0.266855 4.60027 0
M  V30 31 H 1.4131 -0.398897 4.14485 0
M  V30 32 H 4.0101 -3.17578 4.30172 0
M  V30 33 H 4.3531 -3.25825 2.59121 0
M  V30 34 H 4.8861 -1.84029 3.52673 0
M  V30 35 H 1.6251 -1.17318 6.44916 0
M  V30 36 H 1.1451 -2.54905 5.4294 0
M  V30 37 H 2.8241 -2.40552 6.00619 0
M  V30 38 N 2.9562 -1.48159 -0.537278 0
M  V30 39 C 4.1812 -1.59707 -1.32319 0
M  V30 40 C 4.6062 -0.254859 -1.86365 0
M  V30 41 O 3.9642 0.772378 -1.64024 0
M  V30 42 C 4.0122 -2.6412 -2.45505 0
M  V30 43 O 3.1162 -2.20774 -3.48328 0
M  V30 44 H 2.4572 -0.535791 -0.392204 0
M  V30 45 H 4.9872 -1.94092 -0.647268 0
M  V30 46 H 4.9972 -2.85166 -2.91795 0
M  V30 47 H 3.6722 -3.61567 -2.05528 0
M  V30 48 H 2.2492 -2.09911 -3.08207 0
M  V30 49 N 4.4343 0.785586 -1.36625 0
M  V30 50 C 5.6593 1.57963 -1.34397 0
M  V30 51 C 6.0843 1.87964 0.071526 0
M  V30 52 O 5.4423 1.48182 1.0446 0
M  V30 53 C 5.4903 2.87511 -2.17646 0
M  V30 54 O 4.5943 3.81281 -1.57158 0
M  V30 55 H 3.9353 0.479014 -0.459828 0
M  V30 56 H 6.4653 0.973411 -1.79961 0
M  V30 57 H 6.4753 3.36745 -2.30362 0
M  V30 58 H 5.1503 2.65002 -3.20541 0
M  V30 59 H 3.7273 3.39885 -1.53403 0
M  V30 60 N 5.9124 1.20967 1.01018 0
M  V30 61 C 7.1584 1.02526 1.74975 0
M  V30 62 C 7.4914 -0.4408 1.89131 0
M  V30 63 O 6.7664 -1.32718 1.42184 0
M  V30 64 C 7.0494 1.71699 3.1653 0
M  V30 65 C 6.9024 3.25791 3.10129 0
M  V30 66 C 8.2214 1.45531 4.15342 0
M  V30 67 H 5.3404 0.373863 0.635134 0
M  V30 68 H 7.9824 1.49071 1.17805 0
M  V30 69 H 6.1324 1.32128 3.65341 0
M  V30 70 H 7.8044 3.74697 2.69072 0
M  V30 71 H 6.0474 3.56363 2.47362 0
M  V30 72 H 6.7184 3.69353 4.10222 0
M  V30 73 H 9.1944 1.79872 3.75213 0
M  V30 74 H 8.0704 1.96453 5.1254 0
M  V30 75 H 8.3314 0.384237 4.40427 0
M  V30 76 N 7.3905 -1.2043 1.01659 0
M  V30 77 C 8.6305 -1.91507 0.714456 0
M  V30 78 C 8.9945 -1.77073 -0.742237 0
M  V30 79 O 10.1955 -2.42631 -1.15688 0
M  V30 80 C 8.4665 -3.38795 1.13809 0
M  V30 81 S 10.0255 -4.28216 0.957925 0
M  V30 82 H 6.8435 -0.661571 0.260471 0
M  V30 83 H 9.4455 -1.45671 1.30384 0
M  V30 84 H 8.1495 -3.46822 2.19415 0
M  V30 85 H 7.6805 -3.89656 0.541474 0
M  V30 86 H 9.6955 -4.96007 -0.138531 0
M  V30 87 N 8.8686 -0.792821 -1.36206 0
M  V30 88 C 10.1146 -0.36733 -1.99446 0
M  V30 89 C 10.4476 1.05917 -1.62774 0
M  V30 90 O 9.7226 1.7324 -0.88421 0
M  V30 91 C 10.0056 -0.535044 -3.56103 0
M  V30 92 C 9.8586 -2.00548 -4.02617 0
M  V30 93 C 11.1776 0.0478191 -4.40074 0
M  V30 94 H 8.2966 -0.134941 -0.724541 0
M  V30 95 H 10.9386 -0.999794 -1.61568 0
M  V30 96 H 9.0886 0.00336329 -3.885 0
M  V30 97 H 10.7606 -2.60521 -3.80692 0
M  V30 98 H 9.0036 -2.50686 -3.54032 0
M  V30 99 H 9.6746 -2.07377 -5.11565 0
M  V30 100 H 12.1506 -0.411822 -4.14057 0
M  V30 101 H 11.0266 -0.0995336 -5.4881 0
M  V30 102 H 11.2876 1.14025 -4.27142 0
M  V30 103 N 10.3467 1.47872 -0.545128 0
M  V30 104 C 11.5717 2.07391 -0.0190611 0
M  V30 105 C 11.9967 1.39688 1.25971 0
M  V30 106 O 11.3547 0.467816 1.7516 0
M  V30 107 C 11.4027 3.60188 0.172335 0
M  V30 108 O 10.5067 3.9339 1.23766 0
M  V30 109 H 9.8477 0.662411 -0.0459059 0
M  V30 110 H 12.3777 1.90066 -0.757365 0
M  V30 111 H 12.3877 4.06129 0.390305 0
M  V30 112 H 11.0627 4.08865 -0.761725 0
M  V30 113 H 9.6397 3.5921 1.00114 0
M  V30 114 N 11.8248 0.280983 1.55075 0
M  V30 115 C 13.0498 -0.340154 2.04592 0
M  V30 116 C 13.4748 -1.48246 1.15779 0
M  V30 117 O 12.8328 -1.80614 0.15761 0
M  V30 118 C 12.8808 -0.793104 3.5177 0
M  V30 119 O 11.9848 -1.89981 3.66034 0
M  V30 120 H 11.3258 -0.0694289 0.66036 0
M  V30 121 H 13.8558 0.416993 2.00306 0
M  V30 122 H 13.8658 -1.08729 3.93245 0
M  V30 123 H 12.5408 0.0426163 4.15878 0
M  V30 124 H 11.1178 -1.60771 3.36463 0
M  V30 125 N 13.3029 -1.57598 0.00835791 0
M  V30 126 C 14.5329 -1.94931 -0.684496 0
M  V30 127 C 14.9409 -0.882233 -1.67372 0
M  V30 128 O 14.2839 0.146621 -1.83114 0
M  V30 129 C 14.3459 -3.283 -1.4649 0
M  V30 130 C 14.0099 -4.52548 -0.63634 0
M  V30 131 C 15.0069 -5.19839 0.0795586 0
M  V30 132 C 12.6919 -4.98942 -0.579849 0
M  V30 133 C 14.6859 -6.3183 0.840843 0
M  V30 134 C 12.3729 -6.10819 0.185155 0
M  V30 135 C 13.3709 -6.77121 0.894227 0
M  V30 136 O 13.0589 -7.86853 1.64673 0
M  V30 137 H 12.7909 -0.647249 -0.19505 0
M  V30 138 H 15.3449 -2.05318 0.0581272 0
M  V30 139 H 13.5749 -3.14345 -2.2522 0
M  V30 140 H 15.2639 -3.50685 -2.04389 0
M  V30 141 H 16.0299 -4.84979 0.0451202 0
M  V30 142 H 11.9089 -4.47155 -1.1213 0
M  V30 143 H 15.4529 -6.83513 1.39483 0
M  V30 144 H 11.3499 -6.4512 0.221384 0
M  V30 145 H 12.1179 -8.03412 1.56432 0
M  V30 146 N 14.781 0.264519 -1.55364 0
M  V30 147 C 16.197 0.61215 -1.47394 0
M  V30 148 C 16.397 1.89134 -0.695018 0
M  V30 149 O 15.453 2.51563 -0.217275 0
M  V30 150 C 16.766 0.731235 -2.91674 0
M  V30 151 C 18.314 0.82473 -3.01939 0
M  V30 152 C 18.789 0.975522 -4.4749 0
M  V30 153 N 20.28 1.04083 -4.51354 0
M  V30 154 C 21.015 1.17646 -5.61201 0
M  V30 155 N 20.511 1.27874 -6.80896 0
M  V30 156 N 22.304 1.20823 -5.48961 0
M  V30 157 H 14.455 -0.575456 -2.04456 0
M  V30 158 H 16.718 -0.196099 -0.927496 0
M  V30 159 H 16.424 -0.138392 -3.51428 0
M  V30 160 H 16.298 1.60883 -3.41169 0
M  V30 161 H 18.685 1.68482 -2.42276 0
M  V30 162 H 18.766 -0.0776479 -2.55682 0
M  V30 163 H 18.41 0.120058 -5.07758 0
M  V30 164 H 18.34 1.89268 -4.91412 0
M  V30 165 H 20.831 0.973846 -3.65136 0
M  V30 166 H 21.144 1.38081 -7.60364 0
M  V30 167 H 19.489 1.24863 -6.83692 0
M  V30 168 H 22.68 1.12469 -4.54388 0
M  V30 169 H 22.853 1.31049 -6.3461 0
M  V30 170 N 16.2591 1.48442 0.529413 0
M  V30 171 C 17.5071 1.56179 1.28267 0
M  V30 172 C 17.8281 0.237721 1.93546 0
M  V30 173 O 17.0981 -0.740779 1.81354 0
M  V30 174 H 15.6781 0.575367 0.476405 0
M  V30 175 H 18.3401 1.84909 0.61602 0
M  V30 176 H 17.4361 2.34312 2.06165 0
M  V30 177 N 17.7372 -0.778329 1.37039 0
M  V30 178 C 19.1532 -1.07796 1.17695 0
M  V30 179 C 19.3532 -2.01498 0.00860115 0
M  V30 180 O 18.4092 -2.43901 -0.653352 0
M  V30 181 C 19.7222 -1.68178 2.49272 0
M  V30 182 C 21.2702 -1.80467 2.55735 0
M  V30 183 C 21.7452 -2.44263 3.87427 0
M  V30 184 N 23.2362 -2.51721 3.88833 0
M  V30 185 C 23.9712 -3.01919 4.87476 0
M  V30 186 N 23.4672 -3.5234 5.96513 0
M  V30 187 N 25.2602 -3.00733 4.74885 0
M  V30 188 H 17.4112 -0.156032 2.11826 0
M  V30 189 H 19.6742 -0.131844 0.938787 0
M  V30 190 H 19.3802 -1.06796 3.35093 0
M  V30 191 H 19.2542 -2.67554 2.65885 0
M  V30 192 H 21.6412 -2.40984 1.70325 0
M  V30 193 H 21.7222 -0.798656 2.43013 0
M  V30 194 H 21.3662 -1.84388 4.73248 0
M  V30 195 H 21.2962 -3.45458 3.9745 0
M  V30 196 H 23.7872 -2.1603 3.10063 0
M  V30 197 H 24.1002 -3.89027 6.67741 0
M  V30 198 H 22.4452 -3.50462 6.00168 0
M  V30 199 H 25.6362 -2.60638 3.88826 0
M  V30 200 H 25.8092 -3.39545 5.51918 0
M  V30 201 N 19.2153 -1.21501 -1.00376 0
M  V30 202 C 20.1623 -0.975387 -2.09177 0
M  V30 203 C 21.1323 0.0990615 -1.65804 0
M  V30 204 O 22.3173 -0.0483147 -1.90739 0
M  V30 205 C 19.4573 -0.547507 -3.40729 0
M  V30 206 C 18.5703 -1.69153 -3.97506 0
M  V30 207 C 17.7053 -1.2127 -5.17172 0
M  V30 208 C 16.7443 -2.32897 -5.66061 0
M  V30 209 N 15.8813 -1.86138 -6.76976 0
M  V30 210 H 20.7213 -1.9068 -2.29009 0
M  V30 211 H 18.2583 -0.950257 -1.12288 0
M  V30 212 H 20.2163 -0.280667 -4.16255 0
M  V30 213 H 18.8463 0.346904 -3.20931 0
M  V30 214 H 17.8983 -2.07298 -3.18954 0
M  V30 215 H 19.2103 -2.5316 -4.29781 0
M  V30 216 H 18.3643 -0.902591 -5.99948 0
M  V30 217 H 17.1033 -0.342692 -4.86495 0
M  V30 218 H 16.1083 -2.64709 -4.81881 0
M  V30 219 H 17.3333 -3.20396 -5.98768 0
M  V30 220 H 15.2793 -1.01484 -6.48103 0
M  V30 221 H 15.1963 -2.63717 -7.08512 0
M  V30 222 H 16.4643 -1.58165 -7.63285 0
M  V30 223 N 20.6934 1.19889 -1.02296 0
M  V30 224 C 21.9184 1.9393 -0.735237 0
M  V30 225 C 22.3434 1.74639 0.698782 0
M  V30 226 O 21.7014 1.04481 1.48167 0
M  V30 227 C 21.7494 3.43916 -1.08417 0
M  V30 228 O 20.8534 4.11917 -0.199446 0
M  V30 229 H 20.1944 0.605645 -0.272196 0
M  V30 230 H 22.7244 1.52137 -1.36804 0
M  V30 231 H 22.7344 3.9456 -1.03856 0
M  V30 232 H 21.4094 3.5728 -2.12894 0
M  V30 233 H 19.9864 3.71666 -0.303136 0
M  V30 234 N 22.1715 0.800033 1.35784 0
M  V30 235 C 23.4195 0.376597 1.9856 0
M  V30 236 C 23.7405 -1.05812 1.63795 0
M  V30 237 O 23.0105 -1.73103 0.917171 0
M  V30 238 H 21.5905 0.136261 0.734467 0
M  V30 239 H 24.2525 1.02442 1.65806 0
M  V30 240 H 23.3485 0.477002 3.08433 0
M  V30 241 N 23.6496 -1.47581 0.552962 0
M  V30 242 C 24.5976 -2.31648 -0.21023 0
M  V30 243 C 25.5916 -1.42663 -0.913432 0
M  V30 244 O 26.7976 -1.5945 -0.835201 0
M  V30 245 H 23.1726 -0.746989 -0.0866676 0
M  V30 246 H 25.1436 -2.93869 0.518051 0
M  V30 247 C 23.8926 -3.25226 -1.22976 0
M  V30 248 H 23.2156 -3.93658 -0.698077 0
M  V30 249 H 24.6556 -3.86889 -1.73473 0
M  V30 250 C 23.1146 -2.48448 -2.27542 0
M  V30 251 O 23.6446 -2.22585 -3.34393 0
M  V30 252 N 21.8506 -2.09532 -2.01357 0
M  V30 253 H 21.3976 -2.30765 -1.14478 0
M  V30 254 H 21.3556 -1.58476 -2.71538 0
M  V30 255 N 25.1277 -0.289203 -1.54924 0
M  V30 256 C 26.0747 0.592115 -2.23075 0
M  V30 257 C 27.0447 1.13881 -1.20915 0
M  V30 258 O 28.2297 1.18551 -1.495 0
M  V30 259 C 25.3697 1.76376 -2.96623 0
M  V30 260 C 24.4827 1.24959 -4.13533 0
M  V30 261 C 23.6177 2.38416 -4.74691 0
M  V30 262 C 22.6567 1.84072 -5.83767 0
M  V30 263 N 21.7937 2.91057 -6.38929 0
M  V30 264 H 26.6337 0.00432038 -2.98 0
M  V30 265 H 24.1707 -0.00963529 -1.47097 0
M  V30 266 H 26.1287 2.45268 -3.3749 0
M  V30 267 H 24.7587 2.32337 -2.24097 0
M  V30 268 H 23.8107 0.453307 -3.77689 0
M  V30 269 H 25.1227 0.811662 -4.92152 0
M  V30 270 H 24.2767 3.15276 -5.18349 0
M  V30 271 H 23.0157 2.8553 -3.95378 0
M  V30 272 H 22.0207 1.05697 -5.39545 0
M  V30 273 H 23.2457 1.37877 -6.64956 0
M  V30 274 H 21.1917 3.37526 -5.62505 0
M  V30 275 H 21.1087 2.51724 -7.12861 0
M  V30 276 H 22.3767 3.6785 -6.87246 0
M  V30 277 N 26.6058 1.57591 -0.0167156 0
M  V30 278 C 28.0168 1.79201 0.523834 0
M  V30 279 C 28.3678 0.925796 1.72984 0
M  V30 280 O 27.4928 0.132792 2.15992 0
M  V30 281 C 28.0878 3.25 0.957091 0
M  V30 282 C 26.6468 3.47648 1.44283 0
M  V30 283 C 25.7938 2.74374 0.401757 0
M  V30 284 H 28.7448 1.56831 -0.242816 0
M  V30 285 H 28.7658 3.34031 1.82219 0
M  V30 286 H 28.2778 3.88019 0.0791415 0
M  V30 287 H 26.3788 2.89866 2.34113 0
M  V30 288 H 26.4918 4.56352 1.45877 0
M  V30 289 H 24.8558 2.39485 0.867121 0
M  V30 290 H 25.6388 3.40102 -0.467513 0
M  V30 291 N 28.0839 -0.256276 1.55502 0
M  V30 292 C 29.4949 -0.826068 1.67431 0
M  V30 293 C 29.8459 -1.86396 0.612446 0
M  V30 294 O 28.9709 -2.15031 -0.243025 0
M  V30 295 C 29.5659 -1.50512 3.03532 0
M  V30 296 C 28.1249 -2.02273 3.17431 0
M  V30 297 C 27.2719 -0.870548 2.63281 0
M  V30 298 H 30.2229 -0.0322728 1.58667 0
M  V30 299 H 30.2439 -2.37279 2.97454 0
M  V30 300 H 29.7559 -0.749484 3.80794 0
M  V30 301 H 27.8569 -2.80746 2.44974 0
M  V30 302 H 27.9699 -2.22655 4.24219 0
M  V30 303 H 26.3339 -1.26851 2.20864 0
M  V30 304 H 27.1169 -0.128149 3.43061 0
M  V30 305 N 29.562 -1.4872 -0.521534 0
M  V30 306 C 30.787 -1.61101 -1.30618 0
M  V30 307 C 31.212 -0.274611 -1.86085 0
M  V30 308 O 30.57 0.754937 -1.64834 0
M  V30 309 C 30.618 -2.66709 -2.4269 0
M  V30 310 O 29.722 -2.24456 -3.45967 0
M  V30 311 H 29.063 -0.539921 -0.386499 0
M  V30 312 H 31.593 -1.94767 -0.626645 0
M  V30 313 H 31.603 -2.88245 -2.88754 0
M  V30 314 H 30.278 -3.63727 -2.01682 0
M  V30 315 H 28.855 -2.13168 -3.05964 0
M  V30 316 N 31.0401 0.771051 -1.3745 0
M  V30 317 C 31.9871 1.88435 -1.3327 0
M  V30 318 C 32.9571 1.64914 -0.198136 0
M  V30 319 O 34.1421 1.86821 -0.387606 0
M  V30 320 C 31.2821 3.25509 -1.14622 0
M  V30 321 C 30.3951 3.60979 -2.37314 0
M  V30 322 C 29.5301 4.87265 -2.11533 0
M  V30 323 C 28.5691 5.15469 -3.30088 0
M  V30 324 N 27.7061 6.32944 -3.03853 0
M  V30 325 H 32.5461 1.91344 -2.28455 0
M  V30 326 H 30.0831 0.935466 -1.13523 0
M  V30 327 H 32.0411 4.04582 -1.01831 0
M  V30 328 H 30.6711 3.21974 -0.230837 0
M  V30 329 H 29.7231 2.76885 -2.60842 0
M  V30 330 H 31.0351 3.77759 -3.25729 0
M  V30 331 H 30.1891 5.74244 -1.95777 0
M  V30 332 H 28.9281 4.7259 -1.20457 0
M  V30 333 H 27.9331 4.26966 -3.46382 0
M  V30 334 H 29.1581 5.32052 -4.22016 0
M  V30 335 H 27.1041 6.19625 -2.15407 0
M  V30 336 H 27.0211 6.50143 -3.85812 0
M  V30 337 H 28.2891 7.22857 -2.91716 0
M  V30 338 N 32.5182 1.22032 0.997298 0
M  V30 339 C 33.7462 1.06841 1.7718 0
M  V30 340 C 34.1612 -0.381325 1.84909 0
M  V30 341 O 33.5182 -1.26437 1.31605 0
M  V30 342 C 33.5692 1.66814 3.20711 0
M  V30 343 O 33.2902 3.06116 3.13408 0
M  V30 344 C 34.7912 1.56838 4.14628 0
M  V30 345 H 32.0112 0.374782 0.556578 0
M  V30 346 H 34.5552 1.61532 1.2541 0
M  V30 347 H 32.7102 1.16196 3.69564 0
M  V30 348 H 33.1242 3.34926 4.0364 0
M  V30 349 H 34.5982 2.03532 5.13107 0
M  V30 350 H 35.0752 0.524155 4.36061 0
M  V30 351 H 35.6812 2.06741 3.7167 0
M  V30 352 N 33.9963 -1.19345 1.0293 0
M  V30 353 C 35.2363 -1.90738 0.734727 0
M  V30 354 C 35.6003 -1.7785 -0.723414 0
M  V30 355 O 36.8013 -2.43844 -1.13108 0
M  V30 356 C 35.0723 -3.37569 1.17396 0
M  V30 357 S 36.6313 -4.27176 1.00329 0
M  V30 358 H 33.4493 -0.658771 0.267474 0
M  V30 359 H 36.0513 -1.4428 1.31922 0
M  V30 360 H 34.7553 -3.44475 2.23081 0
M  V30 361 H 34.2863 -3.8906 0.582772 0
M  V30 362 H 36.3013 -4.96126 -0.0859152 0
M  V30 363 N 35.4744 -0.807222 -1.35358 0
M  V30 364 C 36.4044 -0.232509 -2.3234 0
M  V30 365 C 37.3854 0.642386 -1.57504 0
M  V30 366 O 38.5704 0.572526 -1.85569 0
M  V30 367 C 35.7004 0.619238 -3.41735 0
M  V30 368 C 34.6544 -0.157215 -4.27711 0
M  V30 369 C 33.9804 0.816273 -5.28433 0
M  V30 370 C 35.2804 -1.35656 -5.04376 0
M  V30 371 H 36.9744 -1.04276 -2.80654 0
M  V30 372 H 34.5204 -0.50288 -1.34934 0
M  V30 373 H 36.4734 1.03137 -4.08584 0
M  V30 374 H 35.1974 1.46239 -2.92031 0
M  V30 375 H 33.8564 -0.550525 -3.62443 0
M  V30 376 H 33.5044 1.65494 -4.74996 0
M  V30 377 H 33.2044 0.301067 -5.86828 0
M  V30 378 H 34.7284 1.22659 -5.98153 0
M  V30 379 H 36.1424 -1.01927 -5.64166 0
M  V30 380 H 34.5394 -1.8063 -5.7227 0
M  V30 381 H 35.6094 -2.14288 -4.34981 0
M  V30 382 N 36.9525 1.47285 -0.560781 0
M  V30 383 C 37.8995 2.30058 0.18491 0
M  V30 384 C 38.8695 1.39281 0.904986 0
M  V30 385 O 40.0545 1.68241 0.899979 0
M  V30 386 C 37.1945 3.23317 1.20666 0
M  V30 387 C 36.3075 4.29186 0.492285 0
M  V30 388 C 35.4425 5.09592 1.49964 0
M  V30 389 C 34.4815 6.07232 0.770439 0
M  V30 390 N 33.6185 6.80584 1.72479 0
M  V30 391 H 38.4585 2.93302 -0.527048 0
M  V30 392 H 35.9955 1.44568 -0.271738 0
M  V30 393 H 37.9535 3.75811 1.81168 0
M  V30 394 H 36.5835 2.61929 1.88661 0
M  V30 395 H 35.6355 3.7972 -0.227333 0
M  V30 396 H 36.9475 4.98738 -0.0787929 0
M  V30 397 H 36.1015 5.66254 2.17809 0
M  V30 398 H 34.8405 4.3995 2.10464 0
M  V30 399 H 33.8455 5.49745 0.0780846 0
M  V30 400 H 35.0705 6.78884 0.171134 0
M  V30 401 H 33.0165 6.1367 2.3183 0
M  V30 402 H 32.9335 7.46319 1.20596 0
M  V30 403 H 34.2015 7.41818 2.39428 0
M  V30 404 N 38.4306 0.297415 1.54768 0
M  V30 405 C 39.3406 -0.58983 2.27064 0
M  V30 406 C 40.3566 -1.15144 1.30453 0
M  V30 407 O 41.5326 -1.17699 1.63428 0
M  V30 408 C 38.5976 -1.74714 2.9946 0
M  V30 409 C 37.6586 -1.21997 4.11601 0
M  V30 410 C 36.8916 -2.32212 4.80535 0
M  V30 411 O 37.1146 -3.52036 4.48806 0
M  V30 412 O 36.0486 -1.99106 5.68014 0
M  V30 413 H 39.8746 -0.00348199 3.037 0
M  V30 414 H 37.4596 0.0640035 1.49263 0
M  V30 415 H 39.3416 -2.42147 3.44881 0
M  V30 416 H 38.0166 -2.32016 2.25722 0
M  V30 417 H 36.9236 -0.511458 3.70587 0
M  V30 418 H 38.2566 -0.692419 4.87305 0
M  V30 419 N 39.9087 -1.5758 0.0250728 0
M  V30 420 C 40.8187 -2.1343 -0.973905 0
M  V30 421 C 41.8347 -1.08556 -1.35984 0
M  V30 422 O 43.0107 -1.40592 -1.44207 0
M  V30 423 C 40.0757 -2.64703 -2.23904 0
M  V30 424 C 39.1367 -3.84276 -1.91391 0
M  V30 425 C 38.3697 -4.33095 -3.11873 0
M  V30 426 O 38.5927 -3.81107 -4.24398 0
M  V30 427 O 37.5267 -5.24984 -2.94406 0
M  V30 428 H 41.3527 -2.99057 -0.529036 0
M  V30 429 H 38.9377 -1.48118 -0.195288 0
M  V30 430 H 40.8197 -2.97769 -2.98181 0
M  V30 431 H 39.4947 -1.82161 -2.6758 0
M  V30 432 H 38.4017 -3.56143 -1.14511 0
M  V30 433 H 39.7347 -4.67968 -1.52534 0
M  V30 434 N 41.3868 0.248026 -1.55636 0
M  V30 435 C 42.3198 1.3334 -1.85191 0
M  V30 436 C 43.2978 1.46429 -0.706906 0
M  V30 437 O 44.4818 1.62662 -0.952544 0
M  V30 438 C 41.6088 2.70703 -2.03562 0
M  V30 439 C 40.6548 2.7477 -3.26196 0
M  V30 440 S 41.4878 2.31493 -4.82878 0
M  V30 441 C 42.6438 3.70783 -5.04253 0
M  V30 442 H 42.8768 1.08072 -2.76962 0
M  V30 443 H 40.4098 0.448952 -1.47729 0
M  V30 444 H 42.3678 3.49798 -2.1483 0
M  V30 445 H 41.0288 2.9321 -1.12635 0
M  V30 446 H 40.2218 3.75648 -3.36013 0
M  V30 447 H 39.8238 2.03719 -3.13647 0
M  V30 448 H 42.1158 4.6627 -4.91527 0
M  V30 449 H 43.0588 3.65901 -6.06236 0
M  V30 450 H 43.4668 3.63244 -4.32105 0
M  V30 451 N 42.8649 1.48995 0.513639 0
M  V30 452 C 43.8279 1.64229 1.59879 0
M  V30 453 C 44.8279 0.514696 1.5234 0
M  V30 454 O 46.0179 0.78087 1.55718 0
M  V30 455 C 43.1499 1.62783 2.99524 0
M  V30 456 H 44.3429 2.61004 1.47705 0
M  V30 457 H 41.8959 1.37837 0.736936 0
M  V30 458 H 42.6309 0.675461 3.17188 0
M  V30 459 H 42.4159 2.4466 3.06404 0
M  V30 460 H 43.9059 1.76669 3.78388 0
M  V30 461 N 44.343 -0.763751 1.37857 0
M  V30 462 C 45.29 -1.87726 1.34267 0
M  V30 463 C 46.26 -1.64807 0.206879 0
M  V30 464 O 47.445 -1.86613 0.397508 0
M  V30 465 C 44.585 -3.24896 1.16346 0
M  V30 466 C 43.698 -3.59716 2.39225 0
M  V30 467 C 42.833 -4.86137 2.14114 0
M  V30 468 C 41.872 -5.13711 3.32817 0
M  V30 469 N 41.009 -6.31323 3.07206 0
M  V30 470 H 45.849 -1.90129 2.29466 0
M  V30 471 H 43.386 -0.929433 1.14017 0
M  V30 472 H 45.344 -4.04036 1.03975 0
M  V30 473 H 43.974 -3.21847 0.247909 0
M  V30 474 H 43.026 -2.75498 2.62307 0
M  V30 475 H 44.338 -3.76027 3.27728 0
M  V30 476 H 43.492 -5.73198 1.9882 0
M  V30 477 H 42.231 -4.71945 1.22961 0
M  V30 478 H 41.236 -4.25123 3.48641 0
M  V30 479 H 42.461 -5.29807 4.24832 0
M  V30 480 H 40.407 -6.18474 2.1869 0
M  V30 481 H 40.324 -6.48087 3.89254 0
M  V30 482 H 41.592 -7.213 2.95546 0
M  V30 483 N 45.8211 -1.22559 -0.990812 0
M  V30 484 C 47.0691 -1.04933 -1.72724 0
M  V30 485 C 47.3901 0.416158 -1.90508 0
M  V30 486 O 46.6601 1.29918 -1.46622 0
M  V30 487 H 45.2401 -0.385296 -0.639965 0
M  V30 488 H 47.9021 -1.54105 -1.19322 0
M  V30 489 H 46.9981 -1.52886 -2.72089 0
M  V30 490 N 47.2992 1.18797 -1.03562 0
M  V30 491 C 48.2092 2.25913 -0.632505 0
M  V30 492 C 49.2252 1.70668 0.338882 0
M  V30 493 O 50.4012 2.00453 0.195076 0
M  V30 494 C 47.4662 3.467 0.00350942 0
M  V30 495 C 46.5272 4.17098 -1.01624 0
M  V30 496 C 45.7602 5.32119 -0.410478 0
M  V30 497 O 45.9832 5.64976 0.784725 0
M  V30 498 O 44.9172 5.9107 -1.13667 0
M  V30 499 H 48.7432 2.62648 -1.52478 0
M  V30 500 H 46.3282 1.25781 -0.806195 0
M  V30 501 H 48.2102 4.19878 0.35781 0
M  V30 502 H 46.8852 3.11798 0.869686 0
M  V30 503 H 45.7922 3.4601 -1.42224 0
M  V30 504 H 47.1252 4.55987 -1.85301 0
M  V30 505 N 48.7773 0.814389 1.34928 0
M  V30 506 C 49.7403 0.235759 2.27984 0
M  V30 507 C 50.7403 -0.581412 1.49921 0
M  V30 508 O 51.9303 -0.398758 1.69575 0
M  V30 509 C 49.0623 -0.670433 3.34242 0
M  V30 510 H 50.2553 1.05659 2.80671 0
M  V30 511 H 47.8083 0.585614 1.44915 0
M  V30 512 H 48.5433 -1.51466 2.86755 0
M  V30 513 H 48.3283 -0.0860822 3.92005 0
M  V30 514 H 49.8183 -1.06935 4.03676 0
M  V30 515 N 50.2554 -1.46986 0.568584 0
M  V30 516 C 51.4804 -2.07335 0.0520528 0
M  V30 517 C 51.9054 -1.41675 -1.23733 0
M  V30 518 O 51.2634 -0.495623 -1.74394 0
M  V30 519 C 51.3114 -3.60417 -0.11501 0
M  V30 520 O 50.4154 -3.95309 -1.17492 0
M  V30 521 H 49.7564 -0.661597 0.0564385 0
M  V30 522 H 52.2864 -1.88837 0.787507 0
M  V30 523 H 52.2964 -4.06698 -0.325644 0
M  V30 524 H 50.9714 -4.07601 0.826675 0
M  V30 525 H 49.5484 -3.60757 -0.943869 0
M  V30 526 N 51.7335 -0.305618 -1.54608 0
M  V30 527 C 52.6435 0.57778 -2.27374 0
M  V30 528 C 53.6595 1.14451 -1.31061 0
M  V30 529 O 54.8355 1.16831 -1.6405 0
M  V30 530 C 51.9005 1.73123 -3.00382 0
M  V30 531 C 50.9615 1.19812 -4.12242 0
M  V30 532 C 50.1945 2.2966 -4.81759 0
M  V30 533 O 50.4175 3.49651 -4.50666 0
M  V30 534 O 49.3515 1.96091 -5.69062 0
M  V30 535 H 53.1775 -0.012624 -3.03697 0
M  V30 536 H 50.7625 -0.0719184 -1.49227 0
M  V30 537 H 52.6445 2.40315 -3.4616 0
M  V30 538 H 51.3195 2.30815 -2.26949 0
M  V30 539 H 50.2265 0.491798 -3.70853 0
M  V30 540 H 51.5595 0.666566 -4.87666 0
M  V30 541 N 53.2116 1.57565 -0.0334293 0
M  V30 542 C 54.1586 2.10478 0.946981 0
M  V30 543 C 55.1286 1.00787 1.32027 0
M  V30 544 O 56.3136 1.28232 1.41284 0
M  V30 545 C 53.4536 2.63994 2.22263 0
M  V30 546 C 52.5666 3.87709 1.90541 0
M  V30 547 C 51.7016 4.29604 3.12433 0
M  V30 548 C 50.7406 5.46065 2.76549 0
M  V30 549 N 49.8776 5.83096 3.9108 0
M  V30 550 H 54.7176 2.93963 0.488846 0
M  V30 551 H 52.2546 1.45296 0.22969 0
M  V30 552 H 54.2126 2.93114 2.96884 0
M  V30 553 H 52.8426 1.83333 2.65685 0
M  V30 554 H 51.8946 3.65291 1.06144 0
M  V30 555 H 53.2066 4.72403 1.60116 0
M  V30 556 H 52.3606 4.60182 3.9537 0
M  V30 557 H 51.0996 3.43685 3.46023 0
M  V30 558 H 50.1046 5.15176 1.92026 0
M  V30 559 H 51.3296 6.33685 2.44171 0
M  V30 560 H 49.2756 5.00132 4.24504 0
M  V30 561 H 49.1926 6.6244 3.64293 0
M  V30 562 H 50.4606 6.18282 4.74708 0
M  V30 563 N 54.6897 -0.239769 1.55765 0
M  V30 564 C 55.9387 -0.964754 1.77131 0
M  V30 565 C 56.2517 -1.86213 0.59868 0
M  V30 566 O 57.4577 -2.6244 0.695522 0
M  V30 567 C 55.9137 -1.76552 3.1362 0
M  V30 568 C 55.5217 -0.915185 4.38553 0
M  V30 569 C 57.2657 -2.48281 3.44321 0
M  V30 570 C 55.1727 -1.71225 5.66071 0
M  V30 571 H 54.1027 -0.363953 0.660344 0
M  V30 572 H 56.7537 -0.219181 1.82186 0
M  V30 573 H 55.1357 -2.55331 3.02691 0
M  V30 574 H 56.3097 -0.169217 4.60489 0
M  V30 575 H 54.6247 -0.310889 4.15238 0
M  V30 576 H 57.2217 -3.08382 4.36812 0
M  V30 577 H 57.5647 -3.20256 2.65973 0
M  V30 578 H 58.0977 -1.76507 3.56497 0
M  V30 579 H 54.8367 -1.03612 6.4726 0
M  V30 580 H 54.3567 -2.43331 5.48224 0
M  V30 581 H 56.0357 -2.27758 6.05587 0
M  V30 582 N 56.1678 -1.49265 -0.50573 0
M  V30 583 C 57.4168 -1.57761 -1.25675 0
M  V30 584 C 57.7298 -0.267371 -1.93764 0
M  V30 585 O 58.9358 -0.230827 -2.70517 0
M  V30 586 C 57.3918 -2.78332 -2.28165 0
M  V30 587 C 56.9998 -4.16096 -1.66037 0
M  V30 588 C 58.7438 -2.96155 -3.04125 0
M  V30 589 C 56.6508 -5.27895 -2.6661 0
M  V30 590 H 55.5808 -0.587391 -0.472745 0
M  V30 591 H 58.2318 -1.75644 -0.53118 0
M  V30 592 H 56.6138 -2.53934 -3.03865 0
M  V30 593 H 57.7878 -4.50612 -0.963622 0
M  V30 594 H 56.1028 -4.03591 -1.02484 0
M  V30 595 H 58.6998 -3.76849 -3.79327 0
M  V30 596 H 59.0428 -2.06534 -3.61455 0
M  V30 597 H 59.5758 -3.2057 -2.35541 0
M  V30 598 H 56.3148 -6.1956 -2.14068 0
M  V30 599 H 55.8348 -4.97839 -3.34539 0
M  V30 600 H 57.5138 -5.57031 -3.29129 0
M  V30 601 N 57.6459 0.756429 -1.3826 0
M  V30 602 C 58.8949 1.51082 -1.3363 0
M  V30 603 C 59.2079 1.95467 0.0720068 0
M  V30 604 O 60.4139 2.7043 0.240834 0
M  V30 605 C 58.8699 2.72893 -2.34644 0
M  V30 606 C 58.4779 2.35544 -3.81081 0
M  V30 607 C 60.2219 3.50791 -2.39052 0
M  V30 608 C 58.1289 3.53948 -4.73787 0
M  V30 609 H 57.0589 0.56727 -0.49671 0
M  V30 610 H 59.7099 0.827147 -1.638 0
M  V30 611 H 58.0919 3.43227 -1.97513 0
M  V30 612 H 59.2659 1.72894 -4.27135 0
M  V30 613 H 57.5809 1.70786 -3.79764 0
M  V30 614 H 60.1779 4.38823 -3.05513 0
M  V30 615 H 60.5209 3.91745 -1.40861 0
M  V30 616 H 61.0539 2.87467 -2.74968 0
M  V30 617 H 57.7929 3.18064 -5.73163 0
M  V30 618 H 57.3129 4.15651 -4.32428 0
M  V30 619 H 58.9919 4.20566 -4.91663 0
M  V30 620 N 59.124 1.23083 0.984299 0
M  V30 621 C 60.072 1.00593 2.09723 0
M  V30 622 C 61.066 -0.0538014 1.69315 0
M  V30 623 O 62.272 0.0993719 1.79725 0
M  V30 624 H 58.647 0.30817 0.685956 0
M  V30 625 H 60.618 1.95012 2.2586 0
M  V30 626 C 59.367 0.609601 3.42314 0
M  V30 627 H 58.69 1.41675 3.73856 0
M  V30 628 H 60.13 0.491726 4.21139 0
M  V30 629 C 58.589 -0.681745 3.2993 0
M  V30 630 O 59.119 -1.73192 3.62446 0
M  V30 631 N 57.325 -0.656178 2.83095 0
M  V30 632 H 56.872 0.198759 2.56832 0
M  V30 633 H 56.83 -1.52044 2.75191 0
M  V30 634 N 60.6021 -1.18246 1.0419 0
M  V30 635 C 61.8481 -1.88536 0.747122 0
M  V30 636 C 62.1811 -1.80223 -0.723409 0
M  V30 637 O 61.4561 -1.20337 -1.52804 0
M  V30 638 C 61.7391 -3.38968 1.21544 0
M  V30 639 C 61.5921 -3.56084 2.74816 0
M  V30 640 C 62.9111 -4.32648 0.806482 0
M  V30 641 H 60.0301 -0.684619 0.272883 0
M  V30 642 H 62.6721 -1.39113 1.29413 0
M  V30 643 H 60.8221 -3.8119 0.750081 0
M  V30 644 H 62.4941 -3.22946 3.29399 0
M  V30 645 H 60.7371 -2.98699 3.14582 0
M  V30 646 H 61.4081 -4.61639 3.02644 0
M  V30 647 H 63.8841 -3.98211 1.20695 0
M  V30 648 H 62.7601 -5.36462 1.1619 0
M  V30 649 H 63.0211 -4.41146 -0.29029 0
M  V30 650 N 62.0802 -0.821533 -1.34494 0
M  V30 651 C 63.3282 -0.408139 -1.97936 0
M  V30 652 C 63.6492 1.03193 -1.65457 0
M  V30 653 O 62.9192 1.71622 -0.944595 0
M  V30 654 H 61.4992 -0.147928 -0.732206 0
M  V30 655 H 64.1612 -1.05067 -1.64155 0
M  V30 656 H 63.2572 -0.52601 -3.07635 0
M  V30 657 N 63.5583 1.46682 -0.576371 0
M  V30 658 C 64.8063 2.02013 -0.0594163 0
M  V30 659 C 65.1273 1.45101 1.30271 0
M  V30 660 O 64.3973 0.633317 1.8538 0
M  V30 661 H 62.9773 0.746759 -0.0189745 0
M  V30 662 H 65.6393 1.79862 -0.750717 0
M  V30 663 H 64.7353 3.12097 0.014345 0
M  V30 664 N 65.0364 0.313813 1.54444 0
M  V30 665 C 66.2644 -0.293918 2.04802 0
M  V30 666 C 66.6794 -1.46537 1.19047 0
M  V30 667 O 66.0364 -1.81182 0.218939 0
M  V30 668 C 66.0874 -0.737806 3.53891 0
M  V30 669 O 65.8084 0.387038 4.36387 0
M  V30 670 C 67.3094 -1.40936 4.203 0
M  V30 671 H 64.5294 -0.0620057 0.668129 0
M  V30 672 H 67.0734 0.457169 1.99324 0
M  V30 673 H 65.2284 -1.43889 3.59687 0
M  V30 674 H 65.6424 0.0391274 5.24485 0
M  V30 675 H 67.1164 -1.67099 5.26101 0
M  V30 676 H 67.5934 -2.35355 3.70816 0
M  V30 677 H 68.1994 -0.751117 4.18615 0
M  V30 678 N 66.5145 -1.57545 0.0417849 0
M  V30 679 C 67.9305 -1.56467 -0.314704 0
M  V30 680 C 68.1305 -1.04859 -1.72066 0
M  V30 681 O 67.1865 -0.700983 -2.42575 0
M  V30 682 C 68.4995 -3.00317 -0.15174 0
M  V30 683 C 70.0475 -3.12201 -0.223553 0
M  V30 684 C 70.5225 -4.57913 -0.0892295 0
M  V30 685 N 72.0135 -4.6297 -0.145808 0
M  V30 686 C 72.7485 -5.73362 -0.0658459 0
M  V30 687 N 72.2445 -6.92769 0.0659282 0
M  V30 688 N 74.0375 -5.6197 -0.12075 0
M  V30 689 H 66.1885 -1.89416 0.961014 0
M  V30 690 H 68.4515 -0.871862 0.372237 0
M  V30 691 H 68.1575 -3.42073 0.817254 0
M  V30 692 H 68.0315 -3.65892 -0.916692 0
M  V30 693 H 70.4185 -2.70349 -1.18301 0
M  V30 694 H 70.4995 -2.49323 0.571994 0
M  V30 695 H 70.1435 -5.00448 0.866867 0
M  V30 696 H 70.0735 -5.18786 -0.903802 0
M  V30 697 H 72.5645 -3.7709 -0.247286 0
M  V30 698 H 72.8775 -7.72707 0.119905 0
M  V30 699 H 71.2225 -6.94927 0.100885 0
M  V30 700 H 74.4135 -4.67572 -0.222187 0
M  V30 701 H 74.5865 -6.47977 -0.0549735 0
M  V30 702 N 67.9926 0.231505 -1.5589 0
M  V30 703 C 68.9426 1.29007 -1.87993 0
M  V30 704 C 69.9266 1.42764 -0.742102 0
M  V30 705 O 71.1186 1.45747 -1.00433 0
M  V30 706 C 68.2476 2.6425 -2.1915 0
M  V30 707 C 67.3336 2.54435 -3.39299 0
M  V30 708 N 67.7246 2.14262 -4.58176 0
M  V30 709 C 66.0226 2.85416 -3.42715 0
M  V30 710 C 66.7236 2.15455 -5.40328 0
M  V30 711 N 65.6996 2.55558 -4.79783 0
M  V30 712 H 69.5016 0.970213 -2.77424 0
M  V30 713 H 67.0156 0.440097 -1.56323 0
M  V30 714 H 69.0126 3.40665 -2.40319 0
M  V30 715 H 67.6726 2.9709 -1.31025 0
M  V30 716 H 68.6836 1.85554 -4.83518 0
M  V30 717 H 65.3606 3.22693 -2.64906 0
M  V30 718 H 66.7506 1.86605 -6.45467 0
M  V30 719 N 69.4707 1.49531 0.497807 0
M  V30 720 C 70.3807 1.69176 1.62532 0
M  V30 721 C 71.3967 0.5744 1.64246 0
M  V30 722 O 72.5727 0.849497 1.82608 0
M  V30 723 C 69.6377 1.75695 2.98885 0
M  V30 724 C 68.6987 2.9929 3.07773 0
M  V30 725 C 67.9317 3.05488 4.37622 0
M  V30 726 O 68.1547 2.19192 5.26603 0
M  V30 727 O 67.0887 3.9798 4.51548 0
M  V30 728 H 70.9147 2.647 1.48887 0
M  V30 729 H 68.4997 1.3331 0.674441 0
M  V30 730 H 70.3817 1.82317 3.79919 0
M  V30 731 H 69.0567 0.8335 3.12785 0
M  V30 732 H 67.9637 2.98183 2.25915 0
M  V30 733 H 69.2967 3.91125 2.98801 0
M  V30 734 N 70.9488 -0.749086 1.3866 0
M  V30 735 C 72.1768 -1.53834 1.38358 0
M  V30 736 C 72.5918 -1.88783 -0.0255219 0
M  V30 737 O 71.9488 -1.53101 -0.993292 0
M  V30 738 C 71.9998 -2.83468 2.2434 0
M  V30 739 O 71.7208 -2.50008 3.5976 0
M  V30 740 C 73.2218 -3.7758 2.32267 0
M  V30 741 H 70.4418 -0.47585 0.473083 0
M  V30 742 H 72.9858 -0.926726 1.82297 0
M  V30 743 H 71.1408 -3.40995 1.83851 0
M  V30 744 H 71.5548 -3.33182 4.05081 0
M  V30 745 H 73.0288 -4.65478 2.96706 0
M  V30 746 H 73.5058 -4.18334 1.33765 0
M  V30 747 H 74.1118 -3.25976 2.73166 0
M  V30 748 N 72.4269 -1.23603 -0.977757 0
M  V30 749 C 73.6569 -1.09487 -1.75203 0
M  V30 750 C 74.0649 0.356321 -1.85814 0
M  V30 751 O 73.4079 1.25816 -1.33851 0
M  V30 752 C 73.4699 -1.64905 -3.19447 0
M  V30 753 C 73.1339 -3.13688 -3.32338 0
M  V30 754 C 74.1309 -4.10953 -3.18455 0
M  V30 755 C 71.8159 -3.53449 -3.56902 0
M  V30 756 C 73.8099 -5.45962 -3.28944 0
M  V30 757 C 71.4969 -4.88602 -3.6703 0
M  V30 758 C 72.4949 -5.84668 -3.53062 0
M  V30 759 O 72.1829 -7.17365 -3.62826 0
M  V30 760 H 71.9149 -0.38367 -0.556573 0
M  V30 761 H 74.4689 -1.6398 -1.23693 0
M  V30 762 H 72.6989 -1.04835 -3.72218 0
M  V30 763 H 74.3879 -1.46226 -3.78646 0
M  V30 764 H 75.1539 -3.81577 -2.99372 0
M  V30 765 H 71.0329 -2.79188 -3.66844 0
M  V30 766 H 74.5769 -6.20925 -3.17958 0
M  V30 767 H 70.4739 -5.17653 -3.85623 0
M  V30 768 H 71.2419 -7.2515 -3.79605 0
M  V30 769 N 73.905 1.17692 -1.04816 0
M  V30 770 C 75.321 1.39863 -0.768794 0
M  V30 771 C 75.521 1.91118 0.638451 0
M  V30 772 O 74.577 2.10036 1.40146 0
M  V30 773 C 75.89 2.39274 -1.82122 0
M  V30 774 C 77.438 2.52987 -1.843 0
M  V30 775 C 77.913 3.55669 -2.88555 0
M  V30 776 N 79.404 3.63183 -2.87493 0
M  V30 777 C 80.139 4.42381 -3.64811 0
M  V30 778 N 79.635 5.25125 -4.51903 0
M  V30 779 N 81.428 4.37217 -3.53267 0
M  V30 780 H 73.579 0.82752 -1.95617 0
M  V30 781 H 75.842 0.426123 -0.846831 0
M  V30 782 H 75.548 2.08678 -2.83102 0
M  V30 783 H 75.422 3.38725 -1.65967 0
M  V30 784 H 77.809 2.82896 -0.839869 0
M  V30 785 H 77.89 1.53623 -2.04532 0
M  V30 786 H 77.534 3.26499 -3.89051 0
M  V30 787 H 77.464 4.54728 -2.65575 0
M  V30 788 H 79.955 3.04103 -2.24343 0
M  V30 789 H 80.268 5.82728 -5.07591 0
M  V30 790 H 78.613 5.24519 -4.55966 0
M  V30 791 H 81.804 3.71626 -2.84625 0
M  V30 792 H 81.977 4.98696 -4.13771 0
M  V30 793 N 75.3831 0.828654 1.34056 0
M  V30 794 C 76.6081 0.431637 2.02859 0
M  V30 795 C 77.0331 -0.956339 1.61975 0
M  V30 796 O 76.3911 -1.62338 0.807228 0
M  V30 797 C 76.4391 0.548323 3.56407 0
M  V30 798 O 75.5431 -0.429556 4.10157 0
M  V30 799 H 74.8841 0.176886 0.640006 0
M  V30 800 H 77.4141 1.12066 1.71179 0
M  V30 801 H 77.4241 0.426196 4.05768 0
M  V30 802 H 76.0991 1.5606 3.8551 0
M  V30 803 H 74.6761 -0.265836 3.71951 0
M  V30 804 N 76.8612 -1.46375 0.584142 0
M  V30 805 C 78.0892 -2.06761 0.0759296 0
M  V30 806 C 78.5042 -1.43266 -1.22965 0
M  V30 807 O 77.8612 -0.538458 -1.74376 0
M  V30 808 C 77.9122 -3.61375 -0.0950384 0
M  V30 809 O 77.6332 -4.22495 1.15887 0
M  V30 810 C 79.1342 -4.38693 -0.637434 0
M  V30 811 H 76.3542 -0.668479 0.0581075 0
M  V30 812 H 78.8982 -1.8798 0.805218 0
M  V30 813 H 77.0532 -3.79578 -0.774554 0
M  V30 814 H 77.4672 -5.15385 0.973598 0
M  V30 815 H 78.9412 -5.47464 -0.706237 0
M  V30 816 H 79.4182 -4.06836 -1.65472 0
M  V30 817 H 80.0242 -4.25299 0.00725967 0
M  V30 818 N 78.3393 -0.321999 -1.54275 0
M  V30 819 C 79.2693 0.537411 -2.27231 0
M  V30 820 C 80.2503 1.12064 -1.27968 0
M  V30 821 O 81.4353 1.14606 -1.56777 0
M  V30 822 C 78.5653 1.69919 -3.02894 0
M  V30 823 C 77.5193 1.24534 -4.09482 0
M  V30 824 C 76.8453 2.49394 -4.72977 0
M  V30 825 C 78.1453 0.361335 -5.21049 0
M  V30 826 H 79.8393 -0.0711406 -2.99315 0
M  V30 827 H 77.3853 -0.0356555 -1.43956 0
M  V30 828 H 79.3383 2.30668 -3.52662 0
M  V30 829 H 78.0623 2.33431 -2.28424 0
M  V30 830 H 76.7213 0.660782 -3.60596 0
M  V30 831 H 76.3693 3.11265 -3.95124 0
M  V30 832 H 76.0693 2.19718 -5.44975 0
M  V30 833 H 77.5933 3.10908 -5.25517 0
M  V30 834 H 79.0073 0.875072 -5.66582 0
M  V30 835 H 77.4043 0.157428 -5.99893 0
M  V30 836 H 78.4743 -0.60822 -4.8107 0
M  V30 837 N 79.8174 1.5752 -0.0501392 0
M  V30 838 C 81.2334 1.56631 0.306402 0
M  V30 839 C 81.4334 1.0577 1.71508 0
M  V30 840 O 80.4894 0.713837 2.422 0
M  V30 841 C 81.8024 3.00393 0.135811 0
M  V30 842 C 83.3504 3.12315 0.206993 0
M  V30 843 C 83.8254 4.57954 0.064944 0
M  V30 844 N 85.3164 4.63041 0.121254 0
M  V30 845 C 86.0514 5.73389 0.0354381 0
M  V30 846 N 85.5474 6.92724 -0.102666 0
M  V30 847 N 87.3404 5.62026 0.090946 0
M  V30 848 H 79.4914 1.88903 -0.971046 0
M  V30 849 H 81.7544 0.869876 -0.376855 0
M  V30 850 H 81.4604 3.41635 -0.835384 0
M  V30 851 H 81.3344 3.66373 0.897275 0
M  V30 852 H 83.7214 2.70973 1.16866 0
M  V30 853 H 83.8024 2.49016 -0.585208 0
M  V30 854 H 83.4464 4.99981 -0.893394 0
M  V30 855 H 83.3764 5.19258 0.876277 0
M  V30 856 H 85.8674 3.77216 0.227284 0
M  V30 857 H 86.1804 7.72633 -0.160882 0
M  V30 858 H 84.5254 6.94864 -0.137737 0
M  V30 859 H 87.7164 4.67684 0.197388 0
M  V30 860 H 87.8894 6.47997 0.0206089 0
M  V30 861 N 81.2955 -0.223234 1.56011 0
M  V30 862 C 82.5235 -0.964812 1.83027 0
M  V30 863 C 82.9385 -1.78013 0.62904 0
M  V30 864 O 82.2955 -1.78008 -0.402414 0
M  V30 865 C 82.3465 -1.88373 3.08542 0
M  V30 866 O 82.0675 -1.10137 4.2403 0
M  V30 867 C 83.5685 -2.73934 3.48533 0
M  V30 868 H 80.7885 -0.282842 0.608475 0
M  V30 869 H 83.3325 -0.238971 2.03099 0
M  V30 870 H 81.4875 -2.56354 2.9045 0
M  V30 871 H 81.9015 -1.72501 4.95322 0
M  V30 872 H 83.3755 -3.34117 4.39397 0
M  V30 873 H 83.8525 -3.46244 2.70207 0
M  V30 874 H 84.4585 -2.11369 3.69057 0
M  V30 875 N 82.7736 -1.49793 -0.48987 0
M  V30 876 C 83.7036 -1.70201 -1.59856 0
M  V30 877 C 84.6846 -0.55076 -1.60937 0
M  V30 878 O 85.8696 -0.787841 -1.77501 0
M  V30 879 C 82.9996 -1.77882 -2.98287 0
M  V30 880 C 81.9536 -2.92907 -3.12073 0
M  V30 881 C 81.2796 -2.85712 -4.51965 0
M  V30 882 C 82.5796 -4.3369 -2.91051 0
M  V30 883 H 84.2736 -2.63025 -1.43032 0
M  V30 884 H 81.8196 -1.26574 -0.686664 0
M  V30 885 H 83.7726 -1.90744 -3.75759 0
M  V30 886 H 82.4966 -0.816653 -3.16225 0
M  V30 887 H 81.1556 -2.79665 -2.37029 0
M  V30 888 H 80.8036 -1.8738 -4.66795 0
M  V30 889 H 80.5036 -3.62921 -4.62128 0
M  V30 890 H 82.0276 -3.00598 -5.31482 0
M  V30 891 H 83.4416 -4.47555 -3.58284 0
M  V30 892 H 81.8386 -5.12205 -3.12675 0
M  V30 893 H 82.9086 -4.47362 -1.87071 0
M  V30 894 N 84.2517 0.741722 -1.39055 0
M  V30 895 C 85.6627 1.31966 -1.32068 0
M  V30 896 C 86.0137 1.96192 0.0180797 0
M  V30 897 O 85.1387 1.95861 0.920196 0
M  V30 898 C 85.7337 2.39954 -2.39181 0
M  V30 899 C 84.2927 2.93438 -2.35735 0
M  V30 900 C 83.4397 1.66936 -2.21422 0
M  V30 901 H 86.3907 0.539721 -1.4924 0
M  V30 902 H 86.4117 3.20182 -2.05581 0
M  V30 903 H 85.9237 1.9318 -3.36605 0
M  V30 904 H 84.0247 3.4451 -1.41929 0
M  V30 905 H 84.1377 3.4701 -3.30335 0
M  V30 906 H 82.5017 1.91016 -1.68478 0
M  V30 907 H 83.2847 1.22224 -3.20806 0
M  V30 908 N 85.7298 1.2412 0.971189 0
M  V30 909 C 86.9778 1.07668 1.71032 0
M  V30 910 C 87.2988 -0.385797 1.91146 0
M  V30 911 O 86.5688 -1.27569 1.4867 0
M  V30 912 H 85.1488 0.395429 0.633755 0
M  V30 913 H 87.8108 1.55984 1.16855 0
M  V30 914 H 86.9068 1.57195 2.69622 0
M  V30 915 N 87.2079 -1.17134 1.05439 0
M  V30 916 C 88.4359 -1.91372 0.786414 0
M  V30 917 C 88.8509 -1.76955 -0.658202 0
M  V30 918 O 88.2079 -1.10838 -1.44987 0
M  V30 919 C 88.2589 -3.42356 1.1608 0
M  V30 920 O 87.9799 -3.56332 2.54871 0
M  V30 921 C 89.4809 -4.33663 0.919322 0
M  V30 922 H 86.7009 -0.607118 0.285743 0
M  V30 923 H 89.2449 -1.48525 1.40572 0
M  V30 924 H 87.3999 -3.82939 0.586191 0
M  V30 925 H 87.8139 -4.49896 2.69618 0
M  V30 926 H 89.2879 -5.38099 1.231 0
M  V30 927 H 89.7649 -4.38959 -0.145359 0
M  V30 928 H 90.3709 -3.98796 1.47789 0
M  V30 929 N 88.686 -0.835752 -1.33615 0
M  V30 930 C 90.102 -0.523139 -1.50783 0
M  V30 931 C 90.302 0.950171 -1.77691 0
M  V30 932 O 89.358 1.73411 -1.83534 0
M  V30 933 C 90.671 -1.39378 -2.66448 0
M  V30 934 C 92.219 -1.39223 -2.80332 0
M  V30 935 C 92.694 -2.24765 -3.99055 0
M  V30 936 N 94.185 -2.22458 -4.06284 0
M  V30 937 C 94.92 -2.85386 -4.97336 0
M  V30 938 N 94.416 -3.57354 -5.93523 0
M  V30 939 N 96.209 -2.74872 -4.90308 0
M  V30 940 H 88.36 -1.78952 -1.14411 0
M  V30 941 H 90.623 -0.763297 -0.562212 0
M  V30 942 H 90.329 -2.44061 -2.53234 0
M  V30 943 H 90.203 -1.0676 -3.61776 0
M  V30 944 H 92.59 -0.353136 -2.92979 0
M  V30 945 H 92.671 -1.75846 -1.85773 0
M  V30 946 H 92.315 -3.28732 -3.87167 0
M  V30 947 H 92.245 -1.85485 -4.92852 0
M  V30 948 H 94.736 -1.70119 -3.37443 0
M  V30 949 H 95.049 -4.02584 -6.59656 0
M  V30 950 H 93.394 -3.61461 -5.93608 0
M  V30 951 H 96.585 -2.18213 -4.14126 0
M  V30 952 H 96.758 -3.24199 -5.61069 0
M  V30 953 N 90.1641 1.46063 -0.591896 0
M  V30 954 C 91.0941 2.33172 0.123673 0
M  V30 955 C 92.0751 1.45897 0.87453 0
M  V30 956 O 93.2601 1.74698 0.848181 0
M  V30 957 C 90.3901 3.28336 1.13194 0
M  V30 958 C 89.3441 4.25124 0.495324 0
M  V30 959 C 88.6701 5.09863 1.61071 0
M  V30 960 C 89.9701 5.19143 -0.573425 0
M  V30 961 H 91.6641 2.93252 -0.603646 0
M  V30 962 H 89.2101 1.41014 -0.291741 0
M  V30 963 H 91.1631 3.88137 1.64097 0
M  V30 964 H 89.8871 2.66383 1.88965 0
M  V30 965 H 88.5461 3.66599 0.00729452 0
M  V30 966 H 88.1941 4.44288 2.35832 0
M  V30 967 H 87.8941 5.75417 1.19035 0
M  V30 968 H 89.4181 5.72529 2.12233 0
M  V30 969 H 90.8321 5.73106 -0.1491 0
M  V30 970 H 89.2291 5.93089 -0.914636 0
M  V30 971 H 90.2991 4.62519 -1.45617 0
M  V30 972 N 91.6422 0.330177 1.54103 0
M  V30 973 C 92.6052 -0.520144 2.2322 0
M  V30 974 C 93.6052 -1.03828 1.22786 0
M  V30 975 O 94.7952 -0.929652 1.4732 0
M  V30 976 C 91.9272 -1.72317 2.94142 0
M  V30 977 H 93.1202 0.0841605 2.99782 0
M  V30 978 H 90.6732 0.0813433 1.56088 0
M  V30 979 H 91.4082 -2.36653 2.21734 0
M  V30 980 H 91.1932 -1.35898 3.67796 0
M  V30 981 H 92.6832 -2.3266 3.46784 0
M  V30 982 N 93.1203 -1.57491 0.0584922 0
M  V30 983 C 94.3663 -1.94081 -0.608617 0
M  V30 984 C 94.7213 -0.937438 -1.68017 0
M  V30 985 O 94.0143 0.0423034 -1.91553 0
M  V30 986 C 94.2083 -3.3513 -1.24188 0
M  V30 987 C 94.0373 -4.49095 -0.233187 0
M  V30 988 C 92.8073 -5.04988 0.177439 0
M  V30 989 C 95.0053 -5.1162 0.524306 0
M  V30 990 N 92.9873 -6.02487 1.17823 0
M  V30 991 C 94.3583 -6.04493 1.37796 0
M  V30 992 C 96.4133 -4.94489 0.581822 0
M  V30 993 C 95.1163 -6.82075 2.28399 0
M  V30 994 C 97.1423 -5.72703 1.47531 0
M  V30 995 C 96.5043 -6.65214 2.31667 0
M  V30 996 H 92.6033 -0.75752 -0.194134 0
M  V30 997 H 95.1873 -1.94248 0.132533 0
M  V30 998 H 93.3583 -3.35726 -1.95302 0
M  V30 999 H 95.0903 -3.5899 -1.86838 0
M  V30 1000 H 91.8453 -4.73165 -0.203004 0
M  V30 1001 H 92.2693 -6.55933 1.67573 0
M  V30 1002 H 96.9113 -4.22765 -0.054443 0
M  V30 1003 H 94.6293 -7.53085 2.93067 0
M  V30 1004 H 98.2153 -5.61472 1.52448 0
M  V30 1005 H 97.0953 -7.24679 2.99683 0
M  V30 1006 N 94.5984 0.214957 -1.56127 0
M  V30 1007 C 95.5284 1.2695 -1.95974 0
M  V30 1008 C 96.5094 1.48539 -0.828868 0
M  V30 1009 O 97.6944 1.60611 -1.09168 0
M  V30 1010 C 94.8244 2.61794 -2.28214 0
M  V30 1011 C 93.7784 2.54851 -3.43853 0
M  V30 1012 C 93.1044 3.93785 -3.61715 0
M  V30 1013 C 94.4044 2.09065 -4.78632 0
M  V30 1014 H 96.0984 0.93846 -2.84312 0
M  V30 1015 H 93.6444 0.449996 -1.36788 0
M  V30 1016 H 95.5974 3.35731 -2.54682 0
M  V30 1017 H 94.3214 2.96599 -1.36736 0
M  V30 1018 H 92.9804 1.8337 -3.17444 0
M  V30 1019 H 92.6284 4.25908 -2.67602 0
M  V30 1020 H 92.3284 3.90019 -4.39498 0
M  V30 1021 H 93.8524 4.69374 -3.90539 0
M  V30 1022 H 95.2664 2.7275 -5.04262 0
M  V30 1023 H 93.6634 2.16346 -5.59745 0
M  V30 1024 H 94.7334 1.04315 -4.73547 0
M  V30 1025 N 96.0765 1.50051 0.48192 0
M  V30 1026 C 97.0395 1.67584 1.5636 0
M  V30 1027 C 98.0395 0.546894 1.51214 0
M  V30 1028 O 99.2295 0.813725 1.54026 0
M  V30 1029 C 96.3615 1.691 2.96003 0
M  V30 1030 H 97.5545 2.64078 1.42136 0
M  V30 1031 H 95.1075 1.39369 0.707533 0
M  V30 1032 H 95.8425 0.742589 3.15684 0
M  V30 1033 H 95.6275 2.51105 3.01146 0
M  V30 1034 H 97.1175 1.84656 3.74556 0
M  V30 1035 N 97.5546 -0.734337 1.39446 0
M  V30 1036 C 98.8316 -1.48579 1.27215 0
M  V30 1037 C 99.2116 -2.1077 -0.117968 0
M  V30 1038 O 98.5596 -1.98646 -1.12924 0
M  V30 1039 C 98.7696 -2.53667 2.39696 0
M  V30 1040 C 100.118 -3.20031 2.79044 0
M  V30 1041 O 101.142 -2.6398 2.39151 0
M  V30 1042 O 100.001 -4.21455 3.47905 0
M  V30 1043 H 97.0946 -0.659816 0.49857 0
M  V30 1044 H 99.6406 -0.768106 1.51322 0
M  V30 1045 H 98.4126 -2.06096 3.32626 0
M  V30 1046 H 98.0356 -3.32994 2.17258 0
M  V30 1047 N 99.0327 -1.24633 -0.964593 0
M  V30 1048 C 100.444 -1.08045 -1.5226 0
M  V30 1049 C 100.795 0.347116 -1.93105 0
M  V30 1050 O 99.9197 1.23588 -1.77637 0
M  V30 1051 C 100.515 -1.95514 -2.76695 0
M  V30 1052 C 99.0737 -1.8314 -3.28841 0
M  V30 1053 C 98.2207 -1.90262 -2.01732 0
M  V30 1054 H 101.172 -1.38064 -0.782553 0
M  V30 1055 H 101.193 -1.48925 -3.50145 0
M  V30 1056 H 100.705 -2.99407 -2.46936 0
M  V30 1057 H 98.8057 -0.82092 -3.63444 0
M  V30 1058 H 98.9187 -2.67406 -3.97531 0
M  V30 1059 H 97.2827 -1.34027 -2.16584 0
M  V30 1060 H 98.0657 -2.9574 -1.74334 0
M  V30 1061 N 100.511 1.16574 -1.06058 0
M  V30 1062 C 101.788 1.83048 -0.689416 0
M  V30 1063 C 102.168 1.94122 0.829443 0
M  V30 1064 O 101.516 1.48249 1.7388 0
M  V30 1065 C 101.726 3.20186 -1.38859 0
M  V30 1066 C 103.074 3.95989 -1.53226 0
M  V30 1067 O 104.098 3.29696 -1.3483 0
M  V30 1068 O 102.957 5.14813 -1.83384 0
M  V30 1069 H 100.051 0.790258 -0.243764 0
M  V30 1070 H 102.597 1.23797 -1.16071 0
M  V30 1071 H 101.369 3.07146 -2.4244 0
M  V30 1072 H 100.992 3.87112 -0.907216 0
M  V30 1073 N 101.989 0.842826 1.3317 0
M  V30 1074 C 103.237 0.439577 1.97262 0
M  V30 1075 C 103.558 -1.00548 1.67078 0
M  V30 1076 O 102.828 -1.70098 0.971779 0
M  V30 1077 H 101.408 0.159558 0.72976 0
M  V30 1078 H 104.07 1.07665 1.62463 0
M  V30 1079 H 103.166 0.574886 3.0676 0
M  V30 1080 N 103.467 -1.45747 0.599634 0
M  V30 1081 C 104.715 -2.01893 0.0915472 0
M  V30 1082 C 105.036 -1.47155 -1.27946 0
M  V30 1083 O 104.306 -0.66273 -1.84349 0
M  V30 1084 H 102.886 -0.746363 0.0308524 0
M  V30 1085 H 105.548 -1.78645 0.779237 0
M  V30 1086 H 104.644 -3.1208 0.0353086 0
M  V30 1087 N 104.945 -0.338344 -1.53925 0
M  V30 1088 C 106.193 0.259245 -2.0043 0
M  V30 1089 C 106.514 1.51484 -1.22791 0
M  V30 1090 O 105.784 1.93037 -0.33368 0
M  V30 1091 H 104.364 0.0987845 -0.740439 0
M  V30 1092 H 107.026 -0.458302 -1.89435 0
M  V30 1093 H 106.122 0.505334 -3.07982 0
M  V30 1094 N 106.423 1.57458 -0.0668435 0
M  V30 1095 C 107.839 1.56947 0.289772 0
M  V30 1096 C 108.039 1.07584 1.70376 0
M  V30 1097 O 107.095 0.739486 2.41429 0
M  V30 1098 C 108.408 3.0052 0.103943 0
M  V30 1099 C 109.956 3.12517 0.173857 0
M  V30 1100 C 110.431 4.57997 0.0163682 0
M  V30 1101 N 111.922 4.63144 0.0721352 0
M  V30 1102 C 112.657 5.73394 -0.0253794 0
M  V30 1103 N 112.153 6.92576 -0.176133 0
M  V30 1104 N 113.946 5.62091 0.0313305 0
M  V30 1105 H 106.097 1.87863 -0.991027 0
M  V30 1106 H 108.36 0.86583 -0.38606 0
M  V30 1107 H 108.066 3.40729 -0.871572 0
M  V30 1108 H 107.94 3.67304 0.858366 0
M  V30 1109 H 110.327 2.72197 1.13985 0
M  V30 1110 H 110.408 2.48381 -0.611586 0
M  V30 1111 H 110.052 4.99005 -0.946374 0
M  V30 1112 H 109.982 5.20158 0.821153 0
M  V30 1113 H 112.473 3.77436 0.187263 0
M  V30 1114 H 112.786 7.72418 -0.242821 0
M  V30 1115 H 111.131 6.94678 -0.211429 0
M  V30 1116 H 114.322 4.67867 0.147773 0
M  V30 1117 H 114.495 6.47982 -0.048121 0
M  V30 1118 N 107.901 -0.206675 1.56239 0
M  V30 1119 C 109.312 -0.772383 1.69974 0
M  V30 1120 C 109.663 -1.84353 0.671436 0
M  V30 1121 O 108.788 -2.15695 -0.174491 0
M  V30 1122 C 109.383 -1.40779 3.08167 0
M  V30 1123 C 107.942 -1.92072 3.23706 0
M  V30 1124 C 107.089 -0.786347 2.65917 0
M  V30 1125 H 110.04 0.0182223 1.5869 0
M  V30 1126 H 110.061 -2.27696 3.04852 0
M  V30 1127 H 109.573 -0.627958 3.82986 0
M  V30 1128 H 107.674 -2.7281 2.53782 0
M  V30 1129 H 107.787 -2.09046 4.31087 0
M  V30 1130 H 106.151 -1.1976 2.24788 0
M  V30 1131 H 106.934 -0.0189416 3.43295 0
M  V30 1132 N 109.379 -1.50304 -0.473955 0
M  V30 1133 C 110.289 -1.7174 -1.5982 0
M  V30 1134 C 111.305 -0.600457 -1.63311 0
M  V30 1135 O 112.481 -0.878441 -1.81233 0
M  V30 1136 C 109.546 -1.80427 -2.96052 0
M  V30 1137 C 108.607 -3.04148 -3.02972 0
M  V30 1138 C 107.84 -3.12411 -4.32706 0
M  V30 1139 O 108.063 -2.27542 -5.23049 0
M  V30 1140 O 106.997 -4.05113 -4.45159 0
M  V30 1141 H 110.823 -2.67035 -1.44657 0
M  V30 1142 H 108.408 -1.34366 -0.653148 0
M  V30 1143 H 110.29 -1.88338 -3.7697 0
M  V30 1144 H 108.965 -0.883156 -3.11419 0
M  V30 1145 H 107.872 -3.0174 -2.21142 0
M  V30 1146 H 109.205 -3.95829 -2.92541 0
M  V30 1147 N 110.857 0.726932 -1.39834 0
M  V30 1148 C 112.085 1.51613 -1.40787 0
M  V30 1149 C 112.5 1.88799 -0.00451505 0
M  V30 1150 O 111.857 1.54662 0.968809 0
M  V30 1151 C 111.908 2.79863 -2.28821 0
M  V30 1152 O 111.629 2.44253 -3.63692 0
M  V30 1153 C 113.13 3.73837 -2.38245 0
M  V30 1154 H 110.35 0.468264 -0.480593 0
M  V30 1155 H 112.894 0.897607 -1.83748 0
M  V30 1156 H 111.049 3.38027 -1.89252 0
M  V30 1157 H 111.463 3.26695 -4.1033 0
M  V30 1158 H 112.937 4.60699 -3.04073 0
M  V30 1159 H 113.414 4.16153 -1.40403 0
M  V30 1160 H 114.02 3.21589 -2.78317 0
M  V30 1161 N 112.336 1.25143 0.95797 0
M  V30 1162 C 113.613 1.00472 1.67823 0
M  V30 1163 C 113.993 -0.470056 2.058 0
M  V30 1164 O 113.341 -1.44663 1.76875 0
M  V30 1165 C 113.551 1.9372 2.90299 0
M  V30 1166 C 114.899 2.21371 3.62326 0
M  V30 1167 O 115.923 1.91451 3.00375 0
M  V30 1168 O 114.782 2.72231 4.7387 0
M  V30 1169 H 111.876 0.380752 0.734137 0
M  V30 1170 H 114.422 1.36283 1.01119 0
M  V30 1171 H 113.194 2.93316 2.59001 0
M  V30 1172 H 112.817 1.58286 3.64735 0
M  V30 1173 N 113.814 -1.1601 1.06675 0
M  V30 1174 C 115.062 -1.86264 0.784229 0
M  V30 1175 C 115.383 -1.82328 -0.691488 0
M  V30 1176 O 114.653 -1.25947 -1.50047 0
M  V30 1177 H 113.233 -0.689621 0.28711 0
M  V30 1178 H 115.895 -1.40664 1.34906 0
M  V30 1179 H 114.991 -2.91595 1.11259 0
M  V30 1180 N 115.292 -0.849877 -1.32721 0
M  V30 1181 C 116.54 -0.450032 -1.97026 0
M  V30 1182 C 116.861 0.996604 -1.67609 0
M  V30 1183 O 116.131 1.6958 -0.980786 0
M  V30 1184 H 114.711 -0.163426 -0.728904 0
M  V30 1185 H 117.373 -1.08526 -1.6189 0
M  V30 1186 H 116.469 -0.591146 -3.0645 0
M  V30 1187 N 116.77 1.45427 -0.607355 0
M  V30 1188 C 118.018 2.01841 -0.102253 0
M  V30 1189 C 118.339 1.47832 1.27164 0
M  V30 1190 O 117.609 0.672497 1.83995 0
M  V30 1191 H 116.189 0.746188 -0.0348101 0
M  V30 1192 H 118.851 1.78229 -0.7887 0
M  V30 1193 H 117.947 3.12057 -0.0518585 0
M  V30 1194 N 118.248 0.346503 1.53744 0
M  V30 1195 C 119.494 -0.249473 2.0126 0
M  V30 1196 C 119.827 -1.49965 1.23386 0
M  V30 1197 O 119.102 -1.91811 0.32229 0
M  V30 1198 C 119.385 -0.560643 3.55709 0
M  V30 1199 C 119.238 0.701836 4.44291 0
M  V30 1200 C 120.557 -1.36905 4.18264 0
M  V30 1201 H 117.676 -0.0891987 0.731582 0
M  V30 1202 H 120.318 0.467624 1.84156 0
M  V30 1203 H 118.468 -1.17156 3.70414 0
M  V30 1204 H 120.14 1.33974 4.41417 0
M  V30 1205 H 118.383 1.32612 4.13033 0
M  V30 1206 H 119.054 0.43933 5.50249 0
M  V30 1207 H 121.53 -0.852448 4.07275 0
M  V30 1208 H 120.406 -1.55553 5.26398 0
M  V30 1209 H 120.667 -2.37203 3.73078 0
M  V30 1210 N 119.726 -1.57421 0.075193 0
M  V30 1211 C 120.974 -1.93236 -0.591974 0
M  V30 1212 C 121.295 -0.956241 -1.69944 0
M  V30 1213 O 120.565 -0.00494792 -1.95899 0
M  V30 1214 H 119.145 -0.713355 -0.22166 0
M  V30 1215 H 121.807 -1.9444 0.133848 0
M  V30 1216 H 120.903 -2.95131 -1.01509 0
M  V30 1217 N 121.204 0.198386 -1.56346 0
M  V30 1218 C 122.429 0.939682 -1.84891 0
M  V30 1219 C 122.854 1.76202 -0.658369 0
M  V30 1220 O 122.212 1.76993 0.392851 0
M  V30 1221 C 122.26 1.81428 -3.11635 0
M  V30 1222 O 121.364 2.91265 -2.91956 0
M  V30 1223 H 120.705 0.264807 -0.608912 0
M  V30 1224 H 123.235 0.204695 -2.03573 0
M  V30 1225 H 123.245 2.21958 -3.42343 0
M  V30 1226 H 121.92 1.21004 -3.97908 0
M  V30 1227 H 120.497 2.54514 -2.72538 0
M  V30 1228 N 122.682 1.50554 0.465978 0
M  V30 1229 C 123.907 1.65838 1.24549 0
M  V30 1230 C 124.332 0.343486 1.84937 0
M  V30 1231 O 123.69 -0.69324 1.67523 0
M  V30 1232 C 123.738 2.75533 2.32624 0
M  V30 1233 O 122.842 2.37142 3.37398 0
M  V30 1234 H 122.183 0.553893 0.366194 0
M  V30 1235 H 124.713 1.96959 0.553927 0
M  V30 1236 H 124.723 2.98763 2.77857 0
M  V30 1237 H 123.398 3.70962 1.88043 0
M  V30 1238 H 121.975 2.24377 2.97841 0
M  V30 1239 N 124.16 -0.719506 1.40217 0
M  V30 1240 C 125.408 -1.47641 1.3801 0
M  V30 1241 C 125.729 -1.94992 -0.018145 0
M  V30 1242 O 124.999 -1.70073 -0.972207 0
M  V30 1243 H 123.579 -0.547744 0.507923 0
M  V30 1244 H 126.241 -0.853187 1.75233 0
M  V30 1245 H 125.337 -2.35112 2.05253 0
M  V30 1246 N 125.638 -1.25649 -0.95132 0
M  V30 1247 C 126.863 -1.13443 -1.73624 0
M  V30 1248 C 127.288 0.307565 -1.85568 0
M  V30 1249 O 126.646 1.22282 -1.33854 0
M  V30 1250 C 126.694 -1.79723 -3.12621 0
M  V30 1251 O 125.798 -1.07912 -3.98031 0
M  V30 1252 H 125.139 -0.395872 -0.533086 0
M  V30 1253 H 127.669 -1.66276 -1.1922 0
M  V30 1254 H 127.679 -1.86141 -3.63064 0
M  V30 1255 H 126.354 -2.84633 -3.03244 0
M  V30 1256 H 124.931 -1.09398 -3.56492 0
M  V30 1257 N 127.117 1.15442 -1.07289 0
M  V30 1258 C 128.342 1.90638 -0.816828 0
M  V30 1259 C 128.767 1.77445 0.624083 0
M  V30 1260 O 128.125 1.10671 1.43602 0
M  V30 1261 C 128.173 3.39008 -1.22906 0
M  V30 1262 O 127.277 4.10701 -0.373975 0
M  V30 1263 H 126.618 0.593555 -0.297638 0
M  V30 1264 H 129.148 1.46198 -1.43134 0
M  V30 1265 H 129.158 3.89801 -1.20497 0
M  V30 1266 H 127.833 3.47929 -2.27856 0
M  V30 1267 H 126.41 3.70046 -0.460499 0
M  V30 1268 N 128.595 0.856903 1.32268 0
M  V30 1269 C 129.843 0.460474 1.96784 0
M  V30 1270 C 130.164 -0.987701 1.68135 0
M  V30 1271 O 129.434 -1.69058 0.989765 0
M  V30 1272 H 128.014 0.167289 0.728027 0
M  V30 1273 H 130.676 1.09383 1.61312 0
M  V30 1274 H 129.772 0.60739 3.06133 0
M  V30 1275 N 130.073 -1.45103 0.615059 0
M  V30 1276 C 131.321 -2.01784 0.112955 0
M  V30 1277 C 131.642 -1.48504 -1.26378 0
M  V30 1278 O 130.912 -0.682245 -1.83636 0
M  V30 1279 H 129.492 -0.745993 0.0387668 0
M  V30 1280 H 132.154 -1.77808 0.798141 0
M  V30 1281 H 131.25 -3.12025 0.0684069 0
M  V30 1282 N 131.551 -0.354651 -1.53558 0
M  V30 1283 C 132.799 0.237972 -2.00694 0
M  V30 1284 C 133.12 1.50173 -1.24391 0
M  V30 1285 O 132.39 1.92673 -0.354135 0
M  V30 1286 H 130.97 0.0909256 -0.741446 0
M  V30 1287 H 133.632 -0.478368 -1.88938 0
M  V30 1288 H 132.728 0.47264 -3.085 0
M  V30 1289 N 133.029 1.57378 -0.0835403 0
M  V30 1290 C 134.277 1.93547 0.581718 0
M  V30 1291 C 134.598 0.96524 1.69435 0
M  V30 1292 O 133.868 0.0153369 1.95894 0
M  V30 1293 H 132.448 0.714521 0.217874 0
M  V30 1294 H 135.11 1.94366 -0.144158 0
M  V30 1295 H 134.206 2.95665 0.999423 0
M  V30 1296 N 134.507 -0.190092 1.56449 0
M  V30 1297 C 135.747 -0.916414 1.82705 0
M  V30 1298 C 136.111 -1.80235 0.661763 0
M  V30 1299 O 137.312 -2.56484 0.80433 0
M  V30 1300 C 135.583 -1.70691 3.14005 0
M  V30 1301 S 137.142 -2.48457 3.61683 0
M  V30 1302 H 133.96 -0.307281 0.64117 0
M  V30 1303 H 136.562 -0.179433 1.94675 0
M  V30 1304 H 135.266 -1.04677 3.96826 0
M  V30 1305 H 134.797 -2.48562 3.04927 0
M  V30 1306 H 136.812 -3.72756 3.27517 0
M  V30 1307 N 135.985 -1.50799 -0.457987 0
M  V30 1308 C 136.895 -1.73426 -1.57989 0
M  V30 1309 C 137.911 -0.617745 -1.62665 0
M  V30 1310 O 139.087 -0.897614 -1.80291 0
M  V30 1311 C 136.152 -1.83557 -2.94122 0
M  V30 1312 C 135.213 -3.07345 -2.99729 0
M  V30 1313 C 134.446 -3.16983 -4.29368 0
M  V30 1314 O 134.669 -2.33077 -5.20607 0
M  V30 1315 O 133.603 -4.09812 -4.40837 0
M  V30 1316 H 137.429 -2.68555 -1.41817 0
M  V30 1317 H 135.014 -1.35052 -0.638859 0
M  V30 1318 H 136.896 -1.92326 -3.74952 0
M  V30 1319 H 135.571 -0.916137 -3.10465 0
M  V30 1320 H 134.478 -3.04068 -2.1793 0
M  V30 1321 H 135.811 -3.9891 -2.88326 0
M  V30 1322 N 137.463 0.71206 -1.40597 0
M  V30 1323 C 138.71 1.47197 -1.39065 0
M  V30 1324 C 139.038 1.94499 0.00583891 0
M  V30 1325 O 138.293 1.68752 0.99102 0
M  V30 1326 C 138.592 2.71039 -2.32965 0
M  V30 1327 C 138.258 2.42484 -3.80148 0
M  V30 1328 C 136.92 2.34406 -4.20247 0
M  V30 1329 C 139.272 2.18598 -4.73143 0
M  V30 1330 C 136.6 2.00516 -5.51371 0
M  V30 1331 C 138.952 1.8622 -6.0457 0
M  V30 1332 C 137.616 1.76626 -6.43708 0
M  V30 1333 H 136.886 0.538634 -0.508876 0
M  V30 1334 H 139.533 0.815325 -1.73276 0
M  V30 1335 H 137.838 3.41558 -1.91951 0
M  V30 1336 H 139.535 3.29138 -2.29061 0
M  V30 1337 H 136.125 2.49659 -3.4838 0
M  V30 1338 H 140.309 2.23793 -4.42979 0
M  V30 1339 H 135.565 1.91628 -5.80593 0
M  V30 1340 H 139.739 1.66752 -6.76141 0
M  V30 1341 H 137.366 1.50133 -7.45228 0
M  V30 1342 N 138.941 1.26152 0.944643 0
M  V30 1343 C 140.188 1.11492 1.69044 0
M  V30 1344 C 140.516 -0.342366 1.91463 0
M  V30 1345 O 139.771 -1.26812 1.49054 0
M  V30 1346 C 140.07 1.82541 3.07268 0
M  V30 1347 C 139.736 3.32445 3.04616 0
M  V30 1348 C 138.398 3.73337 3.036 0
M  V30 1349 C 140.75 4.28171 2.97185 0
M  V30 1350 C 138.078 5.08348 2.92915 0
M  V30 1351 C 140.43 5.63218 2.88041 0
M  V30 1352 C 139.094 6.03426 2.85366 0
M  V30 1353 H 138.364 0.407977 0.618576 0
M  V30 1354 H 141.011 1.56551 1.10291 0
M  V30 1355 H 139.316 1.29941 3.69625 0
M  V30 1356 H 141.013 1.68642 3.63815 0
M  V30 1357 H 137.603 2.99915 3.06185 0
M  V30 1358 H 141.787 3.97563 2.97081 0
M  V30 1359 H 137.043 5.38667 2.89219 0
M  V30 1360 H 141.217 6.37078 2.81254 0
M  V30 1361 H 138.844 7.07999 2.76842 0
M  V30 1362 N 140.419 -1.14872 1.07899 0
M  V30 1363 C 141.666 -1.85789 0.805532 0
M  V30 1364 C 141.994 -1.82649 -0.668561 0
M  V30 1365 O 141.249 -1.24858 -1.50695 0
M  V30 1366 C 141.548 -3.34223 1.26609 0
M  V30 1367 C 141.214 -3.57555 2.74709 0
M  V30 1368 C 139.876 -3.63631 3.1516 0
M  V30 1369 C 142.228 -3.66803 3.70277 0
M  V30 1370 C 139.556 -3.76473 4.49983 0
M  V30 1371 C 141.908 -3.8117 5.04869 0
M  V30 1372 C 140.572 -3.85494 5.44932 0
M  V30 1373 H 139.842 -0.679849 0.294765 0
M  V30 1374 H 142.489 -1.3572 1.35101 0
M  V30 1375 H 140.794 -3.86536 0.640103 0
M  V30 1376 H 142.491 -3.87511 1.03132 0
M  V30 1377 H 139.081 -3.5347 2.42398 0
M  V30 1378 H 143.265 -3.61404 3.40149 0
M  V30 1379 H 138.521 -3.7808 4.80484 0
M  V30 1380 H 142.695 -3.87268 5.78789 0
M  V30 1381 H 140.322 -3.95197 6.49403 0
M  V30 1382 N 141.898 -0.863906 -1.31812 0
M  V30 1383 C 143.175 -0.39275 -1.91616 0
M  V30 1384 C 143.555 1.12461 -1.7865 0
M  V30 1385 O 142.903 1.95045 -1.19037 0
M  V30 1386 C 143.113 -0.867385 -3.38049 0
M  V30 1387 C 144.461 -0.889966 -4.15168 0
M  V30 1388 O 145.485 -0.812635 -3.46806 0
M  V30 1389 O 144.344 -1.00079 -5.37258 0
M  V30 1390 H 141.438 -0.116358 -0.818773 0
M  V30 1391 H 143.984 -0.951418 -1.40521 0
M  V30 1392 H 142.756 -1.91081 -3.41473 0
M  V30 1393 H 142.379 -0.286687 -3.96565 0
M  V30 1394 N 143.376 1.44774 -0.622745 0
M  V30 1395 C 144.792 1.56986 -0.287652 0
M  V30 1396 C 144.992 1.61167 1.20944 0
M  V30 1397 O 144.048 1.55015 1.99315 0
M  V30 1398 C 145.361 2.84551 -0.972188 0
M  V30 1399 C 146.909 2.9825 -0.949536 0
M  V30 1400 C 147.384 4.28605 -1.61437 0
M  V30 1401 N 148.875 4.35399 -1.58057 0
M  V30 1402 C 149.61 5.34964 -2.064 0
M  V30 1403 N 149.106 6.40981 -2.62897 0
M  V30 1404 N 150.899 5.26419 -1.97078 0
M  V30 1405 H 143.05 1.40304 -1.59463 0
M  V30 1406 H 145.313 0.671794 -0.668878 0
M  V30 1407 H 145.019 2.87417 -2.02693 0
M  V30 1408 H 144.893 3.73807 -0.504771 0
M  V30 1409 H 147.28 2.94941 0.0967067 0
M  V30 1410 H 147.361 2.10364 -1.45536 0
M  V30 1411 H 147.005 4.32672 -2.66002 0
M  V30 1412 H 146.935 5.15334 -1.08344 0
M  V30 1413 H 149.426 3.59397 -1.16801 0
M  V30 1414 H 149.739 7.13225 -2.97539 0
M  V30 1415 H 148.084 6.4169 -2.66943 0
M  V30 1416 H 151.275 4.42504 -1.52669 0
M  V30 1417 H 151.448 6.03861 -2.35066 0
M  V30 1418 N 144.854 0.36279 1.53368 0
M  V30 1419 C 145.804 -0.501391 2.22419 0
M  V30 1420 C 146.788 -1.0509 1.2184 0
M  V30 1421 O 147.98 -0.981404 1.47301 0
M  V30 1422 C 145.109 -1.64201 3.01484 0
M  V30 1423 C 144.195 -1.10552 4.09438 0
M  V30 1424 N 144.586 -0.291788 5.04958 0
M  V30 1425 C 142.884 -1.3806 4.24094 0
M  V30 1426 C 143.585 0.00162655 5.817 0
M  V30 1427 N 142.561 -0.595244 5.40331 0
M  V30 1428 H 146.363 0.127159 2.93625 0
M  V30 1429 H 143.877 0.170658 1.61501 0
M  V30 1430 H 145.874 -2.27326 3.49469 0
M  V30 1431 H 144.534 -2.27365 2.31809 0
M  V30 1432 H 145.545 0.0687731 5.17854 0
M  V30 1433 H 142.222 -2.01522 3.65644 0
M  V30 1434 H 143.612 0.659278 6.68658 0
M  V30 1435 N 146.332 -1.57332 0.0918853 0
M  V30 1436 C 147.743 -1.81496 -0.437739 0
M  V30 1437 C 148.094 -1.00727 -1.6837 0
M  V30 1438 O 147.219 -0.235694 -2.15113 0
M  V30 1439 C 147.814 -3.29197 -0.800939 0
M  V30 1440 C 146.373 -3.54136 -1.27532 0
M  V30 1441 C 145.52 -2.75979 -0.270392 0
M  V30 1442 H 148.471 -1.55494 0.317366 0
M  V30 1443 H 148.492 -3.42344 -1.66074 0
M  V30 1444 H 148.004 -3.87955 0.106078 0
M  V30 1445 H 146.105 -3.00705 -2.20016 0
M  V30 1446 H 146.218 -4.62792 -1.23938 0
M  V30 1447 H 144.582 -2.43349 -0.751872 0
M  V30 1448 H 145.365 -3.37484 0.629248 0
M  V30 1449 N 147.81 0.181792 -1.56548 0
M  V30 1450 C 149.058 0.89832 -1.81038 0
M  V30 1451 C 149.379 1.83232 -0.667164 0
M  V30 1452 O 148.649 1.93372 0.313673 0
M  V30 1453 H 147.229 0.33471 -0.667816 0
M  V30 1454 H 149.891 0.184116 -1.94028 0
M  V30 1455 H 148.987 1.4815 -2.74696 0
M  V30 1456 N 149.288 1.51039 0.449983 0
M  V30 1457 C 150.534 1.63322 1.20223 0
M  V30 1458 C 150.867 0.34241 1.91158 0
M  V30 1459 O 150.142 -0.657344 1.83055 0
M  V30 1460 C 150.425 2.82801 2.22925 0
M  V30 1461 C 150.278 4.21823 1.56157 0
M  V30 1462 C 151.597 2.97807 3.24035 0
M  V30 1463 H 148.716 0.594407 0.435718 0
M  V30 1464 H 151.358 1.83489 0.493136 0
M  V30 1465 H 149.508 2.65738 2.834 0
M  V30 1466 H 151.18 4.50526 0.991162 0
M  V30 1467 H 149.423 4.25105 0.864172 0
M  V30 1468 H 150.094 5.01391 2.30891 0
M  V30 1469 H 152.57 3.13497 2.73603 0
M  V30 1470 H 151.446 3.82992 3.93202 0
M  V30 1471 H 151.707 2.09328 3.89402 0
M  V30 1472 N 150.766 -0.704594 1.40972 0
M  V30 1473 C 152.013 -1.46458 1.39844 0
M  V30 1474 C 152.341 -1.94499 0.00447594 0
M  V30 1475 O 151.596 -1.69275 -0.982057 0
M  V30 1476 C 151.895 -2.698 2.34399 0
M  V30 1477 C 151.561 -2.40464 3.81429 0
M  V30 1478 C 150.223 -2.32174 4.21484 0
M  V30 1479 C 152.575 -2.16086 4.74296 0
M  V30 1480 C 149.903 -1.97589 5.52427 0
M  V30 1481 C 152.255 -1.83011 6.05549 0
M  V30 1482 C 150.919 -1.7321 6.44635 0
M  V30 1483 H 150.189 -0.535927 0.511725 0
M  V30 1484 H 152.836 -0.806124 1.73706 0
M  V30 1485 H 151.141 -3.40536 1.93759 0
M  V30 1486 H 152.838 -3.27919 2.30804 0
M  V30 1487 H 149.428 -2.47808 3.49699 0
M  V30 1488 H 153.612 -2.2144 4.4416 0
M  V30 1489 H 148.868 -1.88547 5.81601 0
M  V30 1490 H 153.042 -1.63164 6.77016 0
M  V30 1491 H 150.669 -1.46179 7.46013 0
M  V30 1492 N 152.244 -1.26651 -0.937939 0
M  V30 1493 C 153.207 -1.08546 -2.01867 0
M  V30 1494 C 154.207 -0.0327327 -1.60767 0
M  V30 1495 O 155.397 -0.276427 -1.71993 0
M  V30 1496 C 152.529 -0.651711 -3.34613 0
M  V30 1497 H 153.722 -2.04502 -2.1936 0
M  V30 1498 H 151.275 -1.09294 -1.11734 0
M  V30 1499 H 152.01 0.309696 -3.22818 0
M  V30 1500 H 151.795 -1.41189 -3.65798 0
M  V30 1501 H 153.285 -0.546973 -4.14002 0
M  V30 1502 N 153.722 1.14298 -1.08507 0
M  V30 1503 C 154.952 1.88945 -0.835663 0
M  V30 1504 C 155.36 1.78894 0.615928 0
M  V30 1505 O 154.703 1.1468 1.43506 0
M  V30 1506 C 154.765 3.39585 -1.17994 0
M  V30 1507 C 154.429 3.7342 -2.63451 0
M  V30 1508 C 155.426 3.73454 -3.61702 0
M  V30 1509 C 153.111 4.03368 -2.99332 0
M  V30 1510 C 155.105 4.02961 -4.93864 0
M  V30 1511 C 152.792 4.32538 -4.31687 0
M  V30 1512 C 153.79 4.32318 -5.28763 0
M  V30 1513 O 153.478 4.6078 -6.58739 0
M  V30 1514 H 153.21 0.605307 -0.300965 0
M  V30 1515 H 155.764 1.45673 -1.44806 0
M  V30 1516 H 153.994 3.83315 -0.51055 0
M  V30 1517 H 155.683 3.9554 -0.911182 0
M  V30 1518 H 156.449 3.50403 -3.35325 0
M  V30 1519 H 152.328 4.02692 -2.24411 0
M  V30 1520 H 155.872 4.02704 -5.69627 0
M  V30 1521 H 151.769 4.55059 -4.57812 0
M  V30 1522 H 152.537 4.78492 -6.64069 0
M  V30 1523 N 155.201 0.870884 1.31352 0
M  V30 1524 C 156.447 0.482987 1.96965 0
M  V30 1525 C 156.78 -0.962462 1.68672 0
M  V30 1526 O 156.055 -1.6779 0.98371 0
M  V30 1527 C 156.338 0.741752 3.52378 0
M  V30 1528 C 156.191 2.2368 3.9024 0
M  V30 1529 C 157.51 0.208838 4.39604 0
M  V30 1530 H 154.629 0.176955 0.715441 0
M  V30 1531 H 157.271 1.09229 1.55464 0
M  V30 1532 H 155.421 0.223149 3.87859 0
M  V30 1533 H 157.093 2.82273 3.64856 0
M  V30 1534 H 155.336 2.70901 3.38814 0
M  V30 1535 H 156.007 2.3685 4.98604 0
M  V30 1536 H 158.483 0.652529 4.10952 0
M  V30 1537 H 157.359 0.419336 5.47296 0
M  V30 1538 H 157.62 -0.889275 4.33064 0
M  V30 1539 N 156.679 -1.44442 0.630414 0
M  V30 1540 C 157.609 -2.33418 -0.0618083 0
M  V30 1541 C 158.59 -1.48165 -0.835541 0
M  V30 1542 O 159.775 -1.76886 -0.801564 0
M  V30 1543 C 156.905 -3.31222 -1.04449 0
M  V30 1544 C 155.859 -4.26288 -0.382436 0
M  V30 1545 C 155.185 -5.13954 -1.47497 0
M  V30 1546 C 156.485 -5.1744 0.710865 0
M  V30 1547 H 158.179 -2.91548 0.681184 0
M  V30 1548 H 155.725 -1.40191 0.329026 0
M  V30 1549 H 157.678 -3.92351 -1.53748 0
M  V30 1550 H 156.402 -2.71299 -1.81836 0
M  V30 1551 H 155.061 -3.6649 0.0899054 0
M  V30 1552 H 154.709 -4.50385 -2.2397 0
M  V30 1553 H 154.409 -5.7837 -1.03737 0
M  V30 1554 H 155.933 -5.77955 -1.96979 0
M  V30 1555 H 157.347 -5.72509 0.300996 0
M  V30 1556 H 155.744 -5.90455 1.07156 0
M  V30 1557 H 156.814 -4.58496 1.57829 0
M  V30 1558 N 158.157 -0.370918 -1.53173 0
M  V30 1559 C 159.105 0.488101 -2.27421 0
M  V30 1560 C 160.099 1.07884 -1.30604 0
M  V30 1561 O 161.305 1.02143 -1.48212 0
M  V30 1562 H 157.68 0.176134 -0.731082 0
M  V30 1563 H 159.651 -0.159815 -2.97972 0
M  V30 1564 C 158.4 1.61306 -3.08019 0
M  V30 1565 H 157.723 1.1678 -3.82364 0
M  V30 1566 H 159.163 2.18872 -3.63141 0
M  V30 1567 C 157.622 2.55848 -2.19188 0
M  V30 1568 O 158.152 3.58799 -1.80626 0
M  V30 1569 N 156.358 2.2516 -1.83715 0
M  V30 1570 H 155.905 1.41476 -2.15273 0
M  V30 1571 H 155.863 2.8867 -1.24567 0
M  V30 1572 N 159.635 1.57281 -0.100228 0
M  V30 1573 C 160.865 1.98591 0.569681 0
M  V30 1574 C 161.273 0.978315 1.61943 0
M  V30 1575 O 160.616 -0.0396108 1.83657 0
M  V30 1576 C 160.678 3.36282 1.271 0
M  V30 1577 C 160.342 4.55488 0.371409 0
M  V30 1578 C 161.339 5.18491 -0.382504 0
M  V30 1579 C 159.024 5.01474 0.287965 0
M  V30 1580 C 161.018 6.25852 -1.20779 0
M  V30 1581 C 158.705 6.08701 -0.540965 0
M  V30 1582 C 159.703 6.70755 -1.28749 0
M  V30 1583 O 159.391 7.75914 -2.10269 0
M  V30 1584 H 159.123 0.65752 0.156982 0
M  V30 1585 H 161.677 2.0463 -0.177734 0
M  V30 1586 H 159.907 3.26941 2.0651 0
M  V30 1587 H 161.596 3.62005 1.83595 0
M  V30 1588 H 162.362 4.83891 -0.3278 0
M  V30 1589 H 158.241 4.52932 0.858689 0
M  V30 1590 H 161.785 6.74218 -1.79096 0
M  V30 1591 H 157.682 6.42732 -0.597131 0
M  V30 1592 H 158.45 7.92925 -2.03007 0
M  V30 1593 N 161.113 -0.173488 1.56642 0
M  V30 1594 C 162.343 -0.904781 1.85734 0
M  V30 1595 C 162.751 -1.76431 0.68328 0
M  V30 1596 O 162.094 -1.802 -0.356865 0
M  V30 1597 C 162.156 -1.83382 3.09211 0
M  V30 1598 C 161.82 -1.15411 4.42187 0
M  V30 1599 C 162.817 -0.520609 5.17287 0
M  V30 1600 C 160.502 -1.15151 4.88923 0
M  V30 1601 C 162.496 0.106412 6.37311 0
M  V30 1602 C 160.183 -0.520664 6.08878 0
M  V30 1603 C 161.181 0.107196 6.82916 0
M  V30 1604 O 160.869 0.728102 8.00596 0
M  V30 1605 H 160.601 -0.268408 0.62043 0
M  V30 1606 H 163.155 -0.179096 2.04618 0
M  V30 1607 H 161.385 -2.59976 2.86268 0
M  V30 1608 H 163.074 -2.43476 3.24768 0
M  V30 1609 H 163.84 -0.514606 4.82262 0
M  V30 1610 H 159.719 -1.62961 4.31236 0
M  V30 1611 H 163.263 0.597081 6.9504 0
M  V30 1612 H 159.16 -0.524242 6.43368 0
M  V30 1613 H 159.928 0.627138 8.16094 0
M  V30 1614 N 162.591 -1.51276 -0.441967 0
M  V30 1615 C 164.007 -1.39349 -0.778083 0
M  V30 1616 C 164.207 -0.472212 -1.95889 0
M  V30 1617 O 163.263 0.0743551 -2.5239 0
M  V30 1618 C 164.576 -2.81292 -1.0628 0
M  V30 1619 C 166.124 -2.9041 -1.16751 0
M  V30 1620 C 166.599 -4.33251 -1.48519 0
M  V30 1621 N 168.09 -4.36336 -1.55453 0
M  V30 1622 C 168.825 -5.43885 -1.81596 0
M  V30 1623 N 168.321 -6.61601 -2.05562 0
M  V30 1624 N 170.114 -5.3136 -1.8334 0
M  V30 1625 H 162.265 -2.09729 0.335774 0
M  V30 1626 H 164.528 -0.943925 0.0878028 0
M  V30 1627 H 164.234 -3.50678 -0.267905 0
M  V30 1628 H 164.108 -3.20334 -1.99163 0
M  V30 1629 H 166.495 -2.21225 -1.95304 0
M  V30 1630 H 166.576 -2.54871 -0.217801 0
M  V30 1631 H 166.22 -5.02984 -0.704958 0
M  V30 1632 H 166.15 -4.66299 -2.44689 0
M  V30 1633 H 168.641 -3.51466 -1.38853 0
M  V30 1634 H 168.954 -7.39361 -2.24867 0
M  V30 1635 H 167.299 -6.64725 -2.02894 0
M  V30 1636 H 170.49 -4.38382 -1.64132 0
M  V30 1637 H 170.663 -6.15258 -2.03377 0
M  V30 1638 N 164.069 0.697108 -1.41344 0
M  V30 1639 C 165.297 1.48593 -1.43972 0
M  V30 1640 C 165.712 1.88747 -0.0445612 0
M  V30 1641 O 165.069 1.56682 0.935785 0
M  V30 1642 C 165.12 2.74946 -2.34706 0
M  V30 1643 O 164.841 2.36484 -3.68791 0
M  V30 1644 C 166.342 3.687 -2.46121 0
M  V30 1645 H 163.562 0.457964 -0.490418 0
M  V30 1646 H 166.106 0.858429 -1.8561 0
M  V30 1647 H 164.261 3.33937 -1.9638 0
M  V30 1648 H 164.675 3.17918 -4.17167 0
M  V30 1649 H 166.149 4.54145 -3.13777 0
M  V30 1650 H 166.626 4.13081 -1.49199 0
M  V30 1651 H 167.232 3.15613 -2.85076 0
M  V30 1652 N 165.547 1.27147 0.931209 0
M  V30 1653 C 166.795 1.13055 1.6752 0
M  V30 1654 C 167.116 -0.324791 1.92276 0
M  V30 1655 O 166.386 -1.22775 1.52654 0
M  V30 1656 H 164.966 0.415391 0.620854 0
M  V30 1657 H 167.628 1.59623 1.11833 0
M  V30 1658 H 166.724 1.65694 2.64485 0
M  V30 1659 N 167.025 -1.13721 1.09112 0
M  V30 1660 C 167.972 -2.19031 0.727591 0
M  V30 1661 C 168.942 -1.63555 -0.289656 0
M  V30 1662 O 170.127 -1.90023 -0.172026 0
M  V30 1663 C 167.267 -3.4477 0.15082 0
M  V30 1664 C 166.38 -4.14365 1.22172 0
M  V30 1665 C 165.515 -5.27709 0.608042 0
M  V30 1666 C 164.554 -5.89147 1.66047 0
M  V30 1667 N 163.691 -6.93929 1.06806 0
M  V30 1668 H 168.531 -2.49475 1.62991 0
M  V30 1669 H 166.068 -1.22499 0.81439 0
M  V30 1670 H 168.026 -4.16714 -0.201358 0
M  V30 1671 H 166.656 -3.14787 -0.714783 0
M  V30 1672 H 165.708 -3.40737 1.69122 0
M  V30 1673 H 167.02 -4.56114 2.01895 0
M  V30 1674 H 166.174 -6.06355 0.204523 0
M  V30 1675 H 164.913 -4.872 -0.220769 0
M  V30 1676 H 163.918 -5.09198 2.07357 0
M  V30 1677 H 165.143 -6.31729 2.49189 0
M  V30 1678 H 163.089 -6.55483 0.260476 0
M  V30 1679 H 163.006 -7.34202 1.8023 0
M  V30 1680 H 164.274 -7.76434 0.690644 0
M  V30 1681 N 168.503 -0.877838 -1.30888 0
M  V30 1682 C 169.433 -0.35534 -2.3078 0
M  V30 1683 C 170.414 0.557994 -1.60687 0
M  V30 1684 O 171.599 0.473355 -1.88343 0
M  V30 1685 C 168.729 0.437221 -3.44537 0
M  V30 1686 C 167.683 -0.383715 -4.26276 0
M  V30 1687 C 167.009 0.535014 -5.32017 0
M  V30 1688 C 168.309 -1.62201 -4.96476 0
M  V30 1689 H 170.003 -1.19007 -2.74732 0
M  V30 1690 H 167.549 -0.573698 -1.32078 0
M  V30 1691 H 169.502 0.813334 -4.13477 0
M  V30 1692 H 168.226 1.30553 -2.99372 0
M  V30 1693 H 166.885 -0.741874 -3.59015 0
M  V30 1694 H 166.533 1.40083 -4.831 0
M  V30 1695 H 166.233 -0.0104211 -5.87599 0
M  V30 1696 H 167.757 0.907799 -6.03814 0
M  V30 1697 H 169.171 -1.31689 -5.5797 0
M  V30 1698 H 167.568 -2.10711 -5.61891 0
M  V30 1699 H 168.638 -2.37044 -4.23011 0
M  V30 1700 N 169.982 1.44106 -0.638065 0
M  V30 1701 C 170.932 2.27843 0.0847285 0
M  V30 1702 C 171.916 1.39055 0.809471 0
M  V30 1703 O 173.108 1.62808 0.694435 0
M  V30 1704 C 170.237 3.26497 1.06089 0
M  V30 1705 C 169.323 4.22772 0.33541 0
M  V30 1706 N 169.714 5.01737 -0.639787 0
M  V30 1707 C 168.012 4.42227 0.578921 0
M  V30 1708 C 168.713 5.71792 -1.06904 0
M  V30 1709 N 167.689 5.42079 -0.406395 0
M  V30 1710 H 171.491 2.86305 -0.663814 0
M  V30 1711 H 169.005 1.55627 -0.464122 0
M  V30 1712 H 171.002 3.8525 1.59337 0
M  V30 1713 H 169.662 2.69595 1.80966 0
M  V30 1714 H 170.673 5.07799 -1.01789 0
M  V30 1715 H 167.35 3.96415 1.31003 0
M  V30 1716 H 168.74 6.45205 -1.8751 0
M  V30 1717 N 171.46 0.379036 1.52974 0
M  V30 1718 C 172.7 -0.206325 2.03356 0
M  V30 1719 C 173.064 -1.44892 1.25977 0
M  V30 1720 O 174.265 -2.11078 1.66432 0
M  V30 1721 C 172.536 -0.477887 3.54191 0
M  V30 1722 S 174.095 -1.035 4.26419 0
M  V30 1723 H 170.913 -0.0590259 0.708546 0
M  V30 1724 H 173.515 0.525013 1.88319 0
M  V30 1725 H 172.219 0.433745 4.08101 0
M  V30 1726 H 171.75 -1.23793 3.73415 0
M  V30 1727 H 173.765 -2.31821 4.38718 0
M  V30 1728 N 172.938 -1.57226 0.108567 0
M  V30 1729 C 174.349 -1.8195 -0.418464 0
M  V30 1730 C 174.7 -1.02508 -1.67292 0
M  V30 1731 O 173.825 -0.258496 -2.14851 0
M  V30 1732 C 174.42 -3.30028 -0.765979 0
M  V30 1733 C 172.979 -3.55469 -1.23769 0
M  V30 1734 C 172.126 -2.7625 -0.241106 0
M  V30 1735 H 175.077 -1.55149 0.33384 0
M  V30 1736 H 175.098 -3.44086 -1.62434 0
M  V30 1737 H 174.61 -3.87821 0.147219 0
M  V30 1738 H 172.711 -3.03022 -2.16814 0
M  V30 1739 H 172.824 -4.6408 -1.19022 0
M  V30 1740 H 171.188 -2.44133 -0.72602 0
M  V30 1741 H 171.971 -3.36797 0.665007 0
M  V30 1742 N 174.416 0.165178 -1.56732 0
M  V30 1743 C 175.379 1.18822 -1.95995 0
M  V30 1744 C 176.379 1.3685 -0.84431 0
M  V30 1745 O 177.569 1.34152 -1.11126 0
M  V30 1746 C 174.701 2.5521 -2.26011 0
M  V30 1747 H 175.894 0.851825 -2.87548 0
M  V30 1748 H 173.447 0.407857 -1.50885 0
M  V30 1749 H 174.182 2.93852 -1.37191 0
M  V30 1750 H 173.967 2.43489 -3.07336 0
M  V30 1751 H 175.457 3.28927 -2.57288 0
M  V30 1752 N 175.894 1.51508 0.433938 0
M  V30 1753 C 177.171 1.54888 1.19453 0
M  V30 1754 C 177.551 0.315154 2.08734 0
M  V30 1755 O 176.899 -0.699558 2.17528 0
M  V30 1756 C 177.109 2.86467 1.99342 0
M  V30 1757 C 178.457 3.38545 2.56267 0
M  V30 1758 O 179.481 2.88041 2.0955 0
M  V30 1759 O 178.34 4.26675 3.41483 0
M  V30 1760 H 175.434 0.622863 0.544032 0
M  V30 1761 H 177.98 1.63823 0.442732 0
M  V30 1762 H 176.752 3.67718 1.33788 0
M  V30 1763 H 176.375 2.8071 2.8158 0
M  V30 1764 N 177.372 -0.689602 1.41712 0
M  V30 1765 C 178.618 -1.45181 1.41599 0
M  V30 1766 C 178.951 -1.94181 0.0270081 0
M  V30 1767 O 178.226 -1.6993 -0.946265 0
M  V30 1768 C 178.509 -2.65945 2.42787 0
M  V30 1769 C 178.362 -2.22672 3.90816 0
M  V30 1770 C 179.681 -3.68149 2.41151 0
M  V30 1771 H 176.8 -0.526576 0.515642 0
M  V30 1772 H 179.442 -0.784947 1.73028 0
M  V30 1773 H 177.592 -3.2284 2.16116 0
M  V30 1774 H 179.264 -1.71058 4.28412 0
M  V30 1775 H 177.507 -1.54394 4.05395 0
M  V30 1776 H 178.178 -3.0935 4.57172 0
M  V30 1777 H 180.654 -3.2094 2.64834 0
M  V30 1778 H 179.53 -4.50248 3.13955 0
M  V30 1779 H 179.791 -4.18259 1.43221 0
M  V30 1780 N 178.85 -1.27639 -0.924453 0
M  V30 1781 C 180.09 -1.15407 -1.68703 0
M  V30 1782 C 180.454 0.294581 -1.89727 0
M  V30 1783 O 181.655 0.539385 -2.63333 0
M  V30 1784 C 179.926 -1.9195 -3.0148 0
M  V30 1785 S 181.485 -1.95969 -3.92609 0
M  V30 1786 H 178.303 -0.411937 -0.579507 0
M  V30 1787 H 180.905 -1.61592 -1.10038 0
M  V30 1788 H 179.609 -2.96387 -2.83871 0
M  V30 1789 H 179.14 -1.46272 -3.65196 0
M  V30 1790 H 181.155 -1.05846 -4.84779 0
M  V30 1791 N 180.328 1.1314 -1.09713 0
M  V30 1792 C 181.576 1.84119 -0.833338 0
M  V30 1793 C 181.897 1.84097 0.642904 0
M  V30 1794 O 181.167 1.29881 1.46655 0
M  V30 1795 H 179.747 0.681766 -0.305293 0
M  V30 1796 H 182.409 1.37038 -1.38588 0
M  V30 1797 H 181.505 2.88543 -1.18951 0
M  V30 1798 N 181.806 0.884767 1.30421 0
M  V30 1799 C 183.217 0.553656 1.78302 0
M  V30 1800 C 183.568 -0.930153 1.7275 0
M  V30 1801 O 182.693 -1.72681 1.30423 0
M  V30 1802 C 183.288 0.998234 3.2376 0
M  V30 1803 C 181.847 0.71854 3.69478 0
M  V30 1804 C 180.994 1.18132 2.50879 0
M  V30 1805 H 183.945 1.06901 1.17294 0
M  V30 1806 H 183.966 0.327118 3.79091 0
M  V30 1807 H 183.478 2.0782 3.27769 0
M  V30 1808 H 181.579 -0.349444 3.70958 0
M  V30 1809 H 181.692 1.30595 4.60958 0
M  V30 1810 H 180.056 0.600669 2.47516 0
M  V30 1811 H 180.839 2.26902 2.57624 0
M  V30 1812 N 183.284 -1.43765 0.645699 0
M  V30 1813 C 184.214 -2.33471 -0.0370477 0
M  V30 1814 C 185.195 -1.49042 -0.819779 0
M  V30 1815 O 186.38 -1.77726 -0.782758 0
M  V30 1816 C 183.51 -3.32311 -1.0093 0
M  V30 1817 C 182.464 -4.2667 -0.337201 0
M  V30 1818 C 181.79 -5.1549 -1.42037 0
M  V30 1819 C 183.09 -5.16657 0.765706 0
M  V30 1820 H 184.784 -2.90809 0.712069 0
M  V30 1821 H 182.33 -1.39834 0.343876 0
M  V30 1822 H 184.283 -3.9396 -1.49578 0
M  V30 1823 H 183.007 -2.73213 -1.78948 0
M  V30 1824 H 181.666 -3.66374 0.128771 0
M  V30 1825 H 181.314 -4.52735 -2.1918 0
M  V30 1826 H 181.014 -5.79438 -0.975966 0
M  V30 1827 H 182.538 -5.80012 -1.90838 0
M  V30 1828 H 183.952 -5.72158 0.361702 0
M  V30 1829 H 182.349 -5.89286 1.13413 0
M  V30 1830 H 183.419 -4.56796 1.62683 0
M  V30 1831 N 184.763 -0.387143 -1.52771 0
M  V30 1832 C 186.01 0.195735 -2.01552 0
M  V30 1833 C 186.338 1.46995 -1.27369 0
M  V30 1834 O 185.593 1.92325 -0.361879 0
M  V30 1835 C 185.892 0.512209 -3.53711 0
M  V30 1836 C 185.558 -0.670202 -4.45891 0
M  V30 1837 C 184.22 -0.994586 -4.70809 0
M  V30 1838 C 186.572 -1.46134 -5.00294 0
M  V30 1839 C 183.9 -2.11169 -5.4738 0
M  V30 1840 C 186.252 -2.56903 -5.78086 0
M  V30 1841 C 184.916 -2.89852 -6.01284 0
M  V30 1842 H 184.186 0.0716246 -0.73753 0
M  V30 1843 H 186.833 -0.524046 -1.8419 0
M  V30 1844 H 185.138 1.31329 -3.69134 0
M  V30 1845 H 186.835 0.975804 -3.88946 0
M  V30 1846 H 183.425 -0.407366 -4.2666 0
M  V30 1847 H 187.609 -1.22397 -4.80971 0
M  V30 1848 H 182.865 -2.3707 -5.63567 0
M  V30 1849 H 187.039 -3.18608 -6.19243 0
M  V30 1850 H 184.666 -3.76533 -6.60399 0
M  V30 1851 N 186.241 1.57166 -0.116904 0
M  V30 1852 C 187.151 2.18745 0.847812 0
M  V30 1853 C 188.167 1.163 1.29423 0
M  V30 1854 O 189.343 1.48761 1.35765 0
M  V30 1855 C 186.408 2.77307 2.0809 0
M  V30 1856 C 185.469 3.94781 1.68661 0
M  V30 1857 C 184.702 4.50541 2.86091 0
M  V30 1858 O 184.925 4.05202 4.01456 0
M  V30 1859 O 183.859 5.41256 2.63298 0
M  V30 1860 H 187.685 3.01632 0.353778 0
M  V30 1861 H 185.27 1.49005 0.108599 0
M  V30 1862 H 187.152 3.14647 2.80313 0
M  V30 1863 H 185.827 1.97452 2.56504 0
M  V30 1864 H 184.734 3.62214 0.935518 0
M  V30 1865 H 186.067 4.76065 1.24991 0
M  V30 1866 N 187.719 -0.156864 1.56817 0
M  V30 1867 C 188.629 -1.2136 2.00771 0
M  V30 1868 C 189.645 -1.47598 0.921459 0
M  V30 1869 O 190.821 -1.59462 1.2302 0
M  V30 1870 C 187.886 -2.52943 2.37109 0
M  V30 1871 C 186.947 -2.34439 3.59634 0
M  V30 1872 C 186.18 -3.59748 3.94229 0
M  V30 1873 O 186.403 -4.65526 3.29609 0
M  V30 1874 O 185.337 -3.52998 4.8752 0
M  V30 1875 H 189.163 -0.870468 2.90958 0
M  V30 1876 H 186.748 -0.36484 1.44877 0
M  V30 1877 H 188.63 -3.30538 2.61386 0
M  V30 1878 H 187.305 -2.86806 1.5008 0
M  V30 1879 H 186.212 -1.54828 3.40557 0
M  V30 1880 H 187.545 -2.05496 4.4725 0
M  V30 1881 N 189.197 -1.51736 -0.425897 0
M  V30 1882 C 190.107 -1.76738 -1.54275 0
M  V30 1883 C 191.123 -0.65211 -1.61318 0
M  V30 1884 O 192.299 -0.935654 -1.78346 0
M  V30 1885 C 189.364 -1.89755 -2.90162 0
M  V30 1886 C 188.425 -3.13633 -2.93143 0
M  V30 1887 C 187.658 -3.2602 -4.22548 0
M  V30 1888 O 187.881 -2.44067 -5.15546 0
M  V30 1889 O 186.815 -4.19071 -4.32046 0
M  V30 1890 H 190.641 -2.71502 -1.36089 0
M  V30 1891 H 188.226 -1.36376 -0.610069 0
M  V30 1892 H 190.108 -2.00236 -3.70788 0
M  V30 1893 H 188.783 -0.981785 -3.08452 0
M  V30 1894 H 187.69 -3.08622 -2.11431 0
M  V30 1895 H 189.023 -4.04936 -2.798 0
M  V30 1896 N 190.675 0.682077 -1.42076 0
M  V30 1897 C 191.605 1.80796 -1.47767 0
M  V30 1898 C 192.586 1.6677 -0.334954 0
M  V30 1899 O 193.771 1.863 -0.548264 0
M  V30 1900 C 190.901 3.19038 -1.37229 0
M  V30 1901 C 189.855 3.47789 -2.49453 0
M  V30 1902 C 189.181 4.8553 -2.23975 0
M  V30 1903 C 190.481 3.45411 -3.91776 0
M  V30 1904 H 192.175 1.7629 -2.41997 0
M  V30 1905 H 189.721 0.846721 -1.16476 0
M  V30 1906 H 191.674 3.97528 -1.39821 0
M  V30 1907 H 190.398 3.24204 -0.394907 0
M  V30 1908 H 189.057 2.71657 -2.46166 0
M  V30 1909 H 188.705 4.87337 -1.24547 0
M  V30 1910 H 188.405 5.0573 -2.99184 0
M  V30 1911 H 189.929 5.66312 -2.28304 0
M  V30 1912 H 191.343 4.13882 -3.96705 0
M  V30 1913 H 189.74 3.77145 -4.66778 0
M  V30 1914 H 190.81 2.44122 -4.18966 0
M  V30 1915 N 192.153 1.28127 0.917671 0
M  V30 1916 C 193.381 1.17892 1.70026 0
M  V30 1917 C 193.796 -0.262958 1.8696 0
M  V30 1918 O 193.153 -1.17811 1.3938 0
M  V30 1919 C 193.204 1.86872 3.09453 0
M  V30 1920 O 192.925 3.25428 2.93306 0
M  V30 1921 C 194.426 1.8289 4.03815 0
M  V30 1922 H 191.646 0.40942 0.531617 0
M  V30 1923 H 194.19 1.69181 1.14883 0
M  V30 1924 H 192.345 1.39464 3.61426 0
M  V30 1925 H 192.759 3.59918 3.81523 0
M  V30 1926 H 194.233 2.35751 4.99125 0
M  V30 1927 H 194.71 0.800412 4.31845 0
M  V30 1928 H 195.316 2.29959 3.57769 0
M  V30 1929 N 193.631 -1.12557 1.10312 0
M  V30 1930 C 194.878 -1.84038 0.844759 0
M  V30 1931 C 195.206 -1.84026 -0.629668 0
M  V30 1932 O 194.461 -1.28026 -1.48013 0
M  V30 1933 C 194.76 -3.31462 1.33669 0
M  V30 1934 C 194.426 -3.51647 2.82232 0
M  V30 1935 C 193.088 -3.56864 3.22802 0
M  V30 1936 C 195.44 -3.58867 3.77974 0
M  V30 1937 C 192.768 -3.66844 4.57867 0
M  V30 1938 C 195.12 -3.70375 5.1284 0
M  V30 1939 C 193.784 -3.73848 5.52986 0
M  V30 1940 H 193.054 -0.673444 0.309119 0
M  V30 1941 H 195.701 -1.32824 1.37949 0
M  V30 1942 H 194.006 -3.85091 0.721949 0
M  V30 1943 H 195.703 -3.85236 1.11329 0
M  V30 1944 H 192.293 -3.48249 2.49842 0
M  V30 1945 H 196.477 -3.54107 3.47738 0
M  V30 1946 H 191.733 -3.67804 4.88396 0
M  V30 1947 H 195.907 -3.74904 5.86873 0
M  V30 1948 H 193.534 -3.81333 6.57639 0
M  V30 1949 N 195.109 -0.891671 -1.2995 0
M  V30 1950 C 196.355 -0.523649 -1.96544 0
M  V30 1951 C 196.71 0.918394 -1.69066 0
M  V30 1952 O 196.003 1.64122 -0.988659 0
M  V30 1953 C 196.197 -0.742868 -3.49594 0
M  V30 1954 C 196.026 -2.20467 -3.9195 0
M  V30 1955 C 194.796 -2.85055 -4.17219 0
M  V30 1956 C 196.994 -3.17912 -4.04273 0
M  V30 1957 N 194.976 -4.21762 -4.46083 0
M  V30 1958 C 196.347 -4.39712 -4.37097 0
M  V30 1959 C 198.402 -3.1361 -3.86721 0
M  V30 1960 C 197.105 -5.5776 -4.54199 0
M  V30 1961 C 199.131 -4.30936 -4.05028 0
M  V30 1962 C 198.493 -5.51504 -4.38204 0
M  V30 1963 H 194.592 -0.241072 -0.743914 0
M  V30 1964 H 197.176 -1.15081 -1.5705 0
M  V30 1965 H 195.347 -0.14515 -3.88129 0
M  V30 1966 H 197.079 -0.341081 -4.0326 0
M  V30 1967 H 193.834 -2.35889 -4.10674 0
M  V30 1968 H 194.258 -4.92382 -4.64638 0
M  V30 1969 H 198.9 -2.21489 -3.60142 0
M  V30 1970 H 196.618 -6.50379 -4.79618 0
M  V30 1971 H 200.204 -4.29085 -3.92909 0
M  V30 1972 H 199.084 -6.40778 -4.52077 0
M  V30 1973 N 196.587 1.43421 -0.653314 0
M  V30 1974 C 197.835 2.01414 -0.166415 0
M  V30 1975 C 198.156 1.51803 1.22397 0
M  V30 1976 O 197.426 0.730693 1.81763 0
M  V30 1977 H 196.006 0.744703 -0.0585319 0
M  V30 1978 H 198.668 1.75629 -0.845003 0
M  V30 1979 H 197.764 3.11734 -0.151111 0
M  V30 1980 N 198.065 0.39524 1.52563 0
M  V30 1981 C 199.314 -0.186321 2.00838 0
M  V30 1982 C 199.627 -1.47402 1.28577 0
M  V30 1983 O 200.833 -2.13599 1.67593 0
M  V30 1984 C 199.289 -0.382595 3.57861 0
M  V30 1985 C 198.897 0.892202 4.39026 0
M  V30 1986 C 200.641 -0.9202 4.14406 0
M  V30 1987 C 198.548 0.66388 5.87662 0
M  V30 1988 H 197.478 -0.0734041 0.750418 0
M  V30 1989 H 200.129 0.518552 1.76021 0
M  V30 1990 H 198.511 -1.14946 3.7895 0
M  V30 1991 H 199.685 1.66414 4.29701 0
M  V30 1992 H 198 1.35519 3.9373 0
M  V30 1993 H 200.597 -1.10683 5.23119 0
M  V30 1994 H 200.94 -1.89096 3.70875 0
M  V30 1995 H 201.473 -0.212751 3.97231 0
M  V30 1996 H 198.212 1.6058 6.35527 0
M  V30 1997 H 197.732 -0.0690193 5.9976 0
M  V30 1998 H 199.411 0.300699 6.46301 0
M  V30 1999 N 199.544 -1.57102 0.125237 0
M  V30 2000 C 200.821 -1.86953 -0.575142 0
M  V30 2001 C 201.201 -1.02749 -1.84407 0
M  V30 2002 O 200.549 -0.108144 -2.28244 0
M  V30 2003 C 200.759 -3.38198 -0.861583 0
M  V30 2004 C 202.107 -4.06937 -1.21192 0
M  V30 2005 O 203.131 -3.43252 -0.951645 0
M  V30 2006 O 201.99 -5.19364 -1.70068 0
M  V30 2007 H 199.084 -0.774147 -0.290906 0
M  V30 2008 H 201.63 -1.68942 0.160211 0
M  V30 2009 H 200.402 -3.91282 0.0373647 0
M  V30 2010 H 200.025 -3.61661 -1.65188 0
M  V30 2011 N 201.022 0.148545 -1.56898 0
M  V30 2012 C 201.932 1.20293 -2.01412 0
M  V30 2013 C 202.948 1.47107 -0.929273 0
M  V30 2014 O 204.124 1.58807 -1.23863 0
M  V30 2015 C 201.189 2.51682 -2.38447 0
M  V30 2016 C 200.25 2.32529 -3.60872 0
M  V30 2017 C 199.483 3.57653 -3.96132 0
M  V30 2018 O 199.706 4.63771 -3.32073 0
M  V30 2019 O 198.64 3.50408 -4.89385 0
M  V30 2020 H 202.466 0.855025 -2.91416 0
M  V30 2021 H 200.051 0.357151 -1.45068 0
M  V30 2022 H 201.933 3.29147 -2.63135 0
M  V30 2023 H 200.608 2.86006 -1.51599 0
M  V30 2024 H 199.515 1.53019 -3.41373 0
M  V30 2025 H 200.848 2.03121 -4.48333 0
M  V30 2026 N 202.5 1.5196 0.417844 0
M  V30 2027 C 203.728 1.69426 1.18753 0
M  V30 2028 C 204.143 0.399955 1.84515 0
M  V30 2029 O 203.5 -0.623288 1.71527 0
M  V30 2030 C 203.551 2.82375 2.25714 0
M  V30 2031 O 203.272 4.06793 1.62638 0
M  V30 2032 C 204.773 3.11277 3.15628 0
M  V30 2033 H 201.993 0.568031 0.357186 0
M  V30 2034 H 204.537 1.98475 0.49273 0
M  V30 2035 H 202.692 2.5587 2.90877 0
M  V30 2036 H 203.106 4.69667 2.3348 0
M  V30 2037 H 204.58 3.93843 3.86771 0
M  V30 2038 H 205.057 2.24473 3.77503 0
M  V30 2039 H 205.663 3.39515 2.56144 0
M  V30 2040 N 203.978 -0.674533 1.42435 0
M  V30 2041 C 205.255 -1.4305 1.33402 0
M  V30 2042 C 205.635 -2.11081 -0.0284674 0
M  V30 2043 O 204.983 -2.03257 -1.04397 0
M  V30 2044 C 205.193 -2.43272 2.50239 0
M  V30 2045 C 206.541 -3.07907 2.92367 0
M  V30 2046 O 207.565 -2.53599 2.50132 0
M  V30 2047 O 206.424 -4.0632 3.65467 0
M  V30 2048 H 203.518 -0.638076 0.526106 0
M  V30 2049 H 206.064 -0.703235 1.54443 0
M  V30 2050 H 204.836 -1.91803 3.41068 0
M  V30 2051 H 204.459 -3.23479 2.31186 0
M  V30 2052 N 205.456 -1.28612 -0.910864 0
M  V30 2053 C 206.702 -1.16106 -1.66274 0
M  V30 2054 C 207.035 0.289113 -1.92036 0
M  V30 2055 O 206.31 1.21 -1.52281 0
M  V30 2056 C 206.593 -1.96309 -3.01885 0
M  V30 2057 C 206.446 -3.49405 -2.8326 0
M  V30 2058 C 207.765 -1.78076 -4.02463 0
M  V30 2059 H 204.884 -0.423152 -0.603417 0
M  V30 2060 H 207.526 -1.57961 -1.05586 0
M  V30 2061 H 205.676 -1.60742 -3.53687 0
M  V30 2062 H 207.348 -3.94894 -2.38446 0
M  V30 2063 H 205.591 -3.74893 -2.18261 0
M  V30 2064 H 206.262 -4.00784 -3.79574 0
M  V30 2065 H 208.738 -2.0912 -3.59733 0
M  V30 2066 H 207.614 -2.36561 -4.95308 0
M  V30 2067 H 207.875 -0.733008 -4.35981 0
M  V30 2068 N 206.934 1.1197 -1.10907 0
M  V30 2069 C 207.844 2.21433 -0.774896 0
M  V30 2070 C 208.86 1.72478 0.229657 0
M  V30 2071 O 210.036 2.01288 0.0672008 0
M  V30 2072 C 207.101 3.4602 -0.216986 0
M  V30 2073 C 206.162 4.09791 -1.27944 0
M  V30 2074 C 205.395 5.28431 -0.748055 0
M  V30 2075 O 205.618 5.68823 0.423833 0
M  V30 2076 O 204.552 5.82644 -1.51027 0
M  V30 2077 H 208.378 2.5242 -1.68873 0
M  V30 2078 H 205.963 1.20399 -0.884555 0
M  V30 2079 H 207.845 4.21304 0.090059 0
M  V30 2080 H 206.52 3.16698 0.669633 0
M  V30 2081 H 205.427 3.36265 -1.63941 0
M  V30 2082 H 206.76 4.4328 -2.13925 0
M  V30 2083 N 208.412 0.89855 1.29475 0
M  V30 2084 C 209.823 0.572537 1.77705 0
M  V30 2085 C 210.174 -0.911778 1.73727 0
M  V30 2086 O 209.299 -1.71288 1.32247 0
M  V30 2087 C 209.894 1.03252 3.22683 0
M  V30 2088 C 208.453 0.757687 3.68695 0
M  V30 2089 C 207.6 1.20787 2.49612 0
M  V30 2090 H 210.551 1.08139 1.16153 0
M  V30 2091 H 210.572 0.367307 3.78723 0
M  V30 2092 H 210.084 2.11285 3.25546 0
M  V30 2093 H 208.185 -0.310079 3.71308 0
M  V30 2094 H 208.298 1.35476 4.59547 0
M  V30 2095 H 206.662 0.626888 2.46865 0
M  V30 2096 H 207.445 2.29622 2.55203 0
M  V30 2097 N 209.89 -1.43072 0.660911 0
M  V30 2098 C 211.13 -2.03596 0.181146 0
M  V30 2099 C 211.494 -1.51057 -1.18515 0
M  V30 2100 O 212.695 -2.03275 -1.75877 0
M  V30 2101 C 210.966 -3.56845 0.19911 0
M  V30 2102 S 212.525 -4.38289 -0.211684 0
M  V30 2103 H 209.343 -0.706954 0.0757479 0
M  V30 2104 H 211.945 -1.75027 0.870965 0
M  V30 2105 H 210.649 -3.92583 1.1961 0
M  V30 2106 H 210.18 -3.90067 -0.510996 0
M  V30 2107 H 212.195 -4.74583 -1.44863 0
M  V30 2108 N 211.368 -0.403325 -1.52352 0
M  V30 2109 C 212.608 0.173946 -2.03659 0
M  V30 2110 C 212.972 1.42869 -1.28267 0
M  V30 2111 O 214.173 2.08403 -1.69769 0
M  V30 2112 C 212.444 0.421478 -3.54906 0
M  V30 2113 S 214.003 0.967027 -4.28012 0
M  V30 2114 H 210.821 0.0477461 -0.709395 0
M  V30 2115 H 213.423 -0.554906 -1.87459 0
M  V30 2116 H 212.127 -0.498616 -4.0736 0
M  V30 2117 H 211.658 1.17837 -3.75337 0
M  V30 2118 H 213.673 2.24812 -4.4235 0
M  V30 2119 N 212.846 1.57033 -0.133567 0
M  V30 2120 C 214.092 1.96764 0.515326 0
M  V30 2121 C 214.447 1.01653 1.63353 0
M  V30 2122 O 213.74 0.0491374 1.91537 0
M  V30 2123 C 213.934 3.40674 1.08057 0
M  V30 2124 C 213.763 4.49696 0.0186522 0
M  V30 2125 C 212.533 5.03567 -0.418174 0
M  V30 2126 C 214.731 5.08536 -0.767809 0
M  V30 2127 N 212.713 5.9618 -1.46434 0
M  V30 2128 C 214.084 5.97231 -1.6648 0
M  V30 2129 C 216.139 4.9115 -0.817087 0
M  V30 2130 C 214.842 6.70401 -2.60681 0
M  V30 2131 C 216.868 5.65012 -1.74687 0
M  V30 2132 C 216.23 6.53403 -2.63141 0
M  V30 2133 H 212.329 0.765919 0.157771 0
M  V30 2134 H 214.913 1.93395 -0.22506 0
M  V30 2135 H 213.084 3.44662 1.79061 0
M  V30 2136 H 214.816 3.67495 1.69497 0
M  V30 2137 H 211.571 4.73594 -0.0229803 0
M  V30 2138 H 211.995 6.47191 -1.98678 0
M  V30 2139 H 216.637 4.22543 -0.147326 0
M  V30 2140 H 214.355 7.38245 -3.28664 0
M  V30 2141 H 217.941 5.53559 -1.79063 0
M  V30 2142 H 216.821 7.09556 -3.33917 0
M  V30 2143 N 214.325 -0.140222 1.56975 0
M  V30 2144 C 215.258 -1.20266 1.93936 0
M  V30 2145 C 216.236 -1.41212 0.806099 0
M  V30 2146 O 217.42 -1.55713 1.06234 0
M  V30 2147 C 214.547 -2.56037 2.21726 0
M  V30 2148 C 213.593 -2.51646 3.44349 0
M  V30 2149 S 214.426 -1.97678 4.97678 0
M  V30 2150 C 215.582 -3.35165 5.28597 0
M  V30 2151 H 215.815 -0.887358 2.83749 0
M  V30 2152 H 213.348 -0.346119 1.50471 0
M  V30 2153 H 215.306 -3.34167 2.38416 0
M  V30 2154 H 213.967 -2.84755 1.32566 0
M  V30 2155 H 213.16 -3.51608 3.61092 0
M  V30 2156 H 212.762 -1.81628 3.26936 0
M  V30 2157 H 215.054 -4.31302 5.2248 0
M  V30 2158 H 215.997 -3.23269 6.30002 0
M  V30 2159 H 216.405 -3.32614 4.56101 0
M  V30 2160 N 215.803 -1.52179 -0.40978 0
M  V30 2161 C 217.031 -1.70054 -1.17853 0
M  V30 2162 C 217.446 -0.409735 -1.843 0
M  V30 2163 O 216.803 0.614183 -1.71855 0
M  V30 2164 C 216.854 -2.83568 -2.24213 0
M  V30 2165 O 216.575 -4.0765 -1.60478 0
M  V30 2166 C 218.076 -3.12947 -3.13973 0
M  V30 2167 H 215.296 -0.569917 -0.354169 0
M  V30 2168 H 217.84 -1.98734 -0.482198 0
M  V30 2169 H 215.995 -2.57409 -2.89516 0
M  V30 2170 H 216.409 -4.70899 -2.30986 0
M  V30 2171 H 217.883 -3.95889 -3.84677 0
M  V30 2172 H 218.36 -2.26472 -3.76307 0
M  V30 2173 H 218.966 -3.40868 -2.5434 0
M  V30 2174 N 217.281 0.66697 -1.42791 0
M  V30 2175 C 218.511 1.45294 -1.46878 0
M  V30 2176 C 218.919 1.89027 -0.0809861 0
M  V30 2177 O 218.262 1.59219 0.916246 0
M  V30 2178 C 218.324 2.72908 -2.34012 0
M  V30 2179 C 217.988 2.51203 -3.81767 0
M  V30 2180 C 218.985 2.15302 -4.73224 0
M  V30 2181 C 216.67 2.65954 -4.26115 0
M  V30 2182 C 218.664 1.94431 -6.07022 0
M  V30 2183 C 216.351 2.44699 -5.59969 0
M  V30 2184 C 217.349 2.08992 -6.5024 0
M  V30 2185 O 217.037 1.87948 -7.81621 0
M  V30 2186 H 216.769 0.453306 -0.501487 0
M  V30 2187 H 219.323 0.826232 -1.88049 0
M  V30 2188 H 217.553 3.38089 -1.87703 0
M  V30 2189 H 219.242 3.34816 -2.29462 0
M  V30 2190 H 220.008 2.03495 -4.40244 0
M  V30 2191 H 215.887 2.92724 -3.56137 0
M  V30 2192 H 219.431 1.66484 -6.77443 0
M  V30 2193 H 215.328 2.56105 -5.9252 0
M  V30 2194 H 216.096 2.02483 -7.93059 0
M  V30 2195 N 218.759 1.29093 0.90403 0
M  V30 2196 C 220.175 1.07011 1.1841 0
M  V30 2197 C 220.375 -0.181358 2.00682 0
M  V30 2198 O 219.431 -0.880331 2.36657 0
M  V30 2199 C 220.744 2.32311 1.90924 0
M  V30 2200 C 222.292 2.37587 2.03768 0
M  V30 2201 C 222.767 3.62679 2.79693 0
M  V30 2202 N 224.258 3.63376 2.87249 0
M  V30 2203 C 224.993 4.56848 3.46522 0
M  V30 2204 N 224.489 5.60648 4.06996 0
M  V30 2205 N 226.282 4.44426 3.44154 0
M  V30 2206 H 218.433 2.09412 0.354993 0
M  V30 2207 H 220.696 0.922181 0.219742 0
M  V30 2208 H 220.402 3.23536 1.37905 0
M  V30 2209 H 220.276 2.39483 2.91424 0
M  V30 2210 H 222.663 1.46853 2.55965 0
M  V30 2211 H 222.744 2.34403 1.02415 0
M  V30 2212 H 222.388 4.53762 2.28173 0
M  V30 2213 H 222.318 3.63119 3.81381 0
M  V30 2214 H 224.809 2.88321 2.44293 0
M  V30 2215 H 225.122 6.28101 4.50232 0
M  V30 2216 H 223.467 5.64463 4.05471 0
M  V30 2217 H 226.658 3.62529 2.96126 0
M  V30 2218 H 226.831 5.17457 3.90054 0
M  V30 2219 N 220.237 -1.11381 1.11499 0
M  V30 2220 C 221.169 -2.17207 0.731704 0
M  V30 2221 C 222.182 -1.61066 -0.236957 0
M  V30 2222 O 223.371 -1.78489 -0.0197591 0
M  V30 2223 C 220.471 -3.38846 0.0607624 0
M  V30 2224 C 219.644 -4.24451 1.0564 0
M  V30 2225 C 218.703 -5.24562 0.4149 0
M  V30 2226 O 217.729 -5.59071 1.069 0
M  V30 2227 N 218.931 -5.74651 -0.821943 0
M  V30 2228 H 221.696 -2.50699 1.64225 0
M  V30 2229 H 219.257 -1.26908 1.00529 0
M  V30 2230 H 221.249 -4.02911 -0.380139 0
M  V30 2231 H 219.819 -3.03411 -0.752376 0
M  V30 2232 H 219.039 -3.56833 1.67524 0
M  V30 2233 H 220.327 -4.78486 1.72998 0
M  V30 2234 H 219.725 -5.48797 -1.37252 0
M  V30 2235 H 218.282 -6.40549 -1.20582 0
M  V30 2236 N 221.715 -0.905404 -1.28997 0
M  V30 2237 C 222.665 -0.358713 -2.25161 0
M  V30 2238 C 223.649 0.524449 -1.52113 0
M  V30 2239 O 224.841 0.365534 -1.73184 0
M  V30 2240 C 221.97 0.407609 -3.40872 0
M  V30 2241 C 221.056 -0.490797 -4.21251 0
M  V30 2242 N 221.447 -1.60061 -4.79806 0
M  V30 2243 C 219.745 -0.289636 -4.45059 0
M  V30 2244 C 220.446 -2.15757 -5.40207 0
M  V30 2245 N 219.422 -1.44988 -5.23908 0
M  V30 2246 H 223.224 -1.20642 -2.67998 0
M  V30 2247 H 220.738 -0.757103 -1.43672 0
M  V30 2248 H 222.735 0.816046 -4.08835 0
M  V30 2249 H 221.395 1.25251 -2.9957 0
M  V30 2250 H 222.406 -1.98329 -4.7842 0
M  V30 2251 H 219.083 0.51643 -4.14294 0
M  V30 2252 H 220.473 -3.09069 -5.96595 0
M  V30 2253 N 223.193 1.4272 -0.668489 0
M  V30 2254 C 224.609 1.55992 -0.33745 0
M  V30 2255 C 224.809 1.64933 1.15756 0
M  V30 2256 O 223.865 1.61278 1.94282 0
M  V30 2257 C 225.178 2.81314 -1.06222 0
M  V30 2258 C 226.726 2.95078 -1.04394 0
M  V30 2259 C 227.201 4.23252 -1.74991 0
M  V30 2260 N 228.692 4.3015 -1.71829 0
M  V30 2261 C 229.427 5.28127 -2.23315 0
M  V30 2262 N 228.923 6.32293 -2.83156 0
M  V30 2263 N 230.716 5.19882 -2.13726 0
M  V30 2264 H 222.867 1.3516 -1.63846 0
M  V30 2265 H 225.13 0.650174 -0.689912 0
M  V30 2266 H 224.836 2.80823 -2.11734 0
M  V30 2267 H 224.71 3.72012 -0.62344 0
M  V30 2268 H 227.097 2.951 0.0028244 0
M  V30 2269 H 227.178 2.05627 -1.52155 0
M  V30 2270 H 226.822 4.2399 -2.79633 0
M  V30 2271 H 226.752 5.11626 -1.24685 0
M  V30 2272 H 229.243 3.55499 -1.28175 0
M  V30 2273 H 229.556 7.03398 -3.20079 0
M  V30 2274 H 227.901 6.32873 -2.87223 0
M  V30 2275 H 231.092 4.37423 -1.66669 0
M  V30 2276 H 231.265 5.96077 -2.54158 0
M  V30 2277 N 224.671 0.411399 1.52136 0
M  V30 2278 C 225.948 -0.222308 1.94333 0
M  V30 2279 C 226.328 -1.6242 1.34844 0
M  V30 2280 O 225.676 -2.22384 0.525145 0
M  V30 2281 C 225.886 -0.226345 3.48265 0
M  V30 2282 C 227.234 -0.444592 4.22266 0
M  V30 2283 O 228.258 -0.305602 3.54887 0
M  V30 2284 O 227.117 -0.718749 5.41753 0
M  V30 2285 H 224.211 -0.143907 0.814383 0
M  V30 2286 H 226.757 0.467506 1.63133 0
M  V30 2287 H 225.529 0.75475 3.83952 0
M  V30 2288 H 225.152 -0.960163 3.85832 0
M  V30 2289 N 226.149 -1.5696 0.141893 0
M  V30 2290 C 227.112 -2.15316 -0.785587 0
M  V30 2291 C 228.112 -1.09366 -1.1788 0
M  V30 2292 O 229.302 -1.35031 -1.10056 0
M  V30 2293 C 226.434 -2.71211 -2.06537 0
M  V30 2294 H 227.627 -2.98608 -0.278041 0
M  V30 2295 H 225.18 -1.5593 -0.107519 0
M  V30 2296 H 225.915 -1.91571 -2.6167 0
M  V30 2297 H 225.7 -3.4872 -1.79268 0
M  V30 2298 H 227.19 -3.16189 -2.72789 0
M  V30 2299 N 227.627 0.131896 -1.57047 0
M  V30 2300 C 228.537 1.1815 -2.02676 0
M  V30 2301 C 229.553 1.46113 -0.944824 0
M  V30 2302 O 230.729 1.57485 -1.25541 0
M  V30 2303 C 227.794 2.49139 -2.41103 0
M  V30 2304 C 226.855 2.28688 -3.63318 0
M  V30 2305 C 226.088 3.53431 -3.99903 0
M  V30 2306 O 226.311 4.60223 -3.36973 0
M  V30 2307 O 225.245 3.45198 -4.93074 0
M  V30 2308 H 229.071 0.824069 -2.92306 0
M  V30 2309 H 226.656 0.341745 -1.45439 0
M  V30 2310 H 228.538 3.26338 -2.66611 0
M  V30 2311 H 227.213 2.84382 -1.54624 0
M  V30 2312 H 226.12 1.4939 -3.42977 0
M  V30 2313 H 227.453 1.98355 -4.50462 0
M  V30 2314 N 229.106 1.52395 0.401703 0
M  V30 2315 C 230.016 1.7917 1.51444 0
M  V30 2316 C 231.032 0.677691 1.6026 0
M  V30 2317 O 232.208 0.963909 1.76835 0
M  V30 2318 C 229.273 1.94347 2.87107 0
M  V30 2319 C 228.334 3.18257 2.88116 0
M  V30 2320 C 227.567 3.32701 4.17308 0
M  V30 2321 O 227.79 2.52238 5.11598 0
M  V30 2322 O 226.724 4.25891 4.25324 0
M  V30 2323 H 230.55 2.73633 1.31752 0
M  V30 2324 H 228.135 1.3733 0.588296 0
M  V30 2325 H 230.017 2.06109 3.67555 0
M  V30 2326 H 228.692 1.03073 3.06851 0
M  V30 2327 H 227.599 3.11947 2.06494 0
M  V30 2328 H 228.932 4.09336 2.73322 0
M  V30 2329 N 230.584 -0.659388 1.43143 0
M  V30 2330 C 231.547 -1.75432 1.47501 0
M  V30 2331 C 232.547 -1.56707 0.360512 0
M  V30 2332 O 233.737 -1.62717 0.622002 0
M  V30 2333 C 230.869 -3.14239 1.32162 0
M  V30 2334 H 232.062 -1.7295 2.45006 0
M  V30 2335 H 229.615 -0.870469 1.29817 0
M  V30 2336 H 230.35 -3.22336 0.356401 0
M  V30 2337 H 230.135 -3.29235 2.12948 0
M  V30 2338 H 231.625 -3.94094 1.3813 0
M  V30 2339 N 232.062 -1.29571 -0.897171 0
M  V30 2340 C 232.992 -1.17473 -2.01798 0
M  V30 2341 C 233.973 -0.068323 -1.69963 0
M  V30 2342 O 235.158 -0.248239 -1.92607 0
M  V30 2343 C 232.288 -0.853099 -3.36659 0
M  V30 2344 C 231.242 -1.9161 -3.82713 0
M  V30 2345 C 230.568 -1.44773 -5.14728 0
M  V30 2346 C 231.868 -3.32535 -4.02763 0
M  V30 2347 H 233.562 -2.11237 -2.12177 0
M  V30 2348 H 231.108 -1.01699 -1.01948 0
M  V30 2349 H 233.061 -0.755165 -4.14578 0
M  V30 2350 H 231.785 0.120236 -3.26379 0
M  V30 2351 H 230.444 -2.00346 -3.07013 0
M  V30 2352 H 230.092 -0.462995 -5.00865 0
M  V30 2353 H 229.792 -2.15865 -5.46513 0
M  V30 2354 H 231.316 -1.36334 -5.95185 0
M  V30 2355 H 232.73 -3.26626 -4.71156 0
M  V30 2356 H 231.127 -4.01607 -4.45905 0
M  V30 2357 H 232.197 -3.75326 -3.07016 0
M  V30 2358 N 233.54 1.10788 -1.12088 0
M  V30 2359 C 234.817 1.79136 -0.785476 0
M  V30 2360 C 235.197 1.98246 0.725377 0
M  V30 2361 O 234.545 1.57258 1.65778 0
M  V30 2362 C 234.755 3.12375 -1.55636 0
M  V30 2363 C 236.103 3.8731 -1.74001 0
M  V30 2364 O 237.127 3.22085 -1.52117 0
M  V30 2365 O 235.986 5.04369 -2.10415 0
M  V30 2366 H 233.08 0.776226 -0.285311 0
M  V30 2367 H 235.626 1.1747 -1.2247 0
M  V30 2368 H 234.398 2.93863 -2.5838 0
M  V30 2369 H 234.021 3.81758 -1.11114 0
M  V30 2370 N 235.018 0.912232 1.28515 0
M  V30 2371 C 236.267 0.540504 1.94323 0
M  V30 2372 C 236.58 -0.920044 1.72611 0
M  V30 2373 O 237.786 -1.39986 2.32629 0
M  V30 2374 C 236.242 0.915803 3.48053 0
M  V30 2375 C 235.85 2.39598 3.78546 0
M  V30 2376 C 237.594 0.614588 4.20027 0
M  V30 2377 C 235.501 2.71148 5.25578 0
M  V30 2378 H 234.431 0.198418 0.727424 0
M  V30 2379 H 237.082 1.11094 1.46049 0
M  V30 2380 H 235.464 0.274168 3.9505 0
M  V30 2381 H 236.638 3.08422 3.42364 0
M  V30 2382 H 234.953 2.66749 3.1974 0
M  V30 2383 H 237.55 0.827002 5.28266 0
M  V30 2384 H 237.893 -0.447531 4.13887 0
M  V30 2385 H 238.426 1.21462 3.78803 0
M  V30 2386 H 235.165 3.76207 5.36794 0
M  V30 2387 H 234.685 2.0696 5.62963 0
M  V30 2388 H 236.364 2.58072 5.93302 0
M  V30 2389 N 236.496 -1.42363 0.676048 0
M  V30 2390 C 237.743 -2.01522 0.19883 0
M  V30 2391 C 238.071 -1.53456 -1.19505 0
M  V30 2392 O 237.326 -0.727967 -1.81657 0
M  V30 2393 C 237.625 -3.56929 0.183431 0
M  V30 2394 C 237.291 -4.24431 1.52215 0
M  V30 2395 C 235.953 -4.42585 1.8887 0
M  V30 2396 C 238.305 -4.62459 2.40377 0
M  V30 2397 C 235.633 -4.96039 3.13309 0
M  V30 2398 C 237.985 -5.17294 3.64129 0
M  V30 2399 C 236.649 -5.33661 4.00951 0
M  V30 2400 H 235.919 -0.737419 0.0727571 0
M  V30 2401 H 238.566 -1.70531 0.871281 0
M  V30 2402 H 236.871 -3.87594 -0.572532 0
M  V30 2403 H 238.568 -4.00486 -0.203035 0
M  V30 2404 H 235.158 -4.10661 1.22701 0
M  V30 2405 H 239.342 -4.48105 2.13343 0
M  V30 2406 H 234.598 -5.06896 3.41857 0
M  V30 2407 H 238.772 -5.45704 4.32644 0
M  V30 2408 H 236.399 -5.74845 4.9745 0
M  V30 2409 N 237.974 -0.419461 -1.51915 0
M  V30 2410 C 238.884 0.407528 -2.31033 0
M  V30 2411 C 239.9 1.04413 -1.3919 0
M  V30 2412 O 241.076 1.0434 -1.72265 0
M  V30 2413 C 238.141 1.50365 -3.12396 0
M  V30 2414 C 237.202 0.889029 -4.19994 0
M  V30 2415 C 236.435 1.93291 -4.97468 0
M  V30 2416 O 236.658 3.15259 -4.75361 0
M  V30 2417 O 235.592 1.53339 -5.8204 0
M  V30 2418 H 239.418 -0.237865 -3.02767 0
M  V30 2419 H 237.003 -0.182413 -1.48282 0
M  V30 2420 H 238.885 2.13975 -3.63032 0
M  V30 2421 H 237.56 2.13345 -2.43445 0
M  V30 2422 H 236.467 0.215353 -3.7348 0
M  V30 2423 H 237.8 0.302991 -4.91267 0
M  V30 2424 N 239.452 1.56882 -0.150215 0
M  V30 2425 C 240.677 2.01027 0.510184 0
M  V30 2426 C 241.102 1.02966 1.57415 0
M  V30 2427 O 240.46 0.00590158 1.81299 0
M  V30 2428 C 240.508 3.43899 1.08472 0
M  V30 2429 O 239.612 3.4885 2.19948 0
M  V30 2430 H 238.953 0.652233 0.124451 0
M  V30 2431 H 241.483 2.03093 -0.247894 0
M  V30 2432 H 241.493 3.82766 1.41259 0
M  V30 2433 H 240.168 4.14776 0.305582 0
M  V30 2434 H 238.745 3.21827 1.88366 0
M  V30 2435 N 240.93 -0.123565 1.57115 0
M  V30 2436 C 242.341 -0.681198 1.73829 0
M  V30 2437 C 242.692 -1.80535 0.768214 0
M  V30 2438 O 241.817 -2.16317 -0.0599103 0
M  V30 2439 C 242.412 -1.24246 3.15196 0
M  V30 2440 C 240.971 -1.74643 3.33432 0
M  V30 2441 C 240.118 -0.644284 2.69711 0
M  V30 2442 H 243.069 0.102315 1.5837 0
M  V30 2443 H 243.09 -2.11216 3.16493 0
M  V30 2444 H 242.602 -0.424062 3.85776 0
M  V30 2445 H 240.703 -2.58974 2.67886 0
M  V30 2446 H 240.816 -1.85902 4.41562 0
M  V30 2447 H 239.18 -1.07676 2.3082 0
M  V30 2448 H 239.963 0.163058 3.42913 0
M  V30 2449 N 242.408 -1.52605 -0.393616 0
M  V30 2450 C 243.685 -1.58001 -1.15304 0
M  V30 2451 C 244.065 -0.370385 -2.07825 0
M  V30 2452 O 243.413 0.641638 -2.19306 0
M  V30 2453 C 243.623 -2.91652 -1.91677 0
M  V30 2454 C 244.971 -3.4522 -2.47201 0
M  V30 2455 O 245.995 -2.93495 -2.01839 0
M  V30 2456 O 244.854 -4.35579 -3.3005 0
M  V30 2457 H 241.948 -0.637068 -0.527327 0
M  V30 2458 H 244.494 -1.64939 -0.399141 0
M  V30 2459 H 243.266 -3.71136 -1.23992 0
M  V30 2460 H 242.889 -2.88077 -2.74039 0
M  V30 2461 N 243.887 0.651787 -1.4349 0
M  V30 2462 C 245.135 1.40888 -1.44897 0
M  V30 2463 C 245.456 1.94856 -0.0749086 0
M  V30 2464 O 244.726 1.74518 0.889956 0
M  V30 2465 H 243.306 0.522887 -0.533478 0
M  V30 2466 H 245.968 0.768609 -1.79104 0
M  V30 2467 H 245.064 2.25052 -2.16236 0
M  V30 2468 N 245.365 1.30045 0.890287 0
M  V30 2469 C 246.613 1.18327 1.63839 0
M  V30 2470 C 246.934 -0.263455 1.93212 0
M  V30 2471 O 246.204 -1.17856 1.56482 0
M  V30 2472 H 244.784 0.434933 0.607324 0
M  V30 2473 H 247.446 1.631 1.06698 0
M  V30 2474 H 246.542 1.74024 2.59079 0
M  V30 2475 N 246.843 -1.10192 1.12674 0
M  V30 2476 C 248.091 -1.81845 0.881861 0
M  V30 2477 C 248.412 -1.85737 -0.593867 0
M  V30 2478 O 247.682 -1.33724 -1.4316 0
M  V30 2479 H 246.262 -0.673432 0.323261 0
M  V30 2480 H 248.924 -1.33316 1.42172 0
M  V30 2481 H 248.02 -2.85288 1.2656 0
M  V30 2482 N 248.321 -0.919034 -1.28029 0
M  V30 2483 C 249.546 -0.570357 -1.99403 0
M  V30 2484 C 249.971 0.842486 -1.68178 0
M  V30 2485 O 249.329 1.56391 -0.917141 0
M  V30 2486 C 249.377 -0.792541 -3.51783 0
M  V30 2487 O 248.481 0.145988 -4.12142 0
M  V30 2488 H 247.822 -0.220555 -0.6263 0
M  V30 2489 H 250.352 -1.23592 -1.63053 0
M  V30 2490 H 250.362 -0.704708 -4.01868 0
M  V30 2491 H 249.037 -1.82247 -3.73844 0
M  V30 2492 H 247.614 0.00897528 -3.72899 0
M  V30 2493 N 249.799 1.42003 -0.683588 0
M  V30 2494 C 251.047 2.01015 -0.209101 0
M  V30 2495 C 251.368 1.54365 1.19149 0
M  V30 2496 O 250.638 0.769083 1.80172 0
M  V30 2497 H 249.218 0.743294 -0.074315 0
M  V30 2498 H 251.88 1.73798 -0.882066 0
M  V30 2499 H 250.976 3.11343 -0.2172 0
M  V30 2500 N 251.277 0.427512 1.51691 0
M  V30 2501 C 252.24 -0.377132 2.26076 0
M  V30 2502 C 253.24 -0.958089 1.29141 0
M  V30 2503 O 254.43 -0.83408 1.52934 0
M  V30 2504 C 251.562 -1.53262 3.04506 0
M  V30 2505 H 252.755 0.27464 2.9864 0
M  V30 2506 H 250.308 0.180445 1.55255 0
M  V30 2507 H 251.043 -2.22072 2.36335 0
M  V30 2508 H 250.828 -1.12232 3.75694 0
M  V30 2509 H 252.318 -2.10135 3.60878 0
M  V30 2510 N 252.755 -1.56801 0.158532 0
M  V30 2511 C 254.003 -1.96102 -0.488712 0
M  V30 2512 C 254.324 -1.04498 -1.64636 0
M  V30 2513 O 253.594 -0.108783 -1.95598 0
M  V30 2514 H 252.174 -0.724102 -0.183535 0
M  V30 2515 H 254.836 -1.93457 0.236728 0
M  V30 2516 H 253.932 -3.00097 -0.857219 0
M  V30 2517 N 254.233 0.115231 -1.57178 0
M  V30 2518 C 255.644 0.67197 -1.74188 0
M  V30 2519 C 255.995 1.80125 -0.777777 0
M  V30 2520 O 255.12 2.16346 0.0484376 0
M  V30 2521 C 255.715 1.22573 -3.1585 0
M  V30 2522 C 254.274 1.72872 -3.34353 0
M  V30 2523 C 253.421 0.629972 -2.70049 0
M  V30 2524 H 256.372 -0.110712 -1.58313 0
M  V30 2525 H 256.393 2.09535 -3.17609 0
M  V30 2526 H 255.905 0.403598 -3.85996 0
M  V30 2527 H 254.006 2.5755 -2.69256 0
M  V30 2528 H 254.119 1.83557 -4.42542 0
M  V30 2529 H 252.483 1.0645 -2.31388 0
M  V30 2530 H 253.266 -0.181241 -3.42821 0
M  V30 2531 N 255.711 1.52812 0.385517 0
M  V30 2532 C 256.936 1.72207 1.15583 0
M  V30 2533 C 257.361 0.441034 1.82857 0
M  V30 2534 O 256.719 -0.603465 1.70962 0
M  V30 2535 C 256.767 2.87476 2.17692 0
M  V30 2536 O 255.871 2.54693 3.24354 0
M  V30 2537 H 255.212 0.572526 0.336319 0
M  V30 2538 H 257.742 1.99618 0.448744 0
M  V30 2539 H 257.752 3.13072 2.6163 0
M  V30 2540 H 256.427 3.80408 1.68115 0
M  V30 2541 H 255.004 2.3985 2.85529 0
M  V30 2542 N 257.189 -0.644168 1.43834 0
M  V30 2543 C 258.466 -1.40188 1.36406 0
M  V30 2544 C 258.846 -2.11094 0.0163124 0
M  V30 2545 O 258.194 -2.05426 -1.00062 0
M  V30 2546 C 258.404 -2.3791 2.55343 0
M  V30 2547 C 259.752 -3.01637 2.98832 0
M  V30 2548 O 260.776 -2.48237 2.55455 0
M  V30 2549 O 259.635 -3.98477 3.74003 0
M  V30 2550 H 256.729 -0.626773 0.539523 0
M  V30 2551 H 259.275 -0.670317 1.559 0
M  V30 2552 H 258.047 -1.84525 3.4506 0
M  V30 2553 H 257.67 -3.18503 2.37995 0
M  V30 2554 N 258.668 -1.30515 -0.883378 0
M  V30 2555 C 259.578 -1.18959 -2.02203 0
M  V30 2556 C 260.594 -0.109172 -1.73657 0
M  V30 2557 O 261.77 -0.324413 -1.9877 0
M  V30 2558 C 258.835 -0.883871 -3.35244 0
M  V30 2559 C 257.896 -2.04982 -3.77201 0
M  V30 2560 C 257.129 -1.75859 -5.03894 0
M  V30 2561 O 257.352 -0.687276 -5.66244 0
M  V30 2562 O 256.286 -2.61146 -5.42297 0
M  V30 2563 H 260.112 -2.14616 -2.1488 0
M  V30 2564 H 257.697 -1.10124 -1.0096 0
M  V30 2565 H 259.579 -0.728644 -4.15053 0
M  V30 2566 H 258.254 0.0427798 -3.23672 0
M  V30 2567 H 257.161 -2.26038 -2.9809 0
M  V30 2568 H 258.494 -2.95825 -3.93381 0
M  V30 2569 N 260.146 1.09593 -1.13257 0
M  V30 2570 C 261.109 2.14359 -0.811358 0
M  V30 2571 C 262.109 1.59808 0.178377 0
M  V30 2572 O 263.299 1.74132 -0.0484911 0
M  V30 2573 C 260.431 3.40269 -0.207276 0
M  V30 2574 H 261.624 2.44284 -1.73969 0
M  V30 2575 H 259.177 1.25102 -0.936973 0
M  V30 2576 H 259.912 3.15969 0.73036 0
M  V30 2577 H 259.697 3.81154 -0.919992 0
M  V30 2578 H 261.187 4.176 0.000667944 0
M  V30 2579 N 261.624 0.925811 1.2754 0
M  V30 2580 C 262.872 0.564138 1.94067 0
M  V30 2581 C 263.193 -0.897188 1.73134 0
M  V30 2582 O 262.463 -1.63573 1.07799 0
M  V30 2583 H 261.043 0.205645 0.718136 0
M  V30 2584 H 263.705 1.1778 1.55287 0
M  V30 2585 H 262.801 0.76881 3.02483 0
M  V30 2586 N 263.102 -1.41638 0.69111 0
M  V30 2587 C 264.379 -1.95036 0.148421 0
M  V30 2588 C 264.759 -1.63072 -1.34055 0
M  V30 2589 O 264.107 -0.93538 -2.08478 0
M  V30 2590 C 264.317 -3.46279 0.434951 0
M  V30 2591 C 265.665 -4.23069 0.360275 0
M  V30 2592 O 266.689 -3.54277 0.369613 0
M  V30 2593 O 265.548 -5.45583 0.316534 0
M  V30 2594 H 262.642 -0.826908 0.0123654 0
M  V30 2595 H 265.188 -1.5138 0.766963 0
M  V30 2596 H 263.96 -3.6281 1.46576 0
M  V30 2597 H 263.583 -3.97019 -0.214787 0
M  V30 2598 N 264.58 -0.43555 -1.51462 0
M  V30 2599 C 265.857 0.191364 -1.94662 0
M  V30 2600 C 266.237 1.60254 -1.37411 0
M  V30 2601 O 265.585 2.2152 -0.560458 0
M  V30 2602 C 265.795 0.17091 -3.48581 0
M  V30 2603 C 267.143 0.377357 -4.2292 0
M  V30 2604 O 268.167 0.249104 -3.55328 0
M  V30 2605 O 267.026 0.63247 -5.42828 0
M  V30 2606 H 264.12 0.130932 -0.816569 0
M  V30 2607 H 266.666 -0.4934 -1.62369 0
M  V30 2608 H 265.438 -0.815738 -3.82703 0
M  V30 2609 H 265.061 0.898659 -3.87311 0
M  V30 2610 N 266.058 1.56714 -0.166846 0
M  V30 2611 C 266.968 2.21331 0.777791 0
M  V30 2612 C 267.984 1.20358 1.25658 0
M  V30 2613 O 269.16 1.53005 1.30964 0
M  V30 2614 C 266.225 2.83787 1.99163 0
M  V30 2615 C 265.286 3.99947 1.56016 0
M  V30 2616 C 264.519 4.59415 2.71613 0
M  V30 2617 O 264.742 4.17769 3.88362 0
M  V30 2618 O 263.676 5.49359 2.45945 0
M  V30 2619 H 267.502 3.02605 0.257636 0
M  V30 2620 H 265.087 1.49275 0.0611393 0
M  V30 2621 H 266.969 3.23405 2.70161 0
M  V30 2622 H 265.644 2.05513 2.50092 0
M  V30 2623 H 264.551 3.65007 0.819809 0
M  V30 2624 H 265.884 4.79801 1.09782 0
M  V30 2625 N 267.536 -0.106894 1.57237 0
M  V30 2626 C 268.952 -0.46078 1.52804 0
M  V30 2627 C 269.152 -1.81184 0.881746 0
M  V30 2628 O 268.208 -2.48102 0.469224 0
M  V30 2629 C 269.521 -0.434127 2.9755 0
M  V30 2630 C 271.069 -0.516821 3.08704 0
M  V30 2631 C 271.544 -0.520436 4.55033 0
M  V30 2632 N 273.035 -0.58153 4.59535 0
M  V30 2633 C 273.77 -0.605973 5.70189 0
M  V30 2634 N 273.266 -0.587331 6.90306 0
M  V30 2635 N 275.059 -0.649895 5.5833 0
M  V30 2636 H 267.21 0.778203 1.9763 0
M  V30 2637 H 269.473 0.288403 0.903066 0
M  V30 2638 H 269.179 0.491197 3.48253 0
M  V30 2639 H 269.053 -1.25748 3.55622 0
M  V30 2640 H 271.44 -1.43256 2.57995 0
M  V30 2641 H 271.521 0.334449 2.53604 0
M  V30 2642 H 271.165 0.391313 5.0639 0
M  V30 2643 H 271.095 -1.38876 5.07958 0
M  V30 2644 H 273.586 -0.60161 3.73081 0
M  V30 2645 H 273.899 -0.60894 7.70397 0
M  V30 2646 H 272.244 -0.554564 6.92784 0
M  V30 2647 H 275.435 -0.661907 4.63397 0
M  V30 2648 H 275.608 -0.665476 6.44574 0
M  V30 2649 N 269.014 -1.53014 -0.377408 0
M  V30 2650 C 269.924 -1.81557 -1.48574 0
M  V30 2651 C 270.94 -0.703102 -1.59162 0
M  V30 2652 O 272.116 -0.99192 -1.75279 0
M  V30 2653 C 269.181 -1.9889 -2.83978 0
M  V30 2654 C 268.242 -3.22801 -2.83016 0
M  V30 2655 C 267.475 -3.39298 -4.11962 0
M  V30 2656 O 267.698 -2.60345 -5.0752 0
M  V30 2657 O 266.632 -4.32604 -4.18494 0
M  V30 2658 H 270.458 -2.75695 -1.27382 0
M  V30 2659 H 268.043 -1.38248 -0.566373 0
M  V30 2660 H 269.925 -2.11931 -3.6423 0
M  V30 2661 H 268.6 -1.07942 -3.05172 0
M  V30 2662 H 267.507 -3.15193 -2.01505 0
M  V30 2663 H 268.84 -4.13632 -2.66775 0
M  V30 2664 N 270.492 0.636531 -1.44174 0
M  V30 2665 C 271.422 1.76003 -1.53444 0
M  V30 2666 C 272.403 1.65619 -0.387841 0
M  V30 2667 O 273.588 1.84461 -0.607257 0
M  V30 2668 C 270.718 3.14511 -1.4731 0
M  V30 2669 C 269.672 3.39677 -2.60391 0
M  V30 2670 C 268.998 4.78159 -2.39308 0
M  V30 2671 C 270.298 3.32772 -4.02567 0
M  V30 2672 H 271.992 1.68501 -2.47483 0
M  V30 2673 H 269.538 0.809237 -1.19111 0
M  V30 2674 H 271.491 3.92878 -1.52397 0
M  V30 2675 H 270.215 3.22783 -0.49785 0
M  V30 2676 H 268.874 2.63688 -2.54684 0
M  V30 2677 H 268.522 4.83128 -1.39988 0
M  V30 2678 H 268.222 4.95956 -3.15122 0
M  V30 2679 H 269.746 5.58762 -2.46205 0
M  V30 2680 H 271.16 4.01051 -4.09672 0
M  V30 2681 H 269.557 3.62104 -4.7854 0
M  V30 2682 H 270.627 2.30669 -4.2652 0
M  V30 2683 N 271.97 1.30982 0.876444 0
M  V30 2684 C 272.933 1.18054 1.96459 0
M  V30 2685 C 273.933 0.109399 1.60427 0
M  V30 2686 O 275.123 0.358173 1.70478 0
M  V30 2687 C 272.255 0.810616 3.31122 0
M  V30 2688 H 273.448 2.14735 2.09354 0
M  V30 2689 H 271.001 1.145 1.06392 0
M  V30 2690 H 271.736 -0.155322 3.23928 0
M  V30 2691 H 271.521 1.58481 3.58645 0
M  V30 2692 H 273.011 0.743876 4.10921 0
M  V30 2693 N 273.449 -1.08991 1.13837 0
M  V30 2694 C 274.379 -2.17771 0.842507 0
M  V30 2695 C 275.36 -1.6892 -0.20001 0
M  V30 2696 O 276.545 -1.94113 -0.0579731 0
M  V30 2697 C 273.675 -3.4589 0.312644 0
M  V30 2698 C 272.629 -4.08099 1.28992 0
M  V30 2699 C 271.955 -5.31098 0.619623 0
M  V30 2700 C 273.255 -4.50077 2.65005 0
M  V30 2701 H 274.949 -2.42777 1.75213 0
M  V30 2702 H 272.495 -1.16682 0.843875 0
M  V30 2703 H 274.448 -4.21297 0.0933043 0
M  V30 2704 H 273.172 -3.20419 -0.632382 0
M  V30 2705 H 271.831 -3.34717 1.49533 0
M  V30 2706 H 271.479 -5.0191 -0.33102 0
M  V30 2707 H 271.179 -5.73674 1.27167 0
M  V30 2708 H 272.703 -6.09224 0.409669 0
M  V30 2709 H 274.117 -5.16688 2.48407 0
M  V30 2710 H 272.514 -5.03553 3.26427 0
M  V30 2711 H 273.584 -3.62257 3.22332 0
M  V30 2712 N 274.927 -0.932562 -1.27047 0
M  V30 2713 C 275.859 -0.392734 -2.2581 0
M  V30 2714 C 276.872 0.479241 -1.55586 0
M  V30 2715 O 278.061 0.291078 -1.76111 0
M  V30 2716 C 275.161 0.455456 -3.35826 0
M  V30 2717 C 274.334 -0.398355 -4.35582 0
M  V30 2718 C 273.393 0.387985 -5.24768 0
M  V30 2719 O 272.419 -0.206003 -5.68827 0
M  V30 2720 N 273.621 1.68664 -5.55457 0
M  V30 2721 H 276.386 -1.24173 -2.72766 0
M  V30 2722 H 273.947 -0.800511 -1.40725 0
M  V30 2723 H 275.939 0.988692 -3.92437 0
M  V30 2724 H 274.509 1.20522 -2.88432 0
M  V30 2725 H 273.729 -1.11286 -3.78165 0
M  V30 2726 H 275.017 -0.981889 -4.99236 0
M  V30 2727 H 274.415 2.19147 -5.21528 0
M  V30 2728 H 272.972 2.1663 -6.14748 0
M  V30 2729 N 276.405 1.4127 -0.698611 0
M  V30 2730 C 277.821 1.55241 -0.370462 0
M  V30 2731 C 278.021 1.67351 1.12231 0
M  V30 2732 O 277.077 1.65363 1.90818 0
M  V30 2733 C 278.39 2.78997 -1.12165 0
M  V30 2734 C 279.938 2.92797 -1.1063 0
M  V30 2735 C 280.413 4.19445 -1.8393 0
M  V30 2736 N 281.904 4.26409 -1.80914 0
M  V30 2737 C 282.639 5.23271 -2.34467 0
M  V30 2738 N 282.135 6.26145 -2.96504 0
M  V30 2739 N 283.928 5.15232 -2.24706 0
M  V30 2740 H 276.079 1.31654 -1.66676 0
M  V30 2741 H 278.342 0.635393 -0.703548 0
M  V30 2742 H 278.048 2.76268 -2.17644 0
M  V30 2743 H 277.922 3.70606 -0.702209 0
M  V30 2744 H 280.309 2.95039 -0.0597713 0
M  V30 2745 H 280.39 2.02353 -1.56483 0
M  V30 2746 H 280.034 4.17964 -2.88563 0
M  V30 2747 H 279.964 5.08866 -1.35509 0
M  V30 2748 H 282.455 3.527 -1.35687 0
M  V30 2749 H 282.768 6.96451 -3.34927 0
M  V30 2750 H 281.113 6.26638 -3.00583 0
M  V30 2751 H 284.304 4.33789 -1.7591 0
M  V30 2752 H 284.477 5.90552 -2.66745 0
M  V30 2753 N 277.883 0.443576 1.51229 0
M  V30 2754 C 278.813 -0.355142 2.30783 0
M  V30 2755 C 279.794 -1.0154 1.36468 0
M  V30 2756 O 280.979 -1.01785 1.65389 0
M  V30 2757 C 278.109 -1.45312 3.15439 0
M  V30 2758 C 277.063 -0.916002 4.18083 0
M  V30 2759 C 276.389 -2.1102 4.91299 0
M  V30 2760 C 277.689 0.0538602 5.22272 0
M  V30 2761 H 279.383 0.308767 2.97804 0
M  V30 2762 H 276.929 0.149937 1.43217 0
M  V30 2763 H 278.882 -2.01914 3.69876 0
M  V30 2764 H 277.606 -2.14541 2.46252 0
M  V30 2765 H 276.265 -0.372145 3.64706 0
M  V30 2766 H 275.913 -2.78882 4.18609 0
M  V30 2767 H 275.613 -1.75717 5.60712 0
M  V30 2768 H 277.137 -2.68164 5.48562 0
M  V30 2769 H 278.551 -0.422069 5.71744 0
M  V30 2770 H 276.948 0.319776 5.99247 0
M  V30 2771 H 278.018 0.98858 4.74716 0
M  V30 2772 N 279.361 -1.56624 0.175154 0
M  V30 2773 C 280.609 -1.96609 -0.467885 0
M  V30 2774 C 280.93 -1.06238 -1.63519 0
M  V30 2775 O 280.2 -0.129523 -1.95471 0
M  V30 2776 H 278.78 -0.726008 -0.175845 0
M  V30 2777 H 281.442 -1.93195 0.257234 0
M  V30 2778 H 280.538 -3.00989 -0.825342 0
M  V30 2779 N 280.839 0.0985539 -1.57292 0
M  V30 2780 C 282.25 0.653457 -1.74891 0
M  V30 2781 C 282.601 1.7929 -0.796838 0
M  V30 2782 O 281.726 2.16385 0.0254886 0
M  V30 2783 C 282.321 1.19216 -3.17133 0
M  V30 2784 C 280.88 1.69316 -3.36168 0
M  V30 2785 C 280.027 0.601294 -2.70702 0
M  V30 2786 H 282.978 -0.127497 -1.58187 0
M  V30 2787 H 282.999 2.06154 -3.19814 0
M  V30 2788 H 282.511 0.362635 -3.86402 0
M  V30 2789 H 280.612 2.5468 -2.71972 0
M  V30 2790 H 280.725 1.78853 -4.44464 0
M  V30 2791 H 279.089 1.0399 -2.32504 0
M  V30 2792 H 279.872 -0.217592 -3.4261 0
M  V30 2793 N 282.317 1.53212 0.369288 0
M  V30 2794 C 283.267 1.75769 1.45222 0
M  V30 2795 C 284.251 0.612136 1.48801 0
M  V30 2796 O 285.443 0.870674 1.54105 0
M  V30 2797 C 282.572 1.94769 2.82701 0
M  V30 2798 C 281.658 3.15315 2.83615 0
M  V30 2799 N 282.049 4.37295 2.54178 0
M  V30 2800 C 280.347 3.15962 3.14776 0
M  V30 2801 C 281.048 5.19015 2.62675 0
M  V30 2802 N 280.024 4.55142 2.97232 0
M  V30 2803 H 283.826 2.67691 1.2132 0
M  V30 2804 H 281.34 1.51787 0.577438 0
M  V30 2805 H 283.337 2.09056 3.60696 0
M  V30 2806 H 281.997 1.04073 3.07569 0
M  V30 2807 H 283.008 4.65091 2.27839 0
M  V30 2808 H 279.685 2.35144 3.44983 0
M  V30 2809 H 281.075 6.26305 2.43294 0
M  V30 2810 N 283.795 -0.628877 1.44509 0
M  V30 2811 C 284.705 -1.7694 1.54044 0
M  V30 2812 C 285.721 -1.68705 0.425987 0
M  V30 2813 O 286.897 -1.89442 0.683656 0
M  V30 2814 C 283.962 -3.13332 1.48405 0
M  V30 2815 C 283.023 -3.33181 2.70719 0
M  V30 2816 C 282.256 -4.63067 2.6534 0
M  V30 2817 O 282.479 -5.44017 1.71469 0
M  V30 2818 O 281.413 -4.85167 3.56226 0
M  V30 2819 H 285.239 -1.71848 2.50403 0
M  V30 2820 H 282.824 -0.790378 1.26781 0
M  V30 2821 H 284.706 -3.94634 1.47791 0
M  V30 2822 H 283.381 -3.1896 0.551898 0
M  V30 2823 H 282.288 -2.51549 2.769 0
M  V30 2824 H 283.621 -3.32416 3.62988 0
M  V30 2825 N 285.273 -1.31445 -0.869486 0
M  V30 2826 C 286.521 -1.20918 -1.61936 0
M  V30 2827 C 286.842 0.232683 -1.93607 0
M  V30 2828 O 286.112 1.15352 -1.58338 0
M  V30 2829 H 284.692 -0.44454 -0.600328 0
M  V30 2830 H 287.354 -1.64776 -1.0409 0
M  V30 2831 H 286.45 -1.78124 -2.56278 0
M  V30 2832 N 286.751 1.08385 -1.14413 0
M  V30 2833 C 287.999 1.80419 -0.910679 0
M  V30 2834 C 288.32 1.86658 0.564243 0
M  V30 2835 O 287.59 1.35985 1.41014 0
M  V30 2836 H 286.17 0.668204 -0.333934 0
M  V30 2837 H 288.832 1.31037 -1.44275 0
M  V30 2838 H 287.928 2.83238 -1.31082 0
M  V30 2839 N 288.23 0.939286 1.26551 0
M  V30 2840 C 289.193 0.451987 2.24699 0
M  V30 2841 C 290.193 -0.435869 1.5478 0
M  V30 2842 O 291.383 -0.235314 1.72603 0
M  V30 2843 C 288.515 -0.348801 3.39111 0
M  V30 2844 H 289.708 1.3193 2.69322 0
M  V30 2845 H 287.261 0.721072 1.38673 0
M  V30 2846 H 287.996 -1.23444 2.99887 0
M  V30 2847 H 287.781 0.287945 3.91041 0
M  V30 2848 H 289.271 -0.679726 4.12031 0
M  V30 2849 N 289.708 -1.40897 0.706093 0
M  V30 2850 C 290.956 -2.00657 0.241054 0
M  V30 2851 C 291.277 -1.56241 -1.16678 0
M  V30 2852 O 290.547 -0.79765 -1.78926 0
M  V30 2853 H 289.127 -0.742018 0.0861308 0
M  V30 2854 H 291.789 -1.72372 0.909604 0
M  V30 2855 H 290.885 -3.10958 0.266705 0
M  V30 2856 N 291.186 -0.45159 -1.50991 0
M  V30 2857 C 292.136 0.370861 -2.24964 0
M  V30 2858 C 293.12 0.978074 -1.2776 0
M  V30 2859 O 294.312 0.893854 -1.52772 0
M  V30 2860 C 291.441 1.46344 -3.10545 0
M  V30 2861 C 290.527 0.864924 -4.15187 0
M  V30 2862 N 290.918 -0.00311354 -5.058 0
M  V30 2863 C 289.216 1.13099 -4.31422 0
M  V30 2864 C 289.917 -0.340772 -5.80701 0
M  V30 2865 N 288.893 0.279203 -5.42883 0
M  V30 2866 H 292.695 -0.298134 -2.92384 0
M  V30 2867 H 290.209 -0.264528 -1.60231 0
M  V30 2868 H 292.206 2.06565 -3.62128 0
M  V30 2869 H 290.866 2.13463 -2.4467 0
M  V30 2870 H 291.877 -0.37058 -5.16572 0
M  V30 2871 H 288.554 1.79861 -3.76771 0
M  V30 2872 H 289.944 -1.048 -6.63677 0
M  V30 2873 N 292.664 1.56529 -0.183458 0
M  V30 2874 C 293.912 1.96855 0.457452 0
M  V30 2875 C 294.233 1.07104 1.62953 0
M  V30 2876 O 293.503 0.139887 1.954 0
M  V30 2877 H 292.083 0.72693 0.171992 0
M  V30 2878 H 294.745 1.93056 -0.267476 0
M  V30 2879 H 293.841 3.01423 0.809368 0
M  V30 2880 N 294.142 -0.090211 1.57342 0
M  V30 2881 C 295.105 -1.09335 2.01441 0
M  V30 2882 C 296.105 -1.32666 0.908641 0
M  V30 2883 O 297.295 -1.28697 1.174 0
M  V30 2884 C 294.427 -2.44136 2.3793 0
M  V30 2885 H 295.62 -0.713662 2.91285 0
M  V30 2886 H 293.173 -0.335404 1.52659 0
M  V30 2887 H 293.908 -2.86972 1.51055 0
M  V30 2888 H 293.693 -2.28548 3.18603 0
M  V30 2889 H 295.183 -3.16277 2.72688 0
M  V30 2890 N 295.62 -1.53406 -0.361157 0
M  V30 2891 C 296.868 -1.69467 -1.10115 0
M  V30 2892 C 297.189 -0.451352 -1.89705 0
M  V30 2893 O 296.459 0.534636 -1.88463 0
M  V30 2894 H 295.039 -0.624749 -0.409508 0
M  V30 2895 H 297.701 -1.90609 -0.406699 0
M  V30 2896 H 296.797 -2.55774 -1.78847 0
M  V30 2897 N 297.098 0.621204 -1.44841 0
M  V30 2898 C 298.323 1.41244 -1.51871 0
M  V30 2899 C 298.748 1.87519 -0.147764 0
M  V30 2900 O 298.106 1.59334 0.865 0
M  V30 2901 C 298.154 2.60221 -2.49634 0
M  V30 2902 O 297.258 3.60395 -2.00473 0
M  V30 2903 H 296.599 0.42223 -0.512463 0
M  V30 2904 H 299.129 0.757305 -1.90069 0
M  V30 2905 H 299.139 3.0764 -2.67996 0
M  V30 2906 H 297.814 2.25887 -3.4921 0
M  V30 2907 H 296.391 3.19717 -1.91925 0
M  V30 2908 N 298.576 1.31904 0.862503 0
M  V30 2909 C 299.824 1.21776 1.61292 0
M  V30 2910 C 300.145 -0.222413 1.93727 0
M  V30 2911 O 299.415 -1.1451 1.58947 0
M  V30 2912 H 297.995 0.447717 0.597962 0
M  V30 2913 H 300.657 1.65326 1.03215 0
M  V30 2914 H 299.753 1.7948 2.5533 0
M  V30 2915 N 300.054 -1.07777 1.14986 0
M  V30 2916 C 301.302 -1.79934 0.920235 0
M  V30 2917 C 301.623 -1.86955 -0.554336 0
M  V30 2918 O 300.893 -1.36731 -1.40291 0
M  V30 2919 H 299.473 -0.666424 0.337473 0
M  V30 2920 H 302.135 -1.3027 1.44968 0
M  V30 2921 H 301.231 -2.82539 1.32583 0
M  V30 2922 N 301.532 -0.945985 -1.26051 0
M  V30 2923 C 302.772 -0.603665 -1.95282 0
M  V30 2924 C 303.136 0.842377 -1.72534 0
M  V30 2925 O 304.337 1.29387 -2.35611 0
M  V30 2926 C 302.608 -0.942292 -3.44754 0
M  V30 2927 S 304.167 -0.711242 -4.32997 0
M  V30 2928 H 300.985 -0.222176 -0.675395 0
M  V30 2929 H 303.587 -1.21832 -1.52896 0
M  V30 2930 H 302.291 -1.99203 -3.58812 0
M  V30 2931 H 301.822 -0.317546 -3.92116 0
M  V30 2932 H 303.837 0.422221 -4.944 0
M  V30 2933 N 303.011 1.40521 -0.713556 0
M  V30 2934 C 304.427 1.54839 -0.386907 0
M  V30 2935 C 304.627 1.68532 1.1045 0
M  V30 2936 O 303.683 1.67377 1.89053 0
M  V30 2937 C 304.996 2.77792 -1.15118 0
M  V30 2938 C 306.544 2.91607 -1.13729 0
M  V30 2939 C 307.019 4.1747 -1.88368 0
M  V30 2940 N 308.51 4.24466 -1.85427 0
M  V30 2941 C 309.245 5.20755 -2.40004 0
M  V30 2942 N 308.741 6.22965 -3.03129 0
M  V30 2943 N 310.534 5.1282 -2.30158 0
M  V30 2944 H 302.685 1.29879 -1.68063 0
M  V30 2945 H 304.948 0.627896 -0.710247 0
M  V30 2946 H 304.654 2.73944 -2.20561 0
M  V30 2947 H 304.528 3.6984 -0.741477 0
M  V30 2948 H 306.915 2.94959 -0.0910608 0
M  V30 2949 H 306.996 2.00682 -1.5862 0
M  V30 2950 H 306.64 4.1488 -2.9298 0
M  V30 2951 H 306.57 5.074 -1.40898 0
M  V30 2952 H 309.061 3.51241 -1.3942 0
M  V30 2953 H 309.374 6.92859 -3.42295 0
M  V30 2954 H 307.719 6.23415 -3.07212 0
M  V30 2955 H 310.91 4.31899 -1.80501 0
M  V30 2956 H 311.083 5.87689 -2.72993 0
M  V30 2957 N 304.489 0.459591 1.5075 0
M  V30 2958 C 305.737 -0.0991532 2.01857 0
M  V30 2959 C 306.058 -1.41247 1.34441 0
M  V30 2960 O 305.328 -1.89775 0.486022 0
M  V30 2961 H 303.908 -0.039633 0.745948 0
M  V30 2962 H 306.57 0.607387 1.85194 0
M  V30 2963 H 305.666 -0.258998 3.11023 0
M  V30 2964 N 305.967 -1.56429 0.191757 0
M  V30 2965 C 307.213 -1.98541 -0.441943 0
M  V30 2966 C 307.568 -1.07646 -1.59468 0
M  V30 2967 O 306.861 -0.120191 -1.91223 0
M  V30 2968 C 307.055 -3.44449 -0.953384 0
M  V30 2969 C 306.884 -4.49456 0.148262 0
M  V30 2970 C 305.654 -5.01668 0.604781 0
M  V30 2971 C 307.852 -5.05336 0.95602 0
M  V30 2972 N 305.834 -5.90334 1.6846 0
M  V30 2973 C 307.205 -5.9064 1.88531 0
M  V30 2974 C 309.26 -4.87779 0.998811 0
M  V30 2975 C 307.963 -6.60264 2.85383 0
M  V30 2976 C 309.989 -5.58139 1.95537 0
M  V30 2977 C 309.351 -6.43187 2.8721 0
M  V30 2978 H 305.45 -0.771247 -0.129236 0
M  V30 2979 H 308.034 -1.92426 0.296682 0
M  V30 2980 H 306.205 -3.5107 -1.66146 0
M  V30 2981 H 307.937 -3.73533 -1.55741 0
M  V30 2982 H 304.692 -4.73183 0.198736 0
M  V30 2983 H 305.116 -6.39371 2.22561 0
M  V30 2984 H 309.758 -4.21705 0.304048 0
M  V30 2985 H 307.476 -7.25538 3.55837 0
M  V30 2986 H 311.062 -5.46532 1.99484 0
M  V30 2987 H 309.942 -6.96674 3.60022 0
M  V30 2988 N 307.445 0.0818655 -1.57387 0
M  V30 2989 C 308.377 1.12484 -1.997 0
M  V30 2990 C 309.39 1.35564 -0.90146 0
M  V30 2991 O 310.579 1.33982 -1.17945 0
M  V30 2992 C 307.679 2.47778 -2.31213 0
M  V30 2993 C 306.852 2.44793 -3.62485 0
M  V30 2994 C 305.911 3.62117 -3.81782 0
M  V30 2995 O 304.937 3.44005 -4.53486 0
M  V30 2996 N 306.139 4.82094 -3.23367 0
M  V30 2997 H 308.904 0.764585 -2.89783 0
M  V30 2998 H 306.465 0.270664 -1.59621 0
M  V30 2999 H 308.457 3.24891 -2.41304 0
M  V30 3000 H 307.027 2.75843 -1.4707 0
M  V30 3001 H 306.247 1.53134 -3.6324 0
M  V30 3002 H 307.535 2.39889 -4.48699 0
M  V30 3003 H 306.933 4.99713 -2.65148 0
M  V30 3004 H 305.49 5.56753 -3.38923 0
M  V30 3005 N 308.923 1.53595 0.353017 0
M  V30 3006 C 310.334 1.61937 0.929153 0
M  V30 3007 C 310.685 0.494686 1.89861 0
M  V30 3008 O 309.81 -0.377017 2.1309 0
M  V30 3009 C 310.405 2.93526 1.69199 0
M  V30 3010 C 308.964 3.04161 2.21727 0
M  V30 3011 C 308.111 2.57322 1.03348 0
M  V30 3012 H 311.062 1.58155 0.131431 0
M  V30 3013 H 311.083 2.82034 2.55416 0
M  V30 3014 H 310.595 3.75362 0.986144 0
M  V30 3015 H 308.696 2.26938 2.95516 0
M  V30 3016 H 308.809 4.09465 2.48748 0
M  V30 3017 H 307.173 2.12499 1.40414 0
M  V30 3018 H 307.956 3.41588 0.342428 0
M  V30 3019 N 310.401 -0.613514 1.45168 0
M  V30 3020 C 311.817 -0.933629 1.29443 0
M  V30 3021 C 312.017 -2.00028 0.243101 0
M  V30 3022 O 311.073 -2.49848 -0.364992 0
M  V30 3023 C 312.386 -1.38018 2.67155 0
M  V30 3024 C 313.934 -1.49471 2.75004 0
M  V30 3025 C 314.409 -1.97503 4.13227 0
M  V30 3026 N 315.9 -2.04746 4.15491 0
M  V30 3027 C 316.635 -2.43121 5.19307 0
M  V30 3028 N 316.131 -2.80506 6.33473 0
M  V30 3029 N 317.924 -2.43408 5.06664 0
M  V30 3030 H 310.075 0.0916097 2.12202 0
M  V30 3031 H 312.338 -0.0216655 0.947752 0
M  V30 3032 H 312.044 -0.670625 3.45247 0
M  V30 3033 H 311.918 -2.34784 2.95222 0
M  V30 3034 H 314.305 -2.19519 1.9722 0
M  V30 3035 H 314.386 -0.510342 2.50657 0
M  V30 3036 H 314.03 -1.28045 4.91495 0
M  V30 3037 H 313.96 -2.96843 4.34962 0
M  V30 3038 H 316.451 -1.78468 3.33103 0
M  V30 3039 H 316.764 -3.08652 7.08487 0
M  V30 3040 H 315.109 -2.78216 6.36884 0
M  V30 3041 H 318.3 -2.13604 4.16523 0
M  V30 3042 H 318.473 -2.72989 5.87691 0
M  V30 3043 N 311.879 -1.3236 -0.855495 0
M  V30 3044 C 312.812 -1.15559 -1.96777 0
M  V30 3045 C 313.79 -0.0552681 -1.62506 0
M  V30 3046 O 314.974 -0.214419 -1.87277 0
M  V30 3047 C 312.101 -0.768851 -3.29858 0
M  V30 3048 C 311.147 -1.87429 -3.83109 0
M  V30 3049 S 311.98 -3.48243 -4.06801 0
M  V30 3050 C 313.136 -3.11539 -5.42858 0
M  V30 3051 H 313.369 -2.09717 -2.10727 0
M  V30 3052 H 310.902 -1.17011 -1.00737 0
M  V30 3053 H 312.86 -0.55248 -4.06765 0
M  V30 3054 H 311.521 0.153857 -3.13723 0
M  V30 3055 H 310.714 -1.55667 -4.79358 0
M  V30 3056 H 310.316 -2.04647 -3.13042 0
M  V30 3057 H 312.608 -2.61331 -6.2507 0
M  V30 3058 H 313.551 -4.06806 -5.79582 0
M  V30 3059 H 313.959 -2.48582 -5.06821 0
M  V30 3060 N 313.357 1.07166 -1.15556 0
M  V30 3061 C 314.603 1.80222 -0.942961 0
M  V30 3062 C 314.958 1.85121 0.524209 0
M  V30 3063 O 314.251 1.32531 1.38369 0
M  V30 3064 C 314.445 3.24707 -1.49332 0
M  V30 3065 C 314.274 3.33887 -3.01247 0
M  V30 3066 C 313.044 3.44337 -3.69811 0
M  V30 3067 C 315.242 3.24484 -3.99017 0
M  V30 3068 N 313.224 3.42439 -5.09518 0
M  V30 3069 C 314.595 3.29726 -5.25053 0
M  V30 3070 C 316.65 3.08307 -3.90962 0
M  V30 3071 C 315.353 3.20455 -6.43973 0
M  V30 3072 C 317.379 3.00371 -5.09442 0
M  V30 3073 C 316.741 3.06227 -6.34354 0
M  V30 3074 H 312.84 0.672709 -0.398731 0
M  V30 3075 H 315.424 1.27905 -1.46794 0
M  V30 3076 H 313.595 3.7544 -0.994946 0
M  V30 3077 H 315.327 3.85894 -1.21935 0
M  V30 3078 H 312.082 3.48762 -3.20409 0
M  V30 3079 H 312.506 3.45013 -5.8249 0
M  V30 3080 H 317.148 3.02633 -2.95251 0
M  V30 3081 H 314.866 3.24888 -7.39914 0
M  V30 3082 H 318.452 2.88955 -5.04971 0
M  V30 3083 H 317.332 3.00132 -7.24493 0
M  V30 3084 N 314.835 0.952656 1.25548 0
M  V30 3085 C 315.798 0.475794 2.24207 0
M  V30 3086 C 316.798 -0.419428 1.55234 0
M  V30 3087 O 317.988 -0.216994 1.72843 0
M  V30 3088 C 315.12 -0.312814 3.39462 0
M  V30 3089 H 316.313 1.34779 2.67908 0
M  V30 3090 H 313.866 0.735739 1.37901 0
M  V30 3091 H 314.601 -1.20257 3.01179 0
M  V30 3092 H 314.386 0.329404 3.90714 0
M  V30 3093 H 315.876 -0.635986 4.12729 0
M  V30 3094 N 316.313 -1.40141 0.720998 0
M  V30 3095 C 317.243 -2.33339 0.0867621 0
M  V30 3096 C 318.224 -1.53178 -0.739622 0
M  V30 3097 O 319.409 -1.81625 -0.687449 0
M  V30 3098 C 316.539 -3.37194 -0.831728 0
M  V30 3099 C 315.493 -4.27857 -0.110558 0
M  V30 3100 C 314.819 -5.22294 -1.14513 0
M  V30 3101 C 316.119 -5.11872 1.0385 0
M  V30 3102 H 317.813 -2.86626 0.865219 0
M  V30 3103 H 315.359 -1.37814 0.417516 0
M  V30 3104 H 317.312 -4.01335 -1.28485 0
M  V30 3105 H 316.036 -2.82314 -1.64214 0
M  V30 3106 H 314.695 -3.65176 0.322797 0
M  V30 3107 H 314.343 -4.63717 -1.94874 0
M  V30 3108 H 314.043 -5.83797 -0.667446 0
M  V30 3109 H 315.567 -5.89312 -1.59824 0
M  V30 3110 H 316.981 -5.69436 0.664482 0
M  V30 3111 H 315.378 -5.82445 1.4449 0
M  V30 3112 H 316.448 -4.4753 1.86668 0
M  V30 3113 N 317.792 -0.46758 -1.50504 0
M  V30 3114 C 319.039 0.0886219 -2.02306 0
M  V30 3115 C 319.367 1.40037 -1.34981 0
M  V30 3116 O 318.622 1.90136 -0.463318 0
M  V30 3117 C 318.921 0.323995 -3.55928 0
M  V30 3118 C 318.587 -0.905618 -4.41712 0
M  V30 3119 C 317.249 -1.24275 -4.64875 0
M  V30 3120 C 319.601 -1.72448 -4.91845 0
M  V30 3121 C 316.929 -2.39888 -5.35417 0
M  V30 3122 C 319.281 -2.87185 -5.63656 0
M  V30 3123 C 317.945 -3.21317 -5.85074 0
M  V30 3124 H 317.215 0.0324291 -0.74029 0
M  V30 3125 H 319.862 -0.620945 -1.81153 0
M  V30 3126 H 318.167 1.11577 -3.75577 0
M  V30 3127 H 319.864 0.76826 -3.93572 0
M  V30 3128 H 316.454 -0.632956 -4.239 0
M  V30 3129 H 320.638 -1.4772 -4.73806 0
M  V30 3130 H 315.894 -2.66611 -5.50208 0
M  V30 3131 H 320.068 -3.50985 -6.01484 0
M  V30 3132 H 317.695 -4.1101 -6.39511 0
M  V30 3133 N 319.27 1.56325 -0.20005 0
M  V30 3134 C 320.18 2.22931 0.730668 0
M  V30 3135 C 321.196 1.22997 1.23076 0
M  V30 3136 O 322.372 1.55748 1.27689 0
M  V30 3137 C 319.437 2.87948 1.93098 0
M  V30 3138 C 318.498 4.03166 1.47497 0
M  V30 3139 C 317.731 4.65073 2.61807 0
M  V30 3140 O 317.954 4.25913 3.79413 0
M  V30 3141 O 316.888 5.54452 2.34237 0
M  V30 3142 H 320.714 3.03084 0.193391 0
M  V30 3143 H 318.299 1.49371 0.0294621 0
M  V30 3144 H 320.181 3.29063 2.6324 0
M  V30 3145 H 318.856 2.10771 2.45677 0
M  V30 3146 H 317.763 3.66664 0.742201 0
M  V30 3147 H 319.096 4.82022 0.995796 0
M  V30 3148 N 320.748 -0.0735177 1.57428 0
M  V30 3149 C 322.025 -0.805903 1.78226 0
M  V30 3150 C 322.405 -1.95874 0.787189 0
M  V30 3151 O 321.753 -2.2779 -0.180029 0
M  V30 3152 C 321.963 -1.28045 3.24662 0
M  V30 3153 C 323.311 -1.71453 3.88444 0
M  V30 3154 O 324.335 -1.37616 3.28543 0
M  V30 3155 O 323.194 -2.34093 4.93825 0
M  V30 3156 H 320.288 -0.386041 0.73137 0
M  V30 3157 H 322.834 -0.0537269 1.69615 0
M  V30 3158 H 321.606 -0.455476 3.8864 0
M  V30 3159 H 321.229 -2.094 3.37991 0
M  V30 3160 N 322.226 -1.5378 -0.344866 0
M  V30 3161 C 323.637 -1.62428 -0.920552 0
M  V30 3162 C 323.988 -0.504747 -1.89596 0
M  V30 3163 O 323.113 0.365711 -2.13287 0
M  V30 3164 C 323.708 -2.94419 -1.67639 0
M  V30 3165 C 322.267 -3.05333 -2.20111 0
M  V30 3166 C 321.414 -2.57866 -1.01982 0
M  V30 3167 H 324.365 -1.58222 -0.123042 0
M  V30 3168 H 324.386 -2.83384 -2.53917 0
M  V30 3169 H 323.898 -3.7588 -0.966224 0
M  V30 3170 H 321.999 -2.28502 -2.94308 0
M  V30 3171 H 322.112 -4.10778 -2.46573 0
M  V30 3172 H 320.476 -2.13241 -1.39285 0
M  V30 3173 H 321.259 -3.41765 -0.324308 0
M  V30 3174 N 323.704 0.605807 -1.45491 0
M  V30 3175 C 324.934 1.38934 -1.52908 0
M  V30 3176 C 325.342 1.88513 -0.161086 0
M  V30 3177 O 324.685 1.62962 0.847891 0
M  V30 3178 C 324.747 2.62737 -2.45376 0
M  V30 3179 C 324.411 2.34785 -3.92078 0
M  V30 3180 C 325.408 1.95038 -4.8193 0
M  V30 3181 C 323.093 2.47642 -4.37011 0
M  V30 3182 C 325.087 1.68511 -6.14722 0
M  V30 3183 C 322.774 2.20728 -5.69844 0
M  V30 3184 C 323.772 1.81225 -6.58519 0
M  V30 3185 O 323.46 1.54627 -7.88889 0
M  V30 3186 H 323.192 0.431629 -0.520262 0
M  V30 3187 H 325.746 0.74573 -1.91384 0
M  V30 3188 H 323.976 3.29824 -2.01874 0
M  V30 3189 H 325.665 3.24783 -2.43456 0
M  V30 3190 H 326.431 1.84639 -4.48479 0
M  V30 3191 H 322.31 2.77356 -3.68232 0
M  V30 3192 H 325.854 1.37602 -6.83894 0
M  V30 3193 H 321.751 2.30744 -6.02849 0
M  V30 3194 H 322.519 1.68665 -8.00933 0
M  V30 3195 N 325.182 1.32811 0.848464 0
M  V30 3196 C 326.407 1.26882 1.6406 0
M  V30 3197 C 326.832 -0.15913 1.87426 0
M  V30 3198 O 326.19 -1.11258 1.43148 0
M  V30 3199 C 326.238 2.03997 2.97351 0
M  V30 3200 O 325.342 1.39201 3.88197 0
M  V30 3201 H 324.683 0.436982 0.499943 0
M  V30 3202 H 327.213 1.75224 1.0563 0
M  V30 3203 H 327.223 2.14403 3.47124 0
M  V30 3204 H 325.898 3.0783 2.79666 0
M  V30 3205 H 324.475 1.37381 3.46671 0
M  V30 3206 N 326.66 -1.06551 1.16123 0
M  V30 3207 C 327.885 -1.83544 0.965735 0
M  V30 3208 C 328.31 -1.81843 -0.481102 0
M  V30 3209 O 327.668 -1.21732 -1.34354 0
M  V30 3210 C 327.716 -3.28169 1.49457 0
M  V30 3211 O 326.82 -4.0643 0.699157 0
M  V30 3212 H 326.161 -0.568026 0.343864 0
M  V30 3213 H 328.691 -1.34362 1.54299 0
M  V30 3214 H 328.701 -3.78992 1.51092 0
M  V30 3215 H 327.376 -3.28722 2.54784 0
M  V30 3216 H 325.953 -3.65216 0.7531 0
M  V30 3217 N 328.138 -0.959301 -1.25041 0
M  V30 3218 C 329.554 -0.664474 -1.4511 0
M  V30 3219 C 329.754 0.776481 -1.85938 0
M  V30 3220 O 328.81 1.55128 -1.99227 0
M  V30 3221 C 330.123 -1.64139 -2.5195 0
M  V30 3222 C 331.671 -1.65309 -2.65786 0
M  V30 3223 C 332.146 -2.61777 -3.75815 0
M  V30 3224 N 333.637 -2.60169 -3.83231 0
M  V30 3225 C 334.372 -3.31489 -4.6787 0
M  V30 3226 N 333.868 -4.12298 -5.56761 0
M  V30 3227 N 335.661 -3.20354 -4.61876 0
M  V30 3228 H 327.812 -1.89043 -0.968332 0
M  V30 3229 H 330.075 -0.813408 -0.4869 0
M  V30 3230 H 329.781 -2.67086 -2.28819 0
M  V30 3231 H 329.655 -1.40756 -3.49954 0
M  V30 3232 H 332.042 -0.630778 -2.8828 0
M  V30 3233 H 332.123 -1.92753 -1.68167 0
M  V30 3234 H 331.767 -3.64137 -3.54071 0
M  V30 3235 H 331.697 -2.31616 -4.72929 0
M  V30 3236 H 334.188 -2.01507 -3.19692 0
M  V30 3237 H 334.501 -4.63625 -6.18281 0
M  V30 3238 H 332.846 -4.16395 -5.56454 0
M  V30 3239 H 336.037 -2.56692 -3.91442 0
M  V30 3240 H 336.21 -3.76201 -5.27614 0
M  V30 3241 N 329.616 1.39756 -0.72842 0
M  V30 3242 C 330.579 2.29012 -0.0927297 0
M  V30 3243 C 331.579 1.45992 0.674025 0
M  V30 3244 O 332.769 1.66749 0.50402 0
M  V30 3245 C 329.901 3.29396 0.878137 0
M  V30 3246 H 331.094 2.86729 -0.879011 0
M  V30 3247 H 328.647 1.48293 -0.493847 0
M  V30 3248 H 329.382 2.76722 1.69101 0
M  V30 3249 H 329.167 3.907 0.331051 0
M  V30 3250 H 330.657 3.96199 1.3197 0
M  V30 3251 N 331.094 0.475555 1.50254 0
M  V30 3252 C 332.057 -0.305016 2.27161 0
M  V30 3253 C 333.057 -0.916519 1.32123 0
M  V30 3254 O 334.247 -0.785003 1.5551 0
M  V30 3255 C 331.379 -1.43496 3.09227 0
M  V30 3256 H 332.572 0.369511 2.97615 0
M  V30 3257 H 330.125 0.229747 1.54602 0
M  V30 3258 H 330.86 -2.14441 2.43281 0
M  V30 3259 H 330.645 -1.00223 3.79075 0
M  V30 3260 H 332.135 -1.98548 3.67381 0
M  V30 3261 N 332.573 -1.56217 0.208337 0
M  V30 3262 C 333.989 -1.58919 -0.14729 0
M  V30 3263 C 334.189 -1.22486 -1.59998 0
M  V30 3264 O 333.245 -0.953849 -2.3379 0
M  V30 3265 C 334.558 -3.00236 0.167048 0
M  V30 3266 C 336.106 -3.12813 0.108219 0
M  V30 3267 C 336.581 -4.56284 0.396049 0
M  V30 3268 N 338.072 -4.61912 0.345142 0
M  V30 3269 C 338.807 -5.70837 0.541523 0
M  V30 3270 N 338.303 -6.88178 0.798968 0
M  V30 3271 N 340.096 -5.60091 0.474867 0
M  V30 3272 H 332.247 -1.78177 1.15614 0
M  V30 3273 H 334.51 -0.827555 0.462446 0
M  V30 3274 H 334.216 -3.31499 1.1748 0
M  V30 3275 H 334.09 -3.7354 -0.524184 0
M  V30 3276 H 336.477 -2.81354 -0.890157 0
M  V30 3277 H 336.558 -2.41866 0.832729 0
M  V30 3278 H 336.202 -4.88458 1.3918 0
M  V30 3279 H 336.132 -5.25439 -0.349502 0
M  V30 3280 H 338.623 -3.77589 0.153316 0
M  V30 3281 H 338.936 -7.67095 0.93727 0
M  V30 3282 H 337.281 -6.89953 0.836013 0
M  V30 3283 H 340.472 -4.67297 0.274064 0
M  V30 3284 H 340.645 -6.44917 0.631326 0
M  V30 3285 N 334.051 0.0651679 -1.57465 0
M  V30 3286 C 335.297 0.764193 -1.87851 0
M  V30 3287 C 335.63 1.76889 -0.801495 0
M  V30 3288 O 334.905 1.93594 0.187528 0
M  V30 3289 C 335.188 1.46625 -3.28897 0
M  V30 3290 C 335.041 0.477515 -4.47258 0
M  V30 3291 C 336.36 2.4095 -3.68281 0
M  V30 3292 H 333.479 0.276351 -0.683227 0
M  V30 3293 H 336.121 0.0272868 -1.8998 0
M  V30 3294 H 334.271 2.09438 -3.27212 0
M  V30 3295 H 335.943 -0.145922 -4.61069 0
M  V30 3296 H 334.186 -0.206576 -4.33308 0
M  V30 3297 H 334.857 1.0065 -5.42746 0
M  V30 3298 H 337.333 1.88209 -3.71102 0
M  V30 3299 H 336.209 2.87072 -4.67847 0
M  V30 3300 H 336.47 3.26049 -2.98571 0
M  V30 3301 N 335.529 1.53961 0.336706 0
M  V30 3302 C 336.775 1.7179 1.07777 0
M  V30 3303 C 337.108 0.483263 1.88091 0
M  V30 3304 O 336.383 -0.519747 1.87427 0
M  V30 3305 C 336.666 2.98558 2.01334 0
M  V30 3306 C 336.519 4.32245 1.24437 0
M  V30 3307 C 337.838 3.21023 3.01052 0
M  V30 3308 H 334.957 0.625089 0.390426 0
M  V30 3309 H 337.599 1.86641 0.35567 0
M  V30 3310 H 335.749 2.86028 2.62908 0
M  V30 3311 H 337.421 4.56637 0.654243 0
M  V30 3312 H 335.664 4.30344 0.546458 0
M  V30 3313 H 336.335 5.17137 1.93063 0
M  V30 3314 H 338.811 3.32929 2.49595 0
M  V30 3315 H 337.687 4.11104 3.6371 0
M  V30 3316 H 337.948 2.37637 3.72802 0
M  V30 3317 N 337.007 -0.598083 1.45811 0
M  V30 3318 C 337.97 -1.69018 1.54808 0
M  V30 3319 C 338.97 -1.55037 0.426652 0
M  V30 3320 O 340.16 -1.59932 0.690456 0
M  V30 3321 C 337.292 -3.0835 1.45371 0
M  V30 3322 H 338.485 -1.62403 2.52121 0
M  V30 3323 H 336.038 -0.814626 1.33392 0
M  V30 3324 H 336.773 -3.20534 0.492793 0
M  V30 3325 H 336.558 -3.19907 2.26721 0
M  V30 3326 H 338.048 -3.8788 1.54721 0
M  V30 3327 N 338.485 -1.33259 -0.841409 0
M  V30 3328 C 339.732 -1.24572 -1.5965 0
M  V30 3329 C 340.06 0.189137 -1.93578 0
M  V30 3330 O 339.315 1.14566 -1.5866 0
M  V30 3331 C 339.614 -2.06381 -2.9179 0
M  V30 3332 C 339.28 -3.556 -2.77235 0
M  V30 3333 C 337.942 -3.96282 -2.72973 0
M  V30 3334 C 340.294 -4.50433 -2.62221 0
M  V30 3335 C 337.622 -5.30017 -2.51592 0
M  V30 3336 C 339.974 -5.84327 -2.42374 0
M  V30 3337 C 338.638 -6.24194 -2.36512 0
M  V30 3338 H 337.908 -0.455842 -0.5842 0
M  V30 3339 H 340.555 -1.6482 -0.975016 0
M  V30 3340 H 338.86 -1.58903 -3.5813 0
M  V30 3341 H 340.557 -1.97019 -3.49263 0
M  V30 3342 H 337.147 -3.23298 -2.81384 0
M  V30 3343 H 341.331 -4.19914 -2.64549 0
M  V30 3344 H 336.587 -5.59947 -2.45499 0
M  V30 3345 H 340.761 -6.57414 -2.29739 0
M  V30 3346 H 338.388 -7.27759 -2.19706 0
M  V30 3347 N 339.963 1.05934 -1.16686 0
M  V30 3348 C 340.926 2.11669 -0.879144 0
M  V30 3349 C 341.926 1.60294 0.127445 0
M  V30 3350 O 343.116 1.7389 -0.103865 0
M  V30 3351 C 340.248 3.39438 -0.315425 0
M  V30 3352 H 341.441 2.38626 -1.81653 0
M  V30 3353 H 338.994 1.22058 -0.976299 0
M  V30 3354 H 339.729 3.18132 0.629468 0
M  V30 3355 H 339.514 3.78034 -1.04079 0
M  V30 3356 H 341.004 4.17391 -0.132189 0
M  V30 3357 N 341.441 0.965919 1.2453 0
M  V30 3358 C 342.666 0.643971 1.97149 0
M  V30 3359 C 343.091 -0.779487 1.71189 0
M  V30 3360 O 342.449 -1.5288 0.974553 0
M  V30 3361 C 342.497 0.922557 3.48599 0
M  V30 3362 O 341.601 0.00707672 4.12399 0
M  V30 3363 H 340.942 0.243647 0.617683 0
M  V30 3364 H 343.472 1.29558 1.58353 0
M  V30 3365 H 343.482 0.853373 3.98976 0
M  V30 3366 H 342.157 1.95996 3.66822 0
M  V30 3367 H 340.734 0.12943 3.72675 0
M  V30 3368 N 342.919 -1.39368 0.735821 0
M  V30 3369 C 343.849 -2.33234 0.111506 0
M  V30 3370 C 344.83 -1.53954 -0.723334 0
M  V30 3371 O 346.015 -1.82344 -0.668147 0
M  V30 3372 C 343.145 -3.38057 -0.795917 0
M  V30 3373 C 342.099 -4.2795 -0.065172 0
M  V30 3374 C 341.425 -5.23479 -1.08967 0
M  V30 3375 C 342.725 -5.10741 1.09273 0
M  V30 3376 H 344.419 -2.85692 0.895571 0
M  V30 3377 H 341.965 -1.37364 0.432109 0
M  V30 3378 H 343.918 -4.02675 -1.24221 0
M  V30 3379 H 342.642 -2.8404 -1.61211 0
M  V30 3380 H 341.301 -3.64813 0.361511 0
M  V30 3381 H 340.949 -4.65758 -1.89944 0
M  V30 3382 H 340.649 -5.84472 -0.605489 0
M  V30 3383 H 342.173 -5.90974 -1.53565 0
M  V30 3384 H 343.587 -5.68699 0.724841 0
M  V30 3385 H 341.984 -5.8088 1.50659 0
M  V30 3386 H 343.054 -4.45525 1.91404 0
M  V30 3387 N 344.397 -0.483516 -1.5 0
M  V30 3388 C 345.644 0.0671597 -2.02389 0
M  V30 3389 C 345.972 1.38597 -1.36459 0
M  V30 3390 O 345.227 1.89634 -0.483458 0
M  V30 3391 C 345.526 0.286226 -3.56252 0
M  V30 3392 C 345.192 -0.952416 -4.40726 0
M  V30 3393 C 343.854 -1.29199 -4.63531 0
M  V30 3394 C 346.206 -1.77655 -4.89988 0
M  V30 3395 C 343.534 -2.45553 -5.32842 0
M  V30 3396 C 345.886 -2.93147 -5.60578 0
M  V30 3397 C 344.55 -3.27505 -5.81633 0
M  V30 3398 H 343.82 0.0245755 -0.740592 0
M  V30 3399 H 346.467 -0.640124 -1.80485 0
M  V30 3400 H 344.772 1.07587 -3.76739 0
M  V30 3401 H 346.469 0.726473 -3.94365 0
M  V30 3402 H 343.059 -0.677881 -4.23205 0
M  V30 3403 H 347.243 -1.52737 -4.72213 0
M  V30 3404 H 342.499 -2.72431 -5.47349 0
M  V30 3405 H 346.673 -3.57344 -5.97727 0
M  V30 3406 H 344.3 -4.1777 -6.35116 0
M  V30 3407 N 345.875 1.56104 -0.216619 0
M  V30 3408 C 347.122 1.98172 0.416416 0
M  V30 3409 C 347.45 1.10413 1.60122 0
M  V30 3410 O 346.705 0.147967 1.9514 0
M  V30 3411 C 347.004 3.45923 0.898464 0
M  V30 3412 C 346.67 4.50559 -0.175288 0
M  V30 3413 C 345.332 4.78897 -0.470271 0
M  V30 3414 C 347.684 5.1334 -0.901728 0
M  V30 3415 C 345.012 5.67299 -1.4963 0
M  V30 3416 C 347.364 6.02853 -1.91705 0
M  V30 3417 C 346.028 6.29537 -2.21901 0
M  V30 3418 H 345.298 0.725164 0.152377 0
M  V30 3419 H 347.945 1.88839 -0.318103 0
M  V30 3420 H 346.25 3.52434 1.71165 0
M  V30 3421 H 347.947 3.75841 1.39803 0
M  V30 3422 H 344.537 4.28551 0.0647806 0
M  V30 3423 H 348.721 4.91521 -0.687072 0
M  V30 3424 H 343.977 5.86239 -1.73592 0
M  V30 3425 H 348.151 6.50552 -2.48505 0
M  V30 3426 H 345.778 6.97835 -3.01548 0
M  V30 3427 N 347.353 -0.0568162 1.57498 0
M  V30 3428 C 348.602 -0.752001 1.87157 0
M  V30 3429 C 348.915 -1.77978 0.811375 0
M  V30 3430 O 350.121 -2.52559 0.996293 0
M  V30 3431 C 348.577 -1.38844 3.3204 0
M  V30 3432 C 348.185 -0.398456 4.46225 0
M  V30 3433 C 349.929 -2.06512 3.70882 0
M  V30 3434 C 347.836 -1.04166 5.82154 0
M  V30 3435 H 346.766 -0.28461 0.698222 0
M  V30 3436 H 349.417 -0.00561272 1.83499 0
M  V30 3437 H 347.799 -2.1836 3.30356 0
M  V30 3438 H 348.973 0.367977 4.59328 0
M  V30 3439 H 347.288 0.174592 4.16034 0
M  V30 3440 H 349.885 -2.55437 4.6974 0
M  V30 3441 H 350.228 -2.87117 3.01445 0
M  V30 3442 H 350.761 -1.33808 3.7462 0
M  V30 3443 H 347.5 -0.275614 6.5492 0
M  V30 3444 H 347.02 -1.7786 5.72823 0
M  V30 3445 H 348.699 -1.55715 6.27982 0
M  V30 3446 N 348.832 -1.54138 -0.328536 0
M  V30 3447 C 349.762 -1.86167 -1.40939 0
M  V30 3448 C 350.743 -0.718044 -1.54202 0
M  V30 3449 O 351.928 -0.971328 -1.68163 0
M  V30 3450 C 349.058 -2.08461 -2.77779 0
M  V30 3451 C 348.012 -3.24299 -2.7931 0
M  V30 3452 C 347.338 -3.31955 -4.19178 0
M  V30 3453 C 348.638 -4.62065 -2.43502 0
M  V30 3454 H 350.332 -2.76689 -1.14383 0
M  V30 3455 H 347.878 -1.33132 -0.548806 0
M  V30 3456 H 349.831 -2.29453 -3.53454 0
M  V30 3457 H 348.555 -1.14684 -3.05802 0
M  V30 3458 H 347.214 -3.03187 -2.0609 0
M  V30 3459 H 346.862 -2.35745 -4.44335 0
M  V30 3460 H 346.562 -4.09805 -4.2111 0
M  V30 3461 H 348.086 -3.55175 -4.96672 0
M  V30 3462 H 349.5 -4.8297 -3.08889 0
M  V30 3463 H 347.897 -5.42429 -2.56693 0
M  V30 3464 H 348.967 -4.64652 -1.38659 0
M  V30 3465 N 350.31 0.590341 -1.46126 0
M  V30 3466 C 351.556 1.35082 -1.51264 0
M  V30 3467 C 351.889 1.93534 -0.160711 0
M  V30 3468 O 351.164 1.76045 0.826956 0
M  V30 3469 C 351.447 2.48588 -2.6053 0
M  V30 3470 C 351.3 1.95221 -4.05227 0
M  V30 3471 C 352.619 3.50662 -2.6594 0
M  V30 3472 H 349.738 0.489803 -0.550692 0
M  V30 3473 H 352.38 0.663887 -1.78024 0
M  V30 3474 H 350.53 3.07186 -2.37843 0
M  V30 3475 H 352.202 1.41139 -4.39178 0
M  V30 3476 H 350.445 1.26101 -4.15068 0
M  V30 3477 H 351.116 2.77121 -4.77397 0
M  V30 3478 H 353.592 3.01934 -2.86313 0
M  V30 3479 H 352.468 4.27551 -3.44226 0
M  V30 3480 H 352.729 4.07399 -1.71694 0
M  V30 3481 N 351.788 1.33704 0.83433 0
M  V30 3482 C 353.013 1.28615 1.62705 0
M  V30 3483 C 353.438 -0.139242 1.87584 0
M  V30 3484 O 352.796 -1.09734 1.4432 0
M  V30 3485 C 352.844 2.07139 2.95171 0
M  V30 3486 O 351.948 1.4331 3.86699 0
M  V30 3487 H 351.289 0.44226 0.49528 0
M  V30 3488 H 353.819 1.76335 1.03766 0
M  V30 3489 H 353.829 2.18073 3.44831 0
M  V30 3490 H 352.504 3.10779 2.76386 0
M  V30 3491 H 351.081 1.4105 3.45195 0
M  V30 3492 N 353.266 -1.05314 1.17247 0
M  V30 3493 C 354.515 -1.77685 0.954521 0
M  V30 3494 C 354.828 -1.88616 -0.518025 0
M  V30 3495 O 356.034 -2.57714 -0.854144 0
M  V30 3496 C 354.49 -3.19402 1.65863 0
M  V30 3497 C 354.098 -3.16605 3.16963 0
M  V30 3498 C 355.842 -3.96237 1.52303 0
M  V30 3499 C 353.749 -4.53103 3.80068 0
M  V30 3500 H 352.679 -0.666 0.353496 0
M  V30 3501 H 355.33 -1.1805 1.40486 0
M  V30 3502 H 353.712 -3.79355 1.13602 0
M  V30 3503 H 354.886 -2.66176 3.76148 0
M  V30 3504 H 353.201 -2.53268 3.30521 0
M  V30 3505 H 355.798 -4.97157 1.96822 0
M  V30 3506 H 356.141 -4.136 0.473401 0
M  V30 3507 H 356.674 -3.42829 2.01775 0
M  V30 3508 H 353.413 -4.40946 4.85023 0
M  V30 3509 H 352.933 -5.03686 3.2567 0
M  V30 3510 H 354.612 -5.22045 3.82202 0
M  V30 3511 N 354.744 -0.972509 -1.24016 0
M  V30 3512 C 355.972 -0.654803 -1.96265 0
M  V30 3513 C 356.387 0.776708 -1.72083 0
M  V30 3514 O 355.744 1.52171 -1.00748 0
M  V30 3515 C 355.795 -0.92592 -3.49441 0
M  V30 3516 O 355.516 -2.30116 -3.72798 0
M  V30 3517 C 357.017 -0.623068 -4.38899 0
M  V30 3518 H 354.237 -0.243907 -0.6251 0
M  V30 3519 H 356.781 -1.30175 -1.57717 0
M  V30 3520 H 354.936 -0.325108 -3.86033 0
M  V30 3521 H 355.35 -2.38483 -4.67147 0
M  V30 3522 H 356.824 -0.863189 -5.45209 0
M  V30 3523 H 357.301 0.442754 -4.36963 0
M  V30 3524 H 357.907 -1.204 -4.07902 0
M  V30 3525 N 356.222 1.38976 -0.743202 0
M  V30 3526 C 357.45 2.04636 -0.30525 0
M  V30 3527 C 357.865 1.56044 1.06281 0
M  V30 3528 O 357.222 0.728921 1.67311 0
M  V30 3529 C 357.273 3.60193 -0.307177 0
M  V30 3530 O 356.994 4.06998 -1.62124 0
M  V30 3531 C 358.495 4.4306 0.145928 0
M  V30 3532 H 355.715 0.65788 -0.132041 0
M  V30 3533 H 358.259 1.77866 -1.00915 0
M  V30 3534 H 356.414 3.85835 0.347898 0
M  V30 3535 H 356.828 5.01371 -1.54036 0
M  V30 3536 H 358.302 5.51921 0.0934183 0
M  V30 3537 H 358.779 4.22706 1.19231 0
M  V30 3538 H 359.385 4.22584 -0.479886 0
M  V30 3539 N 357.7 0.491464 1.49741 0
M  V30 3540 C 358.947 -0.0564256 2.02421 0
M  V30 3541 C 359.275 -1.37872 1.37192 0
M  V30 3542 O 358.53 -1.89375 0.493508 0
M  V30 3543 C 358.829 -0.267329 3.56399 0
M  V30 3544 C 358.495 0.975775 4.40215 0
M  V30 3545 C 357.157 1.31655 4.62839 0
M  V30 3546 C 359.509 1.80251 4.89039 0
M  V30 3547 C 356.837 2.48375 5.31532 0
M  V30 3548 C 359.189 2.96116 5.59015 0
M  V30 3549 C 357.853 3.30585 5.79888 0
M  V30 3550 H 357.123 -0.0206476 0.740712 0
M  V30 3551 H 359.77 0.649686 1.80143 0
M  V30 3552 H 358.075 -1.05588 3.77304 0
M  V30 3553 H 359.772 -0.705549 3.94744 0
M  V30 3554 H 356.362 0.700315 4.2284 0
M  V30 3555 H 360.546 1.55239 4.71396 0
M  V30 3556 H 355.802 2.7533 5.45897 0
M  V30 3557 H 359.976 3.60509 5.95824 0
M  V30 3558 H 357.603 4.21132 6.32892 0
M  V30 3559 N 359.178 -1.55987 0.224894 0
M  V30 3560 C 360.418 -2.00293 -0.407706 0
M  V30 3561 C 360.782 -1.1093 -1.56711 0
M  V30 3562 O 361.983 -1.44597 -2.26595 0
M  V30 3563 C 360.254 -3.47675 -0.82805 0
M  V30 3564 S 361.813 -4.14 -1.45429 0
M  V30 3565 H 358.631 -0.699152 -0.129256 0
M  V30 3566 H 361.233 -1.92609 0.334967 0
M  V30 3567 H 359.937 -4.10392 0.0253964 0
M  V30 3568 H 359.468 -3.59239 -1.60345 0
M  V30 3569 H 361.483 -4.13465 -2.74337 0
M  V30 3570 N 360.656 0.0484629 -1.57525 0
M  V30 3571 C 361.586 1.0549 -2.08313 0
M  V30 3572 C 362.567 1.38929 -0.981463 0
M  V30 3573 O 363.752 1.48151 -1.25558 0
M  V30 3574 C 360.882 2.36162 -2.54646 0
M  V30 3575 C 359.836 2.17016 -3.68901 0
M  V30 3576 C 359.162 3.53278 -4.01371 0
M  V30 3577 C 360.462 1.57219 -4.98076 0
M  V30 3578 H 362.156 0.632195 -2.92649 0
M  V30 3579 H 359.702 0.302654 -1.40784 0
M  V30 3580 H 361.655 3.06882 -2.88793 0
M  V30 3581 H 360.379 2.80456 -1.67368 0
M  V30 3582 H 359.038 1.48733 -3.35073 0
M  V30 3583 H 358.686 3.95185 -3.11188 0
M  V30 3584 H 358.386 3.41299 -4.78318 0
M  V30 3585 H 359.91 4.25391 -4.38035 0
M  V30 3586 H 361.324 2.17832 -5.30304 0
M  V30 3587 H 359.721 1.55871 -5.79503 0
M  V30 3588 H 360.791 0.535956 -4.81929 0
M  V30 3589 N 362.134 1.5431 0.320358 0
M  V30 3590 C 363.044 1.86946 1.41734 0
M  V30 3591 C 364.06 0.761689 1.56443 0
M  V30 3592 O 365.236 1.05629 1.71477 0
M  V30 3593 C 362.301 2.09293 2.76401 0
M  V30 3594 C 361.362 3.33082 2.70841 0
M  V30 3595 C 360.595 3.54353 3.99086 0
M  V30 3596 O 360.818 2.79002 4.97508 0
M  V30 3597 O 359.752 4.47838 4.0215 0
M  V30 3598 H 363.578 2.80232 1.17062 0
M  V30 3599 H 361.163 1.40255 0.514673 0
M  V30 3600 H 363.045 2.25303 3.56113 0
M  V30 3601 H 361.72 1.19194 3.00956 0
M  V30 3602 H 360.627 3.22454 1.89668 0
M  V30 3603 H 361.96 4.23249 2.5124 0
M  V30 3604 N 363.613 -0.582584 1.46437 0
M  V30 3605 C 364.841 -1.36682 1.55324 0
M  V30 3606 C 365.256 -1.87796 0.194409 0
M  V30 3607 O 364.613 -1.63623 -0.808318 0
M  V30 3608 C 364.664 -2.55426 2.55812 0
M  V30 3609 O 364.385 -2.0643 3.86417 0
M  V30 3610 C 365.886 -3.47976 2.74641 0
M  V30 3611 H 363.106 -0.417545 0.525259 0
M  V30 3612 H 365.65 -0.708219 1.91845 0
M  V30 3613 H 363.805 -3.17275 2.22295 0
M  V30 3614 H 364.219 -2.83762 4.41111 0
M  V30 3615 H 365.693 -4.27775 3.48874 0
M  V30 3616 H 366.17 -3.99919 1.81553 0
M  V30 3617 H 366.776 -2.91962 3.09255 0
M  V30 3618 N 365.091 -1.34144 -0.827227 0
M  V30 3619 C 366.041 -1.21923 -1.92663 0
M  V30 3620 C 367.025 -0.119294 -1.60457 0
M  V30 3621 O 368.217 -0.348539 -1.73534 0
M  V30 3622 C 365.346 -0.972492 -3.29238 0
M  V30 3623 C 364.432 -2.1154 -3.67576 0
M  V30 3624 N 364.823 -3.36627 -3.77512 0
M  V30 3625 C 363.121 -2.02468 -3.97395 0
M  V30 3626 C 363.822 -4.11658 -4.1099 0
M  V30 3627 N 362.798 -3.40207 -4.23981 0
M  V30 3628 H 366.6 -2.16721 -1.98517 0
M  V30 3629 H 364.114 -1.2632 -1.02064 0
M  V30 3630 H 366.111 -0.865847 -4.0781 0
M  V30 3631 H 364.771 -0.0331509 -3.24683 0
M  V30 3632 H 365.782 -3.71234 -3.61118 0
M  V30 3633 H 362.459 -1.16265 -4.00985 0
M  V30 3634 H 363.849 -5.19657 -4.25918 0
M  V30 3635 N 366.569 1.04691 -1.17803 0
M  V30 3636 C 367.479 2.16057 -0.914151 0
M  V30 3637 C 368.495 1.73589 0.119503 0
M  V30 3638 O 369.671 2.01308 -0.0609468 0
M  V30 3639 C 366.736 3.4394 -0.436603 0
M  V30 3640 C 365.797 4.00825 -1.53746 0
M  V30 3641 C 365.03 5.22604 -1.0826 0
M  V30 3642 O 365.253 5.70367 0.0612244 0
M  V30 3643 O 364.187 5.7186 -1.87775 0
M  V30 3644 H 368.013 2.41169 -1.84584 0
M  V30 3645 H 365.598 1.1453 -0.959334 0
M  V30 3646 H 367.48 4.21024 -0.178057 0
M  V30 3647 H 366.155 3.20316 0.466869 0
M  V30 3648 H 365.062 3.25158 -1.84995 0
M  V30 3649 H 366.395 4.28778 -2.41683 0
M  V30 3650 N 368.047 0.979072 1.23499 0
M  V30 3651 C 369.01 0.523244 2.23147 0
M  V30 3652 C 370.01 -0.386406 1.56088 0
M  V30 3653 O 371.2 -0.180283 1.73265 0
M  V30 3654 C 368.332 -0.240739 3.40049 0
M  V30 3655 H 369.525 1.40432 2.64989 0
M  V30 3656 H 367.078 0.764824 1.36309 0
M  V30 3657 H 367.813 -1.13841 3.03662 0
M  V30 3658 H 367.598 0.412207 3.89927 0
M  V30 3659 H 369.088 -0.548297 4.13985 0
M  V30 3660 N 369.525 -1.3858 0.750561 0
M  V30 3661 C 370.772 -2.00184 0.305373 0
M  V30 3662 C 371.1 -1.59575 -1.11203 0
M  V30 3663 O 370.355 -0.823236 -1.77542 0
M  V30 3664 C 370.654 -3.55455 0.372373 0
M  V30 3665 C 370.32 -4.15765 1.745 0
M  V30 3666 C 368.982 -4.31951 2.12065 0
M  V30 3667 C 371.334 -4.49067 2.64553 0
M  V30 3668 C 368.662 -4.78734 3.39162 0
M  V30 3669 C 371.014 -4.97265 3.91038 0
M  V30 3670 C 369.678 -5.11658 4.28676 0
M  V30 3671 H 368.948 -0.732526 0.111744 0
M  V30 3672 H 371.595 -1.65673 0.960451 0
M  V30 3673 H 369.9 -3.90084 -0.366272 0
M  V30 3674 H 371.597 -4.00999 0.00953918 0
M  V30 3675 H 368.187 -4.03579 1.44297 0
M  V30 3676 H 372.371 -4.36166 2.36796 0
M  V30 3677 H 367.627 -4.88062 3.68246 0
M  V30 3678 H 371.801 -5.22003 4.60962 0
M  V30 3679 H 369.428 -5.47668 5.27222 0
M  V30 3680 N 371.003 -0.499398 -1.49478 0
M  V30 3681 C 371.951 0.293604 -2.3074 0
M  V30 3682 C 372.945 0.96427 -1.39277 0
M  V30 3683 O 374.151 0.892141 -1.56336 0
M  V30 3684 H 370.526 0.113541 -0.743379 0
M  V30 3685 H 372.497 -0.411772 -2.95545 0
M  V30 3686 C 371.246 1.3462 -3.20582 0
M  V30 3687 H 370.569 0.83954 -3.90886 0
M  V30 3688 H 372.009 1.87308 -3.80384 0
M  V30 3689 C 370.468 2.36351 -2.40083 0
M  V30 3690 O 370.998 3.422 -2.10385 0
M  V30 3691 N 369.204 2.0878 -2.02137 0
M  V30 3692 H 368.751 1.22723 -2.26488 0
M  V30 3693 H 368.709 2.77075 -1.48583 0
M  V30 3694 N 372.481 1.55866 -0.233164 0
M  V30 3695 C 373.73 1.97779 0.39579 0
M  V30 3696 C 374.043 1.12419 1.60066 0
M  V30 3697 O 375.249 1.44283 2.29988 0
M  V30 3698 C 373.705 3.5188 0.755556 0
M  V30 3699 C 373.313 4.45959 -0.427152 0
M  V30 3700 C 375.057 4.02479 1.34946 0
M  V30 3701 C 372.964 5.91383 -0.0443043 0
M  V30 3702 H 371.894 0.738592 0.15165 0
M  V30 3703 H 374.545 1.80486 -0.331212 0
M  V30 3704 H 372.927 3.64816 1.5403 0
M  V30 3705 H 374.101 4.44776 -1.20462 0
M  V30 3706 H 372.416 4.05765 -0.935068 0
M  V30 3707 H 375.013 5.08637 1.649 0
M  V30 3708 H 375.356 3.49014 2.26925 0
M  V30 3709 H 375.889 3.92813 0.62791 0
M  V30 3710 H 372.628 6.48857 -0.930874 0
M  V30 3711 H 372.148 5.95734 0.697238 0
M  V30 3712 H 373.827 6.45893 0.378334 0
M  V30 3713 N 373.959 -0.0401083 1.57549 0
M  V30 3714 C 375.236 -0.767917 1.79896 0
M  V30 3715 C 375.616 -1.9416 0.82856 0
M  V30 3716 O 374.964 -2.2812 -0.131671 0
M  V30 3717 C 375.174 -1.2113 3.27305 0
M  V30 3718 C 376.522 -1.63175 3.91994 0
M  V30 3719 O 377.546 -1.30616 3.31388 0
M  V30 3720 O 376.405 -2.23565 4.98679 0
M  V30 3721 H 373.499 -0.370441 0.739393 0
M  V30 3722 H 376.045 -0.017737 1.69691 0
M  V30 3723 H 374.817 -0.372937 3.89519 0
M  V30 3724 H 374.44 -2.02183 3.42356 0
M  V30 3725 N 375.437 -1.54477 -0.31217 0
M  V30 3726 C 376.853 -1.45442 -0.657185 0
M  V30 3727 C 377.053 -0.63653 -1.91182 0
M  V30 3728 O 376.109 -0.139815 -2.52113 0
M  V30 3729 C 377.422 -2.89287 -0.82058 0
M  V30 3730 C 378.97 -2.9926 -0.917188 0
M  V30 3731 C 379.445 -4.44279 -1.11267 0
M  V30 3732 N 380.936 -4.4794 -1.17914 0
M  V30 3733 C 381.671 -5.57318 -1.34848 0
M  V30 3734 N 381.167 -6.76642 -1.48752 0
M  V30 3735 N 382.96 -5.44986 -1.37647 0
M  V30 3736 H 375.111 -2.06129 0.512313 0
M  V30 3737 H 377.374 -0.933088 0.167485 0
M  V30 3738 H 377.08 -3.51687 0.0302604 0
M  V30 3739 H 376.954 -3.36061 -1.71298 0
M  V30 3740 H 379.341 -2.36981 -1.75852 0
M  V30 3741 H 379.422 -2.558 -0.00101257 0
M  V30 3742 H 379.066 -5.07149 -0.27614 0
M  V30 3743 H 378.996 -4.85359 -2.04289 0
M  V30 3744 H 381.487 -3.61969 -1.08567 0
M  V30 3745 H 381.8 -7.55758 -1.61397 0
M  V30 3746 H 380.145 -6.79529 -1.45828 0
M  V30 3747 H 383.336 -4.50715 -1.26388 0
M  V30 3748 H 383.509 -6.3028 -1.50501 0
M  V30 3749 N 376.915 0.57481 -1.46744 0
M  V30 3750 C 377.863 1.70435 -1.58286 0
M  V30 3751 C 378.857 1.63287 -0.450956 0
M  V30 3752 O 380.063 1.68685 -0.628121 0
M  V30 3753 H 376.438 0.56364 -0.497809 0
M  V30 3754 H 378.409 1.57833 -2.53242 0
M  V30 3755 C 377.158 3.08815 -1.59776 0
M  V30 3756 H 376.481 3.1499 -2.46214 0
M  V30 3757 H 377.921 3.87588 -1.71905 0
M  V30 3758 C 376.38 3.35301 -0.327812 0
M  V30 3759 O 376.91 3.97511 0.57861 0
M  V30 3760 N 375.116 2.89816 -0.213274 0
M  V30 3761 H 374.663 2.39371 -0.951798 0
M  V30 3762 H 374.621 3.0791 0.63553 0
M  V30 3763 N 378.394 1.34581 0.820102 0
M  V30 3764 C 379.64 1.27285 1.57881 0
M  V30 3765 C 379.973 -0.156137 1.93571 0
M  V30 3766 O 379.248 -1.10222 1.60254 0
M  V30 3767 C 379.531 2.16639 2.87645 0
M  V30 3768 C 379.384 3.68088 2.58517 0
M  V30 3769 C 380.703 2.05378 3.8924 0
M  V30 3770 H 377.822 0.463714 0.572833 0
M  V30 3771 H 380.464 1.64859 0.944539 0
M  V30 3772 H 378.614 1.84725 3.41773 0
M  V30 3773 H 380.286 4.10382 2.10676 0
M  V30 3774 H 378.529 3.89038 1.91917 0
M  V30 3775 H 379.2 4.2598 3.51063 0
M  V30 3776 H 381.676 2.33404 3.44473 0
M  V30 3777 H 380.552 2.7012 4.77835 0
M  V30 3778 H 380.813 1.0316 4.29896 0
M  V30 3779 N 379.872 -1.04064 1.18357 0
M  V30 3780 C 381.1 -1.80916 1.00384 0
M  V30 3781 C 381.515 -1.83414 -0.447738 0
M  V30 3782 O 380.872 -1.26962 -1.31099 0
M  V30 3783 C 380.923 -3.26516 1.55144 0
M  V30 3784 O 380.644 -3.2424 2.94618 0
M  V30 3785 C 382.145 -4.20013 1.41789 0
M  V30 3786 H 379.365 -0.569728 0.354474 0
M  V30 3787 H 381.909 -1.31151 1.56906 0
M  V30 3788 H 380.064 -3.73512 1.02798 0
M  V30 3789 H 380.478 -4.15452 3.20156 0
M  V30 3790 H 381.952 -5.20111 1.84901 0
M  V30 3791 H 382.429 -4.37667 0.36661 0
M  V30 3792 H 383.035 -3.78881 1.93207 0
M  V30 3793 N 381.35 -0.985608 -1.22978 0
M  V30 3794 C 382.26 -0.538548 -2.28335 0
M  V30 3795 C 383.276 0.409163 -1.69121 0
M  V30 3796 O 384.452 0.277797 -1.99475 0
M  V30 3797 C 381.517 0.146867 -3.46389 0
M  V30 3798 C 380.578 -0.842896 -4.20944 0
M  V30 3799 C 379.811 -0.190095 -5.33361 0
M  V30 3800 O 380.034 1.01767 -5.61248 0
M  V30 3801 O 378.968 -0.891289 -5.95264 0
M  V30 3802 H 382.794 -1.41487 -2.68729 0
M  V30 3803 H 380.379 -0.753495 -1.29007 0
M  V30 3804 H 382.261 0.531125 -4.1804 0
M  V30 3805 H 380.936 0.997871 -3.07935 0
M  V30 3806 H 379.843 -1.27795 -3.51595 0
M  V30 3807 H 381.176 -1.66287 -4.6326 0
M  V30 3808 N 382.828 1.3818 -0.7579 0
M  V30 3809 C 384.077 1.99261 -0.312744 0
M  V30 3810 C 384.39 1.60846 1.11301 0
M  V30 3811 O 385.596 2.14929 1.65885 0
M  V30 3812 C 384.052 3.56294 -0.50821 0
M  V30 3813 C 383.66 4.03657 -1.94333 0
M  V30 3814 C 385.404 4.24313 -0.125982 0
M  V30 3815 C 383.311 5.53347 -2.08712 0
M  V30 3816 H 382.241 0.745456 -0.113185 0
M  V30 3817 H 384.892 1.57889 -0.935056 0
M  V30 3818 H 383.274 3.95575 0.183353 0
M  V30 3819 H 384.448 3.75655 -2.66871 0
M  V30 3820 H 382.763 3.48376 -2.28086 0
M  V30 3821 H 385.36 5.34279 -0.212125 0
M  V30 3822 H 385.703 4.05962 0.921964 0
M  V30 3823 H 386.236 3.90285 -0.769563 0
M  V30 3824 H 382.975 5.76607 -3.11777 0
M  V30 3825 H 382.495 5.83078 -1.4064 0
M  V30 3826 H 384.174 6.19111 -1.87912 0
M  V30 3827 N 384.306 0.507319 1.49211 0
M  V30 3828 C 385.236 -0.256939 2.32082 0
M  V30 3829 C 386.217 -0.956609 1.40652 0
M  V30 3830 O 387.402 -0.946788 1.69557 0
M  V30 3831 C 384.532 -1.31802 3.21318 0
M  V30 3832 C 383.486 -0.737855 4.21592 0
M  V30 3833 C 382.812 -1.89992 4.99807 0
M  V30 3834 C 384.112 0.275325 5.21574 0
M  V30 3835 H 385.806 0.434798 2.96226 0
M  V30 3836 H 383.352 0.210546 1.42452 0
M  V30 3837 H 385.305 -1.86045 3.78107 0
M  V30 3838 H 384.029 -2.03903 2.5513 0
M  V30 3839 H 382.688 -0.217126 3.65956 0
M  V30 3840 H 382.336 -2.60877 4.30061 0
M  V30 3841 H 382.036 -1.51777 5.6766 0
M  V30 3842 H 383.56 -2.44657 5.59442 0
M  V30 3843 H 384.974 -0.179193 5.7302 0
M  V30 3844 H 383.371 0.573649 5.97352 0
M  V30 3845 H 384.441 1.18903 4.70096 0
M  V30 3846 N 385.784 -1.5574 0.241426 0
M  V30 3847 C 387.2 -1.59196 -0.113548 0
M  V30 3848 C 387.4 -1.25852 -1.57364 0
M  V30 3849 O 386.456 -1.00322 -2.31715 0
M  V30 3850 C 387.769 -2.99814 0.230695 0
M  V30 3851 C 389.317 -3.12513 0.174547 0
M  V30 3852 C 389.792 -4.55342 0.492744 0
M  V30 3853 N 391.283 -4.61076 0.443043 0
M  V30 3854 C 392.018 -5.6956 0.662484 0
M  V30 3855 N 391.514 -6.86328 0.944761 0
M  V30 3856 N 393.307 -5.58957 0.593564 0
M  V30 3857 H 385.458 -1.75685 1.19368 0
M  V30 3858 H 387.721 -0.81756 0.479896 0
M  V30 3859 H 387.427 -3.28932 1.24485 0
M  V30 3860 H 387.301 -3.74568 -0.444833 0
M  V30 3861 H 389.688 -2.83179 -0.830277 0
M  V30 3862 H 389.769 -2.40045 0.883845 0
M  V30 3863 H 389.413 -4.85396 1.4951 0
M  V30 3864 H 389.343 -5.26062 -0.23797 0
M  V30 3865 H 391.834 -3.77179 0.233374 0
M  V30 3866 H 392.147 -7.64935 1.09977 0
M  V30 3867 H 390.492 -6.88025 0.982175 0
M  V30 3868 H 393.683 -4.66611 0.373123 0
M  V30 3869 H 393.856 -6.43433 0.767981 0
M  V30 3870 N 387.262 0.0317525 -1.57568 0
M  V30 3871 C 388.508 0.724175 -1.8943 0
M  V30 3872 C 388.841 1.75149 -0.838836 0
M  V30 3873 O 388.116 1.93948 0.146422 0
M  V30 3874 C 388.399 1.39615 -3.31933 0
M  V30 3875 C 388.252 0.382537 -4.4817 0
M  V30 3876 C 389.571 2.33084 -3.73309 0
M  V30 3877 H 386.69 0.261797 -0.688935 0
M  V30 3878 H 389.332 -0.013017 -1.89996 0
M  V30 3879 H 387.482 2.02451 -3.31581 0
M  V30 3880 H 389.154 -0.243689 -4.60656 0
M  V30 3881 H 387.397 -0.29844 -4.32772 0
M  V30 3882 H 388.068 0.891145 -5.44759 0
M  V30 3883 H 390.544 1.80295 -3.7501 0
M  V30 3884 H 389.42 2.77084 -4.73831 0
M  V30 3885 H 389.681 3.19643 -3.05419 0
M  V30 3886 N 388.74 1.54641 0.303973 0
M  V30 3887 C 389.988 1.73437 1.0375 0
M  V30 3888 C 390.309 0.521449 1.87899 0
M  V30 3889 O 389.579 -0.46432 1.90318 0
M  V30 3890 H 388.159 0.639518 0.386039 0
M  V30 3891 H 390.821 1.91988 0.335675 0
M  V30 3892 H 389.917 2.62235 1.69231 0
M  V30 3893 N 390.218 -0.567019 1.47046 0
M  V30 3894 C 391.166 -1.69593 1.59188 0
M  V30 3895 C 392.16 -1.63046 0.459609 0
M  V30 3896 O 393.366 -1.6835 0.637058 0
M  V30 3897 H 389.741 -0.560993 0.500791 0
M  V30 3898 H 391.712 -1.56488 2.54075 0
M  V30 3899 C 390.461 -3.07964 1.61411 0
M  V30 3900 H 389.784 -3.13679 2.47881 0
M  V30 3901 H 391.224 -3.86671 1.73958 0
M  V30 3902 C 389.683 -3.35123 0.34559 0
M  V30 3903 O 390.213 -3.97812 -0.557521 0
M  V30 3904 N 388.419 -2.89699 0.22864 0
M  V30 3905 H 387.966 -2.38863 0.964479 0
M  V30 3906 H 387.924 -3.08242 -0.619192 0
M  V30 3907 N 391.696 -1.35014 -0.812953 0
M  V30 3908 C 392.945 -1.27269 -1.56479 0
M  V30 3909 C 393.258 0.152771 -1.95002 0
M  V30 3910 O 394.464 0.352451 -2.69203 0
M  V30 3911 C 392.92 -2.23159 -2.82362 0
M  V30 3912 C 392.528 -3.71016 -2.511 0
M  V30 3913 C 394.272 -2.24342 -3.60376 0
M  V30 3914 C 392.179 -4.58746 -3.73237 0
M  V30 3915 H 391.109 -0.472829 -0.587324 0
M  V30 3916 H 393.76 -1.6024 -0.894171 0
M  V30 3917 H 392.142 -1.83151 -3.51101 0
M  V30 3918 H 393.316 -4.1962 -1.90409 0
M  V30 3919 H 391.631 -3.72378 -1.86343 0
M  V30 3920 H 394.228 -2.87107 -4.51081 0
M  V30 3921 H 394.571 -1.24542 -3.97234 0
M  V30 3922 H 395.104 -2.62846 -2.98591 0
M  V30 3923 H 391.843 -5.59521 -3.41492 0
M  V30 3924 H 391.363 -4.14871 -4.33176 0
M  V30 3925 H 393.042 -4.73852 -4.40537 0
M  V30 3926 N 393.175 1.03435 -1.18907 0
M  V30 3927 C 394.403 1.80381 -1.01342 0
M  V30 3928 C 394.818 1.83649 0.438005 0
M  V30 3929 O 394.175 1.27655 1.30424 0
M  V30 3930 C 394.226 3.25689 -1.56873 0
M  V30 3931 O 393.947 3.22673 -2.96334 0
M  V30 3932 C 395.448 4.19255 -1.44014 0
M  V30 3933 H 392.668 0.56784 -0.35749 0
M  V30 3934 H 395.212 1.30317 -1.576 0
M  V30 3935 H 393.367 3.72962 -1.04777 0
M  V30 3936 H 393.781 4.13748 -3.22355 0
M  V30 3937 H 395.255 5.19123 -1.87657 0
M  V30 3938 H 395.732 4.37467 -0.389815 0
M  V30 3939 H 396.338 3.77851 -1.95214 0
M  V30 3940 N 394.653 0.992116 1.22453 0
M  V30 3941 C 395.878 0.685644 1.95739 0
M  V30 3942 C 396.303 -0.743 1.72804 0
M  V30 3943 O 395.661 -1.50778 1.00676 0
M  V30 3944 C 395.709 0.996293 3.46564 0
M  V30 3945 O 394.813 0.0945512 4.12292 0
M  V30 3946 H 394.154 0.256694 0.612376 0
M  V30 3947 H 396.684 1.32888 1.5557 0
M  V30 3948 H 396.694 0.93781 3.97076 0
M  V30 3949 H 395.369 2.03733 3.62582 0
M  V30 3950 H 393.946 0.208451 3.72317 0
M  V30 3951 N 396.131 -1.37776 0.765217 0
M  V30 3952 C 397.377 -2.00145 0.327072 0
M  V30 3953 C 397.71 -1.60607 -1.09175 0
M  V30 3954 O 396.985 -0.849127 -1.74986 0
M  V30 3955 C 397.268 -3.57109 0.46319 0
M  V30 3956 C 397.121 -4.06576 1.92395 0
M  V30 3957 C 398.44 -4.39888 -0.136473 0
M  V30 3958 H 395.559 -0.727113 0.120316 0
M  V30 3959 H 398.201 -1.63549 0.967039 0
M  V30 3960 H 396.351 -3.88414 -0.0816358 0
M  V30 3961 H 398.023 -3.85864 2.52798 0
M  V30 3962 H 396.266 -3.59011 2.43503 0
M  V30 3963 H 396.937 -5.15639 1.97028 0
M  V30 3964 H 399.413 -4.14803 0.328317 0
M  V30 3965 H 398.289 -5.48899 -0.0110582 0
M  V30 3966 H 398.55 -4.24758 -1.22608 0
M  V30 3967 N 397.609 -0.515225 -1.4894 0
M  V30 3968 C 398.559 0.275113 -2.26334 0
M  V30 3969 C 399.543 0.923007 -1.31793 0
M  V30 3970 O 400.735 0.828254 -1.56426 0
M  V30 3971 C 397.864 1.33041 -3.16473 0
M  V30 3972 C 396.95 0.688051 -4.18481 0
M  V30 3973 N 397.341 -0.217638 -5.05332 0
M  V30 3974 C 395.639 0.94699 -4.3583 0
M  V30 3975 C 396.34 -0.58676 -5.78733 0
M  V30 3976 N 395.316 0.0486966 -5.43578 0
M  V30 3977 H 399.118 -0.421876 -2.90856 0
M  V30 3978 H 396.632 -0.332249 -1.58965 0
M  V30 3979 H 398.629 1.9102 -3.70563 0
M  V30 3980 H 397.289 2.02894 -2.53504 0
M  V30 3981 H 398.3 -0.589343 -5.14536 0
M  V30 3982 H 394.977 1.63719 -3.8406 0
M  V30 3983 H 396.367 -1.32855 -6.58634 0
M  V30 3984 N 399.087 1.5561 -0.249682 0
M  V30 3985 C 400.334 1.99011 0.374287 0
M  V30 3986 C 400.662 1.13785 1.57744 0
M  V30 3987 O 399.917 0.189326 1.94782 0
M  V30 3988 C 400.216 3.4775 0.824887 0
M  V30 3989 C 399.882 4.50086 -0.270819 0
M  V30 3990 C 398.544 4.77791 -0.571746 0
M  V30 3991 C 400.896 5.11312 -1.01041 0
M  V30 3992 C 398.224 5.63997 -1.61629 0
M  V30 3993 C 400.576 5.98651 -2.0445 0
M  V30 3994 C 399.24 6.24688 -2.35204 0
M  V30 3995 H 398.51 0.728233 0.136961 0
M  V30 3996 H 401.157 1.88122 -0.358087 0
M  V30 3997 H 399.462 3.55985 1.63651 0
M  V30 3998 H 401.159 3.78721 1.31799 0
M  V30 3999 H 397.749 4.28592 -0.026136 0
M  V30 4000 H 401.933 4.89953 -0.791177 0
M  V30 4001 H 397.189 5.82425 -1.85988 0
M  V30 4002 H 401.363 6.45135 -2.62248 0
M  V30 4003 H 398.99 6.91281 -3.16282 0
M  V30 4004 N 400.565 -0.0233959 1.57583 0
M  V30 4005 C 401.981 -0.379134 1.55031 0
M  V30 4006 C 402.181 -1.76255 0.976548 0
M  V30 4007 O 401.237 -2.45266 0.600078 0
M  V30 4008 C 402.55 -0.275792 2.99433 0
M  V30 4009 C 404.098 -0.352458 3.11009 0
M  V30 4010 C 404.573 -0.278501 4.57152 0
M  V30 4011 N 406.064 -0.337123 4.61972 0
M  V30 4012 C 406.799 -0.302876 5.726 0
M  V30 4013 N 406.295 -0.220589 6.92449 0
M  V30 4014 N 408.088 -0.353023 5.6099 0
M  V30 4015 H 400.239 0.881869 1.93227 0
M  V30 4016 H 402.502 0.335867 0.886509 0
M  V30 4017 H 402.208 0.675108 3.4516 0
M  V30 4018 H 402.082 -1.06721 3.61788 0
M  V30 4019 H 404.469 -1.29379 2.65226 0
M  V30 4020 H 404.55 0.468409 2.51475 0
M  V30 4021 H 404.194 0.659189 5.03604 0
M  V30 4022 H 404.124 -1.11755 5.14605 0
M  V30 4023 H 406.615 -0.403002 3.75745 0
M  V30 4024 H 406.928 -0.199713 7.72542 0
M  V30 4025 H 405.273 -0.186555 6.9475 0
M  V30 4026 H 408.464 -0.415339 4.66254 0
M  V30 4027 H 408.637 -0.322866 6.47195 0
M  V30 4028 N 402.043 -1.548 -0.295768 0
M  V30 4029 C 403.459 -1.4613 -0.641722 0
M  V30 4030 C 403.659 -0.656771 -1.90496 0
M  V30 4031 O 402.715 -0.166547 -2.5195 0
M  V30 4032 C 404.028 -2.90141 -0.789852 0
M  V30 4033 C 405.576 -3.00216 -0.885396 0
M  V30 4034 C 406.051 -4.45434 -1.06548 0
M  V30 4035 N 407.542 -4.49166 -1.13156 0
M  V30 4036 C 408.277 -5.58717 -1.28929 0
M  V30 4037 N 407.773 -6.78182 -1.41567 0
M  V30 4038 N 409.566 -5.46415 -1.31859 0
M  V30 4039 H 401.717 -2.05574 0.534147 0
M  V30 4040 H 403.98 -0.931259 0.177372 0
M  V30 4041 H 403.686 -3.51635 0.0675598 0
M  V30 4042 H 403.56 -3.37859 -1.67724 0
M  V30 4043 H 405.947 -2.38833 -1.73329 0
M  V30 4044 H 406.028 -2.55787 0.0261185 0
M  V30 4045 H 405.672 -5.07413 -0.222335 0
M  V30 4046 H 405.602 -4.87499 -1.9913 0
M  V30 4047 H 408.093 -3.631 -1.04721 0
M  V30 4048 H 408.406 -7.57428 -1.53372 0
M  V30 4049 H 406.751 -6.81037 -1.38613 0
M  V30 4050 H 409.942 -4.5203 -1.21601 0
M  V30 4051 H 410.115 -6.31841 -1.43808 0
M  V30 4052 N 403.521 0.559213 -1.47345 0
M  V30 4053 C 404.431 1.69388 -1.62311 0
M  V30 4054 C 405.447 1.6648 -0.505993 0
M  V30 4055 O 406.623 1.85964 -0.773262 0
M  V30 4056 C 403.688 3.05894 -1.63185 0
M  V30 4057 C 402.749 3.19885 -2.86307 0
M  V30 4058 C 401.982 4.49879 -2.87131 0
M  V30 4059 O 402.205 5.35217 -1.97229 0
M  V30 4060 O 401.139 4.67618 -3.78968 0
M  V30 4061 H 404.965 1.59706 -2.58317 0
M  V30 4062 H 402.55 0.728989 -1.30407 0
M  V30 4063 H 404.432 3.87133 -1.66451 0
M  V30 4064 H 403.107 3.15964 -0.70345 0
M  V30 4065 H 402.014 2.38052 -2.88587 0
M  V30 4066 H 403.347 3.14718 -3.78435 0
M  V30 4067 N 404.999 1.35443 0.805782 0
M  V30 4068 C 406.245 1.28952 1.56522 0
M  V30 4069 C 406.578 -0.135597 1.93726 0
M  V30 4070 O 405.853 -1.08516 1.61414 0
M  V30 4071 C 406.136 2.19678 2.85331 0
M  V30 4072 C 405.989 3.7081 2.54598 0
M  V30 4073 C 407.308 2.09495 3.8704 0
M  V30 4074 H 404.427 0.469764 0.567883 0
M  V30 4075 H 407.069 1.65851 0.927001 0
M  V30 4076 H 405.219 1.8834 3.39795 0
M  V30 4077 H 406.891 4.12593 2.06312 0
M  V30 4078 H 405.134 3.91051 1.8778 0
M  V30 4079 H 405.805 4.29679 3.46525 0
M  V30 4080 H 408.281 2.37045 3.41978 0
M  V30 4081 H 407.157 2.75173 4.74943 0
M  V30 4082 H 407.418 1.07714 4.28777 0
M  V30 4083 N 406.477 -1.02803 1.19454 0
M  V30 4084 C 407.387 -2.14575 0.948408 0
M  V30 4085 C 408.403 -1.73757 -0.091871 0
M  V30 4086 O 409.579 -2.01185 0.0929654 0
M  V30 4087 C 406.644 -3.43202 0.491265 0
M  V30 4088 C 405.705 -3.98328 1.60103 0
M  V30 4089 C 404.938 -5.20816 1.16561 0
M  V30 4090 O 405.161 -5.70392 0.0295238 0
M  V30 4091 O 404.095 -5.68801 1.96849 0
M  V30 4092 H 407.921 -2.38202 1.88397 0
M  V30 4093 H 405.506 -1.12989 0.977433 0
M  V30 4094 H 407.388 -4.20687 0.245015 0
M  V30 4095 H 406.063 -3.21018 -0.415851 0
M  V30 4096 H 404.97 -3.22174 1.90144 0
M  V30 4097 H 406.303 -4.24879 2.48473 0
M  V30 4098 N 407.956 -0.998596 -1.21925 0
M  V30 4099 C 409.184 -0.696286 -1.94832 0
M  V30 4100 C 409.599 0.740032 -1.73692 0
M  V30 4101 O 408.956 1.5 -1.03953 0
M  V30 4102 C 409.007 -0.999833 -3.47398 0
M  V30 4103 O 408.728 -2.37972 -3.67833 0
M  V30 4104 C 410.229 -0.716025 -4.37479 0
M  V30 4105 H 407.449 -0.257111 -0.619786 0
M  V30 4106 H 409.993 -1.33491 -1.54921 0
M  V30 4107 H 408.148 -0.406918 -3.85257 0
M  V30 4108 H 408.562 -2.48338 -4.61983 0
M  V30 4109 H 410.036 -0.978642 -5.43256 0
M  V30 4110 H 410.513 0.349968 -4.37803 0
M  V30 4111 H 411.119 -1.29025 -4.05256 0
M  V30 4112 N 409.434 1.37368 -0.772513 0
M  V30 4113 C 410.344 2.34053 -0.160081 0
M  V30 4114 C 411.36 1.60216 0.678728 0
M  V30 4115 O 412.536 1.92303 0.59847 0
M  V30 4116 C 409.601 3.3939 0.708182 0
M  V30 4117 C 408.662 4.29048 -0.147172 0
M  V30 4118 C 407.895 5.29354 0.679744 0
M  V30 4119 O 408.118 5.3723 1.91678 0
M  V30 4120 O 407.052 6.01835 0.0885444 0
M  V30 4121 H 410.878 2.88159 -0.959053 0
M  V30 4122 H 408.463 1.39543 -0.533685 0
M  V30 4123 H 410.345 4.03839 1.20384 0
M  V30 4124 H 409.02 2.8761 1.48533 0
M  V30 4125 H 407.927 3.67697 -0.689205 0
M  V30 4126 H 409.26 4.84134 -0.887423 0
M  V30 4127 N 410.912 0.523116 1.48665 0
M  V30 4128 C 412.323 0.0808997 1.86525 0
M  V30 4129 C 412.674 -1.33975 1.43336 0
M  V30 4130 O 411.799 -2.00221 0.821009 0
M  V30 4131 C 412.394 0.140037 3.3851 0
M  V30 4132 C 410.953 -0.246948 3.75589 0
M  V30 4133 C 410.1 0.502845 2.72703 0
M  V30 4134 H 413.051 0.734736 1.40667 0
M  V30 4135 H 413.072 -0.649945 3.74908 0
M  V30 4136 H 412.584 1.17412 3.69914 0
M  V30 4137 H 410.685 -1.28343 3.49798 0
M  V30 4138 H 410.798 0.0878859 4.79019 0
M  V30 4139 H 409.162 -0.0500581 2.54651 0
M  V30 4140 H 409.945 1.53743 3.0695 0
M  V30 4141 N 412.39 -1.55475 0.257931 0
M  V30 4142 C 413.639 -1.98383 -0.364275 0
M  V30 4143 C 413.952 -1.14952 -1.58258 0
M  V30 4144 O 415.158 -1.47924 -2.27664 0
M  V30 4145 C 413.614 -3.53037 -0.699479 0
M  V30 4146 C 413.222 -4.45223 0.498046 0
M  V30 4147 C 414.966 -4.04575 -1.28526 0
M  V30 4148 C 412.873 -5.91238 0.138383 0
M  V30 4149 H 411.803 -0.740911 -0.13988 0
M  V30 4150 H 414.454 -1.79936 0.359883 0
M  V30 4151 H 412.836 -3.6722 -1.48207 0
M  V30 4152 H 414.01 -4.42803 1.27522 0
M  V30 4153 H 412.325 -4.04226 0.999503 0
M  V30 4154 H 414.922 -5.11196 -1.56788 0
M  V30 4155 H 415.265 -3.5258 -2.21344 0
M  V30 4156 H 415.798 -3.93762 -0.565337 0
M  V30 4157 H 412.537 -6.47294 1.03398 0
M  V30 4158 H 412.057 -5.96768 -0.602374 0
M  V30 4159 H 413.736 -6.46413 -0.27553 0
M  V30 4160 N 413.868 0.0150385 -1.57593 0
M  V30 4161 C 414.798 1.01047 -2.10503 0
M  V30 4162 C 415.779 1.36816 -1.01071 0
M  V30 4163 O 416.964 1.45455 -1.28672 0
M  V30 4164 C 414.094 2.30708 -2.59598 0
M  V30 4165 C 413.048 2.09142 -3.73421 0
M  V30 4166 C 412.374 3.44685 -4.08774 0
M  V30 4167 C 413.674 1.46619 -5.01298 0
M  V30 4168 H 415.368 0.569978 -2.93925 0
M  V30 4169 H 412.914 0.272724 -1.41394 0
M  V30 4170 H 414.867 3.00687 -2.95238 0
M  V30 4171 H 413.591 2.76843 -1.73279 0
M  V30 4172 H 412.25 1.41592 -3.38153 0
M  V30 4173 H 411.898 3.88495 -3.195 0
M  V30 4174 H 411.598 3.31077 -4.8545 0
M  V30 4175 H 413.122 4.16004 -4.4696 0
M  V30 4176 H 414.536 2.06535 -5.34805 0
M  V30 4177 H 412.933 1.43544 -5.82679 0
M  V30 4178 H 414.003 0.433611 -4.82957 0
M  V30 4179 N 415.346 1.54954 0.287554 0
M  V30 4180 C 416.574 1.78881 1.03967 0
M  V30 4181 C 416.989 0.554894 1.80462 0
M  V30 4182 O 416.346 -0.475676 1.76192 0
M  V30 4183 C 416.397 3.00488 2.0097 0
M  V30 4184 O 416.118 4.19113 1.27577 0
M  V30 4185 C 417.619 3.36907 2.88112 0
M  V30 4186 H 414.839 0.596259 0.307761 0
M  V30 4187 H 417.383 2.01937 0.322749 0
M  V30 4188 H 415.538 2.79601 2.68145 0
M  V30 4189 H 415.952 4.87765 1.92835 0
M  V30 4190 H 417.426 4.25205 3.52001 0
M  V30 4191 H 417.903 2.55659 3.57121 0
M  V30 4192 H 418.509 3.60001 2.26449 0
M  V30 4193 N 416.824 -0.551391 1.4764 0
M  V30 4194 C 418.054 -1.33163 1.57959 0
M  V30 4195 C 418.462 -1.87785 0.23094 0
M  V30 4196 O 417.805 -1.65996 -0.786825 0
M  V30 4197 C 417.867 -2.53449 2.54958 0
M  V30 4198 C 417.531 -2.20071 4.00522 0
M  V30 4199 C 418.528 -1.77017 4.88836 0
M  V30 4200 C 416.213 -2.31252 4.45901 0
M  V30 4201 C 418.207 -1.4558 6.20552 0
M  V30 4202 C 415.894 -1.99427 5.77644 0
M  V30 4203 C 416.892 -1.56659 6.64791 0
M  V30 4204 O 416.58 -1.25242 7.94084 0
M  V30 4205 H 416.312 -0.412022 0.535923 0
M  V30 4206 H 418.866 -0.674186 1.9402 0
M  V30 4207 H 417.096 -3.22104 2.13976 0
M  V30 4208 H 418.785 -3.15523 2.55343 0
M  V30 4209 H 419.551 -1.67867 4.55023 0
M  V30 4210 H 415.43 -2.63498 3.78272 0
M  V30 4211 H 418.974 -1.12125 6.8853 0
M  V30 4212 H 414.871 -2.08211 6.10998 0
M  V30 4213 H 415.639 -1.38822 8.06642 0
M  V30 4214 N 418.302 -1.35869 -0.798587 0
M  V30 4215 C 419.551 -1.28921 -1.5512 0
M  V30 4216 C 419.864 0.13208 -1.95154 0
M  V30 4217 O 421.07 0.323879 -2.69561 0
M  V30 4218 C 419.526 -2.26141 -2.79979 0
M  V30 4219 C 419.134 -3.73658 -2.47151 0
M  V30 4220 C 420.878 -2.28152 -3.57976 0
M  V30 4221 C 418.785 -4.62679 -3.6835 0
M  V30 4222 H 417.715 -0.479031 -0.582276 0
M  V30 4223 H 420.366 -1.61179 -0.877125 0
M  V30 4224 H 418.748 -1.86865 -3.49138 0
M  V30 4225 H 419.922 -4.21616 -1.85947 0
M  V30 4226 H 418.237 -3.74333 -1.82383 0
M  V30 4227 H 420.834 -2.91875 -4.4801 0
M  V30 4228 H 421.177 -1.28748 -3.95891 0
M  V30 4229 H 421.71 -2.65998 -2.95787 0
M  V30 4230 H 418.449 -5.63111 -3.35538 0
M  V30 4231 H 417.969 -4.19442 -4.28752 0
M  V30 4232 H 419.648 -4.78498 -4.35487 0
M  V30 4233 N 419.78 1.02168 -1.19998 0
M  V30 4234 C 420.69 2.14069 -0.959774 0
M  V30 4235 C 421.706 1.73804 0.082655 0
M  V30 4236 O 422.882 2.01133 -0.103633 0
M  V30 4237 C 419.947 3.42936 -0.509459 0
M  V30 4238 C 419.008 3.97474 -1.62213 0
M  V30 4239 C 418.241 5.2019 -1.19321 0
M  V30 4240 O 418.464 5.70369 -0.0597726 0
M  V30 4241 O 417.398 5.67749 -1.99863 0
M  V30 4242 H 421.224 2.37199 -1.89658 0
M  V30 4243 H 418.809 1.12469 -0.983411 0
M  V30 4244 H 420.691 4.20551 -0.267322 0
M  V30 4245 H 419.366 3.21234 0.398821 0
M  V30 4246 H 418.273 3.21161 -1.9185 0
M  V30 4247 H 419.606 4.23555 -2.50723 0
M  V30 4248 N 421.258 1.00505 1.21394 0
M  V30 4249 C 422.506 0.686415 1.90086 0
M  V30 4250 C 422.827 -0.785264 1.7849 0
M  V30 4251 O 422.097 -1.56387 1.17983 0
M  V30 4252 H 420.677 0.2509 0.703604 0
M  V30 4253 H 423.339 1.27417 1.47482 0
M  V30 4254 H 422.435 0.959621 2.96981 0
M  V30 4255 N 422.737 -1.36956 0.779787 0
M  V30 4256 C 423.983 -1.99787 0.348281 0
M  V30 4257 C 424.316 -1.61756 -1.07465 0
M  V30 4258 O 423.591 -0.867639 -1.74075 0
M  V30 4259 C 423.874 -3.56597 0.50104 0
M  V30 4260 C 423.727 -4.04513 1.96697 0
M  V30 4261 C 425.046 -4.40008 -0.0898097 0
M  V30 4262 H 422.165 -0.725796 0.128022 0
M  V30 4263 H 424.807 -1.62514 0.984331 0
M  V30 4264 H 422.957 -3.88479 -0.0404347 0
M  V30 4265 H 424.629 -3.83161 2.56876 0
M  V30 4266 H 422.872 -3.56408 2.47297 0
M  V30 4267 H 423.543 -5.1352 2.02486 0
M  V30 4268 H 426.019 -4.14431 0.372293 0
M  V30 4269 H 424.895 -5.4888 0.0471605 0
M  V30 4270 H 425.156 -4.26035 -1.18096 0
M  V30 4271 N 424.215 -0.530993 -1.48385 0
M  V30 4272 C 425.455 0.000718982 -2.044 0
M  V30 4273 C 425.819 1.31485 -1.39913 0
M  V30 4274 O 427.02 1.93265 -1.86821 0
M  V30 4275 C 425.291 0.119177 -3.57201 0
M  V30 4276 S 426.85 0.600806 -4.34667 0
M  V30 4277 H 423.668 -0.0125473 -0.710889 0
M  V30 4278 H 426.27 -0.711783 -1.82082 0
M  V30 4279 H 424.974 -0.842061 -4.01668 0
M  V30 4280 H 424.505 0.856026 -3.83974 0
M  V30 4281 H 426.52 1.86514 -4.59812 0
M  V30 4282 N 425.693 1.55336 -0.266172 0
M  V30 4283 C 426.939 1.99692 0.353681 0
M  V30 4284 C 427.272 1.1543 1.56172 0
M  V30 4285 O 426.547 0.222218 1.93226 0
M  V30 4286 C 426.83 3.52316 0.74466 0
M  V30 4287 C 426.683 4.47337 -0.470101 0
M  V30 4288 C 428.002 4.10588 1.58447 0
M  V30 4289 H 425.121 0.725961 0.12708 0
M  V30 4290 H 427.763 1.86336 -0.371333 0
M  V30 4291 H 425.913 3.63829 1.36239 0
M  V30 4292 H 427.585 4.4778 -1.10864 0
M  V30 4293 H 425.828 4.19364 -1.10978 0
M  V30 4294 H 426.499 5.51788 -0.15291 0
M  V30 4295 H 428.975 4.02297 1.06286 0
M  V30 4296 H 427.851 5.17607 1.82686 0
M  V30 4297 H 428.112 3.60253 2.56262 0
M  V30 4298 N 427.171 -0.0066808 1.57599 0
M  V30 4299 C 428.101 -0.999296 2.11036 0
M  V30 4300 C 429.082 -1.36278 1.01795 0
M  V30 4301 O 430.267 -1.4477 1.29442 0
M  V30 4302 C 427.397 -2.29328 2.60818 0
M  V30 4303 C 426.351 -2.07159 3.74525 0
M  V30 4304 C 425.677 -3.42512 4.10596 0
M  V30 4305 C 426.977 -1.43959 5.02069 0
M  V30 4306 H 428.671 -0.554382 2.94223 0
M  V30 4307 H 426.217 -0.265221 1.41536 0
M  V30 4308 H 428.17 -2.99117 2.96828 0
M  V30 4309 H 426.894 -2.7592 1.74745 0
M  V30 4310 H 425.553 -1.39797 3.38899 0
M  V30 4311 H 425.201 -3.86795 3.21556 0
M  V30 4312 H 424.901 -3.28498 4.87199 0
M  V30 4313 H 426.425 -4.13628 4.4916 0
M  V30 4314 H 427.839 -2.03696 5.35893 0
M  V30 4315 H 426.236 -1.40452 5.83432 0
M  V30 4316 H 427.306 -0.407992 4.83181 0
M  V30 4317 N 428.649 -1.55105 -0.279332 0
M  V30 4318 C 429.895 -1.76597 -1.00921 0
M  V30 4319 C 430.25 -0.556831 -1.84166 0
M  V30 4320 O 429.543 0.450573 -1.86227 0
M  V30 4321 C 429.737 -3.0086 -1.92919 0
M  V30 4322 C 429.566 -4.33744 -1.18728 0
M  V30 4323 C 428.336 -4.9712 -0.905545 0
M  V30 4324 C 430.534 -5.11009 -0.580857 0
M  V30 4325 N 428.516 -6.13749 -0.136169 0
M  V30 4326 C 429.887 -6.19976 0.0546661 0
M  V30 4327 C 431.942 -4.95502 -0.488067 0
M  V30 4328 C 430.645 -7.15123 0.774028 0
M  V30 4329 C 432.671 -5.90999 0.217688 0
M  V30 4330 C 432.033 -6.9935 0.841975 0
M  V30 4331 H 428.132 -0.698553 -0.351493 0
M  V30 4332 H 430.716 -1.92595 -0.285531 0
M  V30 4333 H 428.887 -2.86249 -2.62519 0
M  V30 4334 H 430.619 -3.10784 -2.59221 0
M  V30 4335 H 427.374 -4.57903 -1.20921 0
M  V30 4336 H 427.798 -6.7659 0.235665 0
M  V30 4337 H 432.44 -4.11841 -0.956406 0
M  V30 4338 H 430.158 -7.9831 1.25407 0
M  V30 4339 H 433.744 -5.81078 0.289717 0
M  V30 4340 H 432.624 -7.71973 1.37939 0
M  V30 4341 N 430.127 0.543554 -1.4793 0
M  V30 4342 C 431.374 1.30008 -1.55255 0
M  V30 4343 C 431.702 1.93245 -0.220612 0
M  V30 4344 O 430.957 1.79141 0.787843 0
M  V30 4345 C 431.256 2.42078 -2.62932 0
M  V30 4346 C 430.922 1.96583 -4.0579 0
M  V30 4347 C 429.584 1.83893 -4.44676 0
M  V30 4348 C 431.936 1.62034 -4.95373 0
M  V30 4349 C 429.264 1.34969 -5.70964 0
M  V30 4350 C 431.616 1.14577 -6.22137 0
M  V30 4351 C 430.28 1.00493 -6.59892 0
M  V30 4352 H 429.55 0.475735 -0.568117 0
M  V30 4353 H 432.197 0.608075 -1.81589 0
M  V30 4354 H 430.502 3.16892 -2.30406 0
M  V30 4355 H 432.199 3.00236 -2.65818 0
M  V30 4356 H 428.789 2.07407 -3.75074 0
M  V30 4357 H 432.973 1.70705 -4.66019 0
M  V30 4358 H 428.229 1.2274 -5.98953 0
M  V30 4359 H 432.403 0.869109 -6.90955 0
M  V30 4360 H 430.03 0.623624 -7.57638 0
M  V30 4361 N 431.605 1.3629 0.791371 0
M  V30 4362 C 432.833 1.33562 1.58016 0
M  V30 4363 C 433.248 -0.0835616 1.88615 0
M  V30 4364 O 432.605 -1.0399 1.49974 0
M  V30 4365 C 432.656 2.15517 2.90232 0
M  V30 4366 O 432.377 3.51902 2.60953 0
M  V30 4367 C 433.878 2.20546 3.84544 0
M  V30 4368 H 431.098 0.458226 0.490173 0
M  V30 4369 H 433.642 1.79361 0.982345 0
M  V30 4370 H 431.797 1.73278 3.46487 0
M  V30 4371 H 432.211 3.94644 3.4548 0
M  V30 4372 H 433.685 2.82252 4.74382 0
M  V30 4373 H 434.162 1.20838 4.2225 0
M  V30 4374 H 434.768 2.63013 3.34222 0
M  V30 4375 N 433.083 -1.0153 1.20538 0
M  V30 4376 C 434.013 -2.11972 0.979295 0
M  V30 4377 C 434.994 -1.6985 -0.0921787 0
M  V30 4378 O 436.179 -1.94089 0.0655932 0
M  V30 4379 C 433.309 -3.43201 0.531984 0
M  V30 4380 C 432.263 -3.9907 1.54685 0
M  V30 4381 C 431.589 -5.26082 0.956127 0
M  V30 4382 C 432.889 -4.32313 2.93092 0
M  V30 4383 H 434.583 -2.31143 1.90298 0
M  V30 4384 H 432.129 -1.11079 0.916372 0
M  V30 4385 H 434.082 -4.1985 0.361044 0
M  V30 4386 H 432.806 -3.23792 -0.427327 0
M  V30 4387 H 431.465 -3.2453 1.70517 0
M  V30 4388 H 431.113 -5.02999 -0.0111538 0
M  V30 4389 H 430.813 -5.64426 1.63393 0
M  V30 4390 H 432.337 -6.05386 0.796284 0
M  V30 4391 H 433.751 -4.99845 2.80763 0
M  V30 4392 H 432.148 -4.81774 3.57791 0
M  V30 4393 H 433.218 -3.41025 3.44717 0
M  V30 4394 N 434.561 -1.01147 -1.20859 0
M  V30 4395 C 435.471 -0.58686 -2.27141 0
M  V30 4396 C 436.487 0.373198 -1.69951 0
M  V30 4397 O 437.663 0.235423 -2.00019 0
M  V30 4398 C 434.728 0.0733602 -3.46622 0
M  V30 4399 C 433.789 -0.931995 -4.19061 0
M  V30 4400 C 433.022 -0.303186 -5.32838 0
M  V30 4401 O 433.245 0.898395 -5.63281 0
M  V30 4402 O 432.179 -1.01735 -5.9324 0
M  V30 4403 H 436.005 -1.47155 -2.65667 0
M  V30 4404 H 433.59 -0.780689 -1.2738 0
M  V30 4405 H 435.472 0.442333 -4.19072 0
M  V30 4406 H 434.147 0.932329 -3.09983 0
M  V30 4407 H 433.054 -1.35224 -3.48805 0
M  V30 4408 H 434.387 -1.76076 -4.59628 0
M  V30 4409 N 436.039 1.36541 -0.78704 0
M  V30 4410 C 437.286 1.99304 -0.358341 0
M  V30 4411 C 437.614 1.62467 1.06933 0
M  V30 4412 O 436.869 0.870019 1.75297 0
M  V30 4413 C 437.168 3.54343 -0.466485 0
M  V30 4414 C 436.834 4.10993 -1.85461 0
M  V30 4415 C 435.496 4.26177 -2.23443 0
M  V30 4416 C 437.848 4.41895 -2.76366 0
M  V30 4417 C 435.176 4.69573 -3.51736 0
M  V30 4418 C 437.528 4.86722 -4.04084 0
M  V30 4419 C 436.192 5.00112 -4.42091 0
M  V30 4420 H 435.462 0.729306 -0.131126 0
M  V30 4421 H 438.109 1.63068 -1.00404 0
M  V30 4422 H 436.414 3.90918 0.262719 0
M  V30 4423 H 438.111 4.00833 -0.115854 0
M  V30 4424 H 434.701 3.99612 -1.54946 0
M  V30 4425 H 438.885 4.29735 -2.48277 0
M  V30 4426 H 434.141 4.78127 -3.81057 0
M  V30 4427 H 438.315 5.09598 -4.7464 0
M  V30 4428 H 435.942 5.33498 -5.41557 0
M  V30 4429 N 437.518 0.538854 1.48102 0
M  V30 4430 C 438.448 -0.207654 2.32575 0
M  V30 4431 C 439.429 -0.926559 1.4265 0
M  V30 4432 O 440.614 -0.91061 1.71527 0
M  V30 4433 C 437.744 -1.24957 3.24042 0
M  V30 4434 C 436.698 -0.648263 4.23062 0
M  V30 4435 C 436.024 -1.79348 5.03725 0
M  V30 4436 C 437.324 0.385897 5.20872 0
M  V30 4437 H 439.018 0.497534 2.95237 0
M  V30 4438 H 436.564 0.240715 1.41974 0
M  V30 4439 H 438.517 -1.77983 3.81969 0
M  V30 4440 H 437.241 -1.98446 2.59397 0
M  V30 4441 H 435.9 -0.139452 3.66335 0
M  V30 4442 H 435.548 -2.51696 4.35498 0
M  V30 4443 H 435.248 -1.39702 5.70751 0
M  V30 4444 H 436.772 -2.32735 5.64506 0
M  V30 4445 H 438.186 -0.057607 5.73271 0
M  V30 4446 H 436.583 0.700227 5.96001 0
M  V30 4447 H 437.653 1.28848 4.67468 0
M  V30 4448 N 438.996 -1.55193 0.274407 0
M  V30 4449 C 440.242 -1.99877 -0.343086 0
M  V30 4450 C 440.575 -1.16256 -1.55558 0
M  V30 4451 O 439.85 -0.232462 -1.93106 0
M  V30 4452 C 440.133 -3.52706 -0.725965 0
M  V30 4453 C 439.986 -4.47081 0.493818 0
M  V30 4454 C 441.305 -4.11422 -1.56268 0
M  V30 4455 H 438.424 -0.726625 -0.123229 0
M  V30 4456 H 441.066 -1.86136 0.38121 0
M  V30 4457 H 439.216 -3.64546 -1.34307 0
M  V30 4458 H 440.888 -4.47186 1.13237 0
M  V30 4459 H 439.131 -4.1877 1.13201 0
M  V30 4460 H 439.802 -5.51699 0.18217 0
M  V30 4461 H 442.278 -4.02855 -1.04151 0
M  V30 4462 H 441.154 -5.18568 -1.79939 0
M  V30 4463 H 441.415 -3.61607 -2.54348 0
M  V30 4464 N 440.474 -0.00167713 -1.576 0
M  V30 4465 C 441.89 0.354422 -1.55615 0
M  V30 4466 C 442.09 1.74679 -1.00447 0
M  V30 4467 O 441.146 2.4428 -0.639022 0
M  V30 4468 C 442.459 0.22812 -2.99833 0
M  V30 4469 C 444.007 0.302934 -3.11531 0
M  V30 4470 C 444.482 0.205737 -4.57538 0
M  V30 4471 N 445.973 0.263584 -4.62449 0
M  V30 4472 C 446.708 0.211742 -5.73009 0
M  V30 4473 N 446.204 0.110399 -6.92712 0
M  V30 4474 N 447.997 0.263729 -5.61481 0
M  V30 4475 H 440.148 -0.912498 -1.918 0
M  V30 4476 H 442.411 -0.349928 -0.881053 0
M  V30 4477 H 442.117 -0.729934 -3.44042 0
M  V30 4478 H 441.991 1.00951 -3.6344 0
M  V30 4479 H 444.378 1.25143 -2.67251 0
M  V30 4480 H 444.459 -0.508357 -2.50698 0
M  V30 4481 H 444.103 -0.739225 -5.02492 0
M  V30 4482 H 444.033 1.03554 -5.16318 0
M  V30 4483 H 446.524 0.343173 -3.76339 0
M  V30 4484 H 446.837 0.0767828 -7.72762 0
M  V30 4485 H 445.182 0.0760025 -6.94958 0
M  V30 4486 H 448.373 0.34111 -4.66855 0
M  V30 4487 H 448.546 0.219862 -6.47627 0
M  V30 4488 N 441.952 1.55251 0.271103 0
M  V30 4489 C 443.201 1.75151 1.00025 0
M  V30 4490 C 443.514 0.561041 1.87381 0
M  V30 4491 O 444.72 0.642506 2.63788 0
M  V30 4492 C 443.176 3.09999 1.82835 0
M  V30 4493 C 442.784 4.3662 1.00336 0
M  V30 4494 C 444.528 3.39249 2.55168 0
M  V30 4495 C 442.435 5.62506 1.82595 0
M  V30 4496 H 441.365 0.652877 0.377183 0
M  V30 4497 H 444.016 1.81708 0.255843 0
M  V30 4498 H 442.398 2.97485 2.61378 0
M  V30 4499 H 443.572 4.60055 0.261959 0
M  V30 4500 H 441.887 4.14527 0.394486 0
M  V30 4501 H 444.484 4.3051 3.1712 0
M  V30 4502 H 444.827 2.59467 3.2555 0
M  V30 4503 H 445.36 3.52869 1.83653 0
M  V30 4504 H 442.099 6.45041 1.16631 0
M  V30 4505 H 441.619 5.43211 2.54327 0
M  V30 4506 H 443.298 6.00875 2.39913 0
M  V30 4507 N 443.43 -0.535701 1.48216 0
M  V30 4508 C 444.676 -1.29375 1.56173 0
M  V30 4509 C 445.009 -1.92804 0.232429 0
M  V30 4510 O 444.284 -1.78992 -0.761048 0
M  V30 4511 C 444.567 -2.38747 2.69577 0
M  V30 4512 C 444.42 -1.80046 4.12193 0
M  V30 4513 C 445.739 -3.40551 2.78771 0
M  V30 4514 H 442.858 -0.469027 0.568491 0
M  V30 4515 H 445.5 -0.597358 1.80365 0
M  V30 4516 H 443.65 -2.98147 2.4908 0
M  V30 4517 H 445.322 -1.24742 4.44114 0
M  V30 4518 H 443.565 -1.10609 4.19462 0
M  V30 4519 H 444.236 -2.59212 4.87353 0
M  V30 4520 H 446.712 -2.91099 2.97322 0
M  V30 4521 H 445.588 -4.1448 3.59857 0
M  V30 4522 H 445.849 -4.00746 1.86696 0
M  V30 4523 N 444.908 -1.36708 -0.784132 0
M  V30 4524 C 446.148 -1.32618 -1.55537 0
M  V30 4525 C 446.512 0.0920681 -1.91779 0
M  V30 4526 O 447.713 0.257573 -2.67563 0
M  V30 4527 C 445.984 -2.22788 -2.79464 0
M  V30 4528 S 447.543 -2.36432 -3.69656 0
M  V30 4529 H 444.361 -0.470973 -0.53264 0
M  V30 4530 H 446.963 -1.72333 -0.92312 0
M  V30 4531 H 445.667 -3.24774 -2.50899 0
M  V30 4532 H 445.198 -1.84112 -3.47658 0
M  V30 4533 H 447.213 -1.56573 -4.7085 0
M  V30 4534 N 446.386 1.0089 -1.21074 0
M  V30 4535 C 447.626 1.76142 -1.03699 0
M  V30 4536 C 447.99 1.87292 0.422587 0
M  V30 4537 O 449.191 2.59068 0.716752 0
M  V30 4538 C 447.462 3.13805 -1.7106 0
M  V30 4539 S 449.021 4.04996 -1.68889 0
M  V30 4540 H 445.839 0.606113 -0.371683 0
M  V30 4541 H 448.441 1.20744 -1.53756 0
M  V30 4542 H 447.145 3.0332 -2.76451 0
M  V30 4543 H 446.676 3.74276 -1.21166 0
M  V30 4544 H 448.691 4.90842 -0.727211 0
M  V30 4545 N 447.864 1.01787 1.20321 0
M  V30 4546 C 449.275 0.739307 1.71438 0
M  V30 4547 C 449.626 -0.742041 1.81627 0
M  V30 4548 O 448.751 -1.57903 1.47971 0
M  V30 4549 C 449.346 1.33538 3.11373 0
M  V30 4550 C 447.905 1.10566 3.59795 0
M  V30 4551 C 447.052 1.44028 2.36962 0
M  V30 4552 H 450.003 1.18718 1.05317 0
M  V30 4553 H 450.024 0.726611 3.73498 0
M  V30 4554 H 449.536 2.41352 3.03926 0
M  V30 4555 H 447.637 0.0452405 3.72573 0
M  V30 4556 H 447.75 1.78661 4.44542 0
M  V30 4557 H 446.114 0.85933 2.39766 0
M  V30 4558 H 446.897 2.52901 2.32155 0
M  V30 4559 N 449.342 -1.36122 0.79427 0
M  V30 4560 C 450.619 -1.93398 0.292685 0
M  V30 4561 C 450.999 -1.72567 -1.21589 0
M  V30 4562 O 450.347 -1.08745 -2.00965 0
M  V30 4563 C 450.557 -3.42099 0.690614 0
M  V30 4564 C 451.905 -4.19231 0.673105 0
M  V30 4565 O 452.929 -3.50559 0.631389 0
M  V30 4566 O 451.788 -5.41732 0.720362 0
M  V30 4567 H 448.882 -0.823712 0.0736693 0
M  V30 4568 H 451.428 -1.45273 0.87714 0
M  V30 4569 H 450.2 -3.50938 1.73085 0
M  V30 4570 H 449.823 -3.97519 0.0803036 0
M  V30 4571 N 450.82 -0.546701 -1.47814 0
M  V30 4572 C 452.048 -0.0232857 -2.06887 0
M  V30 4573 C 452.463 1.26571 -1.4009 0
M  V30 4574 O 451.82 1.7569 -0.493906 0
M  V30 4575 C 451.871 0.186975 -3.61016 0
M  V30 4576 O 451.592 -1.05097 -4.25307 0
M  V30 4577 C 453.093 0.748872 -4.36929 0
M  V30 4578 H 450.313 -0.0410763 -0.669742 0
M  V30 4579 H 452.857 -0.757117 -1.89968 0
M  V30 4580 H 451.012 0.870903 -3.77484 0
M  V30 4581 H 451.426 -0.842121 -5.17695 0
M  V30 4582 H 452.9 0.845334 -5.45489 0
M  V30 4583 H 453.377 1.75772 -4.02493 0
M  V30 4584 H 453.983 0.100979 -4.2518 0
M  V30 4585 N 452.299 1.55045 -0.282633 0
M  V30 4586 C 453.229 2.2579 0.595066 0
M  V30 4587 C 454.21 1.25074 1.15284 0
M  V30 4588 O 455.395 1.5381 1.18559 0
M  V30 4589 C 452.525 2.98472 1.77572 0
M  V30 4590 C 451.479 4.0618 1.34914 0
M  V30 4591 C 450.805 4.66477 2.6135 0
M  V30 4592 C 452.105 5.1996 0.493821 0
M  V30 4593 H 453.799 2.994 0.00505653 0
M  V30 4594 H 451.345 1.44 0.000992001 0
M  V30 4595 H 453.298 3.46677 2.39568 0
M  V30 4596 H 452.022 2.2241 2.39168 0
M  V30 4597 H 450.681 3.58797 0.752338 0
M  V30 4598 H 450.329 3.87074 3.2122 0
M  V30 4599 H 450.029 5.39207 2.33516 0
M  V30 4600 H 451.553 5.17435 3.24181 0
M  V30 4601 H 452.967 5.64172 1.01898 0
M  V30 4602 H 451.364 5.99299 0.310047 0
M  V30 4603 H 452.434 4.82462 -0.485593 0
M  V30 4604 N 453.777 0.010035 1.57597 0
M  V30 4605 C 455.054 -0.710296 1.82248 0
M  V30 4606 C 455.434 -1.91426 0.889911 0
M  V30 4607 O 454.782 -2.28424 -0.0590292 0
M  V30 4608 C 454.992 -1.10655 3.30993 0
M  V30 4609 C 456.34 -1.50621 3.96987 0
M  V30 4610 O 457.364 -1.20007 3.35375 0
M  V30 4611 O 456.223 -2.07587 5.05539 0
M  V30 4612 H 453.317 -0.34673 0.750804 0
M  V30 4613 H 455.863 0.0362578 1.69661 0
M  V30 4614 H 454.635 -0.248826 3.90508 0
M  V30 4615 H 454.258 -1.91189 3.48615 0
M  V30 4616 N 455.255 -1.55392 -0.262866 0
M  V30 4617 C 456.502 -1.76476 -0.993109 0
M  V30 4618 C 456.83 -0.571479 -1.85915 0
M  V30 4619 O 456.085 0.445733 -1.90556 0
M  V30 4620 C 456.384 -3.02889 -1.89718 0
M  V30 4621 C 456.05 -4.34974 -1.18781 0
M  V30 4622 C 454.712 -4.7087 -0.991699 0
M  V30 4623 C 457.064 -5.16695 -0.683798 0
M  V30 4624 C 454.392 -5.86036 -0.279024 0
M  V30 4625 C 456.744 -6.32598 0.0153327 0
M  V30 4626 C 455.408 -6.67127 0.223062 0
M  V30 4627 H 454.678 -0.64577 -0.363404 0
M  V30 4628 H 457.325 -1.89664 -0.264525 0
M  V30 4629 H 455.63 -2.84644 -2.6923 0
M  V30 4630 H 457.327 -3.16399 -2.46359 0
M  V30 4631 H 453.917 -4.06765 -1.35058 0
M  V30 4632 H 458.101 -4.8943 -0.8229 0
M  V30 4633 H 453.357 -6.11306 -0.107456 0
M  V30 4634 H 457.531 -6.95171 0.413584 0
M  V30 4635 H 455.158 -7.56216 0.777265 0
M  V30 4636 N 456.733 0.527833 -1.48498 0
M  V30 4637 C 457.979 1.28545 -1.56857 0
M  V30 4638 C 458.312 1.92678 -0.242651 0
M  V30 4639 O 457.587 1.79394 0.751545 0
M  V30 4640 C 457.87 2.37314 -2.70839 0
M  V30 4641 C 457.723 1.77858 -4.13142 0
M  V30 4642 C 459.042 3.39068 -2.80573 0
M  V30 4643 H 456.161 0.466006 -0.570971 0
M  V30 4644 H 458.803 0.587784 -1.8068 0
M  V30 4645 H 456.953 2.96821 -2.50658 0
M  V30 4646 H 458.625 1.22385 -4.44769 0
M  V30 4647 H 456.868 1.08383 -4.20042 0
M  V30 4648 H 457.539 2.56624 -4.88721 0
M  V30 4649 H 460.015 2.89518 -2.98862 0
M  V30 4650 H 458.891 4.12566 -3.6205 0
M  V30 4651 H 459.152 3.9975 -1.88818 0
M  V30 4652 N 458.211 1.37122 0.776871 0
M  V30 4653 C 459.158 1.3247 1.88998 0
M  V30 4654 C 460.128 0.191143 1.64997 0
M  V30 4655 O 461.313 0.379683 1.86984 0
M  V30 4656 C 458.453 1.13241 3.25992 0
M  V30 4657 C 457.566 2.35782 3.61982 0
M  V30 4658 C 456.701 2.09465 4.88158 0
M  V30 4659 C 455.74 3.279 5.16864 0
M  V30 4660 N 454.877 3.01167 6.34226 0
M  V30 4661 H 459.717 2.27642 1.9231 0
M  V30 4662 H 457.254 1.13125 0.94027 0
M  V30 4663 H 459.212 1.00115 4.0501 0
M  V30 4664 H 457.842 0.217186 3.22069 0
M  V30 4665 H 456.894 2.59666 2.77989 0
M  V30 4666 H 458.206 3.24125 3.79137 0
M  V30 4667 H 457.36 1.93341 5.75069 0
M  V30 4668 H 456.099 1.18452 4.73097 0
M  V30 4669 H 455.104 3.44569 4.2843 0
M  V30 4670 H 456.329 4.19757 5.33836 0
M  V30 4671 H 454.275 2.12779 6.20533 0
M  V30 4672 H 454.192 3.83052 6.51772 0
M  V30 4673 H 455.46 2.88649 7.24087 0
M  V30 4674 N 459.689 -1.00246 1.21608 0
M  V30 4675 C 460.637 -2.11193 0.97469 0
M  V30 4676 C 461.631 -1.69216 -0.0789303 0
M  V30 4677 O 462.837 -1.79853 0.0726806 0
M  V30 4678 H 459.212 -0.690455 0.297953 0
M  V30 4679 H 461.183 -2.2873 1.91638 0
M  V30 4680 C 459.932 -3.43182 0.558717 0
M  V30 4681 H 459.255 -3.75918 1.3611 0
M  V30 4682 H 460.695 -4.21823 0.429154 0
M  V30 4683 C 459.154 -3.28882 -0.730648 0
M  V30 4684 O 459.684 -3.59835 -1.78554 0
M  V30 4685 N 457.89 -2.8209 -0.698131 0
M  V30 4686 H 457.437 -2.57099 0.16061 0
M  V30 4687 H 457.395 -2.72903 -1.56113 0
M  V30 4688 N 461.167 -1.02423 -1.1978 0
M  V30 4689 C 462.097 -0.62157 -2.25075 0
M  V30 4690 C 463.078 0.367148 -1.6609 0
M  V30 4691 O 464.263 0.250892 -1.92573 0
M  V30 4692 C 461.393 0.0331826 -3.47284 0
M  V30 4693 C 460.347 -0.877323 -4.18912 0
M  V30 4694 C 459.673 -0.0879296 -5.34628 0
M  V30 4695 C 460.973 -2.18892 -4.74219 0
M  V30 4696 H 462.667 -1.50179 -2.59011 0
M  V30 4697 H 460.213 -0.723547 -1.24502 0
M  V30 4698 H 462.166 0.326488 -4.20133 0
M  V30 4699 H 460.89 0.948164 -3.12534 0
M  V30 4700 H 459.549 -1.15475 -3.47938 0
M  V30 4701 H 459.197 0.828941 -4.96123 0
M  V30 4702 H 458.897 -0.694359 -5.83483 0
M  V30 4703 H 460.421 0.198743 -6.10276 0
M  V30 4704 H 461.835 -1.95746 -5.38847 0
M  V30 4705 H 460.232 -2.74686 -5.33542 0
M  V30 4706 H 461.302 -2.84674 -3.92541 0
M  V30 4707 N 462.645 1.35699 -0.801477 0
M  V30 4708 C 463.575 2.32436 -0.222658 0
M  V30 4709 C 464.556 1.5723 0.649057 0
M  V30 4710 O 465.741 1.85324 0.580387 0
M  V30 4711 C 462.871 3.41469 0.633719 0
M  V30 4712 C 461.825 4.27774 -0.139083 0
M  V30 4713 C 461.151 5.28082 0.838666 0
M  V30 4714 C 462.451 5.04946 -1.33517 0
M  V30 4715 H 464.145 2.81094 -1.03086 0
M  V30 4716 H 461.691 1.35146 -0.497155 0
M  V30 4717 H 463.644 4.08143 1.04868 0
M  V30 4718 H 462.368 2.91408 1.47475 0
M  V30 4719 H 461.027 3.62673 -0.535156 0
M  V30 4720 H 460.675 4.7429 1.67506 0
M  V30 4721 H 460.375 5.86695 0.32594 0
M  V30 4722 H 461.899 5.97628 1.25194 0
M  V30 4723 H 463.313 5.64593 -0.995349 0
M  V30 4724 H 461.71 5.7303 -1.78202 0
M  V30 4725 H 462.78 4.35886 -2.12442 0
M  V30 4726 N 464.123 0.554532 1.47522 0
M  V30 4727 C 465.071 -0.207765 2.3167 0
M  V30 4728 C 466.065 -0.911914 1.4276 0
M  V30 4729 O 467.271 -0.833504 1.59539 0
M  V30 4730 H 463.646 -0.0858726 0.747081 0
M  V30 4731 H 465.617 0.521178 2.93813 0
M  V30 4732 C 464.366 -1.2263 3.25357 0
M  V30 4733 H 463.689 -0.693887 3.93732 0
M  V30 4734 H 465.129 -1.73062 3.87073 0
M  V30 4735 C 463.588 -2.27278 2.4869 0
M  V30 4736 O 464.118 -3.34156 2.22941 0
M  V30 4737 N 462.324 -2.01134 2.09746 0
M  V30 4738 H 461.871 -1.14232 2.30887 0
M  V30 4739 H 461.829 -2.71369 1.58765 0
M  V30 4740 N 465.601 -1.54893 0.290851 0
M  V30 4741 C 466.85 -1.99111 -0.322113 0
M  V30 4742 C 467.163 -1.18283 -1.55784 0
M  V30 4743 O 468.369 -1.5272 -2.24475 0
M  V30 4744 C 466.825 -3.54442 -0.624438 0
M  V30 4745 C 466.433 -4.44066 0.592373 0
M  V30 4746 C 468.177 -4.07211 -1.19916 0
M  V30 4747 C 466.084 -5.90812 0.263762 0
M  V30 4748 H 465.014 -0.743712 -0.124133 0
M  V30 4749 H 467.665 -1.79132 0.39797 0
M  V30 4750 H 466.047 -3.70281 -1.40384 0
M  V30 4751 H 467.221 -4.39999 1.36886 0
M  V30 4752 H 465.536 -4.02015 1.08502 0
M  V30 4753 H 468.133 -5.14407 -1.45909 0
M  V30 4754 H 468.476 -3.57196 -2.13815 0
M  V30 4755 H 469.009 -3.94873 -0.481687 0
M  V30 4756 H 465.748 -6.44955 1.17105 0
M  V30 4757 H 465.268 -5.97911 -0.475655 0
M  V30 4758 H 466.947 -6.46852 -0.138354 0
M  V30 4759 N 467.08 -0.0183926 -1.57589 0
M  V30 4760 C 468.329 0.66185 -1.90532 0
M  V30 4761 C 468.642 1.73904 -0.895366 0
M  V30 4762 O 469.848 2.47518 -1.11566 0
M  V30 4763 C 468.304 1.22844 -3.38286 0
M  V30 4764 C 467.912 0.185103 -4.47617 0
M  V30 4765 C 469.656 1.88581 -3.80312 0
M  V30 4766 C 467.563 0.762723 -5.86461 0
M  V30 4767 H 466.493 0.250972 -0.711006 0
M  V30 4768 H 469.144 -0.0819435 -1.83317 0
M  V30 4769 H 467.526 2.0235 -3.40398 0
M  V30 4770 H 468.7 -0.58671 -4.5705 0
M  V30 4771 H 467.015 -0.372889 -4.14727 0
M  V30 4772 H 469.612 2.32735 -4.81392 0
M  V30 4773 H 469.955 2.72408 -3.14801 0
M  V30 4774 H 470.488 1.15782 -3.80578 0
M  V30 4775 H 467.227 -0.0371713 -6.55489 0
M  V30 4776 H 466.747 1.50327 -5.80656 0
M  V30 4777 H 468.426 1.25576 -6.34697 0
M  V30 4778 N 468.558 1.5553 0.254621 0
M  V30 4779 C 469.835 1.6774 1.00611 0
M  V30 4780 C 470.215 0.555993 2.03647 0
M  V30 4781 O 469.563 -0.441583 2.24193 0
M  V30 4782 C 469.773 3.07725 1.6464 0
M  V30 4783 C 471.121 3.66074 2.15116 0
M  V30 4784 O 472.145 3.10476 1.74595 0
M  V30 4785 O 471.004 4.63526 2.89493 0
M  V30 4786 H 468.098 0.681958 0.467828 0
M  V30 4787 H 470.644 1.67863 0.24902 0
M  V30 4788 H 469.416 3.80792 0.900734 0
M  V30 4789 H 469.039 3.1158 2.46989 0
M  V30 4790 N 470.036 -0.519951 1.48776 0
M  V30 4791 C 471.283 -1.27522 1.57303 0
M  V30 4792 C 471.611 -1.92869 0.251328 0
M  V30 4793 O 470.866 -1.80372 -0.759243 0
M  V30 4794 C 471.165 -2.37864 2.6675 0
M  V30 4795 C 470.831 -1.90103 4.08867 0
M  V30 4796 C 469.493 -1.76795 4.47546 0
M  V30 4797 C 471.845 -1.54133 4.97888 0
M  V30 4798 C 469.173 -1.25868 5.73039 0
M  V30 4799 C 471.525 -1.04665 6.23881 0
M  V30 4800 C 470.189 -0.899823 6.61407 0
M  V30 4801 H 469.459 -0.466636 0.575614 0
M  V30 4802 H 472.106 -0.579109 1.82534 0
M  V30 4803 H 470.411 -3.13186 2.35418 0
M  V30 4804 H 472.108 -2.95969 2.70561 0
M  V30 4805 H 468.698 -2.01414 3.78326 0
M  V30 4806 H 472.882 -1.6327 4.68675 0
M  V30 4807 H 468.138 -1.13196 6.0083 0
M  V30 4808 H 472.312 -0.759074 6.92251 0
M  V30 4809 H 469.939 -0.503011 7.58534 0
M  V30 4810 N 471.514 -1.37532 -0.769588 0
M  V30 4811 C 472.76 -1.33057 -1.53048 0
M  V30 4812 C 473.093 0.0841865 -1.94017 0
M  V30 4813 O 472.368 1.04198 -1.64235 0
M  V30 4814 C 472.651 -2.27166 -2.79406 0
M  V30 4815 C 472.504 -3.77429 -2.44677 0
M  V30 4816 C 473.823 -2.19683 -3.81349 0
M  V30 4817 H 470.942 -0.484655 -0.555228 0
M  V30 4818 H 473.584 -1.68251 -0.882702 0
M  V30 4819 H 471.734 -1.97283 -3.34682 0
M  V30 4820 H 473.406 -4.17918 -1.953 0
M  V30 4821 H 471.649 -3.95892 -1.77346 0
M  V30 4822 H 472.32 -4.38716 -3.35011 0
M  V30 4823 H 474.796 -2.46029 -3.35573 0
M  V30 4824 H 473.672 -2.87668 -4.67481 0
M  V30 4825 H 473.933 -1.19045 -4.25771 0
M  V30 4826 N 472.992 0.995999 -1.22138 0
M  V30 4827 C 473.955 2.06711 -0.990109 0
M  V30 4828 C 474.955 1.60744 0.0422978 0
M  V30 4829 O 476.145 1.73095 -0.195895 0
M  V30 4830 C 473.277 3.37288 -0.49491 0
M  V30 4831 H 474.47 2.28661 -1.94047 0
M  V30 4832 H 472.023 1.16711 -1.03963 0
M  V30 4833 H 472.758 3.21022 0.459948 0
M  V30 4834 H 472.543 3.71986 -1.23971 0
M  V30 4835 H 474.033 4.16103 -0.353253 0
M  V30 4836 N 474.47 1.03057 1.19235 0
M  V30 4837 C 475.719 0.72326 1.88287 0
M  V30 4838 C 476.032 -0.751333 1.80594 0
M  V30 4839 O 477.238 -1.17176 2.44912 0
M  V30 4840 C 475.694 1.24338 3.3774 0
M  V30 4841 C 475.302 2.74587 3.53986 0
M  V30 4842 C 477.046 1.01213 4.12257 0
M  V30 4843 C 474.953 3.20009 4.97341 0
M  V30 4844 H 473.883 0.266848 0.705201 0
M  V30 4845 H 476.534 1.24509 1.34795 0
M  V30 4846 H 474.916 0.649457 3.90638 0
M  V30 4847 H 476.09 3.39649 3.11408 0
M  V30 4848 H 474.405 2.9601 2.9286 0
M  V30 4849 H 477.002 1.32675 5.17978 0
M  V30 4850 H 477.345 -0.051001 4.16269 0
M  V30 4851 H 477.878 1.57014 3.65501 0
M  V30 4852 H 474.617 4.25659 4.98493 0
M  V30 4853 H 474.137 2.59676 5.40674 0
M  V30 4854 H 475.816 3.13447 5.66003 0
M  V30 4855 N 475.948 -1.35272 0.808662 0
M  V30 4856 C 476.878 -2.32315 0.234981 0
M  V30 4857 C 477.859 -1.57572 -0.64071 0
M  V30 4858 O 479.044 -1.8563 -0.570551 0
M  V30 4859 C 476.174 -3.41801 -0.615601 0
M  V30 4860 C 475.128 -4.27694 0.161767 0
M  V30 4861 C 474.454 -5.28519 -0.810649 0
M  V30 4862 C 475.754 -5.04231 1.36193 0
M  V30 4863 H 477.448 -2.80543 1.04575 0
M  V30 4864 H 474.994 -1.3488 0.504315 0
M  V30 4865 H 476.947 -4.08693 -1.02702 0
M  V30 4866 H 475.671 -2.92186 -1.45928 0
M  V30 4867 H 474.33 -3.62384 0.554382 0
M  V30 4868 H 473.978 -4.75171 -1.64988 0
M  V30 4869 H 473.678 -5.8686 -0.294822 0
M  V30 4870 H 475.202 -5.98283 -1.22023 0
M  V30 4871 H 476.616 -5.64058 1.02528 0
M  V30 4872 H 475.013 -5.72077 1.81239 0
M  V30 4873 H 476.083 -4.34753 2.14751 0
M  V30 4874 N 477.426 -0.562348 -1.47226 0
M  V30 4875 C 478.837 -0.130325 -1.86245 0
M  V30 4876 C 479.188 1.30128 -1.46838 0
M  V30 4877 O 478.313 1.97974 -0.873805 0
M  V30 4878 C 478.908 -0.229738 -3.3802 0
M  V30 4879 C 477.467 0.14728 -3.76112 0
M  V30 4880 C 476.614 -0.574971 -2.71274 0
M  V30 4881 H 479.565 -0.771773 -1.3867 0
M  V30 4882 H 479.586 0.550316 -3.76499 0
M  V30 4883 H 479.098 -1.27178 -3.66671 0
M  V30 4884 H 477.199 1.19023 -3.53078 0
M  V30 4885 H 477.312 -0.214858 -4.78618 0
M  V30 4886 H 475.676 -0.0174756 -2.54694 0
M  V30 4887 H 476.459 -1.61827 -3.02766 0
M  V30 4888 N 478.904 1.54736 -0.299062 0
M  V30 4889 C 480.151 2.00101 0.310784 0
M  V30 4890 C 480.479 1.18746 1.54045 0
M  V30 4891 O 479.734 0.251198 1.94081 0
M  V30 4892 C 480.033 3.50199 0.713835 0
M  V30 4893 C 479.699 4.48997 -0.413873 0
M  V30 4894 C 478.361 4.7573 -0.723462 0
M  V30 4895 C 480.713 5.07839 -1.17257 0
M  V30 4896 C 478.041 5.5857 -1.79491 0
M  V30 4897 C 480.393 5.91844 -2.23392 0
M  V30 4898 C 479.057 6.16889 -2.54959 0
M  V30 4899 H 478.327 0.732221 0.113724 0
M  V30 4900 H 480.974 1.86888 -0.417756 0
M  V30 4901 H 479.279 3.61012 1.52243 0
M  V30 4902 H 480.976 3.82723 1.19684 0
M  V30 4903 H 477.566 4.28292 -0.162476 0
M  V30 4904 H 481.75 4.87188 -0.946651 0
M  V30 4905 H 477.006 5.76213 -2.04423 0
M  V30 4906 H 481.18 6.36465 -2.8264 0
M  V30 4907 H 478.807 6.80869 -3.38114 0
M  V30 4908 N 480.382 0.0267497 1.57577 0
M  V30 4909 C 481.612 -0.6617 1.95717 0
M  V30 4910 C 482.02 -1.66331 0.901706 0
M  V30 4911 O 481.363 -1.83273 -0.125241 0
M  V30 4912 C 481.425 -1.42649 3.29987 0
M  V30 4913 C 481.089 -0.583482 4.5326 0
M  V30 4914 C 482.086 0.140221 5.19711 0
M  V30 4915 C 479.771 -0.521581 4.99585 0
M  V30 4916 C 481.765 0.914523 6.30805 0
M  V30 4917 C 479.452 0.256428 6.10562 0
M  V30 4918 C 480.45 0.973189 6.76031 0
M  V30 4919 O 480.138 1.73845 7.84878 0
M  V30 4920 H 479.87 -0.187483 0.649481 0
M  V30 4921 H 482.424 0.0820847 2.05236 0
M  V30 4922 H 480.654 -2.21536 3.16952 0
M  V30 4923 H 482.343 -2.00282 3.53047 0
M  V30 4924 H 483.109 0.101716 4.84893 0
M  V30 4925 H 478.988 -1.06904 4.48433 0
M  V30 4926 H 482.532 1.4745 6.81839 0
M  V30 4927 H 478.429 0.296657 6.44818 0
M  V30 4928 H 479.197 1.65797 8.01532 0
M  V30 4929 N 481.861 -1.55662 -0.24637 0
M  V30 4930 C 482.791 -1.93377 -1.30873 0
M  V30 4931 C 483.772 -0.798773 -1.50179 0
M  V30 4932 O 484.957 -1.0591 -1.62778 0
M  V30 4933 C 482.087 -2.22893 -2.66338 0
M  V30 4934 C 481.041 -3.38649 -2.61727 0
M  V30 4935 C 480.367 -3.53708 -4.00992 0
M  V30 4936 C 481.667 -4.74323 -2.18666 0
M  V30 4937 H 483.361 -2.82363 -0.995552 0
M  V30 4938 H 480.907 -1.35854 -0.477464 0
M  V30 4939 H 482.86 -2.47866 -3.40794 0
M  V30 4940 H 481.584 -1.30733 -2.99293 0
M  V30 4941 H 480.243 -3.13685 -1.89729 0
M  V30 4942 H 479.891 -2.58967 -4.31214 0
M  V30 4943 H 479.591 -4.31551 -3.98795 0
M  V30 4944 H 481.115 -3.81003 -4.77147 0
M  V30 4945 H 482.529 -4.98665 -2.82854 0
M  V30 4946 H 480.926 -5.55273 -2.27579 0
M  V30 4947 H 481.996 -4.71349 -1.13834 0
M  V30 4948 N 483.339 0.512053 -1.4905 0
M  V30 4949 C 484.249 1.64139 -1.67617 0
M  V30 4950 C 485.265 1.64786 -0.558701 0
M  V30 4951 O 486.441 1.8341 -0.832034 0
M  V30 4952 C 483.506 3.00548 -1.72835 0
M  V30 4953 C 482.567 3.10615 -2.96339 0
M  V30 4954 C 481.8 4.40517 -3.01298 0
M  V30 4955 O 482.023 5.28671 -2.14157 0
M  V30 4956 O 480.957 4.55325 -3.93653 0
M  V30 4957 H 484.783 1.51407 -2.63267 0
M  V30 4958 H 482.368 0.687131 -1.32661 0
M  V30 4959 H 484.25 3.81641 -1.78683 0
M  V30 4960 H 482.925 3.13566 -0.803616 0
M  V30 4961 H 481.832 2.2875 -2.96014 0
M  V30 4962 H 483.165 3.0252 -3.88256 0
M  V30 4963 N 484.817 1.37938 0.762283 0
M  V30 4964 C 486.063 1.33866 1.52341 0
M  V30 4965 C 486.396 -0.0738961 1.94059 0
M  V30 4966 O 485.671 -1.03326 1.64785 0
M  V30 4967 C 485.954 2.28644 2.78197 0
M  V30 4968 C 485.807 3.78722 2.42672 0
M  V30 4969 C 487.126 2.21702 3.80179 0
M  V30 4970 H 484.245 0.487593 0.55265 0
M  V30 4971 H 486.887 1.68717 0.873767 0
M  V30 4972 H 485.037 1.99055 3.33631 0
M  V30 4973 H 486.709 4.18948 1.93081 0
M  V30 4974 H 484.952 3.96827 1.75244 0
M  V30 4975 H 485.623 4.40486 3.3268 0
M  V30 4976 H 488.099 2.47805 3.34263 0
M  V30 4977 H 486.975 2.90143 4.65949 0
M  V30 4978 H 487.236 1.21301 4.25133 0
M  V30 4979 N 486.295 -0.989507 1.22664 0
M  V30 4980 C 487.543 -1.72612 1.05117 0
M  V30 4981 C 487.864 -1.90552 -0.414131 0
M  V30 4982 O 487.134 -1.4676 -1.29762 0
M  V30 4983 H 485.714 -0.639555 0.385977 0
M  V30 4984 H 488.376 -1.19158 1.54232 0
M  V30 4985 H 487.472 -2.71926 1.53175 0
M  V30 4986 N 487.773 -1.03688 -1.18687 0
M  V30 4987 C 488.703 -0.645407 -2.24403 0
M  V30 4988 C 489.684 0.349511 -1.66471 0
M  V30 4989 O 490.869 0.230453 -1.92828 0
M  V30 4990 C 487.999 -0.00365337 -3.473 0
M  V30 4991 C 486.953 -0.921705 -4.17958 0
M  V30 4992 C 486.279 -0.144629 -5.34504 0
M  V30 4993 C 487.579 -2.23909 -4.71871 0
M  V30 4994 H 489.273 -1.52917 -2.57404 0
M  V30 4995 H 486.819 -0.736711 -1.23728 0
M  V30 4996 H 488.772 0.281908 -4.20456 0
M  V30 4997 H 487.496 0.914963 -3.13522 0
M  V30 4998 H 486.155 -1.19159 -3.46694 0
M  V30 4999 H 485.803 0.776274 -4.96974 0
M  V30 5000 H 485.503 -0.756206 -5.82714 0
M  V30 5001 H 487.027 0.134004 -6.10453 0
M  V30 5002 H 488.441 -2.0145 -5.36741 0
M  V30 5003 H 486.838 -2.8033 -5.30599 0
M  V30 5004 H 487.908 -2.88822 -3.895 0
M  V30 5005 N 489.251 1.34841 -0.815825 0
M  V30 5006 C 490.476 2.03261 -0.41226 0
M  V30 5007 C 490.901 1.61055 0.971751 0
M  V30 5008 O 490.259 0.7917 1.63101 0
M  V30 5009 C 490.307 3.56914 -0.514289 0
M  V30 5010 O 489.411 4.09728 0.468675 0
M  V30 5011 H 488.752 0.641664 -0.170771 0
M  V30 5012 H 491.282 1.72241 -1.10427 0
M  V30 5013 H 491.292 4.06156 -0.387457 0
M  V30 5014 H 489.967 3.86982 -1.52375 0
M  V30 5015 H 488.544 3.71681 0.301316 0
M  V30 5016 N 490.729 0.570148 1.46925 0
M  V30 5017 C 491.977 0.0508523 2.02036 0
M  V30 5018 C 492.298 -1.30885 1.44548 0
M  V30 5019 O 491.568 -1.85647 0.625453 0
M  V30 5020 H 490.148 0.0158088 0.746833 0
M  V30 5021 H 492.81 0.743086 1.80178 0
M  V30 5022 H 491.906 -0.027575 3.12088 0
M  V30 5023 N 492.207 -1.54576 0.307264 0
M  V30 5024 C 493.137 -2.26708 -0.55907 0
M  V30 5025 C 494.118 -1.26893 -1.1328 0
M  V30 5026 O 495.303 -1.55677 -1.16097 0
M  V30 5027 C 492.433 -3.01259 -1.72801 0
M  V30 5028 C 491.387 -4.08275 -1.28435 0
M  V30 5029 C 490.713 -4.70575 -2.53895 0
M  V30 5030 C 492.013 -5.2068 -0.411038 0
M  V30 5031 H 493.707 -2.9937 0.042576 0
M  V30 5032 H 491.253 -1.43983 0.0219173 0
M  V30 5033 H 493.206 -3.50444 -2.34023 0
M  V30 5034 H 491.93 -2.26187 -2.356 0
M  V30 5035 H 490.589 -3.59949 -0.695161 0
M  V30 5036 H 490.237 -3.92136 -3.15021 0
M  V30 5037 H 489.937 -5.42854 -2.24908 0
M  V30 5038 H 491.461 -5.22527 -3.15908 0
M  V30 5039 H 492.875 -5.65721 -0.929097 0
M  V30 5040 H 491.272 -5.99716 -0.214664 0
M  V30 5041 H 492.342 -4.81629 0.562287 0
M  V30 5042 N 493.685 -0.035106 -1.57561 0
M  V30 5043 C 494.91 0.655802 -1.96759 0
M  V30 5044 C 495.335 1.64523 -0.911809 0
M  V30 5045 O 494.693 1.80857 0.126673 0
M  V30 5046 C 494.741 1.33326 -3.35047 0
M  V30 5047 O 493.845 2.44866 -3.31835 0
M  V30 5048 H 493.186 0.171807 -0.641388 0
M  V30 5049 H 495.716 -0.0987369 -2.04362 0
M  V30 5050 H 495.726 1.68867 -3.71413 0
M  V30 5051 H 494.401 0.608033 -4.11431 0
M  V30 5052 H 492.978 2.11392 -3.07193 0
M  V30 5053 N 495.163 1.55791 0.238111 0
M  V30 5054 C 496.388 1.8244 0.986432 0
M  V30 5055 C 496.813 0.613314 1.7782 0
M  V30 5056 O 496.171 -0.437767 1.75935 0
M  V30 5057 C 496.219 3.06917 1.893 0
M  V30 5058 O 495.323 2.84449 2.98601 0
M  V30 5059 H 494.664 0.601975 0.280218 0
M  V30 5060 H 497.194 2.02987 0.256437 0
M  V30 5061 H 497.204 3.36583 2.30598 0
M  V30 5062 H 495.879 3.947 1.31091 0
M  V30 5063 H 494.456 2.65972 2.61368 0
M  V30 5064 N 496.642 -0.504142 1.49319 0
M  V30 5065 C 497.589 -1.60603 1.65756 0
M  V30 5066 C 498.559 -1.58425 0.499082 0
M  V30 5067 O 499.744 -1.76459 0.725728 0
M  V30 5068 C 496.884 -2.98764 1.72726 0
M  V30 5069 C 495.997 -3.10982 2.99857 0
M  V30 5070 C 495.132 -4.39857 2.97824 0
M  V30 5071 C 494.171 -4.45697 4.19548 0
M  V30 5072 N 493.308 -5.65995 4.15444 0
M  V30 5073 H 498.148 -1.45895 2.59843 0
M  V30 5074 H 495.685 -0.709891 1.28837 0
M  V30 5075 H 497.643 -3.78839 1.74747 0
M  V30 5076 H 496.273 -3.12183 0.821075 0
M  V30 5077 H 495.325 -2.23991 3.07461 0
M  V30 5078 H 496.637 -3.11157 3.89849 0
M  V30 5079 H 495.791 -5.2825 2.98391 0
M  V30 5080 H 494.53 -4.42242 2.05604 0
M  V30 5081 H 493.535 -3.55707 4.19229 0
M  V30 5082 H 494.76 -4.4503 5.12957 0
M  V30 5083 H 492.706 -5.69229 3.26059 0
M  V30 5084 H 492.623 -5.67773 4.99169 0
M  V30 5085 H 493.891 -6.56604 4.20109 0
M  V30 5086 N 498.12 -1.38341 -0.754957 0
M  V30 5087 C 499.083 -1.35262 -1.85032 0
M  V30 5088 C 500.083 -0.253393 -1.58791 0
M  V30 5089 O 501.273 -0.510205 -1.66561 0
M  V30 5090 C 498.405 -1.10544 -3.22479 0
M  V30 5091 H 499.598 -2.32712 -1.8917 0
M  V30 5092 H 497.151 -1.23614 -0.956515 0
M  V30 5093 H 497.886 -0.136952 -3.24011 0
M  V30 5094 H 497.671 -1.90127 -3.4292 0
M  V30 5095 H 499.161 -1.11082 -4.02555 0
M  V30 5096 N 499.598 0.982988 -1.23187 0
M  V30 5097 C 500.561 2.05649 -1.01198 0
M  V30 5098 C 501.561 1.6078 0.0252464 0
M  V30 5099 O 502.751 1.72878 -0.214243 0
M  V30 5100 C 499.883 3.36744 -0.530656 0
M  V30 5101 H 501.076 2.2659 -1.96461 0
M  V30 5102 H 498.629 1.15602 -1.05195 0
M  V30 5103 H 499.364 3.21492 0.425873 0
M  V30 5104 H 499.149 3.7065 -1.2791 0
M  V30 5105 H 500.639 4.15705 -0.397366 0
M  V30 5106 N 501.076 1.04316 1.18135 0
M  V30 5107 C 502.492 0.762858 1.40188 0
M  V30 5108 C 502.692 -0.646547 1.90846 0
M  V30 5109 O 501.748 -1.41036 2.0944 0
M  V30 5110 C 503.061 1.81106 2.40044 0
M  V30 5111 C 504.609 1.83226 2.53766 0
M  V30 5112 C 505.084 2.87044 3.56889 0
M  V30 5113 N 506.575 2.85951 3.64398 0
M  V30 5114 C 507.31 3.62932 4.43923 0
M  V30 5115 N 506.806 4.49672 5.27036 0
M  V30 5116 N 508.599 3.51411 4.38711 0
M  V30 5117 H 500.75 1.95264 0.835805 0
M  V30 5118 H 503.013 0.845017 0.429709 0
M  V30 5119 H 502.719 2.82214 2.09876 0
M  V30 5120 H 502.593 1.64529 3.39426 0
M  V30 5121 H 504.98 0.827869 2.8325 0
M  V30 5122 H 505.061 2.03879 1.54489 0
M  V30 5123 H 504.705 3.87663 3.28145 0
M  V30 5124 H 504.635 2.63645 4.5585 0
M  V30 5125 H 507.126 2.23051 3.05052 0
M  V30 5126 H 507.439 5.05116 5.84874 0
M  V30 5127 H 505.784 4.53738 5.26447 0
M  V30 5128 H 508.975 2.83047 3.72829 0
M  V30 5129 H 509.148 4.11654 5.00445 0
M  V30 5130 N 502.554 -1.34406 0.822964 0
M  V30 5131 C 503.831 -1.92733 0.333641 0
M  V30 5132 C 504.211 -1.75107 -1.17901 0
M  V30 5133 O 503.559 -1.12983 -1.98613 0
M  V30 5134 C 503.769 -3.40557 0.763023 0
M  V30 5135 C 505.117 -4.17709 0.761879 0
M  V30 5136 O 506.141 -3.49141 0.705606 0
M  V30 5137 O 505 -5.40082 0.835109 0
M  V30 5138 H 502.094 -0.821964 0.0911249 0
M  V30 5139 H 504.64 -1.4338 0.907757 0
M  V30 5140 H 503.412 -3.47187 1.8049 0
M  V30 5141 H 503.035 -3.97259 0.164605 0
M  V30 5142 N 504.032 -0.577932 -1.46621 0
M  V30 5143 C 505.278 -0.0617793 -2.02706 0
M  V30 5144 C 505.611 1.29294 -1.44903 0
M  V30 5145 O 504.886 1.8461 -0.61232 0
M  V30 5146 C 505.169 0.00911824 -3.60099 0
M  V30 5147 C 505.022 -1.37416 -4.28295 0
M  V30 5148 C 506.341 0.712159 -4.343 0
M  V30 5149 H 503.46 -0.0239246 -0.736612 0
M  V30 5150 H 506.102 -0.744211 -1.74818 0
M  V30 5151 H 504.252 0.590292 -3.83989 0
M  V30 5152 H 505.924 -2.00013 -4.15683 0
M  V30 5153 H 504.167 -1.94319 -3.87843 0
M  V30 5154 H 504.838 -1.27707 -5.37024 0
M  V30 5155 H 507.314 0.218486 -4.15526 0
M  V30 5156 H 506.19 0.730782 -5.44014 0
M  V30 5157 H 506.451 1.77251 -4.05012 0
M  V30 5158 N 505.51 1.54411 -0.315457 0
M  V30 5159 C 506.44 2.27002 0.547039 0
M  V30 5160 C 507.421 1.27492 1.12605 0
M  V30 5161 O 508.606 1.5629 1.15269 0
M  V30 5162 C 505.736 3.02171 1.71201 0
M  V30 5163 C 504.69 4.0895 1.26268 0
M  V30 5164 C 504.016 4.71915 2.51396 0
M  V30 5165 C 505.316 5.20891 0.383419 0
M  V30 5166 H 507.01 2.99343 -0.0584517 0
M  V30 5167 H 504.556 1.4397 -0.0295527 0
M  V30 5168 H 506.509 3.51681 2.32161 0
M  V30 5169 H 505.233 2.27433 2.34397 0
M  V30 5170 H 503.892 3.60312 0.676062 0
M  V30 5171 H 503.54 3.93801 3.12937 0
M  V30 5172 H 503.24 5.44039 2.22026 0
M  V30 5173 H 504.764 5.24195 3.13133 0
M  V30 5174 H 506.178 5.66206 0.899082 0
M  V30 5175 H 504.575 5.99821 0.182857 0
M  V30 5176 H 505.645 4.81324 -0.587821 0
M  V30 5177 N 506.988 0.0434614 1.5754 0
M  V30 5178 C 508.236 -0.630786 1.92004 0
M  V30 5179 C 508.557 -1.71836 0.921807 0
M  V30 5180 O 507.827 -1.9587 -0.034522 0
M  V30 5181 H 506.407 -0.235988 0.708745 0
M  V30 5182 H 509.069 0.0946462 1.9467 0
M  V30 5183 H 508.165 -1.07434 2.93026 0
M  V30 5184 N 508.466 -1.55915 -0.229846 0
M  V30 5185 C 509.713 -1.78542 -0.955452 0
M  V30 5186 C 510.041 -0.610785 -1.84661 0
M  V30 5187 O 509.296 0.405213 -1.91459 0
M  V30 5188 C 509.595 -3.06845 -1.8325 0
M  V30 5189 C 509.261 -4.37395 -1.09528 0
M  V30 5190 C 507.923 -4.72868 -0.891598 0
M  V30 5191 C 510.275 -5.18029 -0.574046 0
M  V30 5192 C 507.603 -5.86496 -0.154655 0
M  V30 5193 C 509.955 -6.32423 0.149513 0
M  V30 5194 C 508.619 -6.66504 0.364519 0
M  V30 5195 H 507.889 -0.653333 -0.349625 0
M  V30 5196 H 510.536 -1.90183 -0.224235 0
M  V30 5197 H 508.841 -2.90291 -2.63132 0
M  V30 5198 H 510.538 -3.21553 -2.39592 0
M  V30 5199 H 507.128 -4.09538 -1.26399 0
M  V30 5200 H 511.312 -4.91066 -0.718899 0
M  V30 5201 H 506.568 -6.11396 0.0222356 0
M  V30 5202 H 510.742 -6.94137 0.560947 0
M  V30 5203 H 508.369 -7.54397 0.937495 0
M  V30 5204 N 509.944 0.496216 -1.49584 0
M  V30 5205 C 510.874 1.60576 -1.69521 0
M  V30 5206 C 511.855 1.61169 -0.543933 0
M  V30 5207 O 513.04 1.77834 -0.78031 0
M  V30 5208 C 510.17 2.99038 -1.76616 0
M  V30 5209 C 509.124 3.13312 -2.91581 0
M  V30 5210 C 508.45 4.53172 -2.83794 0
M  V30 5211 C 509.75 2.92886 -4.32452 0
M  V30 5212 H 511.444 1.44146 -2.62416 0
M  V30 5213 H 508.99 0.692024 -1.26282 0
M  V30 5214 H 510.943 3.76564 -1.8915 0
M  V30 5215 H 509.667 3.16568 -0.80324 0
M  V30 5216 H 508.326 2.38213 -2.78658 0
M  V30 5217 H 507.974 4.67585 -1.854 0
M  V30 5218 H 507.674 4.63662 -3.60958 0
M  V30 5219 H 509.198 5.32752 -2.98342 0
M  V30 5220 H 510.612 3.60178 -4.46032 0
M  V30 5221 H 509.009 3.14844 -5.10875 0
M  V30 5222 H 510.079 1.88966 -4.46565 0
M  V30 5223 N 511.423 1.38739 0.74761 0
M  V30 5224 C 512.839 1.20067 1.05148 0
M  V30 5225 C 513.039 0.0534835 2.01429 0
M  V30 5226 O 512.095 -0.59886 2.45296 0
M  V30 5227 C 513.408 2.52957 1.62584 0
M  V30 5228 C 514.956 2.59692 1.74726 0
M  V30 5229 C 515.431 3.92772 2.35573 0
M  V30 5230 N 516.922 3.94343 2.42997 0
M  V30 5231 C 517.657 4.9408 2.90985 0
M  V30 5232 N 517.153 6.04214 3.38965 0
M  V30 5233 N 518.946 4.81466 2.9008 0
M  V30 5234 H 511.097 2.12121 0.108808 0
M  V30 5235 H 513.36 0.941491 0.110899 0
M  V30 5236 H 513.066 3.37389 0.993051 0
M  V30 5237 H 512.94 2.71779 2.61565 0
M  V30 5238 H 515.327 1.75651 2.3713 0
M  V30 5239 H 515.408 2.44731 0.744326 0
M  V30 5240 H 515.052 4.77238 1.738 0
M  V30 5241 H 514.982 4.05046 3.36519 0
M  V30 5242 H 517.473 3.14799 2.0907 0
M  V30 5243 H 517.786 6.76241 3.74056 0
M  V30 5244 H 516.131 6.07825 3.37007 0
M  V30 5245 H 519.322 3.94535 2.51912 0
M  V30 5246 H 519.495 5.59344 3.27166 0
M  V30 5247 N 512.901 -0.976442 1.23707 0
M  V30 5248 C 514.147 -1.72081 1.07312 0
M  V30 5249 C 514.48 -1.90275 -0.388476 0
M  V30 5250 O 513.755 -1.4579 -1.28746 0
M  V30 5251 C 514.038 -3.11675 1.80363 0
M  V30 5252 C 513.891 -3.01027 3.3422 0
M  V30 5253 C 515.21 -4.1117 1.5693 0
M  V30 5254 H 512.329 -0.624583 0.391236 0
M  V30 5255 H 514.971 -1.13649 1.52263 0
M  V30 5256 H 513.121 -3.61559 1.42153 0
M  V30 5257 H 514.793 -2.58637 3.81975 0
M  V30 5258 H 513.036 -2.3744 3.63049 0
M  V30 5259 H 513.707 -3.9988 3.80525 0
M  V30 5260 H 516.183 -3.7011 1.90151 0
M  V30 5261 H 515.059 -5.06928 2.10513 0
M  V30 5262 H 515.32 -4.392 0.505548 0
M  V30 5263 N 514.379 -1.04941 -1.1758 0
M  V30 5264 C 515.625 -0.759112 -1.88057 0
M  V30 5265 C 515.958 0.711918 -1.8068 0
M  V30 5266 O 515.233 1.52035 -1.21308 0
M  V30 5267 C 515.516 -1.237 -3.38187 0
M  V30 5268 C 515.369 -2.77078 -3.54327 0
M  V30 5269 C 516.688 -0.834014 -4.32125 0
M  V30 5270 H 513.807 -0.277237 -0.682868 0
M  V30 5271 H 516.449 -1.30296 -1.38286 0
M  V30 5272 H 514.599 -0.774337 -3.80705 0
M  V30 5273 H 516.271 -3.31449 -3.20842 0
M  V30 5274 H 514.514 -3.16477 -2.96689 0
M  V30 5275 H 515.185 -3.05577 -4.59703 0
M  V30 5276 H 517.661 -1.23228 -3.97434 0
M  V30 5277 H 516.537 -1.19603 -5.35711 0
M  V30 5278 H 516.798 0.262195 -4.41322 0
M  V30 5279 N 515.857 1.33968 -0.830081 0
M  V30 5280 C 517.273 1.51003 -0.516742 0
M  V30 5281 C 517.473 1.77286 0.957694 0
M  V30 5282 O 516.529 1.82797 1.74188 0
M  V30 5283 C 517.842 2.67036 -1.38247 0
M  V30 5284 C 519.39 2.80919 -1.38034 0
M  V30 5285 C 519.865 4.00004 -2.23071 0
M  V30 5286 N 521.356 4.07224 -2.20733 0
M  V30 5287 C 522.091 4.98541 -2.83275 0
M  V30 5288 N 521.587 5.95033 -3.54835 0
M  V30 5289 N 523.38 4.91469 -2.72791 0
M  V30 5290 H 515.531 1.15168 -1.78466 0
M  V30 5291 H 517.794 0.565443 -0.760906 0
M  V30 5292 H 517.5 2.54266 -2.42985 0
M  V30 5293 H 517.374 3.62226 -1.05225 0
M  V30 5294 H 519.761 2.93127 -0.340713 0
M  V30 5295 H 519.842 1.86517 -1.75057 0
M  V30 5296 H 519.486 3.88557 -3.27087 0
M  V30 5297 H 519.416 4.93634 -1.83394 0
M  V30 5298 H 521.907 3.38162 -1.68687 0
M  V30 5299 H 522.22 6.61357 -3.99784 0
M  V30 5300 H 520.565 5.95135 -3.58942 0
M  V30 5301 H 523.756 4.15048 -2.16456 0
M  V30 5302 H 523.929 5.62439 -3.21818 0
M  V30 5303 N 517.335 0.585699 1.46312 0
M  V30 5304 C 518.582 0.0724211 2.0237 0
M  V30 5305 C 518.91 -1.28868 1.45683 0
M  V30 5306 O 518.165 -1.85853 0.612945 0
M  V30 5307 C 518.464 -0.0401312 3.57377 0
M  V30 5308 C 518.13 1.25376 4.33119 0
M  V30 5309 C 516.792 1.60824 4.5353 0
M  V30 5310 C 519.144 2.10987 4.76586 0
M  V30 5311 C 516.472 2.81676 5.14661 0
M  V30 5312 C 518.824 3.31068 5.39052 0
M  V30 5313 C 517.488 3.66794 5.5769 0
M  V30 5314 H 516.758 0.0265007 0.740526 0
M  V30 5315 H 519.405 0.762935 1.75646 0
M  V30 5316 H 517.71 -0.813791 3.83255 0
M  V30 5317 H 519.407 -0.453078 3.98432 0
M  V30 5318 H 515.997 0.967808 4.1753 0
M  V30 5319 H 520.181 1.84904 4.60569 0
M  V30 5320 H 515.437 3.0949 5.27282 0
M  V30 5321 H 519.611 3.97672 5.71691 0
M  V30 5322 H 517.238 4.60529 6.04828 0
M  V30 5323 N 518.813 -1.54241 0.323641 0
M  V30 5324 C 520.059 -2.00867 -0.279323 0
M  V30 5325 C 520.392 -1.21146 -1.5178 0
M  V30 5326 O 519.667 -0.29378 -1.92269 0
M  V30 5327 C 519.95 -3.54837 -0.613387 0
M  V30 5328 C 519.803 -4.45284 0.635803 0
M  V30 5329 C 521.122 -4.16186 -1.43099 0
M  V30 5330 H 518.241 -0.730177 -0.100049 0
M  V30 5331 H 520.883 -1.84829 0.440235 0
M  V30 5332 H 519.033 -3.68634 -1.22641 0
M  V30 5333 H 520.705 -4.43357 1.27406 0
M  V30 5334 H 518.948 -4.14956 1.26466 0
M  V30 5335 H 519.619 -5.5084 0.357597 0
M  V30 5336 H 522.095 -4.05964 -0.912814 0
M  V30 5337 H 520.971 -5.24031 -1.6335 0
M  V30 5338 H 521.232 -3.69516 -2.42715 0
M  V30 5339 N 520.291 -0.0518155 -1.57515 0
M  V30 5340 C 521.707 0.304735 -1.56664 0
M  V30 5341 C 521.907 1.71395 -1.05953 0
M  V30 5342 O 520.963 2.42123 -0.716414 0
M  V30 5343 C 522.276 0.132614 -3.00407 0
M  V30 5344 C 523.824 0.20367 -3.12337 0
M  V30 5345 C 524.299 0.0600706 -4.57961 0
M  V30 5346 N 525.79 0.116326 -4.63054 0
M  V30 5347 C 526.525 0.0293363 -5.73392 0
M  V30 5348 N 526.021 -0.110038 -6.92713 0
M  V30 5349 N 527.814 0.0849651 -5.62036 0
M  V30 5350 H 519.965 -0.973056 -1.888 0
M  V30 5351 H 522.228 -0.377781 -0.869474 0
M  V30 5352 H 521.934 -0.839019 -3.41546 0
M  V30 5353 H 521.808 0.893376 -3.66468 0
M  V30 5354 H 524.195 1.16578 -2.71097 0
M  V30 5355 H 524.276 -0.587857 -2.48954 0
M  V30 5356 H 523.92 -0.898715 -4.99886 0
M  V30 5357 H 523.85 0.87075 -5.19351 0
M  V30 5358 H 526.341 0.22327 -3.7724 0
M  V30 5359 H 526.654 -0.169104 -7.72615 0
M  V30 5360 H 524.999 -0.145132 -6.94848 0
M  V30 5361 H 528.19 0.192411 -4.67704 0
M  V30 5362 H 528.363 0.0137131 -6.47999 0
M  V30 5363 N 521.769 1.56035 0.221574 0
M  V30 5364 C 523.018 1.78245 0.944016 0
M  V30 5365 C 523.331 0.620371 1.85501 0
M  V30 5366 O 524.537 0.726103 2.6161 0
M  V30 5367 C 522.993 3.15659 1.7288 0
M  V30 5368 C 522.601 4.39591 0.863942 0
M  V30 5369 C 524.345 3.47195 2.44246 0
M  V30 5370 C 522.252 5.6803 1.64607 0
M  V30 5371 H 521.182 0.664547 0.356222 0
M  V30 5372 H 523.833 1.8243 0.197904 0
M  V30 5373 H 522.215 3.0565 2.51781 0
M  V30 5374 H 523.389 4.60655 0.115464 0
M  V30 5375 H 521.704 4.15572 0.262407 0
M  V30 5376 H 524.301 4.40381 3.03263 0
M  V30 5377 H 524.644 2.69693 3.1713 0
M  V30 5378 H 525.177 3.58533 1.72334 0
M  V30 5379 H 521.916 6.48425 0.960507 0
M  V30 5380 H 521.436 5.51027 2.36917 0
M  V30 5381 H 523.115 6.08203 2.20675 0
M  V30 5382 N 523.247 -0.488276 1.49845 0
M  V30 5383 C 524.177 -1.59675 1.70371 0
M  V30 5384 C 525.158 -1.60878 0.552473 0
M  V30 5385 O 526.343 -1.77417 0.78973 0
M  V30 5386 C 523.473 -2.98098 1.782 0
M  V30 5387 C 522.427 -3.11761 2.93239 0
M  V30 5388 C 521.753 -4.51661 2.86193 0
M  V30 5389 C 523.053 -2.90589 4.33999 0
M  V30 5390 H 524.747 -1.42752 2.63177 0
M  V30 5391 H 522.293 -0.685317 1.26647 0
M  V30 5392 H 524.246 -3.75555 1.91144 0
M  V30 5393 H 522.97 -3.16138 0.820018 0
M  V30 5394 H 521.629 -2.36732 2.79917 0
M  V30 5395 H 521.277 -4.66595 1.87877 0
M  V30 5396 H 520.977 -4.61742 3.63412 0
M  V30 5397 H 522.501 -5.31162 3.01163 0
M  V30 5398 H 523.915 -3.57807 4.47936 0
M  V30 5399 H 522.312 -3.1213 5.12538 0
M  V30 5400 H 523.382 -1.86595 4.4756 0
M  V30 5401 N 524.725 -1.39134 -0.740242 0
M  V30 5402 C 526.141 -1.20623 -1.0451 0
M  V30 5403 C 526.341 -0.0641651 -2.01398 0
M  V30 5404 O 525.397 0.585843 -2.4561 0
M  V30 5405 C 526.71 -2.53815 -1.6124 0
M  V30 5406 C 528.258 -2.60615 -1.73346 0
M  V30 5407 C 528.733 -3.94015 -2.33486 0
M  V30 5408 N 530.224 -3.95627 -2.40902 0
M  V30 5409 C 530.959 -4.95616 -2.88361 0
M  V30 5410 N 530.455 -6.06003 -3.35756 0
M  V30 5411 N 532.248 -4.82998 -2.87523 0
M  V30 5412 H 524.399 -2.12176 -0.0975576 0
M  V30 5413 H 526.662 -0.942066 -0.105904 0
M  V30 5414 H 526.368 -3.37911 -0.975144 0
M  V30 5415 H 526.242 -2.73162 -2.6012 0
M  V30 5416 H 528.629 -1.76906 -2.36195 0
M  V30 5417 H 528.71 -2.45123 -0.731336 0
M  V30 5418 H 528.354 -4.78153 -1.71267 0
M  V30 5419 H 528.284 -4.06825 -3.34366 0
M  V30 5420 H 530.775 -3.15903 -2.07398 0
M  V30 5421 H 531.088 -6.78215 -3.70464 0
M  V30 5422 H 529.433 -6.09604 -3.33778 0
M  V30 5423 H 532.624 -3.95866 -2.49816 0
M  V30 5424 H 532.797 -5.61072 -3.24196 0
M  V30 5425 N 526.204 0.969867 -1.24223 0
M  V30 5426 C 527.453 1.70687 -1.07466 0
M  V30 5427 C 527.766 1.91736 0.386861 0
M  V30 5428 O 528.972 2.62986 0.674581 0
M  V30 5429 C 527.428 3.07217 -1.87472 0
M  V30 5430 C 527.036 2.94018 -3.3802 0
M  V30 5431 C 528.78 3.84804 -1.79237 0
M  V30 5432 C 526.687 4.25844 -4.10379 0
M  V30 5433 H 525.617 0.640067 -0.398536 0
M  V30 5434 H 528.268 1.08092 -1.48285 0
M  V30 5435 H 526.65 3.70628 -1.39466 0
M  V30 5436 H 527.824 2.39632 -3.9359 0
M  V30 5437 H 526.139 2.29898 -3.47183 0
M  V30 5438 H 528.736 4.82417 -2.30603 0
M  V30 5439 H 529.079 4.09356 -0.757197 0
M  V30 5440 H 529.612 3.28115 -2.24912 0
M  V30 5441 H 526.351 4.06486 -5.14246 0
M  V30 5442 H 525.871 4.80054 -3.59594 0
M  V30 5443 H 527.55 4.94475 -4.17257 0
M  V30 5444 N 527.682 1.05563 1.17022 0
M  V30 5445 C 528.929 0.767937 1.87374 0
M  V30 5446 C 529.257 -0.705224 1.81265 0
M  V30 5447 O 528.512 -1.5318 1.21796 0
M  V30 5448 C 528.811 1.19849 3.36706 0
M  V30 5449 C 528.477 2.6745 3.63017 0
M  V30 5450 C 527.139 3.0777 3.69907 0
M  V30 5451 C 529.491 3.62811 3.74189 0
M  V30 5452 C 526.819 4.42307 3.85463 0
M  V30 5453 C 529.171 4.97087 3.91264 0
M  V30 5454 C 527.835 5.37055 3.96394 0
M  V30 5455 H 527.105 0.281008 0.68565 0
M  V30 5456 H 529.752 1.32339 1.38415 0
M  V30 5457 H 528.057 0.562096 3.87747 0
M  V30 5458 H 529.754 0.953038 3.8951 0
M  V30 5459 H 526.344 2.35228 3.58282 0
M  V30 5460 H 530.528 3.32798 3.68183 0
M  V30 5461 H 525.784 4.72769 3.87684 0
M  V30 5462 H 529.958 5.70869 3.9885 0
M  V30 5463 H 527.585 6.41308 4.082 0
M  V30 5464 N 529.16 -1.33526 0.837174 0
M  V30 5465 C 530.107 -2.29248 0.267169 0
M  V30 5466 C 531.077 -1.54252 -0.616071 0
M  V30 5467 O 532.262 -1.82559 -0.554699 0
M  V30 5468 C 529.402 -3.40638 -0.553152 0
M  V30 5469 C 528.515 -4.30548 0.353921 0
M  V30 5470 C 527.65 -5.29051 -0.477339 0
M  V30 5471 C 526.689 -6.106 0.42823 0
M  V30 5472 N 525.826 -7.01152 -0.364801 0
M  V30 5473 H 530.666 -2.77398 1.08877 0
M  V30 5474 H 528.203 -1.36496 0.54838 0
M  V30 5475 H 530.161 -4.03921 -1.04422 0
M  V30 5476 H 528.791 -2.93685 -1.33973 0
M  V30 5477 H 527.843 -3.68001 0.963289 0
M  V30 5478 H 529.155 -4.87631 1.04964 0
M  V30 5479 H 528.309 -5.97853 -1.0323 0
M  V30 5480 H 527.048 -4.72541 -1.2065 0
M  V30 5481 H 526.053 -5.40718 0.995219 0
M  V30 5482 H 527.278 -6.69193 1.15573 0
M  V30 5483 H 525.224 -6.47092 -1.07738 0
M  V30 5484 H 525.141 -7.5551 0.272238 0
M  V30 5485 H 526.409 -7.74263 -0.902054 0
M  V30 5486 N 530.638 -0.59345 -1.46 0
M  V30 5487 C 531.568 0.121192 -2.33185 0
M  V30 5488 C 532.549 0.872977 -1.4599 0
M  V30 5489 O 533.734 0.846321 -1.74789 0
M  V30 5490 C 530.864 1.12844 -3.28456 0
M  V30 5491 C 529.818 0.4908 -4.25177 0
M  V30 5492 C 529.144 1.60529 -5.10034 0
M  V30 5493 C 530.444 -0.578949 -5.19081 0
M  V30 5494 H 532.138 -0.606767 -2.93187 0
M  V30 5495 H 529.684 -0.293242 -1.40983 0
M  V30 5496 H 531.637 1.63684 -3.88311 0
M  V30 5497 H 530.361 1.88681 -2.66584 0
M  V30 5498 H 529.02 0.00339328 -3.666 0
M  V30 5499 H 528.668 2.35359 -4.44539 0
M  V30 5500 H 528.368 1.18422 -5.75543 0
M  V30 5501 H 529.892 2.11623 -5.72755 0
M  V30 5502 H 531.306 -0.155199 -5.7309 0
M  V30 5503 H 529.703 -0.920947 -5.92991 0
M  V30 5504 H 530.773 -1.46109 -4.62364 0
M  V30 5505 N 532.116 1.54067 -0.331816 0
M  V30 5506 C 533.344 2.05131 0.269996 0
M  V30 5507 C 533.759 1.20749 1.45138 0
M  V30 5508 O 533.116 0.240069 1.80914 0
M  V30 5509 C 533.167 3.54728 0.696456 0
M  V30 5510 O 532.888 4.35906 -0.43794 0
M  V30 5511 C 534.389 4.21916 1.36021 0
M  V30 5512 H 531.609 0.668807 0.0542042 0
M  V30 5513 H 534.153 1.98777 -0.4804 0
M  V30 5514 H 532.308 3.61342 1.39681 0
M  V30 5515 H 532.722 5.24404 -0.100334 0
M  V30 5516 H 534.196 5.28015 1.60947 0
M  V30 5517 H 534.673 3.73538 2.31011 0
M  V30 5518 H 535.279 4.19463 0.702212 0
M  V30 5519 N 533.594 0.0601682 1.57485 0
M  V30 5520 C 535.01 -0.296422 1.56823 0
M  V30 5521 C 535.21 -1.70831 1.0686 0
M  V30 5522 O 534.266 -2.4174 0.729245 0
M  V30 5523 C 535.579 -0.116681 3.00474 0
M  V30 5524 C 537.127 -0.187103 3.1244 0
M  V30 5525 C 537.602 -0.035783 4.57986 0
M  V30 5526 N 539.093 -0.0917676 4.63109 0
M  V30 5527 C 539.828 0.00107251 5.734 0
M  V30 5528 N 539.324 0.146773 6.92645 0
M  V30 5529 N 541.117 -0.0551577 5.62073 0
M  V30 5530 H 533.268 0.983055 1.88281 0
M  V30 5531 H 535.531 0.382386 0.867459 0
M  V30 5532 H 535.237 0.85712 3.41096 0
M  V30 5533 H 535.111 -0.873929 3.66936 0
M  V30 5534 H 537.498 -1.15138 2.71712 0
M  V30 5535 H 537.579 0.601052 2.48638 0
M  V30 5536 H 537.223 0.925212 4.99402 0
M  V30 5537 H 537.153 -0.843196 5.19806 0
M  V30 5538 H 539.644 -0.203261 3.77353 0
M  V30 5539 H 539.957 0.210076 7.72514 0
M  V30 5540 H 538.302 0.181979 6.94762 0
M  V30 5541 H 541.493 -0.167605 4.678 0
M  V30 5542 H 541.666 0.020652 6.47997 0
M  V30 5543 N 535.072 -1.5615 -0.213296 0
M  V30 5544 C 536.022 -1.89485 -1.26804 0
M  V30 5545 C 537.006 -0.758713 -1.41889 0
M  V30 5546 O 538.198 -1.02127 -1.44565 0
M  V30 5547 C 535.327 -2.22219 -2.61675 0
M  V30 5548 C 534.413 -3.42245 -2.50458 0
M  V30 5549 N 534.804 -4.60645 -2.089 0
M  V30 5550 C 533.102 -3.46023 -2.81397 0
M  V30 5551 C 533.803 -5.42805 -2.09135 0
M  V30 5552 N 532.779 -4.82732 -2.49941 0
M  V30 5553 H 536.581 -2.78537 -0.937771 0
M  V30 5554 H 534.095 -1.56826 -0.421824 0
M  V30 5555 H 536.092 -2.44278 -3.37837 0
M  V30 5556 H 534.752 -1.34484 -2.95541 0
M  V30 5557 H 535.763 -4.85651 -1.79899 0
M  V30 5558 H 532.44 -2.68654 -3.1958 0
M  V30 5559 H 533.83 -6.47601 -1.79059 0
M  V30 5560 N 536.55 0.480323 -1.50102 0
M  V30 5561 C 537.797 1.23307 -1.60629 0
M  V30 5562 C 538.125 1.92135 -0.302375 0
M  V30 5563 O 537.38 1.82321 0.711154 0
M  V30 5564 C 537.679 2.30708 -2.72963 0
M  V30 5565 C 537.345 1.79195 -4.13763 0
M  V30 5566 C 536.007 1.64867 -4.52076 0
M  V30 5567 C 538.359 1.40878 -5.018 0
M  V30 5568 C 535.687 1.10631 -5.76175 0
M  V30 5569 C 538.039 0.880872 -6.26437 0
M  V30 5570 C 536.703 0.724146 -6.6356 0
M  V30 5571 H 535.973 0.451211 -0.587784 0
M  V30 5572 H 538.62 0.53051 -1.84005 0
M  V30 5573 H 536.925 3.06834 -2.43639 0
M  V30 5574 H 538.622 2.88692 -2.78313 0
M  V30 5575 H 535.212 1.91313 -3.83533 0
M  V30 5576 H 539.396 1.50786 -4.7284 0
M  V30 5577 H 534.652 0.972263 -6.0362 0
M  V30 5578 H 538.826 0.575269 -6.9402 0
M  V30 5579 H 536.453 0.301722 -7.59601 0
M  V30 5580 N 538.028 1.39524 0.732853 0
M  V30 5581 C 539.274 1.37068 1.49467 0
M  V30 5582 C 539.607 -0.0327166 1.94172 0
M  V30 5583 O 538.882 -0.998071 1.66939 0
M  V30 5584 C 539.165 2.34494 2.73285 0
M  V30 5585 C 539.018 3.83784 2.34585 0
M  V30 5586 C 540.337 2.29717 3.75391 0
M  V30 5587 H 537.456 0.499206 0.542183 0
M  V30 5588 H 540.098 1.70532 0.837783 0
M  V30 5589 H 538.248 2.06087 3.29333 0
M  V30 5590 H 539.92 4.22949 1.84151 0
M  V30 5591 H 538.163 4.00455 1.66787 0
M  V30 5592 H 538.834 4.47444 3.23262 0
M  V30 5593 H 541.31 2.54839 3.28932 0
M  V30 5594 H 540.186 2.99962 4.59689 0
M  V30 5595 H 540.447 1.30291 4.22465 0
M  V30 5596 N 539.506 -0.963266 1.24736 0
M  V30 5597 C 540.754 -1.70343 1.08755 0
M  V30 5598 C 541.075 -1.91387 -0.373619 0
M  V30 5599 O 540.345 -1.4948 -1.2662 0
M  V30 5600 H 538.925 -0.631224 0.399456 0
M  V30 5601 H 541.587 -1.15859 1.56725 0
M  V30 5602 H 540.683 -2.68616 1.58909 0
M  V30 5603 N 540.985 -1.06182 -1.16461 0
M  V30 5604 C 541.915 -0.692861 -2.22984 0
M  V30 5605 C 542.896 0.314122 -1.67174 0
M  V30 5606 O 544.081 0.189499 -1.93273 0
M  V30 5607 C 541.211 -0.07732 -3.47214 0
M  V30 5608 C 540.165 -1.01015 -4.15909 0
M  V30 5609 C 539.491 -0.257973 -5.34077 0
M  V30 5610 C 540.791 -2.33868 -4.67015 0
M  V30 5611 H 542.485 -1.58343 -2.54102 0
M  V30 5612 H 540.031 -0.76279 -1.22137 0
M  V30 5613 H 541.984 0.19266 -4.20959 0
M  V30 5614 H 540.708 0.848254 -3.15392 0
M  V30 5615 H 539.367 -1.26486 -3.44088 0
M  V30 5616 H 539.015 0.670684 -4.98509 0
M  V30 5617 H 538.715 -0.879638 -5.80979 0
M  V30 5618 H 540.239 0.00448788 -6.106 0
M  V30 5619 H 541.653 -2.1279 -5.32347 0
M  V30 5620 H 540.05 -2.91522 -5.24533 0
M  V30 5621 H 541.12 -2.97019 -3.83286 0
M  V30 5622 N 542.463 1.3308 -0.844243 0
M  V30 5623 C 543.879 1.50447 -0.532729 0
M  V30 5624 C 544.079 1.78292 0.938837 0
M  V30 5625 O 543.135 1.84635 1.72239 0
M  V30 5626 C 544.448 2.65555 -1.41072 0
M  V30 5627 C 545.996 2.7944 -1.41005 0
M  V30 5628 C 546.471 3.97616 -2.27301 0
M  V30 5629 N 547.962 4.0486 -2.2504 0
M  V30 5630 C 548.697 4.95508 -2.88547 0
M  V30 5631 N 548.193 5.91236 -3.61126 0
M  V30 5632 N 549.986 4.88548 -2.77989 0
M  V30 5633 H 542.137 1.13269 -1.79677 0
M  V30 5634 H 544.4 0.55734 -0.766861 0
M  V30 5635 H 544.106 2.51675 -2.45668 0
M  V30 5636 H 543.98 3.61089 -1.09061 0
M  V30 5637 H 546.367 2.92749 -0.371784 0
M  V30 5638 H 546.448 1.8465 -1.77026 0
M  V30 5639 H 546.092 3.85066 -3.3119 0
M  V30 5640 H 546.022 4.91661 -1.88619 0
M  V30 5641 H 548.513 3.36353 -1.72264 0
M  V30 5642 H 548.826 6.57079 -4.06776 0
M  V30 5643 H 547.171 5.91295 -3.65234 0
M  V30 5644 H 550.362 4.12729 -2.20846 0
M  V30 5645 H 550.535 5.58994 -3.27765 0
M  V30 5646 N 543.941 0.601185 1.45683 0
M  V30 5647 C 545.187 0.0940202 2.02582 0
M  V30 5648 C 545.52 -1.26972 1.46941 0
M  V30 5649 O 544.795 -1.83613 0.641612 0
M  V30 5650 C 545.078 0.0481715 3.60068 0
M  V30 5651 C 544.931 1.44212 4.26055 0
M  V30 5652 C 546.25 -0.642975 4.35378 0
M  V30 5653 H 543.369 0.0356404 0.736138 0
M  V30 5654 H 546.011 0.771929 1.73612 0
M  V30 5655 H 544.161 -0.529128 3.8488 0
M  V30 5656 H 545.833 2.06601 4.12449 0
M  V30 5657 H 544.076 2.00465 3.84703 0
M  V30 5658 H 544.747 1.36234 5.34925 0
M  V30 5659 H 547.223 -0.152351 4.15821 0
M  V30 5660 H 546.099 -0.644141 5.45107 0
M  V30 5661 H 546.36 -1.70785 4.0778 0
M  V30 5662 N 545.419 -1.53889 0.339982 0
M  V30 5663 C 546.349 -2.27843 -0.510856 0
M  V30 5664 C 547.33 -1.29267 -1.10563 0
M  V30 5665 O 548.515 -1.58104 -1.12768 0
M  V30 5666 C 545.645 -3.04857 -1.66372 0
M  V30 5667 C 544.599 -4.10907 -1.19746 0
M  V30 5668 C 543.925 -4.75855 -2.43857 0
M  V30 5669 C 545.225 -5.21435 -0.300501 0
M  V30 5670 H 546.919 -2.99212 0.106067 0
M  V30 5671 H 544.465 -1.43904 0.0524533 0
M  V30 5672 H 546.418 -3.5533 -2.26537 0
M  V30 5673 H 545.142 -2.31133 -2.30749 0
M  V30 5674 H 543.801 -3.61342 -0.618654 0
M  V30 5675 H 543.449 -3.9873 -3.06633 0
M  V30 5676 H 543.149 -5.47502 -2.13343 0
M  V30 5677 H 544.673 -5.2911 -3.04754 0
M  V30 5678 H 546.087 -5.67565 -0.80889 0
M  V30 5679 H 544.484 -6.00036 -0.0874076 0
M  V30 5680 H 545.554 -4.80328 0.664321 0
M  V30 5681 N 546.897 -0.0685191 -1.57451 0
M  V30 5682 C 548.145 0.60016 -1.92983 0
M  V30 5683 C 548.466 1.70348 -0.949028 0
M  V30 5684 O 547.736 1.959 0.00335647 0
M  V30 5685 H 546.316 0.224682 -0.712409 0
M  V30 5686 H 548.978 -0.125605 -1.94495 0
M  V30 5687 H 548.074 1.02759 -2.94698 0
M  V30 5688 N 548.375 1.56261 0.205012 0
M  V30 5689 C 549.325 1.90155 1.25798 0
M  V30 5690 C 550.309 0.766227 1.41484 0
M  V30 5691 O 551.501 1.02893 1.44021 0
M  V30 5692 C 548.63 2.23603 2.60493 0
M  V30 5693 C 547.716 3.43568 2.48639 0
M  V30 5694 N 548.107 4.61747 2.06455 0
M  V30 5695 C 546.405 3.4751 2.79558 0
M  V30 5696 C 547.106 5.43907 2.06253 0
M  V30 5697 N 546.082 4.84051 2.47377 0
M  V30 5698 H 549.884 2.79031 0.922986 0
M  V30 5699 H 547.398 1.57048 0.413501 0
M  V30 5700 H 549.395 2.46067 3.36537 0
M  V30 5701 H 548.055 1.36049 2.94823 0
M  V30 5702 H 549.066 4.86598 1.77321 0
M  V30 5703 H 545.743 2.70345 3.18151 0
M  V30 5704 H 547.133 6.48542 1.75622 0
M  V30 5705 N 549.853 -0.472356 1.50355 0
M  V30 5706 C 551.081 -1.24784 1.65035 0
M  V30 5707 C 551.496 -1.85837 0.333176 0
M  V30 5708 O 550.853 -1.69168 -0.68472 0
M  V30 5709 C 550.904 -2.35747 2.74054 0
M  V30 5710 O 550.625 -1.77197 4.00665 0
M  V30 5711 C 552.126 -3.26645 2.99696 0
M  V30 5712 H 549.346 -0.377432 0.554785 0
M  V30 5713 H 551.89 -0.563962 1.9657 0
M  V30 5714 H 550.045 -2.99912 2.45217 0
M  V30 5715 H 550.459 -2.5026 4.60945 0
M  V30 5716 H 551.933 -4.00718 3.79644 0
M  V30 5717 H 552.41 -3.8535 2.10718 0
M  V30 5718 H 553.016 -2.68218 3.3006 0
M  V30 5719 N 551.331 -1.39911 -0.725443 0
M  V30 5720 C 552.261 -1.42138 -1.85254 0
M  V30 5721 C 553.242 -0.283513 -1.67721 0
M  V30 5722 O 554.427 -0.490717 -1.87898 0
M  V30 5723 C 551.557 -1.27354 -3.23107 0
M  V30 5724 C 550.511 -2.3864 -3.55296 0
M  V30 5725 C 549.837 -2.08939 -4.92188 0
M  V30 5726 C 551.137 -3.8097 -3.57295 0
M  V30 5727 H 552.831 -2.36461 -1.83648 0
M  V30 5728 H 550.377 -1.13817 -0.882138 0
M  V30 5729 H 552.33 -1.2753 -4.01639 0
M  V30 5730 H 551.054 -0.295025 -3.25265 0
M  V30 5731 H 549.713 -2.37696 -2.79099 0
M  V30 5732 H 549.361 -1.09502 -4.90936 0
M  V30 5733 H 549.061 -2.83491 -5.14691 0
M  V30 5734 H 550.585 -2.10781 -5.73065 0
M  V30 5735 H 551.999 -3.8379 -4.25885 0
M  V30 5736 H 550.396 -4.5496 -3.9132 0
M  V30 5737 H 551.466 -4.11261 -2.5689 0
M  V30 5738 N 552.809 0.956637 -1.25245 0
M  V30 5739 C 554.225 1.22733 -1.02023 0
M  V30 5740 C 554.425 1.99761 0.264186 0
M  V30 5741 O 553.481 2.32814 0.977436 0
M  V30 5742 C 554.794 2.00367 -2.24217 0
M  V30 5743 C 556.342 2.13418 -2.28958 0
M  V30 5744 C 556.817 2.9445 -3.50803 0
M  V30 5745 N 558.308 3.02029 -3.51187 0
M  V30 5746 C 559.043 3.65116 -4.42129 0
M  V30 5747 N 558.539 4.2983 -5.43339 0
M  V30 5748 N 560.332 3.62237 -4.29815 0
M  V30 5749 H 552.483 0.441282 -2.07765 0
M  V30 5750 H 554.746 0.257686 -0.912306 0
M  V30 5751 H 554.452 1.51165 -3.17556 0
M  V30 5752 H 554.326 3.01077 -2.27228 0
M  V30 5753 H 556.713 2.61819 -1.36143 0
M  V30 5754 H 556.794 1.1202 -2.29968 0
M  V30 5755 H 556.438 2.46741 -4.43939 0
M  V30 5756 H 556.368 3.9607 -3.47039 0
M  V30 5757 H 558.859 2.56007 -2.77973 0
M  V30 5758 H 559.172 4.75819 -6.08947 0
M  V30 5759 H 557.517 4.28465 -5.47214 0
M  V30 5760 H 560.708 3.10863 -3.49974 0
M  V30 5761 H 560.881 4.11117 -5.00886 0
M  V30 5762 N 554.287 1.06798 1.15896 0
M  V30 5763 C 555.25 0.687328 2.18651 0
M  V30 5764 C 556.25 -0.269559 1.58524 0
M  V30 5765 O 557.44 -0.0512627 1.74125 0
M  V30 5766 C 554.572 0.0121642 3.40898 0
M  V30 5767 H 555.765 1.59701 2.53842 0
M  V30 5768 H 553.318 0.863828 1.3026 0
M  V30 5769 H 554.053 -0.910025 3.1127 0
M  V30 5770 H 553.838 0.700309 3.85795 0
M  V30 5771 H 555.328 -0.239703 4.16911 0
M  V30 5772 N 555.766 -1.3263 0.851289 0
M  V30 5773 C 556.991 -2.02097 0.466006 0
M  V30 5774 C 557.416 -1.63574 -0.928709 0
M  V30 5775 O 556.774 -0.834665 -1.60944 0
M  V30 5776 C 556.822 -3.55425 0.608737 0
M  V30 5777 O 555.926 -4.10827 -0.359878 0
M  V30 5778 H 555.267 -0.636911 0.187724 0
M  V30 5779 H 557.797 -1.69253 1.14955 0
M  V30 5780 H 557.807 -4.04986 0.495006 0
M  V30 5781 H 556.482 -3.82806 1.62581 0
M  V30 5782 H 555.059 -3.72349 -0.202666 0
M  V30 5783 N 557.244 -0.608902 -1.45362 0
M  V30 5784 C 558.472 -0.111013 -2.06602 0
M  V30 5785 C 558.887 1.20516 -1.45332 0
M  V30 5786 O 558.244 1.73437 -0.567978 0
M  V30 5787 C 558.295 0.033688 -3.61484 0
M  V30 5788 O 558.016 -1.23041 -4.20467 0
M  V30 5789 C 559.517 0.562882 -4.39712 0
M  V30 5790 H 556.737 -0.0694453 -0.667397 0
M  V30 5791 H 559.281 -0.837008 -1.86586 0
M  V30 5792 H 557.436 0.710016 -3.80838 0
M  V30 5793 H 557.85 -1.06094 -5.13658 0
M  V30 5794 H 559.324 0.613213 -5.48583 0
M  V30 5795 H 559.801 1.58543 -4.09586 0
M  V30 5796 H 560.407 -0.0794454 -4.25226 0
M  V30 5797 N 558.722 1.53707 -0.348139 0
M  V30 5798 C 559.67 2.26671 0.521808 0
M  V30 5799 C 560.664 1.28988 1.09811 0
M  V30 5800 O 561.87 1.4668 1.04332 0
M  V30 5801 H 558.245 0.728387 0.186968 0
M  V30 5802 H 560.216 2.98176 -0.115563 0
M  V30 5803 C 558.965 3.05591 1.6586 0
M  V30 5804 H 558.288 3.80589 1.22443 0
M  V30 5805 H 559.728 3.59851 2.24239 0
M  V30 5806 C 558.187 2.15366 2.59073 0
M  V30 5807 O 558.717 1.7528 3.61441 0
M  V30 5808 N 556.923 1.80352 2.27863 0
M  V30 5809 H 556.47 2.13149 1.44656 0
M  V30 5810 H 556.428 1.20268 2.90488 0
M  V30 5811 N 560.2 0.0768682 1.57412 0
M  V30 5812 C 561.11 -0.903207 2.16516 0
M  V30 5813 C 562.126 -1.32341 1.12968 0
M  V30 5814 O 563.302 -1.39507 1.45258 0
M  V30 5815 C 560.367 -2.1508 2.71922 0
M  V30 5816 C 559.428 -1.78653 3.90361 0
M  V30 5817 C 558.661 -2.97465 4.43114 0
M  V30 5818 O 558.884 -4.11638 3.94854 0
M  V30 5819 O 557.818 -2.76987 5.3438 0
M  V30 5820 H 561.644 -0.430427 3.00634 0
M  V30 5821 H 559.229 -0.146485 1.4868 0
M  V30 5822 H 561.111 -2.8823 3.07411 0
M  V30 5823 H 559.786 -2.61446 1.9086 0
M  V30 5824 H 558.693 -1.0274 3.59716 0
M  V30 5825 H 560.026 -1.37066 4.7273 0
M  V30 5826 N 561.678 -1.56367 -0.196722 0
M  V30 5827 C 562.925 -1.80529 -0.917366 0
M  V30 5828 C 563.253 -0.649817 -1.83324 0
M  V30 5829 O 562.508 0.36451 -1.92275 0
M  V30 5830 C 562.807 -3.10663 -1.767 0
M  V30 5831 C 562.473 -4.3962 -1.00225 0
M  V30 5832 C 561.135 -4.74653 -0.791095 0
M  V30 5833 C 563.487 -5.1913 -0.464035 0
M  V30 5834 C 560.815 -5.86692 -0.0302155 0
M  V30 5835 C 563.167 -6.31964 0.283625 0
M  V30 5836 C 561.831 -6.65581 0.505813 0
M  V30 5837 H 561.101 -0.660602 -0.335688 0
M  V30 5838 H 563.748 -1.90615 -0.183844 0
M  V30 5839 H 562.053 -2.95807 -2.56915 0
M  V30 5840 H 563.75 -3.26563 -2.32718 0
M  V30 5841 H 560.34 -4.12127 -1.17684 0
M  V30 5842 H 564.524 -4.9248 -0.614575 0
M  V30 5843 H 559.78 -6.11211 0.151917 0
M  V30 5844 H 563.954 -6.92791 0.708057 0
M  V30 5845 H 561.581 -7.52239 1.0973 0
M  V30 5846 N 563.156 0.464375 -1.50603 0
M  V30 5847 C 564.086 1.56944 -1.72889 0
M  V30 5848 C 565.067 1.59979 -0.577997 0
M  V30 5849 O 566.252 1.76138 -0.817855 0
M  V30 5850 C 563.382 2.95225 -1.8292 0
M  V30 5851 C 562.336 3.07056 -2.98162 0
M  V30 5852 C 561.662 4.47051 -2.93343 0
M  V30 5853 C 562.962 2.83648 -4.38567 0
M  V30 5854 H 564.656 1.38547 -2.65415 0
M  V30 5855 H 562.202 0.665082 -1.27721 0
M  V30 5856 H 564.155 3.72467 -1.97095 0
M  V30 5857 H 562.879 3.14793 -0.870209 0
M  V30 5858 H 561.538 2.32248 -2.83648 0
M  V30 5859 H 561.186 4.63547 -1.95276 0
M  V30 5860 H 560.886 4.55902 -3.70712 0
M  V30 5861 H 562.41 5.26304 -3.09575 0
M  V30 5862 H 563.824 3.50636 -4.53572 0
M  V30 5863 H 562.221 3.03937 -5.17438 0
M  V30 5864 H 563.291 1.79451 -4.50472 0
M  V30 5865 N 564.634 1.40294 0.718013 0
M  V30 5866 C 565.564 1.43118 1.84498 0
M  V30 5867 C 566.545 0.292403 1.67568 0
M  V30 5868 O 567.73 0.500675 1.87635 0
M  V30 5869 C 564.86 1.29065 3.22427 0
M  V30 5870 C 563.814 2.40521 3.54025 0
M  V30 5871 C 563.14 2.11546 4.91073 0
M  V30 5872 C 564.44 3.82859 3.55269 0
M  V30 5873 H 566.134 2.37432 1.82391 0
M  V30 5874 H 563.68 1.14283 0.87609 0
M  V30 5875 H 565.633 1.29658 4.00957 0
M  V30 5876 H 564.357 0.312271 3.25104 0
M  V30 5877 H 563.016 2.39173 2.77834 0
M  V30 5878 H 562.664 1.12104 4.90348 0
M  V30 5879 H 562.364 2.86216 5.1318 0
M  V30 5880 H 563.888 2.13817 5.71939 0
M  V30 5881 H 565.302 3.86044 4.23843 0
M  V30 5882 H 563.699 4.57029 3.88902 0
M  V30 5883 H 564.769 4.12617 2.54706 0
M  V30 5884 N 566.112 -0.949982 1.2575 0
M  V30 5885 C 567.042 -2.06483 1.09028 0
M  V30 5886 C 568.023 -1.701 -0.00201532 0
M  V30 5887 O 569.208 -1.93469 0.168383 0
M  V30 5888 C 566.338 -3.39899 0.71316 0
M  V30 5889 C 565.292 -3.90309 1.75621 0
M  V30 5890 C 564.618 -5.20274 1.23365 0
M  V30 5891 C 565.918 -4.16169 3.15596 0
M  V30 5892 H 567.612 -2.20731 2.02283 0
M  V30 5893 H 565.158 -1.06066 0.973964 0
M  V30 5894 H 567.111 -4.17346 0.58309 0
M  V30 5895 H 565.835 -3.25602 -0.255091 0
M  V30 5896 H 564.494 -3.15035 1.8748 0
M  V30 5897 H 564.142 -5.02351 0.255491 0
M  V30 5898 H 563.842 -5.54971 1.93082 0
M  V30 5899 H 565.366 -6.00314 1.11607 0
M  V30 5900 H 566.78 -4.84259 3.06864 0
M  V30 5901 H 565.177 -4.62131 3.82825 0
M  V30 5902 H 566.247 -3.22273 3.6231 0
M  V30 5903 N 567.59 -1.07411 -1.15328 0
M  V30 5904 C 568.839 -0.792643 -1.85473 0
M  V30 5905 C 569.152 0.683789 -1.83259 0
M  V30 5906 O 570.358 1.08005 -2.49093 0
M  V30 5907 C 568.814 -1.36787 -3.32892 0
M  V30 5908 C 568.422 -2.87536 -3.43551 0
M  V30 5909 C 570.166 -1.16444 -4.08217 0
M  V30 5910 C 568.073 -3.38247 -4.85122 0
M  V30 5911 H 567.003 -0.292838 -0.694811 0
M  V30 5912 H 569.654 -1.29426 -1.30082 0
M  V30 5913 H 568.036 -0.793993 -3.87958 0
M  V30 5914 H 569.21 -3.50973 -2.98588 0
M  V30 5915 H 567.525 -3.06676 -2.81672 0
M  V30 5916 H 570.122 -1.51808 -5.12697 0
M  V30 5917 H 570.465 -0.10353 -4.16171 0
M  V30 5918 H 570.998 -1.70472 -3.59422 0
M  V30 5919 H 567.737 -4.43866 -4.82351 0
M  V30 5920 H 567.257 -2.79564 -5.30664 0
M  V30 5921 H 568.936 -3.34238 -5.5398 0
M  V30 5922 N 569.068 1.32177 -0.85831 0
M  V30 5923 C 570.317 1.96392 -0.459689 0
M  V30 5924 C 570.63 1.68659 0.990632 0
M  V30 5925 O 571.836 2.26641 1.49485 0
M  V30 5926 C 570.292 3.51542 -0.7711 0
M  V30 5927 C 569.9 3.8813 -2.2374 0
M  V30 5928 C 571.644 4.2221 -0.44038 0
M  V30 5929 C 569.551 5.36341 -2.49183 0
M  V30 5930 H 568.481 0.735007 -0.168169 0
M  V30 5931 H 571.132 1.50518 -1.0496 0
M  V30 5932 H 569.514 3.95846 -0.11058 0
M  V30 5933 H 570.688 3.54824 -2.94001 0
M  V30 5934 H 569.003 3.30497 -2.533 0
M  V30 5935 H 571.6 5.31234 -0.607855 0
M  V30 5936 H 571.943 4.11683 0.618291 0
M  V30 5937 H 572.476 3.83502 -1.05695 0
M  V30 5938 H 569.215 5.51892 -3.53689 0
M  V30 5939 H 568.735 5.7104 -1.83504 0
M  V30 5940 H 570.414 6.03466 -2.33318 0
M  V30 5941 N 570.547 0.616602 1.45037 0
M  V30 5942 C 571.794 0.115331 2.02171 0
M  V30 5943 C 572.122 -1.25748 1.48383 0
M  V30 5944 O 571.377 -1.84511 0.652229 0
M  V30 5945 C 571.676 0.0356829 3.57382 0
M  V30 5946 C 571.342 1.34535 4.30362 0
M  V30 5947 C 570.004 1.70408 4.50016 0
M  V30 5948 C 572.356 2.21049 4.72003 0
M  V30 5949 C 569.684 2.92529 5.0857 0
M  V30 5950 C 572.036 3.42427 5.31908 0
M  V30 5951 C 570.7 3.78541 5.49784 0
M  V30 5952 H 569.97 0.0422024 0.739797 0
M  V30 5953 H 572.617 0.80002 1.73988 0
M  V30 5954 H 570.922 -0.732314 3.84895 0
M  V30 5955 H 572.619 -0.368463 3.99304 0
M  V30 5956 H 569.209 1.05615 4.15383 0
M  V30 5957 H 573.393 1.94632 4.56544 0
M  V30 5958 H 568.649 3.20605 5.20598 0
M  V30 5959 H 572.823 4.09709 5.63127 0
M  V30 5960 H 570.45 4.73255 5.94923 0
M  V30 5961 N 572.025 -1.5352 0.356285 0
M  V30 5962 C 572.955 -2.28372 -0.486661 0
M  V30 5963 C 573.936 -1.30432 -1.09185 0
M  V30 5964 O 575.121 -1.59291 -1.11085 0
M  V30 5965 C 572.251 -3.06604 -1.63129 0
M  V30 5966 C 571.205 -4.12154 -1.15381 0
M  V30 5967 C 570.531 -4.78415 -2.38796 0
M  V30 5968 C 571.831 -5.21724 -0.245179 0
M  V30 5969 H 573.525 -2.99083 0.137797 0
M  V30 5970 H 571.071 -1.43841 0.0677134 0
M  V30 5971 H 573.024 -3.57712 -2.22755 0
M  V30 5972 H 571.748 -2.33568 -2.28284 0
M  V30 5973 H 570.407 -3.61978 -0.580294 0
M  V30 5974 H 570.055 -4.01959 -3.02387 0
M  V30 5975 H 569.755 -5.49734 -2.07524 0
M  V30 5976 H 571.279 -5.32313 -2.99125 0
M  V30 5977 H 572.693 -5.68391 -0.748646 0
M  V30 5978 H 571.09 -6.00095 -0.0237608 0
M  V30 5979 H 572.16 -4.79596 0.715229 0
M  V30 5980 N 573.503 -0.0852151 -1.57369 0
M  V30 5981 C 574.466 0.8627 -2.12344 0
M  V30 5982 C 575.466 1.21746 -1.05046 0
M  V30 5983 O 576.656 1.14852 -1.30976 0
M  V30 5984 C 573.788 2.1618 -2.63589 0
M  V30 5985 H 574.981 0.385511 -2.97412 0
M  V30 5986 H 572.534 0.163663 -1.55441 0
M  V30 5987 H 573.269 2.68406 -1.82013 0
M  V30 5988 H 573.054 1.91723 -3.4203 0
M  V30 5989 H 574.544 2.84011 -3.06149 0
M  V30 5990 N 574.981 1.5647 0.188427 0
M  V30 5991 C 575.911 1.98101 1.23606 0
M  V30 5992 C 576.892 0.853961 1.47111 0
M  V30 5993 O 578.077 1.11879 1.58735 0
M  V30 5994 C 575.207 2.32624 2.57882 0
M  V30 5995 C 574.161 3.48129 2.48978 0
M  V30 5996 C 573.487 3.68347 3.87588 0
M  V30 5997 C 574.787 4.82112 2.00911 0
M  V30 5998 H 576.481 2.85864 0.890068 0
M  V30 5999 H 574.027 1.37532 0.426714 0
M  V30 6000 H 575.98 2.60343 3.3136 0
M  V30 6001 H 574.704 1.41751 2.94235 0
M  V30 6002 H 573.363 3.20511 1.77956 0
M  V30 6003 H 573.011 2.74793 4.21305 0
M  V30 6004 H 572.711 4.46055 3.82503 0
M  V30 6005 H 574.235 3.98449 4.62678 0
M  V30 6006 H 575.649 5.08819 2.64151 0
M  V30 6007 H 574.046 5.63337 2.06814 0
M  V30 6008 H 575.116 4.75249 0.96262 0
M  V30 6009 N 576.459 -0.456382 1.50847 0
M  V30 6010 C 577.707 -1.20497 1.62249 0
M  V30 6011 C 578.028 -1.92156 0.331839 0
M  V30 6012 O 577.298 -1.84751 -0.651443 0
M  V30 6013 H 575.878 -0.447775 0.597918 0
M  V30 6014 H 578.54 -0.525099 1.87693 0
M  V30 6015 H 577.636 -1.94492 2.44089 0
M  V30 6016 N 577.937 -1.40673 -0.710563 0
M  V30 6017 C 579.183 -1.39428 -1.47267 0
M  V30 6018 C 579.516 0.00182129 -1.942 0
M  V30 6019 O 578.791 0.971387 -1.68506 0
M  V30 6020 C 579.074 -2.38812 -2.6952 0
M  V30 6021 C 578.927 -3.87467 -2.28449 0
M  V30 6022 C 580.246 -2.3566 -3.71689 0
M  V30 6023 H 577.365 -0.507768 -0.534173 0
M  V30 6024 H 580.007 -1.71843 -0.810547 0
M  V30 6025 H 578.157 -2.113 -3.26013 0
M  V30 6026 H 579.829 -4.25825 -1.77399 0
M  V30 6027 H 578.072 -4.03058 -1.60395 0
M  V30 6028 H 578.743 -4.5253 -3.16103 0
M  V30 6029 H 581.219 -2.6004 -3.24836 0
M  V30 6030 H 580.095 -3.07237 -4.54859 0
M  V30 6031 H 580.356 -1.36996 -4.20339 0
M  V30 6032 N 579.415 0.9433 -1.26252 0
M  V30 6033 C 580.345 2.05902 -1.10122 0
M  V30 6034 C 581.326 1.70099 -0.00700552 0
M  V30 6035 O 582.511 1.93377 -0.178641 0
M  V30 6036 C 579.641 3.39516 -0.731175 0
M  V30 6037 C 578.595 3.89372 -1.77688 0
M  V30 6038 C 577.921 5.19613 -1.26122 0
M  V30 6039 C 579.221 4.14489 -3.17799 0
M  V30 6040 H 580.915 2.19655 -2.03451 0
M  V30 6041 H 578.461 1.05548 -0.979576 0
M  V30 6042 H 580.414 4.17031 -0.605215 0
M  V30 6043 H 579.138 3.25733 0.23782 0
M  V30 6044 H 577.797 3.14036 -1.89148 0
M  V30 6045 H 577.445 5.02208 -0.282128 0
M  V30 6046 H 577.145 5.53939 -1.96023 0
M  V30 6047 H 578.669 5.99713 -1.14789 0
M  V30 6048 H 580.083 4.82625 -3.09428 0
M  V30 6049 H 578.48 4.60094 -3.85271 0
M  V30 6050 H 579.55 3.20347 -3.64014 0
M  V30 6051 N 580.893 1.08022 1.14757 0
M  V30 6052 C 582.142 0.802468 1.8505 0
M  V30 6053 C 582.455 -0.674061 1.83619 0
M  V30 6054 O 583.661 -1.06683 2.49662 0
M  V30 6055 C 582.117 1.38551 3.32162 0
M  V30 6056 C 581.725 2.89354 3.42021 0
M  V30 6057 C 583.469 1.18608 4.07594 0
M  V30 6058 C 581.376 3.40815 4.83321 0
M  V30 6059 H 580.306 0.296518 0.693248 0
M  V30 6060 H 582.957 1.30114 1.29393 0
M  V30 6061 H 581.339 0.814556 3.87532 0
M  V30 6062 H 582.513 3.52552 2.96722 0
M  V30 6063 H 580.828 3.08165 2.80041 0
M  V30 6064 H 583.425 1.54525 5.11885 0
M  V30 6065 H 583.768 0.125599 4.1611 0
M  V30 6066 H 584.301 1.72375 3.58513 0
M  V30 6067 H 581.04 4.46418 4.79991 0
M  V30 6068 H 580.56 2.82374 5.29174 0
M  V30 6069 H 582.239 3.37171 5.522 0
M  V30 6070 N 582.371 -1.3172 0.865308 0
M  V30 6071 C 583.618 -1.96876 0.473931 0
M  V30 6072 C 583.946 -1.68425 -0.972786 0
M  V30 6073 O 583.201 -0.970742 -1.69927 0
M  V30 6074 C 583.5 -3.5102 0.672283 0
M  V30 6075 C 583.166 -3.9948 2.09108 0
M  V30 6076 C 581.828 -4.12425 2.4791 0
M  V30 6077 C 584.18 -4.2503 3.0166 0
M  V30 6078 C 581.508 -4.48267 3.78515 0
M  V30 6079 C 583.86 -4.62335 4.31774 0
M  V30 6080 C 582.524 -4.73486 4.70497 0
M  V30 6081 H 581.794 -0.72042 0.173424 0
M  V30 6082 H 584.441 -1.56937 1.0974 0
M  V30 6083 H 582.746 -3.91785 -0.034356 0
M  V30 6084 H 584.443 -3.99475 0.349353 0
M  V30 6085 H 581.033 -3.89898 1.77981 0
M  V30 6086 H 585.217 -4.14529 2.7291 0
M  V30 6087 H 580.473 -4.55097 4.08285 0
M  V30 6088 H 584.647 -4.81058 5.03543 0
M  V30 6089 H 582.274 -5.01016 5.71741 0
M  V30 6090 N 583.85 -0.624285 -1.44708 0
M  V30 6091 C 584.812 0.0749638 -2.29077 0
M  V30 6092 C 585.812 0.778965 -1.40673 0
M  V30 6093 O 587.003 0.624591 -1.62618 0
M  V30 6094 C 584.135 1.11663 -3.22094 0
M  V30 6095 H 585.327 -0.667013 -2.92388 0
M  V30 6096 H 582.88 -0.384098 -1.51507 0
M  V30 6097 H 583.615 1.88881 -2.63618 0
M  V30 6098 H 583.401 0.61583 -3.87234 0
M  V30 6099 H 584.891 1.60585 -3.8549 0
M  V30 6100 N 585.328 1.53329 -0.364422 0
M  V30 6101 C 586.556 2.05657 0.226424 0
M  V30 6102 C 586.971 1.23801 1.42544 0
M  V30 6103 O 586.328 0.27839 1.80364 0
M  V30 6104 C 586.379 3.56125 0.621056 0
M  V30 6105 O 586.1 4.34879 -0.530304 0
M  V30 6106 C 587.601 4.24706 1.27041 0
M  V30 6107 H 584.821 0.669806 0.0400056 0
M  V30 6108 H 587.365 1.97714 -0.522456 0
M  V30 6109 H 585.52 3.64223 1.31985 0
M  V30 6110 H 585.934 5.24073 -0.211546 0
M  V30 6111 H 587.408 5.3131 1.49711 0
M  V30 6112 H 587.885 3.78354 2.23036 0
M  V30 6113 H 588.491 4.20858 0.613079 0
M  V30 6114 N 586.806 0.0935595 1.57322 0
M  V30 6115 C 587.739 -0.902505 2.09595 0
M  V30 6116 C 588.717 -1.27732 1.00615 0
M  V30 6117 O 589.901 -1.38283 1.28102 0
M  V30 6118 C 587.028 -2.20416 2.57166 0
M  V30 6119 C 586.074 -1.97932 3.7779 0
M  V30 6120 S 586.907 -1.21873 5.21447 0
M  V30 6121 C 588.063 -2.53273 5.72367 0
M  V30 6122 H 588.296 -0.457797 2.93754 0
M  V30 6123 H 585.829 -0.119694 1.53935 0
M  V30 6124 H 587.787 -2.95217 2.85232 0
M  V30 6125 H 586.448 -2.62008 1.73235 0
M  V30 6126 H 585.641 -2.94316 4.09138 0
M  V30 6127 H 585.243 -1.3126 3.5021 0
M  V30 6128 H 587.535 -3.49256 5.8054 0
M  V30 6129 H 588.478 -2.26505 6.70896 0
M  V30 6130 H 588.886 -2.61475 5.00291 0
M  V30 6131 N 588.284 -1.56567 -0.180126 0
M  V30 6132 C 589.533 -1.80685 -0.896426 0
M  V30 6133 C 589.846 -0.669335 -1.83791 0
M  V30 6134 O 591.052 -0.795209 -2.59593 0
M  V30 6135 C 589.508 -3.20132 -1.6445 0
M  V30 6136 C 589.116 -4.41727 -0.747088 0
M  V30 6137 C 590.86 -3.53549 -2.34955 0
M  V30 6138 C 588.767 -5.72195 -1.49489 0
M  V30 6139 H 587.697 -0.673758 -0.338477 0
M  V30 6140 H 590.348 -1.8289 -0.149467 0
M  V30 6141 H 588.73 -3.12218 -2.43589 0
M  V30 6142 H 589.904 -4.608 0.00671129 0
M  V30 6143 H 588.219 -4.16122 -0.152134 0
M  V30 6144 H 590.816 -4.48267 -2.91481 0
M  V30 6145 H 591.159 -2.78006 -3.09868 0
M  V30 6146 H 591.692 -3.62976 -1.62768 0
M  V30 6147 H 588.431 -6.50743 -0.788251 0
M  V30 6148 H 587.951 -5.57115 -2.22224 0
M  V30 6149 H 589.63 -6.1384 -2.04472 0
M  V30 6150 N 589.762 0.448376 -1.51087 0
M  V30 6151 C 590.992 1.21965 -1.66757 0
M  V30 6152 C 591.4 1.85748 -0.359753 0
M  V30 6153 O 590.743 1.71022 0.670604 0
M  V30 6154 C 590.805 2.35284 -2.71812 0
M  V30 6155 C 590.469 1.91957 -4.1473 0
M  V30 6156 C 591.466 1.42921 -4.9987 0
M  V30 6157 C 589.151 1.99985 -4.60772 0
M  V30 6158 C 591.145 1.02485 -6.29107 0
M  V30 6159 C 588.832 1.5916 -5.90009 0
M  V30 6160 C 589.83 1.10491 -6.74004 0
M  V30 6161 O 589.518 0.702413 -8.00825 0
M  V30 6162 H 589.25 0.374125 -0.563034 0
M  V30 6163 H 591.804 0.538927 -1.98204 0
M  V30 6164 H 590.034 3.06599 -2.35657 0
M  V30 6165 H 591.723 2.97184 -2.76472 0
M  V30 6166 H 592.489 1.36123 -4.65506 0
M  V30 6167 H 588.368 2.36814 -3.95525 0
M  V30 6168 H 591.912 0.644271 -6.94619 0
M  V30 6169 H 587.809 1.65626 -6.2389 0
M  V30 6170 H 588.577 0.829248 -8.14288 0
M  V30 6171 N 591.24 1.41047 0.703093 0
M  V30 6172 C 592.47 1.43133 1.48985 0
M  V30 6173 C 592.878 0.0328537 1.89171 0
M  V30 6174 O 592.221 -0.956469 1.56835 0
M  V30 6175 C 592.283 2.26991 2.78775 0
M  V30 6176 C 591.947 3.7525 2.60837 0
M  V30 6177 C 592.944 4.67591 2.27276 0
M  V30 6178 C 590.629 4.19208 2.76712 0
M  V30 6179 C 592.623 6.01877 2.09817 0
M  V30 6180 C 590.31 5.53561 2.5887 0
M  V30 6181 C 591.308 6.4471 2.25472 0
M  V30 6182 O 590.996 7.76584 2.07778 0
M  V30 6183 H 590.728 0.489788 0.465922 0
M  V30 6184 H 593.282 1.85886 0.873822 0
M  V30 6185 H 591.512 1.79038 3.42757 0
M  V30 6186 H 593.201 2.20867 3.40547 0
M  V30 6187 H 593.967 4.34923 2.14633 0
M  V30 6188 H 589.846 3.48572 3.01693 0
M  V30 6189 H 593.39 6.72986 1.83671 0
M  V30 6190 H 589.287 5.85811 2.71102 0
M  V30 6191 H 590.055 7.87649 2.22601 0
M  V30 6192 N 592.718 -0.936591 1.26751 0
M  V30 6193 C 593.681 -2.01752 1.08761 0
M  V30 6194 C 594.681 -1.60763 0.0344435 0
M  V30 6195 O 595.871 -1.71963 0.278258 0
M  V30 6196 C 593.003 -3.34543 0.655271 0
M  V30 6197 H 594.196 -2.19143 2.04735 0
M  V30 6198 H 591.749 -1.11618 1.09413 0
M  V30 6199 H 592.484 -3.22851 -0.30626 0
M  V30 6200 H 592.269 -3.65647 1.41578 0
M  V30 6201 H 593.759 -4.13944 0.551378 0
M  V30 6202 N 594.196 -1.08629 -1.14182 0
M  V30 6203 C 595.106 -0.730126 -2.22949 0
M  V30 6204 C 596.122 0.26436 -1.7198 0
M  V30 6205 O 597.298 0.107742 -2.01112 0
M  V30 6206 C 594.363 -0.147227 -3.46387 0
M  V30 6207 C 593.424 -1.19662 -4.12286 0
M  V30 6208 C 592.657 -0.641437 -5.29831 0
M  V30 6209 O 592.88 0.538351 -5.67854 0
M  V30 6210 O 591.814 -1.39257 -5.85569 0
M  V30 6211 H 595.64 -1.63753 -2.55771 0
M  V30 6212 H 593.225 -0.860118 -1.22157 0
M  V30 6213 H 595.107 0.174923 -4.21037 0
M  V30 6214 H 593.782 0.733304 -3.15285 0
M  V30 6215 H 592.689 -1.57133 -3.395 0
M  V30 6216 H 594.022 -2.0495 -4.475 0
M  V30 6217 N 595.674 1.31259 -0.872281 0
M  V30 6218 C 597.09 1.49283 -0.564521 0
M  V30 6219 C 597.29 1.80243 0.900807 0
M  V30 6220 O 596.346 1.88246 1.68284 0
M  V30 6221 C 597.659 2.62503 -1.46673 0
M  V30 6222 C 599.207 2.76386 -1.46901 0
M  V30 6223 C 599.682 3.92705 -2.35684 0
M  V30 6224 N 601.173 3.99995 -2.33577 0
M  V30 6225 C 601.908 4.89276 -2.98992 0
M  V30 6226 N 601.404 5.83443 -3.73585 0
M  V30 6227 N 603.197 4.82541 -2.88289 0
M  V30 6228 H 595.348 1.09432 -1.82039 0
M  V30 6229 H 597.611 0.540949 -0.77851 0
M  V30 6230 H 597.317 2.46407 -2.50951 0
M  V30 6231 H 597.191 3.58695 -1.16696 0
M  V30 6232 H 599.578 2.91894 -0.433796 0
M  V30 6233 H 599.659 1.80853 -1.80903 0
M  V30 6234 H 599.303 3.77954 -3.39283 0
M  V30 6235 H 599.233 4.87549 -1.99006 0
M  V30 6236 H 601.724 3.32624 -1.7936 0
M  V30 6237 H 602.037 6.48303 -4.20622 0
M  V30 6238 H 600.382 5.83415 -3.77694 0
M  V30 6239 H 603.573 4.07951 -2.2955 0
M  V30 6240 H 603.746 5.51916 -3.39549 0
M  V30 6241 N 597.152 0.631951 1.44375 0
M  V30 6242 C 598.401 0.134214 2.01253 0
M  V30 6243 C 598.714 -1.25171 1.50305 0
M  V30 6244 O 599.92 -1.8435 1.99317 0
M  V30 6245 C 598.376 0.189187 3.59402 0
M  V30 6246 C 597.984 1.57647 4.19346 0
M  V30 6247 C 599.728 -0.252044 4.23751 0
M  V30 6248 C 597.635 1.58651 5.69722 0
M  V30 6249 H 596.565 0.0464101 0.75257 0
M  V30 6250 H 599.216 0.790868 1.65582 0
M  V30 6251 H 597.598 -0.534584 3.92375 0
M  V30 6252 H 598.772 2.32389 3.97909 0
M  V30 6253 H 597.087 1.96186 3.67288 0
M  V30 6254 H 599.684 -0.264084 5.34047 0
M  V30 6255 H 600.027 -1.27951 3.96149 0
M  V30 6256 H 600.56 0.41926 3.95584 0
M  V30 6257 H 597.299 2.59237 6.0206 0
M  V30 6258 H 596.819 0.882039 5.93279 0
M  V30 6259 H 598.498 1.32082 6.33375 0
M  V30 6260 N 598.631 -1.53133 0.372548 0
M  V30 6261 C 599.879 -2.00958 -0.214534 0
M  V30 6262 C 600.2 -1.26135 -1.48711 0
M  V30 6263 O 599.47 -0.376597 -1.92246 0
M  V30 6264 H 598.05 -0.742456 -0.0822664 0
M  V30 6265 H 600.712 -1.88367 0.500385 0
M  V30 6266 H 599.808 -3.09031 -0.436605 0
M  V30 6267 N 600.109 -0.101901 -1.5727 0
M  V30 6268 C 601.072 0.840129 -2.13247 0
M  V30 6269 C 602.072 1.20625 -1.06331 0
M  V30 6270 O 603.262 1.13456 -1.32186 0
M  V30 6271 C 600.394 2.13372 -2.65867 0
M  V30 6272 H 601.587 0.353945 -2.97804 0
M  V30 6273 H 599.14 0.147167 -1.55606 0
M  V30 6274 H 599.875 2.66461 -1.84849 0
M  V30 6275 H 599.66 1.88085 -3.44044 0
M  V30 6276 H 601.15 2.80748 -3.09145 0
M  V30 6277 N 601.587 1.56661 0.17182 0
M  V30 6278 C 603.003 1.50768 0.52357 0
M  V30 6279 C 603.203 0.806072 1.84675 0
M  V30 6280 O 602.259 0.366233 2.4983 0
M  V30 6281 C 603.572 2.955 0.556793 0
M  V30 6282 C 605.12 3.06303 0.644029 0
M  V30 6283 C 605.595 4.52492 0.708148 0
M  V30 6284 N 607.086 4.56737 0.771051 0
M  V30 6285 C 607.821 5.67196 0.841229 0
M  V30 6286 N 607.317 6.87287 0.872272 0
M  V30 6287 N 609.11 5.55165 0.88021 0
M  V30 6288 H 601.261 2.00679 -0.695817 0
M  V30 6289 H 603.524 0.914219 -0.250814 0
M  V30 6290 H 603.23 3.49986 -0.346774 0
M  V30 6291 H 603.104 3.50119 1.40346 0
M  V30 6292 H 605.491 2.51851 1.53802 0
M  V30 6293 H 605.572 2.5477 -0.229297 0
M  V30 6294 H 605.216 5.07575 -0.181585 0
M  V30 6295 H 605.146 5.01781 1.59761 0
M  V30 6296 H 607.637 3.70274 0.755364 0
M  V30 6297 H 607.95 7.6722 0.92698 0
M  V30 6298 H 606.295 6.89898 0.840557 0
M  V30 6299 H 609.486 4.60263 0.852956 0
M  V30 6300 H 609.659 6.41271 0.931439 0
M  V30 6301 N 603.065 -0.440357 1.51323 0
M  V30 6302 C 604.476 -1.02032 1.56353 0
M  V30 6303 C 604.827 -1.92382 0.385197 0
M  V30 6304 O 603.952 -2.10583 -0.498373 0
M  V30 6305 C 604.547 -1.85723 2.83359 0
M  V30 6306 C 603.106 -2.38774 2.90971 0
M  V30 6307 C 602.253 -1.17908 2.50984 0
M  V30 6308 H 605.204 -0.221744 1.57143 0
M  V30 6309 H 605.225 -2.71141 2.66951 0
M  V30 6310 H 604.737 -1.19939 3.69102 0
M  V30 6311 H 602.838 -3.08021 2.09651 0
M  V30 6312 H 602.951 -2.71778 3.94555 0
M  V30 6313 H 601.315 -1.52347 2.04114 0
M  V30 6314 H 602.098 -0.537393 3.39068 0
M  V30 6315 N 604.543 -1.41418 -0.695603 0
M  V30 6316 C 605.768 -1.44329 -1.48942 0
M  V30 6317 C 606.193 -0.0501579 -1.88033 0
M  V30 6318 O 605.551 0.946598 -1.54626 0
M  V30 6319 C 605.599 -2.3578 -2.72837 0
M  V30 6320 O 604.703 -1.81482 -3.70322 0
M  V30 6321 H 604.044 -0.489838 -0.44828 0
M  V30 6322 H 606.574 -1.85878 -0.855014 0
M  V30 6323 H 606.584 -2.51654 -3.21145 0
M  V30 6324 H 605.259 -3.37005 -2.43722 0
M  V30 6325 H 603.836 -1.75058 -3.29255 0
M  V30 6326 N 606.021 0.929856 -1.27246 0
M  V30 6327 C 607.298 1.65544 -1.04186 0
M  V30 6328 C 607.678 2.06796 0.424097 0
M  V30 6329 O 607.026 1.80053 1.40688 0
M  V30 6330 C 607.236 2.85912 -2.00138 0
M  V30 6331 C 608.584 3.57305 -2.29387 0
M  V30 6332 O 609.608 2.96036 -1.98094 0
M  V30 6333 O 608.467 4.67688 -2.82719 0
M  V30 6334 H 605.561 0.725473 -0.397011 0
M  V30 6335 H 608.107 0.980583 -1.38501 0
M  V30 6336 H 606.879 2.52403 -2.99013 0
M  V30 6337 H 606.502 3.61118 -1.66371 0
M  V30 6338 N 607.499 1.09233 1.13605 0
M  V30 6339 C 608.91 0.846839 1.6639 0
M  V30 6340 C 609.261 -0.625031 1.85978 0
M  V30 6341 O 608.386 -1.48173 1.57714 0
M  V30 6342 C 608.981 1.5307 3.0225 0
M  V30 6343 C 607.54 1.33223 3.52035 0
M  V30 6344 C 606.687 1.58806 2.27323 0
M  V30 6345 H 609.638 1.25175 0.975541 0
M  V30 6346 H 609.659 0.96267 3.68121 0
M  V30 6347 H 609.171 2.60192 2.87961 0
M  V30 6348 H 607.272 0.282091 3.71531 0
M  V30 6349 H 607.385 2.0657 4.32279 0
M  V30 6350 H 605.749 1.01007 2.33815 0
M  V30 6351 H 606.532 2.67153 2.15602 0
M  V30 6352 N 608.977 -1.30795 0.87923 0
M  V30 6353 C 610.393 -1.48981 0.57243 0
M  V30 6354 C 610.593 -1.80719 -0.891236 0
M  V30 6355 O 609.649 -1.89136 -1.67283 0
M  V30 6356 C 610.962 -2.61721 1.48063 0
M  V30 6357 C 612.51 -2.75603 1.48365 0
M  V30 6358 C 612.985 -3.91449 2.37763 0
M  V30 6359 N 614.476 -3.98751 2.35695 0
M  V30 6360 C 615.211 -4.87684 3.01583 0
M  V30 6361 N 614.707 -5.81454 3.76674 0
M  V30 6362 N 616.5 -4.81005 2.90844 0
M  V30 6363 H 608.651 -1.08465 1.82617 0
M  V30 6364 H 610.914 -0.536813 0.781368 0
M  V30 6365 H 610.62 -2.45073 2.52254 0
M  V30 6366 H 610.494 -3.58071 1.18596 0
M  V30 6367 H 612.881 -2.9166 0.44927 0
M  V30 6368 H 612.962 -1.79891 1.81859 0
M  V30 6369 H 612.606 -3.76149 3.41283 0
M  V30 6370 H 612.536 -4.86487 2.01589 0
M  V30 6371 H 615.027 -3.31668 1.81121 0
M  V30 6372 H 615.34 -6.46063 4.24054 0
M  V30 6373 H 613.685 -5.81403 3.80782 0
M  V30 6374 H 616.876 -4.06728 2.31711 0
M  V30 6375 H 617.049 -5.50107 3.42471 0
M  V30 6376 N 610.455 -0.639598 -1.44038 0
M  V30 6377 C 611.703 -0.147188 -2.01563 0
M  V30 6378 C 612.024 1.2384 -1.50628 0
M  V30 6379 O 611.294 1.82452 -0.713316 0
M  V30 6380 H 609.874 -0.0514231 -0.745228 0
M  V30 6381 H 612.536 -0.828205 -1.76428 0
M  V30 6382 H 611.632 -0.121358 -3.11864 0
M  V30 6383 N 611.933 1.52934 -0.380664 0
M  V30 6384 C 612.881 2.27727 0.47361 0
M  V30 6385 C 613.875 1.31288 1.0705 0
M  V30 6386 O 615.081 1.4886 1.01197 0
M  V30 6387 H 611.456 0.732189 0.171475 0
M  V30 6388 H 613.427 2.97864 -0.178785 0
M  V30 6389 C 612.176 3.0904 1.59341 0
M  V30 6390 H 611.499 3.831 1.14343 0
M  V30 6391 H 612.939 3.64527 2.16555 0
M  V30 6392 C 611.398 2.20813 2.54447 0
M  V30 6393 O 611.928 1.82907 3.57642 0
M  V30 6394 N 610.134 1.85145 2.23986 0
M  V30 6395 H 609.681 2.16169 1.40103 0
M  V30 6396 H 609.639 1.26402 2.87871 0
M  V30 6397 N 613.412 0.11024 1.57214 0
M  V30 6398 C 614.689 -0.592956 1.86396 0
M  V30 6399 C 615.069 -1.85379 1.00985 0
M  V30 6400 O 614.417 -2.28337 0.0863592 0
M  V30 6401 C 614.627 -0.893816 3.3736 0
M  V30 6402 C 615.975 -1.25069 4.05762 0
M  V30 6403 O 616.999 -0.984356 3.42329 0
M  V30 6404 O 615.858 -1.75017 5.17718 0
M  V30 6405 H 612.952 -0.29828 0.771335 0
M  V30 6406 H 615.498 0.144083 1.69087 0
M  V30 6407 H 614.27 2.6031e-05 3.913 0
M  V30 6408 H 613.893 -1.68631 3.60068 0
M  V30 6409 N 614.89 -1.56749 -0.16351 0
M  V30 6410 C 615.84 -1.93424 -1.20712 0
M  V30 6411 C 616.824 -0.803469 -1.39403 0
M  V30 6412 O 618.016 -1.06675 -1.41243 0
M  V30 6413 C 615.145 -2.30431 -2.54473 0
M  V30 6414 C 614.231 -3.5004 -2.39443 0
M  V30 6415 N 614.622 -4.67058 -1.9414 0
M  V30 6416 C 612.92 -3.548 -2.70246 0
M  V30 6417 C 613.621 -5.49184 -1.9176 0
M  V30 6418 N 612.597 -4.9044 -2.34457 0
M  V30 6419 H 616.399 -2.8138 -0.848681 0
M  V30 6420 H 613.913 -1.58089 -0.371717 0
M  V30 6421 H 615.91 -2.54903 -3.29894 0
M  V30 6422 H 614.57 -1.43818 -2.91112 0
M  V30 6423 H 615.581 -4.91128 -1.64357 0
M  V30 6424 H 612.258 -2.78685 -3.10871 0
M  V30 6425 H 613.648 -6.5297 -1.58366 0
M  V30 6426 N 616.368 0.432326 -1.51554 0
M  V30 6427 C 617.596 1.20364 -1.68286 0
M  V30 6428 C 618.011 1.84888 -0.38233 0
M  V30 6429 O 617.368 1.70924 0.639627 0
M  V30 6430 C 617.419 2.28398 -2.80208 0
M  V30 6431 O 617.14 1.66512 -4.05223 0
M  V30 6432 C 618.641 3.18584 -3.08251 0
M  V30 6433 H 615.861 0.36259 -0.564596 0
M  V30 6434 H 618.405 0.511647 -1.97996 0
M  V30 6435 H 616.56 2.93305 -2.53083 0
M  V30 6436 H 616.974 2.37951 -4.67418 0
M  V30 6437 H 618.448 3.90511 -3.90135 0
M  V30 6438 H 618.925 3.79628 -2.2086 0
M  V30 6439 H 619.531 2.59372 -3.37055 0
M  V30 6440 N 617.846 1.41785 0.688094 0
M  V30 6441 C 619.123 1.32031 1.44316 0
M  V30 6442 C 619.503 -0.0486079 2.11044 0
M  V30 6443 O 618.851 -1.06332 2.02252 0
M  V30 6444 C 619.061 2.47906 2.45649 0
M  V30 6445 C 620.409 2.89415 3.10683 0
M  V30 6446 O 621.433 2.477 2.55975 0
M  V30 6447 O 620.292 3.61573 4.09789 0
M  V30 6448 H 617.386 0.519994 0.643067 0
M  V30 6449 H 619.932 1.53765 0.71794 0
M  V30 6450 H 618.704 3.39222 1.95048 0
M  V30 6451 H 618.327 2.28089 3.25671 0
M  V30 6452 N 619.324 -0.923095 1.27737 0
M  V30 6453 C 620.571 -1.67127 1.14345 0
M  V30 6454 C 620.899 -1.92017 -0.30982 0
M  V30 6455 O 620.154 -1.51185 -1.24264 0
M  V30 6456 C 620.453 -3.04125 1.8773 0
M  V30 6457 C 620.119 -2.98929 3.37568 0
M  V30 6458 C 618.781 -2.9722 3.78436 0
M  V30 6459 C 621.133 -2.89875 4.33154 0
M  V30 6460 C 618.461 -2.84244 5.13247 0
M  V30 6461 C 620.813 -2.7844 5.68026 0
M  V30 6462 C 619.477 -2.75083 6.08182 0
M  V30 6463 H 618.747 -0.611562 0.418417 0
M  V30 6464 H 621.394 -1.07618 1.584 0
M  V30 6465 H 619.699 -3.67366 1.36196 0
M  V30 6466 H 621.396 -3.609 1.74792 0
M  V30 6467 H 617.986 -3.0105 3.05069 0
M  V30 6468 H 622.17 -2.9029 4.02548 0
M  V30 6469 H 617.426 -2.80034 5.43499 0
M  V30 6470 H 621.6 -2.70401 6.4176 0
M  V30 6471 H 619.227 -2.64786 7.12596 0
M  V30 6472 N 620.802 -1.09834 -1.13024 0
M  V30 6473 C 621.749 -0.741522 -2.18564 0
M  V30 6474 C 622.719 0.279236 -1.63736 0
M  V30 6475 O 623.904 0.159923 -1.90129 0
M  V30 6476 C 621.044 -0.17277 -3.44667 0
M  V30 6477 C 620.157 -1.24808 -4.13578 0
M  V30 6478 C 619.292 -0.641631 -5.27311 0
M  V30 6479 C 618.331 -1.69795 -5.88078 0
M  V30 6480 N 617.468 -1.11223 -6.93234 0
M  V30 6481 H 622.308 -1.64576 -2.48432 0
M  V30 6482 H 619.845 -0.822174 -1.21978 0
M  V30 6483 H 621.803 0.17482 -4.16834 0
M  V30 6484 H 620.433 0.694725 -3.15235 0
M  V30 6485 H 619.485 -1.71288 -3.39653 0
M  V30 6486 H 620.797 -2.04795 -4.54819 0
M  V30 6487 H 619.951 -0.243128 -6.06213 0
M  V30 6488 H 618.69 0.189742 -4.87331 0
M  V30 6489 H 617.695 -2.10595 -5.07868 0
M  V30 6490 H 618.92 -2.53206 -6.3013 0
M  V30 6491 H 616.866 -0.302208 -6.55304 0
M  V30 6492 H 616.783 -1.84901 -7.3304 0
M  V30 6493 H 618.051 -0.740068 -7.75979 0
M  V30 6494 N 622.28 1.30327 -0.886154 0
M  V30 6495 C 623.228 2.30052 -0.343317 0
M  V30 6496 C 624.222 1.60212 0.550305 0
M  V30 6497 O 625.428 1.74674 0.434609 0
M  V30 6498 H 621.803 0.746306 -0.0923681 0
M  V30 6499 H 623.774 2.73294 -1.19804 0
M  V30 6500 C 622.523 3.45079 0.426107 0
M  V30 6501 H 621.846 3.99003 -0.25227 0
M  V30 6502 H 623.286 4.16931 0.771009 0
M  V30 6503 C 621.745 2.95195 1.62363 0
M  V30 6504 O 622.275 2.95323 2.723 0
M  V30 6505 N 620.481 2.51192 1.4612 0
M  V30 6506 H 620.028 2.51286 0.566832 0
M  V30 6507 H 619.986 2.18173 2.2638 0
M  V30 6508 N 623.758 0.647228 1.43697 0
M  V30 6509 C 625.007 0.155552 2.01099 0
M  V30 6510 C 625.32 -1.23569 1.51624 0
M  V30 6511 O 626.526 -1.82226 2.01261 0
M  V30 6512 C 624.982 0.227296 3.59182 0
M  V30 6513 C 624.59 1.62086 4.17651 0
M  V30 6514 C 626.334 -0.207085 4.23995 0
M  V30 6515 C 624.241 1.64685 5.68008 0
M  V30 6516 H 623.171 0.0543895 0.752036 0
M  V30 6517 H 625.822 0.808386 1.64734 0
M  V30 6518 H 624.204 -0.492937 3.9292 0
M  V30 6519 H 625.378 2.36597 3.95422 0
M  V30 6520 H 623.693 2.0007 3.65186 0
M  V30 6521 H 626.29 -0.207426 5.34298 0
M  V30 6522 H 626.633 -1.23742 3.97484 0
M  V30 6523 H 627.166 0.461193 3.95118 0
M  V30 6524 H 623.905 2.65608 5.99277 0
M  V30 6525 H 623.425 0.944914 5.9231 0
M  V30 6526 H 625.104 1.38792 6.31938 0
M  V30 6527 N 625.236 -1.5273 0.388769 0
M  V30 6528 C 626.647 -1.86505 -0.0853788 0
M  V30 6529 C 626.998 -1.30847 -1.46197 0
M  V30 6530 O 626.123 -0.639609 -2.06732 0
M  V30 6531 C 626.718 -3.38414 -0.161703 0
M  V30 6532 C 625.277 -3.71902 -0.580144 0
M  V30 6533 C 624.424 -2.76095 0.258218 0
M  V30 6534 H 627.375 -1.46647 0.606665 0
M  V30 6535 H 627.396 -3.67638 -0.980936 0
M  V30 6536 H 626.908 -3.78893 0.840333 0
M  V30 6537 H 625.009 -3.36992 -1.58957 0
M  V30 6538 H 625.122 -4.77902 -0.338663 0
M  V30 6539 H 623.486 -2.53195 -0.276432 0
M  V30 6540 H 624.269 -3.19411 1.25822 0
M  V30 6541 N 626.714 -0.118576 -1.57153 0
M  V30 6542 C 627.963 0.539339 -1.94355 0
M  V30 6543 C 628.276 1.67858 -1.00415 0
M  V30 6544 O 629.482 2.39922 -1.27081 0
M  V30 6545 C 627.938 1.01082 -3.45414 0
M  V30 6546 C 627.546 -0.0999402 -4.47889 0
M  V30 6547 C 629.29 1.64013 -3.91535 0
M  V30 6548 C 627.197 0.388212 -5.90124 0
M  V30 6549 H 626.127 0.205247 -0.725527 0
M  V30 6550 H 628.778 -0.19836 -1.82425 0
M  V30 6551 H 627.16 1.80292 -3.52577 0
M  V30 6552 H 628.334 -0.876189 -4.52393 0
M  V30 6553 H 626.649 -0.635885 -4.11516 0
M  V30 6554 H 629.246 2.01649 -4.95219 0
M  V30 6555 H 629.589 2.51836 -3.31488 0
M  V30 6556 H 630.122 0.913439 -3.87171 0
M  V30 6557 H 626.861 -0.453963 -6.53926 0
M  V30 6558 H 626.381 1.13095 -5.89041 0
M  V30 6559 H 628.06 0.849574 -6.41398 0
M  V30 6560 N 628.193 1.56834 0.155195 0
M  V30 6561 C 629.441 1.82536 0.867462 0
M  V30 6562 C 629.762 0.698168 1.82073 0
M  V30 6563 O 629.032 -0.280807 1.93877 0
M  V30 6564 H 627.612 0.673401 0.323327 0
M  V30 6565 H 630.274 1.94313 0.151156 0
M  V30 6566 H 629.37 2.77171 1.43466 0
M  V30 6567 N 629.671 -0.424282 1.51781 0
M  V30 6568 C 630.918 -1.1726 1.65095 0
M  V30 6569 C 631.246 -1.90881 0.373477 0
M  V30 6570 O 630.501 -1.84835 -0.642997 0
M  V30 6571 C 630.8 -2.20418 2.81337 0
M  V30 6572 C 630.466 -1.63715 4.20129 0
M  V30 6573 C 629.128 -1.47975 4.57883 0
M  V30 6574 C 631.48 -1.22157 5.06682 0
M  V30 6575 C 628.808 -0.891703 5.79884 0
M  V30 6576 C 631.16 -0.647767 6.29275 0
M  V30 6577 C 629.824 -0.477371 6.65791 0
M  V30 6578 H 629.094 -0.429085 0.604125 0
M  V30 6579 H 631.741 -0.461852 1.85847 0
M  V30 6580 H 630.046 -2.97581 2.54859 0
M  V30 6581 H 631.743 -2.78163 2.88836 0
M  V30 6582 H 628.333 -1.76946 3.90369 0
M  V30 6583 H 632.517 -1.33133 4.7811 0
M  V30 6584 H 627.773 -0.747563 6.06813 0
M  V30 6585 H 631.947 -0.317291 6.95677 0
M  V30 6586 H 629.574 -0.0195936 7.60197 0
M  V30 6587 N 631.149 -1.42148 -0.680565 0
M  V30 6588 C 632.395 -1.4352 -1.44131 0
M  V30 6589 C 632.75 -0.0486244 -1.92339 0
M  V30 6590 O 632.043 0.92819 -1.67616 0
M  V30 6591 C 632.237 -2.38945 -2.65782 0
M  V30 6592 C 632.066 -3.86743 -2.29477 0
M  V30 6593 C 630.836 -4.5532 -2.19115 0
M  V30 6594 C 633.034 -4.77321 -1.91491 0
M  V30 6595 N 631.016 -5.88174 -1.75853 0
M  V30 6596 C 632.387 -5.99238 -1.59103 0
M  V30 6597 C 634.442 -4.64829 -1.78432 0
M  V30 6598 C 633.145 -7.10053 -1.14968 0
M  V30 6599 C 635.171 -5.75621 -1.35702 0
M  V30 6600 C 634.533 -6.96645 -1.04234 0
M  V30 6601 H 630.632 -0.580363 -0.524121 0
M  V30 6602 H 633.216 -1.78132 -0.785939 0
M  V30 6603 H 631.387 -2.06403 -3.29017 0
M  V30 6604 H 633.119 -2.30935 -3.32342 0
M  V30 6605 H 629.874 -4.09456 -2.37998 0
M  V30 6606 H 630.298 -6.58625 -1.56661 0
M  V30 6607 H 634.94 -3.71745 -2.01409 0
M  V30 6608 H 632.658 -8.0299 -0.907365 0
M  V30 6609 H 636.244 -5.67964 -1.26126 0
M  V30 6610 H 635.124 -7.80918 -0.716707 0
M  V30 6611 N 632.627 0.916307 -1.28225 0
M  V30 6612 C 633.873 1.66794 -1.1641 0
M  V30 6613 C 634.228 1.90278 0.284986 0
M  V30 6614 O 633.521 1.49023 1.20427 0
M  V30 6615 C 633.715 3.03125 -1.8934 0
M  V30 6616 C 633.544 2.92947 -3.41192 0
M  V30 6617 C 632.314 2.9461 -4.10528 0
M  V30 6618 C 634.512 2.7121 -4.36978 0
M  V30 6619 N 632.494 2.74993 -5.48864 0
M  V30 6620 C 633.865 2.60411 -5.6266 0
M  V30 6621 C 635.92 2.56187 -4.26934 0
M  V30 6622 C 634.623 2.3612 -6.79441 0
M  V30 6623 C 636.649 2.33275 -5.43449 0
M  V30 6624 C 636.011 2.23228 -6.68093 0
M  V30 6625 H 632.11 0.616654 -0.480896 0
M  V30 6626 H 634.694 1.08237 -1.61842 0
M  V30 6627 H 632.865 3.59774 -1.46346 0
M  V30 6628 H 634.597 3.67294 -1.69932 0
M  V30 6629 H 631.352 3.0527 -3.62087 0
M  V30 6630 H 631.776 2.68284 -6.21573 0
M  V30 6631 H 636.418 2.62707 -3.31278 0
M  V30 6632 H 634.136 2.28339 -7.75169 0
M  V30 6633 H 637.722 2.22519 -5.37565 0
M  V30 6634 H 636.602 2.05741 -7.5673 0
M  V30 6635 N 634.105 1.10431 1.1244 0
M  V30 6636 C 635.068 0.756542 2.16354 0
M  V30 6637 C 636.068 -0.21899 1.59302 0
M  V30 6638 O 637.258 0.00415969 1.742 0
M  V30 6639 C 634.39 0.120612 3.40687 0
M  V30 6640 H 635.583 1.67696 2.48632 0
M  V30 6641 H 633.136 0.904832 1.27446 0
M  V30 6642 H 633.871 -0.810536 3.14008 0
M  V30 6643 H 633.656 0.822693 3.83372 0
M  V30 6644 H 635.146 -0.106945 4.17463 0
M  V30 6645 N 635.583 -1.29855 0.893053 0
M  V30 6646 C 636.829 -1.96116 0.516349 0
M  V30 6647 C 637.162 -1.70281 -0.933695 0
M  V30 6648 O 636.437 -1.01205 -1.66096 0
M  V30 6649 C 636.72 -3.51068 0.801455 0
M  V30 6650 C 636.573 -3.86387 2.30272 0
M  V30 6651 C 637.892 -4.39186 0.283423 0
M  V30 6652 H 635.011 -0.712335 0.189072 0
M  V30 6653 H 637.653 -1.53587 1.11852 0
M  V30 6654 H 635.803 -3.87424 0.288949 0
M  V30 6655 H 637.475 -3.60012 2.88425 0
M  V30 6656 H 635.718 -3.34167 2.76613 0
M  V30 6657 H 636.389 -4.94512 2.45279 0
M  V30 6658 H 638.865 -4.09785 0.722187 0
M  V30 6659 H 637.741 -5.46505 0.512169 0
M  V30 6660 H 638.002 -4.34511 -0.815643 0
M  V30 6661 N 637.061 -0.65484 -1.43351 0
M  V30 6662 C 638.307 -0.169142 -2.02093 0
M  V30 6663 C 638.64 1.21431 -1.51553 0
M  V30 6664 O 637.915 1.81105 -0.709317 0
M  V30 6665 C 638.198 -0.181775 -3.59641 0
M  V30 6666 C 638.051 -1.59926 -4.20409 0
M  V30 6667 C 639.37 0.480945 -4.37464 0
M  V30 6668 H 636.489 -0.0629371 -0.734308 0
M  V30 6669 H 639.131 -0.835833 -1.70628 0
M  V30 6670 H 637.281 0.385918 -3.86578 0
M  V30 6671 H 638.953 -2.21766 -4.04497 0
M  V30 6672 H 637.196 -2.14605 -3.76998 0
M  V30 6673 H 637.867 -1.55994 -5.295 0
M  V30 6674 H 640.343 -0.00208273 -4.161 0
M  V30 6675 H 639.219 0.441384 -5.47122 0
M  V30 6676 H 639.48 1.55533 -4.13838 0
M  V30 6677 N 638.539 1.52521 -0.396863 0
M  V30 6678 C 639.767 2.06091 0.18275 0
M  V30 6679 C 640.182 1.26796 1.39886 0
M  V30 6680 O 639.539 0.316585 1.79733 0
M  V30 6681 C 639.59 3.57362 0.545377 0
M  V30 6682 O 639.311 4.33656 -0.622428 0
M  V30 6683 C 640.812 4.27305 1.18004 0
M  V30 6684 H 638.032 0.670504 0.025789 0
M  V30 6685 H 640.576 1.96561 -0.564276 0
M  V30 6686 H 638.731 3.66941 1.2423 0
M  V30 6687 H 639.145 5.23507 -0.322662 0
M  V30 6688 H 640.619 5.34366 1.38408 0
M  V30 6689 H 641.096 3.83 2.1496 0
M  V30 6690 H 641.702 4.22064 0.523671 0
M  V30 6691 N 640.017 0.126909 1.57088 0
M  V30 6692 C 640.95 -0.857844 2.11462 0
M  V30 6693 C 641.928 -1.25569 1.03301 0
M  V30 6694 O 643.112 -1.35535 1.31006 0
M  V30 6695 C 640.239 -2.14912 2.61784 0
M  V30 6696 C 639.285 -1.89874 3.81903 0
M  V30 6697 S 640.118 -1.10785 5.23915 0
M  V30 6698 C 641.274 -2.41075 5.7761 0
M  V30 6699 H 641.507 -0.395384 2.94659 0
M  V30 6700 H 639.04 -0.0870151 1.54155 0
M  V30 6701 H 640.998 -2.89101 2.91429 0
M  V30 6702 H 639.659 -2.58275 1.78754 0
M  V30 6703 H 638.852 -2.85572 4.15289 0
M  V30 6704 H 638.454 -1.23802 3.52915 0
M  V30 6705 H 640.746 -3.36864 5.87817 0
M  V30 6706 H 641.689 -2.12223 6.75549 0
M  V30 6707 H 642.097 -2.50804 5.05725 0
M  V30 6708 N 641.495 -1.56914 -0.146875 0
M  V30 6709 C 642.723 -1.87515 -0.874394 0
M  V30 6710 C 643.138 -0.715116 -1.74733 0
M  V30 6711 O 642.495 0.315113 -1.79759 0
M  V30 6712 C 642.546 -3.17362 -1.731 0
M  V30 6713 O 642.267 -4.28897 -0.893245 0
M  V30 6714 C 643.768 -3.61479 -2.56609 0
M  V30 6715 H 640.988 -0.621546 -0.252827 0
M  V30 6716 H 643.532 -2.04023 -0.139627 0
M  V30 6717 H 641.687 -3.02608 -2.41883 0
M  V30 6718 H 642.101 -5.03146 -1.48137 0
M  V30 6719 H 643.575 -4.5517 -3.12289 0
M  V30 6720 H 644.052 -2.86773 -3.32653 0
M  V30 6721 H 644.658 -3.78927 -1.93117 0
M  V30 6722 N 642.974 0.416227 -1.52004 0
M  V30 6723 C 644.202 1.18573 -1.69553 0
M  V30 6724 C 644.617 1.84472 -0.401919 0
M  V30 6725 O 643.974 1.71593 0.621463 0
M  V30 6726 C 644.025 2.25413 -2.82615 0
M  V30 6727 O 643.746 1.62205 -4.06966 0
M  V30 6728 C 645.247 3.15297 -3.11613 0
M  V30 6729 H 642.467 0.356582 -0.56841 0
M  V30 6730 H 645.011 0.490618 -1.98528 0
M  V30 6731 H 643.166 2.90604 -2.56179 0
M  V30 6732 H 643.58 2.3298 -4.69916 0
M  V30 6733 H 645.054 3.86351 -3.94255 0
M  V30 6734 H 645.531 3.77264 -2.24874 0
M  V30 6735 H 646.137 2.55783 -3.39787 0
M  V30 6736 N 644.452 1.42507 0.673017 0
M  V30 6737 C 645.382 1.48916 1.79851 0
M  V30 6738 C 646.363 0.345566 1.66553 0
M  V30 6739 O 647.548 0.560116 1.85947 0
M  V30 6740 C 644.678 1.39258 3.18158 0
M  V30 6741 C 643.632 2.51662 3.46194 0
M  V30 6742 C 642.958 2.27062 4.84094 0
M  V30 6743 C 644.258 3.93968 3.42909 0
M  V30 6744 H 645.952 2.43114 1.74745 0
M  V30 6745 H 643.498 1.17013 0.839288 0
M  V30 6746 H 645.451 1.42349 3.96629 0
M  V30 6747 H 644.175 0.415542 3.23946 0
M  V30 6748 H 642.834 2.47891 2.70084 0
M  V30 6749 H 642.482 1.27648 4.86534 0
M  V30 6750 H 642.182 3.02398 5.03815 0
M  V30 6751 H 643.706 2.31905 5.64847 0
M  V30 6752 H 645.12 3.99332 4.11347 0
M  V30 6753 H 643.517 4.6917 3.74165 0
M  V30 6754 H 644.587 4.20512 2.41449 0
M  V30 6755 N 645.93 -0.909495 1.28709 0
M  V30 6756 C 647.178 -1.65577 1.15882 0
M  V30 6757 C 647.499 -1.928 -0.292108 0
M  V30 6758 O 646.769 -1.54716 -1.20166 0
M  V30 6759 H 645.349 -0.613714 0.425869 0
M  V30 6760 H 648.011 -1.09108 1.61498 0
M  V30 6761 H 647.107 -2.61634 1.70159 0
M  V30 6762 N 647.408 -1.11026 -1.11852 0
M  V30 6763 C 648.638 -0.877544 -1.87037 0
M  V30 6764 C 649.046 0.575925 -1.80221 0
M  V30 6765 O 648.389 1.40916 -1.17849 0
M  V30 6766 C 648.451 -1.25529 -3.36872 0
M  V30 6767 C 648.115 -2.71704 -3.67459 0
M  V30 6768 C 649.112 -3.69931 -3.65304 0
M  V30 6769 C 646.797 -3.08243 -3.966 0
M  V30 6770 C 648.791 -5.02717 -3.9186 0
M  V30 6771 C 646.478 -4.41215 -4.22815 0
M  V30 6772 C 647.476 -5.38262 -4.20432 0
M  V30 6773 O 647.164 -6.68839 -4.45992 0
M  V30 6774 H 646.896 -0.314374 -0.598452 0
M  V30 6775 H 649.45 -1.48015 -1.42411 0
M  V30 6776 H 647.68 -0.595808 -3.82082 0
M  V30 6777 H 649.369 -0.999064 -3.93413 0
M  V30 6778 H 650.135 -3.43047 -3.42846 0
M  V30 6779 H 646.014 -2.33326 -3.97593 0
M  V30 6780 H 649.558 -5.78456 -3.89916 0
M  V30 6781 H 645.455 -4.67835 -4.44748 0
M  V30 6782 H 646.223 -6.74563 -4.63581 0
M  V30 6783 N 648.886 1.2938 -0.899927 0
M  V30 6784 C 650.134 1.95164 -0.524924 0
M  V30 6785 C 650.455 1.71292 0.931888 0
M  V30 6786 O 649.725 1.04481 1.65712 0
M  V30 6787 H 648.305 0.722133 -0.191135 0
M  V30 6788 H 650.967 1.57628 -1.14627 0
M  V30 6789 H 650.063 3.0397 -0.707711 0
M  V30 6790 N 650.364 0.662433 1.43002 0
M  V30 6791 C 651.641 0.109096 1.95296 0
M  V30 6792 C 652.021 -1.37313 1.60338 0
M  V30 6793 O 651.369 -2.1032 0.893187 0
M  V30 6794 C 651.579 0.365096 3.47085 0
M  V30 6795 C 652.927 0.274964 4.23709 0
M  V30 6796 O 653.951 0.29816 3.5495 0
M  V30 6797 O 652.81 0.206549 5.4611 0
M  V30 6798 H 649.904 -0.00429724 0.826989 0
M  V30 6799 H 652.45 0.736308 1.52894 0
M  V30 6800 H 651.222 1.39237 3.65689 0
M  V30 6801 H 650.845 -0.294733 3.96506 0
M  V30 6802 N 651.842 -1.52309 0.404946 0
M  V30 6803 C 652.775 -2.23369 -0.467087 0
M  V30 6804 C 653.753 -1.24034 -1.0514 0
M  V30 6805 O 654.937 -1.53071 -1.10006 0
M  V30 6806 C 652.064 -2.95906 -1.64795 0
M  V30 6807 C 651.11 -4.09637 -1.18743 0
M  V30 6808 S 651.943 -5.35273 -0.156022 0
M  V30 6809 C 653.099 -6.11337 -1.34231 0
M  V30 6810 H 653.332 -2.96987 0.136294 0
M  V30 6811 H 650.865 -1.53236 0.189219 0
M  V30 6812 H 652.823 -3.38304 -2.3251 0
M  V30 6813 H 651.484 -2.21937 -2.22267 0
M  V30 6814 H 650.677 -4.59549 -2.06955 0
M  V30 6815 H 650.279 -3.69333 -0.588981 0
M  V30 6816 H 652.571 -6.38458 -2.26665 0
M  V30 6817 H 653.514 -7.02563 -0.883804 0
M  V30 6818 H 653.922 -5.42338 -1.56621 0
M  V30 6819 N 653.32 -0.135238 -1.57019 0
M  V30 6820 C 654.55 0.525303 -1.9981 0
M  V30 6821 C 654.958 1.59724 -1.01415 0
M  V30 6822 O 654.301 1.837 -0.00130938 0
M  V30 6823 C 654.363 1.19578 -3.3903 0
M  V30 6824 C 654.027 0.269855 -4.56203 0
M  V30 6825 C 655.024 -0.497905 -5.1751 0
M  V30 6826 C 652.709 0.176188 -5.01991 0
M  V30 6827 C 654.703 -1.3469 -6.23007 0
M  V30 6828 C 652.39 -0.676422 -6.07345 0
M  V30 6829 C 653.388 -1.43658 -6.67721 0
M  V30 6830 O 653.076 -2.27501 -7.71037 0
M  V30 6831 H 652.808 0.142296 -0.660854 0
M  V30 6832 H 655.362 -0.223272 -2.04183 0
M  V30 6833 H 653.592 1.99176 -3.3146 0
M  V30 6834 H 655.281 1.75486 -3.66005 0
M  V30 6835 H 656.047 -0.435507 -4.83041 0
M  V30 6836 H 651.926 0.757583 -4.54733 0
M  V30 6837 H 655.47 -1.9407 -6.70062 0
M  V30 6838 H 651.367 -0.740154 -6.41243 0
M  V30 6839 H 652.135 -2.20619 -7.88206 0
M  V30 6840 N 654.798 1.5699 0.138552 0
M  V30 6841 C 656.209 1.73171 0.697754 0
M  V30 6842 C 656.56 0.750952 1.8126 0
M  V30 6843 O 655.685 -0.080549 2.1625 0
M  V30 6844 C 656.28 3.13996 1.27248 0
M  V30 6845 C 654.839 3.3175 1.77816 0
M  V30 6846 C 653.986 2.69084 0.669991 0
M  V30 6847 H 656.937 1.5846 -0.0871979 0
M  V30 6848 H 656.958 3.14463 2.14227 0
M  V30 6849 H 656.47 3.85354 0.460855 0
M  V30 6850 H 654.571 2.65403 2.61519 0
M  V30 6851 H 654.684 4.39768 1.90107 0
M  V30 6852 H 653.048 2.29782 1.09874 0
M  V30 6853 H 653.831 3.43053 -0.130329 0
M  V30 6854 N 656.276 -0.40816 1.52223 0
M  V30 6855 C 657.223 -1.49737 1.75635 0
M  V30 6856 C 658.193 -1.5493 0.598824 0
M  V30 6857 O 659.378 -1.71487 0.83648 0
M  V30 6858 C 656.518 -2.87174 1.91376 0
M  V30 6859 C 655.631 -2.91283 3.19027 0
M  V30 6860 C 654.766 -4.20026 3.25195 0
M  V30 6861 C 653.805 -4.18113 4.47044 0
M  V30 6862 N 652.942 -5.38429 4.50598 0
M  V30 6863 H 657.782 -1.29075 2.68596 0
M  V30 6864 H 655.319 -0.626518 1.33091 0
M  V30 6865 H 657.277 -3.66959 1.98486 0
M  V30 6866 H 655.907 -3.06329 1.01795 0
M  V30 6867 H 654.959 -2.03984 3.21084 0
M  V30 6868 H 656.271 -2.85734 4.08849 0
M  V30 6869 H 655.425 -5.08204 3.31382 0
M  V30 6870 H 654.164 -4.28271 2.33313 0
M  V30 6871 H 653.169 -3.28325 4.41002 0
M  V30 6872 H 654.394 -4.11507 5.40221 0
M  V30 6873 H 652.34 -5.4734 3.616 0
M  V30 6874 H 652.257 -5.34879 5.34266 0
M  V30 6875 H 653.525 -6.28557 4.61016 0
M  V30 6876 N 657.755 -1.42862 -0.66545 0
M  V30 6877 C 658.983 -1.47246 -1.45349 0
M  V30 6878 C 659.398 -0.0865944 -1.88601 0
M  V30 6879 O 658.755 0.900652 -1.58728 0
M  V30 6880 C 658.806 -2.40772 -2.6965 0
M  V30 6881 O 658.527 -3.73968 -2.2821 0
M  V30 6882 C 660.028 -2.54272 -3.63126 0
M  V30 6883 H 657.248 -0.500497 -0.446927 0
M  V30 6884 H 659.792 -1.87477 -0.816871 0
M  V30 6885 H 657.947 -2.0377 -3.29479 0
M  V30 6886 H 658.361 -4.24146 -3.08546 0
M  V30 6887 H 659.835 -3.23815 -4.47043 0
M  V30 6888 H 660.312 -1.58364 -4.09656 0
M  V30 6889 H 660.918 -2.92036 -3.09185 0
M  V30 6890 N 659.233 0.902656 -1.29189 0
M  V30 6891 C 660.479 1.6555 -1.18172 0
M  V30 6892 C 660.834 1.90569 0.264788 0
M  V30 6893 O 660.127 1.50292 1.1884 0
M  V30 6894 C 660.321 3.011 -1.92545 0
M  V30 6895 C 660.15 2.89312 -3.4428 0
M  V30 6896 C 658.92 2.90239 -4.1363 0
M  V30 6897 C 661.118 2.6656 -4.3983 0
M  V30 6898 N 659.1 2.69156 -5.5175 0
M  V30 6899 C 660.471 2.54429 -5.6539 0
M  V30 6900 C 662.526 2.51644 -4.29627 0
M  V30 6901 C 661.229 2.289 -6.81907 0
M  V30 6902 C 663.255 2.27498 -5.45892 0
M  V30 6903 C 662.617 2.16129 -6.70423 0
M  V30 6904 H 658.716 0.611519 -0.48741 0
M  V30 6905 H 661.3 1.06514 -1.62981 0
M  V30 6906 H 659.471 3.58202 -1.50154 0
M  V30 6907 H 661.203 3.65471 -1.73818 0
M  V30 6908 H 657.958 3.01412 -3.65305 0
M  V30 6909 H 658.382 2.61676 -6.24383 0
M  V30 6910 H 663.024 2.59178 -3.34045 0
M  V30 6911 H 660.742 2.20104 -7.77547 0
M  V30 6912 H 664.328 2.16805 -5.39895 0
M  V30 6913 H 663.208 1.97703 -7.5887 0
M  V30 6914 N 660.711 1.11618 1.11262 0
M  V30 6915 C 661.936 0.889013 1.8738 0
M  V30 6916 C 662.361 -0.555884 1.79698 0
M  V30 6917 O 661.719 -1.39272 1.16073 0
M  V30 6918 C 661.767 1.35759 3.34069 0
M  V30 6919 O 660.871 0.530499 4.08974 0
M  V30 6920 H 660.212 0.320082 0.581759 0
M  V30 6921 H 662.742 1.48611 1.40627 0
M  V30 6922 H 662.752 1.35291 3.84916 0
M  V30 6923 H 661.427 2.40973 3.38976 0
M  V30 6924 H 660.004 0.601439 3.68018 0
M  V30 6925 N 662.189 -1.289 0.906776 0
M  V30 6926 C 663.437 -1.94883 0.535266 0
M  V30 6927 C 663.758 -1.71784 -0.922791 0
M  V30 6928 O 663.028 -1.05359 -1.65156 0
M  V30 6929 H 661.608 -0.721109 0.194962 0
M  V30 6930 H 664.27 -1.57018 1.15461 0
M  V30 6931 H 663.366 -3.03591 0.723821 0
M  V30 6932 N 663.667 -0.670007 -1.42649 0
M  V30 6933 C 664.6 0.0613623 -2.28117 0
M  V30 6934 C 665.578 0.813414 -1.40792 0
M  V30 6935 O 666.762 0.809529 -1.70232 0
M  V30 6936 C 663.889 1.09399 -3.20546 0
M  V30 6937 C 662.935 0.438064 -4.24244 0
M  V30 6938 S 663.768 -0.800808 -5.29478 0
M  V30 6939 C 664.924 0.23086 -6.25474 0
M  V30 6940 H 665.157 -0.663606 -2.89799 0
M  V30 6941 H 662.69 -0.45939 -1.47407 0
M  V30 6942 H 664.648 1.68469 -3.74337 0
M  V30 6943 H 663.309 1.79137 -2.58009 0
M  V30 6944 H 662.502 1.21707 -4.89084 0
M  V30 6945 H 662.104 -0.0789346 -3.73917 0
M  V30 6946 H 664.396 1.09204 -6.68641 0
M  V30 6947 H 665.339 -0.382945 -7.07064 0
M  V30 6948 H 665.747 0.574191 -5.61572 0
M  V30 6949 N 665.145 1.52092 -0.413018 0
M  V30 6950 C 666.075 2.30021 0.401567 0
M  V30 6951 C 667.056 1.34395 1.04269 0
M  V30 6952 O 668.241 1.63304 1.05097 0
M  V30 6953 C 665.371 3.12447 1.51638 0
M  V30 6954 C 664.325 4.16153 1.00005 0
M  V30 6955 C 663.651 4.86948 2.20875 0
M  V30 6956 C 664.951 5.22275 0.0513757 0
M  V30 6957 H 666.645 2.98365 -0.248704 0
M  V30 6958 H 664.191 1.4349 -0.121052 0
M  V30 6959 H 666.144 3.65733 2.09326 0
M  V30 6960 H 664.868 2.41879 2.19458 0
M  V30 6961 H 663.527 3.63882 0.445549 0
M  V30 6962 H 663.175 4.12905 2.8726 0
M  V30 6963 H 662.875 5.57057 1.86978 0
M  V30 6964 H 664.399 5.43048 2.79162 0
M  V30 6965 H 665.813 5.70778 0.537176 0
M  V30 6966 H 664.21 5.9977 -0.198977 0
M  V30 6967 H 665.28 4.76611 -0.892736 0
M  V30 6968 N 666.623 0.143563 1.56945 0
M  V30 6969 C 667.869 -0.50916 1.96304 0
M  V30 6970 C 668.202 -1.64741 1.0283 0
M  V30 6971 O 667.477 -1.94374 0.0700361 0
M  V30 6972 C 667.76 -1.0186 3.45393 0
M  V30 6973 C 667.613 0.117923 4.49645 0
M  V30 6974 C 668.932 -1.90151 3.96901 0
M  V30 6975 H 666.051 -0.183608 0.713763 0
M  V30 6976 H 668.693 0.224095 1.88674 0
M  V30 6977 H 666.843 -1.64345 3.52027 0
M  V30 6978 H 668.515 0.754145 4.55094 0
M  V30 6979 H 666.758 0.777568 4.26774 0
M  V30 6980 H 667.429 -0.280187 5.51288 0
M  V30 6981 H 669.905 -1.375 3.92725 0
M  V30 6982 H 668.781 -2.22707 5.0169 0
M  V30 6983 H 669.042 -2.83718 3.39052 0
M  V30 6984 N 668.101 -1.57061 -0.130224 0
M  V30 6985 C 669.349 -1.83893 -0.838313 0
M  V30 6986 C 669.67 -0.727046 -1.80939 0
M  V30 6987 O 668.94 0.249927 -1.94299 0
M  V30 6988 H 667.52 -0.67846 -0.312573 0
M  V30 6989 H 670.182 -1.94529 -0.120224 0
M  V30 6990 H 669.278 -2.79419 -1.39038 0
M  V30 6991 N 669.579 0.400081 -1.52437 0
M  V30 6992 C 670.542 1.4707 -1.75793 0
M  V30 6993 C 671.542 1.48036 -0.627856 0
M  V30 6994 O 672.732 1.49401 -0.895817 0
M  V30 6995 C 669.864 2.86427 -1.84858 0
M  V30 6996 H 671.057 1.27649 -2.71377 0
M  V30 6997 H 668.61 0.631141 -1.42991 0
M  V30 6998 H 669.345 3.11207 -0.912194 0
M  V30 6999 H 669.13 2.87128 -2.6702 0
M  V30 7000 H 670.62 3.64023 -2.04638 0
M  V30 7001 N 671.057 1.43213 0.657864 0
M  V30 7002 C 671.987 1.50815 1.78262 0
M  V30 7003 C 672.968 0.363211 1.66177 0
M  V30 7004 O 674.153 0.579806 1.85343 0
M  V30 7005 C 671.283 1.42625 3.16663 0
M  V30 7006 C 670.237 2.5532 3.43505 0
M  V30 7007 C 669.563 2.32184 4.81658 0
M  V30 7008 C 670.863 3.97583 3.38711 0
M  V30 7009 H 672.557 2.44954 1.72157 0
M  V30 7010 H 670.103 1.17896 0.82683 0
M  V30 7011 H 672.056 1.46548 3.95097 0
M  V30 7012 H 670.78 0.449877 3.23487 0
M  V30 7013 H 669.439 2.50742 2.6744 0
M  V30 7014 H 669.087 1.32801 4.85153 0
M  V30 7015 H 668.787 3.07724 5.00579 0
M  V30 7016 H 670.311 2.37883 5.62356 0
M  V30 7017 H 671.725 4.03673 4.07089 0
M  V30 7018 H 670.122 4.73112 3.69168 0
M  V30 7019 H 671.192 4.23049 2.36976 0
M  V30 7020 N 672.536 -0.895792 1.29666 0
M  V30 7021 C 673.776 -1.6609 1.19136 0
M  V30 7022 C 674.14 -1.90336 -0.252245 0
M  V30 7023 O 675.341 -2.64469 -0.480593 0
M  V30 7024 C 673.612 -2.97129 1.98618 0
M  V30 7025 S 675.171 -3.88146 2.04666 0
M  V30 7026 H 671.989 -0.570188 0.424744 0
M  V30 7027 H 674.591 -1.06411 1.64003 0
M  V30 7028 H 673.295 -2.77199 3.02637 0
M  V30 7029 H 672.826 -3.61847 1.54371 0
M  V30 7030 H 674.841 -4.82301 1.16618 0
M  V30 7031 N 674.014 -1.12206 -1.10668 0
M  V30 7032 C 674.977 -0.790867 -2.15123 0
M  V30 7033 C 675.977 0.193618 -1.5963 0
M  V30 7034 O 677.167 -0.0318728 -1.74171 0
M  V30 7035 C 674.299 -0.174797 -3.40452 0
M  V30 7036 H 675.492 -1.7163 -2.45933 0
M  V30 7037 H 673.045 -0.924993 -1.2599 0
M  V30 7038 H 673.78 0.760478 -3.15257 0
M  V30 7039 H 673.565 -0.88358 -3.82015 0
M  V30 7040 H 675.055 0.0405162 -4.1758 0
M  V30 7041 N 675.492 1.28418 -0.913599 0
M  V30 7042 C 676.422 2.29713 -0.418847 0
M  V30 7043 C 677.403 1.62165 0.513469 0
M  V30 7044 O 678.588 1.89576 0.421235 0
M  V30 7045 C 675.718 3.45612 0.342042 0
M  V30 7046 C 674.672 4.25056 -0.501123 0
M  V30 7047 C 673.998 5.3329 0.388097 0
M  V30 7048 C 675.298 4.91814 -1.75831 0
M  V30 7049 H 676.992 2.71346 -1.26538 0
M  V30 7050 H 674.538 1.30446 -0.609903 0
M  V30 7051 H 676.491 4.15562 0.699 0
M  V30 7052 H 675.215 3.02858 1.22248 0
M  V30 7053 H 673.874 3.56833 -0.840598 0
M  V30 7054 H 673.522 4.8678 1.26707 0
M  V30 7055 H 673.222 5.87347 -0.172459 0
M  V30 7056 H 674.746 6.06088 0.74094 0
M  V30 7057 H 676.16 5.54126 -1.47026 0
M  V30 7058 H 674.557 5.55866 -2.26126 0
M  V30 7059 H 675.627 4.16313 -2.4862 0
M  V30 7060 N 676.97 0.677563 1.42291 0
M  V30 7061 C 677.933 0.0101085 2.29198 0
M  V30 7062 C 678.933 -0.726219 1.43467 0
M  V30 7063 O 680.123 -0.563807 1.64824 0
M  V30 7064 C 677.255 -0.996316 3.26016 0
M  V30 7065 H 678.448 0.775071 2.89711 0
M  V30 7066 H 676.001 0.440065 1.49977 0
M  V30 7067 H 676.736 -1.78967 2.70446 0
M  V30 7068 H 676.521 -0.471687 3.89253 0
M  V30 7069 H 678.011 -1.46167 3.91184 0
M  V30 7070 N 678.448 -1.51871 0.421078 0
M  V30 7071 C 679.696 -2.01539 -0.150492 0
M  V30 7072 C 680.017 -1.30803 -1.44623 0
M  V30 7073 O 679.287 -0.437568 -1.90951 0
M  V30 7074 H 677.867 -0.744698 -0.0586041 0
M  V30 7075 H 680.529 -1.8668 0.560059 0
M  V30 7076 H 679.625 -3.10264 -0.338068 0
M  V30 7077 N 679.926 -0.151884 -1.56866 0
M  V30 7078 C 681.172 0.498742 -1.96572 0
M  V30 7079 C 681.505 1.64194 -1.03702 0
M  V30 7080 O 680.78 1.94334 -0.0803432 0
M  V30 7081 C 681.063 1.00027 -3.45929 0
M  V30 7082 C 680.916 -0.141767 -4.49577 0
M  V30 7083 C 682.235 1.88044 -3.97904 0
M  V30 7084 H 679.354 0.17982 -0.714726 0
M  V30 7085 H 681.996 -0.234097 -1.88552 0
M  V30 7086 H 680.146 1.62476 -3.52894 0
M  V30 7087 H 681.818 -0.778269 -4.54687 0
M  V30 7088 H 680.061 -0.80019 -4.26356 0
M  V30 7089 H 680.732 0.250947 -5.51429 0
M  V30 7090 H 683.208 1.35416 -3.93449 0
M  V30 7091 H 682.084 2.20043 -5.02864 0
M  V30 7092 H 682.345 2.81916 -3.40552 0
M  V30 7093 N 681.404 1.57128 0.121893 0
M  V30 7094 C 682.334 2.03165 1.15092 0
M  V30 7095 C 683.315 0.915587 1.43356 0
M  V30 7096 O 684.5 1.1851 1.53847 0
M  V30 7097 C 681.63 2.43352 2.47784 0
M  V30 7098 C 680.584 3.58376 2.33989 0
M  V30 7099 C 679.91 3.84454 3.71617 0
M  V30 7100 C 681.21 4.90199 1.80283 0
M  V30 7101 H 682.904 2.89382 0.768023 0
M  V30 7102 H 680.45 1.39218 0.367998 0
M  V30 7103 H 682.403 2.74163 3.20019 0
M  V30 7104 H 681.127 1.54103 2.87958 0
M  V30 7105 H 679.786 3.2777 1.64202 0
M  V30 7106 H 679.434 2.92414 4.09271 0
M  V30 7107 H 679.134 4.61877 3.6324 0
M  V30 7108 H 680.658 4.17714 4.45362 0
M  V30 7109 H 682.072 5.19565 2.42333 0
M  V30 7110 H 680.469 5.71601 1.82735 0
M  V30 7111 H 681.539 4.78904 0.760184 0
M  V30 7112 N 682.882 -0.391992 1.52647 0
M  V30 7113 C 684.11 -1.1586 1.71418 0
M  V30 7114 C 684.525 -1.8381 0.431216 0
M  V30 7115 O 683.882 -1.7256 -0.594085 0
M  V30 7116 C 683.933 -2.20888 2.86165 0
M  V30 7117 O 683.654 -1.5571 4.09495 0
M  V30 7118 C 685.155 -3.103 3.1659 0
M  V30 7119 H 682.375 -0.347494 0.574011 0
M  V30 7120 H 684.919 -0.458972 1.99283 0
M  V30 7121 H 683.074 -2.86492 2.6077 0
M  V30 7122 H 683.488 -2.25474 4.73563 0
M  V30 7123 H 684.962 -3.8003 4.00351 0
M  V30 7124 H 685.439 -3.73639 2.30848 0
M  V30 7125 H 686.045 -2.50345 3.43813 0
M  V30 7126 N 684.36 -1.4356 -0.65026 0
M  V30 7127 C 685.609 -1.44619 -1.406 0
M  V30 7128 C 685.922 -0.0752645 -1.95455 0
M  V30 7129 O 687.128 0.0366832 -2.71475 0
M  V30 7130 C 685.584 -2.54511 -2.54465 0
M  V30 7131 C 685.192 -3.97723 -2.06204 0
M  V30 7132 C 686.936 -2.64768 -3.31811 0
M  V30 7133 C 684.843 -4.99075 -3.17298 0
M  V30 7134 H 683.773 -0.537983 -0.52829 0
M  V30 7135 H 686.424 -1.69559 -0.701561 0
M  V30 7136 H 684.806 -2.22777 -3.27393 0
M  V30 7137 H 685.98 -4.38932 -1.40267 0
M  V30 7138 H 684.295 -3.91538 -1.41729 0
M  V30 7139 H 686.892 -3.37664 -4.14593 0
M  V30 7140 H 687.235 -1.69936 -3.80036 0
M  V30 7141 H 687.768 -2.95817 -2.65964 0
M  V30 7142 H 684.507 -5.95469 -2.74038 0
M  V30 7143 H 684.027 -4.62476 -3.81937 0
M  V30 7144 H 685.706 -5.21913 -3.82382 0
M  V30 7145 N 685.838 0.888903 -1.30139 0
M  V30 7146 C 686.801 1.97576 -1.16174 0
M  V30 7147 C 687.801 1.60525 -0.094086 0
M  V30 7148 O 688.991 1.70812 -0.341889 0
M  V30 7149 C 686.123 3.3188 -0.778983 0
M  V30 7150 H 687.316 2.11393 -2.12728 0
M  V30 7151 H 684.869 1.0748 -1.1348 0
M  V30 7152 H 685.604 3.23765 0.186225 0
M  V30 7153 H 685.389 3.60141 -1.55051 0
M  V30 7154 H 686.879 4.11612 -0.704631 0
M  V30 7155 N 687.317 1.12792 1.10072 0
M  V30 7156 C 688.25 0.742921 2.15768 0
M  V30 7157 C 689.228 -0.267714 1.60381 0
M  V30 7158 O 690.412 -0.160782 1.87813 0
M  V30 7159 C 687.539 0.100244 3.38552 0
M  V30 7160 C 686.585 1.07831 4.12644 0
M  V30 7161 S 687.418 2.60765 4.6772 0
M  V30 7162 C 688.574 1.97838 5.9381 0
M  V30 7163 H 688.807 1.63822 2.48092 0
M  V30 7164 H 686.34 0.947385 1.21918 0
M  V30 7165 H 688.298 -0.264175 4.09649 0
M  V30 7166 H 686.959 -0.772223 3.04459 0
M  V30 7167 H 686.152 0.576325 5.00694 0
M  V30 7168 H 685.754 1.38586 3.47376 0
M  V30 7169 H 688.046 1.32341 6.64449 0
M  V30 7170 H 688.989 2.83943 6.48677 0
M  V30 7171 H 689.397 1.43267 5.46017 0
M  V30 7172 N 688.795 -1.27931 0.920396 0
M  V30 7173 C 690.206 -1.76707 0.602616 0
M  V30 7174 C 690.557 -1.75249 -0.882159 0
M  V30 7175 O 689.682 -1.35135 -1.69019 0
M  V30 7176 C 690.277 -3.20884 1.08714 0
M  V30 7177 C 688.836 -3.67356 0.820157 0
M  V30 7178 C 687.983 -2.47525 1.25006 0
M  V30 7179 H 690.934 -1.14301 1.10095 0
M  V30 7180 H 690.955 -3.78045 0.431535 0
M  V30 7181 H 690.467 -3.21913 2.1678 0
M  V30 7182 H 688.568 -3.7178 -0.247012 0
M  V30 7183 H 688.681 -4.57181 1.43257 0
M  V30 7184 H 687.045 -2.45765 0.668698 0
M  V30 7185 H 687.828 -2.51269 2.3392 0
M  V30 7186 N 690.273 -0.685099 -1.4193 0
M  V30 7187 C 691.519 -0.211971 -2.01689 0
M  V30 7188 C 691.852 1.18189 -1.54094 0
M  V30 7189 O 691.127 1.79559 -0.747572 0
M  V30 7190 C 691.41 -0.258019 -3.59174 0
M  V30 7191 C 691.263 -1.68807 -4.16922 0
M  V30 7192 C 692.582 0.388044 -4.38386 0
M  V30 7193 H 689.701 -0.0784987 -0.732808 0
M  V30 7194 H 692.343 -0.871837 -1.68816 0
M  V30 7195 H 690.493 0.303832 -3.8731 0
M  V30 7196 H 692.165 -2.30296 -3.99702 0
M  V30 7197 H 690.408 -2.22553 -3.72361 0
M  V30 7198 H 691.079 -1.6719 -5.26072 0
M  V30 7199 H 693.555 -0.0903432 -4.16002 0
M  V30 7200 H 692.431 0.325232 -5.47936 0
M  V30 7201 H 692.692 1.4672 -4.17044 0
M  V30 7202 N 691.751 1.51645 -0.429126 0
M  V30 7203 C 693.162 1.86665 0.0359003 0
M  V30 7204 C 693.513 1.34677 1.42676 0
M  V30 7205 O 692.638 0.694195 2.04963 0
M  V30 7206 C 693.233 3.38724 0.0719221 0
M  V30 7207 C 691.792 3.7331 0.481336 0
M  V30 7208 C 690.939 2.75313 -0.331329 0
M  V30 7209 H 693.89 1.44987 -0.645333 0
M  V30 7210 H 693.911 3.7011 0.883118 0
M  V30 7211 H 693.423 3.76532 -0.940495 0
M  V30 7212 H 691.524 3.41088 1.49966 0
M  V30 7213 H 691.637 4.78631 0.211837 0
M  V30 7214 H 690.001 2.53839 0.209204 0
M  V30 7215 H 690.784 3.15963 -1.34247 0
M  V30 7216 N 693.229 0.160201 1.56784 0
M  V30 7217 C 694.475 -0.48831 1.96833 0
M  V30 7218 C 694.808 -1.63641 1.04571 0
M  V30 7219 O 694.083 -1.94289 0.0906481 0
M  V30 7220 C 694.366 -0.981908 3.46454 0
M  V30 7221 C 694.219 0.165607 4.49495 0
M  V30 7222 C 695.538 -1.85931 3.98896 0
M  V30 7223 H 692.657 -0.176027 0.71567 0
M  V30 7224 H 695.299 0.244093 1.88426 0
M  V30 7225 H 693.449 -1.60602 3.5375 0
M  V30 7226 H 695.121 0.802372 4.54268 0
M  V30 7227 H 693.364 0.822789 4.25926 0
M  V30 7228 H 694.035 -0.221699 5.51555 0
M  V30 7229 H 696.511 -1.33327 3.94161 0
M  V30 7230 H 695.387 -2.17373 5.04024 0
M  V30 7231 H 695.648 -2.80106 3.42042 0
M  V30 7232 N 694.707 -1.5719 -0.113559 0
M  V30 7233 C 695.956 -1.84325 -0.818984 0
M  V30 7234 C 696.269 -0.746685 -1.80787 0
M  V30 7235 O 697.475 -0.904596 -2.55987 0
M  V30 7236 C 695.931 -3.26818 -1.50724 0
M  V30 7237 C 695.539 -4.44498 -0.559065 0
M  V30 7238 C 697.283 -3.63196 -2.19748 0
M  V30 7239 C 695.19 -5.7802 -1.25086 0
M  V30 7240 H 694.12 -0.687507 -0.309596 0
M  V30 7241 H 696.771 -1.8336 -0.0717621 0
M  V30 7242 H 695.153 -3.22269 -2.30128 0
M  V30 7243 H 696.327 -4.60356 0.202146 0
M  V30 7244 H 694.642 -4.16393 0.024495 0
M  V30 7245 H 697.239 -4.60226 -2.72206 0
M  V30 7246 H 697.582 -2.90899 -2.97798 0
M  V30 7247 H 698.115 -3.69553 -1.47226 0
M  V30 7248 H 694.854 -6.53501 -0.511539 0
M  V30 7249 H 694.374 -5.66038 -1.98395 0
M  V30 7250 H 696.053 -6.2196 -1.78253 0
M  V30 7251 N 696.185 0.383891 -1.52853 0
M  V30 7252 C 697.431 1.13009 -1.68395 0
M  V30 7253 C 697.764 1.89488 -0.425195 0
M  V30 7254 O 697.039 1.8574 0.577136 0
M  V30 7255 C 697.322 2.10419 -2.92226 0
M  V30 7256 C 697.175 1.3767 -4.28214 0
M  V30 7257 C 698.494 3.10781 -3.11614 0
M  V30 7258 H 695.613 0.409463 -0.612788 0
M  V30 7259 H 698.255 0.412895 -1.85459 0
M  V30 7260 H 696.405 2.71579 -2.77808 0
M  V30 7261 H 698.077 0.794352 -4.54409 0
M  V30 7262 H 696.32 0.678533 -4.2846 0
M  V30 7263 H 696.991 2.08874 -5.10956 0
M  V30 7264 H 699.467 2.59715 -3.25096 0
M  V30 7265 H 698.343 3.76179 -3.99725 0
M  V30 7266 H 698.604 3.79933 -2.2606 0
M  V30 7267 N 697.663 1.43903 0.642637 0
M  V30 7268 C 698.611 1.50164 1.77634 0
M  V30 7269 C 699.605 0.374294 1.65213 0
M  V30 7270 O 700.811 0.548748 1.71431 0
M  V30 7271 H 697.186 0.470974 0.586249 0
M  V30 7272 H 699.157 2.45603 1.69474 0
M  V30 7273 C 697.906 1.45196 3.15933 0
M  V30 7274 H 697.229 2.31253 3.26132 0
M  V30 7275 H 698.669 1.53638 3.95185 0
M  V30 7276 C 697.128 0.171043 3.36466 0
M  V30 7277 O 697.658 -0.763413 3.94379 0
M  V30 7278 N 695.864 0.077847 2.90496 0
M  V30 7279 H 695.411 0.8391 2.43551 0
M  V30 7280 H 695.369 -0.778473 3.0461 0
M  V30 7281 N 699.141 -0.881989 1.30609 0
M  V30 7282 C 700.089 -2.00942 1.17155 0
M  V30 7283 C 701.083 -1.69198 0.0827154 0
M  V30 7284 O 702.289 -1.78342 0.243775 0
M  V30 7285 H 698.664 -0.658913 0.362406 0
M  V30 7286 H 700.635 -2.09423 2.12567 0
M  V30 7287 C 699.384 -3.36294 0.883273 0
M  V30 7288 H 698.707 -3.61233 1.7132 0
M  V30 7289 H 700.147 -4.15812 0.829255 0
M  V30 7290 C 698.606 -3.34348 -0.413851 0
M  V30 7291 O 699.136 -3.75216 -1.43444 0
M  V30 7292 N 697.342 -2.87459 -0.426082 0
M  V30 7293 H 696.889 -2.54397 0.40493 0
M  V30 7294 H 696.847 -2.8654 -1.29391 0
M  V30 7295 N 700.619 -1.13374 -1.09472 0
M  V30 7296 C 701.866 -0.89519 -1.81639 0
M  V30 7297 C 702.194 0.57868 -1.85692 0
M  V30 7298 O 701.449 1.44426 -1.32059 0
M  V30 7299 C 701.748 -1.42759 -3.2765 0
M  V30 7300 C 701.414 -2.91822 -3.43731 0
M  V30 7301 C 700.076 -3.32521 -3.47827 0
M  V30 7302 C 702.428 -3.87727 -3.48307 0
M  V30 7303 C 699.756 -4.6781 -3.54078 0
M  V30 7304 C 702.108 -5.22859 -3.56091 0
M  V30 7305 C 700.772 -5.63086 -3.58456 0
M  V30 7306 H 700.042 -0.327573 -0.664663 0
M  V30 7307 H 702.689 -1.4156 -1.28969 0
M  V30 7308 H 700.994 -0.827871 -3.82954 0
M  V30 7309 H 702.691 -1.2191 -3.8202 0
M  V30 7310 H 699.281 -2.5935 -3.41226 0
M  V30 7311 H 703.465 -3.57371 -3.44383 0
M  V30 7312 H 698.721 -4.98353 -3.54195 0
M  V30 7313 H 702.895 -5.96989 -3.58577 0
M  V30 7314 H 700.522 -6.67905 -3.63052 0
M  V30 7315 N 702.098 1.27442 -0.927168 0
M  V30 7316 C 703.346 1.94007 -0.566203 0
M  V30 7317 C 703.667 1.7323 0.895345 0
M  V30 7318 O 702.937 1.07973 1.63459 0
M  V30 7319 H 701.517 0.717917 -0.206409 0
M  V30 7320 H 704.179 1.55161 -1.17945 0
M  V30 7321 H 703.275 3.02401 -0.772028 0
M  V30 7322 N 703.576 0.692616 1.41565 0
M  V30 7323 C 704.509 -0.025063 2.28186 0
M  V30 7324 C 705.487 -0.790912 1.42068 0
M  V30 7325 O 706.671 -0.782344 1.71498 0
M  V30 7326 C 703.798 -1.04285 3.22246 0
M  V30 7327 C 702.844 -0.370515 4.24888 0
M  V30 7328 S 703.677 0.884942 5.28137 0
M  V30 7329 C 704.833 -0.131324 6.25762 0
M  V30 7330 H 705.066 0.709626 2.88707 0
M  V30 7331 H 702.599 0.482783 1.46658 0
M  V30 7332 H 704.557 -1.62493 3.7697 0
M  V30 7333 H 703.218 -1.7501 2.60827 0
M  V30 7334 H 702.411 -1.13911 4.90959 0
M  V30 7335 H 702.013 0.138411 3.73744 0
M  V30 7336 H 704.305 -0.985527 6.70294 0
M  V30 7337 H 705.248 0.495384 7.06365 0
M  V30 7338 H 705.656 -0.484777 5.62415 0
M  V30 7339 N 705.054 -1.51416 0.437162 0
M  V30 7340 C 706.284 -2.06204 -0.127859 0
M  V30 7341 C 706.692 -1.30463 -1.37026 0
M  V30 7342 O 706.035 -0.357516 -1.80187 0
M  V30 7343 C 706.097 -3.55783 -0.515632 0
M  V30 7344 C 705.761 -4.52776 0.619937 0
M  V30 7345 C 706.758 -4.98031 1.49201 0
M  V30 7346 C 704.443 -4.95878 0.800618 0
M  V30 7347 C 706.437 -5.85061 2.52947 0
M  V30 7348 C 704.124 -5.82699 1.84135 0
M  V30 7349 C 705.122 -6.27188 2.70416 0
M  V30 7350 O 704.81 -7.12284 3.72702 0
M  V30 7351 H 704.542 -0.675903 -0.011442 0
M  V30 7352 H 707.096 -1.95977 0.614986 0
M  V30 7353 H 705.326 -3.63793 -1.31118 0
M  V30 7354 H 707.015 -3.93087 -1.01179 0
M  V30 7355 H 707.781 -4.65426 1.36395 0
M  V30 7356 H 703.66 -4.60792 0.138617 0
M  V30 7357 H 707.204 -6.19708 3.20325 0
M  V30 7358 H 703.101 -6.14717 1.9696 0
M  V30 7359 H 703.869 -7.30462 3.69281 0
M  V30 7360 N 706.532 -0.168513 -1.56696 0
M  V30 7361 C 707.762 0.482802 -2.0088 0
M  V30 7362 C 708.17 1.57537 -1.0478 0
M  V30 7363 O 707.513 1.83656 -0.0402746 0
M  V30 7364 C 707.575 1.1236 -3.4149 0
M  V30 7365 C 707.239 0.173027 -4.56672 0
M  V30 7366 C 708.236 -0.607565 -5.16338 0
M  V30 7367 C 705.921 0.0696691 -5.02252 0
M  V30 7368 C 707.915 -1.47874 -6.2001 0
M  V30 7369 C 705.602 -0.805096 -6.05773 0
M  V30 7370 C 706.6 -1.57789 -6.64524 0
M  V30 7371 O 706.288 -2.43804 -7.66038 0
M  V30 7372 H 706.02 0.128246 -0.663723 0
M  V30 7373 H 708.574 -0.266532 -2.03663 0
M  V30 7374 H 706.804 1.921 -3.35611 0
M  V30 7375 H 708.493 1.67683 -3.69645 0
M  V30 7376 H 709.259 -0.53787 -4.82008 0
M  V30 7377 H 705.138 0.660957 -4.56237 0
M  V30 7378 H 708.682 -2.0824 -6.65794 0
M  V30 7379 H 704.579 -0.876005 -6.39528 0
M  V30 7380 H 705.347 -2.37289 -7.83349 0
M  V30 7381 N 708.01 1.57248 0.105221 0
M  V30 7382 C 709.235 1.90143 0.828264 0
M  V30 7383 C 709.66 0.761811 1.71983 0
M  V30 7384 O 709.018 -0.287086 1.79013 0
M  V30 7385 C 709.066 3.21856 1.62608 0
M  V30 7386 O 708.17 3.08732 2.7342 0
M  V30 7387 H 707.511 0.623558 0.228192 0
M  V30 7388 H 710.041 2.0443 0.0834826 0
M  V30 7389 H 710.051 3.54916 2.01243 0
M  V30 7390 H 708.726 4.0439 0.971687 0
M  V30 7391 H 707.303 2.87167 2.37886 0
M  V30 7392 N 709.488 -0.375779 1.53054 0
M  V30 7393 C 710.418 -1.46598 1.81745 0
M  V30 7394 C 711.399 -1.56337 0.670286 0
M  V30 7395 O 712.584 -1.71071 0.919158 0
M  V30 7396 C 709.714 -2.84058 1.99821 0
M  V30 7397 C 708.668 -2.8915 3.15557 0
M  V30 7398 C 707.994 -4.29187 3.18908 0
M  V30 7399 C 709.294 -2.57595 4.54359 0
M  V30 7400 H 710.988 -1.22837 2.73041 0
M  V30 7401 H 708.534 -0.589485 1.31381 0
M  V30 7402 H 710.487 -3.60342 2.18475 0
M  V30 7403 H 709.211 -3.09184 1.05226 0
M  V30 7404 H 707.87 -2.15316 2.96706 0
M  V30 7405 H 707.518 -4.51374 2.2197 0
M  V30 7406 H 707.218 -4.33512 3.96662 0
M  V30 7407 H 708.742 -5.07359 3.39734 0
M  V30 7408 H 710.156 -3.23595 4.73243 0
M  V30 7409 H 708.553 -2.73252 5.34279 0
M  V30 7410 H 709.623 -1.52882 4.60169 0
M  V30 7411 N 710.966 -1.44241 -0.634997 0
M  V30 7412 C 711.929 -1.50457 -1.72903 0
M  V30 7413 C 712.929 -0.387058 -1.56072 0
M  V30 7414 O 714.119 -0.649531 -1.61638 0
M  V30 7415 C 711.251 -1.37477 -3.1195 0
M  V30 7416 H 712.444 -2.47907 -1.68767 0
M  V30 7417 H 709.997 -1.31276 -0.84831 0
M  V30 7418 H 710.732 -0.41106 -3.21684 0
M  V30 7419 H 710.517 -2.18506 -3.25573 0
M  V30 7420 H 712.007 -1.44799 -3.91692 0
M  V30 7421 N 712.444 0.87505 -1.31075 0
M  V30 7422 C 713.377 1.98471 -1.12625 0
M  V30 7423 C 714.355 1.6257 -0.0311379 0
M  V30 7424 O 715.539 1.87574 -0.186594 0
M  V30 7425 C 712.666 3.30963 -0.719799 0
M  V30 7426 C 711.712 3.85849 -1.81722 0
M  V30 7427 S 712.545 4.11926 -3.42165 0
M  V30 7428 C 713.701 5.47423 -3.03445 0
M  V30 7429 H 713.934 2.13817 -2.06566 0
M  V30 7430 H 711.467 1.02463 -1.15502 0
M  V30 7431 H 713.425 4.07541 -0.492035 0
M  V30 7432 H 712.086 3.1346 0.200413 0
M  V30 7433 H 711.279 4.81616 -1.48533 0
M  V30 7434 H 710.881 3.16046 -1.99977 0
M  V30 7435 H 713.173 6.28881 -2.52023 0
M  V30 7436 H 714.116 5.85557 -3.98157 0
M  V30 7437 H 714.524 5.10455 -2.41031 0
M  V30 7438 N 713.922 1.13953 1.08869 0
M  V30 7439 C 714.885 0.824991 2.13838 0
M  V30 7440 C 715.885 -0.168198 1.59918 0
M  V30 7441 O 717.075 0.0595778 1.74098 0
M  V30 7442 C 714.207 0.228938 3.4013 0
M  V30 7443 H 715.4 1.75521 2.43171 0
M  V30 7444 H 712.953 0.94492 1.24503 0
M  V30 7445 H 713.688 -0.710227 3.16427 0
M  V30 7446 H 713.473 0.944243 3.80561 0
M  V30 7447 H 714.963 0.0259223 4.17592 0
M  V30 7448 N 715.4 -1.26948 0.933913 0
M  V30 7449 C 716.347 -2.26635 0.436484 0
M  V30 7450 C 717.317 -1.58397 -0.499953 0
M  V30 7451 O 718.502 -1.86171 -0.417753 0
M  V30 7452 C 715.642 -3.43803 -0.298951 0
M  V30 7453 C 714.755 -4.26736 0.672316 0
M  V30 7454 C 713.89 -5.31134 -0.0835872 0
M  V30 7455 C 712.929 -6.05742 0.879979 0
M  V30 7456 N 712.066 -7.01926 0.156301 0
M  V30 7457 H 716.906 -2.68558 1.29154 0
M  V30 7458 H 714.443 -1.32052 0.648118 0
M  V30 7459 H 716.401 -4.10554 -0.741723 0
M  V30 7460 H 715.031 -3.02814 -1.1182 0
M  V30 7461 H 714.083 -3.59842 1.23361 0
M  V30 7462 H 715.395 -4.78502 1.40846 0
M  V30 7463 H 714.549 -6.03863 -0.585984 0
M  V30 7464 H 713.288 -4.80188 -0.852661 0
M  V30 7465 H 712.293 -5.31846 1.39357 0
M  V30 7466 H 713.518 -6.58777 1.64894 0
M  V30 7467 H 711.464 -6.53301 -0.594413 0
M  V30 7468 H 711.381 -7.51409 0.831906 0
M  V30 7469 H 712.649 -7.78821 -0.325239 0
M  V30 7470 N 716.879 -0.700114 -1.41195 0
M  V30 7471 C 717.811 0.00155823 -2.292 0
M  V30 7472 C 718.824 0.739736 -1.45023 0
M  V30 7473 O 720.013 0.589684 -1.68478 0
M  V30 7474 C 717.113 1.02635 -3.22985 0
M  V30 7475 C 716.286 0.356871 -4.35942 0
M  V30 7476 C 715.345 1.28491 -5.10271 0
M  V30 7477 O 714.371 0.775562 -5.63892 0
M  V30 7478 N 715.573 2.61699 -5.18164 0
M  V30 7479 H 718.338 -0.754008 -2.9006 0
M  V30 7480 H 715.899 -0.546504 -1.52397 0
M  V30 7481 H 717.891 1.64902 -3.6958 0
M  V30 7482 H 716.461 1.68341 -2.63401 0
M  V30 7483 H 715.681 -0.445753 -3.91672 0
M  V30 7484 H 716.969 -0.108469 -5.08684 0
M  V30 7485 H 716.367 3.05594 -4.76056 0
M  V30 7486 H 714.924 3.19149 -5.6832 0
M  V30 7487 N 718.357 1.51182 -0.445186 0
M  V30 7488 C 719.304 2.27939 0.362291 0
M  V30 7489 C 720.274 1.31864 1.01 0
M  V30 7490 O 721.459 1.60776 1.02741 0
M  V30 7491 C 718.599 3.13016 1.45311 0
M  V30 7492 C 717.712 4.24093 0.822757 0
M  V30 7493 C 716.847 4.96467 1.88928 0
M  V30 7494 C 715.886 5.99454 1.23778 0
M  V30 7495 N 715.023 6.65206 2.24602 0
M  V30 7496 H 719.863 2.965 -0.29862 0
M  V30 7497 H 717.4 1.46237 -0.15911 0
M  V30 7498 H 719.358 3.60673 2.09692 0
M  V30 7499 H 717.988 2.46553 2.08354 0
M  V30 7500 H 717.04 3.80341 0.0670364 0
M  V30 7501 H 718.352 4.97853 0.307184 0
M  V30 7502 H 717.506 5.47712 2.60953 0
M  V30 7503 H 716.245 4.22355 2.4386 0
M  V30 7504 H 715.25 5.47494 0.503042 0
M  V30 7505 H 716.475 6.75527 0.695694 0
M  V30 7506 H 714.421 5.93901 2.78599 0
M  V30 7507 H 714.338 7.34756 1.77958 0
M  V30 7508 H 715.606 7.21078 2.96085 0
M  V30 7509 N 719.835 0.176821 1.56605 0
M  V30 7510 C 720.765 -0.746841 2.21234 0
M  V30 7511 C 721.746 -1.23502 1.16967 0
M  V30 7512 O 722.931 -1.28718 1.45414 0
M  V30 7513 C 720.061 -1.97407 2.8574 0
M  V30 7514 C 719.015 -1.62153 3.96094 0
M  V30 7515 C 718.341 -2.92387 4.47676 0
M  V30 7516 C 719.641 -0.845353 5.15413 0
M  V30 7517 H 721.335 -0.208116 2.98676 0
M  V30 7518 H 718.881 -0.0986594 1.43662 0
M  V30 7519 H 720.834 -2.62531 3.2963 0
M  V30 7520 H 719.558 -2.53703 2.05676 0
M  V30 7521 H 718.217 -0.993964 3.52868 0
M  V30 7522 H 717.865 -3.46734 3.64396 0
M  V30 7523 H 717.565 -2.69551 5.22127 0
M  V30 7524 H 719.089 -3.5853 4.94255 0
M  V30 7525 H 720.503 -1.39929 5.55961 0
M  V30 7526 H 718.9 -0.715814 5.95815 0
M  V30 7527 H 719.97 0.157239 4.84645 0
M  V30 7528 N 721.313 -1.57302 -0.09688 0
M  V30 7529 C 722.724 -1.7496 -0.651595 0
M  V30 7530 C 723.075 -0.798746 -1.79205 0
M  V30 7531 O 722.2 0.0231858 -2.16388 0
M  V30 7532 C 722.795 -3.17259 -1.18878 0
M  V30 7533 C 721.354 -3.36348 -1.68958 0
M  V30 7534 C 720.501 -2.70766 -0.598413 0
M  V30 7535 H 723.452 -1.58173 0.12918 0
M  V30 7536 H 723.473 -3.20033 -2.05814 0
M  V30 7537 H 722.985 -3.8644 -0.358523 0
M  V30 7538 H 721.086 -2.72243 -2.5439 0
M  V30 7539 H 721.199 -4.44654 -1.7838 0
M  V30 7540 H 719.563 -2.32615 -1.03743 0
M  V30 7541 H 720.346 -3.42586 0.221238 0
M  V30 7542 N 722.791 0.367657 -1.53252 0
M  V30 7543 C 723.738 1.45028 -1.79543 0
M  V30 7544 C 724.708 1.53288 -0.63969 0
M  V30 7545 O 725.893 1.69209 -0.881653 0
M  V30 7546 C 723.033 2.82 -1.98923 0
M  V30 7547 C 722.146 2.82722 -3.26638 0
M  V30 7548 C 721.281 4.11257 -3.36216 0
M  V30 7549 C 720.32 4.06113 -4.57972 0
M  V30 7550 N 719.457 5.26293 -4.64715 0
M  V30 7551 H 724.297 1.21908 -2.71923 0
M  V30 7552 H 721.834 0.591011 -1.34705 0
M  V30 7553 H 723.792 3.61568 -2.08146 0
M  V30 7554 H 722.422 3.03523 -1.09881 0
M  V30 7555 H 721.474 1.95399 -3.26379 0
M  V30 7556 H 722.786 2.74794 -4.16281 0
M  V30 7557 H 721.94 4.99239 -3.44739 0
M  V30 7558 H 720.679 4.21935 -2.44586 0
M  V30 7559 H 719.684 3.16517 -4.49552 0
M  V30 7560 H 720.909 3.97039 -5.50942 0
M  V30 7561 H 718.855 5.37561 -3.75985 0
M  V30 7562 H 718.772 5.20526 -5.4826 0
M  V30 7563 H 720.04 6.16113 -4.77519 0
M  V30 7564 N 724.269 1.44576 0.627338 0
M  V30 7565 C 725.216 1.51734 1.73912 0
M  V30 7566 C 726.186 0.364745 1.62046 0
M  V30 7567 O 727.371 0.575503 1.81914 0
M  V30 7568 C 724.511 1.47116 3.12171 0
M  V30 7569 C 723.624 2.72778 3.34986 0
M  V30 7570 C 722.759 2.59968 4.63239 0
M  V30 7571 C 721.798 3.80776 4.79245 0
M  V30 7572 N 720.935 3.66618 5.98778 0
M  V30 7573 H 725.775 2.46722 1.6713 0
M  V30 7574 H 723.312 1.22444 0.815224 0
M  V30 7575 H 725.27 1.42429 3.92135 0
M  V30 7576 H 723.9 0.556928 3.17959 0
M  V30 7577 H 722.952 2.87637 2.48936 0
M  V30 7578 H 724.264 3.62441 3.42692 0
M  V30 7579 H 723.418 2.53135 5.51369 0
M  V30 7580 H 722.157 1.67872 4.57898 0
M  V30 7581 H 721.162 3.87989 3.89544 0
M  V30 7582 H 722.387 4.73913 4.86398 0
M  V30 7583 H 720.333 2.77277 5.9452 0
M  V30 7584 H 720.25 4.499 6.07557 0
M  V30 7585 H 721.518 3.63684 6.89459 0
M  V30 7586 N 725.747 -0.868086 1.31537 0
M  V30 7587 C 727.163 -1.15414 1.10235 0
M  V30 7588 C 727.363 -2.01106 -0.125947 0
M  V30 7589 O 726.419 -2.38994 -0.814734 0
M  V30 7590 C 727.732 -1.84445 2.37488 0
M  V30 7591 C 729.28 -1.97139 2.43116 0
M  V30 7592 C 729.755 -2.69585 3.70254 0
M  V30 7593 N 731.246 -2.77119 3.71159 0
M  V30 7594 C 731.981 -3.33791 4.6623 0
M  V30 7595 N 731.477 -3.9138 5.71659 0
M  V30 7596 N 733.27 -3.31767 4.53747 0
M  V30 7597 H 725.421 -0.297109 2.10312 0
M  V30 7598 H 727.684 -0.194227 0.92789 0
M  V30 7599 H 727.39 -1.2893 3.27215 0
M  V30 7600 H 727.264 -2.84709 2.47428 0
M  V30 7601 H 729.651 -2.51818 1.53856 0
M  V30 7602 H 729.732 -0.95912 2.37138 0
M  V30 7603 H 729.376 -2.15572 4.59881 0
M  V30 7604 H 729.306 -3.71223 3.73499 0
M  V30 7605 H 731.797 -2.3625 2.94948 0
M  V30 7606 H 732.11 -4.3274 6.40278 0
M  V30 7607 H 730.455 -3.8975 5.7543 0
M  V30 7608 H 733.646 -2.86016 3.70557 0
M  V30 7609 H 733.819 -3.75636 5.28017 0
M  V30 7610 N 727.225 -1.14528 -1.08264 0
M  V30 7611 C 728.172 -0.833556 -2.15222 0
M  V30 7612 C 729.142 0.209539 -1.64773 0
M  V30 7613 O 730.327 0.0791388 -1.90636 0
M  V30 7614 C 727.467 -0.318799 -3.43624 0
M  V30 7615 C 726.58 -1.42237 -4.07913 0
M  V30 7616 C 725.715 -0.864704 -5.24115 0
M  V30 7617 C 724.754 -1.94585 -5.80347 0
M  V30 7618 N 723.891 -1.40525 -6.87893 0
M  V30 7619 H 728.731 -1.74965 -2.41228 0
M  V30 7620 H 726.268 -0.873169 -1.18381 0
M  V30 7621 H 728.226 -0.00213088 -4.172 0
M  V30 7622 H 726.856 0.560397 -3.17898 0
M  V30 7623 H 725.908 -1.8554 -3.32083 0
M  V30 7624 H 727.22 -2.23901 -4.45724 0
M  V30 7625 H 726.374 -0.500025 -6.04636 0
M  V30 7626 H 725.113 -0.0171219 -4.87697 0
M  V30 7627 H 724.118 -2.31946 -4.98479 0
M  V30 7628 H 725.343 -2.79704 -6.18823 0
M  V30 7629 H 723.289 -0.579873 -6.53432 0
M  V30 7630 H 723.206 -2.15825 -7.24538 0
M  V30 7631 H 724.474 -1.06852 -7.72142 0
M  V30 7632 N 728.703 1.26451 -0.940633 0
M  V30 7633 C 729.65 2.264 -0.448497 0
M  V30 7634 C 730.62 1.5866 0.491546 0
M  V30 7635 O 731.805 1.86389 0.407874 0
M  V30 7636 C 728.945 3.43956 0.280715 0
M  V30 7637 C 728.058 4.26374 -0.694937 0
M  V30 7638 C 727.193 5.31171 0.0554186 0
M  V30 7639 C 726.232 6.05266 -0.912091 0
M  V30 7640 N 725.369 7.01833 -0.193524 0
M  V30 7641 H 730.209 2.67869 -1.30576 0
M  V30 7642 H 727.746 1.31707 -0.655112 0
M  V30 7643 H 729.704 4.10941 0.71994 0
M  V30 7644 H 728.334 3.03403 1.10212 0
M  V30 7645 H 727.386 3.59183 -1.25267 0
M  V30 7646 H 728.698 4.77748 -1.43382 0
M  V30 7647 H 727.852 6.04166 0.553951 0
M  V30 7648 H 726.591 4.80634 0.827183 0
M  V30 7649 H 725.596 5.31099 -1.42175 0
M  V30 7650 H 726.821 6.57893 -1.68385 0
M  V30 7651 H 724.767 6.53607 0.559758 0
M  V30 7652 H 724.684 7.50957 -0.871744 0
M  V30 7653 H 725.952 7.78983 0.283932 0
M  V30 7654 N 730.181 0.707592 1.40822 0
M  V30 7655 C 731.131 0.0265008 2.27985 0
M  V30 7656 C 732.115 -0.740685 1.42838 0
M  V30 7657 O 733.307 -0.6142 1.66002 0
M  V30 7658 C 730.436 -0.900382 3.31282 0
M  V30 7659 C 729.522 -0.128807 4.23904 0
M  V30 7660 N 729.913 0.883744 4.9802 0
M  V30 7661 C 728.211 -0.362539 4.44524 0
M  V30 7662 C 728.912 1.34666 5.65898 0
M  V30 7663 N 727.888 0.670306 5.39451 0
M  V30 7664 H 731.69 0.802667 2.82727 0
M  V30 7665 H 729.204 0.539475 1.53178 0
M  V30 7666 H 731.201 -1.40357 3.92563 0
M  V30 7667 H 729.861 -1.67601 2.781 0
M  V30 7668 H 730.872 1.26435 5.0223 0
M  V30 7669 H 727.549 -1.11512 4.02332 0
M  V30 7670 H 728.939 2.18756 6.35292 0
M  V30 7671 N 731.66 -1.50943 0.453197 0
M  V30 7672 C 732.906 -2.02512 -0.108082 0
M  V30 7673 C 733.239 -1.33574 -1.40967 0
M  V30 7674 O 732.514 -0.455671 -1.89087 0
M  V30 7675 C 732.797 -3.58759 -0.310453 0
M  V30 7676 C 732.65 -4.38293 1.0109 0
M  V30 7677 C 733.969 -4.26816 -1.07313 0
M  V30 7678 H 731.088 -0.73603 -0.0378064 0
M  V30 7679 H 733.73 -1.80433 0.595295 0
M  V30 7680 H 731.88 -3.77702 -0.909582 0
M  V30 7681 H 733.552 -4.30964 1.64523 0
M  V30 7682 H 731.795 -4.02745 1.61179 0
M  V30 7683 H 732.466 -5.45828 0.82315 0
M  V30 7684 H 734.942 -4.1224 -0.565473 0
M  V30 7685 H 733.818 -5.35989 -1.1835 0
M  V30 7686 H 734.079 -3.88757 -2.10525 0
M  V30 7687 N 733.138 -0.185124 -1.56509 0
M  V30 7688 C 734.549 0.329221 -1.83774 0
M  V30 7689 C 734.9 1.62093 -1.10545 0
M  V30 7690 O 734.025 2.13334 -0.36298 0
M  V30 7691 C 734.62 0.604099 -3.33371 0
M  V30 7692 C 733.179 1.06284 -3.61083 0
M  V30 7693 C 732.326 0.10608 -2.77097 0
M  V30 7694 H 735.277 -0.409116 -1.53336 0
M  V30 7695 H 735.298 1.45458 -3.51599 0
M  V30 7696 H 734.81 -0.336201 -3.86641 0
M  V30 7697 H 732.911 2.01777 -3.13236 0
M  V30 7698 H 733.024 0.962453 -4.69333 0
M  V30 7699 H 731.388 0.606082 -2.47384 0
M  V30 7700 H 732.171 -0.828486 -3.33153 0
M  V30 7701 N 734.616 1.57351 0.0885366 0
M  V30 7702 C 736.032 1.53331 0.442916 0
M  V30 7703 C 736.232 0.902831 1.80142 0
M  V30 7704 O 735.288 0.498147 2.47537 0
M  V30 7705 C 736.601 2.98036 0.399372 0
M  V30 7706 C 738.149 3.09286 0.480759 0
M  V30 7707 C 738.624 4.5561 0.467296 0
M  V30 7708 N 740.115 4.60182 0.52786 0
M  V30 7709 C 740.85 5.70857 0.539388 0
M  V30 7710 N 740.346 6.90944 0.506729 0
M  V30 7711 N 742.139 5.59051 0.584691 0
M  V30 7712 H 734.29 1.96709 -0.801215 0
M  V30 7713 H 736.553 0.899639 -0.298922 0
M  V30 7714 H 736.259 3.47656 -0.531806 0
M  V30 7715 H 736.133 3.57066 1.21589 0
M  V30 7716 H 738.52 2.5965 1.40236 0
M  V30 7717 H 738.601 2.53197 -0.364023 0
M  V30 7718 H 738.245 5.05899 -0.450384 0
M  V30 7719 H 738.175 5.09544 1.32938 0
M  V30 7720 H 740.666 3.73757 0.558028 0
M  V30 7721 H 740.979 7.71055 0.518989 0
M  V30 7722 H 739.324 6.93384 0.473675 0
M  V30 7723 H 742.515 4.64138 0.607781 0
M  V30 7724 H 742.688 6.45307 0.590206 0
M  V30 7725 N 736.094 -0.359525 1.53444 0
M  V30 7726 C 737.505 -0.936009 1.61542 0
M  V30 7727 C 737.856 -1.90069 0.486633 0
M  V30 7728 O 736.981 -2.12929 -0.386047 0
M  V30 7729 C 737.576 -1.70441 2.92806 0
M  V30 7730 C 736.135 -2.23015 3.03218 0
M  V30 7731 C 735.282 -1.04438 2.56881 0
M  V30 7732 H 738.233 -0.138134 1.58098 0
M  V30 7733 H 738.254 -2.56609 2.80948 0
M  V30 7734 H 737.766 -1.00205 3.74941 0
M  V30 7735 H 735.867 -2.96475 2.25684 0
M  V30 7736 H 735.98 -2.50481 4.08407 0
M  V30 7737 H 734.344 -1.41314 2.11902 0
M  V30 7738 H 735.127 -0.356905 3.4144 0
M  V30 7739 N 737.572 -1.44907 -0.619662 0
M  V30 7740 C 738.535 -1.52282 -1.71297 0
M  V30 7741 C 739.535 -0.40359 -1.55653 0
M  V30 7742 O 740.725 -0.666638 -1.6094 0
M  V30 7743 C 737.857 -1.40778 -3.10474 0
M  V30 7744 H 739.05 -2.49683 -1.66128 0
M  V30 7745 H 736.603 -1.32168 -0.834339 0
M  V30 7746 H 737.338 -0.445156 -3.2123 0
M  V30 7747 H 737.123 -2.21947 -3.23237 0
M  V30 7748 H 738.613 -1.48946 -3.90135 0
M  V30 7749 N 739.05 0.861098 -1.31996 0
M  V30 7750 C 739.982 1.97551 -1.16216 0
M  V30 7751 C 740.995 1.625 -0.0988527 0
M  V30 7752 O 742.184 1.75091 -0.3472 0
M  V30 7753 C 739.284 3.30376 -0.755307 0
M  V30 7754 C 738.457 3.93711 -1.90552 0
M  V30 7755 C 737.516 5.04862 -1.48328 0
M  V30 7756 O 736.542 5.25204 -2.19431 0
M  V30 7757 N 737.744 5.79283 -0.375656 0
M  V30 7758 H 740.509 2.11632 -2.12208 0
M  V30 7759 H 738.07 1.03559 -1.24448 0
M  V30 7760 H 740.062 4.0213 -0.455364 0
M  V30 7761 H 738.632 3.12395 0.113269 0
M  V30 7762 H 737.852 3.14825 -2.37231 0
M  V30 7763 H 739.14 4.32762 -2.67571 0
M  V30 7764 H 738.538 5.65286 0.216284 0
M  V30 7765 H 737.095 6.5166 -0.135289 0
M  V30 7766 N 740.528 1.15101 1.07655 0
M  V30 7767 C 741.458 0.867864 2.16773 0
M  V30 7768 C 742.439 -0.180283 1.69142 0
M  V30 7769 O 743.624 -0.0353152 1.94168 0
M  V30 7770 C 740.754 0.35299 3.45501 0
M  V30 7771 C 739.708 1.33746 4.06566 0
M  V30 7772 C 739.034 0.681562 5.30338 0
M  V30 7773 C 740.334 2.7024 4.46954 0
M  V30 7774 H 742.028 1.78034 2.40716 0
M  V30 7775 H 739.574 0.857435 1.15689 0
M  V30 7776 H 741.527 0.142465 4.21159 0
M  V30 7777 H 740.251 -0.594945 3.21135 0
M  V30 7778 H 738.91 1.53429 3.32949 0
M  V30 7779 H 738.558 -0.272422 5.02262 0
M  V30 7780 H 738.258 1.33853 5.72151 0
M  V30 7781 H 739.782 0.48074 6.08705 0
M  V30 7782 H 741.196 2.5442 5.13754 0
M  V30 7783 H 739.593 3.32282 4.99709 0
M  V30 7784 H 740.663 3.26537 3.58471 0
M  V30 7785 N 742.006 -1.2595 0.947325 0
M  V30 7786 C 742.916 -2.29883 0.468079 0
M  V30 7787 C 743.932 -1.67783 -0.460975 0
M  V30 7788 O 745.108 -1.98526 -0.339006 0
M  V30 7789 C 742.173 -3.45773 -0.253315 0
M  V30 7790 C 741.234 -4.23337 0.713054 0
M  V30 7791 C 740.467 -5.33694 0.025993 0
M  V30 7792 O 740.69 -5.57853 -1.18978 0
M  V30 7793 O 739.624 -5.97724 0.70782 0
M  V30 7794 H 743.45 -2.72952 1.33156 0
M  V30 7795 H 741.035 -1.31263 0.713468 0
M  V30 7796 H 742.917 -4.16209 -0.659423 0
M  V30 7797 H 741.592 -3.04721 -1.09209 0
M  V30 7798 H 740.499 -3.55359 1.16923 0
M  V30 7799 H 741.832 -4.68154 1.51963 0
M  V30 7800 N 743.484 -0.715051 -1.40445 0
M  V30 7801 C 744.709 -0.26254 -2.05732 0
M  V30 7802 C 745.134 1.08691 -1.53519 0
M  V30 7803 O 744.492 1.68453 -0.670328 0
M  V30 7804 C 744.54 -0.25195 -3.59719 0
M  V30 7805 O 743.644 0.766998 -4.05205 0
M  V30 7806 H 742.985 -0.123398 -0.652433 0
M  V30 7807 H 745.515 -0.975382 -1.79854 0
M  V30 7808 H 745.525 -0.0894537 -4.07902 0
M  V30 7809 H 744.2 -1.23672 -3.97087 0
M  V30 7810 H 742.777 0.572269 -3.68483 0
M  V30 7811 N 744.962 1.50701 -0.461195 0
M  V30 7812 C 746.373 1.867 -0.00370227 0
M  V30 7813 C 746.724 1.37673 1.39787 0
M  V30 7814 O 745.849 0.737515 2.03445 0
M  V30 7815 C 746.444 3.388 5.75786e-05 0
M  V30 7816 C 745.003 3.74247 0.402044 0
M  V30 7817 C 744.15 2.74549 -0.389652 0
M  V30 7818 H 747.101 1.43585 -0.675942 0
M  V30 7819 H 747.122 3.719 0.804414 0
M  V30 7820 H 746.634 3.74452 -1.02015 0
M  V30 7821 H 744.735 3.44192 1.42697 0
M  V30 7822 H 744.848 4.78973 0.110265 0
M  V30 7823 H 743.212 2.54226 0.155314 0
M  V30 7824 H 743.995 3.13044 -1.40919 0
M  V30 7825 N 746.441 0.193421 1.56409 0
M  V30 7826 C 747.374 -0.767384 2.1491 0
M  V30 7827 C 748.352 -1.21075 1.08534 0
M  V30 7828 O 749.536 -1.29856 1.36637 0
M  V30 7829 C 746.663 -2.03615 2.70663 0
M  V30 7830 C 745.709 -1.73505 3.89613 0
M  V30 7831 S 746.542 -0.884645 5.28142 0
M  V30 7832 C 747.698 -2.1636 5.87315 0
M  V30 7833 H 747.931 -0.270053 2.96071 0
M  V30 7834 H 745.464 -0.0215546 1.54385 0
M  V30 7835 H 747.422 -2.7648 3.03429 0
M  V30 7836 H 746.083 -2.50461 1.89547 0
M  V30 7837 H 745.276 -2.67701 4.27027 0
M  V30 7838 H 744.878 -1.08723 3.57848 0
M  V30 7839 H 747.17 -3.11629 6.01576 0
M  V30 7840 H 748.113 -1.8338 6.83943 0
M  V30 7841 H 748.521 -2.29129 5.15907 0
M  V30 7842 N 747.919 -1.57396 -0.0801906 0
M  V30 7843 C 749.149 -1.90778 -0.792924 0
M  V30 7844 C 749.557 -0.786814 -1.72064 0
M  V30 7845 O 748.9 0.249259 -1.82001 0
M  V30 7846 C 748.962 -3.19552 -1.64702 0
M  V30 7847 C 748.626 -4.48259 -0.889567 0
M  V30 7848 C 749.623 -5.19465 -0.212602 0
M  V30 7849 C 747.308 -4.94896 -0.859229 0
M  V30 7850 C 749.302 -6.35555 0.484566 0
M  V30 7851 C 746.989 -6.10895 -0.158284 0
M  V30 7852 C 747.987 -6.81075 0.512421 0
M  V30 7853 O 747.675 -7.94862 1.20209 0
M  V30 7854 H 747.407 -0.63527 -0.231103 0
M  V30 7855 H 749.961 -2.0532 -0.0573081 0
M  V30 7856 H 748.191 -3.01196 -2.42524 0
M  V30 7857 H 749.88 -3.38649 -2.23767 0
M  V30 7858 H 750.646 -4.84467 -0.227403 0
M  V30 7859 H 746.525 -4.4015 -1.37073 0
M  V30 7860 H 750.069 -6.9027 1.00864 0
M  V30 7861 H 745.966 -6.45345 -0.141381 0
M  V30 7862 H 746.734 -8.10932 1.11051 0
M  V30 7863 N 749.397 0.351382 -1.53633 0
M  V30 7864 C 750.637 1.10102 -1.72212 0
M  V30 7865 C 751.001 1.86128 -0.471198 0
M  V30 7866 O 752.202 2.63445 -0.533887 0
M  V30 7867 C 750.473 2.02348 -2.94602 0
M  V30 7868 S 752.032 2.84641 -3.33954 0
M  V30 7869 H 748.85 0.372145 -0.60583 0
M  V30 7870 H 751.452 0.38044 -1.91763 0
M  V30 7871 H 750.156 1.45283 -3.83824 0
M  V30 7872 H 749.687 2.78856 -2.77493 0
M  V30 7873 H 751.702 4.04724 -2.87076 0
M  V30 7874 N 750.875 1.45233 0.611969 0
M  V30 7875 C 751.822 1.5357 1.72293 0
M  V30 7876 C 752.792 0.381912 1.6165 0
M  V30 7877 O 753.977 0.594765 1.81293 0
M  V30 7878 C 751.117 1.50419 3.10593 0
M  V30 7879 C 750.23 2.76316 3.32074 0
M  V30 7880 C 749.365 2.64866 4.60456 0
M  V30 7881 C 748.404 3.85838 4.7518 0
M  V30 7882 N 747.541 3.72949 5.94856 0
M  V30 7883 H 752.381 2.4848 1.64504 0
M  V30 7884 H 749.918 1.23302 0.802191 0
M  V30 7885 H 751.876 1.4658 3.90602 0
M  V30 7886 H 750.506 0.590621 3.17351 0
M  V30 7887 H 749.558 2.90261 2.45872 0
M  V30 7888 H 750.87 3.66055 3.38829 0
M  V30 7889 H 750.024 2.58969 5.48653 0
M  V30 7890 H 748.763 1.72719 4.56092 0
M  V30 7891 H 747.768 3.92099 3.85407 0
M  V30 7892 H 748.993 4.79045 4.81344 0
M  V30 7893 H 746.939 2.83567 5.91545 0
M  V30 7894 H 746.856 4.56319 6.02751 0
M  V30 7895 H 748.124 3.70976 6.85563 0
M  V30 7896 N 752.353 -0.854086 1.3245 0
M  V30 7897 C 753.578 -1.64597 1.26185 0
M  V30 7898 C 754.003 -1.87357 -0.167074 0
M  V30 7899 O 753.361 -1.42675 -1.11864 0
M  V30 7900 C 753.409 -2.98213 2.02734 0
M  V30 7901 O 752.513 -3.88784 1.37554 0
M  V30 7902 H 751.854 -0.50179 0.434859 0
M  V30 7903 H 754.384 -1.06372 1.74775 0
M  V30 7904 H 754.394 -3.4803 2.1293 0
M  V30 7905 H 753.069 -2.80969 3.06642 0
M  V30 7906 H 751.646 -3.4725 1.3591 0
M  V30 7907 N 753.831 -1.1567 -1.07043 0
M  V30 7908 C 754.741 -0.870435 -2.17855 0
M  V30 7909 C 755.757 0.154452 -1.73313 0
M  V30 7910 O 756.933 -0.0203759 -2.0139 0
M  V30 7911 C 753.998 -0.367219 -3.4475 0
M  V30 7912 C 753.059 -1.45639 -4.03841 0
M  V30 7913 C 752.292 -0.977092 -5.2468 0
M  V30 7914 O 752.515 0.176127 -5.70128 0
M  V30 7915 O 751.449 -1.76215 -5.75527 0
M  V30 7916 H 755.275 -1.79687 -2.44839 0
M  V30 7917 H 752.86 -0.936064 -1.1644 0
M  V30 7918 H 754.742 -0.0931947 -4.21297 0
M  V30 7919 H 753.417 0.53131 -3.1931 0
M  V30 7920 H 752.324 -1.78406 -3.28819 0
M  V30 7921 H 753.657 -2.32995 -4.3356 0
M  V30 7922 N 755.309 1.25446 -0.953992 0
M  V30 7923 C 756.219 2.29632 -0.480264 0
M  V30 7924 C 757.235 1.68025 0.452071 0
M  V30 7925 O 758.411 1.98703 0.328472 0
M  V30 7926 C 755.476 3.45903 0.234974 0
M  V30 7927 C 754.537 4.22953 -0.735495 0
M  V30 7928 C 753.77 5.33672 -0.0542957 0
M  V30 7929 O 753.993 5.58477 1.16018 0
M  V30 7930 O 752.927 5.9734 -0.739509 0
M  V30 7931 H 756.753 2.72242 -1.34602 0
M  V30 7932 H 754.338 1.30883 -0.720419 0
M  V30 7933 H 756.22 4.16552 0.637341 0
M  V30 7934 H 754.895 3.05296 1.07592 0
M  V30 7935 H 753.802 3.54734 -1.18806 0
M  V30 7936 H 755.135 4.67341 -1.54444 0
M  V30 7937 N 756.787 0.722489 1.40064 0
M  V30 7938 C 758.015 0.274838 2.05066 0
M  V30 7939 C 758.43 -1.08586 1.54449 0
M  V30 7940 O 757.787 -1.68375 0.704003 0
M  V30 7941 C 757.838 0.253673 3.60609 0
M  V30 7942 O 757.559 1.56064 4.0936 0
M  V30 7943 C 759.06 -0.211684 4.42794 0
M  V30 7944 H 756.28 0.12226 0.659768 0
M  V30 7945 H 758.824 0.982632 1.79345 0
M  V30 7946 H 756.979 -0.405137 3.85276 0
M  V30 7947 H 757.393 1.46576 5.03603 0
M  V30 7948 H 758.867 -0.175341 5.51721 0
M  V30 7949 H 759.344 -1.25493 4.2089 0
M  V30 7950 H 759.95 0.4171 4.2325 0
M  V30 7951 N 758.265 -1.50454 0.469181 0
M  V30 7952 C 759.49 -2.0722 -0.0864892 0
M  V30 7953 C 759.915 -1.33098 -1.32916 0
M  V30 7954 O 759.273 -0.378084 -1.77314 0
M  V30 7955 C 759.321 -3.58845 -0.355384 0
M  V30 7956 O 758.425 -3.86583 -1.43622 0
M  V30 7957 H 757.766 -0.663889 0.0121414 0
M  V30 7958 H 760.296 -1.93674 0.659674 0
M  V30 7959 H 760.306 -4.03617 -0.596447 0
M  V30 7960 H 758.981 -4.12211 0.552698 0
M  V30 7961 H 757.558 -3.5365 -1.18262 0
M  V30 7962 N 759.743 -0.201713 -1.56304 0
M  V30 7963 C 761.154 0.309711 -1.84113 0
M  V30 7964 C 761.505 1.60912 -1.12258 0
M  V30 7965 O 760.63 2.12937 -0.385587 0
M  V30 7966 C 761.225 0.568706 -3.33993 0
M  V30 7967 C 759.784 1.02448 -3.6219 0
M  V30 7968 C 758.931 0.0766842 -2.77194 0
M  V30 7969 H 761.882 -0.425356 -1.52893 0
M  V30 7970 H 761.903 1.41721 -3.53122 0
M  V30 7971 H 761.415 -0.37719 -3.86263 0
M  V30 7972 H 759.516 1.98443 -3.15359 0
M  V30 7973 H 759.629 0.912619 -4.70328 0
M  V30 7974 H 757.993 0.579809 -2.48013 0
M  V30 7975 H 758.776 -0.863774 -3.32256 0
M  V30 7976 N 761.222 1.57436 0.0718424 0
M  V30 7977 C 762.638 1.53792 0.426628 0
M  V30 7978 C 762.838 0.921887 1.79174 0
M  V30 7979 O 761.894 0.524374 2.46995 0
M  V30 7980 C 763.207 2.98443 0.367739 0
M  V30 7981 C 764.755 3.09778 0.447928 0
M  V30 7982 C 765.23 4.5608 0.418946 0
M  V30 7983 N 766.721 4.60716 0.479022 0
M  V30 7984 C 767.456 5.71397 0.47881 0
M  V30 7985 N 766.952 6.91443 0.433417 0
M  V30 7986 N 768.745 5.59639 0.525364 0
M  V30 7987 H 760.896 1.95848 -0.822033 0
M  V30 7988 H 763.159 0.896418 -0.308447 0
M  V30 7989 H 762.865 3.47072 -0.56865 0
M  V30 7990 H 762.739 3.58335 1.17795 0
M  V30 7991 H 765.126 2.61122 1.37474 0
M  V30 7992 H 765.207 2.52796 -0.390857 0
M  V30 7993 H 764.851 5.05393 -0.504016 0
M  V30 7994 H 764.781 5.10925 1.27526 0
M  V30 7995 H 767.272 3.74328 0.518355 0
M  V30 7996 H 767.585 7.71562 0.43718 0
M  V30 7997 H 765.93 6.93847 0.400106 0
M  V30 7998 H 769.121 4.64756 0.558519 0
M  V30 7999 H 769.294 6.45896 0.52173 0
M  V30 8000 N 762.7 -0.34323 1.53817 0
M  V30 8001 C 763.977 -1.10047 1.61706 0
M  V30 8002 C 764.357 -2.06495 0.438514 0
M  V30 8003 O 763.705 -2.21297 -0.569188 0
M  V30 8004 C 763.915 -1.81985 2.97796 0
M  V30 8005 C 765.263 -2.35717 3.53161 0
M  V30 8006 O 766.287 -1.9208 2.99973 0
M  V30 8007 O 765.146 -3.15551 4.46195 0
M  V30 8008 H 762.24 -0.506096 0.654061 0
M  V30 8009 H 764.786 -0.344697 1.66162 0
M  V30 8010 H 763.558 -1.11722 3.75012 0
M  V30 8011 H 763.181 -2.64419 2.96931 0
M  V30 8012 N 764.178 -1.45556 -0.604258 0
M  V30 8013 C 765.403 -1.53509 -1.39462 0
M  V30 8014 C 765.828 -0.169638 -1.87333 0
M  V30 8015 O 765.186 0.846346 -1.60333 0
M  V30 8016 C 765.234 -2.52654 -2.5729 0
M  V30 8017 O 764.338 -2.04666 -3.5803 0
M  V30 8018 H 763.679 -0.517355 -0.416221 0
M  V30 8019 H 766.209 -1.90939 -0.735072 0
M  V30 8020 H 766.219 -2.71568 -3.04491 0
M  V30 8021 H 764.894 -3.51823 -2.21797 0
M  V30 8022 H 763.471 -1.95643 -3.17456 0
M  V30 8023 N 765.656 0.84705 -1.32902 0
M  V30 8024 C 766.884 1.63403 -1.26913 0
M  V30 8025 C 767.299 1.88108 0.161483 0
M  V30 8026 O 766.656 1.45546 1.10103 0
M  V30 8027 C 766.707 2.98896 -2.03331 0
M  V30 8028 O 766.428 2.75281 -3.40811 0
M  V30 8029 C 767.929 3.93335 -2.04457 0
M  V30 8030 H 765.149 0.508701 -0.437566 0
M  V30 8031 H 767.693 1.05567 -1.75145 0
M  V30 8032 H 765.848 3.53356 -1.58802 0
M  V30 8033 H 766.262 3.61504 -3.8002 0
M  V30 8034 H 767.736 4.85647 -2.62394 0
M  V30 8035 H 768.213 4.26885 -1.03274 0
M  V30 8036 H 768.819 3.44812 -2.48967 0
M  V30 8037 N 767.134 1.16236 1.06428 0
M  V30 8038 C 768.374 0.95369 1.80787 0
M  V30 8039 C 768.738 -0.509495 1.85117 0
M  V30 8040 O 769.939 -0.836822 2.55442 0
M  V30 8041 C 768.21 1.56235 3.21443 0
M  V30 8042 S 769.769 1.49812 4.12434 0
M  V30 8043 H 766.587 0.343004 0.622792 0
M  V30 8044 H 769.189 1.47957 1.27785 0
M  V30 8045 H 767.893 2.62 3.15886 0
M  V30 8046 H 767.424 1.03574 3.79521 0
M  V30 8047 H 769.439 0.49745 4.937 0
M  V30 8048 N 768.612 -1.24939 0.960631 0
M  V30 8049 C 769.837 -1.9742 0.635608 0
M  V30 8050 C 770.262 -1.70857 -0.786737 0
M  V30 8051 O 769.62 -0.968063 -1.53291 0
M  V30 8052 C 769.668 -3.48987 0.907771 0
M  V30 8053 O 768.772 -4.12399 -0.0104053 0
M  V30 8054 H 768.113 -0.61871 0.241027 0
M  V30 8055 H 770.643 -1.58901 1.28886 0
M  V30 8056 H 770.653 -3.99334 0.836453 0
M  V30 8057 H 769.328 -3.6765 1.94439 0
M  V30 8058 H 767.905 -3.72727 0.113631 0
M  V30 8059 N 770.09 -0.729906 -1.39679 0
M  V30 8060 C 771.367 -0.202149 -1.94553 0
M  V30 8061 C 771.747 1.29507 -1.66707 0
M  V30 8062 O 771.095 2.05819 -0.992517 0
M  V30 8063 C 771.305 -0.530279 -3.44948 0
M  V30 8064 C 772.653 -0.476808 -4.21914 0
M  V30 8065 O 773.677 -0.467171 -3.53123 0
M  V30 8066 O 772.536 -0.466869 -5.44502 0
M  V30 8067 H 769.63 -0.0351644 -0.826252 0
M  V30 8068 H 772.176 -0.808417 -1.49207 0
M  V30 8069 H 770.948 -1.56526 -3.5863 0
M  V30 8070 H 770.571 0.10522 -3.97461 0
M  V30 8071 N 771.568 1.50203 -0.477153 0
M  V30 8072 C 772.796 2.0677 0.0732489 0
M  V30 8073 C 773.211 1.34033 1.32968 0
M  V30 8074 O 772.568 0.411412 1.77802 0
M  V30 8075 C 772.619 3.59751 0.35518 0
M  V30 8076 O 772.34 4.29747 -0.851425 0
M  V30 8077 C 773.841 4.3296 0.951877 0
M  V30 8078 H 771.061 0.670929 -0.00978923 0
M  V30 8079 H 773.605 1.93293 -0.667676 0
M  V30 8080 H 771.76 3.7301 1.04605 0
M  V30 8081 H 772.174 5.2106 -0.599708 0
M  V30 8082 H 773.648 5.40952 1.09888 0
M  V30 8083 H 774.125 3.93856 1.94356 0
M  V30 8084 H 774.731 4.24246 0.299208 0
M  V30 8085 N 773.046 0.209999 1.56195 0
M  V30 8086 C 774.271 -0.433064 2.02828 0
M  V30 8087 C 774.696 -1.5337 1.08901 0
M  V30 8088 O 774.054 -1.81144 0.0751132 0
M  V30 8089 C 774.102 -0.952635 3.47789 0
M  V30 8090 O 773.206 -2.0647 3.56993 0
M  V30 8091 H 772.547 -0.0994594 0.656509 0
M  V30 8092 H 775.077 0.32525 2.01998 0
M  V30 8093 H 775.087 -1.26542 3.8788 0
M  V30 8094 H 773.762 -0.147007 4.1564 0
M  V30 8095 H 772.339 -1.75942 3.28784 0
M  V30 8096 N 774.524 -1.57472 -0.0634922 0
M  V30 8097 C 775.935 -1.76303 -0.614337 0
M  V30 8098 C 776.286 -0.836578 -1.77471 0
M  V30 8099 O 775.411 -0.0227184 -2.16388 0
M  V30 8100 C 776.006 -3.19709 -1.12122 0
M  V30 8101 C 774.565 -3.39856 -1.61786 0
M  V30 8102 C 773.712 -2.71975 -0.540845 0
M  V30 8103 H 776.663 -1.57864 0.162702 0
M  V30 8104 H 776.684 -3.24326 -1.98979 0
M  V30 8105 H 776.196 -3.87114 -0.276472 0
M  V30 8106 H 774.297 -2.77578 -2.48558 0
M  V30 8107 H 774.41 -4.48338 -1.68908 0
M  V30 8108 H 772.774 -2.34763 -0.987854 0
M  V30 8109 H 773.557 -3.4204 0.293856 0
M  V30 8110 N 776.003 0.335068 -1.53997 0
M  V30 8111 C 777.414 0.910191 -1.6301 0
M  V30 8112 C 777.765 1.89271 -0.516809 0
M  V30 8113 O 776.89 2.13516 0.352123 0
M  V30 8114 C 777.485 1.65761 -2.9548 0
M  V30 8115 C 776.044 2.18163 -3.06728 0
M  V30 8116 C 775.191 1.00338 -2.5851 0
M  V30 8117 H 778.142 0.112965 -1.58297 0
M  V30 8118 H 778.163 2.52107 -2.84995 0
M  V30 8119 H 777.675 0.94227 -3.76488 0
M  V30 8120 H 775.776 2.92847 -2.30372 0
M  V30 8121 H 775.889 2.43952 -4.1234 0
M  V30 8122 H 774.253 1.37925 -2.14124 0
M  V30 8123 H 775.036 0.30254 -3.41964 0
M  V30 8124 N 777.481 1.45874 0.596531 0
M  V30 8125 C 778.444 1.54988 1.68853 0
M  V30 8126 C 779.444 0.428302 1.54991 0
M  V30 8127 O 780.634 0.692158 1.59859 0
M  V30 8128 C 777.766 1.457 3.08195 0
M  V30 8129 H 778.959 2.52294 1.62135 0
M  V30 8130 H 776.512 1.33479 0.813206 0
M  V30 8131 H 777.247 0.496204 3.20481 0
M  V30 8132 H 777.032 2.27061 3.19665 0
M  V30 8133 H 778.522 1.55133 3.87716 0
M  V30 8134 N 778.959 -0.83999 1.33349 0
M  V30 8135 C 780.375 -1.13049 1.12659 0
M  V30 8136 C 780.575 -2.01328 -0.0832613 0
M  V30 8137 O 779.631 -2.40669 -0.763856 0
M  V30 8138 C 780.944 -1.79366 2.41347 0
M  V30 8139 C 782.492 -1.91937 2.47243 0
M  V30 8140 C 782.967 -2.6167 3.75889 0
M  V30 8141 N 784.458 -2.69184 3.76954 0
M  V30 8142 C 785.193 -3.23827 4.73206 0
M  V30 8143 N 784.689 -3.79166 5.79832 0
M  V30 8144 N 786.482 -3.22068 4.60683 0
M  V30 8145 H 778.633 -0.252432 2.10895 0
M  V30 8146 H 780.896 -0.174501 0.931801 0
M  V30 8147 H 780.602 -1.2196 3.29877 0
M  V30 8148 H 780.476 -2.79396 2.53412 0
M  V30 8149 H 782.863 -2.48498 1.59163 0
M  V30 8150 H 782.944 -0.908604 2.39119 0
M  V30 8151 H 782.588 -2.05769 4.64351 0
M  V30 8152 H 782.518 -3.63217 3.81289 0
M  V30 8153 H 785.009 -2.2994 2.99893 0
M  V30 8154 H 785.322 -4.19061 6.49313 0
M  V30 8155 H 783.667 -3.77457 5.83568 0
M  V30 8156 H 786.858 -2.78092 3.7654 0
M  V30 8157 H 787.031 -3.64351 5.35866 0
M  V30 8158 N 780.437 -1.16799 -1.0581 0
M  V30 8159 C 781.347 -0.893492 -2.16919 0
M  V30 8160 C 782.363 0.136061 -1.73467 0
M  V30 8161 O 783.539 -0.0417348 -2.01357 0
M  V30 8162 C 780.604 -0.403763 -3.44341 0
M  V30 8163 C 779.665 -1.49914 -4.02274 0
M  V30 8164 C 778.898 -1.03269 -5.23614 0
M  V30 8165 O 779.121 0.115647 -5.70283 0
M  V30 8166 O 778.055 -1.8231 -5.73626 0
M  V30 8167 H 781.881 -1.82274 -2.42919 0
M  V30 8168 H 779.466 -0.948361 -1.1544 0
M  V30 8169 H 781.348 -0.137874 -4.21174 0
M  V30 8170 H 780.023 0.497413 -3.19855 0
M  V30 8171 H 778.93 -1.81883 -3.26909 0
M  V30 8172 H 780.263 -2.3758 -4.31064 0
M  V30 8173 N 781.915 1.24427 -0.967243 0
M  V30 8174 C 782.825 2.29109 -0.504592 0
M  V30 8175 C 783.841 1.68495 0.434224 0
M  V30 8176 O 785.017 1.99041 0.307379 0
M  V30 8177 C 782.082 3.46133 0.198273 0
M  V30 8178 C 781.143 4.22149 -0.780313 0
M  V30 8179 C 780.376 5.33585 -0.110896 0
M  V30 8180 O 780.599 5.59676 1.10088 0
M  V30 8181 O 779.533 5.96522 -0.802823 0
M  V30 8182 H 783.359 2.708 -1.37482 0
M  V30 8183 H 780.944 1.30111 -0.73426 0
M  V30 8184 H 782.826 4.17205 0.593124 0
M  V30 8185 H 781.501 3.0642 1.04347 0
M  V30 8186 H 780.408 3.53454 -1.22561 0
M  V30 8187 H 781.741 4.65677 -1.59392 0
M  V30 8188 N 783.393 0.737304 1.3929 0
M  V30 8189 C 784.641 0.285691 2.00071 0
M  V30 8190 C 784.962 -1.13169 1.58801 0
M  V30 8191 O 784.232 -1.77104 0.837308 0
M  V30 8192 H 782.812 0.102638 0.739915 0
M  V30 8193 H 785.474 0.947775 1.70303 0
M  V30 8194 H 784.57 0.335906 3.10287 0
M  V30 8195 N 784.871 -1.49948 0.485112 0
M  V30 8196 C 785.804 -2.25531 -0.348027 0
M  V30 8197 C 786.782 -1.29433 -0.984172 0
M  V30 8198 O 787.966 -1.58687 -1.01738 0
M  V30 8199 C 785.093 -3.04225 -1.48878 0
M  V30 8200 C 784.139 -4.15355 -0.968616 0
M  V30 8201 S 784.972 -5.35347 0.127934 0
M  V30 8202 C 786.128 -6.17593 -1.01637 0
M  V30 8203 H 786.361 -2.95847 0.293529 0
M  V30 8204 H 783.894 -1.52018 0.27018 0
M  V30 8205 H 785.852 -3.50153 -2.14251 0
M  V30 8206 H 784.513 -2.33407 -2.1019 0
M  V30 8207 H 783.706 -4.69873 -1.82305 0
M  V30 8208 H 783.308 -3.71936 -0.392377 0
M  V30 8209 H 785.6 -6.49576 -1.92503 0
M  V30 8210 H 786.543 -7.0626 -0.510149 0
M  V30 8211 H 786.951 -5.49877 -1.27653 0
M  V30 8212 N 786.349 -0.21828 -1.56081 0
M  V30 8213 C 787.598 0.414644 -1.97392 0
M  V30 8214 C 787.911 1.61132 -1.10887 0
M  V30 8215 O 789.117 2.31355 -1.42082 0
M  V30 8216 C 787.573 0.789099 -3.51143 0
M  V30 8217 C 787.181 -0.384578 -4.46346 0
M  V30 8218 C 788.925 1.38781 -4.01173 0
M  V30 8219 C 786.832 0.0121288 -5.91399 0
M  V30 8220 H 785.762 0.158691 -0.737111 0
M  V30 8221 H 788.413 -0.313974 -1.80794 0
M  V30 8222 H 786.795 1.57505 -3.6333 0
M  V30 8223 H 787.969 -1.16212 -4.45905 0
M  V30 8224 H 786.284 -0.896306 -4.06639 0
M  V30 8225 H 788.881 1.69746 -5.07041 0
M  V30 8226 H 789.224 2.30245 -3.46833 0
M  V30 8227 H 789.757 0.665364 -3.92196 0
M  V30 8228 H 786.496 -0.868917 -6.49715 0
M  V30 8229 H 786.016 0.754053 -5.95041 0
M  V30 8230 H 787.695 0.439949 -6.45502 0
M  V30 8231 N 787.827 1.57504 0.0551401 0
M  V30 8232 C 788.737 2.08198 1.08124 0
M  V30 8233 C 789.753 1.01496 1.41331 0
M  V30 8234 O 790.929 1.33073 1.51174 0
M  V30 8235 C 787.994 2.52968 2.37083 0
M  V30 8236 C 787.055 3.7404 2.10696 0
M  V30 8237 C 786.288 4.16665 3.33505 0
M  V30 8238 O 786.511 3.59019 4.4324 0
M  V30 8239 O 785.445 5.09324 3.20737 0
M  V30 8240 H 789.271 2.95977 0.680518 0
M  V30 8241 H 786.856 1.46933 0.270401 0
M  V30 8242 H 788.738 2.82211 3.12946 0
M  V30 8243 H 787.413 1.6831 2.76502 0
M  V30 8244 H 786.32 3.49855 1.32484 0
M  V30 8245 H 787.653 4.59601 1.76148 0
M  V30 8246 N 789.305 -0.326896 1.54172 0
M  V30 8247 C 790.721 -0.671034 1.44808 0
M  V30 8248 C 790.921 -1.91781 0.618258 0
M  V30 8249 O 789.977 -2.52235 0.115751 0
M  V30 8250 C 791.29 -0.848147 2.88491 0
M  V30 8251 C 792.838 -0.945702 2.98371 0
M  V30 8252 C 793.313 -1.15501 4.43197 0
M  V30 8253 N 794.804 -1.22183 4.46795 0
M  V30 8254 C 795.539 -1.4016 5.56006 0
M  V30 8255 N 795.035 -1.55202 6.75192 0
M  V30 8256 N 796.828 -1.42841 5.43648 0
M  V30 8257 H 788.979 0.49262 2.06608 0
M  V30 8258 H 791.242 0.158574 0.934643 0
M  V30 8259 H 790.948 -0.00329969 3.517 0
M  V30 8260 H 790.822 -1.74497 3.34411 0
M  V30 8261 H 793.209 -1.78106 2.35292 0
M  V30 8262 H 793.29 -0.0254215 2.55787 0
M  V30 8263 H 792.934 -0.324521 5.06862 0
M  V30 8264 H 792.864 -2.08911 4.83388 0
M  V30 8265 H 795.355 -1.12016 3.60917 0
M  V30 8266 H 795.668 -1.68601 7.54184 0
M  V30 8267 H 794.013 -1.52306 6.78106 0
M  V30 8268 H 797.204 -1.30683 4.49488 0
M  V30 8269 H 797.377 -1.56509 6.28816 0
M  V30 8270 N 790.784 -1.46188 -0.588786 0
M  V30 8271 C 791.731 -1.56292 -1.69828 0
M  V30 8272 C 792.701 -0.407581 -1.61022 0
M  V30 8273 O 793.886 -0.623532 -1.80324 0
M  V30 8274 C 791.026 -1.55341 -3.08161 0
M  V30 8275 C 790.139 -2.81564 -3.27636 0
M  V30 8276 C 789.274 -2.72158 -4.56183 0
M  V30 8277 C 788.313 -3.93348 -4.68981 0
M  V30 8278 N 787.45 -3.82365 -5.88848 0
M  V30 8279 H 792.29 -2.51066 -1.6053 0
M  V30 8280 H 789.827 -1.24562 -0.782474 0
M  V30 8281 H 791.785 -1.52776 -3.88221 0
M  V30 8282 H 790.415 -0.641034 -3.16371 0
M  V30 8283 H 789.467 -2.94136 -2.41223 0
M  V30 8284 H 790.779 -3.714 -3.32962 0
M  V30 8285 H 789.933 -2.67665 -5.44464 0
M  V30 8286 H 788.672 -1.79953 -4.53286 0
M  V30 8287 H 787.677 -3.98181 -3.7912 0
M  V30 8288 H 788.902 -4.86643 -4.73662 0
M  V30 8289 H 786.848 -2.92942 -5.86959 0
M  V30 8290 H 786.765 -4.65851 -5.95415 0
M  V30 8291 H 788.033 -3.81836 -6.79575 0
M  V30 8292 N 792.262 0.832906 -1.33792 0
M  V30 8293 C 793.678 1.1245 -1.13257 0
M  V30 8294 C 793.878 2.01369 0.0725832 0
M  V30 8295 O 792.934 2.41071 0.751082 0
M  V30 8296 C 794.247 1.78084 -2.42294 0
M  V30 8297 C 795.795 1.90624 -2.48257 0
M  V30 8298 C 796.27 2.59673 -3.77271 0
M  V30 8299 N 797.761 2.67181 -3.78376 0
M  V30 8300 C 798.496 3.21313 -4.74916 0
M  V30 8301 N 797.992 3.76086 -5.81835 0
M  V30 8302 N 799.785 3.19621 -4.62384 0
M  V30 8303 H 791.936 0.241244 -2.11026 0
M  V30 8304 H 794.199 0.169557 -0.932713 0
M  V30 8305 H 793.905 1.20209 -3.30519 0
M  V30 8306 H 793.779 2.78049 -2.5489 0
M  V30 8307 H 796.166 2.4765 -1.60478 0
M  V30 8308 H 796.247 0.89591 -2.39598 0
M  V30 8309 H 795.891 2.03304 -4.65435 0
M  V30 8310 H 795.821 3.61189 -3.8321 0
M  V30 8311 H 798.312 2.28346 -3.01108 0
M  V30 8312 H 798.625 4.15612 -6.51526 0
M  V30 8313 H 796.97 3.74357 -5.85561 0
M  V30 8314 H 800.161 2.76091 -3.7801 0
M  V30 8315 H 800.334 3.61504 -5.37791 0
M  V30 8316 N 793.74 1.17359 1.05189 0
M  V30 8317 C 794.703 0.892604 2.11105 0
M  V30 8318 C 795.703 -0.117236 1.60372 0
M  V30 8319 O 796.893 0.114936 1.7382 0
M  V30 8320 C 794.025 0.337032 3.3923 0
M  V30 8321 H 795.218 1.83169 2.37464 0
M  V30 8322 H 792.771 0.984051 1.21434 0
M  V30 8323 H 793.506 -0.609198 3.18527 0
M  V30 8324 H 793.291 1.06484 3.77364 0
M  V30 8325 H 794.781 0.158763 4.17298 0
M  V30 8326 N 795.218 -1.23913 0.973828 0
M  V30 8327 C 796.495 -1.87539 0.555729 0
M  V30 8328 C 796.875 -1.87641 -0.967162 0
M  V30 8329 O 796.223 -1.35335 -1.84111 0
M  V30 8330 C 796.433 -3.29359 1.15427 0
M  V30 8331 C 797.781 -4.06 1.24294 0
M  V30 8332 O 798.805 -3.38554 1.10723 0
M  V30 8333 O 797.664 -5.26689 1.45813 0
M  V30 8334 H 794.758 -0.805769 0.186188 0
M  V30 8335 H 797.304 -1.31838 1.06849 0
M  V30 8336 H 796.076 -3.23817 2.19678 0
M  V30 8337 H 795.699 -3.92642 0.625925 0
M  V30 8338 N 796.696 -0.74468 -1.38897 0
M  V30 8339 C 797.921 -0.306119 -2.05128 0
M  V30 8340 C 798.346 1.0541 -1.55789 0
M  V30 8341 O 797.704 1.66993 -0.705909 0
M  V30 8342 C 797.752 -0.328195 -3.59103 0
M  V30 8343 O 796.856 0.680876 -4.06741 0
M  V30 8344 H 796.197 -0.137209 -0.649669 0
M  V30 8345 H 798.727 -1.01331 -1.77745 0
M  V30 8346 H 798.737 -0.175956 -4.0762 0
M  V30 8347 H 797.412 -1.32067 -3.94374 0
M  V30 8348 H 795.989 0.49398 -3.69614 0
M  V30 8349 N 798.174 1.49689 -0.493057 0
M  V30 8350 C 799.121 2.28976 0.28959 0
M  V30 8351 C 800.091 1.35011 0.967536 0
M  V30 8352 O 801.276 1.63964 0.975736 0
M  V30 8353 C 798.416 3.1748 1.35279 0
M  V30 8354 C 797.529 4.26496 0.687418 0
M  V30 8355 C 796.664 5.02226 1.73038 0
M  V30 8356 C 795.703 6.03089 1.04645 0
M  V30 8357 N 794.84 6.72014 2.03325 0
M  V30 8358 H 799.68 2.954 -0.392798 0
M  V30 8359 H 797.217 1.45657 -0.205554 0
M  V30 8360 H 799.175 3.67162 1.98111 0
M  V30 8361 H 797.805 2.53057 2.00405 0
M  V30 8362 H 796.857 3.80362 -0.0540001 0
M  V30 8363 H 798.169 4.98578 0.14864 0
M  V30 8364 H 797.323 5.55737 2.43395 0
M  V30 8365 H 796.062 4.29899 2.303 0
M  V30 8366 H 795.067 5.48817 0.328606 0
M  V30 8367 H 796.292 6.77398 0.480428 0
M  V30 8368 H 794.238 6.02464 2.59564 0
M  V30 8369 H 794.155 7.40046 1.54492 0
M  V30 8370 H 795.423 7.30133 2.72995 0
M  V30 8371 N 799.652 0.226554 1.55963 0
M  V30 8372 C 800.584 -0.713907 2.17798 0
M  V30 8373 C 801.597 -1.15387 1.14846 0
M  V30 8374 O 802.786 -1.08416 1.41804 0
M  V30 8375 C 799.886 -1.97945 2.75084 0
M  V30 8376 C 799.059 -1.69424 4.03255 0
M  V30 8377 C 798.118 -2.80734 4.45056 0
M  V30 8378 O 797.144 -2.4899 5.11852 0
M  V30 8379 N 798.346 -4.09797 4.11152 0
M  V30 8380 H 801.111 -0.18494 2.99129 0
M  V30 8381 H 798.672 0.0457346 1.61835 0
M  V30 8382 H 800.664 -2.71611 3.00016 0
M  V30 8383 H 799.234 -2.41876 1.98027 0
M  V30 8384 H 798.454 -0.793767 3.86126 0
M  V30 8385 H 799.742 -1.47806 4.86858 0
M  V30 8386 H 799.14 -4.38429 3.57486 0
M  V30 8387 H 797.697 -4.79992 4.40966 0
M  V30 8388 N 801.13 -1.57531 -0.0467866 0
M  V30 8389 C 802.078 -2.06455 -1.0714 0
M  V30 8390 C 803.072 -0.974744 -1.38546 0
M  V30 8391 O 804.278 -1.15974 -1.37659 0
M  V30 8392 H 800.653 -0.658607 -0.362962 0
M  V30 8393 H 802.624 -2.91613 -0.632813 0
M  V30 8394 C 801.373 -2.54481 -2.36927 0
M  V30 8395 H 800.696 -3.37946 -2.13617 0
M  V30 8396 H 802.136 -2.92442 -3.07007 0
M  V30 8397 C 800.595 -1.43836 -3.04652 0
M  V30 8398 O 801.125 -0.794531 -3.93764 0
M  V30 8399 N 799.331 -1.17727 -2.65686 0
M  V30 8400 H 798.878 -1.70265 -1.93307 0
M  V30 8401 H 798.836 -0.439051 -3.11319 0
M  V30 8402 N 802.608 0.318715 -1.54344 0
M  V30 8403 C 803.856 1.054 -1.72439 0
M  V30 8404 C 804.177 1.88388 -0.503495 0
M  V30 8405 O 803.447 1.89866 0.48246 0
M  V30 8406 H 802.027 0.392124 -0.635805 0
M  V30 8407 H 804.689 0.35398 -1.91659 0
M  V30 8408 H 803.785 1.71726 -2.60608 0
M  V30 8409 N 804.086 1.46499 0.581025 0
M  V30 8410 C 805.363 1.42372 1.34125 0
M  V30 8411 C 805.743 0.108073 2.10823 0
M  V30 8412 O 805.091 -0.910366 2.09582 0
M  V30 8413 C 805.301 2.65445 2.26583 0
M  V30 8414 C 806.649 3.11664 2.88359 0
M  V30 8415 O 807.673 2.66006 2.36896 0
M  V30 8416 O 806.532 3.90974 3.81839 0
M  V30 8417 H 803.626 0.566262 0.602724 0
M  V30 8418 H 806.172 1.58667 0.601903 0
M  V30 8419 H 804.944 3.52756 1.69348 0
M  V30 8420 H 804.567 2.51618 3.07854 0
M  V30 8421 N 805.565 -0.825799 1.34232 0
M  V30 8422 C 806.528 -1.91808 1.25468 0
M  V30 8423 C 807.528 -1.59893 0.170567 0
M  V30 8424 O 808.718 -1.68986 0.422996 0
M  V30 8425 C 805.85 -3.27786 0.93644 0
M  V30 8426 H 807.043 -2.01003 2.22571 0
M  V30 8427 H 804.596 -1.01944 1.18479 0
M  V30 8428 H 805.331 -3.24285 -0.0315408 0
M  V30 8429 H 805.116 -3.52333 1.72057 0
M  V30 8430 H 806.606 -4.07782 0.900214 0
M  V30 8431 N 807.043 -1.17915 -1.04565 0
M  V30 8432 C 807.991 -0.897919 -2.1457 0
M  V30 8433 C 808.985 0.139883 -1.68821 0
M  V30 8434 O 810.191 -0.00779463 -1.79998 0
M  V30 8435 H 806.566 -0.272867 -0.700748 0
M  V30 8436 H 808.537 -1.83268 -2.3549 0
M  V30 8437 C 807.286 -0.434634 -3.44973 0
M  V30 8438 H 806.609 -1.22469 -3.8058 0
M  V30 8439 H 808.049 -0.276804 -4.23095 0
M  V30 8440 C 806.508 0.848738 -3.26034 0
M  V30 8441 O 807.038 1.9141 -3.53164 0
M  V30 8442 N 805.244 0.799373 -2.79389 0
M  V30 8443 H 804.791 -0.0678192 -2.57511 0
M  V30 8444 H 804.749 1.6585 -2.67098 0
M  V30 8445 N 808.521 1.23394 -0.980386 0
M  V30 8446 C 809.484 2.23092 -0.525619 0
M  V30 8447 C 810.484 1.56129 0.384745 0
M  V30 8448 O 811.674 1.73284 0.178439 0
M  V30 8449 C 808.806 3.40074 0.23712 0
M  V30 8450 H 809.999 2.64839 -1.40714 0
M  V30 8451 H 807.552 1.36227 -0.766275 0
M  V30 8452 H 808.287 3.03783 1.13518 0
M  V30 8453 H 808.072 3.89883 -0.416356 0
M  V30 8454 H 809.562 4.14043 0.543892 0
M  V30 8455 N 809.999 0.752036 1.385 0
M  V30 8456 C 811.245 0.307958 2.00448 0
M  V30 8457 C 811.578 -1.10702 1.59558 0
M  V30 8458 O 810.853 -1.75788 0.832391 0
M  V30 8459 C 811.136 0.429092 3.57534 0
M  V30 8460 C 810.989 1.88507 4.08393 0
M  V30 8461 C 812.308 -0.178442 4.39738 0
M  V30 8462 H 809.427 0.113373 0.728228 0
M  V30 8463 H 812.069 0.951389 1.64465 0
M  V30 8464 H 810.219 -0.118695 3.88319 0
M  V30 8465 H 811.891 2.49104 3.88259 0
M  V30 8466 H 810.134 2.40066 3.61318 0
M  V30 8467 H 810.805 1.92099 5.17496 0
M  V30 8468 H 813.281 0.28872 4.15097 0
M  V30 8469 H 812.157 -0.0634349 5.48863 0
M  V30 8470 H 812.418 -1.26655 4.23569 0
M  V30 8471 N 811.477 -1.49425 0.500989 0
M  V30 8472 C 812.407 -2.31971 -0.266775 0
M  V30 8473 C 813.388 -1.40245 -0.962563 0
M  V30 8474 O 814.573 -1.69154 -0.953968 0
M  V30 8475 C 811.703 -3.20757 -1.33163 0
M  V30 8476 C 810.657 -4.21275 -0.75572 0
M  V30 8477 C 809.983 -4.98997 -1.92109 0
M  V30 8478 C 811.283 -5.21686 0.253213 0
M  V30 8479 H 812.977 -2.96408 0.422237 0
M  V30 8480 H 810.523 -1.4254 0.204505 0
M  V30 8481 H 812.476 -3.77315 -1.87646 0
M  V30 8482 H 811.2 -2.54263 -2.04983 0
M  V30 8483 H 809.859 -3.65861 -0.232637 0
M  V30 8484 H 809.507 -4.28951 -2.62698 0
M  V30 8485 H 809.207 -5.67011 -1.54182 0
M  V30 8486 H 810.731 -5.584 -2.47026 0
M  V30 8487 H 812.145 -5.72939 -0.203483 0
M  V30 8488 H 810.542 -5.9759 0.548322 0
M  V30 8489 H 811.612 -4.70596 1.16909 0
M  V30 8490 N 812.955 -0.234822 -1.55841 0
M  V30 8491 C 814.18 0.400741 -2.03492 0
M  V30 8492 C 814.605 1.51618 -1.11327 0
M  V30 8493 O 813.963 1.81002 -0.103922 0
M  V30 8494 C 814.011 0.897184 -3.49261 0
M  V30 8495 O 813.115 2.00764 -3.60233 0
M  V30 8496 H 812.456 0.0890023 -0.658008 0
M  V30 8497 H 814.986 -0.357345 -2.01455 0
M  V30 8498 H 814.996 1.20356 -3.89844 0
M  V30 8499 H 813.671 0.0808639 -4.15821 0
M  V30 8500 H 812.248 1.70689 -3.31541 0
M  V30 8501 N 814.433 1.57553 0.0384317 0
M  V30 8502 C 815.71 1.79977 0.766002 0
M  V30 8503 C 816.09 0.830625 1.94072 0
M  V30 8504 O 815.438 -0.129243 2.28134 0
M  V30 8505 C 815.648 3.27434 1.20781 0
M  V30 8506 C 816.996 3.92167 1.62758 0
M  V30 8507 O 818.02 3.31527 1.30263 0
M  V30 8508 O 816.879 4.98917 2.23035 0
M  V30 8509 H 813.973 0.739787 0.369654 0
M  V30 8510 H 816.519 1.69693 0.0159312 0
M  V30 8511 H 815.291 3.89558 0.368792 0
M  V30 8512 H 814.914 3.42571 2.01819 0
M  V30 8513 N 815.911 -0.310526 1.54511 0
M  V30 8514 C 816.821 -1.4054 1.87844 0
M  V30 8515 C 817.837 -1.55954 0.771635 0
M  V30 8516 O 819.013 -1.70801 1.06719 0
M  V30 8517 C 816.078 -2.75063 2.11048 0
M  V30 8518 C 815.139 -2.68715 3.348 0
M  V30 8519 C 814.372 -3.96821 3.56887 0
M  V30 8520 O 814.595 -4.95721 2.82165 0
M  V30 8521 O 813.529 -3.99291 4.50389 0
M  V30 8522 H 817.355 -1.15275 2.80972 0
M  V30 8523 H 814.94 -0.505732 1.4058 0
M  V30 8524 H 816.822 -3.54671 2.27566 0
M  V30 8525 H 815.497 -3.00191 1.21108 0
M  V30 8526 H 814.404 -1.87611 3.23655 0
M  V30 8527 H 815.737 -2.4854 4.2484 0
M  V30 8528 N 817.389 -1.46805 -0.573248 0
M  V30 8529 C 818.299 -1.60687 -1.70929 0
M  V30 8530 C 819.315 -0.490084 -1.66956 0
M  V30 8531 O 820.491 -0.755482 -1.86693 0
M  V30 8532 C 817.556 -1.60259 -3.07438 0
M  V30 8533 C 816.617 -2.83242 -3.22603 0
M  V30 8534 C 815.85 -2.82825 -4.52599 0
M  V30 8535 O 816.073 -1.92113 -5.37074 0
M  V30 8536 O 815.007 -3.74489 -4.71213 0
M  V30 8537 H 818.833 -2.56782 -1.62163 0
M  V30 8538 H 816.418 -1.29706 -0.741399 0
M  V30 8539 H 818.3 -1.6275 -3.88704 0
M  V30 8540 H 816.975 -0.673268 -3.16621 0
M  V30 8541 H 815.882 -2.86302 -2.40794 0
M  V30 8542 H 817.215 -3.75415 -3.18315 0
M  V30 8543 N 818.867 0.818669 -1.34668 0
M  V30 8544 C 820.115 1.57201 -1.27013 0
M  V30 8545 C 820.436 1.94354 0.158599 0
M  V30 8546 O 819.706 1.62626 1.09223 0
M  V30 8547 H 818.286 0.582919 -0.467135 0
M  V30 8548 H 820.948 0.977234 -1.6863 0
M  V30 8549 H 820.044 2.49291 -1.87778 0
M  V30 8550 N 820.346 1.18468 1.03938 0
M  V30 8551 C 821.309 0.914944 2.10146 0
M  V30 8552 C 822.309 -0.10022 1.60487 0
M  V30 8553 O 823.499 0.133365 1.73689 0
M  V30 8554 C 820.631 0.372993 3.38853 0
M  V30 8555 H 821.824 1.85677 2.35508 0
M  V30 8556 H 819.377 0.996876 1.20383 0
M  V30 8557 H 820.112 -0.57538 3.19155 0
M  V30 8558 H 819.897 1.1048 3.76213 0
M  V30 8559 H 821.387 0.203014 4.17106 0
M  V30 8560 N 821.824 -1.22873 0.986916 0
M  V30 8561 C 823.072 -1.91084 0.658121 0
M  V30 8562 C 823.393 -1.77304 -0.811675 0
M  V30 8563 O 822.663 -1.15649 -1.58121 0
M  V30 8564 H 821.243 -0.707251 0.240427 0
M  V30 8565 H 823.905 -1.49357 1.25213 0
M  V30 8566 H 823.001 -2.98373 0.915428 0
M  V30 8567 N 823.302 -0.75937 -1.38099 0
M  V30 8568 C 824.232 -0.151077 -2.33011 0
M  V30 8569 C 825.213 0.697099 -1.5516 0
M  V30 8570 O 826.398 0.637101 -1.83452 0
M  V30 8571 C 823.528 0.738423 -3.39359 0
M  V30 8572 C 822.482 -0.0074741 -4.27999 0
M  V30 8573 C 821.808 1.00066 -5.25253 0
M  V30 8574 C 823.108 -1.17926 -5.08813 0
M  V30 8575 H 824.802 -0.943933 -2.84131 0
M  V30 8576 H 822.348 -0.455362 -1.36611 0
M  V30 8577 H 824.301 1.17369 -4.04725 0
M  V30 8578 H 823.025 1.56366 -2.86735 0
M  V30 8579 H 821.684 -0.423379 -3.64147 0
M  V30 8580 H 821.332 1.82012 -4.68914 0
M  V30 8581 H 821.032 0.506199 -5.85416 0
M  V30 8582 H 822.556 1.43512 -5.93495 0
M  V30 8583 H 823.97 -0.821262 -5.67387 0
M  V30 8584 H 822.367 -1.60497 -5.78239 0
M  V30 8585 H 823.437 -1.98938 -4.42212 0
M  V30 8586 N 824.78 1.49157 -0.508906 0
M  V30 8587 C 826.008 2.06879 0.0293734 0
M  V30 8588 C 826.423 1.36823 1.30095 0
M  V30 8589 O 825.78 0.449034 1.7689 0
M  V30 8590 C 825.831 3.60423 0.278791 0
M  V30 8591 O 825.552 4.27844 -0.942389 0
M  V30 8592 C 827.053 4.34881 0.859825 0
M  V30 8593 H 824.273 0.67057 -0.0240184 0
M  V30 8594 H 826.817 1.91834 -0.708526 0
M  V30 8595 H 824.972 3.75145 0.966689 0
M  V30 8596 H 825.386 5.19671 -0.710097 0
M  V30 8597 H 826.86 5.43161 0.983884 0
M  V30 8598 H 827.337 3.9789 1.85958 0
M  V30 8599 H 827.943 4.24785 0.209152 0
M  V30 8600 N 826.258 0.243083 1.55714 0
M  V30 8601 C 827.19 -0.690766 2.18543 0
M  V30 8602 C 828.203 -1.14163 1.16064 0
M  V30 8603 O 829.392 -1.06906 1.42946 0
M  V30 8604 C 826.492 -1.95016 2.77168 0
M  V30 8605 C 825.665 -1.65137 4.05029 0
M  V30 8606 C 824.724 -2.75998 4.48009 0
M  V30 8607 O 823.75 -2.43547 5.14464 0
M  V30 8608 N 824.952 -4.05414 4.15476 0
M  V30 8609 H 827.717 -0.153203 2.99308 0
M  V30 8610 H 825.278 0.0628968 1.61778 0
M  V30 8611 H 827.27 -2.68414 3.0288 0
M  V30 8612 H 825.84 -2.39762 2.00582 0
M  V30 8613 H 825.06 -0.752768 3.86946 0
M  V30 8614 H 826.348 -1.42633 4.88399 0
M  V30 8615 H 825.746 -4.34613 3.62116 0
M  V30 8616 H 824.303 -4.75288 4.46032 0
M  V30 8617 N 827.736 -1.57571 -0.0300757 0
M  V30 8618 C 829.147 -1.77567 -0.576802 0
M  V30 8619 C 829.498 -0.874034 -1.75656 0
M  V30 8620 O 828.623 -0.0686124 -2.16291 0
M  V30 8621 C 829.218 -3.22016 -1.05315 0
M  V30 8622 C 827.777 -3.43212 -1.5454 0
M  V30 8623 C 826.924 -2.73061 -0.483033 0
M  V30 8624 H 829.875 -1.57483 0.196151 0
M  V30 8625 H 829.896 -3.28474 -1.92055 0
M  V30 8626 H 829.408 -3.87613 -0.194298 0
M  V30 8627 H 827.509 -2.82788 -2.42615 0
M  V30 8628 H 827.622 -4.5182 -1.5936 0
M  V30 8629 H 825.986 -2.36805 -0.937835 0
M  V30 8630 H 826.769 -3.4134 0.366341 0
M  V30 8631 N 829.214 0.302327 -1.54673 0
M  V30 8632 C 830.144 1.37759 -1.88533 0
M  V30 8633 C 831.125 1.52961 -0.744113 0
M  V30 8634 O 832.31 1.6649 -0.999731 0
M  V30 8635 C 829.44 2.74201 -2.13146 0
M  V30 8636 C 828.394 2.73765 -3.28993 0
M  V30 8637 C 827.72 4.13483 -3.39022 0
M  V30 8638 C 829.02 2.35624 -4.66132 0
M  V30 8639 H 830.714 1.0967 -2.78591 0
M  V30 8640 H 828.26 0.52613 -1.34044 0
M  V30 8641 H 830.213 3.49508 -2.35419 0
M  V30 8642 H 828.937 3.03812 -1.19858 0
M  V30 8643 H 827.596 2.00914 -3.06642 0
M  V30 8644 H 827.244 4.40269 -2.43253 0
M  V30 8645 H 826.944 4.14093 -4.16894 0
M  V30 8646 H 828.468 4.90572 -3.63553 0
M  V30 8647 H 829.882 3.00647 -4.88143 0
M  V30 8648 H 828.279 2.47449 -5.46707 0
M  V30 8649 H 829.349 1.30753 -4.66939 0
M  V30 8650 N 830.692 1.47107 0.565454 0
M  V30 8651 C 831.655 1.58535 1.65527 0
M  V30 8652 C 832.655 0.461081 1.54048 0
M  V30 8653 O 833.845 0.725911 1.58355 0
M  V30 8654 C 830.977 1.52204 3.05036 0
M  V30 8655 H 832.17 2.55676 1.56747 0
M  V30 8656 H 829.723 1.35174 0.78471 0
M  V30 8657 H 830.458 0.564071 3.19357 0
M  V30 8658 H 830.243 2.3379 3.14777 0
M  V30 8659 H 831.733 1.63322 3.84338 0
M  V30 8660 N 832.17 -0.811516 1.35101 0
M  V30 8661 C 833.395 -1.60499 1.31358 0
M  V30 8662 C 833.82 -1.87793 -0.107383 0
M  V30 8663 O 833.178 -1.46161 -1.07268 0
M  V30 8664 C 833.226 -2.91612 2.12119 0
M  V30 8665 O 832.33 -3.84211 1.49853 0
M  V30 8666 H 831.671 -0.487702 0.450603 0
M  V30 8667 H 834.201 -1.00758 1.7807 0
M  V30 8668 H 834.211 -3.4108 2.23894 0
M  V30 8669 H 832.886 -2.71071 3.15426 0
M  V30 8670 H 831.463 -3.42751 1.46889 0
M  V30 8671 N 833.648 -1.19017 -1.03309 0
M  V30 8672 C 834.873 -1.01598 -1.80811 0
M  V30 8673 C 835.298 0.430773 -1.83101 0
M  V30 8674 O 834.656 1.30946 -1.25391 0
M  V30 8675 C 834.704 -1.5845 -3.23923 0
M  V30 8676 O 833.808 -0.810972 -4.04348 0
M  V30 8677 H 833.149 -0.359398 -0.558327 0
M  V30 8678 H 835.679 -1.57945 -1.30055 0
M  V30 8679 H 835.689 -1.61486 -3.74682 0
M  V30 8680 H 834.364 -2.63752 -3.21571 0
M  V30 8681 H 832.941 -0.85353 -3.63 0
M  V30 8682 N 835.127 1.22348 -0.993418 0
M  V30 8683 C 836.538 1.72893 -0.704616 0
M  V30 8684 C 836.889 1.80095 0.778483 0
M  V30 8685 O 836.014 1.4476 1.60853 0
M  V30 8686 C 836.609 3.14 -1.27237 0
M  V30 8687 C 835.168 3.61949 -1.03294 0
M  V30 8688 C 834.315 2.39816 -1.39225 0
M  V30 8689 H 837.266 1.07688 -1.16572 0
M  V30 8690 H 837.287 3.74886 -0.651212 0
M  V30 8691 H 836.799 3.08727 -2.3518 0
M  V30 8692 H 834.9 3.72588 0.0298329 0
M  V30 8693 H 835.013 4.48051 -1.69668 0
M  V30 8694 H 833.377 2.41448 -0.810849 0
M  V30 8695 H 834.16 2.37203 -2.48172 0
M  V30 8696 N 836.605 0.766683 1.37694 0
M  V30 8697 C 837.833 0.339939 2.04088 0
M  V30 8698 C 838.248 -1.03617 1.57826 0
M  V30 8699 O 837.605 -1.6605 0.757214 0
M  V30 8700 C 837.656 0.368269 3.59619 0
M  V30 8701 O 837.377 1.69009 4.04188 0
M  V30 8702 C 838.878 -0.0707053 4.43244 0
M  V30 8703 H 836.098 0.143189 0.655544 0
M  V30 8704 H 838.642 1.03919 1.76128 0
M  V30 8705 H 836.797 -0.282359 3.8637 0
M  V30 8706 H 837.211 1.62523 4.98685 0
M  V30 8707 H 838.685 0.000273538 5.52 0
M  V30 8708 H 839.162 -1.1204 4.24669 0
M  V30 8709 H 839.768 0.551543 4.21709 0
M  V30 8710 N 838.083 -1.48885 0.516809 0
M  V30 8711 C 839.494 -1.86557 0.0729921 0
M  V30 8712 C 839.845 -1.42767 -1.34581 0
M  V30 8713 O 838.97 -0.812514 -2.00567 0
M  V30 8714 C 839.565 -3.38567 0.125686 0
M  V30 8715 C 838.124 -3.75481 -0.262867 0
M  V30 8716 C 837.271 -2.72913 0.491281 0
M  V30 8717 H 840.222 -1.40978 0.728767 0
M  V30 8718 H 840.243 -3.74629 -0.665831 0
M  V30 8719 H 839.755 -3.70408 1.15842 0
M  V30 8720 H 837.856 -3.49251 -1.29824 0
M  V30 8721 H 837.969 -4.79052 0.067579 0
M  V30 8722 H 836.333 -2.54627 -0.0608525 0
M  V30 8723 H 837.116 -3.07599 1.5244 0
M  V30 8724 N 839.561 -0.251338 -1.55583 0
M  V30 8725 C 840.471 0.656978 -2.25213 0
M  V30 8726 C 841.487 1.18966 -1.26977 0
M  V30 8727 O 842.663 1.22499 -1.59862 0
M  V30 8728 C 839.728 1.83527 -2.94141 0
M  V30 8729 C 838.789 1.34162 -4.07798 0
M  V30 8730 C 838.022 2.46375 -4.73429 0
M  V30 8731 O 838.245 3.65205 -4.38157 0
M  V30 8732 O 837.179 2.15881 -5.61853 0
M  V30 8733 H 841.005 0.0936395 -3.03556 0
M  V30 8734 H 838.59 -0.0196638 -1.49387 0
M  V30 8735 H 840.472 2.52279 -3.3754 0
M  V30 8736 H 839.147 2.38614 -2.18735 0
M  V30 8737 H 838.054 0.621249 -3.68906 0
M  V30 8738 H 839.387 0.836779 -4.85035 0
M  V30 8739 N 841.039 1.57585 0.0217189 0
M  V30 8740 C 841.949 2.10444 1.03684 0
M  V30 8741 C 842.965 1.04472 1.39146 0
M  V30 8742 O 844.141 1.36249 1.48317 0
M  V30 8743 C 841.206 2.5794 2.31664 0
M  V30 8744 C 840.267 3.78425 2.02714 0
M  V30 8745 C 839.5 4.23646 3.24592 0
M  V30 8746 O 839.723 3.6834 4.35525 0
M  V30 8747 O 838.657 5.16013 3.09862 0
M  V30 8748 H 842.483 2.97354 0.617584 0
M  V30 8749 H 840.068 1.47473 0.239174 0
M  V30 8750 H 841.95 2.88785 3.06889 0
M  V30 8751 H 840.625 1.74138 2.7287 0
M  V30 8752 H 839.532 3.52587 1.25033 0
M  V30 8753 H 840.865 4.63234 1.66359 0
M  V30 8754 N 842.517 -0.29412 1.54831 0
M  V30 8755 C 843.933 -0.640167 1.46199 0
M  V30 8756 C 844.133 -1.90426 0.658798 0
M  V30 8757 O 843.189 -2.51932 0.169228 0
M  V30 8758 C 844.502 -0.786763 2.90225 0
M  V30 8759 C 846.05 -0.882201 3.0031 0
M  V30 8760 C 846.525 -1.06074 4.45547 0
M  V30 8761 N 848.016 -1.12678 4.49286 0
M  V30 8762 C 848.751 -1.28334 5.58854 0
M  V30 8763 N 848.247 -1.40845 6.78332 0
M  V30 8764 N 850.04 -1.31277 5.46555 0
M  V30 8765 H 842.191 0.536334 2.05517 0
M  V30 8766 H 844.454 0.178363 0.93107 0
M  V30 8767 H 844.16 0.0713018 3.51628 0
M  V30 8768 H 844.034 -1.67364 3.38037 0
M  V30 8769 H 846.421 -1.73075 2.39017 0
M  V30 8770 H 846.502 0.0288405 2.55784 0
M  V30 8771 H 846.146 -0.216935 5.07437 0
M  V30 8772 H 846.076 -1.98611 4.8771 0
M  V30 8773 H 848.567 -1.04335 3.63212 0
M  V30 8774 H 848.88 -1.52566 7.57591 0
M  V30 8775 H 847.225 -1.37888 6.81184 0
M  V30 8776 H 850.416 -1.2112 4.52159 0
M  V30 8777 H 850.589 -1.43136 6.31994 0
M  V30 8778 N 843.995 -1.47404 -0.557645 0
M  V30 8779 C 845.411 -1.32913 -0.88353 0
M  V30 8780 C 845.611 -0.31929 -1.98954 0
M  V30 8781 O 844.667 0.26934 -2.51059 0
M  V30 8782 C 845.98 -2.72229 -1.27718 0
M  V30 8783 C 847.528 -2.8051 -1.38863 0
M  V30 8784 C 848.003 -4.20466 -1.81583 0
M  V30 8785 N 849.494 -4.23005 -1.88735 0
M  V30 8786 C 850.229 -5.2821 -2.23118 0
M  V30 8787 N 849.725 -6.4372 -2.56117 0
M  V30 8788 N 851.518 -5.15588 -2.23888 0
M  V30 8789 H 843.669 -2.11698 0.172557 0
M  V30 8790 H 845.932 -0.947889 0.0145334 0
M  V30 8791 H 845.638 -3.47556 -0.538329 0
M  V30 8792 H 845.512 -3.03971 -2.23342 0
M  V30 8793 H 847.899 -2.05457 -2.11829 0
M  V30 8794 H 847.98 -2.52423 -0.414274 0
M  V30 8795 H 847.624 -4.96025 -1.09187 0
M  V30 8796 H 847.554 -4.45977 -2.80021 0
M  V30 8797 H 850.045 -3.39674 -1.65621 0
M  V30 8798 H 850.358 -7.19754 -2.81378 0
M  V30 8799 H 848.703 -6.47041 -2.53698 0
M  V30 8800 H 851.894 -4.24374 -1.97546 0
M  V30 8801 H 852.067 -5.97685 -2.50353 0
M  V30 8802 N 845.473 0.80434 -1.35529 0
M  V30 8803 C 846.436 1.89788 -1.28503 0
M  V30 8804 C 847.436 1.59601 -0.195983 0
M  V30 8805 O 848.626 1.68292 -0.449827 0
M  V30 8806 C 845.758 3.26255 -0.98847 0
M  V30 8807 H 846.951 1.97436 -2.25741 0
M  V30 8808 H 844.504 1.00046 -1.20086 0
M  V30 8809 H 845.239 3.24294 -0.0200541 0
M  V30 8810 H 845.024 3.49551 -1.77641 0
M  V30 8811 H 846.514 4.06298 -0.964975 0
M  V30 8812 N 846.951 1.19563 1.02676 0
M  V30 8813 C 847.881 0.959024 2.12897 0
M  V30 8814 C 848.862 -0.108382 1.69754 0
M  V30 8815 O 850.047 0.0470698 1.94143 0
M  V30 8816 C 847.177 0.499211 3.43693 0
M  V30 8817 C 846.131 1.5087 4.00528 0
M  V30 8818 C 845.457 0.905884 5.2697 0
M  V30 8819 C 846.757 2.88954 4.3509 0
M  V30 8820 H 848.451 1.88084 2.32948 0
M  V30 8821 H 845.997 0.905731 1.11949 0
M  V30 8822 H 847.95 0.320965 4.20176 0
M  V30 8823 H 846.674 -0.458205 3.2337 0
M  V30 8824 H 845.333 1.67413 3.26142 0
M  V30 8825 H 844.981 -0.0591506 5.02965 0
M  V30 8826 H 844.681 1.58 5.65959 0
M  V30 8827 H 846.205 0.73848 6.06118 0
M  V30 8828 H 847.619 2.75981 5.02501 0
M  V30 8829 H 846.016 3.53177 4.85166 0
M  V30 8830 H 847.086 3.41447 3.44299 0
M  V30 8831 N 848.429 -1.21819 0.999893 0
M  V30 8832 C 849.845 -1.42847 0.711824 0
M  V30 8833 C 850.045 -1.88391 -0.714928 0
M  V30 8834 O 849.101 -2.0422 -1.48494 0
M  V30 8835 C 850.414 -2.46417 1.72334 0
M  V30 8836 C 851.962 -2.60207 1.73958 0
M  V30 8837 C 852.437 -3.67005 2.73992 0
M  V30 8838 N 853.928 -3.7447 2.72628 0
M  V30 8839 C 854.663 -4.56718 3.46693 0
M  V30 8840 N 854.159 -5.42904 4.3038 0
M  V30 8841 N 855.952 -4.51094 3.35366 0
M  V30 8842 H 848.103 -0.905656 1.92124 0
M  V30 8843 H 850.366 -0.459893 0.828977 0
M  V30 8844 H 850.072 -2.19914 2.74465 0
M  V30 8845 H 849.946 -3.45137 1.52186 0
M  V30 8846 H 852.333 -2.8605 0.725217 0
M  V30 8847 H 852.414 -1.61739 1.98177 0
M  V30 8848 H 852.058 -3.41908 3.75582 0
M  V30 8849 H 851.988 -4.65058 2.4704 0
M  V30 8850 H 854.479 -3.12895 2.11909 0
M  V30 8851 H 854.792 -6.02704 4.83702 0
M  V30 8852 H 853.137 -5.42463 4.34464 0
M  V30 8853 H 856.328 -3.82791 2.69423 0
M  V30 8854 H 856.501 -5.1496 3.93344 0
M  V30 8855 N 849.908 -0.773975 -1.37286 0
M  V30 8856 C 851.324 -0.45386 -1.53011 0
M  V30 8857 C 851.524 1.03018 -1.73175 0
M  V30 8858 O 850.58 1.81597 -1.75438 0
M  V30 8859 C 851.893 -1.27087 -2.72524 0
M  V30 8860 C 853.441 -1.26299 -2.86387 0
M  V30 8861 C 853.916 -2.0634 -4.08886 0
M  V30 8862 N 855.407 -2.03706 -4.16003 0
M  V30 8863 C 856.142 -2.62418 -5.09828 0
M  V30 8864 N 855.638 -3.29926 -6.09197 0
M  V30 8865 N 857.431 -2.52236 -5.02328 0
M  V30 8866 H 849.582 -1.73551 -1.22449 0
M  V30 8867 H 851.845 -0.736874 -0.596423 0
M  V30 8868 H 851.551 -2.32263 -2.64096 0
M  V30 8869 H 851.425 -0.90157 -3.66267 0
M  V30 8870 H 853.812 -0.219213 -2.94285 0
M  V30 8871 H 853.893 -1.67195 -1.93596 0
M  V30 8872 H 853.537 -3.10741 -4.01749 0
M  V30 8873 H 853.467 -1.62825 -5.00795 0
M  V30 8874 H 855.958 -1.54559 -3.44848 0
M  V30 8875 H 856.271 -3.72095 -6.77322 0
M  V30 8876 H 854.616 -3.34026 -6.09469 0
M  V30 8877 H 857.807 -1.99108 -4.23643 0
M  V30 8878 H 857.98 -2.98286 -5.75265 0
M  V30 8879 N 851.386 1.48609 -0.524698 0
M  V30 8880 C 852.611 2.07398 0.00952139 0
M  V30 8881 C 853.036 1.37939 1.27884 0
M  V30 8882 O 852.394 0.443633 1.75788 0
M  V30 8883 C 852.442 3.59916 0.221956 0
M  V30 8884 O 851.546 3.91647 1.29175 0
M  V30 8885 H 850.887 0.662981 -0.0367729 0
M  V30 8886 H 853.417 1.91092 -0.7311 0
M  V30 8887 H 853.427 4.05552 0.446236 0
M  V30 8888 H 852.102 4.09876 -0.705306 0
M  V30 8889 H 850.679 3.57796 1.05055 0
M  V30 8890 N 852.864 0.259585 1.55447 0
M  V30 8891 C 854.092 -0.365392 2.03648 0
M  V30 8892 C 854.507 -1.50613 1.13847 0
M  V30 8893 O 853.864 -1.81837 0.155414 0
M  V30 8894 C 853.915 -0.861172 3.51093 0
M  V30 8895 O 853.636 0.234121 4.37474 0
M  V30 8896 C 855.137 -1.55555 4.15111 0
M  V30 8897 H 852.357 -0.0853439 0.66555 0
M  V30 8898 H 854.901 0.387151 2.00802 0
M  V30 8899 H 853.056 -1.56385 3.54433 0
M  V30 8900 H 853.47 -0.1444 5.24301 0
M  V30 8901 H 854.944 -1.85403 5.19932 0
M  V30 8902 H 855.421 -2.48185 3.62355 0
M  V30 8903 H 856.027 -0.89712 4.15731 0
M  V30 8904 N 854.342 -1.57594 -0.0133615 0
M  V30 8905 C 855.57 -1.94251 -0.712328 0
M  V30 8906 C 855.985 -0.86063 -1.68043 0
M  V30 8907 O 855.342 0.161632 -1.81783 0
M  V30 8908 C 855.393 -3.30891 -1.45581 0
M  V30 8909 O 855.114 -4.34924 -0.526539 0
M  V30 8910 C 856.615 -3.81926 -2.2505 0
M  V30 8911 H 853.835 -0.640737 -0.199241 0
M  V30 8912 H 856.379 -2.04472 0.0337855 0
M  V30 8913 H 854.534 -3.22019 -2.15366 0
M  V30 8914 H 854.948 -5.1389 -1.04962 0
M  V30 8915 H 856.422 -4.79999 -2.72589 0
M  V30 8916 H 856.899 -3.13934 -3.07152 0
M  V30 8917 H 857.505 -3.93931 -1.60308 0
M  V30 8918 N 855.82 0.285905 -1.54985 0
M  V30 8919 C 857.236 0.632405 -1.46536 0
M  V30 8920 C 857.436 1.90074 -0.668888 0
M  V30 8921 O 856.492 2.51839 -0.182586 0
M  V30 8922 C 857.805 0.771361 -2.90638 0
M  V30 8923 C 859.353 0.866262 -3.00774 0
M  V30 8924 C 859.828 1.0371 -4.46103 0
M  V30 8925 N 861.319 1.10294 -4.49877 0
M  V30 8926 C 862.054 1.25369 -5.59527 0
M  V30 8927 N 861.55 1.37246 -6.7907 0
M  V30 8928 N 863.343 1.28377 -5.47244 0
M  V30 8929 H 855.494 -0.547226 -2.0523 0
M  V30 8930 H 857.757 -0.183298 -0.930111 0
M  V30 8931 H 857.463 -0.0899485 -3.51585 0
M  V30 8932 H 857.337 1.65569 -3.3892 0
M  V30 8933 H 859.724 1.71805 -2.39931 0
M  V30 8934 H 859.805 -0.0424049 -2.55765 0
M  V30 8935 H 859.449 0.190021 -5.07544 0
M  V30 8936 H 859.379 1.96022 -4.88757 0
M  V30 8937 H 861.87 1.02407 -3.6376 0
M  V30 8938 H 862.183 1.48546 -7.58389 0
M  V30 8939 H 860.528 1.34274 -6.81906 0
M  V30 8940 H 863.719 1.1872 -4.52795 0
M  V30 8941 H 863.892 1.39782 -6.32744 0
M  V30 8942 N 857.298 1.47698 0.54982 0
M  V30 8943 C 858.575 1.45185 1.31075 0
M  V30 8944 C 858.955 0.152768 2.10547 0
M  V30 8945 O 858.303 -0.865706 2.11466 0
M  V30 8946 C 858.513 2.70192 2.20902 0
M  V30 8947 C 859.861 3.1771 2.81683 0
M  V30 8948 O 860.885 2.70971 2.312 0
M  V30 8949 O 859.744 3.98986 3.7346 0
M  V30 8950 H 856.838 0.57892 0.590577 0
M  V30 8951 H 859.384 1.59908 0.568112 0
M  V30 8952 H 858.156 3.56269 1.61828 0
M  V30 8953 H 857.779 2.58091 3.02448 0
M  V30 8954 N 858.776 -0.797141 1.35954 0
M  V30 8955 C 860.192 -1.09408 1.16198 0
M  V30 8956 C 860.392 -2.01491 -0.0191682 0
M  V30 8957 O 859.448 -2.42977 -0.686902 0
M  V30 8958 C 860.761 -1.71597 2.46931 0
M  V30 8959 C 862.309 -1.83974 2.53224 0
M  V30 8960 C 862.784 -2.49579 3.84024 0
M  V30 8961 N 864.275 -2.57055 3.85327 0
M  V30 8962 C 865.01 -3.08608 4.83268 0
M  V30 8963 N 864.506 -3.60527 5.91601 0
M  V30 8964 N 866.299 -3.07249 4.70696 0
M  V30 8965 H 858.45 -0.185209 2.11591 0
M  V30 8966 H 860.713 -0.144768 0.936881 0
M  V30 8967 H 860.419 -1.11404 3.3359 0
M  V30 8968 H 860.293 -2.71193 2.62172 0
M  V30 8969 H 862.68 -2.43308 1.66988 0
M  V30 8970 H 862.761 -0.83207 2.41889 0
M  V30 8971 H 862.405 -1.90892 4.70662 0
M  V30 8972 H 862.335 -3.50902 3.92651 0
M  V30 8973 H 864.826 -2.20283 3.07057 0
M  V30 8974 H 865.139 -3.98192 6.62317 0
M  V30 8975 H 863.484 -3.587 5.95281 0
M  V30 8976 H 866.675 -2.65972 3.85197 0
M  V30 8977 H 866.848 -3.47119 5.47186 0
M  V30 8978 N 860.254 -1.20106 -1.0204 0
M  V30 8979 C 861.202 -0.943231 -2.12617 0
M  V30 8980 C 862.196 0.104042 -1.6908 0
M  V30 8981 O 863.402 -0.0459732 -1.79941 0
M  V30 8982 H 859.777 -0.28767 -0.694802 0
M  V30 8983 H 861.748 -1.88221 -2.3155 0
M  V30 8984 C 860.497 -0.50771 -3.43973 0
M  V30 8985 H 859.82 -1.30514 -3.77897 0
M  V30 8986 H 861.26 -0.366486 -4.22413 0
M  V30 8987 C 859.719 0.77939 -3.27761 0
M  V30 8988 O 860.249 1.83876 -3.57145 0
M  V30 8989 N 858.455 0.739931 -2.81022 0
M  V30 8990 H 858.002 -0.122426 -2.57309 0
M  V30 8991 H 857.96 1.60147 -2.70556 0
M  V30 8992 N 861.732 1.21287 -1.00634 0
M  V30 8993 C 862.679 2.23705 -0.567876 0
M  V30 8994 C 863.649 1.61043 0.406753 0
M  V30 8995 O 864.834 1.88289 0.308499 0
M  V30 8996 C 861.974 3.44961 0.097996 0
M  V30 8997 C 861.087 4.22091 -0.919972 0
M  V30 8998 C 860.222 5.30718 -0.226222 0
M  V30 8999 C 859.261 5.99581 -1.23165 0
M  V30 9000 N 858.398 6.99821 -0.565278 0
M  V30 9001 H 863.238 2.60571 -1.44592 0
M  V30 9002 H 860.775 1.28049 -0.724006 0
M  V30 9003 H 862.733 4.1418 0.501097 0
M  V30 9004 H 861.363 3.08818 0.939744 0
M  V30 9005 H 860.415 3.52038 -1.44131 0
M  V30 9006 H 861.727 4.69476 -1.68505 0
M  V30 9007 H 860.881 6.06253 0.232917 0
M  V30 9008 H 859.62 4.84343 0.571247 0
M  V30 9009 H 858.625 5.22816 -1.70128 0
M  V30 9010 H 859.85 6.48042 -2.03022 0
M  V30 9011 H 857.796 6.55656 0.212508 0
M  V30 9012 H 857.713 7.4528 -1.26858 0
M  V30 9013 H 858.981 7.79393 -0.129389 0
M  V30 9014 N 863.21 0.781244 1.36873 0
M  V30 9015 C 864.157 0.172146 2.30157 0
M  V30 9016 C 865.127 -0.679328 1.51573 0
M  V30 9017 O 866.312 -0.629713 1.80109 0
M  V30 9018 C 863.452 -0.693534 3.38059 0
M  V30 9019 C 862.565 0.175586 4.31643 0
M  V30 9020 C 861.7 -0.695695 5.26625 0
M  V30 9021 C 860.739 0.17538 6.11849 0
M  V30 9022 N 859.876 -0.654416 6.99043 0
M  V30 9023 H 864.716 0.973133 2.81663 0
M  V30 9024 H 862.253 0.491469 1.38647 0
M  V30 9025 H 864.211 -1.21035 3.99257 0
M  V30 9026 H 862.841 -1.46003 2.87894 0
M  V30 9027 H 861.893 0.810295 3.7167 0
M  V30 9028 H 863.205 0.847107 4.91554 0
M  V30 9029 H 862.359 -1.27863 5.93073 0
M  V30 9030 H 861.098 -1.40087 4.67148 0
M  V30 9031 H 860.103 0.77078 5.4437 0
M  V30 9032 H 861.328 0.87803 6.734 0
M  V30 9033 H 859.274 -1.34403 6.42084 0
M  V30 9034 H 859.191 -0.0403998 7.55989 0
M  V30 9035 H 860.459 -1.22144 7.69871 0
M  V30 9036 N 864.689 -1.48329 0.532571 0
M  V30 9037 C 865.652 -2.2816 -0.218069 0
M  V30 9038 C 866.652 -1.35526 -0.865409 0
M  V30 9039 O 867.842 -1.58394 -0.725061 0
M  V30 9040 C 864.974 -3.1448 -1.31586 0
M  V30 9041 H 866.167 -2.95987 0.482865 0
M  V30 9042 H 863.72 -1.53612 0.288603 0
M  V30 9043 H 864.455 -2.5129 -2.04997 0
M  V30 9044 H 864.24 -3.82625 -0.856779 0
M  V30 9045 H 865.73 -3.74693 -1.84377 0
M  V30 9046 N 866.167 -0.267825 -1.55308 0
M  V30 9047 C 867.13 0.60965 -2.20943 0
M  V30 9048 C 868.13 1.0869 -1.18504 0
M  V30 9049 O 869.32 0.988248 -1.43455 0
M  V30 9050 C 866.452 1.84027 -2.86961 0
M  V30 9051 H 867.645 0.0366806 -2.99878 0
M  V30 9052 H 865.198 -0.0183941 -1.56289 0
M  V30 9053 H 865.933 2.45394 -2.1202 0
M  V30 9054 H 865.718 1.50605 -3.62023 0
M  V30 9055 H 867.208 2.46442 -3.37129 0
M  V30 9056 N 867.645 1.57599 0.00500368 0
M  V30 9057 C 868.608 2.07058 0.982832 0
M  V30 9058 C 869.608 0.979045 1.27559 0
M  V30 9059 O 870.798 1.24187 1.22161 0
M  V30 9060 C 867.93 2.50782 2.30914 0
M  V30 9061 H 869.123 2.94718 0.555119 0
M  V30 9062 H 866.676 1.54249 0.25237 0
M  V30 9063 H 867.411 1.66351 2.78385 0
M  V30 9064 H 867.196 3.30495 2.10987 0
M  V30 9065 H 868.686 2.89391 3.0107 0
M  V30 9066 N 869.123 -0.277682 1.55134 0
M  V30 9067 C 870.363 -1.01761 1.77269 0
M  V30 9068 C 870.727 -1.83668 0.559465 0
M  V30 9069 O 871.928 -2.60597 0.658972 0
M  V30 9070 C 870.199 -1.88062 3.0392 0
M  V30 9071 S 871.758 -2.68383 3.47154 0
M  V30 9072 H 868.576 -0.342816 0.622895 0
M  V30 9073 H 871.178 -0.288514 1.93359 0
M  V30 9074 H 869.882 -1.26805 3.90319 0
M  V30 9075 H 869.413 -2.65299 2.90482 0
M  V30 9076 H 871.428 -3.90567 3.06059 0
M  V30 9077 N 870.601 -1.47988 -0.541979 0
M  V30 9078 C 871.848 -1.55393 -1.29843 0
M  V30 9079 C 872.176 -0.222668 -1.93221 0
M  V30 9080 O 871.431 0.785936 -1.79225 0
M  V30 9081 C 871.73 -2.63189 -2.41798 0
M  V30 9082 C 871.396 -4.05999 -1.96151 0
M  V30 9083 C 870.058 -4.44872 -1.83419 0
M  V30 9084 C 872.41 -4.95545 -1.61507 0
M  V30 9085 C 869.738 -5.71108 -1.34361 0
M  V30 9086 C 872.09 -6.22259 -1.13915 0
M  V30 9087 C 870.754 -6.59998 -0.997911 0
M  V30 9088 H 870.024 -0.568623 -0.47513 0
M  V30 9089 H 872.671 -1.81654 -0.606142 0
M  V30 9090 H 870.976 -2.30743 -3.16647 0
M  V30 9091 H 872.673 -2.66138 -2.99953 0
M  V30 9092 H 869.263 -3.75294 -2.07008 0
M  V30 9093 H 873.447 -4.662 -1.70209 0
M  V30 9094 H 868.703 -5.99083 -1.22103 0
M  V30 9095 H 872.877 -6.91048 -0.861755 0
M  V30 9096 H 870.504 -7.57704 -0.615561 0
M  V30 9097 N 872.079 0.78992 -1.36375 0
M  V30 9098 C 873.009 1.91683 -1.33341 0
M  V30 9099 C 873.99 1.68861 -0.204965 0
M  V30 9100 O 875.175 1.89982 -0.402531 0
M  V30 9101 C 872.305 3.28696 -1.12143 0
M  V30 9102 C 871.259 3.66041 -2.21806 0
M  V30 9103 C 870.585 5.01399 -1.85751 0
M  V30 9104 C 871.885 3.74677 -3.63888 0
M  V30 9105 H 873.579 1.94478 -2.27637 0
M  V30 9106 H 871.125 0.934271 -1.09578 0
M  V30 9107 H 873.078 4.07151 -1.08656 0
M  V30 9108 H 871.802 3.26287 -0.142974 0
M  V30 9109 H 870.461 2.89883 -2.24418 0
M  V30 9110 H 870.109 4.9551 -0.864817 0
M  V30 9111 H 869.809 5.27355 -2.59173 0
M  V30 9112 H 871.333 5.82274 -1.83819 0
M  V30 9113 H 872.747 4.43324 -3.63506 0
M  V30 9114 H 871.144 4.12118 -4.3621 0
M  V30 9115 H 872.214 2.75795 -3.9883 0
M  V30 9116 N 873.557 1.20646 1.01402 0
M  V30 9117 C 874.487 0.98155 2.11867 0
M  V30 9118 C 875.468 -0.0903712 1.6986 0
M  V30 9119 O 876.653 0.0676586 1.94082 0
M  V30 9120 C 873.783 0.535636 3.43145 0
M  V30 9121 C 872.737 1.55109 3.98905 0
M  V30 9122 C 872.063 0.961725 5.2598 0
M  V30 9123 C 873.363 2.93552 4.32001 0
M  V30 9124 H 875.057 1.90544 2.3094 0
M  V30 9125 H 872.603 0.917554 1.10982 0
M  V30 9126 H 874.556 0.365512 4.19812 0
M  V30 9127 H 873.28 -0.423882 3.23838 0
M  V30 9128 H 871.939 1.70862 3.24348 0
M  V30 9129 H 871.587 -0.00580108 5.03 0
M  V30 9130 H 871.287 1.63993 5.64252 0
M  V30 9131 H 872.811 0.802726 6.053 0
M  V30 9132 H 874.225 2.81295 4.99546 0
M  V30 9133 H 872.622 3.58303 4.81393 0
M  V30 9134 H 873.692 3.4508 3.40658 0
M  V30 9135 N 875.035 -1.20752 1.01276 0
M  V30 9136 C 876.26 -1.94547 0.718769 0
M  V30 9137 C 876.685 -1.7404 -0.713563 0
M  V30 9138 O 876.043 -1.03221 -1.49047 0
M  V30 9139 C 876.091 -3.44823 1.05497 0
M  V30 9140 O 875.195 -4.12072 0.164516 0
M  V30 9141 H 874.536 -0.607931 0.267051 0
M  V30 9142 H 877.066 -1.53292 1.35509 0
M  V30 9143 H 877.076 -3.95427 1.00507 0
M  V30 9144 H 875.751 -3.59072 2.09858 0
M  V30 9145 H 874.328 -3.71909 0.271615 0
M  V30 9146 N 876.513 -0.788492 -1.36457 0
M  V30 9147 C 877.741 -0.372365 -2.03522 0
M  V30 9148 C 878.156 1.01093 -1.59454 0
M  V30 9149 O 877.513 1.64824 -0.783535 0
M  V30 9150 C 877.564 -0.425435 -3.58988 0
M  V30 9151 O 877.285 -1.75418 -4.01448 0
M  V30 9152 C 878.786 0.000180167 -4.433 0
M  V30 9153 H 876.006 -0.1536 -0.653183 0
M  V30 9154 H 878.55 -1.06708 -1.74452 0
M  V30 9155 H 876.705 0.220856 -3.8677 0
M  V30 9156 H 877.119 -1.70437 -4.96036 0
M  V30 9157 H 878.593 -0.0880919 -5.5193 0
M  V30 9158 H 879.07 1.05269 -4.26398 0
M  V30 9159 H 879.676 -0.618563 -4.20778 0
M  V30 9160 N 877.991 1.48044 -0.54043 0
M  V30 9161 C 879.239 2.02097 -0.0101367 0
M  V30 9162 C 879.56 1.41881 1.33771 0
M  V30 9163 O 878.83 0.587923 1.8687 0
M  V30 9164 H 877.41 0.747 -0.000758716 0
M  V30 9165 H 880.072 1.81639 -0.706634 0
M  V30 9166 H 879.168 3.11969 0.0904474 0
M  V30 9167 N 879.47 0.276058 1.55163 0
M  V30 9168 C 880.747 -0.392292 1.91626 0
M  V30 9169 C 881.127 -1.73646 1.20043 0
M  V30 9170 O 880.475 -2.26139 0.327606 0
M  V30 9171 C 880.685 -0.531641 3.44927 0
M  V30 9172 C 882.033 -0.8141 4.16722 0
M  V30 9173 O 883.057 -0.616413 3.50826 0
M  V30 9174 O 881.916 -1.19224 5.33337 0
M  V30 9175 H 879.01 -0.214945 0.798579 0
M  V30 9176 H 881.556 0.32228 1.66612 0
M  V30 9177 H 880.328 0.414282 3.89101 0
M  V30 9178 H 879.951 -1.29564 3.75897 0
M  V30 9179 N 880.948 -1.576 0.00335426 0
M  V30 9180 C 882.178 -1.94713 -0.690682 0
M  V30 9181 C 882.586 -0.876915 -1.67651 0
M  V30 9182 O 881.929 0.152434 -1.83066 0
M  V30 9183 C 881.991 -3.27833 -1.47532 0
M  V30 9184 C 881.655 -4.52344 -0.650704 0
M  V30 9185 C 882.652 -5.19862 0.0630537 0
M  V30 9186 C 880.337 -4.98755 -0.595687 0
M  V30 9187 C 882.331 -6.32093 0.820779 0
M  V30 9188 C 880.018 -6.10875 0.165761 0
M  V30 9189 C 881.016 -6.77401 0.872724 0
M  V30 9190 O 880.704 -7.87372 1.62174 0
M  V30 9191 H 880.436 -0.646627 -0.197104 0
M  V30 9192 H 882.99 -2.05335 0.0516082 0
M  V30 9193 H 881.22 -3.13628 -2.26217 0
M  V30 9194 H 882.909 -3.50034 -2.05501 0
M  V30 9195 H 883.675 -4.84991 0.0297223 0
M  V30 9196 H 879.554 -4.46797 -1.13549 0
M  V30 9197 H 883.098 -6.83953 1.37312 0
M  V30 9198 H 878.995 -6.45187 0.200901 0
M  V30 9199 H 879.763 -8.03905 1.5388 0
M  V30 9200 N 882.426 0.269451 -1.5528 0
M  V30 9201 C 883.389 1.31642 -1.87625 0
M  V30 9202 C 884.389 1.42182 -0.751058 0
M  V30 9203 O 885.579 1.41272 -1.01921 0
M  V30 9204 C 882.711 2.6973 -2.08467 0
M  V30 9205 H 883.904 1.0419 -2.81219 0
M  V30 9206 H 881.457 0.507685 -1.47825 0
M  V30 9207 H 882.192 3.02356 -1.17266 0
M  V30 9208 H 881.977 2.63465 -2.90394 0
M  V30 9209 H 883.467 3.4537 -2.34753 0
M  V30 9210 N 883.904 1.48273 0.534124 0
M  V30 9211 C 885.144 1.57674 1.3007 0
M  V30 9212 C 885.508 0.243256 1.90453 0
M  V30 9213 O 886.709 0.212231 2.67961 0
M  V30 9214 C 884.98 2.68044 2.36405 0
M  V30 9215 S 886.539 2.97183 3.22843 0
M  V30 9216 H 883.357 0.55652 0.442501 0
M  V30 9217 H 885.959 1.85774 0.60896 0
M  V30 9218 H 884.663 3.63498 1.90518 0
M  V30 9219 H 884.194 2.41833 3.10291 0
M  V30 9220 H 886.209 2.36164 4.36396 0
M  V30 9221 N 885.382 -0.782676 1.36792 0
M  V30 9222 C 886.345 -1.8772 1.31507 0
M  V30 9223 C 887.345 -1.59269 0.221349 0
M  V30 9224 O 888.535 -1.67555 0.476544 0
M  V30 9225 C 885.667 -3.24641 1.04025 0
M  V30 9226 H 886.86 -1.9382 2.28853 0
M  V30 9227 H 884.413 -0.981226 1.21662 0
M  V30 9228 H 885.148 -3.24221 0.0716439 0
M  V30 9229 H 884.933 -3.46681 1.8318 0
M  V30 9230 H 886.423 -4.04711 1.02949 0
M  V30 9231 N 886.86 -1.21182 -1.00761 0
M  V30 9232 C 888.137 -0.936297 -1.71735 0
M  V30 9233 C 888.517 0.552585 -2.03739 0
M  V30 9234 O 887.865 1.51672 -1.70903 0
M  V30 9235 C 888.075 -1.81867 -2.97868 0
M  V30 9236 C 889.423 -2.06594 -3.7095 0
M  V30 9237 O 890.447 -1.79194 -3.07844 0
M  V30 9238 O 889.306 -2.5292 -4.84452 0
M  V30 9239 H 886.4 -0.350867 -0.74888 0
M  V30 9240 H 888.946 -1.32098 -1.06527 0
M  V30 9241 H 887.718 -2.82643 -2.70607 0
M  V30 9242 H 887.341 -1.43463 -3.70815 0
M  V30 9243 N 888.338 1.20213 -1.01915 0
M  V30 9244 C 889.586 1.89272 -0.708552 0
M  V30 9245 C 889.907 1.79394 0.76438 0
M  V30 9246 O 889.177 1.198 1.54999 0
M  V30 9247 H 887.757 0.700628 -0.259094 0
M  V30 9248 H 890.419 1.45985 -1.29129 0
M  V30 9249 H 889.515 2.95841 -0.994215 0
M  V30 9250 N 889.816 0.795718 1.36037 0
M  V30 9251 C 891.041 0.38204 2.03851 0
M  V30 9252 C 891.466 -0.995553 1.59594 0
M  V30 9253 O 890.824 -1.64258 0.767401 0
M  V30 9254 C 890.872 0.461248 3.57638 0
M  V30 9255 O 889.976 -0.529448 4.08987 0
M  V30 9256 H 889.317 0.161227 0.644129 0
M  V30 9257 H 891.847 1.07858 1.73861 0
M  V30 9258 H 891.857 0.32712 4.06687 0
M  V30 9259 H 890.532 1.46613 3.89201 0
M  V30 9260 H 889.109 -0.35646 3.71192 0
M  V30 9261 N 891.294 -1.47756 0.548274 0
M  V30 9262 C 892.54 -2.02789 0.0209265 0
M  V30 9263 C 892.873 -1.42268 -1.32187 0
M  V30 9264 O 892.148 -0.575001 -1.85806 0
M  V30 9265 C 892.431 -3.60007 -0.0816674 0
M  V30 9266 C 892.284 -4.30977 1.28759 0
M  V30 9267 C 893.603 -4.32777 -0.799515 0
M  V30 9268 H 890.722 -0.736944 0.00907884 0
M  V30 9269 H 893.364 -1.76282 0.708839 0
M  V30 9270 H 891.514 -3.82722 -0.667537 0
M  V30 9271 H 893.186 -4.19629 1.91597 0
M  V30 9272 H 891.429 -3.9168 1.86466 0
M  V30 9273 H 892.1 -5.39488 1.16861 0
M  V30 9274 H 894.576 -4.15001 -0.30216 0
M  V30 9275 H 893.452 -5.42431 -0.840239 0
M  V30 9276 H 893.713 -4.01358 -1.85375 0
M  V30 9277 N 892.772 -0.284283 -1.55015 0
M  V30 9278 C 894.188 0.069603 -1.59448 0
M  V30 9279 C 894.388 1.53833 -1.30144 0
M  V30 9280 O 893.444 2.2886 -1.06674 0
M  V30 9281 C 894.757 -0.313287 -2.99064 0
M  V30 9282 C 896.305 -0.260662 -3.11913 0
M  V30 9283 C 896.78 -0.618127 -4.5381 0
M  V30 9284 N 898.271 -0.570026 -4.59679 0
M  V30 9285 C 899.006 -0.8193 -5.67517 0
M  V30 9286 N 898.502 -1.13367 -6.83462 0
M  V30 9287 N 900.295 -0.747482 -5.57108 0
M  V30 9288 H 892.446 -1.24167 -1.72326 0
M  V30 9289 H 894.709 -0.502259 -0.804015 0
M  V30 9290 H 894.415 -1.33509 -3.25374 0
M  V30 9291 H 894.289 0.341369 -3.75652 0
M  V30 9292 H 896.676 0.751869 -2.85361 0
M  V30 9293 H 896.757 -0.949706 -2.37517 0
M  V30 9294 H 896.401 -1.62839 -4.81088 0
M  V30 9295 H 896.331 0.092807 -5.26518 0
M  V30 9296 H 898.822 -0.3373 -3.76392 0
M  V30 9297 H 899.135 -1.3103 -7.61611 0
M  V30 9298 H 897.48 -1.17154 -6.85055 0
M  V30 9299 H 900.671 -0.501658 -4.65404 0
M  V30 9300 H 900.844 -0.945128 -6.4107 0
M  V30 9301 N 894.251 1.57596 -0.0117121 0
M  V30 9302 C 895.198 2.09153 0.975897 0
M  V30 9303 C 896.168 0.989579 1.33404 0
M  V30 9304 O 897.353 1.26273 1.43038 0
M  V30 9305 C 894.493 2.60906 2.2588 0
M  V30 9306 C 893.606 3.85046 1.95866 0
M  V30 9307 C 892.741 4.25257 3.18323 0
M  V30 9308 C 891.78 5.42202 2.84049 0
M  V30 9309 N 890.917 5.77651 3.99079 0
M  V30 9310 H 895.757 2.93261 0.52931 0
M  V30 9311 H 893.294 1.44965 0.249691 0
M  V30 9312 H 895.252 2.88995 3.00895 0
M  V30 9313 H 893.882 1.79654 2.68187 0
M  V30 9314 H 892.934 3.63794 1.11168 0
M  V30 9315 H 894.246 4.70151 1.66611 0
M  V30 9316 H 893.4 4.5469 4.01674 0
M  V30 9317 H 892.139 3.38884 3.50726 0
M  V30 9318 H 891.144 5.1248 1.99107 0
M  V30 9319 H 892.369 6.3026 2.52881 0
M  V30 9320 H 890.315 4.94235 4.31356 0
M  V30 9321 H 890.232 6.57356 3.73388 0
M  V30 9322 H 891.5 6.11681 4.83183 0
M  V30 9323 N 895.729 -0.261212 1.5542 0
M  V30 9324 C 896.977 -0.989272 1.76232 0
M  V30 9325 C 897.298 -1.86389 0.573067 0
M  V30 9326 O 896.568 -1.91526 -0.41166 0
M  V30 9327 H 895.148 -0.368256 0.64992 0
M  V30 9328 H 897.81 -0.282603 1.9284 0
M  V30 9329 H 896.906 -1.61935 2.66802 0
M  V30 9330 N 897.207 -1.48554 -0.526253 0
M  V30 9331 C 898.435 -1.60429 -1.30652 0
M  V30 9332 C 898.85 -0.265963 -1.86917 0
M  V30 9333 O 898.207 0.745262 -1.6659 0
M  V30 9334 C 898.258 -2.65377 -2.45473 0
M  V30 9335 O 897.979 -3.94017 -1.91527 0
M  V30 9336 C 899.48 -2.87726 -3.37237 0
M  V30 9337 H 896.7 -0.540817 -0.397187 0
M  V30 9338 H 899.244 -1.94409 -0.634461 0
M  V30 9339 H 897.399 -2.34246 -3.08557 0
M  V30 9340 H 897.813 -4.51623 -2.66715 0
M  V30 9341 H 899.287 -3.64951 -4.14144 0
M  V30 9342 H 899.764 -1.96688 -3.92696 0
M  V30 9343 H 900.37 -3.20176 -2.79942 0
M  V30 9344 N 898.685 0.775411 -1.37205 0
M  V30 9345 C 899.932 1.53384 -1.32211 0
M  V30 9346 C 900.26 1.9427 0.0944958 0
M  V30 9347 O 899.515 1.64059 1.06692 0
M  V30 9348 C 899.814 2.81377 -2.20367 0
M  V30 9349 C 899.48 2.59561 -3.68699 0
M  V30 9350 C 898.142 2.53319 -4.09124 0
M  V30 9351 C 900.494 2.39939 -4.62686 0
M  V30 9352 C 897.822 2.25442 -5.41658 0
M  V30 9353 C 900.174 2.13586 -5.95453 0
M  V30 9354 C 898.838 2.05786 -6.34987 0
M  V30 9355 H 898.108 0.561271 -0.483793 0
M  V30 9356 H 900.755 0.893466 -1.6938 0
M  V30 9357 H 899.06 3.49954 -1.76181 0
M  V30 9358 H 900.757 3.39238 -2.13819 0
M  V30 9359 H 897.347 2.6528 -3.36637 0
M  V30 9360 H 901.531 2.43753 -4.32317 0
M  V30 9361 H 896.787 2.17896 -5.71254 0
M  V30 9362 H 900.961 1.97401 -6.67837 0
M  V30 9363 H 898.588 1.83948 -7.37609 0
M  V30 9364 N 900.163 1.21714 1.00117 0
M  V30 9365 C 901.409 1.03823 1.74208 0
M  V30 9366 C 901.742 -0.426733 1.89454 0
M  V30 9367 O 901.017 -1.31658 1.43166 0
M  V30 9368 C 901.3 1.74047 3.15246 0
M  V30 9369 C 901.153 3.28087 3.077 0
M  V30 9370 C 902.472 1.48614 4.14249 0
M  V30 9371 H 899.591 0.378573 0.632338 0
M  V30 9372 H 902.233 1.49942 1.16694 0
M  V30 9373 H 900.383 1.3484 3.64349 0
M  V30 9374 H 902.055 3.76686 2.6628 0
M  V30 9375 H 900.298 3.58191 2.44707 0
M  V30 9376 H 900.969 3.72392 4.07466 0
M  V30 9377 H 903.445 1.82656 3.73866 0
M  V30 9378 H 902.321 2.00257 5.11066 0
M  V30 9379 H 902.582 0.416957 4.40129 0
M  V30 9380 N 901.641 -1.19671 1.02551 0
M  V30 9381 C 902.571 -2.25009 0.623965 0
M  V30 9382 C 903.552 -1.66129 -0.36538 0
M  V30 9383 O 904.737 -1.92599 -0.248842 0
M  V30 9384 C 901.867 -3.47287 -0.0294869 0
M  V30 9385 C 900.821 -4.18818 0.881781 0
M  V30 9386 C 900.147 -5.34618 0.0936189 0
M  V30 9387 C 901.447 -4.73986 2.19396 0
M  V30 9388 H 903.141 -2.58851 1.50454 0
M  V30 9389 H 900.687 -1.24425 0.724872 0
M  V30 9390 H 902.64 -4.20168 -0.322016 0
M  V30 9391 H 901.364 -3.12635 -0.944838 0
M  V30 9392 H 900.023 -3.47815 1.15845 0
M  V30 9393 H 899.671 -4.9621 -0.823661 0
M  V30 9394 H 899.371 -5.83409 0.700568 0
M  V30 9395 H 900.895 -6.10297 -0.192249 0
M  V30 9396 H 902.309 -5.38639 1.96319 0
M  V30 9397 H 900.706 -5.3325 2.75254 0
M  V30 9398 H 901.776 -3.92238 2.85092 0
M  V30 9399 N 903.119 -0.802921 -1.35613 0
M  V30 9400 C 904.535 -0.486214 -1.52014 0
M  V30 9401 C 904.735 0.993219 -1.75321 0
M  V30 9402 O 903.791 1.77835 -1.79251 0
M  V30 9403 C 905.104 -1.32839 -2.69767 0
M  V30 9404 C 906.652 -1.32346 -2.83643 0
M  V30 9405 C 907.127 -2.14967 -4.04417 0
M  V30 9406 N 908.618 -2.12484 -4.11588 0
M  V30 9407 C 909.353 -2.73173 -5.04147 0
M  V30 9408 N 908.849 -3.42774 -6.02061 0
M  V30 9409 N 910.642 -2.62834 -4.96865 0
M  V30 9410 H 902.793 -1.76109 -1.18741 0
M  V30 9411 H 905.056 -0.74936 -0.580658 0
M  V30 9412 H 904.762 -2.37813 -2.5911 0
M  V30 9413 H 904.636 -0.979058 -3.64272 0
M  V30 9414 H 907.023 -0.281586 -2.93753 0
M  V30 9415 H 907.104 -1.71264 -1.90006 0
M  V30 9416 H 906.748 -3.19193 -3.95068 0
M  V30 9417 H 906.678 -1.73411 -4.97228 0
M  V30 9418 H 909.169 -1.61839 -3.41492 0
M  V30 9419 H 909.482 -3.86378 -6.69277 0
M  V30 9420 H 907.827 -3.46878 -6.02246 0
M  V30 9421 H 911.018 -2.08049 -4.19325 0
M  V30 9422 H 911.191 -3.10421 -5.68808 0
M  V30 9423 N 904.597 1.47463 -0.556102 0
M  V30 9424 C 905.874 1.9557 0.0339892 0
M  V30 9425 C 906.254 1.49869 1.48669 0
M  V30 9426 O 905.602 0.737019 2.16288 0
M  V30 9427 C 905.812 3.48826 -0.110343 0
M  V30 9428 C 907.16 4.24585 0.0355716 0
M  V30 9429 O 908.184 3.5618 -0.0378356 0
M  V30 9430 O 907.043 5.46158 0.193299 0
M  V30 9431 H 904.137 0.824461 0.0647521 0
M  V30 9432 H 906.683 1.57868 -0.622547 0
M  V30 9433 H 905.455 3.74891 -1.12126 0
M  V30 9434 H 905.078 3.9329 0.583855 0
M  V30 9435 N 906.075 0.2925 1.54862 0
M  V30 9436 C 907.005 -0.580677 2.26165 0
M  V30 9437 C 907.986 -1.14485 1.25806 0
M  V30 9438 O 909.171 -1.17577 1.54562 0
M  V30 9439 C 906.301 -1.75668 2.99596 0
M  V30 9440 C 905.255 -1.32325 4.07031 0
M  V30 9441 C 904.581 -2.58374 4.68131 0
M  V30 9442 C 905.881 -0.460703 5.20264 0
M  V30 9443 H 907.575 0.0140075 2.99397 0
M  V30 9444 H 905.121 0.00817706 1.43998 0
M  V30 9445 H 907.074 -2.37356 3.48195 0
M  V30 9446 H 905.798 -2.37747 2.23928 0
M  V30 9447 H 904.457 -0.729477 3.59269 0
M  V30 9448 H 904.105 -3.18749 3.89112 0
M  V30 9449 H 903.805 -2.30078 5.40683 0
M  V30 9450 H 905.329 -3.2088 5.19489 0
M  V30 9451 H 906.743 -0.983037 5.64809 0
M  V30 9452 H 905.14 -0.271881 5.99484 0
M  V30 9453 H 906.21 0.516304 4.82143 0
M  V30 9454 N 907.553 -1.57587 0.0200696 0
M  V30 9455 C 908.964 -1.79312 -0.520019 0
M  V30 9456 C 909.315 -0.929475 -1.72787 0
M  V30 9457 O 908.44 -0.137389 -2.15963 0
M  V30 9458 C 909.035 -3.25203 -0.950172 0
M  V30 9459 C 907.594 -3.47954 -1.43543 0
M  V30 9460 C 906.741 -2.74459 -0.395917 0
M  V30 9461 H 909.692 -1.56779 0.246153 0
M  V30 9462 H 909.713 -3.34418 -1.81508 0
M  V30 9463 H 909.225 -3.88035 -0.070883 0
M  V30 9464 H 907.326 -2.90363 -2.33495 0
M  V30 9465 H 907.439 -4.56661 -1.44905 0
M  V30 9466 H 905.803 -2.39669 -0.862022 0
M  V30 9467 H 906.586 -3.40001 0.47475 0
M  V30 9468 N 909.032 0.252966 -1.55557 0
M  V30 9469 C 909.962 1.31691 -1.9282 0
M  V30 9470 C 910.943 1.50516 -0.7924 0
M  V30 9471 O 912.128 1.63225 -1.05219 0
M  V30 9472 C 909.258 2.67281 -2.21762 0
M  V30 9473 C 908.212 2.6316 -3.37536 0
M  V30 9474 C 907.538 4.02488 -3.52005 0
M  V30 9475 C 908.838 2.20675 -4.73392 0
M  V30 9476 H 910.532 1.00751 -2.81939 0
M  V30 9477 H 908.078 0.483219 -1.3565 0
M  V30 9478 H 910.031 3.41842 -2.46419 0
M  V30 9479 H 908.755 2.99845 -1.29463 0
M  V30 9480 H 907.414 1.91057 -3.12878 0
M  V30 9481 H 907.062 4.32307 -2.57137 0
M  V30 9482 H 906.762 4.00621 -4.29857 0
M  V30 9483 H 908.286 4.78758 -3.78977 0
M  V30 9484 H 909.7 2.84965 -4.97461 0
M  V30 9485 H 908.097 2.29931 -5.54303 0
M  V30 9486 H 909.167 1.15831 -4.70862 0
M  V30 9487 N 910.51 1.48831 0.518367 0
M  V30 9488 C 911.442 1.60317 1.63802 0
M  V30 9489 C 912.455 0.486771 1.55352 0
M  V30 9490 O 913.644 0.758111 1.61601 0
M  V30 9491 C 910.744 1.52771 3.02513 0
M  V30 9492 C 909.917 2.79649 3.36326 0
M  V30 9493 C 908.976 2.65396 4.54369 0
M  V30 9494 O 908.002 3.39304 4.57013 0
M  V30 9495 N 909.204 1.75784 5.53245 0
M  V30 9496 H 911.969 2.56878 1.54383 0
M  V30 9497 H 909.53 1.45701 0.705889 0
M  V30 9498 H 911.522 1.40914 3.79375 0
M  V30 9499 H 910.092 0.641381 3.05949 0
M  V30 9500 H 909.312 3.05985 2.48529 0
M  V30 9501 H 910.6 3.63799 3.55707 0
M  V30 9502 H 909.998 1.14961 5.53896 0
M  V30 9503 H 908.555 1.69859 6.29278 0
M  V30 9504 N 911.988 -0.768124 1.37614 0
M  V30 9505 C 912.938 -1.8718 1.30184 0
M  V30 9506 C 913.922 -1.59787 0.188943 0
M  V30 9507 O 915.114 -1.71855 0.423656 0
M  V30 9508 C 912.243 -3.24698 1.11471 0
M  V30 9509 C 911.329 -3.58031 2.27321 0
M  V30 9510 N 911.72 -3.6252 3.52722 0
M  V30 9511 C 910.018 -3.88216 2.19554 0
M  V30 9512 C 910.719 -3.92704 4.29137 0
M  V30 9513 N 909.695 -4.08789 3.58319 0
M  V30 9514 H 913.497 -1.88907 2.25147 0
M  V30 9515 H 911.011 -0.964753 1.30638 0
M  V30 9516 H 913.008 -4.0366 1.04233 0
M  V30 9517 H 911.668 -3.24232 0.174281 0
M  V30 9518 H 912.679 -3.44636 3.86583 0
M  V30 9519 H 909.356 -3.95551 1.33588 0
M  V30 9520 H 910.746 -4.02922 5.37683 0
M  V30 9521 N 913.466 -1.22244 -0.994698 0
M  V30 9522 C 914.691 -1.07299 -1.77487 0
M  V30 9523 C 915.116 0.372302 -1.84379 0
M  V30 9524 O 914.474 1.2689 -1.29494 0
M  V30 9525 C 914.522 -1.68675 -3.18718 0
M  V30 9526 O 913.626 -0.939202 -4.01563 0
M  V30 9527 H 912.967 -0.376979 -0.546611 0
M  V30 9528 H 915.497 -1.62003 -1.24965 0
M  V30 9529 H 915.507 -1.73324 -3.69354 0
M  V30 9530 H 914.182 -2.73849 -3.13017 0
M  V30 9531 H 912.759 -0.968583 -3.60101 0
M  V30 9532 N 914.944 1.19125 -1.03184 0
M  V30 9533 C 916.355 1.70564 -0.759264 0
M  V30 9534 C 916.706 1.8248 0.720794 0
M  V30 9535 O 915.831 1.49804 1.56166 0
M  V30 9536 C 916.426 3.09793 -1.37163 0
M  V30 9537 C 914.985 3.5848 -1.14757 0
M  V30 9538 C 914.132 2.35265 -1.46784 0
M  V30 9539 H 917.083 1.03925 -1.19939 0
M  V30 9540 H 917.104 3.72624 -0.77015 0
M  V30 9541 H 916.616 3.01088 -2.44882 0
M  V30 9542 H 914.717 3.72494 -0.0887182 0
M  V30 9543 H 914.83 4.42426 -1.83836 0
M  V30 9544 H 913.194 2.38747 -0.887254 0
M  V30 9545 H 913.977 2.29188 -2.55593 0
M  V30 9546 N 916.422 0.810101 1.35185 0
M  V30 9547 C 917.332 0.224565 2.33523 0
M  V30 9548 C 918.348 -0.634287 1.62027 0
M  V30 9549 O 919.524 -0.545211 1.9388 0
M  V30 9550 C 916.589 -0.614319 3.41214 0
M  V30 9551 C 915.65 0.265435 4.28479 0
M  V30 9552 C 914.883 -0.533506 5.31027 0
M  V30 9553 O 915.106 -1.7679 5.42311 0
M  V30 9554 O 914.04 0.0774573 6.0185 0
M  V30 9555 H 917.866 1.03815 2.85405 0
M  V30 9556 H 915.451 0.571964 1.38018 0
M  V30 9557 H 917.333 -1.09201 4.07005 0
M  V30 9558 H 916.008 -1.40545 2.91597 0
M  V30 9559 H 914.915 0.790343 3.65656 0
M  V30 9560 H 916.248 1.0206 4.81503 0
M  V30 9561 N 917.9 -1.47166 0.563914 0
M  V30 9562 C 918.863 -2.28571 -0.169624 0
M  V30 9563 C 919.863 -1.37331 -0.836467 0
M  V30 9564 O 921.053 -1.59896 -0.6913 0
M  V30 9565 C 918.185 -3.17201 -1.24886 0
M  V30 9566 H 919.378 -2.94896 0.545539 0
M  V30 9567 H 916.931 -1.52966 0.321121 0
M  V30 9568 H 917.666 -2.55582 -1.99621 0
M  V30 9569 H 917.451 -3.84356 -0.775426 0
M  V30 9570 H 918.941 -3.7852 -1.76388 0
M  V30 9571 N 919.378 -0.300708 -1.54705 0
M  V30 9572 C 920.341 0.562648 -2.22187 0
M  V30 9573 C 921.341 1.06152 -1.20782 0
M  V30 9574 O 922.531 0.957596 -1.45519 0
M  V30 9575 C 919.663 1.77899 -2.908 0
M  V30 9576 H 920.856 -0.0269361 -2.99888 0
M  V30 9577 H 918.409 -0.0515412 -1.56215 0
M  V30 9578 H 919.144 2.40841 -2.17177 0
M  V30 9579 H 918.929 1.42892 -3.65136 0
M  V30 9580 H 920.419 2.39236 -3.42281 0
M  V30 9581 N 920.856 1.57574 -0.0284266 0
M  V30 9582 C 922.096 1.93637 0.65453 0
M  V30 9583 C 922.46 0.905015 1.69332 0
M  V30 9584 O 923.661 1.15181 2.42872 0
M  V30 9585 C 921.932 3.3462 1.25555 0
M  V30 9586 S 923.491 3.92609 1.95968 0
M  V30 9587 H 920.309 0.67755 0.215516 0
M  V30 9588 H 922.911 1.95284 -0.0919257 0
M  V30 9589 H 921.615 4.07499 0.487069 0
M  V30 9590 H 921.146 3.36415 2.03933 0
M  V30 9591 H 923.161 3.75988 3.23802 0
M  V30 9592 N 922.334 -0.244713 1.55689 0
M  V30 9593 C 923.745 -0.813603 1.6804 0
M  V30 9594 C 924.096 -1.85936 0.626281 0
M  V30 9595 O 923.221 -2.15206 -0.227038 0
M  V30 9596 C 923.816 -1.48252 3.04642 0
M  V30 9597 C 922.375 -1.99908 3.18926 0
M  V30 9598 C 921.522 -0.850958 2.6392 0
M  V30 9599 H 924.473 -0.0204805 1.58687 0
M  V30 9600 H 924.494 -2.35062 2.99209 0
M  V30 9601 H 924.006 -0.721164 3.81341 0
M  V30 9602 H 922.107 -2.78918 2.47054 0
M  V30 9603 H 922.22 -2.19497 4.25862 0
M  V30 9604 H 920.584 -1.25206 2.21801 0
M  V30 9605 H 921.367 -0.10265 3.43146 0
M  V30 9606 N 923.813 -1.49104 -0.510467 0
M  V30 9607 C 925.224 -1.51423 -1.09215 0
M  V30 9608 C 925.575 -0.295035 -1.93969 0
M  V30 9609 O 924.7 0.596064 -2.08029 0
M  V30 9610 C 925.295 -2.74387 -1.98739 0
M  V30 9611 C 923.854 -2.79515 -2.52088 0
M  V30 9612 C 923.001 -2.4521 -1.29488 0
M  V30 9613 H 925.952 -1.55938 -0.294807 0
M  V30 9614 H 925.973 -2.54012 -2.83298 0
M  V30 9615 H 925.485 -3.63105 -1.37026 0
M  V30 9616 H 923.586 -1.95054 -3.17466 0
M  V30 9617 H 923.699 -3.81447 -2.89887 0
M  V30 9618 H 922.063 -1.96785 -1.61703 0
M  V30 9619 H 922.846 -3.36192 -0.694978 0
M  V30 9620 N 925.291 0.760815 -1.38019 0
M  V30 9621 C 926.519 1.55001 -1.37048 0
M  V30 9622 C 926.934 1.88754 0.0415261 0
M  V30 9623 O 926.291 1.52254 1.00624 0
M  V30 9624 C 926.342 2.8536 -2.21928 0
M  V30 9625 O 926.063 2.53049 -3.57628 0
M  V30 9626 C 927.564 3.79536 -2.29057 0
M  V30 9627 H 924.784 0.479844 -0.469032 0
M  V30 9628 H 927.328 0.942148 -1.81504 0
M  V30 9629 H 925.483 3.42542 -1.80953 0
M  V30 9630 H 925.897 3.36604 -4.02241 0
M  V30 9631 H 927.371 4.67977 -2.92749 0
M  V30 9632 H 927.848 4.19453 -1.30213 0
M  V30 9633 H 928.454 3.28281 -2.70392 0
M  V30 9634 N 926.769 1.22769 0.988202 0
M  V30 9635 C 927.732 1.00325 2.06076 0
M  V30 9636 C 928.732 -0.0320618 1.60768 0
M  V30 9637 O 929.922 0.206912 1.72967 0
M  V30 9638 C 927.054 0.516376 3.36966 0
M  V30 9639 H 928.247 1.95499 2.27421 0
M  V30 9640 H 925.8 1.04704 1.16047 0
M  V30 9641 H 926.535 -0.439498 3.21308 0
M  V30 9642 H 926.32 1.26337 3.71189 0
M  V30 9643 H 927.81 0.37974 4.1587 0
M  V30 9644 N 928.247 -1.18576 1.03814 0
M  V30 9645 C 929.495 -1.88121 0.738574 0
M  V30 9646 C 929.816 -1.80587 -0.735744 0
M  V30 9647 O 929.086 -1.22251 -1.53074 0
M  V30 9648 H 927.666 -0.696417 0.270208 0
M  V30 9649 H 930.328 -1.43912 1.31435 0
M  V30 9650 H 929.424 -2.94222 1.04115 0
M  V30 9651 N 929.725 -0.817259 -1.34754 0
M  V30 9652 C 930.953 -0.415451 -2.02686 0
M  V30 9653 C 931.368 0.97688 -1.61563 0
M  V30 9654 O 930.725 1.63125 -0.818321 0
M  V30 9655 C 930.776 -0.501486 -3.58005 0
M  V30 9656 O 930.497 -1.83893 -3.97637 0
M  V30 9657 C 931.998 -0.0938504 -4.43201 0
M  V30 9658 H 929.218 -0.16742 -0.649778 0
M  V30 9659 H 931.762 -1.10384 -1.7215 0
M  V30 9660 H 929.917 0.138766 -3.87151 0
M  V30 9661 H 930.331 -1.8092 -4.92309 0
M  V30 9662 H 931.805 -0.205145 -5.51619 0
M  V30 9663 H 932.282 0.962011 -4.28535 0
M  V30 9664 H 932.888 -0.707677 -4.19371 0
M  V30 9665 N 931.203 1.46865 -0.571711 0
M  V30 9666 C 932.133 2.3298 0.155795 0
M  V30 9667 C 933.114 1.44678 0.894553 0
M  V30 9668 O 934.299 1.73513 0.872176 0
M  V30 9669 C 931.429 3.26745 1.17708 0
M  V30 9670 C 930.383 4.24401 0.553863 0
M  V30 9671 C 929.709 5.07595 1.68083 0
M  V30 9672 C 931.009 5.19884 -0.501827 0
M  V30 9673 H 932.703 2.94056 -0.563176 0
M  V30 9674 H 930.249 1.41402 -0.27228 0
M  V30 9675 H 932.202 3.85838 1.6943 0
M  V30 9676 H 930.926 2.63753 1.92618 0
M  V30 9677 H 929.585 3.66554 0.057815 0
M  V30 9678 H 929.233 4.40996 2.41933 0
M  V30 9679 H 928.933 5.73722 1.26953 0
M  V30 9680 H 930.457 5.6955 2.20103 0
M  V30 9681 H 931.871 5.73257 -0.0701057 0
M  V30 9682 H 930.268 5.94293 -0.832815 0
M  V30 9683 H 931.338 4.64482 -1.39229 0
M  V30 9684 N 932.681 0.308908 1.54543 0
M  V30 9685 C 933.928 -0.298036 2.00295 0
M  V30 9686 C 934.256 -1.53285 1.19724 0
M  V30 9687 O 933.511 -1.93917 0.263551 0
M  V30 9688 C 933.81 -0.691522 3.50646 0
M  V30 9689 C 933.476 0.442454 4.48724 0
M  V30 9690 C 932.138 0.753739 4.7526 0
M  V30 9691 C 934.49 1.20488 5.07082 0
M  V30 9692 C 931.818 1.83044 5.57415 0
M  V30 9693 C 934.17 2.27156 5.90409 0
M  V30 9694 C 932.834 2.58882 6.15253 0
M  V30 9695 H 932.104 -0.109059 0.73293 0
M  V30 9696 H 934.751 0.429647 1.86618 0
M  V30 9697 H 933.056 -1.49941 3.61974 0
M  V30 9698 H 934.753 -1.17244 3.83477 0
M  V30 9699 H 931.343 0.189744 4.2818 0
M  V30 9700 H 935.527 0.977653 4.86575 0
M  V30 9701 H 930.783 2.08088 5.749 0
M  V30 9702 H 934.957 2.86687 6.34652 0
M  V30 9703 H 932.584 3.42443 6.78702 0
M  V30 9704 N 934.159 -1.57557 0.0367827 0
M  V30 9705 C 935.089 -2.13712 -0.940719 0
M  V30 9706 C 936.07 -1.05515 -1.33419 0
M  V30 9707 O 937.255 -1.33385 -1.41146 0
M  V30 9708 C 934.385 -2.67043 -2.22048 0
M  V30 9709 C 933.339 -3.80096 -1.96752 0
M  V30 9710 C 932.665 -4.19886 -3.31059 0
M  V30 9711 C 933.965 -5.05848 -1.30058 0
M  V30 9712 H 935.659 -2.9564 -0.473033 0
M  V30 9713 H 933.205 -1.42214 -0.226089 0
M  V30 9714 H 935.158 -3.04964 -2.90818 0
M  V30 9715 H 933.882 -1.82287 -2.70996 0
M  V30 9716 H 932.541 -3.42625 -1.30398 0
M  V30 9717 H 932.189 -3.32101 -3.77781 0
M  V30 9718 H 931.889 -4.96073 -3.14937 0
M  V30 9719 H 933.413 -4.60395 -4.01084 0
M  V30 9720 H 934.827 -5.41306 -1.8884 0
M  V30 9721 H 933.224 -5.87084 -1.24309 0
M  V30 9722 H 934.294 -4.84122 -0.274591 0
M  V30 9723 N 935.637 0.236453 -1.55816 0
M  V30 9724 C 937.048 0.80468 -1.68469 0
M  V30 9725 C 937.399 1.85601 -0.636133 0
M  V30 9726 O 936.524 2.15323 0.215622 0
M  V30 9727 C 937.119 1.46634 -3.05424 0
M  V30 9728 C 935.678 1.98214 -3.19981 0
M  V30 9729 C 934.825 0.83695 -2.64368 0
M  V30 9730 H 937.776 0.0120647 -1.58695 0
M  V30 9731 H 937.797 2.33472 -3.00451 0
M  V30 9732 H 937.309 0.700931 -3.81718 0
M  V30 9733 H 935.41 2.77604 -2.4853 0
M  V30 9734 H 935.523 2.17235 -4.2702 0
M  V30 9735 H 933.887 1.24028 -2.22462 0
M  V30 9736 H 934.67 0.084451 -3.43196 0
M  V30 9737 N 937.115 1.49373 0.502552 0
M  V30 9738 C 938.065 1.62321 1.60112 0
M  V30 9739 C 939.049 0.47895 1.53606 0
M  V30 9740 O 940.241 0.731824 1.61162 0
M  V30 9741 C 937.37 1.69162 2.98729 0
M  V30 9742 C 936.456 2.89161 3.10237 0
M  V30 9743 N 936.847 4.13256 2.91638 0
M  V30 9744 C 935.145 2.87065 3.41335 0
M  V30 9745 C 935.846 4.93913 3.07287 0
M  V30 9746 N 934.822 4.27249 3.36094 0
M  V30 9747 H 938.624 2.55989 1.44384 0
M  V30 9748 H 936.138 1.46123 0.708644 0
M  V30 9749 H 938.135 1.76536 3.77678 0
M  V30 9750 H 936.795 0.766301 3.15528 0
M  V30 9751 H 937.806 4.4326 2.67844 0
M  V30 9752 H 934.483 2.03905 3.6432 0
M  V30 9753 H 935.873 6.02491 2.97413 0
M  V30 9754 O 938.632 -0.647824 1.47937 0
M  V30 9755 H 939.323 -1.30144 1.43465 0
M  V30 END ATOM
M  V30 BEGIN BOND
M  V30 END BOND
M  V30 END CTAB
M  END
$$$$
