drugbank_target|Q04206 Transcription factor p65 (DB08908)
 OpenBabel12092121023D

  0  0  0     0  0            999 V3000
M  V30 BEGIN CTAB
M  V30 COUNTS 8412 8530 0 0 0
M  V30 BEGIN ATOM
M  V30 1 H -0.908 1.98254 -0.117106 0
M  V30 2 N 0 1.576 0 0
M  V30 3 C 0.933 2.03868 1.02534 0
M  V30 4 C 1.911 0.928543 1.3348 0
M  V30 5 O 3.095 1.19667 1.45644 0
M  V30 6 C 0.222 2.43627 2.35294 0
M  V30 7 C -0.732 3.65373 2.2001 0
M  V30 8 S 0.101 5.13292 1.52614 0
M  V30 9 C 1.257 5.56322 2.86805 0
M  V30 10 H 1.49 2.90518 0.631377 0
M  V30 11 H -0.977 1.52953 0.210867 0
M  V30 12 H 0.981 2.67203 3.11629 0
M  V30 13 H -0.358 1.57376 2.7183 0
M  V30 14 H -1.165 3.90944 3.18086 0
M  V30 15 H -1.563 3.418 1.51819 0
M  V30 16 H 0.729 5.58782 3.83104 0
M  V30 17 H 1.672 6.56266 2.65933 0
M  V30 18 H 2.08 4.83886 2.90714 0
M  V30 19 N 1.4781 -0.272755 1.55222 0
M  V30 20 C 2.7551 -1.02562 1.66555 0
M  V30 21 C 3.1351 -2.04282 0.532189 0
M  V30 22 O 2.4831 -2.23662 -0.467717 0
M  V30 23 C 2.6931 -1.6822 3.05782 0
M  V30 24 C 4.0411 -2.19373 3.63539 0
M  V30 25 O 5.0651 -1.78206 3.08417 0
M  V30 26 O 3.9241 -2.94883 4.60115 0
M  V30 27 H 1.0181 -0.475755 0.676451 0
M  V30 28 H 3.5641 -0.268593 1.67561 0
M  V30 29 H 2.3361 -0.945112 3.79715 0
M  V30 30 H 1.9591 -2.50609 3.08676 0
M  V30 31 N 2.9562 -1.48159 -0.537278 0
M  V30 32 C 3.8662 -1.64807 -1.6696 0
M  V30 33 C 4.8822 -0.530651 -1.65711 0
M  V30 34 O 6.0582 -0.800784 -1.84796 0
M  V30 35 C 3.1232 -1.67708 -3.03438 0
M  V30 36 C 2.1842 -2.91025 -3.156 0
M  V30 37 C 1.4172 -2.93778 -4.45567 0
M  V30 38 O 1.6402 -2.05153 -5.3223 0
M  V30 39 O 0.5742 -3.85868 -4.61941 0
M  V30 40 H 4.4002 -2.6066 -1.55853 0
M  V30 41 H 1.9852 -1.31475 -0.709549 0
M  V30 42 H 3.8672 -1.7218 -3.84619 0
M  V30 43 H 2.5422 -0.750278 -3.14885 0
M  V30 44 H 1.4492 -2.92089 -2.33741 0
M  V30 45 H 2.7822 -3.83065 -3.09066 0
M  V30 46 N 4.4343 0.785586 -1.36625 0
M  V30 47 C 5.3643 1.91259 -1.33949 0
M  V30 48 C 6.3453 1.68795 -0.210325 0
M  V30 49 O 7.5303 1.89854 -0.408561 0
M  V30 50 C 4.6603 3.28339 -1.13186 0
M  V30 51 C 3.6143 3.65335 -2.22967 0
M  V30 52 C 2.9403 5.00806 -1.87342 0
M  V30 53 C 4.2403 3.7352 -3.65075 0
M  V30 54 H 5.9343 1.93755 -2.28253 0
M  V30 55 H 3.4803 0.930788 -1.09874 0
M  V30 56 H 5.4333 4.06804 -1.09948 0
M  V30 57 H 4.1573 3.2624 -0.153332 0
M  V30 58 H 2.8163 2.89169 -2.25337 0
M  V30 59 H 2.4643 4.95233 -0.880545 0
M  V30 60 H 2.1643 5.26529 -2.60846 0
M  V30 61 H 3.6883 5.81687 -1.85667 0
M  V30 62 H 5.1023 4.42168 -3.64911 0
M  V30 63 H 3.4993 4.10731 -4.37516 0
M  V30 64 H 4.5693 2.74527 -3.99703 0
M  V30 65 N 5.9124 1.20967 1.01018 0
M  V30 66 C 7.1594 1.02374 1.74716 0
M  V30 67 C 7.4874 -0.443375 1.89379 0
M  V30 68 O 6.7424 -1.34535 1.42123 0
M  V30 69 C 7.0414 1.65997 3.16512 0
M  V30 70 C 6.7074 3.15831 3.2181 0
M  V30 71 C 5.3694 3.56719 3.22963 0
M  V30 72 C 7.7214 4.11816 3.19464 0
M  V30 73 C 5.0494 4.92107 3.19449 0
M  V30 74 C 7.4014 5.47158 3.17491 0
M  V30 75 C 6.0654 5.87451 3.16951 0
M  V30 76 H 5.3354 0.374614 0.639332 0
M  V30 77 H 7.9824 1.50485 1.18434 0
M  V30 78 H 6.2874 1.10166 3.75993 0
M  V30 79 H 7.9844 1.49119 3.72242 0
M  V30 80 H 4.5744 2.83263 3.21652 0
M  V30 81 H 8.7584 3.81257 3.17737 0
M  V30 82 H 4.0144 5.22579 3.17366 0
M  V30 83 H 8.1884 6.21274 3.14629 0
M  V30 84 H 5.8154 6.92329 3.13983 0
M  V30 85 N 7.3905 -1.2043 1.01659 0
M  V30 86 C 8.8015 -1.71517 0.737482 0
M  V30 87 C 9.1525 -1.81547 -0.743973 0
M  V30 88 O 8.2775 -1.47803 -1.58061 0
M  V30 89 C 8.8725 -3.11515 1.33206 0
M  V30 90 C 7.4315 -3.59912 1.10183 0
M  V30 91 C 6.5785 -2.37116 1.43776 0
M  V30 92 H 9.5295 -1.05444 1.18606 0
M  V30 93 H 9.5505 -3.73575 0.722636 0
M  V30 94 H 9.0625 -3.04182 2.41028 0
M  V30 95 H 7.1635 -3.72577 0.0412756 0
M  V30 96 H 7.2765 -4.44731 1.78188 0
M  V30 97 H 5.6405 -2.39857 0.856778 0
M  V30 98 H 6.4235 -2.32424 2.52654 0
M  V30 99 N 8.8686 -0.792821 -1.36206 0
M  V30 100 C 9.7986 -0.207853 -2.32573 0
M  V30 101 C 10.7796 0.659055 -1.56813 0
M  V30 102 O 11.9646 0.592176 -1.84951 0
M  V30 103 C 9.0946 0.655449 -3.41059 0
M  V30 104 C 8.0486 -0.111842 -4.27854 0
M  V30 105 C 7.3746 0.872274 -5.27537 0
M  V30 106 C 8.6746 -1.30299 -5.05786 0
M  V30 107 H 10.3686 -1.01294 -2.81744 0
M  V30 108 H 7.9146 -0.48854 -1.3546 0
M  V30 109 H 9.8676 1.07464 -4.07467 0
M  V30 110 H 8.5916 1.49328 -2.90463 0
M  V30 111 H 7.2506 -0.512053 -3.63006 0
M  V30 112 H 6.8986 1.70523 -4.73214 0
M  V30 113 H 6.5986 0.363291 -5.86476 0
M  V30 114 H 8.1226 1.28996 -5.96818 0
M  V30 115 H 9.5366 -0.959379 -5.65216 0
M  V30 116 H 7.9336 -1.7455 -5.74154 0
M  V30 117 H 9.0036 -2.09663 -4.37229 0
M  V30 118 N 10.3467 1.47872 -0.545128 0
M  V30 119 C 11.5957 2.01695 -0.0145033 0
M  V30 120 C 11.9087 1.42609 1.33873 0
M  V30 121 O 13.1147 1.88021 1.95858 0
M  V30 122 C 11.5707 3.59892 0.0245068 0
M  V30 123 C 11.1787 4.27966 -1.32475 0
M  V30 124 C 12.9227 4.21507 0.50316 0
M  V30 125 C 10.8297 5.78136 -1.2455 0
M  V30 126 H 9.7597 0.753998 -0.00165172 0
M  V30 127 H 12.4107 1.69985 -0.691175 0
M  V30 128 H 10.7927 3.88509 0.766575 0
M  V30 129 H 11.9667 4.11003 -2.08357 0
M  V30 130 H 10.2817 3.78286 -1.74036 0
M  V30 131 H 12.8787 5.31538 0.580656 0
M  V30 132 H 13.2217 3.87855 1.51243 0
M  V30 133 H 13.7547 3.97376 -0.183681 0
M  V30 134 H 10.4937 6.16388 -2.23039 0
M  V30 135 H 10.0137 5.97469 -0.528282 0
M  V30 136 H 11.6927 6.40099 -0.942488 0
M  V30 137 N 11.8248 0.280983 1.55075 0
M  V30 138 C 13.0718 -0.334115 1.99725 0
M  V30 139 C 13.3998 -1.5542 1.1694 0
M  V30 140 O 12.6548 -1.94361 0.228531 0
M  V30 141 C 12.9538 -0.754656 3.49342 0
M  V30 142 C 12.6198 0.361445 4.49449 0
M  V30 143 C 11.2818 0.667893 4.76542 0
M  V30 144 C 13.6338 1.11322 5.09173 0
M  V30 145 C 10.9618 1.7296 5.60626 0
M  V30 146 C 13.3138 2.1647 5.9441 0
M  V30 147 C 11.9778 2.47742 6.19822 0
M  V30 148 H 11.2478 -0.122261 0.730844 0
M  V30 149 H 13.8948 0.395917 1.87363 0
M  V30 150 H 12.1998 -1.56446 3.5921 0
M  V30 151 H 13.8968 -1.24142 3.813 0
M  V30 152 H 10.4868 0.112481 4.28452 0
M  V30 153 H 14.6708 0.88973 4.8826 0
M  V30 154 H 9.9268 1.97684 5.78559 0
M  V30 155 H 14.1008 2.75193 6.3972 0
M  V30 156 H 11.7278 3.30145 6.84769 0
M  V30 157 N 13.3029 -1.57598 0.00835791 0
M  V30 158 C 14.7139 -1.7892 -0.53333 0
M  V30 159 C 15.0649 -0.916609 -1.73473 0
M  V30 160 O 14.1899 -0.121336 -2.1606 0
M  V30 161 C 14.7849 -3.24488 -0.974313 0
M  V30 162 C 13.3439 -3.46878 -1.46125 0
M  V30 163 C 12.4909 -2.74157 -0.416302 0
M  V30 164 H 15.4419 -1.56958 0.234495 0
M  V30 165 H 15.4629 -3.3306 -1.83988 0
M  V30 166 H 14.9749 -3.87972 -0.099718 0
M  V30 167 H 13.0759 -2.8862 -2.35646 0
M  V30 168 H 13.1889 -4.55572 -1.48295 0
M  V30 169 H 11.5529 -2.39022 -0.87981 0
M  V30 170 H 12.3359 -3.40345 0.44947 0
M  V30 171 N 14.781 0.264519 -1.55364 0
M  V30 172 C 15.744 1.31046 -1.88042 0
M  V30 173 C 16.744 1.41943 -0.755569 0
M  V30 174 O 17.934 1.40947 -1.02369 0
M  V30 175 C 15.066 2.69067 -2.09323 0
M  V30 176 H 16.259 1.03297 -2.81549 0
M  V30 177 H 13.812 0.502989 -1.47986 0
M  V30 178 H 14.547 3.01982 -1.18226 0
M  V30 179 H 14.332 2.62542 -2.91229 0
M  V30 180 H 15.822 3.44623 -2.35848 0
M  V30 181 N 16.2591 1.48442 0.529413 0
M  V30 182 C 17.1691 1.6569 1.66084 0
M  V30 183 C 18.1851 0.539432 1.65427 0
M  V30 184 O 19.3611 0.810572 1.84368 0
M  V30 185 C 16.4261 1.69315 3.02545 0
M  V30 186 C 15.4871 2.92694 3.14052 0
M  V30 187 C 14.7201 2.96137 4.44003 0
M  V30 188 O 14.9431 2.07973 5.31134 0
M  V30 189 O 13.8771 3.88312 4.59888 0
M  V30 190 H 17.7031 2.61483 1.54469 0
M  V30 191 H 15.2881 1.3185 0.702567 0
M  V30 192 H 17.1701 1.74217 3.83701 0
M  V30 193 H 15.8451 0.766966 3.14483 0
M  V30 194 H 14.7521 2.93324 2.32189 0
M  V30 195 H 16.0851 3.84699 3.0703 0
M  V30 196 N 17.7372 -0.778329 1.37039 0
M  V30 197 C 19.1482 -1.35421 1.28523 0
M  V30 198 C 19.4992 -1.96075 -0.0700901 0
M  V30 199 O 18.6242 -1.93352 -0.971801 0
M  V30 200 C 19.2192 -2.46211 2.32735 0
M  V30 201 C 17.7782 -2.99585 2.27873 0
M  V30 202 C 16.9252 -1.72748 2.16918 0
M  V30 203 H 19.8762 -0.5791 1.47757 0
M  V30 204 H 19.8972 -3.2552 1.9702 0
M  V30 205 H 19.4092 -2.02036 3.31365 0
M  V30 206 H 17.5102 -3.48152 1.32745 0
M  V30 207 H 17.6232 -3.55646 3.21018 0
M  V30 208 H 15.9872 -1.95416 1.63354 0
M  V30 209 H 16.7702 -1.30686 3.17452 0
M  V30 210 N 19.2153 -1.21501 -1.00376 0
M  V30 211 C 20.1783 -0.976927 -2.07337 0
M  V30 212 C 21.1783 0.0525322 -1.60714 0
M  V30 213 O 22.3683 -0.184869 -1.73216 0
M  V30 214 C 19.5003 -0.473423 -3.37597 0
M  V30 215 H 20.6933 -1.92587 -2.29892 0
M  V30 216 H 18.2463 -1.03217 -1.17371 0
M  V30 217 H 18.9813 0.480379 -3.20722 0
M  V30 218 H 18.7663 -1.216 -3.72768 0
M  V30 219 H 20.2563 -0.32675 -4.1632 0
M  V30 220 N 20.6934 1.19889 -1.02296 0
M  V30 221 C 21.6254 2.22334 -0.556787 0
M  V30 222 C 22.6384 1.58674 0.364199 0
M  V30 223 O 23.8274 1.77768 0.161533 0
M  V30 224 C 20.9274 3.38257 0.208694 0
M  V30 225 C 20.1004 4.31504 -0.71577 0
M  V30 226 C 19.1594 5.262 0.00325597 0
M  V30 227 O 18.1854 5.65798 -0.621357 0
M  V30 228 N 19.3874 5.66303 1.27599 0
M  V30 229 H 22.1524 2.62957 -1.43784 0
M  V30 230 H 19.7134 1.34495 -0.901261 0
M  V30 231 H 21.7054 3.98616 0.699111 0
M  V30 232 H 20.2754 2.96472 0.991102 0
M  V30 233 H 19.4954 3.69016 -1.38638 0
M  V30 234 H 20.7834 4.9072 -1.34428 0
M  V30 235 H 20.1814 5.36155 1.80429 0
M  V30 236 H 18.7384 6.28942 1.71102 0
M  V30 237 N 22.1715 0.800033 1.35784 0
M  V30 238 C 23.1345 0.211565 2.28221 0
M  V30 239 C 24.1345 -0.59728 1.49296 0
M  V30 240 O 25.3245 -0.416721 1.69142 0
M  V30 241 C 22.4565 -0.705846 3.33513 0
M  V30 242 H 23.6495 1.02677 2.81776 0
M  V30 243 H 21.2025 0.570211 1.45528 0
M  V30 244 H 21.9375 -1.54498 2.85133 0
M  V30 245 H 21.7225 -0.127655 3.91892 0
M  V30 246 H 23.2125 -1.11211 4.02519 0
M  V30 247 N 23.6496 -1.47581 0.552962 0
M  V30 248 C 24.8746 -2.07378 0.0300593 0
M  V30 249 C 25.2996 -1.40355 -1.25229 0
M  V30 250 O 24.6576 -0.477099 -1.7491 0
M  V30 251 C 24.7056 -3.60274 -0.153231 0
M  V30 252 O 23.8096 -3.94041 -1.21678 0
M  V30 253 H 23.1506 -0.662158 0.0494182 0
M  V30 254 H 25.6806 -1.89662 0.767434 0
M  V30 255 H 25.6906 -4.0633 -0.368761 0
M  V30 256 H 24.3656 -4.08455 0.783397 0
M  V30 257 H 22.9426 -3.59735 -0.982079 0
M  V30 258 N 25.1277 -0.289203 -1.54924 0
M  V30 259 C 26.3757 0.322879 -1.99504 0
M  V30 260 C 26.6967 1.55313 -1.1791 0
M  V30 261 O 25.9667 1.94001 -0.272097 0
M  V30 262 H 24.5467 0.122291 -0.736922 0
M  V30 263 H 27.2087 -0.397802 -1.90797 0
M  V30 264 H 26.3047 0.603061 -3.06218 0
M  V30 265 N 26.6058 1.57591 -0.0167156 0
M  V30 266 C 28.0168 1.79201 0.523834 0
M  V30 267 C 28.3678 0.925796 1.72984 0
M  V30 268 O 27.4928 0.132792 2.15992 0
M  V30 269 C 28.0878 3.25 0.957091 0
M  V30 270 C 26.6468 3.47648 1.44283 0
M  V30 271 C 25.7938 2.74374 0.401757 0
M  V30 272 H 28.7448 1.56831 -0.242816 0
M  V30 273 H 28.7658 3.34031 1.82219 0
M  V30 274 H 28.2778 3.88019 0.0791415 0
M  V30 275 H 26.3788 2.89866 2.34113 0
M  V30 276 H 26.4918 4.56352 1.45877 0
M  V30 277 H 24.8558 2.39485 0.867121 0
M  V30 278 H 25.6388 3.40102 -0.467513 0
M  V30 279 N 28.0839 -0.256276 1.55502 0
M  V30 280 C 29.3139 -1.00196 1.80677 0
M  V30 281 C 29.7219 -1.79805 0.588797 0
M  V30 282 O 29.0649 -1.78055 -0.451883 0
M  V30 283 C 29.1269 -1.99515 2.99055 0
M  V30 284 C 28.7909 -1.38688 4.35448 0
M  V30 285 C 29.7879 -0.794079 5.138 0
M  V30 286 C 27.4729 -1.40906 4.82132 0
M  V30 287 C 29.4669 -0.231562 6.36979 0
M  V30 288 C 27.1539 -0.842684 6.05262 0
M  V30 289 C 28.1519 -0.254953 6.82524 0
M  V30 290 O 27.8399 0.3027 8.0333 0
M  V30 291 H 27.5719 -0.300919 0.60533 0
M  V30 292 H 30.1259 -0.287307 2.03381 0
M  V30 293 H 28.3559 -2.74785 2.72084 0
M  V30 294 H 30.0449 -2.60349 3.11405 0
M  V30 295 H 30.8109 -0.769519 4.78856 0
M  V30 296 H 26.6899 -1.85591 4.21992 0
M  V30 297 H 30.2339 0.227816 6.97228 0
M  V30 298 H 26.1309 -0.86454 6.39684 0
M  V30 299 H 26.8989 0.193662 8.18271 0
M  V30 300 N 29.562 -1.4872 -0.521534 0
M  V30 301 C 30.808 -1.574 -1.27879 0
M  V30 302 C 31.141 -0.250817 -1.92573 0
M  V30 303 O 30.416 0.743934 -1.79711 0
M  V30 304 C 30.699 -2.71843 -2.36164 0
M  V30 305 C 30.552 -4.13893 -1.76105 0
M  V30 306 C 31.871 -2.82008 -3.37875 0
M  V30 307 H 28.99 -0.572941 -0.463581 0
M  V30 308 H 31.632 -1.80927 -0.580119 0
M  V30 309 H 29.782 -2.51914 -2.95756 0
M  V30 310 H 31.454 -4.45284 -1.20499 0
M  V30 311 H 29.697 -4.20498 -1.06601 0
M  V30 312 H 30.368 -4.89804 -2.5455 0
M  V30 313 H 32.844 -3.00086 -2.88249 0
M  V30 314 H 31.72 -3.63796 -4.11028 0
M  V30 315 H 31.981 -1.90511 -3.98946 0
M  V30 316 N 31.0401 0.771051 -1.3745 0
M  V30 317 C 31.9501 1.91538 -1.35464 0
M  V30 318 C 32.9661 1.72134 -0.254123 0
M  V30 319 O 34.1421 1.95358 -0.489626 0
M  V30 320 C 31.2071 3.26671 -1.16134 0
M  V30 321 C 30.2681 3.58723 -2.35831 0
M  V30 322 C 29.5011 4.87409 -2.17413 0
M  V30 323 O 29.7241 5.58506 -1.15876 0
M  V30 324 O 28.6581 5.18539 -3.05615 0
M  V30 325 H 32.4841 1.96165 -2.31847 0
M  V30 326 H 30.0691 0.9139 -1.18187 0
M  V30 327 H 31.9511 4.07499 -1.07345 0
M  V30 328 H 30.6261 3.22894 -0.228251 0
M  V30 329 H 29.5331 2.78127 -2.50192 0
M  V30 330 H 30.8661 3.67243 -3.27709 0
M  V30 331 N 32.5182 1.22032 0.997298 0
M  V30 332 C 33.7672 1.03637 1.73038 0
M  V30 333 C 34.0802 -0.429475 1.90827 0
M  V30 334 O 35.2862 -0.732995 2.61418 0
M  V30 335 C 33.7422 1.80582 3.11317 0
M  V30 336 C 33.3502 3.31387 3.01474 0
M  V30 337 C 35.0942 1.70621 3.88701 0
M  V30 338 C 33.0012 4.00791 4.3488 0
M  V30 339 H 31.9312 0.384179 0.648785 0
M  V30 340 H 34.5822 1.4584 1.11368 0
M  V30 341 H 32.9642 1.31175 3.73643 0
M  V30 342 H 34.1382 3.88155 2.4834 0
M  V30 343 H 32.4532 3.41976 2.37575 0
M  V30 344 H 35.0502 2.19799 4.87434 0
M  V30 345 H 35.3932 0.665823 4.10941 0
M  V30 346 H 35.9262 2.17547 3.33044 0
M  V30 347 H 32.6652 5.05064 4.1784 0
M  V30 348 H 32.1852 3.48811 4.87945 0
M  V30 349 H 33.8642 4.06139 5.03647 0
M  V30 350 N 33.9963 -1.19345 1.0293 0
M  V30 351 C 35.2453 -1.88363 0.721256 0
M  V30 352 C 35.5583 -1.80514 -0.753254 0
M  V30 353 O 36.7643 -2.44788 -1.17436 0
M  V30 354 C 35.2203 -3.37872 1.23978 0
M  V30 355 C 34.8283 -3.54278 2.74211 0
M  V30 356 C 36.5723 -4.12365 1.00775 0
M  V30 357 C 34.4793 -4.97682 3.19479 0
M  V30 358 H 33.4093 -0.705484 0.266098 0
M  V30 359 H 36.0603 -1.34928 1.24365 0
M  V30 360 H 34.4423 -3.90707 0.6453 0
M  V30 361 H 35.6163 -3.11769 3.39318 0
M  V30 362 H 33.9313 -2.93174 2.95699 0
M  V30 363 H 36.5283 -5.18119 1.32123 0
M  V30 364 H 36.8713 -4.16263 -0.0554308 0
M  V30 365 H 37.4043 -3.65668 1.56625 0
M  V30 366 H 34.1433 -4.98945 4.25128 0
M  V30 367 H 33.6633 -5.4095 2.591 0
M  V30 368 H 35.3423 -5.66337 3.12845 0
M  V30 369 N 35.4744 -0.807222 -1.35358 0
M  V30 370 C 36.3844 -0.219594 -2.3357 0
M  V30 371 C 37.4004 0.637734 -1.61892 0
M  V30 372 O 38.5764 0.549336 -1.93763 0
M  V30 373 C 35.6414 0.62158 -3.41083 0
M  V30 374 C 34.7024 -0.256315 -4.28534 0
M  V30 375 C 33.9354 0.544807 -5.30912 0
M  V30 376 O 34.1584 1.77944 -5.41934 0
M  V30 377 O 33.0924 -0.0646478 -6.01865 0
M  V30 378 H 36.9184 -1.03208 -2.85625 0
M  V30 379 H 34.5034 -0.569025 -1.38139 0
M  V30 380 H 36.3854 1.10067 -4.06772 0
M  V30 381 H 35.0604 1.41165 -2.91297 0
M  V30 382 H 33.9674 -0.782559 -3.65823 0
M  V30 383 H 35.3004 -1.01034 -4.81719 0
M  V30 384 N 36.9525 1.47285 -0.560781 0
M  V30 385 C 37.8845 2.28118 0.222438 0
M  V30 386 C 38.8975 1.37219 0.876056 0
M  V30 387 O 40.0865 1.62011 0.749307 0
M  V30 388 C 37.1865 3.1159 1.33285 0
M  V30 389 C 36.3595 4.30473 0.77534 0
M  V30 390 C 35.4185 4.95513 1.77069 0
M  V30 391 O 34.4445 5.53792 1.31539 0
M  V30 392 N 35.6465 4.90531 3.10418 0
M  V30 393 H 38.4115 2.95976 -0.470958 0
M  V30 394 H 35.9725 1.56955 -0.39709 0
M  V30 395 H 37.9645 3.51967 1.99752 0
M  V30 396 H 36.5345 2.45951 1.92943 0
M  V30 397 H 35.7545 3.94144 -0.0662113 0
M  V30 398 H 37.0425 5.07362 0.382272 0
M  V30 399 H 36.4405 4.44389 3.5005 0
M  V30 400 H 34.9975 5.34917 3.72434 0
M  V30 401 N 38.4306 0.297415 1.54768 0
M  V30 402 C 39.8416 -0.195947 1.85669 0
M  V30 403 C 40.1926 -1.53707 1.21937 0
M  V30 404 O 39.3176 -2.10164 0.515754 0
M  V30 405 C 39.9126 -0.362318 3.36857 0
M  V30 406 C 38.4716 -0.799901 3.67802 0
M  V30 407 C 37.6186 0.0938578 2.77141 0
M  V30 408 H 40.5696 0.518538 1.4999 0
M  V30 409 H 40.5906 -1.19745 3.61167 0
M  V30 410 H 40.1026 0.613921 3.83214 0
M  V30 411 H 38.2036 -1.78682 3.26961 0
M  V30 412 H 38.3166 -0.621773 4.75048 0
M  V30 413 H 36.6806 -0.426254 2.51108 0
M  V30 414 H 37.4636 1.06639 3.26318 0
M  V30 415 N 39.9087 -1.5758 0.0250728 0
M  V30 416 C 40.8557 -2.09973 -0.958129 0
M  V30 417 C 41.8257 -1.00085 -1.3256 0
M  V30 418 O 43.0107 -1.27481 -1.41962 0
M  V30 419 C 40.1507 -2.62812 -2.2366 0
M  V30 420 C 39.2637 -3.86693 -1.92594 0
M  V30 421 C 38.3987 -4.27941 -3.14707 0
M  V30 422 C 37.4377 -5.44591 -2.79442 0
M  V30 423 N 36.5747 -5.81014 -3.94167 0
M  V30 424 H 41.4147 -2.937 -0.504428 0
M  V30 425 H 38.9517 -1.45172 -0.237392 0
M  V30 426 H 40.9097 -2.91536 -2.98434 0
M  V30 427 H 39.5397 -1.81922 -2.66654 0
M  V30 428 H 38.5917 -3.64723 -1.0808 0
M  V30 429 H 39.9037 -4.71547 -1.62619 0
M  V30 430 H 39.0577 -4.58079 -3.97804 0
M  V30 431 H 37.7967 -3.41845 -3.4784 0
M  V30 432 H 36.8017 -5.1415 -1.94755 0
M  V30 433 H 38.0267 -6.32382 -2.47528 0
M  V30 434 H 35.9727 -4.97874 -4.2715 0
M  V30 435 H 35.8897 -6.60498 -3.67801 0
M  V30 436 H 37.1577 -6.15756 -4.7798 0
M  V30 437 N 41.3868 0.248026 -1.55636 0
M  V30 438 C 42.3188 1.32993 -1.8667 0
M  V30 439 C 43.3318 1.44345 -0.752877 0
M  V30 440 O 44.5208 1.45715 -1.03098 0
M  V30 441 C 41.6208 2.70863 -2.03682 0
M  V30 442 C 40.7938 2.81792 -3.34532 0
M  V30 443 C 39.8528 4.005 -3.41301 0
M  V30 444 O 38.8788 3.9008 -4.14519 0
M  V30 445 N 40.0808 5.13618 -2.70512 0
M  V30 446 H 42.8458 1.06707 -2.8006 0
M  V30 447 H 40.4068 0.438129 -1.55859 0
M  V30 448 H 42.3988 3.48612 -2.05553 0
M  V30 449 H 40.9688 2.89862 -1.17041 0
M  V30 450 H 40.1888 1.90729 -3.44987 0
M  V30 451 H 41.4768 2.86043 -4.20781 0
M  V30 452 H 40.8748 5.24975 -2.10755 0
M  V30 453 H 39.4318 5.89505 -2.78077 0
M  V30 454 N 42.8649 1.48995 0.513639 0
M  V30 455 C 44.2809 1.35478 0.843682 0
M  V30 456 C 44.4809 0.378213 1.97919 0
M  V30 457 O 43.5369 -0.194689 2.51748 0
M  V30 458 C 44.8499 2.75901 1.1958 0
M  V30 459 C 46.3979 2.84509 1.30474 0
M  V30 460 C 46.8729 4.25671 1.69021 0
M  V30 461 N 48.3639 4.28422 1.76094 0
M  V30 462 C 49.0989 5.34601 2.07338 0
M  V30 463 N 48.5949 6.5104 2.36894 0
M  V30 464 N 50.3879 5.22007 2.08483 0
M  V30 465 H 42.5389 2.11092 -0.235328 0
M  V30 466 H 44.8019 0.947039 -0.0426669 0
M  V30 467 H 44.5079 3.49001 0.434913 0
M  V30 468 H 44.3819 3.10467 2.1422 0
M  V30 469 H 46.7689 2.11655 2.05637 0
M  V30 470 H 46.8499 2.53542 0.339155 0
M  V30 471 H 46.4939 4.99048 0.944135 0
M  V30 472 H 46.4239 4.54094 2.66658 0
M  V30 473 H 48.9149 3.44441 1.55464 0
M  V30 474 H 49.2279 7.2779 2.59887 0
M  V30 475 H 47.5729 6.54287 2.34378 0
M  V30 476 H 50.7639 4.30051 1.84861 0
M  V30 477 H 50.9369 6.04854 2.325 0
M  V30 478 N 44.343 -0.763751 1.37857 0
M  V30 479 C 45.591 -1.51957 1.33243 0
M  V30 480 C 45.912 -1.94835 -0.0801709 0
M  V30 481 O 45.182 -1.66894 -1.02582 0
M  V30 482 H 43.762 -0.563626 0.49024 0
M  V30 483 H 46.424 -0.908504 1.7243 0
M  V30 484 H 45.52 -2.41523 1.97669 0
M  V30 485 N 45.8211 -1.22559 -0.990812 0
M  V30 486 C 46.7541 -0.940773 -2.07905 0
M  V30 487 C 47.7321 0.117082 -1.62178 0
M  V30 488 O 48.9161 -0.0149506 -1.88494 0
M  V30 489 C 46.0431 -0.415321 -3.36144 0
M  V30 490 C 45.0891 -1.45818 -4.00799 0
M  V30 491 S 45.9221 -3.03219 -4.41382 0
M  V30 492 C 47.0781 -2.52317 -5.72789 0
M  V30 493 H 47.3111 -1.8623 -2.31745 0
M  V30 494 H 44.8441 -1.05688 -1.12558 0
M  V30 495 H 46.8021 -0.118747 -4.10328 0
M  V30 496 H 45.4631 0.485121 -3.10331 0
M  V30 497 H 44.6561 -1.04044 -4.93144 0
M  V30 498 H 44.2581 -1.70356 -3.32949 0
M  V30 499 H 46.5501 -1.93688 -6.49224 0
M  V30 500 H 47.4931 -3.43161 -6.19392 0
M  V30 501 H 47.9011 -1.93529 -5.30289 0
M  V30 502 N 47.2992 1.18797 -1.03562 0
M  V30 503 C 48.7152 1.40671 -0.753917 0
M  V30 504 C 48.9152 1.9043 0.658686 0
M  V30 505 O 47.9712 2.08538 1.42366 0
M  V30 506 C 49.2842 2.41192 -1.79574 0
M  V30 507 C 50.8322 2.54928 -1.81606 0
M  V30 508 C 51.3072 3.58709 -2.84766 0
M  V30 509 N 52.7982 3.66212 -2.83625 0
M  V30 510 C 53.5332 4.46225 -3.60098 0
M  V30 511 N 53.0292 5.29888 -4.46308 0
M  V30 512 N 54.8222 4.40939 -3.4861 0
M  V30 513 H 46.9732 0.848221 -1.94728 0
M  V30 514 H 49.2362 0.435081 -0.842264 0
M  V30 515 H 48.9422 2.11669 -2.80872 0
M  V30 516 H 48.8162 3.40467 -1.62365 0
M  V30 517 H 51.2032 2.83771 -0.809817 0
M  V30 518 H 51.2842 1.55784 -2.02891 0
M  V30 519 H 50.9282 3.30607 -3.85566 0
M  V30 520 H 50.8582 4.57519 -2.60737 0
M  V30 521 H 53.3492 3.06466 -2.21105 0
M  V30 522 H 53.6622 5.88078 -5.01382 0
M  V30 523 H 52.0072 5.29326 -4.50377 0
M  V30 524 H 55.1982 3.74624 -2.80668 0
M  V30 525 H 55.3712 5.03056 -4.08459 0
M  V30 526 N 48.7773 0.814389 1.34928 0
M  V30 527 C 50.0243 0.398423 1.98542 0
M  V30 528 C 50.3523 -1.03638 1.64589 0
M  V30 529 O 49.6073 -1.73509 0.90516 0
M  V30 530 C 49.9063 0.537781 3.53331 0
M  V30 531 C 49.5723 1.93704 4.07172 0
M  V30 532 C 48.2343 2.31984 4.21589 0
M  V30 533 C 50.5863 2.85213 4.36237 0
M  V30 534 C 47.9143 3.61125 4.62391 0
M  V30 535 C 50.2663 4.13809 4.78482 0
M  V30 536 C 48.9303 4.52077 4.91104 0
M  V30 537 H 48.2003 0.145793 0.726516 0
M  V30 538 H 50.8473 1.03669 1.61012 0
M  V30 539 H 49.1523 -0.183906 3.91368 0
M  V30 540 H 50.8493 0.196588 4.00518 0
M  V30 541 H 47.4393 1.62966 3.96409 0
M  V30 542 H 51.6233 2.56885 4.24645 0
M  V30 543 H 46.8793 3.90612 4.70353 0
M  V30 544 H 51.0533 4.84811 4.99932 0
M  V30 545 H 48.6803 5.52196 5.22478 0
M  V30 546 N 50.2554 -1.46986 0.568584 0
M  V30 547 C 51.6714 -1.57946 0.229189 0
M  V30 548 C 51.8714 -1.56567 -1.26843 0
M  V30 549 O 50.9274 -1.47511 -2.04931 0
M  V30 550 C 52.2404 -2.87963 0.865909 0
M  V30 551 C 53.7884 -3.01568 0.838188 0
M  V30 552 C 54.2634 -4.34301 1.45419 0
M  V30 553 N 55.7544 -4.40965 1.41788 0
M  V30 554 C 56.4894 -5.42256 1.86403 0
M  V30 555 N 55.9854 -6.50297 2.38926 0
M  V30 556 N 57.7784 -5.3337 1.77405 0
M  V30 557 H 49.9294 -1.46126 1.54146 0
M  V30 558 H 52.1924 -0.696156 0.643484 0
M  V30 559 H 51.8984 -2.94742 1.91886 0
M  V30 560 H 51.7724 -3.75423 0.365687 0
M  V30 561 H 54.1594 -2.94379 -0.206106 0
M  V30 562 H 54.2404 -2.1562 1.37629 0
M  V30 563 H 53.8844 -4.42247 2.49761 0
M  V30 564 H 53.8144 -5.19 0.891435 0
M  V30 565 H 56.3054 -3.63484 1.03381 0
M  V30 566 H 56.6184 -7.23777 2.70863 0
M  V30 567 H 54.9634 -6.51155 2.42944 0
M  V30 568 H 58.1544 -4.47865 1.3614 0
M  V30 569 H 58.3274 -6.12169 2.12492 0
M  V30 570 N 51.7335 -0.305618 -1.54608 0
M  V30 571 C 52.9635 0.304333 -2.04346 0
M  V30 572 C 53.3715 1.47715 -1.18224 0
M  V30 573 O 52.7145 1.82591 -0.201577 0
M  V30 574 C 52.7765 0.819031 -3.50046 0
M  V30 575 C 52.4405 -0.22912 -4.56425 0
M  V30 576 C 53.4375 -1.05914 -5.08997 0
M  V30 577 C 51.1225 -0.372148 -5.0092 0
M  V30 578 C 53.1165 -2.01809 -6.04609 0
M  V30 579 C 50.8035 -1.33454 -5.9635 0
M  V30 580 C 51.8015 -2.15599 -6.48079 0
M  V30 581 O 51.4895 -3.10205 -7.41639 0
M  V30 582 H 51.2215 0.0693996 -0.672428 0
M  V30 583 H 53.7755 -0.444548 -2.00532 0
M  V30 584 H 52.0055 1.61852 -3.51199 0
M  V30 585 H 53.6945 1.34537 -3.82955 0
M  V30 586 H 54.4605 -0.959538 -4.75413 0
M  V30 587 H 50.3395 0.257304 -4.60281 0
M  V30 588 H 53.8835 -2.65966 -6.44909 0
M  V30 589 H 49.7805 -1.43485 -6.29351 0
M  V30 590 H 50.5485 -3.05237 -7.59455 0
M  V30 591 N 53.2116 1.57565 -0.0334293 0
M  V30 592 C 54.1586 2.10478 0.946981 0
M  V30 593 C 55.1286 1.00787 1.32027 0
M  V30 594 O 56.3136 1.28232 1.41284 0
M  V30 595 C 53.4536 2.63994 2.22263 0
M  V30 596 C 52.5666 3.87709 1.90541 0
M  V30 597 C 51.7016 4.29604 3.12433 0
M  V30 598 C 50.7406 5.46065 2.76549 0
M  V30 599 N 49.8776 5.83096 3.9108 0
M  V30 600 H 54.7176 2.93963 0.488846 0
M  V30 601 H 52.2546 1.45296 0.22969 0
M  V30 602 H 54.2126 2.93114 2.96884 0
M  V30 603 H 52.8426 1.83333 2.65685 0
M  V30 604 H 51.8946 3.65291 1.06144 0
M  V30 605 H 53.2066 4.72403 1.60116 0
M  V30 606 H 52.3606 4.60182 3.9537 0
M  V30 607 H 51.0996 3.43685 3.46023 0
M  V30 608 H 50.1046 5.15176 1.92026 0
M  V30 609 H 51.3296 6.33685 2.44171 0
M  V30 610 H 49.2756 5.00132 4.24504 0
M  V30 611 H 49.1926 6.6244 3.64293 0
M  V30 612 H 50.4606 6.18282 4.74708 0
M  V30 613 N 54.6897 -0.239769 1.55765 0
M  V30 614 C 55.9297 -0.974076 1.79697 0
M  V30 615 C 56.2937 -1.82249 0.604088 0
M  V30 616 O 57.4947 -2.58913 0.722324 0
M  V30 617 C 55.7657 -1.80595 3.08416 0
M  V30 618 S 57.3247 -2.59838 3.53596 0
M  V30 619 H 54.1427 -0.327524 0.63107 0
M  V30 620 H 56.7447 -0.241277 1.94005 0
M  V30 621 H 55.4487 -1.17249 3.93295 0
M  V30 622 H 54.9797 -2.58137 2.96865 0
M  V30 623 H 56.9947 -3.82987 3.15492 0
M  V30 624 N 56.1678 -1.49265 -0.50573 0
M  V30 625 C 57.0778 -1.68312 -1.63427 0
M  V30 626 C 58.0938 -0.565682 -1.64548 0
M  V30 627 O 59.2698 -0.839801 -1.83055 0
M  V30 628 C 56.3348 -1.74107 -2.99813 0
M  V30 629 C 55.3958 -2.97653 -3.09356 0
M  V30 630 C 54.6288 -3.03163 -4.39236 0
M  V30 631 O 54.8518 -2.16396 -5.27758 0
M  V30 632 O 53.7858 -3.9558 -4.53652 0
M  V30 633 H 57.6118 -2.63907 -1.50289 0
M  V30 634 H 55.1968 -1.32951 -0.681502 0
M  V30 635 H 57.0788 -1.803 -3.80881 0
M  V30 636 H 55.7538 -0.816901 -3.13223 0
M  V30 637 H 54.6608 -2.96981 -2.27493 0
M  V30 638 H 55.9938 -3.89535 -3.00871 0
M  V30 639 N 57.6459 0.756429 -1.3826 0
M  V30 640 C 58.8939 1.51248 -1.34047 0
M  V30 641 C 59.2149 1.94875 0.0698372 0
M  V30 642 O 58.4849 1.67436 1.01696 0
M  V30 643 H 57.0649 0.561018 -0.493222 0
M  V30 644 H 59.7269 0.899347 -1.7291 0
M  V30 645 H 58.8229 2.40472 -1.98947 0
M  V30 646 N 59.124 1.23083 0.984299 0
M  V30 647 C 60.54 0.992637 1.24975 0
M  V30 648 C 60.74 -0.308618 1.99123 0
M  V30 649 O 59.796 -1.02905 2.30579 0
M  V30 650 C 61.109 2.19698 2.05312 0
M  V30 651 C 62.657 2.24147 2.18465 0
M  V30 652 C 63.132 3.44157 3.02192 0
M  V30 653 N 64.623 3.44372 3.09777 0
M  V30 654 C 65.358 4.33886 3.74874 0
M  V30 655 N 64.854 5.3363 4.41827 0
M  V30 656 N 66.647 4.21639 3.71721 0
M  V30 657 H 58.798 2.06731 0.487453 0
M  V30 658 H 61.061 0.906339 0.277944 0
M  V30 659 H 60.767 3.1411 1.58201 0
M  V30 660 H 60.641 2.20465 3.06064 0
M  V30 661 H 63.028 1.30277 2.64786 0
M  V30 662 H 63.109 2.27415 1.17115 0
M  V30 663 H 62.753 4.38332 2.56568 0
M  V30 664 H 62.683 3.3813 4.03702 0
M  V30 665 H 65.174 2.72201 2.62135 0
M  V30 666 H 65.487 5.98196 4.89266 0
M  V30 667 H 63.832 5.37534 4.40548 0
M  V30 668 H 67.023 3.42962 3.18582 0
M  V30 669 H 67.196 4.91604 4.22173 0
M  V30 670 N 60.6021 -1.18246 1.0419 0
M  V30 671 C 61.8271 -1.92736 0.765996 0
M  V30 672 C 62.2521 -1.75728 -0.67091 0
M  V30 673 O 61.6101 -1.06825 -1.46486 0
M  V30 674 C 61.6581 -3.42148 1.13875 0
M  V30 675 O 60.7621 -4.11548 0.264954 0
M  V30 676 H 60.1031 -0.601238 0.281797 0
M  V30 677 H 62.6331 -1.49942 1.39207 0
M  V30 678 H 62.6431 -3.92858 1.1012 0
M  V30 679 H 61.3181 -3.53848 2.18551 0
M  V30 680 H 59.8951 -3.71137 0.362226 0
M  V30 681 N 62.0802 -0.821533 -1.34494 0
M  V30 682 C 63.0432 -0.247847 -2.27856 0
M  V30 683 C 64.0432 0.573453 -1.50227 0
M  V30 684 O 65.2332 0.389759 -1.69784 0
M  V30 685 C 62.3652 0.652698 -3.34593 0
M  V30 686 H 63.5582 -1.07146 -2.80107 0
M  V30 687 H 61.1112 -0.593291 -1.44602 0
M  V30 688 H 61.8462 1.49943 -2.87555 0
M  V30 689 H 61.6312 0.065292 -3.92046 0
M  V30 690 H 63.1212 1.04793 -4.04238 0
M  V30 691 N 63.5583 1.46682 -0.576371 0
M  V30 692 C 64.8063 2.02013 -0.0594163 0
M  V30 693 C 65.1273 1.45101 1.30271 0
M  V30 694 O 64.3973 0.633317 1.8538 0
M  V30 695 H 62.9773 0.746759 -0.0189745 0
M  V30 696 H 65.6393 1.79862 -0.750717 0
M  V30 697 H 64.7353 3.12097 0.014345 0
M  V30 698 N 65.0364 0.313813 1.54444 0
M  V30 699 C 66.2614 -0.296681 2.05267 0
M  V30 700 C 66.6864 -1.45757 1.18897 0
M  V30 701 O 66.0444 -1.80239 0.195886 0
M  V30 702 C 66.0924 -0.71831 3.53373 0
M  V30 703 O 65.1964 -1.82175 3.69981 0
M  V30 704 H 64.5374 -0.0554061 0.661684 0
M  V30 705 H 67.0674 0.459387 1.99376 0
M  V30 706 H 67.0774 -1.00364 3.95463 0
M  V30 707 H 65.7524 0.130821 4.15694 0
M  V30 708 H 64.3294 -1.53598 3.39797 0
M  V30 709 N 66.5145 -1.57545 0.0417849 0
M  V30 710 C 67.7635 -1.91494 -0.633492 0
M  V30 711 C 68.0765 -0.921084 -1.72556 0
M  V30 712 O 69.2825 -1.15228 -2.45835 0
M  V30 713 C 67.7385 -3.40072 -1.17808 0
M  V30 714 C 67.3465 -4.47843 -0.118633 0
M  V30 715 C 69.0905 -3.8307 -1.82915 0
M  V30 716 C 66.9975 -5.87529 -0.675578 0
M  V30 717 H 65.9275 -0.714653 -0.24039 0
M  V30 718 H 68.5785 -1.83175 0.109148 0
M  V30 719 H 66.9605 -3.43364 -1.97274 0
M  V30 720 H 68.1345 -4.56128 0.654494 0
M  V30 721 H 66.4495 -4.14128 0.434414 0
M  V30 722 H 69.0465 -4.84794 -2.25563 0
M  V30 723 H 69.3895 -3.1881 -2.67705 0
M  V30 724 H 69.9225 -3.82255 -1.10119 0
M  V30 725 H 66.6615 -6.55362 0.134475 0
M  V30 726 H 66.1815 -5.82824 -1.4169 0
M  V30 727 H 67.8605 -6.36491 -1.1614 0
M  V30 728 N 67.9926 0.231505 -1.5589 0
M  V30 729 C 69.4036 0.799327 -1.68724 0
M  V30 730 C 69.7546 1.85398 -0.642022 0
M  V30 731 O 68.8796 2.1539 0.208784 0
M  V30 732 C 69.4746 1.45664 -3.05888 0
M  V30 733 C 68.0336 1.97197 -3.20609 0
M  V30 734 C 67.1806 0.828552 -2.64632 0
M  V30 735 H 70.1316 0.00702616 -1.58698 0
M  V30 736 H 70.1526 2.32517 -3.01191 0
M  V30 737 H 69.6646 0.688808 -3.81939 0
M  V30 738 H 67.7656 2.76813 -2.4941 0
M  V30 739 H 67.8786 2.15878 -4.27707 0
M  V30 740 H 66.2426 1.23321 -2.22854 0
M  V30 741 H 67.0256 0.0735544 -3.43221 0
M  V30 742 N 69.4707 1.49531 0.497807 0
M  V30 743 C 70.7187 1.58865 1.24926 0
M  V30 744 C 71.0397 0.278721 1.92998 0
M  V30 745 O 70.3097 -0.702144 1.82885 0
M  V30 746 H 68.8897 0.585343 0.464094 0
M  V30 747 H 71.5517 1.86174 0.57666 0
M  V30 748 H 70.6477 2.38633 2.01149 0
M  V30 749 N 70.9488 -0.749086 1.3866 0
M  V30 750 C 71.8588 -1.89358 1.38494 0
M  V30 751 C 72.8748 -1.71708 0.281476 0
M  V30 752 O 74.0508 -1.94554 0.520643 0
M  V30 753 C 71.1158 -3.24782 1.21316 0
M  V30 754 C 70.1768 -3.54926 2.41508 0
M  V30 755 C 69.4098 -4.83888 2.2514 0
M  V30 756 O 69.6328 -5.56592 1.24746 0
M  V30 757 O 68.5668 -5.13612 3.13826 0
M  V30 758 H 72.3928 -1.92452 2.34938 0
M  V30 759 H 69.9778 -0.894981 1.19626 0
M  V30 760 H 71.8598 -4.05739 1.13814 0
M  V30 761 H 70.5348 -3.2249 0.279592 0
M  V30 762 H 69.4418 -2.74112 2.54585 0
M  V30 763 H 70.7748 -3.61983 3.3351 0
M  V30 764 N 72.4269 -1.23603 -0.977757 0
M  V30 765 C 73.8429 -0.999251 -1.24447 0
M  V30 766 C 74.0429 0.298053 -1.99283 0
M  V30 767 O 73.0989 1.01681 -2.31122 0
M  V30 768 C 74.4119 -2.20784 -2.04144 0
M  V30 769 C 75.9599 -2.25303 -2.17273 0
M  V30 770 C 76.4349 -3.45755 -3.00362 0
M  V30 771 N 77.9259 -3.4601 -3.07947 0
M  V30 772 C 78.6609 -4.35868 -3.72568 0
M  V30 773 N 78.1569 -5.35966 -4.38991 0
M  V30 774 N 79.9499 -4.23605 -3.6948 0
M  V30 775 H 72.1009 -2.06986 -0.476483 0
M  V30 776 H 74.3639 -0.907801 -0.273134 0
M  V30 777 H 74.0699 -3.14945 -1.56533 0
M  V30 778 H 73.9439 -2.22085 -3.04891 0
M  V30 779 H 76.3309 -1.3168 -2.64092 0
M  V30 780 H 76.4119 -2.28033 -1.15907 0
M  V30 781 H 76.0559 -4.39687 -2.5424 0
M  V30 782 H 75.9859 -3.40266 -4.01904 0
M  V30 783 H 78.4769 -2.73588 -2.60688 0
M  V30 784 H 78.7899 -6.00783 -4.86086 0
M  V30 785 H 77.1349 -5.39863 -4.37691 0
M  V30 786 H 80.3259 -3.44647 -3.16759 0
M  V30 787 H 80.4989 -4.93836 -4.1956 0
M  V30 788 N 73.905 1.17692 -1.04816 0
M  V30 789 C 75.13 1.92327 -0.776207 0
M  V30 790 C 75.555 1.76082 0.661581 0
M  V30 791 O 74.913 1.076 1.45917 0
M  V30 792 C 74.961 3.41539 -1.15687 0
M  V30 793 O 74.065 4.11402 -0.286775 0
M  V30 794 H 73.406 0.599735 -0.284981 0
M  V30 795 H 75.936 1.49201 -1.4 0
M  V30 796 H 75.946 3.92269 -1.12202 0
M  V30 797 H 74.621 3.52684 -2.20425 0
M  V30 798 H 73.198 3.70939 -0.381903 0
M  V30 799 N 75.3831 0.828654 1.34056 0
M  V30 800 C 76.6111 0.43262 2.02326 0
M  V30 801 C 77.0261 -0.963147 1.62385 0
M  V30 802 O 76.3831 -1.62425 0.832121 0
M  V30 803 C 76.4341 0.53182 3.57567 0
M  V30 804 O 76.1551 1.87258 3.96063 0
M  V30 805 C 77.6561 0.131422 4.43105 0
M  V30 806 H 74.8761 0.172923 0.648335 0
M  V30 807 H 77.4201 1.1184 1.71208 0
M  V30 808 H 75.5751 -0.105938 3.87255 0
M  V30 809 H 75.9891 1.85087 4.90758 0
M  V30 810 H 77.4631 0.251904 5.51425 0
M  V30 811 H 77.9401 -0.925645 4.29335 0
M  V30 812 H 78.5461 0.743207 4.18756 0
M  V30 813 N 76.8612 -1.46375 0.584142 0
M  V30 814 C 78.1382 -1.956 0.0033388 0
M  V30 815 C 78.5182 -1.52679 -1.45782 0
M  V30 816 O 77.8662 -0.77816 -2.14842 0
M  V30 817 C 78.0762 -3.48551 0.176891 0
M  V30 818 C 79.4242 -4.24576 0.0454609 0
M  V30 819 O 80.4482 -3.56043 0.105801 0
M  V30 820 O 79.3072 -5.46427 -0.0890376 0
M  V30 821 H 76.4012 -0.825547 -0.0490066 0
M  V30 822 H 78.9472 -1.56652 0.65256 0
M  V30 823 H 77.7192 -3.72683 1.1926 0
M  V30 824 H 77.3422 -3.94332 -0.508695 0
M  V30 825 N 78.3393 -0.321999 -1.54275 0
M  V30 826 C 79.5673 0.283052 -2.04955 0
M  V30 827 C 79.9823 1.45904 -1.19823 0
M  V30 828 O 79.3393 1.81063 -0.228545 0
M  V30 829 C 79.3903 0.719028 -3.54277 0
M  V30 830 O 79.1113 -0.410175 -4.36176 0
M  V30 831 C 80.6123 1.38705 -4.21041 0
M  V30 832 H 77.8323 0.0584616 -0.668448 0
M  V30 833 H 80.3763 -0.467734 -1.99079 0
M  V30 834 H 78.5313 1.41979 -3.60445 0
M  V30 835 H 78.9453 -0.0669416 -5.24457 0
M  V30 836 H 80.4193 1.64306 -5.2698 0
M  V30 837 H 80.8963 2.33385 -3.72059 0
M  V30 838 H 81.5023 0.728906 -4.19007 0
M  V30 839 N 79.8174 1.5752 -0.0501392 0
M  V30 840 C 81.0454 1.96963 0.633492 0
M  V30 841 C 81.4604 0.927631 1.6444 0
M  V30 842 O 80.8174 -0.0882665 1.82286 0
M  V30 843 C 80.8684 3.36487 1.32132 0
M  V30 844 O 80.5894 4.36693 0.350894 0
M  V30 845 C 82.0904 3.90682 2.09481 0
M  V30 846 H 79.3104 0.648244 0.173266 0
M  V30 847 H 81.8544 2.0417 -0.116134 0
M  V30 848 H 80.0094 3.30434 2.02218 0
M  V30 849 H 80.4234 5.17702 0.841735 0
M  V30 850 H 81.8974 4.90591 2.5303 0
M  V30 851 H 82.3744 3.26053 2.94255 0
M  V30 852 H 82.9804 4.00069 1.44307 0
M  V30 853 N 81.2955 -0.223234 1.56011 0
M  V30 854 C 82.2425 -1.27664 1.92277 0
M  V30 855 C 83.2125 -1.46659 0.779763 0
M  V30 856 O 84.3975 -1.60256 1.03551 0
M  V30 857 C 81.5375 -2.62234 2.24338 0
M  V30 858 C 80.6505 -2.51051 3.51564 0
M  V30 859 C 79.7855 -3.78133 3.7308 0
M  V30 860 C 78.8245 -3.61665 4.93827 0
M  V30 861 N 77.9615 -4.80693 5.11741 0
M  V30 862 H 82.8015 -0.960358 2.82101 0
M  V30 863 H 80.3385 -0.462901 1.39627 0
M  V30 864 H 82.2965 -3.40596 2.40936 0
M  V30 865 H 80.9265 -2.91961 1.3769 0
M  V30 866 H 79.9785 -1.64132 3.43169 0
M  V30 867 H 81.2905 -2.34803 4.40079 0
M  V30 868 H 80.4445 -4.64938 3.89766 0
M  V30 869 H 79.1835 -3.97304 2.82844 0
M  V30 870 H 78.1885 -2.73244 4.77093 0
M  V30 871 H 79.4135 -3.43966 5.85546 0
M  V30 872 H 77.3595 -5.00181 4.24446 0
M  V30 873 H 77.2765 -4.67165 5.94384 0
M  V30 874 H 78.5445 -5.6893 5.3286 0
M  V30 875 N 82.7736 -1.49793 -0.48987 0
M  V30 876 C 84.0016 -1.63568 -1.26701 0
M  V30 877 C 84.4166 -0.311465 -1.86213 0
M  V30 878 O 83.7736 0.704416 -1.68357 0
M  V30 879 C 83.8246 -2.71284 -2.38929 0
M  V30 880 O 83.5456 -3.9857 -1.81861 0
M  V30 881 C 85.0466 -2.95864 -3.3012 0
M  V30 882 H 82.2666 -0.550342 -0.383881 0
M  V30 883 H 84.8106 -1.95898 -0.586864 0
M  V30 884 H 82.9656 -2.417 -3.02753 0
M  V30 885 H 83.3796 -4.57993 -2.55622 0
M  V30 886 H 84.8536 -3.74941 -4.05121 0
M  V30 887 H 85.3306 -2.06206 -3.87783 0
M  V30 888 H 85.9366 -3.26907 -2.72051 0
M  V30 889 N 84.2517 0.741722 -1.39055 0
M  V30 890 C 85.2017 1.84661 -1.33732 0
M  V30 891 C 86.1857 1.59397 -0.219401 0
M  V30 892 O 87.3777 1.71015 -0.456375 0
M  V30 893 C 84.5067 3.22512 -1.17647 0
M  V30 894 C 83.5927 3.53628 -2.34112 0
M  V30 895 N 83.9837 3.55723 -3.59576 0
M  V30 896 C 82.2817 3.83956 -2.26923 0
M  V30 897 C 82.9827 3.84443 -4.36553 0
M  V30 898 N 81.9587 4.01877 -3.66055 0
M  V30 899 H 85.7607 1.84576 -2.28711 0
M  V30 900 H 83.2747 0.939647 -1.32455 0
M  V30 901 H 85.2717 4.01597 -1.11917 0
M  V30 902 H 83.9317 3.2384 -0.236124 0
M  V30 903 H 84.9427 3.37196 -3.93089 0
M  V30 904 H 81.6197 3.92929 -1.41113 0
M  V30 905 H 83.0097 3.92588 -5.45274 0
M  V30 906 N 85.7298 1.2412 0.971189 0
M  V30 907 C 87.1408 1.07236 1.52831 0
M  V30 908 C 87.4918 -0.357352 1.92918 0
M  V30 909 O 86.6168 -1.24528 1.76979 0
M  V30 910 C 87.2118 1.94043 2.77728 0
M  V30 911 C 85.7708 1.81394 3.29808 0
M  V30 912 C 84.9178 1.89189 2.02738 0
M  V30 913 H 87.8688 1.37648 0.789864 0
M  V30 914 H 87.8898 1.47066 3.5093 0
M  V30 915 H 87.4018 2.98093 2.4852 0
M  V30 916 H 85.5028 0.801634 3.63874 0
M  V30 917 H 85.6158 2.65294 3.98944 0
M  V30 918 H 83.9798 1.32877 2.17292 0
M  V30 919 H 84.7628 2.94812 1.759 0
M  V30 920 N 87.2079 -1.17134 1.05439 0
M  V30 921 C 88.4359 -1.91372 0.786414 0
M  V30 922 C 88.8509 -1.76955 -0.658202 0
M  V30 923 O 88.2079 -1.10838 -1.44987 0
M  V30 924 C 88.2589 -3.42356 1.1608 0
M  V30 925 O 87.9799 -3.56332 2.54871 0
M  V30 926 C 89.4809 -4.33663 0.919322 0
M  V30 927 H 86.7009 -0.607118 0.285743 0
M  V30 928 H 89.2449 -1.48525 1.40572 0
M  V30 929 H 87.3999 -3.82939 0.586191 0
M  V30 930 H 87.8139 -4.49896 2.69618 0
M  V30 931 H 89.2879 -5.38099 1.231 0
M  V30 932 H 89.7649 -4.38959 -0.145359 0
M  V30 933 H 90.3709 -3.98796 1.47789 0
M  V30 934 N 88.686 -0.835752 -1.33615 0
M  V30 935 C 89.935 -0.426289 -1.97144 0
M  V30 936 C 90.248 1.01912 -1.66953 0
M  V30 937 O 91.454 1.53311 -2.24072 0
M  V30 938 C 89.91 -0.711321 -3.52801 0
M  V30 939 C 89.518 -2.1712 -3.91871 0
M  V30 940 C 91.262 -0.368654 -4.22896 0
M  V30 941 C 89.169 -2.40044 -5.40493 0
M  V30 942 H 88.099 -0.15567 -0.737755 0
M  V30 943 H 90.75 -1.0239 -1.52278 0
M  V30 944 H 89.132 -0.0433766 -3.95976 0
M  V30 945 H 90.306 -2.87936 -3.59763 0
M  V30 946 H 88.621 -2.47654 -3.34749 0
M  V30 947 H 91.218 -0.517601 -5.32189 0
M  V30 948 H 91.561 0.688078 -4.10574 0
M  V30 949 H 92.094 -0.991702 -3.8524 0
M  V30 950 H 88.833 -3.44271 -5.57815 0
M  V30 951 H 88.353 -1.73785 -5.74072 0
M  V30 952 H 90.032 -2.23042 -6.0734 0
M  V30 953 N 90.1641 1.46063 -0.591896 0
M  V30 954 C 91.1111 2.30399 0.136069 0
M  V30 955 C 92.0811 1.41169 0.875238 0
M  V30 956 O 93.2661 1.70112 0.86409 0
M  V30 957 C 90.4061 3.25804 1.13781 0
M  V30 958 C 89.5191 4.30134 0.401137 0
M  V30 959 C 88.6541 5.12659 1.39121 0
M  V30 960 C 87.6931 6.0873 0.641462 0
M  V30 961 N 86.8301 6.8409 1.58004 0
M  V30 962 H 91.6701 2.92118 -0.589144 0
M  V30 963 H 89.2071 1.43959 -0.302342 0
M  V30 964 H 91.1651 3.79569 1.73156 0
M  V30 965 H 89.7951 2.65872 1.83062 0
M  V30 966 H 88.8471 3.79152 -0.307826 0
M  V30 967 H 90.1591 4.98458 -0.184565 0
M  V30 968 H 89.3131 5.70747 2.05749 0
M  V30 969 H 88.0521 4.44316 2.01084 0
M  V30 970 H 87.0571 5.49786 -0.0385419 0
M  V30 971 H 88.2821 6.79095 0.0270945 0
M  V30 972 H 86.2281 6.18449 2.18761 0
M  V30 973 H 86.1451 7.48709 1.04738 0
M  V30 974 H 87.4131 7.4673 2.23639 0
M  V30 975 N 91.6422 0.330177 1.54103 0
M  V30 976 C 92.8912 -0.271336 1.99867 0
M  V30 977 C 93.2042 -1.52723 1.22209 0
M  V30 978 O 94.4102 -2.20515 1.58383 0
M  V30 979 C 92.8662 -0.534032 3.55916 0
M  V30 980 C 92.4742 0.705193 4.42415 0
M  V30 981 C 94.2182 -1.09514 4.1013 0
M  V30 982 C 92.1252 0.414035 5.89949 0
M  V30 983 H 91.0552 -0.105166 0.74663 0
M  V30 984 H 93.7062 0.443429 1.78062 0
M  V30 985 H 92.0882 -1.30915 3.73734 0
M  V30 986 H 93.2622 1.4804 4.36372 0
M  V30 987 H 91.5772 1.18698 3.99124 0
M  V30 988 H 94.1742 -1.3277 5.17954 0
M  V30 989 H 94.5172 -2.04656 3.62521 0
M  V30 990 H 95.0502 -0.381038 3.95971 0
M  V30 991 H 91.7892 1.33481 6.41766 0
M  V30 992 H 91.3092 -0.323336 5.98928 0
M  V30 993 H 92.9882 0.0263105 6.46995 0
M  V30 994 N 93.1203 -1.57491 0.0584922 0
M  V30 995 C 94.0683 -2.13148 -0.931168 0
M  V30 996 C 95.0623 -1.06507 -1.31729 0
M  V30 997 O 96.2683 -1.24906 -1.29609 0
M  V30 998 H 92.6433 -0.68137 -0.31818 0
M  V30 999 H 94.6143 -2.95187 -0.436707 0
M  V30 1000 C 93.3633 -2.69732 -2.19408 0
M  V30 1001 H 92.6863 -3.51454 -1.90578 0
M  V30 1002 H 94.1263 -3.12287 -2.86798 0
M  V30 1003 C 92.5853 -1.63855 -2.94369 0
M  V30 1004 O 93.1153 -1.05565 -3.87581 0
M  V30 1005 N 91.3213 -1.35202 -2.57233 0
M  V30 1006 H 90.8683 -1.82791 -1.81508 0
M  V30 1007 H 90.8263 -0.645922 -3.07693 0
M  V30 1008 N 94.5984 0.214957 -1.56127 0
M  V30 1009 C 95.8464 0.936518 -1.79091 0
M  V30 1010 C 96.1674 1.84606 -0.628148 0
M  V30 1011 O 95.4374 1.92664 0.35462 0
M  V30 1012 H 94.0174 0.3488 -0.660566 0
M  V30 1013 H 96.6794 0.22523 -1.93594 0
M  V30 1014 H 95.7754 1.53943 -2.71492 0
M  V30 1015 N 96.0765 1.50051 0.48192 0
M  V30 1016 C 97.3065 1.63999 1.2565 0
M  V30 1017 C 97.7145 0.318288 1.86504 0
M  V30 1018 O 97.0575 -0.708534 1.69486 0
M  V30 1019 C 97.1195 2.66504 2.4128 0
M  V30 1020 C 96.7835 4.10352 2.01148 0
M  V30 1021 C 97.7805 4.96562 1.54021 0
M  V30 1022 C 95.4655 4.56203 2.10199 0
M  V30 1023 C 97.4595 6.26668 1.16473 0
M  V30 1024 C 95.1465 5.86318 1.72264 0
M  V30 1025 C 96.1445 6.71375 1.25477 0
M  V30 1026 O 95.8325 7.99062 0.880626 0
M  V30 1027 H 95.5645 0.55456 0.386574 0
M  V30 1028 H 98.1185 1.96954 0.582944 0
M  V30 1029 H 96.3485 2.28769 3.11772 0
M  V30 1030 H 98.0375 2.69783 3.03268 0
M  V30 1031 H 98.8035 4.62358 1.46458 0
M  V30 1032 H 94.6825 3.90152 2.45566 0
M  V30 1033 H 98.2265 6.93011 0.798841 0
M  V30 1034 H 94.1235 6.20046 1.79482 0
M  V30 1035 H 94.8915 8.12239 1.01043 0
M  V30 1036 N 97.5546 -0.734337 1.39446 0
M  V30 1037 C 98.7826 -1.52358 1.39981 0
M  V30 1038 C 99.1976 -1.88799 -0.0054975 0
M  V30 1039 O 98.5546 -1.54146 -0.976998 0
M  V30 1040 C 98.6056 -2.81072 2.27333 0
M  V30 1041 O 98.3266 -2.46178 3.62392 0
M  V30 1042 C 99.8276 -3.75096 2.36259 0
M  V30 1043 H 97.0476 -0.470806 0.478103 0
M  V30 1044 H 99.5916 -0.907339 1.83269 0
M  V30 1045 H 97.7466 -3.39026 1.87457 0
M  V30 1046 H 98.1606 -3.28866 4.08592 0
M  V30 1047 H 99.6346 -4.62305 3.01626 0
M  V30 1048 H 100.112 -4.16892 1.38194 0
M  V30 1049 H 100.718 -3.23061 2.76608 0
M  V30 1050 N 99.0327 -1.24633 -0.964593 0
M  V30 1051 C 100.281 -1.08573 -1.70459 0
M  V30 1052 C 100.602 0.375655 -1.91347 0
M  V30 1053 O 99.8717 1.26779 -1.49345 0
M  V30 1054 H 98.4517 -0.398784 -0.631649 0
M  V30 1055 H 101.114 -1.56601 -1.16026 0
M  V30 1056 H 100.21 -1.58623 -2.68785 0
M  V30 1057 N 100.511 1.16574 -1.06058 0
M  V30 1058 C 101.922 1.68662 -0.800632 0
M  V30 1059 C 102.273 1.84184 0.67608 0
M  V30 1060 O 101.398 1.53568 1.52466 0
M  V30 1061 C 101.993 3.06356 -1.44676 0
M  V30 1062 C 100.552 3.55575 -1.23465 0
M  V30 1063 C 99.6988 2.31616 -1.52477 0
M  V30 1064 H 102.65 1.00969 -1.22438 0
M  V30 1065 H 102.671 3.70636 -0.860788 0
M  V30 1066 H 102.183 2.95027 -2.52152 0
M  V30 1067 H 100.284 3.72167 -0.179527 0
M  V30 1068 H 100.397 4.37812 -1.94571 0
M  V30 1069 H 98.7608 2.36512 -0.945209 0
M  V30 1070 H 99.5438 2.22887 -2.61106 0
M  V30 1071 N 101.989 0.842826 1.3317 0
M  V30 1072 C 103.237 0.439577 1.97262 0
M  V30 1073 C 103.558 -1.00548 1.67078 0
M  V30 1074 O 102.828 -1.70098 0.971779 0
M  V30 1075 H 101.408 0.159558 0.72976 0
M  V30 1076 H 104.07 1.07665 1.62463 0
M  V30 1077 H 103.166 0.574886 3.0676 0
M  V30 1078 N 103.467 -1.45747 0.599634 0
M  V30 1079 C 104.695 -2.06668 0.0978551 0
M  V30 1080 C 105.11 -1.44562 -1.21439 0
M  V30 1081 O 104.467 -0.556923 -1.73795 0
M  V30 1082 C 104.518 -3.61456 -0.0567044 0
M  V30 1083 O 104.239 -4.21242 1.20361 0
M  V30 1084 C 105.74 -4.39345 -0.590869 0
M  V30 1085 H 102.96 -0.667825 0.0651943 0
M  V30 1086 H 105.504 -1.87115 0.82511 0
M  V30 1087 H 103.659 -3.80378 -0.734251 0
M  V30 1088 H 104.073 -5.14323 1.02821 0
M  V30 1089 H 105.547 -5.48182 -0.648131 0
M  V30 1090 H 106.024 -4.08568 -1.61147 0
M  V30 1091 H 106.63 -4.25268 0.0523679 0
M  V30 1092 N 104.945 -0.338344 -1.53925 0
M  V30 1093 C 106.191 0.260143 -2.01125 0
M  V30 1094 C 106.524 1.50617 -1.22589 0
M  V30 1095 O 105.799 1.91979 -0.312113 0
M  V30 1096 C 106.082 0.579499 -3.55407 0
M  V30 1097 C 105.935 -0.678264 -4.44657 0
M  V30 1098 C 107.254 1.39122 -4.17532 0
M  V30 1099 H 104.373 0.0930772 -0.731099 0
M  V30 1100 H 107.015 -0.457852 -1.84401 0
M  V30 1101 H 105.165 1.19118 -3.69788 0
M  V30 1102 H 106.837 -1.31631 -4.42121 0
M  V30 1103 H 105.08 -1.3042 -4.13731 0
M  V30 1104 H 105.751 -0.410143 -5.50474 0
M  V30 1105 H 108.227 0.874035 -4.06817 0
M  V30 1106 H 107.103 1.58342 -5.25565 0
M  V30 1107 H 107.364 2.39178 -3.71815 0
M  V30 1108 N 106.423 1.57458 -0.0668435 0
M  V30 1109 C 107.839 1.56947 0.289772 0
M  V30 1110 C 108.039 1.07584 1.70376 0
M  V30 1111 O 107.095 0.739486 2.41429 0
M  V30 1112 C 108.408 3.0052 0.103943 0
M  V30 1113 C 109.956 3.12517 0.173857 0
M  V30 1114 C 110.431 4.57997 0.0163682 0
M  V30 1115 N 111.922 4.63144 0.0721352 0
M  V30 1116 C 112.657 5.73394 -0.0253794 0
M  V30 1117 N 112.153 6.92576 -0.176133 0
M  V30 1118 N 113.946 5.62091 0.0313305 0
M  V30 1119 H 106.097 1.87863 -0.991027 0
M  V30 1120 H 108.36 0.86583 -0.38606 0
M  V30 1121 H 108.066 3.40729 -0.871572 0
M  V30 1122 H 107.94 3.67304 0.858366 0
M  V30 1123 H 110.327 2.72197 1.13985 0
M  V30 1124 H 110.408 2.48381 -0.611586 0
M  V30 1125 H 110.052 4.99005 -0.946374 0
M  V30 1126 H 109.982 5.20158 0.821153 0
M  V30 1127 H 112.473 3.77436 0.187263 0
M  V30 1128 H 112.786 7.72418 -0.242821 0
M  V30 1129 H 111.131 6.94678 -0.211429 0
M  V30 1130 H 114.322 4.67867 0.147773 0
M  V30 1131 H 114.495 6.47982 -0.048121 0
M  V30 1132 N 107.901 -0.206675 1.56239 0
M  V30 1133 C 109.15 -0.926964 1.79138 0
M  V30 1134 C 109.463 -1.84901 0.638043 0
M  V30 1135 O 110.669 -2.60906 0.751033 0
M  V30 1136 C 109.125 -1.6986 3.17294 0
M  V30 1137 C 108.733 -0.821956 4.40395 0
M  V30 1138 C 110.477 -2.40922 3.4951 0
M  V30 1139 C 108.384 -1.59179 5.69575 0
M  V30 1140 H 107.314 -0.349864 0.667915 0
M  V30 1141 H 109.965 -0.180487 1.8261 0
M  V30 1142 H 108.347 -2.48853 3.08039 0
M  V30 1143 H 109.521 -0.0715019 4.60745 0
M  V30 1144 H 107.836 -0.222741 4.15804 0
M  V30 1145 H 110.433 -2.99047 4.43255 0
M  V30 1146 H 110.776 -3.14542 2.72707 0
M  V30 1147 H 111.309 -1.68905 3.60161 0
M  V30 1148 H 108.048 -0.898589 6.49312 0
M  V30 1149 H 107.568 -2.31648 5.53262 0
M  V30 1150 H 109.247 -2.14862 6.10281 0
M  V30 1151 N 109.379 -1.50304 -0.473955 0
M  V30 1152 C 110.604 -1.65175 -1.25427 0
M  V30 1153 C 111.029 -0.333673 -1.85117 0
M  V30 1154 O 110.387 0.702114 -1.67153 0
M  V30 1155 C 110.435 -2.74295 -2.34082 0
M  V30 1156 O 109.539 -2.35349 -3.38651 0
M  V30 1157 H 108.88 -0.551944 -0.369126 0
M  V30 1158 H 111.41 -1.96662 -0.564364 0
M  V30 1159 H 111.42 -2.97285 -2.79438 0
M  V30 1160 H 110.095 -3.69959 -1.90008 0
M  V30 1161 H 108.672 -2.22794 -2.99027 0
M  V30 1162 N 110.857 0.726932 -1.39834 0
M  V30 1163 C 111.787 1.85405 -1.41941 0
M  V30 1164 C 112.768 1.67751 -0.281728 0
M  V30 1165 O 113.953 1.8795 -0.488717 0
M  V30 1166 C 111.083 3.23243 -1.2701 0
M  V30 1167 C 110.037 3.55549 -2.38262 0
M  V30 1168 C 109.363 4.9241 -2.08415 0
M  V30 1169 C 110.663 3.577 -3.80589 0
M  V30 1170 H 112.357 1.83899 -2.36266 0
M  V30 1171 H 109.903 0.883349 -1.13723 0
M  V30 1172 H 111.856 4.01775 -1.27103 0
M  V30 1173 H 110.58 3.25296 -0.291564 0
M  V30 1174 H 109.239 2.79351 -2.37399 0
M  V30 1175 H 108.887 4.91052 -1.0898 0
M  V30 1176 H 108.587 5.14992 -2.82943 0
M  V30 1177 H 110.111 5.73289 -2.10171 0
M  V30 1178 H 111.525 4.26293 -3.83337 0
M  V30 1179 H 109.922 3.91804 -4.54543 0
M  V30 1180 H 110.992 2.57328 -4.10987 0
M  V30 1181 N 112.336 1.25143 0.95797 0
M  V30 1182 C 113.582 1.09855 1.70469 0
M  V30 1183 C 113.915 -0.360187 1.90831 0
M  V30 1184 O 113.19 -1.26568 1.47685 0
M  V30 1185 C 113.473 1.8497 3.08963 0
M  V30 1186 C 113.326 3.38652 2.96032 0
M  V30 1187 C 114.645 1.63016 4.08795 0
M  V30 1188 H 111.764 0.400465 0.618706 0
M  V30 1189 H 114.406 1.53933 1.11376 0
M  V30 1190 H 112.556 1.47505 3.59409 0
M  V30 1191 H 114.228 3.85772 2.52938 0
M  V30 1192 H 112.471 3.66534 2.32025 0
M  V30 1193 H 113.142 3.8642 3.94187 0
M  V30 1194 H 115.618 1.95625 3.67247 0
M  V30 1195 H 114.494 2.18015 5.03747 0
M  V30 1196 H 114.755 0.570692 4.38401 0
M  V30 1197 N 113.814 -1.1601 1.06675 0
M  V30 1198 C 115.042 -1.90527 0.806667 0
M  V30 1199 C 115.457 -1.77643 -0.639396 0
M  V30 1200 O 114.814 -1.12369 -1.43803 0
M  V30 1201 C 114.865 -3.41106 1.19705 0
M  V30 1202 O 114.586 -3.53608 2.58636 0
M  V30 1203 C 116.087 -4.32663 0.965266 0
M  V30 1204 H 113.307 -0.604053 0.292166 0
M  V30 1205 H 115.851 -1.47026 1.4214 0
M  V30 1206 H 114.006 -3.82296 0.626774 0
M  V30 1207 H 114.42 -4.47011 2.74375 0
M  V30 1208 H 115.894 -5.36763 1.288 0
M  V30 1209 H 116.371 -4.39089 -0.0987936 0
M  V30 1210 H 116.977 -3.97206 1.52011 0
M  V30 1211 N 115.292 -0.849877 -1.32721 0
M  V30 1212 C 116.239 -0.289033 -2.28983 0
M  V30 1213 C 117.209 0.601324 -1.54833 0
M  V30 1214 O 118.394 0.537253 -1.8308 0
M  V30 1215 C 115.534 0.520623 -3.4115 0
M  V30 1216 C 114.647 -0.394989 -4.3019 0
M  V30 1217 C 113.782 0.426834 -5.29482 0
M  V30 1218 C 112.821 -0.486476 -6.10164 0
M  V30 1219 N 111.958 0.297879 -7.01468 0
M  V30 1220 H 116.798 -1.11519 -2.76347 0
M  V30 1221 H 114.335 -0.56138 -1.35967 0
M  V30 1222 H 116.293 1.00563 -4.04899 0
M  V30 1223 H 114.923 1.31165 -2.9495 0
M  V30 1224 H 113.975 -0.99836 -3.67065 0
M  V30 1225 H 115.287 -1.09612 -4.86607 0
M  V30 1226 H 114.441 0.975205 -5.98811 0
M  V30 1227 H 113.18 1.16136 -4.73671 0
M  V30 1228 H 112.185 -1.04677 -5.39743 0
M  V30 1229 H 113.41 -1.21953 -6.6806 0
M  V30 1230 H 111.356 1.01558 -6.48091 0
M  V30 1231 H 111.273 -0.344318 -7.55216 0
M  V30 1232 H 112.541 0.828131 -7.75089 0
M  V30 1233 N 116.77 1.45427 -0.607355 0
M  V30 1234 C 118.047 1.9557 -0.0344566 0
M  V30 1235 C 118.427 1.54979 1.43334 0
M  V30 1236 O 117.775 0.812241 2.13576 0
M  V30 1237 C 117.985 3.48226 -0.232321 0
M  V30 1238 C 119.333 4.2445 -0.113001 0
M  V30 1239 O 120.357 3.55829 -0.162431 0
M  V30 1240 O 119.216 5.465 0.00209442 0
M  V30 1241 H 116.31 0.826222 0.0358667 0
M  V30 1242 H 118.856 1.55594 -0.6774 0
M  V30 1243 H 117.628 3.70739 -1.25174 0
M  V30 1244 H 117.251 3.95092 0.445896 0
M  V30 1245 N 118.248 0.346503 1.53744 0
M  V30 1246 C 119.659 -0.136779 1.86198 0
M  V30 1247 C 120.01 -1.49749 1.26766 0
M  V30 1248 O 119.135 -2.08417 0.582355 0
M  V30 1249 C 119.73 -0.254966 3.37839 0
M  V30 1250 C 118.289 -0.682482 3.70161 0
M  V30 1251 C 117.436 0.181981 2.76702 0
M  V30 1252 H 120.387 0.565994 1.48264 0
M  V30 1253 H 120.408 -1.08195 3.64793 0
M  V30 1254 H 119.92 0.735526 3.81066 0
M  V30 1255 H 118.021 -1.68189 3.3248 0
M  V30 1256 H 118.134 -0.470326 4.76786 0
M  V30 1257 H 116.498 -0.34615 2.52337 0
M  V30 1258 H 117.281 1.16966 3.2276 0
M  V30 1259 N 119.726 -1.57421 0.075193 0
M  V30 1260 C 121.137 -1.81021 -0.456964 0
M  V30 1261 C 121.488 -0.98936 -1.69429 0
M  V30 1262 O 120.613 -0.212865 -2.15351 0
M  V30 1263 C 121.208 -3.28329 -0.83581 0
M  V30 1264 C 119.767 -3.52764 -1.31281 0
M  V30 1265 C 118.914 -2.75676 -0.299648 0
M  V30 1266 H 121.865 -1.55822 0.300856 0
M  V30 1267 H 121.886 -3.40564 -1.69696 0
M  V30 1268 H 121.398 -3.88046 0.0649238 0
M  V30 1269 H 119.499 -2.98355 -2.23193 0
M  V30 1270 H 119.612 -4.61451 -1.28839 0
M  V30 1271 H 117.976 -2.42538 -0.777641 0
M  V30 1272 H 118.759 -3.38132 0.593417 0
M  V30 1273 N 121.204 0.198386 -1.56346 0
M  V30 1274 C 122.154 1.2499 -1.90687 0
M  V30 1275 C 123.138 1.41158 -0.772217 0
M  V30 1276 O 124.33 1.43584 -1.03502 0
M  V30 1277 C 121.459 2.59542 -2.24706 0
M  V30 1278 C 120.545 2.47181 -3.44619 0
M  V30 1279 N 120.936 2.04495 -4.62618 0
M  V30 1280 C 119.234 2.78082 -3.48692 0
M  V30 1281 C 119.935 2.03945 -5.44776 0
M  V30 1282 N 118.911 2.45323 -4.85095 0
M  V30 1283 H 122.713 0.911149 -2.7942 0
M  V30 1284 H 120.227 0.40684 -1.57221 0
M  V30 1285 H 122.224 3.3549 -2.47491 0
M  V30 1286 H 120.884 2.94244 -1.37298 0
M  V30 1287 H 121.895 1.75256 -4.87345 0
M  V30 1288 H 118.572 3.17002 -2.71691 0
M  V30 1289 H 119.962 1.72872 -6.4928 0
M  V30 1290 N 122.682 1.50554 0.465978 0
M  V30 1291 C 124.098 1.38093 0.800154 0
M  V30 1292 C 124.298 0.440988 1.96615 0
M  V30 1293 O 123.354 -0.114499 2.5224 0
M  V30 1294 C 124.667 2.79565 1.10742 0
M  V30 1295 C 126.215 2.88516 1.21357 0
M  V30 1296 C 126.69 4.30833 1.55393 0
M  V30 1297 N 128.181 4.33807 1.62375 0
M  V30 1298 C 128.916 5.40927 1.90225 0
M  V30 1299 N 128.412 6.58247 2.16062 0
M  V30 1300 N 130.205 5.28376 1.9177 0
M  V30 1301 H 122.356 2.10237 -0.302366 0
M  V30 1302 H 124.619 0.945203 -0.0727746 0
M  V30 1303 H 124.325 3.50208 0.323661 0
M  V30 1304 H 124.199 3.17125 2.04234 0
M  V30 1305 H 126.586 2.1809 1.98799 0
M  V30 1306 H 126.667 2.54492 0.258321 0
M  V30 1307 H 126.311 5.01799 0.784889 0
M  V30 1308 H 126.241 4.62347 2.52076 0
M  V30 1309 H 128.732 3.49212 1.44427 0
M  V30 1310 H 129.045 7.3569 2.36601 0
M  V30 1311 H 127.39 6.61413 2.13444 0
M  V30 1312 H 130.581 4.35715 1.71085 0
M  V30 1313 H 130.754 6.11944 2.13139 0
M  V30 1314 N 124.16 -0.719506 1.40217 0
M  V30 1315 C 125.571 -1.29848 1.34151 0
M  V30 1316 C 125.922 -1.96196 0.0131349 0
M  V30 1317 O 125.047 -1.973 -0.88892 0
M  V30 1318 C 125.642 -2.36118 2.42968 0
M  V30 1319 C 124.201 -2.8965 2.40374 0
M  V30 1320 C 123.348 -1.63393 2.24049 0
M  V30 1321 H 126.299 -0.51591 1.5008 0
M  V30 1322 H 126.32 -3.16871 2.10649 0
M  V30 1323 H 125.832 -1.878 3.39636 0
M  V30 1324 H 123.933 -3.42208 1.47392 0
M  V30 1325 H 124.046 -3.4171 3.35814 0
M  V30 1326 H 122.41 -1.88312 1.71495 0
M  V30 1327 H 123.193 -1.17104 3.2271 0
M  V30 1328 N 125.638 -1.25649 -0.95132 0
M  V30 1329 C 126.588 -1.03004 -2.03406 0
M  V30 1330 C 127.572 0.034187 -1.60864 0
M  V30 1331 O 128.764 -0.181549 -1.76066 0
M  V30 1332 C 125.893 -0.654255 -3.37008 0
M  V30 1333 C 124.979 -1.75542 -3.86065 0
M  V30 1334 N 125.37 -2.99113 -4.07879 0
M  V30 1335 C 123.668 -1.63669 -4.14884 0
M  V30 1336 C 124.369 -3.70611 -4.48356 0
M  V30 1337 N 123.345 -2.98247 -4.54477 0
M  V30 1338 H 127.147 -1.96813 -2.1827 0
M  V30 1339 H 124.661 -1.16017 -1.13639 0
M  V30 1340 H 126.658 -0.473206 -4.14206 0
M  V30 1341 H 125.318 0.276468 -3.23521 0
M  V30 1342 H 126.329 -3.35124 -3.94857 0
M  V30 1343 H 123.006 -0.775161 -4.10241 0
M  V30 1344 H 124.396 -4.76695 -4.73509 0
M  V30 1345 N 127.117 1.15442 -1.07289 0
M  V30 1346 C 128.528 1.67803 -0.818475 0
M  V30 1347 C 128.879 1.8489 0.656507 0
M  V30 1348 O 128.004 1.55176 1.50829 0
M  V30 1349 C 128.599 3.04805 -1.47917 0
M  V30 1350 C 127.158 3.54245 -1.27229 0
M  V30 1351 C 126.305 2.29986 -1.54925 0
M  V30 1352 H 129.256 0.996646 -1.23502 0
M  V30 1353 H 129.277 3.69702 -0.90005 0
M  V30 1354 H 128.789 2.92336 -2.55267 0
M  V30 1355 H 126.89 3.71956 -0.21899 0
M  V30 1356 H 127.003 4.35723 -1.99203 0
M  V30 1357 H 125.367 2.35496 -0.970242 0
M  V30 1358 H 126.15 2.20105 -2.63455 0
M  V30 1359 N 128.595 0.856903 1.32268 0
M  V30 1360 C 129.545 0.274899 2.26337 0
M  V30 1361 C 130.529 -0.580543 1.50062 0
M  V30 1362 O 131.721 -0.429559 1.71708 0
M  V30 1363 C 128.85 -0.533841 3.39124 0
M  V30 1364 C 127.936 0.334114 4.22782 0
M  V30 1365 N 128.327 1.42143 4.85416 0
M  V30 1366 C 126.625 0.124256 4.45827 0
M  V30 1367 C 127.326 1.95559 5.47843 0
M  V30 1368 N 126.302 1.25444 5.28928 0
M  V30 1369 H 130.104 1.10612 2.72291 0
M  V30 1370 H 127.618 0.703258 1.46383 0
M  V30 1371 H 129.615 -0.96722 4.05525 0
M  V30 1372 H 128.275 -1.36283 2.94715 0
M  V30 1373 H 129.286 1.80436 4.85451 0
M  V30 1374 H 125.963 -0.669837 4.12092 0
M  V30 1375 H 127.353 2.86714 6.07655 0
M  V30 1376 N 130.073 -1.45103 0.615059 0
M  V30 1377 C 130.983 -2.34382 -0.101034 0
M  V30 1378 C 131.999 -1.51681 -0.852585 0
M  V30 1379 O 133.175 -1.8446 -0.808484 0
M  V30 1380 C 130.24 -3.29417 -1.08099 0
M  V30 1381 C 129.301 -4.28025 -0.330577 0
M  V30 1382 C 128.534 -5.1852 -1.26385 0
M  V30 1383 O 128.757 -5.12598 -2.50198 0
M  V30 1384 O 127.691 -5.97122 -0.756866 0
M  V30 1385 H 131.517 -2.97033 0.632855 0
M  V30 1386 H 129.102 -1.4461 0.375293 0
M  V30 1387 H 130.984 -3.87958 -1.6452 0
M  V30 1388 H 129.659 -2.69321 -1.79577 0
M  V30 1389 H 128.566 -3.73078 0.276283 0
M  V30 1390 H 129.899 -4.90997 0.343866 0
M  V30 1391 N 131.551 -0.354651 -1.53558 0
M  V30 1392 C 132.481 0.489091 -2.2832 0
M  V30 1393 C 133.462 1.09324 -1.30316 0
M  V30 1394 O 134.647 1.11255 -1.59173 0
M  V30 1395 C 131.777 1.63456 -3.0643 0
M  V30 1396 C 130.731 1.1582 -4.12031 0
M  V30 1397 C 130.057 2.39305 -4.7816 0
M  V30 1398 C 131.357 0.250731 -5.21698 0
M  V30 1399 H 133.051 -0.134614 -2.99097 0
M  V30 1400 H 130.597 -0.0661826 -1.43848 0
M  V30 1401 H 132.55 2.23136 -3.57475 0
M  V30 1402 H 131.274 2.28533 -2.33325 0
M  V30 1403 H 129.933 0.584146 -3.61916 0
M  V30 1404 H 129.581 3.02814 -4.01637 0
M  V30 1405 H 129.281 2.08109 -5.49513 0
M  V30 1406 H 130.805 2.99691 -5.31994 0
M  V30 1407 H 132.219 0.754695 -5.68311 0
M  V30 1408 H 130.616 0.0301468 -6.00092 0
M  V30 1409 H 131.686 -0.710125 -4.79672 0
M  V30 1410 N 133.029 1.57378 -0.0835403 0
M  V30 1411 C 134.275 1.94217 0.583733 0
M  V30 1412 C 134.608 0.964653 1.68547 0
M  V30 1413 O 133.883 -0.00422258 1.945 0
M  V30 1414 C 134.166 3.41253 1.14972 0
M  V30 1415 C 134.019 4.49768 0.0538277 0
M  V30 1416 C 135.338 3.89352 2.05166 0
M  V30 1417 H 132.457 0.706233 0.210724 0
M  V30 1418 H 135.099 1.89392 -0.1519 0
M  V30 1419 H 133.249 3.45496 1.77665 0
M  V30 1420 H 134.921 4.57641 -0.579851 0
M  V30 1421 H 133.164 4.29432 -0.614068 0
M  V30 1422 H 133.835 5.49817 0.490452 0
M  V30 1423 H 136.311 3.87189 1.52393 0
M  V30 1424 H 135.187 4.92822 2.41698 0
M  V30 1425 H 135.448 3.27973 2.96456 0
M  V30 1426 N 134.507 -0.190092 1.56449 0
M  V30 1427 C 135.755 -0.907908 1.80559 0
M  V30 1428 C 136.076 -1.83583 0.657438 0
M  V30 1429 O 135.346 -1.93203 -0.323924 0
M  V30 1430 H 133.926 -0.338247 0.666032 0
M  V30 1431 H 136.588 -0.194403 1.93928 0
M  V30 1432 H 135.684 -1.49604 2.73907 0
M  V30 1433 N 135.985 -1.50799 -0.457987 0
M  V30 1434 C 136.932 -1.70617 -1.5543 0
M  V30 1435 C 137.902 -0.547562 -1.56815 0
M  V30 1436 O 139.087 -0.779647 -1.74144 0
M  V30 1437 C 136.227 -1.81831 -2.93311 0
M  V30 1438 C 135.34 -3.09278 -3.01615 0
M  V30 1439 C 134.475 -3.11209 -4.30491 0
M  V30 1440 C 133.514 -4.33055 -4.32585 0
M  V30 1441 N 132.651 -4.32652 -5.52952 0
M  V30 1442 H 137.491 -2.64207 -1.37836 0
M  V30 1443 H 135.028 -1.30959 -0.669937 0
M  V30 1444 H 136.986 -1.86314 -3.73287 0
M  V30 1445 H 135.616 -0.916685 -3.0951 0
M  V30 1446 H 134.668 -3.14203 -2.1443 0
M  V30 1447 H 135.98 -3.99233 -2.99022 0
M  V30 1448 H 135.134 -3.14494 -5.18824 0
M  V30 1449 H 133.873 -2.19106 -4.35711 0
M  V30 1450 H 132.878 -4.29969 -3.42647 0
M  V30 1451 H 134.103 -5.264 -4.29046 0
M  V30 1452 H 132.049 -3.43409 -5.58933 0
M  V30 1453 H 131.966 -5.16392 -5.52155 0
M  V30 1454 H 133.234 -4.40101 -6.43375 0
M  V30 1455 N 137.463 0.71206 -1.40597 0
M  V30 1456 C 138.74 1.46536 -1.29563 0
M  V30 1457 C 139.12 2.10931 0.0844217 0
M  V30 1458 O 138.468 2.00418 1.0975 0
M  V30 1459 C 138.678 2.49821 -2.43701 0
M  V30 1460 C 140.026 3.15551 -2.841 0
M  V30 1461 O 141.05 2.60142 -2.4332 0
M  V30 1462 O 139.909 4.15867 -3.54566 0
M  V30 1463 H 137.003 0.651801 -0.509004 0
M  V30 1464 H 139.549 0.743935 -1.52524 0
M  V30 1465 H 138.321 2.00778 -3.35863 0
M  V30 1466 H 137.944 3.29495 -2.22528 0
M  V30 1467 N 138.941 1.26152 0.944643 0
M  V30 1468 C 140.181 1.12708 1.70517 0
M  V30 1469 C 140.545 -0.324727 1.89234 0
M  V30 1470 O 141.746 -0.581211 2.62441 0
M  V30 1471 C 140.017 1.8713 3.04495 0
M  V30 1472 S 141.576 1.89698 3.95677 0
M  V30 1473 H 138.394 0.402665 0.585988 0
M  V30 1474 H 140.996 1.59821 1.12594 0
M  V30 1475 H 139.7 2.91833 2.88551 0
M  V30 1476 H 139.231 1.40444 3.67477 0
M  V30 1477 H 141.246 0.981198 4.86402 0
M  V30 1478 N 140.419 -1.14872 1.07899 0
M  V30 1479 C 141.835 -1.37776 0.805606 0
M  V30 1480 C 142.035 -1.92743 -0.587555 0
M  V30 1481 O 141.091 -2.13678 -1.34528 0
M  V30 1482 C 142.404 -2.34361 1.88402 0
M  V30 1483 C 143.952 -2.48012 1.90942 0
M  V30 1484 C 144.427 -3.47893 2.97883 0
M  V30 1485 N 145.918 -3.55433 2.97021 0
M  V30 1486 C 146.653 -4.32553 3.76412 0
M  V30 1487 N 146.149 -5.12959 4.65666 0
M  V30 1488 N 147.942 -4.27697 3.64735 0
M  V30 1489 H 140.093 -0.775365 1.97742 0
M  V30 1490 H 142.356 -0.403521 0.857831 0
M  V30 1491 H 142.062 -2.01098 2.88535 0
M  V30 1492 H 141.936 -3.34206 1.74889 0
M  V30 1493 H 144.323 -2.8057 0.914579 0
M  V30 1494 H 144.404 -1.48147 2.08534 0
M  V30 1495 H 144.048 -3.16069 3.97571 0
M  V30 1496 H 143.978 -4.47527 2.77538 0
M  V30 1497 H 146.469 -2.98048 2.32326 0
M  V30 1498 H 146.782 -5.69065 5.22862 0
M  V30 1499 H 145.127 -5.12245 4.69712 0
M  V30 1500 H 148.318 -3.63949 2.94378 0
M  V30 1501 H 148.491 -4.8755 4.26848 0
M  V30 1502 N 141.898 -0.863906 -1.31812 0
M  V30 1503 C 143.175 -0.39275 -1.91616 0
M  V30 1504 C 143.555 1.12461 -1.7865 0
M  V30 1505 O 142.903 1.95045 -1.19037 0
M  V30 1506 C 143.113 -0.867385 -3.38049 0
M  V30 1507 C 144.461 -0.889966 -4.15168 0
M  V30 1508 O 145.485 -0.812635 -3.46806 0
M  V30 1509 O 144.344 -1.00079 -5.37258 0
M  V30 1510 H 141.438 -0.116358 -0.818773 0
M  V30 1511 H 143.984 -0.951418 -1.40521 0
M  V30 1512 H 142.756 -1.91081 -3.41473 0
M  V30 1513 H 142.379 -0.286687 -3.96565 0
M  V30 1514 N 143.376 1.44774 -0.622745 0
M  V30 1515 C 144.624 2.01721 -0.123655 0
M  V30 1516 C 144.945 1.49172 1.25589 0
M  V30 1517 O 144.215 0.691974 1.83272 0
M  V30 1518 H 142.795 0.745777 -0.0427225 0
M  V30 1519 H 145.457 1.77382 -0.807559 0
M  V30 1520 H 144.553 3.11984 -0.0849534 0
M  V30 1521 N 144.854 0.36279 1.53368 0
M  V30 1522 C 146.101 -0.227776 2.01215 0
M  V30 1523 C 146.429 -1.49003 1.25014 0
M  V30 1524 O 145.684 -1.92876 0.331236 0
M  V30 1525 C 145.983 -0.568417 3.52851 0
M  V30 1526 C 145.649 0.59918 4.46901 0
M  V30 1527 C 144.311 0.919559 4.72332 0
M  V30 1528 C 146.663 1.38156 5.02556 0
M  V30 1529 C 143.991 2.02434 5.5067 0
M  V30 1530 C 146.343 2.47674 5.821 0
M  V30 1531 C 145.007 2.8025 6.05819 0
M  V30 1532 H 144.277 -0.083349 0.736297 0
M  V30 1533 H 146.924 0.494677 1.85001 0
M  V30 1534 H 145.229 -1.37185 3.66998 0
M  V30 1535 H 146.926 -1.03756 3.87344 0
M  V30 1536 H 143.516 0.339437 4.27254 0
M  V30 1537 H 147.7 1.14729 4.82857 0
M  V30 1538 H 142.956 2.28075 5.67267 0
M  V30 1539 H 147.13 3.08716 6.24234 0
M  V30 1540 H 144.757 3.65979 6.66306 0
M  V30 1541 N 146.332 -1.57332 0.0918853 0
M  V30 1542 C 147.562 -1.98286 -0.580205 0
M  V30 1543 C 147.97 -0.969713 -1.6246 0
M  V30 1544 O 147.313 0.0493501 -1.83634 0
M  V30 1545 C 147.375 -3.35603 -1.28882 0
M  V30 1546 C 147.039 -4.55285 -0.395559 0
M  V30 1547 C 148.036 -5.18687 0.355002 0
M  V30 1548 C 145.721 -5.01314 -0.314556 0
M  V30 1549 C 147.715 -6.26484 1.17458 0
M  V30 1550 C 145.402 -6.08979 0.508677 0
M  V30 1551 C 146.4 -6.71429 1.2519 0
M  V30 1552 O 146.088 -7.77018 2.06151 0
M  V30 1553 H 145.82 -0.656678 -0.160466 0
M  V30 1554 H 148.374 -2.04721 0.16688 0
M  V30 1555 H 146.604 -3.25842 -2.08241 0
M  V30 1556 H 148.293 -3.61026 -1.85512 0
M  V30 1557 H 149.059 -4.84058 0.302134 0
M  V30 1558 H 144.938 -4.5247 -0.882697 0
M  V30 1559 H 148.482 -6.75159 1.75518 0
M  V30 1560 H 144.379 -6.4304 0.563037 0
M  V30 1561 H 145.147 -7.93991 1.98799 0
M  V30 1562 N 147.81 0.181792 -1.56548 0
M  V30 1563 C 148.72 1.24538 -1.98815 0
M  V30 1564 C 149.736 1.49045 -0.897861 0
M  V30 1565 O 150.912 1.61399 -1.20467 0
M  V30 1566 C 147.977 2.56683 -2.33055 0
M  V30 1567 C 147.038 2.40131 -3.55859 0
M  V30 1568 C 146.271 3.65975 -3.88456 0
M  V30 1569 O 146.494 4.70711 -3.22161 0
M  V30 1570 O 145.428 3.6071 -4.81842 0
M  V30 1571 H 149.254 0.916647 -2.89536 0
M  V30 1572 H 146.839 0.387842 -1.44278 0
M  V30 1573 H 148.721 3.34655 -2.56094 0
M  V30 1574 H 147.396 2.89157 -1.45498 0
M  V30 1575 H 146.303 1.60226 -3.38051 0
M  V30 1576 H 147.636 2.12585 -4.43924 0
M  V30 1577 N 149.288 1.51039 0.449983 0
M  V30 1578 C 150.251 1.70863 1.5277 0
M  V30 1579 C 151.251 0.578846 1.5002 0
M  V30 1580 O 152.441 0.846213 1.52266 0
M  V30 1581 C 149.573 1.75341 2.9235 0
M  V30 1582 H 150.766 2.67034 1.36502 0
M  V30 1583 H 148.319 1.40838 0.677812 0
M  V30 1584 H 149.054 0.809383 3.14037 0
M  V30 1585 H 148.839 2.57436 2.95752 0
M  V30 1586 H 150.329 1.92559 3.70555 0
M  V30 1587 N 150.766 -0.704594 1.40972 0
M  V30 1588 C 151.676 -1.84856 1.44448 0
M  V30 1589 C 152.692 -1.70726 0.335961 0
M  V30 1590 O 153.868 -1.92799 0.582276 0
M  V30 1591 C 150.933 -3.20758 1.31587 0
M  V30 1592 C 149.994 -3.47063 2.52677 0
M  V30 1593 C 149.227 -4.76481 2.4042 0
M  V30 1594 O 149.45 -5.52341 1.42391 0
M  V30 1595 O 148.384 -5.03367 3.30007 0
M  V30 1596 H 152.21 -1.8488 2.40942 0
M  V30 1597 H 149.795 -0.85647 1.22413 0
M  V30 1598 H 151.677 -4.01913 1.26665 0
M  V30 1599 H 150.352 -3.21438 0.382049 0
M  V30 1600 H 149.259 -2.65873 2.63177 0
M  V30 1601 H 150.592 -3.5119 3.44858 0
M  V30 1602 N 152.244 -1.26651 -0.937939 0
M  V30 1603 C 153.174 -1.10993 -2.05433 0
M  V30 1604 C 154.155 -0.0142161 -1.70094 0
M  V30 1605 O 155.34 -0.186837 -1.93299 0
M  V30 1606 C 152.47 -0.745561 -3.39203 0
M  V30 1607 C 151.424 -1.79337 -3.88616 0
M  V30 1608 C 150.75 -1.28324 -5.19073 0
M  V30 1609 C 152.05 -3.19553 -4.13138 0
M  V30 1610 H 153.744 -2.0438 -2.1879 0
M  V30 1611 H 151.29 -0.984041 -1.05131 0
M  V30 1612 H 153.243 -0.622888 -4.16771 0
M  V30 1613 H 151.967 0.22401 -3.25831 0
M  V30 1614 H 150.626 -1.90477 -3.13231 0
M  V30 1615 H 150.274 -0.303414 -5.02084 0
M  V30 1616 H 149.974 -1.98369 -5.53103 0
M  V30 1617 H 151.498 -1.1733 -5.99221 0
M  V30 1618 H 152.912 -3.11471 -4.81309 0
M  V30 1619 H 151.309 -3.87218 -4.58457 0
M  V30 1620 H 152.379 -3.65368 -3.18801 0
M  V30 1621 N 153.722 1.14298 -1.08507 0
M  V30 1622 C 154.962 1.87016 -0.824894 0
M  V30 1623 C 155.326 1.81099 0.637735 0
M  V30 1624 O 156.527 2.48963 1.01345 0
M  V30 1625 C 154.798 3.31584 -1.33368 0
M  V30 1626 S 156.357 4.21903 -1.20596 0
M  V30 1627 H 153.175 0.645259 -0.2986 0
M  V30 1628 H 155.777 1.37822 -1.38656 0
M  V30 1629 H 154.481 3.33439 -2.39262 0
M  V30 1630 H 154.012 3.85836 -0.767734 0
M  V30 1631 H 156.027 4.95971 -0.150891 0
M  V30 1632 N 155.201 0.870884 1.31352 0
M  V30 1633 C 156.612 0.534714 1.78879 0
M  V30 1634 C 156.963 -0.948423 1.71754 0
M  V30 1635 O 156.088 -1.74055 1.28584 0
M  V30 1636 C 156.683 0.963839 3.24801 0
M  V30 1637 C 155.242 0.679311 3.70219 0
M  V30 1638 C 154.389 1.15465 2.52117 0
M  V30 1639 H 157.34 1.05651 1.18421 0
M  V30 1640 H 157.361 0.286892 3.79417 0
M  V30 1641 H 156.873 2.04332 3.29955 0
M  V30 1642 H 154.974 -0.388769 3.70566 0
M  V30 1643 H 155.087 1.25698 4.62317 0
M  V30 1644 H 153.451 0.574383 2.48139 0
M  V30 1645 H 154.234 2.24157 2.60016 0
M  V30 1646 N 156.679 -1.44442 0.630414 0
M  V30 1647 C 157.956 -1.9549 0.0655657 0
M  V30 1648 C 158.336 -1.5724 -1.40851 0
M  V30 1649 O 157.684 -0.846116 -2.12257 0
M  V30 1650 C 157.894 -3.47812 0.287691 0
M  V30 1651 C 159.242 -4.24216 0.180513 0
M  V30 1652 O 160.266 -3.55526 0.219019 0
M  V30 1653 O 159.125 -5.46434 0.0848493 0
M  V30 1654 H 156.219 -0.826688 -0.0227177 0
M  V30 1655 H 158.765 -1.54496 0.702068 0
M  V30 1656 H 157.537 -3.687 1.31056 0
M  V30 1657 H 157.16 -3.95751 -0.382984 0
M  V30 1658 N 158.157 -0.370918 -1.53173 0
M  V30 1659 C 159.573 -0.0200818 -1.59587 0
M  V30 1660 C 159.773 1.46279 -1.38581 0
M  V30 1661 O 158.829 2.22506 -1.19363 0
M  V30 1662 C 160.142 -0.4808 -2.96831 0
M  V30 1663 C 161.69 -0.435477 -3.09956 0
M  V30 1664 C 162.165 -0.872092 -4.4962 0
M  V30 1665 N 163.656 -0.827364 -4.55751 0
M  V30 1666 C 164.391 -1.13683 -5.62018 0
M  V30 1667 N 163.887 -1.51584 -6.76014 0
M  V30 1668 N 165.68 -1.05927 -5.52029 0
M  V30 1669 H 157.831 -1.33652 -1.65079 0
M  V30 1670 H 160.094 -0.546634 -0.774529 0
M  V30 1671 H 159.8 -1.51577 -3.1736 0
M  V30 1672 H 159.674 0.129796 -3.76977 0
M  V30 1673 H 162.061 0.590371 -2.89134 0
M  V30 1674 H 162.142 -1.08164 -2.31806 0
M  V30 1675 H 161.786 -1.89608 -4.71181 0
M  V30 1676 H 161.716 -0.203127 -5.26208 0
M  V30 1677 H 164.207 -0.548216 -3.73902 0
M  V30 1678 H 164.52 -1.73609 -7.53047 0
M  V30 1679 H 162.865 -1.55454 -6.77391 0
M  V30 1680 H 166.056 -0.762321 -4.61851 0
M  V30 1681 H 166.229 -1.30378 -6.34749 0
M  V30 1682 N 159.635 1.57281 -0.100228 0
M  V30 1683 C 160.875 1.96419 0.56558 0
M  V30 1684 C 161.239 0.981265 1.65031 0
M  V30 1685 O 162.44 1.26133 2.37369 0
M  V30 1686 C 160.711 3.39996 1.10171 0
M  V30 1687 S 162.27 4.01134 1.77867 0
M  V30 1688 H 159.088 0.68667 0.184406 0
M  V30 1689 H 161.69 1.94662 -0.180851 0
M  V30 1690 H 160.394 4.09296 0.300803 0
M  V30 1691 H 159.925 3.45361 1.88385 0
M  V30 1692 H 161.94 3.90358 3.06326 0
M  V30 1693 N 161.113 -0.173488 1.56642 0
M  V30 1694 C 162.362 -0.888758 1.81063 0
M  V30 1695 C 162.675 -1.83506 0.67712 0
M  V30 1696 O 163.881 -2.59254 0.806206 0
M  V30 1697 C 162.337 -1.63091 3.20826 0
M  V30 1698 C 161.945 -0.728357 4.4204 0
M  V30 1699 C 163.689 -2.33454 3.54541 0
M  V30 1700 C 161.596 -1.47062 5.72823 0
M  V30 1701 H 160.526 -0.335618 0.675186 0
M  V30 1702 H 163.177 -0.141712 1.82952 0
M  V30 1703 H 161.559 -2.42263 3.13248 0
M  V30 1704 H 162.733 0.0262449 4.60793 0
M  V30 1705 H 161.048 -0.134492 4.16183 0
M  V30 1706 H 163.645 -2.89578 4.49498 0
M  V30 1707 H 163.988 -3.08687 2.79317 0
M  V30 1708 H 164.521 -1.61227 3.63663 0
M  V30 1709 H 161.26 -0.760658 6.51072 0
M  V30 1710 H 160.78 -2.1986 5.58052 0
M  V30 1711 H 162.459 -2.01868 6.14702 0
M  V30 1712 N 162.591 -1.51276 -0.441967 0
M  V30 1713 C 163.541 -1.6864 -1.53442 0
M  V30 1714 C 164.525 -0.540444 -1.51552 0
M  V30 1715 O 165.717 -0.796157 -1.58083 0
M  V30 1716 C 162.846 -1.8106 -2.91672 0
M  V30 1717 C 161.932 -3.01424 -2.98336 0
M  V30 1718 N 162.323 -4.2467 -2.74752 0
M  V30 1719 C 160.621 -3.00584 -3.29493 0
M  V30 1720 C 161.322 -5.05891 -2.87139 0
M  V30 1721 N 160.298 -4.40442 -3.18609 0
M  V30 1722 H 164.1 -2.61598 -1.33954 0
M  V30 1723 H 161.614 -1.4886 -0.6492 0
M  V30 1724 H 163.611 -1.91609 -3.70259 0
M  V30 1725 H 162.271 -0.892795 -3.12185 0
M  V30 1726 H 163.282 -4.53691 -2.49769 0
M  V30 1727 H 159.959 -2.18417 -3.55809 0
M  V30 1728 H 161.349 -6.13983 -2.72899 0
M  V30 1729 N 164.069 0.697108 -1.41344 0
M  V30 1730 C 165.294 1.49096 -1.44171 0
M  V30 1731 C 165.719 1.88038 -0.0481568 0
M  V30 1732 O 165.077 1.54525 0.948243 0
M  V30 1733 C 165.125 2.73088 -2.3549 0
M  V30 1734 O 164.229 3.70514 -1.81088 0
M  V30 1735 H 163.57 0.448801 -0.489361 0
M  V30 1736 H 166.1 0.856992 -1.85787 0
M  V30 1737 H 166.11 3.21413 -2.51312 0
M  V30 1738 H 164.785 2.44081 -3.36745 0
M  V30 1739 H 163.362 3.29441 -1.74708 0
M  V30 1740 N 165.547 1.27147 0.931209 0
M  V30 1741 C 166.794 1.13278 1.67852 0
M  V30 1742 C 167.122 -0.32204 1.91815 0
M  V30 1743 O 166.377 -1.25224 1.50391 0
M  V30 1744 C 166.676 1.8579 3.05314 0
M  V30 1745 C 166.342 3.35657 3.01073 0
M  V30 1746 C 165.004 3.76536 2.99623 0
M  V30 1747 C 167.356 4.31299 2.92627 0
M  V30 1748 C 164.684 5.11426 2.87506 0
M  V30 1749 C 167.036 5.66242 2.82051 0
M  V30 1750 C 165.7 6.06418 2.7895 0
M  V30 1751 H 164.97 0.414515 0.614214 0
M  V30 1752 H 167.617 1.57712 1.08624 0
M  V30 1753 H 165.922 1.33854 3.68226 0
M  V30 1754 H 167.619 1.72491 3.62005 0
M  V30 1755 H 164.209 3.03146 3.02986 0
M  V30 1756 H 168.393 4.00692 2.92848 0
M  V30 1757 H 163.649 5.41705 2.83489 0
M  V30 1758 H 167.823 6.40026 2.74481 0
M  V30 1759 H 165.45 7.10895 2.69318 0
M  V30 1760 N 167.025 -1.13721 1.09112 0
M  V30 1761 C 167.957 -2.1871 0.685467 0
M  V30 1762 C 168.97 -1.60527 -0.271068 0
M  V30 1763 O 170.159 -1.78407 -0.0576148 0
M  V30 1764 C 167.259 -3.38898 -0.0111255 0
M  V30 1765 C 166.432 -4.26597 0.966131 0
M  V30 1766 C 165.491 -5.25324 0.303539 0
M  V30 1767 O 164.517 -5.61213 0.950177 0
M  V30 1768 N 165.719 -5.72779 -0.943651 0
M  V30 1769 H 168.484 -2.54126 1.58871 0
M  V30 1770 H 166.045 -1.29012 0.978143 0
M  V30 1771 H 168.037 -4.02014 -0.465517 0
M  V30 1772 H 166.607 -3.01747 -0.816565 0
M  V30 1773 H 165.827 -3.60306 1.59917 0
M  V30 1774 H 167.115 -4.82048 1.6281 0
M  V30 1775 H 166.513 -5.45762 -1.48862 0
M  V30 1776 H 165.07 -6.37847 -1.34142 0
M  V30 1777 N 168.503 -0.877838 -1.30888 0
M  V30 1778 C 169.451 -0.328662 -2.30266 0
M  V30 1779 C 170.445 0.560496 -1.59859 0
M  V30 1780 O 171.651 0.445722 -1.74394 0
M  V30 1781 H 168.026 -0.0876142 -0.746879 0
M  V30 1782 H 169.997 -1.18061 -2.74051 0
M  V30 1783 C 168.746 0.448071 -3.44801 0
M  V30 1784 H 168.069 -0.226859 -3.99156 0
M  V30 1785 H 169.509 0.797541 -4.16432 0
M  V30 1786 C 167.968 1.64239 -2.94155 0
M  V30 1787 O 168.498 2.74175 -2.93583 0
M  V30 1788 N 166.704 1.47716 -2.50256 0
M  V30 1789 H 166.251 0.582821 -2.5092 0
M  V30 1790 H 166.209 2.27765 -2.16727 0
M  V30 1791 N 169.982 1.44106 -0.638065 0
M  V30 1792 C 170.912 2.33448 0.0494287 0
M  V30 1793 C 171.893 1.48606 0.827672 0
M  V30 1794 O 173.078 1.77308 0.792173 0
M  V30 1795 C 170.208 3.31771 1.02691 0
M  V30 1796 C 169.162 4.26485 0.359823 0
M  V30 1797 C 168.488 5.14729 1.44769 0
M  V30 1798 C 169.788 5.17056 -0.738296 0
M  V30 1799 H 171.482 2.91183 -0.696636 0
M  V30 1800 H 169.028 1.40014 -0.336456 0
M  V30 1801 H 170.981 3.93161 1.51666 0
M  V30 1802 H 169.705 2.7226 1.80395 0
M  V30 1803 H 168.364 3.66437 -0.10934 0
M  V30 1804 H 168.012 4.51566 2.21578 0
M  V30 1805 H 167.712 5.78913 1.00668 0
M  V30 1806 H 169.236 5.78991 1.93911 0
M  V30 1807 H 170.65 5.72342 -0.331354 0
M  V30 1808 H 169.047 5.89879 -1.10286 0
M  V30 1809 H 170.117 4.57652 -1.60258 0
M  V30 1810 N 171.46 0.379036 1.52974 0
M  V30 1811 C 172.708 -0.206014 2.01047 0
M  V30 1812 C 173.029 -1.48175 1.26765 0
M  V30 1813 O 172.299 -1.92085 0.384743 0
M  V30 1814 H 170.879 -0.0791184 0.742798 0
M  V30 1815 H 173.541 0.508366 1.88153 0
M  V30 1816 H 172.637 -0.423501 3.09213 0
M  V30 1817 N 172.938 -1.57226 0.108567 0
M  V30 1818 C 174.187 -1.94008 -0.551703 0
M  V30 1819 C 174.5 -0.993442 -1.68494 0
M  V30 1820 O 175.706 -1.25551 -2.40726 0
M  V30 1821 C 174.162 -3.44763 -1.03279 0
M  V30 1822 C 173.77 -4.47943 0.0714193 0
M  V30 1823 C 175.514 -3.90483 -1.66503 0
M  V30 1824 C 173.421 -5.89865 -0.425779 0
M  V30 1825 H 172.351 -0.724206 -0.209863 0
M  V30 1826 H 175.002 -1.82547 0.186741 0
M  V30 1827 H 173.384 -3.51422 -1.82533 0
M  V30 1828 H 174.558 -4.52942 0.847365 0
M  V30 1829 H 172.873 -4.11913 0.609669 0
M  V30 1830 H 175.47 -4.93925 -2.04798 0
M  V30 1831 H 175.813 -3.29877 -2.53942 0
M  V30 1832 H 176.346 -3.86581 -0.938074 0
M  V30 1833 H 173.085 -6.54202 0.412316 0
M  V30 1834 H 172.605 -5.88309 -1.16843 0
M  V30 1835 H 174.284 -6.40844 -0.890397 0
M  V30 1836 N 174.416 0.165178 -1.56732 0
M  V30 1837 C 175.348 1.22911 -1.93457 0
M  V30 1838 C 176.361 1.40152 -0.828333 0
M  V30 1839 O 177.55 1.40046 -1.10677 0
M  V30 1840 C 174.65 2.59686 -2.17753 0
M  V30 1841 C 173.823 2.63663 -3.48999 0
M  V30 1842 C 172.882 3.81845 -3.62051 0
M  V30 1843 O 171.908 3.67559 -4.34613 0
M  V30 1844 N 173.11 4.98557 -2.97357 0
M  V30 1845 H 175.875 0.917118 -2.85323 0
M  V30 1846 H 173.436 0.354895 -1.57962 0
M  V30 1847 H 175.428 3.37225 -2.23743 0
M  V30 1848 H 173.998 2.83251 -1.32242 0
M  V30 1849 H 173.218 1.72173 -3.54612 0
M  V30 1850 H 174.506 2.63336 -4.35352 0
M  V30 1851 H 173.904 5.13065 -2.38287 0
M  V30 1852 H 172.461 5.73936 -3.08934 0
M  V30 1853 N 175.894 1.51508 0.433938 0
M  V30 1854 C 177.134 1.66006 1.19253 0
M  V30 1855 C 177.498 0.369868 1.88404 0
M  V30 1856 O 178.699 0.39066 2.65946 0
M  V30 1857 C 176.97 2.83229 2.17981 0
M  V30 1858 S 178.529 3.18075 3.02281 0
M  V30 1859 H 175.347 0.584821 0.404358 0
M  V30 1860 H 177.949 1.89425 0.48357 0
M  V30 1861 H 176.653 3.75407 1.65824 0
M  V30 1862 H 176.184 2.6201 2.93453 0
M  V30 1863 H 178.199 2.64772 4.19655 0
M  V30 1864 N 177.372 -0.689602 1.41712 0
M  V30 1865 C 178.618 -1.45181 1.41599 0
M  V30 1866 C 178.951 -1.94181 0.0270081 0
M  V30 1867 O 178.226 -1.6993 -0.946265 0
M  V30 1868 C 178.509 -2.65945 2.42787 0
M  V30 1869 C 178.362 -2.22672 3.90816 0
M  V30 1870 C 179.681 -3.68149 2.41151 0
M  V30 1871 H 176.8 -0.526576 0.515642 0
M  V30 1872 H 179.442 -0.784947 1.73028 0
M  V30 1873 H 177.592 -3.2284 2.16116 0
M  V30 1874 H 179.264 -1.71058 4.28412 0
M  V30 1875 H 177.507 -1.54394 4.05395 0
M  V30 1876 H 178.178 -3.0935 4.57172 0
M  V30 1877 H 180.654 -3.2094 2.64834 0
M  V30 1878 H 179.53 -4.50248 3.13955 0
M  V30 1879 H 179.791 -4.18259 1.43221 0
M  V30 1880 N 178.85 -1.27639 -0.924453 0
M  V30 1881 C 179.797 -1.10644 -2.0255 0
M  V30 1882 C 180.767 -0.00658438 -1.66099 0
M  V30 1883 O 181.952 -0.16952 -1.90045 0
M  V30 1884 C 179.092 -0.76309 -3.36557 0
M  V30 1885 C 178.205 -1.94091 -3.85944 0
M  V30 1886 C 177.34 -1.53914 -5.08413 0
M  V30 1887 C 176.379 -2.68425 -5.50104 0
M  V30 1888 N 175.516 -2.28815 -6.63768 0
M  V30 1889 H 180.356 -2.04858 -2.16419 0
M  V30 1890 H 177.893 -1.01974 -1.06017 0
M  V30 1891 H 179.851 -0.544822 -4.13627 0
M  V30 1892 H 178.481 0.142102 -3.22487 0
M  V30 1893 H 177.533 -2.27162 -3.05125 0
M  V30 1894 H 178.845 -2.7998 -4.12811 0
M  V30 1895 H 177.999 -1.28231 -5.92994 0
M  V30 1896 H 176.738 -0.651391 -4.8333 0
M  V30 1897 H 175.743 -2.94819 -4.64071 0
M  V30 1898 H 176.968 -3.57826 -5.7718 0
M  V30 1899 H 174.914 -1.42495 -6.40337 0
M  V30 1900 H 174.831 -3.08242 -6.90306 0
M  V30 1901 H 176.099 -2.06387 -7.51681 0
M  V30 1902 N 180.328 1.1314 -1.09713 0
M  V30 1903 C 181.275 2.18642 -0.739196 0
M  V30 1904 C 182.245 1.63706 0.280978 0
M  V30 1905 O 183.43 1.90111 0.161946 0
M  V30 1906 C 180.57 3.44685 -0.169102 0
M  V30 1907 C 179.683 4.13711 -1.24367 0
M  V30 1908 C 178.818 5.27379 -0.636019 0
M  V30 1909 C 177.857 5.88259 -1.69169 0
M  V30 1910 N 176.994 6.93352 -1.10485 0
M  V30 1911 H 181.834 2.48607 -1.64312 0
M  V30 1912 H 179.371 1.22066 -0.820875 0
M  V30 1913 H 181.329 4.16815 0.179256 0
M  V30 1914 H 179.959 3.15161 0.698079 0
M  V30 1915 H 179.011 3.39835 -1.70927 0
M  V30 1916 H 180.323 4.55037 -2.04311 0
M  V30 1917 H 179.477 6.06238 -0.236677 0
M  V30 1918 H 178.216 4.8731 0.194928 0
M  V30 1919 H 177.221 5.08092 -2.10055 0
M  V30 1920 H 178.446 6.30399 -2.52536 0
M  V30 1921 H 176.392 6.55335 -0.295234 0
M  V30 1922 H 176.309 7.33236 -1.84121 0
M  V30 1923 H 177.577 7.76057 -0.73181 0
M  V30 1924 N 181.806 0.884767 1.30421 0
M  V30 1925 C 183.222 0.57874 1.48737 0
M  V30 1926 C 183.422 -0.883567 1.81095 0
M  V30 1927 O 182.478 -1.6648 1.89844 0
M  V30 1928 C 183.791 1.49171 2.61091 0
M  V30 1929 C 185.339 1.49532 2.74971 0
M  V30 1930 C 185.814 2.39421 3.90438 0
M  V30 1931 N 187.305 2.37383 3.97748 0
M  V30 1932 C 188.04 3.03647 4.86401 0
M  V30 1933 N 187.536 3.79136 5.79852 0
M  V30 1934 N 189.329 2.9288 4.79768 0
M  V30 1935 H 181.48 1.83075 1.0769 0
M  V30 1936 H 183.743 0.783637 0.533495 0
M  V30 1937 H 183.449 2.53291 2.44001 0
M  V30 1938 H 183.323 1.20113 3.57565 0
M  V30 1939 H 185.71 0.46163 2.91467 0
M  V30 1940 H 185.791 1.8262 1.79119 0
M  V30 1941 H 185.435 3.42874 3.74699 0
M  V30 1942 H 185.365 2.03649 4.85628 0
M  V30 1943 H 187.856 1.82525 3.30897 0
M  V30 1944 H 188.169 4.26789 6.4426 0
M  V30 1945 H 186.514 3.83243 5.79784 0
M  V30 1946 H 189.705 2.33433 4.05742 0
M  V30 1947 H 189.878 3.448 5.4865 0
M  V30 1948 N 183.284 -1.43765 0.645699 0
M  V30 1949 C 184.561 -1.9541 0.0862963 0
M  V30 1950 C 184.941 -1.58725 -1.39175 0
M  V30 1951 O 184.289 -0.868581 -2.11348 0
M  V30 1952 C 184.499 -3.47488 0.324565 0
M  V30 1953 C 185.847 -4.24001 0.225497 0
M  V30 1954 O 186.871 -3.55274 0.256715 0
M  V30 1955 O 185.73 -5.46313 0.142801 0
M  V30 1956 H 182.824 -0.826882 -0.0139483 0
M  V30 1957 H 185.37 -1.53743 0.718415 0
M  V30 1958 H 184.142 -3.67289 1.3496 0
M  V30 1959 H 183.765 -3.96135 -0.340987 0
M  V30 1960 N 184.763 -0.387143 -1.52771 0
M  V30 1961 C 185.693 0.440551 -2.29306 0
M  V30 1962 C 186.674 1.06535 -1.32606 0
M  V30 1963 O 187.859 1.07853 -1.61497 0
M  V30 1964 C 184.989 1.56919 -3.09829 0
M  V30 1965 C 183.943 1.07054 -4.14395 0
M  V30 1966 C 183.269 2.29109 -4.83129 0
M  V30 1967 C 184.569 0.140015 -5.22112 0
M  V30 1968 H 186.263 -0.198026 -2.98744 0
M  V30 1969 H 183.809 -0.09668 -1.43675 0
M  V30 1970 H 185.762 2.15503 -3.62128 0
M  V30 1971 H 184.486 2.23532 -2.3812 0
M  V30 1972 H 183.145 0.507247 -3.63074 0
M  V30 1973 H 182.793 2.94227 -4.0797 0
M  V30 1974 H 182.493 1.96406 -5.53804 0
M  V30 1975 H 184.017 2.88339 -5.38231 0
M  V30 1976 H 185.431 0.633978 -5.69784 0
M  V30 1977 H 183.828 -0.0971485 -6.00021 0
M  V30 1978 H 184.898 -0.811711 -4.78058 0
M  V30 1979 N 186.241 1.57166 -0.116904 0
M  V30 1980 C 187.151 2.18745 0.847812 0
M  V30 1981 C 188.167 1.163 1.29423 0
M  V30 1982 O 189.343 1.48761 1.35765 0
M  V30 1983 C 186.408 2.77307 2.0809 0
M  V30 1984 C 185.469 3.94781 1.68661 0
M  V30 1985 C 184.702 4.50541 2.86091 0
M  V30 1986 O 184.925 4.05202 4.01456 0
M  V30 1987 O 183.859 5.41256 2.63298 0
M  V30 1988 H 187.685 3.01632 0.353778 0
M  V30 1989 H 185.27 1.49005 0.108599 0
M  V30 1990 H 187.152 3.14647 2.80313 0
M  V30 1991 H 185.827 1.97452 2.56504 0
M  V30 1992 H 184.734 3.62214 0.935518 0
M  V30 1993 H 186.067 4.76065 1.24991 0
M  V30 1994 N 187.719 -0.156864 1.56817 0
M  V30 1995 C 188.651 -1.21883 1.94106 0
M  V30 1996 C 189.664 -1.3971 0.835754 0
M  V30 1997 O 190.853 -1.39457 1.11418 0
M  V30 1998 C 187.953 -2.58527 2.19127 0
M  V30 1999 C 187.126 -2.61809 3.50393 0
M  V30 2000 C 186.185 -3.7992 3.64071 0
M  V30 2001 O 185.211 -3.65249 4.36557 0
M  V30 2002 N 186.413 -4.96973 2.99997 0
M  V30 2003 H 189.178 -0.901974 2.85805 0
M  V30 2004 H 186.739 -0.346513 1.58148 0
M  V30 2005 H 188.731 -3.36034 2.25529 0
M  V30 2006 H 187.301 -2.82545 1.33742 0
M  V30 2007 H 186.521 -1.7029 3.5552 0
M  V30 2008 H 187.809 -2.61024 4.36742 0
M  V30 2009 H 187.207 -5.11794 2.41004 0
M  V30 2010 H 185.764 -5.7229 3.11974 0
M  V30 2011 N 189.197 -1.51736 -0.425897 0
M  V30 2012 C 190.16 -1.73271 -1.50032 0
M  V30 2013 C 191.16 -0.602639 -1.4908 0
M  V30 2014 O 192.35 -0.87033 -1.509 0
M  V30 2015 C 189.482 -1.79969 -2.89523 0
M  V30 2016 H 190.675 -2.69172 -1.32237 0
M  V30 2017 H 188.228 -1.41899 -0.65532 0
M  V30 2018 H 188.963 -0.859241 -3.1271 0
M  V30 2019 H 188.748 -2.62109 -2.91619 0
M  V30 2020 H 190.238 -1.9843 -3.67444 0
M  V30 2021 N 190.675 0.682077 -1.42076 0
M  V30 2022 C 191.924 1.43786 -1.41451 0
M  V30 2023 C 192.237 1.95574 -0.0317074 0
M  V30 2024 O 193.443 2.71326 0.0971462 0
M  V30 2025 C 191.899 2.60071 -2.48779 0
M  V30 2026 C 191.507 2.15013 -3.93031 0
M  V30 2027 C 193.251 3.37626 -2.57311 0
M  V30 2028 C 191.158 3.28336 -4.91883 0
M  V30 2029 H 190.088 0.540143 -0.526082 0
M  V30 2030 H 192.739 0.739157 -1.67955 0
M  V30 2031 H 191.121 3.32275 -2.15429 0
M  V30 2032 H 192.295 1.5001 -4.35699 0
M  V30 2033 H 190.61 1.50416 -3.88284 0
M  V30 2034 H 193.207 4.22012 -3.28345 0
M  V30 2035 H 193.55 3.83727 -1.61429 0
M  V30 2036 H 194.083 2.72488 -2.89819 0
M  V30 2037 H 190.822 2.87234 -5.89217 0
M  V30 2038 H 190.342 3.92145 -4.53853 0
M  V30 2039 H 192.021 3.93913 -5.13265 0
M  V30 2040 N 192.153 1.28127 0.917671 0
M  V30 2041 C 193.378 1.18007 1.70555 0
M  V30 2042 C 193.803 -0.258257 1.86319 0
M  V30 2043 O 193.161 -1.1869 1.37049 0
M  V30 2044 C 193.209 1.87948 3.07746 0
M  V30 2045 O 192.313 1.18427 3.9503 0
M  V30 2046 H 191.654 0.409867 0.522403 0
M  V30 2047 H 194.184 1.69379 1.1477 0
M  V30 2048 H 194.194 1.95701 3.58001 0
M  V30 2049 H 192.869 2.92573 2.95591 0
M  V30 2050 H 191.446 1.18811 3.53466 0
M  V30 2051 N 193.631 -1.12557 1.10312 0
M  V30 2052 C 194.563 -2.17971 0.708625 0
M  V30 2053 C 195.576 -1.60806 -0.254027 0
M  V30 2054 O 196.765 -1.78458 -0.0386891 0
M  V30 2055 C 193.865 -3.38891 0.0248198 0
M  V30 2056 C 193.038 -4.25548 1.01132 0
M  V30 2057 C 192.097 -5.24972 0.35924 0
M  V30 2058 O 191.123 -5.60174 1.00965 0
M  V30 2059 N 192.325 -5.73747 -0.882847 0
M  V30 2060 H 195.09 -2.52427 1.61557 0
M  V30 2061 H 192.651 -1.27967 0.991771 0
M  V30 2062 H 194.643 -4.02485 -0.422852 0
M  V30 2063 H 193.213 -3.02596 -0.784514 0
M  V30 2064 H 192.433 -3.58589 1.6373 0
M  V30 2065 H 193.721 -4.80294 1.67914 0
M  V30 2066 H 193.119 -5.4731 -1.43065 0
M  V30 2067 H 191.676 -6.39234 -1.27369 0
M  V30 2068 N 195.109 -0.891671 -1.2995 0
M  V30 2069 C 196.525 -0.58662 -1.48428 0
M  V30 2070 C 196.725 0.873951 -1.81561 0
M  V30 2071 O 195.781 1.65471 -1.90724 0
M  V30 2072 C 197.094 -1.50553 -2.60296 0
M  V30 2073 C 198.642 -1.50988 -2.74175 0
M  V30 2074 C 199.117 -2.41488 -3.89163 0
M  V30 2075 N 200.608 -2.39489 -3.96483 0
M  V30 2076 C 201.343 -3.06223 -4.84784 0
M  V30 2077 N 200.839 -3.82206 -5.77833 0
M  V30 2078 N 202.632 -2.95421 -4.78208 0
M  V30 2079 H 194.783 -1.83644 -1.06718 0
M  V30 2080 H 197.046 -0.786455 -0.529332 0
M  V30 2081 H 196.752 -2.54581 -2.42654 0
M  V30 2082 H 196.626 -1.22008 -3.56923 0
M  V30 2083 H 199.013 -0.47708 -2.91218 0
M  V30 2084 H 199.094 -1.83567 -1.78148 0
M  V30 2085 H 198.738 -3.44857 -3.72876 0
M  V30 2086 H 198.668 -2.06222 -4.84541 0
M  V30 2087 H 201.159 -1.84278 -3.29924 0
M  V30 2088 H 201.472 -4.302 -6.41988 0
M  V30 2089 H 199.817 -3.86313 -5.77743 0
M  V30 2090 H 203.008 -2.35581 -4.04499 0
M  V30 2091 H 203.181 -3.47704 -5.46814 0
M  V30 2092 N 196.587 1.43421 -0.653314 0
M  V30 2093 C 197.836 2.01032 -0.164076 0
M  V30 2094 C 198.149 1.52147 1.22926 0
M  V30 2095 O 199.355 2.02031 1.81371 0
M  V30 2096 C 197.811 3.59082 -0.24252 0
M  V30 2097 C 197.419 4.1696 -1.63855 0
M  V30 2098 C 199.163 4.24079 0.18911 0
M  V30 2099 C 197.07 5.67304 -1.67092 0
M  V30 2100 H 196 0.751798 -0.0575769 0
M  V30 2101 H 198.651 1.6439 -0.815362 0
M  V30 2102 H 197.033 3.93125 0.476276 0
M  V30 2103 H 198.207 3.94416 -2.38271 0
M  V30 2104 H 196.522 3.64335 -2.01616 0
M  V30 2105 H 199.119 5.34381 0.184775 0
M  V30 2106 H 199.462 3.98005 1.22056 0
M  V30 2107 H 199.995 3.94918 -0.477938 0
M  V30 2108 H 196.734 5.98145 -2.68146 0
M  V30 2109 H 196.254 5.91904 -0.970014 0
M  V30 2110 H 197.933 6.31344 -1.4147 0
M  V30 2111 N 198.065 0.39524 1.52563 0
M  V30 2112 C 198.997 -0.472201 2.24283 0
M  V30 2113 C 200.01 -1.02178 1.26742 0
M  V30 2114 O 201.199 -0.923097 1.52778 0
M  V30 2115 C 198.299 -1.66775 2.95024 0
M  V30 2116 C 197.472 -1.2445 4.19322 0
M  V30 2117 C 196.531 -2.30539 4.7301 0
M  V30 2118 O 195.557 -1.91702 5.35947 0
M  V30 2119 N 196.759 -3.6253 4.53379 0
M  V30 2120 H 199.524 0.142282 2.99362 0
M  V30 2121 H 197.085 0.2219 1.60372 0
M  V30 2122 H 199.077 -2.37283 3.27839 0
M  V30 2123 H 197.647 -2.18845 2.23217 0
M  V30 2124 H 196.867 -0.368069 3.92478 0
M  V30 2125 H 198.155 -0.938457 5.0007 0
M  V30 2126 H 197.553 -3.96841 4.03154 0
M  V30 2127 H 196.11 -4.29055 4.90668 0
M  V30 2128 N 199.544 -1.57102 0.125237 0
M  V30 2129 C 200.772 -1.99761 -0.538797 0
M  V30 2130 C 201.187 -1.00503 -1.59827 0
M  V30 2131 O 200.544 0.00119474 -1.825 0
M  V30 2132 C 200.595 -3.42408 -1.15927 0
M  V30 2133 O 200.316 -4.37869 -0.142143 0
M  V30 2134 C 201.817 -4.00232 -1.90602 0
M  V30 2135 H 199.037 -0.655772 -0.14214 0
M  V30 2136 H 201.581 -2.03383 0.213413 0
M  V30 2137 H 199.736 -3.39706 -1.86223 0
M  V30 2138 H 200.15 -5.21128 -0.593775 0
M  V30 2139 H 201.624 -5.02105 -2.29335 0
M  V30 2140 H 202.101 -3.39721 -2.78363 0
M  V30 2141 H 202.707 -4.06499 -1.25055 0
M  V30 2142 N 201.022 0.148545 -1.56898 0
M  V30 2143 C 201.97 1.20265 -1.99096 0
M  V30 2144 C 202.964 1.44559 -0.883123 0
M  V30 2145 O 204.17 1.4487 -1.0683 0
M  V30 2146 H 200.545 0.404786 -0.63376 0
M  V30 2147 H 202.516 0.82004 -2.86911 0
M  V30 2148 C 201.265 2.52886 -2.3863 0
M  V30 2149 H 200.588 2.35021 -3.23427 0
M  V30 2150 H 202.028 3.25274 -2.7198 0
M  V30 2151 C 200.487 3.13315 -1.23837 0
M  V30 2152 O 201.017 3.98077 -0.538268 0
M  V30 2153 N 199.223 2.72742 -1.00301 0
M  V30 2154 H 198.77 2.03912 -1.5741 0
M  V30 2155 H 198.728 3.13507 -0.236838 0
M  V30 2156 N 202.5 1.5196 0.417844 0
M  V30 2157 C 203.448 1.75278 1.52907 0
M  V30 2158 C 204.442 0.619611 1.57662 0
M  V30 2159 O 205.648 0.801457 1.61173 0
M  V30 2160 H 202.023 0.554141 0.508362 0
M  V30 2161 H 203.994 2.68389 1.30422 0
M  V30 2162 C 202.743 1.91262 2.90369 0
M  V30 2163 H 202.066 2.77872 2.8745 0
M  V30 2164 H 203.506 2.11581 3.67436 0
M  V30 2165 C 201.965 0.677431 3.30019 0
M  V30 2166 O 202.495 -0.158799 4.01386 0
M  V30 2167 N 200.701 0.515851 2.85985 0
M  V30 2168 H 200.248 1.19744 2.28077 0
M  V30 2169 H 200.206 -0.309315 3.12875 0
M  V30 2170 N 203.978 -0.674533 1.42435 0
M  V30 2171 C 204.926 -1.80934 1.46169 0
M  V30 2172 C 205.92 -1.66006 0.3374 0
M  V30 2173 O 207.126 -1.72611 0.510425 0
M  V30 2174 H 203.501 -0.596594 0.457798 0
M  V30 2175 H 205.472 -1.74903 2.41767 0
M  V30 2176 C 204.221 -3.19088 1.38123 0
M  V30 2177 H 203.544 -3.31203 2.23931 0
M  V30 2178 H 204.984 -3.9851 1.44797 0
M  V30 2179 C 203.443 -3.36763 0.0960517 0
M  V30 2180 O 203.973 -3.92581 -0.851073 0
M  V30 2181 N 202.179 -2.90597 0.0131186 0
M  V30 2182 H 201.726 -2.45359 0.784639 0
M  V30 2183 H 201.684 -3.028 -0.846133 0
M  V30 2184 N 205.456 -1.28612 -0.910864 0
M  V30 2185 C 206.867 -1.14406 -1.47541 0
M  V30 2186 C 207.218 0.264901 -1.94403 0
M  V30 2187 O 206.343 1.15942 -1.82719 0
M  V30 2188 C 206.938 -2.07073 -2.68153 0
M  V30 2189 C 205.497 -1.96923 -3.20778 0
M  V30 2190 C 204.644 -1.98646 -1.93481 0
M  V30 2191 H 207.595 -1.41259 -0.723291 0
M  V30 2192 H 207.616 -1.63642 -3.43514 0
M  V30 2193 H 207.128 -3.09611 -2.34015 0
M  V30 2194 H 205.229 -0.97433 -3.59635 0
M  V30 2195 H 205.342 -2.84026 -3.85832 0
M  V30 2196 H 203.706 -1.43093 -2.10705 0
M  V30 2197 H 204.489 -3.02868 -1.61634 0
M  V30 2198 N 206.934 1.1197 -1.10907 0
M  V30 2199 C 208.181 1.83588 -0.854507 0
M  V30 2200 C 208.509 1.84357 0.6199 0
M  V30 2201 O 207.764 1.28809 1.47332 0
M  V30 2202 C 208.063 3.30749 -1.35425 0
M  V30 2203 C 207.729 3.50146 -2.84093 0
M  V30 2204 C 206.391 3.55148 -3.2469 0
M  V30 2205 C 208.743 3.56857 -3.79872 0
M  V30 2206 C 206.071 3.6441 -4.59806 0
M  V30 2207 C 208.423 3.6765 -5.14797 0
M  V30 2208 C 207.087 3.7091 -5.54961 0
M  V30 2209 H 206.357 0.671795 -0.312686 0
M  V30 2210 H 209.004 1.32091 -1.38652 0
M  V30 2211 H 207.309 3.84703 -0.742361 0
M  V30 2212 H 209.006 3.8464 -1.1337 0
M  V30 2213 H 205.596 3.46919 -2.51685 0
M  V30 2214 H 209.78 3.52258 -3.49611 0
M  V30 2215 H 205.036 3.65208 -4.9034 0
M  V30 2216 H 209.21 3.71786 -5.88853 0
M  V30 2217 H 206.837 3.7784 -6.59652 0
M  V30 2218 N 208.412 0.89855 1.29475 0
M  V30 2219 C 209.344 0.332726 2.26772 0
M  V30 2220 C 210.357 -0.520323 1.54261 0
M  V30 2221 O 211.546 -0.337668 1.75277 0
M  V30 2222 C 208.646 -0.544334 3.345 0
M  V30 2223 C 207.819 0.282728 4.36485 0
M  V30 2224 C 206.878 -0.526982 5.23555 0
M  V30 2225 O 205.904 0.0551165 5.69173 0
M  V30 2226 N 207.106 -1.83331 5.5079 0
M  V30 2227 H 209.871 1.16897 2.75962 0
M  V30 2228 H 207.432 0.762919 1.42798 0
M  V30 2229 H 209.424 -1.09239 3.89678 0
M  V30 2230 H 207.994 -1.28127 2.85136 0
M  V30 2231 H 207.214 1.01221 3.80983 0
M  V30 2232 H 208.502 0.84918 5.01664 0
M  V30 2233 H 207.9 -2.32898 5.15534 0
M  V30 2234 H 206.457 -2.32852 6.08788 0
M  V30 2235 N 209.89 -1.43072 0.660911 0
M  V30 2236 C 211.136 -2.0202 0.177708 0
M  V30 2237 C 211.469 -1.52066 -1.20787 0
M  V30 2238 O 210.744 -0.716987 -1.80802 0
M  V30 2239 C 211.027 -3.59561 0.197019 0
M  V30 2240 C 210.88 -4.19727 1.61706 0
M  V30 2241 C 212.199 -4.37664 -0.462396 0
M  V30 2242 H 209.318 -0.734034 0.0660494 0
M  V30 2243 H 211.96 -1.70272 0.843058 0
M  V30 2244 H 210.11 -3.86739 -0.369527 0
M  V30 2245 H 211.782 -4.03553 2.23479 0
M  V30 2246 H 210.025 -3.76084 2.16201 0
M  V30 2247 H 210.696 -5.28834 1.58237 0
M  V30 2248 H 213.172 -4.16095 0.0197215 0
M  V30 2249 H 212.048 -5.47305 -0.418188 0
M  V30 2250 H 212.309 -4.14493 -1.53778 0
M  V30 2251 N 211.368 -0.403325 -1.52352 0
M  V30 2252 C 212.779 0.0675782 -1.86578 0
M  V30 2253 C 213.13 1.44941 -1.32236 0
M  V30 2254 O 212.255 2.06112 -0.659307 0
M  V30 2255 C 212.85 0.129404 -3.38553 0
M  V30 2256 C 211.409 0.544629 -3.72439 0
M  V30 2257 C 210.556 -0.284551 -2.75836 0
M  V30 2258 H 213.507 -0.620631 -1.46061 0
M  V30 2259 H 213.528 0.94581 -3.68558 0
M  V30 2260 H 213.04 -0.87645 -3.78074 0
M  V30 2261 H 211.141 1.55734 -3.38493 0
M  V30 2262 H 211.254 0.293046 -4.78203 0
M  V30 2263 H 209.618 0.252258 -2.53448 0
M  V30 2264 H 210.401 -1.28865 -3.18196 0
M  V30 2265 N 212.846 1.57033 -0.133567 0
M  V30 2266 C 214.095 1.94861 0.520768 0
M  V30 2267 C 214.408 1.02012 1.66892 0
M  V30 2268 O 215.614 1.29365 2.38699 0
M  V30 2269 C 214.07 3.46362 0.977809 0
M  V30 2270 C 213.678 4.47773 -0.142674 0
M  V30 2271 C 215.422 3.93083 1.60269 0
M  V30 2272 C 213.329 5.90468 0.331883 0
M  V30 2273 H 212.259 0.727453 0.198315 0
M  V30 2274 H 214.91 1.82227 -0.215759 0
M  V30 2275 H 213.292 3.54282 1.7692 0
M  V30 2276 H 214.466 4.51536 -0.919317 0
M  V30 2277 H 212.781 4.10891 -0.675124 0
M  V30 2278 H 215.378 4.97121 1.96914 0
M  V30 2279 H 215.721 3.33876 2.48662 0
M  V30 2280 H 216.254 3.88025 0.876453 0
M  V30 2281 H 212.993 6.53463 -0.516341 0
M  V30 2282 H 212.513 5.90094 1.07469 0
M  V30 2283 H 214.192 6.42179 0.788332 0
M  V30 2284 N 214.325 -0.140222 1.56975 0
M  V30 2285 C 215.235 -1.19223 2.02047 0
M  V30 2286 C 216.251 -1.46612 0.937062 0
M  V30 2287 O 217.427 -1.58148 1.24704 0
M  V30 2288 C 214.492 -2.50414 2.39778 0
M  V30 2289 C 213.553 -2.30612 3.621 0
M  V30 2290 C 212.786 -3.55547 3.98023 0
M  V30 2291 O 213.009 -4.62004 3.34528 0
M  V30 2292 O 211.943 -3.47808 4.91237 0
M  V30 2293 H 215.769 -0.839559 2.91865 0
M  V30 2294 H 213.354 -0.349453 1.45256 0
M  V30 2295 H 215.236 -3.27747 2.64877 0
M  V30 2296 H 213.911 -2.85198 1.53114 0
M  V30 2297 H 212.818 -1.51207 3.4218 0
M  V30 2298 H 214.151 -2.00741 4.49404 0
M  V30 2299 N 215.803 -1.52179 -0.40978 0
M  V30 2300 C 216.713 -1.78364 -1.52392 0
M  V30 2301 C 217.729 -0.669183 -1.60617 0
M  V30 2302 O 218.905 -0.954518 -1.77344 0
M  V30 2303 C 215.97 -1.92822 -2.88133 0
M  V30 2304 C 215.031 -3.16725 -2.898 0
M  V30 2305 C 214.264 -3.30483 -4.19067 0
M  V30 2306 O 214.487 -2.49522 -5.12928 0
M  V30 2307 O 213.421 -4.2363 -4.27576 0
M  V30 2308 H 217.247 -2.72931 -1.33201 0
M  V30 2309 H 214.832 -1.37016 -0.59557 0
M  V30 2310 H 216.714 -2.04157 -3.68643 0
M  V30 2311 H 215.389 -1.01444 -3.07393 0
M  V30 2312 H 214.296 -3.10848 -2.08146 0
M  V30 2313 H 215.629 -4.07881 -2.75489 0
M  V30 2314 N 217.281 0.66697 -1.42791 0
M  V30 2315 C 218.213 1.7925 -1.42836 0
M  V30 2316 C 219.226 1.59496 -0.326333 0
M  V30 2317 O 220.415 1.6847 -0.589916 0
M  V30 2318 C 217.515 3.16476 -1.21229 0
M  V30 2319 C 216.688 3.63011 -2.44013 0
M  V30 2320 C 215.747 4.78993 -2.17834 0
M  V30 2321 O 214.773 4.89137 -2.91091 0
M  V30 2322 N 215.975 5.68248 -1.18635 0
M  V30 2323 H 218.74 1.79695 -2.39854 0
M  V30 2324 H 216.301 0.850338 -1.37771 0
M  V30 2325 H 218.293 3.91734 -1.01621 0
M  V30 2326 H 216.863 3.10884 -0.32706 0
M  V30 2327 H 216.083 2.78346 -2.79137 0
M  V30 2328 H 217.371 3.90845 -3.25757 0
M  V30 2329 H 216.769 5.62712 -0.580615 0
M  V30 2330 H 215.326 6.43285 -1.05013 0
M  V30 2331 N 218.759 1.29093 0.90403 0
M  V30 2332 C 220.175 1.07011 1.1841 0
M  V30 2333 C 220.375 -0.181358 2.00682 0
M  V30 2334 O 219.431 -0.880331 2.36657 0
M  V30 2335 C 220.744 2.32311 1.90924 0
M  V30 2336 C 222.292 2.37587 2.03768 0
M  V30 2337 C 222.767 3.62679 2.79693 0
M  V30 2338 N 224.258 3.63376 2.87249 0
M  V30 2339 C 224.993 4.56848 3.46522 0
M  V30 2340 N 224.489 5.60648 4.06996 0
M  V30 2341 N 226.282 4.44426 3.44154 0
M  V30 2342 H 218.433 2.09412 0.354993 0
M  V30 2343 H 220.696 0.922181 0.219742 0
M  V30 2344 H 220.402 3.23536 1.37905 0
M  V30 2345 H 220.276 2.39483 2.91424 0
M  V30 2346 H 222.663 1.46853 2.55965 0
M  V30 2347 H 222.744 2.34403 1.02415 0
M  V30 2348 H 222.388 4.53762 2.28173 0
M  V30 2349 H 222.318 3.63119 3.81381 0
M  V30 2350 H 224.809 2.88321 2.44293 0
M  V30 2351 H 225.122 6.28101 4.50232 0
M  V30 2352 H 223.467 5.64463 4.05471 0
M  V30 2353 H 226.658 3.62529 2.96126 0
M  V30 2354 H 226.831 5.17457 3.90054 0
M  V30 2355 N 220.237 -1.11381 1.11499 0
M  V30 2356 C 221.485 -1.8277 0.862524 0
M  V30 2357 C 221.806 -1.85097 -0.613534 0
M  V30 2358 O 221.076 -1.32198 -1.4457 0
M  V30 2359 H 219.656 -0.676823 0.316101 0
M  V30 2360 H 222.318 -1.34816 1.4075 0
M  V30 2361 H 221.414 -2.86614 1.23527 0
M  V30 2362 N 221.715 -0.905404 -1.28997 0
M  V30 2363 C 222.992 -0.453513 -1.9027 0
M  V30 2364 C 223.372 1.06721 -1.82137 0
M  V30 2365 O 222.72 1.91159 -1.25182 0
M  V30 2366 C 222.93 -0.974494 -3.35119 0
M  V30 2367 C 224.278 -1.0216 -4.12127 0
M  V30 2368 O 225.302 -0.922557 -3.44046 0
M  V30 2369 O 224.161 -1.17121 -5.33802 0
M  V30 2370 H 221.255 -0.142347 -0.814657 0
M  V30 2371 H 223.801 -0.995642 -1.37423 0
M  V30 2372 H 222.573 -2.01848 -3.35221 0
M  V30 2373 H 222.196 -0.412706 -3.95452 0
M  V30 2374 N 223.193 1.4272 -0.668489 0
M  V30 2375 C 224.423 2.05668 -0.196063 0
M  V30 2376 C 224.831 1.5028 1.14946 0
M  V30 2377 O 224.174 0.6348 1.72383 0
M  V30 2378 C 224.236 3.59469 -0.0468879 0
M  V30 2379 C 223.9 4.37518 -1.32012 0
M  V30 2380 C 224.897 4.68584 -2.25222 0
M  V30 2381 C 222.582 4.77266 -1.56596 0
M  V30 2382 C 224.576 5.38326 -3.41297 0
M  V30 2383 C 222.263 5.4675 -2.72962 0
M  V30 2384 C 223.261 5.77204 -3.65137 0
M  V30 2385 O 222.949 6.45264 -4.79468 0
M  V30 2386 H 222.681 0.669382 -0.0943599 0
M  V30 2387 H 225.235 1.83954 -0.913788 0
M  V30 2388 H 223.465 3.79817 0.726357 0
M  V30 2389 H 225.154 4.04071 0.384852 0
M  V30 2390 H 225.92 4.38382 -2.07477 0
M  V30 2391 H 221.799 4.52959 -0.857249 0
M  V30 2392 H 225.343 5.62014 -4.13263 0
M  V30 2393 H 221.24 5.76369 -2.90635 0
M  V30 2394 H 222.008 6.63753 -4.78931 0
M  V30 2395 N 224.671 0.411399 1.52136 0
M  V30 2396 C 225.948 -0.222308 1.94333 0
M  V30 2397 C 226.328 -1.6242 1.34844 0
M  V30 2398 O 225.676 -2.22384 0.525145 0
M  V30 2399 C 225.886 -0.226345 3.48265 0
M  V30 2400 C 227.234 -0.444592 4.22266 0
M  V30 2401 O 228.258 -0.305602 3.54887 0
M  V30 2402 O 227.117 -0.718749 5.41753 0
M  V30 2403 H 224.211 -0.143907 0.814383 0
M  V30 2404 H 226.757 0.467506 1.63133 0
M  V30 2405 H 225.529 0.75475 3.83952 0
M  V30 2406 H 225.152 -0.960163 3.85832 0
M  V30 2407 N 226.149 -1.5696 0.141893 0
M  V30 2408 C 227.079 -2.19516 -0.795936 0
M  V30 2409 C 228.06 -1.14187 -1.26077 0
M  V30 2410 O 229.245 -1.42511 -1.31925 0
M  V30 2411 C 226.375 -2.81272 -2.03723 0
M  V30 2412 C 225.329 -3.92384 -1.70936 0
M  V30 2413 C 224.655 -4.41052 -3.02287 0
M  V30 2414 C 225.955 -5.13403 -0.959954 0
M  V30 2415 H 227.649 -2.98138 -0.274596 0
M  V30 2416 H 225.195 -1.43406 -0.130636 0
M  V30 2417 H 227.148 -3.237 -2.69808 0
M  V30 2418 H 225.872 -1.99973 -2.58221 0
M  V30 2419 H 224.531 -3.50566 -1.07232 0
M  V30 2420 H 224.179 -3.56582 -3.54765 0
M  V30 2421 H 223.879 -5.15993 -2.81114 0
M  V30 2422 H 225.403 -4.86146 -3.69451 0
M  V30 2423 H 226.817 -5.52706 -1.52279 0
M  V30 2424 H 225.214 -5.94073 -0.848357 0
M  V30 2425 H 226.284 -4.84875 0.0492434 0
M  V30 2426 N 227.627 0.131896 -1.57047 0
M  V30 2427 C 228.575 1.18146 -2.0036 0
M  V30 2428 C 229.569 1.43614 -0.898406 0
M  V30 2429 O 230.775 1.43729 -1.08361 0
M  V30 2430 H 227.15 0.398042 -0.638018 0
M  V30 2431 H 229.121 0.789564 -2.87765 0
M  V30 2432 C 227.87 2.50341 -2.41298 0
M  V30 2433 H 227.193 2.31578 -3.25902 0
M  V30 2434 H 228.633 3.22371 -2.75414 0
M  V30 2435 C 227.092 3.11984 -1.27153 0
M  V30 2436 O 227.622 3.97484 -0.580459 0
M  V30 2437 N 225.828 2.71662 -1.03189 0
M  V30 2438 H 225.375 2.02231 -1.59564 0
M  V30 2439 H 225.333 3.13238 -0.270077 0
M  V30 2440 N 229.106 1.52395 0.401703 0
M  V30 2441 C 230.069 1.75636 1.47257 0
M  V30 2442 C 231.069 0.62628 1.48103 0
M  V30 2443 O 232.259 0.894227 1.49497 0
M  V30 2444 C 229.391 1.84553 2.86624 0
M  V30 2445 H 230.584 2.71241 1.27938 0
M  V30 2446 H 228.137 1.42923 0.632662 0
M  V30 2447 H 228.872 0.908882 3.11303 0
M  V30 2448 H 228.657 2.66715 2.87412 0
M  V30 2449 H 230.147 2.04251 3.64241 0
M  V30 2450 N 230.584 -0.659388 1.43143 0
M  V30 2451 C 231.83 -1.42145 1.44647 0
M  V30 2452 C 232.163 -1.9408 0.0681907 0
M  V30 2453 O 231.438 -1.71899 -0.910007 0
M  V30 2454 C 231.721 -2.60735 2.48373 0
M  V30 2455 C 231.574 -2.14332 3.95451 0
M  V30 2456 C 232.893 -3.62951 2.48906 0
M  V30 2457 H 230.012 -0.51552 0.526696 0
M  V30 2458 H 232.654 -0.748069 1.74654 0
M  V30 2459 H 230.804 -3.18184 2.22916 0
M  V30 2460 H 232.476 -1.61932 4.31944 0
M  V30 2461 H 230.719 -1.4576 4.08578 0
M  V30 2462 H 231.39 -2.99583 4.63631 0
M  V30 2463 H 233.866 -3.1525 2.71582 0
M  V30 2464 H 232.742 -4.43487 3.23435 0
M  V30 2465 H 233.003 -4.15126 1.52061 0
M  V30 2466 N 232.062 -1.29571 -0.897171 0
M  V30 2467 C 233.478 -1.07637 -1.17841 0
M  V30 2468 C 233.678 0.170713 -2.00776 0
M  V30 2469 O 232.734 0.867768 -2.3712 0
M  V30 2470 C 234.047 -2.3332 -1.8969 0
M  V30 2471 C 235.595 -2.38664 -2.02505 0
M  V30 2472 C 236.07 -3.64157 -2.77765 0
M  V30 2473 N 237.561 -3.64894 -2.85318 0
M  V30 2474 C 238.296 -4.58679 -3.44094 0
M  V30 2475 N 237.792 -5.62799 -4.04017 0
M  V30 2476 N 239.585 -4.46245 -3.41793 0
M  V30 2477 H 231.736 -2.09598 -0.343883 0
M  V30 2478 H 233.999 -0.923333 -0.214848 0
M  V30 2479 H 233.705 -3.24262 -1.36187 0
M  V30 2480 H 233.579 -2.41025 -2.9015 0
M  V30 2481 H 235.966 -1.48208 -2.55183 0
M  V30 2482 H 236.047 -2.34943 -1.01171 0
M  V30 2483 H 235.691 -4.54965 -2.25763 0
M  V30 2484 H 235.621 -3.65137 -3.7945 0
M  V30 2485 H 238.112 -2.89613 -2.42761 0
M  V30 2486 H 238.425 -6.3048 -4.46895 0
M  V30 2487 H 236.77 -5.66605 -4.02472 0
M  V30 2488 H 239.961 -3.64094 -2.94199 0
M  V30 2489 H 240.134 -5.19518 -3.87304 0
M  V30 2490 N 233.54 1.10788 -1.12088 0
M  V30 2491 C 234.47 2.19083 -0.807755 0
M  V30 2492 C 235.451 1.6858 0.226859 0
M  V30 2493 O 236.636 1.93997 0.0888475 0
M  V30 2494 C 233.766 3.46344 -0.257576 0
M  V30 2495 C 232.72 4.101 -1.22483 0
M  V30 2496 C 232.046 5.32016 -0.535052 0
M  V30 2497 C 233.346 4.54236 -2.57811 0
M  V30 2498 H 235.04 2.45534 -1.71328 0
M  V30 2499 H 232.586 1.1801 -0.825205 0
M  V30 2500 H 234.539 4.21392 -0.0262679 0
M  V30 2501 H 233.263 3.19373 0.683278 0
M  V30 2502 H 231.922 3.37054 -1.44189 0
M  V30 2503 H 231.57 5.01319 0.410827 0
M  V30 2504 H 231.27 5.75625 -1.18024 0
M  V30 2505 H 232.794 6.09799 -0.312695 0
M  V30 2506 H 234.208 5.20575 -2.40155 0
M  V30 2507 H 232.605 5.08682 -3.18375 0
M  V30 2508 H 233.675 3.6734 -3.16528 0
M  V30 2509 N 235.018 0.912232 1.28515 0
M  V30 2510 C 236.258 0.551677 1.96814 0
M  V30 2511 C 236.622 -0.887825 1.7024 0
M  V30 2512 O 237.823 -1.35588 2.32098 0
M  V30 2513 C 236.094 0.850555 3.47132 0
M  V30 2514 S 237.653 0.59619 4.34731 0
M  V30 2515 H 234.471 0.204191 0.681049 0
M  V30 2516 H 237.073 1.17736 1.56072 0
M  V30 2517 H 235.777 1.8962 3.63968 0
M  V30 2518 H 235.308 0.213471 3.9282 0
M  V30 2519 H 237.323 -0.553154 4.93107 0
M  V30 2520 N 236.496 -1.42363 0.676048 0
M  V30 2521 C 237.743 -2.01522 0.19883 0
M  V30 2522 C 238.071 -1.53456 -1.19505 0
M  V30 2523 O 237.326 -0.727967 -1.81657 0
M  V30 2524 C 237.625 -3.56929 0.183431 0
M  V30 2525 C 237.291 -4.24431 1.52215 0
M  V30 2526 C 235.953 -4.42585 1.8887 0
M  V30 2527 C 238.305 -4.62459 2.40377 0
M  V30 2528 C 235.633 -4.96039 3.13309 0
M  V30 2529 C 237.985 -5.17294 3.64129 0
M  V30 2530 C 236.649 -5.33661 4.00951 0
M  V30 2531 H 235.919 -0.737419 0.0727571 0
M  V30 2532 H 238.566 -1.70531 0.871281 0
M  V30 2533 H 236.871 -3.87594 -0.572532 0
M  V30 2534 H 238.568 -4.00486 -0.203035 0
M  V30 2535 H 235.158 -4.10661 1.22701 0
M  V30 2536 H 239.342 -4.48105 2.13343 0
M  V30 2537 H 234.598 -5.06896 3.41857 0
M  V30 2538 H 238.772 -5.45704 4.32644 0
M  V30 2539 H 236.399 -5.74845 4.9745 0
M  V30 2540 N 237.974 -0.419461 -1.51915 0
M  V30 2541 C 238.906 0.43646 -2.25006 0
M  V30 2542 C 239.919 1.00149 -1.28351 0
M  V30 2543 O 241.108 0.898674 -1.54227 0
M  V30 2544 C 238.208 1.6206 -2.9764 0
M  V30 2545 C 237.381 1.17763 -4.21249 0
M  V30 2546 C 236.44 2.22985 -4.76617 0
M  V30 2547 O 235.466 1.83151 -5.38929 0
M  V30 2548 N 236.668 3.55271 -4.59089 0
M  V30 2549 H 239.433 -0.18989 -2.99098 0
M  V30 2550 H 236.994 -0.247386 -1.59999 0
M  V30 2551 H 238.986 2.32038 -3.31573 0
M  V30 2552 H 237.556 2.15266 -2.2667 0
M  V30 2553 H 236.776 0.305582 -3.93014 0
M  V30 2554 H 238.064 0.858781 -5.015 0
M  V30 2555 H 237.462 3.90377 -4.09417 0
M  V30 2556 H 236.019 4.21195 -4.97432 0
M  V30 2557 N 239.452 1.56882 -0.150215 0
M  V30 2558 C 240.698 1.96518 0.500834 0
M  V30 2559 C 241.031 1.03527 1.64304 0
M  V30 2560 O 240.306 0.0782751 1.94342 0
M  V30 2561 C 240.589 3.45822 1.00395 0
M  V30 2562 C 240.442 4.49591 -0.136983 0
M  V30 2563 C 241.761 3.97704 1.88467 0
M  V30 2564 H 238.88 0.714535 0.18058 0
M  V30 2565 H 241.522 1.88577 -0.232091 0
M  V30 2566 H 239.672 3.5272 1.62851 0
M  V30 2567 H 241.344 4.5477 -0.77343 0
M  V30 2568 H 239.587 4.26441 -0.795652 0
M  V30 2569 H 240.258 5.51402 0.256815 0
M  V30 2570 H 242.734 3.93304 1.35834 0
M  V30 2571 H 241.61 5.0263 2.20578 0
M  V30 2572 H 241.871 3.40252 2.82279 0
M  V30 2573 N 240.93 -0.123565 1.57115 0
M  V30 2574 C 242.158 -0.846461 1.88793 0
M  V30 2575 C 242.573 -1.73652 0.740976 0
M  V30 2576 O 241.93 -1.80207 -0.288393 0
M  V30 2577 C 241.981 -1.6837 3.19897 0
M  V30 2578 O 241.702 -0.829477 4.30176 0
M  V30 2579 C 243.203 -2.51214 3.65248 0
M  V30 2580 H 240.423 -0.243573 0.625231 0
M  V30 2581 H 242.967 -0.109324 2.04208 0
M  V30 2582 H 241.122 -2.37364 3.06165 0
M  V30 2583 H 241.536 -1.40651 5.0529 0
M  V30 2584 H 243.01 -3.05497 4.59756 0
M  V30 2585 H 243.487 -3.28359 2.9168 0
M  V30 2586 H 244.093 -1.8747 3.81752 0
M  V30 2587 N 242.408 -1.52605 -0.393616 0
M  V30 2588 C 243.654 -1.67672 -1.14079 0
M  V30 2589 C 243.987 -0.413121 -1.89755 0
M  V30 2590 O 243.262 0.588952 -1.85369 0
M  V30 2591 C 243.545 -2.9088 -2.12276 0
M  V30 2592 C 243.398 -4.27329 -1.40394 0
M  V30 2593 C 244.717 -3.09628 -3.12759 0
M  V30 2594 H 241.836 -0.610168 -0.413356 0
M  V30 2595 H 244.478 -1.85193 -0.424696 0
M  V30 2596 H 242.628 -2.76073 -2.73342 0
M  V30 2597 H 244.3 -4.53894 -0.82327 0
M  V30 2598 H 242.543 -4.2802 -0.705801 0
M  V30 2599 H 243.214 -5.09615 -2.12123 0
M  V30 2600 H 245.69 -3.23436 -2.61779 0
M  V30 2601 H 244.566 -3.97322 -3.78717 0
M  V30 2602 H 244.827 -2.23637 -3.81365 0
M  V30 2603 N 243.887 0.651787 -1.4349 0
M  V30 2604 C 245.303 0.96762 -1.26922 0
M  V30 2605 C 245.503 2.00602 -0.189982 0
M  V30 2606 O 244.559 2.48793 0.431107 0
M  V30 2607 C 245.872 1.45052 -2.63401 0
M  V30 2608 C 247.42 1.5671 -2.70945 0
M  V30 2609 C 247.895 2.0839 -4.07845 0
M  V30 2610 N 249.386 2.1569 -4.09917 0
M  V30 2611 C 250.121 2.56804 -5.12679 0
M  V30 2612 N 249.617 2.97203 -6.25813 0
M  V30 2613 N 251.41 2.56756 -5.00033 0
M  V30 2614 H 243.561 -0.0353158 -2.12371 0
M  V30 2615 H 245.824 0.0467858 -0.946845 0
M  V30 2616 H 245.53 0.761926 -3.43348 0
M  V30 2617 H 245.404 2.42529 -2.88894 0
M  V30 2618 H 247.791 2.2467 -1.9133 0
M  V30 2619 H 247.872 0.57662 -2.49216 0
M  V30 2620 H 247.516 1.41031 -4.87927 0
M  V30 2621 H 247.446 3.08271 -4.26938 0
M  V30 2622 H 249.937 1.87237 -3.28254 0
M  V30 2623 H 250.25 3.27328 -7.00055 0
M  V30 2624 H 248.595 2.95004 -6.29283 0
M  V30 2625 H 251.786 2.24572 -4.10713 0
M  V30 2626 H 251.959 2.88475 -5.80247 0
M  V30 2627 N 245.365 1.30045 0.890287 0
M  V30 2628 C 246.642 1.09227 1.62262 0
M  V30 2629 C 247.022 -0.360305 2.08002 0
M  V30 2630 O 246.37 -1.35084 1.84295 0
M  V30 2631 C 246.58 2.08835 2.79623 0
M  V30 2632 C 247.928 2.40266 3.50082 0
M  V30 2633 O 248.952 2.07104 2.89804 0
M  V30 2634 O 247.811 2.96967 4.58773 0
M  V30 2635 H 244.905 0.419132 0.712922 0
M  V30 2636 H 247.451 1.41451 0.937529 0
M  V30 2637 H 246.223 3.06633 2.43089 0
M  V30 2638 H 245.846 1.77397 3.55832 0
M  V30 2639 N 246.843 -1.10192 1.12674 0
M  V30 2640 C 248.254 -1.63707 0.897604 0
M  V30 2641 C 248.605 -1.87812 -0.567546 0
M  V30 2642 O 247.73 -1.62196 -1.43253 0
M  V30 2643 C 248.325 -2.974 1.62292 0
M  V30 2644 C 246.884 -3.47772 1.43986 0
M  V30 2645 C 246.031 -2.22332 1.65722 0
M  V30 2646 H 248.982 -0.936587 1.28116 0
M  V30 2647 H 249.003 -3.64986 1.07541 0
M  V30 2648 H 248.515 -2.79824 2.68924 0
M  V30 2649 H 246.616 -3.70487 0.396206 0
M  V30 2650 H 246.729 -4.25723 2.19765 0
M  V30 2651 H 245.093 -2.30599 1.08149 0
M  V30 2652 H 245.876 -2.07285 2.73657 0
M  V30 2653 N 248.321 -0.919034 -1.28029 0
M  V30 2654 C 249.546 -0.570357 -1.99403 0
M  V30 2655 C 249.971 0.842486 -1.68178 0
M  V30 2656 O 249.329 1.56391 -0.917141 0
M  V30 2657 C 249.377 -0.792541 -3.51783 0
M  V30 2658 O 248.481 0.145988 -4.12142 0
M  V30 2659 H 247.822 -0.220555 -0.6263 0
M  V30 2660 H 250.352 -1.23592 -1.63053 0
M  V30 2661 H 250.362 -0.704708 -4.01868 0
M  V30 2662 H 249.037 -1.82247 -3.73844 0
M  V30 2663 H 247.614 0.00897528 -3.72899 0
M  V30 2664 N 249.799 1.42003 -0.683588 0
M  V30 2665 C 251.047 2.01015 -0.209101 0
M  V30 2666 C 251.368 1.54365 1.19149 0
M  V30 2667 O 250.638 0.769083 1.80172 0
M  V30 2668 H 249.218 0.743294 -0.074315 0
M  V30 2669 H 251.88 1.73798 -0.882066 0
M  V30 2670 H 250.976 3.11343 -0.2172 0
M  V30 2671 N 251.277 0.427512 1.51691 0
M  V30 2672 C 252.693 0.0792977 1.59403 0
M  V30 2673 C 252.893 -1.41035 1.43914 0
M  V30 2674 O 251.949 -2.17922 1.27539 0
M  V30 2675 C 253.262 0.590636 2.94842 0
M  V30 2676 C 254.81 0.550215 3.08126 0
M  V30 2677 C 255.285 1.03836 4.46074 0
M  V30 2678 N 256.776 0.995943 4.52366 0
M  V30 2679 C 257.511 1.34463 5.57411 0
M  V30 2680 N 257.007 1.76569 6.69922 0
M  V30 2681 N 258.8 1.26343 5.47717 0
M  V30 2682 H 250.951 1.39687 1.60004 0
M  V30 2683 H 253.214 0.575003 0.753708 0
M  V30 2684 H 252.92 1.63251 3.11516 0
M  V30 2685 H 252.794 0.0102061 3.77199 0
M  V30 2686 H 255.181 -0.482654 2.91126 0
M  V30 2687 H 255.262 1.16693 2.27632 0
M  V30 2688 H 254.906 2.06965 4.63819 0
M  V30 2689 H 254.836 0.398286 5.25092 0
M  V30 2690 H 257.327 0.68661 3.7161 0
M  V30 2691 H 257.64 2.01438 7.46085 0
M  V30 2692 H 255.985 1.80488 6.71155 0
M  V30 2693 H 259.176 0.933209 4.58703 0
M  V30 2694 H 259.349 1.53846 6.29472 0
M  V30 2695 N 252.755 -1.56801 0.158532 0
M  V30 2696 C 254.166 -1.83189 -0.360366 0
M  V30 2697 C 254.517 -1.07778 -1.63946 0
M  V30 2698 O 253.642 -0.326718 -2.13919 0
M  V30 2699 C 254.237 -3.32297 -0.660595 0
M  V30 2700 C 252.796 -3.59227 -1.12398 0
M  V30 2701 C 251.943 -2.76877 -0.153097 0
M  V30 2702 H 254.894 -1.54008 0.383031 0
M  V30 2703 H 254.915 -3.4908 -1.51405 0
M  V30 2704 H 254.427 -3.87156 0.270527 0
M  V30 2705 H 252.528 -3.09766 -2.07064 0
M  V30 2706 H 252.641 -4.67632 -1.04197 0
M  V30 2707 H 251.005 -2.46319 -0.647983 0
M  V30 2708 H 251.788 -3.34511 0.77182 0
M  V30 2709 N 254.233 0.115231 -1.57178 0
M  V30 2710 C 255.163 1.1423 -2.03651 0
M  V30 2711 C 256.144 1.42967 -0.921655 0
M  V30 2712 O 257.329 1.53343 -1.19162 0
M  V30 2713 C 254.459 2.4675 -2.44401 0
M  V30 2714 C 253.413 2.32467 -3.59365 0
M  V30 2715 C 252.739 3.69984 -3.86026 0
M  V30 2716 C 254.039 1.78203 -4.90959 0
M  V30 2717 H 255.733 0.755749 -2.89705 0
M  V30 2718 H 253.279 0.362093 -1.39373 0
M  V30 2719 H 255.232 3.18854 -2.75517 0
M  V30 2720 H 253.956 2.87302 -1.55322 0
M  V30 2721 H 252.615 1.62811 -3.28463 0
M  V30 2722 H 252.263 4.08028 -2.94147 0
M  V30 2723 H 251.963 3.61279 -4.63412 0
M  V30 2724 H 253.487 4.43587 -4.19599 0
M  V30 2725 H 254.901 2.40128 -5.20587 0
M  V30 2726 H 253.298 1.8031 -5.72371 0
M  V30 2727 H 254.368 0.739876 -4.79222 0
M  V30 2728 N 255.711 1.52812 0.385517 0
M  V30 2729 C 257.127 1.4214 0.725829 0
M  V30 2730 C 257.327 0.544589 1.94001 0
M  V30 2731 O 256.383 0.0193693 2.52493 0
M  V30 2732 C 257.696 2.85042 0.957668 0
M  V30 2733 C 259.244 2.94543 1.05892 0
M  V30 2734 C 259.719 4.38464 1.32337 0
M  V30 2735 N 261.21 4.41804 1.39151 0
M  V30 2736 C 261.945 5.5025 1.61285 0
M  V30 2737 N 261.441 6.68775 1.80866 0
M  V30 2738 N 263.234 5.37798 1.63492 0
M  V30 2739 H 255.385 2.08338 -0.413383 0
M  V30 2740 H 257.648 0.940016 -0.122775 0
M  V30 2741 H 257.354 3.51431 0.137568 0
M  V30 2742 H 257.228 3.27505 1.87137 0
M  V30 2743 H 259.615 2.28321 1.86959 0
M  V30 2744 H 259.696 2.55504 0.123057 0
M  V30 2745 H 259.34 5.05254 0.517793 0
M  V30 2746 H 259.27 4.75059 2.27214 0
M  V30 2747 H 261.761 3.56377 1.25713 0
M  V30 2748 H 262.074 7.47197 1.97271 0
M  V30 2749 H 260.419 6.71797 1.78083 0
M  V30 2750 H 263.61 4.44171 1.47749 0
M  V30 2751 H 263.783 6.22382 1.80402 0
M  V30 2752 N 257.189 -0.644168 1.43834 0
M  V30 2753 C 258.119 -1.76814 1.52509 0
M  V30 2754 C 259.1 -1.65823 0.379052 0
M  V30 2755 O 260.285 -1.84781 0.597466 0
M  V30 2756 C 257.415 -3.15288 1.4564 0
M  V30 2757 C 256.369 -3.41053 2.58586 0
M  V30 2758 C 255.695 -4.79421 2.36769 0
M  V30 2759 C 256.995 -3.34902 4.00797 0
M  V30 2760 H 258.689 -1.69812 2.46586 0
M  V30 2761 H 256.235 -0.815542 1.1868 0
M  V30 2762 H 258.188 -3.93681 1.50311 0
M  V30 2763 H 256.912 -3.23043 0.480725 0
M  V30 2764 H 255.571 -2.65035 2.53282 0
M  V30 2765 H 255.219 -4.83863 1.37424 0
M  V30 2766 H 254.919 -4.9762 3.12487 0
M  V30 2767 H 256.443 -5.6006 2.43238 0
M  V30 2768 H 257.857 -4.03218 4.07539 0
M  V30 2769 H 256.254 -3.64637 4.76613 0
M  V30 2770 H 257.324 -2.32928 4.25291 0
M  V30 2771 N 258.668 -1.30515 -0.883378 0
M  V30 2772 C 260.079 -1.17509 -1.45081 0
M  V30 2773 C 260.43 0.223605 -1.94922 0
M  V30 2774 O 259.555 1.12041 -1.85137 0
M  V30 2775 C 260.15 -2.12715 -2.63701 0
M  V30 2776 C 258.709 -2.03682 -3.16529 0
M  V30 2777 C 257.856 -2.02706 -1.89224 0
M  V30 2778 H 260.807 -1.42762 -0.693165 0
M  V30 2779 H 260.828 -1.70891 -3.39965 0
M  V30 2780 H 260.34 -3.14505 -2.27395 0
M  V30 2781 H 258.441 -1.05039 -3.57488 0
M  V30 2782 H 258.554 -2.92146 -3.7972 0
M  V30 2783 H 256.918 -1.4753 -2.07622 0
M  V30 2784 H 257.701 -3.06229 -1.55174 0
M  V30 2785 N 260.146 1.09593 -1.13257 0
M  V30 2786 C 261.557 1.63229 -0.906274 0
M  V30 2787 C 261.908 1.8811 0.557578 0
M  V30 2788 O 261.033 1.62953 1.42391 0
M  V30 2789 C 261.628 2.96535 -1.63867 0
M  V30 2790 C 260.187 3.47003 -1.45828 0
M  V30 2791 C 259.334 2.2145 -1.66898 0
M  V30 2792 H 262.285 0.92978 -1.28611 0
M  V30 2793 H 262.306 3.64411 -1.09476 0
M  V30 2794 H 261.818 2.78394 -2.70404 0
M  V30 2795 H 259.919 3.70272 -0.415848 0
M  V30 2796 H 260.032 4.24551 -2.2202 0
M  V30 2797 H 258.396 2.30022 -1.09371 0
M  V30 2798 H 259.179 2.0583 -2.74752 0
M  V30 2799 N 261.624 0.925811 1.2754 0
M  V30 2800 C 262.87 0.566092 1.94739 0
M  V30 2801 C 263.203 -0.890057 1.72603 0
M  V30 2802 O 262.478 -1.63467 1.05399 0
M  V30 2803 C 262.761 0.89054 3.48915 0
M  V30 2804 C 262.614 2.4003 3.80402 0
M  V30 2805 C 263.933 0.395101 4.38323 0
M  V30 2806 H 261.052 0.20714 0.707292 0
M  V30 2807 H 263.694 1.15725 1.50691 0
M  V30 2808 H 261.844 0.387452 3.86563 0
M  V30 2809 H 263.516 2.97494 3.52555 0
M  V30 2810 H 261.759 2.85028 3.2702 0
M  V30 2811 H 262.43 2.57785 4.8811 0
M  V30 2812 H 264.906 0.826241 4.07814 0
M  V30 2813 H 263.782 0.651086 5.45025 0
M  V30 2814 H 264.043 -0.704798 4.36446 0
M  V30 2815 N 263.102 -1.41638 0.69111 0
M  V30 2816 C 264.032 -2.3347 0.037248 0
M  V30 2817 C 265.013 -1.51575 -0.771947 0
M  V30 2818 O 266.198 -1.80126 -0.72582 0
M  V30 2819 C 263.328 -3.35354 -0.903064 0
M  V30 2820 C 262.282 -4.27526 -0.201288 0
M  V30 2821 C 261.608 -5.19747 -1.25565 0
M  V30 2822 C 262.908 -5.13959 0.929689 0
M  V30 2823 H 264.602 -2.88397 0.804227 0
M  V30 2824 H 262.148 -1.38669 0.388189 0
M  V30 2825 H 264.101 -3.98519 -1.36969 0
M  V30 2826 H 262.825 -2.78767 -1.70166 0
M  V30 2827 H 261.484 -3.65779 0.245265 0
M  V30 2828 H 261.132 -4.59479 -2.04666 0
M  V30 2829 H 260.832 -5.8225 -0.791128 0
M  V30 2830 H 262.356 -5.85789 -1.72288 0
M  V30 2831 H 263.77 -5.70718 0.543546 0
M  V30 2832 H 262.167 -5.85379 1.32103 0
M  V30 2833 H 263.237 -4.51389 1.77133 0
M  V30 2834 N 264.58 -0.43555 -1.51462 0
M  V30 2835 C 265.805 0.132627 -2.06976 0
M  V30 2836 C 266.23 1.35848 -1.30104 0
M  V30 2837 O 265.588 1.78112 -0.338493 0
M  V30 2838 C 265.636 0.43523 -3.57964 0
M  V30 2839 O 264.74 1.52198 -3.83288 0
M  V30 2840 H 264.081 0.00265 -0.663995 0
M  V30 2841 H 266.611 -0.616369 -1.95095 0
M  V30 2842 H 266.621 0.686206 -4.02188 0
M  V30 2843 H 265.296 -0.460739 -4.1334 0
M  V30 2844 H 263.873 1.2611 -3.50928 0
M  V30 2845 N 266.058 1.56714 -0.166846 0
M  V30 2846 C 267.008 2.14338 0.777382 0
M  V30 2847 C 267.992 1.07642 1.19591 0
M  V30 2848 O 269.184 1.33775 1.15902 0
M  V30 2849 C 266.313 2.78417 2.00846 0
M  V30 2850 C 265.399 3.92264 1.61212 0
M  V30 2851 N 265.79 4.97268 0.925104 0
M  V30 2852 C 264.088 4.03342 1.90346 0
M  V30 2853 C 264.789 5.77093 0.730627 0
M  V30 2854 N 263.765 5.2854 1.27067 0
M  V30 2855 H 267.567 2.9289 0.243466 0
M  V30 2856 H 265.081 1.62364 0.0339954 0
M  V30 2857 H 267.078 3.18073 2.69509 0
M  V30 2858 H 265.738 2.01344 2.54736 0
M  V30 2859 H 266.749 5.14601 0.583646 0
M  V30 2860 H 263.426 3.37368 2.45946 0
M  V30 2861 H 264.816 6.71638 0.187668 0
M  V30 2862 N 267.536 -0.106894 1.57237 0
M  V30 2863 C 268.947 -0.662723 1.74542 0
M  V30 2864 C 269.298 -1.7971 0.787319 0
M  V30 2865 O 268.423 -2.16368 -0.0369636 0
M  V30 2866 C 269.018 -1.20896 3.16496 0
M  V30 2867 C 267.577 -1.71096 3.35266 0
M  V30 2868 C 266.724 -0.615642 2.7038 0
M  V30 2869 H 269.675 0.119106 1.58252 0
M  V30 2870 H 269.696 -2.07847 3.18716 0
M  V30 2871 H 269.208 -0.383122 3.86204 0
M  V30 2872 H 267.309 -2.56119 2.70618 0
M  V30 2873 H 267.422 -1.81208 4.43509 0
M  V30 2874 H 265.786 -1.05222 2.31949 0
M  V30 2875 H 266.569 0.199419 3.4272 0
M  V30 2876 N 269.014 -1.53014 -0.377408 0
M  V30 2877 C 270.263 -1.67845 -1.11853 0
M  V30 2878 C 270.576 -0.430625 -1.90801 0
M  V30 2879 O 271.782 -0.459261 -2.67587 0
M  V30 2880 C 270.238 -2.96668 -2.03756 0
M  V30 2881 C 269.846 -4.28671 -1.30175 0
M  V30 2882 C 271.59 -3.20865 -2.77932 0
M  V30 2883 C 269.497 -5.48591 -2.20911 0
M  V30 2884 H 268.427 -0.625343 -0.421263 0
M  V30 2885 H 271.078 -1.79514 -0.380409 0
M  V30 2886 H 269.46 -2.78773 -2.8125 0
M  V30 2887 H 270.634 -4.57157 -0.578259 0
M  V30 2888 H 268.949 -4.10825 -0.679108 0
M  V30 2889 H 271.546 -4.07642 -3.46024 0
M  V30 2890 H 271.889 -2.36424 -3.4265 0
M  V30 2891 H 272.422 -3.39379 -2.07525 0
M  V30 2892 H 269.161 -6.35474 -1.6079 0
M  V30 2893 H 268.681 -5.244 -2.91144 0
M  V30 2894 H 270.36 -5.8292 -2.80736 0
M  V30 2895 N 270.492 0.636531 -1.44174 0
M  V30 2896 C 271.739 1.39619 -1.46672 0
M  V30 2897 C 272.067 1.94257 -0.0972691 0
M  V30 2898 O 271.322 1.73768 0.900175 0
M  V30 2899 C 271.621 2.58309 -2.47005 0
M  V30 2900 C 271.287 2.21992 -3.92467 0
M  V30 2901 C 269.949 2.118 -4.32081 0
M  V30 2902 C 272.301 1.9321 -4.84065 0
M  V30 2903 C 269.629 1.71007 -5.61225 0
M  V30 2904 C 271.981 1.53911 -6.13591 0
M  V30 2905 C 270.645 1.42257 -6.52165 0
M  V30 2906 H 269.915 0.510902 -0.536712 0
M  V30 2907 H 272.562 0.722328 -1.77355 0
M  V30 2908 H 270.867 3.30903 -2.09786 0
M  V30 2909 H 272.564 3.16533 -2.46186 0
M  V30 2910 H 269.154 2.30841 -3.61124 0
M  V30 2911 H 273.338 1.99997 -4.54219 0
M  V30 2912 H 268.594 1.60583 -5.89935 0
M  V30 2913 H 272.768 1.30677 -6.8403 0
M  V30 2914 H 270.395 1.10419 -7.52138 0
M  V30 2915 N 271.97 1.30982 0.876444 0
M  V30 2916 C 273.247 1.10942 1.61094 0
M  V30 2917 C 273.627 -0.338223 2.08373 0
M  V30 2918 O 272.975 -1.33122 1.85717 0
M  V30 2919 C 273.185 2.11789 2.77392 0
M  V30 2920 C 274.533 2.43965 3.47514 0
M  V30 2921 O 275.557 2.10166 2.87591 0
M  V30 2922 O 274.416 3.01817 4.55597 0
M  V30 2923 H 271.51 0.42667 0.708436 0
M  V30 2924 H 274.056 1.42438 0.922474 0
M  V30 2925 H 272.828 3.09194 2.39823 0
M  V30 2926 H 272.451 1.81161 3.5393 0
M  V30 2927 N 273.449 -1.08991 1.13837 0
M  V30 2928 C 274.397 -2.17841 0.815347 0
M  V30 2929 C 275.391 -1.68164 -0.204233 0
M  V30 2930 O 276.597 -1.79897 -0.0609304 0
M  V30 2931 H 272.972 -0.710654 0.245915 0
M  V30 2932 H 274.943 -2.42315 1.74143 0
M  V30 2933 C 273.692 -3.46381 0.302614 0
M  V30 2934 H 273.015 -3.84979 1.0785 0
M  V30 2935 H 274.455 -4.23844 0.115074 0
M  V30 2936 C 272.914 -3.22556 -0.972591 0
M  V30 2937 O 273.444 -3.45599 -2.04754 0
M  V30 2938 N 271.65 -2.76134 -0.905455 0
M  V30 2939 H 271.197 -2.57582 -0.0305421 0
M  V30 2940 H 271.155 -2.60571 -1.75926 0
M  V30 2941 N 274.927 -0.932562 -1.27047 0
M  V30 2942 C 276.343 -0.633544 -1.46487 0
M  V30 2943 C 276.543 0.815746 -1.84249 0
M  V30 2944 O 275.599 1.59319 -1.95892 0
M  V30 2945 C 276.912 -1.58758 -2.55375 0
M  V30 2946 C 278.46 -1.59634 -2.69232 0
M  V30 2947 C 278.935 -2.53747 -3.81283 0
M  V30 2948 N 280.426 -2.51982 -3.88664 0
M  V30 2949 C 281.161 -3.21491 -4.74796 0
M  V30 2950 N 280.657 -4.00395 -5.65381 0
M  V30 2951 N 282.45 -3.10485 -4.68568 0
M  V30 2952 H 274.601 -1.86946 -1.00821 0
M  V30 2953 H 276.864 -0.802897 -0.504044 0
M  V30 2954 H 276.57 -2.62172 -2.34432 0
M  V30 2955 H 276.444 -1.33301 -3.52861 0
M  V30 2956 H 278.831 -0.569488 -2.89553 0
M  V30 2957 H 278.912 -1.89142 -1.72218 0
M  V30 2958 H 278.556 -3.56545 -3.61715 0
M  V30 2959 H 278.486 -2.21532 -4.77735 0
M  V30 2960 H 280.977 -1.94681 -3.23895 0
M  V30 2961 H 281.29 -4.50406 -6.27976 0
M  V30 2962 H 279.635 -4.04498 -5.65161 0
M  V30 2963 H 282.826 -2.48331 -3.96799 0
M  V30 2964 H 282.999 -3.64925 -5.35475 0
M  V30 2965 N 276.405 1.4127 -0.698611 0
M  V30 2966 C 277.368 2.29158 -0.044132 0
M  V30 2967 C 278.368 1.44529 0.704841 0
M  V30 2968 O 279.558 1.65643 0.539276 0
M  V30 2969 C 276.69 3.27459 0.947809 0
M  V30 2970 H 277.883 2.88529 -0.817994 0
M  V30 2971 H 275.436 1.49307 -0.46228 0
M  V30 2972 H 276.171 2.73073 1.74933 0
M  V30 2973 H 275.956 3.8991 0.41385 0
M  V30 2974 H 277.446 3.93311 1.40344 0
M  V30 2975 N 277.883 0.443576 1.51229 0
M  V30 2976 C 279.294 -0.0180867 1.86691 0
M  V30 2977 C 279.645 -1.41384 1.36033 0
M  V30 2978 O 278.77 -2.04291 0.713722 0
M  V30 2979 C 279.365 -0.039597 3.38777 0
M  V30 2980 C 277.924 -0.445692 3.73752 0
M  V30 2981 C 277.071 0.357584 2.74985 0
M  V30 2982 H 280.022 0.659138 1.44364 0
M  V30 2983 H 280.043 -0.847761 3.70936 0
M  V30 2984 H 279.555 0.976382 3.75617 0
M  V30 2985 H 277.656 -1.46704 3.42503 0
M  V30 2986 H 277.769 -0.166155 4.78812 0
M  V30 2987 H 276.133 -0.184973 2.54027 0
M  V30 2988 H 276.916 1.37256 3.14668 0
M  V30 2989 N 279.361 -1.56624 0.175154 0
M  V30 2990 C 280.309 -2.19468 -0.770495 0
M  V30 2991 C 281.303 -1.15985 -1.23466 0
M  V30 2992 O 282.509 -1.34176 -1.19987 0
M  V30 2993 H 278.884 -0.703095 -0.266761 0
M  V30 2994 H 280.855 -2.97613 -0.216542 0
M  V30 2995 C 279.604 -2.85264 -1.98796 0
M  V30 2996 H 278.927 -3.64623 -1.63983 0
M  V30 2997 H 280.367 -3.327 -2.62843 0
M  V30 2998 C 278.826 -1.85239 -2.81404 0
M  V30 2999 O 279.356 -1.34024 -3.78682 0
M  V30 3000 N 277.562 -1.53911 -2.46495 0
M  V30 3001 H 277.109 -1.95751 -1.67449 0
M  V30 3002 H 277.067 -0.872382 -3.02054 0
M  V30 3003 N 280.839 0.0985539 -1.57292 0
M  V30 3004 C 282.067 0.816318 -1.90115 0
M  V30 3005 C 282.482 1.72451 -0.768509 0
M  V30 3006 O 281.839 1.80643 0.259687 0
M  V30 3007 C 281.89 1.63259 -3.22535 0
M  V30 3008 O 281.611 0.760934 -4.31441 0
M  V30 3009 C 283.112 2.45372 -3.69199 0
M  V30 3010 H 280.332 0.233595 -0.629027 0
M  V30 3011 H 282.876 0.0768229 -2.04356 0
M  V30 3012 H 281.031 2.32463 -3.09903 0
M  V30 3013 H 281.445 1.32595 -5.07463 0
M  V30 3014 H 282.919 2.98144 -4.64558 0
M  V30 3015 H 283.396 3.23677 -2.96867 0
M  V30 3016 H 284.002 1.81373 -3.84687 0
M  V30 3017 N 282.317 1.53212 0.369288 0
M  V30 3018 C 283.28 1.7872 1.43498 0
M  V30 3019 C 284.28 0.657554 1.46741 0
M  V30 3020 O 285.47 0.925736 1.47566 0
M  V30 3021 C 282.602 1.90591 2.82645 0
M  V30 3022 H 283.795 2.73894 1.22156 0
M  V30 3023 H 281.348 1.44233 0.602203 0
M  V30 3024 H 282.083 0.974709 3.09306 0
M  V30 3025 H 281.868 2.72751 2.8169 0
M  V30 3026 H 283.358 2.11931 3.59826 0
M  V30 3027 N 283.795 -0.628877 1.44509 0
M  V30 3028 C 284.705 -1.7694 1.54044 0
M  V30 3029 C 285.721 -1.68705 0.425987 0
M  V30 3030 O 286.897 -1.89442 0.683656 0
M  V30 3031 C 283.962 -3.13332 1.48405 0
M  V30 3032 C 283.023 -3.33181 2.70719 0
M  V30 3033 C 282.256 -4.63067 2.6534 0
M  V30 3034 O 282.479 -5.44017 1.71469 0
M  V30 3035 O 281.413 -4.85167 3.56226 0
M  V30 3036 H 285.239 -1.71848 2.50403 0
M  V30 3037 H 282.824 -0.790378 1.26781 0
M  V30 3038 H 284.706 -3.94634 1.47791 0
M  V30 3039 H 283.381 -3.1896 0.551898 0
M  V30 3040 H 282.288 -2.51549 2.769 0
M  V30 3041 H 283.621 -3.32416 3.62988 0
M  V30 3042 N 285.273 -1.31445 -0.869486 0
M  V30 3043 C 286.203 -1.21727 -1.99261 0
M  V30 3044 C 287.184 -0.104359 -1.6978 0
M  V30 3045 O 288.369 -0.289038 -1.92037 0
M  V30 3046 C 285.499 -0.924317 -3.34774 0
M  V30 3047 C 284.453 -1.99685 -3.78563 0
M  V30 3048 C 283.779 -1.55658 -5.11541 0
M  V30 3049 C 285.079 -3.41003 -3.95619 0
M  V30 3050 H 286.773 -2.1569 -2.07649 0
M  V30 3051 H 284.319 -1.03839 -0.997675 0
M  V30 3052 H 286.272 -0.842934 -4.12883 0
M  V30 3053 H 284.996 0.0509793 -3.2656 0
M  V30 3054 H 283.655 -2.06813 -3.02694 0
M  V30 3055 H 283.303 -0.569132 -4.9977 0
M  V30 3056 H 283.003 -2.27409 -5.41811 0
M  V30 3057 H 284.527 -1.48928 -5.92159 0
M  V30 3058 H 285.941 -3.36547 -4.64122 0
M  V30 3059 H 284.338 -4.10975 -4.37286 0
M  V30 3060 H 285.408 -3.81754 -2.98985 0
M  V30 3061 N 286.751 1.08385 -1.14413 0
M  V30 3062 C 287.698 2.15311 -0.831265 0
M  V30 3063 C 288.668 1.64751 0.211292 0
M  V30 3064 O 289.853 1.90627 0.0811674 0
M  V30 3065 C 286.993 3.43658 -0.315143 0
M  V30 3066 C 286.106 4.08064 -1.41802 0
M  V30 3067 C 285.241 5.24207 -0.859126 0
M  V30 3068 C 284.28 5.80554 -1.93967 0
M  V30 3069 N 283.417 6.88042 -1.39793 0
M  V30 3070 H 288.257 2.41415 -1.74708 0
M  V30 3071 H 285.794 1.18474 -0.871909 0
M  V30 3072 H 287.752 4.172 0.00230884 0
M  V30 3073 H 286.382 3.17839 0.56378 0
M  V30 3074 H 285.434 3.3228 -1.85187 0
M  V30 3075 H 286.746 4.45962 -2.23427 0
M  V30 3076 H 285.9 6.04689 -0.49359 0
M  V30 3077 H 284.639 4.87699 -0.011932 0
M  V30 3078 H 283.644 4.98725 -2.31415 0
M  V30 3079 H 284.869 6.19121 -2.79046 0
M  V30 3080 H 282.815 6.53493 -0.572919 0
M  V30 3081 H 282.732 7.24767 -2.15054 0
M  V30 3082 H 284 7.72255 -1.0603 0
M  V30 3083 N 288.23 0.939286 1.26551 0
M  V30 3084 C 289.479 0.581601 1.93133 0
M  V30 3085 C 289.792 -0.883224 1.74524 0
M  V30 3086 O 290.998 -1.3502 2.35546 0
M  V30 3087 C 289.454 0.989425 3.46032 0
M  V30 3088 C 289.062 2.47573 3.73379 0
M  V30 3089 C 290.806 0.703544 4.18629 0
M  V30 3090 C 288.713 2.82235 5.19709 0
M  V30 3091 H 287.643 0.213803 0.723052 0
M  V30 3092 H 290.294 1.14167 1.4366 0
M  V30 3093 H 288.676 0.357902 3.94379 0
M  V30 3094 H 289.85 3.15614 3.35744 0
M  V30 3095 H 288.165 2.73471 3.1401 0
M  V30 3096 H 290.762 0.938869 5.26393 0
M  V30 3097 H 291.105 -0.359639 4.14744 0
M  V30 3098 H 291.638 1.2947 3.76141 0
M  V30 3099 H 288.377 3.87509 5.28694 0
M  V30 3100 H 287.897 2.18854 5.58447 0
M  V30 3101 H 289.576 2.70599 5.87695 0
M  V30 3102 N 289.708 -1.40897 0.706093 0
M  V30 3103 C 290.948 -2.02916 0.245827 0
M  V30 3104 C 291.312 -1.54751 -1.13649 0
M  V30 3105 O 292.513 -2.08768 -1.69321 0
M  V30 3106 C 290.784 -3.56031 0.312537 0
M  V30 3107 S 292.343 -4.38741 -0.0721388 0
M  V30 3108 H 289.161 -0.704186 0.0982007 0
M  V30 3109 H 291.763 -1.72168 0.926207 0
M  V30 3110 H 290.467 -3.88579 1.32039 0
M  V30 3111 H 289.998 -3.91495 -0.386641 0
M  V30 3112 H 292.013 -4.78952 -1.29692 0
M  V30 3113 N 291.186 -0.45159 -1.50991 0
M  V30 3114 C 292.602 -0.104647 -1.59257 0
M  V30 3115 C 292.802 1.38728 -1.4614 0
M  V30 3116 O 291.858 2.15866 -1.30989 0
M  V30 3117 C 293.171 -0.637468 -2.93865 0
M  V30 3118 C 294.719 -0.599166 -3.07212 0
M  V30 3119 C 295.194 -1.1092 -4.44366 0
M  V30 3120 N 296.685 -1.06778 -4.50725 0
M  V30 3121 C 297.42 -1.43314 -5.55201 0
M  V30 3122 N 296.916 -1.87204 -6.67028 0
M  V30 3123 N 298.709 -1.3504 -5.45638 0
M  V30 3124 H 290.86 -1.42214 -1.57762 0
M  V30 3125 H 293.123 -0.586921 -0.744465 0
M  V30 3126 H 292.829 -1.68187 -3.08879 0
M  V30 3127 H 292.703 -0.0702139 -3.77135 0
M  V30 3128 H 295.09 0.436277 -2.91857 0
M  V30 3129 H 295.171 -1.20299 -2.25747 0
M  V30 3130 H 294.815 -2.14318 -4.60467 0
M  V30 3131 H 294.745 -0.481773 -5.24392 0
M  V30 3132 H 297.236 -0.745643 -3.70471 0
M  V30 3133 H 297.549 -2.13282 -7.42786 0
M  V30 3134 H 295.894 -1.91142 -6.68199 0
M  V30 3135 H 299.085 -1.00607 -4.57161 0
M  V30 3136 H 299.258 -1.63841 -6.26945 0
M  V30 3137 N 292.664 1.56529 -0.183458 0
M  V30 3138 C 293.91 1.97537 0.459036 0
M  V30 3139 C 294.243 1.06989 1.62071 0
M  V30 3140 O 293.518 0.11948 1.94133 0
M  V30 3141 C 293.801 3.47874 0.930368 0
M  V30 3142 C 293.654 4.492 -0.232317 0
M  V30 3143 C 294.973 4.01612 1.79989 0
M  V30 3144 H 292.092 0.718204 0.165383 0
M  V30 3145 H 294.734 1.88042 -0.272038 0
M  V30 3146 H 292.884 3.56095 1.55333 0
M  V30 3147 H 294.556 4.53027 -0.86972 0
M  V30 3148 H 292.799 4.24657 -0.885928 0
M  V30 3149 H 293.47 5.51823 0.139796 0
M  V30 3150 H 295.946 3.96097 1.27461 0
M  V30 3151 H 294.822 5.07195 2.09867 0
M  V30 3152 H 295.083 3.46163 2.74998 0
M  V30 3153 N 294.142 -0.090211 1.57342 0
M  V30 3154 C 295.09 -1.12792 2.03422 0
M  V30 3155 C 296.084 -1.41182 0.936166 0
M  V30 3156 O 297.29 -1.40805 1.12133 0
M  V30 3157 H 293.665 -0.380986 0.648347 0
M  V30 3158 H 295.636 -0.71299 2.89757 0
M  V30 3159 C 294.385 -2.43855 2.47851 0
M  V30 3160 H 293.708 -2.22855 3.31927 0
M  V30 3161 H 295.148 -3.14955 2.83865 0
M  V30 3162 C 293.607 -3.08503 1.3538 0
M  V30 3163 O 294.137 -3.95805 0.685641 0
M  V30 3164 N 292.343 -2.68831 1.10355 0
M  V30 3165 H 291.89 -1.97929 1.64869 0
M  V30 3166 H 291.848 -3.12412 0.353031 0
M  V30 3167 N 295.62 -1.53406 -0.361157 0
M  V30 3168 C 297.036 -1.43277 -0.703124 0
M  V30 3169 C 297.236 -0.575384 -1.9311 0
M  V30 3170 O 296.292 -0.0595362 -2.5243 0
M  V30 3171 C 297.605 -2.8653 -0.9122 0
M  V30 3172 C 299.153 -2.96191 -1.01193 0
M  V30 3173 C 299.628 -4.40514 -1.25345 0
M  V30 3174 N 301.119 -4.43962 -1.32105 0
M  V30 3175 C 301.854 -5.52746 -1.5251 0
M  V30 3176 N 301.35 -6.71567 -1.70203 0
M  V30 3177 N 303.143 -5.40331 -1.54916 0
M  V30 3178 H 295.294 -2.07654 0.446475 0
M  V30 3179 H 297.557 -0.937944 0.137715 0
M  V30 3180 H 297.263 -3.51605 -0.0816414 0
M  V30 3181 H 297.137 -3.30441 -1.81903 0
M  V30 3182 H 299.524 -2.31266 -1.83303 0
M  V30 3183 H 299.605 -2.55667 -0.0823929 0
M  V30 3184 H 299.249 -5.06014 -0.437346 0
M  V30 3185 H 299.179 -4.78614 -2.19627 0
M  V30 3186 H 301.67 -3.58332 -1.20028 0
M  V30 3187 H 301.983 -7.50241 -1.85359 0
M  V30 3188 H 300.328 -6.74545 -1.67373 0
M  V30 3189 H 303.519 -4.46465 -1.40663 0
M  V30 3190 H 303.692 -6.25173 -1.70477 0
M  V30 3191 N 297.098 0.621204 -1.44841 0
M  V30 3192 C 298.046 1.75385 -1.52784 0
M  V30 3193 C 299.04 1.64639 -0.398779 0
M  V30 3194 O 300.246 1.70598 -0.574137 0
M  V30 3195 H 296.621 0.579193 -0.479625 0
M  V30 3196 H 298.592 1.6581 -2.48092 0
M  V30 3197 C 297.341 3.13742 -1.4987 0
M  V30 3198 H 296.664 3.22663 -2.36069 0
M  V30 3199 H 298.104 3.92861 -1.59487 0
M  V30 3200 C 296.563 3.36175 -0.220973 0
M  V30 3201 O 297.093 3.95469 0.704782 0
M  V30 3202 N 295.299 2.90348 -0.120963 0
M  V30 3203 H 294.846 2.42278 -0.875162 0
M  V30 3204 H 294.804 3.05732 0.733168 0
M  V30 3205 N 298.576 1.31904 0.862503 0
M  V30 3206 C 299.801 1.25135 1.65397 0
M  V30 3207 C 300.226 -0.179 1.87246 0
M  V30 3208 O 299.584 -1.1277 1.4196 0
M  V30 3209 C 299.632 2.00832 2.99498 0
M  V30 3210 O 298.736 1.35075 3.89652 0
M  V30 3211 H 298.077 0.431655 0.504549 0
M  V30 3212 H 300.607 1.74094 1.07483 0
M  V30 3213 H 300.617 2.10709 3.49379 0
M  V30 3214 H 299.292 3.04847 2.82916 0
M  V30 3215 H 297.869 1.33696 3.48109 0
M  V30 3216 N 300.054 -1.07777 1.14986 0
M  V30 3217 C 301.302 -1.79934 0.920235 0
M  V30 3218 C 301.623 -1.86955 -0.554336 0
M  V30 3219 O 300.893 -1.36731 -1.40291 0
M  V30 3220 H 299.473 -0.666424 0.337473 0
M  V30 3221 H 302.135 -1.3027 1.44968 0
M  V30 3222 H 301.231 -2.82539 1.32583 0
M  V30 3223 N 301.532 -0.945985 -1.26051 0
M  V30 3224 C 302.757 -0.612525 -1.98149 0
M  V30 3225 C 303.182 0.806623 -1.69927 0
M  V30 3226 O 302.54 1.54411 -0.950108 0
M  V30 3227 C 302.588 -0.866981 -3.50023 0
M  V30 3228 O 301.692 0.0585333 -4.12358 0
M  V30 3229 H 301.033 -0.23379 -0.621481 0
M  V30 3230 H 303.563 -1.27023 -1.60395 0
M  V30 3231 H 303.573 -0.789792 -4.00283 0
M  V30 3232 H 302.248 -1.90135 -3.69894 0
M  V30 3233 H 300.825 -0.0701241 -3.72834 0
M  V30 3234 N 303.011 1.40521 -0.713556 0
M  V30 3235 C 304.251 2.02783 -0.256584 0
M  V30 3236 C 304.615 1.55352 1.12827 0
M  V30 3237 O 305.816 2.09663 1.68211 0
M  V30 3238 C 304.087 3.5586 -0.331414 0
M  V30 3239 S 305.646 4.38773 0.0488703 0
M  V30 3240 H 302.464 0.703655 -0.101934 0
M  V30 3241 H 305.066 1.71674 -0.935325 0
M  V30 3242 H 303.77 3.87874 -1.34098 0
M  V30 3243 H 303.301 3.91695 0.365873 0
M  V30 3244 H 305.316 4.79633 1.2715 0
M  V30 3245 N 304.489 0.459591 1.5075 0
M  V30 3246 C 305.419 -0.330644 2.31147 0
M  V30 3247 C 306.4 -1.00087 1.37538 0
M  V30 3248 O 307.585 -1.00025 1.66459 0
M  V30 3249 C 304.715 -1.41958 3.16962 0
M  V30 3250 C 303.669 -0.871608 4.19031 0
M  V30 3251 C 302.995 -2.05797 4.9351 0
M  V30 3252 C 304.295 0.109251 5.22186 0
M  V30 3253 H 305.989 0.340336 2.97459 0
M  V30 3254 H 303.535 0.165119 1.4305 0
M  V30 3255 H 305.488 -1.9798 3.71997 0
M  V30 3256 H 304.212 -2.11917 2.48513 0
M  V30 3257 H 302.871 -0.333442 3.6508 0
M  V30 3258 H 302.519 -2.74427 4.21544 0
M  V30 3259 H 302.219 -1.6976 5.62544 0
M  V30 3260 H 303.743 -2.62331 5.51375 0
M  V30 3261 H 305.157 -0.361405 5.7216 0
M  V30 3262 H 303.554 0.383316 5.98875 0
M  V30 3263 H 304.624 1.03887 4.73641 0
M  V30 3264 N 305.967 -1.56429 0.191757 0
M  V30 3265 C 307.215 -1.97095 -0.447006 0
M  V30 3266 C 307.536 -1.07967 -1.62383 0
M  V30 3267 O 306.806 -0.150248 -1.95323 0
M  V30 3268 H 305.386 -0.727832 -0.168135 0
M  V30 3269 H 308.048 -1.92911 0.27771 0
M  V30 3270 H 307.144 -3.01848 -0.793371 0
M  V30 3271 N 307.445 0.0818655 -1.57387 0
M  V30 3272 C 308.693 0.781368 -1.86384 0
M  V30 3273 C 309.014 1.78618 -0.782342 0
M  V30 3274 O 308.284 1.94976 0.190061 0
M  V30 3275 H 306.864 0.291562 -0.687751 0
M  V30 3276 H 309.526 0.060348 -1.94807 0
M  V30 3277 H 308.622 1.3038 -2.83562 0
M  V30 3278 N 308.923 1.53595 0.353017 0
M  V30 3279 C 310.2 1.61002 1.11075 0
M  V30 3280 C 310.58 0.425356 2.0677 0
M  V30 3281 O 309.928 -0.583267 2.2093 0
M  V30 3282 C 310.138 2.96631 1.83877 0
M  V30 3283 C 311.486 3.51653 2.37961 0
M  V30 3284 O 312.51 2.98743 1.93987 0
M  V30 3285 O 311.369 4.44177 3.18386 0
M  V30 3286 H 308.463 0.650825 0.510251 0
M  V30 3287 H 311.009 1.6594 0.35527 0
M  V30 3288 H 309.781 3.74293 1.14108 0
M  V30 3289 H 309.404 2.95242 2.66304 0
M  V30 3290 N 310.401 -0.613514 1.45168 0
M  V30 3291 C 311.311 -1.75296 1.55912 0
M  V30 3292 C 312.327 -1.68244 0.443856 0
M  V30 3293 O 313.503 -1.88706 0.70371 0
M  V30 3294 C 310.568 -3.1174 1.5172 0
M  V30 3295 C 309.629 -3.30291 2.74238 0
M  V30 3296 C 308.862 -4.60226 2.70236 0
M  V30 3297 O 309.085 -5.42168 1.77229 0
M  V30 3298 O 308.019 -4.81361 3.61352 0
M  V30 3299 H 311.845 -1.69183 2.52212 0
M  V30 3300 H 309.43 -0.776886 1.27612 0
M  V30 3301 H 311.312 -3.93044 1.51968 0
M  V30 3302 H 309.987 -3.18357 0.585697 0
M  V30 3303 H 308.894 -2.48598 2.79553 0
M  V30 3304 H 310.227 -3.28547 3.66494 0
M  V30 3305 N 311.879 -1.3236 -0.855495 0
M  V30 3306 C 313.128 -1.22226 -1.60448 0
M  V30 3307 C 313.441 0.214733 -1.94418 0
M  V30 3308 O 314.647 0.437917 -2.67945 0
M  V30 3309 C 313.103 -2.14063 -2.89318 0
M  V30 3310 C 312.711 -3.62839 -2.62777 0
M  V30 3311 C 314.455 -2.12764 -3.67331 0
M  V30 3312 C 312.362 -4.4664 -3.87643 0
M  V30 3313 H 311.292 -0.453904 -0.602069 0
M  V30 3314 H 313.943 -1.57314 -0.944698 0
M  V30 3315 H 312.325 -1.71889 -3.5675 0
M  V30 3316 H 313.499 -4.1335 -2.03662 0
M  V30 3317 H 311.814 -3.66261 -1.98096 0
M  V30 3318 H 314.411 -2.72611 -4.59987 0
M  V30 3319 H 314.754 -1.11841 -4.00995 0
M  V30 3320 H 315.287 -2.53214 -3.06802 0
M  V30 3321 H 312.026 -5.48373 -3.5912 0
M  V30 3322 H 311.546 -4.0088 -4.46156 0
M  V30 3323 H 313.225 -4.59597 -4.55389 0
M  V30 3324 N 313.357 1.07166 -1.15556 0
M  V30 3325 C 314.604 1.79798 -0.931604 0
M  V30 3326 C 314.932 1.8682 0.54115 0
M  V30 3327 O 314.187 1.34942 1.41736 0
M  V30 3328 C 314.486 3.24707 -1.49332 0
M  V30 3329 C 314.152 3.37781 -2.98688 0
M  V30 3330 C 312.814 3.41057 -3.39461 0
M  V30 3331 C 315.166 3.40424 -3.94665 0
M  V30 3332 C 312.494 3.4458 -4.74849 0
M  V30 3333 C 314.846 3.45485 -5.29927 0
M  V30 3334 C 313.51 3.47039 -5.70193 0
M  V30 3335 H 312.78 0.657928 -0.340898 0
M  V30 3336 H 315.427 1.26091 -1.44129 0
M  V30 3337 H 313.732 3.81208 -0.904859 0
M  V30 3338 H 315.429 3.79486 -1.29582 0
M  V30 3339 H 312.019 3.35932 -2.66172 0
M  V30 3340 H 316.203 3.37113 -3.64237 0
M  V30 3341 H 311.459 3.44083 -5.05388 0
M  V30 3342 H 315.633 3.46476 -6.04092 0
M  V30 3343 H 313.26 3.49522 -6.75084 0
M  V30 3344 N 314.835 0.952656 1.25548 0
M  V30 3345 C 315.765 0.489287 2.28316 0
M  V30 3346 C 316.746 -0.463359 1.63667 0
M  V30 3347 O 317.931 -0.36274 1.90782 0
M  V30 3348 C 315.061 -0.235603 3.465 0
M  V30 3349 C 314.015 0.631593 4.23314 0
M  V30 3350 C 313.341 -0.223923 5.34231 0
M  V30 3351 C 314.641 1.90871 4.86174 0
M  V30 3352 H 316.335 1.34822 2.67326 0
M  V30 3353 H 313.881 0.649728 1.28509 0
M  V30 3354 H 315.834 -0.570882 4.17515 0
M  V30 3355 H 314.558 -1.12877 3.06474 0
M  V30 3356 H 313.217 0.949929 3.54079 0
M  V30 3357 H 312.865 -1.11678 4.90446 0
M  V30 3358 H 312.565 0.35299 5.86539 0
M  V30 3359 H 314.089 -0.554214 6.0808 0
M  V30 3360 H 315.503 1.63997 5.49343 0
M  V30 3361 H 313.9 2.43112 5.4865 0
M  V30 3362 H 314.97 2.61304 4.08471 0
M  V30 3363 N 316.313 -1.40141 0.720998 0
M  V30 3364 C 317.243 -2.33339 0.0867621 0
M  V30 3365 C 318.224 -1.53178 -0.739622 0
M  V30 3366 O 319.409 -1.81625 -0.687449 0
M  V30 3367 C 316.539 -3.37194 -0.831728 0
M  V30 3368 C 315.493 -4.27857 -0.110558 0
M  V30 3369 C 314.819 -5.22294 -1.14513 0
M  V30 3370 C 316.119 -5.11872 1.0385 0
M  V30 3371 H 317.813 -2.86626 0.865219 0
M  V30 3372 H 315.359 -1.37814 0.417516 0
M  V30 3373 H 317.312 -4.01335 -1.28485 0
M  V30 3374 H 316.036 -2.82314 -1.64214 0
M  V30 3375 H 314.695 -3.65176 0.322797 0
M  V30 3376 H 314.343 -4.63717 -1.94874 0
M  V30 3377 H 314.043 -5.83797 -0.667446 0
M  V30 3378 H 315.567 -5.89312 -1.59824 0
M  V30 3379 H 316.981 -5.69436 0.664482 0
M  V30 3380 H 315.378 -5.82445 1.4449 0
M  V30 3381 H 316.448 -4.4753 1.86668 0
M  V30 3382 N 317.792 -0.46758 -1.50504 0
M  V30 3383 C 319.032 0.0874114 -2.04213 0
M  V30 3384 C 319.396 1.37301 -1.34211 0
M  V30 3385 O 320.597 2.01015 -1.78456 0
M  V30 3386 C 318.868 0.270571 -3.56374 0
M  V30 3387 S 320.427 0.784623 -4.31728 0
M  V30 3388 H 317.245 0.0176153 -0.710782 0
M  V30 3389 H 319.847 -0.633915 -1.84937 0
M  V30 3390 H 318.551 -0.670942 -4.04878 0
M  V30 3391 H 318.082 1.01811 -3.79997 0
M  V30 3392 H 320.097 2.05849 -4.51487 0
M  V30 3393 N 319.27 1.56325 -0.20005 0
M  V30 3394 C 320.547 1.89484 0.48529 0
M  V30 3395 C 320.927 1.1143 1.79294 0
M  V30 3396 O 320.275 0.216919 2.27468 0
M  V30 3397 C 320.485 3.41923 0.699243 0
M  V30 3398 C 321.833 4.12256 1.01638 0
M  V30 3399 O 322.857 3.47402 0.786792 0
M  V30 3400 O 321.716 5.26887 1.45095 0
M  V30 3401 H 318.81 0.787144 0.253639 0
M  V30 3402 H 321.356 1.67985 -0.240633 0
M  V30 3403 H 320.128 3.90658 -0.224008 0
M  V30 3404 H 319.751 3.69131 1.47744 0
M  V30 3405 N 320.748 -0.0735177 1.57428 0
M  V30 3406 C 321.695 -1.08756 2.0357 0
M  V30 3407 C 322.665 -1.38559 0.916 0
M  V30 3408 O 323.85 -1.49656 1.18354 0
M  V30 3409 C 320.99 -2.39657 2.48311 0
M  V30 3410 C 320.103 -2.16399 3.73892 0
M  V30 3411 C 319.238 -3.40852 4.07423 0
M  V30 3412 C 318.277 -3.1295 5.2605 0
M  V30 3413 N 317.414 -4.29729 5.55228 0
M  V30 3414 H 322.254 -0.687104 2.8997 0
M  V30 3415 H 319.791 -0.327709 1.43403 0
M  V30 3416 H 321.749 -3.16081 2.72303 0
M  V30 3417 H 320.379 -2.77508 1.64891 0
M  V30 3418 H 319.431 -1.30676 3.57251 0
M  V30 3419 H 320.743 -1.91788 4.60455 0
M  V30 3420 H 319.897 -4.25671 4.32306 0
M  V30 3421 H 318.636 -3.68537 3.19425 0
M  V30 3422 H 317.641 -2.26526 5.00965 0
M  V30 3423 H 318.866 -2.86589 6.15665 0
M  V30 3424 H 316.812 -4.57448 4.70188 0
M  V30 3425 H 316.729 -4.08385 6.36206 0
M  V30 3426 H 317.997 -5.1555 5.84661 0
M  V30 3427 N 322.226 -1.5378 -0.344866 0
M  V30 3428 C 323.472 -1.71216 -1.08687 0
M  V30 3429 C 323.805 -0.473281 -1.88345 0
M  V30 3430 O 323.08 0.52968 -1.87149 0
M  V30 3431 C 323.363 -2.97486 -2.02914 0
M  V30 3432 C 323.216 -4.31579 -1.26727 0
M  V30 3433 C 324.535 -3.19422 -3.0275 0
M  V30 3434 H 321.654 -0.62301 -0.393735 0
M  V30 3435 H 324.296 -1.8645 -0.365563 0
M  V30 3436 H 322.446 -2.84629 -2.64421 0
M  V30 3437 H 324.118 -4.56284 -0.67845 0
M  V30 3438 H 322.361 -4.30049 -0.569273 0
M  V30 3439 H 323.032 -5.16106 -1.95803 0
M  V30 3440 H 325.508 -3.316 -2.51357 0
M  V30 3441 H 324.384 -4.09169 -3.65885 0
M  V30 3442 H 324.645 -2.35656 -3.74057 0
M  V30 3443 N 323.704 0.605807 -1.45491 0
M  V30 3444 C 324.636 1.73031 -1.5031 0
M  V30 3445 C 325.649 1.57968 -0.393687 0
M  V30 3446 O 326.838 1.65817 -0.660839 0
M  V30 3447 C 323.938 3.11049 -1.34543 0
M  V30 3448 C 323.111 3.52334 -2.59189 0
M  V30 3449 C 322.17 4.69323 -2.37954 0
M  V30 3450 O 321.196 4.7635 -3.11575 0
M  V30 3451 N 322.398 5.62705 -1.4263 0
M  V30 3452 H 325.163 1.6936 -2.4726 0
M  V30 3453 H 322.724 0.79114 -1.41254 0
M  V30 3454 H 324.716 3.87071 -1.18144 0
M  V30 3455 H 323.286 3.09217 -0.458623 0
M  V30 3456 H 322.506 2.66256 -2.90691 0
M  V30 3457 H 323.794 3.76677 -3.42041 0
M  V30 3458 H 323.192 5.59744 -0.818758 0
M  V30 3459 H 321.749 6.38252 -1.32202 0
M  V30 3460 N 325.182 1.32811 0.848464 0
M  V30 3461 C 326.129 1.22265 1.95755 0
M  V30 3462 C 327.099 0.103413 1.65778 0
M  V30 3463 O 328.284 0.280033 1.88734 0
M  V30 3464 C 325.424 0.958014 3.31536 0
M  V30 3465 C 324.537 2.16262 3.73971 0
M  V30 3466 C 323.672 1.83295 4.98575 0
M  V30 3467 C 322.711 3.00041 5.33518 0
M  V30 3468 N 321.848 2.67125 6.49299 0
M  V30 3469 H 326.688 2.17128 2.04107 0
M  V30 3470 H 324.225 1.07982 0.998913 0
M  V30 3471 H 326.183 0.785052 4.09747 0
M  V30 3472 H 324.813 0.046159 3.22767 0
M  V30 3473 H 323.865 2.44565 2.91362 0
M  V30 3474 H 325.177 3.03572 3.95785 0
M  V30 3475 H 324.331 1.62586 5.84509 0
M  V30 3476 H 323.07 0.932078 4.7871 0
M  V30 3477 H 322.075 3.21374 4.46093 0
M  V30 3478 H 323.3 3.90869 5.55336 0
M  V30 3479 H 321.246 1.79586 6.3094 0
M  V30 3480 H 321.163 3.47965 6.71161 0
M  V30 3481 H 322.431 2.49861 7.3837 0
M  V30 3482 N 326.66 -1.06551 1.16123 0
M  V30 3483 C 327.57 -2.17484 0.879662 0
M  V30 3484 C 328.586 -1.73377 -0.147104 0
M  V30 3485 O 329.762 -2.01379 0.0289128 0
M  V30 3486 C 326.827 -3.44591 0.381829 0
M  V30 3487 C 325.888 -4.0322 1.4735 0
M  V30 3488 C 325.121 -5.24261 0.999324 0
M  V30 3489 O 325.344 -5.70198 -0.151957 0
M  V30 3490 O 324.278 -5.74775 1.78653 0
M  V30 3491 H 328.104 -2.44075 1.80724 0
M  V30 3492 H 325.689 -1.16042 0.940992 0
M  V30 3493 H 327.571 -4.21254 0.111053 0
M  V30 3494 H 326.246 -3.19532 -0.51777 0
M  V30 3495 H 325.153 -3.2806 1.79798 0
M  V30 3496 H 326.486 -4.32568 2.34831 0
M  V30 3497 N 328.138 -0.959301 -1.25041 0
M  V30 3498 C 329.415 -0.533805 -1.88175 0
M  V30 3499 C 329.795 0.988994 -1.865 0
M  V30 3500 O 329.143 1.85677 -1.33177 0
M  V30 3501 C 329.353 -1.11575 -3.30684 0
M  V30 3502 C 330.701 -1.19548 -4.07423 0
M  V30 3503 O 331.725 -1.06765 -3.39823 0
M  V30 3504 O 330.584 -1.39656 -5.28354 0
M  V30 3505 H 327.678 -0.176772 -0.807887 0
M  V30 3506 H 330.224 -1.05303 -1.33076 0
M  V30 3507 H 328.996 -2.15884 -3.26358 0
M  V30 3508 H 328.619 -0.580059 -3.93346 0
M  V30 3509 N 329.616 1.39756 -0.72842 0
M  V30 3510 C 330.865 1.99879 -0.270407 0
M  V30 3511 C 331.178 1.58449 1.14688 0
M  V30 3512 O 332.384 2.11362 1.70407 0
M  V30 3513 C 330.84 3.57292 -0.43252 0
M  V30 3514 C 330.448 4.07688 -1.85727 0
M  V30 3515 C 332.192 4.24485 -0.0359507 0
M  V30 3516 C 330.099 5.5765 -1.96928 0
M  V30 3517 H 329.029 0.747689 -0.0973472 0
M  V30 3518 H 331.68 1.59837 -0.901355 0
M  V30 3519 H 330.062 3.95097 0.267219 0
M  V30 3520 H 331.236 3.81231 -2.58843 0
M  V30 3521 H 329.551 3.53135 -2.20646 0
M  V30 3522 H 332.148 5.34609 -0.0987484 0
M  V30 3523 H 332.491 4.03915 1.00787 0
M  V30 3524 H 333.024 3.9183 -0.686604 0
M  V30 3525 H 329.763 5.8309 -2.99476 0
M  V30 3526 H 329.283 5.8593 -1.28241 0
M  V30 3527 H 330.962 6.22957 -1.74737 0
M  V30 3528 N 331.094 0.475555 1.50254 0
M  V30 3529 C 332.004 -0.321501 2.32387 0
M  V30 3530 C 333.02 -0.991755 1.42969 0
M  V30 3531 O 334.196 -0.978747 1.76018 0
M  V30 3532 C 331.261 -1.38667 3.17762 0
M  V30 3533 C 330.322 -0.732538 4.23004 0
M  V30 3534 C 329.555 -1.74695 5.04299 0
M  V30 3535 O 329.778 -2.97399 4.86734 0
M  V30 3536 O 328.712 -1.31631 5.8733 0
M  V30 3537 H 332.538 0.350071 3.01676 0
M  V30 3538 H 330.123 0.237321 1.47503 0
M  V30 3539 H 332.005 -2.00354 3.70724 0
M  V30 3540 H 330.68 -2.04163 2.51196 0
M  V30 3541 H 329.587 -0.0765902 3.74022 0
M  V30 3542 H 330.92 -0.120452 4.92053 0
M  V30 3543 N 332.573 -1.56217 0.208337 0
M  V30 3544 C 333.819 -1.98242 -0.427552 0
M  V30 3545 C 334.152 -1.09554 -1.60348 0
M  V30 3546 O 333.427 -0.15035 -1.93918 0
M  V30 3547 C 333.71 -3.4931 -0.874907 0
M  V30 3548 C 333.563 -4.48773 0.303751 0
M  V30 3549 C 334.882 -4.04424 -1.73577 0
M  V30 3550 H 332.001 -0.720744 -0.153936 0
M  V30 3551 H 334.643 -1.87586 0.30192 0
M  V30 3552 H 332.793 -3.58522 -1.49648 0
M  V30 3553 H 334.465 -4.51586 0.941682 0
M  V30 3554 H 332.708 -4.23194 0.953375 0
M  V30 3555 H 333.379 -5.51976 -0.0519883 0
M  V30 3556 H 335.855 -3.98075 -1.21143 0
M  V30 3557 H 334.731 -5.1047 -2.01771 0
M  V30 3558 H 334.992 -3.50494 -2.69456 0
M  V30 3559 N 334.051 0.0651679 -1.57465 0
M  V30 3560 C 335.281 0.774683 -1.91526 0
M  V30 3561 C 335.689 1.71305 -0.803196 0
M  V30 3562 O 335.032 1.82231 0.231881 0
M  V30 3563 C 335.094 1.61645 -3.21109 0
M  V30 3564 C 334.758 0.846753 -4.49087 0
M  V30 3565 C 335.755 0.163024 -5.19644 0
M  V30 3566 C 333.44 0.811966 -4.95694 0
M  V30 3567 C 335.434 -0.54519 -6.35064 0
M  V30 3568 C 333.121 0.0999836 -6.11018 0
M  V30 3569 C 334.119 -0.577388 -6.80555 0
M  V30 3570 O 333.807 -1.27789 -7.93678 0
M  V30 3571 H 333.539 0.225031 -0.637446 0
M  V30 3572 H 336.093 0.0377134 -2.05365 0
M  V30 3573 H 334.323 2.39638 -3.03497 0
M  V30 3574 H 336.012 2.20525 -3.40769 0
M  V30 3575 H 336.778 0.181163 -4.84662 0
M  V30 3576 H 332.657 1.32867 -4.41438 0
M  V30 3577 H 336.201 -1.07446 -6.89276 0
M  V30 3578 H 332.098 0.0797945 -6.45451 0
M  V30 3579 H 332.866 -1.18784 -8.09835 0
M  V30 3580 N 335.529 1.53961 0.336706 0
M  V30 3581 C 336.776 1.71536 1.07618 0
M  V30 3582 C 337.104 0.482125 1.8843 0
M  V30 3583 O 336.359 -0.536142 1.88213 0
M  V30 3584 C 336.658 2.93493 2.03953 0
M  V30 3585 C 336.324 4.28811 1.39399 0
M  V30 3586 C 334.986 4.65602 1.21523 0
M  V30 3587 C 337.338 5.12844 0.929541 0
M  V30 3588 C 334.666 5.84037 0.558312 0
M  V30 3589 C 337.018 6.31951 0.286505 0
M  V30 3590 C 335.682 6.67432 0.0954869 0
M  V30 3591 H 334.952 0.627696 0.393801 0
M  V30 3592 H 337.599 1.88186 0.354715 0
M  V30 3593 H 335.904 2.71475 2.82504 0
M  V30 3594 H 337.601 3.04285 2.61174 0
M  V30 3595 H 334.191 3.99858 1.54311 0
M  V30 3596 H 338.375 4.84947 1.05548 0
M  V30 3597 H 333.631 6.10097 0.398995 0
M  V30 3598 H 337.805 6.96352 -0.0814376 0
M  V30 3599 H 335.432 7.59063 -0.415579 0
M  V30 3600 N 337.007 -0.598083 1.45811 0
M  V30 3601 C 338.235 -1.38322 1.53866 0
M  V30 3602 C 338.65 -1.87992 0.174479 0
M  V30 3603 O 338.007 -1.62756 -0.825627 0
M  V30 3604 C 338.058 -2.58125 2.53089 0
M  V30 3605 O 337.779 -2.10516 3.84206 0
M  V30 3606 C 339.28 -3.50869 2.70935 0
M  V30 3607 H 336.5 -0.423093 0.520801 0
M  V30 3608 H 339.044 -0.728527 1.91083 0
M  V30 3609 H 337.199 -3.19615 2.18917 0
M  V30 3610 H 337.613 -2.88425 4.38077 0
M  V30 3611 H 339.087 -4.31451 3.44317 0
M  V30 3612 H 339.564 -4.01822 1.77301 0
M  V30 3613 H 340.17 -2.95225 3.06141 0
M  V30 3614 N 338.485 -1.33259 -0.841409 0
M  V30 3615 C 339.733 -1.24326 -1.59334 0
M  V30 3616 C 340.054 0.191564 -1.94057 0
M  V30 3617 O 339.324 1.11967 -1.60749 0
M  V30 3618 H 337.904 -0.457174 -0.590763 0
M  V30 3619 H 340.566 -1.66947 -1.00571 0
M  V30 3620 H 339.662 -1.8352 -2.52442 0
M  V30 3621 N 339.963 1.05934 -1.16686 0
M  V30 3622 C 341.374 1.60263 -0.957745 0
M  V30 3623 C 341.725 1.89789 0.49745 0
M  V30 3624 O 340.85 1.67401 1.37135 0
M  V30 3625 C 341.445 2.91172 -1.73218 0
M  V30 3626 C 340.004 3.42188 -1.56794 0
M  V30 3627 C 339.151 2.16028 -1.73859 0
M  V30 3628 H 342.102 0.888392 -1.31504 0
M  V30 3629 H 342.123 3.60744 -1.21014 0
M  V30 3630 H 341.635 2.6965 -2.79124 0
M  V30 3631 H 339.736 3.68762 -0.533437 0
M  V30 3632 H 339.849 4.17273 -2.35414 0
M  V30 3633 H 338.213 2.26426 -1.16633 0
M  V30 3634 H 338.996 1.96985 -2.81161 0
M  V30 3635 N 341.441 0.965919 1.2453 0
M  V30 3636 C 342.689 0.625593 1.92174 0
M  V30 3637 C 343.01 -0.841652 1.75901 0
M  V30 3638 O 342.28 -1.60061 1.12948 0
M  V30 3639 H 340.86 0.228388 0.71123 0
M  V30 3640 H 343.522 1.2266 1.51461 0
M  V30 3641 H 342.618 0.864653 2.99884 0
M  V30 3642 N 342.919 -1.39368 0.735821 0
M  V30 3643 C 344.165 -2.01272 0.293439 0
M  V30 3644 C 344.52 -1.57344 -1.10728 0
M  V30 3645 O 343.813 -0.792744 -1.74431 0
M  V30 3646 C 344.007 -3.5583 0.334651 0
M  V30 3647 C 343.836 -4.14764 1.73784 0
M  V30 3648 C 342.606 -4.47315 2.35026 0
M  V30 3649 C 344.804 -4.38246 2.69157 0
M  V30 3650 N 342.786 -4.91756 3.6749 0
M  V30 3651 C 344.157 -4.849 3.86357 0
M  V30 3652 C 346.212 -4.20315 2.66908 0
M  V30 3653 C 344.915 -5.15505 5.01645 0
M  V30 3654 C 346.941 -4.52033 3.8134 0
M  V30 3655 C 346.303 -4.98895 4.97276 0
M  V30 3656 H 342.402 -0.766756 0.153652 0
M  V30 3657 H 344.986 -1.69276 0.961967 0
M  V30 3658 H 343.157 -3.87212 -0.303527 0
M  V30 3659 H 344.889 -4.04503 -0.126358 0
M  V30 3660 H 341.644 -4.35143 1.86943 0
M  V30 3661 H 342.068 -5.18333 4.35499 0
M  V30 3662 H 346.71 -3.83287 1.78468 0
M  V30 3663 H 344.428 -5.51437 5.90713 0
M  V30 3664 H 348.014 -4.39781 3.80899 0
M  V30 3665 H 346.894 -5.22973 5.84353 0
M  V30 3666 N 344.397 -0.483516 -1.5 0
M  V30 3667 C 345.307 0.309172 -2.32554 0
M  V30 3668 C 346.323 0.984159 -1.43493 0
M  V30 3669 O 347.499 0.969399 -1.76535 0
M  V30 3670 C 344.564 1.36979 -3.18493 0
M  V30 3671 C 343.625 0.710095 -4.23387 0
M  V30 3672 C 342.858 1.72018 -5.05218 0
M  V30 3673 O 343.081 2.94813 -4.88305 0
M  V30 3674 O 342.015 1.28515 -5.8802 0
M  V30 3675 H 345.841 -0.366064 -3.01486 0
M  V30 3676 H 343.426 -0.24514 -1.47375 0
M  V30 3677 H 345.308 1.98385 -3.71781 0
M  V30 3678 H 343.983 2.02828 -2.52275 0
M  V30 3679 H 342.89 0.0567539 -3.74057 0
M  V30 3680 H 344.223 0.0943557 -4.9211 0
M  V30 3681 N 345.875 1.56104 -0.216619 0
M  V30 3682 C 346.838 2.18819 0.681962 0
M  V30 3683 C 347.838 1.14866 1.12528 0
M  V30 3684 O 349.028 1.40128 1.03488 0
M  V30 3685 C 346.16 2.80756 1.93362 0
M  V30 3686 H 347.353 2.99595 0.135254 0
M  V30 3687 H 344.906 1.56265 0.0330003 0
M  V30 3688 H 345.641 2.03837 2.52232 0
M  V30 3689 H 345.426 3.56876 1.62426 0
M  V30 3690 H 346.916 3.28844 2.57393 0
M  V30 3691 N 347.353 -0.0568162 1.57498 0
M  V30 3692 C 348.769 -0.411933 1.54192 0
M  V30 3693 C 348.969 -1.78287 0.938942 0
M  V30 3694 O 348.025 -2.46483 0.547919 0
M  V30 3695 C 349.338 -0.339244 2.9878 0
M  V30 3696 C 350.886 -0.418348 3.10192 0
M  V30 3697 C 351.361 -0.375407 4.56459 0
M  V30 3698 N 352.852 -0.435038 4.61153 0
M  V30 3699 C 353.587 -0.424265 5.71828 0
M  V30 3700 N 353.083 -0.367418 6.91825 0
M  V30 3701 N 354.876 -0.471938 5.60115 0
M  V30 3702 H 347.027 0.840684 1.95055 0
M  V30 3703 H 349.29 0.316987 0.893433 0
M  V30 3704 H 348.996 0.601742 3.46514 0
M  V30 3705 H 348.87 -1.14371 3.59443 0
M  V30 3706 H 351.257 -1.34976 2.62422 0
M  V30 3707 H 351.338 0.414962 2.52412 0
M  V30 3708 H 350.982 0.552219 5.04889 0
M  V30 3709 H 350.912 -1.22645 5.12119 0
M  V30 3710 H 353.403 -0.482612 3.74806 0
M  V30 3711 H 353.716 -0.363535 7.71944 0
M  V30 3712 H 352.061 -0.333879 6.94198 0
M  V30 3713 H 355.252 -0.514145 4.65268 0
M  V30 3714 H 355.425 -0.460073 6.46365 0
M  V30 3715 N 348.832 -1.54138 -0.328536 0
M  V30 3716 C 350.08 -1.71765 -1.06496 0
M  V30 3717 C 350.401 -0.49149 -1.88704 0
M  V30 3718 O 349.671 0.494539 -1.89555 0
M  V30 3719 H 348.251 -0.633295 -0.396164 0
M  V30 3720 H 350.913 -1.91429 -0.366176 0
M  V30 3721 H 350.009 -2.5951 -1.73381 0
M  V30 3722 N 350.31 0.590341 -1.46126 0
M  V30 3723 C 351.535 1.37991 -1.54833 0
M  V30 3724 C 351.96 1.87163 -0.187506 0
M  V30 3725 O 351.318 1.61133 0.831008 0
M  V30 3726 C 351.366 2.54867 -2.55098 0
M  V30 3727 O 350.47 3.56061 -2.08073 0
M  V30 3728 H 349.811 0.411265 -0.521303 0
M  V30 3729 H 352.341 0.716819 -1.91632 0
M  V30 3730 H 352.351 3.01886 -2.74461 0
M  V30 3731 H 351.026 2.18429 -3.53923 0
M  V30 3732 H 349.603 3.15574 -1.98664 0
M  V30 3733 N 351.788 1.33704 0.83433 0
M  V30 3734 C 353.035 1.25417 1.58987 0
M  V30 3735 C 353.363 -0.178869 1.93676 0
M  V30 3736 O 352.618 -1.13723 1.59265 0
M  V30 3737 C 352.917 2.07926 2.90692 0
M  V30 3738 C 352.583 3.57066 2.75345 0
M  V30 3739 C 351.245 3.97724 2.70867 0
M  V30 3740 C 353.597 4.51817 2.59828 0
M  V30 3741 C 350.925 5.31344 2.48778 0
M  V30 3742 C 353.277 5.85604 2.39272 0
M  V30 3743 C 351.941 6.25439 2.33199 0
M  V30 3744 H 351.211 0.458934 0.581774 0
M  V30 3745 H 353.858 1.65335 0.966261 0
M  V30 3746 H 352.163 1.608 3.57282 0
M  V30 3747 H 353.86 1.98868 3.48213 0
M  V30 3748 H 350.45 3.24785 2.79665 0
M  V30 3749 H 354.634 4.21311 2.62319 0
M  V30 3750 H 349.89 5.61241 2.42526 0
M  V30 3751 H 354.064 6.58623 2.2625 0
M  V30 3752 H 351.691 7.28914 2.15843 0
M  V30 3753 N 353.266 -1.05314 1.17247 0
M  V30 3754 C 354.491 -1.82509 0.985148 0
M  V30 3755 C 354.916 -1.82343 -0.461788 0
M  V30 3756 O 354.274 -1.23151 -1.33055 0
M  V30 3757 C 354.322 -3.26566 1.52929 0
M  V30 3758 O 353.426 -4.05666 0.742225 0
M  V30 3759 H 352.767 -0.564347 0.349869 0
M  V30 3760 H 355.297 -1.32718 1.55715 0
M  V30 3761 H 355.307 -3.77369 1.55103 0
M  V30 3762 H 353.982 -3.26001 2.58256 0
M  V30 3763 H 352.559 -3.64397 0.791794 0
M  V30 3764 N 354.744 -0.972509 -1.24016 0
M  V30 3765 C 355.676 -0.464375 -2.24446 0
M  V30 3766 C 356.689 0.4295 -1.57032 0
M  V30 3767 O 357.878 0.234902 -1.76948 0
M  V30 3768 C 354.978 0.348385 -3.37105 0
M  V30 3769 C 354.151 -0.53673 -4.34094 0
M  V30 3770 C 353.21 0.220838 -5.25736 0
M  V30 3771 O 352.236 -0.386867 -5.67884 0
M  V30 3772 N 353.438 1.50907 -5.60542 0
M  V30 3773 H 356.203 -1.32788 -2.68677 0
M  V30 3774 H 353.764 -0.844877 -1.38107 0
M  V30 3775 H 355.756 0.863341 -3.95384 0
M  V30 3776 H 354.326 1.11285 -2.92121 0
M  V30 3777 H 353.546 -1.23261 -3.74433 0
M  V30 3778 H 354.834 -1.14022 -4.95859 0
M  V30 3779 H 354.232 2.02444 -5.28236 0
M  V30 3780 H 352.789 1.96962 -6.21329 0
M  V30 3781 N 356.222 1.38976 -0.743202 0
M  V30 3782 C 357.185 2.28901 -0.117014 0
M  V30 3783 C 358.185 1.46698 0.658503 0
M  V30 3784 O 359.375 1.67274 0.486305 0
M  V30 3785 C 356.507 3.30309 0.84315 0
M  V30 3786 H 357.7 2.8578 -0.909373 0
M  V30 3787 H 355.253 1.47761 -0.509547 0
M  V30 3788 H 355.988 2.785 1.66157 0
M  V30 3789 H 355.773 3.91029 0.289594 0
M  V30 3790 H 357.263 3.97577 1.2776 0
M  V30 3791 N 357.7 0.491464 1.49741 0
M  V30 3792 C 358.977 -0.118984 1.95238 0
M  V30 3793 C 359.357 -1.55044 1.43264 0
M  V30 3794 O 358.705 -2.19287 0.642287 0
M  V30 3795 C 358.915 -0.0414187 3.48975 0
M  V30 3796 C 360.263 -0.220133 4.24029 0
M  V30 3797 O 361.287 -0.117055 3.56008 0
M  V30 3798 O 360.146 -0.430567 5.44801 0
M  V30 3799 H 357.24 -0.100536 0.820866 0
M  V30 3800 H 359.786 0.553322 1.60426 0
M  V30 3801 H 358.558 0.957214 3.79412 0
M  V30 3802 H 358.181 -0.754292 3.9038 0
M  V30 3803 N 359.178 -1.55987 0.224894 0
M  V30 3804 C 360.424 -1.98684 -0.406502 0
M  V30 3805 C 360.757 -1.11248 -1.59177 0
M  V30 3806 O 360.032 -0.170909 -1.93748 0
M  V30 3807 C 360.315 -3.50218 -0.837808 0
M  V30 3808 C 360.168 -4.48426 0.351332 0
M  V30 3809 C 361.487 -4.06243 -1.69278 0
M  V30 3810 H 358.606 -0.722337 -0.146283 0
M  V30 3811 H 361.248 -1.87255 0.321799 0
M  V30 3812 H 359.398 -3.60089 -1.45837 0
M  V30 3813 H 361.07 -4.50562 0.989526 0
M  V30 3814 H 359.313 -4.22159 0.998207 0
M  V30 3815 H 359.984 -5.52 0.00655905 0
M  V30 3816 H 362.46 -3.99337 -1.16914 0
M  V30 3817 H 361.336 -5.12581 -1.96346 0
M  V30 3818 H 361.597 -3.53332 -2.65723 0
M  V30 3819 N 360.656 0.0484629 -1.57525 0
M  V30 3820 C 361.606 1.06246 -2.01732 0
M  V30 3821 C 362.59 1.33155 -0.903245 0
M  V30 3822 O 363.782 1.33065 -1.16717 0
M  V30 3823 C 360.911 2.36943 -2.48421 0
M  V30 3824 C 359.997 2.13208 -3.6661 0
M  V30 3825 N 360.388 1.5947 -4.80003 0
M  V30 3826 C 358.686 2.43581 -3.7361 0
M  V30 3827 C 359.387 1.51092 -5.61735 0
M  V30 3828 N 358.363 1.9797 -5.0627 0
M  V30 3829 H 362.165 0.640675 -2.86832 0
M  V30 3830 H 359.679 0.255134 -1.60383 0
M  V30 3831 H 361.676 3.10374 -2.78341 0
M  V30 3832 H 360.336 2.79818 -1.64718 0
M  V30 3833 H 361.347 1.28008 -5.01831 0
M  V30 3834 H 358.024 2.89662 -3.00669 0
M  V30 3835 H 359.414 1.10199 -6.62801 0
M  V30 3836 N 362.134 1.5431 0.320358 0
M  V30 3837 C 363.55 1.45091 0.664889 0
M  V30 3838 C 363.75 0.626382 1.91517 0
M  V30 3839 O 362.806 0.126443 2.52183 0
M  V30 3840 C 364.119 2.88848 0.83591 0
M  V30 3841 C 365.667 2.9877 0.933046 0
M  V30 3842 C 366.142 4.43683 1.13621 0
M  V30 3843 N 367.633 4.47309 1.20287 0
M  V30 3844 C 368.368 5.56595 1.37801 0
M  V30 3845 N 367.864 6.75844 1.52338 0
M  V30 3846 N 369.657 5.44248 1.40535 0
M  V30 3847 H 361.808 2.06398 -0.501374 0
M  V30 3848 H 364.071 0.933963 -0.162534 0
M  V30 3849 H 363.777 3.51698 -0.0116092 0
M  V30 3850 H 363.651 3.35148 1.73078 0
M  V30 3851 H 366.038 2.36045 1.77107 0
M  V30 3852 H 366.119 2.55796 0.0145782 0
M  V30 3853 H 365.763 5.06995 0.303032 0
M  V30 3854 H 365.693 4.84269 2.0686 0
M  V30 3855 H 368.184 3.61388 1.10485 0
M  V30 3856 H 368.497 7.54892 1.65403 0
M  V30 3857 H 366.842 6.78746 1.4943 0
M  V30 3858 H 370.033 4.50038 1.28777 0
M  V30 3859 H 370.206 6.29473 1.53842 0
M  V30 3860 N 363.613 -0.582584 1.46437 0
M  V30 3861 C 364.545 -1.70618 1.53043 0
M  V30 3862 C 365.558 -1.57322 0.418769 0
M  V30 3863 O 366.747 -1.64744 0.687136 0
M  V30 3864 C 363.847 -3.08869 1.39474 0
M  V30 3865 C 363.02 -3.48166 2.64762 0
M  V30 3866 C 362.079 -4.65478 2.4539 0
M  V30 3867 O 361.105 -4.71333 3.19114 0
M  V30 3868 N 362.307 -5.60365 1.51564 0
M  V30 3869 H 365.072 -1.65405 2.49923 0
M  V30 3870 H 362.633 -0.768567 1.42494 0
M  V30 3871 H 364.625 -3.85143 1.24287 0
M  V30 3872 H 363.195 -3.08449 0.507758 0
M  V30 3873 H 362.415 -2.61598 2.9489 0
M  V30 3874 H 363.703 -3.71188 3.4799 0
M  V30 3875 H 363.101 -5.5837 0.907705 0
M  V30 3876 H 361.658 -6.36068 1.4234 0
M  V30 3877 N 365.091 -1.34144 -0.827227 0
M  V30 3878 C 366.337 -1.26446 -1.58554 0
M  V30 3879 C 366.67 0.1664 -1.93486 0
M  V30 3880 O 365.945 1.1107 -1.59667 0
M  V30 3881 C 366.228 -2.15111 -2.8879 0
M  V30 3882 C 366.081 -3.66712 -2.60465 0
M  V30 3883 C 367.4 -2.03311 -3.90324 0
M  V30 3884 H 364.519 -0.46067 -0.575284 0
M  V30 3885 H 367.161 -1.64356 -0.953269 0
M  V30 3886 H 365.311 -1.8291 -3.42748 0
M  V30 3887 H 366.983 -4.09259 -2.1285 0
M  V30 3888 H 365.226 -3.88014 -1.93978 0
M  V30 3889 H 365.897 -4.24112 -3.53317 0
M  V30 3890 H 368.373 -2.31574 -3.45706 0
M  V30 3891 H 367.249 -2.67582 -4.79261 0
M  V30 3892 H 367.51 -1.00879 -4.30437 0
M  V30 3893 N 366.569 1.04691 -1.17803 0
M  V30 3894 C 367.532 2.10724 -0.901545 0
M  V30 3895 C 368.532 1.6042 0.110437 0
M  V30 3896 O 369.722 1.7377 -0.122303 0
M  V30 3897 C 366.854 3.39084 -0.351409 0
M  V30 3898 H 368.047 2.36686 -1.84174 0
M  V30 3899 H 365.6 1.21015 -0.98919 0
M  V30 3900 H 366.335 3.18782 0.59569 0
M  V30 3901 H 366.12 3.76909 -1.08083 0
M  V30 3902 H 367.61 4.17227 -0.176451 0
M  V30 3903 N 368.047 0.979072 1.23499 0
M  V30 3904 C 369.296 0.642751 1.91185 0
M  V30 3905 C 369.609 -0.827253 1.77245 0
M  V30 3906 O 370.815 -1.27458 2.39722 0
M  V30 3907 C 369.271 1.09901 3.42709 0
M  V30 3908 C 368.879 2.59327 3.65313 0
M  V30 3909 C 370.623 0.836371 4.16179 0
M  V30 3910 C 368.53 2.98627 5.10467 0
M  V30 3911 H 367.46 0.236698 0.715884 0
M  V30 3912 H 370.111 1.1868 1.39955 0
M  V30 3913 H 368.493 0.48319 3.93041 0
M  V30 3914 H 369.667 3.26136 3.25533 0
M  V30 3915 H 367.982 2.83323 3.05151 0
M  V30 3916 H 370.579 1.10586 5.23139 0
M  V30 3917 H 370.922 -0.227509 4.15678 0
M  V30 3918 H 371.455 1.41371 3.71832 0
M  V30 3919 H 368.194 4.04133 5.16098 0
M  V30 3920 H 367.714 2.3651 5.51201 0
M  V30 3921 H 369.393 2.89159 5.78788 0
M  V30 3922 N 369.525 -1.3858 0.750561 0
M  V30 3923 C 370.771 -2.00481 0.305825 0
M  V30 3924 C 371.104 -1.5944 -1.10872 0
M  V30 3925 O 370.379 -0.83052 -1.75877 0
M  V30 3926 C 370.662 -3.5758 0.425287 0
M  V30 3927 C 370.515 -4.08594 1.88072 0
M  V30 3928 C 371.834 -4.39719 -0.183122 0
M  V30 3929 H 368.953 -0.728348 0.112598 0
M  V30 3930 H 371.595 -1.64566 0.949638 0
M  V30 3931 H 369.745 -3.88306 -0.122828 0
M  V30 3932 H 371.417 -3.88523 2.48691 0
M  V30 3933 H 369.66 -3.61574 2.39681 0
M  V30 3934 H 370.331 -5.177 1.91548 0
M  V30 3935 H 372.807 -4.15128 0.284303 0
M  V30 3936 H 371.683 -5.48856 -0.0692757 0
M  V30 3937 H 371.944 -4.23434 -1.27106 0
M  V30 3938 N 371.003 -0.499398 -1.49478 0
M  V30 3939 C 372.25 0.0456899 -2.02448 0
M  V30 3940 C 372.578 1.37142 -1.37921 0
M  V30 3941 O 371.833 1.89111 -0.503544 0
M  V30 3942 C 372.132 0.248424 -3.56536 0
M  V30 3943 C 371.798 -0.999107 -4.39692 0
M  V30 3944 C 370.46 -1.34108 -4.62135 0
M  V30 3945 C 372.812 -1.82842 -4.88076 0
M  V30 3946 C 370.14 -2.51191 -5.30208 0
M  V30 3947 C 372.492 -2.99076 -5.57437 0
M  V30 3948 C 371.156 -3.33655 -5.78127 0
M  V30 3949 H 370.426 0.0167191 -0.740811 0
M  V30 3950 H 373.073 -0.65923 -1.79795 0
M  V30 3951 H 371.378 1.03586 -3.77859 0
M  V30 3952 H 373.075 0.684605 -3.95113 0
M  V30 3953 H 369.665 -0.722729 -4.22463 0
M  V30 3954 H 373.849 -1.57737 -4.70566 0
M  V30 3955 H 369.105 -2.78221 -5.44429 0
M  V30 3956 H 373.279 -3.63664 -5.93904 0
M  V30 3957 H 370.906 -4.24483 -6.30649 0
M  V30 3958 N 372.481 1.55866 -0.233164 0
M  V30 3959 C 373.897 1.59133 0.121988 0
M  V30 3960 C 374.097 1.25016 1.58029 0
M  V30 3961 O 373.153 0.990922 2.32243 0
M  V30 3962 C 374.466 2.99932 -0.214792 0
M  V30 3963 C 376.014 3.12601 -0.157971 0
M  V30 3964 C 376.489 4.55597 -0.46859 0
M  V30 3965 N 377.98 4.61305 -0.418585 0
M  V30 3966 C 378.715 5.69903 -0.63227 0
M  V30 3967 N 378.211 6.86819 -0.90835 0
M  V30 3968 N 380.004 5.59264 -0.563913 0
M  V30 3969 H 372.155 1.76315 -1.18434 0
M  V30 3970 H 374.418 0.820093 -0.475553 0
M  V30 3971 H 374.124 3.29588 -1.22739 0
M  V30 3972 H 373.998 3.74327 0.464691 0
M  V30 3973 H 376.385 2.82735 0.845283 0
M  V30 3974 H 376.466 2.40511 -0.871102 0
M  V30 3975 H 376.11 4.86182 -1.46934 0
M  V30 3976 H 376.04 5.25928 0.265865 0
M  V30 3977 H 378.531 3.77297 -0.213368 0
M  V30 3978 H 378.844 7.65507 -1.05919 0
M  V30 3979 H 377.189 6.88536 -0.945673 0
M  V30 3980 H 380.38 4.66802 -0.348372 0
M  V30 3981 H 380.553 6.43831 -0.733847 0
M  V30 3982 N 373.959 -0.0401083 1.57549 0
M  V30 3983 C 375.187 -0.745196 1.93014 0
M  V30 3984 C 375.602 -1.6948 0.831984 0
M  V30 3985 O 374.959 -1.81482 -0.192463 0
M  V30 3986 C 375.01 -1.51176 3.28372 0
M  V30 3987 O 374.731 -0.600284 4.33968 0
M  V30 3988 C 376.232 -2.315 3.78051 0
M  V30 3989 H 373.452 -0.210088 0.637263 0
M  V30 3990 H 375.996 -0.000924689 2.045 0
M  V30 3991 H 374.151 -2.20801 3.18317 0
M  V30 3992 H 374.565 -1.13669 5.12035 0
M  V30 3993 H 376.039 -2.80697 4.75303 0
M  V30 3994 H 376.516 -3.12436 3.08675 0
M  V30 3995 H 377.122 -1.66971 3.91153 0
M  V30 3996 N 375.437 -1.54477 -0.31217 0
M  V30 3997 C 376.848 -1.64344 -0.885891 0
M  V30 3998 C 377.199 -0.54485 -1.88483 0
M  V30 3999 O 376.324 0.320387 -2.14015 0
M  V30 4000 C 376.919 -2.97908 -1.61357 0
M  V30 4001 C 375.478 -3.09933 -2.13585 0
M  V30 4002 C 374.625 -2.59971 -0.964897 0
M  V30 4003 H 377.576 -1.58448 -0.0894528 0
M  V30 4004 H 377.597 -2.88706 -2.47848 0
M  V30 4005 H 377.109 -3.77845 -0.886277 0
M  V30 4006 H 375.21 -2.34694 -2.89395 0
M  V30 4007 H 375.323 -4.15916 -2.37804 0
M  V30 4008 H 373.687 -2.16147 -1.34731 0
M  V30 4009 H 374.47 -3.42376 -0.251742 0
M  V30 4010 N 376.915 0.57481 -1.46744 0
M  V30 4011 C 378.326 1.15695 -1.46532 0
M  V30 4012 C 378.677 1.95068 -0.210425 0
M  V30 4013 O 377.802 2.05241 0.685944 0
M  V30 4014 C 378.397 2.1048 -2.65487 0
M  V30 4015 C 376.956 2.64002 -2.68291 0
M  V30 4016 C 376.103 1.40026 -2.39349 0
M  V30 4017 H 379.054 0.362325 -1.54509 0
M  V30 4018 H 379.075 2.94074 -2.41455 0
M  V30 4019 H 378.587 1.52683 -3.56805 0
M  V30 4020 H 376.688 3.25646 -1.81067 0
M  V30 4021 H 376.801 3.06197 -3.68483 0
M  V30 4022 H 375.165 1.70106 -1.89568 0
M  V30 4023 H 375.948 0.840485 -3.32852 0
M  V30 4024 N 378.394 1.34581 0.820102 0
M  V30 4025 C 379.624 1.29991 1.6058 0
M  V30 4026 C 380.032 -0.127588 1.88769 0
M  V30 4027 O 379.375 -1.08595 1.48165 0
M  V30 4028 C 379.437 2.02548 2.9701 0
M  V30 4029 C 379.101 3.51794 2.91701 0
M  V30 4030 C 380.098 4.46647 2.66087 0
M  V30 4031 C 377.783 3.94249 3.11245 0
M  V30 4032 C 379.777 5.81929 2.60071 0
M  V30 4033 C 377.464 5.2963 3.04853 0
M  V30 4034 C 378.462 6.23282 2.793 0
M  V30 4035 O 378.15 7.56181 2.72847 0
M  V30 4036 H 377.882 0.448539 0.505756 0
M  V30 4037 H 380.436 1.77811 1.02822 0
M  V30 4038 H 378.666 1.49345 3.56697 0
M  V30 4039 H 380.355 1.91211 3.58041 0
M  V30 4040 H 381.121 4.15168 2.5072 0
M  V30 4041 H 377 3.21749 3.30149 0
M  V30 4042 H 380.544 6.54999 2.40046 0
M  V30 4043 H 376.441 5.60727 3.19774 0
M  V30 4044 H 377.209 7.6595 2.88553 0
M  V30 4045 N 379.872 -1.04064 1.18357 0
M  V30 4046 C 380.835 -2.10243 0.912707 0
M  V30 4047 C 381.835 -1.60477 -0.101928 0
M  V30 4048 O 383.025 -1.73703 0.131517 0
M  V30 4049 C 380.157 -3.38893 0.369387 0
M  V30 4050 H 381.35 -2.35706 1.85426 0
M  V30 4051 H 378.903 -1.20489 0.995594 0
M  V30 4052 H 379.638 -3.19094 -0.578776 0
M  V30 4053 H 379.423 -3.76331 1.1008 0
M  V30 4054 H 380.913 -4.17128 0.198575 0
M  V30 4055 N 381.35 -0.985608 -1.22978 0
M  V30 4056 C 382.627 -0.573599 -1.87001 0
M  V30 4057 C 383.007 0.949213 -1.88555 0
M  V30 4058 O 382.355 1.82811 -1.37086 0
M  V30 4059 C 382.565 -1.18564 -3.28243 0
M  V30 4060 C 383.913 -1.28163 -4.04796 0
M  V30 4061 O 384.937 -1.13949 -3.37482 0
M  V30 4062 O 383.796 -1.50832 -5.25273 0
M  V30 4063 H 380.89 -0.193868 -0.803955 0
M  V30 4064 H 383.436 -1.08102 -1.30813 0
M  V30 4065 H 382.208 -2.22758 -3.21706 0
M  V30 4066 H 381.831 -0.663363 -3.92027 0
M  V30 4067 N 382.828 1.3818 -0.7579 0
M  V30 4068 C 384.239 1.82726 -0.383134 0
M  V30 4069 C 384.59 1.63214 1.08884 0
M  V30 4070 O 383.715 1.13566 1.84205 0
M  V30 4071 C 384.31 3.31728 -0.688631 0
M  V30 4072 C 382.869 3.74606 -0.367091 0
M  V30 4073 C 382.016 2.60896 -0.939599 0
M  V30 4074 H 384.967 1.26847 -0.953699 0
M  V30 4075 H 384.988 3.80487 0.0316492 0
M  V30 4076 H 384.5 3.45898 -1.76001 0
M  V30 4077 H 382.601 3.66013 0.697532 0
M  V30 4078 H 382.714 4.71215 -0.865658 0
M  V30 4079 H 381.078 2.52075 -0.3647 0
M  V30 4080 H 381.861 2.77864 -2.0161 0
M  V30 4081 N 384.306 0.507319 1.49211 0
M  V30 4082 C 385.531 -0.033725 2.07373 0
M  V30 4083 C 385.956 -1.29485 1.36437 0
M  V30 4084 O 385.314 -1.76294 0.423087 0
M  V30 4085 C 385.362 -0.263945 3.59633 0
M  V30 4086 O 384.466 -1.33737 3.90113 0
M  V30 4087 H 383.807 0.0290331 0.663365 0
M  V30 4088 H 386.337 0.708749 1.91932 0
M  V30 4089 H 386.347 -0.493536 4.05004 0
M  V30 4090 H 385.022 0.657424 4.10671 0
M  V30 4091 H 383.599 -1.09224 3.56545 0
M  V30 4092 N 385.784 -1.5574 0.241426 0
M  V30 4093 C 386.714 -2.24133 -0.654722 0
M  V30 4094 C 387.695 -1.21974 -1.1856 0
M  V30 4095 O 388.88 -1.50612 -1.22595 0
M  V30 4096 C 386.01 -2.93659 -1.85423 0
M  V30 4097 C 384.964 -4.0246 -1.45636 0
M  V30 4098 C 384.29 -4.59383 -2.73626 0
M  V30 4099 C 385.59 -5.18468 -0.631506 0
M  V30 4100 H 387.284 -2.99281 -0.0844353 0
M  V30 4101 H 384.83 -1.43947 -0.0391707 0
M  V30 4102 H 386.783 -3.40203 -2.48676 0
M  V30 4103 H 385.507 -2.15991 -2.44981 0
M  V30 4104 H 384.166 -3.56676 -0.847202 0
M  V30 4105 H 383.814 -3.78422 -3.3137 0
M  V30 4106 H 383.514 -5.32826 -2.4773 0
M  V30 4107 H 385.038 -5.08658 -3.37786 0
M  V30 4108 H 386.452 -5.61272 -1.1682 0
M  V30 4109 H 384.849 -5.98266 -0.468831 0
M  V30 4110 H 385.919 -4.8358 0.357506 0
M  V30 4111 N 387.262 0.0317525 -1.57568 0
M  V30 4112 C 388.194 1.06073 -2.03178 0
M  V30 4113 C 389.207 1.32627 -0.944132 0
M  V30 4114 O 390.396 1.30162 -1.22148 0
M  V30 4115 C 387.496 2.40297 -2.38978 0
M  V30 4116 C 386.669 2.33137 -3.70089 0
M  V30 4117 C 385.728 3.49787 -3.9311 0
M  V30 4118 O 384.754 3.29403 -4.64201 0
M  V30 4119 N 385.956 4.71562 -3.38541 0
M  V30 4120 H 388.721 0.672006 -2.92069 0
M  V30 4121 H 386.282 0.219745 -1.60402 0
M  V30 4122 H 388.274 3.1705 -2.51518 0
M  V30 4123 H 386.844 2.71024 -1.55771 0
M  V30 4124 H 386.064 1.415 -3.67928 0
M  V30 4125 H 387.352 2.25493 -4.56104 0
M  V30 4126 H 386.75 4.91024 -2.80912 0
M  V30 4127 H 385.307 5.45689 -3.56464 0
M  V30 4128 N 388.74 1.54641 0.303973 0
M  V30 4129 C 389.703 1.84646 1.35789 0
M  V30 4130 C 390.703 0.7192 1.4382 0
M  V30 4131 O 391.893 0.987491 1.43507 0
M  V30 4132 C 389.025 2.02407 2.74307 0
M  V30 4133 H 390.218 2.78829 1.10429 0
M  V30 4134 H 387.771 1.46658 0.540487 0
M  V30 4135 H 388.506 1.10502 3.04893 0
M  V30 4136 H 388.291 2.84453 2.69868 0
M  V30 4137 H 389.781 2.27002 3.50514 0
M  V30 4138 N 390.218 -0.567019 1.47046 0
M  V30 4139 C 391.629 -1.14916 1.47143 0
M  V30 4140 C 391.98 -1.94954 0.220767 0
M  V30 4141 O 391.105 -2.05602 -0.67505 0
M  V30 4142 C 391.7 -2.09069 2.666 0
M  V30 4143 C 390.259 -2.62575 2.69687 0
M  V30 4144 C 389.406 -1.38755 2.40088 0
M  V30 4145 H 392.357 -0.354126 1.54699 0
M  V30 4146 H 392.378 -2.92789 2.43011 0
M  V30 4147 H 391.89 -1.50789 3.57609 0
M  V30 4148 H 389.991 -3.24681 1.82792 0
M  V30 4149 H 390.104 -3.04239 3.70102 0
M  V30 4150 H 388.468 -1.69098 1.90468 0
M  V30 4151 H 389.251 -0.822822 3.33293 0
M  V30 4152 N 391.696 -1.35014 -0.812953 0
M  V30 4153 C 392.942 -1.2812 -1.57204 0
M  V30 4154 C 393.275 0.145869 -1.93651 0
M  V30 4155 O 392.55 1.0937 -1.60836 0
M  V30 4156 C 392.833 -2.18162 -2.86492 0
M  V30 4157 C 392.686 -3.69454 -2.56561 0
M  V30 4158 C 394.005 -2.07439 -3.88145 0
M  V30 4159 H 391.124 -0.466746 -0.570366 0
M  V30 4160 H 393.766 -1.65357 -0.935783 0
M  V30 4161 H 391.916 -1.86535 -3.40789 0
M  V30 4162 H 393.588 -4.11493 -2.08497 0
M  V30 4163 H 391.831 -3.9005 -1.89851 0
M  V30 4164 H 392.502 -4.27835 -3.48799 0
M  V30 4165 H 394.978 -2.35228 -3.4323 0
M  V30 4166 H 393.854 -2.7265 -4.76396 0
M  V30 4167 H 394.115 -1.05439 -4.29343 0
M  V30 4168 N 393.175 1.03435 -1.18907 0
M  V30 4169 C 394.591 1.28973 -0.940111 0
M  V30 4170 C 394.791 1.97676 0.390691 0
M  V30 4171 O 393.847 2.26127 1.12352 0
M  V30 4172 C 395.16 2.14221 -2.11021 0
M  V30 4173 C 396.708 2.27547 -2.14922 0
M  V30 4174 C 397.183 3.16164 -3.31367 0
M  V30 4175 N 398.674 3.23752 -3.31269 0
M  V30 4176 C 399.409 3.92495 -4.18014 0
M  V30 4177 N 398.905 4.63515 -5.14904 0
M  V30 4178 N 400.698 3.88838 -4.05908 0
M  V30 4179 H 392.849 0.57252 -2.04538 0
M  V30 4180 H 395.112 0.315184 -0.894071 0
M  V30 4181 H 394.818 1.71054 -3.073 0
M  V30 4182 H 394.692 3.14919 -2.0762 0
M  V30 4183 H 397.079 2.69947 -1.19217 0
M  V30 4184 H 397.16 1.26418 -2.22378 0
M  V30 4185 H 396.804 2.74474 -4.27348 0
M  V30 4186 H 396.734 4.17339 -3.21148 0
M  V30 4187 H 399.225 2.73167 -2.61129 0
M  V30 4188 H 399.538 5.13583 -5.77453 0
M  V30 4189 H 397.883 4.62398 -5.18857 0
M  V30 4190 H 401.074 3.32491 -3.29495 0
M  V30 4191 H 401.247 4.4214 -4.73726 0
M  V30 4192 N 394.653 0.992116 1.22453 0
M  V30 4193 C 395.899 0.668523 1.91464 0
M  V30 4194 C 396.232 -0.797313 1.77078 0
M  V30 4195 O 395.507 -1.5765 1.13916 0
M  V30 4196 C 395.79 1.07424 3.43703 0
M  V30 4197 C 395.643 2.59857 3.67143 0
M  V30 4198 C 396.962 0.626891 4.35612 0
M  V30 4199 H 394.081 0.244341 0.695318 0
M  V30 4200 H 396.723 1.2355 1.44345 0
M  V30 4201 H 394.873 0.591816 3.83966 0
M  V30 4202 H 396.545 3.15764 3.3629 0
M  V30 4203 H 394.788 3.01961 3.11451 0
M  V30 4204 H 395.459 2.83296 4.73759 0
M  V30 4205 H 397.935 1.04125 4.02861 0
M  V30 4206 H 396.811 0.939076 5.40807 0
M  V30 4207 H 397.072 -0.472457 4.39568 0
M  V30 4208 N 396.131 -1.37776 0.765217 0
M  V30 4209 C 397.356 -2.04651 0.336537 0
M  V30 4210 C 397.781 -1.57337 -1.03086 0
M  V30 4211 O 397.139 -0.730621 -1.65927 0
M  V30 4212 C 397.187 -3.58577 0.381468 0
M  V30 4213 O 396.291 -4.07706 -0.62042 0
M  V30 4214 H 395.632 -0.64756 0.146838 0
M  V30 4215 H 398.162 -1.76221 1.03959 0
M  V30 4216 H 398.172 -4.07314 0.236448 0
M  V30 4217 H 396.847 -3.9237 1.37907 0
M  V30 4218 H 395.424 -3.70306 -0.439056 0
M  V30 4219 N 397.609 -0.515225 -1.4894 0
M  V30 4220 C 398.542 0.302518 -2.26186 0
M  V30 4221 C 399.52 0.957895 -1.31389 0
M  V30 4222 O 400.704 0.985198 -1.60705 0
M  V30 4223 C 397.831 1.42719 -3.07163 0
M  V30 4224 C 396.877 0.884736 -4.17223 0
M  V30 4225 S 397.71 -0.235767 -5.34981 0
M  V30 4226 C 398.866 0.891731 -6.19515 0
M  V30 4227 H 399.099 -0.353076 -2.95196 0
M  V30 4228 H 396.632 -0.300753 -1.51443 0
M  V30 4229 H 398.59 2.07152 -3.54398 0
M  V30 4230 H 397.251 2.05445 -2.37595 0
M  V30 4231 H 396.444 1.72801 -4.73451 0
M  V30 4232 H 396.046 0.317362 -3.72651 0
M  V30 4233 H 398.338 1.79377 -6.53322 0
M  V30 4234 H 399.281 0.367751 -7.07144 0
M  V30 4235 H 399.689 1.16548 -5.52338 0
M  V30 4236 N 399.087 1.5561 -0.249682 0
M  V30 4237 C 400.019 2.18834 0.681496 0
M  V30 4238 C 401.032 1.16546 1.1367 0
M  V30 4239 O 402.221 1.43397 1.06299 0
M  V30 4240 C 399.321 2.77992 1.9384 0
M  V30 4241 C 398.494 4.05725 1.63419 0
M  V30 4242 C 397.553 4.49174 2.74096 0
M  V30 4243 O 396.579 5.15492 2.41364 0
M  V30 4244 N 397.781 4.17191 4.03649 0
M  V30 4245 H 400.546 2.9937 0.140514 0
M  V30 4246 H 398.107 1.6175 -0.0697541 0
M  V30 4247 H 400.099 3.04015 2.67127 0
M  V30 4248 H 398.669 2.01596 2.38909 0
M  V30 4249 H 397.889 3.87261 0.736358 0
M  V30 4250 H 399.177 4.88999 1.40562 0
M  V30 4251 H 398.575 3.63955 4.33074 0
M  V30 4252 H 397.132 4.48043 4.73393 0
M  V30 4253 N 400.565 -0.0233959 1.57583 0
M  V30 4254 C 401.495 -1.02162 2.09965 0
M  V30 4255 C 402.476 -1.3735 1.00344 0
M  V30 4256 O 403.661 -1.46135 1.27899 0
M  V30 4257 C 400.791 -2.32081 2.58371 0
M  V30 4258 C 399.745 -2.1112 3.72307 0
M  V30 4259 C 399.071 -3.46848 4.06941 0
M  V30 4260 C 400.371 -1.49276 5.00514 0
M  V30 4261 H 402.065 -0.585557 2.93618 0
M  V30 4262 H 399.611 -0.280218 1.41247 0
M  V30 4263 H 401.564 -3.02249 2.93639 0
M  V30 4264 H 400.288 -2.77758 1.71808 0
M  V30 4265 H 398.947 -1.43384 3.37397 0
M  V30 4266 H 398.595 -3.90184 3.17436 0
M  V30 4267 H 398.295 -3.33646 4.83688 0
M  V30 4268 H 399.819 -4.18369 4.44747 0
M  V30 4269 H 401.233 -2.09368 5.33702 0
M  V30 4270 H 399.63 -1.46632 5.8191 0
M  V30 4271 H 400.7 -0.459217 4.82721 0
M  V30 4272 N 402.043 -1.548 -0.295768 0
M  V30 4273 C 403.459 -1.4613 -0.641722 0
M  V30 4274 C 403.659 -0.656771 -1.90496 0
M  V30 4275 O 402.715 -0.166547 -2.5195 0
M  V30 4276 C 404.028 -2.90141 -0.789852 0
M  V30 4277 C 405.576 -3.00216 -0.885396 0
M  V30 4278 C 406.051 -4.45434 -1.06548 0
M  V30 4279 N 407.542 -4.49166 -1.13156 0
M  V30 4280 C 408.277 -5.58717 -1.28929 0
M  V30 4281 N 407.773 -6.78182 -1.41567 0
M  V30 4282 N 409.566 -5.46415 -1.31859 0
M  V30 4283 H 401.717 -2.05574 0.534147 0
M  V30 4284 H 403.98 -0.931259 0.177372 0
M  V30 4285 H 403.686 -3.51635 0.0675598 0
M  V30 4286 H 403.56 -3.37859 -1.67724 0
M  V30 4287 H 405.947 -2.38833 -1.73329 0
M  V30 4288 H 406.028 -2.55787 0.0261185 0
M  V30 4289 H 405.672 -5.07413 -0.222335 0
M  V30 4290 H 405.602 -4.87499 -1.9913 0
M  V30 4291 H 408.093 -3.631 -1.04721 0
M  V30 4292 H 408.406 -7.57428 -1.53372 0
M  V30 4293 H 406.751 -6.81037 -1.38613 0
M  V30 4294 H 409.942 -4.5203 -1.21601 0
M  V30 4295 H 410.115 -6.31841 -1.43808 0
M  V30 4296 N 403.521 0.559213 -1.47345 0
M  V30 4297 C 404.937 0.884943 -1.32819 0
M  V30 4298 C 405.137 1.98988 -0.317173 0
M  V30 4299 O 404.193 2.51031 0.272011 0
M  V30 4300 C 405.506 1.28007 -2.72093 0
M  V30 4301 C 407.054 1.39161 -2.80363 0
M  V30 4302 C 407.529 1.82031 -4.20272 0
M  V30 4303 N 409.02 1.89185 -4.22804 0
M  V30 4304 C 409.755 2.2368 -5.27973 0
M  V30 4305 N 409.251 2.56802 -6.43447 0
M  V30 4306 N 411.044 2.24436 -5.15349 0
M  V30 4307 H 403.195 -0.170304 -2.11716 0
M  V30 4308 H 405.458 -0.0135247 -0.947904 0
M  V30 4309 H 405.164 0.542027 -3.47498 0
M  V30 4310 H 405.038 2.23665 -3.03733 0
M  V30 4311 H 407.425 2.12048 -2.05231 0
M  V30 4312 H 407.506 0.41696 -2.52379 0
M  V30 4313 H 407.15 1.09715 -4.95908 0
M  V30 4314 H 407.08 2.80495 -4.45679 0
M  V30 4315 H 409.571 1.65982 -3.39497 0
M  V30 4316 H 409.884 2.82144 -7.19454 0
M  V30 4317 H 408.229 2.54387 -6.46771 0
M  V30 4318 H 411.42 1.97998 -4.24163 0
M  V30 4319 H 411.593 2.50989 -5.97418 0
M  V30 4320 N 404.999 1.35443 0.805782 0
M  V30 4321 C 406.41 1.25768 1.37983 0
M  V30 4322 C 406.761 -0.10958 1.95894 0
M  V30 4323 O 405.886 -1.01056 1.91355 0
M  V30 4324 C 406.481 2.27727 2.5085 0
M  V30 4325 C 405.04 2.2179 3.04115 0
M  V30 4326 C 404.187 2.13393 1.77084 0
M  V30 4327 H 407.138 1.4656 0.608752 0
M  V30 4328 H 407.159 1.90422 3.29424 0
M  V30 4329 H 406.671 3.27227 2.08671 0
M  V30 4330 H 404.772 1.25703 3.50756 0
M  V30 4331 H 404.885 3.13788 3.62042 0
M  V30 4332 H 403.249 1.59384 1.98668 0
M  V30 4333 H 404.032 3.14755 1.37056 0
M  V30 4334 N 406.477 -1.02803 1.19454 0
M  V30 4335 C 407.702 -1.80378 1.02364 0
M  V30 4336 C 408.127 -1.83282 -0.423007 0
M  V30 4337 O 407.485 -1.25945 -1.30413 0
M  V30 4338 C 407.533 -3.23248 1.59821 0
M  V30 4339 O 406.637 -4.04 0.828105 0
M  V30 4340 H 405.978 -0.556799 0.361761 0
M  V30 4341 H 408.508 -1.29385 1.58495 0
M  V30 4342 H 408.518 -3.73994 1.63073 0
M  V30 4343 H 407.193 -3.2045 2.65113 0
M  V30 4344 H 405.77 -3.62635 0.86891 0
M  V30 4345 N 407.956 -0.998596 -1.21925 0
M  V30 4346 C 409.233 -0.593401 -1.86382 0
M  V30 4347 C 409.613 0.92916 -1.89552 0
M  V30 4348 O 408.961 1.81347 -1.39017 0
M  V30 4349 C 409.171 -1.22039 -3.26967 0
M  V30 4350 C 410.519 -1.32449 -4.03413 0
M  V30 4351 O 411.543 -1.17522 -3.36254 0
M  V30 4352 O 410.402 -1.56395 -5.23644 0
M  V30 4353 H 407.496 -0.202385 -0.801854 0
M  V30 4354 H 410.042 -1.09484 -1.29659 0
M  V30 4355 H 408.814 -2.26158 -3.19325 0
M  V30 4356 H 408.437 -0.704906 -3.91301 0
M  V30 4357 N 409.434 1.37368 -0.772513 0
M  V30 4358 C 410.85 1.53059 -0.452231 0
M  V30 4359 C 411.05 1.73065 1.03203 0
M  V30 4360 O 410.106 1.75245 1.81784 0
M  V30 4361 C 411.419 2.72659 -1.26797 0
M  V30 4362 C 412.967 2.86521 -1.25995 0
M  V30 4363 C 413.442 4.09105 -2.05905 0
M  V30 4364 N 414.933 4.16219 -2.03263 0
M  V30 4365 C 415.668 5.10107 -2.61875 0
M  V30 4366 N 415.164 6.09547 -3.29278 0
M  V30 4367 N 416.957 5.02596 -2.51701 0
M  V30 4368 H 409.108 1.22634 -1.7342 0
M  V30 4369 H 411.371 0.597206 -0.736239 0
M  V30 4370 H 411.077 2.64343 -2.31982 0
M  V30 4371 H 410.951 3.66363 -0.897672 0
M  V30 4372 H 413.338 2.94308 -0.216081 0
M  V30 4373 H 413.419 1.93774 -1.66989 0
M  V30 4374 H 413.063 4.0208 -3.10313 0
M  V30 4375 H 412.993 5.00968 -1.62292 0
M  V30 4376 H 415.484 3.45012 -1.54192 0
M  V30 4377 H 415.797 6.77718 -3.71374 0
M  V30 4378 H 414.142 6.09824 -3.33377 0
M  V30 4379 H 417.333 4.23855 -1.98657 0
M  V30 4380 H 417.506 5.75582 -2.97673 0
M  V30 4381 N 410.912 0.523116 1.48665 0
M  V30 4382 C 411.822 -0.247406 2.33292 0
M  V30 4383 C 412.838 -0.945769 1.46052 0
M  V30 4384 O 414.014 -0.922253 1.79043 0
M  V30 4385 C 411.079 -1.28487 3.22012 0
M  V30 4386 C 410.14 -0.597592 4.2512 0
M  V30 4387 C 409.373 -1.58563 5.09601 0
M  V30 4388 O 409.596 -2.81763 4.95949 0
M  V30 4389 O 408.53 -1.12879 5.91221 0
M  V30 4390 H 412.356 0.445869 3.00409 0
M  V30 4391 H 409.941 0.284128 1.46673 0
M  V30 4392 H 411.823 -1.88459 3.7691 0
M  V30 4393 H 410.498 -1.96068 2.57564 0
M  V30 4394 H 409.405 0.0424407 3.74076 0
M  V30 4395 H 410.738 0.0361517 4.92187 0
M  V30 4396 N 412.39 -1.55475 0.257931 0
M  V30 4397 C 413.32 -2.24815 -0.630912 0
M  V30 4398 C 414.301 -1.23224 -1.17259 0
M  V30 4399 O 415.486 -1.51904 -1.20991 0
M  V30 4400 C 412.616 -2.95609 -1.82298 0
M  V30 4401 C 411.57 -4.03982 -1.41359 0
M  V30 4402 C 410.896 -4.6226 -2.68738 0
M  V30 4403 C 412.196 -5.19109 -0.57648 0
M  V30 4404 H 413.89 -2.99354 -0.0526878 0
M  V30 4405 H 411.436 -1.4398 -0.023901 0
M  V30 4406 H 413.389 -3.42822 -2.45054 0
M  V30 4407 H 412.113 -2.18577 -2.42676 0
M  V30 4408 H 410.772 -3.57555 -0.809324 0
M  V30 4409 H 410.42 -3.81915 -3.27338 0
M  V30 4410 H 410.12 -5.35424 -2.42065 0
M  V30 4411 H 411.644 -5.12212 -3.32372 0
M  V30 4412 H 413.058 -5.62479 -1.10861 0
M  V30 4413 H 411.455 -5.98729 -0.405351 0
M  V30 4414 H 412.525 -4.83174 0.408776 0
M  V30 4415 N 413.868 0.0150385 -1.57593 0
M  V30 4416 C 415.093 0.718067 -1.94573 0
M  V30 4417 C 415.518 1.6734 -0.859005 0
M  V30 4418 O 414.876 1.80362 0.184147 0
M  V30 4419 C 414.924 1.43918 -3.30636 0
M  V30 4420 O 414.028 2.55299 -3.23876 0
M  V30 4421 H 413.369 0.192125 -0.635597 0
M  V30 4422 H 415.899 -0.0336708 -2.04572 0
M  V30 4423 H 415.909 1.80598 -3.65853 0
M  V30 4424 H 414.584 0.738619 -4.09289 0
M  V30 4425 H 413.161 2.21058 -3.00312 0
M  V30 4426 N 415.346 1.54954 0.287554 0
M  V30 4427 C 416.256 1.8991 1.37736 0
M  V30 4428 C 417.272 0.794701 1.54792 0
M  V30 4429 O 418.448 1.09243 1.69198 0
M  V30 4430 C 415.513 2.15108 2.71899 0
M  V30 4431 C 414.574 3.38752 2.63715 0
M  V30 4432 C 413.807 3.62739 3.91479 0
M  V30 4433 O 414.03 2.89492 4.91478 0
M  V30 4434 O 412.964 4.56267 3.92561 0
M  V30 4435 H 416.79 2.82652 1.11092 0
M  V30 4436 H 414.375 1.41315 0.484807 0
M  V30 4437 H 416.257 2.32806 3.51254 0
M  V30 4438 H 414.932 1.25551 2.9836 0
M  V30 4439 H 413.839 3.26405 1.82786 0
M  V30 4440 H 415.172 4.28483 2.42205 0
M  V30 4441 N 416.824 -0.551391 1.4764 0
M  V30 4442 C 418.235 -1.13349 1.48354 0
M  V30 4443 C 418.586 -1.94709 0.241432 0
M  V30 4444 O 417.711 -2.06306 -0.653205 0
M  V30 4445 C 418.306 -2.0623 2.68802 0
M  V30 4446 C 416.865 -2.597 2.72457 0
M  V30 4447 C 416.012 -1.36201 2.41546 0
M  V30 4448 H 418.963 -0.337698 1.55065 0
M  V30 4449 H 418.984 -2.90196 2.46103 0
M  V30 4450 H 418.496 -1.46987 3.59188 0
M  V30 4451 H 416.597 -3.22724 1.86225 0
M  V30 4452 H 416.71 -3.00296 3.73308 0
M  V30 4453 H 415.074 -1.67068 1.9225 0
M  V30 4454 H 415.857 -0.787425 3.34147 0
M  V30 4455 N 418.302 -1.35869 -0.798587 0
M  V30 4456 C 419.235 -1.23801 -1.91699 0
M  V30 4457 C 420.213 -0.124143 -1.62125 0
M  V30 4458 O 421.397 -0.293656 -1.86199 0
M  V30 4459 C 418.524 -0.908063 -3.263 0
M  V30 4460 C 417.57 -2.0351 -3.74815 0
M  V30 4461 S 418.403 -3.65183 -3.91665 0
M  V30 4462 C 419.559 -3.34283 -5.29156 0
M  V30 4463 H 419.792 -2.18466 -2.01643 0
M  V30 4464 H 417.325 -1.21178 -0.956833 0
M  V30 4465 H 419.283 -0.724506 -4.04056 0
M  V30 4466 H 417.944 0.0206584 -3.14093 0
M  V30 4467 H 417.137 -1.75858 -4.72324 0
M  V30 4468 H 416.739 -2.1774 -3.04081 0
M  V30 4469 H 419.031 -2.87607 -6.13424 0
M  V30 4470 H 419.974 -4.31022 -5.61806 0
M  V30 4471 H 420.382 -2.69854 -4.95822 0
M  V30 4472 N 419.78 1.02168 -1.19998 0
M  V30 4473 C 420.69 2.14069 -0.959774 0
M  V30 4474 C 421.706 1.73804 0.082655 0
M  V30 4475 O 422.882 2.01133 -0.103633 0
M  V30 4476 C 419.947 3.42936 -0.509459 0
M  V30 4477 C 419.008 3.97474 -1.62213 0
M  V30 4478 C 418.241 5.2019 -1.19321 0
M  V30 4479 O 418.464 5.70369 -0.0597726 0
M  V30 4480 O 417.398 5.67749 -1.99863 0
M  V30 4481 H 421.224 2.37199 -1.89658 0
M  V30 4482 H 418.809 1.12469 -0.983411 0
M  V30 4483 H 420.691 4.20551 -0.267322 0
M  V30 4484 H 419.366 3.21234 0.398821 0
M  V30 4485 H 418.273 3.21161 -1.9185 0
M  V30 4486 H 419.606 4.23555 -2.50723 0
M  V30 4487 N 421.258 1.00505 1.21394 0
M  V30 4488 C 422.505 0.687774 1.90462 0
M  V30 4489 C 422.833 -0.78147 1.7811 0
M  V30 4490 O 422.088 -1.58208 1.1519 0
M  V30 4491 C 422.387 1.0546 3.41486 0
M  V30 4492 C 422.053 2.51812 3.74034 0
M  V30 4493 C 420.715 2.91804 3.82628 0
M  V30 4494 C 423.067 3.46614 3.8924 0
M  V30 4495 C 420.395 4.2556 4.03876 0
M  V30 4496 C 422.747 4.80044 4.11995 0
M  V30 4497 C 421.411 5.19759 4.18816 0
M  V30 4498 H 420.681 0.251674 0.696951 0
M  V30 4499 H 423.328 1.26349 1.43903 0
M  V30 4500 H 421.633 0.397133 3.89782 0
M  V30 4501 H 423.33 0.786976 3.93202 0
M  V30 4502 H 419.92 2.1982 3.67936 0
M  V30 4503 H 424.104 3.16883 3.81967 0
M  V30 4504 H 419.36 4.55901 4.07387 0
M  V30 4505 H 423.534 5.53439 4.22704 0
M  V30 4506 H 421.161 6.23418 4.35033 0
M  V30 4507 N 422.737 -1.36956 0.779787 0
M  V30 4508 C 423.669 -2.28833 0.129639 0
M  V30 4509 C 424.682 -1.4902 -0.655511 0
M  V30 4510 O 425.871 -1.71578 -0.492279 0
M  V30 4511 C 422.971 -3.2833 -0.839792 0
M  V30 4512 C 422.144 -4.3727 -0.10675 0
M  V30 4513 C 421.203 -5.16789 -0.990717 0
M  V30 4514 O 420.229 -5.67406 -0.451516 0
M  V30 4515 N 421.431 -5.32294 -2.3161 0
M  V30 4516 H 424.196 -2.85268 0.918803 0
M  V30 4517 H 421.757 -1.49019 0.632841 0
M  V30 4518 H 423.749 -3.78413 -1.43477 0
M  V30 4519 H 422.319 -2.72605 -1.52988 0
M  V30 4520 H 421.539 -3.88478 0.669216 0
M  V30 4521 H 422.827 -5.07229 0.399464 0
M  V30 4522 H 422.225 -4.92768 -2.77843 0
M  V30 4523 H 420.782 -5.85656 -2.86095 0
M  V30 4524 N 424.215 -0.530993 -1.48385 0
M  V30 4525 C 425.445 -0.00133928 -2.066 0
M  V30 4526 C 425.853 1.28599 -1.38777 0
M  V30 4527 O 425.196 1.77599 -0.469495 0
M  V30 4528 C 425.258 0.292137 -3.58311 0
M  V30 4529 C 424.922 -0.901864 -4.48013 0
M  V30 4530 C 425.919 -1.80053 -4.87726 0
M  V30 4531 C 423.604 -1.10915 -4.89901 0
M  V30 4532 C 425.598 -2.89038 -5.68098 0
M  V30 4533 C 423.285 -2.20213 -5.70043 0
M  V30 4534 C 424.283 -3.09107 -6.0905 0
M  V30 4535 O 423.971 -4.16514 -6.87583 0
M  V30 4536 H 423.703 -0.0308475 -0.675296 0
M  V30 4537 H 426.257 -0.736335 -1.91748 0
M  V30 4538 H 424.487 1.08112 -3.7128 0
M  V30 4539 H 426.176 0.763994 -3.98645 0
M  V30 4540 H 426.942 -1.65234 -4.55986 0
M  V30 4541 H 422.821 -0.426498 -4.59023 0
M  V30 4542 H 426.365 -3.58451 -5.98464 0
M  V30 4543 H 422.262 -2.35016 -6.01197 0
M  V30 4544 H 423.03 -4.14237 -7.05939 0
M  V30 4545 N 425.693 1.55336 -0.266172 0
M  V30 4546 C 426.623 2.25146 0.618981 0
M  V30 4547 C 427.604 1.23845 1.16604 0
M  V30 4548 O 428.789 1.52544 1.20183 0
M  V30 4549 C 425.919 2.96572 1.80728 0
M  V30 4550 C 424.873 4.04726 1.39215 0
M  V30 4551 C 424.199 4.63678 2.66283 0
M  V30 4552 C 425.499 5.19407 0.548942 0
M  V30 4553 H 427.193 2.99377 0.0368116 0
M  V30 4554 H 424.739 1.43991 0.0162651 0
M  V30 4555 H 426.692 3.44116 2.43232 0
M  V30 4556 H 425.416 2.19861 2.41514 0
M  V30 4557 H 424.075 3.57979 0.790351 0
M  V30 4558 H 423.723 3.83646 3.25308 0
M  V30 4559 H 423.423 5.367 2.39222 0
M  V30 4560 H 424.947 5.13967 3.29651 0
M  V30 4561 H 426.361 5.63059 1.07876 0
M  V30 4562 H 424.758 5.98936 0.373593 0
M  V30 4563 H 425.828 4.8295 -0.434394 0
M  V30 4564 N 427.171 -0.0066808 1.57599 0
M  V30 4565 C 428.582 -0.550379 1.78403 0
M  V30 4566 C 428.933 -1.74339 0.900014 0
M  V30 4567 O 428.058 -2.16166 0.100713 0
M  V30 4568 C 428.653 -1.00523 3.23544 0
M  V30 4569 C 427.212 -1.49428 3.45468 0
M  V30 4570 C 426.359 -0.442444 2.73748 0
M  V30 4571 H 429.31 0.219508 1.57175 0
M  V30 4572 H 429.331 -1.87157 3.31289 0
M  V30 4573 H 428.843 -0.136735 3.87859 0
M  V30 4574 H 426.944 -2.3839 2.86358 0
M  V30 4575 H 427.057 -1.52635 4.54136 0
M  V30 4576 H 425.421 -0.902578 2.38171 0
M  V30 4577 H 426.204 0.416973 3.40758 0
M  V30 4578 N 428.649 -1.55105 -0.279332 0
M  V30 4579 C 429.926 -1.66119 -1.03267 0
M  V30 4580 C 430.306 -0.523525 -2.04505 0
M  V30 4581 O 429.654 0.477194 -2.23462 0
M  V30 4582 C 429.864 -3.05067 -1.69515 0
M  V30 4583 C 431.212 -3.62606 -2.20912 0
M  V30 4584 O 432.236 -3.07659 -1.79512 0
M  V30 4585 O 431.095 -4.58861 -2.96831 0
M  V30 4586 H 428.189 -0.674429 -0.478618 0
M  V30 4587 H 430.735 -1.67446 -0.275694 0
M  V30 4588 H 429.507 -3.79311 -0.9612 0
M  V30 4589 H 429.13 -3.07611 -2.51915 0
M  V30 4590 N 430.127 0.543554 -1.4793 0
M  V30 4591 C 431.355 1.32516 -1.58894 0
M  V30 4592 C 431.77 1.87215 -0.244131 0
M  V30 4593 O 431.127 1.65709 0.764652 0
M  V30 4594 C 431.178 2.48554 -2.62494 0
M  V30 4595 O 430.899 1.96112 -3.91755 0
M  V30 4596 C 432.4 3.40572 -2.8377 0
M  V30 4597 H 429.62 0.403472 -0.536145 0
M  V30 4598 H 432.164 0.657106 -1.93655 0
M  V30 4599 H 430.319 3.1127 -2.30629 0
M  V30 4600 H 430.733 2.71967 -4.4848 0
M  V30 4601 H 432.207 4.18375 -3.60093 0
M  V30 4602 H 432.684 3.94965 -1.92092 0
M  V30 4603 H 433.29 2.8366 -3.16887 0
M  V30 4604 N 431.605 1.3629 0.791371 0
M  V30 4605 C 432.882 1.20962 1.53712 0
M  V30 4606 C 433.262 -0.205021 2.10102 0
M  V30 4607 O 432.61 -1.21042 1.93807 0
M  V30 4608 C 432.82 2.29002 2.63361 0
M  V30 4609 C 434.168 2.65572 3.31295 0
M  V30 4610 O 435.192 2.2803 2.73643 0
M  V30 4611 O 434.051 3.3018 4.35481 0
M  V30 4612 H 431.145 0.47086 0.679867 0
M  V30 4613 H 433.691 1.48016 0.830021 0
M  V30 4614 H 432.463 3.2382 2.19674 0
M  V30 4615 H 432.086 2.03303 3.41692 0
M  V30 4616 N 433.083 -1.0153 1.20538 0
M  V30 4617 C 434.36 -1.72327 0.925343 0
M  V30 4618 C 434.74 -2.03383 -0.565547 0
M  V30 4619 O 434.088 -1.69934 -1.52757 0
M  V30 4620 C 434.298 -2.9902 1.79967 0
M  V30 4621 C 435.646 -3.72258 2.04228 0
M  V30 4622 O 436.67 -3.08979 1.77231 0
M  V30 4623 O 435.529 -4.86053 2.4983 0
M  V30 4624 H 432.623 -0.751099 0.346092 0
M  V30 4625 H 435.169 -1.07366 1.31417 0
M  V30 4626 H 433.941 -2.72402 2.80915 0
M  V30 4627 H 433.564 -3.71721 1.41099 0
M  V30 4628 N 434.561 -1.01147 -1.20859 0
M  V30 4629 C 435.977 -0.725422 -1.42161 0
M  V30 4630 C 436.177 0.696919 -1.89064 0
M  V30 4631 O 435.233 1.46539 -2.05627 0
M  V30 4632 C 436.546 -1.74678 -2.44761 0
M  V30 4633 C 438.094 -1.76433 -2.58535 0
M  V30 4634 C 438.569 -2.77481 -3.64374 0
M  V30 4635 N 440.06 -2.76189 -3.71852 0
M  V30 4636 C 440.795 -3.51035 -4.53389 0
M  V30 4637 N 440.291 -4.35541 -5.38773 0
M  V30 4638 N 442.084 -3.39655 -4.47873 0
M  V30 4639 H 434.235 -1.92979 -0.887282 0
M  V30 4640 H 436.498 -0.833327 -0.451962 0
M  V30 4641 H 436.204 -2.76551 -2.17285 0
M  V30 4642 H 436.078 -1.55472 -3.43669 0
M  V30 4643 H 438.465 -0.75248 -2.85345 0
M  V30 4644 H 438.546 -1.99712 -1.5984 0
M  V30 4645 H 438.19 -3.78827 -3.38308 0
M  V30 4646 H 438.12 -2.51466 -4.6268 0
M  V30 4647 H 440.611 -2.14885 -3.10858 0
M  V30 4648 H 440.924 -4.89432 -5.98061 0
M  V30 4649 H 439.269 -4.39621 -5.38292 0
M  V30 4650 H 442.46 -2.73063 -3.80203 0
M  V30 4651 H 442.633 -3.9824 -5.11184 0
M  V30 4652 N 436.039 1.36541 -0.78704 0
M  V30 4653 C 436.989 2.27459 -0.156957 0
M  V30 4654 C 437.973 1.46843 0.657709 0
M  V30 4655 O 439.165 1.69245 0.518173 0
M  V30 4656 C 436.294 3.35893 0.709278 0
M  V30 4657 C 435.38 4.23947 -0.114049 0
M  V30 4658 N 435.771 4.92145 -1.16736 0
M  V30 4659 C 434.069 4.4587 0.107497 0
M  V30 4660 C 434.77 5.57261 -1.66837 0
M  V30 4661 N 433.746 5.3473 -0.977992 0
M  V30 4662 H 437.548 2.77669 -0.963185 0
M  V30 4663 H 435.062 1.49839 -0.62627 0
M  V30 4664 H 437.059 3.99953 1.17656 0
M  V30 4665 H 435.719 2.87238 1.51408 0
M  V30 4666 H 436.73 4.94169 -1.54976 0
M  V30 4667 H 433.407 4.08056 0.882994 0
M  V30 4668 H 434.797 6.21728 -2.54762 0
M  V30 4669 N 437.518 0.538854 1.48102 0
M  V30 4670 C 438.934 0.19732 1.58376 0
M  V30 4671 C 439.134 -1.29971 1.5398 0
M  V30 4672 O 438.19 -2.07861 1.43352 0
M  V30 4673 C 439.503 0.807716 2.89649 0
M  V30 4674 C 441.051 0.77726 3.03196 0
M  V30 4675 C 441.526 1.36639 4.37143 0
M  V30 4676 N 443.017 1.32875 4.43732 0
M  V30 4677 C 443.752 1.7544 5.45901 0
M  V30 4678 N 443.248 2.25776 6.54979 0
M  V30 4679 N 445.041 1.66623 5.36836 0
M  V30 4680 H 437.192 1.5117 1.49202 0
M  V30 4681 H 439.455 0.629327 0.708979 0
M  V30 4682 H 439.161 1.85909 2.98548 0
M  V30 4683 H 439.035 0.289975 3.76084 0
M  V30 4684 H 441.422 -0.265374 2.93904 0
M  V30 4685 H 441.503 1.33256 2.18349 0
M  V30 4686 H 441.147 2.408 4.47189 0
M  V30 4687 H 441.077 0.786689 5.20691 0
M  V30 4688 H 443.568 0.96037 3.65493 0
M  V30 4689 H 443.881 2.56226 7.29087 0
M  V30 4690 H 442.226 2.29775 6.55918 0
M  V30 4691 H 445.417 1.27089 4.50517 0
M  V30 4692 H 445.59 2.00115 6.16326 0
M  V30 4693 N 438.996 -1.55193 0.274407 0
M  V30 4694 C 440.245 -1.98758 -0.343213 0
M  V30 4695 C 440.558 -1.16624 -1.5703 0
M  V30 4696 O 441.764 -1.5033 -2.26082 0
M  V30 4697 C 440.22 -3.53759 -0.661996 0
M  V30 4698 C 439.828 -4.4467 0.54524 0
M  V30 4699 C 441.572 -4.05916 -1.24228 0
M  V30 4700 C 439.479 -5.91058 0.201084 0
M  V30 4701 H 438.409 -0.742353 -0.132014 0
M  V30 4702 H 441.06 -1.79545 0.378948 0
M  V30 4703 H 439.442 -3.68772 -1.44304 0
M  V30 4704 H 440.616 -4.41426 1.32212 0
M  V30 4705 H 438.931 -4.03143 1.04232 0
M  V30 4706 H 441.528 -5.12831 -1.51357 0
M  V30 4707 H 441.871 -3.54908 -2.17592 0
M  V30 4708 H 442.404 -3.9434 -0.523542 0
M  V30 4709 H 439.143 -6.46161 1.10258 0
M  V30 4710 H 438.663 -5.97373 -0.539045 0
M  V30 4711 H 440.342 -6.46669 -0.206954 0
M  V30 4712 N 440.474 -0.00167713 -1.576 0
M  V30 4713 C 441.384 1.00548 -2.1196 0
M  V30 4714 C 442.4 1.3758 -1.06526 0
M  V30 4715 O 443.576 1.46278 -1.38436 0
M  V30 4716 C 440.641 2.27809 -2.6135 0
M  V30 4717 C 439.702 1.97074 -3.81393 0
M  V30 4718 C 438.935 3.18267 -4.28417 0
M  V30 4719 O 439.158 4.30009 -3.74765 0
M  V30 4720 O 438.092 3.02167 -5.20556 0
M  V30 4721 H 441.918 0.573373 -2.98238 0
M  V30 4722 H 439.503 0.217255 -1.47812 0
M  V30 4723 H 441.385 3.02568 -2.93309 0
M  V30 4724 H 440.06 2.70254 -1.78169 0
M  V30 4725 H 438.967 1.19785 -3.54404 0
M  V30 4726 H 440.3 1.59464 -4.65652 0
M  V30 4727 N 441.952 1.55251 0.271103 0
M  V30 4728 C 442.862 1.9136 1.35714 0
M  V30 4729 C 443.878 0.811075 1.5394 0
M  V30 4730 O 445.054 1.11031 1.6803 0
M  V30 4731 C 442.119 2.1798 2.69603 0
M  V30 4732 C 441.18 3.4153 2.60107 0
M  V30 4733 C 440.413 3.66871 3.8761 0
M  V30 4734 O 440.636 2.94689 4.8838 0
M  V30 4735 O 439.57 4.60405 3.87699 0
M  V30 4736 H 443.396 2.83815 1.08088 0
M  V30 4737 H 440.981 1.41821 0.469792 0
M  V30 4738 H 442.863 2.36518 3.48765 0
M  V30 4739 H 441.538 1.28708 2.97012 0
M  V30 4740 H 440.445 3.28325 1.79314 0
M  V30 4741 H 441.778 4.31027 2.37647 0
M  V30 4742 N 443.43 -0.535701 1.48216 0
M  V30 4743 C 444.377 -1.64083 1.62312 0
M  V30 4744 C 445.347 -1.59448 0.465365 0
M  V30 4745 O 446.532 -1.77959 0.688135 0
M  V30 4746 C 443.672 -3.0236 1.66349 0
M  V30 4747 C 442.785 -3.17273 2.93193 0
M  V30 4748 C 441.92 -4.46075 2.88427 0
M  V30 4749 C 440.959 -4.54496 4.1 0
M  V30 4750 N 440.096 -5.7468 4.03345 0
M  V30 4751 H 444.936 -1.51374 2.5669 0
M  V30 4752 H 442.473 -0.737059 1.27302 0
M  V30 4753 H 444.431 -3.82461 1.66672 0
M  V30 4754 H 443.061 -3.13854 0.754672 0
M  V30 4755 H 442.113 -2.30462 3.02641 0
M  V30 4756 H 443.425 -3.19357 3.83162 0
M  V30 4757 H 442.579 -5.3446 2.87119 0
M  V30 4758 H 441.318 -4.46504 1.96177 0
M  V30 4759 H 440.323 -3.64519 4.11589 0
M  V30 4760 H 441.548 -4.5581 5.03402 0
M  V30 4761 H 439.494 -5.76017 3.13912 0
M  V30 4762 H 439.411 -5.78234 4.87013 0
M  V30 4763 H 440.679 -6.65367 4.06087 0
M  V30 4764 N 444.908 -1.36708 -0.784132 0
M  V30 4765 C 446.324 -1.17237 -1.08294 0
M  V30 4766 C 446.524 -5.93947e-05 -2.015 0
M  V30 4767 O 445.58 0.663686 -2.43622 0
M  V30 4768 C 446.893 -2.48557 -1.69233 0
M  V30 4769 C 448.441 -2.54968 -1.8155 0
M  V30 4770 C 448.916 -3.86388 -2.45904 0
M  V30 4771 N 450.407 -3.87762 -2.53367 0
M  V30 4772 C 451.142 -4.86191 -3.03983 0
M  V30 4773 N 450.638 -5.95015 -3.54866 0
M  V30 4774 N 452.431 -4.73606 -3.02743 0
M  V30 4775 H 444.582 -2.11758 -0.16501 0
M  V30 4776 H 446.845 -0.93822 -0.135822 0
M  V30 4777 H 446.551 -3.34638 -1.08215 0
M  V30 4778 H 446.425 -2.64748 -2.68679 0
M  V30 4779 H 448.812 -1.69302 -2.41704 0
M  V30 4780 H 448.893 -2.42672 -0.80895 0
M  V30 4781 H 448.537 -4.72462 -1.86392 0
M  V30 4782 H 448.467 -3.95982 -3.4714 0
M  V30 4783 H 450.958 -3.09145 -2.17343 0
M  V30 4784 H 451.271 -6.66086 -3.91854 0
M  V30 4785 H 449.616 -5.98676 -3.53003 0
M  V30 4786 H 452.807 -3.87717 -2.62284 0
M  V30 4787 H 452.98 -5.50473 -3.41881 0
M  V30 4788 N 446.386 1.0089 -1.21074 0
M  V30 4789 C 447.333 2.09588 -0.966512 0
M  V30 4790 C 448.303 1.65761 0.106089 0
M  V30 4791 O 449.488 1.90758 -0.0402287 0
M  V30 4792 C 446.628 3.40958 -0.533058 0
M  V30 4793 C 445.741 3.9822 -1.67467 0
M  V30 4794 C 444.876 5.17682 -1.19076 0
M  V30 4795 C 443.915 5.67043 -2.30496 0
M  V30 4796 N 443.052 6.77759 -1.83267 0
M  V30 4797 H 447.892 2.29815 -1.89708 0
M  V30 4798 H 445.429 1.12689 -0.945489 0
M  V30 4799 H 447.387 4.1637 -0.263019 0
M  V30 4800 H 446.017 3.20781 0.360505 0
M  V30 4801 H 445.069 3.1983 -2.05944 0
M  V30 4802 H 446.381 4.3085 -2.51336 0
M  V30 4803 H 445.535 6.00326 -0.877151 0
M  V30 4804 H 444.274 4.86635 -0.322066 0
M  V30 4805 H 443.279 4.82999 -2.62664 0
M  V30 4806 H 444.504 6.00121 -3.17855 0
M  V30 4807 H 442.45 6.48527 -0.987356 0
M  V30 4808 H 442.367 7.09624 -2.60711 0
M  V30 4809 H 443.635 7.63949 -1.54928 0
M  V30 4810 N 447.864 1.01787 1.20321 0
M  V30 4811 C 449.28 0.732951 1.41774 0
M  V30 4812 C 449.48 -0.686883 1.89431 0
M  V30 4813 O 448.536 -1.45446 2.06402 0
M  V30 4814 C 449.849 1.75973 2.43832 0
M  V30 4815 C 451.397 1.77802 2.57596 0
M  V30 4816 C 451.872 2.7941 3.62897 0
M  V30 4817 N 453.363 2.78157 3.70382 0
M  V30 4818 C 454.098 3.53434 4.51521 0
M  V30 4819 N 453.594 4.38392 5.36455 0
M  V30 4820 N 455.387 3.42026 4.46066 0
M  V30 4821 H 447.538 1.93447 0.877035 0
M  V30 4822 H 449.801 0.835712 0.447536 0
M  V30 4823 H 449.507 2.77699 2.15815 0
M  V30 4824 H 449.381 1.57292 3.4284 0
M  V30 4825 H 451.768 0.767602 2.84942 0
M  V30 4826 H 451.849 2.00557 1.58779 0
M  V30 4827 H 451.493 3.80616 3.36295 0
M  V30 4828 H 451.423 2.53916 4.61339 0
M  V30 4829 H 453.914 2.16531 3.09714 0
M  V30 4830 H 454.227 4.92596 5.95457 0
M  V30 4831 H 452.572 4.4247 5.35953 0
M  V30 4832 H 455.763 2.75075 3.78749 0
M  V30 4833 H 455.936 4.00946 5.09064 0
M  V30 4834 N 449.342 -1.36122 0.79427 0
M  V30 4835 C 450.57 -2.03362 0.380989 0
M  V30 4836 C 450.985 -1.59881 -1.00416 0
M  V30 4837 O 450.342 -0.790515 -1.6449 0
M  V30 4838 C 450.393 -3.58804 0.440649 0
M  V30 4839 O 450.114 -4.007 1.77118 0
M  V30 4840 C 451.615 -4.43296 0.0186117 0
M  V30 4841 H 448.835 -0.652526 0.156367 0
M  V30 4842 H 451.379 -1.73998 1.07447 0
M  V30 4843 H 449.534 -3.8686 -0.204458 0
M  V30 4844 H 449.948 -4.95309 1.72538 0
M  V30 4845 H 451.422 -5.51887 0.111488 0
M  V30 4846 H 451.899 -4.2684 -1.03461 0
M  V30 4847 H 452.505 -4.20512 0.636395 0
M  V30 4848 N 450.82 -0.546701 -1.47814 0
M  V30 4849 C 452.05 -0.0232519 -2.06587 0
M  V30 4850 C 452.458 1.2712 -1.40133 0
M  V30 4851 O 451.801 1.77091 -0.488305 0
M  V30 4852 C 451.863 0.254117 -3.58601 0
M  V30 4853 C 451.527 -0.949331 -4.47031 0
M  V30 4854 C 452.524 -1.85216 -4.85789 0
M  V30 4855 C 450.209 -1.16104 -4.88697 0
M  V30 4856 C 452.203 -2.95047 -5.65001 0
M  V30 4857 C 449.89 -2.26247 -5.67676 0
M  V30 4858 C 450.888 -3.1555 -6.05737 0
M  V30 4859 O 450.576 -4.23784 -6.83127 0
M  V30 4860 H 450.308 -0.0380082 -0.674931 0
M  V30 4861 H 452.862 -0.756631 -1.90956 0
M  V30 4862 H 451.092 1.04168 -3.72406 0
M  V30 4863 H 452.781 0.72167 -3.99433 0
M  V30 4864 H 453.547 -1.70061 -4.54207 0
M  V30 4865 H 449.426 -0.475159 -4.58545 0
M  V30 4866 H 452.97 -3.64778 -5.94628 0
M  V30 4867 H 448.867 -2.41379 -5.98671 0
M  V30 4868 H 449.635 -4.21701 -7.01506 0
M  V30 4869 N 452.299 1.55045 -0.282633 0
M  V30 4870 C 453.209 2.26491 0.61147 0
M  V30 4871 C 454.225 1.29348 1.16384 0
M  V30 4872 O 455.401 1.62298 1.19253 0
M  V30 4873 C 452.466 2.97779 1.77563 0
M  V30 4874 C 451.527 4.10418 1.25919 0
M  V30 4875 C 450.76 4.78297 2.36786 0
M  V30 4876 O 450.983 4.45426 3.56303 0
M  V30 4877 O 449.917 5.66089 2.04517 0
M  V30 4878 H 453.743 3.03683 0.0324615 0
M  V30 4879 H 451.328 1.49317 -0.0497576 0
M  V30 4880 H 453.21 3.42554 2.45427 0
M  V30 4881 H 451.885 2.23498 2.34159 0
M  V30 4882 H 450.792 3.70082 0.546797 0
M  V30 4883 H 452.125 4.86622 0.738887 0
M  V30 4884 N 453.777 0.010035 1.57597 0
M  V30 4885 C 455.005 -0.683413 1.95287 0
M  V30 4886 C 455.42 -1.66747 0.885481 0
M  V30 4887 O 454.777 -1.82003 -0.134629 0
M  V30 4888 C 454.828 -1.40652 3.33015 0
M  V30 4889 O 454.549 -0.461916 4.35658 0
M  V30 4890 C 456.05 -2.19356 3.85225 0
M  V30 4891 H 453.27 -0.189708 0.643624 0
M  V30 4892 H 455.814 0.0641359 2.04399 0
M  V30 4893 H 453.969 -2.10562 3.2518 0
M  V30 4894 H 454.383 -0.973215 5.15392 0
M  V30 4895 H 455.857 -2.65433 4.83993 0
M  V30 4896 H 456.334 -3.02457 3.18459 0
M  V30 4897 H 456.94 -1.54442 3.96267 0
M  V30 4898 N 455.255 -1.55392 -0.262866 0
M  V30 4899 C 456.502 -1.76476 -0.993109 0
M  V30 4900 C 456.83 -0.571479 -1.85915 0
M  V30 4901 O 456.085 0.445733 -1.90556 0
M  V30 4902 C 456.384 -3.02889 -1.89718 0
M  V30 4903 C 456.05 -4.34974 -1.18781 0
M  V30 4904 C 454.712 -4.7087 -0.991699 0
M  V30 4905 C 457.064 -5.16695 -0.683798 0
M  V30 4906 C 454.392 -5.86036 -0.279024 0
M  V30 4907 C 456.744 -6.32598 0.0153327 0
M  V30 4908 C 455.408 -6.67127 0.223062 0
M  V30 4909 H 454.678 -0.64577 -0.363404 0
M  V30 4910 H 457.325 -1.89664 -0.264525 0
M  V30 4911 H 455.63 -2.84644 -2.6923 0
M  V30 4912 H 457.327 -3.16399 -2.46359 0
M  V30 4913 H 453.917 -4.06765 -1.35058 0
M  V30 4914 H 458.101 -4.8943 -0.8229 0
M  V30 4915 H 453.357 -6.11306 -0.107456 0
M  V30 4916 H 457.531 -6.95171 0.413584 0
M  V30 4917 H 455.158 -7.56216 0.777265 0
M  V30 4918 N 456.733 0.527833 -1.48498 0
M  V30 4919 C 457.68 1.6322 -1.6318 0
M  V30 4920 C 458.65 1.59199 -0.473815 0
M  V30 4921 O 459.835 1.77591 -0.697563 0
M  V30 4922 C 456.975 3.01474 -1.67951 0
M  V30 4923 C 456.088 3.15713 -2.94871 0
M  V30 4924 C 455.223 4.44539 -2.90789 0
M  V30 4925 C 454.262 4.52315 -4.12404 0
M  V30 4926 N 453.399 5.72533 -4.06387 0
M  V30 4927 H 458.239 1.50011 -2.57489 0
M  V30 4928 H 455.776 0.730298 -1.27691 0
M  V30 4929 H 457.734 3.81572 -1.68698 0
M  V30 4930 H 456.364 3.1345 -0.771306 0
M  V30 4931 H 455.416 2.28854 -3.03859 0
M  V30 4932 H 456.728 3.1732 -3.8485 0
M  V30 4933 H 455.882 5.3293 -2.89949 0
M  V30 4934 H 454.621 4.45457 -1.98542 0
M  V30 4935 H 453.626 3.62331 -4.13517 0
M  V30 4936 H 454.851 4.53134 -5.05812 0
M  V30 4937 H 452.797 5.74344 -3.16962 0
M  V30 4938 H 452.714 5.75643 -4.90073 0
M  V30 4939 H 453.982 6.63204 -4.0961 0
M  V30 4940 N 458.211 1.37122 0.776871 0
M  V30 4941 C 459.436 1.354 1.57104 0
M  V30 4942 C 459.861 -0.0595562 1.88006 0
M  V30 4943 O 459.219 -1.03514 1.48844 0
M  V30 4944 C 459.267 2.19472 2.8612 0
M  V30 4945 O 458.371 1.59582 3.80273 0
M  V30 4946 H 457.712 0.462869 0.476076 0
M  V30 4947 H 460.242 1.80577 0.961932 0
M  V30 4948 H 460.252 2.32502 3.35271 0
M  V30 4949 H 458.927 3.22222 2.62956 0
M  V30 4950 H 457.504 1.55564 3.38902 0
M  V30 4951 N 459.689 -1.00246 1.21608 0
M  V30 4952 C 460.938 -1.73476 1.02902 0
M  V30 4953 C 461.251 -1.90643 -0.437561 0
M  V30 4954 O 462.457 -2.61105 -0.74407 0
M  V30 4955 C 460.913 -3.12079 1.79261 0
M  V30 4956 C 460.521 -3.02877 3.30106 0
M  V30 4957 C 462.265 -3.89421 1.68972 0
M  V30 4958 C 460.172 -4.36575 3.98944 0
M  V30 4959 H 459.102 -0.650408 0.381425 0
M  V30 4960 H 461.753 -1.11985 1.45367 0
M  V30 4961 H 460.135 -3.74196 1.2959 0
M  V30 4962 H 461.309 -2.49983 3.87098 0
M  V30 4963 H 459.624 -2.39022 3.40965 0
M  V30 4964 H 462.221 -4.88362 2.17731 0
M  V30 4965 H 462.564 -4.1122 0.648397 0
M  V30 4966 H 463.097 -3.33963 2.16133 0
M  V30 4967 H 459.836 -4.19978 5.03288 0
M  V30 4968 H 459.356 -4.8942 3.4674 0
M  V30 4969 H 461.035 -5.05364 4.04 0
M  V30 4970 N 461.167 -1.02423 -1.1978 0
M  V30 4971 C 462.1 -0.545641 -2.21581 0
M  V30 4972 C 463.078 0.411024 -1.57319 0
M  V30 4973 O 464.262 0.329223 -1.85603 0
M  V30 4974 C 461.389 0.204973 -3.38079 0
M  V30 4975 C 460.435 -0.70241 -4.20676 0
M  V30 4976 S 461.268 -2.17595 -4.89298 0
M  V30 4977 C 462.424 -1.43572 -6.09211 0
M  V30 4978 H 462.657 -1.4082 -2.61834 0
M  V30 4979 H 460.19 -0.833771 -1.29952 0
M  V30 4980 H 462.148 0.631924 -4.05607 0
M  V30 4981 H 460.809 1.0432 -2.9627 0
M  V30 4982 H 460.002 -0.123193 -5.03849 0
M  V30 4983 H 459.604 -1.06747 -3.58442 0
M  V30 4984 H 461.896 -0.719806 -6.73665 0
M  V30 4985 H 462.839 -2.24388 -6.71607 0
M  V30 4986 H 463.247 -0.935252 -5.56699 0
M  V30 4987 N 462.645 1.35699 -0.801477 0
M  V30 4988 C 463.592 2.29876 -0.206294 0
M  V30 4989 C 464.562 1.52565 0.656752 0
M  V30 4990 O 465.747 1.81024 0.602906 0
M  V30 4991 C 462.887 3.39052 0.643272 0
M  V30 4992 C 462 4.31335 -0.239644 0
M  V30 4993 C 461.135 5.27599 0.61744 0
M  V30 4994 C 460.174 6.11521 -0.26619 0
M  V30 4995 N 459.311 6.99938 0.550571 0
M  V30 4996 H 464.151 2.80187 -1.01484 0
M  V30 4997 H 461.688 1.37902 -0.511997 0
M  V30 4998 H 463.646 4.0101 1.15094 0
M  V30 4999 H 462.276 2.9003 1.41713 0
M  V30 5000 H 461.328 3.70426 -0.865381 0
M  V30 5001 H 462.64 4.90243 -0.919985 0
M  V30 5002 H 461.794 5.94906 1.19045 0
M  V30 5003 H 460.533 4.69176 1.33137 0
M  V30 5004 H 459.538 5.43166 -0.851507 0
M  V30 5005 H 460.763 6.72022 -0.9779 0
M  V30 5006 H 458.709 6.44008 1.24856 0
M  V30 5007 H 458.626 7.55966 -0.071832 0
M  V30 5008 H 459.894 7.71599 1.10702 0
M  V30 5009 N 464.123 0.554532 1.47522 0
M  V30 5010 C 465.07 -0.19466 2.29978 0
M  V30 5011 C 466.04 -0.910882 1.38896 0
M  V30 5012 O 467.225 -0.907102 1.67858 0
M  V30 5013 C 464.365 -1.22035 3.22802 0
M  V30 5014 C 463.478 -0.510474 4.28973 0
M  V30 5015 C 462.613 -1.52123 5.08952 0
M  V30 5016 C 461.652 -0.796173 6.069 0
M  V30 5017 N 460.789 -1.75363 6.79847 0
M  V30 5018 H 465.629 0.51461 2.93523 0
M  V30 5019 H 463.166 0.265607 1.44682 0
M  V30 5020 H 465.124 -1.8276 3.7504 0
M  V30 5021 H 463.754 -1.89769 2.61127 0
M  V30 5022 H 462.806 0.211234 3.79813 0
M  V30 5023 H 464.118 0.0576503 4.98767 0
M  V30 5024 H 463.272 -2.20207 5.65326 0
M  V30 5025 H 462.011 -2.12327 4.39054 0
M  V30 5026 H 461.016 -0.101388 5.49707 0
M  V30 5027 H 462.241 -0.199911 6.78806 0
M  V30 5028 H 460.187 -2.3443 6.12682 0
M  V30 5029 H 460.104 -1.23759 7.45801 0
M  V30 5030 H 461.372 -2.4257 7.40797 0
M  V30 5031 N 465.601 -1.54893 0.290851 0
M  V30 5032 C 466.826 -2.04804 -0.32712 0
M  V30 5033 C 467.251 -1.16721 -1.47506 0
M  V30 5034 O 466.609 -0.169107 -1.8051 0
M  V30 5035 C 466.657 -3.52268 -0.770689 0
M  V30 5036 O 465.761 -3.67236 -1.87647 0
M  V30 5037 H 465.102 -0.660789 -0.0652227 0
M  V30 5038 H 467.632 -2.00036 0.429739 0
M  V30 5039 H 467.642 -3.9393 -1.06223 0
M  V30 5040 H 466.317 -4.15843 0.069096 0
M  V30 5041 H 464.894 -3.37479 -1.58626 0
M  V30 5042 N 467.08 -0.0183926 -1.57589 0
M  V30 5043 C 468.491 0.521927 -1.79256 0
M  V30 5044 C 468.842 1.72885 -0.927636 0
M  V30 5045 O 467.967 2.15978 -0.135091 0
M  V30 5046 C 468.562 0.953632 -3.25102 0
M  V30 5047 C 467.121 1.43913 -3.47801 0
M  V30 5048 C 466.268 0.398837 -2.74417 0
M  V30 5049 H 469.219 -0.244485 -1.56805 0
M  V30 5050 H 469.24 1.81863 -3.34224 0
M  V30 5051 H 468.752 0.0750123 -3.88028 0
M  V30 5052 H 466.853 2.33804 -2.90115 0
M  V30 5053 H 466.966 1.45391 -4.56507 0
M  V30 5054 H 465.33 0.864572 -2.39577 0
M  V30 5055 H 466.113 -0.471132 -3.40052 0
M  V30 5056 N 468.558 1.5553 0.254621 0
M  V30 5057 C 469.805 1.77 0.983736 0
M  V30 5058 C 470.133 0.58133 1.85609 0
M  V30 5059 O 469.388 -0.435621 1.9079 0
M  V30 5060 C 469.687 3.03891 1.88109 0
M  V30 5061 C 469.353 4.35597 1.16472 0
M  V30 5062 C 468.015 4.7139 0.966714 0
M  V30 5063 C 470.367 5.1705 0.656387 0
M  V30 5064 C 467.695 5.86176 0.247942 0
M  V30 5065 C 470.047 6.32581 -0.0488807 0
M  V30 5066 C 468.711 6.67 -0.258438 0
M  V30 5067 H 467.981 0.647688 0.359974 0
M  V30 5068 H 470.628 1.89802 0.254463 0
M  V30 5069 H 468.933 2.86068 2.67717 0
M  V30 5070 H 470.63 3.17701 2.44677 0
M  V30 5071 H 467.22 4.07475 1.32899 0
M  V30 5072 H 471.404 4.8986 0.796933 0
M  V30 5073 H 466.66 6.11354 0.075035 0
M  V30 5074 H 470.834 6.94942 -0.450444 0
M  V30 5075 H 468.461 7.55793 -0.817358 0
M  V30 5076 N 470.036 -0.519951 1.48776 0
M  V30 5077 C 471.261 -1.30447 1.6124 0
M  V30 5078 C 471.686 -1.86055 0.276591 0
M  V30 5079 O 471.044 -1.64915 -0.753183 0
M  V30 5080 C 471.092 -2.42406 2.66967 0
M  V30 5081 O 470.196 -3.45728 2.24824 0
M  V30 5082 H 469.537 -0.385924 0.540332 0
M  V30 5083 H 472.067 -0.624572 1.94834 0
M  V30 5084 H 472.077 -2.88447 2.88552 0
M  V30 5085 H 470.752 -2.01294 3.63941 0
M  V30 5086 H 469.329 -3.05737 2.13494 0
M  V30 5087 N 471.514 -1.37532 -0.769588 0
M  V30 5088 C 472.762 -1.32597 -1.5252 0
M  V30 5089 C 473.083 0.0884294 -1.94799 0
M  V30 5090 O 472.353 1.03289 -1.66458 0
M  V30 5091 H 470.933 -0.487846 -0.565699 0
M  V30 5092 H 473.595 -1.72044 -0.915806 0
M  V30 5093 H 472.691 -1.96643 -2.42359 0
M  V30 5094 N 472.992 0.995999 -1.22138 0
M  V30 5095 C 474.403 1.54961 -1.04135 0
M  V30 5096 C 474.754 1.92159 0.396147 0
M  V30 5097 O 473.879 1.74435 1.28069 0
M  V30 5098 C 474.474 2.81581 -1.88408 0
M  V30 5099 C 473.033 3.33396 -1.74712 0
M  V30 5100 C 472.18 2.06509 -1.85066 0
M  V30 5101 H 475.131 0.817436 -1.36028 0
M  V30 5102 H 475.152 3.53822 -1.39966 0
M  V30 5103 H 474.664 2.54476 -2.93025 0
M  V30 5104 H 472.765 3.65416 -0.728159 0
M  V30 5105 H 472.878 4.04208 -2.57202 0
M  V30 5106 H 471.242 2.19925 -1.28472 0
M  V30 5107 H 472.025 1.81804 -2.91208 0
M  V30 5108 N 474.47 1.03057 1.19235 0
M  V30 5109 C 475.698 0.747697 1.92917 0
M  V30 5110 C 476.113 -0.69372 1.75593 0
M  V30 5111 O 475.47 -1.47191 1.07894 0
M  V30 5112 C 475.521 1.09159 3.44625 0
M  V30 5113 O 475.242 2.47641 3.61394 0
M  V30 5114 C 476.743 0.831763 4.35427 0
M  V30 5115 H 473.963 0.273453 0.612751 0
M  V30 5116 H 476.507 1.37552 1.51327 0
M  V30 5117 H 474.662 0.508919 3.84043 0
M  V30 5118 H 475.076 2.60499 4.55237 0
M  V30 5119 H 476.55 1.12233 5.4047 0
M  V30 5120 H 477.027 -0.233769 4.38577 0
M  V30 5121 H 477.633 1.39725 4.01693 0
M  V30 5122 N 475.948 -1.35272 0.808662 0
M  V30 5123 C 477.225 -1.93077 0.313181 0
M  V30 5124 C 477.605 -1.73847 -1.19752 0
M  V30 5125 O 476.953 -1.1087 -1.998 0
M  V30 5126 C 477.163 -3.41347 0.726859 0
M  V30 5127 C 478.511 -4.18493 0.717532 0
M  V30 5128 O 479.535 -3.4987 0.668535 0
M  V30 5129 O 478.394 -5.40937 0.777779 0
M  V30 5130 H 475.488 -0.822885 0.0824018 0
M  V30 5131 H 478.034 -1.44335 0.892499 0
M  V30 5132 H 476.806 -3.49082 1.76797 0
M  V30 5133 H 476.429 -3.97411 0.122461 0
M  V30 5134 N 477.426 -0.562348 -1.47226 0
M  V30 5135 C 478.837 -0.130325 -1.86245 0
M  V30 5136 C 479.188 1.30128 -1.46838 0
M  V30 5137 O 478.313 1.97974 -0.873805 0
M  V30 5138 C 478.908 -0.229738 -3.3802 0
M  V30 5139 C 477.467 0.14728 -3.76112 0
M  V30 5140 C 476.614 -0.574971 -2.71274 0
M  V30 5141 H 479.565 -0.771773 -1.3867 0
M  V30 5142 H 479.586 0.550316 -3.76499 0
M  V30 5143 H 479.098 -1.27178 -3.66671 0
M  V30 5144 H 477.199 1.19023 -3.53078 0
M  V30 5145 H 477.312 -0.214858 -4.78618 0
M  V30 5146 H 475.676 -0.0174756 -2.54694 0
M  V30 5147 H 476.459 -1.61827 -3.02766 0
M  V30 5148 N 478.904 1.54736 -0.299062 0
M  V30 5149 C 480.32 1.59507 0.0543849 0
M  V30 5150 C 480.52 1.31606 1.52585 0
M  V30 5151 O 479.576 1.08853 2.27832 0
M  V30 5152 C 480.889 2.98751 -0.34181 0
M  V30 5153 C 482.437 3.1165 -0.290414 0
M  V30 5154 C 482.912 4.53199 -0.661402 0
M  V30 5155 N 484.403 4.59114 -0.613863 0
M  V30 5156 C 485.138 5.66709 -0.873417 0
M  V30 5157 N 484.634 6.82349 -1.19884 0
M  V30 5158 N 486.427 5.56369 -0.800608 0
M  V30 5159 H 478.578 1.71133 -1.25806 0
M  V30 5160 H 480.841 0.799186 -0.509908 0
M  V30 5161 H 480.547 3.24085 -1.36608 0
M  V30 5162 H 480.421 3.75961 0.305508 0
M  V30 5163 H 482.808 2.86066 0.724605 0
M  V30 5164 H 482.889 2.366 -0.972327 0
M  V30 5165 H 482.533 4.79513 -1.67422 0
M  V30 5166 H 482.463 5.26583 0.0425612 0
M  V30 5167 H 484.954 3.76053 -0.3732 0
M  V30 5168 H 485.267 7.60326 -1.38291 0
M  V30 5169 H 483.612 6.83906 -1.23685 0
M  V30 5170 H 486.803 4.64904 -0.546045 0
M  V30 5171 H 486.976 6.40139 -1.00626 0
M  V30 5172 N 480.382 0.0267497 1.57577 0
M  V30 5173 C 481.793 -0.512413 1.79531 0
M  V30 5174 C 482.144 -1.72391 0.936791 0
M  V30 5175 O 481.269 -2.15903 0.146543 0
M  V30 5176 C 481.864 -0.936378 3.25603 0
M  V30 5177 C 480.423 -1.42067 3.4856 0
M  V30 5178 C 479.57 -0.384278 2.74624 0
M  V30 5179 H 482.521 0.252797 1.56674 0
M  V30 5180 H 482.542 -1.80088 3.35184 0
M  V30 5181 H 482.054 -0.0544332 3.88062 0
M  V30 5182 H 480.155 -2.32262 2.9135 0
M  V30 5183 H 480.268 -1.42968 4.57271 0
M  V30 5184 H 478.632 -0.851855 2.40032 0
M  V30 5185 H 479.415 0.489159 3.39797 0
M  V30 5186 N 481.861 -1.55662 -0.24637 0
M  V30 5187 C 483.272 -1.67953 -0.81539 0
M  V30 5188 C 483.623 -0.624302 -1.86002 0
M  V30 5189 O 482.748 0.229328 -2.15181 0
M  V30 5190 C 483.343 -3.04484 -1.48576 0
M  V30 5191 C 481.902 -3.18713 -2.00248 0
M  V30 5192 C 481.049 -2.6383 -0.853766 0
M  V30 5193 H 484 -1.58685 -0.0221692 0
M  V30 5194 H 484.021 -2.98959 -2.3538 0
M  V30 5195 H 483.533 -3.81264 -0.725222 0
M  V30 5196 H 481.634 -2.46757 -2.79181 0
M  V30 5197 H 481.747 -4.25628 -2.1995 0
M  V30 5198 H 480.111 -2.21667 -1.25442 0
M  V30 5199 H 480.894 -3.43135 -0.106302 0
M  V30 5200 N 483.339 0.512053 -1.4905 0
M  V30 5201 C 484.75 1.09376 -1.51307 0
M  V30 5202 C 485.101 1.94 -0.292971 0
M  V30 5203 O 484.226 2.07965 0.598277 0
M  V30 5204 C 484.821 1.99031 -2.74176 0
M  V30 5205 C 483.38 2.52385 -2.79247 0
M  V30 5206 C 482.527 1.29749 -2.45073 0
M  V30 5207 H 485.478 0.296467 -1.55906 0
M  V30 5208 H 485.499 2.83569 -2.53711 0
M  V30 5209 H 485.011 1.37412 -3.62959 0
M  V30 5210 H 483.112 3.17673 -1.94716 0
M  V30 5211 H 483.225 2.90293 -3.81139 0
M  V30 5212 H 481.589 1.61912 -1.96612 0
M  V30 5213 H 482.372 0.698555 -3.36118 0
M  V30 5214 N 484.817 1.37938 0.762283 0
M  V30 5215 C 486.233 1.18945 1.06415 0
M  V30 5216 C 486.433 0.0321163 2.01474 0
M  V30 5217 O 485.489 -0.624844 2.44647 0
M  V30 5218 C 486.802 2.51218 1.65258 0
M  V30 5219 C 488.35 2.57824 1.7747 0
M  V30 5220 C 488.825 3.90251 2.39725 0
M  V30 5221 N 490.316 3.91744 2.47166 0
M  V30 5222 C 491.051 4.90966 2.96209 0
M  V30 5223 N 490.547 6.00585 3.45354 0
M  V30 5224 N 492.34 4.78363 2.9517 0
M  V30 5225 H 484.491 2.11994 0.131301 0
M  V30 5226 H 486.754 0.940262 0.120879 0
M  V30 5227 H 486.46 3.36317 1.02878 0
M  V30 5228 H 486.334 2.68989 2.64433 0
M  V30 5229 H 488.721 1.73126 2.3898 0
M  V30 5230 H 488.802 2.43928 0.770241 0
M  V30 5231 H 488.446 4.75368 1.78852 0
M  V30 5232 H 488.376 4.01454 3.40796 0
M  V30 5233 H 490.867 3.12563 2.12397 0
M  V30 5234 H 491.18 6.72236 3.81207 0
M  V30 5235 H 489.525 6.04217 3.43434 0
M  V30 5236 H 492.716 3.91841 2.56082 0
M  V30 5237 H 492.889 5.55843 3.33081 0
M  V30 5238 N 486.295 -0.989507 1.22664 0
M  V30 5239 C 487.711 -1.25395 0.987331 0
M  V30 5240 C 487.911 -1.9899 -0.317056 0
M  V30 5241 O 486.967 -2.30141 -1.03882 0
M  V30 5242 C 488.28 -2.06242 2.18826 0
M  V30 5243 C 489.828 -2.19413 2.23219 0
M  V30 5244 C 490.303 -3.03648 3.42873 0
M  V30 5245 N 491.794 -3.11234 3.43056 0
M  V30 5246 C 492.529 -3.7671 4.32293 0
M  V30 5247 N 492.025 -4.44085 5.31752 0
M  V30 5248 N 493.818 -3.73505 4.2006 0
M  V30 5249 H 485.969 -0.496212 2.06522 0
M  V30 5250 H 488.232 -0.281784 0.905153 0
M  V30 5251 H 487.938 -1.59531 3.13437 0
M  V30 5252 H 487.812 -3.06996 2.19165 0
M  V30 5253 H 490.199 -2.65336 1.29154 0
M  V30 5254 H 490.28 -1.18078 2.26917 0
M  V30 5255 H 489.924 -2.58424 4.37241 0
M  V30 5256 H 489.854 -4.05132 3.36416 0
M  V30 5257 H 492.345 -2.63287 2.71088 0
M  V30 5258 H 492.658 -4.91797 5.96117 0
M  V30 5259 H 491.003 -4.42822 5.35662 0
M  V30 5260 H 494.194 -3.20033 3.41609 0
M  V30 5261 H 494.367 -4.24253 4.8981 0
M  V30 5262 N 487.773 -1.03688 -1.18687 0
M  V30 5263 C 489.022 -0.733235 -1.879 0
M  V30 5264 C 489.335 0.741745 -1.8099 0
M  V30 5265 O 490.541 1.15875 -2.4553 0
M  V30 5266 C 488.997 -1.26127 -3.37076 0
M  V30 5267 C 488.605 -2.76461 -3.52524 0
M  V30 5268 C 490.349 -1.03398 -4.11715 0
M  V30 5269 C 488.256 -3.22642 -4.95637 0
M  V30 5270 H 487.186 -0.270584 -0.703776 0
M  V30 5271 H 489.837 -1.25222 -1.34133 0
M  V30 5272 H 488.219 -0.670165 -3.90288 0
M  V30 5273 H 489.393 -3.41296 -3.09602 0
M  V30 5274 H 487.708 -2.97559 -2.91286 0
M  V30 5275 H 490.305 -1.3542 -5.17267 0
M  V30 5276 H 490.648 0.0289246 -4.1629 0
M  V30 5277 H 491.181 -1.5895 -3.64664 0
M  V30 5278 H 487.92 -4.28296 -4.96228 0
M  V30 5279 H 487.44 -2.62539 -5.39289 0
M  V30 5280 H 489.119 -3.16444 -5.64333 0
M  V30 5281 N 489.251 1.34841 -0.815825 0
M  V30 5282 C 490.214 2.27959 -0.238185 0
M  V30 5283 C 491.214 1.49983 0.579816 0
M  V30 5284 O 492.404 1.69617 0.396953 0
M  V30 5285 C 489.536 3.34314 0.666876 0
M  V30 5286 H 490.729 2.80558 -1.05958 0
M  V30 5287 H 488.282 1.44852 -0.587156 0
M  V30 5288 H 489.017 2.86916 1.5116 0
M  V30 5289 H 488.802 3.92014 0.0819106 0
M  V30 5290 H 490.292 4.0379 1.06506 0
M  V30 5291 N 490.729 0.570148 1.46925 0
M  V30 5292 C 491.975 0.0510284 2.02736 0
M  V30 5293 C 492.308 -1.3006 1.44215 0
M  V30 5294 O 491.583 -1.84932 0.602521 0
M  V30 5295 C 491.866 -0.028215 3.60089 0
M  V30 5296 C 491.719 1.35142 4.29018 0
M  V30 5297 C 493.038 -0.735181 4.33916 0
M  V30 5298 H 490.157 0.0200178 0.736728 0
M  V30 5299 H 492.799 0.73493 1.75211 0
M  V30 5300 H 490.949 -0.610648 3.83671 0
M  V30 5301 H 492.621 1.97806 4.16738 0
M  V30 5302 H 490.864 1.9226 3.88868 0
M  V30 5303 H 491.535 1.24857 5.37694 0
M  V30 5304 H 494.011 -0.240519 4.15404 0
M  V30 5305 H 492.887 -0.759622 5.43618 0
M  V30 5306 H 493.148 -1.79397 4.04066 0
M  V30 5307 N 492.207 -1.54576 0.307264 0
M  V30 5308 C 493.618 -1.8579 -0.184121 0
M  V30 5309 C 493.969 -1.22914 -1.52927 0
M  V30 5310 O 493.094 -0.529126 -2.09831 0
M  V30 5311 C 493.689 -3.37081 -0.340862 0
M  V30 5312 C 492.248 -3.68304 -0.776465 0
M  V30 5313 C 491.395 -2.77076 0.111503 0
M  V30 5314 H 494.346 -1.49656 0.528078 0
M  V30 5315 H 494.367 -3.61922 -1.17443 0
M  V30 5316 H 493.879 -3.82815 0.638309 0
M  V30 5317 H 491.98 -3.28092 -1.76596 0
M  V30 5318 H 492.093 -4.75434 -0.591512 0
M  V30 5319 H 490.457 -2.51374 -0.410256 0
M  V30 5320 H 491.24 -3.25632 1.08714 0
M  V30 5321 N 493.685 -0.035106 -1.57561 0
M  V30 5322 C 494.91 0.655802 -1.96759 0
M  V30 5323 C 495.335 1.64523 -0.911809 0
M  V30 5324 O 494.693 1.80857 0.126673 0
M  V30 5325 C 494.741 1.33326 -3.35047 0
M  V30 5326 O 493.845 2.44866 -3.31835 0
M  V30 5327 H 493.186 0.171807 -0.641388 0
M  V30 5328 H 495.716 -0.0987369 -2.04362 0
M  V30 5329 H 495.726 1.68867 -3.71413 0
M  V30 5330 H 494.401 0.608033 -4.11431 0
M  V30 5331 H 492.978 2.11392 -3.07193 0
M  V30 5332 N 495.163 1.55791 0.238111 0
M  V30 5333 C 496.579 1.48411 0.587045 0
M  V30 5334 C 496.779 0.72702 1.87927 0
M  V30 5335 O 495.835 0.259942 2.51158 0
M  V30 5336 C 497.148 2.92873 0.681623 0
M  V30 5337 C 498.696 3.03295 0.773363 0
M  V30 5338 C 499.171 4.49082 0.899428 0
M  V30 5339 N 500.662 4.53056 0.964075 0
M  V30 5340 C 501.397 5.63117 1.08104 0
M  V30 5341 N 500.893 6.82969 1.16299 0
M  V30 5342 N 502.686 5.50933 1.11488 0
M  V30 5343 H 494.837 2.0345 -0.610076 0
M  V30 5344 H 497.1 0.924034 -0.211813 0
M  V30 5345 H 496.806 3.51142 -0.19802 0
M  V30 5346 H 496.68 3.43851 1.55069 0
M  V30 5347 H 499.067 2.45101 1.64346 0
M  V30 5348 H 499.148 2.55513 -0.121034 0
M  V30 5349 H 498.792 5.07889 0.0338586 0
M  V30 5350 H 498.722 4.94553 1.809 0
M  V30 5351 H 501.213 3.66737 0.91173 0
M  V30 5352 H 501.526 7.62598 1.25155 0
M  V30 5353 H 499.871 6.85712 1.13241 0
M  V30 5354 H 503.062 4.56231 1.0474 0
M  V30 5355 H 503.235 6.36743 1.20259 0
M  V30 5356 N 496.642 -0.504142 1.49319 0
M  V30 5357 C 497.867 -1.28729 1.62615 0
M  V30 5358 C 498.292 -1.85752 0.296309 0
M  V30 5359 O 497.65 -1.65704 -0.735649 0
M  V30 5360 C 497.698 -2.39561 2.69524 0
M  V30 5361 O 496.802 -3.43324 2.28478 0
M  V30 5362 H 496.143 -0.380172 0.544395 0
M  V30 5363 H 498.673 -0.603872 1.95485 0
M  V30 5364 H 498.683 -2.8537 2.91595 0
M  V30 5365 H 497.358 -1.97423 3.66056 0
M  V30 5366 H 495.935 -3.03455 2.16725 0
M  V30 5367 N 498.12 -1.38341 -0.754957 0
M  V30 5368 C 499.345 -1.37882 -1.5493 0
M  V30 5369 C 499.77 0.0296385 -1.88077 0
M  V30 5370 O 499.128 1.01133 -1.50472 0
M  V30 5371 C 499.176 -2.23996 -2.82592 0
M  V30 5372 O 498.28 -1.65612 -3.77686 0
M  V30 5373 H 497.621 -0.470384 -0.468652 0
M  V30 5374 H 500.151 -1.82084 -0.933082 0
M  V30 5375 H 500.161 -2.37806 -3.3153 0
M  V30 5376 H 498.836 -3.26365 -2.57796 0
M  V30 5377 H 497.413 -1.60936 -3.36384 0
M  V30 5378 N 499.598 0.982988 -1.23187 0
M  V30 5379 C 500.561 2.05649 -1.01198 0
M  V30 5380 C 501.561 1.6078 0.0252464 0
M  V30 5381 O 502.751 1.72878 -0.214243 0
M  V30 5382 C 499.883 3.36744 -0.530656 0
M  V30 5383 H 501.076 2.2659 -1.96461 0
M  V30 5384 H 498.629 1.15602 -1.05195 0
M  V30 5385 H 499.364 3.21492 0.425873 0
M  V30 5386 H 499.149 3.7065 -1.2791 0
M  V30 5387 H 500.639 4.15705 -0.397366 0
M  V30 5388 N 501.076 1.04316 1.18135 0
M  V30 5389 C 502.301 0.768047 1.92655 0
M  V30 5390 C 502.726 -0.66904 1.758 0
M  V30 5391 O 502.084 -1.46372 1.06981 0
M  V30 5392 C 502.132 1.14239 3.42026 0
M  V30 5393 O 501.236 0.269333 4.1152 0
M  V30 5394 H 500.577 0.282436 0.600937 0
M  V30 5395 H 503.107 1.39367 1.49793 0
M  V30 5396 H 503.117 1.10538 3.92741 0
M  V30 5397 H 501.792 2.18928 3.53615 0
M  V30 5398 H 500.369 0.366175 3.71098 0
M  V30 5399 N 502.554 -1.34406 0.822964 0
M  V30 5400 C 503.8 -1.98578 0.411666 0
M  V30 5401 C 504.133 -1.65093 -1.02264 0
M  V30 5402 O 503.408 -0.92258 -1.71227 0
M  V30 5403 C 503.691 -3.54823 0.614235 0
M  V30 5404 C 503.544 -3.9805 2.09466 0
M  V30 5405 C 504.863 -4.40071 0.050221 0
M  V30 5406 H 501.982 -0.721355 0.151047 0
M  V30 5407 H 504.624 -1.59301 1.03554 0
M  V30 5408 H 502.774 -3.88411 0.0831774 0
M  V30 5409 H 504.446 -3.74795 2.68936 0
M  V30 5410 H 502.689 -3.4836 2.5851 0
M  V30 5411 H 503.36 -5.06819 2.18721 0
M  V30 5412 H 505.836 -4.13037 0.503953 0
M  V30 5413 H 504.712 -5.48452 0.221759 0
M  V30 5414 H 504.973 -4.29576 -1.04482 0
M  V30 5415 N 504.032 -0.577932 -1.46621 0
M  V30 5416 C 505.443 -0.150071 -1.86096 0
M  V30 5417 C 505.794 1.28563 -1.48209 0
M  V30 5418 O 504.919 1.97036 -0.894754 0
M  V30 5419 C 505.514 -0.265576 -3.37758 0
M  V30 5420 C 504.073 0.10738 -3.76247 0
M  V30 5421 C 503.22 -0.603711 -2.70649 0
M  V30 5422 H 506.171 -0.786438 -1.37844 0
M  V30 5423 H 506.192 0.510352 -3.77062 0
M  V30 5424 H 505.704 -1.3106 -3.65301 0
M  V30 5425 H 503.805 1.15272 -3.54321 0
M  V30 5426 H 503.918 -0.26561 -4.78363 0
M  V30 5427 H 502.282 -0.0444884 -2.54661 0
M  V30 5428 H 503.065 -1.65029 -3.01032 0
M  V30 5429 N 505.51 1.54411 -0.315457 0
M  V30 5430 C 506.457 2.24048 0.554166 0
M  V30 5431 C 507.427 1.2283 1.11812 0
M  V30 5432 O 508.612 1.51491 1.15997 0
M  V30 5433 C 505.752 2.99574 1.71316 0
M  V30 5434 C 504.865 4.15594 1.17922 0
M  V30 5435 C 504 4.78669 2.30324 0
M  V30 5436 C 503.039 5.86807 1.74137 0
M  V30 5437 N 502.176 6.43777 2.8017 0
M  V30 5438 H 507.016 2.97964 -0.0462602 0
M  V30 5439 H 504.553 1.47059 -0.0346009 0
M  V30 5440 H 506.511 3.41604 2.39505 0
M  V30 5441 H 505.141 2.28008 2.285 0
M  V30 5442 H 504.193 3.78404 0.389136 0
M  V30 5443 H 505.505 4.93459 0.728012 0
M  V30 5444 H 504.659 5.23626 3.06433 0
M  V30 5445 H 503.398 4.00168 2.78778 0
M  V30 5446 H 502.403 5.41261 0.965236 0
M  V30 5447 H 503.628 6.67201 1.2657 0
M  V30 5448 H 501.574 5.68153 3.2793 0
M  V30 5449 H 501.491 7.17031 2.39588 0
M  V30 5450 H 502.759 6.9339 3.56132 0
M  V30 5451 N 506.988 0.0434614 1.5754 0
M  V30 5452 C 508.399 -0.493343 1.80064 0
M  V30 5453 C 508.75 -1.71388 0.955023 0
M  V30 5454 O 507.875 -2.15736 0.169434 0
M  V30 5455 C 508.47 -0.90179 3.26578 0
M  V30 5456 C 507.029 -1.38362 3.50047 0
M  V30 5457 C 506.176 -0.355129 2.75017 0
M  V30 5458 H 509.127 0.2694 1.56397 0
M  V30 5459 H 509.148 -1.76523 3.37075 0
M  V30 5460 H 508.66 -0.013271 3.88098 0
M  V30 5461 H 506.761 -2.29159 2.93798 0
M  V30 5462 H 506.874 -1.3811 4.58762 0
M  V30 5463 H 505.238 -0.826348 2.40922 0
M  V30 5464 H 506.021 0.525172 3.39259 0
M  V30 5465 N 508.466 -1.55915 -0.229846 0
M  V30 5466 C 509.429 -1.90914 -1.26824 0
M  V30 5467 C 510.429 -0.786999 -1.40225 0
M  V30 5468 O 511.619 -1.05484 -1.38632 0
M  V30 5469 C 508.751 -2.15264 -2.64337 0
M  V30 5470 H 509.944 -2.8378 -0.969998 0
M  V30 5471 H 507.497 -1.49069 -0.4699 0
M  V30 5472 H 508.232 -1.24923 -2.99274 0
M  V30 5473 H 508.017 -2.97005 -2.55989 0
M  V30 5474 H 509.507 -2.43467 -3.39284 0
M  V30 5475 N 509.944 0.496216 -1.49584 0
M  V30 5476 C 511.355 1.07765 -1.52459 0
M  V30 5477 C 511.706 1.93679 -0.31353 0
M  V30 5478 O 510.831 2.08588 0.576186 0
M  V30 5479 C 511.426 1.96111 -2.76271 0
M  V30 5480 C 509.985 2.49409 -2.81908 0
M  V30 5481 C 509.132 1.27142 -2.46435 0
M  V30 5482 H 512.083 0.279914 -1.56212 0
M  V30 5483 H 512.104 2.80862 -2.56704 0
M  V30 5484 H 511.616 1.33555 -3.64396 0
M  V30 5485 H 509.717 3.1559 -1.98074 0
M  V30 5486 H 509.83 2.86234 -3.84196 0
M  V30 5487 H 508.194 1.59818 -1.98319 0
M  V30 5488 H 508.977 0.662866 -3.3684 0
M  V30 5489 N 511.423 1.38739 0.74761 0
M  V30 5490 C 512.355 1.32341 1.87132 0
M  V30 5491 C 513.368 0.234502 1.61102 0
M  V30 5492 O 514.557 0.492516 1.71571 0
M  V30 5493 C 511.657 1.02915 3.22896 0
M  V30 5494 C 510.83 2.22834 3.76383 0
M  V30 5495 C 509.889 1.90059 4.90677 0
M  V30 5496 O 508.915 2.62615 5.04997 0
M  V30 5497 N 510.117 0.859141 5.74107 0
M  V30 5498 H 512.882 2.29175 1.93129 0
M  V30 5499 H 510.443 1.32678 0.927805 0
M  V30 5500 H 512.435 0.79031 3.96908 0
M  V30 5501 H 511.005 0.148572 3.12247 0
M  V30 5502 H 510.225 2.62747 2.93867 0
M  V30 5503 H 511.513 3.02851 4.08851 0
M  V30 5504 H 510.911 0.257564 5.65113 0
M  V30 5505 H 509.468 0.680189 6.48241 0
M  V30 5506 N 512.901 -0.976442 1.23707 0
M  V30 5507 C 514.312 -1.53284 1.06587 0
M  V30 5508 C 514.663 -1.92765 -0.365526 0
M  V30 5509 O 513.788 -1.7645 -1.25277 0
M  V30 5510 C 514.383 -2.78548 1.92864 0
M  V30 5511 C 512.942 -3.30574 1.79994 0
M  V30 5512 C 512.089 -2.03538 1.88328 0
M  V30 5513 H 515.04 -0.795692 1.37311 0
M  V30 5514 H 515.061 -3.5155 1.45577 0
M  V30 5515 H 514.573 -2.49782 2.97037 0
M  V30 5516 H 512.674 -3.64211 0.786202 0
M  V30 5517 H 512.787 -4.00065 2.636 0
M  V30 5518 H 511.151 -2.17853 1.31954 0
M  V30 5519 H 511.934 -1.77149 2.94063 0
M  V30 5520 N 514.379 -1.04941 -1.1758 0
M  V30 5521 C 515.609 -0.777166 -1.91425 0
M  V30 5522 C 516.017 0.670647 -1.76915 0
M  V30 5523 O 515.36 1.46965 -1.10213 0
M  V30 5524 C 515.422 -1.07495 -3.43052 0
M  V30 5525 C 515.086 -2.51844 -3.81345 0
M  V30 5526 C 516.083 -3.50047 -3.844 0
M  V30 5527 C 513.768 -2.86787 -4.12382 0
M  V30 5528 C 515.762 -4.81239 -4.17957 0
M  V30 5529 C 513.449 -4.18182 -4.45608 0
M  V30 5530 C 514.447 -5.15219 -4.48373 0
M  V30 5531 O 514.135 -6.44258 -4.80819 0
M  V30 5532 H 513.867 -0.282209 -0.614275 0
M  V30 5533 H 516.421 -1.40258 -1.50056 0
M  V30 5534 H 514.651 -0.392437 -3.84704 0
M  V30 5535 H 516.34 -0.78912 -3.98155 0
M  V30 5536 H 517.106 -3.24391 -3.60548 0
M  V30 5537 H 512.985 -2.11922 -4.09402 0
M  V30 5538 H 516.529 -5.56974 -4.2003 0
M  V30 5539 H 512.426 -4.43602 -4.68922 0
M  V30 5540 H 513.194 -6.49041 -4.98686 0
M  V30 5541 N 515.857 1.33968 -0.830081 0
M  V30 5542 C 517.268 1.80439 -0.479455 0
M  V30 5543 C 517.619 1.68756 1.00079 0
M  V30 5544 O 516.744 1.23171 1.77927 0
M  V30 5545 C 517.339 3.27611 -0.863505 0
M  V30 5546 C 515.898 3.72133 -0.565145 0
M  V30 5547 C 515.045 2.55549 -1.07657 0
M  V30 5548 H 517.996 1.21614 -1.0196 0
M  V30 5549 H 518.017 3.8012 -0.170083 0
M  V30 5550 H 517.529 3.36082 -1.94089 0
M  V30 5551 H 515.63 3.69196 0.502536 0
M  V30 5552 H 515.743 4.65963 -1.11422 0
M  V30 5553 H 514.107 2.49788 -0.497807 0
M  V30 5554 H 514.89 2.66786 -2.16055 0
M  V30 5555 N 517.335 0.585699 1.46312 0
M  V30 5556 C 518.582 0.0724211 2.0237 0
M  V30 5557 C 518.91 -1.28868 1.45683 0
M  V30 5558 O 518.165 -1.85853 0.612945 0
M  V30 5559 C 518.464 -0.0401312 3.57377 0
M  V30 5560 C 518.13 1.25376 4.33119 0
M  V30 5561 C 516.792 1.60824 4.5353 0
M  V30 5562 C 519.144 2.10987 4.76586 0
M  V30 5563 C 516.472 2.81676 5.14661 0
M  V30 5564 C 518.824 3.31068 5.39052 0
M  V30 5565 C 517.488 3.66794 5.5769 0
M  V30 5566 H 516.758 0.0265007 0.740526 0
M  V30 5567 H 519.405 0.762935 1.75646 0
M  V30 5568 H 517.71 -0.813791 3.83255 0
M  V30 5569 H 519.407 -0.453078 3.98432 0
M  V30 5570 H 515.997 0.967808 4.1753 0
M  V30 5571 H 520.181 1.84904 4.60569 0
M  V30 5572 H 515.437 3.0949 5.27282 0
M  V30 5573 H 519.611 3.97672 5.71691 0
M  V30 5574 H 517.238 4.60529 6.04828 0
M  V30 5575 N 518.813 -1.54241 0.323641 0
M  V30 5576 C 520.041 -2.04985 -0.280871 0
M  V30 5577 C 520.456 -1.19978 -1.45777 0
M  V30 5578 O 519.813 -0.230471 -1.81039 0
M  V30 5579 C 519.864 -3.54353 -0.715258 0
M  V30 5580 O 519.585 -4.36132 0.414817 0
M  V30 5581 C 521.086 -4.21189 -1.38257 0
M  V30 5582 H 518.306 -0.66851 -0.0577502 0
M  V30 5583 H 520.85 -1.99029 0.469852 0
M  V30 5584 H 519.005 -3.60596 -1.41596 0
M  V30 5585 H 519.419 -5.2445 0.0725227 0
M  V30 5586 H 520.893 -5.27154 -1.63745 0
M  V30 5587 H 521.37 -3.72307 -2.32989 0
M  V30 5588 H 521.976 -4.19085 -0.724447 0
M  V30 5589 N 520.291 -0.0518155 -1.57515 0
M  V30 5590 C 521.516 0.634896 -1.97443 0
M  V30 5591 C 521.941 1.63546 -0.929207 0
M  V30 5592 O 521.299 1.80981 0.107484 0
M  V30 5593 C 521.347 1.29765 -3.36442 0
M  V30 5594 O 520.451 2.41333 -3.34413 0
M  V30 5595 H 519.792 0.164994 -0.643174 0
M  V30 5596 H 522.322 -0.120407 -2.04245 0
M  V30 5597 H 522.332 1.64918 -3.73184 0
M  V30 5598 H 521.007 0.564361 -4.12053 0
M  V30 5599 H 519.584 2.08122 -3.09418 0
M  V30 5600 N 521.769 1.56035 0.221574 0
M  V30 5601 C 522.994 1.83476 0.967026 0
M  V30 5602 C 523.419 0.632139 1.7716 0
M  V30 5603 O 522.777 -0.419082 1.7639 0
M  V30 5604 C 522.825 3.08907 1.86034 0
M  V30 5605 O 521.929 2.876 2.95567 0
M  V30 5606 H 521.27 0.604913 0.273817 0
M  V30 5607 H 523.8 2.03247 0.234893 0
M  V30 5608 H 523.81 3.3901 2.27016 0
M  V30 5609 H 522.485 3.96068 1.26898 0
M  V30 5610 H 521.062 2.6873 2.58532 0
M  V30 5611 N 523.247 -0.488276 1.49845 0
M  V30 5612 C 524.177 -1.59675 1.70371 0
M  V30 5613 C 525.158 -1.60878 0.552473 0
M  V30 5614 O 526.343 -1.77417 0.78973 0
M  V30 5615 C 523.473 -2.98098 1.782 0
M  V30 5616 C 522.427 -3.11761 2.93239 0
M  V30 5617 C 521.753 -4.51661 2.86193 0
M  V30 5618 C 523.053 -2.90589 4.33999 0
M  V30 5619 H 524.747 -1.42752 2.63177 0
M  V30 5620 H 522.293 -0.685317 1.26647 0
M  V30 5621 H 524.246 -3.75555 1.91144 0
M  V30 5622 H 522.97 -3.16138 0.820018 0
M  V30 5623 H 521.629 -2.36732 2.79917 0
M  V30 5624 H 521.277 -4.66595 1.87877 0
M  V30 5625 H 520.977 -4.61742 3.63412 0
M  V30 5626 H 522.501 -5.31162 3.01163 0
M  V30 5627 H 523.915 -3.57807 4.47936 0
M  V30 5628 H 522.312 -3.1213 5.12538 0
M  V30 5629 H 523.382 -1.86595 4.4756 0
M  V30 5630 N 524.725 -1.39134 -0.740242 0
M  V30 5631 C 525.95 -1.39518 -1.53459 0
M  V30 5632 C 526.375 0.00968883 -1.88098 0
M  V30 5633 O 525.733 0.995312 -1.51536 0
M  V30 5634 C 525.781 -2.26981 -2.802 0
M  V30 5635 O 524.885 -1.69609 -3.75908 0
M  V30 5636 H 524.226 -0.475328 -0.463637 0
M  V30 5637 H 526.756 -1.83064 -0.913717 0
M  V30 5638 H 526.766 -2.41309 -3.28989 0
M  V30 5639 H 525.441 -3.29081 -2.5432 0
M  V30 5640 H 524.018 -1.64495 -3.34658 0
M  V30 5641 N 526.204 0.969867 -1.24223 0
M  V30 5642 C 527.432 1.74756 -1.10761 0
M  V30 5643 C 527.847 1.85713 0.340041 0
M  V30 5644 O 527.204 1.34389 1.23474 0
M  V30 5645 C 527.255 3.16915 -1.73917 0
M  V30 5646 O 526.976 3.06511 -3.13021 0
M  V30 5647 C 528.477 4.11032 -1.66036 0
M  V30 5648 H 525.697 0.548092 -0.387087 0
M  V30 5649 H 528.241 1.2178 -1.64286 0
M  V30 5650 H 526.396 3.66884 -1.244 0
M  V30 5651 H 526.81 3.96079 -3.43834 0
M  V30 5652 H 528.284 5.08446 -2.14911 0
M  V30 5653 H 528.761 4.34785 -0.621159 0
M  V30 5654 H 529.367 3.66972 -2.14969 0
M  V30 5655 N 527.682 1.05563 1.17022 0
M  V30 5656 C 528.931 0.763036 1.8671 0
M  V30 5657 C 529.244 -0.712857 1.82147 0
M  V30 5658 O 530.45 -1.11955 2.47343 0
M  V30 5659 C 528.906 1.31474 3.35026 0
M  V30 5660 C 528.514 2.82034 3.48081 0
M  V30 5661 C 530.258 1.09935 4.10018 0
M  V30 5662 C 528.165 3.30486 4.90442 0
M  V30 5663 H 527.095 0.281747 0.699382 0
M  V30 5664 H 529.746 1.2734 1.32124 0
M  V30 5665 H 528.128 0.732171 3.89173 0
M  V30 5666 H 529.302 3.46178 3.04133 0
M  V30 5667 H 527.617 3.02156 2.86515 0
M  V30 5668 H 530.214 1.43632 5.15048 0
M  V30 5669 H 530.557 0.0373072 4.16283 0
M  V30 5670 H 531.09 1.64732 3.62089 0
M  V30 5671 H 527.829 4.36137 4.89352 0
M  V30 5672 H 527.349 2.71086 5.35044 0
M  V30 5673 H 529.028 3.25382 5.59227 0
M  V30 5674 N 529.16 -1.33526 0.837174 0
M  V30 5675 C 530.108 -2.31168 0.257698 0
M  V30 5676 C 531.102 -1.5806 -0.609388 0
M  V30 5677 O 532.308 -1.72941 -0.499139 0
M  V30 5678 H 528.683 -0.74922 0.0646058 0
M  V30 5679 H 530.654 -2.77552 1.09578 0
M  V30 5680 C 529.403 -3.4326 -0.553887 0
M  V30 5681 H 528.726 -3.99665 0.104008 0
M  V30 5682 H 530.166 -4.13782 -0.925219 0
M  V30 5683 C 528.625 -2.88965 -1.73207 0
M  V30 5684 O 529.155 -2.85013 -2.83073 0
M  V30 5685 N 527.361 -2.45596 -1.55342 0
M  V30 5686 H 526.908 -2.49009 -0.659705 0
M  V30 5687 H 526.866 -2.0962 -2.34322 0
M  V30 5688 N 530.638 -0.59345 -1.46 0
M  V30 5689 C 531.868 -0.0889642 -2.06408 0
M  V30 5690 C 532.276 1.22597 -1.44106 0
M  V30 5691 O 531.619 1.75448 -0.544398 0
M  V30 5692 C 531.681 0.139902 -3.59228 0
M  V30 5693 C 531.345 -1.09107 -4.43784 0
M  V30 5694 C 532.342 -2.00577 -4.79651 0
M  V30 5695 C 530.027 -1.31593 -4.84756 0
M  V30 5696 C 532.021 -3.12873 -5.55328 0
M  V30 5697 C 529.708 -2.44192 -5.60191 0
M  V30 5698 C 530.706 -3.34661 -5.95392 0
M  V30 5699 O 530.394 -4.45302 -6.69299 0
M  V30 5700 H 530.126 -0.0594613 -0.67338 0
M  V30 5701 H 532.68 -0.817 -1.88452 0
M  V30 5702 H 530.91 0.922672 -3.75531 0
M  V30 5703 H 532.599 0.594228 -4.01527 0
M  V30 5704 H 533.365 -1.84425 -4.48567 0
M  V30 5705 H 529.244 -0.620801 -4.56801 0
M  V30 5706 H 532.788 -3.83511 -5.82722 0
M  V30 5707 H 528.685 -2.60303 -5.90688 0
M  V30 5708 H 529.453 -4.43805 -6.87735 0
M  V30 5709 N 532.116 1.54067 -0.331816 0
M  V30 5710 C 533.393 1.92915 0.322955 0
M  V30 5711 C 533.773 1.26225 1.69205 0
M  V30 5712 O 533.121 0.408919 2.24811 0
M  V30 5713 C 533.331 3.46619 0.406946 0
M  V30 5714 C 534.679 4.19386 0.663339 0
M  V30 5715 O 535.703 3.5282 0.489536 0
M  V30 5716 O 534.562 5.37288 0.999193 0
M  V30 5717 H 531.656 0.805808 0.186016 0
M  V30 5718 H 534.202 1.65342 -0.382135 0
M  V30 5719 H 532.974 3.87354 -0.554287 0
M  V30 5720 H 532.597 3.80324 1.15929 0
M  V30 5721 N 533.594 0.0601682 1.57485 0
M  V30 5722 C 534.504 -0.926121 2.15546 0
M  V30 5723 C 535.52 -1.33532 1.11558 0
M  V30 5724 O 536.696 -1.4104 1.4377 0
M  V30 5725 C 533.761 -2.17952 2.69625 0
M  V30 5726 C 532.822 -1.82783 3.88444 0
M  V30 5727 C 532.055 -3.02148 4.39935 0
M  V30 5728 O 532.278 -4.15803 3.90466 0
M  V30 5729 O 531.212 -2.82639 5.31412 0
M  V30 5730 H 535.038 -0.462289 3.00161 0
M  V30 5731 H 532.623 -0.162246 1.48516 0
M  V30 5732 H 534.505 -2.91474 3.04337 0
M  V30 5733 H 533.18 -2.63456 1.88077 0
M  V30 5734 H 532.087 -1.06549 3.58606 0
M  V30 5735 H 533.42 -1.42072 4.7125 0
M  V30 5736 N 535.072 -1.5615 -0.213296 0
M  V30 5737 C 536.319 -1.79546 -0.936462 0
M  V30 5738 C 536.647 -0.630337 -1.84003 0
M  V30 5739 O 535.902 0.384883 -1.91878 0
M  V30 5740 C 536.201 -3.08772 -1.79985 0
M  V30 5741 C 535.867 -4.38532 -1.04882 0
M  V30 5742 C 534.529 -4.73787 -0.841393 0
M  V30 5743 C 536.881 -5.18609 -0.51907 0
M  V30 5744 C 534.209 -5.86627 -0.0924403 0
M  V30 5745 C 536.561 -6.32229 0.216581 0
M  V30 5746 C 535.225 -6.6608 0.435191 0
M  V30 5747 H 534.495 -0.657004 -0.342676 0
M  V30 5748 H 537.142 -1.9041 -0.204051 0
M  V30 5749 H 535.447 -2.93065 -2.60038 0
M  V30 5750 H 537.144 -3.24077 -2.36168 0
M  V30 5751 H 533.734 -4.10855 -1.22048 0
M  V30 5752 H 537.918 -4.91801 -0.666775 0
M  V30 5753 H 533.174 -6.11338 0.087081 0
M  V30 5754 H 537.348 -6.93503 0.634538 0
M  V30 5755 H 534.975 -7.5336 1.01746 0
M  V30 5756 N 536.55 0.480323 -1.50102 0
M  V30 5757 C 537.961 1.06142 -1.53593 0
M  V30 5758 C 538.312 1.93335 -0.334055 0
M  V30 5759 O 537.437 2.09188 0.55403 0
M  V30 5760 C 538.032 1.9317 -2.78336 0
M  V30 5761 C 536.591 2.46405 -2.84538 0
M  V30 5762 C 535.738 1.24521 -2.4777 0
M  V30 5763 H 538.689 0.26333 -1.565 0
M  V30 5764 H 538.71 2.78123 -2.59669 0
M  V30 5765 H 538.222 1.29683 -3.65792 0
M  V30 5766 H 536.323 3.13472 -2.01411 0
M  V30 5767 H 536.436 2.82143 -3.87211 0
M  V30 5768 H 534.8 1.57706 -2.00003 0
M  V30 5769 H 535.583 0.627102 -3.37524 0
M  V30 5770 N 538.028 1.39524 0.732853 0
M  V30 5771 C 539.256 1.40143 1.52209 0
M  V30 5772 C 539.671 -0.00348836 1.888 0
M  V30 5773 O 539.028 -0.975357 1.5425 0
M  V30 5774 C 539.079 2.27632 2.8083 0
M  V30 5775 O 538.8 3.62654 2.45792 0
M  V30 5776 C 540.301 2.36658 3.74844 0
M  V30 5777 H 537.521 0.478604 0.470297 0
M  V30 5778 H 540.065 1.83366 0.905388 0
M  V30 5779 H 538.22 1.87818 3.38826 0
M  V30 5780 H 538.634 4.08941 3.28431 0
M  V30 5781 H 540.108 3.02118 4.61984 0
M  V30 5782 H 540.585 1.38638 4.16745 0
M  V30 5783 H 541.191 2.76951 3.22766 0
M  V30 5784 N 539.506 -0.963266 1.24736 0
M  V30 5785 C 540.439 -2.05758 0.986852 0
M  V30 5786 C 541.417 -1.62398 -0.0809272 0
M  V30 5787 O 542.601 -1.88414 0.0569347 0
M  V30 5788 C 539.728 -3.35135 0.490095 0
M  V30 5789 C 538.774 -3.97451 1.54709 0
M  V30 5790 S 539.607 -4.34519 3.12976 0
M  V30 5791 C 540.763 -5.67026 2.65014 0
M  V30 5792 H 540.996 -2.27539 1.91346 0
M  V30 5793 H 538.529 -1.10176 1.08169 0
M  V30 5794 H 540.487 -4.09962 0.21012 0
M  V30 5795 H 539.148 -3.11335 -0.415873 0
M  V30 5796 H 538.341 -4.90704 1.15003 0
M  V30 5797 H 537.943 -3.29071 1.77731 0
M  V30 5798 H 540.235 -6.44748 2.08102 0
M  V30 5799 H 541.178 -6.11594 3.56873 0
M  V30 5800 H 541.586 -5.25847 2.05294 0
M  V30 5801 N 540.985 -1.06182 -1.16461 0
M  V30 5802 C 542.231 -0.779015 -1.87241 0
M  V30 5803 C 542.564 0.692715 -1.81425 0
M  V30 5804 O 541.839 1.5074 -1.22913 0
M  V30 5805 C 542.122 -1.2728 -3.36856 0
M  V30 5806 C 541.975 -2.80821 -3.51368 0
M  V30 5807 C 543.294 -0.879799 -4.31216 0
M  V30 5808 H 540.413 -0.284464 -0.679889 0
M  V30 5809 H 543.055 -1.31755 -1.36896 0
M  V30 5810 H 541.205 -0.814673 -3.79862 0
M  V30 5811 H 542.877 -3.34833 -3.17308 0
M  V30 5812 H 541.12 -3.19606 -2.93316 0
M  V30 5813 H 541.791 -3.10435 -4.56436 0
M  V30 5814 H 544.267 -1.27436 -3.96105 0
M  V30 5815 H 543.143 -1.25278 -5.34412 0
M  V30 5816 H 543.404 0.215372 -4.41575 0
M  V30 5817 N 542.463 1.3308 -0.844243 0
M  V30 5818 C 543.71 1.97605 -0.44255 0
M  V30 5819 C 544.038 1.66856 0.999458 0
M  V30 5820 O 543.293 0.943586 1.7145 0
M  V30 5821 C 543.592 3.52045 -0.616354 0
M  V30 5822 C 543.258 4.02757 -2.02726 0
M  V30 5823 C 541.92 4.16316 -2.41317 0
M  V30 5824 C 544.272 4.29776 -2.9486 0
M  V30 5825 C 541.6 4.54232 -3.71335 0
M  V30 5826 C 543.952 4.69146 -4.24364 0
M  V30 5827 C 542.616 4.80911 -4.62904 0
M  V30 5828 H 541.886 0.723088 -0.161941 0
M  V30 5829 H 544.533 1.58663 -1.0723 0
M  V30 5830 H 542.838 3.91681 0.0966812 0
M  V30 5831 H 544.535 3.99981 -0.285756 0
M  V30 5832 H 541.125 3.9268 -1.71756 0
M  V30 5833 H 545.309 4.18818 -2.6628 0
M  V30 5834 H 540.565 4.61535 -4.00993 0
M  V30 5835 H 544.739 4.89008 -4.95827 0
M  V30 5836 H 542.366 5.10048 -5.63698 0
M  V30 5837 N 543.941 0.601185 1.45683 0
M  V30 5838 C 545.352 0.179659 1.85834 0
M  V30 5839 C 545.703 -1.26189 1.50236 0
M  V30 5840 O 544.828 -1.95587 0.925987 0
M  V30 5841 C 545.423 0.319277 3.37292 0
M  V30 5842 C 543.982 -0.0475092 3.7637 0
M  V30 5843 C 543.129 0.646692 2.69654 0
M  V30 5844 H 546.08 0.808268 1.36575 0
M  V30 5845 H 546.101 -0.4503 3.77826 0
M  V30 5846 H 545.613 1.36855 3.6317 0
M  V30 5847 H 543.714 -1.0962 3.5611 0
M  V30 5848 H 543.827 0.34168 4.7788 0
M  V30 5849 H 542.191 0.0849971 2.54558 0
M  V30 5850 H 542.974 1.69797 2.98369 0
M  V30 5851 N 545.419 -1.53889 0.339982 0
M  V30 5852 C 546.644 -2.05741 -0.261798 0
M  V30 5853 C 547.069 -1.21354 -1.43718 0
M  V30 5854 O 546.427 -0.22645 -1.7988 0
M  V30 5855 C 546.475 -3.54542 -0.658228 0
M  V30 5856 O 545.579 -3.7302 -1.75869 0
M  V30 5857 H 544.92 -0.662529 -0.0441672 0
M  V30 5858 H 547.45 -1.98568 0.493161 0
M  V30 5859 H 547.46 -3.9711 -0.936368 0
M  V30 5860 H 546.135 -4.15412 0.201358 0
M  V30 5861 H 544.712 -3.42355 -1.47809 0
M  V30 5862 N 546.897 -0.0685191 -1.57451 0
M  V30 5863 C 548.145 0.60016 -1.92983 0
M  V30 5864 C 548.466 1.70348 -0.949028 0
M  V30 5865 O 547.736 1.959 0.00335647 0
M  V30 5866 H 546.316 0.224682 -0.712409 0
M  V30 5867 H 548.978 -0.125605 -1.94495 0
M  V30 5868 H 548.074 1.02759 -2.94698 0
M  V30 5869 N 548.375 1.56261 0.205012 0
M  V30 5870 C 549.307 1.90266 1.27795 0
M  V30 5871 C 550.32 0.792397 1.42214 0
M  V30 5872 O 551.509 1.07077 1.42817 0
M  V30 5873 C 548.609 2.11074 2.65143 0
M  V30 5874 C 547.782 3.42176 2.7246 0
M  V30 5875 C 546.841 3.52216 3.90936 0
M  V30 5876 O 545.867 4.25119 3.78501 0
M  V30 5877 N 547.069 2.84573 5.05963 0
M  V30 5878 H 549.834 2.82896 0.989434 0
M  V30 5879 H 547.395 1.57008 0.394981 0
M  V30 5880 H 549.387 2.15089 3.4281 0
M  V30 5881 H 547.957 1.2499 2.86524 0
M  V30 5882 H 547.177 3.50116 1.81142 0
M  V30 5883 H 548.465 4.28509 2.74331 0
M  V30 5884 H 547.863 2.25152 5.18963 0
M  V30 5885 H 546.42 2.94228 5.81613 0
M  V30 5886 N 549.853 -0.472356 1.50355 0
M  V30 5887 C 551.102 -1.2213 1.60522 0
M  V30 5888 C 551.415 -1.9312 0.310466 0
M  V30 5889 O 552.621 -2.69936 0.291029 0
M  V30 5890 C 551.077 -2.21909 2.83345 0
M  V30 5891 C 550.685 -1.56727 4.19691 0
M  V30 5892 C 552.429 -2.97453 3.02856 0
M  V30 5893 C 550.336 -2.54785 5.33703 0
M  V30 5894 H 549.266 -0.459543 0.597776 0
M  V30 5895 H 551.917 -0.491922 1.76783 0
M  V30 5896 H 550.299 -2.98133 2.60639 0
M  V30 5897 H 551.473 -0.863007 4.52646 0
M  V30 5898 H 549.788 -0.934685 4.05774 0
M  V30 5899 H 552.385 -3.70838 3.85205 0
M  V30 5900 H 552.728 -3.56764 2.14534 0
M  V30 5901 H 553.261 -2.28342 3.25737 0
M  V30 5902 H 550 -2.00214 6.24175 0
M  V30 5903 H 549.52 -3.23367 5.05167 0
M  V30 5904 H 551.199 -3.16639 5.64224 0
M  V30 5905 N 551.331 -1.39911 -0.725443 0
M  V30 5906 C 552.556 -1.41137 -1.5197 0
M  V30 5907 C 552.981 -0.010262 -1.88097 0
M  V30 5908 O 552.339 0.979184 -1.52583 0
M  V30 5909 C 552.387 -2.2994 -2.77777 0
M  V30 5910 O 551.491 -1.73586 -3.74088 0
M  V30 5911 H 550.832 -0.480219 -0.458569 0
M  V30 5912 H 553.362 -1.84023 -0.894249 0
M  V30 5913 H 553.372 -2.44785 -3.26411 0
M  V30 5914 H 552.047 -3.31759 -2.50816 0
M  V30 5915 H 550.624 -1.68035 -3.32894 0
M  V30 5916 N 552.809 0.956637 -1.25245 0
M  V30 5917 C 553.741 2.05628 -1.01242 0
M  V30 5918 C 554.754 1.62785 0.0219579 0
M  V30 5919 O 555.943 1.77184 -0.216365 0
M  V30 5920 C 553.043 3.35069 -0.508161 0
M  V30 5921 C 552.216 4.06761 -1.60823 0
M  V30 5922 C 551.275 5.14473 -1.1047 0
M  V30 5923 O 550.301 5.40033 -1.79868 0
M  V30 5924 N 551.503 5.80474 0.0550773 0
M  V30 5925 H 554.268 2.2679 -1.95925 0
M  V30 5926 H 551.829 1.12505 -1.16423 0
M  V30 5927 H 553.821 4.044 -0.155819 0
M  V30 5928 H 552.391 3.10694 0.344683 0
M  V30 5929 H 551.611 3.31555 -2.13224 0
M  V30 5930 H 552.899 4.51418 -2.34733 0
M  V30 5931 H 552.297 5.62125 0.635004 0
M  V30 5932 H 550.854 6.50868 0.348469 0
M  V30 5933 N 554.287 1.06798 1.15896 0
M  V30 5934 C 555.25 0.687328 2.18651 0
M  V30 5935 C 556.25 -0.269559 1.58524 0
M  V30 5936 O 557.44 -0.0512627 1.74125 0
M  V30 5937 C 554.572 0.0121642 3.40898 0
M  V30 5938 H 555.765 1.59701 2.53842 0
M  V30 5939 H 553.318 0.863828 1.3026 0
M  V30 5940 H 554.053 -0.910025 3.1127 0
M  V30 5941 H 553.838 0.700309 3.85795 0
M  V30 5942 H 555.328 -0.239703 4.16911 0
M  V30 5943 N 555.766 -1.3263 0.851289 0
M  V30 5944 C 556.991 -2.02097 0.466006 0
M  V30 5945 C 557.416 -1.63574 -0.928709 0
M  V30 5946 O 556.774 -0.834665 -1.60944 0
M  V30 5947 C 556.822 -3.55425 0.608737 0
M  V30 5948 O 555.926 -4.10827 -0.359878 0
M  V30 5949 H 555.267 -0.636911 0.187724 0
M  V30 5950 H 557.797 -1.69253 1.14955 0
M  V30 5951 H 557.807 -4.04986 0.495006 0
M  V30 5952 H 556.482 -3.82806 1.62581 0
M  V30 5953 H 555.059 -3.72349 -0.202666 0
M  V30 5954 N 557.244 -0.608902 -1.45362 0
M  V30 5955 C 558.207 0.0992563 -2.28985 0
M  V30 5956 C 559.207 0.793841 -1.39838 0
M  V30 5957 O 560.397 0.641804 -1.61946 0
M  V30 5958 C 557.529 1.15073 -3.20891 0
M  V30 5959 H 558.722 -0.635964 -2.93079 0
M  V30 5960 H 556.275 -0.368007 -1.51906 0
M  V30 5961 H 557.01 1.91667 -2.616 0
M  V30 5962 H 556.795 0.656867 -3.86559 0
M  V30 5963 H 558.285 1.64665 -3.83765 0
M  V30 5964 N 558.722 1.53707 -0.348139 0
M  V30 5965 C 559.652 2.28111 0.498766 0
M  V30 5966 C 560.633 1.29851 1.09876 0
M  V30 5967 O 561.818 1.587 1.11928 0
M  V30 5968 C 558.948 3.05735 1.64753 0
M  V30 5969 C 557.902 4.11537 1.17565 0
M  V30 5970 C 557.228 4.77142 2.4133 0
M  V30 5971 C 558.528 5.21587 0.272844 0
M  V30 5972 H 560.222 2.99152 -0.121934 0
M  V30 5973 H 557.768 1.43875 -0.0600842 0
M  V30 5974 H 559.721 3.56526 2.24649 0
M  V30 5975 H 558.445 2.32354 2.2952 0
M  V30 5976 H 557.104 3.61665 0.599483 0
M  V30 5977 H 556.752 4.0035 3.04514 0
M  V30 5978 H 556.452 5.48626 2.10436 0
M  V30 5979 H 557.976 5.30719 3.01943 0
M  V30 5980 H 559.39 5.67986 0.778779 0
M  V30 5981 H 557.787 6.00074 0.0555849 0
M  V30 5982 H 558.857 4.79969 -0.689785 0
M  V30 5983 N 560.2 0.0768682 1.57412 0
M  V30 5984 C 561.163 -0.873949 2.11884 0
M  V30 5985 C 562.163 -1.22301 1.04398 0
M  V30 5986 O 563.353 -1.15545 1.30365 0
M  V30 5987 C 560.485 -2.17575 2.62438 0
M  V30 5988 H 561.678 -0.401278 2.97203 0
M  V30 5989 H 559.231 -0.171904 1.55352 0
M  V30 5990 H 559.966 -2.69368 1.80587 0
M  V30 5991 H 559.751 -1.93534 3.41009 0
M  V30 5992 H 561.241 -2.85631 3.04639 0
M  V30 5993 N 561.678 -1.56367 -0.196722 0
M  V30 5994 C 563.089 -1.70462 -0.761545 0
M  V30 5995 C 563.44 -0.683161 -1.83922 0
M  V30 5996 O 562.565 0.160753 -2.15802 0
M  V30 5997 C 563.16 -3.09057 -1.38814 0
M  V30 5998 C 561.719 -3.24922 -1.90007 0
M  V30 5999 C 560.866 -2.66412 -0.769399 0
M  V30 6000 H 563.817 -1.58675 0.0283263 0
M  V30 6001 H 563.838 -3.06296 -2.2575 0
M  V30 6002 H 563.35 -3.83378 -0.603559 0
M  V30 6003 H 561.451 -2.55514 -2.71189 0
M  V30 6004 H 561.564 -4.3241 -2.06297 0
M  V30 6005 H 559.928 -2.25546 -1.18326 0
M  V30 6006 H 560.711 -3.433 0.00291773 0
M  V30 6007 N 563.156 0.464375 -1.50603 0
M  V30 6008 C 564.119 1.54393 -1.69397 0
M  V30 6009 C 565.119 1.50566 -0.564504 0
M  V30 6010 O 566.309 1.53066 -0.831645 0
M  V30 6011 C 563.441 2.9401 -1.72543 0
M  V30 6012 H 564.634 1.39044 -2.65719 0
M  V30 6013 H 562.187 0.69122 -1.40185 0
M  V30 6014 H 562.922 3.14795 -0.77938 0
M  V30 6015 H 562.707 2.98195 -2.54602 0
M  V30 6016 H 564.197 3.72375 -1.89015 0
M  V30 6017 N 564.634 1.40294 0.718013 0
M  V30 6018 C 566.045 1.34289 1.29705 0
M  V30 6019 C 566.396 0.0152228 1.96194 0
M  V30 6020 O 565.521 -0.88682 1.97394 0
M  V30 6021 C 566.116 2.43219 2.3586 0
M  V30 6022 C 564.675 2.40682 2.89394 0
M  V30 6023 C 563.822 2.24223 1.63154 0
M  V30 6024 H 566.773 1.50135 0.514312 0
M  V30 6025 H 566.794 2.10986 3.16647 0
M  V30 6026 H 566.306 3.39836 1.87439 0
M  V30 6027 H 564.407 1.47756 3.42051 0
M  V30 6028 H 564.52 3.36177 3.41353 0
M  V30 6029 H 562.884 1.71696 1.88129 0
M  V30 6030 H 563.667 3.22834 1.16761 0
M  V30 6031 N 566.112 -0.949982 1.2575 0
M  V30 6032 C 567.523 -1.50989 1.09815 0
M  V30 6033 C 567.874 -1.93497 -0.324556 0
M  V30 6034 O 566.999 -1.79068 -1.21506 0
M  V30 6035 C 567.594 -2.74394 1.98729 0
M  V30 6036 C 566.153 -3.26682 1.86965 0
M  V30 6037 C 565.3 -1.99498 1.92603 0
M  V30 6038 H 568.251 -0.766387 1.38968 0
M  V30 6039 H 568.272 -3.48383 1.53001 0
M  V30 6040 H 567.784 -2.43425 3.02268 0
M  V30 6041 H 565.885 -3.62461 0.863279 0
M  V30 6042 H 565.998 -3.94383 2.72027 0
M  V30 6043 H 564.362 -2.15005 1.36546 0
M  V30 6044 H 565.145 -1.70871 2.97755 0
M  V30 6045 N 567.59 -1.07411 -1.15328 0
M  V30 6046 C 568.522 -0.652924 -2.19703 0
M  V30 6047 C 569.535 0.294869 -1.60107 0
M  V30 6048 O 570.724 0.0840932 -1.78302 0
M  V30 6049 C 567.824 0.061434 -3.38844 0
M  V30 6050 C 566.997 -0.902696 -4.27984 0
M  V30 6051 C 566.056 -0.225521 -5.25717 0
M  V30 6052 O 565.082 -0.86676 -5.62562 0
M  V30 6053 N 566.284 1.02858 -5.71315 0
M  V30 6054 H 569.049 -1.55081 -2.56457 0
M  V30 6055 H 566.61 -0.958883 -1.30449 0
M  V30 6056 H 568.602 0.525145 -4.01278 0
M  V30 6057 H 567.172 0.861269 -3.00501 0
M  V30 6058 H 566.392 -1.54551 -3.6264 0
M  V30 6059 H 567.68 -1.55636 -4.84412 0
M  V30 6060 H 567.078 1.56948 -5.43492 0
M  V30 6061 H 565.635 1.43596 -6.35786 0
M  V30 6062 N 569.068 1.32177 -0.85831 0
M  V30 6063 C 570.314 1.97417 -0.46417 0
M  V30 6064 C 570.647 1.67746 0.978514 0
M  V30 6065 O 569.922 0.967654 1.68721 0
M  V30 6066 C 570.205 3.53069 -0.708094 0
M  V30 6067 C 570.058 3.92357 -2.19946 0
M  V30 6068 C 571.377 4.39783 -0.166881 0
M  V30 6069 H 568.496 0.717097 -0.17012 0
M  V30 6070 H 571.138 1.56499 -1.07741 0
M  V30 6071 H 569.288 3.88054 -0.186128 0
M  V30 6072 H 570.96 3.67533 -2.78779 0
M  V30 6073 H 569.203 3.41384 -2.67656 0
M  V30 6074 H 569.874 5.00841 -2.32082 0
M  V30 6075 H 572.35 4.11556 -0.613285 0
M  V30 6076 H 571.226 5.47671 -0.367093 0
M  V30 6077 H 571.487 4.32196 0.930559 0
M  V30 6078 N 570.547 0.616602 1.45037 0
M  V30 6079 C 571.477 -0.0840787 2.33349 0
M  V30 6080 C 572.458 -0.849641 1.4736 0
M  V30 6081 O 573.643 -0.818407 1.76113 0
M  V30 6082 C 570.773 -1.07604 3.3021 0
M  V30 6083 C 569.727 -0.423096 4.25904 0
M  V30 6084 C 569.053 -1.52394 5.12523 0
M  V30 6085 C 570.353 0.661457 5.18095 0
M  V30 6086 H 572.047 0.653333 2.92185 0
M  V30 6087 H 569.593 0.315634 1.40498 0
M  V30 6088 H 571.546 -1.57485 3.90866 0
M  V30 6089 H 570.27 -1.84416 2.69552 0
M  V30 6090 H 568.929 0.05493 3.66559 0
M  V30 6091 H 568.577 -2.28257 4.48227 0
M  V30 6092 H 568.277 -1.09251 5.77354 0
M  V30 6093 H 569.801 -2.02485 5.76049 0
M  V30 6094 H 571.215 0.246353 5.7277 0
M  V30 6095 H 569.612 1.01517 5.91451 0
M  V30 6096 H 570.682 1.53446 4.59981 0
M  V30 6097 N 572.025 -1.5352 0.356285 0
M  V30 6098 C 573.436 -1.86282 -0.12492 0
M  V30 6099 C 573.787 -1.27717 -1.48939 0
M  V30 6100 O 572.912 -0.595614 -2.08042 0
M  V30 6101 C 573.507 -3.37995 -0.23345 0
M  V30 6102 C 572.066 -3.70588 -0.658899 0
M  V30 6103 C 571.213 -2.76581 0.199596 0
M  V30 6104 H 574.164 -1.47901 0.575423 0
M  V30 6105 H 574.185 -3.65475 -1.0587 0
M  V30 6106 H 573.697 -3.8059 0.759776 0
M  V30 6107 H 571.798 -3.33544 -1.66069 0
M  V30 6108 H 571.911 -4.77076 -0.439957 0
M  V30 6109 H 570.275 -2.52552 -0.330076 0
M  V30 6110 H 571.058 -3.22008 1.19019 0
M  V30 6111 N 573.503 -0.0852151 -1.57369 0
M  V30 6112 C 574.435 0.907099 -2.10486 0
M  V30 6113 C 575.448 1.25259 -1.03991 0
M  V30 6114 O 576.637 1.20743 -1.31467 0
M  V30 6115 C 573.737 2.21908 -2.56145 0
M  V30 6116 C 572.91 2.05042 -3.86363 0
M  V30 6117 C 571.969 3.19664 -4.17973 0
M  V30 6118 O 570.995 2.94062 -4.87356 0
M  V30 6119 N 572.197 4.45151 -3.72587 0
M  V30 6120 H 574.962 0.453505 -2.96249 0
M  V30 6121 H 572.523 0.100157 -1.6159 0
M  V30 6122 H 574.515 2.97519 -2.74343 0
M  V30 6123 H 573.085 2.58723 -1.75446 0
M  V30 6124 H 572.305 1.13819 -3.77411 0
M  V30 6125 H 573.593 1.91039 -4.71574 0
M  V30 6126 H 572.991 4.68834 -3.16561 0
M  V30 6127 H 571.548 5.17744 -3.9596 0
M  V30 6128 N 574.981 1.5647 0.188427 0
M  V30 6129 C 575.944 1.9421 1.21718 0
M  V30 6130 C 576.944 0.823901 1.38089 0
M  V30 6131 O 578.134 1.09122 1.35787 0
M  V30 6132 C 575.266 2.22197 2.58537 0
M  V30 6133 H 576.459 2.86252 0.894418 0
M  V30 6134 H 574.012 1.50263 0.430211 0
M  V30 6135 H 574.747 1.32814 2.95856 0
M  V30 6136 H 574.532 3.03688 2.48025 0
M  V30 6137 H 576.022 2.52376 3.3271 0
M  V30 6138 N 576.459 -0.456382 1.50847 0
M  V30 6139 C 577.87 -1.03685 1.55262 0
M  V30 6140 C 578.221 -1.92779 0.364771 0
M  V30 6141 O 577.346 -2.10043 -0.52068 0
M  V30 6142 C 577.941 -1.88718 2.81374 0
M  V30 6143 C 576.5 -2.41847 2.88422 0
M  V30 6144 C 575.647 -1.20564 2.49719 0
M  V30 6145 H 578.598 -0.238399 1.56899 0
M  V30 6146 H 578.619 -2.73957 2.6406 0
M  V30 6147 H 578.131 -1.23847 3.67809 0
M  V30 6148 H 576.232 -3.10228 2.06372 0
M  V30 6149 H 576.345 -2.75947 3.9165 0
M  V30 6150 H 574.709 -1.54504 2.02486 0
M  V30 6151 H 575.492 -0.573326 3.38479 0
M  V30 6152 N 577.937 -1.40673 -0.710563 0
M  V30 6153 C 578.9 -1.4108 -1.80635 0
M  V30 6154 C 579.9 -0.303783 -1.57904 0
M  V30 6155 O 581.09 -0.562937 -1.64853 0
M  V30 6156 C 578.222 -1.20748 -3.18799 0
M  V30 6157 H 579.415 -2.38612 -1.81671 0
M  V30 6158 H 576.968 -1.26595 -0.916704 0
M  V30 6159 H 577.703 -0.239964 -3.23411 0
M  V30 6160 H 577.488 -2.00941 -3.36698 0
M  V30 6161 H 578.978 -1.23833 -3.98817 0
M  V30 6162 N 579.415 0.9433 -1.26252 0
M  V30 6163 C 580.826 1.50404 -1.10614 0
M  V30 6164 C 581.177 1.93666 0.31429 0
M  V30 6165 O 580.302 1.79709 1.20555 0
M  V30 6166 C 580.897 2.73336 -2.00182 0
M  V30 6167 C 579.456 3.25686 -1.88695 0
M  V30 6168 C 578.603 1.98474 -1.93658 0
M  V30 6169 H 581.554 0.759006 -1.39373 0
M  V30 6170 H 581.575 3.47567 -1.54847 0
M  V30 6171 H 581.087 2.41818 -3.03555 0
M  V30 6172 H 579.188 3.61998 -0.882489 0
M  V30 6173 H 579.301 3.92935 -2.74115 0
M  V30 6174 H 577.665 2.14278 -1.37684 0
M  V30 6175 H 578.448 1.6929 -2.98657 0
M  V30 6176 N 580.893 1.08022 1.14757 0
M  V30 6177 C 581.856 0.71048 2.1791 0
M  V30 6178 C 582.856 -0.252731 1.58801 0
M  V30 6179 O 584.046 -0.0327915 1.74169 0
M  V30 6180 C 581.178 0.0483203 3.40866 0
M  V30 6181 H 582.371 1.62384 2.52134 0
M  V30 6182 H 579.924 0.877595 1.29337 0
M  V30 6183 H 580.659 -0.876959 3.12218 0
M  V30 6184 H 580.444 0.741189 3.85031 0
M  V30 6185 H 581.934 -0.195471 4.17142 0
M  V30 6186 N 582.371 -1.3172 0.865308 0
M  V30 6187 C 583.782 -1.79104 0.527126 0
M  V30 6188 C 584.133 -1.7135 -0.955695 0
M  V30 6189 O 583.258 -1.27845 -1.74598 0
M  V30 6190 C 583.853 -3.25207 0.950061 0
M  V30 6191 C 582.412 -3.70504 0.663611 0
M  V30 6192 C 581.559 -2.52605 1.14395 0
M  V30 6193 H 584.51 -1.18868 1.05148 0
M  V30 6194 H 584.531 -3.79535 0.270805 0
M  V30 6195 H 584.043 -3.30818 2.02931 0
M  V30 6196 H 582.144 -3.70398 -0.404474 0
M  V30 6197 H 582.257 -4.62845 1.23737 0
M  V30 6198 H 580.621 -2.4838 0.563859 0
M  V30 6199 H 581.404 -2.60964 2.23053 0
M  V30 6200 N 583.85 -0.624285 -1.44708 0
M  V30 6201 C 584.812 0.0749638 -2.29077 0
M  V30 6202 C 585.812 0.778965 -1.40673 0
M  V30 6203 O 587.003 0.624591 -1.62618 0
M  V30 6204 C 584.135 1.11663 -3.22094 0
M  V30 6205 H 585.327 -0.667013 -2.92388 0
M  V30 6206 H 582.88 -0.384098 -1.51507 0
M  V30 6207 H 583.615 1.88881 -2.63618 0
M  V30 6208 H 583.401 0.61583 -3.87234 0
M  V30 6209 H 584.891 1.60585 -3.8549 0
M  V30 6210 N 585.328 1.53329 -0.364422 0
M  V30 6211 C 586.739 1.86345 0.115039 0
M  V30 6212 C 587.09 1.28505 1.4826 0
M  V30 6213 O 586.215 0.606639 2.07723 0
M  V30 6214 C 586.81 3.38114 0.215522 0
M  V30 6215 C 585.369 3.70932 0.639237 0
M  V30 6216 C 584.516 2.76471 -0.214261 0
M  V30 6217 H 587.467 1.47593 -0.583258 0
M  V30 6218 H 587.488 3.66031 1.0393 0
M  V30 6219 H 587 3.80182 -0.779948 0
M  V30 6220 H 585.101 3.3442 1.64298 0
M  V30 6221 H 585.214 4.77302 0.41465 0
M  V30 6222 H 583.578 2.52724 0.316678 0
M  V30 6223 H 584.361 3.21373 -1.20725 0
M  V30 6224 N 586.806 0.0935595 1.57322 0
M  V30 6225 C 587.769 -0.851426 2.12799 0
M  V30 6226 C 588.769 -1.21187 1.0569 0
M  V30 6227 O 589.959 -1.14156 1.31583 0
M  V30 6228 C 587.091 -2.14779 2.64731 0
M  V30 6229 H 588.284 -0.369733 2.97612 0
M  V30 6230 H 585.837 -0.155417 1.55525 0
M  V30 6231 H 586.572 -2.67437 1.83434 0
M  V30 6232 H 586.357 -1.89907 3.43042 0
M  V30 6233 H 587.847 -2.82383 3.07651 0
M  V30 6234 N 588.284 -1.56567 -0.180126 0
M  V30 6235 C 589.217 -1.90813 -1.25163 0
M  V30 6236 C 590.195 -0.7699 -1.43218 0
M  V30 6237 O 591.379 -1.02236 -1.58367 0
M  V30 6238 C 588.506 -2.15138 -2.61597 0
M  V30 6239 C 587.552 -3.37834 -2.60328 0
M  V30 6240 S 588.385 -4.92486 -2.1028 0
M  V30 6241 C 589.541 -5.19896 -3.48509 0
M  V30 6242 H 589.774 -2.81398 -0.959283 0
M  V30 6243 H 587.307 -1.49541 -0.3843 0
M  V30 6244 H 589.265 -2.29835 -3.40127 0
M  V30 6245 H 587.926 -1.25276 -2.88036 0
M  V30 6246 H 587.119 -3.52027 -3.60684 0
M  V30 6247 H 586.721 -3.22208 -1.8989 0
M  V30 6248 H 589.013 -5.11334 -4.44459 0
M  V30 6249 H 589.956 -6.21571 -3.39198 0
M  V30 6250 H 590.364 -4.47489 -3.44114 0
M  V30 6251 N 589.762 0.448376 -1.51087 0
M  V30 6252 C 591.008 1.20049 -1.6345 0
M  V30 6253 C 591.341 1.91121 -0.344444 0
M  V30 6254 O 590.616 1.83125 0.655396 0
M  V30 6255 C 590.899 2.22624 -2.83038 0
M  V30 6256 C 590.752 1.55708 -4.21989 0
M  V30 6257 C 592.071 3.23718 -2.98152 0
M  V30 6258 H 589.19 0.435085 -0.59487 0
M  V30 6259 H 591.832 0.491183 -1.83541 0
M  V30 6260 H 589.982 2.83117 -2.66039 0
M  V30 6261 H 591.654 0.986367 -4.50631 0
M  V30 6262 H 589.897 0.859647 -4.25197 0
M  V30 6263 H 590.568 2.30357 -5.01637 0
M  V30 6264 H 593.044 2.73269 -3.13788 0
M  V30 6265 H 591.92 3.92795 -3.83411 0
M  V30 6266 H 592.181 3.89179 -2.09743 0
M  V30 6267 N 591.24 1.41047 0.703093 0
M  V30 6268 C 592.465 1.43537 1.49706 0
M  V30 6269 C 592.89 0.0401853 1.88057 0
M  V30 6270 O 592.248 -0.954785 1.54122 0
M  V30 6271 C 592.296 2.3433 2.74084 0
M  V30 6272 O 591.4 1.79515 3.71279 0
M  V30 6273 H 590.741 0.487454 0.450871 0
M  V30 6274 H 593.271 1.85422 0.86486 0
M  V30 6275 H 593.281 2.49947 3.22476 0
M  V30 6276 H 591.956 3.35708 2.45506 0
M  V30 6277 H 590.533 1.7331 3.30179 0
M  V30 6278 N 592.718 -0.936591 1.26751 0
M  V30 6279 C 593.681 -2.01752 1.08761 0
M  V30 6280 C 594.681 -1.60763 0.0344435 0
M  V30 6281 O 595.871 -1.71963 0.278258 0
M  V30 6282 C 593.003 -3.34543 0.655271 0
M  V30 6283 H 594.196 -2.19143 2.04735 0
M  V30 6284 H 591.749 -1.11618 1.09413 0
M  V30 6285 H 592.484 -3.22851 -0.30626 0
M  V30 6286 H 592.269 -3.65647 1.41578 0
M  V30 6287 H 593.759 -4.13944 0.551378 0
M  V30 6288 N 594.196 -1.08629 -1.14182 0
M  V30 6289 C 595.126 -0.740003 -2.21464 0
M  V30 6290 C 596.107 0.278591 -1.67803 0
M  V30 6291 O 597.292 0.148461 -1.93632 0
M  V30 6292 C 594.422 -0.150952 -3.46972 0
M  V30 6293 C 593.376 -1.09815 -4.13672 0
M  V30 6294 C 592.702 -0.3712 -5.3341 0
M  V30 6295 C 594.002 -2.43722 -4.61949 0
M  V30 6296 H 595.696 -1.63697 -2.50686 0
M  V30 6297 H 593.242 -0.788526 -1.20492 0
M  V30 6298 H 595.195 0.103325 -4.21273 0
M  V30 6299 H 593.919 0.781164 -3.1712 0
M  V30 6300 H 592.578 -1.33756 -3.41328 0
M  V30 6301 H 592.226 0.564792 -4.99819 0
M  V30 6302 H 591.926 -1.00267 -5.78982 0
M  V30 6303 H 593.45 -0.12503 -6.10472 0
M  V30 6304 H 594.864 -2.24034 -5.27714 0
M  V30 6305 H 593.261 -3.02582 -5.18232 0
M  V30 6306 H 594.331 -3.05082 -3.76899 0
M  V30 6307 N 595.674 1.31259 -0.872281 0
M  V30 6308 C 596.637 2.26744 -0.334656 0
M  V30 6309 C 597.637 1.52307 0.515681 0
M  V30 6310 O 598.827 1.71148 0.324656 0
M  V30 6311 C 595.959 3.36841 0.524482 0
M  V30 6312 H 597.152 2.75812 -1.17762 0
M  V30 6313 H 594.705 1.42232 -0.648064 0
M  V30 6314 H 595.44 2.93069 1.38855 0
M  V30 6315 H 595.225 3.92009 -0.0844299 0
M  V30 6316 H 596.715 4.07944 0.892838 0
M  V30 6317 N 597.152 0.631951 1.44375 0
M  V30 6318 C 598.084 -0.110911 2.28931 0
M  V30 6319 C 599.097 -0.808086 1.41329 0
M  V30 6320 O 600.286 -0.669396 1.65473 0
M  V30 6321 C 597.386 -1.17928 3.1772 0
M  V30 6322 C 596.559 -0.564458 4.33743 0
M  V30 6323 C 595.618 -1.5269 5.0356 0
M  V30 6324 O 594.644 -1.04372 5.59549 0
M  V30 6325 N 595.846 -2.86123 5.05088 0
M  V30 6326 H 598.611 0.614758 2.93327 0
M  V30 6327 H 596.172 0.473171 1.54831 0
M  V30 6328 H 598.164 -1.82348 3.61291 0
M  V30 6329 H 596.734 -1.80717 2.55069 0
M  V30 6330 H 595.954 0.258373 3.93352 0
M  V30 6331 H 597.242 -0.134355 5.08623 0
M  V30 6332 H 596.64 -3.27959 4.60933 0
M  V30 6333 H 595.197 -3.45901 5.52445 0
M  V30 6334 N 598.631 -1.53133 0.372548 0
M  V30 6335 C 599.594 -2.24569 -0.458389 0
M  V30 6336 C 600.594 -1.25603 -1.00402 0
M  V30 6337 O 601.784 -1.49827 -0.888672 0
M  V30 6338 C 598.916 -2.98783 -1.6414 0
M  V30 6339 H 600.109 -2.99436 0.166799 0
M  V30 6340 H 597.662 -1.55805 0.124357 0
M  V30 6341 H 598.397 -2.28176 -2.30448 0
M  V30 6342 H 598.182 -3.71404 -1.25704 0
M  V30 6343 H 599.672 -3.53068 -2.23008 0
M  V30 6344 N 600.109 -0.101901 -1.5727 0
M  V30 6345 C 601.52 0.426173 -1.81771 0
M  V30 6346 C 601.871 1.67725 -1.01797 0
M  V30 6347 O 600.996 2.14958 -0.249386 0
M  V30 6348 C 601.591 0.779962 -3.297 0
M  V30 6349 C 600.15 1.25275 -3.54941 0
M  V30 6350 C 599.297 0.252814 -2.76145 0
M  V30 6351 H 602.248 -0.32726 -1.55289 0
M  V30 6352 H 602.269 1.63891 -3.43395 0
M  V30 6353 H 601.781 -0.130778 -3.8788 0
M  V30 6354 H 599.882 2.18097 -3.021 0
M  V30 6355 H 599.995 1.20988 -4.63572 0
M  V30 6356 H 598.359 0.736362 -2.43823 0
M  V30 6357 H 599.142 -0.650724 -3.37076 0
M  V30 6358 N 601.587 1.56661 0.17182 0
M  V30 6359 C 602.55 1.9549 1.19651 0
M  V30 6360 C 603.55 0.838501 1.37207 0
M  V30 6361 O 604.74 1.10556 1.34622 0
M  V30 6362 C 601.872 2.24927 2.56166 0
M  V30 6363 H 603.065 2.87184 0.864007 0
M  V30 6364 H 600.618 1.50711 0.41425 0
M  V30 6365 H 601.353 1.35944 2.94431 0
M  V30 6366 H 601.138 3.06301 2.4479 0
M  V30 6367 H 602.628 2.55891 3.30014 0
M  V30 6368 N 603.065 -0.440357 1.51323 0
M  V30 6369 C 604.476 -1.02032 1.56353 0
M  V30 6370 C 604.827 -1.92382 0.385197 0
M  V30 6371 O 603.952 -2.10583 -0.498373 0
M  V30 6372 C 604.547 -1.85723 2.83359 0
M  V30 6373 C 603.106 -2.38774 2.90971 0
M  V30 6374 C 602.253 -1.17908 2.50984 0
M  V30 6375 H 605.204 -0.221744 1.57143 0
M  V30 6376 H 605.225 -2.71141 2.66951 0
M  V30 6377 H 604.737 -1.19939 3.69102 0
M  V30 6378 H 602.838 -3.08021 2.09651 0
M  V30 6379 H 602.951 -2.71778 3.94555 0
M  V30 6380 H 601.315 -1.52347 2.04114 0
M  V30 6381 H 602.098 -0.537393 3.39068 0
M  V30 6382 N 604.543 -1.41418 -0.695603 0
M  V30 6383 C 605.789 -1.40982 -1.4578 0
M  V30 6384 C 606.122 -0.0187763 -1.94191 0
M  V30 6385 O 605.397 0.95346 -1.69527 0
M  V30 6386 C 605.68 -2.41657 -2.66972 0
M  V30 6387 C 605.533 -3.89869 -2.24327 0
M  V30 6388 C 606.852 -2.39589 -3.69168 0
M  V30 6389 H 603.971 -0.513405 -0.528757 0
M  V30 6390 H 606.613 -1.72693 -0.792275 0
M  V30 6391 H 604.763 -2.14746 -3.23754 0
M  V30 6392 H 606.435 -4.27683 -1.72872 0
M  V30 6393 H 604.678 -4.04737 -1.56111 0
M  V30 6394 H 605.349 -4.55857 -3.11285 0
M  V30 6395 H 607.825 -2.63471 -3.2206 0
M  V30 6396 H 606.701 -3.12044 -4.51575 0
M  V30 6397 H 606.962 -1.41447 -4.18862 0
M  V30 6398 N 606.021 0.929856 -1.27246 0
M  V30 6399 C 607.432 1.49223 -1.12203 0
M  V30 6400 C 607.783 1.93989 0.293731 0
M  V30 6401 O 606.908 1.80978 1.18642 0
M  V30 6402 C 607.503 2.71198 -2.0307 0
M  V30 6403 C 606.062 3.23666 -1.92139 0
M  V30 6404 C 605.209 1.96409 -1.95752 0
M  V30 6405 H 608.16 0.744181 -1.4017 0
M  V30 6406 H 608.181 3.45905 -1.58524 0
M  V30 6407 H 607.693 2.38585 -3.06102 0
M  V30 6408 H 605.794 3.61042 -0.920834 0
M  V30 6409 H 605.907 3.90006 -2.78267 0
M  V30 6410 H 604.271 2.12806 -1.39949 0
M  V30 6411 H 605.054 1.66113 -3.00436 0
M  V30 6412 N 607.499 1.09233 1.13605 0
M  V30 6413 C 608.745 0.828385 1.8511 0
M  V30 6414 C 609.078 -0.64437 1.83198 0
M  V30 6415 O 608.353 -1.47428 1.26867 0
M  V30 6416 C 608.636 1.36167 3.33363 0
M  V30 6417 C 608.489 2.90038 3.438 0
M  V30 6418 C 609.808 0.993819 4.28732 0
M  V30 6419 H 606.927 0.30239 0.672108 0
M  V30 6420 H 609.569 1.35339 1.33355 0
M  V30 6421 H 607.719 0.9151 3.77569 0
M  V30 6422 H 609.391 3.43128 3.08319 0
M  V30 6423 H 607.634 3.27271 2.84739 0
M  V30 6424 H 608.305 3.22428 4.48045 0
M  V30 6425 H 610.781 1.37893 3.92587 0
M  V30 6426 H 609.657 1.39403 5.30903 0
M  V30 6427 H 609.918 -0.0982206 4.41991 0
M  V30 6428 N 608.977 -1.30795 0.87923 0
M  V30 6429 C 609.907 -2.30742 0.357796 0
M  V30 6430 C 610.888 -1.60747 -0.556283 0
M  V30 6431 O 612.073 -1.88393 -0.47135 0
M  V30 6432 C 609.203 -3.44583 -0.433555 0
M  V30 6433 C 608.157 -4.26235 0.388251 0
M  V30 6434 C 607.483 -5.32073 -0.529352 0
M  V30 6435 C 608.783 -4.96303 1.62729 0
M  V30 6436 H 610.477 -2.74605 1.19299 0
M  V30 6437 H 608.023 -1.32017 0.575104 0
M  V30 6438 H 609.976 -4.13563 -0.808934 0
M  V30 6439 H 608.7 -2.99511 -1.30234 0
M  V30 6440 H 607.359 -3.58936 0.745695 0
M  V30 6441 H 607.007 -4.83249 -1.39569 0
M  V30 6442 H 606.707 -5.87598 0.0166741 0
M  V30 6443 H 608.231 -6.0391 -0.901373 0
M  V30 6444 H 609.645 -5.5783 1.32283 0
M  V30 6445 H 608.042 -5.61666 2.11309 0
M  V30 6446 H 609.112 -4.22758 2.37494 0
M  V30 6447 N 610.455 -0.639598 -1.44038 0
M  V30 6448 C 611.418 0.0506628 -2.29144 0
M  V30 6449 C 612.418 0.764001 -1.41491 0
M  V30 6450 O 613.608 0.607309 -1.63271 0
M  V30 6451 C 610.74 1.0824 -3.2326 0
M  V30 6452 H 611.933 -0.697987 -2.91664 0
M  V30 6453 H 609.486 -0.400146 -1.51091 0
M  V30 6454 H 610.221 1.86075 -2.65606 0
M  V30 6455 H 610.006 0.574725 -3.87865 0
M  V30 6456 H 611.496 1.56487 -3.87171 0
M  V30 6457 N 611.933 1.52934 -0.380664 0
M  V30 6458 C 613.344 1.86457 0.0952684 0
M  V30 6459 C 613.695 1.3007 1.46889 0
M  V30 6460 O 612.82 0.628636 2.07068 0
M  V30 6461 C 613.415 3.38323 0.179648 0
M  V30 6462 C 611.974 3.71589 0.599858 0
M  V30 6463 C 611.121 2.76228 -0.243572 0
M  V30 6464 H 614.072 1.46966 -0.59888 0
M  V30 6465 H 614.093 3.67113 1.00042 0
M  V30 6466 H 613.605 3.79333 -0.820228 0
M  V30 6467 H 611.706 3.36144 1.60742 0
M  V30 6468 H 611.819 4.77715 0.364003 0
M  V30 6469 H 610.183 2.53045 0.289855 0
M  V30 6470 H 610.966 3.20074 -1.24127 0
M  V30 6471 N 613.412 0.11024 1.57214 0
M  V30 6472 C 614.66 -0.548783 1.94506 0
M  V30 6473 C 614.981 -1.67772 0.99386 0
M  V30 6474 O 614.251 -1.9584 0.0485841 0
M  V30 6475 H 612.831 -0.205715 0.718116 0
M  V30 6476 H 615.493 0.177127 1.94093 0
M  V30 6477 H 614.589 -0.949096 2.97319 0
M  V30 6478 N 614.89 -1.56749 -0.16351 0
M  V30 6479 C 616.301 -1.72039 -0.725216 0
M  V30 6480 C 616.652 -0.72202 -1.82432 0
M  V30 6481 O 615.777 0.114942 -2.16095 0
M  V30 6482 C 616.372 -3.11932 -1.32227 0
M  V30 6483 C 614.931 -3.28879 -1.83072 0
M  V30 6484 C 614.078 -2.67984 -0.712716 0
M  V30 6485 H 617.029 -1.58579 0.0619772 0
M  V30 6486 H 617.05 -3.11015 -2.19202 0
M  V30 6487 H 616.562 -3.84572 -0.522103 0
M  V30 6488 H 614.663 -2.61209 -2.65708 0
M  V30 6489 H 614.776 -4.36688 -1.97079 0
M  V30 6490 H 613.14 -2.28005 -1.13515 0
M  V30 6491 H 613.923 -3.43216 0.0757361 0
M  V30 6492 N 616.368 0.432326 -1.51554 0
M  V30 6493 C 617.779 1.01202 -1.56892 0
M  V30 6494 C 618.13 1.92175 -0.395394 0
M  V30 6495 O 617.255 2.10844 0.487198 0
M  V30 6496 C 617.85 1.84217 -2.8434 0
M  V30 6497 C 616.409 2.37228 -2.92233 0
M  V30 6498 C 615.556 1.16576 -2.51606 0
M  V30 6499 H 618.507 0.213407 -1.57259 0
M  V30 6500 H 618.528 2.69721 -2.68385 0
M  V30 6501 H 618.04 1.17979 -3.69733 0
M  V30 6502 H 616.141 3.06905 -2.11282 0
M  V30 6503 H 616.254 2.69682 -3.95991 0
M  V30 6504 H 614.618 1.51263 -2.04919 0
M  V30 6505 H 615.401 0.519404 -3.39348 0
M  V30 6506 N 617.846 1.41785 0.688094 0
M  V30 6507 C 618.778 1.40159 1.81351 0
M  V30 6508 C 619.791 0.30262 1.59963 0
M  V30 6509 O 620.98 0.564841 1.69327 0
M  V30 6510 C 618.08 1.16517 3.1824 0
M  V30 6511 C 617.253 2.38597 3.66593 0
M  V30 6512 C 616.312 2.10699 4.82174 0
M  V30 6513 O 615.338 2.83798 4.93404 0
M  V30 6514 N 616.54 1.10187 5.69947 0
M  V30 6515 H 619.305 2.3716 1.83236 0
M  V30 6516 H 616.866 1.36494 0.870697 0
M  V30 6517 H 618.858 0.957941 3.93199 0
M  V30 6518 H 617.428 0.280873 3.11336 0
M  V30 6519 H 616.648 2.74974 2.82459 0
M  V30 6520 H 617.936 3.19919 3.95638 0
M  V30 6521 H 617.334 0.497016 5.63512 0
M  V30 6522 H 615.891 0.954518 6.44773 0
M  V30 6523 N 619.324 -0.923095 1.27737 0
M  V30 6524 C 620.287 -2.00587 1.10894 0
M  V30 6525 C 621.287 -1.60718 0.0514927 0
M  V30 6526 O 622.477 -1.71658 0.296481 0
M  V30 6527 C 619.609 -3.33829 0.690717 0
M  V30 6528 H 620.802 -2.16959 2.07048 0
M  V30 6529 H 618.355 -1.10451 1.1059 0
M  V30 6530 H 619.09 -3.23157 -0.272 0
M  V30 6531 H 618.875 -3.64125 1.45448 0
M  V30 6532 H 620.365 -4.13336 0.595252 0
M  V30 6533 N 620.802 -1.09834 -1.13024 0
M  V30 6534 C 622.048 -0.83819 -1.84668 0
M  V30 6535 C 622.381 0.634645 -1.83537 0
M  V30 6536 O 621.656 1.46753 -1.27647 0
M  V30 6537 C 621.939 -1.37933 -3.32636 0
M  V30 6538 C 621.792 -2.91857 -3.42257 0
M  V30 6539 C 623.111 -1.01654 -4.28199 0
M  V30 6540 H 620.23 -0.30595 -0.670495 0
M  V30 6541 H 622.872 -1.36044 -1.32635 0
M  V30 6542 H 621.022 -0.935111 -3.77078 0
M  V30 6543 H 622.694 -3.44759 -3.06495 0
M  V30 6544 H 620.937 -3.28776 -2.83 0
M  V30 6545 H 621.608 -3.24799 -4.46329 0
M  V30 6546 H 624.084 -1.39973 -3.9185 0
M  V30 6547 H 622.96 -1.42217 -5.30156 0
M  V30 6548 H 623.221 0.0747794 -4.42037 0
M  V30 6549 N 622.28 1.30327 -0.886154 0
M  V30 6550 C 623.243 2.26376 -0.358687 0
M  V30 6551 C 624.243 1.52845 0.499498 0
M  V30 6552 O 625.433 1.71483 0.306485 0
M  V30 6553 C 622.565 3.37379 0.488726 0
M  V30 6554 H 623.758 2.74547 -1.20681 0
M  V30 6555 H 621.311 1.41536 -0.663113 0
M  V30 6556 H 622.046 2.94526 1.35739 0
M  V30 6557 H 621.831 3.91897 -0.126003 0
M  V30 6558 H 623.321 4.08868 0.84952 0
M  V30 6559 N 623.758 0.647228 1.43697 0
M  V30 6560 C 625.169 0.238689 1.85168 0
M  V30 6561 C 625.52 -1.21345 1.54175 0
M  V30 6562 O 624.645 -1.92542 0.987743 0
M  V30 6563 C 625.24 0.426422 3.36106 0
M  V30 6564 C 623.799 0.0722541 3.76331 0
M  V30 6565 C 622.946 0.732153 2.6746 0
M  V30 6566 H 625.897 0.851309 1.33934 0
M  V30 6567 H 625.918 -0.32987 3.79067 0
M  V30 6568 H 625.43 1.48339 3.58632 0
M  V30 6569 H 623.531 -0.982355 3.59417 0
M  V30 6570 H 623.644 0.493541 4.76551 0
M  V30 6571 H 622.008 0.16594 2.54159 0
M  V30 6572 H 622.791 1.79204 2.92816 0
M  V30 6573 N 625.236 -1.5273 0.388769 0
M  V30 6574 C 626.647 -1.86505 -0.0853788 0
M  V30 6575 C 626.998 -1.30847 -1.46197 0
M  V30 6576 O 626.123 -0.639609 -2.06732 0
M  V30 6577 C 626.718 -3.38414 -0.161703 0
M  V30 6578 C 625.277 -3.71902 -0.580144 0
M  V30 6579 C 624.424 -2.76095 0.258218 0
M  V30 6580 H 627.375 -1.46647 0.606665 0
M  V30 6581 H 627.396 -3.67638 -0.980936 0
M  V30 6582 H 626.908 -3.78893 0.840333 0
M  V30 6583 H 625.009 -3.36992 -1.58957 0
M  V30 6584 H 625.122 -4.77902 -0.338663 0
M  V30 6585 H 623.486 -2.53195 -0.276432 0
M  V30 6586 H 624.269 -3.19411 1.25822 0
M  V30 6587 N 626.714 -0.118576 -1.57153 0
M  V30 6588 C 627.677 0.817464 -2.14127 0
M  V30 6589 C 628.677 1.1949 -1.07604 0
M  V30 6590 O 629.867 1.12048 -1.33382 0
M  V30 6591 C 626.999 2.10541 -2.68115 0
M  V30 6592 H 628.192 0.322339 -2.98163 0
M  V30 6593 H 625.745 0.130655 -1.55753 0
M  V30 6594 H 626.48 2.64485 -1.87665 0
M  V30 6595 H 626.265 1.84425 -3.4602 0
M  V30 6596 H 627.755 2.77453 -3.12105 0
M  V30 6597 N 628.193 1.56834 0.155195 0
M  V30 6598 C 629.604 1.72421 0.716082 0
M  V30 6599 C 629.955 0.731685 1.82046 0
M  V30 6600 O 629.08 -0.103481 2.16152 0
M  V30 6601 C 629.675 3.12629 1.30571 0
M  V30 6602 C 628.234 3.29846 1.81325 0
M  V30 6603 C 627.381 2.68359 0.698494 0
M  V30 6604 H 630.332 1.58544 -0.0703861 0
M  V30 6605 H 630.353 3.12174 2.1755 0
M  V30 6606 H 629.865 3.84844 0.501701 0
M  V30 6607 H 627.966 2.62614 2.64319 0
M  V30 6608 H 628.079 4.37727 1.9476 0
M  V30 6609 H 626.443 2.28604 1.12305 0
M  V30 6610 H 627.226 3.43171 -0.0939366 0
M  V30 6611 N 629.671 -0.424282 1.51781 0
M  V30 6612 C 630.618 -1.51591 1.74037 0
M  V30 6613 C 631.588 -1.55556 0.582358 0
M  V30 6614 O 632.773 -1.72364 0.818245 0
M  V30 6615 C 629.913 -2.89188 1.8832 0
M  V30 6616 C 629.026 -2.9465 3.1592 0
M  V30 6617 C 628.161 -4.23452 3.20721 0
M  V30 6618 C 627.2 -4.22831 4.42584 0
M  V30 6619 N 626.337 -5.43178 4.44862 0
M  V30 6620 H 631.177 -1.31917 2.67212 0
M  V30 6621 H 628.714 -0.640599 1.32419 0
M  V30 6622 H 630.672 -3.69044 1.94583 0
M  V30 6623 H 629.302 -3.07392 0.985402 0
M  V30 6624 H 628.354 -2.07378 3.18902 0
M  V30 6625 H 629.666 -2.90055 4.05795 0
M  V30 6626 H 628.82 -5.1169 3.25973 0
M  V30 6627 H 627.559 -4.30722 2.28757 0
M  V30 6628 H 626.564 -3.32984 4.37495 0
M  V30 6629 H 627.789 -4.17213 5.35826 0
M  V30 6630 H 625.735 -5.51145 3.55775 0
M  V30 6631 H 625.652 -5.40515 5.28563 0
M  V30 6632 H 626.92 -6.33412 4.54324 0
M  V30 6633 N 631.149 -1.42148 -0.680565 0
M  V30 6634 C 632.56 -1.3768 -1.26099 0
M  V30 6635 C 632.911 -0.0672348 -1.96085 0
M  V30 6636 O 632.036 0.834172 -1.99676 0
M  V30 6637 C 632.631 -2.49387 -2.29328 0
M  V30 6638 C 631.19 -2.4827 -2.82911 0
M  V30 6639 C 630.337 -2.2847 -1.57152 0
M  V30 6640 H 633.288 -1.51446 -0.474326 0
M  V30 6641 H 633.309 -2.19307 -3.10941 0
M  V30 6642 H 632.821 -3.44686 -1.78363 0
M  V30 6643 H 630.922 -1.56773 -3.38013 0
M  V30 6644 H 631.035 -3.45109 -3.3232 0
M  V30 6645 H 629.399 -1.76623 -1.83511 0
M  V30 6646 H 630.182 -3.25816 -1.0816 0
M  V30 6647 N 632.627 0.916307 -1.28225 0
M  V30 6648 C 633.855 1.69901 -1.18073 0
M  V30 6649 C 634.27 1.86988 0.260968 0
M  V30 6650 O 633.627 1.39505 1.17663 0
M  V30 6651 C 633.678 3.09254 -1.87201 0
M  V30 6652 O 633.399 2.92959 -3.2574 0
M  V30 6653 C 634.9 4.0362 -1.83319 0
M  V30 6654 H 632.12 0.531181 -0.409985 0
M  V30 6655 H 634.664 1.14703 -1.69303 0
M  V30 6656 H 632.819 3.61277 -1.39848 0
M  V30 6657 H 633.233 3.81139 -3.60324 0
M  V30 6658 H 634.707 4.98873 -2.36282 0
M  V30 6659 H 635.184 4.3176 -0.805007 0
M  V30 6660 H 635.79 3.57524 -2.3034 0
M  V30 6661 N 634.105 1.10431 1.1244 0
M  V30 6662 C 635.037 0.710945 2.17895 0
M  V30 6663 C 636.05 -0.252315 1.60833 0
M  V30 6664 O 637.239 -0.03679 1.78462 0
M  V30 6665 C 634.339 0.0284262 3.38888 0
M  V30 6666 C 633.512 1.01585 4.2544 0
M  V30 6667 C 632.571 0.364826 5.24934 0
M  V30 6668 O 631.597 1.01561 5.60066 0
M  V30 6669 N 632.799 -0.87674 5.73841 0
M  V30 6670 H 635.564 1.61826 2.52255 0
M  V30 6671 H 633.125 0.993132 1.27861 0
M  V30 6672 H 635.117 -0.418568 4.0253 0
M  V30 6673 H 633.687 -0.781294 3.02679 0
M  V30 6674 H 632.907 1.64111 3.58415 0
M  V30 6675 H 634.195 1.68425 4.80115 0
M  V30 6676 H 633.593 -1.42483 5.47462 0
M  V30 6677 H 632.15 -1.26688 6.39369 0
M  V30 6678 N 635.583 -1.29855 0.893053 0
M  V30 6679 C 636.546 -2.26183 0.370687 0
M  V30 6680 C 637.546 -1.53108 -0.491385 0
M  V30 6681 O 638.736 -1.71643 -0.297386 0
M  V30 6682 C 635.868 -3.37633 -0.470827 0
M  V30 6683 H 637.061 -2.73903 1.22135 0
M  V30 6684 H 634.614 -1.41183 0.67061 0
M  V30 6685 H 635.349 -2.95241 -1.34175 0
M  V30 6686 H 635.134 -3.91825 0.146784 0
M  V30 6687 H 636.624 -4.09313 -0.827825 0
M  V30 6688 N 637.061 -0.65484 -1.43351 0
M  V30 6689 C 638.309 -0.168559 -2.01396 0
M  V30 6690 C 638.63 1.22235 -1.51933 0
M  V30 6691 O 637.9 1.81685 -0.732627 0
M  V30 6692 H 636.48 -0.0593244 -0.744641 0
M  V30 6693 H 639.142 -0.846871 -1.75539 0
M  V30 6694 H 638.238 -0.154428 -3.11718 0
M  V30 6695 N 638.539 1.52521 -0.396863 0
M  V30 6696 C 639.449 2.30403 0.44178 0
M  V30 6697 C 640.465 1.37625 1.06468 0
M  V30 6698 O 641.641 1.70697 1.06886 0
M  V30 6699 C 638.706 3.1013 1.54986 0
M  V30 6700 C 637.767 4.18628 0.951279 0
M  V30 6701 C 637 4.94543 2.00655 0
M  V30 6702 O 637.223 4.70629 3.22281 0
M  V30 6703 O 636.157 5.797 1.61962 0
M  V30 6704 H 639.983 3.03087 -0.192892 0
M  V30 6705 H 637.568 1.48537 -0.16038 0
M  V30 6706 H 639.45 3.59816 2.19341 0
M  V30 6707 H 638.125 2.40251 2.16935 0
M  V30 6708 H 637.032 3.73119 0.270773 0
M  V30 6709 H 638.365 4.90763 0.375887 0
M  V30 6710 N 640.017 0.126909 1.57088 0
M  V30 6711 C 641.265 -0.528123 1.95078 0
M  V30 6712 C 641.586 -1.66708 1.0116 0
M  V30 6713 O 640.856 -1.95777 0.0693527 0
M  V30 6714 H 639.436 -0.198087 0.720257 0
M  V30 6715 H 642.098 0.197703 1.93895 0
M  V30 6716 H 641.194 -0.917507 2.98309 0
M  V30 6717 N 641.495 -1.56914 -0.146875 0
M  V30 6718 C 642.723 -1.87515 -0.874394 0
M  V30 6719 C 643.138 -0.715116 -1.74733 0
M  V30 6720 O 642.495 0.315113 -1.79759 0
M  V30 6721 C 642.546 -3.17362 -1.731 0
M  V30 6722 O 642.267 -4.28897 -0.893245 0
M  V30 6723 C 643.768 -3.61479 -2.56609 0
M  V30 6724 H 640.988 -0.621546 -0.252827 0
M  V30 6725 H 643.532 -2.04023 -0.139627 0
M  V30 6726 H 641.687 -3.02608 -2.41883 0
M  V30 6727 H 642.101 -5.03146 -1.48137 0
M  V30 6728 H 643.575 -4.5517 -3.12289 0
M  V30 6729 H 644.052 -2.86773 -3.32653 0
M  V30 6730 H 644.658 -3.78927 -1.93117 0
M  V30 6731 N 642.974 0.416227 -1.52004 0
M  V30 6732 C 643.904 1.51365 -1.77795 0
M  V30 6733 C 644.885 1.58059 -0.628601 0
M  V30 6734 O 646.07 1.73447 -0.873478 0
M  V30 6735 C 643.2 2.89256 -1.92219 0
M  V30 6736 C 642.154 2.97415 -3.0778 0
M  V30 6737 C 641.48 4.37492 -3.07417 0
M  V30 6738 C 642.78 2.69551 -4.47369 0
M  V30 6739 H 644.474 1.30033 -2.69688 0
M  V30 6740 H 642.02 0.624112 -1.29772 0
M  V30 6741 H 643.973 3.66008 -2.08845 0
M  V30 6742 H 642.697 3.11866 -0.969917 0
M  V30 6743 H 641.356 2.23107 -2.90893 0
M  V30 6744 H 641.004 4.571 -2.09925 0
M  V30 6745 H 640.704 4.43877 -3.85029 0
M  V30 6746 H 642.228 5.16188 -3.26162 0
M  V30 6747 H 643.642 3.36028 -4.64497 0
M  V30 6748 H 642.039 2.87321 -5.26846 0
M  V30 6749 H 643.109 1.65029 -4.55953 0
M  V30 6750 N 644.452 1.42507 0.673017 0
M  V30 6751 C 645.677 1.4668 1.46627 0
M  V30 6752 C 646.102 0.080066 1.8793 0
M  V30 6753 O 645.46 -0.921879 1.56112 0
M  V30 6754 C 645.508 2.40091 2.69051 0
M  V30 6755 O 644.612 1.8735 3.67387 0
M  V30 6756 H 643.953 0.496908 0.44043 0
M  V30 6757 H 646.483 1.87215 0.825334 0
M  V30 6758 H 646.493 2.56731 3.17101 0
M  V30 6759 H 645.168 3.4084 2.3833 0
M  V30 6760 H 643.745 1.80274 3.26429 0
M  V30 6761 N 645.93 -0.909495 1.28709 0
M  V30 6762 C 646.84 -2.04558 1.14861 0
M  V30 6763 C 647.856 -1.73842 0.0741621 0
M  V30 6764 O 649.032 -1.99383 0.2843 0
M  V30 6765 C 646.097 -3.36957 0.816148 0
M  V30 6766 C 645.158 -3.81255 1.97341 0
M  V30 6767 C 644.391 -5.07335 1.65671 0
M  V30 6768 O 644.614 -5.67514 0.573053 0
M  V30 6769 O 643.548 -5.47449 2.50167 0
M  V30 6770 H 647.374 -2.19161 2.10243 0
M  V30 6771 H 644.959 -1.03159 1.08068 0
M  V30 6772 H 646.841 -4.16436 0.644873 0
M  V30 6773 H 645.516 -3.2352 -0.107983 0
M  V30 6774 H 644.423 -3.02584 2.19986 0
M  V30 6775 H 645.756 -3.99261 2.87839 0
M  V30 6776 N 647.408 -1.11026 -1.11852 0
M  V30 6777 C 648.371 -0.768006 -2.1595 0
M  V30 6778 C 649.371 0.210538 -1.59416 0
M  V30 6779 O 650.561 -0.0133978 -1.74195 0
M  V30 6780 C 647.693 -0.138678 -3.40618 0
M  V30 6781 H 648.886 -1.69012 -2.4774 0
M  V30 6782 H 646.439 -0.911578 -1.26964 0
M  V30 6783 H 647.174 0.793872 -3.14433 0
M  V30 6784 H 646.959 -0.843012 -3.8293 0
M  V30 6785 H 648.449 0.0848039 -4.17514 0
M  V30 6786 N 648.886 1.2938 -0.899927 0
M  V30 6787 C 649.816 2.30144 -0.39446 0
M  V30 6788 C 650.797 1.61611 0.530639 0
M  V30 6789 O 651.982 1.89119 0.441319 0
M  V30 6790 C 649.112 3.45229 0.37868 0
M  V30 6791 C 648.066 4.25564 -0.456012 0
M  V30 6792 C 647.392 5.32848 0.444637 0
M  V30 6793 C 648.692 4.93651 -1.70605 0
M  V30 6794 H 650.386 2.72673 -1.23653 0
M  V30 6795 H 647.932 1.31086 -0.596034 0
M  V30 6796 H 649.885 4.14797 0.743037 0
M  V30 6797 H 648.609 3.01545 1.25453 0
M  V30 6798 H 647.268 3.57704 -0.802704 0
M  V30 6799 H 646.916 4.85408 1.31863 0
M  V30 6800 H 646.616 5.87497 -0.110154 0
M  V30 6801 H 648.14 6.05268 0.805182 0
M  V30 6802 H 649.554 5.55655 -1.41141 0
M  V30 6803 H 647.951 5.58233 -2.20217 0
M  V30 6804 H 649.021 4.18926 -2.4419 0
M  V30 6805 N 650.364 0.662433 1.43002 0
M  V30 6806 C 651.294 -0.00979809 2.33498 0
M  V30 6807 C 652.275 -0.802329 1.49989 0
M  V30 6808 O 653.46 -0.761964 1.78627 0
M  V30 6809 C 650.59 -0.970446 3.33466 0
M  V30 6810 C 649.544 -0.287383 4.27034 0
M  V30 6811 C 648.87 -1.36012 5.17112 0
M  V30 6812 C 650.17 0.82595 5.15728 0
M  V30 6813 H 651.864 0.745959 2.89958 0
M  V30 6814 H 649.41 0.360172 1.39423 0
M  V30 6815 H 651.363 -1.44971 3.95679 0
M  V30 6816 H 650.087 -1.75748 2.75282 0
M  V30 6817 H 648.746 0.17152 3.66199 0
M  V30 6818 H 648.394 -2.13882 4.55262 0
M  V30 6819 H 648.094 -0.908276 5.80538 0
M  V30 6820 H 649.618 -1.84056 5.82199 0
M  V30 6821 H 651.032 0.42845 5.71697 0
M  V30 6822 H 649.429 1.20282 5.87922 0
M  V30 6823 H 650.499 1.68003 4.54866 0
M  V30 6824 N 651.842 -1.52309 0.404946 0
M  V30 6825 C 652.774 -2.24579 -0.45791 0
M  V30 6826 C 653.787 -1.2739 -1.01369 0
M  V30 6827 O 654.976 -1.53363 -0.91335 0
M  V30 6828 C 652.076 -2.9608 -1.64893 0
M  V30 6829 C 651.249 -4.20106 -1.21777 0
M  V30 6830 C 650.308 -4.74468 -2.27523 0
M  V30 6831 O 649.334 -5.37157 -1.88285 0
M  V30 6832 N 650.536 -4.55678 -3.59635 0
M  V30 6833 H 653.301 -2.99265 0.161341 0
M  V30 6834 H 650.862 -1.60228 0.232107 0
M  V30 6835 H 652.854 -3.29344 -2.35191 0
M  V30 6836 H 651.424 -2.24606 -2.17419 0
M  V30 6837 H 650.644 -3.92704 -0.343071 0
M  V30 6838 H 651.932 -5.00658 -0.906596 0
M  V30 6839 H 651.33 -4.05673 -3.94266 0
M  V30 6840 H 649.887 -4.9339 -4.25922 0
M  V30 6841 N 653.32 -0.135238 -1.57019 0
M  V30 6842 C 654.25 0.805235 -2.19176 0
M  V30 6843 C 655.231 1.2656 -1.13651 0
M  V30 6844 O 656.416 1.32528 -1.4195 0
M  V30 6845 C 653.546 2.04914 -2.80406 0
M  V30 6846 C 652.5 1.72598 -3.91655 0
M  V30 6847 C 651.826 3.04154 -4.39766 0
M  V30 6848 C 653.126 0.981709 -5.12991 0
M  V30 6849 H 654.82 0.287232 -2.98019 0
M  V30 6850 H 652.366 0.136714 -1.4335 0
M  V30 6851 H 654.319 2.71178 -3.22553 0
M  V30 6852 H 653.043 2.59067 -1.98877 0
M  V30 6853 H 651.702 1.08717 -3.50109 0
M  V30 6854 H 651.35 3.56274 -3.55075 0
M  V30 6855 H 651.05 2.83299 -5.14796 0
M  V30 6856 H 652.574 3.71509 -4.84576 0
M  V30 6857 H 653.988 1.5462 -5.52056 0
M  V30 6858 H 652.385 0.873533 -5.93708 0
M  V30 6859 H 653.455 -0.0286887 -4.84892 0
M  V30 6860 N 654.798 1.5699 0.138552 0
M  V30 6861 C 655.73 1.95515 1.1961 0
M  V30 6862 C 656.743 0.852002 1.38726 0
M  V30 6863 O 657.932 1.13038 1.38147 0
M  V30 6864 C 655.032 2.2213 2.55952 0
M  V30 6865 C 654.205 3.53424 2.57702 0
M  V30 6866 C 653.264 3.6848 3.75645 0
M  V30 6867 O 652.29 4.4079 3.60129 0
M  V30 6868 N 653.492 3.05777 4.93438 0
M  V30 6869 H 656.257 2.86838 0.868557 0
M  V30 6870 H 653.818 1.58542 0.328033 0
M  V30 6871 H 655.81 2.29435 3.33379 0
M  V30 6872 H 654.38 1.3703 2.80965 0
M  V30 6873 H 653.6 3.57484 1.6613 0
M  V30 6874 H 654.888 4.39759 2.55909 0
M  V30 6875 H 654.286 2.46961 5.08947 0
M  V30 6876 H 652.843 3.18631 5.6861 0
M  V30 6877 N 656.276 -0.40816 1.52223 0
M  V30 6878 C 657.523 -1.15502 1.66329 0
M  V30 6879 C 657.851 -1.90474 0.393701 0
M  V30 6880 O 657.106 -1.85507 -0.623356 0
M  V30 6881 C 657.405 -2.17422 2.83659 0
M  V30 6882 C 657.071 -1.5925 4.21841 0
M  V30 6883 C 655.733 -1.4311 4.59427 0
M  V30 6884 C 658.085 -1.16776 5.0795 0
M  V30 6885 C 655.413 -0.830148 5.80797 0
M  V30 6886 C 657.765 -0.580988 6.29926 0
M  V30 6887 C 656.429 -0.406729 6.6626 0
M  V30 6888 H 655.699 -0.422653 0.608642 0
M  V30 6889 H 658.346 -0.442114 1.86327 0
M  V30 6890 H 656.651 -2.94861 2.58001 0
M  V30 6891 H 658.348 -2.75084 2.9177 0
M  V30 6892 H 654.938 -1.72796 3.92224 0
M  V30 6893 H 659.122 -1.28055 4.79495 0
M  V30 6894 H 654.378 -0.68316 6.07571 0
M  V30 6895 H 658.552 -0.243488 6.95974 0
M  V30 6896 H 656.179 0.0610366 7.60175 0
M  V30 6897 N 657.755 -1.42862 -0.66545 0
M  V30 6898 C 659.032 -1.3431 -1.42197 0
M  V30 6899 C 659.412 0.0150265 -2.11095 0
M  V30 6900 O 658.76 1.03101 -2.03918 0
M  V30 6901 C 658.97 -2.51783 -2.41674 0
M  V30 6902 C 660.318 -2.94321 -3.0604 0
M  V30 6903 O 661.342 -2.51741 -2.52001 0
M  V30 6904 O 660.201 -3.68047 -4.03985 0
M  V30 6905 H 657.295 -0.530159 -0.634713 0
M  V30 6906 H 659.841 -1.54888 -0.693386 0
M  V30 6907 H 658.613 -3.42282 -1.89627 0
M  V30 6908 H 658.236 -2.33241 -3.22001 0
M  V30 6909 N 659.233 0.902656 -1.29189 0
M  V30 6910 C 660.51 1.63296 -1.07674 0
M  V30 6911 C 660.89 2.07649 0.380137 0
M  V30 6912 O 660.238 1.82997 1.36837 0
M  V30 6913 C 660.448 2.81603 -2.06158 0
M  V30 6914 C 661.796 3.52359 -2.36914 0
M  V30 6915 O 662.82 2.91767 -2.04329 0
M  V30 6916 O 661.679 4.61586 -2.92576 0
M  V30 6917 H 658.773 0.716889 -0.41231 0
M  V30 6918 H 661.319 0.950984 -1.4055 0
M  V30 6919 H 660.091 2.46004 -3.04299 0
M  V30 6920 H 659.714 3.57508 -1.73993 0
M  V30 6921 N 660.711 1.11618 1.11262 0
M  V30 6922 C 661.621 0.78898 2.20935 0
M  V30 6923 C 662.637 -0.21867 1.7262 0
M  V30 6924 O 663.813 -0.0543826 2.01327 0
M  V30 6925 C 660.878 0.239014 3.45875 0
M  V30 6926 C 659.939 1.3055 4.08968 0
M  V30 6927 C 659.172 0.781687 5.27944 0
M  V30 6928 O 659.395 -0.387605 5.69082 0
M  V30 6929 O 658.329 1.54734 5.81671 0
M  V30 6930 H 662.155 1.70477 2.51339 0
M  V30 6931 H 659.74 0.892203 1.19834 0
M  V30 6932 H 661.622 -0.0632312 4.21353 0
M  V30 6933 H 660.297 -0.649454 3.17118 0
M  V30 6934 H 659.204 1.66079 3.35214 0
M  V30 6935 H 660.537 2.16743 4.41909 0
M  V30 6936 N 662.189 -1.289 0.906776 0
M  V30 6937 C 663.466 -1.90221 0.455537 0
M  V30 6938 C 663.846 -1.82251 -1.06527 0
M  V30 6939 O 663.194 -1.25385 -1.91026 0
M  V30 6940 C 663.404 -3.35015 0.97806 0
M  V30 6941 C 664.752 -4.12018 1.02598 0
M  V30 6942 O 665.776 -3.43947 0.926218 0
M  V30 6943 O 664.635 -5.33677 1.17689 0
M  V30 6944 H 661.729 -0.814505 0.143214 0
M  V30 6945 H 664.275 -1.37317 0.997104 0
M  V30 6946 H 663.047 -3.35006 2.02204 0
M  V30 6947 H 662.67 -3.95408 0.416914 0
M  V30 6948 N 663.667 -0.670007 -1.42649 0
M  V30 6949 C 664.597 -0.00258501 -2.335 0
M  V30 6950 C 665.578 0.794364 -1.50412 0
M  V30 6951 O 666.763 0.75248 -1.79029 0
M  V30 6952 C 663.893 0.952748 -3.33976 0
M  V30 6953 C 662.847 0.264733 -4.2718 0
M  V30 6954 C 662.173 1.33267 -5.17826 0
M  V30 6955 C 663.473 -0.853289 -5.15283 0
M  V30 6956 H 665.167 -0.761326 -2.89559 0
M  V30 6957 H 662.713 -0.367561 -1.3923 0
M  V30 6958 H 664.666 1.4287 -3.96442 0
M  V30 6959 H 663.39 1.74285 -2.7621 0
M  V30 6960 H 662.049 -0.190938 -3.66102 0
M  V30 6961 H 661.697 2.11464 -4.5639 0
M  V30 6962 H 661.397 0.877476 -5.81011 0
M  V30 6963 H 662.921 1.80965 -5.83167 0
M  V30 6964 H 664.335 -0.458763 -5.71462 0
M  V30 6965 H 662.732 -1.23398 -5.87276 0
M  V30 6966 H 663.802 -1.70412 -4.53969 0
M  V30 6967 N 665.145 1.52092 -0.413018 0
M  V30 6968 C 666.393 2.01456 0.161178 0
M  V30 6969 C 666.714 1.30034 1.45314 0
M  V30 6970 O 665.984 0.427435 1.9118 0
M  V30 6971 H 664.564 0.744376 0.0625526 0
M  V30 6972 H 667.226 1.86974 -0.550151 0
M  V30 6973 H 666.322 3.1008 0.354517 0
M  V30 6974 N 666.623 0.143563 1.56945 0
M  V30 6975 C 667.586 -0.783295 2.154 0
M  V30 6976 C 668.586 -1.17763 1.09492 0
M  V30 6977 O 669.776 -1.09912 1.35148 0
M  V30 6978 C 666.908 -2.06248 2.7143 0
M  V30 6979 H 668.101 -0.274863 2.98638 0
M  V30 6980 H 665.654 -0.105859 1.55941 0
M  V30 6981 H 666.389 -2.61466 1.91849 0
M  V30 6982 H 666.174 -1.78897 3.4891 0
M  V30 6983 H 667.664 -2.72453 3.16479 0
M  V30 6984 N 668.101 -1.57061 -0.130224 0
M  V30 6985 C 669.031 -2.02552 -1.16168 0
M  V30 6986 C 670.012 -0.907971 -1.4384 0
M  V30 6987 O 671.197 -1.17693 -1.54473 0
M  V30 6988 C 668.327 -2.42035 -2.49071 0
M  V30 6989 C 667.281 -3.5713 -2.35886 0
M  V30 6990 C 666.607 -3.82478 -3.7365 0
M  V30 6991 C 667.907 -4.89236 -1.8288 0
M  V30 6992 H 669.601 -2.8897 -0.783359 0
M  V30 6993 H 667.147 -1.39021 -0.375376 0
M  V30 6994 H 669.1 -2.72462 -3.21469 0
M  V30 6995 H 667.824 -1.52573 -2.88771 0
M  V30 6996 H 666.483 -3.26895 -1.65938 0
M  V30 6997 H 666.131 -2.9024 -4.10816 0
M  V30 6998 H 665.831 -4.59944 -3.65685 0
M  V30 6999 H 667.355 -4.15347 -4.47571 0
M  V30 7000 H 668.769 -5.18272 -2.45085 0
M  V30 7001 H 667.166 -5.70624 -1.85763 0
M  V30 7002 H 668.236 -4.78494 -0.785571 0
M  V30 7003 N 669.579 0.400081 -1.52437 0
M  V30 7004 C 670.509 1.4947 -1.7939 0
M  V30 7005 C 671.49 1.57383 -0.645329 0
M  V30 7006 O 672.675 1.72511 -0.891826 0
M  V30 7007 C 669.805 2.87201 -1.95276 0
M  V30 7008 C 668.759 2.94134 -3.10917 0
M  V30 7009 C 668.085 4.34207 -3.1204 0
M  V30 7010 C 669.385 2.64791 -4.50203 0
M  V30 7011 H 671.079 1.27165 -2.71052 0
M  V30 7012 H 668.625 0.610312 -1.30427 0
M  V30 7013 H 670.578 3.63772 -2.12715 0
M  V30 7014 H 669.302 3.10819 -1.00294 0
M  V30 7015 H 667.961 2.20009 -2.93243 0
M  V30 7016 H 667.609 4.54848 -2.14761 0
M  V30 7017 H 667.309 4.39768 -3.89715 0
M  V30 7018 H 668.833 5.127 -3.31619 0
M  V30 7019 H 670.247 3.31083 -4.68035 0
M  V30 7020 H 668.644 2.81717 -5.29864 0
M  V30 7021 H 669.714 1.60184 -4.57678 0
M  V30 7022 N 671.057 1.43213 0.657864 0
M  V30 7023 C 672.305 1.44298 1.41501 0
M  V30 7024 C 672.626 0.0666478 1.94886 0
M  V30 7025 O 671.896 -0.897345 1.74139 0
M  V30 7026 H 670.476 0.531257 0.525143 0
M  V30 7027 H 673.138 1.78777 0.776195 0
M  V30 7028 H 672.234 2.1528 2.25966 0
M  V30 7029 N 672.536 -0.895792 1.29666 0
M  V30 7030 C 673.484 -2.02173 1.15017 0
M  V30 7031 C 674.478 -1.69276 0.0647651 0
M  V30 7032 O 675.684 -1.7859 0.224846 0
M  V30 7033 H 672.059 -0.662719 0.355397 0
M  V30 7034 H 674.03 -2.11666 2.10334 0
M  V30 7035 C 672.779 -3.37212 0.847555 0
M  V30 7036 H 672.102 -3.6303 1.67479 0
M  V30 7037 H 673.542 -4.16668 0.785106 0
M  V30 7038 C 672.001 -3.33891 -0.44929 0
M  V30 7039 O 672.531 -3.73673 -1.47415 0
M  V30 7040 N 670.737 -2.86991 -0.456547 0
M  V30 7041 H 670.284 -2.54813 0.377925 0
M  V30 7042 H 670.242 -2.85152 -1.32423 0
M  V30 7043 N 674.014 -1.12206 -1.10668 0
M  V30 7044 C 675.239 -0.898938 -1.86906 0
M  V30 7045 C 675.664 0.546346 -1.79991 0
M  V30 7046 O 675.022 1.38655 -1.1681 0
M  V30 7047 C 675.07 -1.37529 -3.33344 0
M  V30 7048 O 674.174 -0.55218 -4.08687 0
M  V30 7049 H 673.515 -0.323163 -0.580053 0
M  V30 7050 H 676.045 -1.49355 -1.39837 0
M  V30 7051 H 676.055 -1.3733 -3.84193 0
M  V30 7052 H 674.73 -2.42767 -3.37693 0
M  V30 7053 H 673.307 -0.620947 -3.67694 0
M  V30 7054 N 675.492 1.28418 -0.913599 0
M  V30 7055 C 676.72 1.99106 -0.562536 0
M  V30 7056 C 677.135 1.68273 0.856137 0
M  V30 7057 O 676.492 0.935401 1.56705 0
M  V30 7058 C 676.543 3.5338 -0.761903 0
M  V30 7059 O 676.264 3.83127 -2.12475 0
M  V30 7060 C 677.765 4.41328 -0.417651 0
M  V30 7061 H 674.985 0.635798 -0.214481 0
M  V30 7062 H 677.529 1.63618 -1.22676 0
M  V30 7063 H 675.684 3.8713 -0.144676 0
M  V30 7064 H 676.098 4.77763 -2.16431 0
M  V30 7065 H 677.572 5.48642 -0.607919 0
M  V30 7066 H 678.049 4.34422 0.646108 0
M  V30 7067 H 678.655 4.13074 -1.01241 0
M  V30 7068 N 676.97 0.677563 1.42291 0
M  V30 7069 C 678.247 0.129803 1.95169 0
M  V30 7070 C 678.627 -1.35605 1.61786 0
M  V30 7071 O 677.975 -2.09361 0.915444 0
M  V30 7072 C 678.185 0.401889 3.46678 0
M  V30 7073 C 679.533 0.319889 4.23393 0
M  V30 7074 O 680.557 0.33579 3.54614 0
M  V30 7075 O 679.416 0.264459 5.4586 0
M  V30 7076 H 676.51 0.00447433 0.826988 0
M  V30 7077 H 679.056 0.752483 1.52105 0
M  V30 7078 H 677.828 1.43108 3.64192 0
M  V30 7079 H 677.451 -0.252662 3.96796 0
M  V30 7080 N 678.448 -1.51871 0.421078 0
M  V30 7081 C 679.859 -1.86644 -0.0457991 0
M  V30 7082 C 680.21 -1.33919 -1.43388 0
M  V30 7083 O 679.335 -0.683316 -2.05328 0
M  V30 7084 C 679.93 -3.38681 -0.0898844 0
M  V30 7085 C 678.489 -3.73049 -0.501127 0
M  V30 7086 C 677.636 -2.75485 0.316723 0
M  V30 7087 H 680.587 -1.45327 0.637635 0
M  V30 7088 H 680.608 -3.69636 -0.902734 0
M  V30 7089 H 680.12 -3.77025 0.920513 0
M  V30 7090 H 678.221 -3.40288 -1.51773 0
M  V30 7091 H 678.334 -4.78512 -0.237217 0
M  V30 7092 H 676.698 -2.53725 -0.222663 0
M  V30 7093 H 677.481 -3.16671 1.32569 0
M  V30 7094 N 679.926 -0.151884 -1.56866 0
M  V30 7095 C 680.889 0.771861 -2.15812 0
M  V30 7096 C 681.889 1.17181 -1.10115 0
M  V30 7097 O 683.079 1.09194 -1.35729 0
M  V30 7098 C 680.211 2.04806 -2.7252 0
M  V30 7099 H 681.404 0.259021 -2.98779 0
M  V30 7100 H 678.957 0.097588 -1.55995 0
M  V30 7101 H 679.692 2.60445 -1.93233 0
M  V30 7102 H 679.477 1.77044 -3.49854 0
M  V30 7103 H 680.967 2.70771 -3.1792 0
M  V30 7104 N 681.404 1.57128 0.121893 0
M  V30 7105 C 682.65 1.84974 0.831418 0
M  V30 7106 C 682.983 0.737204 1.79663 0
M  V30 7107 O 682.258 -0.257199 1.92792 0
M  V30 7108 C 682.541 3.23397 1.58386 0
M  V30 7109 C 682.394 4.45246 0.638445 0
M  V30 7110 C 683.713 3.59355 2.54071 0
M  V30 7111 H 680.832 0.67282 0.300803 0
M  V30 7112 H 683.474 1.89759 0.0957587 0
M  V30 7113 H 681.624 3.19449 2.21098 0
M  V30 7114 H 683.296 4.61295 0.0203925 0
M  V30 7115 H 681.539 4.33771 -0.05023 0
M  V30 7116 H 682.21 5.38765 1.20151 0
M  V30 7117 H 684.686 3.64075 2.01465 0
M  V30 7118 H 683.562 4.57193 3.03752 0
M  V30 7119 H 683.823 2.86622 3.36601 0
M  V30 7120 N 682.882 -0.391992 1.52647 0
M  V30 7121 C 684.129 -1.13732 1.67545 0
M  V30 7122 C 684.457 -1.90045 0.413881 0
M  V30 7123 O 683.712 -1.86157 -0.603646 0
M  V30 7124 C 684.011 -2.14401 2.85949 0
M  V30 7125 C 683.677 -1.54767 4.23507 0
M  V30 7126 C 682.339 -1.38229 4.60919 0
M  V30 7127 C 684.691 -1.11382 5.0916 0
M  V30 7128 C 682.019 -0.7685 5.81645 0
M  V30 7129 C 684.371 -0.514143 6.30507 0
M  V30 7130 C 683.035 -0.33604 6.66654 0
M  V30 7131 H 682.305 -0.416174 0.613091 0
M  V30 7132 H 684.952 -0.422327 1.86785 0
M  V30 7133 H 683.257 -2.92108 2.61114 0
M  V30 7134 H 684.954 -2.71974 2.94671 0
M  V30 7135 H 681.544 -1.68626 3.94035 0
M  V30 7136 H 685.728 -1.22962 4.80826 0
M  V30 7137 H 680.984 -0.618681 6.08262 0
M  V30 7138 H 685.158 -0.169657 6.96193 0
M  V30 7139 H 682.785 0.14166 7.60068 0
M  V30 7140 N 684.36 -1.4356 -0.65026 0
M  V30 7141 C 685.588 -1.48779 -1.43779 0
M  V30 7142 C 686.003 -0.106593 -1.88499 0
M  V30 7143 O 685.36 0.883766 -1.59674 0
M  V30 7144 C 685.411 -2.43618 -2.67081 0
M  V30 7145 O 685.132 -3.76367 -2.24231 0
M  V30 7146 C 686.633 -2.5811 -3.60409 0
M  V30 7147 H 683.853 -0.50521 -0.441593 0
M  V30 7148 H 686.397 -1.88332 -0.796941 0
M  V30 7149 H 684.552 -2.07253 -3.273 0
M  V30 7150 H 684.966 -4.27394 -3.0403 0
M  V30 7151 H 686.44 -3.28539 -4.43583 0
M  V30 7152 H 686.917 -1.627 -4.07953 0
M  V30 7153 H 687.523 -2.95298 -3.0607 0
M  V30 7154 N 685.838 0.888903 -1.30139 0
M  V30 7155 C 687.115 1.62145 -1.094 0
M  V30 7156 C 687.495 2.08041 0.358091 0
M  V30 7157 O 686.843 1.84438 1.34888 0
M  V30 7158 C 687.053 2.794 -2.09133 0
M  V30 7159 C 688.401 3.49826 -2.40638 0
M  V30 7160 O 689.425 2.89583 -2.07412 0
M  V30 7161 O 688.284 4.58457 -2.97455 0
M  V30 7162 H 685.378 0.712475 -0.41989 0
M  V30 7163 H 687.924 0.936023 -1.41551 0
M  V30 7164 H 686.696 2.42762 -3.06891 0
M  V30 7165 H 686.319 3.55643 -1.77776 0
M  V30 7166 N 687.317 1.12792 1.10072 0
M  V30 7167 C 688.247 0.821688 2.18565 0
M  V30 7168 C 689.228 -0.21612 1.68721 0
M  V30 7169 O 690.413 -0.0764932 1.94049 0
M  V30 7170 C 687.543 0.279624 3.46172 0
M  V30 7171 C 686.497 1.25092 4.09312 0
M  V30 7172 C 685.823 0.568916 5.31665 0
M  V30 7173 C 687.123 2.60699 4.52585 0
M  V30 7174 H 688.817 1.72888 2.44438 0
M  V30 7175 H 686.363 0.832702 1.17482 0
M  V30 7176 H 688.316 0.053099 4.21367 0
M  V30 7177 H 687.04 -0.662929 3.19801 0
M  V30 7178 H 685.699 1.46332 3.36129 0
M  V30 7179 H 685.347 -0.378898 5.01571 0
M  V30 7180 H 685.047 1.21687 5.74862 0
M  V30 7181 H 686.571 0.351517 6.09587 0
M  V30 7182 H 687.985 2.43465 5.19035 0
M  V30 7183 H 686.382 3.21608 5.06644 0
M  V30 7184 H 687.452 3.1886 3.65317 0
M  V30 7185 N 688.795 -1.27931 0.920396 0
M  V30 7186 C 689.758 -2.25345 0.41858 0
M  V30 7187 C 690.758 -1.54116 -0.458798 0
M  V30 7188 O 691.948 -1.72235 -0.260912 0
M  V30 7189 C 689.08 -3.38556 -0.399104 0
M  V30 7190 H 690.273 -2.71251 1.27918 0
M  V30 7191 H 687.826 -1.39728 0.700406 0
M  V30 7192 H 688.561 -2.98021 -1.27882 0
M  V30 7193 H 688.346 -3.91426 0.229863 0
M  V30 7194 H 689.836 -4.10976 -0.740817 0
M  V30 7195 N 690.273 -0.685099 -1.4193 0
M  V30 7196 C 691.498 -0.218842 -2.06242 0
M  V30 7197 C 691.923 1.11923 -1.51178 0
M  V30 7198 O 691.281 1.69837 -0.634446 0
M  V30 7199 C 691.329 -0.175592 -3.60172 0
M  V30 7200 O 690.433 0.852776 -4.03487 0
M  V30 7201 H 689.774 -0.109531 -0.654904 0
M  V30 7202 H 692.304 -0.937013 -1.81882 0
M  V30 7203 H 692.314 -0.00291151 -4.08 0
M  V30 7204 H 690.989 -1.15222 -3.99621 0
M  V30 7205 H 689.566 0.650301 -3.67186 0
M  V30 7206 N 691.751 1.51645 -0.429126 0
M  V30 7207 C 692.997 2.02314 0.140286 0
M  V30 7208 C 693.33 1.31314 1.43074 0
M  V30 7209 O 692.605 0.425531 1.89788 0
M  V30 7210 C 692.888 3.5822 0.36749 0
M  V30 7211 C 692.741 4.39846 -0.941039 0
M  V30 7212 C 694.06 4.25055 1.14089 0
M  V30 7213 H 691.179 0.735335 0.0495112 0
M  V30 7214 H 693.821 1.81358 -0.566514 0
M  V30 7215 H 691.971 3.76207 0.969556 0
M  V30 7216 H 693.643 4.33527 -1.57646 0
M  V30 7217 H 691.886 4.05259 -1.54751 0
M  V30 7218 H 692.557 5.47069 -0.73621 0
M  V30 7219 H 695.033 4.11288 0.630986 0
M  V30 7220 H 693.909 5.34038 1.26863 0
M  V30 7221 H 694.17 3.85358 2.16683 0
M  V30 7222 N 693.229 0.160201 1.56784 0
M  V30 7223 C 694.506 -0.533355 1.88188 0
M  V30 7224 C 694.886 -1.82072 1.06831 0
M  V30 7225 O 694.234 -2.27946 0.158959 0
M  V30 7226 C 694.444 -0.786034 3.40033 0
M  V30 7227 C 695.792 -1.12097 4.09536 0
M  V30 7228 O 696.816 -0.874949 3.45287 0
M  V30 7229 O 695.675 -1.58457 5.23023 0
M  V30 7230 H 692.769 -0.273589 0.780434 0
M  V30 7231 H 695.315 0.197803 1.68543 0
M  V30 7232 H 694.087 0.124515 3.91102 0
M  V30 7233 H 693.71 -1.57091 3.65251 0
M  V30 7234 N 694.707 -1.5719 -0.113559 0
M  V30 7235 C 695.655 -2.01725 -1.158 0
M  V30 7236 C 696.649 -0.915105 -1.42556 0
M  V30 7237 O 697.855 -1.10031 -1.42454 0
M  V30 7238 H 694.23 -0.64262 -0.390569 0
M  V30 7239 H 696.201 -2.88666 -0.755926 0
M  V30 7240 C 694.95 -2.44203 -2.47507 0
M  V30 7241 H 694.273 -3.28582 -2.27758 0
M  V30 7242 H 695.713 -2.79158 -3.19135 0
M  V30 7243 C 694.172 -1.30785 -3.10478 0
M  V30 7244 O 694.702 -0.626807 -3.9678 0
M  V30 7245 N 692.908 -1.06352 -2.7044 0
M  V30 7246 H 692.455 -1.61913 -2.00355 0
M  V30 7247 H 692.413 -0.306614 -3.12901 0
M  V30 7248 N 696.185 0.383891 -1.52853 0
M  V30 7249 C 697.41 1.154 -1.7233 0
M  V30 7250 C 697.835 1.82809 -0.44298 0
M  V30 7251 O 697.193 1.71026 0.601645 0
M  V30 7252 C 697.241 2.17386 -2.87708 0
M  V30 7253 O 696.345 3.24082 -2.55038 0
M  V30 7254 H 695.686 0.335709 -0.572883 0
M  V30 7255 H 698.216 0.44662 -1.99666 0
M  V30 7256 H 698.226 2.61296 -3.1335 0
M  V30 7257 H 696.901 1.6771 -3.80587 0
M  V30 7258 H 695.478 2.85273 -2.40153 0
M  V30 7259 N 697.663 1.43903 0.642637 0
M  V30 7260 C 698.573 1.52349 1.78401 0
M  V30 7261 C 699.589 0.409869 1.69104 0
M  V30 7262 O 700.765 0.665548 1.90085 0
M  V30 7263 C 697.83 1.45408 3.14734 0
M  V30 7264 C 696.891 2.67528 3.35749 0
M  V30 7265 C 696.124 2.60909 4.65577 0
M  V30 7266 O 696.347 1.6627 5.45628 0
M  V30 7267 O 695.281 3.5158 4.88544 0
M  V30 7268 H 699.107 2.48752 1.7423 0
M  V30 7269 H 696.692 1.26021 0.802439 0
M  V30 7270 H 698.574 1.44019 3.96026 0
M  V30 7271 H 697.249 0.521437 3.19473 0
M  V30 7272 H 696.156 2.74487 2.5418 0
M  V30 7273 H 697.489 3.598 3.35864 0
M  V30 7274 N 699.141 -0.881989 1.30609 0
M  V30 7275 C 700.388 -1.63405 1.19604 0
M  V30 7276 C 700.716 -1.92905 -0.248574 0
M  V30 7277 O 699.971 -1.55062 -1.19391 0
M  V30 7278 C 700.27 -2.97999 1.97311 0
M  V30 7279 C 699.936 -2.88039 3.46907 0
M  V30 7280 C 698.598 -2.85029 3.877 0
M  V30 7281 C 700.95 -2.75948 4.42156 0
M  V30 7282 C 698.278 -2.67772 5.2203 0
M  V30 7283 C 700.63 -2.60228 5.76597 0
M  V30 7284 C 699.294 -2.55595 6.16626 0
M  V30 7285 H 698.564 -0.597941 0.437662 0
M  V30 7286 H 701.211 -1.02524 1.61744 0
M  V30 7287 H 699.516 -3.62847 1.47815 0
M  V30 7288 H 701.213 -3.55156 1.86186 0
M  V30 7289 H 697.803 -2.91192 3.14492 0
M  V30 7290 H 701.987 -2.77337 4.1158 0
M  V30 7291 H 697.243 -2.62601 5.52133 0
M  V30 7292 H 701.417 -2.49847 6.50038 0
M  V30 7293 H 699.044 -2.41981 7.20659 0
M  V30 7294 N 700.619 -1.13374 -1.09472 0
M  V30 7295 C 701.551 -0.768466 -2.15933 0
M  V30 7296 C 702.564 0.209585 -1.61445 0
M  V30 7297 O 703.753 -0.010539 -1.78497 0
M  V30 7298 C 700.853 -0.118266 -3.38694 0
M  V30 7299 C 700.026 -1.12829 -4.22597 0
M  V30 7300 C 699.085 -0.503875 -5.23782 0
M  V30 7301 O 698.111 -1.16374 -5.57177 0
M  V30 7302 N 699.313 0.724288 -5.75964 0
M  V30 7303 H 702.078 -1.68457 -2.47876 0
M  V30 7304 H 699.639 -1.02668 -1.25183 0
M  V30 7305 H 701.631 0.311698 -4.03498 0
M  V30 7306 H 700.201 0.700769 -3.04644 0
M  V30 7307 H 699.421 -1.73556 -3.53938 0
M  V30 7308 H 700.709 -1.81095 -4.75481 0
M  V30 7309 H 700.107 1.27918 -5.51048 0
M  V30 7310 H 698.664 1.09692 -6.42504 0
M  V30 7311 N 702.098 1.27442 -0.927168 0
M  V30 7312 C 703.03 2.25975 -0.383158 0
M  V30 7313 C 704.043 1.55382 0.485832 0
M  V30 7314 O 705.232 1.75986 0.298541 0
M  V30 7315 C 702.332 3.35629 0.469688 0
M  V30 7316 C 701.505 4.35747 -0.379886 0
M  V30 7317 C 700.564 5.24598 0.410227 0
M  V30 7318 O 699.59 5.68909 -0.181888 0
M  V30 7319 N 700.792 5.54737 1.71017 0
M  V30 7320 H 703.557 2.7329 -1.23015 0
M  V30 7321 H 701.118 1.41063 -0.794539 0
M  V30 7322 H 703.11 3.92015 1.00532 0
M  V30 7323 H 701.68 2.87919 1.21744 0
M  V30 7324 H 700.9 3.78634 -1.09682 0
M  V30 7325 H 702.188 4.99648 -0.960717 0
M  V30 7326 H 701.586 5.20594 2.21356 0
M  V30 7327 H 700.143 6.13824 2.19234 0
M  V30 7328 N 703.576 0.692616 1.41565 0
M  V30 7329 C 704.506 0.0397325 2.33466 0
M  V30 7330 C 705.487 -0.770334 1.51657 0
M  V30 7331 O 706.672 -0.723903 1.80203 0
M  V30 7332 C 703.802 -0.899495 3.3545 0
M  V30 7333 C 702.756 -0.196738 4.27548 0
M  V30 7334 C 702.082 -1.25012 5.19881 0
M  V30 7335 C 703.382 0.935158 5.1386 0
M  V30 7336 H 705.076 0.807296 2.88311 0
M  V30 7337 H 702.622 0.389665 1.38628 0
M  V30 7338 H 704.575 -1.36545 3.98665 0
M  V30 7339 H 703.299 -1.69869 2.78948 0
M  V30 7340 H 701.958 0.249158 3.65752 0
M  V30 7341 H 701.606 -2.04177 4.59696 0
M  V30 7342 H 701.306 -0.784931 5.82334 0
M  V30 7343 H 702.83 -1.71665 5.85972 0
M  V30 7344 H 704.244 0.549619 5.70659 0
M  V30 7345 H 702.641 1.32726 5.85238 0
M  V30 7346 H 703.711 1.77613 4.512 0
M  V30 7347 N 705.054 -1.51416 0.437162 0
M  V30 7348 C 705.984 -2.30631 -0.364922 0
M  V30 7349 C 706.965 -1.36037 -1.02118 0
M  V30 7350 O 708.15 -1.64956 -1.02485 0
M  V30 7351 C 705.28 -3.1482 -1.46648 0
M  V30 7352 C 704.234 -4.17691 -0.933717 0
M  V30 7353 C 703.56 -4.904 -2.13101 0
M  V30 7354 C 704.86 -5.2229 0.0317201 0
M  V30 7355 H 706.554 -2.97932 0.29614 0
M  V30 7356 H 704.1 -1.4328 0.143865 0
M  V30 7357 H 706.053 -3.69017 -2.03481 0
M  V30 7358 H 704.777 -2.4534 -2.15583 0
M  V30 7359 H 703.436 -3.64545 -0.387602 0
M  V30 7360 H 703.084 -4.17423 -2.80654 0
M  V30 7361 H 702.784 -5.59962 -1.78092 0
M  V30 7362 H 704.308 -5.4742 -2.70487 0
M  V30 7363 H 705.722 -5.7156 -0.446302 0
M  V30 7364 H 704.119 -5.99378 0.29437 0
M  V30 7365 H 705.189 -4.75131 0.968447 0
M  V30 7366 N 706.532 -0.168513 -1.56696 0
M  V30 7367 C 707.48 0.779791 -2.19139 0
M  V30 7368 C 708.474 1.23957 -1.1546 0
M  V30 7369 O 709.68 1.20555 -1.33666 0
M  V30 7370 H 706.055 0.269739 -0.701958 0
M  V30 7371 H 708.026 0.229156 -2.97519 0
M  V30 7372 C 706.775 2.00003 -2.84419 0
M  V30 7373 H 706.098 1.65527 -3.63924 0
M  V30 7374 H 707.538 2.64251 -3.31583 0
M  V30 7375 C 705.997 2.82187 -1.84044 0
M  V30 7376 O 706.527 3.79247 -1.32418 0
M  V30 7377 N 704.733 2.47145 -1.52864 0
M  V30 7378 H 704.28 1.68277 -1.9504 0
M  V30 7379 H 704.238 3.02422 -0.859569 0
M  V30 7380 N 708.01 1.57248 0.105221 0
M  V30 7381 C 708.942 1.98008 1.15436 0
M  V30 7382 C 709.955 0.881236 1.36887 0
M  V30 7383 O 711.144 1.15943 1.35718 0
M  V30 7384 C 708.244 2.27509 2.51183 0
M  V30 7385 C 707.417 3.58811 2.50147 0
M  V30 7386 C 706.476 3.76365 3.67745 0
M  V30 7387 O 705.502 4.48329 3.50699 0
M  V30 7388 N 706.704 3.16174 4.86841 0
M  V30 7389 H 709.469 2.88616 0.807519 0
M  V30 7390 H 707.03 1.59202 0.29433 0
M  V30 7391 H 709.022 2.36455 3.28438 0
M  V30 7392 H 707.592 1.42959 2.77995 0
M  V30 7393 H 706.812 3.60927 1.5851 0
M  V30 7394 H 708.1 4.45088 2.46524 0
M  V30 7395 H 707.498 2.57701 5.03594 0
M  V30 7396 H 706.055 3.30621 5.61723 0
M  V30 7397 N 709.488 -0.375779 1.53054 0
M  V30 7398 C 710.736 -1.11727 1.68409 0
M  V30 7399 C 711.057 -1.90127 0.43323 0
M  V30 7400 O 710.327 -1.87945 -0.552595 0
M  V30 7401 H 708.907 -0.415451 0.620813 0
M  V30 7402 H 711.569 -0.424869 1.90213 0
M  V30 7403 H 710.665 -1.8128 2.54055 0
M  V30 7404 N 710.966 -1.44241 -0.634997 0
M  V30 7405 C 712.215 -1.46102 -1.39058 0
M  V30 7406 C 712.528 -0.0959909 -1.95364 0
M  V30 7407 O 713.734 0.00788751 -2.71499 0
M  V30 7408 C 712.19 -2.57195 -2.51751 0
M  V30 7409 C 711.798 -3.99888 -2.01974 0
M  V30 7410 C 713.542 -2.68272 -3.28984 0
M  V30 7411 C 711.449 -5.02412 -3.11987 0
M  V30 7412 H 710.379 -0.543556 -0.522554 0
M  V30 7413 H 713.03 -1.70294 -0.683538 0
M  V30 7414 H 711.412 -2.26237 -3.25012 0
M  V30 7415 H 712.586 -4.40396 -1.35604 0
M  V30 7416 H 710.901 -3.93019 -1.37568 0
M  V30 7417 H 713.498 -3.42042 -4.10988 0
M  V30 7418 H 713.841 -1.73957 -3.78212 0
M  V30 7419 H 714.374 -2.98622 -2.62812 0
M  V30 7420 H 711.113 -5.98342 -2.67707 0
M  V30 7421 H 710.633 -4.66501 -3.77011 0
M  V30 7422 H 712.312 -5.25939 -3.76825 0
M  V30 7423 N 712.444 0.87505 -1.31075 0
M  V30 7424 C 713.855 1.4433 -1.18431 0
M  V30 7425 C 714.206 1.9506 0.211189 0
M  V30 7426 O 713.331 1.85847 1.10859 0
M  V30 7427 C 713.926 2.62341 -2.14389 0
M  V30 7428 C 712.485 3.15225 -2.05694 0
M  V30 7429 C 711.632 1.87929 -2.03907 0
M  V30 7430 H 714.583 0.684061 -1.432 0
M  V30 7431 H 714.604 3.3887 -1.73053 0
M  V30 7432 H 714.116 2.25388 -3.15946 0
M  V30 7433 H 712.217 3.56812 -1.07314 0
M  V30 7434 H 712.33 3.77853 -2.94558 0
M  V30 7435 H 710.694 2.06679 -1.48849 0
M  V30 7436 H 711.477 1.53221 -3.07211 0
M  V30 7437 N 713.922 1.13953 1.08869 0
M  V30 7438 C 715.168 0.906151 1.8143 0
M  V30 7439 C 715.501 -0.566089 1.85766 0
M  V30 7440 O 714.776 -1.41915 1.33006 0
M  V30 7441 C 715.059 1.50183 3.27287 0
M  V30 7442 C 714.912 3.04359 3.31189 0
M  V30 7443 C 716.231 1.17477 4.24131 0
M  V30 7444 H 713.35 0.330624 0.658678 0
M  V30 7445 H 715.992 1.40873 1.27495 0
M  V30 7446 H 714.142 1.07442 3.73348 0
M  V30 7447 H 715.814 3.55896 2.93488 0
M  V30 7448 H 714.057 3.39053 2.70602 0
M  V30 7449 H 714.728 3.41141 4.33966 0
M  V30 7450 H 717.204 1.5442 3.86385 0
M  V30 7451 H 716.08 1.61795 5.24513 0
M  V30 7452 H 716.341 0.0893312 4.4201 0
M  V30 7453 N 715.4 -1.26948 0.933913 0
M  V30 7454 C 716.363 -2.24889 0.442457 0
M  V30 7455 C 717.363 -1.54594 -0.442426 0
M  V30 7456 O 718.553 -1.72502 -0.242629 0
M  V30 7457 C 715.685 -3.3896 -0.363173 0
M  V30 7458 H 716.878 -2.69879 1.30787 0
M  V30 7459 H 714.431 -1.38978 0.715187 0
M  V30 7460 H 715.166 -2.99361 -1.24714 0
M  V30 7461 H 714.951 -3.9116 0.271366 0
M  V30 7462 H 716.441 -4.11739 -0.697186 0
M  V30 7463 N 716.879 -0.700114 -1.41195 0
M  V30 7464 C 718.29 -0.307249 -1.84154 0
M  V30 7465 C 718.641 1.15539 -1.58572 0
M  V30 7466 O 717.766 1.88744 -1.05852 0
M  V30 7467 C 718.361 -0.550872 -3.34292 0
M  V30 7468 C 716.92 -0.211877 -3.75803 0
M  V30 7469 C 716.067 -0.830915 -2.64558 0
M  V30 7470 H 719.018 -0.900431 -1.30683 0
M  V30 7471 H 719.039 0.188954 -3.80031 0
M  V30 7472 H 718.551 -1.61548 -3.5288 0
M  V30 7473 H 716.652 0.848283 -3.62815 0
M  V30 7474 H 716.765 -0.67007 -4.74391 0
M  V30 7475 H 715.129 -0.260155 -2.53368 0
M  V30 7476 H 715.912 -1.89948 -2.85963 0
M  V30 7477 N 718.357 1.51182 -0.445186 0
M  V30 7478 C 719.307 2.24804 0.380394 0
M  V30 7479 C 720.291 1.27344 0.983482 0
M  V30 7480 O 721.483 1.52392 0.900322 0
M  V30 7481 C 718.612 3.09922 1.4766 0
M  V30 7482 C 717.698 4.14816 0.882517 0
M  V30 7483 N 718.089 5.05797 0.0183278 0
M  V30 7484 C 716.387 4.30938 1.14927 0
M  V30 7485 C 717.088 5.8084 -0.316152 0
M  V30 7486 N 716.064 5.42759 0.302214 0
M  V30 7487 H 719.866 2.92508 -0.285737 0
M  V30 7488 H 717.38 1.60342 -0.257733 0
M  V30 7489 H 719.377 3.61249 2.08098 0
M  V30 7490 H 718.037 2.43763 2.14498 0
M  V30 7491 H 719.048 5.16725 -0.348679 0
M  V30 7492 H 715.725 3.76005 1.81457 0
M  V30 7493 H 717.115 6.64115 -1.01986 0
M  V30 7494 N 719.835 0.176821 1.56605 0
M  V30 7495 C 721.063 -0.472828 2.01425 0
M  V30 7496 C 721.478 -1.56436 1.05703 0
M  V30 7497 O 720.835 -1.82405 0.058808 0
M  V30 7498 C 720.886 -1.04607 3.46034 0
M  V30 7499 O 720.607 0.00189608 4.381 0
M  V30 7500 C 722.108 -1.7734 4.06282 0
M  V30 7501 H 719.328 -0.120503 0.660091 0
M  V30 7502 H 721.872 0.280166 2.02572 0
M  V30 7503 H 720.027 -1.74953 3.45645 0
M  V30 7504 H 720.441 -0.422118 5.22799 0
M  V30 7505 H 721.915 -2.12703 5.09374 0
M  V30 7506 H 722.392 -2.67043 3.4869 0
M  V30 7507 H 722.998 -1.11623 4.10391 0
M  V30 7508 N 721.313 -1.57302 -0.09688 0
M  V30 7509 C 722.541 -1.90202 -0.814295 0
M  V30 7510 C 722.956 -0.770344 -1.72369 0
M  V30 7511 O 722.313 0.257764 -1.8067 0
M  V30 7512 C 722.364 -3.22708 -1.62916 0
M  V30 7513 O 722.085 -4.31522 -0.756343 0
M  V30 7514 C 723.586 -3.69459 -2.44979 0
M  V30 7515 H 720.806 -0.629275 -0.232925 0
M  V30 7516 H 723.35 -2.04364 -0.0746482 0
M  V30 7517 H 721.505 -3.1015 -2.32133 0
M  V30 7518 H 721.919 -5.07604 -1.32054 0
M  V30 7519 H 723.393 -4.64875 -2.9765 0
M  V30 7520 H 723.87 -2.97211 -3.23361 0
M  V30 7521 H 724.476 -3.84879 -1.80964 0
M  V30 7522 N 722.791 0.367657 -1.53252 0
M  V30 7523 C 723.701 1.47415 -1.82499 0
M  V30 7524 C 724.717 1.58711 -0.713222 0
M  V30 7525 O 725.893 1.74644 -1.00306 0
M  V30 7526 C 722.958 2.82706 -2.00694 0
M  V30 7527 C 722.019 2.80955 -3.24596 0
M  V30 7528 C 721.252 4.09793 -3.41914 0
M  V30 7529 O 721.475 5.05852 -2.63572 0
M  V30 7530 O 720.409 4.15731 -4.3526 0
M  V30 7531 H 724.235 1.25624 -2.765 0
M  V30 7532 H 721.82 0.557559 -1.38606 0
M  V30 7533 H 723.702 3.62873 -2.14246 0
M  V30 7534 H 722.377 3.04479 -1.09883 0
M  V30 7535 H 721.284 1.99494 -3.16469 0
M  V30 7536 H 722.617 2.64136 -4.15323 0
M  V30 7537 N 724.269 1.44576 0.627338 0
M  V30 7538 C 725.68 1.42266 1.20902 0
M  V30 7539 C 726.031 0.139964 1.957 0
M  V30 7540 O 725.156 -0.759489 2.02634 0
M  V30 7541 C 725.751 2.57727 2.19914 0
M  V30 7542 C 724.31 2.58599 2.73502 0
M  V30 7543 C 723.457 2.34145 1.48564 0
M  V30 7544 H 726.408 1.53102 0.417791 0
M  V30 7545 H 726.429 2.30697 3.02588 0
M  V30 7546 H 725.941 3.51068 1.65447 0
M  V30 7547 H 724.042 1.6921 3.31962 0
M  V30 7548 H 724.155 3.57205 3.19282 0
M  V30 7549 H 722.519 1.83313 1.76829 0
M  V30 7550 H 723.302 3.29606 0.959935 0
M  V30 7551 N 725.747 -0.868086 1.31537 0
M  V30 7552 C 726.68 -1.97871 1.13676 0
M  V30 7553 C 727.658 -1.62551 0.0397589 0
M  V30 7554 O 728.842 -1.87473 0.196539 0
M  V30 7555 C 725.969 -3.30577 0.73734 0
M  V30 7556 C 725.015 -3.8488 1.83765 0
M  V30 7557 S 725.848 -4.10106 3.44345 0
M  V30 7558 C 727.004 -5.45806 3.06344 0
M  V30 7559 H 727.237 -2.12719 2.07697 0
M  V30 7560 H 724.77 -1.01849 1.16044 0
M  V30 7561 H 726.728 -4.07274 0.513641 0
M  V30 7562 H 725.389 -3.13562 -0.183787 0
M  V30 7563 H 724.582 -4.80821 1.51085 0
M  V30 7564 H 724.184 -3.14981 2.01651 0
M  V30 7565 H 726.476 -6.27535 2.55354 0
M  V30 7566 H 727.419 -5.83437 4.01257 0
M  V30 7567 H 727.827 -5.0917 2.43734 0
M  V30 7568 N 727.225 -1.14528 -1.08264 0
M  V30 7569 C 728.155 -0.856356 -2.1723 0
M  V30 7570 C 729.136 0.189251 -1.69044 0
M  V30 7571 O 730.321 0.0456119 -1.94146 0
M  V30 7572 C 727.451 -0.334662 -3.45684 0
M  V30 7573 C 726.405 -1.31588 -4.0727 0
M  V30 7574 C 725.731 -0.653428 -5.30692 0
M  V30 7575 C 727.031 -2.67866 -4.48381 0
M  V30 7576 H 728.725 -1.76755 -2.41657 0
M  V30 7577 H 726.271 -0.851287 -1.16143 0
M  V30 7578 H 728.224 -0.120128 -4.21229 0
M  V30 7579 H 726.948 0.611967 -3.20815 0
M  V30 7580 H 725.607 -1.51661 -3.33758 0
M  V30 7581 H 725.255 0.299054 -5.0211 0
M  V30 7582 H 724.955 -1.30817 -5.72853 0
M  V30 7583 H 726.479 -0.448453 -6.08951 0
M  V30 7584 H 727.893 -2.51692 -5.15096 0
M  V30 7585 H 726.29 -3.29627 -5.01464 0
M  V30 7586 H 727.36 -3.24632 -3.60198 0
M  V30 7587 N 728.703 1.26451 -0.940633 0
M  V30 7588 C 729.636 2.24771 -0.394094 0
M  V30 7589 C 730.614 1.54169 0.516781 0
M  V30 7590 O 731.798 1.82942 0.454352 0
M  V30 7591 C 728.925 3.3591 0.433807 0
M  V30 7592 C 727.971 4.24472 -0.415464 0
M  V30 7593 S 728.804 5.0293 -1.83907 0
M  V30 7594 C 729.96 6.17546 -1.01921 0
M  V30 7595 H 730.193 2.70782 -1.22737 0
M  V30 7596 H 727.726 1.35308 -0.743709 0
M  V30 7597 H 729.684 4.00387 0.905576 0
M  V30 7598 H 728.345 2.88512 1.24175 0
M  V30 7599 H 727.538 5.03525 0.218833 0
M  V30 7600 H 727.14 3.64857 -0.821897 0
M  V30 7601 H 729.432 6.76996 -0.261227 0
M  V30 7602 H 730.375 6.8528 -1.78318 0
M  V30 7603 H 730.783 5.6176 -0.555511 0
M  V30 7604 N 730.181 0.707592 1.40822 0
M  V30 7605 C 731.091 0.0507246 2.34545 0
M  V30 7606 C 732.107 -0.752727 1.56876 0
M  V30 7607 O 733.283 -0.687524 1.89302 0
M  V30 7608 C 730.348 -0.865731 3.35717 0
M  V30 7609 C 729.409 -0.0531313 4.29267 0
M  V30 7610 C 728.642 -0.925939 5.25606 0
M  V30 7611 O 728.865 -2.16531 5.27703 0
M  V30 7612 O 727.799 -0.369194 6.00767 0
M  V30 7613 H 731.625 0.823587 2.9232 0
M  V30 7614 H 729.21 0.46801 1.4188 0
M  V30 7615 H 731.092 -1.39091 3.97783 0
M  V30 7616 H 729.767 -1.61788 2.80368 0
M  V30 7617 H 728.674 0.516931 3.70511 0
M  V30 7618 H 730.007 0.660617 4.87747 0
M  V30 7619 N 731.66 -1.50943 0.453197 0
M  V30 7620 C 732.89 -2.06328 -0.105981 0
M  V30 7621 C 733.298 -1.31909 -1.35634 0
M  V30 7622 O 732.641 -0.376607 -1.79798 0
M  V30 7623 C 732.703 -3.5631 -0.477868 0
M  V30 7624 C 732.367 -4.52093 0.667925 0
M  V30 7625 C 733.364 -4.96421 1.54475 0
M  V30 7626 C 731.049 -4.95001 0.853168 0
M  V30 7627 C 733.043 -5.82346 2.59138 0
M  V30 7628 C 730.73 -5.80713 1.90305 0
M  V30 7629 C 731.728 -6.24284 2.77053 0
M  V30 7630 O 731.416 -7.08291 3.80236 0
M  V30 7631 H 731.148 -0.675986 -0.00427247 0
M  V30 7632 H 733.702 -1.95314 0.635738 0
M  V30 7633 H 731.932 -3.65163 -1.27252 0
M  V30 7634 H 733.621 -3.94138 -0.970039 0
M  V30 7635 H 734.387 -4.63953 1.41324 0
M  V30 7636 H 730.266 -4.60619 0.187482 0
M  V30 7637 H 733.81 -6.16276 3.2688 0
M  V30 7638 H 729.707 -6.12593 2.03469 0
M  V30 7639 H 730.475 -7.26504 3.77007 0
M  V30 7640 N 733.138 -0.185124 -1.56509 0
M  V30 7641 C 734.549 0.329221 -1.83774 0
M  V30 7642 C 734.9 1.62093 -1.10545 0
M  V30 7643 O 734.025 2.13334 -0.36298 0
M  V30 7644 C 734.62 0.604099 -3.33371 0
M  V30 7645 C 733.179 1.06284 -3.61083 0
M  V30 7646 C 732.326 0.10608 -2.77097 0
M  V30 7647 H 735.277 -0.409116 -1.53336 0
M  V30 7648 H 735.298 1.45458 -3.51599 0
M  V30 7649 H 734.81 -0.336201 -3.86641 0
M  V30 7650 H 732.911 2.01777 -3.13236 0
M  V30 7651 H 733.024 0.962453 -4.69333 0
M  V30 7652 H 731.388 0.606082 -2.47384 0
M  V30 7653 H 732.171 -0.828486 -3.33153 0
M  V30 7654 N 734.616 1.57351 0.0885366 0
M  V30 7655 C 735.526 2.05858 1.12516 0
M  V30 7656 C 736.542 0.984758 1.43452 0
M  V30 7657 O 737.718 1.29836 1.53963 0
M  V30 7658 C 734.783 2.47882 2.42395 0
M  V30 7659 C 733.844 3.69487 2.18582 0
M  V30 7660 C 733.077 4.09497 3.42268 0
M  V30 7661 O 733.3 3.49536 4.50755 0
M  V30 7662 O 732.234 5.02406 3.31469 0
M  V30 7663 H 736.06 2.94467 0.743146 0
M  V30 7664 H 733.645 1.46326 0.301507 0
M  V30 7665 H 735.527 2.75509 3.18862 0
M  V30 7666 H 734.202 1.62408 2.8001 0
M  V30 7667 H 733.109 3.46967 1.39875 0
M  V30 7668 H 734.442 4.55761 1.85857 0
M  V30 7669 N 736.094 -0.359525 1.53444 0
M  V30 7670 C 737.057 -1.42357 1.7963 0
M  V30 7671 C 738.057 -1.46319 0.666884 0
M  V30 7672 O 739.247 -1.46974 0.935113 0
M  V30 7673 C 736.379 -2.81425 1.92387 0
M  V30 7674 H 737.572 -1.20409 2.74666 0
M  V30 7675 H 735.125 -0.593007 1.44614 0
M  V30 7676 H 735.86 -3.08679 0.994384 0
M  V30 7677 H 735.645 -2.79947 2.74539 0
M  V30 7678 H 737.135 -3.5847 2.14218 0
M  V30 7679 N 737.572 -1.44907 -0.619662 0
M  V30 7680 C 738.821 -1.47569 -1.37501 0
M  V30 7681 C 739.134 -0.116707 -1.95252 0
M  V30 7682 O 740.34 -0.020909 -2.71492 0
M  V30 7683 C 738.796 -2.59851 -2.49009 0
M  V30 7684 C 738.404 -4.02008 -1.97722 0
M  V30 7685 C 740.148 -2.71746 -3.2612 0
M  V30 7686 C 738.055 -5.05693 -3.0664 0
M  V30 7687 H 736.985 -0.549068 -0.51676 0
M  V30 7688 H 739.636 -1.71009 -0.665437 0
M  V30 7689 H 738.018 -2.29671 -3.22594 0
M  V30 7690 H 739.192 -4.41809 -1.30925 0
M  V30 7691 H 737.507 -3.94456 -1.33392 0
M  V30 7692 H 740.104 -3.46382 -4.07337 0
M  V30 7693 H 740.447 -1.77959 -3.76346 0
M  V30 7694 H 740.98 -3.01392 -2.5963 0
M  V30 7695 H 737.719 -6.01148 -2.61345 0
M  V30 7696 H 737.239 -4.70473 -3.72042 0
M  V30 7697 H 738.918 -5.29906 -3.71226 0
M  V30 7698 N 739.05 0.861098 -1.31996 0
M  V30 7699 C 740.278 1.6474 -1.25173 0
M  V30 7700 C 740.693 1.87926 0.181425 0
M  V30 7701 O 740.05 1.4437 1.1164 0
M  V30 7702 C 740.101 3.01036 -2.0015 0
M  V30 7703 O 739.822 2.7888 -3.37872 0
M  V30 7704 C 741.323 3.95481 -2.00273 0
M  V30 7705 H 738.543 0.513314 -0.432146 0
M  V30 7706 H 741.087 1.07419 -1.74016 0
M  V30 7707 H 739.242 3.55021 -1.55046 0
M  V30 7708 H 739.656 3.65514 -3.76165 0
M  V30 7709 H 741.13 4.88403 -2.57229 0
M  V30 7710 H 741.607 4.27957 -0.987407 0
M  V30 7711 H 742.213 3.47433 -2.45296 0
M  V30 7712 N 740.528 1.15101 1.07655 0
M  V30 7713 C 741.944 0.893004 1.32279 0
M  V30 7714 C 742.144 -0.461701 1.96139 0
M  V30 7715 O 741.2 -1.20431 2.21929 0
M  V30 7716 C 742.513 2.03161 2.21689 0
M  V30 7717 C 744.061 2.06579 2.35147 0
M  V30 7718 C 744.536 3.19754 3.27905 0
M  V30 7719 N 746.027 3.19382 3.35484 0
M  V30 7720 C 746.762 4.03592 4.07309 0
M  V30 7721 N 746.258 4.97859 4.81776 0
M  V30 7722 N 748.051 3.91626 4.03219 0
M  V30 7723 H 740.202 2.02341 0.645886 0
M  V30 7724 H 742.465 0.882127 0.347211 0
M  V30 7725 H 742.171 3.00934 1.82021 0
M  V30 7726 H 742.045 1.96132 3.22199 0
M  V30 7727 H 744.432 1.09408 2.74069 0
M  V30 7728 H 744.513 2.17676 1.34353 0
M  V30 7729 H 744.157 4.17175 2.89702 0
M  V30 7730 H 744.087 3.05893 4.28645 0
M  V30 7731 H 746.578 2.51112 2.82403 0
M  V30 7732 H 746.891 5.58563 5.34067 0
M  V30 7733 H 745.236 5.0185 4.80803 0
M  V30 7734 H 748.427 3.17295 3.44154 0
M  V30 7735 H 748.6 4.57479 4.5893 0
M  V30 7736 N 742.006 -1.2595 0.947325 0
M  V30 7737 C 742.936 -2.28521 0.479604 0
M  V30 7738 C 743.917 -1.63469 -0.470293 0
M  V30 7739 O 745.102 -1.90627 -0.370824 0
M  V30 7740 C 742.232 -3.46397 -0.250289 0
M  V30 7741 C 741.186 -4.23578 0.613643 0
M  V30 7742 C 740.512 -5.34131 -0.246568 0
M  V30 7743 C 741.812 -4.86979 1.88809 0
M  V30 7744 H 743.506 -2.67895 1.33688 0
M  V30 7745 H 741.052 -1.28783 0.644274 0
M  V30 7746 H 743.005 -4.17269 -0.588576 0
M  V30 7747 H 741.729 -3.05993 -1.14175 0
M  V30 7748 H 740.388 -3.54478 0.93491 0
M  V30 7749 H 740.036 -4.89968 -1.13756 0
M  V30 7750 H 739.736 -5.86683 0.328123 0
M  V30 7751 H 741.26 -6.07839 -0.579986 0
M  V30 7752 H 742.674 -5.50034 1.61666 0
M  V30 7753 H 741.071 -5.49675 2.40784 0
M  V30 7754 H 742.141 -4.09575 2.5957 0
M  V30 7755 N 743.484 -0.715051 -1.40445 0
M  V30 7756 C 744.73 -0.254705 -2.01194 0
M  V30 7757 C 745.063 1.14894 -1.56567 0
M  V30 7758 O 744.338 1.77933 -0.785491 0
M  V30 7759 C 744.621 -0.334148 -3.58546 0
M  V30 7760 C 744.474 -1.77613 -4.13248 0
M  V30 7761 C 745.793 0.294968 -4.3911 0
M  V30 7762 H 742.912 -0.094025 -0.730978 0
M  V30 7763 H 745.554 -0.907449 -1.66929 0
M  V30 7764 H 743.704 0.221609 -3.87867 0
M  V30 7765 H 745.376 -2.38723 -3.94727 0
M  V30 7766 H 743.619 -2.30402 -3.67556 0
M  V30 7767 H 744.29 -1.78311 -5.22407 0
M  V30 7768 H 746.766 -0.178563 -4.15717 0
M  V30 7769 H 745.642 0.208934 -5.48502 0
M  V30 7770 H 745.903 1.37841 -4.20062 0
M  V30 7771 N 744.962 1.50701 -0.461195 0
M  V30 7772 C 746.19 2.06681 0.0951756 0
M  V30 7773 C 746.605 1.32615 1.34382 0
M  V30 7774 O 745.962 0.392531 1.78229 0
M  V30 7775 C 746.013 3.59354 0.393316 0
M  V30 7776 O 745.734 4.30626 -0.805797 0
M  V30 7777 C 747.235 4.31926 0.997744 0
M  V30 7778 H 744.455 0.670995 -0.00267259 0
M  V30 7779 H 746.999 1.93991 -0.647137 0
M  V30 7780 H 745.154 3.7188 1.08555 0
M  V30 7781 H 745.568 5.21667 -0.544409 0
M  V30 7782 H 747.042 5.39756 1.15619 0
M  V30 7783 H 747.519 3.91772 1.98523 0
M  V30 7784 H 748.125 4.23905 0.344188 0
M  V30 7785 N 746.441 0.193421 1.56409 0
M  V30 7786 C 747.689 -0.444908 1.97142 0
M  V30 7787 C 748.01 -1.62268 1.08139 0
M  V30 7788 O 747.28 -1.95307 0.152326 0
M  V30 7789 H 745.86 -0.16736 0.728011 0
M  V30 7790 H 748.522 0.279763 1.92882 0
M  V30 7791 H 747.618 -0.790159 3.01932 0
M  V30 7792 N 747.919 -1.57396 -0.0801906 0
M  V30 7793 C 748.882 -2.02133 -1.0805 0
M  V30 7794 C 749.882 -0.91707 -1.32085 0
M  V30 7795 O 751.072 -1.18217 -1.27947 0
M  V30 7796 C 748.204 -2.39479 -2.42616 0
M  V30 7797 H 749.397 -2.91733 -0.6951 0
M  V30 7798 H 746.95 -1.52869 -0.325677 0
M  V30 7799 H 747.685 -1.52879 -2.86004 0
M  V30 7800 H 747.47 -3.20052 -2.26515 0
M  V30 7801 H 748.96 -2.74697 -3.14534 0
M  V30 7802 N 749.397 0.351382 -1.53633 0
M  V30 7803 C 750.329 1.45159 -1.77374 0
M  V30 7804 C 751.342 1.4905 -0.654826 0
M  V30 7805 O 752.531 1.52274 -0.931396 0
M  V30 7806 C 749.631 2.83858 -1.85143 0
M  V30 7807 C 748.804 3.03498 -3.14972 0
M  V30 7808 C 747.863 4.22393 -3.138 0
M  V30 7809 O 746.889 4.16885 -3.87551 0
M  V30 7810 N 748.091 5.30533 -2.35617 0
M  V30 7811 H 750.856 1.25167 -2.72311 0
M  V30 7812 H 748.417 0.54121 -1.52586 0
M  V30 7813 H 750.409 3.61557 -1.8182 0
M  V30 7814 H 748.979 2.9703 -0.974275 0
M  V30 7815 H 748.199 2.13336 -3.31484 0
M  V30 7816 H 749.487 3.13498 -4.00745 0
M  V30 7817 H 748.885 5.37875 -1.75235 0
M  V30 7818 H 747.442 6.06756 -2.38098 0
M  V30 7819 N 750.875 1.45233 0.611969 0
M  V30 7820 C 752.291 1.29542 0.932251 0
M  V30 7821 C 752.491 0.24523 2.00002 0
M  V30 7822 O 751.547 -0.362333 2.49887 0
M  V30 7823 C 752.86 2.67301 1.37733 0
M  V30 7824 C 754.408 2.75163 1.49178 0
M  V30 7825 C 754.883 4.13437 1.97064 0
M  V30 7826 N 756.374 4.15709 2.04304 0
M  V30 7827 C 757.109 5.19566 2.42568 0
M  V30 7828 N 756.605 6.33771 2.79832 0
M  V30 7829 N 758.398 5.06923 2.42869 0
M  V30 7830 H 750.549 2.12192 -0.0938679 0
M  V30 7831 H 752.812 0.947775 0.0206569 0
M  V30 7832 H 752.518 3.45318 0.666951 0
M  V30 7833 H 752.392 2.95472 2.3447 0
M  V30 7834 H 754.779 1.97453 2.19309 0
M  V30 7835 H 754.86 2.50712 0.507674 0
M  V30 7836 H 754.504 4.91631 1.27521 0
M  V30 7837 H 754.434 4.35277 2.9638 0
M  V30 7838 H 756.925 3.33293 1.78113 0
M  V30 7839 H 757.238 7.08815 3.07898 0
M  V30 7840 H 755.583 6.37179 2.77538 0
M  V30 7841 H 758.774 4.1675 2.1316 0
M  V30 7842 H 758.947 5.87981 2.72364 0
M  V30 7843 N 752.353 -0.854086 1.3245 0
M  V30 7844 C 753.764 -1.42427 1.20712 0
M  V30 7845 C 754.115 -1.95371 -0.18013 0
M  V30 7846 O 753.24 -1.87587 -1.07889 0
M  V30 7847 C 753.835 -2.58897 2.18536 0
M  V30 7848 C 752.394 -3.11913 2.10683 0
M  V30 7849 C 751.541 -1.84661 2.06871 0
M  V30 7850 H 754.492 -0.661192 1.4427 0
M  V30 7851 H 754.513 -3.36074 1.78422 0
M  V30 7852 H 754.025 -2.20333 3.19492 0
M  V30 7853 H 752.126 -3.55059 1.12977 0
M  V30 7854 H 752.239 -3.73119 3.00532 0
M  V30 7855 H 750.603 -2.04285 1.52118 0
M  V30 7856 H 751.386 -1.48314 3.09609 0
M  V30 7857 N 753.831 -1.1567 -1.07043 0
M  V30 7858 C 755.242 -0.942408 -1.61169 0
M  V30 7859 C 755.593 0.515537 -1.89306 0
M  V30 7860 O 754.718 1.38726 -1.66084 0
M  V30 7861 C 755.313 -1.70431 -2.92812 0
M  V30 7862 C 753.872 -1.53521 -3.43669 0
M  V30 7863 C 753.019 -1.7179 -2.17678 0
M  V30 7864 H 755.97 -1.3065 -0.9009 0
M  V30 7865 H 755.991 -1.17566 -3.61882 0
M  V30 7866 H 755.503 -2.76538 -2.72302 0
M  V30 7867 H 753.604 -0.498224 -3.69254 0
M  V30 7868 H 753.717 -2.31422 -4.19501 0
M  V30 7869 H 752.081 -1.14468 -2.27529 0
M  V30 7870 H 752.864 -2.79269 -1.99659 0
M  V30 7871 N 755.309 1.25446 -0.953992 0
M  V30 7872 C 756.586 1.884 -0.525823 0
M  V30 7873 C 756.966 1.86079 0.996891 0
M  V30 7874 O 756.314 1.32389 1.8624 0
M  V30 7875 C 756.524 3.31154 -1.10172 0
M  V30 7876 C 757.872 4.07926 -1.17819 0
M  V30 7877 O 758.896 3.40273 -1.05323 0
M  V30 7878 O 757.755 5.28942 -1.37415 0
M  V30 7879 H 754.849 0.808629 -0.173345 0
M  V30 7880 H 757.395 1.33522 -1.04738 0
M  V30 7881 H 756.167 3.27271 -2.14499 0
M  V30 7882 H 755.79 3.93588 -0.56338 0
M  V30 7883 N 756.787 0.722489 1.40064 0
M  V30 7884 C 758.198 0.336507 1.83642 0
M  V30 7885 C 758.549 -1.13002 1.6039 0
M  V30 7886 O 757.674 -1.87036 1.08842 0
M  V30 7887 C 758.269 0.603985 3.33373 0
M  V30 7888 C 756.828 0.271637 3.75419 0
M  V30 7889 C 755.975 0.872898 2.63203 0
M  V30 7890 H 758.926 0.921108 1.29233 0
M  V30 7891 H 758.947 -0.128471 3.80283 0
M  V30 7892 H 758.459 1.67141 3.50265 0
M  V30 7893 H 756.56 -0.790455 3.64119 0
M  V30 7894 H 756.673 0.745457 4.73265 0
M  V30 7895 H 755.037 0.300431 2.52922 0
M  V30 7896 H 755.82 1.94473 2.82905 0
M  V30 7897 N 758.265 -1.50454 0.469181 0
M  V30 7898 C 759.228 -2.2703 -0.314643 0
M  V30 7899 C 760.228 -1.31734 -0.922111 0
M  V30 7900 O 761.418 -1.55176 -0.791588 0
M  V30 7901 C 758.55 -3.08616 -1.44806 0
M  V30 7902 H 759.743 -2.97769 0.356892 0
M  V30 7903 H 757.296 -1.54698 0.223191 0
M  V30 7904 H 758.031 -2.42369 -2.1547 0
M  V30 7905 H 757.816 -3.78647 -1.01829 0
M  V30 7906 H 759.306 -3.66536 -2.00103 0
M  V30 7907 N 759.743 -0.201713 -1.56304 0
M  V30 7908 C 761.154 0.309711 -1.84113 0
M  V30 7909 C 761.505 1.60912 -1.12258 0
M  V30 7910 O 760.63 2.12937 -0.385587 0
M  V30 7911 C 761.225 0.568706 -3.33993 0
M  V30 7912 C 759.784 1.02448 -3.6219 0
M  V30 7913 C 758.931 0.0766842 -2.77194 0
M  V30 7914 H 761.882 -0.425356 -1.52893 0
M  V30 7915 H 761.903 1.41721 -3.53122 0
M  V30 7916 H 761.415 -0.37719 -3.86263 0
M  V30 7917 H 759.516 1.98443 -3.15359 0
M  V30 7918 H 759.629 0.912619 -4.70328 0
M  V30 7919 H 757.993 0.579809 -2.48013 0
M  V30 7920 H 758.776 -0.863774 -3.32256 0
M  V30 7921 N 761.222 1.57436 0.0718424 0
M  V30 7922 C 762.185 2.02703 1.06977 0
M  V30 7923 C 763.185 0.924062 1.31597 0
M  V30 7924 O 764.375 1.18894 1.27318 0
M  V30 7925 C 761.507 2.40763 2.41342 0
M  V30 7926 H 762.7 2.92098 0.679619 0
M  V30 7927 H 760.253 1.5304 0.317565 0
M  V30 7928 H 760.988 1.54394 2.8519 0
M  V30 7929 H 760.773 3.21249 2.24814 0
M  V30 7930 H 762.263 2.76361 3.13073 0
M  V30 7931 N 762.7 -0.34323 1.53817 0
M  V30 7932 C 764.111 -0.918823 1.62525 0
M  V30 7933 C 764.462 -1.89542 0.506765 0
M  V30 7934 O 763.587 -2.13326 -0.363441 0
M  V30 7935 C 764.182 -1.67326 2.94597 0
M  V30 7936 C 762.741 -2.19786 3.05567 0
M  V30 7937 C 761.888 -1.01708 2.57974 0
M  V30 7938 H 764.839 -0.121358 1.58235 0
M  V30 7939 H 764.86 -2.53615 2.83654 0
M  V30 7940 H 764.372 -0.962223 3.75983 0
M  V30 7941 H 762.473 -2.94065 2.28816 0
M  V30 7942 H 762.586 -2.46135 4.1104 0
M  V30 7943 H 760.95 -1.39058 2.13389 0
M  V30 7944 H 761.733 -0.320671 3.41799 0
M  V30 7945 N 764.178 -1.45556 -0.604258 0
M  V30 7946 C 765.108 -1.57327 -1.72541 0
M  V30 7947 C 766.089 -0.424637 -1.64714 0
M  V30 7948 O 767.274 -0.648196 -1.83063 0
M  V30 7949 C 764.404 -1.54279 -3.11152 0
M  V30 7950 C 763.358 -2.67893 -3.33792 0
M  V30 7951 C 762.684 -2.499 -4.72709 0
M  V30 7952 C 763.984 -4.0988 -3.23722 0
M  V30 7953 H 765.678 -2.51175 -1.62947 0
M  V30 7954 H 763.224 -1.20884 -0.782504 0
M  V30 7955 H 765.177 -1.6111 -3.89386 0
M  V30 7956 H 763.901 -0.569627 -3.21594 0
M  V30 7957 H 762.56 -2.60495 -2.57949 0
M  V30 7958 H 762.208 -1.50715 -4.79889 0
M  V30 7959 H 761.908 -3.26091 -4.88813 0
M  V30 7960 H 763.432 -2.5859 -5.5314 0
M  V30 7961 H 764.846 -4.18503 -3.91826 0
M  V30 7962 H 763.243 -4.86487 -3.51355 0
M  V30 7963 H 764.313 -4.31553 -2.21111 0
M  V30 7964 N 765.656 0.84705 -1.32902 0
M  V30 7965 C 766.904 1.5986 -1.2365 0
M  V30 7966 C 767.225 1.93974 0.199789 0
M  V30 7967 O 766.495 1.60273 1.12648 0
M  V30 7968 H 765.075 0.592696 -0.454665 0
M  V30 7969 H 767.737 1.01278 -1.66519 0
M  V30 7970 H 766.833 2.53218 -1.82448 0
M  V30 7971 N 767.134 1.16236 1.06428 0
M  V30 7972 C 768.097 0.870163 2.1204 0
M  V30 7973 C 769.097 -0.134239 1.60239 0
M  V30 7974 O 770.287 0.0964932 1.73933 0
M  V30 7975 C 767.419 0.301033 3.39568 0
M  V30 7976 H 768.612 1.8064 2.39394 0
M  V30 7977 H 766.165 0.971116 1.2247 0
M  V30 7978 H 766.9 -0.642948 3.17863 0
M  V30 7979 H 766.685 1.02475 3.78472 0
M  V30 7980 H 768.175 0.114494 4.17443 0
M  V30 7981 N 768.612 -1.24939 0.960631 0
M  V30 7982 C 770.023 -1.74701 0.658529 0
M  V30 7983 C 770.374 -1.77967 -0.825959 0
M  V30 7984 O 769.499 -1.40444 -1.64634 0
M  V30 7985 C 770.094 -3.17263 1.18867 0
M  V30 7986 C 768.653 -3.64561 0.936614 0
M  V30 7987 C 767.8 -2.43423 1.32817 0
M  V30 7988 H 770.751 -1.10741 1.13676 0
M  V30 7989 H 770.772 -3.76481 0.551589 0
M  V30 7990 H 770.284 -3.14854 2.26912 0
M  V30 7991 H 768.385 -3.72378 -0.128608 0
M  V30 7992 H 768.498 -4.52392 1.57729 0
M  V30 7993 H 766.862 -2.43513 0.746548 0
M  V30 7994 H 767.645 -2.437 2.41796 0
M  V30 7995 N 770.09 -0.729906 -1.39679 0
M  V30 7996 C 771.338 -0.275077 -2.00219 0
M  V30 7997 C 771.659 1.1401 -1.58199 0
M  V30 7998 O 770.929 1.77546 -0.827904 0
M  V30 7999 H 769.509 -0.0987127 -0.740449 0
M  V30 8000 H 772.171 -0.93873 -1.70804 0
M  V30 8001 H 771.267 -0.319446 -3.10461 0
M  V30 8002 N 771.568 1.50203 -0.477153 0
M  V30 8003 C 772.498 2.31517 0.303646 0
M  V30 8004 C 773.479 1.38696 0.984753 0
M  V30 8005 O 774.664 1.67615 0.980758 0
M  V30 8006 C 771.794 3.18598 1.38249 0
M  V30 8007 C 770.748 4.2002 0.822645 0
M  V30 8008 C 770.074 4.95878 2.00024 0
M  V30 8009 C 771.374 5.22023 -0.170185 0
M  V30 8010 H 773.068 2.97042 -0.375027 0
M  V30 8011 H 770.614 1.42848 -0.181802 0
M  V30 8012 H 772.567 3.74282 1.93625 0
M  V30 8013 H 771.291 2.5097 2.09002 0
M  V30 8014 H 769.95 3.65445 0.290813 0
M  V30 8015 H 769.598 4.24717 2.69489 0
M  V30 8016 H 769.298 5.64487 1.63183 0
M  V30 8017 H 770.822 5.54399 2.55878 0
M  V30 8018 H 772.236 5.72543 0.294606 0
M  V30 8019 H 770.633 5.98386 -0.453181 0
M  V30 8020 H 771.703 4.72396 -1.09408 0
M  V30 8021 N 773.046 0.209999 1.56195 0
M  V30 8022 C 774.457 -0.299943 1.84275 0
M  V30 8023 C 774.808 -1.60314 1.1311 0
M  V30 8024 O 773.933 -2.1273 0.396874 0
M  V30 8025 C 774.528 -0.550986 3.3429 0
M  V30 8026 C 773.087 -1.00526 3.62728 0
M  V30 8027 C 772.234 -0.0619828 2.77231 0
M  V30 8028 H 775.185 0.433458 1.52666 0
M  V30 8029 H 775.206 -1.39846 3.53869 0
M  V30 8030 H 774.718 0.397669 3.86057 0
M  V30 8031 H 772.819 -1.96768 3.16407 0
M  V30 8032 H 772.932 -0.887664 4.70805 0
M  V30 8033 H 771.296 -0.566648 2.48317 0
M  V30 8034 H 772.079 0.881383 3.31793 0
M  V30 8035 N 774.524 -1.57472 -0.0634922 0
M  V30 8036 C 775.472 -2.05307 -1.09323 0
M  V30 8037 C 776.466 -0.959995 -1.39572 0
M  V30 8038 O 777.672 -1.14507 -1.38882 0
M  V30 8039 H 774.047 -0.65472 -0.369927 0
M  V30 8040 H 776.018 -2.90925 -0.663707 0
M  V30 8041 C 774.767 -2.51954 -2.39613 0
M  V30 8042 H 774.09 -3.35662 -2.1719 0
M  V30 8043 H 775.53 -2.89169 -3.10092 0
M  V30 8044 C 773.989 -1.40596 -3.06161 0
M  V30 8045 O 774.519 -0.752722 -3.94585 0
M  V30 8046 N 772.725 -1.14902 -2.66919 0
M  V30 8047 H 772.272 -1.68205 -1.95102 0
M  V30 8048 H 772.23 -0.406006 -3.11767 0
M  V30 8049 N 776.003 0.335068 -1.53997 0
M  V30 8050 C 777.251 1.07223 -1.71312 0
M  V30 8051 C 777.572 1.88911 -0.483486 0
M  V30 8052 O 776.842 1.89344 0.50257 0
M  V30 8053 H 775.422 0.398846 -0.63161 0
M  V30 8054 H 778.084 0.374288 -1.91272 0
M  V30 8055 H 777.18 1.7448 -2.58772 0
M  V30 8056 N 777.481 1.45874 0.596531 0
M  V30 8057 C 778.411 1.5824 1.71705 0
M  V30 8058 C 779.392 0.433366 1.64487 0
M  V30 8059 O 780.577 0.657895 1.82717 0
M  V30 8060 C 777.707 1.55927 3.10329 0
M  V30 8061 C 776.661 2.69659 3.32367 0
M  V30 8062 C 775.987 2.52403 4.71377 0
M  V30 8063 C 777.287 4.11591 3.21544 0
M  V30 8064 H 778.981 2.52035 1.61613 0
M  V30 8065 H 776.527 1.21297 0.776082 0
M  V30 8066 H 778.48 1.63173 3.88526 0
M  V30 8067 H 777.204 0.586674 3.21288 0
M  V30 8068 H 775.863 2.61859 2.56564 0
M  V30 8069 H 775.511 1.53258 4.79083 0
M  V30 8070 H 775.211 3.28679 4.87077 0
M  V30 8071 H 776.735 2.6152 5.5176 0
M  V30 8072 H 778.149 4.20576 3.89601 0
M  V30 8073 H 776.546 4.88344 3.4877 0
M  V30 8074 H 777.616 4.32719 2.1882 0
M  V30 8075 N 778.959 -0.83999 1.33349 0
M  V30 8076 C 779.889 -1.965 1.26135 0
M  V30 8077 C 780.87 -1.69505 0.142152 0
M  V30 8078 O 782.055 -1.91346 0.331743 0
M  V30 8079 C 779.185 -3.32632 0.99866 0
M  V30 8080 C 778.139 -3.74021 2.08068 0
M  V30 8081 C 777.465 -5.07947 1.67014 0
M  V30 8082 C 778.765 -3.87925 3.49731 0
M  V30 8083 H 780.459 -2.02793 2.20262 0
M  V30 8084 H 778.005 -0.974297 1.06035 0
M  V30 8085 H 779.958 -4.10903 0.934696 0
M  V30 8086 H 778.682 -3.26593 0.0217759 0
M  V30 8087 H 777.341 -2.98012 2.13505 0
M  V30 8088 H 776.989 -4.98378 0.680316 0
M  V30 8089 H 776.689 -5.36611 2.39422 0
M  V30 8090 H 778.213 -5.88695 1.62082 0
M  V30 8091 H 779.627 -4.5651 3.46802 0
M  V30 8092 H 778.024 -4.28023 4.20614 0
M  V30 8093 H 779.094 -2.90407 3.88319 0
M  V30 8094 N 780.437 -1.16799 -1.0581 0
M  V30 8095 C 781.662 -0.977402 -1.82925 0
M  V30 8096 C 782.087 0.469514 -1.82146 0
M  V30 8097 O 781.445 1.33576 -1.22585 0
M  V30 8098 C 781.493 -1.51543 -3.27211 0
M  V30 8099 O 780.597 -0.725021 -4.05977 0
M  V30 8100 H 779.938 -0.347474 -0.565825 0
M  V30 8101 H 782.468 -1.55151 -1.33376 0
M  V30 8102 H 782.478 -1.53502 -3.78023 0
M  V30 8103 H 781.153 -2.56872 -3.27093 0
M  V30 8104 H 779.73 -0.77634 -3.64729 0
M  V30 8105 N 781.915 1.24427 -0.967243 0
M  V30 8106 C 783.163 1.92107 -0.627638 0
M  V30 8107 C 783.484 1.75991 0.83978 0
M  V30 8108 O 782.754 1.13118 1.59941 0
M  V30 8109 H 781.334 0.710986 -0.229145 0
M  V30 8110 H 783.996 1.51331 -1.22821 0
M  V30 8111 H 783.092 2.99791 -0.867844 0
M  V30 8112 N 783.393 0.737304 1.3929 0
M  V30 8113 C 784.67 0.212464 1.94443 0
M  V30 8114 C 785.05 -1.28621 1.67391 0
M  V30 8115 O 784.398 -2.0529 1.00342 0
M  V30 8116 C 784.608 0.548565 3.44662 0
M  V30 8117 C 785.956 0.499177 4.21656 0
M  V30 8118 O 786.98 0.485892 3.5287 0
M  V30 8119 O 785.839 0.495739 5.44247 0
M  V30 8120 H 782.933 0.0395457 0.826054 0
M  V30 8121 H 785.479 0.816319 1.48776 0
M  V30 8122 H 784.251 1.58426 3.57795 0
M  V30 8123 H 783.874 -0.0841399 3.97511 0
M  V30 8124 N 784.871 -1.49948 0.485112 0
M  V30 8125 C 785.781 -2.32587 -0.306697 0
M  V30 8126 C 786.797 -1.43598 -0.982632 0
M  V30 8127 O 787.973 -1.76638 -0.967519 0
M  V30 8128 C 785.038 -3.18638 -1.3664 0
M  V30 8129 C 784.099 -4.23462 -0.705589 0
M  V30 8130 C 783.332 -5.05401 -1.7148 0
M  V30 8131 O 783.555 -4.88618 -2.94293 0
M  V30 8132 O 782.489 -5.88157 -1.27889 0
M  V30 8133 H 786.315 -3.01447 0.369272 0
M  V30 8134 H 783.9 -1.47349 0.246709 0
M  V30 8135 H 785.782 -3.71992 -1.9799 0
M  V30 8136 H 784.457 -2.52491 -2.02559 0
M  V30 8137 H 783.364 -3.74063 -0.0527733 0
M  V30 8138 H 784.697 -4.92119 -0.0891187 0
M  V30 8139 N 786.349 -0.21828 -1.56081 0
M  V30 8140 C 787.626 0.463143 -1.90038 0
M  V30 8141 C 788.006 1.77982 -1.13515 0
M  V30 8142 O 787.354 2.27199 -0.24345 0
M  V30 8143 C 787.564 0.659292 -3.42716 0
M  V30 8144 C 788.912 0.968203 -4.13414 0
M  V30 8145 O 789.936 0.746195 -3.48296 0
M  V30 8146 O 788.795 1.38936 -5.28544 0
M  V30 8147 H 785.889 0.244435 -0.790051 0
M  V30 8148 H 788.435 -0.260221 -1.67693 0
M  V30 8149 H 787.207 -0.269584 -3.9037 0
M  V30 8150 H 786.83 1.43426 -3.7083 0
M  V30 8151 N 787.827 1.57504 0.0551401 0
M  V30 8152 C 789.074 1.88055 0.751104 0
M  V30 8153 C 789.402 0.812231 1.76729 0
M  V30 8154 O 788.657 -0.189918 1.94776 0
M  V30 8155 C 788.956 3.25311 1.48013 0
M  V30 8156 C 788.622 4.46858 0.602375 0
M  V30 8157 C 787.284 4.79847 0.360536 0
M  V30 8158 C 789.636 5.212 -0.00524047 0
M  V30 8159 C 786.964 5.84582 -0.498127 0
M  V30 8160 C 789.316 6.26844 -0.851453 0
M  V30 8161 C 787.98 6.58324 -1.103 0
M  V30 8162 H 787.25 0.688142 0.274848 0
M  V30 8163 H 789.897 1.91497 0.0114795 0
M  V30 8164 H 788.202 3.17737 2.29239 0
M  V30 8165 H 789.899 3.46189 2.02371 0
M  V30 8166 H 786.489 4.21049 0.801007 0
M  V30 8167 H 790.673 4.96013 0.168682 0
M  V30 8168 H 785.929 6.07361 -0.701594 0
M  V30 8169 H 790.103 6.83603 -1.32893 0
M  V30 8170 H 787.73 7.39304 -1.77011 0
M  V30 8171 N 789.305 -0.326896 1.54172 0
M  V30 8172 C 790.53 -1.08924 1.76494 0
M  V30 8173 C 790.955 -1.81039 0.510523 0
M  V30 8174 O 790.313 -1.73141 -0.537756 0
M  V30 8175 C 790.361 -2.06558 2.95578 0
M  V30 8176 O 789.465 -3.14394 2.6689 0
M  V30 8177 H 788.806 -0.314216 0.584948 0
M  V30 8178 H 791.336 -0.372207 2.01186 0
M  V30 8179 H 791.346 -2.49487 3.22832 0
M  V30 8180 H 790.021 -1.53469 3.86549 0
M  V30 8181 H 788.598 -2.76164 2.50576 0
M  V30 8182 N 790.784 -1.46188 -0.588786 0
M  V30 8183 C 792.009 -1.5498 -1.37826 0
M  V30 8184 C 792.434 -0.189498 -1.87143 0
M  V30 8185 O 791.792 0.829293 -1.61222 0
M  V30 8186 C 791.84 -2.55369 -2.54596 0
M  V30 8187 O 790.944 -2.08452 -3.55839 0
M  V30 8188 H 790.285 -0.521741 -0.41071 0
M  V30 8189 H 792.815 -1.91708 -0.714779 0
M  V30 8190 H 792.825 -2.74782 -3.01594 0
M  V30 8191 H 791.5 -3.54155 -2.18052 0
M  V30 8192 H 790.077 -1.98999 -3.15363 0
M  V30 8193 N 792.262 0.832906 -1.33792 0
M  V30 8194 C 793.511 1.58351 -1.24932 0
M  V30 8195 C 793.824 1.94754 0.181703 0
M  V30 8196 O 795.03 2.6865 0.392375 0
M  V30 8197 C 793.486 2.85643 -2.18943 0
M  V30 8198 C 793.094 2.56581 -3.67247 0
M  V30 8199 C 794.838 3.63667 -2.18968 0
M  V30 8200 C 792.745 3.80006 -4.53155 0
M  V30 8201 H 791.675 0.594278 -0.464058 0
M  V30 8202 H 794.326 0.91786 -1.58895 0
M  V30 8203 H 792.708 3.53781 -1.77919 0
M  V30 8204 H 793.882 1.96617 -4.16747 0
M  V30 8205 H 792.197 1.91851 -3.6957 0
M  V30 8206 H 794.794 4.55293 -2.80379 0
M  V30 8207 H 795.137 3.99039 -1.18631 0
M  V30 8208 H 795.67 3.0246 -2.58384 0
M  V30 8209 H 792.409 3.4976 -5.5439 0
M  V30 8210 H 791.929 4.39288 -4.08395 0
M  V30 8211 H 793.608 4.47523 -4.6726 0
M  V30 8212 N 793.74 1.17359 1.05189 0
M  V30 8213 C 794.703 0.892604 2.11105 0
M  V30 8214 C 795.703 -0.117236 1.60372 0
M  V30 8215 O 796.893 0.114936 1.7382 0
M  V30 8216 C 794.025 0.337032 3.3923 0
M  V30 8217 H 795.218 1.83169 2.37464 0
M  V30 8218 H 792.771 0.984051 1.21434 0
M  V30 8219 H 793.506 -0.609198 3.18527 0
M  V30 8220 H 793.291 1.06484 3.77364 0
M  V30 8221 H 794.781 0.158763 4.17298 0
M  V30 8222 N 795.218 -1.23913 0.973828 0
M  V30 8223 C 796.495 -1.87539 0.555729 0
M  V30 8224 C 796.875 -1.87641 -0.967162 0
M  V30 8225 O 796.223 -1.35335 -1.84111 0
M  V30 8226 C 796.433 -3.29359 1.15427 0
M  V30 8227 C 797.781 -4.06 1.24294 0
M  V30 8228 O 798.805 -3.38554 1.10723 0
M  V30 8229 O 797.664 -5.26689 1.45813 0
M  V30 8230 H 794.758 -0.805769 0.186188 0
M  V30 8231 H 797.304 -1.31838 1.06849 0
M  V30 8232 H 796.076 -3.23817 2.19678 0
M  V30 8233 H 795.699 -3.92642 0.625925 0
M  V30 8234 N 796.696 -0.74468 -1.38897 0
M  V30 8235 C 797.629 -0.0596441 -2.28122 0
M  V30 8236 C 798.607 0.73764 -1.44906 0
M  V30 8237 O 799.791 0.718155 -1.74284 0
M  V30 8238 C 796.918 0.922533 -3.25894 0
M  V30 8239 C 795.964 0.212566 -4.2597 0
M  V30 8240 S 796.797 -1.08035 -5.24489 0
M  V30 8241 C 797.953 -0.101014 -6.25818 0
M  V30 8242 H 798.186 -0.816289 -2.85874 0
M  V30 8243 H 795.719 -0.536882 -1.44765 0
M  V30 8244 H 797.677 1.4839 -3.82741 0
M  V30 8245 H 796.338 1.65209 -2.67142 0
M  V30 8246 H 795.531 0.956106 -4.94848 0
M  V30 8247 H 795.133 -0.277029 -3.72973 0
M  V30 8248 H 797.425 0.736072 -6.7349 0
M  V30 8249 H 798.368 -0.757206 -7.0404 0
M  V30 8250 H 798.776 0.275706 -5.63826 0
M  V30 8251 N 798.174 1.49689 -0.493057 0
M  V30 8252 C 799.451 1.9525 0.116907 0
M  V30 8253 C 799.831 1.43429 1.54892 0
M  V30 8254 O 799.179 0.644621 2.19219 0
M  V30 8255 C 799.389 3.4898 0.037705 0
M  V30 8256 C 800.737 4.24052 0.215621 0
M  V30 8257 O 801.761 3.5602 0.113266 0
M  V30 8258 O 800.62 5.44847 0.42477 0
M  V30 8259 H 797.714 0.820973 0.099662 0
M  V30 8260 H 800.26 1.60367 -0.555029 0
M  V30 8261 H 799.032 3.79309 -0.961251 0
M  V30 8262 H 798.655 3.9046 0.750137 0
M  V30 8263 N 799.652 0.226554 1.55963 0
M  V30 8264 C 800.899 -0.403789 1.98433 0
M  V30 8265 C 801.227 -1.59416 1.1143 0
M  V30 8266 O 800.482 -1.95042 0.160389 0
M  V30 8267 C 800.781 -0.87642 3.46488 0
M  V30 8268 C 800.447 0.203973 4.50438 0
M  V30 8269 C 799.109 0.500754 4.78587 0
M  V30 8270 C 801.461 0.934396 5.12756 0
M  V30 8271 C 798.789 1.53239 5.66334 0
M  V30 8272 C 801.141 1.9554 6.0162 0
M  V30 8273 C 799.805 2.25905 6.28111 0
M  V30 8274 H 799.075 -0.147757 0.726119 0
M  V30 8275 H 801.722 0.330121 1.88633 0
M  V30 8276 H 800.027 -1.68918 3.53517 0
M  V30 8277 H 801.724 -1.37407 3.76723 0
M  V30 8278 H 798.314 -0.0374917 4.28584 0
M  V30 8279 H 802.498 0.718355 4.91074 0
M  V30 8280 H 797.754 1.77321 5.85122 0
M  V30 8281 H 801.928 2.52642 6.48957 0
M  V30 8282 H 799.555 3.05985 6.959 0
M  V30 8283 N 801.13 -1.57531 -0.0467866 0
M  V30 8284 C 802.355 -1.93087 -0.757123 0
M  V30 8285 C 802.78 -0.825116 -1.69037 0
M  V30 8286 O 802.138 0.220449 -1.79955 0
M  V30 8287 C 802.186 -3.27669 -1.5055 0
M  V30 8288 O 801.29 -3.18667 -2.61773 0
M  V30 8289 H 800.631 -0.631597 -0.204892 0
M  V30 8290 H 803.161 -2.04599 -0.00755232 0
M  V30 8291 H 803.171 -3.6214 -1.87932 0
M  V30 8292 H 801.846 -4.07717 -0.820931 0
M  V30 8293 H 800.423 -2.95798 -2.27064 0
M  V30 8294 N 802.608 0.318715 -1.54344 0
M  V30 8295 C 803.571 1.37545 -1.83342 0
M  V30 8296 C 804.571 1.445 -0.705444 0
M  V30 8297 O 805.761 1.44443 -0.973752 0
M  V30 8298 C 802.893 2.76225 -1.99781 0
M  V30 8299 H 804.086 1.13084 -2.77762 0
M  V30 8300 H 801.639 0.554457 -1.46135 0
M  V30 8301 H 802.374 3.05934 -1.07588 0
M  V30 8302 H 802.159 2.7257 -2.81865 0
M  V30 8303 H 803.649 3.52664 -2.23647 0
M  V30 8304 N 804.086 1.46499 0.581025 0
M  V30 8305 C 805.016 1.60052 1.70017 0
M  V30 8306 C 805.997 0.450788 1.64018 0
M  V30 8307 O 807.182 0.677237 1.82009 0
M  V30 8308 C 804.312 1.5921 3.08658 0
M  V30 8309 C 803.266 2.73169 3.29488 0
M  V30 8310 C 802.592 2.57389 4.68674 0
M  V30 8311 C 803.892 4.14978 3.1716 0
M  V30 8312 H 805.586 2.53735 1.5893 0
M  V30 8313 H 803.132 1.22113 0.763173 0
M  V30 8314 H 805.085 1.67285 3.86773 0
M  V30 8315 H 803.809 0.620718 3.20647 0
M  V30 8316 H 802.468 2.64566 2.53773 0
M  V30 8317 H 802.116 1.58331 4.77431 0
M  V30 8318 H 801.816 3.33826 4.83564 0
M  V30 8319 H 803.34 2.67358 5.48956 0
M  V30 8320 H 804.754 4.24684 3.85119 0
M  V30 8321 H 803.151 4.92016 3.4357 0
M  V30 8322 H 804.221 4.35016 2.14218 0
M  V30 8323 N 805.565 -0.825799 1.34232 0
M  V30 8324 C 806.495 -1.95151 1.28212 0
M  V30 8325 C 807.476 -1.69345 0.160123 0
M  V30 8326 O 808.661 -1.90983 0.352019 0
M  V30 8327 C 805.791 -3.31554 1.03388 0
M  V30 8328 C 804.745 -3.71793 2.12023 0
M  V30 8329 C 804.071 -5.06147 1.72392 0
M  V30 8330 C 805.371 -3.84193 3.53826 0
M  V30 8331 H 807.065 -2.00445 2.22401 0
M  V30 8332 H 804.611 -0.962996 1.07063 0
M  V30 8333 H 806.564 -4.09889 0.978225 0
M  V30 8334 H 805.288 -3.26551 0.0564142 0
M  V30 8335 H 803.947 -2.95731 2.16654 0
M  V30 8336 H 803.595 -4.97628 0.733137 0
M  V30 8337 H 803.295 -5.34041 2.451 0
M  V30 8338 H 804.819 -5.86943 1.68317 0
M  V30 8339 H 806.233 -4.52806 3.51624 0
M  V30 8340 H 804.63 -4.23538 4.2513 0
M  V30 8341 H 805.7 -2.86272 3.91377 0
M  V30 8342 N 807.043 -1.17915 -1.04565 0
M  V30 8343 C 808.268 -0.996749 -1.81878 0
M  V30 8344 C 808.693 0.450169 -1.82634 0
M  V30 8345 O 808.051 1.32268 -1.23995 0
M  V30 8346 C 808.099 -1.55005 -3.25585 0
M  V30 8347 O 807.203 -0.76804 -4.05185 0
M  V30 8348 H 806.544 -0.353456 -0.562108 0
M  V30 8349 H 809.074 -1.56557 -1.31723 0
M  V30 8350 H 809.084 -1.57503 -3.76373 0
M  V30 8351 H 807.759 -2.60327 -3.2435 0
M  V30 8352 H 806.336 -0.81498 -3.63885 0
M  V30 8353 N 808.521 1.23394 -0.980386 0
M  V30 8354 C 809.453 2.24146 -0.478657 0
M  V30 8355 C 810.466 1.57303 0.419492 0
M  V30 8356 O 811.655 1.77094 0.223631 0
M  V30 8357 C 808.755 3.3732 0.326913 0
M  V30 8358 C 807.928 4.33744 -0.56436 0
M  V30 8359 C 806.987 5.25866 0.187358 0
M  V30 8360 O 806.013 5.67626 -0.423019 0
M  V30 8361 N 807.215 5.61492 1.47335 0
M  V30 8362 H 809.98 2.67826 -1.34496 0
M  V30 8363 H 807.541 1.37566 -0.853653 0
M  V30 8364 H 809.533 3.95926 0.838148 0
M  V30 8365 H 808.103 2.92823 1.09422 0
M  V30 8366 H 807.323 3.73641 -1.25642 0
M  V30 8367 H 808.611 4.95123 -1.17177 0
M  V30 8368 H 808.009 5.29514 1.99077 0
M  V30 8369 H 806.566 6.2257 1.93002 0
M  V30 8370 N 809.999 0.752036 1.385 0
M  V30 8371 C 811.248 0.304294 1.99391 0
M  V30 8372 C 811.561 -1.11982 1.60373 0
M  V30 8373 O 812.767 -1.66795 2.14223 0
M  V30 8374 C 811.223 0.493101 3.56506 0
M  V30 8375 C 810.831 1.9262 4.04477 0
M  V30 8376 C 812.575 0.107994 4.24363 0
M  V30 8377 C 810.482 2.06365 5.54227 0
M  V30 8378 H 809.412 0.110024 0.745929 0
M  V30 8379 H 812.063 0.928355 1.58284 0
M  V30 8380 H 810.445 -0.20012 3.95494 0
M  V30 8381 H 811.619 2.65276 3.76783 0
M  V30 8382 H 809.934 2.26608 3.49339 0
M  V30 8383 H 812.531 0.189474 5.34364 0
M  V30 8384 H 812.874 -0.939165 4.05568 0
M  V30 8385 H 813.407 0.753011 3.90608 0
M  V30 8386 H 810.146 3.0933 5.77923 0
M  V30 8387 H 809.666 1.38167 5.83669 0
M  V30 8388 H 811.345 1.85286 6.19902 0
M  V30 8389 N 811.477 -1.49425 0.500989 0
M  V30 8390 C 812.702 -2.07356 -0.0425154 0
M  V30 8391 C 813.127 -1.35887 -1.30063 0
M  V30 8392 O 812.485 -0.41561 -1.76472 0
M  V30 8393 C 812.533 -3.59518 -0.279188 0
M  V30 8394 O 811.637 -3.89542 -1.3539 0
M  V30 8395 H 810.978 -0.663482 0.0262207 0
M  V30 8396 H 813.508 -1.92231 0.700607 0
M  V30 8397 H 813.518 -4.04791 -0.5107 0
M  V30 8398 H 812.193 -4.10946 0.640009 0
M  V30 8399 H 810.77 -3.56079 -1.10734 0
M  V30 8400 N 812.955 -0.234822 -1.55841 0
M  V30 8401 C 814.18 0.400741 -2.03492 0
M  V30 8402 C 814.605 1.51618 -1.11327 0
M  V30 8403 O 813.963 1.81002 -0.103922 0
M  V30 8404 C 814.011 0.897184 -3.49261 0
M  V30 8405 O 813.115 2.00764 -3.60233 0
M  V30 8406 H 812.456 0.0890023 -0.658008 0
M  V30 8407 H 814.986 -0.357345 -2.01455 0
M  V30 8408 H 814.996 1.20356 -3.89844 0
M  V30 8409 H 813.671 0.0808639 -4.15821 0
M  V30 8410 H 812.248 1.70689 -3.31541 0
M  V30 8411 O 814.472 1.61196 -0.0990213 0
M  V30 8412 H 815.163 1.87057 0.50292 0
M  V30 END ATOM
M  V30 BEGIN BOND
M  V30 END BOND
M  V30 END CTAB
M  END
$$$$
