drugbank_target|Q04782 Lanosterol synthase (DB00239)
 OpenBabel12092120573D

  0  0  0     0  0            999 V3000
M  V30 BEGIN CTAB
M  V30 COUNTS 11645 11821 0 0 0
M  V30 BEGIN ATOM
M  V30 1 H -0.908 1.98254 -0.117106 0
M  V30 2 N 0 1.576 0 0
M  V30 3 C 0.933 2.03868 1.02534 0
M  V30 4 C 1.911 0.928543 1.3348 0
M  V30 5 O 3.095 1.19667 1.45644 0
M  V30 6 C 0.222 2.43627 2.35294 0
M  V30 7 C -0.732 3.65373 2.2001 0
M  V30 8 S 0.101 5.13292 1.52614 0
M  V30 9 C 1.257 5.56322 2.86805 0
M  V30 10 H 1.49 2.90518 0.631377 0
M  V30 11 H -0.977 1.52953 0.210867 0
M  V30 12 H 0.981 2.67203 3.11629 0
M  V30 13 H -0.358 1.57376 2.7183 0
M  V30 14 H -1.165 3.90944 3.18086 0
M  V30 15 H -1.563 3.418 1.51819 0
M  V30 16 H 0.729 5.58782 3.83104 0
M  V30 17 H 1.672 6.56266 2.65933 0
M  V30 18 H 2.08 4.83886 2.90714 0
M  V30 19 N 1.4781 -0.272755 1.55222 0
M  V30 20 C 2.7081 -1.02107 1.79604 0
M  V30 21 C 3.1161 -1.80419 0.569693 0
M  V30 22 O 2.4591 -1.77566 -0.470743 0
M  V30 23 C 2.5211 -2.02675 2.96922 0
M  V30 24 C 2.1851 -1.43299 4.33952 0
M  V30 25 C 3.1821 -0.84853 5.12929 0
M  V30 26 C 0.8671 -1.46012 4.8061 0
M  V30 27 C 2.8611 -0.299109 6.36698 0
M  V30 28 C 0.5481 -0.906833 6.04334 0
M  V30 29 C 1.5461 -0.32733 6.82215 0
M  V30 30 O 1.2341 0.217479 8.03606 0
M  V30 31 H 0.9661 -0.307322 0.602104 0
M  V30 32 H 3.5201 -0.308862 2.03065 0
M  V30 33 H 1.7501 -2.77656 2.69155 0
M  V30 34 H 3.4391 -2.63637 3.08626 0
M  V30 35 H 4.2051 -0.820265 4.78013 0
M  V30 36 H 0.0841 -1.90056 4.2 0
M  V30 37 H 3.6281 0.153852 6.9743 0
M  V30 38 H -0.4749 -0.932339 6.38731 0
M  V30 39 H 0.2931 0.106863 8.1843 0
M  V30 40 N 2.9562 -1.48159 -0.537278 0
M  V30 41 C 4.1862 -1.59223 -1.3165 0
M  V30 42 C 4.5942 -0.248849 -1.87556 0
M  V30 43 O 3.9372 0.770949 -1.6674 0
M  V30 44 C 3.9992 -2.57365 -2.51005 0
M  V30 45 C 3.6632 -4.02603 -2.16239 0
M  V30 46 C 4.6602 -4.90503 -1.72344 0
M  V30 47 C 2.3452 -4.48088 -2.26986 0
M  V30 48 C 4.3392 -6.21913 -1.39651 0
M  V30 49 C 2.0262 -5.7952 -1.93906 0
M  V30 50 C 3.0242 -6.66255 -1.50309 0
M  V30 51 O 2.7122 -7.95243 -1.17659 0
M  V30 52 H 2.4442 -0.539831 -0.406889 0
M  V30 53 H 4.9982 -1.94655 -0.655641 0
M  V30 54 H 3.2282 -2.1704 -3.20048 0
M  V30 55 H 4.9172 -2.58342 -3.13072 0
M  V30 56 H 5.6832 -4.56604 -1.63517 0
M  V30 57 H 1.5622 -3.80769 -2.59877 0
M  V30 58 H 5.1062 -6.89569 -1.0555 0
M  V30 59 H 1.0032 -6.12957 -2.02371 0
M  V30 60 H 1.7712 -8.0793 -1.31119 0
M  V30 61 N 4.4343 0.785586 -1.36625 0
M  V30 62 C 5.6593 1.57963 -1.34397 0
M  V30 63 C 6.0843 1.87964 0.071526 0
M  V30 64 O 5.4423 1.48182 1.0446 0
M  V30 65 C 5.4903 2.87511 -2.17646 0
M  V30 66 O 4.5943 3.81281 -1.57158 0
M  V30 67 H 3.9353 0.479014 -0.459828 0
M  V30 68 H 6.4653 0.973411 -1.79961 0
M  V30 69 H 6.4753 3.36745 -2.30362 0
M  V30 70 H 5.1503 2.65002 -3.20541 0
M  V30 71 H 3.7273 3.39885 -1.53403 0
M  V30 72 N 5.9124 1.20967 1.01018 0
M  V30 73 C 6.8224 0.980157 2.13143 0
M  V30 74 C 7.8384 -0.0660665 1.73875 0
M  V30 75 O 9.0144 0.122821 2.01025 0
M  V30 76 C 6.0794 0.54216 3.42435 0
M  V30 77 C 5.1404 1.65999 3.95908 0
M  V30 78 C 4.3734 1.2428 5.19028 0
M  V30 79 O 4.5964 0.114196 5.70286 0
M  V30 80 O 3.5304 2.05271 5.65816 0
M  V30 81 H 7.3564 1.91913 2.35379 0
M  V30 82 H 4.9414 0.994099 1.11526 0
M  V30 83 H 6.8234 0.30744 4.20277 0
M  V30 84 H 5.4984 -0.36815 3.216 0
M  V30 85 H 4.4054 1.94906 3.19316 0
M  V30 86 H 5.7384 2.54753 4.21143 0
M  V30 87 N 7.3905 -1.2043 1.01659 0
M  V30 88 C 8.3005 -2.2689 0.596484 0
M  V30 89 C 9.3165 -1.70107 -0.36599 0
M  V30 90 O 10.4925 -2.00117 -0.226942 0
M  V30 91 C 7.5575 -3.4665 -0.0586659 0
M  V30 92 C 6.6185 -4.18662 0.949751 0
M  V30 93 C 5.8515 -5.32705 0.32577 0
M  V30 94 O 6.0745 -5.63656 -0.874509 0
M  V30 95 O 5.0085 -5.92803 1.04249 0
M  V30 96 H 8.8345 -2.65041 1.4828 0
M  V30 97 H 6.4195 -1.27048 0.786082 0
M  V30 98 H 8.3015 -4.19256 -0.424564 0
M  V30 99 H 6.9765 -3.10375 -0.91918 0
M  V30 100 H 5.8835 -3.48229 1.36702 0
M  V30 101 H 7.2165 -4.58878 1.78023 0
M  V30 102 N 8.8686 -0.792821 -1.36206 0
M  V30 103 C 10.1176 -0.363353 -1.984 0
M  V30 104 C 10.4306 1.07172 -1.63626 0
M  V30 105 O 11.6366 1.60362 -2.19081 0
M  V30 106 C 10.0926 -0.59872 -3.54885 0
M  V30 107 C 9.7006 -2.04543 -3.9858 0
M  V30 108 C 11.4446 -0.233926 -4.23855 0
M  V30 109 C 9.3516 -2.22727 -5.47856 0
M  V30 110 H 8.2816 -0.13212 -0.742334 0
M  V30 111 H 10.9326 -0.974935 -1.55458 0
M  V30 112 H 9.3146 0.0826222 -3.95914 0
M  V30 113 H 10.4886 -2.76345 -3.68741 0
M  V30 114 H 8.8036 -2.36879 -3.42458 0
M  V30 115 H 11.4006 -0.348027 -5.33566 0
M  V30 116 H 11.7436 0.818351 -4.08177 0
M  V30 117 H 12.2766 -0.868639 -3.882 0
M  V30 118 H 9.0156 -3.2635 -5.68486 0
M  V30 119 H 8.5356 -1.55434 -5.7931 0
M  V30 120 H 10.2146 -2.03607 -6.14128 0
M  V30 121 N 10.3467 1.47872 -0.545128 0
M  V30 122 C 11.5947 2.02093 -0.016553 0
M  V30 123 C 11.9157 1.42305 1.3332 0
M  V30 124 O 11.1857 0.593853 1.86682 0
M  V30 125 H 9.7657 0.746993 -0.00313038 0
M  V30 126 H 12.4277 1.81414 -0.712397 0
M  V30 127 H 11.5237 3.11996 0.0805422 0
M  V30 128 N 11.8248 0.280983 1.55075 0
M  V30 129 C 12.7548 -0.597469 2.25727 0
M  V30 130 C 13.7358 -1.15417 1.24952 0
M  V30 131 O 14.9208 -1.18722 1.53684 0
M  V30 132 C 12.0508 -1.7789 2.98283 0
M  V30 133 C 11.0048 -1.35347 4.06036 0
M  V30 134 C 10.3308 -2.61846 4.66198 0
M  V30 135 C 11.6308 -0.499354 5.19907 0
M  V30 136 H 13.3248 -0.00824265 2.99399 0
M  V30 137 H 10.8708 -0.0025244 1.44 0
M  V30 138 H 12.8238 -2.39937 3.46422 0
M  V30 139 H 11.5478 -2.39405 2.22155 0
M  V30 140 H 10.2068 -0.756156 3.58717 0
M  V30 141 H 9.8548 -3.21632 3.86732 0
M  V30 142 H 9.5548 -2.3409 5.38958 0
M  V30 143 H 11.0788 -3.24732 5.1709 0
M  V30 144 H 12.4928 -1.02498 5.64063 0
M  V30 145 H 10.8898 -0.316424 5.99265 0
M  V30 146 H 11.9598 0.480459 4.82514 0
M  V30 147 N 13.3029 -1.57598 0.00835791 0
M  V30 148 C 14.7139 -1.7892 -0.53333 0
M  V30 149 C 15.0649 -0.916609 -1.73473 0
M  V30 150 O 14.1899 -0.121336 -2.1606 0
M  V30 151 C 14.7849 -3.24488 -0.974313 0
M  V30 152 C 13.3439 -3.46878 -1.46125 0
M  V30 153 C 12.4909 -2.74157 -0.416302 0
M  V30 154 H 15.4419 -1.56958 0.234495 0
M  V30 155 H 15.4629 -3.3306 -1.83988 0
M  V30 156 H 14.9749 -3.87972 -0.099718 0
M  V30 157 H 13.0759 -2.8862 -2.35646 0
M  V30 158 H 13.1889 -4.55572 -1.48295 0
M  V30 159 H 11.5529 -2.39022 -0.87981 0
M  V30 160 H 12.3359 -3.40345 0.44947 0
M  V30 161 N 14.781 0.264519 -1.55364 0
M  V30 162 C 15.728 1.32717 -1.88825 0
M  V30 163 C 16.698 1.48675 -0.740605 0
M  V30 164 O 17.883 1.62945 -0.992657 0
M  V30 165 C 15.023 2.68089 -2.17307 0
M  V30 166 C 14.136 2.60284 -3.44785 0
M  V30 167 C 13.271 3.87892 -3.62924 0
M  V30 168 C 12.31 3.74631 -4.84064 0
M  V30 169 N 11.447 4.94092 -4.98816 0
M  V30 170 H 16.287 1.03481 -2.79456 0
M  V30 171 H 13.824 0.499757 -1.3835 0
M  V30 172 H 15.782 3.46864 -2.31821 0
M  V30 173 H 14.412 2.95509 -1.299 0
M  V30 174 H 13.464 1.73173 -3.38697 0
M  V30 175 H 14.776 2.46388 -4.33698 0
M  V30 176 H 13.93 4.75109 -3.77302 0
M  V30 177 H 12.669 4.04664 -2.7221 0
M  V30 178 H 11.674 2.85797 -4.69681 0
M  V30 179 H 12.899 3.5937 -5.76221 0
M  V30 180 H 10.845 5.11259 -4.11036 0
M  V30 181 H 10.762 4.8276 -5.81789 0
M  V30 182 H 12.03 5.82857 -5.17588 0
M  V30 183 N 16.2591 1.48442 0.529413 0
M  V30 184 C 17.4871 1.60151 1.30994 0
M  V30 185 C 17.9021 0.261985 1.86973 0
M  V30 186 O 17.2591 -0.748805 1.66431 0
M  V30 187 C 17.3101 2.64854 2.46038 0
M  V30 188 O 17.0311 3.93608 1.92365 0
M  V30 189 C 18.5321 2.87007 3.37849 0
M  V30 190 H 15.7521 0.539971 0.398338 0
M  V30 191 H 18.2961 1.94273 0.638597 0
M  V30 192 H 16.4511 2.33589 3.09055 0
M  V30 193 H 16.8651 4.51055 2.67675 0
M  V30 194 H 18.3391 3.64068 4.14919 0
M  V30 195 H 18.8161 1.95852 3.93114 0
M  V30 196 H 19.4221 3.19579 2.80623 0
M  V30 197 N 17.7372 -0.778329 1.37039 0
M  V30 198 C 19.0142 -1.52551 1.22424 0
M  V30 199 C 19.3942 -2.10288 -0.184964 0
M  V30 200 O 18.7422 -1.94953 -1.19187 0
M  V30 201 C 18.9522 -2.61164 2.31504 0
M  V30 202 C 20.3002 -3.28746 2.68721 0
M  V30 203 O 21.3242 -2.71455 2.30631 0
M  V30 204 O 20.1832 -4.3231 3.3432 0
M  V30 205 H 17.2772 -0.675343 0.477326 0
M  V30 206 H 19.8232 -0.815859 1.48801 0
M  V30 207 H 18.5952 -2.16574 3.25901 0
M  V30 208 H 18.2182 -3.39737 2.06554 0
M  V30 209 N 19.2153 -1.21501 -1.00376 0
M  V30 210 C 20.4643 -1.02718 -1.73586 0
M  V30 211 C 20.7773 0.439589 -1.90596 0
M  V30 212 O 21.9833 0.746848 -2.61026 0
M  V30 213 C 20.4393 -1.78929 -3.1227 0
M  V30 214 C 20.0473 -3.29783 -3.03228 0
M  V30 215 C 21.7913 -1.68557 -3.89601 0
M  V30 216 C 19.6983 -3.98479 -4.36999 0
M  V30 217 H 18.6283 -0.380733 -0.650814 0
M  V30 218 H 21.2793 -1.45248 -1.1214 0
M  V30 219 H 19.6613 -1.29192 -3.74333 0
M  V30 220 H 20.8353 -3.86832 -2.50395 0
M  V30 221 H 19.1503 -3.40711 -2.39385 0
M  V30 222 H 21.7473 -2.17211 -4.88593 0
M  V30 223 H 22.0903 -0.644021 -4.11288 0
M  V30 224 H 22.6233 -2.15778 -3.34193 0
M  V30 225 H 19.3623 -5.02841 -4.20513 0
M  V30 226 H 18.8823 -3.46219 -4.89788 0
M  V30 227 H 20.5613 -4.03462 -5.05794 0
M  V30 228 N 20.6934 1.19889 -1.02296 0
M  V30 229 C 21.9184 1.9393 -0.735237 0
M  V30 230 C 22.3434 1.74639 0.698782 0
M  V30 231 O 21.7014 1.04481 1.48167 0
M  V30 232 C 21.7494 3.43916 -1.08417 0
M  V30 233 O 20.8534 4.11917 -0.199446 0
M  V30 234 H 20.1944 0.605645 -0.272196 0
M  V30 235 H 22.7244 1.52137 -1.36804 0
M  V30 236 H 22.7344 3.9456 -1.03856 0
M  V30 237 H 21.4094 3.5728 -2.12894 0
M  V30 238 H 19.9864 3.71666 -0.303136 0
M  V30 239 N 22.1715 0.800033 1.35784 0
M  V30 240 C 23.5875 0.482977 1.52117 0
M  V30 241 C 23.7875 -0.996948 1.75109 0
M  V30 242 O 22.8435 -1.78216 1.78872 0
M  V30 243 C 24.1565 1.32264 2.70049 0
M  V30 244 C 25.7045 1.31742 2.83924 0
M  V30 245 C 26.1795 2.14106 4.04874 0
M  V30 246 N 27.6705 2.11607 4.12039 0
M  V30 247 C 28.4055 2.72099 5.04727 0
M  V30 248 N 27.9015 3.41492 6.02789 0
M  V30 249 N 29.6945 2.61776 4.97423 0
M  V30 250 H 21.8455 1.75856 1.19115 0
M  V30 251 H 24.1085 0.748122 0.582252 0
M  V30 252 H 23.8145 2.37261 2.59616 0
M  V30 253 H 23.6885 0.971303 3.6448 0
M  V30 254 H 26.0755 0.275333 2.93813 0
M  V30 255 H 26.1565 1.70859 1.9037 0
M  V30 256 H 25.8005 3.18351 3.95746 0
M  V30 257 H 25.7305 1.72353 4.97596 0
M  V30 258 H 28.2215 1.61112 3.41835 0
M  V30 259 H 28.5345 3.84953 6.70098 0
M  V30 260 H 26.8795 3.45596 6.02983 0
M  V30 261 H 30.0705 2.07157 4.19766 0
M  V30 262 H 30.2435 3.0921 5.69468 0
M  V30 263 N 23.6496 -1.47581 0.552962 0
M  V30 264 C 24.8956 -2.03369 0.0355807 0
M  V30 265 C 25.2506 -1.42016 -1.29805 0
M  V30 266 O 24.5436 -0.564917 -1.83083 0
M  V30 267 C 24.7376 -3.57199 -0.119728 0
M  V30 268 C 24.5666 -4.33468 1.1973 0
M  V30 269 C 23.3366 -4.7353 1.76345 0
M  V30 270 C 25.5346 -4.68866 2.11351 0
M  V30 271 N 23.5166 -5.34426 3.02097 0
M  V30 272 C 24.8876 -5.3002 3.21681 0
M  V30 273 C 26.9426 -4.50795 2.11397 0
M  V30 274 C 25.6456 -5.75011 4.32151 0
M  V30 275 C 27.6716 -4.96782 3.20876 0
M  V30 276 C 27.0336 -5.57981 4.29926 0
M  V30 277 H 23.1326 -0.780058 0.0550806 0
M  V30 278 H 25.7166 -1.80117 0.739315 0
M  V30 279 H 23.8876 -3.80227 -0.792579 0
M  V30 280 H 25.6196 -3.99627 -0.638792 0
M  V30 281 H 22.3746 -4.55352 1.30196 0
M  V30 282 H 22.7986 -5.69421 3.66182 0
M  V30 283 H 27.4406 -4.0284 1.28372 0
M  V30 284 H 25.1586 -6.21959 5.15938 0
M  V30 285 H 28.7446 -4.84573 3.21994 0
M  V30 286 H 27.6246 -5.92918 5.13243 0
M  V30 287 N 25.1277 -0.289203 -1.54924 0
M  V30 288 C 26.5437 0.0645403 -1.59469 0
M  V30 289 C 26.7437 1.53419 -1.30632 0
M  V30 290 O 25.7997 2.2852 -1.074 0
M  V30 291 C 27.1127 -0.32278 -2.98963 0
M  V30 292 C 28.6607 -0.270564 -3.11828 0
M  V30 293 C 29.1357 -0.632532 -4.53611 0
M  V30 294 N 30.6267 -0.584617 -4.59496 0
M  V30 295 C 31.3617 -0.837314 -5.67254 0
M  V30 296 N 30.8577 -1.15536 -6.83098 0
M  V30 297 N 32.6507 -0.765166 -5.56868 0
M  V30 298 H 24.8017 -1.24714 -1.71931 0
M  V30 299 H 27.0647 -0.504809 -0.802416 0
M  V30 300 H 26.7707 -1.34541 -3.24948 0
M  V30 301 H 26.6447 0.32944 -3.75759 0
M  V30 302 H 29.0317 0.742805 -2.85598 0
M  V30 303 H 29.1127 -0.957242 -2.37214 0
M  V30 304 H 28.7567 -1.64365 -4.80569 0
M  V30 305 H 28.6867 0.07609 -5.26545 0
M  V30 306 H 31.1777 -0.349248 -3.76283 0
M  V30 307 H 31.4907 -1.33447 -7.61191 0
M  V30 308 H 29.8357 -1.19328 -6.84679 0
M  V30 309 H 33.0267 -0.516432 -4.65243 0
M  V30 310 H 33.1997 -0.965477 -6.40767 0
M  V30 311 N 26.6058 1.57591 -0.0167156 0
M  V30 312 C 27.5358 2.12496 0.967858 0
M  V30 313 C 28.5168 1.03807 1.34752 0
M  V30 314 O 29.7018 1.31577 1.42833 0
M  V30 315 C 26.8318 2.64194 2.25431 0
M  V30 316 C 25.7858 3.77559 2.01576 0
M  V30 317 C 25.1118 4.15636 3.36379 0
M  V30 318 C 26.4118 5.04151 1.36489 0
M  V30 319 H 28.1058 2.95013 0.510643 0
M  V30 320 H 25.6518 1.41915 0.244181 0
M  V30 321 H 27.6048 3.01236 2.94678 0
M  V30 322 H 26.3288 1.78821 2.73296 0
M  V30 323 H 24.9878 3.40937 1.34751 0
M  V30 324 H 24.6358 3.27263 3.81979 0
M  V30 325 H 24.3358 4.92022 3.21229 0
M  V30 326 H 25.8598 4.5525 4.06915 0
M  V30 327 H 27.2738 5.38857 1.95718 0
M  V30 328 H 25.6708 5.85453 1.31776 0
M  V30 329 H 26.7408 4.83733 0.336219 0
M  V30 330 N 28.0839 -0.256276 1.55502 0
M  V30 331 C 29.4999 -0.604325 1.47716 0
M  V30 332 C 29.6999 -1.88763 0.705039 0
M  V30 333 O 28.7559 -2.51445 0.230613 0
M  V30 334 C 30.0689 -0.715756 2.92057 0
M  V30 335 C 31.6169 -0.808706 3.02372 0
M  V30 336 C 32.0919 -0.951777 4.48001 0
M  V30 337 N 33.5829 -1.01688 4.519 0
M  V30 338 C 34.3179 -1.14668 5.61817 0
M  V30 339 N 33.8139 -1.24261 6.81565 0
M  V30 340 N 35.6069 -1.1791 5.49594 0
M  V30 341 H 27.7579 0.586291 2.04148 0
M  V30 342 H 30.0209 0.201015 0.926443 0
M  V30 343 H 29.7269 0.157027 3.51349 0
M  V30 344 H 29.6009 -1.59071 3.42018 0
M  V30 345 H 31.9879 -1.67195 2.43166 0
M  V30 346 H 32.0689 0.0912063 2.55637 0
M  V30 347 H 31.7129 -0.0931291 5.07815 0
M  V30 348 H 31.6429 -1.86659 4.92408 0
M  V30 349 H 34.1339 -0.954468 3.65648 0
M  V30 350 H 34.4469 -1.34046 7.61086 0
M  V30 351 H 32.7919 -1.21236 6.84344 0
M  V30 352 H 35.9829 -1.10057 4.54978 0
M  V30 353 H 36.1559 -1.27681 6.35296 0
M  V30 354 N 29.562 -1.4872 -0.521534 0
M  V30 355 C 30.787 -1.61101 -1.30618 0
M  V30 356 C 31.212 -0.274611 -1.86085 0
M  V30 357 O 30.57 0.754937 -1.64834 0
M  V30 358 C 30.618 -2.66709 -2.4269 0
M  V30 359 O 29.722 -2.24456 -3.45967 0
M  V30 360 H 29.063 -0.539921 -0.386499 0
M  V30 361 H 31.593 -1.94767 -0.626645 0
M  V30 362 H 31.603 -2.88245 -2.88754 0
M  V30 363 H 30.278 -3.63727 -2.01682 0
M  V30 364 H 28.855 -2.13168 -3.05964 0
M  V30 365 N 31.0401 0.771051 -1.3745 0
M  V30 366 C 32.3171 1.519 -1.23231 0
M  V30 367 C 32.6971 2.10383 0.173809 0
M  V30 368 O 32.0451 1.95583 1.18151 0
M  V30 369 C 32.2551 2.59933 -2.32886 0
M  V30 370 C 33.6031 3.27316 -2.70461 0
M  V30 371 O 34.6271 2.70228 -2.32068 0
M  V30 372 O 33.4861 4.30531 -3.36608 0
M  V30 373 H 30.5801 0.672803 -0.480901 0
M  V30 374 H 33.1261 0.807957 -1.49232 0
M  V30 375 H 31.8981 2.14842 -3.27045 0
M  V30 376 H 31.5211 3.38637 -2.08353 0
M  V30 377 N 32.5182 1.22032 0.997298 0
M  V30 378 C 33.4812 0.987909 2.06816 0
M  V30 379 C 34.4812 -0.0440084 1.6074 0
M  V30 380 O 35.6712 0.194053 1.73116 0
M  V30 381 C 32.8032 0.49132 3.37341 0
M  V30 382 H 33.9962 1.93803 2.28868 0
M  V30 383 H 31.5492 1.03838 1.16822 0
M  V30 384 H 32.2842 -0.463364 3.20973 0
M  V30 385 H 32.0692 1.23575 3.72118 0
M  V30 386 H 33.5592 0.348824 4.16141 0
M  V30 387 N 33.9963 -1.19345 1.0293 0
M  V30 388 C 34.9263 -2.2481 0.631105 0
M  V30 389 C 35.9073 -1.66245 -0.360104 0
M  V30 390 O 37.0923 -1.92677 -0.242726 0
M  V30 391 C 34.2223 -3.47295 -0.0184607 0
M  V30 392 C 33.1763 -4.18536 0.895073 0
M  V30 393 C 32.5023 -5.34586 0.110592 0
M  V30 394 C 33.8023 -4.73287 2.209 0
M  V30 395 H 35.4963 -2.58372 1.51275 0
M  V30 396 H 33.0423 -1.24194 0.728818 0
M  V30 397 H 34.9953 -4.20268 -0.308675 0
M  V30 398 H 33.7193 -3.12933 -0.934907 0
M  V30 399 H 32.3783 -3.47446 1.16949 0
M  V30 400 H 32.0263 -4.96469 -0.807902 0
M  V30 401 H 31.7263 -5.83183 0.719087 0
M  V30 402 H 33.2503 -6.10355 -0.172871 0
M  V30 403 H 34.6643 -5.38013 1.98028 0
M  V30 404 H 33.0613 -5.32373 2.76946 0
M  V30 405 H 34.1313 -3.91331 2.86336 0
M  V30 406 N 35.4744 -0.807222 -1.35358 0
M  V30 407 C 36.7224 -0.387122 -1.98358 0
M  V30 408 C 37.0434 1.04942 -1.64354 0
M  V30 409 O 36.3134 1.72615 -0.926339 0
M  V30 410 H 34.8934 -0.140154 -0.733734 0
M  V30 411 H 37.5554 -1.0332 -1.6526 0
M  V30 412 H 36.6514 -0.493352 -3.08176 0
M  V30 413 N 36.9525 1.47285 -0.560781 0
M  V30 414 C 38.3685 1.58065 -0.22081 0
M  V30 415 C 38.5685 1.55892 1.27671 0
M  V30 416 O 37.6245 1.46422 2.0571 0
M  V30 417 C 38.9375 2.88418 -0.850625 0
M  V30 418 C 40.4855 3.02009 -0.822184 0
M  V30 419 C 40.9605 4.35066 -1.43113 0
M  V30 420 N 42.4515 4.41711 -1.39448 0
M  V30 421 C 43.1865 5.43237 -1.83525 0
M  V30 422 N 42.6825 6.51555 -2.35474 0
M  V30 423 N 44.4755 5.34304 -1.74574 0
M  V30 424 H 36.6265 1.46941 -1.53369 0
M  V30 425 H 38.8895 0.699558 -0.639783 0
M  V30 426 H 38.5955 2.95755 -1.9032 0
M  V30 427 H 38.4695 3.75612 -0.345773 0
M  V30 428 H 40.8565 2.94266 0.221714 0
M  V30 429 H 40.9375 2.16347 -1.36483 0
M  V30 430 H 40.5815 4.43565 -2.47412 0
M  V30 431 H 40.5115 5.19465 -0.863899 0
M  V30 432 H 43.0025 3.64027 -1.01452 0
M  V30 433 H 43.3155 7.25203 -2.67021 0
M  V30 434 H 41.6605 6.52435 -2.39487 0
M  V30 435 H 44.8515 4.48581 -1.33763 0
M  V30 436 H 45.0245 6.13288 -2.09242 0
M  V30 437 N 38.4306 0.297415 1.54768 0
M  V30 438 C 39.3406 -0.58983 2.27064 0
M  V30 439 C 40.3566 -1.15144 1.30453 0
M  V30 440 O 41.5326 -1.17699 1.63428 0
M  V30 441 C 38.5976 -1.74714 2.9946 0
M  V30 442 C 37.6586 -1.21997 4.11601 0
M  V30 443 C 36.8916 -2.32212 4.80535 0
M  V30 444 O 37.1146 -3.52036 4.48806 0
M  V30 445 O 36.0486 -1.99106 5.68014 0
M  V30 446 H 39.8746 -0.00348199 3.037 0
M  V30 447 H 37.4596 0.0640035 1.49263 0
M  V30 448 H 39.3416 -2.42147 3.44881 0
M  V30 449 H 38.0166 -2.32016 2.25722 0
M  V30 450 H 36.9236 -0.511458 3.70587 0
M  V30 451 H 38.2566 -0.692419 4.87305 0
M  V30 452 N 39.9087 -1.5758 0.0250728 0
M  V30 453 C 41.1367 -1.9593 -0.664747 0
M  V30 454 C 41.5517 -0.901352 -1.65895 0
M  V30 455 O 40.9087 0.117255 -1.82123 0
M  V30 456 C 40.9597 -3.34342 -1.37468 0
M  V30 457 O 40.6807 -4.36079 -0.420324 0
M  V30 458 C 42.1817 -3.873 -2.1567 0
M  V30 459 H 39.4017 -0.645405 -0.183557 0
M  V30 460 H 41.9457 -2.04329 0.0836372 0
M  V30 461 H 40.1007 -3.27175 -2.0745 0
M  V30 462 H 40.5147 -5.16297 -0.923991 0
M  V30 463 H 41.9887 -4.86504 -2.60803 0
M  V30 464 H 42.4657 -3.21331 -2.99405 0
M  V30 465 H 43.0717 -3.97723 -1.50654 0
M  V30 466 N 41.3868 0.248026 -1.55636 0
M  V30 467 C 42.6328 0.973427 -1.78594 0
M  V30 468 C 42.9878 1.83007 -0.593823 0
M  V30 469 O 42.2808 1.87097 0.412961 0
M  V30 470 C 42.4748 1.86819 -3.04686 0
M  V30 471 C 42.3038 1.09965 -4.36048 0
M  V30 472 C 41.0738 0.805204 -4.98843 0
M  V30 473 C 43.2718 0.477783 -5.12076 0
M  V30 474 N 41.2538 0.0124859 -6.13899 0
M  V30 475 C 42.6248 -0.179565 -6.1974 0
M  V30 476 C 44.6798 0.388136 -4.96385 0
M  V30 477 C 43.3828 -0.91795 -7.13419 0
M  V30 478 C 45.4088 -0.336716 -5.90441 0
M  V30 479 C 44.7708 -0.982705 -6.97511 0
M  V30 480 H 40.8698 0.337348 -0.705493 0
M  V30 481 H 43.4538 0.24667 -1.93131 0
M  V30 482 H 41.6248 2.56698 -2.9148 0
M  V30 483 H 43.3568 2.52907 -3.15944 0
M  V30 484 H 40.1118 1.11671 -4.60246 0
M  V30 485 H 40.5358 -0.371933 -6.75978 0
M  V30 486 H 45.1778 0.873237 -4.13684 0
M  V30 487 H 42.8958 -1.41466 -7.95621 0
M  V30 488 H 46.4818 -0.406731 -5.80377 0
M  V30 489 H 45.3618 -1.53464 -7.69037 0
M  V30 490 N 42.8649 1.48995 0.513639 0
M  V30 491 C 43.8149 1.61127 1.61314 0
M  V30 492 C 44.7989 0.467521 1.53958 0
M  V30 493 O 45.9909 0.719826 1.61702 0
M  V30 494 C 43.1199 1.66937 2.99978 0
M  V30 495 C 42.2059 2.86847 3.12377 0
M  V30 496 N 42.5969 4.11078 2.94701 0
M  V30 497 C 40.8949 2.84521 3.43459 0
M  V30 498 C 41.5959 4.91615 3.10949 0
M  V30 499 N 40.5719 4.24739 3.3926 0
M  V30 500 H 44.3739 2.54909 1.46282 0
M  V30 501 H 41.8879 1.45593 0.719483 0
M  V30 502 H 43.8849 1.73725 3.78979 0
M  V30 503 H 42.5449 0.742831 3.16089 0
M  V30 504 H 43.5559 4.41258 2.71131 0
M  V30 505 H 40.2329 2.01192 3.65825 0
M  V30 506 H 41.6229 6.00264 3.01882 0
M  V30 507 N 44.343 -0.763751 1.37857 0
M  V30 508 C 45.573 -1.55067 1.3652 0
M  V30 509 C 45.981 -1.89135 -0.0494227 0
M  V30 510 O 45.324 -1.52529 -1.02375 0
M  V30 511 C 45.386 -2.8838 2.14656 0
M  V30 512 C 45.05 -2.76905 3.63555 0
M  V30 513 C 46.047 -2.4739 4.57268 0
M  V30 514 C 43.732 -2.94676 4.06781 0
M  V30 515 C 45.726 -2.35786 5.92186 0
M  V30 516 C 43.413 -2.82692 5.41782 0
M  V30 517 C 44.411 -2.53289 6.34298 0
M  V30 518 O 44.099 -2.41345 7.66817 0
M  V30 519 H 43.831 -0.486776 0.469069 0
M  V30 520 H 46.385 -0.953812 1.81911 0
M  V30 521 H 44.615 -3.50217 1.63967 0
M  V30 522 H 46.304 -3.49828 2.05852 0
M  V30 523 H 47.07 -2.33339 4.2518 0
M  V30 524 H 42.949 -3.16563 3.35126 0
M  V30 525 H 46.493 -2.12757 6.64365 0
M  V30 526 H 42.39 -2.96314 5.7347 0
M  V30 527 H 43.158 -2.56634 7.77226 0
M  V30 528 N 45.8211 -1.22559 -0.990812 0
M  V30 529 C 46.7511 -1.0218 -2.09956 0
M  V30 530 C 47.7321 0.0579394 -1.70001 0
M  V30 531 O 48.9171 -0.104684 -1.93918 0
M  V30 532 C 46.0471 -0.601023 -3.4206 0
M  V30 533 C 45.0011 -1.62694 -3.95872 0
M  V30 534 C 44.3271 -1.06193 -5.24049 0
M  V30 535 C 45.6271 -3.01743 -4.2632 0
M  V30 536 H 47.3211 -1.94916 -2.27262 0
M  V30 537 H 44.8671 -0.938566 -1.09211 0
M  V30 538 H 46.8201 -0.445561 -4.19038 0
M  V30 539 H 45.5441 0.362005 -3.24588 0
M  V30 540 H 44.2031 -1.77021 -3.21028 0
M  V30 541 H 43.8511 -0.0901903 -5.02919 0
M  V30 542 H 43.5511 -1.74732 -5.61019 0
M  V30 543 H 45.0751 -0.918092 -6.03658 0
M  V30 544 H 46.4891 -2.90777 -4.94087 0
M  V30 545 H 44.8861 -3.67425 -4.74467 0
M  V30 546 H 45.9561 -3.51518 -3.34011 0
M  V30 547 N 47.2992 1.18797 -1.03562 0
M  V30 548 C 48.5242 1.9314 -0.755764 0
M  V30 549 C 48.9492 1.7537 0.68022 0
M  V30 550 O 48.3072 1.06046 1.47051 0
M  V30 551 C 48.3552 3.42747 -1.12058 0
M  V30 552 O 47.4592 4.11683 -0.243124 0
M  V30 553 H 46.8002 0.602724 -0.278604 0
M  V30 554 H 49.3302 1.50678 -1.3841 0
M  V30 555 H 49.3402 3.93437 -1.08035 0
M  V30 556 H 48.0152 3.55002 -2.16672 0
M  V30 557 H 46.5922 3.71323 -0.342539 0
M  V30 558 N 48.7773 0.814389 1.34928 0
M  V30 559 C 49.7093 0.187834 2.28429 0
M  V30 560 C 50.7223 -0.617374 1.5064 0
M  V30 561 O 51.9113 -0.448454 1.72775 0
M  V30 562 C 49.0113 -0.755962 3.30361 0
M  V30 563 C 48.1843 0.00456686 4.374 0
M  V30 564 C 47.2433 -0.858876 5.19143 0
M  V30 565 O 46.2693 -0.306968 5.68372 0
M  V30 566 N 47.4713 -2.17988 5.38016 0
M  V30 567 H 50.2363 0.991105 2.82838 0
M  V30 568 H 47.7973 0.670561 1.4736 0
M  V30 569 H 49.7893 -1.338 3.81942 0
M  V30 570 H 48.3593 -1.46001 2.7641 0
M  V30 571 H 47.5793 0.767865 3.86649 0
M  V30 572 H 48.8673 0.528422 5.06049 0
M  V30 573 H 48.2653 -2.65212 4.99679 0
M  V30 574 H 46.8223 -2.71098 5.92747 0
M  V30 575 N 50.2554 -1.46986 0.568584 0
M  V30 576 C 51.4804 -2.07335 0.0520528 0
M  V30 577 C 51.9054 -1.41675 -1.23733 0
M  V30 578 O 51.2634 -0.495623 -1.74394 0
M  V30 579 C 51.3114 -3.60417 -0.11501 0
M  V30 580 O 50.4154 -3.95309 -1.17492 0
M  V30 581 H 49.7564 -0.661597 0.0564385 0
M  V30 582 H 52.2864 -1.88837 0.787507 0
M  V30 583 H 52.2964 -4.06698 -0.325644 0
M  V30 584 H 50.9714 -4.07601 0.826675 0
M  V30 585 H 49.5484 -3.60757 -0.943869 0
M  V30 586 N 51.7335 -0.305618 -1.54608 0
M  V30 587 C 52.6435 0.57778 -2.27374 0
M  V30 588 C 53.6595 1.14451 -1.31061 0
M  V30 589 O 54.8355 1.16831 -1.6405 0
M  V30 590 C 51.9005 1.73123 -3.00382 0
M  V30 591 C 50.9615 1.19812 -4.12242 0
M  V30 592 C 50.1945 2.2966 -4.81759 0
M  V30 593 O 50.4175 3.49651 -4.50666 0
M  V30 594 O 49.3515 1.96091 -5.69062 0
M  V30 595 H 53.1775 -0.012624 -3.03697 0
M  V30 596 H 50.7625 -0.0719184 -1.49227 0
M  V30 597 H 52.6445 2.40315 -3.4616 0
M  V30 598 H 51.3195 2.30815 -2.26949 0
M  V30 599 H 50.2265 0.491798 -3.70853 0
M  V30 600 H 51.5595 0.666566 -4.87666 0
M  V30 601 N 53.2116 1.57565 -0.0334293 0
M  V30 602 C 54.4516 1.93844 0.648379 0
M  V30 603 C 54.8156 0.910387 1.69044 0
M  V30 604 O 56.0166 1.15952 2.42505 0
M  V30 605 C 54.2876 3.35017 1.24492 0
M  V30 606 S 55.8466 3.93229 1.94721 0
M  V30 607 H 52.6646 0.678231 0.213364 0
M  V30 608 H 55.2666 1.95254 -0.0981253 0
M  V30 609 H 53.9706 4.07652 0.474128 0
M  V30 610 H 53.5016 3.37061 2.02864 0
M  V30 611 H 55.5166 3.77014 3.22606 0
M  V30 612 N 54.6897 -0.239769 1.55765 0
M  V30 613 C 55.5997 -1.31831 1.94056 0
M  V30 614 C 56.6157 -1.52275 0.841925 0
M  V30 615 O 57.7917 -1.65759 1.14394 0
M  V30 616 C 54.8567 -2.65156 2.23368 0
M  V30 617 C 53.9177 -2.53173 3.46701 0
M  V30 618 C 53.1507 -3.8014 3.74606 0
M  V30 619 O 53.3737 -4.82343 3.04469 0
M  V30 620 O 52.3077 -3.78344 4.68123 0
M  V30 621 H 56.1337 -1.02347 2.85935 0
M  V30 622 H 53.7187 -0.441123 1.42739 0
M  V30 623 H 55.6007 -3.43929 2.43497 0
M  V30 624 H 54.2757 -2.94358 1.34666 0
M  V30 625 H 53.1827 -1.72662 3.31871 0
M  V30 626 H 54.5157 -2.28915 4.35728 0
M  V30 627 N 56.1678 -1.49265 -0.50573 0
M  V30 628 C 57.3928 -1.62478 -1.28902 0
M  V30 629 C 57.8178 -0.294332 -1.85783 0
M  V30 630 O 57.1758 0.737412 -1.65626 0
M  V30 631 C 57.2238 -2.69268 -2.39848 0
M  V30 632 O 56.3278 -2.28113 -3.43567 0
M  V30 633 H 55.6688 -0.54399 -0.380751 0
M  V30 634 H 58.1988 -1.95421 -0.605952 0
M  V30 635 H 58.2088 -2.91291 -2.85681 0
M  V30 636 H 56.8838 -3.65846 -1.97812 0
M  V30 637 H 55.4608 -2.16401 -3.03685 0
M  V30 638 N 57.6459 0.756429 -1.3826 0
M  V30 639 C 58.5559 1.9009 -1.37488 0
M  V30 640 C 59.5719 1.71855 -0.272366 0
M  V30 641 O 60.7479 1.94827 -0.510318 0
M  V30 642 C 57.8129 3.25421 -1.19592 0
M  V30 643 C 56.8739 3.56202 -2.39622 0
M  V30 644 C 56.1069 4.85075 -2.2257 0
M  V30 645 O 56.3299 5.57246 -1.21793 0
M  V30 646 O 55.2639 5.15269 -3.11098 0
M  V30 647 H 59.0899 1.93695 -2.33914 0
M  V30 648 H 56.6749 0.901313 -1.1915 0
M  V30 649 H 58.5569 4.06337 -1.11661 0
M  V30 650 H 57.2319 3.22634 -0.262486 0
M  V30 651 H 56.1389 2.75458 -2.53128 0
M  V30 652 H 57.4719 3.63747 -3.31586 0
M  V30 653 N 59.124 1.23083 0.984299 0
M  V30 654 C 60.535 1.05609 1.5396 0
M  V30 655 C 60.886 -0.377793 1.92528 0
M  V30 656 O 60.011 -1.26398 1.75649 0
M  V30 657 C 60.606 1.91087 2.7977 0
M  V30 658 C 59.165 1.77885 3.31713 0
M  V30 659 C 58.312 1.87028 2.04733 0
M  V30 660 H 61.263 1.36802 0.804419 0
M  V30 661 H 61.284 1.43336 3.5247 0
M  V30 662 H 60.796 2.9544 2.51668 0
M  V30 663 H 58.897 0.762995 3.64704 0
M  V30 664 H 59.01 2.61047 4.01735 0
M  V30 665 H 57.374 1.30565 2.18689 0
M  V30 666 H 58.157 2.92929 1.79017 0
M  V30 667 N 60.6021 -1.18246 1.0419 0
M  V30 668 C 61.5341 -2.2142 0.592088 0
M  V30 669 C 62.5471 -1.59233 -0.338909 0
M  V30 670 O 63.7361 -1.78002 -0.133231 0
M  V30 671 C 60.8361 -3.38546 -0.154854 0
M  V30 672 C 60.0091 -4.3031 0.784328 0
M  V30 673 C 59.0681 -5.26138 0.0804583 0
M  V30 674 O 58.0941 -5.64738 0.711292 0
M  V30 675 N 59.2961 -5.68261 -1.18574 0
M  V30 676 H 62.0611 -2.60636 1.47949 0
M  V30 677 H 59.6221 -1.33044 0.922544 0
M  V30 678 H 61.6141 -3.99678 -0.635606 0
M  V30 679 H 60.1841 -2.98012 -0.943811 0
M  V30 680 H 59.4041 -3.66764 1.44491 0
M  V30 681 H 60.6921 -4.8852 1.42218 0
M  V30 682 H 60.0901 -5.38957 -1.71876 0
M  V30 683 H 58.6471 -6.31584 -1.61074 0
M  V30 684 N 62.0802 -0.821533 -1.34494 0
M  V30 685 C 63.3052 -0.420873 -2.03085 0
M  V30 686 C 63.7302 0.964915 -1.61465 0
M  V30 687 O 63.0882 1.62763 -0.798607 0
M  V30 688 C 63.1362 -0.529414 -3.56693 0
M  V30 689 O 62.2402 0.451302 -4.09923 0
M  V30 690 H 61.5812 -0.173489 -0.640935 0
M  V30 691 H 64.1112 -1.11157 -1.71771 0
M  V30 692 H 64.1212 -0.404671 -4.05988 0
M  V30 693 H 62.7962 -1.54014 -3.86332 0
M  V30 694 H 61.3732 0.285558 -3.71805 0
M  V30 695 N 63.5583 1.46682 -0.576371 0
M  V30 696 C 64.7863 2.06798 -0.0649635 0
M  V30 697 C 65.2013 1.42612 1.23723 0
M  V30 698 O 64.5583 0.529203 1.74659 0
M  V30 699 C 64.6093 3.6132 0.114202 0
M  V30 700 O 64.3303 4.23104 -1.13644 0
M  V30 701 C 65.8313 4.38349 0.66069 0
M  V30 702 H 63.0513 0.668778 -0.0545616 0
M  V30 703 H 65.5953 1.88404 -0.795237 0
M  V30 704 H 63.7503 3.79162 0.794673 0
M  V30 705 H 64.1643 5.15894 -0.946253 0
M  V30 706 H 65.6383 5.47081 0.73526 0
M  V30 707 H 66.1153 4.05953 1.67627 0
M  V30 708 H 66.7213 4.25297 0.0152951 0
M  V30 709 N 65.0364 0.313813 1.54444 0
M  V30 710 C 66.2834 -0.291675 2.00388 0
M  V30 711 C 66.6114 -1.52904 1.2021 0
M  V30 712 O 65.8664 -1.93833 0.269707 0
M  V30 713 C 66.1654 -0.680386 3.50864 0
M  V30 714 C 65.8314 0.456699 4.48581 0
M  V30 715 C 64.4934 0.768824 4.75018 0
M  V30 716 C 66.8454 1.22098 5.06697 0
M  V30 717 C 64.1734 1.84812 5.56831 0
M  V30 718 C 66.5254 2.29029 5.89685 0
M  V30 719 C 65.1894 2.60834 6.14428 0
M  V30 720 H 64.4594 -0.106732 0.733273 0
M  V30 721 H 67.1064 0.43557 1.86481 0
M  V30 722 H 65.4114 -1.48791 3.62448 0
M  V30 723 H 67.1084 -1.16026 3.83847 0
M  V30 724 H 63.6984 0.203337 4.28117 0
M  V30 725 H 67.8824 0.993096 4.86263 0
M  V30 726 H 63.1384 2.09912 5.74236 0
M  V30 727 H 67.3124 2.887 6.33739 0
M  V30 728 H 64.9394 3.44596 6.77612 0
M  V30 729 N 66.5145 -1.57545 0.0417849 0
M  V30 730 C 67.7605 -1.92601 -0.635021 0
M  V30 731 C 68.0935 -0.919627 -1.71045 0
M  V30 732 O 67.3685 0.0557892 -1.9442 0
M  V30 733 C 67.6515 -3.38085 -1.23979 0
M  V30 734 C 67.5045 -4.49467 -0.173057 0
M  V30 735 C 68.8235 -3.83776 -2.15416 0
M  V30 736 H 65.9425 -0.700397 -0.229374 0
M  V30 737 H 68.5845 -1.89728 0.101633 0
M  V30 738 H 66.7345 -3.40664 -1.86762 0
M  V30 739 H 68.4065 -4.59018 0.458312 0
M  V30 740 H 66.6495 -4.30909 0.499996 0
M  V30 741 H 67.3205 -5.48323 -0.636054 0
M  V30 742 H 69.7965 -3.83013 -1.62605 0
M  V30 743 H 68.6725 -4.8624 -2.54679 0
M  V30 744 H 68.9335 -3.19998 -3.05047 0
M  V30 745 N 67.9926 0.231505 -1.5589 0
M  V30 746 C 68.9246 1.31006 -1.8807 0
M  V30 747 C 69.9376 1.43539 -0.768145 0
M  V30 748 O 71.1266 1.44614 -1.04638 0
M  V30 749 C 68.2266 2.68688 -2.06543 0
M  V30 750 C 67.3996 2.78228 -3.37502 0
M  V30 751 C 66.4586 3.96857 -3.4553 0
M  V30 752 O 65.4846 3.85662 -4.18633 0
M  V30 753 N 66.6866 5.1072 -2.75944 0
M  V30 754 H 69.4516 1.03731 -2.81176 0
M  V30 755 H 67.0126 0.421573 -1.56315 0
M  V30 756 H 69.0046 3.46412 -2.09239 0
M  V30 757 H 67.5746 2.88605 -1.20109 0
M  V30 758 H 66.7946 1.87059 -3.46991 0
M  V30 759 H 68.0826 2.81564 -4.23791 0
M  V30 760 H 67.4806 5.2271 -2.16311 0
M  V30 761 H 66.0376 5.86523 -2.84314 0
M  V30 762 N 69.4707 1.49531 0.497807 0
M  V30 763 C 70.7167 1.60388 1.25089 0
M  V30 764 C 71.0717 0.288328 1.90227 0
M  V30 765 O 70.3647 -0.711706 1.77891 0
M  V30 766 C 70.5587 2.70252 2.33878 0
M  V30 767 C 70.3877 4.12363 1.79408 0
M  V30 768 C 69.1577 4.7911 1.60566 0
M  V30 769 C 71.3557 4.97491 1.30412 0
M  V30 770 N 69.3377 6.05525 1.01059 0
M  V30 771 C 70.7087 6.14411 0.830595 0
M  V30 772 C 72.7637 4.83466 1.19015 0
M  V30 773 C 71.4667 7.1885 0.254371 0
M  V30 774 C 73.4927 5.88057 0.627892 0
M  V30 775 C 72.8547 7.04208 0.16461 0
M  V30 776 H 68.9537 0.641246 0.447579 0
M  V30 777 H 71.5377 1.86549 0.557441 0
M  V30 778 H 69.7087 2.45858 3.0068 0
M  V30 779 H 71.4407 2.70613 3.00917 0
M  V30 780 H 68.1957 4.35961 1.85026 0
M  V30 781 H 68.6197 6.73028 0.732236 0
M  V30 782 H 73.2617 3.93978 1.53431 0
M  V30 783 H 70.9797 8.08036 -0.102052 0
M  V30 784 H 74.5657 5.79266 0.542444 0
M  V30 785 H 73.4457 7.83757 -0.263669 0
M  V30 786 N 70.9488 -0.749086 1.3866 0
M  V30 787 C 71.8788 -1.8764 1.38973 0
M  V30 788 C 72.8598 -1.68178 0.255004 0
M  V30 789 O 74.0448 -1.88704 0.458754 0
M  V30 790 C 71.1748 -3.25222 1.21851 0
M  V30 791 C 70.1288 -3.59295 2.32575 0
M  V30 792 C 69.4548 -4.95663 2.00555 0
M  V30 793 C 70.7548 -3.63709 3.7485 0
M  V30 794 H 72.4488 -1.87635 2.3331 0
M  V30 795 H 69.9948 -0.901329 1.12303 0
M  V30 796 H 71.9478 -4.03746 1.20695 0
M  V30 797 H 70.6718 -3.25719 0.239775 0
M  V30 798 H 69.3308 -2.83093 2.32925 0
M  V30 799 H 68.9788 -4.92724 1.01154 0
M  V30 800 H 68.6788 -5.19429 2.74714 0
M  V30 801 H 70.2028 -5.7656 2.01024 0
M  V30 802 H 71.6168 -4.32338 3.76506 0
M  V30 803 H 70.0138 -3.98986 4.48252 0
M  V30 804 H 71.0838 -2.63834 4.06841 0
M  V30 805 N 72.4269 -1.23603 -0.977757 0
M  V30 806 C 73.3569 -1.04401 -2.0886 0
M  V30 807 C 74.3379 0.0399052 -1.70053 0
M  V30 808 O 75.5229 -0.125246 -1.93796 0
M  V30 809 C 72.6529 -0.637269 -3.41403 0
M  V30 810 C 71.6069 -1.66883 -3.94124 0
M  V30 811 C 70.9329 -1.11745 -5.22893 0
M  V30 812 C 72.2329 -3.06247 -4.23096 0
M  V30 813 H 73.9269 -1.97316 -2.25182 0
M  V30 814 H 71.4729 -0.950096 -1.08209 0
M  V30 815 H 73.4259 -0.48998 -4.18542 0
M  V30 816 H 72.1499 0.327557 -3.24953 0
M  V30 817 H 70.8089 -1.80416 -3.19133 0
M  V30 818 H 70.4569 -0.143527 -5.02795 0
M  V30 819 H 70.1569 -1.80672 -5.59134 0
M  V30 820 H 71.6809 -0.982067 -6.02651 0
M  V30 821 H 73.0949 -2.96001 -4.90975 0
M  V30 822 H 71.4919 -3.72436 -4.70544 0
M  V30 823 H 72.5619 -3.55041 -3.30263 0
M  V30 824 N 73.905 1.17692 -1.04816 0
M  V30 825 C 74.815 2.25229 -0.65643 0
M  V30 826 C 75.831 1.71018 0.320761 0
M  V30 827 O 77.007 2.00649 0.173805 0
M  V30 828 C 74.072 3.46684 -0.0332629 0
M  V30 829 C 73.133 4.15997 -1.06042 0
M  V30 830 C 72.366 5.31654 -0.466893 0
M  V30 831 O 72.589 5.65777 0.724758 0
M  V30 832 O 71.523 5.89831 -1.1993 0
M  V30 833 H 75.349 2.61016 -1.55255 0
M  V30 834 H 72.934 1.24919 -0.81949 0
M  V30 835 H 74.816 4.20234 0.313256 0
M  V30 836 H 73.491 3.12703 0.836566 0
M  V30 837 H 72.398 3.44482 -1.45886 0
M  V30 838 H 73.731 4.53996 -1.90127 0
M  V30 839 N 75.3831 0.828654 1.34056 0
M  V30 840 C 76.6081 0.431637 2.02859 0
M  V30 841 C 77.0331 -0.956339 1.61975 0
M  V30 842 O 76.3911 -1.62338 0.807228 0
M  V30 843 C 76.4391 0.548323 3.56407 0
M  V30 844 O 75.5431 -0.429556 4.10157 0
M  V30 845 H 74.8841 0.176886 0.640006 0
M  V30 846 H 77.4141 1.12066 1.71179 0
M  V30 847 H 77.4241 0.426196 4.05768 0
M  V30 848 H 76.0991 1.5606 3.8551 0
M  V30 849 H 74.6761 -0.265836 3.71951 0
M  V30 850 N 76.8612 -1.46375 0.584142 0
M  V30 851 C 78.2722 -1.86031 0.157959 0
M  V30 852 C 78.6232 -1.48753 -1.27933 0
M  V30 853 O 77.7482 -0.903098 -1.96655 0
M  V30 854 C 78.3432 -3.37642 0.279892 0
M  V30 855 C 76.9022 -3.76289 -0.09143 0
M  V30 856 C 76.0492 -2.7039 0.615178 0
M  V30 857 H 79.0002 -1.37509 0.792274 0
M  V30 858 H 79.0212 -3.77275 -0.494364 0
M  V30 859 H 78.5332 -3.64742 1.32607 0
M  V30 860 H 76.6342 -3.54806 -1.13769 0
M  V30 861 H 76.7472 -4.78246 0.285886 0
M  V30 862 H 75.1112 -2.5464 0.0552833 0
M  V30 863 H 75.8942 -3.0033 1.66303 0
M  V30 864 N 78.3393 -0.321999 -1.54275 0
M  V30 865 C 79.6163 0.335232 -1.92706 0
M  V30 866 C 79.9963 1.70006 -1.25145 0
M  V30 867 O 79.3443 2.25067 -0.394596 0
M  V30 868 C 79.5543 0.429008 -3.46353 0
M  V30 869 C 80.9023 0.690029 -4.18956 0
M  V30 870 O 81.9263 0.511992 -3.52501 0
M  V30 871 O 80.7853 1.03338 -5.36641 0
M  V30 872 H 77.8793 0.191143 -0.804608 0
M  V30 873 H 80.4253 -0.3716 -1.65581 0
M  V30 874 H 79.1973 -0.529611 -3.87699 0
M  V30 875 H 78.8203 1.18348 -3.79578 0
M  V30 876 N 79.8174 1.5752 -0.0501392 0
M  V30 877 C 81.0644 1.9265 0.623874 0
M  V30 878 C 81.3924 0.928411 1.70912 0
M  V30 879 O 80.6474 -0.0594525 1.9561 0
M  V30 880 C 80.9464 3.34467 1.25963 0
M  V30 881 C 80.6124 4.49883 0.302689 0
M  V30 882 C 79.2744 4.81184 0.0393636 0
M  V30 883 C 81.6264 5.20002 -0.353205 0
M  V30 884 C 78.9544 5.79951 -0.887308 0
M  V30 885 C 81.3064 6.1976 -1.26806 0
M  V30 886 C 79.9704 6.49491 -1.54007 0
M  V30 887 H 79.2404 0.704957 0.228292 0
M  V30 888 H 81.8874 1.91146 -0.116398 0
M  V30 889 H 80.1924 3.32333 2.07514 0
M  V30 890 H 81.8894 3.58928 1.78806 0
M  V30 891 H 78.4794 4.25457 0.518109 0
M  V30 892 H 82.6634 4.96033 -0.162854 0
M  V30 893 H 77.9194 6.01322 -1.10553 0
M  V30 894 H 82.0934 6.73205 -1.78236 0
M  V30 895 H 79.7204 7.25837 -2.25976 0
M  V30 896 N 81.2955 -0.223234 1.56011 0
M  V30 897 C 82.7065 -0.790368 1.69145 0
M  V30 898 C 83.0575 -1.85055 0.651845 0
M  V30 899 O 82.1825 -2.15498 -0.197359 0
M  V30 900 C 82.7775 -1.4404 3.06656 0
M  V30 901 C 81.3365 -1.95494 3.2165 0
M  V30 902 C 80.4835 -0.814506 2.65068 0
M  V30 903 H 83.4345 0.00139011 1.587 0
M  V30 904 H 83.4555 -2.30916 3.0242 0
M  V30 905 H 82.9675 -0.668543 3.82298 0
M  V30 906 H 81.0685 -2.75487 2.50874 0
M  V30 907 H 81.1815 -2.13607 4.28846 0
M  V30 908 H 79.5455 -1.22137 2.23505 0
M  V30 909 H 80.3285 -0.0553515 3.43255 0
M  V30 910 N 82.7736 -1.49793 -0.48987 0
M  V30 911 C 83.9986 -1.63836 -1.27172 0
M  V30 912 C 84.4236 -0.31402 -1.8546 0
M  V30 913 O 83.7816 0.719803 -1.66399 0
M  V30 914 C 83.8296 -2.71797 -2.36978 0
M  V30 915 O 82.9336 -2.31744 -3.41128 0
M  V30 916 H 82.2746 -0.547997 -0.37496 0
M  V30 917 H 84.8046 -1.96053 -0.585191 0
M  V30 918 H 84.8146 -2.94305 -2.82575 0
M  V30 919 H 83.4896 -3.67923 -1.93921 0
M  V30 920 H 82.0666 -2.1961 -3.01373 0
M  V30 921 N 84.2517 0.741722 -1.39055 0
M  V30 922 C 85.6627 1.31966 -1.32068 0
M  V30 923 C 86.0137 1.96192 0.0180797 0
M  V30 924 O 85.1387 1.95861 0.920196 0
M  V30 925 C 85.7337 2.39954 -2.39181 0
M  V30 926 C 84.2927 2.93438 -2.35735 0
M  V30 927 C 83.4397 1.66936 -2.21422 0
M  V30 928 H 86.3907 0.539721 -1.4924 0
M  V30 929 H 86.4117 3.20182 -2.05581 0
M  V30 930 H 85.9237 1.9318 -3.36605 0
M  V30 931 H 84.0247 3.4451 -1.41929 0
M  V30 932 H 84.1377 3.4701 -3.30335 0
M  V30 933 H 82.5017 1.91016 -1.68478 0
M  V30 934 H 83.2847 1.22224 -3.20806 0
M  V30 935 N 85.7298 1.2412 0.971189 0
M  V30 936 C 87.1408 1.07236 1.52831 0
M  V30 937 C 87.4918 -0.357352 1.92918 0
M  V30 938 O 86.6168 -1.24528 1.76979 0
M  V30 939 C 87.2118 1.94043 2.77728 0
M  V30 940 C 85.7708 1.81394 3.29808 0
M  V30 941 C 84.9178 1.89189 2.02738 0
M  V30 942 H 87.8688 1.37648 0.789864 0
M  V30 943 H 87.8898 1.47066 3.5093 0
M  V30 944 H 87.4018 2.98093 2.4852 0
M  V30 945 H 85.5028 0.801634 3.63874 0
M  V30 946 H 85.6158 2.65294 3.98944 0
M  V30 947 H 83.9798 1.32877 2.17292 0
M  V30 948 H 84.7628 2.94812 1.759 0
M  V30 949 N 87.2079 -1.17134 1.05439 0
M  V30 950 C 88.4329 -1.91913 0.786396 0
M  V30 951 C 88.8579 -1.7643 -0.652234 0
M  V30 952 O 88.2159 -1.08372 -1.45345 0
M  V30 953 C 88.2639 -3.40921 1.17497 0
M  V30 954 O 87.3679 -4.11244 0.308589 0
M  V30 955 H 86.7089 -0.598215 0.288158 0
M  V30 956 H 89.2389 -1.48457 1.4079 0
M  V30 957 H 89.2489 -3.91668 1.14281 0
M  V30 958 H 87.9239 -3.5151 2.22292 0
M  V30 959 H 86.5009 -3.70731 0.40157 0
M  V30 960 N 88.686 -0.835752 -1.33615 0
M  V30 961 C 89.911 -0.442389 -2.02627 0
M  V30 962 C 90.336 0.947735 -1.62479 0
M  V30 963 O 89.694 1.61907 -0.815826 0
M  V30 964 C 89.742 -0.567216 -3.56111 0
M  V30 965 O 88.846 0.407799 -4.10379 0
M  V30 966 H 88.187 -0.180278 -0.639059 0
M  V30 967 H 90.717 -1.12972 -1.70583 0
M  V30 968 H 90.727 -0.447708 -4.05536 0
M  V30 969 H 89.402 -1.58103 -3.84677 0
M  V30 970 H 87.979 0.246107 -3.72087 0
M  V30 971 N 90.1641 1.46063 -0.591896 0
M  V30 972 C 91.4411 1.95595 -0.0137119 0
M  V30 973 C 91.8211 1.5345 1.4497 0
M  V30 974 O 91.1691 0.789543 2.14426 0
M  V30 975 C 91.3791 3.48453 -0.195373 0
M  V30 976 C 92.7271 4.24546 -0.0679765 0
M  V30 977 O 93.7511 3.55982 -0.124681 0
M  V30 978 O 92.6101 5.46467 0.0600579 0
M  V30 979 H 89.7041 0.825795 0.0446279 0
M  V30 980 H 92.2501 1.56303 -0.660859 0
M  V30 981 H 91.0221 3.72045 -1.21235 0
M  V30 982 H 90.6451 3.94597 0.487775 0
M  V30 983 N 91.6422 0.330177 1.54103 0
M  V30 984 C 92.8912 -0.271336 1.99867 0
M  V30 985 C 93.2042 -1.52723 1.22209 0
M  V30 986 O 94.4102 -2.20515 1.58383 0
M  V30 987 C 92.8662 -0.534032 3.55916 0
M  V30 988 C 92.4742 0.705193 4.42415 0
M  V30 989 C 94.2182 -1.09514 4.1013 0
M  V30 990 C 92.1252 0.414035 5.89949 0
M  V30 991 H 91.0552 -0.105166 0.74663 0
M  V30 992 H 93.7062 0.443429 1.78062 0
M  V30 993 H 92.0882 -1.30915 3.73734 0
M  V30 994 H 93.2622 1.4804 4.36372 0
M  V30 995 H 91.5772 1.18698 3.99124 0
M  V30 996 H 94.1742 -1.3277 5.17954 0
M  V30 997 H 94.5172 -2.04656 3.62521 0
M  V30 998 H 95.0502 -0.381038 3.95971 0
M  V30 999 H 91.7892 1.33481 6.41766 0
M  V30 1000 H 91.3092 -0.323336 5.98928 0
M  V30 1001 H 92.9882 0.0263105 6.46995 0
M  V30 1002 N 93.1203 -1.57491 0.0584922 0
M  V30 1003 C 94.0703 -2.08474 -0.923188 0
M  V30 1004 C 95.0543 -0.991479 -1.26722 0
M  V30 1005 O 96.2463 -1.25473 -1.24842 0
M  V30 1006 C 93.3753 -2.6392 -2.19548 0
M  V30 1007 C 92.4613 -3.80227 -1.87852 0
M  V30 1008 N 92.8523 -4.89714 -1.26546 0
M  V30 1009 C 91.1503 -3.89271 -2.17679 0
M  V30 1010 C 91.8513 -5.70689 -1.12644 0
M  V30 1011 N 90.8273 -5.18531 -1.63176 0
M  V30 1012 H 94.6293 -2.90517 -0.444653 0
M  V30 1013 H 92.1433 -1.61745 -0.145764 0
M  V30 1014 H 94.1403 -2.98752 -2.9078 0
M  V30 1015 H 92.8003 -1.83318 -2.68001 0
M  V30 1016 H 93.8113 -5.09358 -0.936757 0
M  V30 1017 H 90.4883 -3.19623 -2.68602 0
M  V30 1018 H 91.8783 -6.6875 -0.6499 0
M  V30 1019 N 94.5984 0.214957 -1.56127 0
M  V30 1020 C 95.8264 0.955092 -1.83536 0
M  V30 1021 C 96.2414 1.77677 -0.638472 0
M  V30 1022 O 95.5984 1.78219 0.392968 0
M  V30 1023 C 95.6494 1.86734 -3.09536 0
M  V30 1024 O 95.3704 1.07887 -4.24608 0
M  V30 1025 C 96.8714 2.72082 -3.4998 0
M  V30 1026 H 94.0914 0.279611 -0.609966 0
M  V30 1027 H 96.6354 0.228197 -2.03223 0
M  V30 1028 H 94.7904 2.5481 -2.91806 0
M  V30 1029 H 95.2044 1.69872 -4.9623 0
M  V30 1030 H 96.6784 3.31782 -4.41163 0
M  V30 1031 H 97.1554 3.44806 -2.7204 0
M  V30 1032 H 97.7614 2.09409 -3.70173 0
M  V30 1033 N 96.0765 1.50051 0.48192 0
M  V30 1034 C 97.3015 1.64508 1.26301 0
M  V30 1035 C 97.7265 0.323851 1.85291 0
M  V30 1036 O 97.0845 -0.710969 1.66778 0
M  V30 1037 C 97.1325 2.7305 2.35533 0
M  V30 1038 O 96.2365 2.3355 3.39895 0
M  V30 1039 H 95.5775 0.549978 0.372048 0
M  V30 1040 H 98.1075 1.9636 0.574786 0
M  V30 1041 H 98.1175 2.95799 2.8101 0
M  V30 1042 H 96.7925 3.68946 1.91967 0
M  V30 1043 H 95.3695 2.21205 3.00204 0
M  V30 1044 N 97.5546 -0.734337 1.39446 0
M  V30 1045 C 98.8026 -1.49096 1.36436 0
M  V30 1046 C 99.1236 -1.94961 -0.0388255 0
M  V30 1047 O 98.3936 -1.69033 -0.990191 0
M  V30 1048 H 96.9736 -0.5531 0.502085 0
M  V30 1049 H 99.6356 -0.871725 1.74319 0
M  V30 1050 H 98.7316 -2.37276 2.02747 0
M  V30 1051 N 99.0327 -1.24633 -0.964593 0
M  V30 1052 C 99.9427 -1.05859 -2.09359 0
M  V30 1053 C 100.959 0.00148855 -1.74 0
M  V30 1054 O 102.135 -0.197346 -2.00431 0
M  V30 1055 C 99.1997 -0.668879 -3.40187 0
M  V30 1056 C 98.2607 -1.80578 -3.89474 0
M  V30 1057 C 97.4937 -1.43457 -5.14058 0
M  V30 1058 O 97.7167 -0.325775 -5.69469 0
M  V30 1059 O 96.6507 -2.2613 -5.57807 0
M  V30 1060 H 100.477 -2.00516 -2.28094 0
M  V30 1061 H 98.0617 -1.03481 -1.0776 0
M  V30 1062 H 99.9437 -0.463211 -4.18846 0
M  V30 1063 H 98.6187 0.248536 -3.22744 0
M  V30 1064 H 97.5257 -2.06623 -3.11862 0
M  V30 1065 H 98.8587 -2.70208 -4.11398 0
M  V30 1066 N 100.511 1.16574 -1.06058 0
M  V30 1067 C 101.474 2.19085 -0.673392 0
M  V30 1068 C 102.474 1.5835 0.279648 0
M  V30 1069 O 103.664 1.74088 0.0623488 0
M  V30 1070 C 100.796 3.40899 0.00954234 0
M  V30 1071 H 101.989 2.54853 -1.58081 0
M  V30 1072 H 99.5418 1.30808 -0.855516 0
M  V30 1073 H 100.277 3.10684 0.929826 0
M  V30 1074 H 100.062 3.86233 -0.67573 0
M  V30 1075 H 101.552 4.1675 0.266245 0
M  V30 1076 N 101.989 0.842826 1.3317 0
M  V30 1077 C 102.952 0.284065 2.27433 0
M  V30 1078 C 103.952 -0.54948 1.5112 0
M  V30 1079 O 105.142 -0.362699 1.70382 0
M  V30 1080 C 102.274 -0.599384 3.35589 0
M  V30 1081 H 103.467 1.11589 2.78366 0
M  V30 1082 H 101.02 0.616221 1.4364 0
M  V30 1083 H 101.755 -1.45349 2.89904 0
M  V30 1084 H 101.54 -0.00291266 3.921 0
M  V30 1085 H 103.03 -0.983488 4.05854 0
M  V30 1086 N 103.467 -1.45747 0.599634 0
M  V30 1087 C 104.883 -1.57424 0.26264 0
M  V30 1088 C 105.083 -1.59222 -1.23493 0
M  V30 1089 O 104.139 -1.51825 -2.01756 0
M  V30 1090 C 105.452 -2.86061 0.926795 0
M  V30 1091 C 107 -2.99722 0.901967 0
M  V30 1092 C 107.475 -4.31119 1.54598 0
M  V30 1093 N 108.966 -4.37858 1.5111 0
M  V30 1094 C 109.701 -5.3818 1.97863 0
M  V30 1095 N 109.197 -6.45083 2.52666 0
M  V30 1096 N 110.99 -5.29487 1.88679 0
M  V30 1097 H 103.141 -1.42823 1.57211 0
M  V30 1098 H 105.404 -0.68235 0.658105 0
M  V30 1099 H 105.11 -2.90605 1.98095 0
M  V30 1100 H 104.984 -3.74563 0.445238 0
M  V30 1101 H 107.371 -2.9475 -0.143617 0
M  V30 1102 H 107.452 -2.12652 1.42171 0
M  V30 1103 H 107.096 -4.36849 2.59085 0
M  V30 1104 H 107.026 -5.16992 1.00132 0
M  V30 1105 H 109.517 -3.61209 1.11068 0
M  V30 1106 H 109.83 -7.17869 2.86155 0
M  V30 1107 H 108.175 -6.45856 2.56701 0
M  V30 1108 H 111.366 -4.44877 1.4561 0
M  V30 1109 H 111.539 -6.07524 2.25429 0
M  V30 1110 N 104.945 -0.338344 -1.53925 0
M  V30 1111 C 105.892 0.520845 -2.24846 0
M  V30 1112 C 106.862 1.09976 -1.24477 0
M  V30 1113 O 108.047 1.13735 -1.53196 0
M  V30 1114 C 105.187 1.6685 -3.02084 0
M  V30 1115 C 104.3 1.11739 -4.17299 0
M  V30 1116 C 103.435 2.23193 -4.82036 0
M  V30 1117 C 102.474 1.65407 -5.89328 0
M  V30 1118 N 101.611 2.70582 -6.47866 0
M  V30 1119 H 106.451 -0.0904881 -2.97863 0
M  V30 1120 H 103.988 -0.0564282 -1.46992 0
M  V30 1121 H 105.946 2.34407 -3.45122 0
M  V30 1122 H 104.576 2.2509 -2.31375 0
M  V30 1123 H 103.628 0.332919 -3.7894 0
M  V30 1124 H 104.94 0.654677 -4.94485 0
M  V30 1125 H 104.094 2.98626 -5.28117 0
M  V30 1126 H 102.833 2.72807 -4.04262 0
M  V30 1127 H 101.838 0.884779 -5.42634 0
M  V30 1128 H 103.063 1.16652 -6.69006 0
M  V30 1129 H 101.009 3.1946 -5.72959 0
M  V30 1130 H 100.926 2.28917 -7.20509 0
M  V30 1131 H 102.194 3.45799 -6.98601 0
M  V30 1132 N 106.423 1.57458 -0.0668435 0
M  V30 1133 C 107.671 1.92919 0.602214 0
M  V30 1134 C 107.992 0.947215 1.70449 0
M  V30 1135 O 107.262 -0.00544117 1.95899 0
M  V30 1136 H 105.842 0.71217 0.22544 0
M  V30 1137 H 108.504 1.94508 -0.123535 0
M  V30 1138 H 107.6 2.94589 1.03073 0
M  V30 1139 N 107.901 -0.206675 1.56239 0
M  V30 1140 C 108.864 -1.23976 1.92776 0
M  V30 1141 C 109.864 -1.39041 0.807729 0
M  V30 1142 O 111.054 -1.37051 1.0753 0
M  V30 1143 C 108.186 -2.61112 2.19165 0
M  V30 1144 H 109.379 -0.927764 2.85189 0
M  V30 1145 H 106.932 -0.447718 1.4975 0
M  V30 1146 H 107.667 -2.97386 1.29352 0
M  V30 1147 H 107.452 -2.51552 3.00772 0
M  V30 1148 H 108.942 -3.35633 2.48476 0
M  V30 1149 N 109.379 -1.50304 -0.473955 0
M  V30 1150 C 110.656 -1.51667 -1.23518 0
M  V30 1151 C 111.036 -0.259701 -2.09496 0
M  V30 1152 O 110.384 0.756986 -2.15597 0
M  V30 1153 C 110.594 -2.81082 -2.06868 0
M  V30 1154 C 111.942 -3.31631 -2.65153 0
M  V30 1155 O 112.966 -2.82384 -2.17113 0
M  V30 1156 O 111.825 -4.17471 -3.52675 0
M  V30 1157 H 108.919 -0.60822 -0.560355 0
M  V30 1158 H 111.465 -1.62592 -0.486011 0
M  V30 1159 H 110.237 -3.64041 -1.4349 0
M  V30 1160 H 109.86 -2.73146 -2.88924 0
M  V30 1161 N 110.857 0.726932 -1.39834 0
M  V30 1162 C 112.104 1.48664 -1.37496 0
M  V30 1163 C 112.432 1.94482 0.0264678 0
M  V30 1164 O 111.687 1.67692 1.00886 0
M  V30 1165 C 111.986 2.73495 -2.30077 0
M  V30 1166 C 111.652 2.46502 -3.77555 0
M  V30 1167 C 110.314 2.3885 -4.17737 0
M  V30 1168 C 112.666 2.23604 -4.70798 0
M  V30 1169 C 109.994 2.06352 -5.49214 0
M  V30 1170 C 112.346 1.92622 -6.02561 0
M  V30 1171 C 111.01 1.83444 -6.41798 0
M  V30 1172 H 110.28 0.544001 -0.503135 0
M  V30 1173 H 112.927 0.833657 -1.72402 0
M  V30 1174 H 111.232 3.43575 -1.88317 0
M  V30 1175 H 112.929 3.31549 -2.25558 0
M  V30 1176 H 109.519 2.5334 -3.45712 0
M  V30 1177 H 113.703 2.28479 -4.40581 0
M  V30 1178 H 108.959 1.97776 -5.78528 0
M  V30 1179 H 113.133 1.73914 -6.74334 0
M  V30 1180 H 110.76 1.58029 -7.43593 0
M  V30 1181 N 112.336 1.25143 0.95797 0
M  V30 1182 C 113.266 1.07711 2.07173 0
M  V30 1183 C 114.247 -0.0128462 1.70095 0
M  V30 1184 O 115.432 0.156061 1.93572 0
M  V30 1185 C 112.562 0.691503 3.40346 0
M  V30 1186 C 111.516 1.73132 3.9142 0
M  V30 1187 C 110.842 1.20049 5.21049 0
M  V30 1188 C 112.142 3.1294 4.1817 0
M  V30 1189 H 113.836 2.00873 2.22014 0
M  V30 1190 H 111.382 0.967191 1.06684 0
M  V30 1191 H 113.335 0.556505 4.17709 0
M  V30 1192 H 112.059 -0.275819 3.25433 0
M  V30 1193 H 110.718 1.8547 3.16222 0
M  V30 1194 H 110.366 0.223499 5.02503 0
M  V30 1195 H 110.066 1.89545 5.56189 0
M  V30 1196 H 111.59 1.07782 6.01012 0
M  V30 1197 H 113.004 3.03775 4.86203 0
M  V30 1198 H 111.401 3.79875 4.64559 0
M  V30 1199 H 112.471 3.6025 3.24573 0
M  V30 1200 N 113.814 -1.1601 1.06675 0
M  V30 1201 C 114.761 -2.20525 0.680967 0
M  V30 1202 C 115.731 -1.62904 -0.324283 0
M  V30 1203 O 116.916 -1.89615 -0.212294 0
M  V30 1204 C 114.056 -3.45013 0.0776551 0
M  V30 1205 C 113.169 -4.16863 1.13355 0
M  V30 1206 C 112.304 -5.2888 0.49597 0
M  V30 1207 C 111.343 -5.92537 1.53513 0
M  V30 1208 N 110.48 -6.96038 0.920631 0
M  V30 1209 H 115.32 -2.52876 1.57663 0
M  V30 1210 H 112.857 -1.24199 0.788223 0
M  V30 1211 H 114.815 -4.16193 -0.289704 0
M  V30 1212 H 113.445 -3.132 -0.781393 0
M  V30 1213 H 112.497 -3.44248 1.61857 0
M  V30 1214 H 113.809 -4.60294 1.92174 0
M  V30 1215 H 112.963 -6.06653 0.0758604 0
M  V30 1216 H 111.702 -4.86622 -0.324062 0
M  V30 1217 H 110.707 -5.13482 1.9651 0
M  V30 1218 H 111.932 -6.36873 2.35733 0
M  V30 1219 H 109.878 -6.55888 0.12138 0
M  V30 1220 H 109.795 -7.3786 1.64616 0
M  V30 1221 H 111.063 -7.77725 0.525795 0
M  V30 1222 N 115.292 -0.849877 -1.32721 0
M  V30 1223 C 116.222 -0.306308 -2.31482 0
M  V30 1224 C 117.203 0.591952 -1.59468 0
M  V30 1225 O 118.388 0.513199 -1.87296 0
M  V30 1226 C 115.518 0.510204 -3.43532 0
M  V30 1227 C 114.472 -0.293209 -4.26994 0
M  V30 1228 C 113.798 0.647743 -5.30762 0
M  V30 1229 C 115.098 -1.51634 -4.99804 0
M  V30 1230 H 116.792 -1.13153 -2.77195 0
M  V30 1231 H 114.338 -0.545553 -1.33266 0
M  V30 1232 H 116.291 0.900856 -4.11658 0
M  V30 1233 H 115.015 1.36874 -2.96535 0
M  V30 1234 H 113.674 -0.665555 -3.60508 0
M  V30 1235 H 113.322 1.50299 -4.8002 0
M  V30 1236 H 113.022 0.11422 -5.87489 0
M  V30 1237 H 114.546 1.03567 -6.01753 0
M  V30 1238 H 115.96 -1.19824 -5.60638 0
M  V30 1239 H 114.357 -1.98745 -5.66234 0
M  V30 1240 H 115.427 -2.28018 -4.27943 0
M  V30 1241 N 116.77 1.45427 -0.607355 0
M  V30 1242 C 117.7 2.3329 0.0989352 0
M  V30 1243 C 118.681 1.46816 0.859007 0
M  V30 1244 O 119.866 1.75588 0.829604 0
M  V30 1245 C 116.996 3.29518 1.09705 0
M  V30 1246 C 115.95 4.25626 0.450206 0
M  V30 1247 C 115.276 5.11542 1.55655 0
M  V30 1248 C 116.576 5.18505 -0.628455 0
M  V30 1249 H 118.27 2.92595 -0.634716 0
M  V30 1250 H 115.816 1.40696 -0.306681 0
M  V30 1251 H 117.769 3.89855 1.59971 0
M  V30 1252 H 116.493 2.68372 1.86129 0
M  V30 1253 H 115.152 3.66586 -0.0315886 0
M  V30 1254 H 114.8 4.46765 2.31107 0
M  V30 1255 H 114.5 5.76647 1.12925 0
M  V30 1256 H 116.024 5.74748 2.06148 0
M  V30 1257 H 117.438 5.72916 -0.209877 0
M  V30 1258 H 115.835 5.92085 -0.977489 0
M  V30 1259 H 116.905 4.60948 -1.50514 0
M  V30 1260 N 118.248 0.346503 1.53744 0
M  V30 1261 C 119.18 -0.543316 2.22667 0
M  V30 1262 C 120.193 -1.06159 1.23427 0
M  V30 1263 O 121.382 -0.971235 1.49764 0
M  V30 1264 C 118.482 -1.76076 2.89569 0
M  V30 1265 C 117.655 -1.37727 4.15151 0
M  V30 1266 C 116.714 -2.45471 4.65436 0
M  V30 1267 O 115.74 -2.08655 5.29577 0
M  V30 1268 N 116.942 -3.7677 4.41616 0
M  V30 1269 H 119.707 0.0469703 2.99663 0
M  V30 1270 H 117.268 0.170766 1.60997 0
M  V30 1271 H 119.26 -2.47593 3.20125 0
M  V30 1272 H 117.83 -2.25835 2.16142 0
M  V30 1273 H 117.05 -0.492746 3.91108 0
M  V30 1274 H 118.338 -1.09708 4.96832 0
M  V30 1275 H 117.736 -4.09467 3.90325 0
M  V30 1276 H 116.293 -4.44448 4.7677 0
M  V30 1277 N 119.726 -1.57421 0.075193 0
M  V30 1278 C 120.656 -2.15942 -0.888324 0
M  V30 1279 C 121.637 -1.08737 -1.30806 0
M  V30 1280 O 122.822 -1.36787 -1.37851 0
M  V30 1281 C 119.952 -2.72379 -2.1547 0
M  V30 1282 C 118.906 -3.8478 -1.87425 0
M  V30 1283 C 118.232 -4.27834 -3.20721 0
M  V30 1284 C 119.532 -5.08869 -1.17684 0
M  V30 1285 H 121.226 -2.96705 -0.400799 0
M  V30 1286 H 118.772 -1.42723 -0.191342 0
M  V30 1287 H 120.725 -3.11965 -2.83295 0
M  V30 1288 H 119.449 -1.88841 -2.6647 0
M  V30 1289 H 118.108 -3.45703 -1.22004 0
M  V30 1290 H 117.756 -3.41214 -3.6957 0
M  V30 1291 H 117.456 -5.03605 -3.02746 0
M  V30 1292 H 118.98 -4.70039 -3.89738 0
M  V30 1293 H 120.394 -5.4575 -1.75584 0
M  V30 1294 H 118.791 -5.8994 -1.09956 0
M  V30 1295 H 119.861 -4.84648 -0.156453 0
M  V30 1296 N 121.204 0.198386 -1.56346 0
M  V30 1297 C 122.481 0.944982 -1.71258 0
M  V30 1298 C 122.861 2.0151 -0.629048 0
M  V30 1299 O 122.209 2.25639 0.360473 0
M  V30 1300 C 122.419 1.5344 -3.1346 0
M  V30 1301 C 123.767 2.01778 -3.73591 0
M  V30 1302 O 124.791 1.63288 -3.16568 0
M  V30 1303 O 123.65 2.72594 -4.73661 0
M  V30 1304 H 120.744 0.442939 -0.69838 0
M  V30 1305 H 123.29 0.188342 -1.68652 0
M  V30 1306 H 122.062 0.762869 -3.83792 0
M  V30 1307 H 121.685 2.35596 -3.20282 0
M  V30 1308 N 122.682 1.50554 0.465978 0
M  V30 1309 C 123.63 1.70324 1.58406 0
M  V30 1310 C 124.624 0.569139 1.59553 0
M  V30 1311 O 125.83 0.749776 1.63641 0
M  V30 1312 H 122.205 0.537688 0.525734 0
M  V30 1313 H 124.176 2.64104 1.38894 0
M  V30 1314 C 122.925 1.81928 2.96307 0
M  V30 1315 H 122.248 2.68586 2.96144 0
M  V30 1316 H 123.688 1.99784 3.73982 0
M  V30 1317 C 122.147 0.572095 3.32007 0
M  V30 1318 O 122.677 -0.286416 4.00678 0
M  V30 1319 N 120.883 0.424606 2.87481 0
M  V30 1320 H 120.43 1.12427 2.31771 0
M  V30 1321 H 120.388 -0.408697 3.11732 0
M  V30 1322 N 124.16 -0.719506 1.40217 0
M  V30 1323 C 125.408 -1.47641 1.3801 0
M  V30 1324 C 125.729 -1.94992 -0.018145 0
M  V30 1325 O 124.999 -1.70073 -0.972207 0
M  V30 1326 H 123.579 -0.547744 0.507923 0
M  V30 1327 H 126.241 -0.853187 1.75233 0
M  V30 1328 H 125.337 -2.35112 2.05253 0
M  V30 1329 N 125.638 -1.25649 -0.95132 0
M  V30 1330 C 126.887 -1.09988 -1.69073 0
M  V30 1331 C 127.2 0.358355 -1.92289 0
M  V30 1332 O 128.406 0.635466 -2.63958 0
M  V30 1333 C 126.862 -1.92012 -3.044 0
M  V30 1334 C 126.47 -3.42347 -2.88968 0
M  V30 1335 C 128.214 -1.8493 -3.82101 0
M  V30 1336 C 126.121 -4.16655 -4.19705 0
M  V30 1337 H 125.051 -0.407993 -0.63408 0
M  V30 1338 H 127.702 -1.49873 -1.05879 0
M  V30 1339 H 126.084 -1.44952 -3.68517 0
M  V30 1340 H 127.258 -3.97104 -2.33762 0
M  V30 1341 H 125.573 -3.50557 -2.24719 0
M  V30 1342 H 128.17 -2.37739 -4.78941 0
M  V30 1343 H 128.513 -0.817883 -4.08187 0
M  V30 1344 H 129.046 -2.29758 -3.2474 0
M  V30 1345 H 125.785 -5.20224 -3.98807 0
M  V30 1346 H 125.305 -3.66681 -4.74663 0
M  V30 1347 H 126.984 -4.24551 -4.88227 0
M  V30 1348 N 127.117 1.15442 -1.07289 0
M  V30 1349 C 128.364 1.86213 -0.795668 0
M  V30 1350 C 128.692 1.82291 0.678238 0
M  V30 1351 O 127.947 1.24057 1.51355 0
M  V30 1352 C 128.246 3.3489 -1.24834 0
M  V30 1353 C 127.912 3.59007 -2.72809 0
M  V30 1354 C 126.574 3.65298 -3.13227 0
M  V30 1355 C 128.926 3.68762 -3.68326 0
M  V30 1356 C 126.254 3.78854 -4.4798 0
M  V30 1357 C 128.606 3.83842 -5.0284 0
M  V30 1358 C 127.27 3.88378 -5.4288 0
M  V30 1359 H 126.54 0.681403 -0.291155 0
M  V30 1360 H 129.187 1.36435 -1.34379 0
M  V30 1361 H 127.492 3.8687 -0.619595 0
M  V30 1362 H 129.189 3.88052 -1.01076 0
M  V30 1363 H 125.779 3.5475 -2.40521 0
M  V30 1364 H 129.963 3.63202 -3.38227 0
M  V30 1365 H 125.219 3.80623 -4.78472 0
M  V30 1366 H 129.393 3.90332 -5.76727 0
M  V30 1367 H 127.02 3.98635 -6.47298 0
M  V30 1368 N 128.595 0.856903 1.32268 0
M  V30 1369 C 130.006 0.515711 1.79436 0
M  V30 1370 C 130.357 -0.966586 1.70738 0
M  V30 1371 O 129.482 -1.75409 1.26731 0
M  V30 1372 C 130.077 0.929335 3.25805 0
M  V30 1373 C 128.636 0.640006 3.70919 0
M  V30 1374 C 127.783 1.12784 2.53328 0
M  V30 1375 H 130.734 1.04389 1.19535 0
M  V30 1376 H 130.755 0.246633 3.797 0
M  V30 1377 H 130.267 2.00821 3.32103 0
M  V30 1378 H 128.368 -0.428051 3.70133 0
M  V30 1379 H 128.481 1.20788 4.63624 0
M  V30 1380 H 126.845 0.548033 2.48734 0
M  V30 1381 H 127.628 2.21387 2.62379 0
M  V30 1382 N 130.073 -1.45103 0.615059 0
M  V30 1383 C 131.313 -2.04069 0.116282 0
M  V30 1384 C 131.677 -1.4721 -1.2326 0
M  V30 1385 O 132.878 -1.97577 -1.82255 0
M  V30 1386 C 131.149 -3.57298 0.085482 0
M  V30 1387 S 132.708 -4.37394 -0.351015 0
M  V30 1388 H 129.526 -0.709006 0.0532183 0
M  V30 1389 H 132.128 -1.77709 0.81484 0
M  V30 1390 H 130.832 -3.9619 1.0706 0
M  V30 1391 H 130.363 -3.88244 -0.634835 0
M  V30 1392 H 132.378 -4.69734 -1.59889 0
M  V30 1393 N 131.551 -0.354651 -1.53558 0
M  V30 1394 C 132.483 0.5315 -2.22952 0
M  V30 1395 C 133.496 1.05503 -1.23988 0
M  V30 1396 O 134.685 0.963279 -1.50277 0
M  V30 1397 C 131.785 1.74538 -2.90499 0
M  V30 1398 C 130.958 1.35524 -4.15875 0
M  V30 1399 C 130.017 2.42999 -4.66731 0
M  V30 1400 O 129.043 2.05844 -5.30676 0
M  V30 1401 N 130.245 3.74423 -4.43608 0
M  V30 1402 H 133.01 -0.0628615 -2.99634 0
M  V30 1403 H 130.571 -0.179302 -1.60904 0
M  V30 1404 H 132.563 2.45892 -3.21433 0
M  V30 1405 H 131.133 2.24686 -2.17336 0
M  V30 1406 H 130.353 0.471998 -3.91364 0
M  V30 1407 H 131.641 1.07071 -4.97406 0
M  V30 1408 H 131.039 4.07391 -3.92491 0
M  V30 1409 H 129.596 4.41913 -4.7912 0
M  V30 1410 N 133.029 1.57378 -0.0835403 0
M  V30 1411 C 134.259 1.97975 0.590713 0
M  V30 1412 C 134.667 0.961083 1.62972 0
M  V30 1413 O 134.01 -0.0590879 1.83605 0
M  V30 1414 C 134.072 3.34915 1.3066 0
M  V30 1415 C 133.736 4.55069 0.419698 0
M  V30 1416 C 134.733 5.18868 -0.32749 0
M  V30 1417 C 132.418 5.0114 0.341137 0
M  V30 1418 C 134.412 6.27098 -1.14134 0
M  V30 1419 C 132.099 6.0924 -0.476374 0
M  V30 1420 C 133.097 6.72083 -1.21627 0
M  V30 1421 O 132.785 7.781 -2.02028 0
M  V30 1422 H 132.517 0.655818 0.163947 0
M  V30 1423 H 135.071 2.04807 -0.156021 0
M  V30 1424 H 133.301 3.24733 2.09966 0
M  V30 1425 H 134.99 3.60037 1.87424 0
M  V30 1426 H 135.756 4.84211 -0.276459 0
M  V30 1427 H 131.635 4.51996 0.90668 0
M  V30 1428 H 135.179 6.7608 -1.71935 0
M  V30 1429 H 131.076 6.43329 -0.528927 0
M  V30 1430 H 131.844 7.95034 -1.94586 0
M  V30 1431 N 134.507 -0.190092 1.56449 0
M  V30 1432 C 135.454 -1.23557 1.94942 0
M  V30 1433 C 136.424 -1.44972 0.810696 0
M  V30 1434 O 137.609 -1.58023 1.06927 0
M  V30 1435 C 134.749 -2.57416 2.2985 0
M  V30 1436 C 133.862 -2.43537 3.5681 0
M  V30 1437 C 132.997 -3.70134 3.81017 0
M  V30 1438 C 132.036 -3.51109 5.01387 0
M  V30 1439 N 131.173 -4.6973 5.21822 0
M  V30 1440 H 136.013 -0.900304 2.84075 0
M  V30 1441 H 133.55 -0.43318 1.40577 0
M  V30 1442 H 135.508 -3.35409 2.48106 0
M  V30 1443 H 134.138 -2.88975 1.43852 0
M  V30 1444 H 133.19 -1.56816 3.46573 0
M  V30 1445 H 134.502 -2.25415 4.4496 0
M  V30 1446 H 133.656 -4.56566 3.9954 0
M  V30 1447 H 132.395 -3.91215 2.91207 0
M  V30 1448 H 131.4 -2.63063 4.82782 0
M  V30 1449 H 132.625 -3.31468 5.9271 0
M  V30 1450 H 130.571 -4.91065 4.34961 0
M  V30 1451 H 130.488 -4.54452 6.0416 0
M  V30 1452 H 131.756 -5.57499 5.44808 0
M  V30 1453 N 135.985 -1.50799 -0.457987 0
M  V30 1454 C 137.233 -1.62121 -1.2067 0
M  V30 1455 C 137.554 -0.329793 -1.92191 0
M  V30 1456 O 136.824 0.653409 -1.84682 0
M  V30 1457 H 135.404 -0.597441 -0.448411 0
M  V30 1458 H 138.066 -1.87637 -0.527096 0
M  V30 1459 H 137.162 -2.43882 -1.94751 0
M  V30 1460 N 137.463 0.71206 -1.40597 0
M  V30 1461 C 138.874 1.29135 -1.34837 0
M  V30 1462 C 139.225 1.96186 -0.0235395 0
M  V30 1463 O 138.35 1.97768 0.878444 0
M  V30 1464 C 138.945 2.34827 -2.44217 0
M  V30 1465 C 137.504 2.88371 -2.41907 0
M  V30 1466 C 136.651 1.62202 -2.24913 0
M  V30 1467 H 139.602 0.507944 -1.50352 0
M  V30 1468 H 139.623 3.15749 -2.12327 0
M  V30 1469 H 139.135 1.85996 -3.40627 0
M  V30 1470 H 137.236 3.41422 -1.49204 0
M  V30 1471 H 137.349 3.39925 -3.37621 0
M  V30 1472 H 135.713 1.874 -1.72492 0
M  V30 1473 H 136.496 1.15391 -3.23326 0
M  V30 1474 N 138.941 1.26152 0.944643 0
M  V30 1475 C 139.874 1.01729 2.04271 0
M  V30 1476 C 140.852 -0.0568101 1.62501 0
M  V30 1477 O 142.036 0.0848987 1.88309 0
M  V30 1478 C 139.163 0.539792 3.34371 0
M  V30 1479 C 138.209 1.60593 3.9511 0
M  V30 1480 S 139.042 3.19392 4.29825 0
M  V30 1481 C 140.198 2.73402 5.63029 0
M  V30 1482 H 140.431 1.94703 2.24673 0
M  V30 1483 H 137.964 1.09793 1.08558 0
M  V30 1484 H 139.922 0.270956 4.09605 0
M  V30 1485 H 138.583 -0.369609 3.11918 0
M  V30 1486 H 137.776 1.22275 4.88943 0
M  V30 1487 H 137.378 1.82596 3.26397 0
M  V30 1488 H 139.67 2.1765 6.41588 0
M  V30 1489 H 140.613 3.65913 6.06229 0
M  V30 1490 H 141.021 2.13077 5.22741 0
M  V30 1491 N 140.419 -1.14872 1.07899 0
M  V30 1492 C 141.666 -1.85789 0.805532 0
M  V30 1493 C 141.994 -1.82649 -0.668561 0
M  V30 1494 O 141.249 -1.24858 -1.50695 0
M  V30 1495 C 141.548 -3.34223 1.26609 0
M  V30 1496 C 141.214 -3.57555 2.74709 0
M  V30 1497 C 139.876 -3.63631 3.1516 0
M  V30 1498 C 142.228 -3.66803 3.70277 0
M  V30 1499 C 139.556 -3.76473 4.49983 0
M  V30 1500 C 141.908 -3.8117 5.04869 0
M  V30 1501 C 140.572 -3.85494 5.44932 0
M  V30 1502 H 139.842 -0.679849 0.294765 0
M  V30 1503 H 142.489 -1.3572 1.35101 0
M  V30 1504 H 140.794 -3.86536 0.640103 0
M  V30 1505 H 142.491 -3.87511 1.03132 0
M  V30 1506 H 139.081 -3.5347 2.42398 0
M  V30 1507 H 143.265 -3.61404 3.40149 0
M  V30 1508 H 138.521 -3.7808 4.80484 0
M  V30 1509 H 142.695 -3.87268 5.78789 0
M  V30 1510 H 140.322 -3.95197 6.49403 0
M  V30 1511 N 141.898 -0.863906 -1.31812 0
M  V30 1512 C 142.831 -0.259963 -2.26714 0
M  V30 1513 C 143.809 0.607392 -1.50829 0
M  V30 1514 O 144.993 0.562155 -1.79922 0
M  V30 1515 C 142.12 0.632456 -3.32743 0
M  V30 1516 C 141.166 -0.162743 -4.26189 0
M  V30 1517 S 141.999 -1.53726 -5.12961 0
M  V30 1518 C 143.155 -0.650803 -6.22507 0
M  V30 1519 H 143.388 -1.06445 -2.77591 0
M  V30 1520 H 140.921 -0.662071 -1.39485 0
M  V30 1521 H 142.879 1.14167 -3.94305 0
M  V30 1522 H 141.54 1.41083 -2.80632 0
M  V30 1523 H 140.733 0.517366 -5.01338 0
M  V30 1524 H 140.335 -0.60385 -3.69093 0
M  V30 1525 H 142.627 0.141134 -6.77353 0
M  V30 1526 H 143.57 -1.37322 -6.94657 0
M  V30 1527 H 143.978 -0.221041 -5.64067 0
M  V30 1528 N 143.376 1.44774 -0.622745 0
M  V30 1529 C 144.604 2.06487 -0.130722 0
M  V30 1530 C 145.019 1.46476 1.19123 0
M  V30 1531 O 144.376 0.584502 1.72887 0
M  V30 1532 C 144.427 3.615 -0.000807207 0
M  V30 1533 O 144.148 4.19274 -1.27048 0
M  V30 1534 C 145.649 4.40229 0.520898 0
M  V30 1535 H 142.869 0.666704 -0.0758106 0
M  V30 1536 H 145.413 1.85779 -0.854774 0
M  V30 1537 H 143.568 3.81498 0.673643 0
M  V30 1538 H 143.982 5.12622 -1.1099 0
M  V30 1539 H 145.456 5.49144 0.560838 0
M  V30 1540 H 145.933 4.1108 1.54627 0
M  V30 1541 H 146.539 4.25131 -0.120018 0
M  V30 1542 N 144.854 0.36279 1.53368 0
M  V30 1543 C 146.103 -0.22888 2.00397 0
M  V30 1544 C 146.416 -1.50096 1.25421 0
M  V30 1545 O 147.622 -2.17106 1.63025 0
M  V30 1546 C 146.078 -0.458417 3.56969 0
M  V30 1547 C 145.686 0.798877 4.4082 0
M  V30 1548 C 147.43 -1.00789 4.12361 0
M  V30 1549 C 145.337 0.539078 5.88938 0
M  V30 1550 H 144.267 -0.089305 0.748693 0
M  V30 1551 H 146.918 0.481099 1.77081 0
M  V30 1552 H 145.3 -1.22959 3.76427 0
M  V30 1553 H 146.474 1.57262 4.33134 0
M  V30 1554 H 144.789 1.27137 3.96516 0
M  V30 1555 H 147.386 -1.21754 5.20653 0
M  V30 1556 H 147.729 -1.9692 3.66781 0
M  V30 1557 H 148.262 -0.296961 3.9669 0
M  V30 1558 H 145.001 1.47064 6.3879 0
M  V30 1559 H 144.521 -0.196222 5.99479 0
M  V30 1560 H 146.2 0.163542 6.46793 0
M  V30 1561 N 146.332 -1.57332 0.0918853 0
M  V30 1562 C 147.58 -1.93853 -0.571446 0
M  V30 1563 C 147.901 -0.974212 -1.6892 0
M  V30 1564 O 147.171 -0.0257254 -1.95883 0
M  V30 1565 H 145.751 -0.715666 -0.214082 0
M  V30 1566 H 148.413 -1.94287 0.154464 0
M  V30 1567 H 147.509 -2.96191 -0.983729 0
M  V30 1568 N 147.81 0.181792 -1.56548 0
M  V30 1569 C 149.04 0.914618 -1.85252 0
M  V30 1570 C 149.448 1.76791 -0.673914 0
M  V30 1571 O 148.791 1.80009 0.366416 0
M  V30 1572 C 148.853 1.85019 -3.08234 0
M  V30 1573 C 148.517 1.17754 -4.41569 0
M  V30 1574 C 149.514 0.548035 -5.17003 0
M  V30 1575 C 147.199 1.17742 -4.88305 0
M  V30 1576 C 149.193 -0.0726128 -6.37359 0
M  V30 1577 C 146.88 0.552946 -6.08593 0
M  V30 1578 C 147.878 -0.070978 -6.82963 0
M  V30 1579 O 147.566 -0.685635 -8.00971 0
M  V30 1580 H 147.298 0.271695 -0.618998 0
M  V30 1581 H 149.852 0.189944 -2.0452 0
M  V30 1582 H 148.082 2.61491 -2.84885 0
M  V30 1583 H 149.771 2.45195 -3.23472 0
M  V30 1584 H 150.537 0.540174 -4.81982 0
M  V30 1585 H 146.416 1.65246 -4.30366 0
M  V30 1586 H 149.96 -0.560213 -6.95347 0
M  V30 1587 H 145.857 0.558354 -6.43081 0
M  V30 1588 H 146.625 -0.58385 -8.16415 0
M  V30 1589 N 149.288 1.51039 0.449983 0
M  V30 1590 C 150.534 1.63322 1.20223 0
M  V30 1591 C 150.867 0.34241 1.91158 0
M  V30 1592 O 150.142 -0.657344 1.83055 0
M  V30 1593 C 150.425 2.82801 2.22925 0
M  V30 1594 C 150.278 4.21823 1.56157 0
M  V30 1595 C 151.597 2.97807 3.24035 0
M  V30 1596 H 148.716 0.594407 0.435718 0
M  V30 1597 H 151.358 1.83489 0.493136 0
M  V30 1598 H 149.508 2.65738 2.834 0
M  V30 1599 H 151.18 4.50526 0.991162 0
M  V30 1600 H 149.423 4.25105 0.864172 0
M  V30 1601 H 150.094 5.01391 2.30891 0
M  V30 1602 H 152.57 3.13497 2.73603 0
M  V30 1603 H 151.446 3.82992 3.93202 0
M  V30 1604 H 151.707 2.09328 3.89402 0
M  V30 1605 N 150.766 -0.704594 1.40972 0
M  V30 1606 C 151.994 -1.49354 1.43182 0
M  V30 1607 C 152.409 -1.88768 0.0345508 0
M  V30 1608 O 151.766 -1.56184 -0.944081 0
M  V30 1609 C 151.817 -2.76187 2.33244 0
M  V30 1610 O 151.538 -2.38436 3.67532 0
M  V30 1611 C 153.039 -3.7 2.44162 0
M  V30 1612 H 150.259 -0.460559 0.487982 0
M  V30 1613 H 152.803 -0.868261 1.85153 0
M  V30 1614 H 150.958 -3.34974 1.94606 0
M  V30 1615 H 151.372 -3.20126 4.15475 0
M  V30 1616 H 152.846 -4.55803 3.11364 0
M  V30 1617 H 153.323 -4.13867 1.47006 0
M  V30 1618 H 153.929 -3.17121 2.83398 0
M  V30 1619 N 152.244 -1.26651 -0.937939 0
M  V30 1620 C 153.207 -1.08546 -2.01867 0
M  V30 1621 C 154.207 -0.0327327 -1.60767 0
M  V30 1622 O 155.397 -0.276427 -1.71993 0
M  V30 1623 C 152.529 -0.651711 -3.34613 0
M  V30 1624 H 153.722 -2.04502 -2.1936 0
M  V30 1625 H 151.275 -1.09294 -1.11734 0
M  V30 1626 H 152.01 0.309696 -3.22818 0
M  V30 1627 H 151.795 -1.41189 -3.65798 0
M  V30 1628 H 153.285 -0.546973 -4.14002 0
M  V30 1629 N 153.722 1.14298 -1.08507 0
M  V30 1630 C 154.67 2.21483 -0.710483 0
M  V30 1631 C 155.664 1.66998 0.284234 0
M  V30 1632 O 156.87 1.79401 0.146692 0
M  V30 1633 H 153.245 0.721578 -0.211729 0
M  V30 1634 H 155.216 2.50348 -1.62384 0
M  V30 1635 C 153.965 3.4743 -0.137007 0
M  V30 1636 H 153.288 3.89686 -0.893592 0
M  V30 1637 H 154.728 4.2391 0.0872789 0
M  V30 1638 C 153.187 3.17548 1.12538 0
M  V30 1639 O 153.717 3.35437 2.21009 0
M  V30 1640 N 151.923 2.71499 1.03617 0
M  V30 1641 H 151.47 2.57143 0.153403 0
M  V30 1642 H 151.428 2.51881 1.88158 0
M  V30 1643 N 155.201 0.870884 1.31352 0
M  V30 1644 C 156.431 0.496049 2.00557 0
M  V30 1645 C 156.839 -0.916241 1.65534 0
M  V30 1646 O 156.182 -1.61188 0.881134 0
M  V30 1647 C 156.244 0.574418 3.54881 0
M  V30 1648 C 155.908 1.94849 4.1338 0
M  V30 1649 C 156.905 2.91611 4.30417 0
M  V30 1650 C 154.59 2.25005 4.49086 0
M  V30 1651 C 156.584 4.16672 4.82352 0
M  V30 1652 C 154.271 3.50315 5.00722 0
M  V30 1653 C 155.269 4.45964 5.17306 0
M  V30 1654 O 154.957 5.69052 5.67833 0
M  V30 1655 H 154.689 0.191664 0.64826 0
M  V30 1656 H 157.243 1.17409 1.68536 0
M  V30 1657 H 155.473 -0.160549 3.86367 0
M  V30 1658 H 157.162 0.212879 4.05341 0
M  V30 1659 H 157.928 2.69622 4.03149 0
M  V30 1660 H 153.807 1.51332 4.35453 0
M  V30 1661 H 157.351 4.91336 4.95211 0
M  V30 1662 H 153.248 3.72147 5.27424 0
M  V30 1663 H 154.016 5.71236 5.86201 0
M  V30 1664 N 156.679 -1.44442 0.630414 0
M  V30 1665 C 157.909 -2.06115 0.141465 0
M  V30 1666 C 158.317 -1.47179 -1.1889 0
M  V30 1667 O 157.66 -0.588873 -1.74006 0
M  V30 1668 C 157.722 -3.59467 -0.0484355 0
M  V30 1669 C 157.386 -4.40864 1.20366 0
M  V30 1670 C 158.383 -4.74391 2.12719 0
M  V30 1671 C 156.068 -4.8125 1.43887 0
M  V30 1672 C 158.062 -5.47186 3.26904 0
M  V30 1673 C 155.749 -5.53795 2.5837 0
M  V30 1674 C 156.747 -5.86682 3.49705 0
M  V30 1675 O 156.435 -6.57749 4.62191 0
M  V30 1676 H 156.167 -0.671648 0.0765792 0
M  V30 1677 H 158.721 -1.86312 0.864695 0
M  V30 1678 H 156.951 -3.77758 -0.826803 0
M  V30 1679 H 158.64 -4.02909 -0.491849 0
M  V30 1680 H 159.406 -4.43728 1.95781 0
M  V30 1681 H 155.285 -4.55073 0.736853 0
M  V30 1682 H 158.829 -5.72773 3.98217 0
M  V30 1683 H 154.726 -5.83872 2.75251 0
M  V30 1684 H 155.494 -6.76217 4.61164 0
M  V30 1685 N 158.157 -0.370918 -1.53173 0
M  V30 1686 C 159.382 0.220293 -2.06227 0
M  V30 1687 C 159.807 1.41243 -1.24225 0
M  V30 1688 O 159.165 1.79387 -0.262645 0
M  V30 1689 C 159.213 0.586663 -3.55796 0
M  V30 1690 O 158.317 1.68317 -3.76488 0
M  V30 1691 H 157.658 0.0308099 -0.663285 0
M  V30 1692 H 160.188 -0.533068 -1.97534 0
M  V30 1693 H 160.198 0.85617 -3.98916 0
M  V30 1694 H 158.873 -0.285013 -4.14922 0
M  V30 1695 H 157.45 1.40881 -3.45264 0
M  V30 1696 N 159.635 1.57281 -0.100228 0
M  V30 1697 C 160.582 2.14305 0.856858 0
M  V30 1698 C 161.552 1.06296 1.27634 0
M  V30 1699 O 162.737 1.34109 1.35718 0
M  V30 1700 C 159.877 2.73184 2.10866 0
M  V30 1701 C 158.99 3.95442 1.73925 0
M  V30 1702 C 158.125 4.42468 2.93931 0
M  V30 1703 C 157.164 5.57303 2.5314 0
M  V30 1704 N 156.301 5.99158 3.65997 0
M  V30 1705 H 161.141 2.95772 0.363726 0
M  V30 1706 H 158.678 1.46139 0.167858 0
M  V30 1707 H 160.636 3.05442 2.84185 0
M  V30 1708 H 159.266 1.94437 2.57671 0
M  V30 1709 H 158.318 3.69464 0.905554 0
M  V30 1710 H 159.63 4.78769 1.39935 0
M  V30 1711 H 158.784 4.76537 3.75496 0
M  V30 1712 H 157.523 3.58052 3.31134 0
M  V30 1713 H 156.528 5.22857 1.70003 0
M  V30 1714 H 157.753 6.43471 2.17075 0
M  V30 1715 H 155.699 5.17687 4.02909 0
M  V30 1716 H 155.616 6.77295 3.35869 0
M  V30 1717 H 156.884 6.3786 4.48057 0
M  V30 1718 N 161.113 -0.173488 1.56642 0
M  V30 1719 C 162.341 -0.906095 1.86004 0
M  V30 1720 C 162.756 -1.75921 0.685355 0
M  V30 1721 O 162.113 -1.79198 -0.345578 0
M  V30 1722 C 162.164 -1.78462 3.14378 0
M  V30 1723 O 161.885 -0.965914 4.27319 0
M  V30 1724 C 163.386 -2.62707 3.57071 0
M  V30 1725 H 160.606 -0.263341 0.617165 0
M  V30 1726 H 163.15 -0.174236 2.03756 0
M  V30 1727 H 161.305 -2.46984 2.98459 0
M  V30 1728 H 161.719 -1.56655 5.00559 0
M  V30 1729 H 163.193 -3.19969 4.49804 0
M  V30 1730 H 163.67 -3.37472 2.81086 0
M  V30 1731 H 164.276 -1.99521 3.75595 0
M  V30 1732 N 162.591 -1.51276 -0.441967 0
M  V30 1733 C 163.501 -1.75092 -1.56141 0
M  V30 1734 C 164.517 -0.634963 -1.62001 0
M  V30 1735 O 165.693 -0.916686 -1.79329 0
M  V30 1736 C 162.758 -1.86666 -2.92158 0
M  V30 1737 C 161.819 -3.10506 -2.96453 0
M  V30 1738 C 161.052 -3.21519 -4.25982 0
M  V30 1739 O 161.275 -2.38586 -5.18105 0
M  V30 1740 O 160.209 -4.14465 -4.36466 0
M  V30 1741 H 164.035 -2.70044 -1.38961 0
M  V30 1742 H 161.62 -1.35722 -0.624499 0
M  V30 1743 H 163.502 -1.96292 -3.72891 0
M  V30 1744 H 162.177 -0.949014 -3.09476 0
M  V30 1745 H 161.084 -3.06363 -2.14692 0
M  V30 1746 H 162.417 -4.01945 -2.84079 0
M  V30 1747 N 164.069 0.697108 -1.41344 0
M  V30 1748 C 165.318 1.45279 -1.39918 0
M  V30 1749 C 165.631 1.95597 -0.0109624 0
M  V30 1750 O 166.837 2.71208 0.125919 0
M  V30 1751 C 165.293 2.62695 -2.46007 0
M  V30 1752 C 164.901 2.19169 -3.90729 0
M  V30 1753 C 166.645 3.40336 -2.53715 0
M  V30 1754 C 164.552 3.33535 -4.88373 0
M  V30 1755 H 163.482 0.545692 -0.520323 0
M  V30 1756 H 166.133 0.756929 -1.67161 0
M  V30 1757 H 164.515 3.34541 -2.11892 0
M  V30 1758 H 165.689 1.54623 -4.34083 0
M  V30 1759 H 164.004 1.54525 -3.86666 0
M  V30 1760 H 166.601 4.2547 -3.2385 0
M  V30 1761 H 166.944 3.85418 -1.5735 0
M  V30 1762 H 167.477 2.75546 -2.86913 0
M  V30 1763 H 164.216 2.93468 -5.86137 0
M  V30 1764 H 163.736 3.96936 -4.49668 0
M  V30 1765 H 165.415 3.99335 -5.09059 0
M  V30 1766 N 165.547 1.27147 0.931209 0
M  V30 1767 C 166.958 1.12044 1.49342 0
M  V30 1768 C 167.309 -0.295795 1.93957 0
M  V30 1769 O 166.434 -1.18835 1.80852 0
M  V30 1770 C 167.029 2.02781 2.71414 0
M  V30 1771 C 165.588 1.91794 3.2387 0
M  V30 1772 C 164.735 1.95543 1.96617 0
M  V30 1773 H 167.686 1.40091 0.745672 0
M  V30 1774 H 167.707 1.58156 3.46074 0
M  V30 1775 H 167.219 3.05848 2.38911 0
M  V30 1776 H 165.32 0.916992 3.6114 0
M  V30 1777 H 165.433 2.77852 3.90302 0
M  V30 1778 H 163.797 1.39722 2.12955 0
M  V30 1779 H 164.58 3.00259 1.66432 0
M  V30 1780 N 167.025 -1.13721 1.09112 0
M  V30 1781 C 167.935 -2.22638 0.73957 0
M  V30 1782 C 168.951 -1.72091 -0.257068 0
M  V30 1783 O 170.127 -2.01155 -0.0992154 0
M  V30 1784 C 167.192 -3.46322 0.16191 0
M  V30 1785 C 166.253 -4.11775 1.21408 0
M  V30 1786 C 165.486 -5.29555 0.663891 0
M  V30 1787 O 165.709 -5.68077 -0.514274 0
M  V30 1788 O 164.643 -5.84973 1.41738 0
M  V30 1789 H 168.469 -2.55074 1.64836 0
M  V30 1790 H 166.054 -1.21791 0.865289 0
M  V30 1791 H 167.936 -4.21107 -0.157073 0
M  V30 1792 H 166.611 -3.15593 -0.719932 0
M  V30 1793 H 165.518 -3.3883 1.58571 0
M  V30 1794 H 166.851 -4.46627 2.06845 0
M  V30 1795 N 168.503 -0.877838 -1.30888 0
M  V30 1796 C 169.914 -0.544193 -1.78593 0
M  V30 1797 C 170.265 0.939301 -1.72254 0
M  V30 1798 O 169.39 1.7337 -1.29505 0
M  V30 1799 C 169.985 -0.98105 -3.24285 0
M  V30 1800 C 168.544 -0.698935 -3.69854 0
M  V30 1801 C 167.691 -1.168 -2.51502 0
M  V30 1802 H 170.642 -1.06278 -1.17859 0
M  V30 1803 H 170.663 -0.307009 -3.79259 0
M  V30 1804 H 170.175 -2.06079 -3.28866 0
M  V30 1805 H 168.276 0.369112 -3.70767 0
M  V30 1806 H 168.389 -1.28148 -4.61644 0
M  V30 1807 H 166.753 -0.587535 -2.47831 0
M  V30 1808 H 167.536 -2.25533 -2.58824 0
M  V30 1809 N 169.982 1.44106 -0.638065 0
M  V30 1810 C 171.212 2.06037 -0.152394 0
M  V30 1811 C 171.62 1.47808 1.18108 0
M  V30 1812 O 170.963 0.598092 1.73691 0
M  V30 1813 C 171.025 3.59488 0.0293714 0
M  V30 1814 C 170.689 4.4022 -1.22702 0
M  V30 1815 C 171.686 4.73256 -2.15232 0
M  V30 1816 C 169.371 4.8048 -1.46437 0
M  V30 1817 C 171.365 5.45444 -3.29802 0
M  V30 1818 C 169.052 5.52417 -2.61303 0
M  V30 1819 C 170.05 5.84819 -3.52811 0
M  V30 1820 O 169.738 6.55289 -4.65673 0
M  V30 1821 H 169.47 0.671233 -0.0801401 0
M  V30 1822 H 172.024 1.85851 -0.874563 0
M  V30 1823 H 170.254 3.78191 0.806758 0
M  V30 1824 H 171.943 4.03164 0.470475 0
M  V30 1825 H 172.709 4.42684 -1.98131 0
M  V30 1826 H 168.588 4.54676 -0.760977 0
M  V30 1827 H 172.132 5.70653 -4.01249 0
M  V30 1828 H 168.029 5.82404 -2.78344 0
M  V30 1829 H 168.797 6.73762 -4.64744 0
M  V30 1830 N 171.46 0.379036 1.52974 0
M  V30 1831 C 172.876 0.0285448 1.59574 0
M  V30 1832 C 173.076 -1.45542 1.39355 0
M  V30 1833 O 172.132 -2.2187 1.20541 0
M  V30 1834 C 173.445 0.496535 2.96572 0
M  V30 1835 C 174.993 0.451909 3.0972 0
M  V30 1836 C 175.468 0.895924 4.49152 0
M  V30 1837 N 176.959 0.851522 4.55306 0
M  V30 1838 C 177.694 1.16661 5.61407 0
M  V30 1839 N 177.19 1.55166 6.752 0
M  V30 1840 N 178.983 1.08853 5.51459 0
M  V30 1841 H 171.134 1.34525 1.64367 0
M  V30 1842 H 173.397 0.550733 0.771619 0
M  V30 1843 H 173.103 1.53258 3.16552 0
M  V30 1844 H 172.977 -0.109802 3.7704 0
M  V30 1845 H 175.364 -0.575029 2.89443 0
M  V30 1846 H 175.445 1.09392 2.3123 0
M  V30 1847 H 175.089 1.92104 4.70168 0
M  V30 1848 H 175.019 0.23103 5.26093 0
M  V30 1849 H 177.51 0.568038 3.73606 0
M  V30 1850 H 177.823 1.776 7.52116 0
M  V30 1851 H 176.168 1.59044 6.76557 0
M  V30 1852 H 179.359 0.786803 4.6144 0
M  V30 1853 H 179.532 1.33742 6.34048 0
M  V30 1854 N 172.938 -1.57226 0.108567 0
M  V30 1855 C 174.184 -1.95121 -0.552761 0
M  V30 1856 C 174.517 -0.991345 -1.66991 0
M  V30 1857 O 173.792 -0.0267211 -1.94482 0
M  V30 1858 C 174.075 -3.43039 -1.09528 0
M  V30 1859 C 173.928 -4.49797 0.0177332 0
M  V30 1860 C 175.247 -3.92567 -1.98945 0
M  V30 1861 H 172.366 -0.709496 -0.199461 0
M  V30 1862 H 175.008 -1.89126 0.182011 0
M  V30 1863 H 173.158 -3.48279 -1.72146 0
M  V30 1864 H 174.83 -4.56661 0.652584 0
M  V30 1865 H 173.073 -4.284 0.682309 0
M  V30 1866 H 173.744 -5.50528 -0.402919 0
M  V30 1867 H 176.22 -3.89565 -1.46214 0
M  V30 1868 H 175.096 -4.96605 -2.33827 0
M  V30 1869 H 175.357 -3.32648 -2.91201 0
M  V30 1870 N 174.416 0.165178 -1.56732 0
M  V30 1871 C 175.326 1.22423 -2.00125 0
M  V30 1872 C 176.342 1.48084 -0.913619 0
M  V30 1873 O 177.518 1.60112 -1.22172 0
M  V30 1874 C 174.583 2.54197 -2.35764 0
M  V30 1875 C 173.644 2.36343 -3.58386 0
M  V30 1876 C 172.877 3.61834 -3.92316 0
M  V30 1877 O 173.1 4.67267 -3.27135 0
M  V30 1878 O 172.034 3.55579 -4.85641 0
M  V30 1879 H 175.86 0.885886 -2.90492 0
M  V30 1880 H 173.445 0.372518 -1.44681 0
M  V30 1881 H 175.327 3.3192 -2.59629 0
M  V30 1882 H 174.002 2.87598 -1.48557 0
M  V30 1883 H 172.909 1.56632 -3.39731 0
M  V30 1884 H 174.242 2.07865 -4.46154 0
M  V30 1885 N 175.894 1.51508 0.433938 0
M  V30 1886 C 176.827 1.67756 1.54704 0
M  V30 1887 C 177.805 0.525127 1.53887 0
M  V30 1888 O 178.989 0.749393 1.72963 0
M  V30 1889 C 176.116 1.69424 2.9328 0
M  V30 1890 C 175.162 2.90673 3.12108 0
M  V30 1891 S 175.995 4.51431 2.88046 0
M  V30 1892 C 177.151 4.55849 4.28897 0
M  V30 1893 H 177.384 2.61904 1.40689 0
M  V30 1894 H 174.917 1.41235 0.62386 0
M  V30 1895 H 176.875 1.7107 3.73156 0
M  V30 1896 H 175.536 0.764464 3.04655 0
M  V30 1897 H 174.729 2.88251 4.13434 0
M  V30 1898 H 174.331 2.86786 2.40062 0
M  V30 1899 H 176.623 4.31699 5.22152 0
M  V30 1900 H 177.566 5.57676 4.36351 0
M  V30 1901 H 177.974 3.85137 4.12711 0
M  V30 1902 N 177.372 -0.689602 1.41712 0
M  V30 1903 C 178.621 -1.44534 1.40686 0
M  V30 1904 C 178.934 -1.95588 0.0213352 0
M  V30 1905 O 180.14 -2.71271 -0.111534 0
M  V30 1906 C 178.596 -2.61387 2.47396 0
M  V30 1907 C 178.204 -2.17094 3.91885 0
M  V30 1908 C 179.948 -3.38986 2.55517 0
M  V30 1909 C 177.855 -3.3094 4.90135 0
M  V30 1910 H 176.785 -0.542925 0.52321 0
M  V30 1911 H 179.436 -0.748054 1.6756 0
M  V30 1912 H 177.818 -3.33412 2.13664 0
M  V30 1913 H 178.992 -1.52318 4.34897 0
M  V30 1914 H 177.307 -1.52473 3.8748 0
M  V30 1915 H 179.904 -4.23747 3.26102 0
M  V30 1916 H 180.247 -3.84578 1.59391 0
M  V30 1917 H 180.78 -2.74021 2.8837 0
M  V30 1918 H 177.519 -2.90355 5.87685 0
M  V30 1919 H 177.039 -3.94546 4.51767 0
M  V30 1920 H 178.718 -3.9663 5.11169 0
M  V30 1921 N 178.85 -1.27639 -0.924453 0
M  V30 1922 C 180.266 -1.05113 -1.20097 0
M  V30 1923 C 180.466 0.213262 -2.00368 0
M  V30 1924 O 179.522 0.91787 -2.35226 0
M  V30 1925 C 180.835 -2.29244 -1.94596 0
M  V30 1926 C 182.383 -2.34315 -2.07522 0
M  V30 1927 C 182.858 -3.58183 -2.85427 0
M  V30 1928 N 184.349 -3.5876 -2.92994 0
M  V30 1929 C 185.084 -4.51277 -3.53746 0
M  V30 1930 N 184.58 -5.54102 -4.15863 0
M  V30 1931 N 186.373 -4.38894 -3.51181 0
M  V30 1932 H 178.524 -2.08821 -0.388264 0
M  V30 1933 H 180.787 -0.918568 -0.234385 0
M  V30 1934 H 180.493 -3.21301 -1.43034 0
M  V30 1935 H 180.367 -2.34816 -2.95197 0
M  V30 1936 H 182.754 -1.42762 -2.58269 0
M  V30 1937 H 182.835 -2.32744 -1.06131 0
M  V30 1938 H 182.479 -4.50074 -2.35363 0
M  V30 1939 H 182.409 -3.57006 -3.8711 0
M  V30 1940 H 184.9 -2.84398 -2.4885 0
M  V30 1941 H 185.213 -6.20859 -4.60168 0
M  V30 1942 H 183.558 -5.57941 -4.144 0
M  V30 1943 H 186.749 -3.57772 -3.01856 0
M  V30 1944 H 186.922 -5.11186 -3.98237 0
M  V30 1945 N 180.328 1.1314 -1.09713 0
M  V30 1946 C 181.558 1.88048 -0.855656 0
M  V30 1947 C 181.966 1.79537 0.596919 0
M  V30 1948 O 181.309 1.16196 1.42282 0
M  V30 1949 C 181.371 3.38314 -1.21589 0
M  V30 1950 C 181.035 3.70605 -2.67397 0
M  V30 1951 C 182.032 3.69596 -3.65643 0
M  V30 1952 C 179.717 4.0017 -3.03593 0
M  V30 1953 C 181.711 3.977 -4.9811 0
M  V30 1954 C 179.398 4.27935 -4.36251 0
M  V30 1955 C 180.396 4.26685 -5.33318 0
M  V30 1956 O 180.084 4.53767 -6.63589 0
M  V30 1957 H 179.816 0.60208 -0.307368 0
M  V30 1958 H 182.37 1.44128 -1.46343 0
M  V30 1959 H 180.6 3.82752 -0.551177 0
M  V30 1960 H 182.289 3.94552 -0.953083 0
M  V30 1961 H 183.055 3.46826 -3.39023 0
M  V30 1962 H 178.934 4.00289 -2.2867 0
M  V30 1963 H 182.478 3.9664 -5.73866 0
M  V30 1964 H 178.375 4.50178 -4.62613 0
M  V30 1965 H 179.143 4.71422 -6.69107 0
M  V30 1966 N 181.806 0.884767 1.30421 0
M  V30 1967 C 183.055 0.499164 1.95426 0
M  V30 1968 C 183.368 -0.95645 1.70621 0
M  V30 1969 O 184.574 -1.44889 2.29607 0
M  V30 1970 C 183.03 0.84177 3.49917 0
M  V30 1971 C 182.638 2.31514 3.83543 0
M  V30 1972 C 184.382 0.525355 4.21237 0
M  V30 1973 C 182.289 2.59939 5.31212 0
M  V30 1974 H 181.219 0.182944 0.73147 0
M  V30 1975 H 183.87 1.07971 1.48373 0
M  V30 1976 H 182.252 0.190311 3.95542 0
M  V30 1977 H 183.426 3.0109 3.48829 0
M  V30 1978 H 181.741 2.59907 3.25326 0
M  V30 1979 H 184.338 0.714762 5.29901 0
M  V30 1980 H 184.681 -0.535222 4.12845 0
M  V30 1981 H 185.214 1.134 3.81294 0
M  V30 1982 H 181.953 3.64736 5.44654 0
M  V30 1983 H 181.473 1.94972 5.67227 0
M  V30 1984 H 183.152 2.45429 5.98643 0
M  V30 1985 N 183.284 -1.43765 0.645699 0
M  V30 1986 C 184.53 -2.02197 0.156271 0
M  V30 1987 C 184.863 -1.50776 -1.22393 0
M  V30 1988 O 184.138 -0.697771 -1.81553 0
M  V30 1989 C 184.421 -3.59749 0.158872 0
M  V30 1990 C 184.274 -4.21419 1.57245 0
M  V30 1991 C 185.593 -4.37149 -0.50879 0
M  V30 1992 H 182.712 -0.734694 0.0582602 0
M  V30 1993 H 185.354 -1.71157 0.824951 0
M  V30 1994 H 183.504 -3.86325 -0.410525 0
M  V30 1995 H 185.176 -4.059 2.19186 0
M  V30 1996 H 183.419 -3.78356 2.122 0
M  V30 1997 H 184.09 -5.30482 1.52619 0
M  V30 1998 H 186.566 -4.16093 -0.024412 0
M  V30 1999 H 185.442 -5.4683 -0.476213 0
M  V30 2000 H 185.703 -4.12839 -1.58165 0
M  V30 2001 N 184.763 -0.387143 -1.52771 0
M  V30 2002 C 185.711 0.463953 -2.27926 0
M  V30 2003 C 186.705 1.06493 -1.31741 0
M  V30 2004 O 187.911 1.00565 -1.49287 0
M  V30 2005 H 184.286 0.16837 -0.732909 0
M  V30 2006 H 186.257 -0.19141 -2.97785 0
M  V30 2007 C 185.006 1.5803 -3.09713 0
M  V30 2008 H 184.329 1.12718 -3.83581 0
M  V30 2009 H 185.769 2.15008 -3.65442 0
M  V30 2010 C 184.228 2.53509 -2.2189 0
M  V30 2011 O 184.758 3.56863 -1.84422 0
M  V30 2012 N 182.964 2.23199 -1.86093 0
M  V30 2013 H 182.511 1.39185 -2.16761 0
M  V30 2014 H 182.469 2.87333 -1.27621 0
M  V30 2015 N 186.241 1.57166 -0.116904 0
M  V30 2016 C 187.469 1.99473 0.549383 0
M  V30 2017 C 187.884 0.996541 1.60357 0
M  V30 2018 O 187.241 -0.0108731 1.82497 0
M  V30 2019 C 187.292 3.41788 1.17741 0
M  V30 2020 O 187.013 4.37788 0.165362 0
M  V30 2021 C 188.514 3.99216 1.92722 0
M  V30 2022 H 185.734 0.655009 0.145616 0
M  V30 2023 H 188.278 2.03494 -0.202625 0
M  V30 2024 H 186.433 3.38713 1.88021 0
M  V30 2025 H 186.847 5.20806 0.621403 0
M  V30 2026 H 188.321 5.00882 2.31995 0
M  V30 2027 H 188.798 3.3824 2.80161 0
M  V30 2028 H 189.404 4.0583 1.27209 0
M  V30 2029 N 187.719 -0.156864 1.56817 0
M  V30 2030 C 188.682 -1.17781 1.96622 0
M  V30 2031 C 189.682 -1.36401 0.851555 0
M  V30 2032 O 190.872 -1.33561 1.11836 0
M  V30 2033 C 188.004 -2.54008 2.27361 0
M  V30 2034 H 189.197 -0.836564 2.87996 0
M  V30 2035 H 186.75 -0.39985 1.51099 0
M  V30 2036 H 187.485 -2.9312 1.38748 0
M  V30 2037 H 187.27 -2.41856 3.08623 0
M  V30 2038 H 188.76 -3.27558 2.59029 0
M  V30 2039 N 189.197 -1.51736 -0.425897 0
M  V30 2040 C 190.147 -1.70258 -1.51645 0
M  V30 2041 C 191.131 -0.556488 -1.5097 0
M  V30 2042 O 192.323 -0.812879 -1.5723 0
M  V30 2043 C 189.452 -1.84143 -2.89735 0
M  V30 2044 C 188.538 -3.04572 -2.95122 0
M  V30 2045 N 188.929 -4.2756 -2.70233 0
M  V30 2046 C 187.227 -3.04061 -3.26286 0
M  V30 2047 C 187.928 -5.08908 -2.81757 0
M  V30 2048 N 186.904 -4.43797 -3.13919 0
M  V30 2049 H 190.706 -2.63004 -1.31172 0
M  V30 2050 H 188.22 -1.4954 -0.633375 0
M  V30 2051 H 190.217 -1.95525 -3.68206 0
M  V30 2052 H 188.877 -0.925857 -3.1122 0
M  V30 2053 H 189.888 -4.56315 -2.44943 0
M  V30 2054 H 186.565 -2.22179 -3.53473 0
M  V30 2055 H 187.955 -6.16843 -2.66372 0
M  V30 2056 N 190.675 0.682077 -1.42076 0
M  V30 2057 C 192.086 1.26246 -1.37546 0
M  V30 2058 C 192.437 1.96092 -0.0651481 0
M  V30 2059 O 191.562 1.99587 0.836297 0
M  V30 2060 C 192.157 2.29594 -2.49143 0
M  V30 2061 C 190.716 2.83175 -2.47969 0
M  V30 2062 C 189.863 1.57395 -2.28303 0
M  V30 2063 H 192.814 0.475937 -1.51395 0
M  V30 2064 H 192.835 3.11175 -2.18976 0
M  V30 2065 H 192.347 1.78729 -3.44496 0
M  V30 2066 H 190.448 3.3818 -1.56413 0
M  V30 2067 H 190.561 3.32687 -3.44755 0
M  V30 2068 H 188.925 1.83699 -1.76428 0
M  V30 2069 H 189.708 1.08507 -3.25701 0
M  V30 2070 N 192.153 1.28127 0.917671 0
M  V30 2071 C 193.399 1.15223 1.66888 0
M  V30 2072 C 193.732 -0.299293 1.9188 0
M  V30 2073 O 193.007 -1.21805 1.51637 0
M  V30 2074 C 193.29 1.94706 3.02922 0
M  V30 2075 C 193.143 3.47898 2.85109 0
M  V30 2076 C 194.462 1.75939 4.03402 0
M  V30 2077 H 191.581 0.419946 0.605652 0
M  V30 2078 H 194.223 1.57398 1.06423 0
M  V30 2079 H 192.373 1.58864 3.54534 0
M  V30 2080 H 194.045 3.93624 2.40537 0
M  V30 2081 H 192.288 3.7373 2.20246 0
M  V30 2082 H 192.959 3.98765 3.81694 0
M  V30 2083 H 195.435 2.07209 3.60837 0
M  V30 2084 H 194.311 2.33931 4.96556 0
M  V30 2085 H 194.572 0.709877 4.36364 0
M  V30 2086 N 193.631 -1.12557 1.10312 0
M  V30 2087 C 194.908 -1.80363 0.756878 0
M  V30 2088 C 195.288 -1.97067 -0.756824 0
M  V30 2089 O 194.636 -1.54601 -1.68259 0
M  V30 2090 C 194.846 -3.14812 1.50647 0
M  V30 2091 C 196.194 -3.90029 1.67817 0
M  V30 2092 O 197.218 -3.24464 1.46974 0
M  V30 2093 O 196.077 -5.07652 2.02365 0
M  V30 2094 H 193.171 -0.780667 0.272926 0
M  V30 2095 H 195.717 -1.19404 1.20586 0
M  V30 2096 H 194.489 -2.97936 2.53672 0
M  V30 2097 H 194.112 -3.83478 1.05026 0
M  V30 2098 N 195.109 -0.891671 -1.2995 0
M  V30 2099 C 196.357 -0.512486 -1.95494 0
M  V30 2100 C 196.678 0.942776 -1.70695 0
M  V30 2101 O 195.948 1.66374 -1.03424 0
M  V30 2102 H 194.528 -0.186533 -0.723336 0
M  V30 2103 H 197.19 -1.13621 -1.58355 0
M  V30 2104 H 196.286 -0.688342 -3.04415 0
M  V30 2105 N 196.587 1.43421 -0.653314 0
M  V30 2106 C 197.835 2.01414 -0.166415 0
M  V30 2107 C 198.156 1.51803 1.22397 0
M  V30 2108 O 197.426 0.730693 1.81763 0
M  V30 2109 H 196.006 0.744703 -0.0585319 0
M  V30 2110 H 198.668 1.75629 -0.845003 0
M  V30 2111 H 197.764 3.11734 -0.151111 0
M  V30 2112 N 198.065 0.39524 1.52563 0
M  V30 2113 C 199.311 -0.177763 2.02622 0
M  V30 2114 C 199.666 -1.43974 1.27629 0
M  V30 2115 O 198.959 -1.87995 0.36992 0
M  V30 2116 C 199.153 -0.493444 3.53977 0
M  V30 2117 C 198.982 0.736392 4.4363 0
M  V30 2118 C 197.752 1.25744 4.89404 0
M  V30 2119 C 199.95 1.61046 4.88435 0
M  V30 2120 N 197.932 2.44421 5.63145 0
M  V30 2121 C 199.303 2.64359 5.60816 0
M  V30 2122 C 201.358 1.62985 4.70468 0
M  V30 2123 C 200.061 3.69505 6.17137 0
M  V30 2124 C 202.087 2.67042 5.27677 0
M  V30 2125 C 201.449 3.69077 5.99968 0
M  V30 2126 H 197.548 -0.0269794 0.781534 0
M  V30 2127 H 200.132 0.546466 1.86874 0
M  V30 2128 H 198.303 -1.18672 3.69826 0
M  V30 2129 H 200.035 -1.05412 3.90731 0
M  V30 2130 H 196.79 0.817546 4.6649 0
M  V30 2131 H 197.214 3.04485 6.04663 0
M  V30 2132 H 201.856 0.854442 4.14076 0
M  V30 2133 H 199.574 4.4791 6.72608 0
M  V30 2134 H 203.16 2.69433 5.15652 0
M  V30 2135 H 202.04 4.48273 6.43444 0
M  V30 2136 N 199.544 -1.57102 0.125237 0
M  V30 2137 C 200.792 -1.95021 -0.530198 0
M  V30 2138 C 201.113 -1.00982 -1.66816 0
M  V30 2139 O 200.383 -0.0672693 -1.95784 0
M  V30 2140 H 198.963 -0.720046 -0.198853 0
M  V30 2141 H 201.625 -1.93916 0.19564 0
M  V30 2142 H 200.721 -2.98211 -0.920681 0
M  V30 2143 N 201.022 0.148545 -1.56898 0
M  V30 2144 C 201.952 1.18524 -2.01182 0
M  V30 2145 C 202.933 1.4489 -0.891123 0
M  V30 2146 O 204.118 1.55836 -1.15882 0
M  V30 2147 C 201.248 2.51879 -2.39112 0
M  V30 2148 C 200.202 2.40038 -3.54353 0
M  V30 2149 C 199.528 3.78089 -3.78091 0
M  V30 2150 C 200.828 1.88577 -4.87069 0
M  V30 2151 H 202.522 0.817029 -2.88036 0
M  V30 2152 H 200.068 0.391575 -1.38574 0
M  V30 2153 H 202.021 3.24627 -2.68692 0
M  V30 2154 H 200.745 2.90532 -1.49193 0
M  V30 2155 H 199.404 1.69742 -3.24936 0
M  V30 2156 H 199.052 4.14175 -2.85426 0
M  V30 2157 H 198.752 3.71028 -4.55645 0
M  V30 2158 H 200.276 4.52387 -4.10095 0
M  V30 2159 H 201.69 2.51117 -5.15377 0
M  V30 2160 H 200.087 1.9241 -5.68417 0
M  V30 2161 H 201.157 0.84136 -4.77545 0
M  V30 2162 N 202.5 1.5196 0.417844 0
M  V30 2163 C 203.45 1.7106 1.5074 0
M  V30 2164 C 204.434 0.564487 1.50673 0
M  V30 2165 O 205.626 0.821206 1.56797 0
M  V30 2166 C 202.755 1.85677 2.88754 0
M  V30 2167 C 201.841 3.06133 2.93502 0
M  V30 2168 N 202.232 4.28987 2.67962 0
M  V30 2169 C 200.53 3.05787 3.24669 0
M  V30 2170 C 201.231 5.10395 2.79055 0
M  V30 2171 N 200.207 4.45455 3.11561 0
M  V30 2172 H 204.009 2.63696 1.29775 0
M  V30 2173 H 201.523 1.49873 0.625436 0
M  V30 2174 H 203.52 1.97475 3.67164 0
M  V30 2175 H 202.18 0.942348 3.10725 0
M  V30 2176 H 203.191 4.57607 2.4252 0
M  V30 2177 H 199.868 2.2405 3.52289 0
M  V30 2178 H 201.258 6.18247 2.63097 0
M  V30 2179 N 203.978 -0.674533 1.42435 0
M  V30 2180 C 205.203 -1.46784 1.46524 0
M  V30 2181 C 205.628 -1.87938 0.078066 0
M  V30 2182 O 204.986 -1.56014 -0.92354 0
M  V30 2183 C 205.034 -2.69307 2.39805 0
M  V30 2184 O 204.138 -3.67587 1.86959 0
M  V30 2185 H 203.479 -0.440959 0.496439 0
M  V30 2186 H 206.009 -0.827326 1.87127 0
M  V30 2187 H 206.019 -3.17374 2.56393 0
M  V30 2188 H 204.694 -2.38692 3.40586 0
M  V30 2189 H 203.271 -3.2662 1.79927 0
M  V30 2190 N 205.456 -1.28612 -0.910864 0
M  V30 2191 C 206.702 -1.16106 -1.66274 0
M  V30 2192 C 207.035 0.289113 -1.92036 0
M  V30 2193 O 206.31 1.21 -1.52281 0
M  V30 2194 C 206.593 -1.96309 -3.01885 0
M  V30 2195 C 206.446 -3.49405 -2.8326 0
M  V30 2196 C 207.765 -1.78076 -4.02463 0
M  V30 2197 H 204.884 -0.423152 -0.603417 0
M  V30 2198 H 207.526 -1.57961 -1.05586 0
M  V30 2199 H 205.676 -1.60742 -3.53687 0
M  V30 2200 H 207.348 -3.94894 -2.38446 0
M  V30 2201 H 205.591 -3.74893 -2.18261 0
M  V30 2202 H 206.262 -4.00784 -3.79574 0
M  V30 2203 H 208.738 -2.0912 -3.59733 0
M  V30 2204 H 207.614 -2.36561 -4.95308 0
M  V30 2205 H 207.875 -0.733008 -4.35981 0
M  V30 2206 N 206.934 1.1197 -1.10907 0
M  V30 2207 C 208.211 1.79959 -0.766432 0
M  V30 2208 C 208.591 1.97466 0.746363 0
M  V30 2209 O 207.939 1.55491 1.67436 0
M  V30 2210 C 208.149 3.14009 -1.52314 0
M  V30 2211 C 209.497 3.89134 -1.69883 0
M  V30 2212 O 210.521 3.2368 -1.48692 0
M  V30 2213 O 209.38 5.06572 -2.05054 0
M  V30 2214 H 206.474 0.779208 -0.277062 0
M  V30 2215 H 209.02 1.18762 -1.21217 0
M  V30 2216 H 207.792 2.96587 -2.55249 0
M  V30 2217 H 207.415 3.82915 -1.07059 0
M  V30 2218 N 208.412 0.89855 1.29475 0
M  V30 2219 C 209.359 0.373819 2.27753 0
M  V30 2220 C 210.329 -0.543444 1.56958 0
M  V30 2221 O 211.514 -0.468934 1.84948 0
M  V30 2222 C 208.654 -0.393648 3.42848 0
M  V30 2223 C 207.767 0.554379 4.28428 0
M  V30 2224 C 206.902 -0.230026 5.30702 0
M  V30 2225 C 205.941 0.712599 6.07938 0
M  V30 2226 N 205.078 -0.0373283 7.0209 0
M  V30 2227 H 209.918 1.21699 2.72017 0
M  V30 2228 H 207.455 0.611456 1.33789 0
M  V30 2229 H 209.413 -0.85466 4.08352 0
M  V30 2230 H 208.043 -1.20128 2.99615 0
M  V30 2231 H 207.095 1.13391 3.63107 0
M  V30 2232 H 208.407 1.27597 4.82204 0
M  V30 2233 H 207.561 -0.752288 6.02018 0
M  V30 2234 H 206.3 -0.984758 4.77654 0
M  V30 2235 H 205.305 1.24637 5.35486 0
M  V30 2236 H 206.53 1.46664 6.63074 0
M  V30 2237 H 204.476 -0.774348 6.51414 0
M  V30 2238 H 204.393 0.624374 7.53417 0
M  V30 2239 H 205.661 -0.539891 7.77628 0
M  V30 2240 N 209.89 -1.43072 0.660911 0
M  V30 2241 C 211.115 -2.06584 0.183805 0
M  V30 2242 C 211.54 -1.49257 -1.14472 0
M  V30 2243 O 210.898 -0.605528 -1.70889 0
M  V30 2244 C 210.946 -3.60418 0.114434 0
M  V30 2245 O 210.05 -4.01981 -0.921137 0
M  V30 2246 H 209.391 -0.656669 0.0983994 0
M  V30 2247 H 211.921 -1.83447 0.906006 0
M  V30 2248 H 211.931 -4.07946 -0.0663394 0
M  V30 2249 H 210.606 -4.01519 1.08422 0
M  V30 2250 H 209.183 -3.66029 -0.71253 0
M  V30 2251 N 211.368 -0.403325 -1.52352 0
M  V30 2252 C 212.596 0.174012 -2.06167 0
M  V30 2253 C 213.011 1.39347 -1.27388 0
M  V30 2254 O 212.368 1.79597 -0.324201 0
M  V30 2255 C 212.419 0.530223 -3.5759 0
M  V30 2256 O 212.14 -0.640806 -4.33388 0
M  V30 2257 C 213.641 1.16192 -4.27802 0
M  V30 2258 H 210.861 0.0229464 -0.670608 0
M  V30 2259 H 213.405 -0.572604 -1.9632 0
M  V30 2260 H 211.56 1.22673 -3.67464 0
M  V30 2261 H 211.974 -0.344851 -5.23365 0
M  V30 2262 H 213.448 1.36141 -5.34948 0
M  V30 2263 H 213.925 2.13335 -3.83907 0
M  V30 2264 H 214.531 0.505775 -4.22282 0
M  V30 2265 N 212.846 1.57033 -0.133567 0
M  V30 2266 C 214.086 1.97575 0.523789 0
M  V30 2267 C 214.45 1.01605 1.62912 0
M  V30 2268 O 215.651 1.3114 2.3464 0
M  V30 2269 C 213.922 3.42256 1.02935 0
M  V30 2270 S 215.481 4.04817 1.69319 0
M  V30 2271 H 212.299 0.690427 0.169799 0
M  V30 2272 H 214.901 1.94234 -0.222101 0
M  V30 2273 H 213.605 4.09842 0.213917 0
M  V30 2274 H 213.136 3.4928 1.81017 0
M  V30 2275 H 215.151 3.96767 2.97977 0
M  V30 2276 N 214.325 -0.140222 1.56975 0
M  V30 2277 C 215.572 -0.851687 1.83719 0
M  V30 2278 C 215.9 -1.80862 0.715485 0
M  V30 2279 O 215.155 -1.93464 -0.294956 0
M  V30 2280 C 215.454 -1.65386 3.16832 0
M  V30 2281 C 215.12 -0.843112 4.42947 0
M  V30 2282 C 213.782 -0.619464 4.77196 0
M  V30 2283 C 216.134 -0.276582 5.20466 0
M  V30 2284 C 213.462 0.181312 5.8642 0
M  V30 2285 C 215.814 0.51127 6.30531 0
M  V30 2286 C 214.478 0.745432 6.63325 0
M  V30 2287 H 213.748 -0.311654 0.672274 0
M  V30 2288 H 216.395 -0.115006 1.91154 0
M  V30 2289 H 214.7 -2.46084 3.04877 0
M  V30 2290 H 216.397 -2.20793 3.34741 0
M  V30 2291 H 212.987 -1.0275 4.16101 0
M  V30 2292 H 217.171 -0.436632 4.94376 0
M  V30 2293 H 212.427 0.372165 6.10266 0
M  V30 2294 H 216.601 0.957354 6.89788 0
M  V30 2295 H 214.228 1.36778 7.47794 0
M  V30 2296 N 215.803 -1.52179 -0.40978 0
M  V30 2297 C 217.051 -1.65878 -1.15451 0
M  V30 2298 C 217.372 -0.390771 -1.91044 0
M  V30 2299 O 216.642 0.594323 -1.86667 0
M  V30 2300 H 215.222 -0.611405 -0.429177 0
M  V30 2301 H 217.884 -1.89219 -0.467134 0
M  V30 2302 H 216.98 -2.49954 -1.86894 0
M  V30 2303 N 217.281 0.66697 -1.42791 0
M  V30 2304 C 218.509 1.45505 -1.47091 0
M  V30 2305 C 218.924 1.8861 -0.0845873 0
M  V30 2306 O 218.281 1.58632 0.90234 0
M  V30 2307 C 218.332 2.69906 -2.40485 0
M  V30 2308 O 218.053 2.28608 -3.73725 0
M  V30 2309 C 219.554 3.63396 -2.53886 0
M  V30 2310 H 216.774 0.447459 -0.500022 0
M  V30 2311 H 219.318 0.818866 -1.8739 0
M  V30 2312 H 217.473 3.29696 -2.03419 0
M  V30 2313 H 217.887 3.08997 -4.23817 0
M  V30 2314 H 219.361 4.47387 -3.2334 0
M  V30 2315 H 219.838 4.09824 -1.57927 0
M  V30 2316 H 220.444 3.09495 -2.91706 0
M  V30 2317 N 218.759 1.29093 0.90403 0
M  V30 2318 C 219.987 1.19689 1.68766 0
M  V30 2319 C 220.402 -0.243113 1.87228 0
M  V30 2320 O 219.759 -1.16326 1.40621 0
M  V30 2321 C 219.81 1.90144 3.07453 0
M  V30 2322 O 219.531 3.2852 2.89838 0
M  V30 2323 C 221.032 1.87162 4.01852 0
M  V30 2324 H 218.252 0.415035 0.527244 0
M  V30 2325 H 220.796 1.7039 1.13082 0
M  V30 2326 H 218.951 1.43289 3.59926 0
M  V30 2327 H 219.365 3.63944 3.77684 0
M  V30 2328 H 220.839 2.41032 4.96596 0
M  V30 2329 H 221.316 0.84617 4.30972 0
M  V30 2330 H 221.922 2.33741 3.5531 0
M  V30 2331 N 220.237 -1.11381 1.11499 0
M  V30 2332 C 221.17 -2.16621 0.71769 0
M  V30 2333 C 222.148 -1.60058 -0.286413 0
M  V30 2334 O 223.332 -1.87613 -0.182689 0
M  V30 2335 C 220.459 -3.38646 0.0607265 0
M  V30 2336 C 219.505 -4.13874 1.03008 0
M  V30 2337 S 220.338 -4.70731 2.55289 0
M  V30 2338 C 221.494 -5.96079 1.90895 0
M  V30 2339 H 221.727 -2.49987 1.60915 0
M  V30 2340 H 219.26 -1.23015 0.933092 0
M  V30 2341 H 221.218 -4.09313 -0.311965 0
M  V30 2342 H 219.879 -3.03537 -0.807702 0
M  V30 2343 H 219.072 -5.01333 0.517853 0
M  V30 2344 H 218.674 -3.4897 1.34522 0
M  V30 2345 H 220.966 -6.65948 1.24577 0
M  V30 2346 H 221.909 -6.51946 2.76354 0
M  V30 2347 H 222.317 -5.47652 1.36885 0
M  V30 2348 N 221.715 -0.905404 -1.28997 0
M  V30 2349 C 222.663 -0.377431 -2.29517 0
M  V30 2350 C 223.657 0.526461 -1.61012 0
M  V30 2351 O 224.863 0.40863 -1.753 0
M  V30 2352 H 221.238 -0.103437 -0.744852 0
M  V30 2353 H 223.209 -1.23848 -2.71485 0
M  V30 2354 C 221.958 0.374833 -3.45674 0
M  V30 2355 H 221.281 -0.311474 -3.98585 0
M  V30 2356 H 222.721 0.70903 -4.1803 0
M  V30 2357 C 221.18 1.57963 -2.97572 0
M  V30 2358 O 221.71 2.67886 -2.99333 0
M  V30 2359 N 219.916 1.42375 -2.53333 0
M  V30 2360 H 219.463 0.529466 -2.521 0
M  V30 2361 H 219.421 2.23117 -2.21509 0
M  V30 2362 N 223.193 1.4272 -0.668489 0
M  V30 2363 C 224.423 2.05668 -0.196063 0
M  V30 2364 C 224.831 1.5028 1.14946 0
M  V30 2365 O 224.174 0.6348 1.72383 0
M  V30 2366 C 224.236 3.59469 -0.0468879 0
M  V30 2367 C 223.9 4.37518 -1.32012 0
M  V30 2368 C 224.897 4.68584 -2.25222 0
M  V30 2369 C 222.582 4.77266 -1.56596 0
M  V30 2370 C 224.576 5.38326 -3.41297 0
M  V30 2371 C 222.263 5.4675 -2.72962 0
M  V30 2372 C 223.261 5.77204 -3.65137 0
M  V30 2373 O 222.949 6.45264 -4.79468 0
M  V30 2374 H 222.681 0.669382 -0.0943599 0
M  V30 2375 H 225.235 1.83954 -0.913788 0
M  V30 2376 H 223.465 3.79817 0.726357 0
M  V30 2377 H 225.154 4.04071 0.384852 0
M  V30 2378 H 225.92 4.38382 -2.07477 0
M  V30 2379 H 221.799 4.52959 -0.857249 0
M  V30 2380 H 225.343 5.62014 -4.13263 0
M  V30 2381 H 221.24 5.76369 -2.90635 0
M  V30 2382 H 222.008 6.63753 -4.78931 0
M  V30 2383 N 224.671 0.411399 1.52136 0
M  V30 2384 C 225.917 -0.163888 2.02137 0
M  V30 2385 C 226.25 -1.44597 1.29636 0
M  V30 2386 O 225.525 -1.90272 0.403353 0
M  V30 2387 C 225.808 -0.40927 3.57767 0
M  V30 2388 C 225.661 0.889643 4.40914 0
M  V30 2389 C 226.98 -1.19042 4.23694 0
M  V30 2390 H 224.099 -0.0580896 0.734707 0
M  V30 2391 H 226.741 0.54531 1.82007 0
M  V30 2392 H 224.891 -1.0134 3.7505 0
M  V30 2393 H 226.563 1.52575 4.35337 0
M  V30 2394 H 224.806 1.50011 4.07037 0
M  V30 2395 H 225.477 0.672314 5.4789 0
M  V30 2396 H 227.953 -0.678942 4.10524 0
M  V30 2397 H 226.829 -1.33086 5.32522 0
M  V30 2398 H 227.09 -2.21166 3.82803 0
M  V30 2399 N 226.149 -1.5696 0.141893 0
M  V30 2400 C 227.389 -1.9785 -0.513304 0
M  V30 2401 C 227.753 -1.02467 -1.62371 0
M  V30 2402 O 228.954 -1.32382 -2.33941 0
M  V30 2403 C 227.225 -3.42797 -1.01118 0
M  V30 2404 S 228.784 -4.05709 -1.67169 0
M  V30 2405 H 225.602 -0.691318 -0.166135 0
M  V30 2406 H 228.204 -1.94114 0.232398 0
M  V30 2407 H 226.908 -4.0995 -0.192179 0
M  V30 2408 H 226.439 -3.50235 -1.79162 0
M  V30 2409 H 228.454 -3.98342 -2.95868 0
M  V30 2410 N 227.627 0.131896 -1.57047 0
M  V30 2411 C 228.557 1.16384 -2.02428 0
M  V30 2412 C 229.538 1.43936 -0.90644 0
M  V30 2413 O 230.723 1.54599 -1.17528 0
M  V30 2414 C 227.853 2.49328 -2.4177 0
M  V30 2415 C 226.807 2.36266 -3.56879 0
M  V30 2416 C 226.133 3.74057 -3.8208 0
M  V30 2417 C 227.433 1.834 -4.89042 0
M  V30 2418 H 229.127 0.786433 -2.88887 0
M  V30 2419 H 226.673 0.376855 -1.38981 0
M  V30 2420 H 228.626 3.21759 -2.7212 0
M  V30 2421 H 227.35 2.88934 -1.52266 0
M  V30 2422 H 226.009 1.66286 -3.26718 0
M  V30 2423 H 225.657 4.11125 -2.89803 0
M  V30 2424 H 225.357 3.66174 -4.59554 0
M  V30 2425 H 226.881 4.48012 -4.1487 0
M  V30 2426 H 228.295 2.45636 -5.18011 0
M  V30 2427 H 226.692 1.8637 -5.70426 0
M  V30 2428 H 227.762 0.790662 -4.7841 0
M  V30 2429 N 229.106 1.52395 0.401703 0
M  V30 2430 C 230.522 1.41363 0.740864 0
M  V30 2431 C 230.722 0.523982 1.94568 0
M  V30 2432 O 229.778 -0.00741204 2.52499 0
M  V30 2433 C 231.091 2.84011 0.987847 0
M  V30 2434 C 232.639 2.93404 1.09011 0
M  V30 2435 C 233.114 4.37036 1.3698 0
M  V30 2436 N 234.605 4.40304 1.43829 0
M  V30 2437 C 235.34 5.48508 1.67112 0
M  V30 2438 N 234.836 6.66819 1.87949 0
M  V30 2439 N 236.629 5.36034 1.69187 0
M  V30 2440 H 228.78 2.08765 -0.391262 0
M  V30 2441 H 231.043 0.941265 -0.112798 0
M  V30 2442 H 230.749 3.51265 0.174835 0
M  V30 2443 H 230.623 3.25502 1.906 0
M  V30 2444 H 233.01 2.26325 1.8937 0
M  V30 2445 H 233.091 2.55359 0.15015 0
M  V30 2446 H 232.735 5.04676 0.571353 0
M  V30 2447 H 232.665 4.72623 2.3224 0
M  V30 2448 H 235.156 3.55024 1.29486 0
M  V30 2449 H 235.469 7.45063 2.05185 0
M  V30 2450 H 233.814 6.6987 1.85199 0
M  V30 2451 H 237.005 4.42579 1.52451 0
M  V30 2452 H 237.178 6.20434 1.86993 0
M  V30 2453 N 230.584 -0.659388 1.43143 0
M  V30 2454 C 231.514 -1.78422 1.50625 0
M  V30 2455 C 232.495 -1.66216 0.361443 0
M  V30 2456 O 233.68 -1.85404 0.577834 0
M  V30 2457 C 230.81 -3.16815 1.42287 0
M  V30 2458 C 229.764 -3.43777 2.54954 0
M  V30 2459 C 229.09 -4.81905 2.31671 0
M  V30 2460 C 230.39 -3.39134 3.97222 0
M  V30 2461 H 232.084 -1.72417 2.44771 0
M  V30 2462 H 229.63 -0.828084 1.17808 0
M  V30 2463 H 231.583 -3.95253 1.46127 0
M  V30 2464 H 230.307 -3.23534 0.446435 0
M  V30 2465 H 228.966 -2.67707 2.50457 0
M  V30 2466 H 228.614 -4.85294 1.32284 0
M  V30 2467 H 228.314 -5.00906 3.07192 0
M  V30 2468 H 229.838 -5.62609 2.37284 0
M  V30 2469 H 231.252 -4.07518 4.03239 0
M  V30 2470 H 229.649 -3.69671 4.72719 0
M  V30 2471 H 230.719 -2.37426 4.22797 0
M  V30 2472 N 232.062 -1.29571 -0.897171 0
M  V30 2473 C 232.992 -1.17473 -2.01798 0
M  V30 2474 C 233.973 -0.068323 -1.69963 0
M  V30 2475 O 235.158 -0.248239 -1.92607 0
M  V30 2476 C 232.288 -0.853099 -3.36659 0
M  V30 2477 C 231.242 -1.9161 -3.82713 0
M  V30 2478 C 230.568 -1.44773 -5.14728 0
M  V30 2479 C 231.868 -3.32535 -4.02763 0
M  V30 2480 H 233.562 -2.11237 -2.12177 0
M  V30 2481 H 231.108 -1.01699 -1.01948 0
M  V30 2482 H 233.061 -0.755165 -4.14578 0
M  V30 2483 H 231.785 0.120236 -3.26379 0
M  V30 2484 H 230.444 -2.00346 -3.07013 0
M  V30 2485 H 230.092 -0.462995 -5.00865 0
M  V30 2486 H 229.792 -2.15865 -5.46513 0
M  V30 2487 H 231.316 -1.36334 -5.95185 0
M  V30 2488 H 232.73 -3.26626 -4.71156 0
M  V30 2489 H 231.127 -4.01607 -4.45905 0
M  V30 2490 H 232.197 -3.75326 -3.07016 0
M  V30 2491 N 233.54 1.10788 -1.12088 0
M  V30 2492 C 234.788 1.8231 -0.872205 0
M  V30 2493 C 235.109 1.85419 0.603709 0
M  V30 2494 O 234.379 1.32963 1.43867 0
M  V30 2495 H 232.959 0.675137 -0.319686 0
M  V30 2496 H 235.621 1.34068 -1.41463 0
M  V30 2497 H 234.717 2.85955 -1.25045 0
M  V30 2498 N 235.018 0.912232 1.28515 0
M  V30 2499 C 235.951 0.343928 2.25593 0
M  V30 2500 C 236.929 -0.550994 1.5298 0
M  V30 2501 O 238.113 -0.494991 1.81885 0
M  V30 2502 C 235.24 -0.508525 3.34861 0
M  V30 2503 C 234.286 0.320808 4.25292 0
M  V30 2504 S 235.119 1.72658 5.06902 0
M  V30 2505 C 236.275 0.881394 6.19663 0
M  V30 2506 H 236.508 1.16674 2.73449 0
M  V30 2507 H 234.041 0.713384 1.36931 0
M  V30 2508 H 235.999 -0.994539 3.9827 0
M  V30 2509 H 234.66 -1.30571 2.85675 0
M  V30 2510 H 233.853 -0.330941 5.02912 0
M  V30 2511 H 233.455 0.74042 3.66598 0
M  V30 2512 H 235.747 0.110359 6.7741 0
M  V30 2513 H 236.69 1.63009 6.89082 0
M  V30 2514 H 237.098 0.430239 5.62858 0
M  V30 2515 N 236.496 -1.42363 0.676048 0
M  V30 2516 C 237.406 -2.346 -0.00153389 0
M  V30 2517 C 238.422 -1.5516 -0.787485 0
M  V30 2518 O 239.598 -1.87723 -0.729521 0
M  V30 2519 C 236.663 -3.33705 -0.940298 0
M  V30 2520 C 235.724 -4.29042 -0.148739 0
M  V30 2521 C 234.957 -5.23413 -1.04279 0
M  V30 2522 O 235.18 -5.22749 -2.28232 0
M  V30 2523 O 234.114 -5.99795 -0.502925 0
M  V30 2524 H 237.94 -2.94082 0.758268 0
M  V30 2525 H 235.525 -1.42888 0.436289 0
M  V30 2526 H 237.407 -3.94586 -1.47917 0
M  V30 2527 H 236.082 -2.76695 -1.67993 0
M  V30 2528 H 234.989 -3.71571 0.43427 0
M  V30 2529 H 236.322 -4.89097 0.551805 0
M  V30 2530 N 237.974 -0.419461 -1.51915 0
M  V30 2531 C 238.921 0.400927 -2.27291 0
M  V30 2532 C 239.891 1.03224 -1.30131 0
M  V30 2533 O 241.076 1.05455 -1.59009 0
M  V30 2534 C 238.216 1.50603 -3.10504 0
M  V30 2535 C 237.329 0.89462 -4.22635 0
M  V30 2536 C 236.464 1.97328 -4.93189 0
M  V30 2537 C 235.503 1.33935 -5.97267 0
M  V30 2538 N 234.64 2.3586 -6.61298 0
M  V30 2539 H 239.48 -0.248251 -2.96964 0
M  V30 2540 H 237.017 -0.134266 -1.46486 0
M  V30 2541 H 238.975 2.15783 -3.57062 0
M  V30 2542 H 237.605 2.12509 -2.42981 0
M  V30 2543 H 236.657 0.131583 -3.80172 0
M  V30 2544 H 237.969 0.391641 -4.9726 0
M  V30 2545 H 237.123 2.70211 -5.43204 0
M  V30 2546 H 235.862 2.50994 -4.18155 0
M  V30 2547 H 234.867 0.595896 -5.46561 0
M  V30 2548 H 236.092 0.810252 -6.74249 0
M  V30 2549 H 234.038 2.88639 -5.89087 0
M  V30 2550 H 233.955 1.90403 -7.3163 0
M  V30 2551 H 235.223 3.08282 -7.15949 0
M  V30 2552 N 239.452 1.56882 -0.150215 0
M  V30 2553 C 240.729 1.87844 0.545327 0
M  V30 2554 C 241.109 1.0567 1.82749 0
M  V30 2555 O 240.457 0.144442 2.28043 0
M  V30 2556 C 240.667 3.39526 0.80767 0
M  V30 2557 C 242.015 4.08814 1.14703 0
M  V30 2558 O 243.039 3.44723 0.896917 0
M  V30 2559 O 241.898 5.22004 1.61784 0
M  V30 2560 H 238.992 0.778677 0.278553 0
M  V30 2561 H 241.538 1.68666 -0.187068 0
M  V30 2562 H 240.31 3.91173 -0.0996096 0
M  V30 2563 H 239.933 3.64243 1.59413 0
M  V30 2564 N 240.93 -0.123565 1.57115 0
M  V30 2565 C 241.88 -1.1575 1.96433 0
M  V30 2566 C 242.864 -1.37313 0.838686 0
M  V30 2567 O 244.056 -1.38482 1.10235 0
M  V30 2568 C 241.185 -2.48526 2.36833 0
M  V30 2569 C 240.271 -2.30457 3.5602 0
M  V30 2570 N 240.662 -1.8219 4.71848 0
M  V30 2571 C 238.96 -2.61129 3.61563 0
M  V30 2572 C 239.661 -1.77721 5.53886 0
M  V30 2573 N 238.637 -2.21899 4.96248 0
M  V30 2574 H 242.439 -0.776797 2.83449 0
M  V30 2575 H 239.953 -0.331364 1.58983 0
M  V30 2576 H 241.95 -3.233 2.63216 0
M  V30 2577 H 240.61 -2.87358 1.5118 0
M  V30 2578 H 241.621 -1.51805 4.95152 0
M  V30 2579 H 238.298 -3.03678 2.86507 0
M  V30 2580 H 239.688 -1.41697 6.56789 0
M  V30 2581 N 242.408 -1.52605 -0.393616 0
M  V30 2582 C 243.819 -1.59417 -0.971761 0
M  V30 2583 C 244.17 -0.444173 -1.91106 0
M  V30 2584 O 243.295 0.433382 -2.12016 0
M  V30 2585 C 243.89 -2.88936 -1.76921 0
M  V30 2586 C 242.449 -2.98175 -2.29714 0
M  V30 2587 C 241.596 -2.54491 -1.10135 0
M  V30 2588 H 244.547 -1.57751 -0.173317 0
M  V30 2589 H 244.568 -2.75163 -2.62804 0
M  V30 2590 H 244.08 -3.72616 -1.08532 0
M  V30 2591 H 242.181 -2.19024 -3.01429 0
M  V30 2592 H 242.294 -4.02726 -2.59517 0
M  V30 2593 H 240.658 -2.08702 -1.45999 0
M  V30 2594 H 241.441 -3.4056 -0.432874 0
M  V30 2595 N 243.887 0.651787 -1.4349 0
M  V30 2596 C 245.133 1.41376 -1.45398 0
M  V30 2597 C 245.466 1.94041 -0.0784823 0
M  V30 2598 O 244.741 1.72379 0.900878 0
M  V30 2599 C 245.024 2.59414 -2.49752 0
M  V30 2600 C 244.877 2.12232 -3.96582 0
M  V30 2601 C 246.196 3.61626 -2.50827 0
M  V30 2602 H 243.315 0.512719 -0.529422 0
M  V30 2603 H 245.957 0.738796 -1.75048 0
M  V30 2604 H 244.107 3.16997 -2.246 0
M  V30 2605 H 245.779 1.59639 -4.32797 0
M  V30 2606 H 244.022 1.43592 -4.09346 0
M  V30 2607 H 244.693 2.9712 -4.65214 0
M  V30 2608 H 247.169 3.13805 -2.7325 0
M  V30 2609 H 246.045 4.41766 -3.25783 0
M  V30 2610 H 246.306 4.14314 -1.5426 0
M  V30 2611 N 245.365 1.30045 0.890287 0
M  V30 2612 C 246.295 1.18541 2.01172 0
M  V30 2613 C 247.276 0.0773356 1.69924 0
M  V30 2614 O 248.461 0.25845 1.92473 0
M  V30 2615 C 245.591 0.870941 3.36202 0
M  V30 2616 C 244.545 1.93637 3.81692 0
M  V30 2617 C 243.871 1.475 5.13953 0
M  V30 2618 C 245.171 3.34666 4.00994 0
M  V30 2619 H 246.865 2.12359 2.11054 0
M  V30 2620 H 244.411 1.02238 1.01407 0
M  V30 2621 H 246.364 0.777141 4.14172 0
M  V30 2622 H 245.088 -0.102926 3.26438 0
M  V30 2623 H 243.747 2.01972 3.05946 0
M  V30 2624 H 243.395 0.489551 5.00612 0
M  V30 2625 H 243.095 2.1876 5.4536 0
M  V30 2626 H 244.619 1.39489 5.94454 0
M  V30 2627 H 246.033 3.2912 4.69417 0
M  V30 2628 H 244.43 4.03966 4.43769 0
M  V30 2629 H 245.5 3.76949 3.05021 0
M  V30 2630 N 246.843 -1.10192 1.12674 0
M  V30 2631 C 248.089 -1.82475 0.884915 0
M  V30 2632 C 248.422 -1.85093 -0.58773 0
M  V30 2633 O 247.697 -1.3134 -1.43457 0
M  V30 2634 C 247.98 -3.29018 1.46353 0
M  V30 2635 C 247.833 -3.34718 3.00473 0
M  V30 2636 C 249.152 -4.25473 1.12519 0
M  V30 2637 H 246.271 -0.662492 0.322915 0
M  V30 2638 H 248.913 -1.2913 1.39375 0
M  V30 2639 H 247.063 -3.74576 1.03077 0
M  V30 2640 H 248.735 -2.97622 3.52447 0
M  V30 2641 H 246.978 -2.74541 3.35872 0
M  V30 2642 H 247.649 -4.37918 3.36053 0
M  V30 2643 H 250.125 -3.88161 1.499 0
M  V30 2644 H 249.001 -5.26365 1.55663 0
M  V30 2645 H 249.262 -4.42084 0.0377407 0
M  V30 2646 N 248.321 -0.919034 -1.28029 0
M  V30 2647 C 249.268 -0.410005 -2.27129 0
M  V30 2648 C 250.238 0.518405 -1.57803 0
M  V30 2649 O 251.423 0.439451 -1.8567 0
M  V30 2650 C 248.563 0.339054 -3.4343 0
M  V30 2651 C 247.676 -0.622468 -4.27492 0
M  V30 2652 C 246.811 0.145567 -5.31001 0
M  V30 2653 C 245.85 -0.809226 -6.06727 0
M  V30 2654 N 244.987 -0.0743728 -7.02061 0
M  V30 2655 H 249.827 -1.26011 -2.70047 0
M  V30 2656 H 247.364 -0.632663 -1.328 0
M  V30 2657 H 249.322 0.789586 -4.0966 0
M  V30 2658 H 247.952 1.15346 -3.01488 0
M  V30 2659 H 247.004 -1.19153 -3.61257 0
M  V30 2660 H 248.316 -1.35252 -4.80113 0
M  V30 2661 H 247.47 0.656417 -6.03139 0
M  V30 2662 H 246.209 0.908643 -4.79161 0
M  V30 2663 H 245.214 -1.3314 -5.33436 0
M  V30 2664 H 246.439 -1.57194 -6.60656 0
M  V30 2665 H 244.385 0.670616 -6.52563 0
M  V30 2666 H 244.302 -0.744157 -7.52329 0
M  V30 2667 H 245.57 0.416109 -7.78389 0
M  V30 2668 N 249.799 1.42003 -0.683588 0
M  V30 2669 C 250.762 2.29191 -0.0198243 0
M  V30 2670 C 251.762 1.43773 0.72013 0
M  V30 2671 O 252.952 1.65061 0.556815 0
M  V30 2672 C 250.084 3.26435 0.982487 0
M  V30 2673 H 251.277 2.8938 -0.787345 0
M  V30 2674 H 248.83 1.49789 -0.446418 0
M  V30 2675 H 249.565 2.71203 1.77819 0
M  V30 2676 H 249.35 3.89449 0.455182 0
M  V30 2677 H 250.84 3.918 1.44508 0
M  V30 2678 N 251.277 0.427512 1.51691 0
M  V30 2679 C 252.693 0.0792977 1.59403 0
M  V30 2680 C 252.893 -1.41035 1.43914 0
M  V30 2681 O 251.949 -2.17922 1.27539 0
M  V30 2682 C 253.262 0.590636 2.94842 0
M  V30 2683 C 254.81 0.550215 3.08126 0
M  V30 2684 C 255.285 1.03836 4.46074 0
M  V30 2685 N 256.776 0.995943 4.52366 0
M  V30 2686 C 257.511 1.34463 5.57411 0
M  V30 2687 N 257.007 1.76569 6.69922 0
M  V30 2688 N 258.8 1.26343 5.47717 0
M  V30 2689 H 250.951 1.39687 1.60004 0
M  V30 2690 H 253.214 0.575003 0.753708 0
M  V30 2691 H 252.92 1.63251 3.11516 0
M  V30 2692 H 252.794 0.0102061 3.77199 0
M  V30 2693 H 255.181 -0.482654 2.91126 0
M  V30 2694 H 255.262 1.16693 2.27632 0
M  V30 2695 H 254.906 2.06965 4.63819 0
M  V30 2696 H 254.836 0.398286 5.25092 0
M  V30 2697 H 257.327 0.68661 3.7161 0
M  V30 2698 H 257.64 2.01438 7.46085 0
M  V30 2699 H 255.985 1.80488 6.71155 0
M  V30 2700 H 259.176 0.933209 4.58703 0
M  V30 2701 H 259.349 1.53846 6.29472 0
M  V30 2702 N 252.755 -1.56801 0.158532 0
M  V30 2703 C 253.702 -2.17337 -0.776729 0
M  V30 2704 C 254.672 -1.1096 -1.23601 0
M  V30 2705 O 255.857 -1.39054 -1.30647 0
M  V30 2706 C 252.997 -2.80822 -2.00582 0
M  V30 2707 C 252.11 -4.01624 -1.59129 0
M  V30 2708 C 251.245 -4.53072 -2.77306 0
M  V30 2709 C 250.284 -5.66314 -2.32282 0
M  V30 2710 N 249.421 -6.12329 -3.43508 0
M  V30 2711 H 254.261 -2.96918 -0.253701 0
M  V30 2712 H 251.798 -1.46661 -0.113504 0
M  V30 2713 H 253.756 -3.15779 -2.72652 0
M  V30 2714 H 252.386 -2.03866 -2.50277 0
M  V30 2715 H 251.438 -3.72571 -0.767806 0
M  V30 2716 H 252.75 -4.83633 -1.2207 0
M  V30 2717 H 251.904 -4.90145 -3.57551 0
M  V30 2718 H 250.643 -3.70095 -3.17617 0
M  V30 2719 H 249.648 -5.28806 -1.5048 0
M  V30 2720 H 250.873 -6.51085 -1.93043 0
M  V30 2721 H 248.819 -5.32284 -3.83418 0
M  V30 2722 H 248.736 -6.89293 -3.105 0
M  V30 2723 H 250.004 -6.5405 -4.24075 0
M  V30 2724 N 254.233 0.115231 -1.57178 0
M  V30 2725 C 255.461 0.836437 -1.89239 0
M  V30 2726 C 255.876 1.73256 -0.750175 0
M  V30 2727 O 255.233 1.80357 0.278832 0
M  V30 2728 C 255.284 1.66671 -3.20785 0
M  V30 2729 O 255.005 0.806652 -4.3061 0
M  V30 2730 C 256.506 2.49274 -3.66575 0
M  V30 2731 H 253.726 0.240253 -0.626514 0
M  V30 2732 H 256.27 0.0984932 -2.04263 0
M  V30 2733 H 254.425 2.35737 -3.0742 0
M  V30 2734 H 254.839 1.37969 -5.06028 0
M  V30 2735 H 256.313 3.03055 -4.6137 0
M  V30 2736 H 256.79 3.26807 -2.93417 0
M  V30 2737 H 257.396 1.85443 -3.82741 0
M  V30 2738 N 255.711 1.52812 0.385517 0
M  V30 2739 C 256.641 1.80808 1.47752 0
M  V30 2740 C 257.622 0.660318 1.5676 0
M  V30 2741 O 258.807 0.908246 1.71652 0
M  V30 2742 C 255.937 1.98008 2.85324 0
M  V30 2743 C 254.891 3.13709 2.91154 0
M  V30 2744 C 254.217 3.16169 4.31209 0
M  V30 2745 C 255.517 4.52709 2.60483 0
M  V30 2746 H 257.211 2.72253 1.24573 0
M  V30 2747 H 254.757 1.31003 0.597839 0
M  V30 2748 H 256.71 2.16176 3.61726 0
M  V30 2749 H 255.434 1.03255 3.09848 0
M  V30 2750 H 254.093 2.95329 2.17201 0
M  V30 2751 H 253.741 2.19092 4.52778 0
M  V30 2752 H 253.441 3.93894 4.36029 0
M  V30 2753 H 254.965 3.36496 5.09512 0
M  V30 2754 H 256.379 4.71173 3.26602 0
M  V30 2755 H 254.776 5.32528 2.76648 0
M  V30 2756 H 255.846 4.59186 1.55809 0
M  V30 2757 N 257.189 -0.644168 1.43834 0
M  V30 2758 C 258.139 -1.7501 1.46135 0
M  V30 2759 C 259.123 -1.57507 0.328685 0
M  V30 2760 O 260.315 -1.67465 0.5731 0
M  V30 2761 C 257.444 -3.13641 1.39585 0
M  V30 2762 C 256.53 -3.3666 2.57916 0
M  V30 2763 N 256.921 -3.30107 3.83227 0
M  V30 2764 C 255.219 -3.67411 2.52834 0
M  V30 2765 C 255.92 -3.53456 4.61999 0
M  V30 2766 N 254.896 -3.75705 3.9287 0
M  V30 2767 H 258.698 -1.68382 2.40883 0
M  V30 2768 H 256.212 -0.846169 1.38614 0
M  V30 2769 H 258.209 -3.92933 1.39317 0
M  V30 2770 H 256.869 -3.21444 0.45865 0
M  V30 2771 H 257.88 -3.09316 4.15384 0
M  V30 2772 H 254.557 -3.82275 1.67845 0
M  V30 2773 H 255.947 -3.54093 5.71024 0
M  V30 2774 N 258.668 -1.30515 -0.883378 0
M  V30 2775 C 260.084 -1.08881 -1.16692 0
M  V30 2776 C 260.284 0.149409 -2.00945 0
M  V30 2777 O 259.34 0.84257 -2.38027 0
M  V30 2778 C 260.653 -2.35319 -1.87204 0
M  V30 2779 C 262.201 -2.40799 -1.99962 0
M  V30 2780 C 262.676 -3.67083 -2.73887 0
M  V30 2781 N 264.167 -3.679 -2.81432 0
M  V30 2782 C 264.902 -4.62303 -3.3921 0
M  V30 2783 N 264.398 -5.67052 -3.98025 0
M  V30 2784 N 266.191 -4.49845 -3.3704 0
M  V30 2785 H 258.342 -2.09951 -0.321633 0
M  V30 2786 H 260.605 -0.92556 -0.205043 0
M  V30 2787 H 260.311 -3.25689 -1.3274 0
M  V30 2788 H 260.185 -2.44089 -2.87577 0
M  V30 2789 H 262.572 -1.50907 -2.53597 0
M  V30 2790 H 262.653 -2.36003 -0.98673 0
M  V30 2791 H 262.297 -4.57334 -2.20925 0
M  V30 2792 H 262.227 -3.69141 -3.75556 0
M  V30 2793 H 264.718 -2.92171 -2.39676 0
M  V30 2794 H 265.031 -6.35184 -4.40183 0
M  V30 2795 H 263.376 -5.70842 -3.96439 0
M  V30 2796 H 266.567 -3.67194 -2.90321 0
M  V30 2797 H 266.74 -5.23597 -3.81772 0
M  V30 2798 N 260.146 1.09593 -1.13257 0
M  V30 2799 C 261.076 2.18214 -0.830946 0
M  V30 2800 C 262.057 1.68812 0.208966 0
M  V30 2801 O 263.242 1.9408 0.0682666 0
M  V30 2802 C 260.372 3.46051 -0.294296 0
M  V30 2803 C 259.326 4.08778 -1.26826 0
M  V30 2804 C 258.652 5.31419 -0.591449 0
M  V30 2805 C 259.952 4.51476 -2.62615 0
M  V30 2806 H 261.646 2.43703 -1.73923 0
M  V30 2807 H 259.192 1.17128 -0.837675 0
M  V30 2808 H 261.145 4.2134 -0.0709606 0
M  V30 2809 H 259.869 3.20079 0.649366 0
M  V30 2810 H 258.528 3.35505 -1.47756 0
M  V30 2811 H 258.176 5.01727 0.357633 0
M  V30 2812 H 257.876 5.74341 -1.24123 0
M  V30 2813 H 259.4 6.09433 -0.377355 0
M  V30 2814 H 260.814 5.17999 -2.45663 0
M  V30 2815 H 259.211 5.05277 -3.23752 0
M  V30 2816 H 260.281 3.63962 -3.20406 0
M  V30 2817 N 261.624 0.925811 1.2754 0
M  V30 2818 C 262.872 0.564138 1.94067 0
M  V30 2819 C 263.193 -0.897188 1.73134 0
M  V30 2820 O 262.463 -1.63573 1.07799 0
M  V30 2821 H 261.043 0.205645 0.718136 0
M  V30 2822 H 263.705 1.1778 1.55287 0
M  V30 2823 H 262.801 0.76881 3.02483 0
M  V30 2824 N 263.102 -1.41638 0.69111 0
M  V30 2825 C 264.35 -2.00902 0.219758 0
M  V30 2826 C 264.671 -1.54994 -1.18329 0
M  V30 2827 O 263.941 -0.778628 -1.79762 0
M  V30 2828 H 262.521 -0.74289 0.0782558 0
M  V30 2829 H 265.183 -1.73327 0.891271 0
M  V30 2830 H 264.279 -3.11224 0.233708 0
M  V30 2831 N 264.58 -0.43555 -1.51462 0
M  V30 2832 C 265.543 0.365137 -2.26273 0
M  V30 2833 C 266.543 0.951227 -1.29647 0
M  V30 2834 O 267.733 0.825958 -1.53374 0
M  V30 2835 C 264.865 1.51645 -3.05314 0
M  V30 2836 H 266.058 -0.290474 -2.9849 0
M  V30 2837 H 263.611 -0.188676 -1.55157 0
M  V30 2838 H 264.346 2.20816 -2.3751 0
M  V30 2839 H 264.131 1.10238 -3.76284 0
M  V30 2840 H 265.621 2.08218 -3.61987 0
M  V30 2841 N 266.058 1.56714 -0.166846 0
M  V30 2842 C 267.307 1.95922 0.479318 0
M  V30 2843 C 267.62 1.05529 1.6469 0
M  V30 2844 O 268.826 1.34399 2.35901 0
M  V30 2845 C 267.282 3.48359 0.90412 0
M  V30 2846 C 266.89 4.47369 -0.237621 0
M  V30 2847 C 268.634 3.96394 1.51896 0
M  V30 2848 C 266.541 5.91039 0.206561 0
M  V30 2849 H 265.471 0.731495 0.18284 0
M  V30 2850 H 268.122 1.81728 -0.254363 0
M  V30 2851 H 266.504 3.57955 1.69365 0
M  V30 2852 H 267.678 4.49485 -1.01489 0
M  V30 2853 H 265.993 4.09366 -0.762128 0
M  V30 2854 H 268.59 5.01186 1.86325 0
M  V30 2855 H 268.933 3.39075 2.41524 0
M  V30 2856 H 269.466 3.89796 0.79395 0
M  V30 2857 H 266.205 6.52221 -0.654834 0
M  V30 2858 H 265.725 5.9224 0.949282 0
M  V30 2859 H 267.404 6.43707 0.651939 0
M  V30 2860 N 267.536 -0.106894 1.57237 0
M  V30 2861 C 268.483 -1.13049 2.01217 0
M  V30 2862 C 269.453 -1.40471 0.886403 0
M  V30 2863 O 270.638 -1.52133 1.15153 0
M  V30 2864 C 267.778 -2.4487 2.43172 0
M  V30 2865 C 266.891 -2.24281 3.69218 0
M  V30 2866 C 266.026 -3.49417 4.00101 0
M  V30 2867 C 265.065 -3.24038 5.19294 0
M  V30 2868 N 264.202 -4.41409 5.45988 0
M  V30 2869 H 269.042 -0.748456 2.88448 0
M  V30 2870 H 266.579 -0.358054 1.42676 0
M  V30 2871 H 268.537 -3.21786 2.65537 0
M  V30 2872 H 267.167 -2.80944 1.58967 0
M  V30 2873 H 266.219 -1.38224 3.54398 0
M  V30 2874 H 267.531 -2.01512 4.56283 0
M  V30 2875 H 266.685 -4.34746 4.2318 0
M  V30 2876 H 265.424 -3.75229 3.11535 0
M  V30 2877 H 264.429 -2.37102 4.96047 0
M  V30 2878 H 265.654 -2.99584 6.09447 0
M  V30 2879 H 263.6 -4.67319 4.60379 0
M  V30 2880 H 263.517 -4.21788 6.274 0
M  V30 2881 H 264.785 -5.27836 5.73593 0
M  V30 2882 N 269.014 -1.53014 -0.377408 0
M  V30 2883 C 269.962 -1.7927 -1.48206 0
M  V30 2884 C 270.956 -0.661195 -1.55963 0
M  V30 2885 O 272.162 -0.843908 -1.58991 0
M  V30 2886 H 268.537 -0.567425 -0.493491 0
M  V30 2887 H 270.508 -2.71753 -1.2326 0
M  V30 2888 C 269.257 -1.98894 -2.85196 0
M  V30 2889 H 268.58 -2.85395 -2.79981 0
M  V30 2890 H 270.02 -2.21249 -3.61698 0
M  V30 2891 C 268.479 -0.764691 -3.28107 0
M  V30 2892 O 269.009 0.0523226 -4.01666 0
M  V30 2893 N 267.215 -0.591493 -2.84517 0
M  V30 2894 H 266.762 -1.25749 -2.24822 0
M  V30 2895 H 266.72 0.226253 -3.13585 0
M  V30 2896 N 270.492 0.636531 -1.44174 0
M  V30 2897 C 271.903 1.21806 -1.41493 0
M  V30 2898 C 272.254 1.95785 -0.1275 0
M  V30 2899 O 271.379 2.02147 0.772376 0
M  V30 2900 C 271.974 2.21551 -2.56321 0
M  V30 2901 C 270.533 2.75143 -2.56853 0
M  V30 2902 C 269.68 1.50052 -2.33195 0
M  V30 2903 H 272.631 0.427531 -1.52833 0
M  V30 2904 H 272.652 3.0405 -2.28765 0
M  V30 2905 H 272.164 1.67679 -3.50008 0
M  V30 2906 H 270.265 3.33033 -1.67093 0
M  V30 2907 H 270.378 3.2155 -3.55165 0
M  V30 2908 H 268.742 1.77993 -1.82183 0
M  V30 2909 H 269.525 0.980903 -3.28988 0
M  V30 2910 N 271.97 1.30982 0.876444 0
M  V30 2911 C 272.92 1.14688 1.97055 0
M  V30 2912 C 273.904 0.0596593 1.60789 0
M  V30 2913 O 275.096 0.283892 1.74708 0
M  V30 2914 C 272.225 0.849627 3.3262 0
M  V30 2915 C 271.311 1.97752 3.75173 0
M  V30 2916 N 271.702 3.22384 3.89746 0
M  V30 2917 C 270 1.8758 4.04635 0
M  V30 2918 C 270.701 3.96121 4.25985 0
M  V30 2919 N 269.677 3.24237 4.36315 0
M  V30 2920 H 273.479 2.09204 2.06424 0
M  V30 2921 H 270.993 1.22445 1.06682 0
M  V30 2922 H 272.99 0.713895 4.10742 0
M  V30 2923 H 271.65 -0.087376 3.24582 0
M  V30 2924 H 272.661 3.57575 3.74647 0
M  V30 2925 H 269.338 1.01303 4.05024 0
M  V30 2926 H 270.728 5.03491 4.44911 0
M  V30 2927 N 273.449 -1.08991 1.13837 0
M  V30 2928 C 274.695 -1.81699 0.91417 0
M  V30 2929 C 275.05 -1.84264 -0.553594 0
M  V30 2930 O 274.343 -1.30313 -1.4046 0
M  V30 2931 C 274.537 -3.27042 1.44147 0
M  V30 2932 C 274.366 -3.38637 2.95897 0
M  V30 2933 C 273.136 -3.50177 3.64286 0
M  V30 2934 C 275.334 -3.30791 3.93804 0
M  V30 2935 N 273.316 -3.50501 5.04006 0
M  V30 2936 C 274.687 -3.38037 5.19741 0
M  V30 2937 C 276.742 -3.14488 3.86007 0
M  V30 2938 C 275.445 -3.30659 6.38793 0
M  V30 2939 C 277.471 -3.08438 5.04599 0
M  V30 2940 C 276.833 -3.1628 6.29402 0
M  V30 2941 H 272.932 -0.678967 0.387979 0
M  V30 2942 H 275.516 -1.30224 1.4474 0
M  V30 2943 H 273.687 -3.76976 0.935091 0
M  V30 2944 H 275.419 -3.87785 1.1578 0
M  V30 2945 H 272.174 -3.53815 3.1482 0
M  V30 2946 H 272.598 -3.54236 5.76928 0
M  V30 2947 H 277.24 -3.07291 2.90399 0
M  V30 2948 H 274.958 -3.36618 7.34652 0
M  V30 2949 H 278.544 -2.96952 5.0031 0
M  V30 2950 H 277.424 -3.1162 7.19627 0
M  V30 2951 N 274.927 -0.932562 -1.27047 0
M  V30 2952 C 276.175 -0.574422 -1.93765 0
M  V30 2953 C 276.496 0.887993 -1.73608 0
M  V30 2954 O 275.766 1.62999 -1.08665 0
M  V30 2955 H 274.346 -0.209451 -0.717035 0
M  V30 2956 H 277.008 -1.18601 -1.5466 0
M  V30 2957 H 276.104 -0.784841 -3.02071 0
M  V30 2958 N 276.405 1.4127 -0.698611 0
M  V30 2959 C 277.352 2.30773 -0.0352094 0
M  V30 2960 C 278.322 1.47273 0.768111 0
M  V30 2961 O 279.507 1.76053 0.735524 0
M  V30 2962 C 276.647 3.33346 0.893 0
M  V30 2963 C 275.76 4.31924 0.0809695 0
M  V30 2964 C 274.895 5.21566 1.0071 0
M  V30 2965 C 273.934 6.11811 0.188155 0
M  V30 2966 N 273.071 6.93926 1.06825 0
M  V30 2967 H 277.911 2.86943 -0.804207 0
M  V30 2968 H 275.448 1.4132 -0.408294 0
M  V30 2969 H 277.406 3.91368 1.44523 0
M  V30 2970 H 276.036 2.78719 1.62836 0
M  V30 2971 H 275.088 3.75825 -0.588224 0
M  V30 2972 H 276.4 4.95716 -0.553801 0
M  V30 2973 H 275.554 5.84437 1.62845 0
M  V30 2974 H 274.293 4.58008 1.67572 0
M  V30 2975 H 273.298 5.47986 -0.446254 0
M  V30 2976 H 274.523 6.77425 -0.476716 0
M  V30 2977 H 272.469 6.32973 1.72283 0
M  V30 2978 H 272.386 7.54416 0.489123 0
M  V30 2979 H 273.654 7.61262 1.67632 0
M  V30 2980 N 277.883 0.443576 1.51229 0
M  V30 2981 C 278.846 -0.353132 2.26463 0
M  V30 2982 C 279.846 -0.944338 1.3015 0
M  V30 2983 O 281.036 -0.817813 1.5381 0
M  V30 2984 C 278.168 -1.50023 3.06114 0
M  V30 2985 H 279.361 0.3063 2.98332 0
M  V30 2986 H 276.914 0.196902 1.55055 0
M  V30 2987 H 277.649 -2.19553 2.38677 0
M  V30 2988 H 277.434 -1.08241 3.76864 0
M  V30 2989 H 278.924 -2.06296 3.63087 0
M  V30 2990 N 279.361 -1.56624 0.175154 0
M  V30 2991 C 280.607 -1.98061 -0.462976 0
M  V30 2992 C 280.962 -1.05949 -1.60601 0
M  V30 2993 O 280.255 -0.0999027 -1.91339 0
M  V30 2994 C 280.449 -3.43419 -0.989864 0
M  V30 2995 C 280.278 -4.49587 0.100583 0
M  V30 2996 C 279.048 -5.02281 0.551539 0
M  V30 2997 C 281.246 -5.06322 0.902369 0
M  V30 2998 N 279.228 -5.92088 1.62189 0
M  V30 2999 C 280.599 -5.92607 1.82256 0
M  V30 3000 C 282.654 -4.88811 0.947019 0
M  V30 3001 C 281.357 -6.63254 2.78364 0
M  V30 3002 C 283.383 -5.60182 1.89606 0
M  V30 3003 C 282.745 -6.46197 2.80372 0
M  V30 3004 H 278.844 -0.769833 -0.137409 0
M  V30 3005 H 281.428 -1.9273 0.276256 0
M  V30 3006 H 279.599 -3.49288 -1.6986 0
M  V30 3007 H 281.331 -3.7186 -1.59694 0
M  V30 3008 H 278.086 -4.73367 0.148537 0
M  V30 3009 H 278.51 -6.41696 2.15767 0
M  V30 3010 H 283.152 -4.22004 0.259304 0
M  V30 3011 H 280.87 -7.29271 3.48122 0
M  V30 3012 H 284.456 -5.48617 1.93676 0
M  V30 3013 H 283.336 -7.00453 3.52612 0
M  V30 3014 N 280.839 0.0985539 -1.57292 0
M  V30 3015 C 281.769 1.12064 -2.04851 0
M  V30 3016 C 282.75 1.41981 -0.936767 0
M  V30 3017 O 283.935 1.52071 -1.20781 0
M  V30 3018 C 281.065 2.44144 -2.47004 0
M  V30 3019 C 280.019 2.28643 -3.6181 0
M  V30 3020 C 279.345 3.65869 -3.89929 0
M  V30 3021 C 280.645 1.72986 -4.92822 0
M  V30 3022 H 282.339 0.724979 -2.9049 0
M  V30 3023 H 279.885 0.34729 -1.39749 0
M  V30 3024 H 281.838 3.15914 -2.78884 0
M  V30 3025 H 280.562 2.85639 -1.5836 0
M  V30 3026 H 279.221 1.59318 -3.30172 0
M  V30 3027 H 278.869 4.04885 -2.98458 0
M  V30 3028 H 278.569 3.56344 -4.67218 0
M  V30 3029 H 280.093 4.39112 -4.2428 0
M  V30 3030 H 281.507 2.34593 -5.23105 0
M  V30 3031 H 279.904 1.74229 -5.74251 0
M  V30 3032 H 280.974 0.689007 -4.7998 0
M  V30 3033 N 282.317 1.53212 0.369288 0
M  V30 3034 C 283.542 1.73423 1.1375 0
M  V30 3035 C 283.967 0.460404 1.82378 0
M  V30 3036 O 283.325 -0.585298 1.71592 0
M  V30 3037 C 283.373 2.89769 2.1463 0
M  V30 3038 O 282.477 2.58119 3.21634 0
M  V30 3039 H 281.818 0.576061 0.330227 0
M  V30 3040 H 284.348 2.00083 0.427547 0
M  V30 3041 H 284.358 3.15829 2.58294 0
M  V30 3042 H 283.033 3.8217 1.64071 0
M  V30 3043 H 281.61 2.42864 2.82969 0
M  V30 3044 N 283.795 -0.628877 1.44509 0
M  V30 3045 C 285.044 -1.38437 1.4669 0
M  V30 3046 C 285.357 -1.95322 0.104272 0
M  V30 3047 O 286.563 -2.715 0.00362163 0
M  V30 3048 C 285.019 -2.50659 2.5826 0
M  V30 3049 C 284.627 -2.00277 4.0074 0
M  V30 3050 C 286.371 -3.27844 2.69664 0
M  V30 3051 C 284.278 -3.09854 5.0373 0
M  V30 3052 H 283.208 -0.520245 0.545766 0
M  V30 3053 H 285.859 -0.676313 1.70582 0
M  V30 3054 H 284.241 -3.2405 2.27612 0
M  V30 3055 H 285.415 -1.33736 4.40966 0
M  V30 3056 H 283.73 -1.35901 3.93599 0
M  V30 3057 H 286.327 -4.09534 3.43781 0
M  V30 3058 H 286.67 -3.77471 1.75559 0
M  V30 3059 H 287.203 -2.61543 2.99733 0
M  V30 3060 H 283.942 -2.65168 5.99472 0
M  V30 3061 H 283.462 -3.7503 4.68095 0
M  V30 3062 H 285.141 -3.74592 5.27532 0
M  V30 3063 N 285.273 -1.31445 -0.869486 0
M  V30 3064 C 286.203 -1.21727 -1.99261 0
M  V30 3065 C 287.184 -0.104359 -1.6978 0
M  V30 3066 O 288.369 -0.289038 -1.92037 0
M  V30 3067 C 285.499 -0.924317 -3.34774 0
M  V30 3068 C 284.453 -1.99685 -3.78563 0
M  V30 3069 C 283.779 -1.55658 -5.11541 0
M  V30 3070 C 285.079 -3.41003 -3.95619 0
M  V30 3071 H 286.773 -2.1569 -2.07649 0
M  V30 3072 H 284.319 -1.03839 -0.997675 0
M  V30 3073 H 286.272 -0.842934 -4.12883 0
M  V30 3074 H 284.996 0.0509793 -3.2656 0
M  V30 3075 H 283.655 -2.06813 -3.02694 0
M  V30 3076 H 283.303 -0.569132 -4.9977 0
M  V30 3077 H 283.003 -2.27409 -5.41811 0
M  V30 3078 H 284.527 -1.48928 -5.92159 0
M  V30 3079 H 285.941 -3.36547 -4.64122 0
M  V30 3080 H 284.338 -4.10975 -4.37286 0
M  V30 3081 H 285.408 -3.81754 -2.98985 0
M  V30 3082 N 286.751 1.08385 -1.14413 0
M  V30 3083 C 287.699 2.17406 -0.826888 0
M  V30 3084 C 288.693 1.6827 0.195312 0
M  V30 3085 O 289.899 1.79927 0.0513892 0
M  V30 3086 H 286.274 0.70934 -0.249681 0
M  V30 3087 H 288.245 2.41388 -1.75426 0
M  V30 3088 C 286.994 3.46215 -0.320979 0
M  V30 3089 H 286.317 3.84401 -1.0989 0
M  V30 3090 H 287.757 4.23777 -0.137549 0
M  V30 3091 C 286.216 3.23067 0.955472 0
M  V30 3092 O 286.746 3.4668 2.02918 0
M  V30 3093 N 284.952 2.7661 0.890798 0
M  V30 3094 H 284.499 2.57594 0.0168815 0
M  V30 3095 H 284.457 2.61501 1.74542 0
M  V30 3096 N 288.23 0.939286 1.26551 0
M  V30 3097 C 289.16 0.465044 2.28822 0
M  V30 3098 C 290.141 -0.480692 1.63167 0
M  V30 3099 O 291.326 -0.382955 1.90387 0
M  V30 3100 C 288.456 -0.27234 3.46231 0
M  V30 3101 C 287.41 0.58666 4.2396 0
M  V30 3102 C 286.736 -0.280573 5.33963 0
M  V30 3103 C 288.036 1.85704 4.88171 0
M  V30 3104 H 289.73 1.31979 2.68741 0
M  V30 3105 H 287.276 0.636061 1.29191 0
M  V30 3106 H 289.229 -0.615133 4.16886 0
M  V30 3107 H 287.953 -1.16121 3.0526 0
M  V30 3108 H 286.612 0.91232 3.55067 0
M  V30 3109 H 286.26 -1.16874 4.89234 0
M  V30 3110 H 285.96 0.29076 5.8688 0
M  V30 3111 H 287.484 -0.618678 6.07458 0
M  V30 3112 H 288.898 1.58161 5.51052 0
M  V30 3113 H 287.295 2.37279 5.51197 0
M  V30 3114 H 288.365 2.56957 4.11219 0
M  V30 3115 N 289.708 -1.40897 0.706093 0
M  V30 3116 C 290.938 -2.05075 0.250523 0
M  V30 3117 C 291.346 -1.53275 -1.10921 0
M  V30 3118 O 290.689 -0.680281 -1.7064 0
M  V30 3119 C 290.751 -3.59219 0.142178 0
M  V30 3120 C 290.415 -4.33864 1.43566 0
M  V30 3121 C 291.412 -4.62448 2.37566 0
M  V30 3122 C 289.097 -4.72946 1.69195 0
M  V30 3123 C 291.091 -5.29088 3.5545 0
M  V30 3124 C 288.778 -5.3932 2.87362 0
M  V30 3125 C 289.776 -5.6732 3.80312 0
M  V30 3126 O 289.464 -6.32325 4.96408 0
M  V30 3127 H 289.196 -0.666645 0.112074 0
M  V30 3128 H 291.75 -1.81467 0.962239 0
M  V30 3129 H 289.98 -3.81609 -0.6254 0
M  V30 3130 H 291.669 -4.0495 -0.277584 0
M  V30 3131 H 292.435 -4.32727 2.19027 0
M  V30 3132 H 288.314 -4.50527 0.977042 0
M  V30 3133 H 291.858 -5.50859 4.28018 0
M  V30 3134 H 287.755 -5.68461 3.05814 0
M  V30 3135 H 288.523 -6.50821 4.9636 0
M  V30 3136 N 291.186 -0.45159 -1.50991 0
M  V30 3137 C 292.096 0.358431 -2.31846 0
M  V30 3138 C 293.112 1.01438 -1.41373 0
M  V30 3139 O 294.288 1.00663 -1.74439 0
M  V30 3140 C 291.353 1.43704 -3.15515 0
M  V30 3141 C 290.414 0.799742 -4.21785 0
M  V30 3142 C 289.647 1.82696 -5.01456 0
M  V30 3143 O 289.87 3.05105 -4.81941 0
M  V30 3144 O 288.804 1.40958 -5.85162 0
M  V30 3145 H 292.63 -0.302032 -3.02194 0
M  V30 3146 H 290.215 -0.213825 -1.47862 0
M  V30 3147 H 292.097 2.06227 -3.67489 0
M  V30 3148 H 290.772 2.08133 -2.47916 0
M  V30 3149 H 289.679 0.136084 -3.73852 0
M  V30 3150 H 291.012 0.198718 -4.91799 0
M  V30 3151 N 292.664 1.56529 -0.183458 0
M  V30 3152 C 293.91 1.98304 0.452466 0
M  V30 3153 C 294.265 1.06799 1.60037 0
M  V30 3154 O 293.558 0.110049 1.91284 0
M  V30 3155 C 293.752 3.43939 0.971637 0
M  V30 3156 C 293.581 4.49528 -0.124425 0
M  V30 3157 C 292.351 5.01981 -0.578168 0
M  V30 3158 C 294.549 5.05836 -0.929207 0
M  V30 3159 N 292.531 5.91219 -1.65327 0
M  V30 3160 C 293.902 5.91632 -1.85396 0
M  V30 3161 C 295.957 4.88302 -0.972929 0
M  V30 3162 C 294.66 6.61768 -2.81878 0
M  V30 3163 C 296.686 5.59168 -1.92574 0
M  V30 3164 C 296.048 6.44701 -2.83795 0
M  V30 3165 H 292.147 0.770551 0.133324 0
M  V30 3166 H 294.731 1.92581 -0.286473 0
M  V30 3167 H 292.902 3.50184 1.68006 0
M  V30 3168 H 294.634 3.72702 1.5772 0
M  V30 3169 H 291.389 4.73282 -0.173639 0
M  V30 3170 H 291.813 6.40543 -2.19167 0
M  V30 3171 H 296.455 4.21861 -0.28168 0
M  V30 3172 H 294.173 7.27415 -3.51984 0
M  V30 3173 H 297.759 5.47582 -1.96583 0
M  V30 3174 H 296.639 6.98573 -3.56322 0
M  V30 3175 N 294.142 -0.090211 1.57342 0
M  V30 3176 C 295.052 -1.12735 2.05738 0
M  V30 3177 C 296.068 -1.43557 0.983231 0
M  V30 3178 O 297.244 -1.54101 1.29672 0
M  V30 3179 C 294.309 -2.42659 2.47624 0
M  V30 3180 C 293.37 -2.18975 3.69254 0
M  V30 3181 C 292.603 -3.42704 4.09133 0
M  V30 3182 O 292.826 -4.51127 3.49057 0
M  V30 3183 O 291.76 -3.32003 5.02053 0
M  V30 3184 H 295.586 -0.746279 2.94388 0
M  V30 3185 H 293.171 -0.303064 1.46294 0
M  V30 3186 H 295.053 -3.19155 2.7517 0
M  V30 3187 H 293.728 -2.80182 1.62109 0
M  V30 3188 H 292.635 -1.40244 3.46818 0
M  V30 3189 H 293.968 -1.86342 4.55563 0
M  V30 3190 N 295.62 -1.53406 -0.361157 0
M  V30 3191 C 296.868 -1.69467 -1.10115 0
M  V30 3192 C 297.189 -0.451352 -1.89705 0
M  V30 3193 O 296.459 0.534636 -1.88463 0
M  V30 3194 H 295.039 -0.624749 -0.409508 0
M  V30 3195 H 297.701 -1.90609 -0.406699 0
M  V30 3196 H 296.797 -2.55774 -1.78847 0
M  V30 3197 N 297.098 0.621204 -1.44841 0
M  V30 3198 C 298.344 1.3826 -1.48365 0
M  V30 3199 C 298.677 1.93831 -0.119624 0
M  V30 3200 O 297.952 1.74251 0.864111 0
M  V30 3201 C 298.235 2.54058 -2.55199 0
M  V30 3202 C 298.088 2.03772 -4.00995 0
M  V30 3203 C 299.407 3.56225 -2.58442 0
M  V30 3204 H 296.526 0.501374 -0.540179 0
M  V30 3205 H 299.168 0.7015 -1.76576 0
M  V30 3206 H 297.318 3.12162 -2.31274 0
M  V30 3207 H 298.99 1.50423 -4.36086 0
M  V30 3208 H 297.233 1.34876 -4.12299 0
M  V30 3209 H 297.904 2.87185 -4.71411 0
M  V30 3210 H 300.38 3.07939 -2.79844 0
M  V30 3211 H 299.256 4.34756 -3.3508 0
M  V30 3212 H 299.517 4.10949 -1.63013 0
M  V30 3213 N 298.576 1.31904 0.862503 0
M  V30 3214 C 299.524 1.20125 1.9918 0
M  V30 3215 C 300.518 0.107824 1.69056 0
M  V30 3216 O 301.724 0.270223 1.7796 0
M  V30 3217 H 298.099 0.372148 0.65346 0
M  V30 3218 H 300.07 2.15652 2.06244 0
M  V30 3219 C 298.819 0.933099 3.34946 0
M  V30 3220 H 298.142 1.76664 3.5865 0
M  V30 3221 H 299.582 0.890892 4.14535 0
M  V30 3222 C 298.041 -0.364172 3.34926 0
M  V30 3223 O 298.571 -1.37858 3.77304 0
M  V30 3224 N 296.777 -0.383362 2.8806 0
M  V30 3225 H 296.324 0.442651 2.53768 0
M  V30 3226 H 296.282 -1.25123 2.8843 0
M  V30 3227 N 300.054 -1.07777 1.14986 0
M  V30 3228 C 301.465 -1.61766 0.932127 0
M  V30 3229 C 301.816 -1.88974 -0.527581 0
M  V30 3230 O 300.941 -1.65198 -1.39781 0
M  V30 3231 C 301.536 -2.93891 1.68563 0
M  V30 3232 C 300.095 -3.44639 1.5133 0
M  V30 3233 C 299.242 -2.18767 1.704 0
M  V30 3234 H 302.193 -0.909201 1.30074 0
M  V30 3235 H 302.214 -3.62623 1.15259 0
M  V30 3236 H 301.726 -2.74057 2.74799 0
M  V30 3237 H 299.827 -3.69564 0.474702 0
M  V30 3238 H 299.94 -4.20966 2.28746 0
M  V30 3239 H 298.304 -2.28253 1.13016 0
M  V30 3240 H 299.087 -2.01433 2.77992 0
M  V30 3241 N 301.532 -0.945985 -1.26051 0
M  V30 3242 C 302.495 -0.463897 -2.24456 0
M  V30 3243 C 303.495 0.427655 -1.55009 0
M  V30 3244 O 304.685 0.226157 -1.72726 0
M  V30 3245 C 301.817 0.330812 -3.39291 0
M  V30 3246 H 303.01 -1.33357 -2.68619 0
M  V30 3247 H 300.563 -0.728416 -1.38289 0
M  V30 3248 H 301.298 1.21852 -3.00537 0
M  V30 3249 H 301.083 -0.308679 -3.90883 0
M  V30 3250 H 302.573 0.657865 -4.12386 0
M  V30 3251 N 303.011 1.40521 -0.713556 0
M  V30 3252 C 304.422 1.83853 -0.324807 0
M  V30 3253 C 304.773 1.59667 1.14021 0
M  V30 3254 O 303.898 1.07649 1.87725 0
M  V30 3255 C 304.493 3.33751 -0.582746 0
M  V30 3256 C 303.052 3.75584 -0.247727 0
M  V30 3257 C 302.199 2.63753 -0.856121 0
M  V30 3258 H 305.15 1.29817 -0.91286 0
M  V30 3259 H 305.171 3.80194 0.152682 0
M  V30 3260 H 304.683 3.51322 -1.64908 0
M  V30 3261 H 302.784 3.63608 0.813624 0
M  V30 3262 H 302.897 4.7373 -0.715307 0
M  V30 3263 H 301.261 2.53108 -0.28432 0
M  V30 3264 H 302.044 2.84137 -1.92668 0
M  V30 3265 N 304.489 0.459591 1.5075 0
M  V30 3266 C 305.9 0.00171547 1.867 0
M  V30 3267 C 306.251 -1.39934 1.37525 0
M  V30 3268 O 305.376 -2.03523 0.735349 0
M  V30 3269 C 305.971 -0.00366298 3.388 0
M  V30 3270 C 304.53 -0.406026 3.74204 0
M  V30 3271 C 303.677 0.38673 2.7459 0
M  V30 3272 H 306.628 0.674413 1.43657 0
M  V30 3273 H 306.649 -0.808371 3.71814 0
M  V30 3274 H 306.161 1.01617 3.74561 0
M  V30 3275 H 304.262 -1.43063 3.4404 0
M  V30 3276 H 304.375 -0.115362 4.78961 0
M  V30 3277 H 302.739 -0.158019 2.54209 0
M  V30 3278 H 303.522 1.40585 3.13194 0
M  V30 3279 N 305.967 -1.56429 0.191757 0
M  V30 3280 C 306.877 -2.22541 -0.742481 0
M  V30 3281 C 307.893 -1.22342 -1.23727 0
M  V30 3282 O 309.069 -1.55069 -1.28513 0
M  V30 3283 C 306.134 -2.8692 -1.94623 0
M  V30 3284 C 305.195 -4.02378 -1.49633 0
M  V30 3285 C 304.428 -4.63678 -2.6427 0
M  V30 3286 O 304.651 -4.23895 -3.81666 0
M  V30 3287 O 303.585 -5.53202 -2.37174 0
M  V30 3288 H 307.411 -3.02977 -0.209462 0
M  V30 3289 H 304.996 -1.49353 -0.0373832 0
M  V30 3290 H 306.878 -3.27663 -2.64982 0
M  V30 3291 H 305.553 -2.09466 -2.46791 0
M  V30 3292 H 304.46 -3.66265 -0.761636 0
M  V30 3293 H 305.793 -4.81487 -1.02134 0
M  V30 3294 N 307.445 0.0818655 -1.57387 0
M  V30 3295 C 308.375 1.09885 -2.06028 0
M  V30 3296 C 309.356 1.4098 -0.951774 0
M  V30 3297 O 310.541 1.50781 -1.22387 0
M  V30 3298 C 307.671 2.4151 -2.4958 0
M  V30 3299 C 306.625 2.24792 -3.64215 0
M  V30 3300 C 305.951 3.61712 -3.93787 0
M  V30 3301 C 307.251 1.67749 -4.94629 0
M  V30 3302 H 308.945 0.694128 -2.91243 0
M  V30 3303 H 306.491 0.332448 -1.4011 0
M  V30 3304 H 308.444 3.12939 -2.82219 0
M  V30 3305 H 307.168 2.83943 -1.61381 0
M  V30 3306 H 305.827 1.55807 -3.31843 0
M  V30 3307 H 305.475 4.01697 -3.02735 0
M  V30 3308 H 305.175 3.51368 -4.70971 0
M  V30 3309 H 306.699 4.34587 -4.28913 0
M  V30 3310 H 308.113 2.29032 -5.25564 0
M  V30 3311 H 306.51 1.68128 -5.76067 0
M  V30 3312 H 307.58 0.638059 -4.80684 0
M  V30 3313 N 308.923 1.53595 0.353017 0
M  V30 3314 C 310.169 1.71581 1.09232 0
M  V30 3315 C 310.524 0.468328 1.86613 0
M  V30 3316 O 309.817 -0.538911 1.83865 0
M  V30 3317 C 310.011 2.91313 2.07054 0
M  V30 3318 C 309.84 4.27585 1.39287 0
M  V30 3319 C 308.61 4.92233 1.1417 0
M  V30 3320 C 310.808 5.07656 0.824005 0
M  V30 3321 N 308.79 6.124 0.428841 0
M  V30 3322 C 310.161 6.19531 0.241195 0
M  V30 3323 C 312.216 4.92609 0.723922 0
M  V30 3324 C 310.919 7.18002 -0.431952 0
M  V30 3325 C 312.945 5.91365 0.0645334 0
M  V30 3326 C 312.307 7.02571 -0.507347 0
M  V30 3327 H 308.406 0.680987 0.384422 0
M  V30 3328 H 310.99 1.91013 0.377096 0
M  V30 3329 H 309.161 2.73398 2.75877 0
M  V30 3330 H 310.893 2.98062 2.73753 0
M  V30 3331 H 307.648 4.51612 1.42631 0
M  V30 3332 H 308.072 6.76944 0.0874131 0
M  V30 3333 H 312.714 4.06808 1.15181 0
M  V30 3334 H 310.432 8.03384 -0.871758 0
M  V30 3335 H 314.018 5.81799 -0.0121469 0
M  V30 3336 H 312.898 7.77675 -1.0095 0
M  V30 3337 N 310.401 -0.613514 1.45168 0
M  V30 3338 C 311.817 -0.933629 1.29443 0
M  V30 3339 C 312.017 -2.00028 0.243101 0
M  V30 3340 O 311.073 -2.49848 -0.364992 0
M  V30 3341 C 312.386 -1.38018 2.67155 0
M  V30 3342 C 313.934 -1.49471 2.75004 0
M  V30 3343 C 314.409 -1.97503 4.13227 0
M  V30 3344 N 315.9 -2.04746 4.15491 0
M  V30 3345 C 316.635 -2.43121 5.19307 0
M  V30 3346 N 316.131 -2.80506 6.33473 0
M  V30 3347 N 317.924 -2.43408 5.06664 0
M  V30 3348 H 310.075 0.0916097 2.12202 0
M  V30 3349 H 312.338 -0.0216655 0.947752 0
M  V30 3350 H 312.044 -0.670625 3.45247 0
M  V30 3351 H 311.918 -2.34784 2.95222 0
M  V30 3352 H 314.305 -2.19519 1.9722 0
M  V30 3353 H 314.386 -0.510342 2.50657 0
M  V30 3354 H 314.03 -1.28045 4.91495 0
M  V30 3355 H 313.96 -2.96843 4.34962 0
M  V30 3356 H 316.451 -1.78468 3.33103 0
M  V30 3357 H 316.764 -3.08652 7.08487 0
M  V30 3358 H 315.109 -2.78216 6.36884 0
M  V30 3359 H 318.3 -2.13604 4.16523 0
M  V30 3360 H 318.473 -2.72989 5.87691 0
M  V30 3361 N 311.879 -1.3236 -0.855495 0
M  V30 3362 C 312.809 -1.23833 -1.97958 0
M  V30 3363 C 313.79 -0.122361 -1.69659 0
M  V30 3364 O 314.975 -0.30939 -1.9172 0
M  V30 3365 C 312.105 -0.959772 -3.33775 0
M  V30 3366 C 311.059 -2.03689 -3.76424 0
M  V30 3367 C 310.385 -1.61075 -5.09862 0
M  V30 3368 C 311.685 -3.4518 -3.9198 0
M  V30 3369 H 313.379 -2.1788 -2.0535 0
M  V30 3370 H 310.925 -1.04891 -0.986605 0
M  V30 3371 H 312.878 -0.886678 -4.11966 0
M  V30 3372 H 311.602 0.0163404 -3.26596 0
M  V30 3373 H 310.261 -2.10012 -3.00484 0
M  V30 3374 H 309.909 -0.622107 -4.99138 0
M  V30 3375 H 309.609 -2.33143 -5.39368 0
M  V30 3376 H 311.133 -1.55201 -5.90546 0
M  V30 3377 H 312.547 -3.4145 -4.60526 0
M  V30 3378 H 310.944 -4.1559 -4.32903 0
M  V30 3379 H 312.014 -3.84903 -2.94919 0
M  V30 3380 N 313.357 1.07166 -1.15556 0
M  V30 3381 C 314.768 1.6127 -0.940693 0
M  V30 3382 C 315.119 1.89251 0.517551 0
M  V30 3383 O 314.244 1.65937 1.38903 0
M  V30 3384 C 314.839 2.92993 -1.7012 0
M  V30 3385 C 313.398 3.43832 -1.53156 0
M  V30 3386 C 312.545 2.1786 -1.71558 0
M  V30 3387 H 315.496 0.90229 -1.30554 0
M  V30 3388 H 315.517 3.62007 -1.17181 0
M  V30 3389 H 315.029 2.72596 -2.76248 0
M  V30 3390 H 313.13 3.69307 -0.494294 0
M  V30 3391 H 313.243 4.19747 -2.30975 0
M  V30 3392 H 311.607 2.2765 -1.14225 0
M  V30 3393 H 312.39 1.99956 -2.79056 0
M  V30 3394 N 314.835 0.952656 1.25548 0
M  V30 3395 C 316.065 0.622592 1.96996 0
M  V30 3396 C 316.473 -0.809112 1.71026 0
M  V30 3397 O 315.816 -1.55258 0.981861 0
M  V30 3398 C 315.878 0.798946 3.5051 0
M  V30 3399 C 315.542 2.20744 4.00151 0
M  V30 3400 C 316.539 3.18394 4.11001 0
M  V30 3401 C 314.224 2.5311 4.33867 0
M  V30 3402 C 316.218 4.46504 4.54877 0
M  V30 3403 C 313.905 3.8145 4.7743 0
M  V30 3404 C 314.903 4.77959 4.87897 0
M  V30 3405 O 314.591 6.04012 5.30494 0
M  V30 3406 H 314.323 0.232503 0.634758 0
M  V30 3407 H 316.877 1.2789 1.60728 0
M  V30 3408 H 315.107 0.0854903 3.86605 0
M  V30 3409 H 316.796 0.47023 4.03167 0
M  V30 3410 H 317.562 2.94715 3.85186 0
M  V30 3411 H 313.441 1.78719 4.24948 0
M  V30 3412 H 316.985 5.21835 4.62962 0
M  V30 3413 H 312.882 4.04936 5.0269 0
M  V30 3414 H 313.65 6.0736 5.48685 0
M  V30 3415 N 316.313 -1.40141 0.720998 0
M  V30 3416 C 317.559 -2.01572 0.272075 0
M  V30 3417 C 317.914 -1.5616 -1.12391 0
M  V30 3418 O 317.207 -0.774198 -1.75262 0
M  V30 3419 C 317.401 -3.56165 0.296892 0
M  V30 3420 C 317.23 -4.16584 1.69375 0
M  V30 3421 C 316 -4.49783 2.30269 0
M  V30 3422 C 318.198 -4.41076 2.64493 0
M  V30 3423 N 316.18 -4.95626 3.62254 0
M  V30 3424 C 317.551 -4.88971 3.81192 0
M  V30 3425 C 319.606 -4.23122 2.62435 0
M  V30 3426 C 318.309 -5.20796 4.96149 0
M  V30 3427 C 320.335 -4.56052 3.76524 0
M  V30 3428 C 319.697 -5.04141 4.91956 0
M  V30 3429 H 315.796 -0.768343 0.145511 0
M  V30 3430 H 318.38 -1.70287 0.943959 0
M  V30 3431 H 316.551 -3.86868 -0.344578 0
M  V30 3432 H 318.283 -4.04346 -0.169254 0
M  V30 3433 H 315.038 -4.37101 1.82318 0
M  V30 3434 H 315.462 -5.22923 4.29977 0
M  V30 3435 H 320.104 -3.85158 1.74393 0
M  V30 3436 H 317.822 -5.57672 5.84831 0
M  V30 3437 H 321.408 -4.43796 3.76213 0
M  V30 3438 H 320.288 -5.29142 5.78774 0
M  V30 3439 N 317.792 -0.46758 -1.50504 0
M  V30 3440 C 318.722 0.318381 -2.31319 0
M  V30 3441 C 319.703 0.993564 -1.38066 0
M  V30 3442 O 320.888 0.991411 -1.66987 0
M  V30 3443 C 318.018 1.40275 -3.17711 0
M  V30 3444 C 316.972 0.849373 -4.19487 0
M  V30 3445 C 316.298 2.03177 -4.94594 0
M  V30 3446 C 317.598 -0.136942 -5.2212 0
M  V30 3447 H 319.292 -0.356106 -2.97275 0
M  V30 3448 H 316.838 -0.172703 -1.42961 0
M  V30 3449 H 318.791 1.96004 -3.73042 0
M  V30 3450 H 317.515 2.10596 -2.49634 0
M  V30 3451 H 316.174 0.314076 -3.65252 0
M  V30 3452 H 315.822 2.72187 -4.22993 0
M  V30 3453 H 315.522 1.66774 -5.63436 0
M  V30 3454 H 317.046 2.59403 -5.52759 0
M  V30 3455 H 318.46 0.331056 -5.72343 0
M  V30 3456 H 316.857 -0.41507 -5.98663 0
M  V30 3457 H 317.927 -1.06398 -4.73083 0
M  V30 3458 N 319.27 1.56325 -0.20005 0
M  V30 3459 C 320.681 1.8408 0.31167 0
M  V30 3460 C 321.032 1.12087 1.61031 0
M  V30 3461 O 320.157 0.38332 2.12978 0
M  V30 3462 C 320.752 3.33932 0.57226 0
M  V30 3463 C 319.311 3.6208 1.02834 0
M  V30 3464 C 318.458 2.77186 0.079634 0
M  V30 3465 H 321.409 1.52939 -0.423729 0
M  V30 3466 H 321.43 3.52971 1.42096 0
M  V30 3467 H 320.942 3.86303 -0.37308 0
M  V30 3468 H 319.043 3.15147 1.98778 0
M  V30 3469 H 319.156 4.7023 0.917624 0
M  V30 3470 H 317.52 2.47951 0.582448 0
M  V30 3471 H 318.303 3.32347 -0.860238 0
M  V30 3472 N 320.748 -0.0735177 1.57428 0
M  V30 3473 C 321.997 -0.771809 1.86349 0
M  V30 3474 C 322.31 -1.78828 0.792452 0
M  V30 3475 O 323.516 -2.53602 0.96945 0
M  V30 3476 C 321.972 -1.42358 3.30548 0
M  V30 3477 C 321.58 -0.445761 4.45777 0
M  V30 3478 C 323.324 -2.10434 3.6867 0
M  V30 3479 C 321.231 -1.10335 5.81016 0
M  V30 3480 H 320.161 -0.291999 0.695164 0
M  V30 3481 H 322.812 -0.0250749 1.83483 0
M  V30 3482 H 321.194 -2.21852 3.28021 0
M  V30 3483 H 322.368 0.319239 4.59693 0
M  V30 3484 H 320.683 0.130457 4.16196 0
M  V30 3485 H 323.28 -2.60405 4.67004 0
M  V30 3486 H 323.623 -2.90298 2.98383 0
M  V30 3487 H 324.156 -1.37773 3.7318 0
M  V30 3488 H 320.895 -0.345061 6.54591 0
M  V30 3489 H 320.415 -1.83925 5.70904 0
M  V30 3490 H 322.094 -1.62367 6.26295 0
M  V30 3491 N 322.226 -1.5378 -0.344866 0
M  V30 3492 C 323.176 -1.78057 -1.42407 0
M  V30 3493 C 324.16 -0.635732 -1.47808 0
M  V30 3494 O 325.352 -0.89508 -1.527 0
M  V30 3495 C 322.481 -1.99242 -2.79566 0
M  V30 3496 C 321.567 -3.19787 -2.78562 0
M  V30 3497 N 321.958 -4.41284 -2.47189 0
M  V30 3498 C 320.256 -3.2093 -3.0971 0
M  V30 3499 C 320.957 -5.23128 -2.54385 0
M  V30 3500 N 319.933 -4.59813 -2.89953 0
M  V30 3501 H 323.735 -2.69588 -1.17046 0
M  V30 3502 H 321.249 -1.52687 -0.553217 0
M  V30 3503 H 323.246 -2.14768 -3.57324 0
M  V30 3504 H 321.906 -1.08953 -3.05875 0
M  V30 3505 H 322.917 -4.68657 -2.20411 0
M  V30 3506 H 319.594 -2.40603 -3.41199 0
M  V30 3507 H 320.984 -6.30096 -2.333 0
M  V30 3508 N 323.704 0.605807 -1.45491 0
M  V30 3509 C 325.115 1.18777 -1.44045 0
M  V30 3510 C 325.466 1.95471 -0.169001 0
M  V30 3511 O 324.591 2.0374 0.729324 0
M  V30 3512 C 325.186 2.16064 -2.60963 0
M  V30 3513 C 323.745 2.69633 -2.62631 0
M  V30 3514 C 322.892 1.45072 -2.36325 0
M  V30 3515 H 325.843 0.395017 -1.53705 0
M  V30 3516 H 325.864 2.9913 -2.35163 0
M  V30 3517 H 325.376 1.60217 -3.53486 0
M  V30 3518 H 323.477 3.29414 -1.74119 0
M  V30 3519 H 323.59 3.13944 -3.61906 0
M  V30 3520 H 321.954 1.74089 -1.85917 0
M  V30 3521 H 322.737 0.910899 -3.30995 0
M  V30 3522 N 325.182 1.32811 0.848464 0
M  V30 3523 C 326.145 1.22194 1.9391 0
M  V30 3524 C 327.145 0.143404 1.60159 0
M  V30 3525 O 328.335 0.394253 1.6968 0
M  V30 3526 C 325.467 0.88067 3.29328 0
M  V30 3527 H 326.66 2.19127 2.04752 0
M  V30 3528 H 324.213 1.16731 1.0394 0
M  V30 3529 H 324.948 -0.0865776 3.24184 0
M  V30 3530 H 324.733 1.66052 3.55203 0
M  V30 3531 H 326.223 0.830871 4.09251 0
M  V30 3532 N 326.66 -1.06551 1.16123 0
M  V30 3533 C 327.607 -2.13961 0.865414 0
M  V30 3534 C 328.577 -1.65066 -0.185055 0
M  V30 3535 O 329.762 -1.90732 -0.05083 0
M  V30 3536 C 326.902 -3.43113 0.369776 0
M  V30 3537 C 326.015 -4.05756 1.48276 0
M  V30 3538 C 325.15 -5.22773 0.942414 0
M  V30 3539 C 324.189 -5.77395 2.03179 0
M  V30 3540 N 323.326 -6.85731 1.50721 0
M  V30 3541 H 328.166 -2.38605 1.78527 0
M  V30 3542 H 325.703 -1.17072 0.890646 0
M  V30 3543 H 327.661 -4.17151 0.0640643 0
M  V30 3544 H 326.291 -3.18695 -0.513143 0
M  V30 3545 H 325.343 -3.29292 1.9045 0
M  V30 3546 H 326.655 -4.42351 2.30493 0
M  V30 3547 H 325.809 -6.03827 0.589729 0
M  V30 3548 H 324.548 -4.87618 0.0895191 0
M  V30 3549 H 323.553 -4.94981 2.3932 0
M  V30 3550 H 324.778 -6.14603 2.8886 0
M  V30 3551 H 322.724 -6.52499 0.676811 0
M  V30 3552 H 322.641 -7.21254 2.26557 0
M  V30 3553 H 323.909 -7.7047 1.18303 0
M  V30 3554 N 328.138 -0.959301 -1.25041 0
M  V30 3555 C 329.384 -0.627096 -1.93492 0
M  V30 3556 C 329.739 0.827484 -1.73696 0
M  V30 3557 O 329.032 1.58651 -1.07427 0
M  V30 3558 C 329.226 -0.927136 -3.45165 0
M  V30 3559 C 329.055 -2.40933 -3.79712 0
M  V30 3560 C 327.825 -3.0677 -4.01522 0
M  V30 3561 C 330.023 -3.38894 -3.86853 0
M  V30 3562 N 328.005 -4.44815 -4.231 0
M  V30 3563 C 329.376 -4.62263 -4.13174 0
M  V30 3564 C 331.431 -3.33668 -3.69554 0
M  V30 3565 C 330.134 -5.81052 -4.23995 0
M  V30 3566 C 332.16 -4.518 -3.81616 0
M  V30 3567 C 331.522 -5.73957 -4.08354 0
M  V30 3568 H 327.621 -0.280166 -0.73009 0
M  V30 3569 H 330.205 -1.23244 -1.50729 0
M  V30 3570 H 328.376 -0.350685 -3.86814 0
M  V30 3571 H 330.108 -0.554361 -4.00885 0
M  V30 3572 H 326.863 -2.57327 -3.97593 0
M  V30 3573 H 327.287 -5.16319 -4.37885 0
M  V30 3574 H 331.929 -2.40268 -3.47895 0
M  V30 3575 H 329.647 -6.74888 -4.44468 0
M  V30 3576 H 333.233 -4.49309 -3.69612 0
M  V30 3577 H 332.113 -6.6384 -4.17475 0
M  V30 3578 N 329.616 1.39756 -0.72842 0
M  V30 3579 C 330.862 2.01425 -0.282761 0
M  V30 3580 C 331.217 1.56754 1.11561 0
M  V30 3581 O 330.51 0.783482 1.74849 0
M  V30 3582 C 330.704 3.56002 -0.315776 0
M  V30 3583 C 330.533 4.1568 -1.71582 0
M  V30 3584 C 329.303 4.48555 -2.32651 0
M  V30 3585 C 331.501 4.39667 -2.66829 0
M  V30 3586 N 329.483 4.93698 -3.64877 0
M  V30 3587 C 330.854 4.86942 -3.8378 0
M  V30 3588 C 332.909 4.21724 -2.64675 0
M  V30 3589 C 331.612 5.18158 -4.98904 0
M  V30 3590 C 333.638 4.54049 -3.78937 0
M  V30 3591 C 333 5.01525 -4.94623 0
M  V30 3592 H 329.099 0.76756 -0.149583 0
M  V30 3593 H 331.683 1.69784 -0.952976 0
M  V30 3594 H 329.854 3.87046 0.324057 0
M  V30 3595 H 331.586 4.0443 0.147808 0
M  V30 3596 H 328.341 4.36128 -1.84633 0
M  V30 3597 H 328.765 5.20635 -4.32744 0
M  V30 3598 H 333.407 3.84228 -1.76433 0
M  V30 3599 H 331.125 5.54562 -5.87781 0
M  V30 3600 H 334.711 4.41795 -3.78561 0
M  V30 3601 H 333.591 5.26065 -5.81572 0
M  V30 3602 N 331.094 0.475555 1.50254 0
M  V30 3603 C 332.34 -0.0780073 2.0265 0
M  V30 3604 C 332.673 -1.38968 1.35652 0
M  V30 3605 O 331.948 -1.8839 0.483691 0
M  V30 3606 C 332.231 -0.257161 3.59181 0
M  V30 3607 C 332.084 1.07585 4.36744 0
M  V30 3608 C 333.403 -1.00965 4.28362 0
M  V30 3609 H 330.522 -0.0268758 0.73651 0
M  V30 3610 H 333.164 0.622015 1.7953 0
M  V30 3611 H 331.314 -0.853412 3.79011 0
M  V30 3612 H 332.986 1.70902 4.28474 0
M  V30 3613 H 331.229 1.6714 4.00308 0
M  V30 3614 H 331.9 0.904088 5.44546 0
M  V30 3615 H 334.376 -0.504214 4.13034 0
M  V30 3616 H 333.252 -1.10381 5.37687 0
M  V30 3617 H 333.513 -2.04731 3.91839 0
M  V30 3618 N 332.573 -1.56217 0.208337 0
M  V30 3619 C 333.523 -2.16324 -0.720281 0
M  V30 3620 C 334.507 -1.10775 -1.16695 0
M  V30 3621 O 335.699 -1.36801 -1.12314 0
M  V30 3622 C 332.828 -2.83644 -1.93393 0
M  V30 3623 C 331.914 -3.96401 -1.50755 0
M  V30 3624 N 332.305 -4.99546 -0.792937 0
M  V30 3625 C 330.603 -4.08246 -1.79585 0
M  V30 3626 C 331.304 -5.78828 -0.577364 0
M  V30 3627 N 330.28 -5.31723 -1.1301 0
M  V30 3628 H 334.082 -2.93432 -0.165725 0
M  V30 3629 H 331.596 -1.62397 0.00906463 0
M  V30 3630 H 333.593 -3.25107 -2.60981 0
M  V30 3631 H 332.253 -2.08027 -2.49308 0
M  V30 3632 H 333.264 -5.15967 -0.447004 0
M  V30 3633 H 329.941 -3.4377 -2.36915 0
M  V30 3634 H 331.331 -6.71899 -0.00952956 0
M  V30 3635 N 334.051 0.0651679 -1.57465 0
M  V30 3636 C 335.279 0.775808 -1.91804 0
M  V30 3637 C 335.694 1.70782 -0.804916 0
M  V30 3638 O 335.051 1.81153 0.221311 0
M  V30 3639 C 335.102 1.56381 -3.25925 0
M  V30 3640 O 334.823 0.669248 -4.32958 0
M  V30 3641 C 336.324 2.37485 -3.7432 0
M  V30 3642 H 333.544 0.2202 -0.63384 0
M  V30 3643 H 336.088 0.0334587 -2.04473 0
M  V30 3644 H 334.243 2.25837 -3.14764 0
M  V30 3645 H 334.657 1.21801 -5.10162 0
M  V30 3646 H 336.131 2.88223 -4.70778 0
M  V30 3647 H 336.608 3.17307 -3.03666 0
M  V30 3648 H 337.214 1.73173 -3.88447 0
M  V30 3649 N 335.529 1.53961 0.336706 0
M  V30 3650 C 336.945 1.44378 0.680241 0
M  V30 3651 C 337.145 0.606034 1.9217 0
M  V30 3652 O 336.201 0.099688 2.52303 0
M  V30 3653 C 337.514 2.87945 0.8665 0
M  V30 3654 C 339.062 2.97763 0.964682 0
M  V30 3655 C 339.537 4.42453 1.18321 0
M  V30 3656 N 341.028 4.46008 1.25025 0
M  V30 3657 C 341.763 5.55102 1.43697 0
M  V30 3658 N 341.259 6.7419 1.59498 0
M  V30 3659 N 343.052 5.42727 1.463 0
M  V30 3660 H 335.203 2.06918 -0.479455 0
M  V30 3661 H 337.466 0.935634 -0.152619 0
M  V30 3662 H 337.172 3.51691 0.0256937 0
M  V30 3663 H 337.046 3.33293 1.76623 0
M  V30 3664 H 339.433 2.34153 1.796 0
M  V30 3665 H 339.514 2.55766 0.041708 0
M  V30 3666 H 339.158 5.06645 0.356788 0
M  V30 3667 H 339.088 4.82048 2.11985 0
M  V30 3668 H 341.579 3.60196 1.14312 0
M  V30 3669 H 341.892 7.53095 1.734 0
M  V30 3670 H 340.237 6.77123 1.56621 0
M  V30 3671 H 343.428 4.48647 1.33543 0
M  V30 3672 H 343.601 6.27806 1.6051 0
M  V30 3673 N 337.007 -0.598083 1.45811 0
M  V30 3674 C 337.97 -1.69018 1.54808 0
M  V30 3675 C 338.97 -1.55037 0.426652 0
M  V30 3676 O 340.16 -1.59932 0.690456 0
M  V30 3677 C 337.292 -3.0835 1.45371 0
M  V30 3678 H 338.485 -1.62403 2.52121 0
M  V30 3679 H 336.038 -0.814626 1.33392 0
M  V30 3680 H 336.773 -3.20534 0.492793 0
M  V30 3681 H 336.558 -3.19907 2.26721 0
M  V30 3682 H 338.048 -3.8788 1.54721 0
M  V30 3683 N 338.485 -1.33259 -0.841409 0
M  V30 3684 C 339.734 -1.23921 -1.59143 0
M  V30 3685 C 340.047 0.1941 -1.94635 0
M  V30 3686 O 341.253 0.409474 -2.68394 0
M  V30 3687 C 339.709 -2.17119 -2.87032 0
M  V30 3688 C 339.317 -3.65606 -2.58914 0
M  V30 3689 C 341.061 -2.16648 -3.65053 0
M  V30 3690 C 338.968 -4.50726 -3.82884 0
M  V30 3691 H 337.898 -0.460264 -0.597221 0
M  V30 3692 H 340.549 -1.58307 -0.927959 0
M  V30 3693 H 338.931 -1.75663 -3.54906 0
M  V30 3694 H 340.105 -4.15487 -1.99267 0
M  V30 3695 H 338.42 -3.68341 -1.942 0
M  V30 3696 H 341.017 -2.77474 -4.57069 0
M  V30 3697 H 341.36 -1.16088 -3.99787 0
M  V30 3698 H 341.893 -2.56453 -3.041 0
M  V30 3699 H 338.632 -5.52151 -3.53283 0
M  V30 3700 H 338.152 -4.0559 -4.41879 0
M  V30 3701 H 339.831 -4.64401 -4.50489 0
M  V30 3702 N 339.963 1.05934 -1.16686 0
M  V30 3703 C 341.193 1.82226 -0.973515 0
M  V30 3704 C 341.601 1.8297 0.481532 0
M  V30 3705 O 340.944 1.25009 1.34604 0
M  V30 3706 C 341.006 3.29897 -1.42858 0
M  V30 3707 C 340.67 3.52849 -2.90425 0
M  V30 3708 C 341.667 3.45595 -3.88407 0
M  V30 3709 C 339.352 3.80053 -3.28428 0
M  V30 3710 C 341.346 3.65217 -5.22394 0
M  V30 3711 C 339.033 3.99325 -4.62583 0
M  V30 3712 C 340.031 3.91905 -5.59374 0
M  V30 3713 O 339.719 4.10647 -6.91104 0
M  V30 3714 H 339.451 0.581314 -0.345036 0
M  V30 3715 H 342.005 1.3453 -1.55212 0
M  V30 3716 H 340.235 3.78472 -0.793477 0
M  V30 3717 H 341.924 3.87692 -1.20207 0
M  V30 3718 H 342.69 3.24564 -3.60393 0
M  V30 3719 H 338.569 3.84936 -2.53664 0
M  V30 3720 H 342.113 3.59341 -5.9793 0
M  V30 3721 H 338.01 4.19846 -4.90306 0
M  V30 3722 H 338.778 4.27915 -6.97733 0
M  V30 3723 N 341.441 0.965919 1.2453 0
M  V30 3724 C 342.371 0.513476 2.27784 0
M  V30 3725 C 343.352 -0.445974 1.6415 0
M  V30 3726 O 344.537 -0.342485 1.91156 0
M  V30 3727 C 341.667 -0.198839 3.4673 0
M  V30 3728 C 340.621 0.676456 4.2262 0
M  V30 3729 C 339.947 -0.167248 5.34438 0
M  V30 3730 C 341.247 1.96017 4.84123 0
M  V30 3731 H 342.941 1.3765 2.65881 0
M  V30 3732 H 340.487 0.663321 1.27813 0
M  V30 3733 H 342.44 -0.526567 4.18097 0
M  V30 3734 H 341.164 -1.0962 3.07654 0
M  V30 3735 H 339.823 0.98743 3.53052 0
M  V30 3736 H 339.471 -1.0647 4.91603 0
M  V30 3737 H 339.171 0.415181 5.86131 0
M  V30 3738 H 340.695 -0.489688 6.08633 0
M  V30 3739 H 342.109 1.69814 5.47573 0
M  V30 3740 H 340.506 2.48918 5.4604 0
M  V30 3741 H 341.576 2.65622 4.05676 0
M  V30 3742 N 342.919 -1.39368 0.735821 0
M  V30 3743 C 344.33 -1.83313 0.354015 0
M  V30 3744 C 344.681 -1.61461 -1.11466 0
M  V30 3745 O 343.806 -1.10621 -1.85989 0
M  V30 3746 C 344.401 -3.32781 0.635769 0
M  V30 3747 C 342.96 -3.75142 0.307448 0
M  V30 3748 C 342.107 -2.62358 0.897974 0
M  V30 3749 H 345.058 -1.28349 0.933398 0
M  V30 3750 H 345.079 -3.80388 -0.0921773 0
M  V30 3751 H 344.591 -3.48654 1.70476 0
M  V30 3752 H 342.692 -3.64857 -0.755674 0
M  V30 3753 H 342.805 -4.72532 0.790583 0
M  V30 3754 H 341.169 -2.52624 0.324551 0
M  V30 3755 H 341.952 -2.81036 1.97164 0
M  V30 3756 N 344.397 -0.483516 -1.5 0
M  V30 3757 C 345.327 0.293829 -2.31644 0
M  V30 3758 C 346.308 0.978864 -1.39112 0
M  V30 3759 O 347.493 0.973644 -1.68029 0
M  V30 3760 C 344.623 1.36897 -3.19181 0
M  V30 3761 C 343.577 0.804833 -4.20365 0
M  V30 3762 C 342.903 1.9792 -4.96721 0
M  V30 3763 C 344.203 -0.192313 -5.21946 0
M  V30 3764 H 345.897 -0.387616 -2.9688 0
M  V30 3765 H 343.443 -0.187856 -1.42769 0
M  V30 3766 H 345.396 1.92037 -3.751 0
M  V30 3767 H 344.12 2.07936 -2.51853 0
M  V30 3768 H 342.779 0.275319 -3.65565 0
M  V30 3769 H 342.427 2.67686 -4.25856 0
M  V30 3770 H 342.127 1.60789 -5.65173 0
M  V30 3771 H 343.651 2.53526 -5.55479 0
M  V30 3772 H 345.065 0.270333 -5.72662 0
M  V30 3773 H 343.462 -0.478543 -5.98189 0
M  V30 3774 H 344.532 -1.11409 -4.71928 0
M  V30 3775 N 345.875 1.56104 -0.216619 0
M  V30 3776 C 347.123 1.97781 0.415593 0
M  V30 3777 C 347.444 1.10536 1.60645 0
M  V30 3778 O 346.714 0.181303 1.95059 0
M  V30 3779 H 345.294 0.730415 0.156534 0
M  V30 3780 H 347.956 1.92445 -0.308366 0
M  V30 3781 H 347.052 3.03072 0.74525 0
M  V30 3782 N 347.353 -0.0568162 1.57498 0
M  V30 3783 C 348.583 -0.764515 1.91934 0
M  V30 3784 C 348.991 -1.70877 0.81227 0
M  V30 3785 O 348.334 -1.82351 -0.222213 0
M  V30 3786 C 348.396 -1.5994 3.21962 0
M  V30 3787 C 348.06 -0.822925 4.4953 0
M  V30 3788 C 349.057 -0.135464 5.19723 0
M  V30 3789 C 346.742 -0.785666 4.96117 0
M  V30 3790 C 348.736 0.578861 6.34766 0
M  V30 3791 C 346.423 -0.0675784 6.11063 0
M  V30 3792 C 347.421 0.613471 6.80239 0
M  V30 3793 O 347.109 1.31996 7.92989 0
M  V30 3794 H 346.841 -0.221647 0.63863 0
M  V30 3795 H 349.395 -0.0268218 2.05382 0
M  V30 3796 H 347.625 -2.38026 3.04763 0
M  V30 3797 H 349.314 -2.18715 3.41934 0
M  V30 3798 H 350.08 -0.155458 4.84751 0
M  V30 3799 H 345.959 -1.30524 4.42136 0
M  V30 3800 H 349.503 1.111 6.88696 0
M  V30 3801 H 345.4 -0.0455636 6.45484 0
M  V30 3802 H 346.168 1.23077 8.09194 0
M  V30 3803 N 348.832 -1.54138 -0.328536 0
M  V30 3804 C 350.06 -1.76062 -1.08673 0
M  V30 3805 C 350.475 -0.506852 -1.81869 0
M  V30 3806 O 349.832 0.522223 -1.74869 0
M  V30 3807 C 349.883 -2.95054 -2.08866 0
M  V30 3808 O 349.604 -4.15583 -1.38644 0
M  V30 3809 C 351.105 -3.2915 -2.96943 0
M  V30 3810 H 348.325 -0.587889 -0.323461 0
M  V30 3811 H 350.869 -2.0101 -0.376175 0
M  V30 3812 H 349.024 -2.72394 -2.75464 0
M  V30 3813 H 349.438 -4.82481 -2.05699 0
M  V30 3814 H 350.912 -4.15723 -3.63151 0
M  V30 3815 H 351.389 -2.461 -3.63774 0
M  V30 3816 H 351.995 -3.53871 -2.35914 0
M  V30 3817 N 350.31 0.590341 -1.46126 0
M  V30 3818 C 351.535 1.37991 -1.54833 0
M  V30 3819 C 351.96 1.87163 -0.187506 0
M  V30 3820 O 351.318 1.61133 0.831008 0
M  V30 3821 C 351.366 2.54867 -2.55098 0
M  V30 3822 O 350.47 3.56061 -2.08073 0
M  V30 3823 H 349.811 0.411265 -0.521303 0
M  V30 3824 H 352.341 0.716819 -1.91632 0
M  V30 3825 H 352.351 3.01886 -2.74461 0
M  V30 3826 H 351.026 2.18429 -3.53923 0
M  V30 3827 H 349.603 3.15574 -1.98664 0
M  V30 3828 N 351.788 1.33704 0.83433 0
M  V30 3829 C 352.751 1.24244 1.92603 0
M  V30 3830 C 353.751 0.160383 1.59998 0
M  V30 3831 O 354.941 0.412228 1.69252 0
M  V30 3832 C 352.073 0.91555 3.28376 0
M  V30 3833 H 353.266 2.21287 2.02416 0
M  V30 3834 H 350.819 1.17827 1.02696 0
M  V30 3835 H 351.554 -0.0521886 3.24258 0
M  V30 3836 H 351.339 1.69811 3.53422 0
M  V30 3837 H 352.829 0.874231 4.08347 0
M  V30 3838 N 353.266 -1.05314 1.17247 0
M  V30 3839 C 354.214 -2.15137 0.884238 0
M  V30 3840 C 355.208 -1.68729 -0.15063 0
M  V30 3841 O 356.414 -1.8 -0.00366673 0
M  V30 3842 H 352.789 -0.702471 0.2684 0
M  V30 3843 H 354.76 -2.36652 1.81764 0
M  V30 3844 C 353.509 -3.45243 0.412659 0
M  V30 3845 H 352.832 -3.81352 1.20043 0
M  V30 3846 H 354.272 -4.23263 0.249858 0
M  V30 3847 C 352.731 -3.25487 -0.86948 0
M  V30 3848 O 353.261 -3.51938 -1.93655 0
M  V30 3849 N 351.467 -2.78875 -0.817147 0
M  V30 3850 H 351.014 -2.57549 0.0514211 0
M  V30 3851 H 350.972 -2.66036 -1.67547 0
M  V30 3852 N 354.744 -0.972509 -1.24016 0
M  V30 3853 C 356.16 -0.679827 -1.44397 0
M  V30 3854 C 356.36 0.756716 -1.86751 0
M  V30 3855 O 355.416 1.53007 -2.00861 0
M  V30 3856 C 356.729 -1.66803 -2.50195 0
M  V30 3857 C 358.277 -1.68119 -2.64017 0
M  V30 3858 C 358.752 -2.65748 -3.73017 0
M  V30 3859 N 360.243 -2.64219 -3.8045 0
M  V30 3860 C 360.978 -3.36433 -4.64328 0
M  V30 3861 N 360.474 -4.1818 -5.52356 0
M  V30 3862 N 362.267 -3.25235 -4.58453 0
M  V30 3863 H 354.418 -1.90059 -0.948228 0
M  V30 3864 H 356.681 -0.818527 -0.478245 0
M  V30 3865 H 356.387 -2.69498 -2.25973 0
M  V30 3866 H 356.261 -1.4446 -3.48441 0
M  V30 3867 H 358.648 -0.661319 -2.87594 0
M  V30 3868 H 358.729 -1.94525 -1.66113 0
M  V30 3869 H 358.373 -3.67872 -3.50189 0
M  V30 3870 H 358.303 -2.36619 -4.70446 0
M  V30 3871 H 360.794 -2.04887 -3.17537 0
M  V30 3872 H 361.107 -4.70157 -6.13329 0
M  V30 3873 H 359.452 -4.22273 -5.52006 0
M  V30 3874 H 362.643 -2.60829 -3.88698 0
M  V30 3875 H 362.816 -3.81776 -5.23594 0
M  V30 3876 N 356.222 1.38976 -0.743202 0
M  V30 3877 C 357.468 2.0064 -0.295189 0
M  V30 3878 C 357.801 1.5885 1.11716 0
M  V30 3879 O 357.076 0.821181 1.76315 0
M  V30 3880 C 357.359 3.578 -0.406318 0
M  V30 3881 C 357.212 4.09586 -1.85903 0
M  V30 3882 C 358.531 4.39616 0.206439 0
M  V30 3883 H 355.65 0.728935 -0.108733 0
M  V30 3884 H 358.292 1.65067 -0.940897 0
M  V30 3885 H 356.442 3.88235 0.143419 0
M  V30 3886 H 358.114 3.89837 -2.46627 0
M  V30 3887 H 356.357 3.6284 -2.3776 0
M  V30 3888 H 357.028 5.18708 -1.888 0
M  V30 3889 H 359.504 4.15273 -0.262283 0
M  V30 3890 H 358.38 5.48812 0.0983819 0
M  V30 3891 H 358.641 4.22754 1.2935 0
M  V30 3892 N 357.7 0.491464 1.49741 0
M  V30 3893 C 358.632 -0.328609 2.26832 0
M  V30 3894 C 359.645 -0.939113 1.32983 0
M  V30 3895 O 360.834 -0.824067 1.58339 0
M  V30 3896 C 357.934 -1.47675 3.05033 0
M  V30 3897 C 357.107 -0.975305 4.26388 0
M  V30 3898 C 356.166 -1.99991 4.86714 0
M  V30 3899 O 355.192 -1.57229 5.47054 0
M  V30 3900 N 356.394 -3.32962 4.75517 0
M  V30 3901 H 359.159 0.332377 2.97851 0
M  V30 3902 H 356.72 0.323441 1.58636 0
M  V30 3903 H 358.712 -2.15954 3.42266 0
M  V30 3904 H 357.282 -2.04206 2.36683 0
M  V30 3905 H 356.502 -0.117723 3.94024 0
M  V30 3906 H 357.79 -0.618531 5.05026 0
M  V30 3907 H 357.188 -3.70399 4.27576 0
M  V30 3908 H 355.745 -3.96982 5.16961 0
M  V30 3909 N 359.178 -1.55987 0.224894 0
M  V30 3910 C 360.418 -2.00293 -0.407706 0
M  V30 3911 C 360.782 -1.1093 -1.56711 0
M  V30 3912 O 361.983 -1.44597 -2.26595 0
M  V30 3913 C 360.254 -3.47675 -0.82805 0
M  V30 3914 S 361.813 -4.14 -1.45429 0
M  V30 3915 H 358.631 -0.699152 -0.129256 0
M  V30 3916 H 361.233 -1.92609 0.334967 0
M  V30 3917 H 359.937 -4.10392 0.0253964 0
M  V30 3918 H 359.468 -3.59239 -1.60345 0
M  V30 3919 H 361.483 -4.13465 -2.74337 0
M  V30 3920 N 360.656 0.0484629 -1.57525 0
M  V30 3921 C 361.566 1.07241 -2.08654 0
M  V30 3922 C 362.582 1.409 -1.02095 0
M  V30 3923 O 363.758 1.50609 -1.33712 0
M  V30 3924 C 360.823 2.36008 -2.5397 0
M  V30 3925 C 359.884 2.09108 -3.7493 0
M  V30 3926 C 359.117 3.31736 -4.18075 0
M  V30 3927 O 359.34 4.41714 -3.60895 0
M  V30 3928 O 358.274 3.18576 -5.10679 0
M  V30 3929 H 362.1 0.667965 -2.96263 0
M  V30 3930 H 359.685 0.26417 -1.47046 0
M  V30 3931 H 361.567 3.11747 -2.83535 0
M  V30 3932 H 360.242 2.75786 -1.69481 0
M  V30 3933 H 359.149 1.31 -3.50414 0
M  V30 3934 H 360.482 1.74198 -4.60343 0
M  V30 3935 N 362.134 1.5431 0.320358 0
M  V30 3936 C 363.064 1.86912 1.3995 0
M  V30 3937 C 364.045 0.726211 1.53819 0
M  V30 3938 O 365.23 0.980233 1.67646 0
M  V30 3939 C 362.36 2.09932 2.7667 0
M  V30 3940 C 361.314 3.25776 2.77586 0
M  V30 3941 C 360.64 3.34173 4.17412 0
M  V30 3942 C 361.94 4.6335 2.41048 0
M  V30 3943 H 363.634 2.77292 1.12914 0
M  V30 3944 H 361.18 1.33421 0.541738 0
M  V30 3945 H 363.133 2.31324 3.52232 0
M  V30 3946 H 361.857 1.16304 3.0519 0
M  V30 3947 H 360.516 3.04276 2.04479 0
M  V30 3948 H 360.164 2.38098 4.43078 0
M  V30 3949 H 359.864 4.12033 4.18931 0
M  V30 3950 H 361.388 3.57803 4.94782 0
M  V30 3951 H 362.802 4.84602 3.06324 0
M  V30 3952 H 361.199 5.43782 2.53813 0
M  V30 3953 H 362.269 4.65381 1.36193 0
M  V30 3954 N 363.613 -0.582584 1.46437 0
M  V30 3955 C 364.89 -1.34276 1.4223 0
M  V30 3956 C 365.27 -2.10835 0.10583 0
M  V30 3957 O 364.618 -2.09485 -0.912596 0
M  V30 3958 C 364.828 -2.26865 2.65204 0
M  V30 3959 C 366.176 -2.88691 3.11356 0
M  V30 3960 O 367.2 -2.37178 2.65753 0
M  V30 3961 O 366.059 -3.82255 3.90568 0
M  V30 3962 H 363.153 -0.603326 0.565621 0
M  V30 3963 H 365.699 -0.603591 1.58603 0
M  V30 3964 H 364.471 -1.69724 3.52576 0
M  V30 3965 H 364.094 -3.08122 2.5129 0
M  V30 3966 N 365.091 -1.34144 -0.827227 0
M  V30 3967 C 366.502 -1.23557 -1.39966 0
M  V30 3968 C 366.853 0.140731 -1.95695 0
M  V30 3969 O 365.978 1.04087 -1.89723 0
M  V30 3970 C 366.573 -2.23708 -2.54441 0
M  V30 3971 C 365.132 -2.16924 -3.07605 0
M  V30 3972 C 364.279 -2.10549 -1.80456 0
M  V30 3973 H 367.23 -1.45573 -0.631991 0
M  V30 3974 H 367.251 -1.85157 -3.32411 0
M  V30 3975 H 366.763 -3.23866 -2.13851 0
M  V30 3976 H 364.864 -1.20107 -3.52711 0
M  V30 3977 H 364.977 -3.07988 -3.66988 0
M  V30 3978 H 363.341 -1.56203 -2.01178 0
M  V30 3979 H 364.124 -3.12535 -1.42046 0
M  V30 3980 N 366.569 1.04691 -1.17803 0
M  V30 3981 C 367.499 2.14494 -0.92275 0
M  V30 3982 C 368.48 1.69546 0.137179 0
M  V30 3983 O 369.665 1.94195 -0.0141108 0
M  V30 3984 C 366.795 3.44491 -0.440803 0
M  V30 3985 C 365.749 4.03031 -1.4405 0
M  V30 3986 C 365.075 5.28432 -0.81631 0
M  V30 3987 C 366.375 4.39932 -2.81527 0
M  V30 3988 H 368.069 2.36107 -1.84103 0
M  V30 3989 H 365.615 1.1347 -0.886599 0
M  V30 3990 H 367.568 4.2066 -0.249602 0
M  V30 3991 H 366.292 3.22546 0.513025 0
M  V30 3992 H 364.951 3.28937 -1.61853 0
M  V30 3993 H 364.599 5.02792 0.144511 0
M  V30 3994 H 364.299 5.68559 -1.48371 0
M  V30 3995 H 365.823 6.07284 -0.635496 0
M  V30 3996 H 367.237 5.07113 -2.67412 0
M  V30 3997 H 365.634 4.9109 -3.44892 0
M  V30 3998 H 366.704 3.50045 -3.35554 0
M  V30 3999 N 368.047 0.979072 1.23499 0
M  V30 4000 C 368.977 0.537606 2.27227 0
M  V30 4001 C 369.958 -0.428539 1.64613 0
M  V30 4002 O 371.143 -0.322191 1.91509 0
M  V30 4003 C 368.273 -0.162052 3.46922 0
M  V30 4004 C 367.227 0.721242 4.21879 0
M  V30 4005 C 366.553 -0.110555 5.34586 0
M  V30 4006 C 367.853 2.01141 4.82016 0
M  V30 4007 H 369.547 1.40462 2.64406 0
M  V30 4008 H 367.093 0.67684 1.27102 0
M  V30 4009 H 369.046 -0.482192 4.18632 0
M  V30 4010 H 367.77 -1.06351 3.08799 0
M  V30 4011 H 366.429 1.02482 3.51984 0
M  V30 4012 H 366.077 -1.0125 4.92704 0
M  V30 4013 H 365.777 0.477325 5.85658 0
M  V30 4014 H 367.301 -0.425107 6.09118 0
M  V30 4015 H 368.715 1.75612 5.45741 0
M  V30 4016 H 367.112 2.54695 5.43369 0
M  V30 4017 H 368.182 2.69909 4.02836 0
M  V30 4018 N 369.525 -1.3858 0.750561 0
M  V30 4019 C 370.472 -2.30483 0.120835 0
M  V30 4020 C 371.442 -1.50022 -0.712923 0
M  V30 4021 O 372.627 -1.78662 -0.669676 0
M  V30 4022 C 369.767 -3.36431 -0.768666 0
M  V30 4023 C 368.88 -4.31927 0.0793922 0
M  V30 4024 C 368.015 -5.24944 -0.81283 0
M  V30 4025 C 367.054 -6.12088 0.0390447 0
M  V30 4026 N 366.191 -6.97412 -0.809969 0
M  V30 4027 H 371.031 -2.83761 0.91015 0
M  V30 4028 H 368.568 -1.39707 0.460463 0
M  V30 4029 H 370.526 -3.96462 -1.29898 0
M  V30 4030 H 369.156 -2.8457 -1.5238 0
M  V30 4031 H 368.208 -3.73382 0.727303 0
M  V30 4032 H 369.52 -4.93319 0.737401 0
M  V30 4033 H 368.674 -5.90078 -1.41042 0
M  V30 4034 H 367.413 -4.63911 -1.50458 0
M  V30 4035 H 366.418 -5.45952 0.649328 0
M  V30 4036 H 367.643 -6.75189 0.727809 0
M  V30 4037 H 365.589 -6.38931 -1.48672 0
M  V30 4038 H 365.506 -7.55712 -0.208789 0
M  V30 4039 H 366.774 -7.66959 -1.39263 0
M  V30 4040 N 371.003 -0.499398 -1.49478 0
M  V30 4041 C 371.913 0.284489 -2.32869 0
M  V30 4042 C 372.929 0.968885 -1.44529 0
M  V30 4043 O 374.105 0.95062 -1.77553 0
M  V30 4044 C 371.17 1.33594 -3.19928 0
M  V30 4045 C 370.231 0.665149 -4.24116 0
M  V30 4046 C 369.464 1.6665 -5.07014 0
M  V30 4047 O 369.687 2.89618 -4.91404 0
M  V30 4048 O 368.621 1.22271 -5.8935 0
M  V30 4049 H 372.447 -0.39802 -3.01081 0
M  V30 4050 H 370.032 -0.260758 -1.47107 0
M  V30 4051 H 371.914 1.94431 -3.73864 0
M  V30 4052 H 370.589 2.0014 -2.54412 0
M  V30 4053 H 369.496 0.0170769 -3.74096 0
M  V30 4054 H 370.829 0.0421555 -4.92182 0
M  V30 4055 N 372.481 1.55866 -0.233164 0
M  V30 4056 C 373.73 1.97779 0.39579 0
M  V30 4057 C 374.043 1.12419 1.60066 0
M  V30 4058 O 375.249 1.44283 2.29988 0
M  V30 4059 C 373.705 3.5188 0.755556 0
M  V30 4060 C 373.313 4.45959 -0.427152 0
M  V30 4061 C 375.057 4.02479 1.34946 0
M  V30 4062 C 372.964 5.91383 -0.0443043 0
M  V30 4063 H 371.894 0.738592 0.15165 0
M  V30 4064 H 374.545 1.80486 -0.331212 0
M  V30 4065 H 372.927 3.64816 1.5403 0
M  V30 4066 H 374.101 4.44776 -1.20462 0
M  V30 4067 H 372.416 4.05765 -0.935068 0
M  V30 4068 H 375.013 5.08637 1.649 0
M  V30 4069 H 375.356 3.49014 2.26925 0
M  V30 4070 H 375.889 3.92813 0.62791 0
M  V30 4071 H 372.628 6.48857 -0.930874 0
M  V30 4072 H 372.148 5.95734 0.697238 0
M  V30 4073 H 373.827 6.45893 0.378334 0
M  V30 4074 N 373.959 -0.0401083 1.57549 0
M  V30 4075 C 375.375 -0.395556 1.54621 0
M  V30 4076 C 375.575 -1.77281 0.957799 0
M  V30 4077 O 374.631 -2.45888 0.574031 0
M  V30 4078 C 375.944 -0.307535 2.99123 0
M  V30 4079 C 377.492 -0.385425 3.10618 0
M  V30 4080 C 377.967 -0.326973 4.56831 0
M  V30 4081 N 379.458 -0.386102 4.61588 0
M  V30 4082 C 380.193 -0.363591 5.72246 0
M  V30 4083 N 379.689 -0.29402 6.92176 0
M  V30 4084 N 381.482 -0.412503 5.60584 0
M  V30 4085 H 373.633 0.861325 1.94152 0
M  V30 4086 H 375.896 0.326445 0.890021 0
M  V30 4087 H 375.602 0.638461 3.45856 0
M  V30 4088 H 375.476 -1.10552 3.60636 0
M  V30 4089 H 377.863 -1.32185 2.63839 0
M  V30 4090 H 377.944 0.44171 2.51957 0
M  V30 4091 H 377.588 0.605738 5.04275 0
M  V30 4092 H 377.518 -1.17207 5.13391 0
M  V30 4093 H 380.009 -0.442832 3.75296 0
M  V30 4094 H 380.322 -0.28164 7.72287 0
M  V30 4095 H 378.667 -0.260232 6.94513 0
M  V30 4096 H 381.858 -0.464769 4.65787 0
M  V30 4097 H 382.031 -0.391492 6.46816 0
M  V30 4098 N 375.437 -1.54477 -0.31217 0
M  V30 4099 C 376.385 -1.85395 -1.40469 0
M  V30 4100 C 377.379 -0.726749 -1.53019 0
M  V30 4101 O 378.585 -0.910582 -1.55269 0
M  V30 4102 H 374.96 -0.587845 -0.46898 0
M  V30 4103 H 376.931 -2.76736 -1.11623 0
M  V30 4104 C 375.68 -2.10811 -2.76503 0
M  V30 4105 H 375.003 -2.97014 -2.67625 0
M  V30 4106 H 376.443 -2.3639 -3.51988 0
M  V30 4107 C 374.902 -0.903165 -3.24568 0
M  V30 4108 O 375.432 -0.118085 -4.01526 0
M  V30 4109 N 373.638 -0.711634 -2.81752 0
M  V30 4110 H 373.185 -1.35171 -2.19286 0
M  V30 4111 H 373.143 0.0930473 -3.14262 0
M  V30 4112 N 376.915 0.57481 -1.46744 0
M  V30 4113 C 377.825 1.711 -1.60505 0
M  V30 4114 C 378.841 1.67008 -0.488307 0
M  V30 4115 O 380.017 1.86774 -0.753495 0
M  V30 4116 C 377.082 3.07608 -1.59932 0
M  V30 4117 C 376.143 3.22904 -2.82898 0
M  V30 4118 C 375.376 4.529 -2.82343 0
M  V30 4119 O 375.599 5.37278 -1.91542 0
M  V30 4120 O 374.533 4.71611 -3.73987 0
M  V30 4121 H 378.359 1.62436 -2.56609 0
M  V30 4122 H 375.944 0.742779 -1.29627 0
M  V30 4123 H 377.826 3.88877 -1.62336 0
M  V30 4124 H 376.501 3.16692 -0.669898 0
M  V30 4125 H 375.408 2.41099 -2.86046 0
M  V30 4126 H 376.741 3.18715 -3.75076 0
M  V30 4127 N 378.394 1.34581 0.820102 0
M  V30 4128 C 379.643 1.26437 1.57151 0
M  V30 4129 C 379.956 -0.163111 1.94919 0
M  V30 4130 O 381.162 -0.366722 2.69012 0
M  V30 4131 C 379.618 2.21658 2.83541 0
M  V30 4132 C 379.226 3.69679 2.53065 0
M  V30 4133 C 380.97 2.22428 3.61561 0
M  V30 4134 C 378.877 4.56761 3.75664 0
M  V30 4135 H 377.807 0.469707 0.589823 0
M  V30 4136 H 380.458 1.59763 0.902656 0
M  V30 4137 H 378.84 1.81287 3.52067 0
M  V30 4138 H 380.014 4.18605 1.92631 0
M  V30 4139 H 378.329 3.71384 1.88316 0
M  V30 4140 H 380.926 2.8471 4.52597 0
M  V30 4141 H 381.269 1.22434 3.97889 0
M  V30 4142 H 381.802 2.61259 2.99981 0
M  V30 4143 H 378.541 5.57702 3.44454 0
M  V30 4144 H 378.061 4.12568 4.35371 0
M  V30 4145 H 379.74 4.71509 4.43044 0
M  V30 4146 N 379.872 -1.04064 1.18357 0
M  V30 4147 C 381.102 -1.80654 1.00238 0
M  V30 4148 C 381.51 -1.83713 -0.452362 0
M  V30 4149 O 380.853 -1.27135 -1.32599 0
M  V30 4150 C 380.915 -3.27582 1.48088 0
M  V30 4151 C 380.579 -3.48184 2.96002 0
M  V30 4152 C 381.576 -3.39372 3.93856 0
M  V30 4153 C 379.261 -3.7478 3.34433 0
M  V30 4154 C 381.255 -3.5686 5.28138 0
M  V30 4155 C 378.942 -3.91915 4.68877 0
M  V30 4156 C 379.94 -3.82956 5.65539 0
M  V30 4157 O 379.628 -3.996 6.97549 0
M  V30 4158 H 379.36 -0.575751 0.354241 0
M  V30 4159 H 381.914 -1.32044 1.57333 0
M  V30 4160 H 380.144 -3.77161 0.853588 0
M  V30 4161 H 381.833 -3.8573 1.2636 0
M  V30 4162 H 382.599 -3.18789 3.65511 0
M  V30 4163 H 378.478 -3.80852 2.59756 0
M  V30 4164 H 382.022 -3.49783 6.03571 0
M  V30 4165 H 377.919 -4.11992 4.96923 0
M  V30 4166 H 378.687 -4.1676 7.04452 0
M  V30 4167 N 381.35 -0.985608 -1.22978 0
M  V30 4168 C 382.596 -0.65836 -1.91816 0
M  V30 4169 C 382.929 0.806692 -1.76653 0
M  V30 4170 O 382.204 1.58252 -1.13078 0
M  V30 4171 C 382.487 -1.056 -3.44268 0
M  V30 4172 C 382.34 -2.57906 -3.68516 0
M  V30 4173 C 383.659 -0.603781 -4.35939 0
M  V30 4174 H 380.778 -0.24065 -0.696604 0
M  V30 4175 H 383.42 -1.22783 -1.44998 0
M  V30 4176 H 381.57 -0.571445 -3.84274 0
M  V30 4177 H 383.242 -3.13976 -3.3796 0
M  V30 4178 H 381.485 -3.00305 -3.13048 0
M  V30 4179 H 382.156 -2.80779 -4.75255 0
M  V30 4180 H 384.632 -1.01987 -4.03408 0
M  V30 4181 H 383.508 -0.910383 -5.41298 0
M  V30 4182 H 383.769 0.495761 -4.39312 0
M  V30 4183 N 382.828 1.3818 -0.7579 0
M  V30 4184 C 384.239 1.82726 -0.383134 0
M  V30 4185 C 384.59 1.63214 1.08884 0
M  V30 4186 O 383.715 1.13566 1.84205 0
M  V30 4187 C 384.31 3.31728 -0.688631 0
M  V30 4188 C 382.869 3.74606 -0.367091 0
M  V30 4189 C 382.016 2.60896 -0.939599 0
M  V30 4190 H 384.967 1.26847 -0.953699 0
M  V30 4191 H 384.988 3.80487 0.0316492 0
M  V30 4192 H 384.5 3.45898 -1.76001 0
M  V30 4193 H 382.601 3.66013 0.697532 0
M  V30 4194 H 382.714 4.71215 -0.865658 0
M  V30 4195 H 381.078 2.52075 -0.3647 0
M  V30 4196 H 381.861 2.77864 -2.0161 0
M  V30 4197 N 384.306 0.507319 1.49211 0
M  V30 4198 C 385.531 -0.033725 2.07373 0
M  V30 4199 C 385.956 -1.29485 1.36437 0
M  V30 4200 O 385.314 -1.76294 0.423087 0
M  V30 4201 C 385.362 -0.263945 3.59633 0
M  V30 4202 O 384.466 -1.33737 3.90113 0
M  V30 4203 H 383.807 0.0290331 0.663365 0
M  V30 4204 H 386.337 0.708749 1.91932 0
M  V30 4205 H 386.347 -0.493536 4.05004 0
M  V30 4206 H 385.022 0.657424 4.10671 0
M  V30 4207 H 383.599 -1.09224 3.56545 0
M  V30 4208 N 385.784 -1.5574 0.241426 0
M  V30 4209 C 386.716 -2.18469 -0.693091 0
M  V30 4210 C 387.729 -1.15942 -1.14286 0
M  V30 4211 O 388.918 -1.42832 -1.07058 0
M  V30 4212 C 386.018 -2.7696 -1.95311 0
M  V30 4213 C 385.191 -4.04853 -1.65568 0
M  V30 4214 C 384.25 -4.47715 -2.76474 0
M  V30 4215 O 383.276 -5.14205 -2.44094 0
M  V30 4216 N 384.478 -4.15044 -4.05855 0
M  V30 4217 H 387.243 -2.99292 -0.156388 0
M  V30 4218 H 384.804 -1.61784 0.0611752 0
M  V30 4219 H 386.796 -3.02594 -2.68736 0
M  V30 4220 H 385.366 -2.00326 -2.39975 0
M  V30 4221 H 384.586 -3.86865 -0.756886 0
M  V30 4222 H 385.874 -4.88246 -1.43153 0
M  V30 4223 H 385.272 -3.61654 -4.34998 0
M  V30 4224 H 383.829 -4.45526 -4.75762 0
M  V30 4225 N 387.262 0.0317525 -1.57568 0
M  V30 4226 C 388.192 1.03274 -2.0942 0
M  V30 4227 C 389.173 1.3788 -0.996143 0
M  V30 4228 O 390.358 1.46811 -1.27122 0
M  V30 4229 C 387.488 2.33448 -2.57137 0
M  V30 4230 C 386.442 2.13091 -3.71182 0
M  V30 4231 C 385.768 3.49001 -4.05095 0
M  V30 4232 C 387.068 1.51928 -4.99715 0
M  V30 4233 H 388.762 0.60112 -2.93303 0
M  V30 4234 H 386.308 0.287705 -1.41097 0
M  V30 4235 H 388.261 3.03802 -2.92032 0
M  V30 4236 H 386.985 2.78665 -1.70333 0
M  V30 4237 H 385.644 1.45171 -3.36632 0
M  V30 4238 H 385.292 3.91862 -3.15362 0
M  V30 4239 H 384.992 3.36207 -4.81911 0
M  V30 4240 H 386.516 4.20721 -4.42522 0
M  V30 4241 H 387.93 2.12196 -5.32584 0
M  V30 4242 H 386.327 1.49716 -5.81124 0
M  V30 4243 H 387.397 0.484811 -4.8247 0
M  V30 4244 N 388.74 1.54641 0.303973 0
M  V30 4245 C 390.151 1.64811 0.877163 0
M  V30 4246 C 390.502 0.554838 1.88191 0
M  V30 4247 O 389.627 -0.309033 2.14182 0
M  V30 4248 C 390.222 2.9876 1.59775 0
M  V30 4249 C 388.781 3.11061 2.11938 0
M  V30 4250 C 387.928 2.60479 0.951097 0
M  V30 4251 H 390.879 1.58493 0.0810486 0
M  V30 4252 H 390.9 2.90017 2.46314 0
M  V30 4253 H 390.412 3.7831 0.866226 0
M  V30 4254 H 388.513 2.36225 2.88146 0
M  V30 4255 H 388.626 4.17171 2.35595 0
M  V30 4256 H 386.99 2.16859 1.33583 0
M  V30 4257 H 387.773 3.42504 0.233581 0
M  V30 4258 N 390.218 -0.567019 1.47046 0
M  V30 4259 C 391.448 -1.34831 1.56538 0
M  V30 4260 C 391.856 -1.8802 0.21101 0
M  V30 4261 O 391.199 -1.65152 -0.804387 0
M  V30 4262 C 391.261 -2.56139 2.52256 0
M  V30 4263 C 390.925 -2.24307 3.98165 0
M  V30 4264 C 391.922 -1.82192 4.86931 0
M  V30 4265 C 389.607 -2.35968 4.43423 0
M  V30 4266 C 391.601 -1.52153 6.18973 0
M  V30 4267 C 389.288 -2.05542 5.75496 0
M  V30 4268 C 390.286 -1.63701 6.63092 0
M  V30 4269 O 389.974 -1.33657 7.92711 0
M  V30 4270 H 389.706 -0.417683 0.531523 0
M  V30 4271 H 392.26 -0.694726 1.93294 0
M  V30 4272 H 390.49 -3.24356 2.10548 0
M  V30 4273 H 392.179 -3.18214 2.51982 0
M  V30 4274 H 392.945 -1.72684 4.53217 0
M  V30 4275 H 388.824 -2.67495 3.75456 0
M  V30 4276 H 392.368 -1.19421 6.87302 0
M  V30 4277 H 388.265 -2.14679 6.08755 0
M  V30 4278 H 389.033 -1.4737 8.05124 0
M  V30 4279 N 391.696 -1.35014 -0.812953 0
M  V30 4280 C 392.606 -1.2951 -1.95613 0
M  V30 4281 C 393.622 -0.20107 -1.72834 0
M  V30 4282 O 394.798 -0.42932 -1.96771 0
M  V30 4283 C 391.863 -1.06033 -3.30088 0
M  V30 4284 C 390.924 -2.24688 -3.65805 0
M  V30 4285 C 390.157 -2.02322 -4.93864 0
M  V30 4286 O 390.38 -0.986464 -5.61805 0
M  V30 4287 O 389.314 -2.89525 -5.27692 0
M  V30 4288 H 393.14 -2.25705 -2.03202 0
M  V30 4289 H 390.725 -1.15321 -0.949811 0
M  V30 4290 H 392.607 -0.94763 -4.10607 0
M  V30 4291 H 391.282 -0.128852 -3.23443 0
M  V30 4292 H 390.189 -2.41521 -2.85689 0
M  V30 4293 H 391.522 -3.16261 -3.77147 0
M  V30 4294 N 393.175 1.03435 -1.18907 0
M  V30 4295 C 394.4 1.80919 -1.01406 0
M  V30 4296 C 394.825 1.83055 0.432721 0
M  V30 4297 O 394.183 1.25252 1.31079 0
M  V30 4298 C 394.231 3.24091 -1.58105 0
M  V30 4299 O 393.335 4.04434 -0.806669 0
M  V30 4300 H 392.676 0.558709 -0.358803 0
M  V30 4301 H 395.206 1.30223 -1.57807 0
M  V30 4302 H 395.216 3.74853 -1.61087 0
M  V30 4303 H 393.891 3.21851 -2.6341 0
M  V30 4304 H 392.468 3.63091 -0.849666 0
M  V30 4305 N 394.653 0.992116 1.22453 0
M  V30 4306 C 395.902 0.662992 1.90492 0
M  V30 4307 C 396.215 -0.808407 1.78113 0
M  V30 4308 O 397.421 -1.24908 2.41061 0
M  V30 4309 C 395.877 1.1353 3.41524 0
M  V30 4310 C 395.485 2.63187 3.62542 0
M  V30 4311 C 397.229 0.880465 4.15269 0
M  V30 4312 C 395.136 3.04024 5.0727 0
M  V30 4313 H 394.066 0.244278 0.713333 0
M  V30 4314 H 396.717 1.20157 1.38688 0
M  V30 4315 H 395.099 0.52485 3.92506 0
M  V30 4316 H 396.273 3.2957 3.22056 0
M  V30 4317 H 394.588 2.86543 3.02129 0
M  V30 4318 H 397.185 1.16128 5.21937 0
M  V30 4319 H 397.528 -0.183408 4.15896 0
M  V30 4320 H 398.061 1.45307 3.70312 0
M  V30 4321 H 394.8 4.09584 5.11782 0
M  V30 4322 H 394.32 2.42343 5.48662 0
M  V30 4323 H 395.999 2.95282 5.75689 0
M  V30 4324 N 396.131 -1.37776 0.765217 0
M  V30 4325 C 397.078 -2.30342 0.145274 0
M  V30 4326 C 398.048 -1.5077 -0.696971 0
M  V30 4327 O 399.233 -1.79362 -0.650689 0
M  V30 4328 C 396.373 -3.37227 -0.732939 0
M  V30 4329 C 395.486 -4.31819 0.125199 0
M  V30 4330 C 394.621 -5.25777 -0.757107 0
M  V30 4331 C 393.66 -6.12012 0.103963 0
M  V30 4332 N 392.797 -6.98232 -0.735953 0
M  V30 4333 H 397.637 -2.8278 0.940195 0
M  V30 4334 H 395.174 -1.39211 0.475255 0
M  V30 4335 H 397.132 -3.97818 -1.25686 0
M  V30 4336 H 395.762 -2.86171 -1.49353 0
M  V30 4337 H 394.814 -3.7259 0.766865 0
M  V30 4338 H 396.126 -4.92509 0.789683 0
M  V30 4339 H 395.28 -5.91541 -1.34776 0
M  V30 4340 H 394.019 -4.65481 -1.45529 0
M  V30 4341 H 393.024 -5.45233 0.707197 0
M  V30 4342 H 394.249 -6.74379 0.799381 0
M  V30 4343 H 392.195 -6.40472 -1.41887 0
M  V30 4344 H 392.112 -7.55891 -0.128624 0
M  V30 4345 H 393.38 -7.68393 -1.31121 0
M  V30 4346 N 397.609 -0.515225 -1.4894 0
M  V30 4347 C 398.856 0.024215 -2.02486 0
M  V30 4348 C 399.184 1.35671 -1.39368 0
M  V30 4349 O 398.439 1.88566 -0.523574 0
M  V30 4350 C 398.738 0.210595 -3.56779 0
M  V30 4351 C 398.404 -1.04569 -4.38607 0
M  V30 4352 C 397.066 -1.39002 -4.60686 0
M  V30 4353 C 399.418 -1.88008 -4.86109 0
M  V30 4354 C 396.746 -2.568 -5.27514 0
M  V30 4355 C 399.098 -3.04972 -5.54234 0
M  V30 4356 C 397.762 -3.39768 -5.74555 0
M  V30 4357 H 397.032 0.00886088 -0.740947 0
M  V30 4358 H 399.679 -0.678263 -1.79086 0
M  V30 4359 H 397.984 0.99572 -3.78936 0
M  V30 4360 H 399.681 0.642659 -3.95817 0
M  V30 4361 H 396.271 -0.767497 -4.21672 0
M  V30 4362 H 400.455 -1.62719 -4.68867 0
M  V30 4363 H 395.711 -2.8398 -5.41447 0
M  V30 4364 H 399.885 -3.69943 -5.90013 0
M  V30 4365 H 397.512 -4.31148 -6.26112 0
M  V30 4366 N 399.087 1.5561 -0.249682 0
M  V30 4367 C 400.335 1.98618 0.373548 0
M  V30 4368 C 400.656 1.13919 1.58264 0
M  V30 4369 O 399.926 0.222637 1.94631 0
M  V30 4370 H 398.506 0.733571 0.141006 0
M  V30 4371 H 401.168 1.91748 -0.349117 0
M  V30 4372 H 400.264 3.04584 0.680796 0
M  V30 4373 N 400.565 -0.0233959 1.57583 0
M  V30 4374 C 401.513 -1.04063 2.08023 0
M  V30 4375 C 402.507 -1.37084 0.995204 0
M  V30 4376 O 403.713 -1.35923 1.18004 0
M  V30 4377 H 400.088 -0.353144 0.663922 0
M  V30 4378 H 402.059 -0.589453 2.9252 0
M  V30 4379 C 400.808 -2.33123 2.57971 0
M  V30 4380 H 400.131 -2.08577 3.4108 0
M  V30 4381 H 401.571 -3.02632 2.96967 0
M  V30 4382 C 400.03 -3.02483 1.48342 0
M  V30 4383 O 400.56 -3.92541 0.852898 0
M  V30 4384 N 398.766 -2.63909 1.21658 0
M  V30 4385 H 398.313 -1.90758 1.73116 0
M  V30 4386 H 398.271 -3.10633 0.485218 0
M  V30 4387 N 402.043 -1.548 -0.295768 0
M  V30 4388 C 402.975 -1.82492 -1.3867 0
M  V30 4389 C 403.988 -0.708134 -1.46592 0
M  V30 4390 O 405.177 -0.985686 -1.48817 0
M  V30 4391 C 402.277 -1.95256 -2.76999 0
M  V30 4392 C 401.45 -3.25709 -2.91946 0
M  V30 4393 C 400.509 -3.28824 -4.10806 0
M  V30 4394 O 399.535 -4.02328 -4.02643 0
M  V30 4395 N 400.737 -2.5459 -5.21694 0
M  V30 4396 H 403.502 -2.76646 -1.15269 0
M  V30 4397 H 401.063 -1.54438 -0.485849 0
M  V30 4398 H 403.055 -1.94736 -3.54768 0
M  V30 4399 H 401.625 -1.08072 -2.93324 0
M  V30 4400 H 400.845 -3.38959 -2.01247 0
M  V30 4401 H 402.133 -4.11786 -2.98847 0
M  V30 4402 H 401.531 -1.94512 -5.31208 0
M  V30 4403 H 400.088 -2.59818 -5.97778 0
M  V30 4404 N 403.521 0.559213 -1.47345 0
M  V30 4405 C 404.937 0.884943 -1.32819 0
M  V30 4406 C 405.137 1.98988 -0.317173 0
M  V30 4407 O 404.193 2.51031 0.272011 0
M  V30 4408 C 405.506 1.28007 -2.72093 0
M  V30 4409 C 407.054 1.39161 -2.80363 0
M  V30 4410 C 407.529 1.82031 -4.20272 0
M  V30 4411 N 409.02 1.89185 -4.22804 0
M  V30 4412 C 409.755 2.2368 -5.27973 0
M  V30 4413 N 409.251 2.56802 -6.43447 0
M  V30 4414 N 411.044 2.24436 -5.15349 0
M  V30 4415 H 403.195 -0.170304 -2.11716 0
M  V30 4416 H 405.458 -0.0135247 -0.947904 0
M  V30 4417 H 405.164 0.542027 -3.47498 0
M  V30 4418 H 405.038 2.23665 -3.03733 0
M  V30 4419 H 407.425 2.12048 -2.05231 0
M  V30 4420 H 407.506 0.41696 -2.52379 0
M  V30 4421 H 407.15 1.09715 -4.95908 0
M  V30 4422 H 407.08 2.80495 -4.45679 0
M  V30 4423 H 409.571 1.65982 -3.39497 0
M  V30 4424 H 409.884 2.82144 -7.19454 0
M  V30 4425 H 408.229 2.54387 -6.46771 0
M  V30 4426 H 411.42 1.97998 -4.24163 0
M  V30 4427 H 411.593 2.50989 -5.97418 0
M  V30 4428 N 404.999 1.35443 0.805782 0
M  V30 4429 C 405.947 1.28465 1.93906 0
M  V30 4430 C 406.941 0.17943 1.68447 0
M  V30 4431 O 408.147 0.345459 1.76654 0
M  V30 4432 H 404.522 0.399528 0.637088 0
M  V30 4433 H 406.493 2.24206 1.96912 0
M  V30 4434 C 405.242 1.07432 3.30687 0
M  V30 4435 H 404.565 1.91716 3.50835 0
M  V30 4436 H 406.005 1.06591 4.10383 0
M  V30 4437 C 404.464 -0.22179 3.36169 0
M  V30 4438 O 404.994 -1.21731 3.82811 0
M  V30 4439 N 403.2 -0.260841 2.89427 0
M  V30 4440 H 402.747 0.549884 2.51663 0
M  V30 4441 H 402.705 -1.12777 2.93477 0
M  V30 4442 N 406.477 -1.02803 1.19454 0
M  V30 4443 C 407.425 -2.13213 0.929673 0
M  V30 4444 C 408.419 -1.69011 -0.114806 0
M  V30 4445 O 409.625 -1.79967 0.0345147 0
M  V30 4446 H 406 -0.69662 0.28324 0
M  V30 4447 H 407.971 -2.32744 1.86743 0
M  V30 4448 C 406.72 -3.4429 0.485797 0
M  V30 4449 H 406.043 -3.7872 1.28105 0
M  V30 4450 H 407.483 -4.22638 0.339582 0
M  V30 4451 C 405.942 -3.27258 -0.800244 0
M  V30 4452 O 406.472 -3.55967 -1.86146 0
M  V30 4453 N 404.678 -2.80545 -0.75781 0
M  V30 4454 H 404.225 -2.57382 0.106039 0
M  V30 4455 H 404.183 -2.6953 -1.61867 0
M  V30 4456 N 407.956 -0.998596 -1.21925 0
M  V30 4457 C 409.202 -0.678667 -1.91107 0
M  V30 4458 C 409.535 0.78791 -1.77498 0
M  V30 4459 O 408.81 1.57043 -1.1475 0
M  V30 4460 C 409.093 -1.09245 -3.43129 0
M  V30 4461 C 408.946 -2.61801 -3.6576 0
M  V30 4462 C 410.265 -0.649984 -4.35274 0
M  V30 4463 H 407.384 -0.248025 -0.694012 0
M  V30 4464 H 410.026 -1.24314 -1.43688 0
M  V30 4465 H 408.176 -0.612171 -3.83647 0
M  V30 4466 H 409.848 -3.17543 -3.34611 0
M  V30 4467 H 408.091 -3.03609 -3.09845 0
M  V30 4468 H 408.762 -2.85804 -4.7225 0
M  V30 4469 H 411.238 -1.0626 -4.02303 0
M  V30 4470 H 410.114 -0.967743 -5.40302 0
M  V30 4471 H 410.375 0.449139 -4.39813 0
M  V30 4472 N 409.434 1.37368 -0.772513 0
M  V30 4473 C 410.674 2.01512 -0.342361 0
M  V30 4474 C 411.038 1.59997 1.06136 0
M  V30 4475 O 412.239 2.16609 1.59167 0
M  V30 4476 C 410.51 3.54134 -0.482048 0
M  V30 4477 S 412.069 4.38585 -0.137272 0
M  V30 4478 H 408.887 0.698699 -0.131686 0
M  V30 4479 H 411.489 1.67552 -1.0073 0
M  V30 4480 H 410.193 3.81837 -1.50428 0
M  V30 4481 H 409.724 3.92894 0.199413 0
M  V30 4482 H 411.739 4.84594 1.06692 0
M  V30 4483 N 410.912 0.523116 1.48665 0
M  V30 4484 C 412.16 -0.0134497 2.02096 0
M  V30 4485 C 412.481 -1.35418 1.40311 0
M  V30 4486 O 411.751 -1.87543 0.566074 0
M  V30 4487 H 410.331 -0.00795915 0.746958 0
M  V30 4488 H 412.993 0.685388 1.82451 0
M  V30 4489 H 412.089 -0.126849 3.11842 0
M  V30 4490 N 412.39 -1.55475 0.257931 0
M  V30 4491 C 413.636 -1.99502 -0.364266 0
M  V30 4492 C 413.969 -1.146 -1.56782 0
M  V30 4493 O 413.244 -0.211968 -1.93342 0
M  V30 4494 C 413.527 -3.51917 -0.763333 0
M  V30 4495 C 413.38 -4.4758 0.446371 0
M  V30 4496 C 414.699 -4.09742 -1.60623 0
M  V30 4497 H 411.818 -0.725277 -0.130929 0
M  V30 4498 H 414.46 -1.8653 0.361446 0
M  V30 4499 H 412.61 -3.63101 -1.38166 0
M  V30 4500 H 414.282 -4.48362 1.08487 0
M  V30 4501 H 412.525 -4.19947 1.08753 0
M  V30 4502 H 413.196 -5.51862 0.123645 0
M  V30 4503 H 415.672 -4.01727 -1.08418 0
M  V30 4504 H 414.548 -5.16631 -1.85429 0
M  V30 4505 H 414.809 -3.58889 -2.58169 0
M  V30 4506 N 413.868 0.0150385 -1.57593 0
M  V30 4507 C 415.145 0.7392 -1.81094 0
M  V30 4508 C 415.525 1.92817 -0.859344 0
M  V30 4509 O 414.873 2.28301 0.095362 0
M  V30 4510 C 415.083 1.15907 -3.29191 0
M  V30 4511 C 416.431 1.56918 -3.9454 0
M  V30 4512 O 417.455 1.25328 -3.33424 0
M  V30 4513 O 416.314 2.15604 -5.02173 0
M  V30 4514 H 413.408 0.358631 -0.745193 0
M  V30 4515 H 415.954 -0.00926156 -1.69697 0
M  V30 4516 H 414.726 0.310921 -3.90063 0
M  V30 4517 H 414.349 1.96711 -3.45529 0
M  V30 4518 N 415.346 1.54954 0.287554 0
M  V30 4519 C 416.276 1.89839 1.35954 0
M  V30 4520 C 417.257 0.758675 1.52244 0
M  V30 4521 O 418.442 1.01557 1.65529 0
M  V30 4522 C 415.572 2.15753 2.72154 0
M  V30 4523 C 414.526 3.3159 2.70614 0
M  V30 4524 C 413.852 3.42952 4.10229 0
M  V30 4525 C 415.152 4.68359 2.31165 0
M  V30 4526 H 416.846 2.79625 1.07007 0
M  V30 4527 H 414.392 1.3454 0.513316 0
M  V30 4528 H 416.345 2.38743 3.47246 0
M  V30 4529 H 415.069 1.22752 3.02654 0
M  V30 4530 H 413.728 3.08545 1.97979 0
M  V30 4531 H 413.376 2.47443 4.37928 0
M  V30 4532 H 413.076 4.20826 4.10097 0
M  V30 4533 H 414.6 3.68218 4.87081 0
M  V30 4534 H 416.014 4.9099 2.95976 0
M  V30 4535 H 414.411 5.49044 2.42221 0
M  V30 4536 H 415.481 4.68165 1.26291 0
M  V30 4537 N 416.824 -0.551391 1.4764 0
M  V30 4538 C 418.054 -1.33163 1.57959 0
M  V30 4539 C 418.462 -1.87785 0.23094 0
M  V30 4540 O 417.805 -1.65996 -0.786825 0
M  V30 4541 C 417.867 -2.53449 2.54958 0
M  V30 4542 C 417.531 -2.20071 4.00522 0
M  V30 4543 C 418.528 -1.77017 4.88836 0
M  V30 4544 C 416.213 -2.31252 4.45901 0
M  V30 4545 C 418.207 -1.4558 6.20552 0
M  V30 4546 C 415.894 -1.99427 5.77644 0
M  V30 4547 C 416.892 -1.56659 6.64791 0
M  V30 4548 O 416.58 -1.25242 7.94084 0
M  V30 4549 H 416.312 -0.412022 0.535923 0
M  V30 4550 H 418.866 -0.674186 1.9402 0
M  V30 4551 H 417.096 -3.22104 2.13976 0
M  V30 4552 H 418.785 -3.15523 2.55343 0
M  V30 4553 H 419.551 -1.67867 4.55023 0
M  V30 4554 H 415.43 -2.63498 3.78272 0
M  V30 4555 H 418.974 -1.12125 6.8853 0
M  V30 4556 H 414.871 -2.08211 6.10998 0
M  V30 4557 H 415.639 -1.38822 8.06642 0
M  V30 4558 N 418.302 -1.35869 -0.798587 0
M  V30 4559 C 419.532 -1.32529 -1.58491 0
M  V30 4560 C 419.94 0.0975405 -1.88948 0
M  V30 4561 O 419.283 1.06224 -1.49874 0
M  V30 4562 C 419.345 -2.07247 -2.9375 0
M  V30 4563 C 419.009 -3.56391 -2.86068 0
M  V30 4564 C 420.006 -4.50824 -2.58947 0
M  V30 4565 C 417.691 -3.9915 -3.04933 0
M  V30 4566 C 419.685 -5.85993 -2.5078 0
M  V30 4567 C 417.372 -5.34413 -2.96389 0
M  V30 4568 C 418.37 -6.27646 -2.69349 0
M  V30 4569 O 418.058 -7.60426 -2.60782 0
M  V30 4570 H 417.79 -0.456529 -0.498556 0
M  V30 4571 H 420.344 -1.79425 -0.999799 0
M  V30 4572 H 418.574 -1.55001 -3.54276 0
M  V30 4573 H 420.263 -1.96883 -3.54954 0
M  V30 4574 H 421.029 -4.19104 -2.44084 0
M  V30 4575 H 416.908 -3.26961 -3.24989 0
M  V30 4576 H 420.452 -6.58735 -2.29595 0
M  V30 4577 H 416.349 -5.65743 -3.10813 0
M  V30 4578 H 417.117 -7.70444 -2.76331 0
M  V30 4579 N 419.78 1.02168 -1.19998 0
M  V30 4580 C 421.191 1.57135 -1.00825 0
M  V30 4581 C 421.542 1.91276 0.436818 0
M  V30 4582 O 420.667 1.71679 1.3174 0
M  V30 4583 C 421.262 2.85514 -1.82393 0
M  V30 4584 C 419.821 3.37027 -1.67601 0
M  V30 4585 C 418.968 2.10388 -1.80644 0
M  V30 4586 H 421.919 0.846106 -1.34264 0
M  V30 4587 H 421.94 3.56711 -1.32429 0
M  V30 4588 H 421.452 2.60634 -2.87561 0
M  V30 4589 H 419.553 3.66878 -0.650485 0
M  V30 4590 H 419.666 4.09572 -2.4857 0
M  V30 4591 H 418.03 2.22601 -1.23778 0
M  V30 4592 H 418.813 1.8794 -2.87286 0
M  V30 4593 N 421.258 1.00505 1.21394 0
M  V30 4594 C 422.208 0.536503 2.21598 0
M  V30 4595 C 423.192 -0.401914 1.55799 0
M  V30 4596 O 424.384 -0.226757 1.75541 0
M  V30 4597 C 421.513 -0.135446 3.43033 0
M  V30 4598 C 420.599 0.823992 4.16018 0
M  V30 4599 N 420.99 1.97683 4.6557 0
M  V30 4600 C 419.288 0.642387 4.4135 0
M  V30 4601 C 419.989 2.58003 5.21354 0
M  V30 4602 N 418.965 1.86162 5.1073 0
M  V30 4603 H 422.767 1.41557 2.57563 0
M  V30 4604 H 420.281 0.868878 1.37202 0
M  V30 4605 H 422.278 -0.488584 4.14027 0
M  V30 4606 H 420.938 -1.01049 3.08576 0
M  V30 4607 H 421.949 2.3572 4.61147 0
M  V30 4608 H 418.626 -0.185578 4.17087 0
M  V30 4609 H 420.016 3.555 5.70149 0
M  V30 4610 N 422.737 -1.36956 0.779787 0
M  V30 4611 C 423.965 -2.03755 0.359398 0
M  V30 4612 C 424.38 -1.58807 -1.02106 0
M  V30 4613 O 423.737 -0.773024 -1.6532 0
M  V30 4614 C 423.788 -3.59251 0.402568 0
M  V30 4615 O 423.509 -4.02557 1.72858 0
M  V30 4616 C 425.01 -4.43291 -0.0284068 0
M  V30 4617 H 422.23 -0.654148 0.149437 0
M  V30 4618 H 424.774 -1.75128 1.05595 0
M  V30 4619 H 422.929 -3.86621 -0.245478 0
M  V30 4620 H 423.343 -4.97111 1.67275 0
M  V30 4621 H 424.817 -5.51975 0.0529466 0
M  V30 4622 H 425.294 -4.25719 -1.07982 0
M  V30 4623 H 425.9 -4.21163 0.591758 0
M  V30 4624 N 424.215 -0.530993 -1.48385 0
M  V30 4625 C 425.162 0.231223 -2.29639 0
M  V30 4626 C 426.132 0.932864 -1.37429 0
M  V30 4627 O 427.317 0.933692 -1.66394 0
M  V30 4628 C 424.457 1.27155 -3.2082 0
M  V30 4629 C 423.57 0.578655 -4.28107 0
M  V30 4630 C 422.705 1.602 -5.06467 0
M  V30 4631 C 421.744 0.892625 -6.05556 0
M  V30 4632 N 420.881 1.86157 -6.76971 0
M  V30 4633 H 425.721 -0.467848 -2.94305 0
M  V30 4634 H 423.258 -0.242556 -1.45086 0
M  V30 4635 H 425.216 1.88703 -3.72085 0
M  V30 4636 H 423.846 1.939 -2.58075 0
M  V30 4637 H 422.898 -0.150782 -3.80101 0
M  V30 4638 H 424.21 0.0217065 -4.98795 0
M  V30 4639 H 423.364 2.29173 -5.61751 0
M  V30 4640 H 422.103 2.19285 -4.35621 0
M  V30 4641 H 421.108 0.188829 -5.49476 0
M  V30 4642 H 422.333 0.307878 -6.78402 0
M  V30 4643 H 420.279 2.44147 -6.08875 0
M  V30 4644 H 420.196 1.35608 -7.43738 0
M  V30 4645 H 421.464 2.54325 -7.36844 0
M  V30 4646 N 425.693 1.55336 -0.266172 0
M  V30 4647 C 426.942 1.98574 0.353749 0
M  V30 4648 C 427.255 1.15789 1.57646 0
M  V30 4649 O 428.461 1.49129 2.26876 0
M  V30 4650 C 426.917 3.53403 0.680747 0
M  V30 4651 C 426.525 4.44953 -0.52165 0
M  V30 4652 C 428.269 4.05251 1.26379 0
M  V30 4653 C 426.176 5.91156 -0.169736 0
M  V30 4654 H 425.106 0.741643 0.135949 0
M  V30 4655 H 427.757 1.79743 -0.369421 0
M  V30 4656 H 426.139 3.68001 1.46257 0
M  V30 4657 H 427.313 4.42121 -1.29869 0
M  V30 4658 H 425.628 4.03691 -1.02093 0
M  V30 4659 H 428.225 5.12021 1.54074 0
M  V30 4660 H 428.568 3.53749 2.19471 0
M  V30 4661 H 429.101 3.94057 0.544447 0
M  V30 4662 H 425.84 6.46736 -1.0683 0
M  V30 4663 H 425.36 5.97079 0.570717 0
M  V30 4664 H 427.039 6.4655 0.241245 0
M  V30 4665 N 427.171 -0.0066808 1.57599 0
M  V30 4666 C 428.101 -0.999296 2.11036 0
M  V30 4667 C 429.082 -1.36278 1.01795 0
M  V30 4668 O 430.267 -1.4477 1.29442 0
M  V30 4669 C 427.397 -2.29328 2.60818 0
M  V30 4670 C 426.351 -2.07159 3.74525 0
M  V30 4671 C 425.677 -3.42512 4.10596 0
M  V30 4672 C 426.977 -1.43959 5.02069 0
M  V30 4673 H 428.671 -0.554382 2.94223 0
M  V30 4674 H 426.217 -0.265221 1.41536 0
M  V30 4675 H 428.17 -2.99117 2.96828 0
M  V30 4676 H 426.894 -2.7592 1.74745 0
M  V30 4677 H 425.553 -1.39797 3.38899 0
M  V30 4678 H 425.201 -3.86795 3.21556 0
M  V30 4679 H 424.901 -3.28498 4.87199 0
M  V30 4680 H 426.425 -4.13628 4.4916 0
M  V30 4681 H 427.839 -2.03696 5.35893 0
M  V30 4682 H 426.236 -1.40452 5.83432 0
M  V30 4683 H 427.306 -0.407992 4.83181 0
M  V30 4684 N 428.649 -1.55105 -0.279332 0
M  V30 4685 C 429.926 -1.66119 -1.03267 0
M  V30 4686 C 430.306 -0.523525 -2.04505 0
M  V30 4687 O 429.654 0.477194 -2.23462 0
M  V30 4688 C 429.864 -3.05067 -1.69515 0
M  V30 4689 C 431.212 -3.62606 -2.20912 0
M  V30 4690 O 432.236 -3.07659 -1.79512 0
M  V30 4691 O 431.095 -4.58861 -2.96831 0
M  V30 4692 H 428.189 -0.674429 -0.478618 0
M  V30 4693 H 430.735 -1.67446 -0.275694 0
M  V30 4694 H 429.507 -3.79311 -0.9612 0
M  V30 4695 H 429.13 -3.07611 -2.51915 0
M  V30 4696 N 430.127 0.543554 -1.4793 0
M  V30 4697 C 431.374 1.30008 -1.55255 0
M  V30 4698 C 431.702 1.93245 -0.220612 0
M  V30 4699 O 430.957 1.79141 0.787843 0
M  V30 4700 C 431.256 2.42078 -2.62932 0
M  V30 4701 C 430.922 1.96583 -4.0579 0
M  V30 4702 C 429.584 1.83893 -4.44676 0
M  V30 4703 C 431.936 1.62034 -4.95373 0
M  V30 4704 C 429.264 1.34969 -5.70964 0
M  V30 4705 C 431.616 1.14577 -6.22137 0
M  V30 4706 C 430.28 1.00493 -6.59892 0
M  V30 4707 H 429.55 0.475735 -0.568117 0
M  V30 4708 H 432.197 0.608075 -1.81589 0
M  V30 4709 H 430.502 3.16892 -2.30406 0
M  V30 4710 H 432.199 3.00236 -2.65818 0
M  V30 4711 H 428.789 2.07407 -3.75074 0
M  V30 4712 H 432.973 1.70705 -4.66019 0
M  V30 4713 H 428.229 1.2274 -5.98953 0
M  V30 4714 H 432.403 0.869109 -6.90955 0
M  V30 4715 H 430.03 0.623624 -7.57638 0
M  V30 4716 N 431.605 1.3629 0.791371 0
M  V30 4717 C 432.568 1.30309 1.88553 0
M  V30 4718 C 433.568 0.211204 1.59407 0
M  V30 4719 O 434.758 0.465865 1.67855 0
M  V30 4720 C 431.89 1.01956 3.25297 0
M  V30 4721 H 433.083 2.27614 1.95273 0
M  V30 4722 H 430.636 1.21035 0.988953 0
M  V30 4723 H 431.371 0.050998 3.2426 0
M  V30 4724 H 431.156 1.80968 3.4784 0
M  V30 4725 H 432.646 1.0037 4.05359 0
M  V30 4726 N 433.083 -1.0153 1.20538 0
M  V30 4727 C 434.031 -2.12215 0.952235 0
M  V30 4728 C 435.025 -1.69123 -0.0968735 0
M  V30 4729 O 436.231 -1.7992 0.0536006 0
M  V30 4730 H 432.606 -0.693576 0.290613 0
M  V30 4731 H 434.577 -2.3075 1.89201 0
M  V30 4732 C 433.326 -3.43755 0.522287 0
M  V30 4733 H 432.649 -3.7734 1.32115 0
M  V30 4734 H 434.089 -4.22254 0.384389 0
M  V30 4735 C 432.548 -3.28088 -0.765489 0
M  V30 4736 O 433.078 -3.57921 -1.8236 0
M  V30 4737 N 431.284 -2.81333 -0.728011 0
M  V30 4738 H 430.831 -2.57255 0.133332 0
M  V30 4739 H 430.789 -2.71232 -1.58999 0
M  V30 4740 N 434.561 -1.01147 -1.20859 0
M  V30 4741 C 435.786 -0.716698 -1.94623 0
M  V30 4742 C 436.211 0.715415 -1.73964 0
M  V30 4743 O 435.569 1.49157 -1.03062 0
M  V30 4744 C 435.617 -1.0513 -3.44935 0
M  V30 4745 O 434.721 -0.160131 -4.12089 0
M  V30 4746 H 434.062 -0.266404 -0.608214 0
M  V30 4747 H 436.592 -1.35346 -1.53436 0
M  V30 4748 H 436.602 -1.00086 -3.95533 0
M  V30 4749 H 435.277 -2.09475 -3.59295 0
M  V30 4750 H 433.854 -0.267657 -3.71938 0
M  V30 4751 N 436.039 1.36541 -0.78704 0
M  V30 4752 C 437.288 1.98552 -0.35494 0
M  V30 4753 C 437.601 1.63171 1.07864 0
M  V30 4754 O 438.807 2.18399 1.61289 0
M  V30 4755 C 437.263 3.55136 -0.583671 0
M  V30 4756 C 436.871 3.99444 -2.02851 0
M  V30 4757 C 438.615 4.2395 -0.215957 0
M  V30 4758 C 436.522 5.48796 -2.20403 0
M  V30 4759 H 435.452 0.742888 -0.128972 0
M  V30 4760 H 438.103 1.5587 -0.968337 0
M  V30 4761 H 436.485 3.95875 0.0994046 0
M  V30 4762 H 437.659 3.6991 -2.74779 0
M  V30 4763 H 435.974 3.43459 -2.35425 0
M  V30 4764 H 438.571 5.33709 -0.325405 0
M  V30 4765 H 438.914 4.07827 0.835646 0
M  V30 4766 H 439.447 3.88565 -0.852175 0
M  V30 4767 H 436.186 5.69864 -3.23937 0
M  V30 4768 H 435.706 5.79964 -1.52977 0
M  V30 4769 H 437.385 6.14986 -2.01002 0
M  V30 4770 N 437.518 0.538854 1.48102 0
M  V30 4771 C 438.448 -0.207654 2.32575 0
M  V30 4772 C 439.429 -0.926559 1.4265 0
M  V30 4773 O 440.614 -0.91061 1.71527 0
M  V30 4774 C 437.744 -1.24957 3.24042 0
M  V30 4775 C 436.698 -0.648263 4.23062 0
M  V30 4776 C 436.024 -1.79348 5.03725 0
M  V30 4777 C 437.324 0.385897 5.20872 0
M  V30 4778 H 439.018 0.497534 2.95237 0
M  V30 4779 H 436.564 0.240715 1.41974 0
M  V30 4780 H 438.517 -1.77983 3.81969 0
M  V30 4781 H 437.241 -1.98446 2.59397 0
M  V30 4782 H 435.9 -0.139452 3.66335 0
M  V30 4783 H 435.548 -2.51696 4.35498 0
M  V30 4784 H 435.248 -1.39702 5.70751 0
M  V30 4785 H 436.772 -2.32735 5.64506 0
M  V30 4786 H 438.186 -0.057607 5.73271 0
M  V30 4787 H 436.583 0.700227 5.96001 0
M  V30 4788 H 437.653 1.28848 4.67468 0
M  V30 4789 N 438.996 -1.55193 0.274407 0
M  V30 4790 C 440.221 -2.04446 -0.348824 0
M  V30 4791 C 440.646 -1.15149 -1.48735 0
M  V30 4792 O 440.004 -0.149952 -1.80679 0
M  V30 4793 C 440.052 -3.51431 -0.808009 0
M  V30 4794 O 439.156 -3.65225 -1.91531 0
M  V30 4795 H 438.497 -0.66006 -0.0722276 0
M  V30 4796 H 441.027 -2.00481 0.408498 0
M  V30 4797 H 441.037 -3.92781 -1.10395 0
M  V30 4798 H 439.712 -4.15892 0.0249865 0
M  V30 4799 H 438.289 -3.35778 -1.62196 0
M  V30 4800 N 440.474 -0.00167713 -1.576 0
M  V30 4801 C 441.421 0.989195 -2.08527 0
M  V30 4802 C 442.391 1.34031 -0.981065 0
M  V30 4803 O 443.576 1.43839 -1.2536 0
M  V30 4804 C 440.716 2.27537 -2.59463 0
M  V30 4805 C 439.829 1.98314 -3.83791 0
M  V30 4806 C 438.964 3.21025 -4.23222 0
M  V30 4807 C 438.003 2.87495 -5.40382 0
M  V30 4808 N 437.14 4.02749 -5.75098 0
M  V30 4809 H 441.98 0.547973 -2.92919 0
M  V30 4810 H 439.517 0.258917 -1.44803 0
M  V30 4811 H 441.475 3.02729 -2.87073 0
M  V30 4812 H 440.105 2.69325 -1.77943 0
M  V30 4813 H 439.157 1.13482 -3.63078 0
M  V30 4814 H 440.469 1.69601 -4.69081 0
M  V30 4815 H 439.623 4.04561 -4.52123 0
M  V30 4816 H 438.362 3.52877 -3.36644 0
M  V30 4817 H 437.367 2.02367 -5.11202 0
M  V30 4818 H 438.592 2.56889 -6.28637 0
M  V30 4819 H 436.538 4.34494 -4.91478 0
M  V30 4820 H 436.455 3.77566 -6.54966 0
M  V30 4821 H 437.723 4.87068 -6.08592 0
M  V30 4822 N 441.952 1.55251 0.271103 0
M  V30 4823 C 443.198 1.7713 0.999832 0
M  V30 4824 C 443.553 0.56659 1.83868 0
M  V30 4825 O 442.846 -0.44069 1.86463 0
M  V30 4826 C 443.04 3.01879 1.91321 0
M  V30 4827 C 442.869 4.34368 1.16426 0
M  V30 4828 C 441.639 4.97593 0.879169 0
M  V30 4829 C 443.837 5.1131 0.553749 0
M  V30 4830 N 441.819 6.13813 0.103618 0
M  V30 4831 C 443.19 6.19938 -0.0875442 0
M  V30 4832 C 445.245 4.95754 0.461782 0
M  V30 4833 C 443.948 7.14703 -0.811942 0
M  V30 4834 C 445.974 5.90875 -0.249027 0
M  V30 4835 C 445.336 6.98893 -0.879051 0
M  V30 4836 H 441.435 0.700407 0.347784 0
M  V30 4837 H 444.019 1.92744 0.275314 0
M  V30 4838 H 442.19 2.87637 2.60997 0
M  V30 4839 H 443.922 3.12154 2.57569 0
M  V30 4840 H 440.677 4.58538 1.18491 0
M  V30 4841 H 441.101 6.76455 -0.271543 0
M  V30 4842 H 445.743 4.12342 0.934552 0
M  V30 4843 H 443.461 7.97634 -1.29639 0
M  V30 4844 H 447.047 5.80916 -0.320529 0
M  V30 4845 H 445.927 7.71231 -1.42031 0
M  V30 4846 N 443.43 -0.535701 1.48216 0
M  V30 4847 C 444.34 -1.66785 1.64985 0
M  V30 4848 C 445.356 -1.65654 0.532414 0
M  V30 4849 O 446.532 -1.8471 0.80275 0
M  V30 4850 C 443.597 -3.0326 1.68031 0
M  V30 4851 C 442.658 -3.1529 2.9136 0
M  V30 4852 C 441.891 -4.45255 2.94252 0
M  V30 4853 O 442.114 -5.32011 2.05719 0
M  V30 4854 O 441.048 -4.6153 3.86359 0
M  V30 4855 H 444.874 -1.55576 2.60825 0
M  V30 4856 H 442.459 -0.70815 1.31551 0
M  V30 4857 H 444.341 -3.84436 1.72589 0
M  V30 4858 H 443.016 -3.14805 0.753628 0
M  V30 4859 H 441.923 -2.3343 2.92337 0
M  V30 4860 H 443.256 -3.08658 3.83394 0
M  V30 4861 N 444.908 -1.36708 -0.784132 0
M  V30 4862 C 445.871 -1.31307 -1.87859 0
M  V30 4863 C 446.871 -0.219654 -1.59293 0
M  V30 4864 O 448.061 -0.47476 -1.67606 0
M  V30 4865 C 445.193 -1.03679 -3.24751 0
M  V30 4866 H 446.386 -2.28647 -1.94064 0
M  V30 4867 H 443.939 -1.21558 -0.98252 0
M  V30 4868 H 444.674 -0.0681936 -3.24228 0
M  V30 4869 H 444.459 -1.82811 -3.46876 0
M  V30 4870 H 445.949 -1.02518 -4.04821 0
M  V30 4871 N 446.386 1.0089 -1.21074 0
M  V30 4872 C 447.632 1.74866 -1.02712 0
M  V30 4873 C 447.965 1.89178 0.438787 0
M  V30 4874 O 447.24 1.42325 1.32567 0
M  V30 4875 C 447.523 3.16347 -1.72036 0
M  V30 4876 C 447.376 3.09782 -3.26121 0
M  V30 4877 C 448.695 4.15187 -1.45973 0
M  V30 4878 H 445.814 0.634736 -0.374539 0
M  V30 4879 H 448.456 1.17646 -1.49196 0
M  V30 4880 H 446.606 3.65201 -1.32517 0
M  V30 4881 H 448.278 2.68673 -3.74983 0
M  V30 4882 H 446.521 2.46982 -3.56626 0
M  V30 4883 H 447.192 4.09829 -3.6979 0
M  V30 4884 H 449.668 3.75022 -1.80272 0
M  V30 4885 H 448.544 5.12331 -1.96999 0
M  V30 4886 H 448.805 4.40386 -0.388924 0
M  V30 4887 N 447.864 1.01787 1.20321 0
M  V30 4888 C 449.28 0.732951 1.41774 0
M  V30 4889 C 449.48 -0.686883 1.89431 0
M  V30 4890 O 448.536 -1.45446 2.06402 0
M  V30 4891 C 449.849 1.75973 2.43832 0
M  V30 4892 C 451.397 1.77802 2.57596 0
M  V30 4893 C 451.872 2.7941 3.62897 0
M  V30 4894 N 453.363 2.78157 3.70382 0
M  V30 4895 C 454.098 3.53434 4.51521 0
M  V30 4896 N 453.594 4.38392 5.36455 0
M  V30 4897 N 455.387 3.42026 4.46066 0
M  V30 4898 H 447.538 1.93447 0.877035 0
M  V30 4899 H 449.801 0.835712 0.447536 0
M  V30 4900 H 449.507 2.77699 2.15815 0
M  V30 4901 H 449.381 1.57292 3.4284 0
M  V30 4902 H 451.768 0.767602 2.84942 0
M  V30 4903 H 451.849 2.00557 1.58779 0
M  V30 4904 H 451.493 3.80616 3.36295 0
M  V30 4905 H 451.423 2.53916 4.61339 0
M  V30 4906 H 453.914 2.16531 3.09714 0
M  V30 4907 H 454.227 4.92596 5.95457 0
M  V30 4908 H 452.572 4.4247 5.35953 0
M  V30 4909 H 455.763 2.75075 3.78749 0
M  V30 4910 H 455.936 4.00946 5.09064 0
M  V30 4911 N 449.342 -1.36122 0.79427 0
M  V30 4912 C 450.753 -1.81646 0.431446 0
M  V30 4913 C 451.104 -1.66043 -1.04518 0
M  V30 4914 O 450.229 -1.1841 -1.8113 0
M  V30 4915 C 450.824 -3.29785 0.776341 0
M  V30 4916 C 449.383 -3.73501 0.466282 0
M  V30 4917 C 448.53 -2.58313 1.00844 0
M  V30 4918 H 451.481 -1.24274 0.986995 0
M  V30 4919 H 451.502 -3.80437 0.0692413 0
M  V30 4920 H 451.014 -3.4111 1.8511 0
M  V30 4921 H 449.115 -3.67733 -0.600245 0
M  V30 4922 H 449.228 -4.68754 0.990288 0
M  V30 4923 H 447.592 -2.5102 0.431406 0
M  V30 4924 H 448.375 -2.72421 2.08906 0
M  V30 4925 N 450.82 -0.546701 -1.47814 0
M  V30 4926 C 451.767 0.206854 -2.29871 0
M  V30 4927 C 452.737 0.918235 -1.38411 0
M  V30 4928 O 453.922 0.915991 -1.67375 0
M  V30 4929 C 451.062 1.23746 -3.22151 0
M  V30 4930 C 450.175 0.533216 -4.28697 0
M  V30 4931 C 449.31 1.5482 -5.08138 0
M  V30 4932 C 448.349 0.828347 -6.06469 0
M  V30 4933 N 447.486 1.78966 -6.78908 0
M  V30 4934 H 452.326 -0.499037 -2.93792 0
M  V30 4935 H 449.863 -0.25793 -1.44821 0
M  V30 4936 H 451.821 1.84746 -3.74065 0
M  V30 4937 H 450.451 1.91151 -2.60117 0
M  V30 4938 H 449.503 -0.191089 -3.7992 0
M  V30 4939 H 450.815 -0.0311987 -4.9879 0
M  V30 4940 H 449.969 2.23202 -5.6415 0
M  V30 4941 H 448.708 2.14652 -4.37922 0
M  V30 4942 H 447.713 0.130539 -5.49645 0
M  V30 4943 H 448.938 0.235907 -6.7869 0
M  V30 4944 H 446.884 2.37675 -6.1143 0
M  V30 4945 H 446.801 1.27712 -7.45135 0
M  V30 4946 H 448.069 2.46496 -7.395 0
M  V30 4947 N 452.299 1.55045 -0.282633 0
M  V30 4948 C 453.545 2.0078 0.325436 0
M  V30 4949 C 453.9 1.1676 1.52921 0
M  V30 4950 O 453.193 0.231475 1.90197 0
M  V30 4951 C 453.387 3.49422 0.750938 0
M  V30 4952 C 453.216 4.47827 -0.410056 0
M  V30 4953 C 451.986 4.97288 -0.896239 0
M  V30 4954 C 454.184 4.98903 -1.24902 0
M  V30 4955 N 452.166 5.79508 -2.02591 0
M  V30 4956 C 453.537 5.78644 -2.22646 0
M  V30 4957 C 455.592 4.81126 -1.2815 0
M  V30 4958 C 454.295 6.42502 -3.23393 0
M  V30 4959 C 456.321 5.45789 -2.27745 0
M  V30 4960 C 455.683 6.25348 -3.24222 0
M  V30 4961 H 451.782 0.77747 0.08405 0
M  V30 4962 H 454.366 1.90369 -0.408368 0
M  V30 4963 H 452.537 3.60159 1.45395 0
M  V30 4964 H 454.269 3.81978 1.33698 0
M  V30 4965 H 451.024 4.71219 -0.474277 0
M  V30 4966 H 451.448 6.25308 -2.59459 0
M  V30 4967 H 456.09 4.19215 -0.549397 0
M  V30 4968 H 453.808 7.03558 -3.97533 0
M  V30 4969 H 457.394 5.33972 -2.31009 0
M  V30 4970 H 456.274 6.74498 -4.00027 0
M  V30 4971 N 453.777 0.010035 1.57597 0
M  V30 4972 C 454.707 -0.976857 2.12084 0
M  V30 4973 C 455.688 -1.35191 1.03235 0
M  V30 4974 O 456.873 -1.43389 1.3097 0
M  V30 4975 C 454.003 -2.26548 2.63236 0
M  V30 4976 C 452.957 -2.03175 3.76701 0
M  V30 4977 C 452.283 -3.38138 4.14206 0
M  V30 4978 C 453.583 -1.38625 5.03568 0
M  V30 4979 H 455.277 -0.523145 2.94794 0
M  V30 4980 H 452.823 -0.250195 1.4181 0
M  V30 4981 H 454.776 -2.95952 2.99984 0
M  V30 4982 H 453.5 -2.74051 1.77661 0
M  V30 4983 H 452.159 -1.36195 3.40362 0
M  V30 4984 H 451.807 -3.83363 3.25641 0
M  V30 4985 H 451.507 -3.23312 4.90656 0
M  V30 4986 H 453.031 -4.08841 4.53521 0
M  V30 4987 H 454.445 -1.98 5.38023 0
M  V30 4988 H 452.842 -1.34256 5.84889 0
M  V30 4989 H 453.912 -0.356722 4.83586 0
M  V30 4990 N 455.255 -1.55392 -0.262866 0
M  V30 4991 C 456.185 -1.91978 -1.32917 0
M  V30 4992 C 457.166 -0.7828 -1.51017 0
M  V30 4993 O 458.351 -1.04178 -1.63892 0
M  V30 4994 C 455.481 -2.20055 -2.68687 0
M  V30 4995 C 454.435 -3.35854 -2.65304 0
M  V30 4996 C 453.761 -3.49435 -4.04721 0
M  V30 4997 C 455.061 -4.71977 -2.23685 0
M  V30 4998 H 456.755 -2.81292 -1.02544 0
M  V30 4999 H 454.301 -1.3534 -0.491846 0
M  V30 5000 H 456.254 -2.44237 -3.43404 0
M  V30 5001 H 454.978 -1.27551 -3.00663 0
M  V30 5002 H 453.637 -3.11655 -1.93045 0
M  V30 5003 H 453.285 -2.54379 -4.33936 0
M  V30 5004 H 452.985 -4.27297 -4.0335 0
M  V30 5005 H 454.509 -3.7592 -4.81161 0
M  V30 5006 H 455.923 -4.95637 -2.88127 0
M  V30 5007 H 454.32 -5.52828 -2.33456 0
M  V30 5008 H 455.39 -4.70115 -1.18827 0
M  V30 5009 N 456.733 0.527833 -1.48498 0
M  V30 5010 C 457.681 1.65313 -1.63628 0
M  V30 5011 C 458.675 1.6177 -0.502676 0
M  V30 5012 O 459.881 1.66601 -0.681469 0
M  V30 5013 H 456.256 0.547518 -0.515488 0
M  V30 5014 H 458.227 1.49696 -2.58135 0
M  V30 5015 C 456.976 3.03576 -1.6952 0
M  V30 5016 H 456.299 3.06997 -2.56111 0
M  V30 5017 H 457.739 3.81923 -1.84149 0
M  V30 5018 C 456.198 3.34089 -0.43432 0
M  V30 5019 O 456.728 3.99151 0.451852 0
M  V30 5020 N 454.934 2.88991 -0.305368 0
M  V30 5021 H 454.481 2.36222 -1.02747 0
M  V30 5022 H 454.439 3.09776 0.537249 0
M  V30 5023 N 458.211 1.37122 0.776871 0
M  V30 5024 C 459.457 1.3325 1.53675 0
M  V30 5025 C 459.812 -0.0839891 1.92217 0
M  V30 5026 O 459.105 -1.04145 1.60824 0
M  V30 5027 C 459.299 2.20068 2.81611 0
M  V30 5028 C 459.128 3.70016 2.55574 0
M  V30 5029 C 457.898 4.39144 2.4996 0
M  V30 5030 C 460.096 4.62996 2.23917 0
M  V30 5031 N 458.078 5.74663 2.15953 0
M  V30 5032 C 459.449 5.86854 2.00005 0
M  V30 5033 C 461.504 4.51433 2.1003 0
M  V30 5034 C 460.207 7.00446 1.63609 0
M  V30 5035 C 462.233 5.64905 1.75033 0
M  V30 5036 C 461.595 6.8781 1.51977 0
M  V30 5037 H 457.694 0.542878 0.562856 0
M  V30 5038 H 460.278 1.72295 0.906784 0
M  V30 5039 H 458.449 1.83248 3.42454 0
M  V30 5040 H 460.181 2.07492 3.47461 0
M  V30 5041 H 456.936 3.92088 2.65639 0
M  V30 5042 H 457.36 6.46268 2.0166 0
M  V30 5043 H 462.002 3.56987 2.26539 0
M  V30 5044 H 459.72 7.94831 1.45837 0
M  V30 5045 H 463.306 5.57926 1.64952 0
M  V30 5046 H 462.186 7.74126 1.25296 0
M  V30 5047 N 459.689 -1.00246 1.21608 0
M  V30 5048 C 460.935 -1.74319 1.03638 0
M  V30 5049 C 461.268 -1.89408 -0.428749 0
M  V30 5050 O 460.543 -1.43026 -1.3181 0
M  V30 5051 C 460.826 -3.15431 1.73711 0
M  V30 5052 C 460.679 -3.08049 3.27759 0
M  V30 5053 C 461.998 -4.14407 1.48173 0
M  V30 5054 H 459.117 -0.632741 0.377899 0
M  V30 5055 H 461.759 -1.16853 1.49818 0
M  V30 5056 H 459.909 -3.64493 1.34452 0
M  V30 5057 H 461.581 -2.66681 3.76403 0
M  V30 5058 H 459.824 -2.45088 3.57931 0
M  V30 5059 H 460.495 -4.07862 3.71958 0
M  V30 5060 H 462.971 -3.74061 1.82258 0
M  V30 5061 H 461.847 -5.11279 1.99713 0
M  V30 5062 H 462.108 -4.40174 0.412273 0
M  V30 5063 N 461.167 -1.02423 -1.1978 0
M  V30 5064 C 462.115 -0.594474 -2.24875 0
M  V30 5065 C 463.109 0.370598 -1.65296 0
M  V30 5066 O 464.315 0.239684 -1.78397 0
M  V30 5067 H 460.69 -0.173961 -0.731602 0
M  V30 5068 H 462.661 -1.4916 -2.58445 0
M  V30 5069 C 461.41 0.0436512 -3.47673 0
M  V30 5070 H 460.733 -0.689963 -3.93801 0
M  V30 5071 H 462.173 0.307362 -4.22884 0
M  V30 5072 C 460.632 1.28881 -3.11274 0
M  V30 5073 O 461.162 2.38135 -3.23503 0
M  V30 5074 N 459.368 1.1758 -2.6575 0
M  V30 5075 H 458.915 0.286769 -2.55999 0
M  V30 5076 H 458.873 2.00988 -2.41767 0
M  V30 5077 N 462.645 1.35699 -0.801477 0
M  V30 5078 C 463.592 2.29876 -0.206294 0
M  V30 5079 C 464.562 1.52565 0.656752 0
M  V30 5080 O 465.747 1.81024 0.602906 0
M  V30 5081 C 462.887 3.39052 0.643272 0
M  V30 5082 C 462 4.31335 -0.239644 0
M  V30 5083 C 461.135 5.27599 0.61744 0
M  V30 5084 C 460.174 6.11521 -0.26619 0
M  V30 5085 N 459.311 6.99938 0.550571 0
M  V30 5086 H 464.151 2.80187 -1.01484 0
M  V30 5087 H 461.688 1.37902 -0.511997 0
M  V30 5088 H 463.646 4.0101 1.15094 0
M  V30 5089 H 462.276 2.9003 1.41713 0
M  V30 5090 H 461.328 3.70426 -0.865381 0
M  V30 5091 H 462.64 4.90243 -0.919985 0
M  V30 5092 H 461.794 5.94906 1.19045 0
M  V30 5093 H 460.533 4.69176 1.33137 0
M  V30 5094 H 459.538 5.43166 -0.851507 0
M  V30 5095 H 460.763 6.72022 -0.9779 0
M  V30 5096 H 458.709 6.44008 1.24856 0
M  V30 5097 H 458.626 7.55966 -0.071832 0
M  V30 5098 H 459.894 7.71599 1.10702 0
M  V30 5099 N 464.123 0.554532 1.47522 0
M  V30 5100 C 465.07 -0.19466 2.29978 0
M  V30 5101 C 466.04 -0.910882 1.38896 0
M  V30 5102 O 467.225 -0.907102 1.67858 0
M  V30 5103 C 464.365 -1.22035 3.22802 0
M  V30 5104 C 463.478 -0.510474 4.28973 0
M  V30 5105 C 462.613 -1.52123 5.08952 0
M  V30 5106 C 461.652 -0.796173 6.069 0
M  V30 5107 N 460.789 -1.75363 6.79847 0
M  V30 5108 H 465.629 0.51461 2.93523 0
M  V30 5109 H 463.166 0.265607 1.44682 0
M  V30 5110 H 465.124 -1.8276 3.7504 0
M  V30 5111 H 463.754 -1.89769 2.61127 0
M  V30 5112 H 462.806 0.211234 3.79813 0
M  V30 5113 H 464.118 0.0576503 4.98767 0
M  V30 5114 H 463.272 -2.20207 5.65326 0
M  V30 5115 H 462.011 -2.12327 4.39054 0
M  V30 5116 H 461.016 -0.101388 5.49707 0
M  V30 5117 H 462.241 -0.199911 6.78806 0
M  V30 5118 H 460.187 -2.3443 6.12682 0
M  V30 5119 H 460.104 -1.23759 7.45801 0
M  V30 5120 H 461.372 -2.4257 7.40797 0
M  V30 5121 N 465.601 -1.54893 0.290851 0
M  V30 5122 C 466.847 -2.0023 -0.321867 0
M  V30 5123 C 467.18 -1.179 -1.54316 0
M  V30 5124 O 466.455 -0.25293 -1.92848 0
M  V30 5125 C 466.738 -3.53456 -0.688515 0
M  V30 5126 C 466.591 -4.46532 0.541209 0
M  V30 5127 C 467.91 -4.13057 -1.51895 0
M  V30 5128 H 465.029 -0.727891 -0.115515 0
M  V30 5129 H 467.671 -1.85722 0.400931 0
M  V30 5130 H 465.821 -3.6595 -1.30433 0
M  V30 5131 H 467.493 -4.4596 1.17973 0
M  V30 5132 H 465.736 -4.17545 1.17636 0
M  V30 5133 H 466.407 -5.51475 0.240675 0
M  V30 5134 H 468.883 -4.03937 -0.99872 0
M  V30 5135 H 467.759 -5.20448 -1.74429 0
M  V30 5136 H 468.02 -3.64284 -2.50498 0
M  V30 5137 N 467.08 -0.0183926 -1.57589 0
M  V30 5138 C 468.31 0.67207 -1.95363 0
M  V30 5139 C 468.718 1.66807 -0.892872 0
M  V30 5140 O 468.061 1.83204 0.134958 0
M  V30 5141 C 468.123 1.44397 -3.29226 0
M  V30 5142 C 467.787 0.607511 -4.52944 0
M  V30 5143 C 468.784 -0.112657 -5.19778 0
M  V30 5144 C 466.469 0.548068 -4.99301 0
M  V30 5145 C 468.463 -0.881057 -6.31281 0
M  V30 5146 C 466.15 -0.224044 -6.10689 0
M  V30 5147 C 467.148 -0.937323 -6.76538 0
M  V30 5148 O 466.836 -1.6968 -7.85789 0
M  V30 5149 H 466.568 0.190925 -0.648478 0
M  V30 5150 H 469.122 -0.0711994 -2.05277 0
M  V30 5151 H 467.352 2.23214 -3.15773 0
M  V30 5152 H 469.041 2.02152 -3.51979 0
M  V30 5153 H 469.807 -0.0759998 -4.8494 0
M  V30 5154 H 465.686 1.09281 -4.4786 0
M  V30 5155 H 469.23 -1.43832 -6.82611 0
M  V30 5156 H 465.127 -0.262457 -6.44966 0
M  V30 5157 H 465.895 -1.61544 -8.024 0
M  V30 5158 N 468.558 1.5553 0.254621 0
M  V30 5159 C 469.835 1.6774 1.00611 0
M  V30 5160 C 470.215 0.555993 2.03647 0
M  V30 5161 O 469.563 -0.441583 2.24193 0
M  V30 5162 C 469.773 3.07725 1.6464 0
M  V30 5163 C 471.121 3.66074 2.15116 0
M  V30 5164 O 472.145 3.10476 1.74595 0
M  V30 5165 O 471.004 4.63526 2.89493 0
M  V30 5166 H 468.098 0.681958 0.467828 0
M  V30 5167 H 470.644 1.67863 0.24902 0
M  V30 5168 H 469.416 3.80792 0.900734 0
M  V30 5169 H 469.039 3.1158 2.46989 0
M  V30 5170 N 470.036 -0.519951 1.48776 0
M  V30 5171 C 470.966 -1.63253 1.66945 0
M  V30 5172 C 471.947 -1.62014 0.518224 0
M  V30 5173 O 473.132 -1.79053 0.751919 0
M  V30 5174 C 470.262 -3.0181 1.71836 0
M  V30 5175 C 469.216 -3.17911 2.8656 0
M  V30 5176 C 468.542 -4.5763 2.76548 0
M  V30 5177 C 469.842 -2.99729 4.27738 0
M  V30 5178 H 471.536 -1.48302 2.6009 0
M  V30 5179 H 469.082 -0.712026 1.25165 0
M  V30 5180 H 471.035 -3.79525 1.83135 0
M  V30 5181 H 469.759 -3.17806 0.752775 0
M  V30 5182 H 468.418 -2.42616 2.74833 0
M  V30 5183 H 468.066 -4.70476 1.77937 0
M  V30 5184 H 467.766 -4.69346 3.53536 0
M  V30 5185 H 469.29 -5.37431 2.89828 0
M  V30 5186 H 470.704 -3.67228 4.40246 0
M  V30 5187 H 469.101 -3.22932 5.05801 0
M  V30 5188 H 470.171 -1.96047 4.43502 0
M  V30 5189 N 471.514 -1.37532 -0.769588 0
M  V30 5190 C 472.763 -1.32183 -1.5235 0
M  V30 5191 C 473.076 0.0906555 -1.9539 0
M  V30 5192 O 474.282 0.266628 -2.70188 0
M  V30 5193 C 472.738 -2.32029 -2.75119 0
M  V30 5194 C 472.346 -3.78816 -2.3917 0
M  V30 5195 C 474.09 -2.35694 -3.53056 0
M  V30 5196 C 471.997 -4.70388 -3.58453 0
M  V30 5197 H 470.927 -0.491275 -0.571984 0
M  V30 5198 H 473.578 -1.63004 -0.842739 0
M  V30 5199 H 471.96 -1.94229 -3.45096 0
M  V30 5200 H 473.134 -4.25466 -1.76962 0
M  V30 5201 H 471.449 -3.78117 -1.74402 0
M  V30 5202 H 474.046 -3.01312 -4.41718 0
M  V30 5203 H 474.389 -1.37117 -3.93071 0
M  V30 5204 H 474.922 -2.72212 -2.90078 0
M  V30 5205 H 471.661 -5.70102 -3.23518 0
M  V30 5206 H 471.181 -4.28442 -4.19758 0
M  V30 5207 H 472.86 -4.87628 -4.25239 0
M  V30 5208 N 472.992 0.995999 -1.22138 0
M  V30 5209 C 474.238 1.73767 -1.04561 0
M  V30 5210 C 474.571 1.89633 0.418698 0
M  V30 5211 O 473.846 1.43723 1.3105 0
M  V30 5212 C 474.129 3.14505 -1.75382 0
M  V30 5213 C 473.982 3.06306 -3.29388 0
M  V30 5214 C 475.301 4.13615 -1.50369 0
M  V30 5215 H 472.42 0.630728 -0.38125 0
M  V30 5216 H 475.062 1.16057 -1.50435 0
M  V30 5217 H 473.212 3.63775 -1.36383 0
M  V30 5218 H 474.884 2.64681 -3.77812 0
M  V30 5219 H 473.127 2.43186 -3.59226 0
M  V30 5220 H 473.798 4.05884 -3.74116 0
M  V30 5221 H 476.274 3.73089 -1.84239 0
M  V30 5222 H 475.15 5.10212 -2.02421 0
M  V30 5223 H 475.411 4.39949 -0.435611 0
M  V30 5224 N 474.47 1.03057 1.19235 0
M  V30 5225 C 475.417 0.612832 2.22515 0
M  V30 5226 C 476.387 -0.374224 1.61829 0
M  V30 5227 O 477.572 -0.270501 1.88873 0
M  V30 5228 C 474.712 -0.028475 3.45088 0
M  V30 5229 C 473.825 1.00483 4.20151 0
M  V30 5230 C 472.96 0.333102 5.30155 0
M  V30 5231 C 471.999 1.3522 5.96977 0
M  V30 5232 N 471.136 0.70616 6.9854 0
M  V30 5233 H 475.976 1.49812 2.57605 0
M  V30 5234 H 473.513 0.749658 1.26564 0
M  V30 5235 H 475.471 -0.417548 4.15105 0
M  V30 5236 H 474.101 -0.877334 3.10649 0
M  V30 5237 H 473.153 1.51194 3.49062 0
M  V30 5238 H 474.465 1.77929 4.65986 0
M  V30 5239 H 473.619 -0.110725 6.06599 0
M  V30 5240 H 472.358 -0.473547 4.85396 0
M  V30 5241 H 471.363 1.80627 5.19282 0
M  V30 5242 H 472.588 2.16037 6.4382 0
M  V30 5243 H 470.534 -0.0803667 6.55951 0
M  V30 5244 H 470.451 1.41848 7.42573 0
M  V30 5245 H 471.719 0.286391 7.78974 0
M  V30 5246 N 475.948 -1.35272 0.808662 0
M  V30 5247 C 476.858 -2.33546 0.222079 0
M  V30 5248 C 477.874 -1.6196 -0.636011 0
M  V30 5249 O 479.05 -1.93822 -0.547274 0
M  V30 5250 C 476.115 -3.41148 -0.61795 0
M  V30 5251 C 475.176 -4.28507 0.260875 0
M  V30 5252 C 474.409 -5.3097 -0.539156 0
M  V30 5253 O 474.632 -5.42123 -1.77367 0
M  V30 5254 O 473.566 -6.01858 0.0710526 0
M  V30 5255 H 477.392 -2.85515 1.03512 0
M  V30 5256 H 474.977 -1.38079 0.570495 0
M  V30 5257 H 476.859 -4.06889 -1.09634 0
M  V30 5258 H 475.534 -2.91447 -1.40855 0
M  V30 5259 H 474.441 -3.6574 0.786451 0
M  V30 5260 H 475.774 -4.81611 1.01547 0
M  V30 5261 N 477.426 -0.562348 -1.47226 0
M  V30 5262 C 478.656 -0.0451619 -2.06551 0
M  V30 5263 C 479.064 1.25626 -1.41473 0
M  V30 5264 O 478.407 1.76563 -0.507061 0
M  V30 5265 C 478.469 0.216068 -3.5885 0
M  V30 5266 C 478.133 -0.996691 -4.45999 0
M  V30 5267 C 479.13 -1.90358 -4.83797 0
M  V30 5268 C 476.815 -1.21281 -4.87438 0
M  V30 5269 C 478.809 -3.01023 -5.6184 0
M  V30 5270 C 476.496 -2.32255 -5.65244 0
M  V30 5271 C 477.494 -3.21956 -6.02356 0
M  V30 5272 O 477.182 -4.31005 -6.78594 0
M  V30 5273 H 476.914 -0.0451646 -0.67449 0
M  V30 5274 H 479.468 -0.776842 -1.90143 0
M  V30 5275 H 477.698 1.00212 -3.7349 0
M  V30 5276 H 479.387 0.679264 -4.00176 0
M  V30 5277 H 480.153 -1.74868 -4.52378 0
M  V30 5278 H 476.032 -0.523767 -4.58015 0
M  V30 5279 H 479.576 -3.71064 -5.90726 0
M  V30 5280 H 475.473 -2.47715 -5.96077 0
M  V30 5281 H 476.241 -4.29118 -6.96994 0
M  V30 5282 N 478.904 1.54736 -0.299062 0
M  V30 5283 C 479.836 2.20891 0.61153 0
M  V30 5284 C 480.849 1.20104 1.09904 0
M  V30 5285 O 482.038 1.46707 1.01683 0
M  V30 5286 C 479.138 2.84018 1.84897 0
M  V30 5287 C 478.311 4.10719 1.50428 0
M  V30 5288 C 477.37 4.57667 2.59667 0
M  V30 5289 O 476.396 5.2291 2.24842 0
M  V30 5290 N 477.598 4.29821 3.90172 0
M  V30 5291 H 480.363 2.99666 0.0452001 0
M  V30 5292 H 477.924 1.61446 -0.121178 0
M  V30 5293 H 479.916 3.1236 2.5732 0
M  V30 5294 H 478.486 2.09095 2.32375 0
M  V30 5295 H 477.706 3.89408 0.612781 0
M  V30 5296 H 478.994 4.93223 1.24934 0
M  V30 5297 H 478.392 3.77549 4.21276 0
M  V30 5298 H 476.949 4.62877 4.58899 0
M  V30 5299 N 480.382 0.0267497 1.57577 0
M  V30 5300 C 481.33 -0.973923 2.11229 0
M  V30 5301 C 482.324 -1.33849 1.03831 0
M  V30 5302 O 483.53 -1.321 1.22269 0
M  V30 5303 H 479.905 -0.331844 0.674821 0
M  V30 5304 H 481.876 -0.496092 2.94247 0
M  V30 5305 C 480.625 -2.24798 2.65257 0
M  V30 5306 H 479.948 -1.9762 3.47543 0
M  V30 5307 H 481.388 -2.93031 3.06445 0
M  V30 5308 C 479.847 -2.97611 1.57891 0
M  V30 5309 O 480.377 -3.89629 0.97735 0
M  V30 5310 N 478.583 -2.59905 1.29992 0
M  V30 5311 H 478.13 -1.85154 1.79097 0
M  V30 5312 H 478.088 -3.08932 0.583798 0
M  V30 5313 N 481.861 -1.55662 -0.24637 0
M  V30 5314 C 483.089 -1.81575 -0.991876 0
M  V30 5315 C 483.504 -0.602545 -1.78927 0
M  V30 5316 O 482.861 0.428795 -1.77391 0
M  V30 5317 C 482.912 -3.05711 -1.92933 0
M  V30 5318 O 482.633 -4.22348 -1.1642 0
M  V30 5319 C 484.134 -3.44428 -2.79078 0
M  V30 5320 H 481.354 -0.604209 -0.291844 0
M  V30 5321 H 483.898 -2.02722 -0.269095 0
M  V30 5322 H 482.053 -2.86612 -2.60638 0
M  V30 5323 H 482.467 -4.92706 -1.79835 0
M  V30 5324 H 483.941 -4.34388 -3.40603 0
M  V30 5325 H 484.418 -2.65037 -3.50217 0
M  V30 5326 H 485.024 -3.65879 -2.16824 0
M  V30 5327 N 483.339 0.512053 -1.4905 0
M  V30 5328 C 484.249 1.64139 -1.67617 0
M  V30 5329 C 485.265 1.64786 -0.558701 0
M  V30 5330 O 486.441 1.8341 -0.832034 0
M  V30 5331 C 483.506 3.00548 -1.72835 0
M  V30 5332 C 482.567 3.10615 -2.96339 0
M  V30 5333 C 481.8 4.40517 -3.01298 0
M  V30 5334 O 482.023 5.28671 -2.14157 0
M  V30 5335 O 480.957 4.55325 -3.93653 0
M  V30 5336 H 484.783 1.51407 -2.63267 0
M  V30 5337 H 482.368 0.687131 -1.32661 0
M  V30 5338 H 484.25 3.81641 -1.78683 0
M  V30 5339 H 482.925 3.13566 -0.803616 0
M  V30 5340 H 481.832 2.2875 -2.96014 0
M  V30 5341 H 483.165 3.0252 -3.88256 0
M  V30 5342 N 484.817 1.37938 0.762283 0
M  V30 5343 C 486.047 1.36685 1.54922 0
M  V30 5344 C 486.455 -0.0474099 1.89141 0
M  V30 5345 O 485.798 -1.02213 1.52638 0
M  V30 5346 C 485.86 2.14963 2.88152 0
M  V30 5347 C 485.524 3.6385 2.76518 0
M  V30 5348 C 486.521 4.57531 2.46904 0
M  V30 5349 C 484.206 4.07095 2.94243 0
M  V30 5350 C 486.2 5.92436 2.35156 0
M  V30 5351 C 483.887 5.42083 2.82116 0
M  V30 5352 C 484.885 6.34567 2.52614 0
M  V30 5353 O 484.573 7.67073 2.40529 0
M  V30 5354 H 484.305 0.469586 0.486276 0
M  V30 5355 H 486.859 1.82012 0.951876 0
M  V30 5356 H 485.089 1.6434 3.50042 0
M  V30 5357 H 486.778 2.06224 3.49609 0
M  V30 5358 H 487.544 4.25428 2.32886 0
M  V30 5359 H 483.423 3.35462 3.16206 0
M  V30 5360 H 486.967 6.64591 2.12049 0
M  V30 5361 H 482.864 5.73785 2.95704 0
M  V30 5362 H 483.632 7.77499 2.55807 0
M  V30 5363 N 486.295 -0.989507 1.22664 0
M  V30 5364 C 487.225 -2.09847 1.02404 0
M  V30 5365 C 488.206 -1.70007 -0.0561303 0
M  V30 5366 O 489.391 -1.93906 0.106748 0
M  V30 5367 C 486.521 -3.41996 0.604663 0
M  V30 5368 C 485.475 -3.95699 1.63115 0
M  V30 5369 C 484.801 -5.23936 1.0675 0
M  V30 5370 C 486.101 -4.25999 3.02196 0
M  V30 5371 H 487.795 -2.27054 1.95158 0
M  V30 5372 H 485.341 -1.09111 0.939727 0
M  V30 5373 H 487.294 -4.1899 0.45002 0
M  V30 5374 H 486.018 -3.24626 -0.35855 0
M  V30 5375 H 484.677 -3.2084 1.77362 0
M  V30 5376 H 484.325 -5.02909 0.0955422 0
M  V30 5377 H 484.025 -5.60833 1.75328 0
M  V30 5378 H 485.549 -6.0356 0.924516 0
M  V30 5379 H 486.963 -4.93777 2.91303 0
M  V30 5380 H 485.36 -4.74076 3.67929 0
M  V30 5381 H 486.43 -3.33636 3.51873 0
M  V30 5382 N 487.773 -1.03688 -1.18687 0
M  V30 5383 C 489.013 -0.746858 -1.90267 0
M  V30 5384 C 489.377 0.712075 -1.78307 0
M  V30 5385 O 490.578 1.11553 -2.44559 0
M  V30 5386 C 488.849 -1.19543 -3.36815 0
M  V30 5387 S 490.408 -1.03047 -4.26529 0
M  V30 5388 H 487.226 -0.271663 -0.657054 0
M  V30 5389 H 489.828 -1.32838 -1.43437 0
M  V30 5390 H 488.532 -2.2527 -3.43047 0
M  V30 5391 H 488.063 -0.607533 -3.88681 0
M  V30 5392 H 490.078 0.0543232 -4.9617 0
M  V30 5393 N 489.251 1.34841 -0.815825 0
M  V30 5394 C 490.5 1.97755 -0.396976 0
M  V30 5395 C 490.813 1.65422 1.04379 0
M  V30 5396 O 492.019 2.21771 1.5662 0
M  V30 5397 C 490.475 3.53818 -0.658869 0
M  V30 5398 C 490.083 3.95051 -2.11278 0
M  V30 5399 C 491.827 4.23397 -0.305834 0
M  V30 5400 C 489.734 5.43997 -2.31994 0
M  V30 5401 H 488.664 0.739985 -0.1447 0
M  V30 5402 H 491.315 1.53781 -1.00118 0
M  V30 5403 H 489.697 3.95997 0.0154112 0
M  V30 5404 H 490.871 3.63998 -2.82564 0
M  V30 5405 H 489.186 3.38388 -2.42657 0
M  V30 5406 H 491.783 5.32899 -0.43854 0
M  V30 5407 H 492.126 4.09508 0.748952 0
M  V30 5408 H 492.659 3.8667 -0.934403 0
M  V30 5409 H 489.398 5.62865 -3.35952 0
M  V30 5410 H 488.918 5.76589 -1.65244 0
M  V30 5411 H 490.597 6.10584 -2.14001 0
M  V30 5412 N 490.729 0.570148 1.46925 0
M  V30 5413 C 491.692 -0.159933 2.28641 0
M  V30 5414 C 492.692 -0.830638 1.37685 0
M  V30 5415 O 493.882 -0.684516 1.60187 0
M  V30 5416 C 491.014 -1.2354 3.17727 0
M  V30 5417 H 492.207 0.558035 2.94662 0
M  V30 5418 H 489.76 0.327603 1.52828 0
M  V30 5419 H 490.495 -1.98535 2.56426 0
M  V30 5420 H 490.28 -0.759125 3.84681 0
M  V30 5421 H 491.77 -1.74782 3.79264 0
M  V30 5422 N 492.207 -1.54576 0.307264 0
M  V30 5423 C 493.618 -1.8579 -0.184121 0
M  V30 5424 C 493.969 -1.22914 -1.52927 0
M  V30 5425 O 493.094 -0.529126 -2.09831 0
M  V30 5426 C 493.689 -3.37081 -0.340862 0
M  V30 5427 C 492.248 -3.68304 -0.776465 0
M  V30 5428 C 491.395 -2.77076 0.111503 0
M  V30 5429 H 494.346 -1.49656 0.528078 0
M  V30 5430 H 494.367 -3.61922 -1.17443 0
M  V30 5431 H 493.879 -3.82815 0.638309 0
M  V30 5432 H 491.98 -3.28092 -1.76596 0
M  V30 5433 H 492.093 -4.75434 -0.591512 0
M  V30 5434 H 490.457 -2.51374 -0.410256 0
M  V30 5435 H 491.24 -3.25632 1.08714 0
M  V30 5436 N 493.685 -0.035106 -1.57561 0
M  V30 5437 C 494.931 0.64318 -1.92331 0
M  V30 5438 C 495.264 1.71434 -0.912368 0
M  V30 5439 O 494.539 1.94395 0.0640303 0
M  V30 5440 C 494.822 1.25411 -3.37556 0
M  V30 5441 C 494.675 0.192109 -4.4939 0
M  V30 5442 C 495.994 2.17041 -3.82859 0
M  V30 5443 H 493.113 0.232341 -0.699419 0
M  V30 5444 H 495.755 -0.0935889 -1.89769 0
M  V30 5445 H 493.905 1.88205 -3.39869 0
M  V30 5446 H 495.577 -0.438849 -4.59208 0
M  V30 5447 H 493.82 -0.481725 -4.31117 0
M  V30 5448 H 494.491 0.659292 -5.48049 0
M  V30 5449 H 496.967 1.64228 -3.8232 0
M  V30 5450 H 495.843 2.56738 -4.85157 0
M  V30 5451 H 496.104 3.06401 -3.18702 0
M  V30 5452 N 495.163 1.55791 0.238111 0
M  V30 5453 C 496.388 1.8244 0.986432 0
M  V30 5454 C 496.813 0.613314 1.7782 0
M  V30 5455 O 496.171 -0.437767 1.75935 0
M  V30 5456 C 496.219 3.06917 1.893 0
M  V30 5457 O 495.323 2.84449 2.98601 0
M  V30 5458 H 494.664 0.601975 0.280218 0
M  V30 5459 H 497.194 2.02987 0.256437 0
M  V30 5460 H 497.204 3.36583 2.30598 0
M  V30 5461 H 495.879 3.947 1.31091 0
M  V30 5462 H 494.456 2.65972 2.61368 0
M  V30 5463 N 496.642 -0.504142 1.49319 0
M  V30 5464 C 497.889 -1.25846 1.58647 0
M  V30 5465 C 498.217 -1.92592 0.27177 0
M  V30 5466 O 497.472 -1.81167 -0.74007 0
M  V30 5467 C 497.771 -2.35021 2.69258 0
M  V30 5468 C 497.437 -1.85755 4.1086 0
M  V30 5469 C 496.099 -1.72038 4.49395 0
M  V30 5470 C 498.451 -1.48844 4.99495 0
M  V30 5471 C 495.779 -1.19783 5.74342 0
M  V30 5472 C 498.131 -0.980422 6.24956 0
M  V30 5473 C 496.795 -0.829622 6.62324 0
M  V30 5474 H 496.065 -0.460505 0.580531 0
M  V30 5475 H 498.712 -0.559716 1.83138 0
M  V30 5476 H 497.017 -3.10672 2.38726 0
M  V30 5477 H 498.714 -2.93083 2.73685 0
M  V30 5478 H 495.304 -1.9739 3.80441 0
M  V30 5479 H 499.488 -1.5829 4.70381 0
M  V30 5480 H 494.744 -1.06817 6.01997 0
M  V30 5481 H 498.918 -0.685608 6.93017 0
M  V30 5482 H 496.545 -0.42253 7.59025 0
M  V30 5483 N 498.12 -1.38341 -0.754957 0
M  V30 5484 C 499.083 -1.35262 -1.85032 0
M  V30 5485 C 500.083 -0.253393 -1.58791 0
M  V30 5486 O 501.273 -0.510205 -1.66561 0
M  V30 5487 C 498.405 -1.10544 -3.22479 0
M  V30 5488 H 499.598 -2.32712 -1.8917 0
M  V30 5489 H 497.151 -1.23614 -0.956515 0
M  V30 5490 H 497.886 -0.136952 -3.24011 0
M  V30 5491 H 497.671 -1.90127 -3.4292 0
M  V30 5492 H 499.161 -1.11082 -4.02555 0
M  V30 5493 N 499.598 0.982988 -1.23187 0
M  V30 5494 C 500.845 1.72392 -1.06241 0
M  V30 5495 C 501.173 1.9032 0.40108 0
M  V30 5496 O 500.428 1.45084 1.31336 0
M  V30 5497 C 500.727 3.12736 -1.73006 0
M  V30 5498 C 500.393 3.14695 -3.22921 0
M  V30 5499 C 499.055 3.14937 -3.63824 0
M  V30 5500 C 501.407 3.10211 -4.1883 0
M  V30 5501 C 498.735 3.08408 -4.99101 0
M  V30 5502 C 501.087 3.05224 -5.54095 0
M  V30 5503 C 499.751 3.03787 -5.94365 0
M  V30 5504 H 499.021 0.630829 -0.388762 0
M  V30 5505 H 501.668 1.15053 -1.53085 0
M  V30 5506 H 499.973 3.73446 -1.18514 0
M  V30 5507 H 501.67 3.68828 -1.57374 0
M  V30 5508 H 498.26 3.15262 -2.90358 0
M  V30 5509 H 502.444 3.09166 -3.8824 0
M  V30 5510 H 497.7 3.05646 -5.29519 0
M  V30 5511 H 501.874 3.00712 -6.28128 0
M  V30 5512 H 499.501 2.98483 -6.99151 0
M  V30 5513 N 501.076 1.04316 1.18135 0
M  V30 5514 C 502.024 0.630175 2.23901 0
M  V30 5515 C 503.018 -0.344254 1.65865 0
M  V30 5516 O 504.224 -0.211273 1.78756 0
M  V30 5517 H 500.599 0.185578 0.728742 0
M  V30 5518 H 502.57 1.53253 2.56039 0
M  V30 5519 C 501.319 0.011666 3.47698 0
M  V30 5520 H 500.642 0.752526 3.92654 0
M  V30 5521 H 502.082 -0.240046 4.2332 0
M  V30 5522 C 500.541 -1.23913 3.13285 0
M  V30 5523 O 501.071 -2.32959 3.27251 0
M  V30 5524 N 499.277 -1.13338 2.67587 0
M  V30 5525 H 498.824 -0.246006 2.56423 0
M  V30 5526 H 498.782 -1.97116 2.44934 0
M  V30 5527 N 502.554 -1.34406 0.822964 0
M  V30 5528 C 503.487 -2.27407 0.190124 0
M  V30 5529 C 504.465 -1.4889 -0.653486 0
M  V30 5530 O 505.649 -1.78109 -0.617216 0
M  V30 5531 C 502.776 -3.3064 -0.734477 0
M  V30 5532 C 501.822 -4.26488 0.0316099 0
M  V30 5533 S 502.655 -5.17445 1.3788 0
M  V30 5534 C 503.811 -6.24214 0.45907 0
M  V30 5535 H 504.044 -2.80733 0.978586 0
M  V30 5536 H 501.577 -1.41455 0.618866 0
M  V30 5537 H 503.535 -3.90607 -1.26238 0
M  V30 5538 H 502.196 -2.76161 -1.49646 0
M  V30 5539 H 501.389 -4.9951 -0.671285 0
M  V30 5540 H 500.991 -3.70775 0.490066 0
M  V30 5541 H 503.283 -6.76599 -0.349357 0
M  V30 5542 H 504.226 -6.98551 1.15896 0
M  V30 5543 H 504.634 -5.6448 0.0474825 0
M  V30 5544 N 504.032 -0.577932 -1.46621 0
M  V30 5545 C 505.278 -0.0617793 -2.02706 0
M  V30 5546 C 505.611 1.29294 -1.44903 0
M  V30 5547 O 504.886 1.8461 -0.61232 0
M  V30 5548 C 505.169 0.00911824 -3.60099 0
M  V30 5549 C 505.022 -1.37416 -4.28295 0
M  V30 5550 C 506.341 0.712159 -4.343 0
M  V30 5551 H 503.46 -0.0239246 -0.736612 0
M  V30 5552 H 506.102 -0.744211 -1.74818 0
M  V30 5553 H 504.252 0.590292 -3.83989 0
M  V30 5554 H 505.924 -2.00013 -4.15683 0
M  V30 5555 H 504.167 -1.94319 -3.87843 0
M  V30 5556 H 504.838 -1.27707 -5.37024 0
M  V30 5557 H 507.314 0.218486 -4.15526 0
M  V30 5558 H 506.19 0.730782 -5.44014 0
M  V30 5559 H 506.451 1.77251 -4.05012 0
M  V30 5560 N 505.51 1.54411 -0.315457 0
M  V30 5561 C 506.756 2.00716 0.289972 0
M  V30 5562 C 507.089 1.2034 1.5242 0
M  V30 5563 O 506.364 0.283579 1.92422 0
M  V30 5564 C 506.647 3.54507 0.632196 0
M  V30 5565 C 506.5 4.45615 -0.61218 0
M  V30 5566 C 507.819 4.15421 1.45305 0
M  V30 5567 H 504.938 0.729637 0.10392 0
M  V30 5568 H 507.58 1.8506 -0.430427 0
M  V30 5569 H 505.73 3.67979 1.24595 0
M  V30 5570 H 507.402 4.44026 -1.25053 0
M  V30 5571 H 505.645 4.15621 -1.24264 0
M  V30 5572 H 506.316 5.51022 -0.328379 0
M  V30 5573 H 508.792 4.05474 0.934331 0
M  V30 5574 H 507.668 5.23157 1.66127 0
M  V30 5575 H 507.929 3.68223 2.44671 0
M  V30 5576 N 506.988 0.0434614 1.5754 0
M  V30 5577 C 508.216 -0.641835 1.96693 0
M  V30 5578 C 508.631 -1.64832 0.920652 0
M  V30 5579 O 507.988 -1.82247 -0.095993 0
M  V30 5580 C 508.039 -1.33557 3.35924 0
M  V30 5581 O 507.76 -0.369403 4.3654 0
M  V30 5582 C 509.261 -2.11135 3.89791 0
M  V30 5583 H 506.481 -0.176013 0.647503 0
M  V30 5584 H 509.025 0.107478 2.04217 0
M  V30 5585 H 507.18 -2.03617 3.29574 0
M  V30 5586 H 507.594 -0.863674 5.1734 0
M  V30 5587 H 509.068 -2.55107 4.89514 0
M  V30 5588 H 509.545 -2.95634 3.24803 0
M  V30 5589 H 510.151 -1.46002 3.99454 0
M  V30 5590 N 508.466 -1.55915 -0.229846 0
M  V30 5591 C 509.706 -1.80314 -0.962614 0
M  V30 5592 C 510.07 -0.61568 -1.81861 0
M  V30 5593 O 511.271 -0.738795 -2.58448 0
M  V30 5594 C 509.542 -3.0956 -1.78627 0
M  V30 5595 S 511.101 -3.55243 -2.57581 0
M  V30 5596 H 507.919 -0.633142 -0.323499 0
M  V30 5597 H 510.521 -1.94155 -0.228919 0
M  V30 5598 H 509.225 -3.94033 -1.14742 0
M  V30 5599 H 508.756 -2.98503 -2.56241 0
M  V30 5600 H 510.771 -3.17924 -3.80971 0
M  V30 5601 N 509.944 0.496216 -1.49584 0
M  V30 5602 C 510.894 1.59422 -1.62999 0
M  V30 5603 C 511.878 1.53402 -0.485457 0
M  V30 5604 O 513.07 1.60851 -0.738649 0
M  V30 5605 C 510.199 2.98009 -1.70427 0
M  V30 5606 C 509.285 3.09008 -2.90473 0
M  V30 5607 N 509.676 2.89884 -4.14489 0
M  V30 5608 C 507.974 3.40115 -2.8851 0
M  V30 5609 C 508.675 3.0519 -4.95211 0
M  V30 5610 N 507.651 3.3428 -4.2867 0
M  V30 5611 H 511.453 1.43297 -2.56599 0
M  V30 5612 H 508.967 0.702443 -1.46422 0
M  V30 5613 H 510.964 3.76926 -1.78136 0
M  V30 5614 H 509.624 3.152 -0.77967 0
M  V30 5615 H 510.635 2.65963 -4.44392 0
M  V30 5616 H 507.312 3.63452 -2.05448 0
M  V30 5617 H 508.702 2.94856 -6.03746 0
M  V30 5618 N 511.423 1.38739 0.74761 0
M  V30 5619 C 512.653 1.3832 1.53464 0
M  V30 5620 C 513.061 -0.0273464 1.8918 0
M  V30 5621 O 512.404 -1.00588 1.53713 0
M  V30 5622 C 512.466 2.18007 2.85855 0
M  V30 5623 C 512.13 3.66762 2.72644 0
M  V30 5624 C 513.127 4.60124 2.42037 0
M  V30 5625 C 510.812 4.10193 2.89909 0
M  V30 5626 C 512.806 5.94897 2.28859 0
M  V30 5627 C 510.493 5.45045 2.7635 0
M  V30 5628 C 511.491 6.37211 2.45869 0
M  V30 5629 O 511.179 7.69581 2.3238 0
M  V30 5630 H 510.911 0.474718 0.481268 0
M  V30 5631 H 513.465 1.83012 0.932518 0
M  V30 5632 H 511.695 1.68043 3.48279 0
M  V30 5633 H 513.384 2.09921 3.47402 0
M  V30 5634 H 514.15 4.27874 2.28361 0
M  V30 5635 H 510.029 3.38797 3.1263 0
M  V30 5636 H 513.573 6.66802 2.04989 0
M  V30 5637 H 509.47 5.76889 2.89601 0
M  V30 5638 H 510.238 7.80169 2.47546 0
M  V30 5639 N 512.901 -0.976442 1.23707 0
M  V30 5640 C 513.811 -2.10359 1.03856 0
M  V30 5641 C 514.827 -1.73991 -0.0180919 0
M  V30 5642 O 516.003 -2.0061 0.178211 0
M  V30 5643 C 513.068 -3.40809 0.636387 0
M  V30 5644 C 512.129 -3.91179 1.76854 0
M  V30 5645 C 511.362 -5.15404 1.38546 0
M  V30 5646 O 511.585 -5.69754 0.27142 0
M  V30 5647 O 510.519 -5.5994 2.20797 0
M  V30 5648 H 514.345 -2.29997 1.98331 0
M  V30 5649 H 511.93 -1.08742 1.02448 0
M  V30 5650 H 513.812 -4.19269 0.423223 0
M  V30 5651 H 512.487 -3.22493 -0.279322 0
M  V30 5652 H 511.394 -3.13819 2.03638 0
M  V30 5653 H 512.727 -4.13958 2.6627 0
M  V30 5654 N 514.379 -1.04941 -1.1758 0
M  V30 5655 C 515.627 -0.756492 -1.87408 0
M  V30 5656 C 515.948 0.718478 -1.81281 0
M  V30 5657 O 515.218 1.519 -1.23706 0
M  V30 5658 H 513.798 -0.276841 -0.693807 0
M  V30 5659 H 516.46 -1.32803 -1.42652 0
M  V30 5660 H 515.556 -1.06918 -2.93215 0
M  V30 5661 N 515.857 1.33968 -0.830081 0
M  V30 5662 C 517.082 2.02813 -0.433796 0
M  V30 5663 C 517.507 1.62076 0.954614 0
M  V30 5664 O 516.865 0.808955 1.62252 0
M  V30 5665 C 516.913 3.56348 -0.552115 0
M  V30 5666 O 516.017 4.10202 0.425191 0
M  V30 5667 H 515.358 0.639817 -0.177567 0
M  V30 5668 H 517.888 1.7106 -1.12248 0
M  V30 5669 H 517.898 4.05722 -0.430513 0
M  V30 5670 H 516.573 3.85344 -1.56471 0
M  V30 5671 H 515.15 3.71979 0.261878 0
M  V30 5672 N 517.335 0.585699 1.46312 0
M  V30 5673 C 518.245 -0.148236 2.34131 0
M  V30 5674 C 519.261 -0.882972 1.49932 0
M  V30 5675 O 520.437 -0.845484 1.82794 0
M  V30 5676 C 517.502 -1.14714 3.27172 0
M  V30 5677 C 516.563 -0.416746 4.27272 0
M  V30 5678 C 515.796 -1.36806 5.15868 0
M  V30 5679 O 516.019 -2.60475 5.07454 0
M  V30 5680 O 514.953 -0.877018 5.95476 0
M  V30 5681 H 518.779 0.572882 2.98248 0
M  V30 5682 H 516.364 0.346082 1.45336 0
M  V30 5683 H 518.246 -1.72303 3.84564 0
M  V30 5684 H 516.921 -1.84967 2.65648 0
M  V30 5685 H 515.828 0.201061 3.73559 0
M  V30 5686 H 517.161 0.244872 4.9159 0
M  V30 5687 N 518.813 -1.54241 0.323641 0
M  V30 5688 C 520.038 -2.05452 -0.283605 0
M  V30 5689 C 520.463 -1.19823 -1.44997 0
M  V30 5690 O 519.821 -0.207358 -1.8011 0
M  V30 5691 C 519.869 -3.53823 -0.695795 0
M  V30 5692 O 518.973 -3.71134 -1.79815 0
M  V30 5693 H 518.314 -0.662024 -0.0511917 0
M  V30 5694 H 520.844 -1.99079 0.472073 0
M  V30 5695 H 520.854 -3.96094 -0.978434 0
M  V30 5696 H 519.529 -4.15602 0.157287 0
M  V30 5697 H 518.106 -3.40768 -1.51431 0
M  V30 5698 N 520.291 -0.0518155 -1.57515 0
M  V30 5699 C 521.201 0.937539 -2.15052 0
M  V30 5700 C 522.217 1.34121 -1.10849 0
M  V30 5701 O 523.393 1.418 -1.4302 0
M  V30 5702 C 520.458 2.19379 -2.68466 0
M  V30 5703 C 519.519 1.84841 -3.87469 0
M  V30 5704 C 518.752 3.04477 -4.38326 0
M  V30 5705 O 518.975 4.17868 -3.88256 0
M  V30 5706 O 517.909 2.85453 -5.29906 0
M  V30 5707 H 521.735 0.478201 -2.99912 0
M  V30 5708 H 519.32 0.17012 -1.48428 0
M  V30 5709 H 521.202 2.93084 -3.02787 0
M  V30 5710 H 519.877 2.64449 -1.86677 0
M  V30 5711 H 518.784 1.08449 -3.58036 0
M  V30 5712 H 520.117 1.44569 -4.7049 0
M  V30 5713 N 521.769 1.56035 0.221574 0
M  V30 5714 C 522.717 1.93269 1.29421 0
M  V30 5715 C 523.711 0.814727 1.48521 0
M  V30 5716 O 524.917 0.999559 1.49696 0
M  V30 5717 H 521.292 0.614188 0.43391 0
M  V30 5718 H 523.263 2.82773 0.952987 0
M  V30 5719 C 522.012 2.26573 2.63742 0
M  V30 5720 H 521.335 3.12112 2.49853 0
M  V30 5721 H 522.775 2.5651 3.37607 0
M  V30 5722 C 521.234 1.09086 3.1875 0
M  V30 5723 O 521.764 0.351985 4.00155 0
M  V30 5724 N 519.97 0.874693 2.77124 0
M  V30 5725 H 519.517 1.47726 2.11033 0
M  V30 5726 H 519.475 0.0903349 3.1427 0
M  V30 5727 N 523.247 -0.488276 1.49845 0
M  V30 5728 C 524.494 -1.24157 1.59973 0
M  V30 5729 C 524.822 -1.92293 0.292182 0
M  V30 5730 O 524.077 -1.81942 -0.720813 0
M  V30 5731 C 524.376 -2.32152 2.71735 0
M  V30 5732 C 524.042 -1.81387 4.12807 0
M  V30 5733 C 522.704 -1.67262 4.51195 0
M  V30 5734 C 525.056 -1.43537 5.01045 0
M  V30 5735 C 522.384 -1.13685 5.7558 0
M  V30 5736 C 524.736 -0.914081 6.25961 0
M  V30 5737 C 523.4 -0.759327 6.63167 0
M  V30 5738 H 522.67 -0.454322 0.585383 0
M  V30 5739 H 525.317 -0.540261 1.83721 0
M  V30 5740 H 523.622 -3.08122 2.42008 0
M  V30 5741 H 525.319 -2.90164 2.76778 0
M  V30 5742 H 521.909 -1.93344 3.82513 0
M  V30 5743 H 526.093 -1.53292 4.72033 0
M  V30 5744 H 521.349 -1.00426 6.03096 0
M  V30 5745 H 525.523 -0.612066 6.93705 0
M  V30 5746 H 523.15 -0.342002 7.5943 0
M  V30 5747 N 524.725 -1.39134 -0.740242 0
M  V30 5748 C 525.672 -1.37434 -1.8542 0
M  V30 5749 C 526.642 -0.234822 -1.64432 0
M  V30 5750 O 527.827 -0.429125 -1.85912 0
M  V30 5751 C 524.967 -1.21844 -3.22875 0
M  V30 5752 C 524.08 -2.45296 -3.55603 0
M  V30 5753 C 523.215 -2.22334 -4.82432 0
M  V30 5754 C 522.254 -3.41488 -5.07988 0
M  V30 5755 N 521.391 -3.17877 -6.26018 0
M  V30 5756 H 526.231 -2.3266 -1.86207 0
M  V30 5757 H 523.768 -1.15578 -0.909946 0
M  V30 5758 H 525.726 -1.10818 -4.02213 0
M  V30 5759 H 524.356 -0.3025 -3.21379 0
M  V30 5760 H 523.408 -2.66945 -2.71006 0
M  V30 5761 H 524.72 -3.34063 -3.7041 0
M  V30 5762 H 523.874 -2.0852 -5.69741 0
M  V30 5763 H 522.613 -1.30954 -4.6979 0
M  V30 5764 H 521.618 -3.55807 -4.19144 0
M  V30 5765 H 522.843 -4.33763 -5.22519 0
M  V30 5766 H 520.789 -2.29156 -6.14673 0
M  V30 5767 H 520.706 -4.00198 -6.41387 0
M  V30 5768 H 521.974 -3.07746 -7.16179 0
M  V30 5769 N 526.204 0.969867 -1.24223 0
M  V30 5770 C 527.151 2.06407 -1.0327 0
M  V30 5771 C 528.121 1.66014 0.0533 0
M  V30 5772 O 529.306 1.90533 -0.100896 0
M  V30 5773 C 526.446 3.3909 -0.641262 0
M  V30 5774 C 525.559 3.9269 -1.80051 0
M  V30 5775 C 524.694 5.13631 -1.35486 0
M  V30 5776 C 523.733 5.59423 -2.48419 0
M  V30 5777 N 522.87 6.71586 -2.04737 0
M  V30 5778 H 527.71 2.23663 -1.96923 0
M  V30 5779 H 525.247 1.09624 -0.980862 0
M  V30 5780 H 527.205 4.15323 -0.395351 0
M  V30 5781 H 525.835 3.21765 0.258269 0
M  V30 5782 H 524.887 3.13116 -2.16014 0
M  V30 5783 H 526.199 4.22636 -2.64916 0
M  V30 5784 H 525.353 5.97231 -1.0677 0
M  V30 5785 H 524.092 4.85364 -0.476722 0
M  V30 5786 H 523.097 4.74398 -2.77897 0
M  V30 5787 H 524.322 5.89705 -3.36786 0
M  V30 5788 H 522.268 6.45058 -1.19318 0
M  V30 5789 H 522.185 7.0097 -2.83156 0
M  V30 5790 H 523.453 7.58633 -1.79154 0
M  V30 5791 N 527.682 1.05563 1.17022 0
M  V30 5792 C 528.612 0.681026 2.23348 0
M  V30 5793 C 529.593 -0.322983 1.67005 0
M  V30 5794 O 530.778 -0.199746 1.9317 0
M  V30 5795 C 527.908 0.0589053 3.4725 0
M  V30 5796 C 526.862 0.988082 4.16438 0
M  V30 5797 C 526.188 0.229646 5.34207 0
M  V30 5798 C 527.488 2.31388 4.68249 0
M  V30 5799 H 529.182 1.56993 2.54938 0
M  V30 5800 H 526.728 0.756302 1.2254 0
M  V30 5801 H 528.681 -0.214982 4.20851 0
M  V30 5802 H 527.405 -0.864968 3.14938 0
M  V30 5803 H 526.064 1.24659 3.44754 0
M  V30 5804 H 525.712 -0.697111 4.98146 0
M  V30 5805 H 525.412 0.848815 5.81437 0
M  V30 5806 H 526.936 -0.0368694 6.10589 0
M  V30 5807 H 528.35 2.09964 5.33468 0
M  V30 5808 H 526.747 2.88736 5.26072 0
M  V30 5809 H 527.817 2.94982 3.84855 0
M  V30 5810 N 529.16 -1.33526 0.837174 0
M  V30 5811 C 530.092 -2.28077 0.226579 0
M  V30 5812 C 531.105 -1.51666 -0.591717 0
M  V30 5813 O 532.294 -1.73511 -0.419064 0
M  V30 5814 C 529.394 -3.31597 -0.69978 0
M  V30 5815 C 528.567 -4.37329 0.0788067 0
M  V30 5816 C 527.626 -5.20526 -0.770637 0
M  V30 5817 O 526.652 -5.68811 -0.210453 0
M  V30 5818 N 527.854 -5.41639 -2.08825 0
M  V30 5819 H 530.619 -2.81115 1.03897 0
M  V30 5820 H 528.18 -1.46201 0.695476 0
M  V30 5821 H 530.172 -3.84158 -1.27298 0
M  V30 5822 H 528.742 -2.78848 -1.41288 0
M  V30 5823 H 527.962 -3.8529 0.833381 0
M  V30 5824 H 529.25 -5.05079 0.614238 0
M  V30 5825 H 528.648 -5.04108 -2.56693 0
M  V30 5826 H 527.205 -5.97263 -2.60998 0
M  V30 5827 N 530.638 -0.59345 -1.46 0
M  V30 5828 C 531.586 0.146268 -2.3214 0
M  V30 5829 C 532.58 0.873743 -1.45128 0
M  V30 5830 O 533.786 0.790912 -1.61693 0
M  V30 5831 H 530.161 0.0660349 -0.749095 0
M  V30 5832 H 532.132 -0.598895 -2.92328 0
M  V30 5833 C 530.881 1.1396 -3.28494 0
M  V30 5834 H 530.204 0.589252 -3.95434 0
M  V30 5835 H 531.644 1.62738 -3.91526 0
M  V30 5836 C 530.103 2.20604 -2.54628 0
M  V30 5837 O 530.633 3.28128 -2.31722 0
M  V30 5838 N 528.839 1.95502 -2.15005 0
M  V30 5839 H 528.386 1.0807 -2.33834 0
M  V30 5840 H 528.344 2.67064 -1.65904 0
M  V30 5841 N 532.116 1.54067 -0.331816 0
M  V30 5842 C 533.532 1.59587 0.0205388 0
M  V30 5843 C 533.732 1.34813 1.49759 0
M  V30 5844 O 532.788 1.13661 2.25471 0
M  V30 5845 C 534.101 2.97959 -0.405103 0
M  V30 5846 C 535.649 3.10964 -0.356454 0
M  V30 5847 C 536.124 4.51694 -0.757384 0
M  V30 5848 N 537.615 4.57709 -0.71111 0
M  V30 5849 C 538.35 5.64729 -0.993427 0
M  V30 5850 N 537.846 6.79652 -1.3433 0
M  V30 5851 N 539.639 5.54546 -0.918442 0
M  V30 5852 H 531.79 1.68426 -1.29407 0
M  V30 5853 H 534.053 0.78819 -0.526745 0
M  V30 5854 H 533.759 3.21115 -1.43451 0
M  V30 5855 H 533.633 3.76524 0.225692 0
M  V30 5856 H 536.02 2.87538 0.663763 0
M  V30 5857 H 536.101 2.34484 -1.02229 0
M  V30 5858 H 535.745 4.75853 -1.77555 0
M  V30 5859 H 535.675 5.26555 -0.0691444 0
M  V30 5860 H 538.166 3.75176 -0.452883 0
M  V30 5861 H 538.479 7.57221 -1.54388 0
M  V30 5862 H 536.824 6.81128 -1.38164 0
M  V30 5863 H 540.015 4.63641 -0.644536 0
M  V30 5864 H 540.188 6.37861 -1.14181 0
M  V30 5865 N 533.594 0.0601682 1.57485 0
M  V30 5866 C 534.527 -0.94676 2.07634 0
M  V30 5867 C 535.505 -1.29837 0.978826 0
M  V30 5868 O 536.689 -1.40969 1.2514 0
M  V30 5869 C 533.816 -2.25822 2.52433 0
M  V30 5870 C 532.862 -2.05901 3.73507 0
M  V30 5871 S 533.695 -1.32907 5.18745 0
M  V30 5872 C 534.851 -2.65356 5.66866 0
M  V30 5873 H 535.084 -0.520003 2.92717 0
M  V30 5874 H 532.617 -0.152319 1.53647 0
M  V30 5875 H 534.575 -3.01201 2.78905 0
M  V30 5876 H 533.236 -2.65624 1.67639 0
M  V30 5877 H 532.429 -3.02929 4.02803 0
M  V30 5878 H 532.031 -1.38659 3.47347 0
M  V30 5879 H 534.323 -3.61492 5.73001 0
M  V30 5880 H 535.266 -2.40685 6.6594 0
M  V30 5881 H 535.674 -2.72028 4.94632 0
M  V30 5882 N 535.072 -1.5615 -0.213296 0
M  V30 5883 C 536.02 -1.93953 -1.28394 0
M  V30 5884 C 537.014 -0.822592 -1.48087 0
M  V30 5885 O 538.22 -1.00748 -1.49164 0
M  V30 5886 H 534.595 -0.61648 -0.430646 0
M  V30 5887 H 536.566 -2.83275 -0.937977 0
M  V30 5888 C 535.315 -2.27969 -2.62537 0
M  V30 5889 H 534.638 -3.13432 -2.48194 0
M  V30 5890 H 536.078 -2.58297 -3.36242 0
M  V30 5891 C 534.537 -1.10775 -3.18167 0
M  V30 5892 O 535.067 -0.373201 -3.99963 0
M  V30 5893 N 533.273 -0.889377 -2.76656 0
M  V30 5894 H 532.82 -1.48843 -2.10246 0
M  V30 5895 H 532.778 -0.107 -3.14218 0
M  V30 5896 N 536.55 0.480323 -1.50102 0
M  V30 5897 C 537.827 1.24159 -1.51142 0
M  V30 5898 C 538.207 2.09605 -0.250818 0
M  V30 5899 O 537.555 2.15274 0.766118 0
M  V30 5900 C 537.765 2.08057 -2.80202 0
M  V30 5901 C 539.113 2.66556 -3.30504 0
M  V30 5902 O 540.137 2.18308 -2.81461 0
M  V30 5903 O 538.996 3.54442 -4.15973 0
M  V30 5904 H 536.09 0.562928 -0.605839 0
M  V30 5905 H 538.636 0.492899 -1.62384 0
M  V30 5906 H 537.408 1.45032 -3.6343 0
M  V30 5907 H 537.031 2.90079 -2.71919 0
M  V30 5908 N 538.028 1.39524 0.732853 0
M  V30 5909 C 539.274 1.37068 1.49467 0
M  V30 5910 C 539.607 -0.0327166 1.94172 0
M  V30 5911 O 538.882 -0.998071 1.66939 0
M  V30 5912 C 539.165 2.34494 2.73285 0
M  V30 5913 C 539.018 3.83784 2.34585 0
M  V30 5914 C 540.337 2.29717 3.75391 0
M  V30 5915 H 537.456 0.499206 0.542183 0
M  V30 5916 H 540.098 1.70532 0.837783 0
M  V30 5917 H 538.248 2.06087 3.29333 0
M  V30 5918 H 539.92 4.22949 1.84151 0
M  V30 5919 H 538.163 4.00455 1.66787 0
M  V30 5920 H 538.834 4.47444 3.23262 0
M  V30 5921 H 541.31 2.54839 3.28932 0
M  V30 5922 H 540.186 2.99962 4.59689 0
M  V30 5923 H 540.447 1.30291 4.22465 0
M  V30 5924 N 539.506 -0.963266 1.24736 0
M  V30 5925 C 540.436 -2.07628 1.06832 0
M  V30 5926 C 541.417 -1.70088 -0.0200566 0
M  V30 5927 O 542.602 -1.93636 0.147854 0
M  V30 5928 C 539.732 -3.40636 0.677069 0
M  V30 5929 C 538.686 -3.9215 1.71471 0
M  V30 5930 C 538.012 -5.21553 1.1784 0
M  V30 5931 C 539.312 -4.19493 3.11164 0
M  V30 5932 H 541.006 -2.22864 1.9993 0
M  V30 5933 H 538.552 -1.07093 0.96266 0
M  V30 5934 H 540.505 -4.17941 0.538792 0
M  V30 5935 H 539.229 -3.25313 -0.289612 0
M  V30 5936 H 537.888 -3.17005 1.84128 0
M  V30 5937 H 537.536 -5.02593 0.202195 0
M  V30 5938 H 537.236 -5.56988 1.87185 0
M  V30 5939 H 538.76 -6.01463 1.05233 0
M  V30 5940 H 540.174 -4.87487 3.01711 0
M  V30 5941 H 538.571 -4.66165 3.77902 0
M  V30 5942 H 539.641 -3.26097 3.58871 0
M  V30 5943 N 540.985 -1.06182 -1.16461 0
M  V30 5944 C 542.232 -0.777863 -1.86964 0
M  V30 5945 C 542.56 0.695602 -1.81636 0
M  V30 5946 O 541.815 1.52532 -1.22607 0
M  V30 5947 C 542.114 -1.21633 -3.36066 0
M  V30 5948 C 541.78 -2.69371 -3.61594 0
M  V30 5949 C 540.442 -3.09727 -3.6827 0
M  V30 5950 C 542.794 -3.64791 -3.7226 0
M  V30 5951 C 540.122 -4.44345 -3.83112 0
M  V30 5952 C 542.474 -4.99155 -3.88623 0
M  V30 5953 C 541.138 -5.39149 -3.93541 0
M  V30 5954 H 540.408 -0.28464 -0.68415 0
M  V30 5955 H 543.055 -1.33071 -1.37711 0
M  V30 5956 H 541.36 -0.582651 -3.87443 0
M  V30 5957 H 543.057 -0.973682 -3.88999 0
M  V30 5958 H 539.647 -2.37124 -3.57029 0
M  V30 5959 H 543.831 -3.34746 -3.66413 0
M  V30 5960 H 539.087 -4.74819 -3.85172 0
M  V30 5961 H 543.261 -5.72976 -3.95817 0
M  V30 5962 H 540.888 -6.43464 -4.04794 0
M  V30 5963 N 542.463 1.3308 -0.844243 0
M  V30 5964 C 543.413 2.26589 -0.253289 0
M  V30 5965 C 544.397 1.49501 0.594836 0
M  V30 5966 O 545.589 1.71291 0.445924 0
M  V30 5967 C 542.718 3.38599 0.566176 0
M  V30 5968 C 541.804 4.23081 -0.293756 0
M  V30 5969 N 542.195 4.86751 -1.37505 0
M  V30 5970 C 540.493 4.45925 -0.0817086 0
M  V30 5971 C 541.194 5.49684 -1.90323 0
M  V30 5972 N 540.17 5.30101 -1.20391 0
M  V30 5973 H 543.972 2.73334 -1.08009 0
M  V30 5974 H 541.486 1.47048 -0.689258 0
M  V30 5975 H 543.483 4.04584 1.00587 0
M  V30 5976 H 542.143 2.93401 1.39089 0
M  V30 5977 H 543.154 4.87151 -1.75796 0
M  V30 5978 H 539.831 4.11434 0.709129 0
M  V30 5979 H 541.221 6.10363 -2.80902 0
M  V30 5980 N 543.941 0.601185 1.45683 0
M  V30 5981 C 545.189 0.0936957 2.01883 0
M  V30 5982 C 545.51 -1.2779 1.47291 0
M  V30 5983 O 544.78 -1.84279 0.664691 0
M  V30 5984 H 543.36 0.0316466 0.746329 0
M  V30 5985 H 546.022 0.781137 1.78562 0
M  V30 5986 H 545.118 0.0386297 3.12076 0
M  V30 5987 N 545.419 -1.53889 0.339982 0
M  V30 5988 C 546.83 -1.86139 -0.144671 0
M  V30 5989 C 547.181 -1.2613 -1.50285 0
M  V30 5990 O 546.306 -0.573515 -2.08662 0
M  V30 5991 C 546.901 -3.37728 -0.269285 0
M  V30 5992 C 545.46 -3.69868 -0.698168 0
M  V30 5993 C 544.607 -2.76777 0.170249 0
M  V30 5994 H 547.558 -1.48503 0.559704 0
M  V30 5995 H 547.579 -3.64331 -1.0974 0
M  V30 5996 H 547.091 -3.81375 0.719366 0
M  V30 5997 H 545.192 -3.31764 -1.69597 0
M  V30 5998 H 545.305 -4.76582 -0.490533 0
M  V30 5999 H 543.669 -2.52188 -0.356844 0
M  V30 6000 H 544.452 -3.23253 1.15597 0
M  V30 6001 N 546.897 -0.0685191 -1.57451 0
M  V30 6002 C 547.829 0.929372 -2.09512 0
M  V30 6003 C 548.842 1.26354 -1.02657 0
M  V30 6004 O 550.031 1.2213 -1.30179 0
M  V30 6005 C 547.131 2.24612 -2.53777 0
M  V30 6006 C 546.304 2.09128 -3.84167 0
M  V30 6007 C 545.363 3.24079 -4.14559 0
M  V30 6008 O 544.389 2.99215 -4.8421 0
M  V30 6009 N 545.591 4.49077 -3.67845 0
M  V30 6010 H 548.356 0.484901 -2.95751 0
M  V30 6011 H 545.917 0.11729 -1.61475 0
M  V30 6012 H 547.909 3.00412 -2.71172 0
M  V30 6013 H 546.479 2.60569 -1.72692 0
M  V30 6014 H 545.699 1.17815 -3.76182 0
M  V30 6015 H 546.987 1.9603 -4.69521 0
M  V30 6016 H 546.385 4.72165 -3.11571 0
M  V30 6017 H 544.942 5.21915 -3.90446 0
M  V30 6018 N 548.375 1.56261 0.205012 0
M  V30 6019 C 549.623 1.79684 0.925096 0
M  V30 6020 C 549.944 0.63989 1.84202 0
M  V30 6021 O 549.214 -0.342345 1.92885 0
M  V30 6022 H 547.794 0.662774 0.344587 0
M  V30 6023 H 550.456 1.93734 0.212899 0
M  V30 6024 H 549.552 2.72467 1.52211 0
M  V30 6025 N 549.853 -0.472356 1.50355 0
M  V30 6026 C 550.786 -1.58923 1.63764 0
M  V30 6027 C 551.764 -1.55173 0.485793 0
M  V30 6028 O 552.948 -1.74815 0.705132 0
M  V30 6029 C 550.075 -2.97497 1.61905 0
M  V30 6030 C 549.121 -3.19405 2.82635 0
M  V30 6031 S 549.954 -2.99441 4.43954 0
M  V30 6032 C 551.11 -4.40359 4.44786 0
M  V30 6033 H 551.343 -1.47309 2.58239 0
M  V30 6034 H 548.876 -0.659601 1.39602 0
M  V30 6035 H 550.834 -3.77389 1.61518 0
M  V30 6036 H 549.495 -3.06502 0.686683 0
M  V30 6037 H 548.688 -4.20636 2.77636 0
M  V30 6038 H 548.29 -2.47283 2.80583 0
M  V30 6039 H 550.582 -5.32969 4.1827 0
M  V30 6040 H 551.525 -4.50403 5.46391 0
M  V30 6041 H 551.933 -4.22378 3.74509 0
M  V30 6042 N 551.331 -1.39911 -0.725443 0
M  V30 6043 C 552.559 -1.40949 -1.51463 0
M  V30 6044 C 552.974 -0.0065242 -1.88799 0
M  V30 6045 O 552.331 0.967163 -1.54765 0
M  V30 6046 C 552.382 -2.29119 -2.79619 0
M  V30 6047 O 552.103 -3.63952 -2.43866 0
M  V30 6048 C 553.604 -2.38642 -3.73584 0
M  V30 6049 H 550.824 -0.481091 -0.467752 0
M  V30 6050 H 553.368 -1.83843 -0.895651 0
M  V30 6051 H 551.523 -1.89612 -3.37826 0
M  V30 6052 H 551.937 -4.10677 -3.26258 0
M  V30 6053 H 553.411 -3.04563 -4.60375 0
M  V30 6054 H 553.888 -1.40846 -4.16004 0
M  V30 6055 H 554.494 -2.78659 -3.21293 0
M  V30 6056 N 552.809 0.956637 -1.25245 0
M  V30 6057 C 554.055 1.70352 -1.10036 0
M  V30 6058 C 554.388 1.90869 0.358156 0
M  V30 6059 O 553.663 1.47819 1.26411 0
M  V30 6060 C 553.946 3.08766 -1.85298 0
M  V30 6061 C 553.799 2.95672 -3.38966 0
M  V30 6062 C 555.118 4.08622 -1.63451 0
M  V30 6063 H 552.237 0.618279 -0.401123 0
M  V30 6064 H 554.879 1.11212 -1.54051 0
M  V30 6065 H 553.029 3.59252 -1.47887 0
M  V30 6066 H 554.701 2.52527 -3.86041 0
M  V30 6067 H 552.944 2.31634 -3.6678 0
M  V30 6068 H 553.615 3.93776 -3.86839 0
M  V30 6069 H 556.091 3.67038 -1.96015 0
M  V30 6070 H 554.967 5.03514 -2.18551 0
M  V30 6071 H 555.228 4.3834 -0.575357 0
M  V30 6072 N 554.287 1.06798 1.15896 0
M  V30 6073 C 555.22 0.627503 2.19403 0
M  V30 6074 C 556.198 -0.352352 1.58736 0
M  V30 6075 O 557.382 -0.260111 1.86697 0
M  V30 6076 C 554.509 -0.079356 3.38607 0
M  V30 6077 C 553.555 0.858057 4.17779 0
M  V30 6078 S 554.388 2.35605 4.80885 0
M  V30 6079 C 555.544 1.66083 6.03463 0
M  V30 6080 H 555.777 1.50441 2.56427 0
M  V30 6081 H 553.31 0.881427 1.26768 0
M  V30 6082 H 555.268 -0.48095 4.07673 0
M  V30 6083 H 553.929 -0.932524 2.99938 0
M  V30 6084 H 553.122 0.310108 5.03045 0
M  V30 6085 H 552.724 1.19977 3.54234 0
M  V30 6086 H 555.016 0.969337 6.7053 0
M  V30 6087 H 555.959 2.49159 6.62816 0
M  V30 6088 H 556.367 1.14122 5.52844 0
M  V30 6089 N 555.766 -1.3263 0.851289 0
M  V30 6090 C 557.014 -1.96978 0.452128 0
M  V30 6091 C 557.335 -1.67715 -0.99482 0
M  V30 6092 O 556.605 -0.98259 -1.69476 0
M  V30 6093 H 555.185 -0.72873 0.164202 0
M  V30 6094 H 557.847 -1.61774 1.08698 0
M  V30 6095 H 556.943 -3.06387 0.594407 0
M  V30 6096 N 557.244 -0.608902 -1.45362 0
M  V30 6097 C 558.472 -0.111013 -2.06602 0
M  V30 6098 C 558.887 1.20516 -1.45332 0
M  V30 6099 O 558.244 1.73437 -0.567978 0
M  V30 6100 C 558.295 0.033688 -3.61484 0
M  V30 6101 O 558.016 -1.23041 -4.20467 0
M  V30 6102 C 559.517 0.562882 -4.39712 0
M  V30 6103 H 556.737 -0.0694453 -0.667397 0
M  V30 6104 H 559.281 -0.837008 -1.86586 0
M  V30 6105 H 557.436 0.710016 -3.80838 0
M  V30 6106 H 557.85 -1.06094 -5.13658 0
M  V30 6107 H 559.324 0.613213 -5.48583 0
M  V30 6108 H 559.801 1.58543 -4.09586 0
M  V30 6109 H 560.407 -0.0794454 -4.25226 0
M  V30 6110 N 558.722 1.53707 -0.348139 0
M  V30 6111 C 559.67 2.26671 0.521808 0
M  V30 6112 C 560.664 1.28988 1.09811 0
M  V30 6113 O 561.87 1.4668 1.04332 0
M  V30 6114 H 558.245 0.728387 0.186968 0
M  V30 6115 H 560.216 2.98176 -0.115563 0
M  V30 6116 C 558.965 3.05591 1.6586 0
M  V30 6117 H 558.288 3.80589 1.22443 0
M  V30 6118 H 559.728 3.59851 2.24239 0
M  V30 6119 C 558.187 2.15366 2.59073 0
M  V30 6120 O 558.717 1.7528 3.61441 0
M  V30 6121 N 556.923 1.80352 2.27863 0
M  V30 6122 H 556.47 2.13149 1.44656 0
M  V30 6123 H 556.428 1.20268 2.90488 0
M  V30 6124 N 560.2 0.0768682 1.57412 0
M  V30 6125 C 561.448 -0.589918 1.93299 0
M  V30 6126 C 561.769 -1.69842 0.958049 0
M  V30 6127 O 561.039 -1.95899 0.00703261 0
M  V30 6128 H 559.619 -0.220901 0.713591 0
M  V30 6129 H 562.281 0.135917 1.94425 0
M  V30 6130 H 561.377 -1.01195 2.95239 0
M  V30 6131 N 561.678 -1.56367 -0.196722 0
M  V30 6132 C 562.924 -1.80796 -0.918725 0
M  V30 6133 C 563.257 -0.650645 -1.82976 0
M  V30 6134 O 562.532 0.348889 -1.91345 0
M  V30 6135 C 562.815 -3.15472 -1.73636 0
M  V30 6136 C 562.668 -4.41693 -0.85015 0
M  V30 6137 C 563.987 -3.46824 -2.70927 0
M  V30 6138 H 561.106 -0.657702 -0.332561 0
M  V30 6139 H 563.748 -1.89086 -0.186186 0
M  V30 6140 H 561.898 -3.08536 -2.36088 0
M  V30 6141 H 563.57 -4.60673 -0.240459 0
M  V30 6142 H 561.813 -4.33517 -0.156785 0
M  V30 6143 H 562.484 -5.32419 -1.45719 0
M  V30 6144 H 564.96 -3.54049 -2.18607 0
M  V30 6145 H 563.836 -4.4218 -3.25219 0
M  V30 6146 H 564.097 -2.70236 -3.49893 0
M  V30 6147 N 563.156 0.464375 -1.50603 0
M  V30 6148 C 564.088 1.57916 -1.66118 0
M  V30 6149 C 565.101 1.53497 -0.54246 0
M  V30 6150 O 566.29 1.58763 -0.815877 0
M  V30 6151 C 563.39 2.96809 -1.63577 0
M  V30 6152 C 562.563 3.26026 -2.91592 0
M  V30 6153 C 561.622 4.44506 -2.81604 0
M  V30 6154 O 560.648 4.44484 -3.55559 0
M  V30 6155 N 561.85 5.46549 -1.95614 0
M  V30 6156 H 564.615 1.45022 -2.62276 0
M  V30 6157 H 562.176 0.652903 -1.48151 0
M  V30 6158 H 564.168 3.74048 -1.54499 0
M  V30 6159 H 562.738 3.03438 -0.751262 0
M  V30 6160 H 561.958 2.37337 -3.14746 0
M  V30 6161 H 563.246 3.42361 -3.76386 0
M  V30 6162 H 562.644 5.49391 -1.34854 0
M  V30 6163 H 561.201 6.22746 -1.92435 0
M  V30 6164 N 564.634 1.40294 0.718013 0
M  V30 6165 C 565.88 1.38645 1.48005 0
M  V30 6166 C 566.213 -0.0121202 1.94196 0
M  V30 6167 O 565.488 -0.980309 1.67989 0
M  V30 6168 C 565.771 2.37379 2.70782 0
M  V30 6169 C 565.624 3.8625 2.30501 0
M  V30 6170 C 566.943 2.33685 3.72933 0
M  V30 6171 H 564.062 0.504928 0.536858 0
M  V30 6172 H 566.704 1.71411 0.819649 0
M  V30 6173 H 564.854 2.09568 3.27129 0
M  V30 6174 H 566.526 4.24879 1.79655 0
M  V30 6175 H 564.769 4.02202 1.6253 0
M  V30 6176 H 565.44 4.50847 3.18498 0
M  V30 6177 H 567.916 2.58314 3.2621 0
M  V30 6178 H 566.792 3.0482 4.56482 0
M  V30 6179 H 567.053 1.34765 4.21059 0
M  V30 6180 N 566.112 -0.949982 1.2575 0
M  V30 6181 C 567.358 -1.69822 1.11947 0
M  V30 6182 C 567.713 -1.89455 -0.335334 0
M  V30 6183 O 567.006 -1.45778 -1.24336 0
M  V30 6184 C 567.2 -3.08039 1.81237 0
M  V30 6185 C 567.029 -3.0189 3.33305 0
M  V30 6186 C 565.799 -3.05391 4.02573 0
M  V30 6187 C 567.997 -2.827 4.29634 0
M  V30 6188 N 565.979 -2.89449 5.4138 0
M  V30 6189 C 567.35 -2.75237 5.55558 0
M  V30 6190 C 569.405 -2.67416 4.19992 0
M  V30 6191 C 568.108 -2.54051 6.72942 0
M  V30 6192 C 570.134 -2.47602 5.37073 0
M  V30 6193 C 569.496 -2.40863 6.6194 0
M  V30 6194 H 565.595 -0.629188 0.464378 0
M  V30 6195 H 568.179 -1.1249 1.58916 0
M  V30 6196 H 566.35 -3.63528 1.36756 0
M  V30 6197 H 568.082 -3.71671 1.60134 0
M  V30 6198 H 564.837 -3.14763 3.53866 0
M  V30 6199 H 565.261 -2.84669 6.14241 0
M  V30 6200 H 569.903 -2.71398 3.24196 0
M  V30 6201 H 567.621 -2.48811 7.68842 0
M  V30 6202 H 571.207 -2.36694 5.31477 0
M  V30 6203 H 570.087 -2.25732 7.51009 0
M  V30 6204 N 567.59 -1.07411 -1.15328 0
M  V30 6205 C 568.867 -0.710732 -1.82231 0
M  V30 6206 C 569.247 0.806732 -1.95077 0
M  V30 6207 O 568.595 1.72139 -1.50268 0
M  V30 6208 C 568.805 -1.42586 -3.18544 0
M  V30 6209 C 570.153 -1.57836 -3.94174 0
M  V30 6210 O 571.177 -1.38669 -3.281 0
M  V30 6211 O 570.036 -1.8938 -5.12638 0
M  V30 6212 H 567.13 -0.25297 -0.78736 0
M  V30 6213 H 569.676 -1.17508 -1.22434 0
M  V30 6214 H 568.448 -2.46008 -3.04296 0
M  V30 6215 H 568.071 -0.952332 -3.86026 0
M  V30 6216 N 569.068 1.32177 -0.85831 0
M  V30 6217 C 570.031 2.27086 -0.310588 0
M  V30 6218 C 571.031 1.51751 0.531806 0
M  V30 6219 O 572.221 1.70794 0.34279 0
M  V30 6220 C 569.353 3.36266 0.560179 0
M  V30 6221 H 570.546 2.77045 -1.1483 0
M  V30 6222 H 568.099 1.42911 -0.632942 0
M  V30 6223 H 568.834 2.9158 1.41956 0
M  V30 6224 H 568.619 3.92077 -0.0428473 0
M  V30 6225 H 570.109 4.06974 0.936056 0
M  V30 6226 N 570.547 0.616602 1.45037 0
M  V30 6227 C 571.51 -0.0871112 2.29034 0
M  V30 6228 C 572.51 -0.786414 1.40258 0
M  V30 6229 O 573.7 -0.633207 1.62284 0
M  V30 6230 C 570.832 -1.13369 3.21497 0
M  V30 6231 H 572.025 0.651497 2.92738 0
M  V30 6232 H 569.578 0.376058 1.51709 0
M  V30 6233 H 570.313 -1.90277 2.62612 0
M  V30 6234 H 570.098 -0.636358 3.86902 0
M  V30 6235 H 571.588 -1.62627 3.84633 0
M  V30 6236 N 572.025 -1.5352 0.356285 0
M  V30 6237 C 573.272 -2.01117 -0.236303 0
M  V30 6238 C 573.6 -1.24381 -1.49531 0
M  V30 6239 O 572.855 -0.323057 -1.93015 0
M  V30 6240 C 573.154 -3.52607 -0.583369 0
M  V30 6241 C 572.82 -4.47151 0.58023 0
M  V30 6242 C 571.482 -4.72718 0.899528 0
M  V30 6243 C 573.834 -5.03137 1.36024 0
M  V30 6244 C 571.162 -5.51523 2.00098 0
M  V30 6245 C 573.514 -5.83145 2.45204 0
M  V30 6246 C 572.178 -6.07001 2.77679 0
M  V30 6247 H 571.448 -0.735938 -0.0864695 0
M  V30 6248 H 574.095 -1.85209 0.48683 0
M  V30 6249 H 572.4 -3.66413 -1.38739 0
M  V30 6250 H 574.097 -3.86901 -1.05397 0
M  V30 6251 H 570.687 -4.27394 0.321322 0
M  V30 6252 H 574.871 -4.83339 1.12682 0
M  V30 6253 H 570.127 -5.68229 2.25668 0
M  V30 6254 H 574.301 -6.25537 3.06067 0
M  V30 6255 H 571.928 -6.67851 3.63151 0
M  V30 6256 N 573.503 -0.0852151 -1.57369 0
M  V30 6257 C 574.436 0.913608 -2.09113 0
M  V30 6258 C 575.414 1.28264 -0.999358 0
M  V30 6259 O 576.598 1.3896 -1.27367 0
M  V30 6260 C 573.725 2.21777 -2.55993 0
M  V30 6261 C 572.771 1.99932 -3.76735 0
M  V30 6262 S 573.604 1.24637 -5.20794 0
M  V30 6263 C 574.76 2.56304 -5.71016 0
M  V30 6264 H 574.993 0.473369 -2.93507 0
M  V30 6265 H 572.526 0.127856 -1.5387 0
M  V30 6266 H 574.484 2.96726 -2.83662 0
M  V30 6267 H 573.145 2.62923 -1.71843 0
M  V30 6268 H 572.338 2.96482 -4.07571 0
M  V30 6269 H 571.94 1.33116 -3.49509 0
M  V30 6270 H 574.232 3.5233 -5.78679 0
M  V30 6271 H 575.175 2.3006 -6.69685 0
M  V30 6272 H 575.583 2.64125 -4.98897 0
M  V30 6273 N 574.981 1.5647 0.188427 0
M  V30 6274 C 576.227 1.81281 0.909124 0
M  V30 6275 C 576.56 0.66034 1.82628 0
M  V30 6276 O 575.835 -0.338737 1.91528 0
M  V30 6277 C 576.118 3.16388 1.7196 0
M  V30 6278 C 575.971 4.42137 0.826714 0
M  V30 6279 C 577.29 3.48256 2.69083 0
M  V30 6280 H 574.409 0.659457 0.329068 0
M  V30 6281 H 577.051 1.89182 0.176156 0
M  V30 6282 H 575.201 3.09784 2.34448 0
M  V30 6283 H 576.873 4.60794 0.216025 0
M  V30 6284 H 575.116 4.33594 0.133792 0
M  V30 6285 H 575.787 5.33184 1.42893 0
M  V30 6286 H 578.263 3.55203 2.16726 0
M  V30 6287 H 577.139 4.43899 3.2287 0
M  V30 6288 H 577.4 2.72088 3.48455 0
M  V30 6289 N 576.459 -0.456382 1.50847 0
M  V30 6290 C 577.391 -1.57033 1.66953 0
M  V30 6291 C 578.404 -1.53207 0.550593 0
M  V30 6292 O 579.593 -1.58328 0.824285 0
M  V30 6293 C 576.693 -2.95937 1.65149 0
M  V30 6294 C 575.866 -3.24475 2.93317 0
M  V30 6295 C 574.925 -4.43007 2.83957 0
M  V30 6296 O 573.951 -4.42592 3.57912 0
M  V30 6297 N 575.153 -5.45503 1.9851 0
M  V30 6298 H 577.918 -1.43629 2.63042 0
M  V30 6299 H 575.479 -0.645037 1.48495 0
M  V30 6300 H 577.471 -3.73224 1.56481 0
M  V30 6301 H 576.041 -3.03036 0.767343 0
M  V30 6302 H 575.261 -2.35664 3.16 0
M  V30 6303 H 576.549 -3.4036 3.78196 0
M  V30 6304 H 575.947 -5.48668 1.37766 0
M  V30 6305 H 574.504 -6.21716 1.95735 0
M  V30 6306 N 577.937 -1.40673 -0.710563 0
M  V30 6307 C 579.167 -1.4234 -1.49742 0
M  V30 6308 C 579.575 -0.022821 -1.89186 0
M  V30 6309 O 578.918 0.964773 -1.56326 0
M  V30 6310 C 578.98 -2.25509 -2.79975 0
M  V30 6311 C 578.644 -3.73862 -2.62824 0
M  V30 6312 C 579.641 -4.66379 -2.29752 0
M  V30 6313 C 577.326 -4.17735 -2.78932 0
M  V30 6314 C 579.32 -6.00756 -2.13006 0
M  V30 6315 C 577.007 -5.5218 -2.61802 0
M  V30 6316 C 578.005 -6.43505 -2.28888 0
M  V30 6317 O 577.693 -7.75472 -2.11894 0
M  V30 6318 H 577.425 -0.487311 -0.468513 0
M  V30 6319 H 579.979 -1.8542 -0.883668 0
M  V30 6320 H 578.209 -1.77218 -3.43701 0
M  V30 6321 H 579.898 -2.19058 -3.41714 0
M  V30 6322 H 580.664 -4.33778 -2.16936 0
M  V30 6323 H 576.543 -3.46967 -3.03537 0
M  V30 6324 H 580.087 -6.72003 -1.87237 0
M  V30 6325 H 575.984 -5.84365 -2.74204 0
M  V30 6326 H 576.752 -7.86458 -2.26775 0
M  V30 6327 N 579.415 0.9433 -1.26252 0
M  V30 6328 C 580.662 1.68925 -1.11672 0
M  V30 6329 C 580.99 1.91499 0.340329 0
M  V30 6330 O 580.245 1.49189 1.26653 0
M  V30 6331 C 580.544 3.07073 -1.82868 0
M  V30 6332 C 580.21 3.04262 -3.32769 0
M  V30 6333 C 578.872 3.03203 -3.7366 0
M  V30 6334 C 581.224 2.96729 -4.28487 0
M  V30 6335 C 578.552 2.92373 -5.0866 0
M  V30 6336 C 580.904 2.87442 -5.63525 0
M  V30 6337 C 579.568 2.84724 -6.03729 0
M  V30 6338 H 578.838 0.618141 -0.408635 0
M  V30 6339 H 581.485 1.10124 -1.56668 0
M  V30 6340 H 579.79 3.69486 -1.30335 0
M  V30 6341 H 581.487 3.63635 -1.69029 0
M  V30 6342 H 578.077 3.05865 -3.00241 0
M  V30 6343 H 582.261 2.96658 -3.97879 0
M  V30 6344 H 577.517 2.88645 -5.38975 0
M  V30 6345 H 581.691 2.80576 -6.37377 0
M  V30 6346 H 579.318 2.76089 -7.08293 0
M  V30 6347 N 580.893 1.08022 1.14757 0
M  V30 6348 C 582.14 0.807509 1.85703 0
M  V30 6349 C 582.468 -0.666617 1.8272 0
M  V30 6350 O 581.723 -1.50562 1.25018 0
M  V30 6351 C 582.022 1.26964 3.34088 0
M  V30 6352 C 581.688 2.7509 3.57262 0
M  V30 6353 C 580.35 3.15547 3.63296 0
M  V30 6354 C 582.702 3.70667 3.66409 0
M  V30 6355 C 580.03 4.50384 3.75994 0
M  V30 6356 C 582.382 5.05274 3.80632 0
M  V30 6357 C 581.046 5.45342 3.84913 0
M  V30 6358 H 580.316 0.295488 0.679535 0
M  V30 6359 H 582.963 1.35245 1.35577 0
M  V30 6360 H 581.268 0.644216 3.86467 0
M  V30 6361 H 582.965 1.03544 3.87401 0
M  V30 6362 H 579.555 2.42775 3.53212 0
M  V30 6363 H 583.739 3.40533 3.61041 0
M  V30 6364 H 578.995 4.80886 3.77569 0
M  V30 6365 H 583.169 5.79201 3.86652 0
M  V30 6366 H 580.796 6.49823 3.94505 0
M  V30 6367 N 582.371 -1.3172 0.865308 0
M  V30 6368 C 583.304 -2.26687 0.262376 0
M  V30 6369 C 584.282 -1.50894 -0.605787 0
M  V30 6370 O 585.466 -1.79982 -0.56024 0
M  V30 6371 C 582.593 -3.3281 -0.628915 0
M  V30 6372 C 581.639 -4.26172 0.167278 0
M  V30 6373 S 582.472 -5.12797 1.54272 0
M  V30 6374 C 583.628 -6.22438 0.657427 0
M  V30 6375 H 583.861 -2.77478 1.0674 0
M  V30 6376 H 581.394 -1.39414 0.663555 0
M  V30 6377 H 583.352 -3.94426 -1.13747 0
M  V30 6378 H 582.013 -2.80782 -1.40785 0
M  V30 6379 H 581.206 -5.01392 -0.51203 0
M  V30 6380 H 580.808 -3.69029 0.607777 0
M  V30 6381 H 583.1 -6.77368 -0.133925 0
M  V30 6382 H 584.043 -6.9451 1.38061 0
M  V30 6383 H 584.451 -5.64043 0.227044 0
M  V30 6384 N 583.85 -0.624285 -1.44708 0
M  V30 6385 C 585.077 -0.132919 -2.06473 0
M  V30 6386 C 585.493 1.18967 -1.46602 0
M  V30 6387 O 584.85 1.72824 -0.586341 0
M  V30 6388 C 584.901 -0.00465418 -3.615 0
M  V30 6389 O 584.622 -1.27494 -4.19138 0
M  V30 6390 C 586.123 0.516213 -4.40284 0
M  V30 6391 H 583.343 -0.0765201 -0.666623 0
M  V30 6392 H 585.887 -0.856751 -1.85688 0
M  V30 6393 H 584.042 0.669583 -3.8157 0
M  V30 6394 H 584.456 -1.11536 -5.12504 0
M  V30 6395 H 585.93 0.554994 -5.49203 0
M  V30 6396 H 586.407 1.5419 -4.11245 0
M  V30 6397 H 587.013 -0.124542 -4.25118 0
M  V30 6398 N 585.328 1.53329 -0.364422 0
M  V30 6399 C 586.576 2.00842 0.225189 0
M  V30 6400 C 586.897 1.25345 1.49378 0
M  V30 6401 O 586.167 0.366396 1.92443 0
M  V30 6402 H 584.747 0.742009 0.0862027 0
M  V30 6403 H 587.409 1.8863 -0.490389 0
M  V30 6404 H 586.505 3.08795 0.452987 0
M  V30 6405 N 586.806 0.0935595 1.57322 0
M  V30 6406 C 587.736 -0.863062 2.16964 0
M  V30 6407 C 588.717 -1.29528 1.10256 0
M  V30 6408 O 589.902 -1.36245 1.38387 0
M  V30 6409 C 587.032 -2.12276 2.74875 0
M  V30 6410 C 585.986 -1.82921 3.86942 0
M  V30 6411 C 585.312 -3.15707 4.31548 0
M  V30 6412 C 586.612 -1.11737 5.10208 0
M  V30 6413 H 588.306 -0.366145 2.97153 0
M  V30 6414 H 585.852 -0.174673 1.42937 0
M  V30 6415 H 587.805 -2.79634 3.1525 0
M  V30 6416 H 586.529 -2.64248 1.91938 0
M  V30 6417 H 585.188 -1.17961 3.47103 0
M  V30 6418 H 584.836 -3.65563 3.45504 0
M  V30 6419 H 584.536 -2.96849 5.07104 0
M  V30 6420 H 586.06 -3.84226 4.74555 0
M  V30 6421 H 587.474 -1.69203 5.47762 0
M  V30 6422 H 585.871 -1.03064 5.91183 0
M  V30 6423 H 586.941 -0.0998818 4.84797 0
M  V30 6424 N 588.284 -1.56567 -0.180126 0
M  V30 6425 C 589.53 -1.81761 -0.899497 0
M  V30 6426 C 589.863 -0.670015 -1.82276 0
M  V30 6427 O 589.138 0.328575 -1.91705 0
M  V30 6428 C 589.421 -3.17296 -1.7028 0
M  V30 6429 C 589.274 -4.4257 -0.803255 0
M  V30 6430 C 590.593 -3.49678 -2.67233 0
M  V30 6431 H 587.712 -0.661192 -0.325567 0
M  V30 6432 H 590.354 -1.89272 -0.16612 0
M  V30 6433 H 588.504 -3.11023 -2.32802 0
M  V30 6434 H 590.176 -4.60902 -0.191585 0
M  V30 6435 H 588.419 -4.33658 -0.110796 0
M  V30 6436 H 589.09 -5.33935 -1.40064 0
M  V30 6437 H 591.566 -3.56347 -2.14839 0
M  V30 6438 H 590.442 -4.45605 -3.20511 0
M  V30 6439 H 590.703 -2.73932 -3.47007 0
M  V30 6440 N 589.762 0.448376 -1.51087 0
M  V30 6441 C 591.039 1.20926 -1.53741 0
M  V30 6442 C 591.419 2.09025 -0.295222 0
M  V30 6443 O 590.767 2.16851 0.720283 0
M  V30 6444 C 590.977 2.02067 -2.84552 0
M  V30 6445 C 592.325 2.59486 -3.36084 0
M  V30 6446 O 593.349 2.12289 -2.86028 0
M  V30 6447 O 592.208 3.45539 -4.23397 0
M  V30 6448 H 589.302 0.549951 -0.617643 0
M  V30 6449 H 591.848 0.458344 -1.63393 0
M  V30 6450 H 590.62 1.37291 -3.66425 0
M  V30 6451 H 590.243 2.84246 -2.78011 0
M  V30 6452 N 591.24 1.41047 0.703093 0
M  V30 6453 C 592.517 1.30493 1.45708 0
M  V30 6454 C 592.897 -0.0709892 2.10981 0
M  V30 6455 O 592.245 -1.08471 2.01113 0
M  V30 6456 C 592.455 2.45287 2.48265 0
M  V30 6457 C 593.803 2.86104 3.13735 0
M  V30 6458 O 594.827 2.44971 2.58587 0
M  V30 6459 O 593.686 3.57206 4.13601 0
M  V30 6460 H 590.78 0.513144 0.648546 0
M  V30 6461 H 593.326 1.52995 0.734208 0
M  V30 6462 H 592.098 3.37135 1.98635 0
M  V30 6463 H 591.721 2.24622 3.28071 0
M  V30 6464 N 592.718 -0.936591 1.26751 0
M  V30 6465 C 594.129 -1.49816 1.1141 0
M  V30 6466 C 594.48 -1.9383 -0.304015 0
M  V30 6467 O 593.605 -1.80346 -1.196 0
M  V30 6468 C 594.2 -2.72271 2.01629 0
M  V30 6469 C 592.759 -3.2468 1.9042 0
M  V30 6470 C 591.906 -1.97444 1.94708 0
M  V30 6471 H 594.857 -0.751604 1.39773 0
M  V30 6472 H 594.878 -3.46741 1.56688 0
M  V30 6473 H 594.39 -2.40205 3.04833 0
M  V30 6474 H 592.491 -3.61525 0.901674 0
M  V30 6475 H 592.604 -3.91476 2.76195 0
M  V30 6476 H 590.968 -2.13545 1.38818 0
M  V30 6477 H 591.751 -1.67703 2.9955 0
M  V30 6478 N 594.196 -1.08629 -1.14182 0
M  V30 6479 C 595.143 -0.718299 -2.19338 0
M  V30 6480 C 596.113 0.296587 -1.63431 0
M  V30 6481 O 597.298 0.180079 -1.89948 0
M  V30 6482 C 594.438 -0.136203 -3.44831 0
M  V30 6483 C 593.551 -1.20414 -4.14879 0
M  V30 6484 C 592.686 -0.585666 -5.27962 0
M  V30 6485 C 591.725 -1.63548 -5.89846 0
M  V30 6486 N 590.862 -1.03864 -6.94375 0
M  V30 6487 H 595.702 -1.61932 -2.50164 0
M  V30 6488 H 593.239 -0.80919 -1.22844 0
M  V30 6489 H 595.197 0.219021 -4.16625 0
M  V30 6490 H 593.827 0.728121 -3.14481 0
M  V30 6491 H 592.879 -1.67676 -3.41451 0
M  V30 6492 H 594.191 -1.99959 -4.56966 0
M  V30 6493 H 593.345 -0.178818 -6.06436 0
M  V30 6494 H 592.084 0.24142 -4.87102 0
M  V30 6495 H 591.089 -2.05197 -5.10073 0
M  V30 6496 H 592.314 -2.46509 -6.3278 0
M  V30 6497 H 590.26 -0.232687 -6.55587 0
M  V30 6498 H 590.177 -1.77116 -7.3496 0
M  V30 6499 H 591.445 -0.657724 -7.7672 0
M  V30 6500 N 595.674 1.31259 -0.872281 0
M  V30 6501 C 596.904 2.00504 -0.498183 0
M  V30 6502 C 597.312 1.65632 0.914479 0
M  V30 6503 O 596.655 0.882849 1.61095 0
M  V30 6504 C 596.717 3.5482 -0.578194 0
M  V30 6505 C 596.381 4.13172 -1.95289 0
M  V30 6506 C 597.378 4.30107 -2.92069 0
M  V30 6507 C 595.063 4.48846 -2.25483 0
M  V30 6508 C 597.057 4.81908 -4.17185 0
M  V30 6509 C 594.744 5.00349 -3.50847 0
M  V30 6510 C 595.742 5.16831 -4.46514 0
M  V30 6511 O 595.43 5.67228 -5.69656 0
M  V30 6512 H 595.162 0.648055 -0.192354 0
M  V30 6513 H 597.716 1.6841 -1.17589 0
M  V30 6514 H 595.946 3.86383 0.156438 0
M  V30 6515 H 597.635 4.05318 -0.217192 0
M  V30 6516 H 598.401 4.02862 -2.7005 0
M  V30 6517 H 594.28 4.35292 -1.51795 0
M  V30 6518 H 597.824 4.94688 -4.91863 0
M  V30 6519 H 593.721 5.27028 -3.72708 0
M  V30 6520 H 594.489 5.85592 -5.7186 0
M  V30 6521 N 597.152 0.631951 1.44375 0
M  V30 6522 C 598.102 -0.0943862 2.27805 0
M  V30 6523 C 599.086 -0.815359 1.38711 0
M  V30 6524 O 600.278 -0.701331 1.62513 0
M  V30 6525 C 597.407 -1.07472 3.26044 0
M  V30 6526 C 596.493 -0.353329 4.22626 0
M  V30 6527 N 596.884 0.618512 5.02004 0
M  V30 6528 C 595.182 -0.597662 4.41977 0
M  V30 6529 C 595.883 1.0448 5.7224 0
M  V30 6530 N 594.859 0.383413 5.42246 0
M  V30 6531 H 598.661 0.651672 2.86584 0
M  V30 6532 H 596.175 0.45752 1.55822 0
M  V30 6533 H 598.172 -1.60969 3.84571 0
M  V30 6534 H 596.832 -1.82107 2.68825 0
M  V30 6535 H 597.843 0.996356 5.08226 0
M  V30 6536 H 594.52 -1.32682 3.95856 0
M  V30 6537 H 595.91 1.84773 6.45994 0
M  V30 6538 N 598.631 -1.53133 0.372548 0
M  V30 6539 C 599.908 -1.93704 -0.271693 0
M  V30 6540 C 600.288 -1.30667 -1.65799 0
M  V30 6541 O 599.636 -0.46838 -2.23648 0
M  V30 6542 C 599.846 -3.47576 -0.314903 0
M  V30 6543 C 601.194 -4.20998 -0.551912 0
M  V30 6544 O 602.218 -3.53994 -0.39582 0
M  V30 6545 O 601.077 -5.39748 -0.85639 0
M  V30 6546 H 598.171 -0.810457 -0.164586 0
M  V30 6547 H 600.717 -1.6427 0.425838 0
M  V30 6548 H 599.489 -3.85749 0.656792 0
M  V30 6549 H 599.112 -3.83264 -1.05804 0
M  V30 6550 N 600.109 -0.101901 -1.5727 0
M  V30 6551 C 601.042 0.891377 -2.10071 0
M  V30 6552 C 602.02 1.27197 -1.01291 0
M  V30 6553 O 603.204 1.37602 -1.28833 0
M  V30 6554 C 600.331 2.19049 -2.58331 0
M  V30 6555 C 599.377 1.95925 -3.78834 0
M  V30 6556 S 600.21 1.19106 -5.22086 0
M  V30 6557 C 601.366 2.50234 -5.73702 0
M  V30 6558 H 601.599 0.442212 -2.93993 0
M  V30 6559 H 599.132 0.111529 -1.53997 0
M  V30 6560 H 601.09 2.937 -2.86793 0
M  V30 6561 H 599.751 2.61086 -1.74622 0
M  V30 6562 H 598.944 2.92143 -4.10693 0
M  V30 6563 H 598.546 1.29401 -3.50901 0
M  V30 6564 H 600.838 3.46173 -5.82384 0
M  V30 6565 H 601.781 2.22944 -6.72088 0
M  V30 6566 H 602.189 2.58818 -5.01671 0
M  V30 6567 N 601.587 1.56661 0.17182 0
M  V30 6568 C 602.836 1.81158 0.886831 0
M  V30 6569 C 603.149 0.679072 1.83434 0
M  V30 6570 O 604.355 0.808964 2.59168 0
M  V30 6571 C 602.811 3.20999 1.6275 0
M  V30 6572 C 602.419 4.42117 0.723652 0
M  V30 6573 C 604.163 3.5479 2.33076 0
M  V30 6574 C 602.07 5.7298 1.46452 0
M  V30 6575 H 601 0.675543 0.334899 0
M  V30 6576 H 603.651 1.82967 0.139765 0
M  V30 6577 H 602.033 3.13506 2.4193 0
M  V30 6578 H 603.207 4.60789 -0.0311485 0
M  V30 6579 H 601.522 4.16197 0.130063 0
M  V30 6580 H 604.119 4.49806 2.89099 0
M  V30 6581 H 604.462 2.79646 3.08389 0
M  V30 6582 H 604.995 3.63834 1.6084 0
M  V30 6583 H 601.734 6.51152 0.753729 0
M  V30 6584 H 601.254 5.58285 2.19266 0
M  V30 6585 H 602.933 6.14916 2.01214 0
M  V30 6586 N 603.065 -0.440357 1.51323 0
M  V30 6587 C 604.481 -0.7766 1.39431 0
M  V30 6588 C 604.681 -1.95838 0.474296 0
M  V30 6589 O 603.737 -2.52398 -0.0716692 0
M  V30 6590 C 605.05 -1.05981 2.81405 0
M  V30 6591 C 606.598 -1.16442 2.90534 0
M  V30 6592 C 607.073 -1.48058 4.33408 0
M  V30 6593 N 608.564 -1.54988 4.36501 0
M  V30 6594 C 609.299 -1.81017 5.44078 0
M  V30 6595 N 608.795 -2.04858 6.61819 0
M  V30 6596 N 610.588 -1.82774 5.31554 0
M  V30 6597 H 602.739 0.338006 2.09693 0
M  V30 6598 H 605.002 0.0888072 0.943831 0
M  V30 6599 H 604.708 -0.264173 3.50706 0
M  V30 6600 H 604.582 -1.98822 3.20546 0
M  V30 6601 H 606.969 -1.95068 2.21432 0
M  V30 6602 H 607.05 -0.215088 2.54894 0
M  V30 6603 H 606.694 -0.699605 5.03059 0
M  V30 6604 H 606.624 -2.44192 4.66559 0
M  V30 6605 H 609.115 -1.38479 3.51613 0
M  V30 6606 H 609.428 -2.2408 7.396 0
M  V30 6607 H 607.773 -2.02187 6.6494 0
M  V30 6608 H 610.964 -1.63665 4.38556 0
M  V30 6609 H 611.137 -2.02722 6.15474 0
M  V30 6610 N 604.543 -1.41418 -0.695603 0
M  V30 6611 C 605.49 -1.43264 -1.80954 0
M  V30 6612 C 606.46 -0.287016 -1.63601 0
M  V30 6613 O 607.645 -0.488054 -1.84452 0
M  V30 6614 C 604.785 -1.32054 -3.18835 0
M  V30 6615 C 603.898 -2.56485 -3.4762 0
M  V30 6616 C 603.033 -2.3757 -4.75115 0
M  V30 6617 C 602.072 -3.57477 -4.96867 0
M  V30 6618 N 601.209 -3.37632 -6.15588 0
M  V30 6619 H 606.049 -2.38467 -1.78711 0
M  V30 6620 H 603.586 -1.18415 -0.872715 0
M  V30 6621 H 605.544 -1.23558 -3.98484 0
M  V30 6622 H 604.174 -0.404592 -3.20254 0
M  V30 6623 H 603.226 -2.75432 -2.62376 0
M  V30 6624 H 604.538 -3.45678 -3.59594 0
M  V30 6625 H 603.692 -2.2654 -5.62818 0
M  V30 6626 H 602.431 -1.45834 -4.65386 0
M  V30 6627 H 601.436 -3.68961 -4.07612 0
M  V30 6628 H 602.661 -4.50167 -5.08455 0
M  V30 6629 H 600.607 -2.48596 -6.07072 0
M  V30 6630 H 600.524 -4.20401 -6.2833 0
M  V30 6631 H 601.792 -3.30375 -7.06026 0
M  V30 6632 N 606.021 0.929856 -1.27246 0
M  V30 6633 C 607.246 1.71674 -1.16374 0
M  V30 6634 C 607.671 1.86064 0.276024 0
M  V30 6635 O 607.029 1.3591 1.19992 0
M  V30 6636 C 607.077 3.09526 -1.85003 0
M  V30 6637 O 606.181 3.96142 -1.14653 0
M  V30 6638 H 605.522 0.52629 -0.404863 0
M  V30 6639 H 608.052 1.16381 -1.68276 0
M  V30 6640 H 608.062 3.59852 -1.92276 0
M  V30 6641 H 606.737 2.98369 -2.89739 0
M  V30 6642 H 605.314 3.54584 -1.15433 0
M  V30 6643 N 607.499 1.09233 1.13605 0
M  V30 6644 C 608.729 0.847677 1.88409 0
M  V30 6645 C 609.137 -0.604524 1.79282 0
M  V30 6646 O 608.48 -1.42773 1.15592 0
M  V30 6647 C 608.542 1.20153 3.38827 0
M  V30 6648 C 608.206 2.65824 3.71735 0
M  V30 6649 C 609.203 3.64072 3.71143 0
M  V30 6650 C 606.888 3.01894 4.01454 0
M  V30 6651 C 608.882 4.96419 3.99808 0
M  V30 6652 C 606.569 4.34433 4.29781 0
M  V30 6653 C 607.567 5.31505 4.28942 0
M  V30 6654 O 607.255 6.61659 4.56576 0
M  V30 6655 H 606.987 0.304813 0.603378 0
M  V30 6656 H 609.541 1.4573 1.44748 0
M  V30 6657 H 607.771 0.534946 3.82982 0
M  V30 6658 H 609.46 0.936349 3.94952 0
M  V30 6659 H 610.226 3.37549 3.4826 0
M  V30 6660 H 606.105 2.26971 4.01255 0
M  V30 6661 H 609.649 5.7218 3.99069 0
M  V30 6662 H 605.546 4.607 4.52135 0
M  V30 6663 H 606.314 6.67102 4.74254 0
M  V30 6664 N 608.977 -1.30795 0.87923 0
M  V30 6665 C 609.907 -2.30742 0.357796 0
M  V30 6666 C 610.888 -1.60747 -0.556283 0
M  V30 6667 O 612.073 -1.88393 -0.47135 0
M  V30 6668 C 609.203 -3.44583 -0.433555 0
M  V30 6669 C 608.157 -4.26235 0.388251 0
M  V30 6670 C 607.483 -5.32073 -0.529352 0
M  V30 6671 C 608.783 -4.96303 1.62729 0
M  V30 6672 H 610.477 -2.74605 1.19299 0
M  V30 6673 H 608.023 -1.32017 0.575104 0
M  V30 6674 H 609.976 -4.13563 -0.808934 0
M  V30 6675 H 608.7 -2.99511 -1.30234 0
M  V30 6676 H 607.359 -3.58936 0.745695 0
M  V30 6677 H 607.007 -4.83249 -1.39569 0
M  V30 6678 H 606.707 -5.87598 0.0166741 0
M  V30 6679 H 608.231 -6.0391 -0.901373 0
M  V30 6680 H 609.645 -5.5783 1.32283 0
M  V30 6681 H 608.042 -5.61666 2.11309 0
M  V30 6682 H 609.112 -4.22758 2.37494 0
M  V30 6683 N 610.455 -0.639598 -1.44038 0
M  V30 6684 C 611.702 -0.14748 -2.01962 0
M  V30 6685 C 612.03 1.23372 -1.50365 0
M  V30 6686 O 611.285 1.8345 -0.681501 0
M  V30 6687 C 611.584 -0.0925348 -3.5728 0
M  V30 6688 C 611.25 -1.41365 -4.28167 0
M  V30 6689 C 609.912 -1.77545 -4.47248 0
M  V30 6690 C 612.264 -2.2853 -4.68427 0
M  V30 6691 C 609.592 -3.00583 -5.03852 0
M  V30 6692 C 611.944 -3.50846 -5.26393 0
M  V30 6693 C 610.608 -3.8724 -5.43692 0
M  V30 6694 H 609.878 -0.0539666 -0.739032 0
M  V30 6695 H 612.525 -0.827599 -1.72694 0
M  V30 6696 H 610.83 0.670987 -3.86012 0
M  V30 6697 H 612.527 0.304891 -3.99839 0
M  V30 6698 H 609.117 -1.1221 -4.13651 0
M  V30 6699 H 613.301 -2.0187 -4.5339 0
M  V30 6700 H 608.557 -3.28846 -5.15432 0
M  V30 6701 H 612.731 -4.18616 -5.56537 0
M  V30 6702 H 610.358 -4.8266 -5.87319 0
M  V30 6703 N 611.933 1.52934 -0.380664 0
M  V30 6704 C 612.863 2.29118 0.450268 0
M  V30 6705 C 613.844 1.32153 1.07096 0
M  V30 6706 O 615.029 1.61038 1.08537 0
M  V30 6707 C 612.159 3.09161 1.58231 0
M  V30 6708 C 611.113 4.13938 1.0881 0
M  V30 6709 C 610.439 4.82153 2.31155 0
M  V30 6710 C 611.739 5.22048 0.162146 0
M  V30 6711 H 613.433 2.98826 -0.185361 0
M  V30 6712 H 610.979 1.43715 -0.0905886 0
M  V30 6713 H 612.932 3.61211 2.17036 0
M  V30 6714 H 611.656 2.3717 2.2454 0
M  V30 6715 H 610.315 3.62855 0.522633 0
M  V30 6716 H 609.963 4.06719 2.95953 0
M  V30 6717 H 609.663 5.52966 1.98752 0
M  V30 6718 H 611.187 5.37004 2.90618 0
M  V30 6719 H 612.601 5.6951 0.658126 0
M  V30 6720 H 610.998 6.00057 -0.0717122 0
M  V30 6721 H 612.068 4.78398 -0.791438 0
M  V30 6722 N 613.412 0.11024 1.57214 0
M  V30 6723 C 614.658 -0.550684 1.9518 0
M  V30 6724 C 614.991 -1.66885 0.993122 0
M  V30 6725 O 614.266 -1.94479 0.0287907 0
M  V30 6726 C 614.549 -1.09163 3.43155 0
M  V30 6727 C 614.402 0.0225198 4.49794 0
M  V30 6728 C 615.721 -1.98527 3.92778 0
M  V30 6729 H 612.84 -0.198706 0.709708 0
M  V30 6730 H 615.482 0.184024 1.89107 0
M  V30 6731 H 613.632 -1.71775 3.48462 0
M  V30 6732 H 615.304 0.657443 4.56591 0
M  V30 6733 H 613.547 0.686868 4.28328 0
M  V30 6734 H 614.218 -0.39706 5.5057 0
M  V30 6735 H 616.694 -1.458 3.8972 0
M  V30 6736 H 615.57 -2.33298 4.96853 0
M  V30 6737 H 615.831 -2.90846 3.32958 0
M  V30 6738 N 614.89 -1.56749 -0.16351 0
M  V30 6739 C 616.306 -1.51043 -0.515567 0
M  V30 6740 C 616.506 -0.815855 -1.84245 0
M  V30 6741 O 615.562 -0.379477 -2.49632 0
M  V30 6742 C 616.875 -2.95791 -0.541114 0
M  V30 6743 C 618.423 -3.0664 -0.627776 0
M  V30 6744 C 618.898 -4.52861 -0.684141 0
M  V30 6745 N 620.389 -4.5714 -0.746818 0
M  V30 6746 C 621.124 -5.67634 -0.811137 0
M  V30 6747 N 620.62 -6.8774 -0.835811 0
M  V30 6748 N 622.413 -5.55624 -0.850756 0
M  V30 6749 H 614.564 -2.00307 0.70645 0
M  V30 6750 H 616.827 -0.912876 0.255659 0
M  V30 6751 H 616.533 -3.49797 0.365329 0
M  V30 6752 H 616.407 -3.50858 -1.38487 0
M  V30 6753 H 618.794 -2.52663 -1.52464 0
M  V30 6754 H 618.875 -2.54645 0.242805 0
M  V30 6755 H 618.519 -5.07472 0.2085 0
M  V30 6756 H 618.449 -5.02621 -1.57098 0
M  V30 6757 H 620.94 -3.70669 -0.735717 0
M  V30 6758 H 621.253 -7.67701 -0.886279 0
M  V30 6759 H 619.598 -6.90334 -0.803958 0
M  V30 6760 H 622.789 -4.60709 -0.828535 0
M  V30 6761 H 622.962 -6.41756 -0.897418 0
M  V30 6762 N 616.368 0.432326 -1.51554 0
M  V30 6763 C 617.593 1.20824 -1.68571 0
M  V30 6764 C 618.018 1.84126 -0.384596 0
M  V30 6765 O 617.376 1.69025 0.655751 0
M  V30 6766 C 617.424 2.26429 -2.80646 0
M  V30 6767 O 616.528 3.32032 -2.44598 0
M  V30 6768 H 615.869 0.353765 -0.561913 0
M  V30 6769 H 618.399 0.509916 -1.98144 0
M  V30 6770 H 618.409 2.71133 -3.04878 0
M  V30 6771 H 617.084 1.79733 -3.75058 0
M  V30 6772 H 615.661 2.92769 -2.30956 0
M  V30 6773 N 617.846 1.41785 0.688094 0
M  V30 6774 C 618.778 1.40159 1.81351 0
M  V30 6775 C 619.791 0.30262 1.59963 0
M  V30 6776 O 620.98 0.564841 1.69327 0
M  V30 6777 C 618.08 1.16517 3.1824 0
M  V30 6778 C 617.253 2.38597 3.66593 0
M  V30 6779 C 616.312 2.10699 4.82174 0
M  V30 6780 O 615.338 2.83798 4.93404 0
M  V30 6781 N 616.54 1.10187 5.69947 0
M  V30 6782 H 619.305 2.3716 1.83236 0
M  V30 6783 H 616.866 1.36494 0.870697 0
M  V30 6784 H 618.858 0.957941 3.93199 0
M  V30 6785 H 617.428 0.280873 3.11336 0
M  V30 6786 H 616.648 2.74974 2.82459 0
M  V30 6787 H 617.936 3.19919 3.95638 0
M  V30 6788 H 617.334 0.497016 5.63512 0
M  V30 6789 H 615.891 0.954518 6.44773 0
M  V30 6790 N 619.324 -0.923095 1.27737 0
M  V30 6791 C 620.571 -1.67127 1.14345 0
M  V30 6792 C 620.899 -1.92017 -0.30982 0
M  V30 6793 O 620.154 -1.51185 -1.24264 0
M  V30 6794 C 620.453 -3.04125 1.8773 0
M  V30 6795 C 620.119 -2.98929 3.37568 0
M  V30 6796 C 618.781 -2.9722 3.78436 0
M  V30 6797 C 621.133 -2.89875 4.33154 0
M  V30 6798 C 618.461 -2.84244 5.13247 0
M  V30 6799 C 620.813 -2.7844 5.68026 0
M  V30 6800 C 619.477 -2.75083 6.08182 0
M  V30 6801 H 618.747 -0.611562 0.418417 0
M  V30 6802 H 621.394 -1.07618 1.584 0
M  V30 6803 H 619.699 -3.67366 1.36196 0
M  V30 6804 H 621.396 -3.609 1.74792 0
M  V30 6805 H 617.986 -3.0105 3.05069 0
M  V30 6806 H 622.17 -2.9029 4.02548 0
M  V30 6807 H 617.426 -2.80034 5.43499 0
M  V30 6808 H 621.6 -2.70401 6.4176 0
M  V30 6809 H 619.227 -2.64786 7.12596 0
M  V30 6810 N 620.802 -1.09834 -1.13024 0
M  V30 6811 C 622.03 -0.858902 -1.8823 0
M  V30 6812 C 622.445 0.590164 -1.79339 0
M  V30 6813 O 621.802 1.4065 -1.16292 0
M  V30 6814 C 621.853 -1.29066 -3.37675 0
M  V30 6815 O 621.574 -2.6829 -3.46341 0
M  V30 6816 C 623.075 -1.08421 -4.29837 0
M  V30 6817 H 620.295 -0.308713 -0.595766 0
M  V30 6818 H 622.839 -1.4614 -1.4305 0
M  V30 6819 H 620.994 -0.731961 -3.80422 0
M  V30 6820 H 621.408 -2.86598 -4.39274 0
M  V30 6821 H 622.882 -1.43553 -5.33007 0
M  V30 6822 H 623.359 -0.0223315 -4.39194 0
M  V30 6823 H 623.965 -1.62907 -3.92863 0
M  V30 6824 N 622.28 1.30327 -0.886154 0
M  V30 6825 C 623.19 2.31854 -0.357866 0
M  V30 6826 C 624.206 1.65392 0.540502 0
M  V30 6827 O 625.382 1.96683 0.433339 0
M  V30 6828 C 622.447 3.44171 0.417999 0
M  V30 6829 C 621.508 4.26257 -0.510263 0
M  V30 6830 C 620.741 5.3321 0.228669 0
M  V30 6831 O 620.964 5.51542 1.45458 0
M  V30 6832 O 619.898 6.0042 -0.421832 0
M  V30 6833 H 623.724 2.78995 -1.19982 0
M  V30 6834 H 621.309 1.34518 -0.650028 0
M  V30 6835 H 623.191 4.12588 0.857251 0
M  V30 6836 H 621.866 2.99164 1.23623 0
M  V30 6837 H 620.773 3.60533 -0.99835 0
M  V30 6838 H 622.106 4.74871 -1.29454 0
M  V30 6839 N 623.758 0.647228 1.43697 0
M  V30 6840 C 624.706 -0.0600105 2.32523 0
M  V30 6841 C 625.7 -0.819277 1.48271 0
M  V30 6842 O 626.906 -0.730356 1.64517 0
M  V30 6843 H 623.281 -0.0381872 0.75103 0
M  V30 6844 H 625.252 0.706978 2.89904 0
M  V30 6845 C 624.001 -1.0169 3.32497 0
M  V30 6846 H 623.324 -0.442083 3.97348 0
M  V30 6847 H 624.764 -1.48095 3.97296 0
M  V30 6848 C 623.223 -2.11002 2.6264 0
M  V30 6849 O 623.753 -3.19302 2.4374 0
M  V30 6850 N 621.959 -1.87388 2.22113 0
M  V30 6851 H 621.506 -0.993174 2.37684 0
M  V30 6852 H 621.464 -2.60723 1.75701 0
M  V30 6853 N 625.236 -1.5273 0.388769 0
M  V30 6854 C 626.476 -2.03483 -0.193372 0
M  V30 6855 C 626.84 -1.26897 -1.44087 0
M  V30 6856 O 628.041 -1.67773 -2.10014 0
M  V30 6857 C 626.312 -3.54488 -0.455325 0
M  V30 6858 S 627.871 -4.27069 -1.00783 0
M  V30 6859 H 624.689 -0.708907 -0.0545131 0
M  V30 6860 H 627.291 -1.8798 0.536993 0
M  V30 6861 H 625.995 -4.07817 0.459722 0
M  V30 6862 H 625.526 -3.74196 -1.21413 0
M  V30 6863 H 627.541 -4.40185 -2.29023 0
M  V30 6864 N 626.714 -0.118576 -1.57153 0
M  V30 6865 C 627.96 0.540326 -1.95469 0
M  V30 6866 C 628.293 1.66356 -1.00196 0
M  V30 6867 O 627.568 1.94461 -0.039104 0
M  V30 6868 C 627.851 1.07342 -3.43729 0
M  V30 6869 C 627.704 -0.0463732 -4.49776 0
M  V30 6870 C 629.023 1.96442 -3.93826 0
M  V30 6871 H 626.142 0.19494 -0.710751 0
M  V30 6872 H 628.784 -0.19405 -1.89006 0
M  V30 6873 H 626.934 1.69925 -3.49368 0
M  V30 6874 H 628.606 -0.681648 -4.56236 0
M  V30 6875 H 626.849 -0.709574 -4.27957 0
M  V30 6876 H 627.52 0.367856 -5.50773 0
M  V30 6877 H 629.996 1.43731 -3.90488 0
M  V30 6878 H 628.872 2.3066 -4.98084 0
M  V30 6879 H 629.133 2.89077 -3.34495 0
M  V30 6880 N 628.193 1.56834 0.155195 0
M  V30 6881 C 629.47 1.73799 0.897395 0
M  V30 6882 C 629.85 0.684379 1.99698 0
M  V30 6883 O 629.198 -0.298111 2.26547 0
M  V30 6884 C 629.408 3.17572 1.44737 0
M  V30 6885 C 630.756 3.79014 1.91399 0
M  V30 6886 O 631.78 3.20951 1.54496 0
M  V30 6887 O 630.639 4.80998 2.59429 0
M  V30 6888 H 627.733 0.710329 0.423511 0
M  V30 6889 H 630.279 1.69107 0.141761 0
M  V30 6890 H 629.051 3.85749 0.656741 0
M  V30 6891 H 628.674 3.26657 2.26674 0
M  V30 6892 N 629.671 -0.424282 1.51781 0
M  V30 6893 C 630.919 -1.17028 1.64769 0
M  V30 6894 C 631.24 -1.91409 0.372523 0
M  V30 6895 O 630.51 -1.86091 -0.612108 0
M  V30 6896 H 629.09 -0.434992 0.607282 0
M  V30 6897 H 631.752 -0.485169 1.88765 0
M  V30 6898 H 630.848 -1.8927 2.4816 0
M  V30 6899 N 631.149 -1.42148 -0.680565 0
M  V30 6900 C 632.374 -1.45901 -1.47403 0
M  V30 6901 C 632.799 -0.0700985 -1.87969 0
M  V30 6902 O 632.157 0.930145 -1.55621 0
M  V30 6903 C 632.205 -2.38661 -2.70321 0
M  V30 6904 O 631.309 -1.85399 -3.68376 0
M  V30 6905 H 630.65 -0.494565 -0.443059 0
M  V30 6906 H 633.18 -1.86774 -0.835251 0
M  V30 6907 H 633.19 -2.55046 -3.18458 0
M  V30 6908 H 631.865 -3.39571 -2.40134 0
M  V30 6909 H 630.442 -1.78541 -3.2738 0
M  V30 6910 N 632.627 0.916307 -1.28225 0
M  V30 6911 C 633.874 1.66518 -1.1523 0
M  V30 6912 C 634.202 1.92178 0.299632 0
M  V30 6913 O 633.457 1.51842 1.2346 0
M  V30 6914 C 633.756 3.03125 -1.8934 0
M  V30 6915 C 633.422 2.97135 -3.39148 0
M  V30 6916 C 632.084 2.95208 -3.80007 0
M  V30 6917 C 634.436 2.87574 -4.34685 0
M  V30 6918 C 631.764 2.81518 -5.14747 0
M  V30 6919 C 634.116 2.75424 -5.69495 0
M  V30 6920 C 632.78 2.71854 -6.09632 0
M  V30 6921 H 632.05 0.609334 -0.421655 0
M  V30 6922 H 634.697 1.06776 -1.58969 0
M  V30 6923 H 633.002 3.66639 -1.38143 0
M  V30 6924 H 634.699 3.59968 -1.76704 0
M  V30 6925 H 631.289 2.99428 -3.06661 0
M  V30 6926 H 635.473 2.88152 -4.04082 0
M  V30 6927 H 630.729 2.77148 -5.44976 0
M  V30 6928 H 634.903 2.66993 -6.43185 0
M  V30 6929 H 632.53 2.61003 -7.1399 0
M  V30 6930 N 634.105 1.10431 1.1244 0
M  V30 6931 C 635.521 0.836096 1.35947 0
M  V30 6932 C 635.721 -0.544475 1.94004 0
M  V30 6933 O 634.777 -1.29735 2.16622 0
M  V30 6934 C 636.09 1.93575 2.30107 0
M  V30 6935 C 637.638 1.9642 2.43697 0
M  V30 6936 C 638.113 3.05559 3.41171 0
M  V30 6937 N 639.604 3.04865 3.48728 0
M  V30 6938 C 640.339 3.85954 4.24061 0
M  V30 6939 N 639.835 4.76977 5.02458 0
M  V30 6940 N 641.628 3.74172 4.19466 0
M  V30 6941 H 633.779 1.9942 0.731124 0
M  V30 6942 H 636.042 0.866607 0.384312 0
M  V30 6943 H 635.748 2.92943 1.94621 0
M  V30 6944 H 635.622 1.8229 3.30227 0
M  V30 6945 H 638.009 0.97685 2.78463 0
M  V30 6946 H 638.09 2.11782 1.43465 0
M  V30 6947 H 637.734 4.04513 3.07135 0
M  V30 6948 H 637.664 2.87438 4.41234 0
M  V30 6949 H 640.155 2.38908 2.92799 0
M  V30 6950 H 640.468 5.35409 5.57277 0
M  V30 6951 H 638.813 4.81006 5.01655 0
M  V30 6952 H 642.004 3.02412 3.57302 0
M  V30 6953 H 642.177 4.37602 4.77921 0
M  V30 6954 N 635.583 -1.29855 0.893053 0
M  V30 6955 C 636.86 -1.90694 0.435336 0
M  V30 6956 C 637.24 -1.8111 -1.08454 0
M  V30 6957 O 636.588 -1.23352 -1.92345 0
M  V30 6958 C 636.798 -3.36033 0.942472 0
M  V30 6959 C 638.146 -4.13083 0.982226 0
M  V30 6960 O 639.17 -3.4491 0.889686 0
M  V30 6961 O 638.029 -5.34896 1.12022 0
M  V30 6962 H 635.123 -0.815978 0.134567 0
M  V30 6963 H 637.669 -1.38367 0.982484 0
M  V30 6964 H 636.441 -3.37132 1.9864 0
M  V30 6965 H 636.064 -3.95828 0.374952 0
M  V30 6966 N 637.061 -0.65484 -1.43351 0
M  V30 6967 C 638.477 -0.32255 -1.56307 0
M  V30 6968 C 638.677 1.17324 -1.63821 0
M  V30 6969 O 637.733 1.95813 -1.59417 0
M  V30 6970 C 639.046 -1.03533 -2.82314 0
M  V30 6971 C 640.594 -1.01574 -2.9606 0
M  V30 6972 C 641.069 -1.70945 -4.24902 0
M  V30 6973 N 642.56 -1.67716 -4.3177 0
M  V30 6974 C 643.295 -2.18265 -5.30234 0
M  V30 6975 N 642.791 -2.7711 -6.34966 0
M  V30 6976 N 644.584 -2.08756 -5.21898 0
M  V30 6977 H 636.735 -1.62549 -1.36717 0
M  V30 6978 H 638.998 -0.683676 -0.656727 0
M  V30 6979 H 638.704 -2.09045 -2.8283 0
M  V30 6980 H 638.578 -0.587913 -3.7259 0
M  V30 6981 H 640.965 0.0309834 -2.95084 0
M  V30 6982 H 641.046 -1.50186 -2.07069 0
M  V30 6983 H 640.69 -2.75574 -4.26639 0
M  V30 6984 H 640.62 -1.19797 -5.12793 0
M  V30 6985 H 643.111 -1.24777 -3.56706 0
M  V30 6986 H 643.424 -3.13353 -7.06421 0
M  V30 6987 H 641.769 -2.81171 -6.35585 0
M  V30 6988 H 644.96 -1.62488 -4.38994 0
M  V30 6989 H 645.133 -2.48459 -5.98475 0
M  V30 6990 N 638.539 1.52521 -0.396863 0
M  V30 6991 C 639.955 1.5953 -0.0471659 0
M  V30 6992 C 640.155 1.41044 1.43906 0
M  V30 6993 O 639.211 1.23122 2.20448 0
M  V30 6994 C 640.524 2.95972 -0.531113 0
M  V30 6995 C 642.072 3.09172 -0.488024 0
M  V30 6996 C 642.547 4.48075 -0.948281 0
M  V30 6997 N 644.038 4.54281 -0.9046 0
M  V30 6998 C 644.773 5.60007 -1.23205 0
M  V30 6999 N 644.269 6.73343 -1.63036 0
M  V30 7000 N 646.062 5.50151 -1.15282 0
M  V30 7001 H 638.213 1.62786 -1.36435 0
M  V30 7002 H 640.476 0.76514 -0.559701 0
M  V30 7003 H 640.182 3.14741 -1.56942 0
M  V30 7004 H 640.056 3.77143 0.0657922 0
M  V30 7005 H 642.443 2.90095 0.541211 0
M  V30 7006 H 642.524 2.29937 -1.12083 0
M  V30 7007 H 642.168 4.67894 -1.97578 0
M  V30 7008 H 642.098 5.25788 -0.292412 0
M  V30 7009 H 644.589 3.72918 -0.6116 0
M  V30 7010 H 644.902 7.49992 -1.86365 0
M  V30 7011 H 643.247 6.74655 -1.66929 0
M  V30 7012 H 646.438 4.6049 -0.840602 0
M  V30 7013 H 646.611 6.32444 -1.41133 0
M  V30 7014 N 640.017 0.126909 1.57088 0
M  V30 7015 C 640.964 -0.82036 2.15728 0
M  V30 7016 C 641.934 -1.25811 1.08447 0
M  V30 7017 O 643.119 -1.33422 1.36393 0
M  V30 7018 C 640.259 -2.06199 2.76724 0
M  V30 7019 C 639.372 -1.67188 3.98337 0
M  V30 7020 C 638.507 -2.86378 4.47393 0
M  V30 7021 C 637.546 -2.43644 5.61519 0
M  V30 7022 N 636.683 -3.55775 6.05284 0
M  V30 7023 H 641.523 -0.313472 2.96347 0
M  V30 7024 H 639.06 -0.14303 1.46403 0
M  V30 7025 H 641.018 -2.78959 3.10222 0
M  V30 7026 H 639.648 -2.54333 1.98782 0
M  V30 7027 H 638.7 -0.842714 3.70948 0
M  V30 7028 H 640.012 -1.31789 4.81075 0
M  V30 7029 H 639.166 -3.67353 4.82842 0
M  V30 7030 H 637.905 -3.25009 3.63621 0
M  V30 7031 H 636.91 -1.61104 5.25667 0
M  V30 7032 H 638.135 -2.06122 6.47063 0
M  V30 7033 H 636.081 -3.94065 5.24451 0
M  V30 7034 H 635.998 -3.24325 6.82898 0
M  V30 7035 H 637.266 -4.37166 6.45373 0
M  V30 7036 N 641.495 -1.56914 -0.146875 0
M  V30 7037 C 642.743 -1.82994 -0.85777 0
M  V30 7038 C 643.064 -0.707814 -1.817 0
M  V30 7039 O 642.334 0.270521 -1.94023 0
M  V30 7040 H 640.914 -0.675106 -0.319751 0
M  V30 7041 H 643.576 -1.9439 -0.140849 0
M  V30 7042 H 642.672 -2.77928 -1.41994 0
M  V30 7043 N 642.974 0.416227 -1.52004 0
M  V30 7044 C 643.937 1.48926 -1.74223 0
M  V30 7045 C 644.937 1.48693 -0.612119 0
M  V30 7046 O 646.127 1.50343 -0.879921 0
M  V30 7047 C 643.259 2.88372 -1.81809 0
M  V30 7048 H 644.452 1.3052 -2.70008 0
M  V30 7049 H 642.005 0.646271 -1.42313 0
M  V30 7050 H 642.74 3.12157 -0.879135 0
M  V30 7051 H 642.525 2.89944 -2.6396 0
M  V30 7052 H 644.015 3.66173 -2.00766 0
M  V30 7053 N 644.452 1.42507 0.673017 0
M  V30 7054 C 645.698 1.44282 1.43367 0
M  V30 7055 C 646.053 0.0588239 1.9231 0
M  V30 7056 O 645.346 -0.919288 1.68106 0
M  V30 7057 C 645.54 2.40351 2.64511 0
M  V30 7058 C 645.369 3.87955 2.27423 0
M  V30 7059 C 644.139 4.56476 2.16697 0
M  V30 7060 C 646.337 4.7833 1.88957 0
M  V30 7061 N 644.319 5.89099 1.72731 0
M  V30 7062 C 645.69 6.00073 1.55923 0
M  V30 7063 C 647.745 4.65769 1.75965 0
M  V30 7064 C 646.448 7.10652 1.112 0
M  V30 7065 C 648.474 5.76332 1.32647 0
M  V30 7066 C 647.836 6.97188 1.00538 0
M  V30 7067 H 643.935 0.583134 0.521036 0
M  V30 7068 H 646.519 1.78547 0.776481 0
M  V30 7069 H 644.69 2.08145 3.27918 0
M  V30 7070 H 646.422 2.32694 3.31113 0
M  V30 7071 H 643.177 4.10712 2.35823 0
M  V30 7072 H 643.601 6.59446 1.53166 0
M  V30 7073 H 648.243 3.72808 1.99435 0
M  V30 7074 H 645.961 8.0346 0.864768 0
M  V30 7075 H 649.547 5.68625 1.23112 0
M  V30 7076 H 648.427 7.81287 0.675283 0
M  V30 7077 N 645.93 -0.909495 1.28709 0
M  V30 7078 C 647.341 -1.47419 1.14563 0
M  V30 7079 C 647.692 -1.94432 -0.262832 0
M  V30 7080 O 646.817 -1.82842 -1.15748 0
M  V30 7081 C 647.412 -2.67933 2.07358 0
M  V30 7082 C 645.971 -3.20568 1.97264 0
M  V30 7083 C 645.118 -1.93269 1.98852 0
M  V30 7084 H 648.069 -0.721787 1.41336 0
M  V30 7085 H 648.09 -3.43339 1.64007 0
M  V30 7086 H 647.602 -2.33685 3.09859 0
M  V30 7087 H 645.703 -3.59531 0.978157 0
M  V30 7088 H 645.816 -3.85529 2.84436 0
M  V30 7089 H 644.18 -2.10553 1.43317 0
M  V30 7090 H 644.963 -1.61312 3.0304 0
M  V30 7091 N 647.408 -1.11026 -1.11852 0
M  V30 7092 C 648.655 -0.85646 -1.83497 0
M  V30 7093 C 648.983 0.617938 -1.84423 0
M  V30 7094 O 648.238 1.47194 -1.28966 0
M  V30 7095 C 648.537 -1.35777 -3.30604 0
M  V30 7096 C 648.203 -2.84465 -3.49843 0
M  V30 7097 C 646.865 -3.25068 -3.54802 0
M  V30 7098 C 649.217 -3.80251 -3.56453 0
M  V30 7099 C 646.545 -4.60194 -3.63921 0
M  V30 7100 C 648.897 -5.15188 -3.67102 0
M  V30 7101 C 647.561 -5.55356 -3.70319 0
M  V30 7102 H 646.831 -0.313401 -0.671462 0
M  V30 7103 H 649.478 -1.38792 -1.31943 0
M  V30 7104 H 647.783 -0.746455 -3.84624 0
M  V30 7105 H 649.48 -1.13779 -3.8452 0
M  V30 7106 H 646.07 -2.52054 -3.46651 0
M  V30 7107 H 650.254 -3.49986 -3.51886 0
M  V30 7108 H 645.51 -4.90728 -3.64686 0
M  V30 7109 H 649.684 -5.89248 -3.71159 0
M  V30 7110 H 647.311 -6.60054 -3.77138 0
M  V30 7111 N 648.886 1.2938 -0.899927 0
M  V30 7112 C 650.111 2.00228 -0.540692 0
M  V30 7113 C 650.536 1.66909 0.867359 0
M  V30 7114 O 649.894 0.893824 1.57735 0
M  V30 7115 C 649.942 3.52921 -0.740232 0
M  V30 7116 O 649.046 4.11879 0.207154 0
M  V30 7117 H 648.387 0.629505 -0.211233 0
M  V30 7118 H 650.917 1.6487 -1.21158 0
M  V30 7119 H 650.927 4.0287 -0.644973 0
M  V30 7120 H 649.602 3.76508 -1.76677 0
M  V30 7121 H 648.179 3.72845 0.0643315 0
M  V30 7122 N 650.364 0.662433 1.43002 0
M  V30 7123 C 651.592 0.187615 2.06048 0
M  V30 7124 C 652.007 -1.15039 1.49705 0
M  V30 7125 O 651.364 -1.71209 0.631956 0
M  V30 7126 C 651.415 0.100498 3.6136 0
M  V30 7127 O 651.136 1.38562 4.15611 0
M  V30 7128 C 652.637 -0.399298 4.41498 0
M  V30 7129 H 649.857 0.0941675 0.664359 0
M  V30 7130 H 652.401 0.905681 1.83351 0
M  V30 7131 H 650.556 -0.568181 3.83211 0
M  V30 7132 H 650.97 1.25084 5.09366 0
M  V30 7133 H 652.444 -0.409187 5.50481 0
M  V30 7134 H 652.921 -1.43232 4.15188 0
M  V30 7135 H 653.527 0.23721 4.24638 0
M  V30 7136 N 651.842 -1.52309 0.404946 0
M  V30 7137 C 652.789 -2.26898 -0.422597 0
M  V30 7138 C 653.759 -1.2914 -1.04461 0
M  V30 7139 O 654.944 -1.57996 -1.06967 0
M  V30 7140 C 652.084 -3.09053 -1.53559 0
M  V30 7141 C 651.197 -4.21762 -0.934908 0
M  V30 7142 C 650.332 -4.91283 -2.02025 0
M  V30 7143 C 649.371 -5.95962 -1.39628 0
M  V30 7144 N 648.508 -6.59017 -2.42159 0
M  V30 7145 H 653.348 -2.97188 0.219903 0
M  V30 7146 H 650.885 -1.46607 0.120282 0
M  V30 7147 H 652.843 -3.54987 -2.19181 0
M  V30 7148 H 651.473 -2.40942 -2.14818 0
M  V30 7149 H 650.525 -3.80029 -0.167854 0
M  V30 7150 H 651.837 -4.96864 -0.439073 0
M  V30 7151 H 650.991 -5.40601 -2.75383 0
M  V30 7152 H 649.73 -4.15741 -2.54973 0
M  V30 7153 H 648.735 -5.45968 -0.648023 0
M  V30 7154 H 649.96 -6.73445 -0.874553 0
M  V30 7155 H 647.906 -5.86306 -2.94247 0
M  V30 7156 H 647.823 -7.2978 -1.97376 0
M  V30 7157 H 649.091 -7.12974 -3.15099 0
M  V30 7158 N 653.32 -0.135238 -1.57019 0
M  V30 7159 C 654.23 0.822226 -2.19719 0
M  V30 7160 C 655.246 1.28057 -1.17802 0
M  V30 7161 O 656.422 1.3402 -1.50335 0
M  V30 7162 C 653.487 2.0484 -2.79717 0
M  V30 7163 C 652.548 1.64042 -3.96723 0
M  V30 7164 C 651.781 2.80814 -4.53849 0
M  V30 7165 O 652.004 3.967 -4.0986 0
M  V30 7166 O 650.938 2.56963 -5.44292 0
M  V30 7167 H 654.764 0.318552 -3.02025 0
M  V30 7168 H 652.349 0.0912021 -1.49121 0
M  V30 7169 H 654.231 2.76622 -3.17897 0
M  V30 7170 H 652.906 2.54182 -2.00432 0
M  V30 7171 H 651.813 0.893182 -3.63281 0
M  V30 7172 H 653.146 1.19426 -4.77492 0
M  V30 7173 N 654.798 1.5699 0.138552 0
M  V30 7174 C 655.73 1.95515 1.1961 0
M  V30 7175 C 656.743 0.852002 1.38726 0
M  V30 7176 O 657.932 1.13038 1.38147 0
M  V30 7177 C 655.032 2.2213 2.55952 0
M  V30 7178 C 654.205 3.53424 2.57702 0
M  V30 7179 C 653.264 3.6848 3.75645 0
M  V30 7180 O 652.29 4.4079 3.60129 0
M  V30 7181 N 653.492 3.05777 4.93438 0
M  V30 7182 H 656.257 2.86838 0.868557 0
M  V30 7183 H 653.818 1.58542 0.328033 0
M  V30 7184 H 655.81 2.29435 3.33379 0
M  V30 7185 H 654.38 1.3703 2.80965 0
M  V30 7186 H 653.6 3.57484 1.6613 0
M  V30 7187 H 654.888 4.39759 2.55909 0
M  V30 7188 H 654.286 2.46961 5.08947 0
M  V30 7189 H 652.843 3.18631 5.6861 0
M  V30 7190 N 656.276 -0.40816 1.52223 0
M  V30 7191 C 657.524 -1.15274 1.66001 0
M  V30 7192 C 657.845 -1.91003 0.392803 0
M  V30 7193 O 657.115 -1.8673 -0.592336 0
M  V30 7194 H 655.695 -0.428526 0.611861 0
M  V30 7195 H 658.357 -0.46512 1.89269 0
M  V30 7196 H 657.453 -1.86628 2.50153 0
M  V30 7197 N 657.755 -1.42862 -0.66545 0
M  V30 7198 C 658.985 -1.47032 -1.45138 0
M  V30 7199 C 659.393 -0.0829977 -1.89018 0
M  V30 7200 O 658.736 0.914551 -1.59316 0
M  V30 7201 C 658.798 -2.34302 -2.72659 0
M  V30 7202 C 658.462 -3.82034 -2.50796 0
M  V30 7203 C 659.459 -4.73453 -2.14799 0
M  V30 7204 C 657.144 -4.26397 -2.655 0
M  V30 7205 C 659.138 -6.07228 -1.93785 0
M  V30 7206 C 656.825 -5.6023 -2.44103 0
M  V30 7207 C 657.823 -6.50462 -2.08299 0
M  V30 7208 O 657.511 -7.8182 -1.87116 0
M  V30 7209 H 657.243 -0.501969 -0.452772 0
M  V30 7210 H 659.797 -1.88137 -0.82423 0
M  V30 7211 H 658.027 -1.88063 -3.37889 0
M  V30 7212 H 659.716 -2.29818 -3.34572 0
M  V30 7213 H 660.482 -4.4046 -2.03026 0
M  V30 7214 H 656.361 -3.56448 -2.92345 0
M  V30 7215 H 659.905 -6.7762 -1.65763 0
M  V30 7216 H 655.802 -5.92793 -2.55475 0
M  V30 7217 H 656.57 -7.93274 -2.01639 0
M  V30 7218 N 659.233 0.902656 -1.29189 0
M  V30 7219 C 660.461 1.68639 -1.19869 0
M  V30 7220 C 660.876 1.87254 0.241121 0
M  V30 7221 O 660.233 1.40745 1.16177 0
M  V30 7222 C 660.284 3.07251 -1.90471 0
M  V30 7223 O 660.005 2.89488 -3.28829 0
M  V30 7224 C 661.506 4.01653 -1.8759 0
M  V30 7225 H 658.726 0.526802 -0.415596 0
M  V30 7226 H 661.27 1.12901 -1.7051 0
M  V30 7227 H 659.425 3.59774 -1.43672 0
M  V30 7228 H 659.839 3.77296 -3.64346 0
M  V30 7229 H 661.313 4.96339 -2.4156 0
M  V30 7230 H 661.79 4.30881 -0.850756 0
M  V30 7231 H 662.396 3.55061 -2.34119 0
M  V30 7232 N 660.711 1.11618 1.11262 0
M  V30 7233 C 661.957 0.867463 1.83311 0
M  V30 7234 C 662.29 -0.605366 1.84524 0
M  V30 7235 O 661.565 -1.44704 1.29965 0
M  V30 7236 C 661.848 1.43207 3.30399 0
M  V30 7237 C 661.701 2.97265 3.3757 0
M  V30 7238 C 663.02 1.08454 4.26528 0
M  V30 7239 H 660.139 0.316578 0.665543 0
M  V30 7240 H 662.781 1.38137 1.30454 0
M  V30 7241 H 660.931 0.994982 3.75543 0
M  V30 7242 H 662.603 3.49591 3.00971 0
M  V30 7243 H 660.846 3.33237 2.77733 0
M  V30 7244 H 661.517 3.31859 4.41105 0
M  V30 7245 H 663.993 1.4619 3.89574 0
M  V30 7246 H 662.869 1.50633 5.27826 0
M  V30 7247 H 663.13 -0.00444568 4.421 0
M  V30 7248 N 662.189 -1.289 0.906776 0
M  V30 7249 C 663.414 -1.99939 0.551303 0
M  V30 7250 C 663.839 -1.67366 -0.858496 0
M  V30 7251 O 663.197 -0.902176 -1.57259 0
M  V30 7252 C 663.245 -3.52523 0.758937 0
M  V30 7253 O 662.349 -4.11983 -0.185308 0
M  V30 7254 H 661.69 -0.628376 0.214568 0
M  V30 7255 H 664.22 -1.64225 1.2203 0
M  V30 7256 H 664.23 -4.02522 0.666329 0
M  V30 7257 H 662.905 -3.75566 1.78671 0
M  V30 7258 H 661.482 -3.72873 -0.0445577 0
M  V30 7259 N 663.667 -0.670007 -1.42649 0
M  V30 7260 C 664.944 -0.119451 -1.95235 0
M  V30 7261 C 665.324 1.36461 -1.61064 0
M  V30 7262 O 664.672 2.09843 -0.904329 0
M  V30 7263 C 664.882 -0.383498 -3.46887 0
M  V30 7264 C 666.23 -0.297431 -4.23557 0
M  V30 7265 O 667.254 -0.31698 -3.54787 0
M  V30 7266 O 666.113 -0.235507 -5.45992 0
M  V30 7267 H 663.207 -8.85474e-05 -0.827 0
M  V30 7268 H 665.753 -0.744406 -1.52501 0
M  V30 7269 H 664.525 -1.41174 -3.64946 0
M  V30 7270 H 664.148 0.273702 -3.96657 0
M  V30 7271 N 665.145 1.52092 -0.413018 0
M  V30 7272 C 666.385 2.03765 0.160975 0
M  V30 7273 C 666.749 1.29174 1.4205 0
M  V30 7274 O 667.95 1.71093 2.07318 0
M  V30 7275 C 666.221 3.55167 0.398871 0
M  V30 7276 S 667.78 4.28619 0.939755 0
M  V30 7277 H 664.598 0.709685 0.0432281 0
M  V30 7278 H 667.2 1.87102 -0.566831 0
M  V30 7279 H 665.904 4.07034 -0.524544 0
M  V30 7280 H 665.435 3.7608 1.15444 0
M  V30 7281 H 667.45 4.43773 2.21991 0
M  V30 7282 N 666.623 0.143563 1.56945 0
M  V30 7283 C 667.851 -0.515447 2.00377 0
M  V30 7284 C 668.266 -1.58643 1.02361 0
M  V30 7285 O 667.623 -1.82489 0.0201039 0
M  V30 7286 C 667.674 -1.11923 3.43737 0
M  V30 7287 O 667.395 -0.0910318 4.38005 0
M  V30 7288 C 668.896 -1.85918 4.02429 0
M  V30 7289 H 666.116 -0.134478 0.657386 0
M  V30 7290 H 668.66 0.237135 2.0312 0
M  V30 7291 H 666.815 -1.82245 3.41856 0
M  V30 7292 H 667.229 -0.532916 5.21786 0
M  V30 7293 H 668.703 -2.2346 5.04747 0
M  V30 7294 H 669.18 -2.7438 3.42947 0
M  V30 7295 H 669.786 -1.20303 4.07931 0
M  V30 7296 N 668.101 -1.57061 -0.130224 0
M  V30 7297 C 669.064 -1.98593 -1.14426 0
M  V30 7298 C 670.064 -0.874584 -1.34936 0
M  V30 7299 O 671.254 -1.14086 -1.31643 0
M  V30 7300 C 668.386 -2.31639 -2.50112 0
M  V30 7301 H 669.579 -2.89374 -0.787561 0
M  V30 7302 H 667.132 -1.51756 -0.374146 0
M  V30 7303 H 667.867 -1.43703 -2.90723 0
M  V30 7304 H 667.652 -3.12684 -2.36583 0
M  V30 7305 H 669.142 -2.64551 -3.23114 0
M  V30 7306 N 669.579 0.400081 -1.52437 0
M  V30 7307 C 670.489 1.51253 -1.79331 0
M  V30 7308 C 671.505 1.60188 -0.679396 0
M  V30 7309 O 672.681 1.76733 -0.965791 0
M  V30 7310 C 669.746 2.869 -1.94652 0
M  V30 7311 C 668.807 2.87777 -3.18564 0
M  V30 7312 C 668.04 4.16954 -3.33145 0
M  V30 7313 O 668.263 5.11329 -2.52783 0
M  V30 7314 O 667.197 4.2487 -4.26343 0
M  V30 7315 H 671.023 1.31461 -2.73773 0
M  V30 7316 H 668.608 0.586834 -1.37392 0
M  V30 7317 H 670.49 3.67336 -2.065 0
M  V30 7318 H 669.165 3.06741 -1.034 0
M  V30 7319 H 668.072 2.06162 -3.12167 0
M  V30 7320 H 669.405 2.72886 -4.09627 0
M  V30 7321 N 671.057 1.43213 0.657864 0
M  V30 7322 C 672.02 1.47687 1.75275 0
M  V30 7323 C 673.02 0.362179 1.56668 0
M  V30 7324 O 674.21 0.623734 1.62651 0
M  V30 7325 C 671.342 1.32497 3.14098 0
M  V30 7326 H 672.535 2.4519 1.7269 0
M  V30 7327 H 670.088 1.2991 0.869087 0
M  V30 7328 H 670.823 0.359831 3.22298 0
M  V30 7329 H 670.608 2.13299 3.29008 0
M  V30 7330 H 672.098 1.38549 3.93946 0
M  V30 7331 N 672.536 -0.895792 1.29666 0
M  V30 7332 C 673.469 -2.00238 1.09453 0
M  V30 7333 C 674.447 -1.62599 0.00527044 0
M  V30 7334 O 675.631 -1.87847 0.156729 0
M  V30 7335 C 672.758 -3.32066 0.667054 0
M  V30 7336 C 671.804 -3.88691 1.7556 0
M  V30 7337 S 672.637 -4.17317 3.35569 0
M  V30 7338 C 673.793 -5.52181 2.94698 0
M  V30 7339 H 674.026 -2.17076 2.03138 0
M  V30 7340 H 671.559 -1.04287 1.13858 0
M  V30 7341 H 673.517 -4.08272 0.427136 0
M  V30 7342 H 672.178 -3.13101 -0.250256 0
M  V30 7343 H 671.371 -4.83918 1.40853 0
M  V30 7344 H 670.973 -3.19187 1.94924 0
M  V30 7345 H 673.265 -6.3281 2.41986 0
M  V30 7346 H 674.208 -5.91817 3.88791 0
M  V30 7347 H 674.616 -5.14225 2.32879 0
M  V30 7348 N 674.014 -1.12206 -1.10668 0
M  V30 7349 C 674.961 -0.787716 -2.16942 0
M  V30 7350 C 675.931 0.244442 -1.64291 0
M  V30 7351 O 677.116 0.119558 -1.90425 0
M  V30 7352 C 674.256 -0.24584 -3.44223 0
M  V30 7353 C 673.369 -1.33552 -4.10838 0
M  V30 7354 C 672.504 -0.753337 -5.25831 0
M  V30 7355 C 671.543 -1.82231 -5.84344 0
M  V30 7356 N 670.68 -1.25902 -6.90719 0
M  V30 7357 H 675.52 -1.69809 -2.44885 0
M  V30 7358 H 673.057 -0.847862 -1.20207 0
M  V30 7359 H 675.015 0.0863639 -4.17111 0
M  V30 7360 H 673.645 0.627702 -3.16638 0
M  V30 7361 H 672.697 -1.78454 -3.35944 0
M  V30 7362 H 674.009 -2.14396 -4.50373 0
M  V30 7363 H 673.163 -0.37166 -6.05561 0
M  V30 7364 H 671.902 0.0863297 -4.87624 0
M  V30 7365 H 670.907 -2.2132 -5.03287 0
M  V30 7366 H 672.132 -2.66515 -6.24617 0
M  V30 7367 H 670.078 -0.44114 -6.54515 0
M  V30 7368 H 669.995 -2.00408 -7.28953 0
M  V30 7369 H 671.263 -0.904498 -7.74235 0
M  V30 7370 N 675.492 1.28418 -0.913599 0
M  V30 7371 C 676.455 2.25564 -0.406624 0
M  V30 7372 C 677.455 1.5387 0.466965 0
M  V30 7373 O 678.645 1.72094 0.270042 0
M  V30 7374 C 675.777 3.38339 0.417053 0
M  V30 7375 H 676.97 2.71926 -1.26477 0
M  V30 7376 H 674.523 1.40098 -0.692986 0
M  V30 7377 H 675.258 2.97339 1.29461 0
M  V30 7378 H 675.043 3.91542 -0.209102 0
M  V30 7379 H 676.533 4.10578 0.762602 0
M  V30 7380 N 676.97 0.677563 1.42291 0
M  V30 7381 C 678.219 0.198173 2.00724 0
M  V30 7382 C 678.532 -1.20325 1.54211 0
M  V30 7383 O 679.738 -1.77916 2.05081 0
M  V30 7384 C 678.194 0.303432 3.58619 0
M  V30 7385 C 677.802 1.70909 4.14119 0
M  V30 7386 C 679.546 -0.117103 4.24338 0
M  V30 7387 C 677.453 1.76696 5.64387 0
M  V30 7388 H 676.383 0.070329 0.750713 0
M  V30 7389 H 679.034 0.843147 1.62982 0
M  V30 7390 H 677.416 -0.409482 3.93877 0
M  V30 7391 H 678.59 2.44931 3.90315 0
M  V30 7392 H 676.905 2.07771 3.6086 0
M  V30 7393 H 679.502 -0.0940471 5.34617 0
M  V30 7394 H 679.845 -1.15283 4.00019 0
M  V30 7395 H 680.378 0.5449 3.9405 0
M  V30 7396 H 677.117 2.7826 5.93508 0
M  V30 7397 H 676.637 1.07034 5.90173 0
M  V30 7398 H 678.316 1.52166 6.28852 0
M  V30 7399 N 678.448 -1.51871 0.421078 0
M  V30 7400 C 679.697 -2.01125 -0.152206 0
M  V30 7401 C 680.01 -1.3106 -1.45199 0
M  V30 7402 O 681.216 -1.71195 -2.10724 0
M  V30 7403 C 679.672 -3.58458 -0.3218 0
M  V30 7404 C 679.28 -4.37448 0.96659 0
M  V30 7405 C 681.024 -4.15908 -0.84973 0
M  V30 7406 C 678.931 -5.86451 0.763529 0
M  V30 7407 H 677.861 -0.751556 -0.0606565 0
M  V30 7408 H 680.512 -1.75115 0.548354 0
M  V30 7409 H 678.894 -3.80847 -1.08498 0
M  V30 7410 H 680.068 -4.26814 1.73684 0
M  V30 7411 H 678.383 -3.91373 1.42183 0
M  V30 7412 H 680.98 -5.24922 -1.01788 0
M  V30 7413 H 681.323 -3.74031 -1.82774 0
M  V30 7414 H 681.856 -3.97535 -0.145297 0
M  V30 7415 H 678.595 -6.3271 1.71344 0
M  V30 7416 H 678.115 -5.99791 0.0327889 0
M  V30 7417 H 679.794 -6.45697 0.410354 0
M  V30 7418 N 679.926 -0.151884 -1.56866 0
M  V30 7419 C 680.859 0.824094 -2.128 0
M  V30 7420 C 681.837 1.2391 -1.05286 0
M  V30 7421 O 683.021 1.33433 -1.33146 0
M  V30 7422 C 680.148 2.1072 -2.65169 0
M  V30 7423 C 679.194 1.83774 -3.84876 0
M  V30 7424 S 680.027 1.02436 -5.25611 0
M  V30 7425 C 681.183 2.31855 -5.81373 0
M  V30 7426 H 681.416 0.348456 -2.95251 0
M  V30 7427 H 678.949 0.0624794 -1.54274 0
M  V30 7428 H 680.907 2.84428 -2.95992 0
M  V30 7429 H 679.568 2.55398 -1.8284 0
M  V30 7430 H 678.761 2.78929 -4.19779 0
M  V30 7431 H 678.363 1.18172 -3.5484 0
M  V30 7432 H 680.655 3.27469 -5.93102 0
M  V30 7433 H 681.598 2.01449 -6.7884 0
M  V30 7434 H 682.006 2.42727 -5.09651 0
M  V30 7435 N 681.404 1.57128 0.121893 0
M  V30 7436 C 682.65 1.84974 0.831418 0
M  V30 7437 C 682.983 0.737204 1.79663 0
M  V30 7438 O 682.258 -0.257199 1.92792 0
M  V30 7439 C 682.541 3.23397 1.58386 0
M  V30 7440 C 682.394 4.45246 0.638445 0
M  V30 7441 C 683.713 3.59355 2.54071 0
M  V30 7442 H 680.832 0.67282 0.300803 0
M  V30 7443 H 683.474 1.89759 0.0957587 0
M  V30 7444 H 681.624 3.19449 2.21098 0
M  V30 7445 H 683.296 4.61295 0.0203925 0
M  V30 7446 H 681.539 4.33771 -0.05023 0
M  V30 7447 H 682.21 5.38765 1.20151 0
M  V30 7448 H 684.686 3.64075 2.01465 0
M  V30 7449 H 683.562 4.57193 3.03752 0
M  V30 7450 H 683.823 2.86622 3.36601 0
M  V30 7451 N 682.882 -0.391992 1.52647 0
M  V30 7452 C 684.298 -0.731848 1.41831 0
M  V30 7453 C 684.498 -1.9423 0.536361 0
M  V30 7454 O 683.554 -2.52499 0.00866571 0
M  V30 7455 C 684.867 -0.969743 2.84634 0
M  V30 7456 C 686.415 -1.0714 2.94092 0
M  V30 7457 C 686.89 -1.34195 4.37899 0
M  V30 7458 N 688.381 -1.41023 4.41211 0
M  V30 7459 C 689.116 -1.63616 5.49561 0
M  V30 7460 N 688.612 -1.83699 6.68002 0
M  V30 7461 N 690.405 -1.65771 5.371 0
M  V30 7462 H 682.556 0.404547 2.08512 0
M  V30 7463 H 684.819 0.11879 0.940528 0
M  V30 7464 H 684.525 -0.152465 3.51369 0
M  V30 7465 H 684.399 -1.88523 3.26709 0
M  V30 7466 H 686.786 -1.87925 2.27526 0
M  V30 7467 H 686.867 -0.133887 2.55449 0
M  V30 7468 H 686.511 -0.539207 5.0503 0
M  V30 7469 H 686.441 -2.29226 4.74092 0
M  V30 7470 H 688.932 -1.27223 3.55841 0
M  V30 7471 H 689.245 -2.00437 7.46354 0
M  V30 7472 H 687.59 -1.8093 6.71036 0
M  V30 7473 H 690.781 -1.4963 4.43541 0
M  V30 7474 H 690.954 -1.83038 6.21612 0
M  V30 7475 N 684.36 -1.4356 -0.65026 0
M  V30 7476 C 685.308 -1.49219 -1.78427 0
M  V30 7477 C 686.302 -0.365528 -1.65409 0
M  V30 7478 O 687.508 -0.539649 -1.7172 0
M  V30 7479 H 683.883 -0.467858 -0.588738 0
M  V30 7480 H 685.854 -2.44701 -1.70774 0
M  V30 7481 C 684.603 -1.43519 -3.16698 0
M  V30 7482 H 683.926 -2.2952 -3.27354 0
M  V30 7483 H 685.366 -1.5154 -3.95995 0
M  V30 7484 C 683.825 -0.153197 -3.36552 0
M  V30 7485 O 684.355 0.784317 -3.93969 0
M  V30 7486 N 682.561 -0.0624402 -2.90533 0
M  V30 7487 H 682.108 -0.826172 -2.43992 0
M  V30 7488 H 682.066 0.794616 -3.04193 0
M  V30 7489 N 685.838 0.888903 -1.30139 0
M  V30 7490 C 686.788 1.9814 -1.12803 0
M  V30 7491 C 687.772 1.60839 -0.0443137 0
M  V30 7492 O 688.964 1.74971 -0.267208 0
M  V30 7493 C 686.093 3.33416 -0.817849 0
M  V30 7494 C 685.179 3.77043 -1.94163 0
M  V30 7495 N 685.57 3.92805 -3.18651 0
M  V30 7496 C 683.868 4.06407 -1.8371 0
M  V30 7497 C 684.569 4.29746 -3.92038 0
M  V30 7498 N 683.545 4.3939 -3.20059 0
M  V30 7499 H 687.347 2.08411 -2.07225 0
M  V30 7500 H 684.861 1.07845 -1.21421 0
M  V30 7501 H 686.858 4.11405 -0.674668 0
M  V30 7502 H 685.518 3.24484 0.118344 0
M  V30 7503 H 686.529 3.78042 -3.53984 0
M  V30 7504 H 683.206 4.05972 -0.974331 0
M  V30 7505 H 684.596 4.49695 -4.99223 0
M  V30 7506 N 687.317 1.12792 1.10072 0
M  V30 7507 C 688.28 0.802264 2.14701 0
M  V30 7508 C 689.28 -0.18515 1.59731 0
M  V30 7509 O 690.47 0.041109 1.74151 0
M  V30 7510 C 687.602 0.19285 3.40354 0
M  V30 7511 H 688.795 1.72932 2.45019 0
M  V30 7512 H 686.348 0.931662 1.25498 0
M  V30 7513 H 687.083 -0.743748 3.15656 0
M  V30 7514 H 686.868 0.903827 3.81541 0
M  V30 7515 H 688.358 -0.0183704 4.17596 0
M  V30 7516 N 688.795 -1.27931 0.920396 0
M  V30 7517 C 690.02 -1.99343 0.572478 0
M  V30 7518 C 690.445 -1.68267 -0.840696 0
M  V30 7519 O 689.803 -0.918805 -1.56294 0
M  V30 7520 C 689.851 -3.51698 0.796284 0
M  V30 7521 O 688.955 -4.12157 -0.141602 0
M  V30 7522 H 688.296 -0.626065 0.221221 0
M  V30 7523 H 690.826 -1.62921 1.23765 0
M  V30 7524 H 690.836 -4.01793 0.708984 0
M  V30 7525 H 689.511 -3.73649 1.82644 0
M  V30 7526 H 688.088 -3.729 -0.005007 0
M  V30 7527 N 690.273 -0.685099 -1.4193 0
M  V30 7528 C 691.52 -0.211658 -2.01391 0
M  V30 7529 C 691.848 1.18526 -1.54214 0
M  V30 7530 O 691.103 1.81189 -0.739519 0
M  V30 7531 C 691.402 -0.206154 -3.56805 0
M  V30 7532 C 691.068 -1.54915 -4.23453 0
M  V30 7533 C 689.73 -1.91684 -4.41373 0
M  V30 7534 C 692.082 -2.43317 -4.60919 0
M  V30 7535 C 689.41 -3.16461 -4.94034 0
M  V30 7536 C 691.762 -3.67415 -5.14965 0
M  V30 7537 C 690.426 -4.04341 -5.31098 0
M  V30 7538 H 689.696 -0.0774511 -0.736941 0
M  V30 7539 H 692.343 -0.882121 -1.69973 0
M  V30 7540 H 690.648 0.547841 -3.87951 0
M  V30 7541 H 692.345 0.17753 -4.00607 0
M  V30 7542 H 688.935 -1.25314 -4.09871 0
M  V30 7543 H 693.119 -2.16192 -4.46738 0
M  V30 7544 H 688.375 -3.45078 -5.04709 0
M  V30 7545 H 692.549 -4.3611 -5.42938 0
M  V30 7546 H 690.176 -5.01101 -5.71666 0
M  V30 7547 N 691.751 1.51645 -0.429126 0
M  V30 7548 C 692.714 2.26116 0.374726 0
M  V30 7549 C 693.714 1.29242 0.956714 0
M  V30 7550 O 694.904 1.53022 0.832452 0
M  V30 7551 C 692.036 3.04669 1.52937 0
M  V30 7552 H 693.229 2.9861 -0.277818 0
M  V30 7553 H 690.782 1.55236 -0.182097 0
M  V30 7554 H 691.517 2.36571 2.21821 0
M  V30 7555 H 691.302 3.75814 1.11833 0
M  V30 7556 H 692.792 3.61102 2.09751 0
M  V30 7557 N 693.229 0.160201 1.56784 0
M  V30 7558 C 694.506 -0.533355 1.88188 0
M  V30 7559 C 694.886 -1.82072 1.06831 0
M  V30 7560 O 694.234 -2.27946 0.158959 0
M  V30 7561 C 694.444 -0.786034 3.40033 0
M  V30 7562 C 695.792 -1.12097 4.09536 0
M  V30 7563 O 696.816 -0.874949 3.45287 0
M  V30 7564 O 695.675 -1.58457 5.23023 0
M  V30 7565 H 692.769 -0.273589 0.780434 0
M  V30 7566 H 695.315 0.197803 1.68543 0
M  V30 7567 H 694.087 0.124515 3.91102 0
M  V30 7568 H 693.71 -1.57091 3.65251 0
M  V30 7569 N 694.707 -1.5719 -0.113559 0
M  V30 7570 C 695.956 -1.84325 -0.818984 0
M  V30 7571 C 696.269 -0.746685 -1.80787 0
M  V30 7572 O 697.475 -0.904596 -2.55987 0
M  V30 7573 C 695.931 -3.26818 -1.50724 0
M  V30 7574 C 695.539 -4.44498 -0.559065 0
M  V30 7575 C 697.283 -3.63196 -2.19748 0
M  V30 7576 C 695.19 -5.7802 -1.25086 0
M  V30 7577 H 694.12 -0.687507 -0.309596 0
M  V30 7578 H 696.771 -1.8336 -0.0717621 0
M  V30 7579 H 695.153 -3.22269 -2.30128 0
M  V30 7580 H 696.327 -4.60356 0.202146 0
M  V30 7581 H 694.642 -4.16393 0.024495 0
M  V30 7582 H 697.239 -4.60226 -2.72206 0
M  V30 7583 H 697.582 -2.90899 -2.97798 0
M  V30 7584 H 698.115 -3.69553 -1.47226 0
M  V30 7585 H 694.854 -6.53501 -0.511539 0
M  V30 7586 H 694.374 -5.66038 -1.98395 0
M  V30 7587 H 696.053 -6.2196 -1.78253 0
M  V30 7588 N 696.185 0.383891 -1.52853 0
M  V30 7589 C 697.601 0.724316 -1.42218 0
M  V30 7590 C 697.801 1.93943 -0.546654 0
M  V30 7591 O 696.857 2.5249 -0.0220562 0
M  V30 7592 C 698.17 0.954635 -2.85144 0
M  V30 7593 C 699.718 1.05579 -2.94656 0
M  V30 7594 C 700.193 1.3187 -4.38605 0
M  V30 7595 N 701.684 1.38681 -4.41952 0
M  V30 7596 C 702.419 1.60699 -5.50421 0
M  V30 7597 N 701.915 1.80154 -6.68967 0
M  V30 7598 N 703.708 1.6292 -5.37972 0
M  V30 7599 H 695.859 -0.4156 -2.08294 0
M  V30 7600 H 698.122 -0.123776 -0.939885 0
M  V30 7601 H 697.828 0.133829 -3.51445 0
M  V30 7602 H 697.702 1.86788 -3.27704 0
M  V30 7603 H 700.089 1.86716 -2.2852 0
M  V30 7604 H 700.17 0.120338 -2.55517 0
M  V30 7605 H 699.814 0.512416 -5.05309 0
M  V30 7606 H 699.744 2.26708 -4.75301 0
M  V30 7607 H 702.235 1.25334 -3.56511 0
M  V30 7608 H 702.548 1.96476 -7.47407 0
M  V30 7609 H 700.893 1.77368 -6.71986 0
M  V30 7610 H 704.084 1.47276 -4.44328 0
M  V30 7611 H 704.257 1.79739 -6.22574 0
M  V30 7612 N 697.663 1.43903 0.642637 0
M  V30 7613 C 698.94 1.36556 1.40043 0
M  V30 7614 C 699.32 0.0185588 2.11092 0
M  V30 7615 O 698.668 -0.998438 2.05532 0
M  V30 7616 C 698.878 2.55596 2.37638 0
M  V30 7617 C 700.226 2.99153 3.01318 0
M  V30 7618 O 701.25 2.55719 2.47965 0
M  V30 7619 O 700.109 3.74427 3.98078 0
M  V30 7620 H 697.203 0.540189 0.626198 0
M  V30 7621 H 699.749 1.55971 0.668657 0
M  V30 7622 H 698.521 3.45256 1.84158 0
M  V30 7623 H 698.144 2.38334 3.18249 0
M  V30 7624 N 699.141 -0.881989 1.30609 0
M  V30 7625 C 700.051 -2.02076 1.19174 0
M  V30 7626 C 701.067 -1.73645 0.11102 0
M  V30 7627 O 702.243 -1.98735 0.326528 0
M  V30 7628 C 699.308 -3.3515 0.887438 0
M  V30 7629 C 698.369 -3.76983 2.05383 0
M  V30 7630 C 697.602 -5.03707 1.76395 0
M  V30 7631 O 697.825 -5.66171 0.693302 0
M  V30 7632 O 696.759 -5.42019 2.61723 0
M  V30 7633 H 700.585 -2.14652 2.14845 0
M  V30 7634 H 698.17 -1.00843 1.10232 0
M  V30 7635 H 700.052 -4.14975 0.73306 0
M  V30 7636 H 698.727 -3.23676 -0.0393354 0
M  V30 7637 H 697.634 -2.97849 2.26355 0
M  V30 7638 H 698.967 -3.93066 2.96243 0
M  V30 7639 N 700.619 -1.13374 -1.09472 0
M  V30 7640 C 701.868 -0.889844 -1.8101 0
M  V30 7641 C 702.181 0.585686 -1.86625 0
M  V30 7642 O 703.387 0.946497 -2.54467 0
M  V30 7643 C 701.843 -1.54241 -3.25174 0
M  V30 7644 C 701.451 -3.05343 -3.27826 0
M  V30 7645 C 703.195 -1.37919 -4.0147 0
M  V30 7646 C 701.102 -3.63486 -4.6651 0
M  V30 7647 H 700.032 -0.329256 -0.678311 0
M  V30 7648 H 702.683 -1.36139 -1.23038 0
M  V30 7649 H 701.065 -0.998525 -3.83204 0
M  V30 7650 H 702.239 -3.66307 -2.79563 0
M  V30 7651 H 700.554 -3.21175 -2.65019 0
M  V30 7652 H 703.151 -1.78771 -5.03929 0
M  V30 7653 H 703.494 -0.323987 -4.15037 0
M  V30 7654 H 704.027 -1.89284 -3.49881 0
M  V30 7655 H 700.766 -4.68811 -4.58145 0
M  V30 7656 H 700.286 -3.073 -5.15099 0
M  V30 7657 H 701.965 -3.63134 -5.35484 0
M  V30 7658 N 702.098 1.27442 -0.927168 0
M  V30 7659 C 703.045 2.26863 -0.424459 0
M  V30 7660 C 704.015 1.5813 0.508346 0
M  V30 7661 O 705.2 1.85946 0.42762 0
M  V30 7662 C 702.34 3.43639 0.31718 0
M  V30 7663 C 701.453 4.27087 -0.649675 0
M  V30 7664 C 700.588 5.31082 0.111753 0
M  V30 7665 C 699.627 6.062 -0.847843 0
M  V30 7666 N 698.764 7.01999 -0.119074 0
M  V30 7667 H 703.604 2.69239 -1.27728 0
M  V30 7668 H 701.141 1.32394 -0.641106 0
M  V30 7669 H 703.099 4.10155 0.763486 0
M  V30 7670 H 701.729 3.02217 1.13424 0
M  V30 7671 H 700.781 3.60491 -1.21451 0
M  V30 7672 H 702.093 4.79242 -1.38307 0
M  V30 7673 H 701.247 6.03544 0.618 0
M  V30 7674 H 699.986 4.7973 0.878114 0
M  V30 7675 H 698.991 5.32577 -1.36534 0
M  V30 7676 H 700.216 6.59642 -1.61398 0
M  V30 7677 H 698.162 6.52977 0.629051 0
M  V30 7678 H 698.079 7.5184 -0.792046 0
M  V30 7679 H 699.347 7.78638 0.366537 0
M  V30 7680 N 703.576 0.692616 1.41565 0
M  V30 7681 C 704.853 0.150496 1.9502 0
M  V30 7682 C 705.233 -1.33881 1.63215 0
M  V30 7683 O 704.581 -2.08378 0.937598 0
M  V30 7684 C 704.791 0.438636 3.46233 0
M  V30 7685 C 706.139 0.364777 4.2303 0
M  V30 7686 O 707.163 0.373383 3.54238 0
M  V30 7687 O 706.022 0.32234 5.45549 0
M  V30 7688 H 703.116 0.0132454 0.826894 0
M  V30 7689 H 705.662 0.768574 1.51298 0
M  V30 7690 H 704.434 1.46962 3.62654 0
M  V30 7691 H 704.057 -0.210562 3.97042 0
M  V30 7692 N 705.054 -1.51416 0.437162 0
M  V30 7693 C 705.964 -2.31493 -0.380537 0
M  V30 7694 C 706.98 -1.40399 -1.02782 0
M  V30 7695 O 708.156 -1.73471 -1.02323 0
M  V30 7696 C 705.221 -3.1413 -1.46709 0
M  V30 7697 C 704.282 -4.21003 -0.839953 0
M  V30 7698 C 703.515 -4.9969 -1.87473 0
M  V30 7699 O 703.738 -4.79008 -3.09689 0
M  V30 7700 O 702.672 -5.8379 -1.46536 0
M  V30 7701 H 706.498 -3.02469 0.273183 0
M  V30 7702 H 704.083 -1.48059 0.199706 0
M  V30 7703 H 705.965 -3.65505 -2.09724 0
M  V30 7704 H 704.64 -2.45919 -2.10489 0
M  V30 7705 H 703.547 -3.73706 -0.171752 0
M  V30 7706 H 704.88 -4.91587 -0.245638 0
M  V30 7707 N 706.532 -0.168513 -1.56696 0
M  V30 7708 C 707.48 0.779791 -2.19139 0
M  V30 7709 C 708.474 1.23957 -1.1546 0
M  V30 7710 O 709.68 1.20555 -1.33666 0
M  V30 7711 H 706.055 0.269739 -0.701958 0
M  V30 7712 H 708.026 0.229156 -2.97519 0
M  V30 7713 C 706.775 2.00003 -2.84419 0
M  V30 7714 H 706.098 1.65527 -3.63924 0
M  V30 7715 H 707.538 2.64251 -3.31583 0
M  V30 7716 C 705.997 2.82187 -1.84044 0
M  V30 7717 O 706.527 3.79247 -1.32418 0
M  V30 7718 N 704.733 2.47145 -1.52864 0
M  V30 7719 H 704.28 1.68277 -1.9504 0
M  V30 7720 H 704.238 3.02422 -0.859569 0
M  V30 7721 N 708.01 1.57248 0.105221 0
M  V30 7722 C 708.94 2.04374 1.12931 0
M  V30 7723 C 709.921 0.93074 1.42377 0
M  V30 7724 O 711.106 1.20136 1.52581 0
M  V30 7725 C 708.236 2.45967 2.45189 0
M  V30 7726 C 707.19 3.60838 2.30174 0
M  V30 7727 C 706.516 3.88374 3.67518 0
M  V30 7728 C 707.816 4.92084 1.75073 0
M  V30 7729 H 709.51 2.9018 0.737287 0
M  V30 7730 H 707.056 1.39601 0.353211 0
M  V30 7731 H 709.009 2.77542 3.17094 0
M  V30 7732 H 707.733 1.57148 2.86308 0
M  V30 7733 H 706.392 3.29493 1.60716 0
M  V30 7734 H 706.04 2.96739 4.06147 0
M  V30 7735 H 705.74 4.65703 3.58321 0
M  V30 7736 H 707.264 4.22415 4.40906 0
M  V30 7737 H 708.678 5.22106 2.36809 0
M  V30 7738 H 707.075 5.73507 1.76662 0
M  V30 7739 H 708.145 4.79684 0.709347 0
M  V30 7740 N 709.488 -0.375779 1.53054 0
M  V30 7741 C 710.735 -1.11948 1.68742 0
M  V30 7742 C 711.063 -1.89596 0.434015 0
M  V30 7743 O 710.318 -1.86787 -0.583867 0
M  V30 7744 C 710.617 -2.11356 2.88207 0
M  V30 7745 C 710.283 -1.50266 4.25124 0
M  V30 7746 C 708.945 -1.33333 4.62359 0
M  V30 7747 C 711.297 -1.05976 5.10312 0
M  V30 7748 C 708.625 -0.706765 5.82427 0
M  V30 7749 C 710.977 -0.447241 6.31017 0
M  V30 7750 C 709.641 -0.265314 6.66973 0
M  V30 7751 H 708.911 -0.409648 0.61747 0
M  V30 7752 H 711.558 -0.402492 1.87222 0
M  V30 7753 H 709.863 -2.89322 2.64197 0
M  V30 7754 H 711.56 -2.68833 2.97539 0
M  V30 7755 H 708.15 -1.64437 3.95801 0
M  V30 7756 H 712.334 -1.17855 4.82104 0
M  V30 7757 H 707.59 -0.554132 6.08884 0
M  V30 7758 H 711.764 -0.0958064 6.96334 0
M  V30 7759 H 709.391 0.222267 7.59875 0
M  V30 7760 N 710.966 -1.44241 -0.634997 0
M  V30 7761 C 712.243 -1.37296 -1.39317 0
M  V30 7762 C 712.623 -0.0297532 -2.11079 0
M  V30 7763 O 711.971 0.987524 -2.06059 0
M  V30 7764 C 712.181 -2.56853 -2.36279 0
M  V30 7765 C 713.529 -3.00747 -2.99728 0
M  V30 7766 O 714.553 -2.5703 -2.46605 0
M  V30 7767 O 713.412 -3.76533 -3.96087 0
M  V30 7768 H 710.506 -0.543503 -0.623325 0
M  V30 7769 H 713.052 -1.56324 -0.660376 0
M  V30 7770 H 711.824 -3.46228 -1.82324 0
M  V30 7771 H 711.447 -2.40019 -3.16981 0
M  V30 7772 N 712.444 0.87505 -1.31075 0
M  V30 7773 C 713.407 1.96333 -1.18263 0
M  V30 7774 C 714.407 1.60416 -0.111106 0
M  V30 7775 O 715.597 1.7044 -0.359987 0
M  V30 7776 C 712.729 3.31036 -0.81414 0
M  V30 7777 H 713.922 2.09125 -2.14958 0
M  V30 7778 H 711.475 1.06271 -1.14614 0
M  V30 7779 H 712.21 3.23944 0.151875 0
M  V30 7780 H 711.995 3.58476 -1.58862 0
M  V30 7781 H 713.485 4.10842 -0.748249 0
M  V30 7782 N 713.922 1.13953 1.08869 0
M  V30 7783 C 715.168 0.906151 1.8143 0
M  V30 7784 C 715.501 -0.566089 1.85766 0
M  V30 7785 O 714.776 -1.41915 1.33006 0
M  V30 7786 C 715.059 1.50183 3.27287 0
M  V30 7787 C 714.912 3.04359 3.31189 0
M  V30 7788 C 716.231 1.17477 4.24131 0
M  V30 7789 H 713.35 0.330624 0.658678 0
M  V30 7790 H 715.992 1.40873 1.27495 0
M  V30 7791 H 714.142 1.07442 3.73348 0
M  V30 7792 H 715.814 3.55896 2.93488 0
M  V30 7793 H 714.057 3.39053 2.70602 0
M  V30 7794 H 714.728 3.41141 4.33966 0
M  V30 7795 H 717.204 1.5442 3.86385 0
M  V30 7796 H 716.08 1.61795 5.24513 0
M  V30 7797 H 716.341 0.0893312 4.4201 0
M  V30 7798 N 715.4 -1.26948 0.933913 0
M  V30 7799 C 716.31 -2.30366 0.443671 0
M  V30 7800 C 717.326 -1.67284 -0.478745 0
M  V30 7801 O 718.502 -1.98156 -0.360043 0
M  V30 7802 C 715.567 -3.45485 -0.289974 0
M  V30 7803 C 714.628 -4.24069 0.668114 0
M  V30 7804 C 713.861 -5.33691 -0.0306138 0
M  V30 7805 O 714.084 -5.5656 -1.24888 0
M  V30 7806 O 713.018 -5.98441 0.644384 0
M  V30 7807 H 716.844 -2.74349 1.30254 0
M  V30 7808 H 714.429 -1.32012 0.699506 0
M  V30 7809 H 716.311 -4.15486 -0.70353 0
M  V30 7810 H 714.986 -3.03546 -1.12435 0
M  V30 7811 H 713.893 -3.56579 1.13147 0
M  V30 7812 H 715.226 -4.69739 1.46989 0
M  V30 7813 N 716.879 -0.700114 -1.41195 0
M  V30 7814 C 718.125 -0.233351 -2.01453 0
M  V30 7815 C 718.458 1.16548 -1.55339 0
M  V30 7816 O 717.733 1.78756 -0.766575 0
M  V30 7817 C 718.016 -0.2961 -3.58881 0
M  V30 7818 C 717.869 -1.7322 -4.15108 0
M  V30 7819 C 719.188 0.341525 -4.38773 0
M  V30 7820 H 716.307 -0.0862667 -0.731934 0
M  V30 7821 H 718.949 -0.889693 -1.67882 0
M  V30 7822 H 717.099 0.262736 -3.87611 0
M  V30 7823 H 718.771 -2.34523 -3.97236 0
M  V30 7824 H 717.014 -2.2649 -3.69979 0
M  V30 7825 H 717.685 -1.7276 -5.24269 0
M  V30 7826 H 720.161 -0.134461 -4.15883 0
M  V30 7827 H 719.037 0.267098 -5.4825 0
M  V30 7828 H 719.298 1.42289 -4.18577 0
M  V30 7829 N 718.357 1.51182 -0.445186 0
M  V30 7830 C 719.287 2.30821 0.352686 0
M  V30 7831 C 720.268 1.36576 1.01395 0
M  V30 7832 O 721.453 1.65497 1.01609 0
M  V30 7833 C 718.583 3.15593 1.44976 0
M  V30 7834 C 717.537 4.1818 0.911553 0
M  V30 7835 C 716.863 4.91523 2.10497 0
M  V30 7836 C 718.163 5.22266 -0.059418 0
M  V30 7837 H 719.857 2.97771 -0.311936 0
M  V30 7838 H 717.403 1.43201 -0.151461 0
M  V30 7839 H 719.356 3.70091 2.01521 0
M  V30 7840 H 718.08 2.4648 2.14278 0
M  V30 7841 H 716.739 3.64746 0.368264 0
M  V30 7842 H 716.387 4.18906 2.78437 0
M  V30 7843 H 716.087 5.60898 1.7512 0
M  V30 7844 H 717.611 5.48847 2.6758 0
M  V30 7845 H 719.025 5.71789 0.415985 0
M  V30 7846 H 717.422 5.99213 -0.326152 0
M  V30 7847 H 718.492 4.7461 -0.993631 0
M  V30 7848 N 719.835 0.176821 1.56605 0
M  V30 7849 C 720.765 -0.746841 2.21234 0
M  V30 7850 C 721.746 -1.23502 1.16967 0
M  V30 7851 O 722.931 -1.28718 1.45414 0
M  V30 7852 C 720.061 -1.97407 2.8574 0
M  V30 7853 C 719.015 -1.62153 3.96094 0
M  V30 7854 C 718.341 -2.92387 4.47676 0
M  V30 7855 C 719.641 -0.845353 5.15413 0
M  V30 7856 H 721.335 -0.208116 2.98676 0
M  V30 7857 H 718.881 -0.0986594 1.43662 0
M  V30 7858 H 720.834 -2.62531 3.2963 0
M  V30 7859 H 719.558 -2.53703 2.05676 0
M  V30 7860 H 718.217 -0.993964 3.52868 0
M  V30 7861 H 717.865 -3.46734 3.64396 0
M  V30 7862 H 717.565 -2.69551 5.22127 0
M  V30 7863 H 719.089 -3.5853 4.94255 0
M  V30 7864 H 720.503 -1.39929 5.55961 0
M  V30 7865 H 718.9 -0.715814 5.95815 0
M  V30 7866 H 719.97 0.157239 4.84645 0
M  V30 7867 N 721.313 -1.57302 -0.09688 0
M  V30 7868 C 722.245 -1.98618 -1.14384 0
M  V30 7869 C 723.258 -0.888483 -1.36418 0
M  V30 7870 O 724.447 -1.16661 -1.35101 0
M  V30 7871 C 721.547 -2.28838 -2.49973 0
M  V30 7872 C 720.72 -3.60132 -2.48241 0
M  V30 7873 C 719.779 -3.7831 -3.65743 0
M  V30 7874 O 718.805 -4.50183 -3.48316 0
M  V30 7875 N 720.007 -3.18752 -4.85157 0
M  V30 7876 H 722.772 -2.8904 -0.792202 0
M  V30 7877 H 720.333 -1.59356 -0.285883 0
M  V30 7878 H 722.325 -2.38193 -3.27179 0
M  V30 7879 H 720.895 -1.44431 -2.77233 0
M  V30 7880 H 720.115 -3.61763 -1.56593 0
M  V30 7881 H 721.403 -4.46389 -2.4416 0
M  V30 7882 H 720.801 -2.60368 -5.0222 0
M  V30 7883 H 719.358 -3.33595 -5.59962 0
M  V30 7884 N 722.791 0.367657 -1.53252 0
M  V30 7885 C 724.04 1.10782 -1.68554 0
M  V30 7886 C 724.353 1.90523 -0.442765 0
M  V30 7887 O 725.559 2.6729 -0.47629 0
M  V30 7888 C 724.015 2.01863 -2.97959 0
M  V30 7889 C 723.623 1.27443 -4.29491 0
M  V30 7890 C 725.367 2.75883 -3.22628 0
M  V30 7891 C 723.274 2.17414 -5.49987 0
M  V30 7892 H 722.204 0.417272 -0.628013 0
M  V30 7893 H 724.855 0.368971 -1.79752 0
M  V30 7894 H 723.237 2.7947 -2.80558 0
M  V30 7895 H 724.411 0.549138 -4.57516 0
M  V30 7896 H 722.726 0.652935 -4.11249 0
M  V30 7897 H 725.323 3.43421 -4.09837 0
M  V30 7898 H 725.666 3.41138 -2.38601 0
M  V30 7899 H 726.199 2.0536 -3.40693 0
M  V30 7900 H 722.938 1.5674 -6.36485 0
M  V30 7901 H 722.458 2.87799 -5.26243 0
M  V30 7902 H 724.137 2.77019 -5.84696 0
M  V30 7903 N 724.269 1.44576 0.627338 0
M  V30 7904 C 725.201 1.47724 1.75243 0
M  V30 7905 C 726.214 0.370193 1.58535 0
M  V30 7906 O 727.403 0.636151 1.66779 0
M  V30 7907 C 724.503 1.2991 3.13012 0
M  V30 7908 C 723.676 2.5393 3.56143 0
M  V30 7909 C 722.735 2.30961 4.72804 0
M  V30 7910 O 721.761 3.04469 4.80923 0
M  V30 7911 N 722.963 1.34261 5.6476 0
M  V30 7912 H 725.728 2.44718 1.73012 0
M  V30 7913 H 723.289 1.40064 0.812022 0
M  V30 7914 H 725.281 1.12385 3.88782 0
M  V30 7915 H 723.851 0.412668 3.09864 0
M  V30 7916 H 723.071 2.86707 2.70542 0
M  V30 7917 H 724.359 3.36411 3.81713 0
M  V30 7918 H 723.757 0.735573 5.60897 0
M  V30 7919 H 722.314 1.22713 6.40144 0
M  V30 7920 N 725.747 -0.868086 1.31537 0
M  V30 7921 C 726.695 -1.99688 1.1928 0
M  V30 7922 C 727.689 -1.69101 0.100656 0
M  V30 7923 O 728.895 -1.78073 0.262677 0
M  V30 7924 H 725.27 -0.655032 0.369374 0
M  V30 7925 H 727.241 -2.07157 2.14776 0
M  V30 7926 C 725.99 -3.35338 0.918892 0
M  V30 7927 H 725.313 -3.59396 1.75142 0
M  V30 7928 H 726.753 -4.14909 0.873311 0
M  V30 7929 C 725.212 -3.34769 -0.378366 0
M  V30 7930 O 725.742 -3.76716 -1.39456 0
M  V30 7931 N 723.948 -2.87895 -0.39557 0
M  V30 7932 H 723.495 -2.53954 0.431889 0
M  V30 7933 H 723.453 -2.87897 -1.26344 0
M  V30 7934 N 727.225 -1.14528 -1.08264 0
M  V30 7935 C 728.471 -0.91576 -1.80947 0
M  V30 7936 C 728.804 0.55623 -1.86064 0
M  V30 7937 O 728.079 1.41207 -1.33756 0
M  V30 7938 C 728.362 -1.51917 -3.26486 0
M  V30 7939 C 728.215 -3.06111 -3.2957 0
M  V30 7940 C 729.534 -1.19724 -4.23502 0
M  V30 7941 H 726.653 -0.334113 -0.656915 0
M  V30 7942 H 729.295 -1.41547 -1.26746 0
M  V30 7943 H 727.445 -1.0942 -3.72773 0
M  V30 7944 H 729.117 -3.57448 -2.91597 0
M  V30 7945 H 727.36 -3.40483 -2.688 0
M  V30 7946 H 728.031 -3.43438 -4.32151 0
M  V30 7947 H 730.507 -1.56467 -3.85561 0
M  V30 7948 H 729.383 -1.64575 -5.23647 0
M  V30 7949 H 729.644 -0.112771 -4.41956 0
M  V30 7950 N 728.703 1.26451 -0.940633 0
M  V30 7951 C 729.951 1.93395 -0.586748 0
M  V30 7952 C 730.272 1.7417 0.876921 0
M  V30 7953 O 729.542 1.097 1.62304 0
M  V30 7954 H 728.122 0.715687 -0.214012 0
M  V30 7955 H 730.784 1.53902 -1.19584 0
M  V30 7956 H 729.88 3.01565 -0.804059 0
M  V30 7957 N 730.181 0.707592 1.40822 0
M  V30 7958 C 731.091 0.0507246 2.34545 0
M  V30 7959 C 732.107 -0.752727 1.56876 0
M  V30 7960 O 733.283 -0.687524 1.89302 0
M  V30 7961 C 730.348 -0.865731 3.35717 0
M  V30 7962 C 729.409 -0.0531313 4.29267 0
M  V30 7963 C 728.642 -0.925939 5.25606 0
M  V30 7964 O 728.865 -2.16531 5.27703 0
M  V30 7965 O 727.799 -0.369194 6.00767 0
M  V30 7966 H 731.625 0.823587 2.9232 0
M  V30 7967 H 729.21 0.46801 1.4188 0
M  V30 7968 H 731.092 -1.39091 3.97783 0
M  V30 7969 H 729.767 -1.61788 2.80368 0
M  V30 7970 H 728.674 0.516931 3.70511 0
M  V30 7971 H 730.007 0.660617 4.87747 0
M  V30 7972 N 731.66 -1.50943 0.453197 0
M  V30 7973 C 732.906 -2.03153 -0.100277 0
M  V30 7974 C 733.261 -1.33032 -1.38997 0
M  V30 7975 O 732.554 -0.441423 -1.86446 0
M  V30 7976 C 732.748 -3.55603 -0.357944 0
M  V30 7977 C 732.577 -4.40495 0.905223 0
M  V30 7978 C 731.347 -4.84247 1.44337 0
M  V30 7979 C 733.545 -4.81931 1.79575 0
M  V30 7980 N 731.527 -5.53403 2.65742 0
M  V30 7981 C 732.898 -5.50314 2.85577 0
M  V30 7982 C 734.953 -4.63903 1.80828 0
M  V30 7983 C 733.656 -6.02581 3.92797 0
M  V30 7984 C 735.682 -5.17097 2.86993 0
M  V30 7985 C 735.044 -5.8544 3.91713 0
M  V30 7986 H 731.143 -0.781995 0.00287755 0
M  V30 7987 H 733.727 -1.84651 0.617411 0
M  V30 7988 H 731.898 -3.74087 -1.04467 0
M  V30 7989 H 733.63 -3.9447 -0.904175 0
M  V30 7990 H 730.385 -4.63029 0.995045 0
M  V30 7991 H 730.809 -5.92598 3.27348 0
M  V30 7992 H 735.451 -4.10512 1.0119 0
M  V30 7993 H 733.169 -6.55018 4.73262 0
M  V30 7994 H 736.755 -5.0499 2.88923 0
M  V30 7995 H 735.635 -6.25861 4.72512 0
M  V30 7996 N 733.138 -0.185124 -1.56509 0
M  V30 7997 C 734.048 0.751908 -2.22224 0
M  V30 7998 C 735.064 1.24244 -1.21817 0
M  V30 7999 O 736.24 1.29169 -1.54523 0
M  V30 8000 C 733.305 1.95837 -2.86092 0
M  V30 8001 C 732.366 1.51337 -4.01741 0
M  V30 8002 C 731.599 2.66233 -4.62554 0
M  V30 8003 O 731.822 3.8346 -4.22273 0
M  V30 8004 O 730.756 2.39517 -5.52191 0
M  V30 8005 H 734.582 0.222304 -3.02885 0
M  V30 8006 H 732.167 0.0437141 -1.49336 0
M  V30 8007 H 734.049 2.66368 -3.26536 0
M  V30 8008 H 732.724 2.47677 -2.08417 0
M  V30 8009 H 731.631 0.777155 -3.65939 0
M  V30 8010 H 732.964 1.04175 -4.81049 0
M  V30 8011 N 734.616 1.57351 0.0885366 0
M  V30 8012 C 735.846 1.90355 0.80303 0
M  V30 8013 C 736.254 0.777678 1.72478 0
M  V30 8014 O 735.597 -0.258908 1.81866 0
M  V30 8015 C 735.659 3.18674 1.66395 0
M  V30 8016 C 735.323 4.4778 0.913327 0
M  V30 8017 C 736.32 5.19345 0.240148 0
M  V30 8018 C 734.005 4.94434 0.885462 0
M  V30 8019 C 735.999 6.35803 -0.450854 0
M  V30 8020 C 733.686 6.10802 0.190679 0
M  V30 8021 C 734.684 6.81337 -0.476295 0
M  V30 8022 O 734.372 7.95488 -1.15992 0
M  V30 8023 H 734.104 0.634035 0.234469 0
M  V30 8024 H 736.658 2.05287 0.0681959 0
M  V30 8025 H 734.888 2.99906 2.44117 0
M  V30 8026 H 736.577 3.37458 2.2556 0
M  V30 8027 H 737.343 4.84339 0.253092 0
M  V30 8028 H 733.222 4.39417 1.39406 0
M  V30 8029 H 736.766 6.90795 -0.972019 0
M  V30 8030 H 732.663 6.45261 0.175603 0
M  V30 8031 H 733.431 8.11509 -1.06749 0
M  V30 8032 N 736.094 -0.359525 1.53444 0
M  V30 8033 C 737.342 -1.09935 1.69584 0
M  V30 8034 C 737.663 -1.89656 0.453371 0
M  V30 8035 O 736.933 -1.8852 -0.53263 0
M  V30 8036 H 735.513 -0.408843 0.625185 0
M  V30 8037 H 738.175 -0.40467 1.90653 0
M  V30 8038 H 737.271 -1.78575 2.55964 0
M  V30 8039 N 737.572 -1.44907 -0.619662 0
M  V30 8040 C 738.797 -1.52021 -1.41083 0
M  V30 8041 C 739.222 -0.14976 -1.87503 0
M  V30 8042 O 738.58 0.863303 -1.59426 0
M  V30 8043 C 738.628 -2.49911 -2.59955 0
M  V30 8044 O 737.732 -2.00857 -3.60181 0
M  V30 8045 H 737.073 -0.512912 -0.421684 0
M  V30 8046 H 739.603 -1.90149 -0.755282 0
M  V30 8047 H 739.613 -2.68323 -3.07354 0
M  V30 8048 H 738.288 -3.4945 -2.25516 0
M  V30 8049 H 736.865 -1.92265 -3.19513 0
M  V30 8050 N 739.05 0.861098 -1.31996 0
M  V30 8051 C 740.297 1.61481 -1.22188 0
M  V30 8052 C 740.625 1.93276 0.217853 0
M  V30 8053 O 739.88 1.56942 1.16909 0
M  V30 8054 C 740.179 2.94822 -2.02027 0
M  V30 8055 C 739.845 2.82483 -3.51446 0
M  V30 8056 C 738.507 2.78825 -3.92186 0
M  V30 8057 C 740.859 2.68878 -4.46491 0
M  V30 8058 C 738.187 2.59433 -5.26224 0
M  V30 8059 C 740.539 2.51022 -5.80664 0
M  V30 8060 C 739.203 2.45753 -6.20614 0
M  V30 8061 H 738.473 0.590902 -0.447119 0
M  V30 8062 H 741.12 0.999376 -1.63355 0
M  V30 8063 H 739.425 3.6045 -1.53569 0
M  V30 8064 H 741.122 3.52149 -1.91812 0
M  V30 8065 H 737.712 2.86152 -3.19085 0
M  V30 8066 H 741.896 2.70754 -4.1594 0
M  V30 8067 H 737.152 2.53784 -5.5624 0
M  V30 8068 H 741.326 2.39473 -6.53931 0
M  V30 8069 H 738.953 2.30485 -7.24417 0
M  V30 8070 N 740.528 1.15101 1.07655 0
M  V30 8071 C 741.753 0.948177 1.84457 0
M  V30 8072 C 742.178 -0.498432 1.81376 0
M  V30 8073 O 741.536 -1.35509 1.20445 0
M  V30 8074 C 741.584 1.46318 3.29581 0
M  V30 8075 O 740.688 0.660342 4.07079 0
M  V30 8076 H 740.029 0.338428 0.571281 0
M  V30 8077 H 742.559 1.5301 1.35828 0
M  V30 8078 H 742.569 1.47468 3.80417 0
M  V30 8079 H 741.244 2.51635 3.31138 0
M  V30 8080 H 739.821 0.718216 3.65918 0
M  V30 8081 N 742.006 -1.2595 0.947325 0
M  V30 8082 C 743.234 -1.97544 0.615127 0
M  V30 8083 C 743.649 -1.70484 -0.811221 0
M  V30 8084 O 743.006 -0.97662 -1.5417 0
M  V30 8085 C 743.057 -3.51236 0.855328 0
M  V30 8086 O 742.778 -3.77359 2.22558 0
M  V30 8087 C 744.279 -4.40066 0.534515 0
M  V30 8088 H 741.499 -0.629888 0.231263 0
M  V30 8089 H 744.043 -1.60308 1.26971 0
M  V30 8090 H 742.198 -3.8661 0.247266 0
M  V30 8091 H 742.612 -4.71857 2.29022 0
M  V30 8092 H 744.086 -5.46838 0.753168 0
M  V30 8093 H 744.563 -4.35982 -0.530701 0
M  V30 8094 H 745.169 -4.10245 1.12158 0
M  V30 8095 N 743.484 -0.715051 -1.40445 0
M  V30 8096 C 744.714 -0.263576 -2.04912 0
M  V30 8097 C 745.122 1.09943 -1.53978 0
M  V30 8098 O 744.465 1.70203 -0.691133 0
M  V30 8099 C 744.527 -0.165048 -3.59121 0
M  V30 8100 C 744.191 -1.46325 -4.32941 0
M  V30 8101 C 745.188 -2.40506 -4.60926 0
M  V30 8102 C 742.873 -1.72203 -4.7186 0
M  V30 8103 C 744.867 -3.58812 -5.26814 0
M  V30 8104 C 742.554 -2.9079 -5.3748 0
M  V30 8105 C 743.552 -3.83917 -5.64887 0
M  V30 8106 O 743.24 -5.00424 -6.29151 0
M  V30 8107 H 742.972 -0.116317 -0.665918 0
M  V30 8108 H 745.526 -0.973774 -1.8085 0
M  V30 8109 H 743.756 0.601088 -3.82 0
M  V30 8110 H 745.445 0.251794 -4.05118 0
M  V30 8111 H 746.211 -2.21778 -4.31323 0
M  V30 8112 H 742.09 -1.00571 -4.49896 0
M  V30 8113 H 745.634 -4.31517 -5.48123 0
M  V30 8114 H 741.531 -3.09428 -5.66502 0
M  V30 8115 H 742.299 -5.00494 -6.47648 0
M  V30 8116 N 744.962 1.50701 -0.461195 0
M  V30 8117 C 745.872 2.32069 0.343661 0
M  V30 8118 C 746.888 1.42016 1.00535 0
M  V30 8119 O 748.064 1.75077 0.995498 0
M  V30 8120 C 745.129 3.16424 1.41692 0
M  V30 8121 C 744.19 4.22286 0.772869 0
M  V30 8122 C 743.423 5.02609 1.79499 0
M  V30 8123 O 743.646 4.83874 3.0203 0
M  V30 8124 O 742.58 5.86047 1.3723 0
M  V30 8125 H 746.406 3.01996 -0.321268 0
M  V30 8126 H 743.991 1.47723 -0.223235 0
M  V30 8127 H 745.873 3.68795 2.03883 0
M  V30 8128 H 744.548 2.49236 2.0655 0
M  V30 8129 H 743.455 3.73931 0.112277 0
M  V30 8130 H 744.788 4.91915 0.167399 0
M  V30 8131 N 746.441 0.193421 1.56409 0
M  V30 8132 C 747.689 -0.444908 1.97142 0
M  V30 8133 C 748.01 -1.62268 1.08139 0
M  V30 8134 O 747.28 -1.95307 0.152326 0
M  V30 8135 H 745.86 -0.16736 0.728011 0
M  V30 8136 H 748.522 0.279763 1.92882 0
M  V30 8137 H 747.618 -0.790159 3.01932 0
M  V30 8138 N 747.919 -1.57396 -0.0801906 0
M  V30 8139 C 749.168 -1.8602 -0.779702 0
M  V30 8140 C 749.481 -0.784864 -1.79163 0
M  V30 8141 O 750.687 -0.958691 -2.54011 0
M  V30 8142 C 749.143 -3.29942 -1.43758 0
M  V30 8143 C 748.751 -4.45584 -0.464654 0
M  V30 8144 C 750.495 -3.67775 -2.11995 0
M  V30 8145 C 748.402 -5.80544 -1.12797 0
M  V30 8146 H 747.332 -0.69392 -0.294943 0
M  V30 8147 H 749.983 -1.83471 -0.0328527 0
M  V30 8148 H 748.365 -3.27078 -2.2324 0
M  V30 8149 H 749.539 -4.59824 0.299749 0
M  V30 8150 H 747.854 -4.16247 0.112813 0
M  V30 8151 H 750.451 -4.65896 -2.62383 0
M  V30 8152 H 750.794 -2.9715 -2.91561 0
M  V30 8153 H 751.327 -3.72593 -1.39354 0
M  V30 8154 H 748.066 -6.54439 -0.372807 0
M  V30 8155 H 747.586 -5.70119 -1.86344 0
M  V30 8156 H 749.265 -6.25602 -1.6502 0
M  V30 8157 N 749.397 0.351382 -1.53633 0
M  V30 8158 C 750.344 1.43115 -1.81071 0
M  V30 8159 C 751.314 1.52601 -0.655913 0
M  V30 8160 O 752.499 1.68264 -0.89955 0
M  V30 8161 C 749.639 2.79874 -2.01903 0
M  V30 8162 C 748.752 2.79242 -3.29618 0
M  V30 8163 C 747.887 4.07667 -3.40559 0
M  V30 8164 C 746.926 4.01233 -4.62254 0
M  V30 8165 N 746.063 5.21334 -4.70271 0
M  V30 8166 H 750.903 1.19017 -2.73201 0
M  V30 8167 H 748.44 0.576691 -1.35324 0
M  V30 8168 H 750.398 3.5934 -2.11969 0
M  V30 8169 H 749.028 3.0234 -1.13094 0
M  V30 8170 H 748.08 1.91927 -3.28433 0
M  V30 8171 H 749.392 2.70363 -4.19172 0
M  V30 8172 H 748.546 4.95555 -3.50015 0
M  V30 8173 H 747.285 4.19317 -2.49047 0
M  V30 8174 H 746.29 3.11732 -4.52884 0
M  V30 8175 H 747.515 3.91173 -5.55122 0
M  V30 8176 H 745.461 5.33543 -3.81665 0
M  V30 8177 H 745.378 5.14681 -5.5375 0
M  V30 8178 H 746.646 6.11014 -4.84027 0
M  V30 8179 N 750.875 1.45233 0.611969 0
M  V30 8180 C 751.838 1.53189 1.70487 0
M  V30 8181 C 752.838 0.411839 1.55437 0
M  V30 8182 O 754.028 0.675164 1.60584 0
M  V30 8183 C 751.16 1.42422 3.09723 0
M  V30 8184 H 752.353 2.5056 1.64802 0
M  V30 8185 H 749.906 1.32609 0.827318 0
M  V30 8186 H 750.641 0.462185 3.2099 0
M  V30 8187 H 750.426 2.23658 3.22055 0
M  V30 8188 H 751.916 1.51012 3.89339 0
M  V30 8189 N 752.353 -0.854086 1.3245 0
M  V30 8190 C 753.764 -1.42427 1.20712 0
M  V30 8191 C 754.115 -1.95371 -0.18013 0
M  V30 8192 O 753.24 -1.87587 -1.07889 0
M  V30 8193 C 753.835 -2.58897 2.18536 0
M  V30 8194 C 752.394 -3.11913 2.10683 0
M  V30 8195 C 751.541 -1.84661 2.06871 0
M  V30 8196 H 754.492 -0.661192 1.4427 0
M  V30 8197 H 754.513 -3.36074 1.78422 0
M  V30 8198 H 754.025 -2.20333 3.19492 0
M  V30 8199 H 752.126 -3.55059 1.12977 0
M  V30 8200 H 752.239 -3.73119 3.00532 0
M  V30 8201 H 750.603 -2.04285 1.52118 0
M  V30 8202 H 751.386 -1.48314 3.09609 0
M  V30 8203 N 753.831 -1.1567 -1.07043 0
M  V30 8204 C 754.761 -0.879348 -2.16309 0
M  V30 8205 C 755.742 0.171311 -1.69235 0
M  V30 8206 O 756.927 0.0250175 -1.94184 0
M  V30 8207 C 754.057 -0.371307 -3.45309 0
M  V30 8208 C 753.011 -1.359 -4.05851 0
M  V30 8209 C 752.337 -0.709678 -5.29969 0
M  V30 8210 C 753.637 -2.72606 -4.45514 0
M  V30 8211 H 755.331 -1.79308 -2.39768 0
M  V30 8212 H 752.877 -0.863558 -1.15233 0
M  V30 8213 H 754.83 -0.164798 -4.21078 0
M  V30 8214 H 753.554 0.577906 -3.21446 0
M  V30 8215 H 752.213 -1.55193 -3.32131 0
M  V30 8216 H 751.861 0.245782 -5.02399 0
M  V30 8217 H 751.561 -1.36886 -5.71433 0
M  V30 8218 H 753.085 -0.513015 -6.08441 0
M  V30 8219 H 754.499 -2.57141 -5.12398 0
M  V30 8220 H 752.896 -3.34927 -4.97939 0
M  V30 8221 H 753.966 -3.28434 -3.56734 0
M  V30 8222 N 755.309 1.25446 -0.953992 0
M  V30 8223 C 756.239 2.28264 -0.491717 0
M  V30 8224 C 757.22 1.63717 0.461617 0
M  V30 8225 O 758.405 1.90821 0.36071 0
M  V30 8226 C 755.535 3.46525 0.231915 0
M  V30 8227 C 754.489 4.23247 -0.636098 0
M  V30 8228 C 753.815 5.34254 0.218238 0
M  V30 8229 C 755.115 4.85971 -1.91389 0
M  V30 8230 H 756.809 2.67183 -1.35106 0
M  V30 8231 H 754.355 1.2844 -0.651095 0
M  V30 8232 H 756.308 4.17576 0.566439 0
M  V30 8233 H 755.032 3.06594 1.12551 0
M  V30 8234 H 753.691 3.53978 -0.953696 0
M  V30 8235 H 753.339 4.90564 1.11156 0
M  V30 8236 H 753.039 5.86501 -0.359232 0
M  V30 8237 H 754.563 6.08138 0.547743 0
M  V30 8238 H 755.977 5.49168 -1.64581 0
M  V30 8239 H 754.374 5.48391 -2.43696 0
M  V30 8240 H 755.444 4.08192 -2.61738 0
M  V30 8241 N 756.787 0.722489 1.40064 0
M  V30 8242 C 757.717 0.0892452 2.33329 0
M  V30 8243 C 758.698 -0.737992 1.53257 0
M  V30 8244 O 759.883 -0.685516 1.81698 0
M  V30 8245 C 757.013 -0.828139 3.37282 0
M  V30 8246 C 755.967 -0.106005 4.27869 0
M  V30 8247 C 755.293 -1.13957 5.22415 0
M  V30 8248 C 756.593 1.04395 5.11761 0
M  V30 8249 H 758.287 0.868269 2.86534 0
M  V30 8250 H 755.833 0.418982 1.3777 0
M  V30 8251 H 757.786 -1.28058 4.01471 0
M  V30 8252 H 756.51 -1.63914 2.82489 0
M  V30 8253 H 755.169 0.326683 3.65142 0
M  V30 8254 H 754.817 -1.9438 4.63924 0
M  V30 8255 H 754.517 -0.661233 5.83868 0
M  V30 8256 H 756.041 -1.59197 5.89482 0
M  V30 8257 H 757.455 0.670541 5.69365 0
M  V30 8258 H 755.852 1.4511 5.82291 0
M  V30 8259 H 756.922 1.87144 4.47331 0
M  V30 8260 N 758.265 -1.50454 0.469181 0
M  V30 8261 C 759.175 -2.32248 -0.331349 0
M  V30 8262 C 760.191 -1.42548 -0.997807 0
M  V30 8263 O 761.367 -1.75602 -0.9862 0
M  V30 8264 C 758.432 -3.17171 -1.40012 0
M  V30 8265 C 757.493 -4.2269 -0.750463 0
M  V30 8266 C 756.726 -5.03554 -1.76831 0
M  V30 8267 O 756.949 -4.85469 -2.99459 0
M  V30 8268 O 755.883 -5.86767 -1.3412 0
M  V30 8269 H 759.709 -3.01821 0.337279 0
M  V30 8270 H 757.294 -1.47602 0.231066 0
M  V30 8271 H 759.176 -3.69871 -2.01924 0
M  V30 8272 H 757.851 -2.50328 -2.05226 0
M  V30 8273 H 756.758 -3.73986 -0.0924446 0
M  V30 8274 H 758.091 -4.91997 -0.14131 0
M  V30 8275 N 759.743 -0.201713 -1.56304 0
M  V30 8276 C 760.69 0.716499 -2.19397 0
M  V30 8277 C 761.66 1.20494 -1.14326 0
M  V30 8278 O 762.845 1.26763 -1.42604 0
M  V30 8279 C 759.985 1.92762 -2.86246 0
M  V30 8280 C 759.098 1.47993 -4.0586 0
M  V30 8281 C 758.233 2.64706 -4.60547 0
M  V30 8282 C 757.272 2.16576 -5.72504 0
M  V30 8283 N 756.409 3.26491 -6.21569 0
M  V30 8284 H 761.249 0.171724 -2.97505 0
M  V30 8285 H 758.786 0.073016 -1.46919 0
M  V30 8286 H 760.744 2.6384 -3.23178 0
M  V30 8287 H 759.374 2.44559 -2.10691 0
M  V30 8288 H 758.426 0.66477 -3.74546 0
M  V30 8289 H 759.738 1.08686 -4.86815 0
M  V30 8290 H 758.892 3.43898 -4.99819 0
M  V30 8291 H 757.631 3.0729 -3.78713 0
M  V30 8292 H 756.636 1.3584 -5.32755 0
M  V30 8293 H 757.861 1.75015 -6.56161 0
M  V30 8294 H 755.807 3.68594 -5.42655 0
M  V30 8295 H 755.724 2.91374 -6.97594 0
M  V30 8296 H 756.992 4.05877 -6.65495 0
M  V30 8297 N 761.222 1.57436 0.0718424 0
M  V30 8298 C 762.152 2.06724 1.08571 0
M  V30 8299 C 763.133 0.960731 1.40371 0
M  V30 8300 O 764.318 1.23345 1.49999 0
M  V30 8301 C 761.448 2.51112 2.39916 0
M  V30 8302 C 760.402 3.65639 2.22469 0
M  V30 8303 C 759.728 3.96082 3.59198 0
M  V30 8304 C 761.028 4.95687 1.64596 0
M  V30 8305 H 762.722 2.91679 0.675569 0
M  V30 8306 H 760.268 1.40319 0.32352 0
M  V30 8307 H 762.221 2.84206 3.11135 0
M  V30 8308 H 760.945 1.63186 2.8291 0
M  V30 8309 H 759.604 3.32828 1.53691 0
M  V30 8310 H 759.252 3.05287 3.99761 0
M  V30 8311 H 758.952 4.73199 3.48362 0
M  V30 8312 H 760.476 4.31672 4.31847 0
M  V30 8313 H 761.89 5.27011 2.25681 0
M  V30 8314 H 760.287 5.77126 1.64457 0
M  V30 8315 H 761.357 4.8108 0.60744 0
M  V30 8316 N 762.7 -0.34323 1.53817 0
M  V30 8317 C 763.648 -1.44176 1.82527 0
M  V30 8318 C 764.642 -1.54452 0.695772 0
M  V30 8319 O 765.848 -1.57072 0.879114 0
M  V30 8320 H 762.223 -0.480729 0.578277 0
M  V30 8321 H 764.194 -1.17176 2.74431 0
M  V30 8322 C 762.943 -2.80695 2.05197 0
M  V30 8323 H 762.266 -2.73554 2.91561 0
M  V30 8324 H 763.706 -3.56679 2.29251 0
M  V30 8325 C 762.165 -3.26322 0.837589 0
M  V30 8326 O 762.695 -4.01683 0.0371631 0
M  V30 8327 N 760.901 -2.83128 0.654724 0
M  V30 8328 H 760.448 -2.21965 1.30725 0
M  V30 8329 H 760.406 -3.14011 -0.156345 0
M  V30 8330 N 764.178 -1.45556 -0.604258 0
M  V30 8331 C 765.589 -1.44171 -1.18624 0
M  V30 8332 C 765.94 -0.171081 -1.95453 0
M  V30 8333 O 765.065 0.727156 -2.03817 0
M  V30 8334 C 765.66 -2.61193 -2.15786 0
M  V30 8335 C 764.219 -2.62918 -2.69353 0
M  V30 8336 C 763.366 -2.36479 -1.4482 0
M  V30 8337 H 766.317 -1.53747 -0.393381 0
M  V30 8338 H 766.338 -2.35481 -2.98879 0
M  V30 8339 H 765.85 -3.53656 -1.59841 0
M  V30 8340 H 763.951 -1.7447 -3.29228 0
M  V30 8341 H 764.064 -3.6224 -3.13559 0
M  V30 8342 H 762.428 -1.86103 -1.73891 0
M  V30 8343 H 763.211 -3.31091 -0.907376 0
M  V30 8344 N 765.656 0.84705 -1.32902 0
M  V30 8345 C 766.619 1.9378 -1.224 0
M  V30 8346 C 767.619 1.60144 -0.145108 0
M  V30 8347 O 768.809 1.69638 -0.396058 0
M  V30 8348 C 765.941 3.29234 -0.884174 0
M  V30 8349 H 767.134 2.04518 -2.19345 0
M  V30 8350 H 764.687 1.03816 -1.16842 0
M  V30 8351 H 765.422 3.24193 0.0831277 0
M  V30 8352 H 765.207 3.55026 -1.6643 0
M  V30 8353 H 766.697 4.09162 -0.835226 0
M  V30 8354 N 767.134 1.16236 1.06428 0
M  V30 8355 C 768.044 0.881976 2.1739 0
M  V30 8356 C 769.06 -0.145259 1.73393 0
M  V30 8357 O 770.236 0.0310558 2.01376 0
M  V30 8358 C 767.301 0.385496 3.4455 0
M  V30 8359 C 766.362 1.47779 4.03063 0
M  V30 8360 C 765.595 1.0049 5.24154 0
M  V30 8361 O 765.818 -0.145889 5.70213 0
M  V30 8362 O 764.752 1.79265 5.74585 0
M  V30 8363 H 768.578 1.80983 2.43883 0
M  V30 8364 H 766.163 0.942226 1.15942 0
M  V30 8365 H 768.045 0.115536 4.21242 0
M  V30 8366 H 766.72 -0.514369 3.19587 0
M  V30 8367 H 765.627 1.80147 3.27869 0
M  V30 8368 H 766.96 2.35291 4.32318 0
M  V30 8369 N 768.612 -1.24939 0.960631 0
M  V30 8370 C 769.858 -1.93104 0.61958 0
M  V30 8371 C 770.191 -1.74991 -0.84212 0
M  V30 8372 O 769.466 -1.09867 -1.60498 0
M  V30 8373 C 769.749 -3.46326 0.986422 0
M  V30 8374 C 769.602 -3.73638 2.50429 0
M  V30 8375 C 770.921 -4.37067 0.515827 0
M  V30 8376 H 768.04 -0.701311 0.226566 0
M  V30 8377 H 770.682 -1.47442 1.19836 0
M  V30 8378 H 768.832 -3.85348 0.493907 0
M  V30 8379 H 770.504 -3.44217 3.07103 0
M  V30 8380 H 768.747 -3.19035 2.93937 0
M  V30 8381 H 769.418 -4.80815 2.71147 0
M  V30 8382 H 771.894 -4.05381 0.938389 0
M  V30 8383 H 770.77 -5.43022 0.80114 0
M  V30 8384 H 771.031 -4.38224 -0.584171 0
M  V30 8385 N 770.09 -0.729906 -1.39679 0
M  V30 8386 C 771.337 -0.275622 -2.00615 0
M  V30 8387 C 771.665 1.13559 -1.57907 0
M  V30 8388 O 770.92 1.78745 -0.796789 0
M  V30 8389 C 771.219 -0.319564 -3.55968 0
M  V30 8390 C 770.885 -1.68308 -4.1831 0
M  V30 8391 C 769.547 -2.05629 -4.35052 0
M  V30 8392 C 771.899 -2.57857 -4.52945 0
M  V30 8393 C 769.227 -3.32018 -4.83716 0
M  V30 8394 C 771.579 -3.83613 -5.03015 0
M  V30 8395 C 770.243 -4.21033 -5.17965 0
M  V30 8396 H 769.513 -0.100857 -0.734104 0
M  V30 8397 H 772.16 -0.93575 -1.67081 0
M  V30 8398 H 770.465 0.42414 -3.89497 0
M  V30 8399 H 772.162 0.0499905 -4.00969 0
M  V30 8400 H 768.752 -1.3829 -4.05677 0
M  V30 8401 H 772.936 -2.30295 -4.39634 0
M  V30 8402 H 768.192 -3.6096 -4.93475 0
M  V30 8403 H 772.366 -4.53162 -5.28788 0
M  V30 8404 H 769.993 -5.19034 -5.55435 0
M  V30 8405 N 771.568 1.50203 -0.477153 0
M  V30 8406 C 772.516 2.30278 0.327826 0
M  V30 8407 C 773.51 1.37831 0.984839 0
M  V30 8408 O 774.716 1.54994 0.915251 0
M  V30 8409 H 771.091 0.741612 0.124564 0
M  V30 8410 H 773.062 2.96124 -0.367853 0
M  V30 8411 C 771.811 3.18548 1.39365 0
M  V30 8412 H 771.134 3.89596 0.897475 0
M  V30 8413 H 772.574 3.77561 1.92934 0
M  V30 8414 C 771.033 2.36548 2.39889 0
M  V30 8415 O 771.563 2.05282 3.45286 0
M  V30 8416 N 769.769 1.99015 2.11758 0
M  V30 8417 H 769.316 2.24641 1.26071 0
M  V30 8418 H 769.274 1.44454 2.7925 0
M  V30 8419 N 773.046 0.209999 1.56195 0
M  V30 8420 C 773.994 -0.721416 2.2113 0
M  V30 8421 C 774.988 -1.20852 1.18706 0
M  V30 8422 O 776.194 -1.16968 1.36815 0
M  V30 8423 H 772.569 -0.251033 0.708863 0
M  V30 8424 H 774.54 -0.150193 2.98022 0
M  V30 8425 C 773.289 -1.92392 2.89621 0
M  V30 8426 H 772.612 -1.5582 3.68185 0
M  V30 8427 H 774.052 -2.55367 3.38473 0
M  V30 8428 C 772.511 -2.77208 1.91461 0
M  V30 8429 O 773.041 -3.75603 1.42426 0
M  V30 8430 N 771.247 -2.43006 1.59363 0
M  V30 8431 H 770.794 -1.63047 1.99433 0
M  V30 8432 H 770.752 -3.00036 0.939449 0
M  V30 8433 N 774.524 -1.57472 -0.0634922 0
M  V30 8434 C 775.773 -1.86837 -0.759928 0
M  V30 8435 C 776.086 -0.803823 -1.7832 0
M  V30 8436 O 777.292 -0.985578 -2.52979 0
M  V30 8437 C 775.748 -3.31448 -1.4025 0
M  V30 8438 C 775.356 -4.46052 -0.417368 0
M  V30 8439 C 777.1 -3.70003 -2.08082 0
M  V30 8440 C 775.007 -5.81707 -1.06633 0
M  V30 8441 H 773.937 -0.697009 -0.287567 0
M  V30 8442 H 776.588 -1.83495 -0.0133914 0
M  V30 8443 H 774.97 -3.29427 -2.19759 0
M  V30 8444 H 776.144 -4.5948 0.348503 0
M  V30 8445 H 774.459 -4.16104 0.156955 0
M  V30 8446 H 777.056 -4.68653 -2.57426 0
M  V30 8447 H 777.399 -3.00226 -2.88393 0
M  V30 8448 H 777.932 -3.7405 -1.35394 0
M  V30 8449 H 774.671 -6.54798 -0.303374 0
M  V30 8450 H 774.191 -5.72064 -1.80286 0
M  V30 8451 H 775.87 -6.27317 -1.58376 0
M  V30 8452 N 776.003 0.335068 -1.53997 0
M  V30 8453 C 776.936 1.43533 -1.77407 0
M  V30 8454 C 777.914 1.5017 -0.623529 0
M  V30 8455 O 779.098 1.67756 -0.85966 0
M  V30 8456 C 776.225 2.81712 -1.88033 0
M  V30 8457 C 775.271 2.92661 -3.10245 0
M  V30 8458 S 776.104 2.58254 -4.69111 0
M  V30 8459 C 777.26 3.98525 -4.82627 0
M  V30 8460 H 777.493 1.2346 -2.70453 0
M  V30 8461 H 775.026 0.531234 -1.44973 0
M  V30 8462 H 776.984 3.61314 -1.9484 0
M  V30 8463 H 775.645 2.99075 -0.959849 0
M  V30 8464 H 774.838 3.93931 -3.14379 0
M  V30 8465 H 774.44 2.21017 -3.01708 0
M  V30 8466 H 776.732 4.93146 -4.64557 0
M  V30 8467 H 777.675 3.9938 -5.84723 0
M  V30 8468 H 778.083 3.86945 -4.11016 0
M  V30 8469 N 777.481 1.45874 0.596531 0
M  V30 8470 C 778.727 1.5069 1.35722 0
M  V30 8471 C 779.06 0.152506 1.936 0
M  V30 8472 O 778.335 -0.834411 1.75692 0
M  V30 8473 C 778.618 2.59474 2.4969 0
M  V30 8474 C 778.471 4.04396 1.96937 0
M  V30 8475 C 779.79 2.64451 3.51787 0
M  V30 8476 H 776.909 0.548611 0.492133 0
M  V30 8477 H 779.551 1.77741 0.671428 0
M  V30 8478 H 777.701 2.36539 3.08191 0
M  V30 8479 H 779.373 4.38576 1.43 0
M  V30 8480 H 777.616 4.14529 1.27859 0
M  V30 8481 H 778.287 4.76218 2.79143 0
M  V30 8482 H 780.763 2.85031 3.03145 0
M  V30 8483 H 779.639 3.42411 4.29006 0
M  V30 8484 H 779.9 1.69965 4.08123 0
M  V30 8485 N 778.959 -0.83999 1.33349 0
M  V30 8486 C 779.869 -1.98182 1.25543 0
M  V30 8487 C 780.885 -1.73204 0.166208 0
M  V30 8488 O 782.061 -1.97596 0.389589 0
M  V30 8489 C 779.126 -3.32157 0.993614 0
M  V30 8490 C 778.187 -3.70258 2.17273 0
M  V30 8491 C 777.42 -4.9784 1.92331 0
M  V30 8492 O 777.643 -5.63679 0.873074 0
M  V30 8493 O 776.577 -5.33418 2.78835 0
M  V30 8494 H 780.403 -2.07708 2.21565 0
M  V30 8495 H 777.988 -0.972852 1.13384 0
M  V30 8496 H 779.87 -4.12433 0.864711 0
M  V30 8497 H 778.545 -3.23637 0.0636596 0
M  V30 8498 H 777.452 -2.90497 2.35716 0
M  V30 8499 H 778.785 -3.83442 3.08598 0
M  V30 8500 N 780.437 -1.16799 -1.0581 0
M  V30 8501 C 781.667 -0.975454 -1.82122 0
M  V30 8502 C 782.075 0.479584 -1.83021 0
M  V30 8503 O 781.418 1.34471 -1.25153 0
M  V30 8504 C 781.48 -1.43209 -3.29744 0
M  V30 8505 C 781.144 -2.908 -3.5254 0
M  V30 8506 C 782.141 -3.88775 -3.45181 0
M  V30 8507 C 779.826 -3.28832 -3.79703 0
M  V30 8508 C 781.82 -5.22782 -3.64661 0
M  V30 8509 C 779.507 -4.63007 -3.98832 0
M  V30 8510 C 780.505 -5.59791 -3.91309 0
M  V30 8511 O 780.193 -6.9154 -4.09911 0
M  V30 8512 H 779.925 -0.345655 -0.580947 0
M  V30 8513 H 782.479 -1.55355 -1.34365 0
M  V30 8514 H 780.709 -0.797504 -3.78387 0
M  V30 8515 H 782.398 -1.2062 -3.87564 0
M  V30 8516 H 783.164 -3.60738 -3.2418 0
M  V30 8517 H 779.043 -2.54073 -3.84666 0
M  V30 8518 H 782.587 -5.98312 -3.58705 0
M  V30 8519 H 778.484 -4.90752 -4.19324 0
M  V30 8520 H 779.252 -6.98188 -4.27172 0
M  V30 8521 N 781.915 1.24427 -0.967243 0
M  V30 8522 C 783.326 1.74349 -0.667785 0
M  V30 8523 C 783.677 1.78403 0.816509 0
M  V30 8524 O 782.802 1.41315 1.63887 0
M  V30 8525 C 783.397 3.16628 -1.20548 0
M  V30 8526 C 781.956 3.64059 -0.955934 0
M  V30 8527 C 781.103 2.42715 -1.34106 0
M  V30 8528 H 784.054 1.10136 -1.14262 0
M  V30 8529 H 784.075 3.76183 -0.571547 0
M  V30 8530 H 783.587 3.13646 -2.28578 0
M  V30 8531 H 781.688 3.72441 0.108858 0
M  V30 8532 H 781.801 4.51549 -1.60126 0
M  V30 8533 H 780.165 2.43114 -0.759452 0
M  V30 8534 H 780.948 2.42414 -2.43085 0
M  V30 8535 N 783.393 0.737304 1.3929 0
M  V30 8536 C 784.623 0.296143 2.04467 0
M  V30 8537 C 785.031 -1.0748 1.55707 0
M  V30 8538 O 784.374 -1.69082 0.718123 0
M  V30 8539 C 784.436 0.222161 3.58813 0
M  V30 8540 C 784.1 1.53195 4.30558 0
M  V30 8541 C 785.097 2.47809 4.57041 0
M  V30 8542 C 782.782 1.79688 4.6906 0
M  V30 8543 C 784.776 3.67147 5.21039 0
M  V30 8544 C 782.463 2.99304 5.32785 0
M  V30 8545 C 783.461 3.92855 5.58708 0
M  V30 8546 O 783.149 5.1037 6.2111 0
M  V30 8547 H 782.881 0.126896 0.663983 0
M  V30 8548 H 785.435 1.00242 1.79278 0
M  V30 8549 H 783.665 -0.540239 3.82908 0
M  V30 8550 H 785.354 -0.187311 4.05468 0
M  V30 8551 H 786.12 2.28611 4.2774 0
M  V30 8552 H 781.999 1.07716 4.48239 0
M  V30 8553 H 785.543 4.40183 5.41188 0
M  V30 8554 H 781.44 3.18401 5.61508 0
M  V30 8555 H 782.208 5.10735 6.39603 0
M  V30 8556 N 784.871 -1.49948 0.485112 0
M  V30 8557 C 786.117 -2.02695 -0.0651022 0
M  V30 8558 C 786.45 -1.36534 -1.38102 0
M  V30 8559 O 785.725 -0.495677 -1.88078 0
M  V30 8560 C 786.008 -3.59337 -0.234285 0
M  V30 8561 C 785.861 -4.3605 1.10364 0
M  V30 8562 C 787.18 -4.28996 -0.982351 0
M  V30 8563 H 784.299 -0.736666 -0.0221856 0
M  V30 8564 H 786.941 -1.7913 0.633433 0
M  V30 8565 H 785.091 -3.79546 -0.829262 0
M  V30 8566 H 786.763 -4.27377 1.73627 0
M  V30 8567 H 785.006 -3.99236 1.69686 0
M  V30 8568 H 785.677 -5.43959 0.938743 0
M  V30 8569 H 788.153 -4.13346 -0.477904 0
M  V30 8570 H 787.029 -5.38379 -1.06955 0
M  V30 8571 H 787.29 -3.93135 -2.02231 0
M  V30 8572 N 786.349 -0.21828 -1.56081 0
M  V30 8573 C 787.259 0.704602 -2.23769 0
M  V30 8574 C 788.275 1.21633 -1.24425 0
M  V30 8575 O 789.451 1.25862 -1.57228 0
M  V30 8576 C 786.516 1.89725 -2.90182 0
M  V30 8577 C 785.577 1.42782 -4.0486 0
M  V30 8578 C 784.81 2.56361 -4.68097 0
M  V30 8579 O 785.033 3.74417 -4.30312 0
M  V30 8580 O 783.967 2.2775 -5.57148 0
M  V30 8581 H 787.793 0.158007 -3.03289 0
M  V30 8582 H 785.378 0.0120279 -1.49395 0
M  V30 8583 H 787.26 2.59382 -3.32113 0
M  V30 8584 H 785.935 2.432 -2.13624 0
M  V30 8585 H 784.842 0.699359 -3.67505 0
M  V30 8586 H 786.175 0.939474 -4.83151 0
M  V30 8587 N 787.827 1.57504 0.0551401 0
M  V30 8588 C 789.067 1.89895 0.756252 0
M  V30 8589 C 789.431 0.813983 1.73892 0
M  V30 8590 O 790.632 1.02145 2.48636 0
M  V30 8591 C 788.903 3.27494 1.43116 0
M  V30 8592 S 790.462 3.81669 2.16504 0
M  V30 8593 H 787.28 0.665173 0.251129 0
M  V30 8594 H 789.882 1.95496 0.0117193 0
M  V30 8595 H 788.586 4.04345 0.702391 0
M  V30 8596 H 788.117 3.25132 2.21479 0
M  V30 8597 H 790.132 3.58295 3.43277 0
M  V30 8598 N 789.305 -0.326896 1.54172 0
M  V30 8599 C 790.533 -1.08486 1.76177 0
M  V30 8600 C 790.948 -1.81815 0.508788 0
M  V30 8601 O 790.305 -1.74924 -0.520362 0
M  V30 8602 C 790.356 -2.08552 2.95276 0
M  V30 8603 O 790.077 -1.38202 4.15731 0
M  V30 8604 C 791.578 -2.96593 3.29466 0
M  V30 8605 H 788.798 -0.322835 0.588233 0
M  V30 8606 H 791.342 -0.374036 2.0105 0
M  V30 8607 H 789.497 -2.75174 2.72687 0
M  V30 8608 H 789.911 -2.05186 4.827 0
M  V30 8609 H 791.385 -3.62708 4.16109 0
M  V30 8610 H 791.862 -3.63511 2.46487 0
M  V30 8611 H 792.468 -2.35537 3.54122 0
M  V30 8612 N 790.784 -1.46188 -0.588786 0
M  V30 8613 C 792.061 -1.41659 -1.34878 0
M  V30 8614 C 792.441 -0.0968913 -2.10878 0
M  V30 8615 O 791.789 0.921468 -2.09096 0
M  V30 8616 C 791.999 -2.6424 -2.27988 0
M  V30 8617 C 793.347 -3.1013 -2.90008 0
M  V30 8618 O 794.371 -2.64745 -2.38303 0
M  V30 8619 O 793.23 -3.88944 -3.83908 0
M  V30 8620 H 790.324 -0.563058 -0.605718 0
M  V30 8621 H 792.87 -1.58346 -0.610309 0
M  V30 8622 H 791.642 -3.51853 -1.71217 0
M  V30 8623 H 791.265 -2.49982 -3.09184 0
M  V30 8624 N 792.262 0.832906 -1.33792 0
M  V30 8625 C 793.487 1.62568 -1.28788 0
M  V30 8626 C 793.912 1.87599 0.137246 0
M  V30 8627 O 793.27 1.44436 1.0958 0
M  V30 8628 C 793.318 2.9495 -2.07453 0
M  V30 8629 O 792.422 3.86546 -1.43722 0
M  V30 8630 H 791.763 0.494809 -0.442787 0
M  V30 8631 H 794.293 1.03578 -1.76445 0
M  V30 8632 H 794.303 3.44599 -2.1844 0
M  V30 8633 H 792.978 2.76055 -3.11073 0
M  V30 8634 H 791.555 3.45044 -1.41417 0
M  V30 8635 N 793.74 1.17359 1.05189 0
M  V30 8636 C 794.965 0.98709 1.82404 0
M  V30 8637 C 795.39 -0.459848 1.82392 0
M  V30 8638 O 794.748 -1.32924 1.23292 0
M  V30 8639 C 794.796 1.53276 3.26403 0
M  V30 8640 O 793.9 0.746541 4.05587 0
M  V30 8641 H 793.241 0.35047 0.563974 0
M  V30 8642 H 795.771 1.55856 1.32552 0
M  V30 8643 H 795.781 1.55504 3.77203 0
M  V30 8644 H 794.456 2.58603 3.25726 0
M  V30 8645 H 793.033 0.795671 3.64312 0
M  V30 8646 N 795.218 -1.23913 0.973828 0
M  V30 8647 C 796.464 -1.92436 0.640026 0
M  V30 8648 C 796.797 -1.75875 -0.823512 0
M  V30 8649 O 796.072 -1.11563 -1.59323 0
M  V30 8650 C 796.355 -3.4526 1.0231 0
M  V30 8651 C 796.208 -3.70961 2.54378 0
M  V30 8652 C 797.527 -4.36495 0.562155 0
M  V30 8653 H 794.646 -0.698868 0.233992 0
M  V30 8654 H 797.288 -1.46163 1.21393 0
M  V30 8655 H 795.438 -3.84802 0.534751 0
M  V30 8656 H 797.11 -3.40941 3.10737 0
M  V30 8657 H 795.353 -3.15899 2.97305 0
M  V30 8658 H 796.024 -4.77912 2.76232 0
M  V30 8659 H 798.5 -4.04363 0.981333 0
M  V30 8660 H 797.376 -5.42142 0.858689 0
M  V30 8661 H 797.637 -4.38818 -0.537659 0
M  V30 8662 N 796.696 -0.74468 -1.38897 0
M  V30 8663 C 797.626 -0.126355 -2.33158 0
M  V30 8664 C 798.607 0.713517 -1.54412 0
M  V30 8665 O 799.792 0.656523 -1.82766 0
M  V30 8666 C 796.922 0.774375 -3.38557 0
M  V30 8667 C 795.876 0.0379214 -4.27983 0
M  V30 8668 C 795.202 1.05631 -5.24162 0
M  V30 8669 C 796.502 -1.12523 -5.10035 0
M  V30 8670 H 798.196 -0.913744 -2.85116 0
M  V30 8671 H 795.742 -0.440847 -1.37086 0
M  V30 8672 H 797.695 1.21655 -4.03458 0
M  V30 8673 H 796.419 1.59399 -2.85061 0
M  V30 8674 H 795.078 -0.384733 -3.64576 0
M  V30 8675 H 794.726 1.86975 -4.66958 0
M  V30 8676 H 794.426 0.568261 -5.84846 0
M  V30 8677 H 795.95 1.49799 -5.9194 0
M  V30 8678 H 797.364 -0.761037 -5.68226 0
M  V30 8679 H 795.761 -1.54355 -5.79909 0
M  V30 8680 H 796.831 -1.94237 -4.44297 0
M  V30 8681 N 798.174 1.49689 -0.493057 0
M  V30 8682 C 799.422 2.02027 0.0541642 0
M  V30 8683 C 799.743 1.37554 1.38217 0
M  V30 8684 O 799.013 0.528174 1.88646 0
M  V30 8685 H 797.593 0.746646 0.0230069 0
M  V30 8686 H 800.255 1.83795 -0.648489 0
M  V30 8687 H 799.351 3.11523 0.189652 0
M  V30 8688 N 799.652 0.226554 1.55963 0
M  V30 8689 C 800.582 -0.676079 2.23498 0
M  V30 8690 C 801.563 -1.19718 1.20837 0
M  V30 8691 O 802.748 -1.24027 1.49436 0
M  V30 8692 C 799.878 -1.88217 2.91876 0
M  V30 8693 C 798.832 -1.4947 4.01052 0
M  V30 8694 C 798.158 -2.77997 4.56751 0
M  V30 8695 C 799.458 -0.680951 5.17842 0
M  V30 8696 H 801.152 -0.112989 2.99187 0
M  V30 8697 H 798.698 -0.0529046 1.43903 0
M  V30 8698 H 800.651 -2.51911 3.37815 0
M  V30 8699 H 799.375 -2.47031 2.13643 0
M  V30 8700 H 798.034 -0.881199 3.55852 0
M  V30 8701 H 797.682 -3.34966 3.75243 0
M  V30 8702 H 797.382 -2.52803 5.30438 0
M  V30 8703 H 798.906 -3.42625 5.05411 0
M  V30 8704 H 800.32 -1.22171 5.60131 0
M  V30 8705 H 798.717 -0.525898 5.97791 0
M  V30 8706 H 799.787 0.311346 4.83899 0
M  V30 8707 N 801.13 -1.57531 -0.0467866 0
M  V30 8708 C 802.358 -1.92696 -0.753371 0
M  V30 8709 C 802.773 -0.824792 -1.69831 0
M  V30 8710 O 802.13 0.200155 -1.81399 0
M  V30 8711 C 802.181 -3.27728 -1.52566 0
M  V30 8712 O 801.902 -4.3371 -0.618674 0
M  V30 8713 C 803.403 -3.77066 -2.33101 0
M  V30 8714 H 800.623 -0.636367 -0.212788 0
M  V30 8715 H 803.167 -2.04498 -0.00959361 0
M  V30 8716 H 801.322 -3.17378 -2.22148 0
M  V30 8717 H 801.736 -5.11548 -1.15839 0
M  V30 8718 H 803.21 -4.74109 -2.82709 0
M  V30 8719 H 803.687 -3.07348 -3.13741 0
M  V30 8720 H 804.293 -3.90442 -1.68628 0
M  V30 8721 N 802.608 0.318715 -1.54344 0
M  V30 8722 C 803.838 1.07394 -1.76494 0
M  V30 8723 C 804.246 1.82031 -0.515881 0
M  V30 8724 O 803.589 1.7609 0.52325 0
M  V30 8725 C 803.651 2.11401 -2.90775 0
M  V30 8726 C 803.315 1.56118 -4.29507 0
M  V30 8727 C 804.312 1.00043 -5.10184 0
M  V30 8728 C 801.997 1.60215 -4.76063 0
M  V30 8729 C 803.991 0.487993 -6.35529 0
M  V30 8730 C 801.678 1.08584 -6.01376 0
M  V30 8731 C 802.676 0.529714 -6.80943 0
M  V30 8732 O 802.364 0.0211823 -8.03897 0
M  V30 8733 H 802.096 0.325061 -0.592715 0
M  V30 8734 H 804.65 0.36901 -2.02058 0
M  V30 8735 H 802.88 2.85524 -2.60793 0
M  V30 8736 H 804.569 2.72683 -3.00664 0
M  V30 8737 H 805.335 0.961811 -4.75367 0
M  V30 8738 H 801.214 2.02441 -4.14172 0
M  V30 8739 H 804.758 0.0532608 -6.9758 0
M  V30 8740 H 800.655 1.12155 -6.35682 0
M  V30 8741 H 801.423 0.136151 -8.18387 0
M  V30 8742 N 804.086 1.46499 0.581025 0
M  V30 8743 C 805.333 1.51896 1.33918 0
M  V30 8744 C 805.661 0.171361 1.93744 0
M  V30 8745 O 804.916 -0.833178 1.77078 0
M  V30 8746 C 805.215 2.56686 2.48691 0
M  V30 8747 C 804.881 4.00656 2.06847 0
M  V30 8748 C 803.543 4.39852 1.9515 0
M  V30 8749 C 805.895 4.91089 1.74589 0
M  V30 8750 C 803.223 5.67345 1.49456 0
M  V30 8751 C 805.575 6.1902 1.30373 0
M  V30 8752 C 804.239 6.57121 1.17255 0
M  V30 8753 H 803.509 0.555826 0.490039 0
M  V30 8754 H 806.156 1.79983 0.654092 0
M  V30 8755 H 804.461 2.22266 3.22653 0
M  V30 8756 H 806.158 2.58091 3.06904 0
M  V30 8757 H 802.748 3.69674 2.16886 0
M  V30 8758 H 806.932 4.61523 1.8251 0
M  V30 8759 H 802.188 5.95635 1.37944 0
M  V30 8760 H 806.362 6.8852 1.04467 0
M  V30 8761 H 803.989 7.55805 0.816236 0
M  V30 8762 N 805.565 -0.825799 1.34232 0
M  V30 8763 C 806.528 -1.91808 1.25468 0
M  V30 8764 C 807.528 -1.59893 0.170567 0
M  V30 8765 O 808.718 -1.68986 0.422996 0
M  V30 8766 C 805.85 -3.27786 0.93644 0
M  V30 8767 H 807.043 -2.01003 2.22571 0
M  V30 8768 H 804.596 -1.01944 1.18479 0
M  V30 8769 H 805.331 -3.24285 -0.0315408 0
M  V30 8770 H 805.116 -3.52333 1.72057 0
M  V30 8771 H 806.606 -4.07782 0.900214 0
M  V30 8772 N 807.043 -1.17915 -1.04565 0
M  V30 8773 C 807.99 -0.901605 -2.12461 0
M  V30 8774 C 808.96 0.157011 -1.65356 0
M  V30 8775 O 810.145 0.0184494 -1.90791 0
M  V30 8776 C 807.285 -0.42796 -3.42436 0
M  V30 8777 C 806.398 -1.55142 -4.03181 0
M  V30 8778 C 805.533 -1.03101 -5.21098 0
M  V30 8779 C 804.572 -2.1295 -5.73863 0
M  V30 8780 N 803.709 -1.62339 -6.83074 0
M  V30 8781 H 808.549 -1.82551 -2.3554 0
M  V30 8782 H 806.086 -0.910389 -1.15544 0
M  V30 8783 H 808.044 -0.134859 -4.16982 0
M  V30 8784 H 806.674 0.458977 -3.1952 0
M  V30 8785 H 805.726 -1.96011 -3.26012 0
M  V30 8786 H 807.038 -2.37968 -4.38375 0
M  V30 8787 H 806.192 -0.692132 -6.02739 0
M  V30 8788 H 804.931 -0.17227 -4.87396 0
M  V30 8789 H 803.936 -2.47687 -4.90847 0
M  V30 8790 H 805.161 -2.9925 -6.09611 0
M  V30 8791 H 803.107 -0.787464 -6.51256 0
M  V30 8792 H 803.024 -2.38767 -7.17305 0
M  V30 8793 H 804.292 -1.31363 -7.68351 0
M  V30 8794 N 808.521 1.23394 -0.980386 0
M  V30 8795 C 809.751 1.9556 -0.666319 0
M  V30 8796 C 810.159 1.72786 0.770815 0
M  V30 8797 O 809.502 1.0162 1.53033 0
M  V30 8798 C 809.564 3.48643 -0.876825 0
M  V30 8799 C 809.228 3.95135 -2.29602 0
M  V30 8800 C 810.225 4.03806 -3.2747 0
M  V30 8801 C 807.91 4.28122 -2.62711 0
M  V30 8802 C 809.904 4.44818 -4.56526 0
M  V30 8803 C 807.591 4.68814 -3.9199 0
M  V30 8804 C 808.589 4.77129 -4.88709 0
M  V30 8805 O 808.277 5.16908 -6.15679 0
M  V30 8806 H 808.009 0.629422 -0.246585 0
M  V30 8807 H 810.563 1.57839 -1.31438 0
M  V30 8808 H 808.793 3.86319 -0.171587 0
M  V30 8809 H 810.482 4.0202 -0.55992 0
M  V30 8810 H 811.248 3.78526 -3.03222 0
M  V30 8811 H 807.127 4.20861 -1.8814 0
M  V30 8812 H 810.671 4.51223 -5.32018 0
M  V30 8813 H 806.568 4.93545 -4.16033 0
M  V30 8814 H 807.336 5.3502 -6.19432 0
M  V30 8815 N 809.999 0.752036 1.385 0
M  V30 8816 C 811.229 0.317812 2.04141 0
M  V30 8817 C 811.637 -1.05822 1.56839 0
M  V30 8818 O 810.98 -1.68311 0.736016 0
M  V30 8819 C 811.042 0.260205 3.58557 0
M  V30 8820 C 810.706 1.57753 4.28909 0
M  V30 8821 C 811.703 2.52642 4.54387 0
M  V30 8822 C 809.388 1.84653 4.67128 0
M  V30 8823 C 811.382 3.72653 5.17116 0
M  V30 8824 C 809.069 3.04938 5.29581 0
M  V30 8825 C 810.067 3.98759 5.54509 0
M  V30 8826 O 809.755 5.16929 6.15662 0
M  V30 8827 H 809.487 0.133931 0.6626 0
M  V30 8828 H 812.041 1.02138 1.78205 0
M  V30 8829 H 810.271 -0.499596 3.83459 0
M  V30 8830 H 811.96 -0.144295 4.05643 0
M  V30 8831 H 812.726 2.33135 4.25292 0
M  V30 8832 H 808.605 1.12464 4.47071 0
M  V30 8833 H 812.149 4.45898 5.36489 0
M  V30 8834 H 808.046 3.24339 5.58099 0
M  V30 8835 H 808.814 5.1749 6.3415 0
M  V30 8836 N 811.477 -1.49425 0.500989 0
M  V30 8837 C 812.888 -1.86624 0.0532011 0
M  V30 8838 C 813.239 -1.41331 -1.36088 0
M  V30 8839 O 812.364 -0.791195 -2.01418 0
M  V30 8840 C 812.959 -3.38681 0.0897693 0
M  V30 8841 C 811.518 -3.75181 -0.302677 0
M  V30 8842 C 810.665 -2.73419 0.462307 0
M  V30 8843 H 813.616 -1.41743 0.713773 0
M  V30 8844 H 813.637 -3.73902 -0.705528 0
M  V30 8845 H 813.149 -3.71616 1.11907 0
M  V30 8846 H 811.25 -3.47855 -1.33521 0
M  V30 8847 H 811.363 -4.79097 0.0167653 0
M  V30 8848 H 809.727 -2.54548 -0.0878557 0
M  V30 8849 H 810.51 -3.09198 1.49169 0
M  V30 8850 N 812.955 -0.234822 -1.55841 0
M  V30 8851 C 814.232 0.442961 -1.90518 0
M  V30 8852 C 814.612 1.76768 -1.15397 0
M  V30 8853 O 813.96 2.26928 -0.267534 0
M  V30 8854 C 814.17 0.622905 -3.43396 0
M  V30 8855 C 815.518 0.9243 -4.14417 0
M  V30 8856 O 816.542 0.709211 -3.49068 0
M  V30 8857 O 815.401 1.33323 -5.29988 0
M  V30 8858 H 812.495 0.236042 -0.792599 0
M  V30 8859 H 815.041 -0.277992 -1.67408 0
M  V30 8860 H 813.813 -0.310973 -3.90062 0
M  V30 8861 H 813.436 1.39485 -3.7233 0
M  V30 8862 N 814.433 1.57553 0.0384317 0
M  V30 8863 C 815.663 1.92813 0.742064 0
M  V30 8864 C 816.071 0.832157 1.69917 0
M  V30 8865 O 815.414 -0.200917 1.82598 0
M  V30 8866 C 815.476 3.23806 1.56172 0
M  V30 8867 C 815.14 4.50459 0.770407 0
M  V30 8868 C 816.137 5.19846 0.0748006 0
M  V30 8869 C 813.822 4.97001 0.727714 0
M  V30 8870 C 815.816 6.34047 -0.652902 0
M  V30 8871 C 813.503 6.111 -0.00373992 0
M  V30 8872 C 814.501 6.79477 -0.692816 0
M  V30 8873 O 814.189 7.91395 -1.41241 0
M  V30 8874 H 813.921 0.641174 0.214179 0
M  V30 8875 H 816.475 2.054 0.00285095 0
M  V30 8876 H 814.705 3.0752 2.34453 0
M  V30 8877 H 816.394 3.44463 2.14709 0
M  V30 8878 H 817.16 4.84899 0.098875 0
M  V30 8879 H 813.039 4.43629 1.25355 0
M  V30 8880 H 816.583 6.87353 -1.1913 0
M  V30 8881 H 812.48 6.45493 -0.0297703 0
M  V30 8882 H 813.248 8.07702 -1.32512 0
M  V30 8883 N 815.911 -0.310526 1.54511 0
M  V30 8884 C 816.858 -1.38264 1.84802 0
M  V30 8885 C 817.828 -1.50808 0.696141 0
M  V30 8886 O 819.013 -1.6582 0.943846 0
M  V30 8887 C 816.153 -2.74422 2.09252 0
M  V30 8888 C 815.266 -2.70405 3.36906 0
M  V30 8889 C 814.401 -3.98495 3.51248 0
M  V30 8890 C 813.44 -3.88836 4.72729 0
M  V30 8891 N 812.577 -5.08683 4.83928 0
M  V30 8892 H 817.417 -1.11732 2.76261 0
M  V30 8893 H 814.954 -0.540609 1.36806 0
M  V30 8894 H 816.912 -3.53593 2.21422 0
M  V30 8895 H 815.542 -2.99235 1.2107 0
M  V30 8896 H 814.594 -1.83151 3.33406 0
M  V30 8897 H 815.906 -2.59155 4.26193 0
M  V30 8898 H 815.06 -4.861 3.63031 0
M  V30 8899 H 813.799 -4.12567 2.60077 0
M  V30 8900 H 812.804 -2.99615 4.60989 0
M  V30 8901 H 814.029 -3.76318 5.65298 0
M  V30 8902 H 811.975 -5.23236 3.95677 0
M  V30 8903 H 811.892 -4.99819 5.67201 0
M  V30 8904 H 813.16 -5.97966 5.00057 0
M  V30 8905 N 817.389 -1.46805 -0.573248 0
M  V30 8906 C 818.8 -1.46655 -1.15539 0
M  V30 8907 C 819.151 -0.2125 -1.95046 0
M  V30 8908 O 818.276 0.683759 -2.05314 0
M  V30 8909 C 818.871 -2.65711 -2.10198 0
M  V30 8910 C 817.43 -2.68572 -2.63716 0
M  V30 8911 C 816.577 -2.39498 -1.39772 0
M  V30 8912 H 819.528 -1.54547 -0.36068 0
M  V30 8913 H 819.549 -2.41768 -2.93817 0
M  V30 8914 H 819.061 -3.56967 -1.52303 0
M  V30 8915 H 817.162 -1.81414 -3.25453 0
M  V30 8916 H 817.275 -3.68809 -3.05805 0
M  V30 8917 H 815.639 -1.89749 -1.69904 0
M  V30 8918 H 816.422 -3.32942 -0.836943 0
M  V30 8919 N 818.867 0.818669 -1.34668 0
M  V30 8920 C 819.777 1.9616 -1.2868 0
M  V30 8921 C 820.793 1.72918 -0.193742 0
M  V30 8922 O 821.969 1.96951 -0.420975 0
M  V30 8923 C 819.034 3.30534 -1.04633 0
M  V30 8924 C 818.095 3.66755 -2.23136 0
M  V30 8925 C 817.328 4.94717 -2.00227 0
M  V30 8926 O 817.551 5.62218 -0.96264 0
M  V30 8927 O 816.485 5.28915 -2.87286 0
M  V30 8928 H 820.311 2.04157 -2.24842 0
M  V30 8929 H 817.896 0.954691 -1.14917 0
M  V30 8930 H 819.778 4.11005 -0.930216 0
M  V30 8931 H 818.453 3.23495 -0.115139 0
M  V30 8932 H 817.36 2.8671 -2.40308 0
M  V30 8933 H 818.693 3.78484 -3.1466 0
M  V30 8934 N 820.346 1.18468 1.03938 0
M  V30 8935 C 821.276 0.936389 2.13902 0
M  V30 8936 C 822.257 -0.126381 1.6963 0
M  V30 8937 O 823.442 0.0264757 1.94182 0
M  V30 8938 C 820.572 0.462729 3.44204 0
M  V30 8939 C 819.526 1.46613 4.02105 0
M  V30 8940 C 818.852 0.84994 5.27902 0
M  V30 8941 C 820.152 2.84323 4.3813 0
M  V30 8942 H 821.846 1.85602 2.3493 0
M  V30 8943 H 819.392 0.893806 1.12903 0
M  V30 8944 H 821.345 0.276382 4.20493 0
M  V30 8945 H 820.069 -0.492477 3.22866 0
M  V30 8946 H 818.728 1.63944 3.27899 0
M  V30 8947 H 818.376 -0.112493 5.02874 0
M  V30 8948 H 818.076 1.51988 5.67603 0
M  V30 8949 H 819.6 0.674152 6.06867 0
M  V30 8950 H 821.014 2.70636 5.054 0
M  V30 8951 H 819.411 3.48012 4.88884 0
M  V30 8952 H 820.481 3.37776 3.47901 0
M  V30 8953 N 821.824 -1.22873 0.986916 0
M  V30 8954 C 823.073 -1.90772 0.654911 0
M  V30 8955 C 823.386 -1.77768 -0.81595 0
M  V30 8956 O 824.592 -2.40529 -1.25929 0
M  V30 8957 C 823.048 -3.42003 1.12081 0
M  V30 8958 C 822.656 -3.63655 2.61647 0
M  V30 8959 C 824.4 -4.15638 0.862854 0
M  V30 8960 C 822.307 -5.08555 3.01871 0
M  V30 8961 H 821.237 -0.714362 0.241252 0
M  V30 8962 H 823.888 -1.39196 1.19568 0
M  V30 8963 H 822.27 -3.92725 0.508207 0
M  V30 8964 H 823.444 -3.2345 3.28202 0
M  V30 8965 H 821.759 -3.03341 2.8526 0
M  V30 8966 H 824.356 -5.22425 1.13915 0
M  V30 8967 H 824.699 -4.15814 -0.201036 0
M  V30 8968 H 825.232 -3.70924 1.43736 0
M  V30 8969 H 821.971 -5.13514 4.07411 0
M  V30 8970 H 821.491 -5.49684 2.40015 0
M  V30 8971 H 823.17 -5.76936 2.92839 0
M  V30 8972 N 823.302 -0.75937 -1.38099 0
M  V30 8973 C 824.234 -0.0956547 -2.29 0
M  V30 8974 C 825.247 0.677561 -1.4803 0
M  V30 8975 O 826.436 0.517696 -1.70828 0
M  V30 8976 C 823.536 0.88844 -3.27047 0
M  V30 8977 C 822.709 0.171652 -4.37063 0
M  V30 8978 C 821.768 1.06733 -5.15262 0
M  V30 8979 O 820.794 0.535698 -5.66674 0
M  V30 8980 N 821.996 2.39486 -5.28797 0
M  V30 8981 H 824.761 -0.876354 -2.86601 0
M  V30 8982 H 822.322 -0.61065 -1.49942 0
M  V30 8983 H 824.314 1.49079 -3.76241 0
M  V30 8984 H 822.884 1.57018 -2.70304 0
M  V30 8985 H 822.104 -0.611473 -3.89429 0
M  V30 8986 H 823.392 -0.324121 -5.07767 0
M  V30 8987 H 822.79 2.85127 -4.88589 0
M  V30 8988 H 821.347 2.94758 -5.81344 0
M  V30 8989 N 824.78 1.49157 -0.508906 0
M  V30 8990 C 825.727 2.2927 0.265288 0
M  V30 8991 C 826.697 1.3603 0.953162 0
M  V30 8992 O 827.882 1.64989 0.958291 0
M  V30 8993 C 825.022 3.18897 1.31904 0
M  V30 8994 C 824.135 4.27201 0.642144 0
M  V30 8995 C 823.27 5.04033 1.67701 0
M  V30 8996 C 822.309 6.04165 0.982422 0
M  V30 8997 N 821.446 6.74133 1.96186 0
M  V30 8998 H 826.286 2.94967 -0.424107 0
M  V30 8999 H 823.823 1.45431 -0.220991 0
M  V30 9000 H 825.781 3.69242 1.94206 0
M  V30 9001 H 824.411 2.55168 1.97709 0
M  V30 9002 H 823.463 3.80283 -0.0943395 0
M  V30 9003 H 824.775 4.98708 0.0957507 0
M  V30 9004 H 823.929 5.58287 2.37487 0
M  V30 9005 H 822.668 4.32317 2.25728 0
M  V30 9006 H 821.673 5.49135 0.270378 0
M  V30 9007 H 822.898 6.7787 0.408554 0
M  V30 9008 H 820.844 6.05183 2.53159 0
M  V30 9009 H 820.761 7.41643 1.46634 0
M  V30 9010 H 822.029 7.32987 2.65236 0
M  V30 9011 N 826.258 0.243083 1.55714 0
M  V30 9012 C 827.486 -0.386971 2.03249 0
M  V30 9013 C 827.901 -1.51812 1.12243 0
M  V30 9014 O 827.258 -1.81992 0.136119 0
M  V30 9015 C 827.309 -0.898361 3.5016 0
M  V30 9016 O 827.03 0.187708 4.37698 0
M  V30 9017 C 828.531 -1.59949 4.13438 0
M  V30 9018 H 825.751 -0.0923981 0.664608 0
M  V30 9019 H 828.295 0.365832 2.01201 0
M  V30 9020 H 826.45 -1.60136 3.52754 0
M  V30 9021 H 826.864 -0.200001 5.24119 0
M  V30 9022 H 828.338 -1.90907 5.17937 0
M  V30 9023 H 828.815 -2.52014 3.59702 0
M  V30 9024 H 829.421 -0.941163 4.14756 0
M  V30 9025 N 827.736 -1.57571 -0.0300757 0
M  V30 9026 C 828.985 -1.88407 -0.720126 0
M  V30 9027 C 829.298 -0.841466 -1.76575 0
M  V30 9028 O 830.504 -1.03902 -2.50832 0
M  V30 9029 C 828.96 -3.34348 -1.33188 0
M  V30 9030 C 828.568 -4.46837 -0.32266 0
M  V30 9031 C 830.312 -3.74333 -2.00187 0
M  V30 9032 C 828.219 -5.83838 -0.942703 0
M  V30 9033 H 827.149 -0.702952 -0.272718 0
M  V30 9034 H 829.8 -1.83482 0.0255337 0
M  V30 9035 H 828.182 -3.34014 -2.12721 0
M  V30 9036 H 829.356 -4.58638 0.445887 0
M  V30 9037 H 827.671 -4.15678 0.245181 0
M  V30 9038 H 830.268 -4.74008 -2.47428 0
M  V30 9039 H 830.611 -3.06275 -2.81959 0
M  V30 9040 H 831.144 -3.76837 -1.2743 0
M  V30 9041 H 827.883 -6.55294 -0.164413 0
M  V30 9042 H 827.403 -5.75759 -1.68111 0
M  V30 9043 H 829.082 -6.30535 -1.45034 0
M  V30 9044 N 829.214 0.302327 -1.54673 0
M  V30 9045 C 830.439 1.06103 -1.78205 0
M  V30 9046 C 830.864 1.80204 -0.53926 0
M  V30 9047 O 830.222 1.73975 0.510142 0
M  V30 9048 C 830.27 2.01829 -2.98827 0
M  V30 9049 O 829.374 3.10108 -2.71858 0
M  V30 9050 H 828.715 0.30487 -0.589873 0
M  V30 9051 H 831.245 0.340153 -2.01753 0
M  V30 9052 H 831.255 2.44319 -3.2676 0
M  V30 9053 H 829.93 1.473 -3.88942 0
M  V30 9054 H 828.507 2.72142 -2.54937 0
M  V30 9055 N 830.692 1.47107 0.565454 0
M  V30 9056 C 831.917 1.57153 1.35343 0
M  V30 9057 C 832.342 0.219247 1.86818 0
M  V30 9058 O 831.7 -0.803539 1.62521 0
M  V30 9059 C 831.748 2.59387 2.50501 0
M  V30 9060 O 830.852 2.14086 3.52478 0
M  V30 9061 H 830.193 0.528209 0.402357 0
M  V30 9062 H 832.723 1.92821 0.684189 0
M  V30 9063 H 832.733 2.79546 2.97184 0
M  V30 9064 H 831.408 3.57579 2.12391 0
M  V30 9065 H 829.985 2.03991 3.12157 0
M  V30 9066 N 832.17 -0.811516 1.35101 0
M  V30 9067 C 833.133 -1.90467 1.27495 0
M  V30 9068 C 834.133 -1.59703 0.187516 0
M  V30 9069 O 835.323 -1.68528 0.440896 0
M  V30 9070 C 832.455 -3.26774 0.971154 0
M  V30 9071 H 833.648 -1.98631 2.2469 0
M  V30 9072 H 831.201 -1.00681 1.19553 0
M  V30 9073 H 831.936 -3.243 0.0028557 0
M  V30 9074 H 831.721 -3.50488 1.75785 0
M  V30 9075 H 833.211 -4.06804 0.943414 0
M  V30 9076 N 833.648 -1.19017 -1.03309 0
M  V30 9077 C 834.897 -0.984542 -1.76039 0
M  V30 9078 C 835.21 0.485937 -1.89468 0
M  V30 9079 O 836.416 0.810278 -2.59127 0
M  V30 9080 C 834.872 -1.71261 -3.1654 0
M  V30 9081 C 834.48 -3.22291 -3.11179 0
M  V30 9082 C 836.224 -1.59007 -3.93595 0
M  V30 9083 C 834.131 -3.87704 -4.46587 0
M  V30 9084 H 833.061 -0.364749 -0.659905 0
M  V30 9085 H 835.712 -1.4247 -1.15649 0
M  V30 9086 H 834.094 -1.20025 -3.77373 0
M  V30 9087 H 835.268 -3.80611 -2.59753 0
M  V30 9088 H 833.583 -3.34772 -2.47622 0
M  V30 9089 H 836.18 -2.05232 -4.93745 0
M  V30 9090 H 836.523 -0.543534 -4.12736 0
M  V30 9091 H 837.056 -2.07564 -3.39355 0
M  V30 9092 H 833.795 -4.92437 -4.3265 0
M  V30 9093 H 833.315 -3.34172 -4.98085 0
M  V30 9094 H 834.994 -3.91008 -5.15482 0
M  V30 9095 N 835.127 1.22348 -0.993418 0
M  V30 9096 C 836.059 2.23626 -0.502404 0
M  V30 9097 C 837.072 1.57739 0.402784 0
M  V30 9098 O 838.261 1.77321 0.204835 0
M  V30 9099 C 835.361 3.37647 0.291118 0
M  V30 9100 C 834.534 4.33121 -0.610332 0
M  V30 9101 C 833.593 5.26035 0.131572 0
M  V30 9102 O 832.619 5.67145 -0.483199 0
M  V30 9103 N 833.821 5.63023 1.41371 0
M  V30 9104 H 836.586 2.66385 -1.37329 0
M  V30 9105 H 834.147 1.36653 -0.868196 0
M  V30 9106 H 836.139 3.96792 0.796107 0
M  V30 9107 H 834.709 2.93967 1.0631 0
M  V30 9108 H 833.929 3.72287 -1.29598 0
M  V30 9109 H 835.217 4.93853 -1.22422 0
M  V30 9110 H 834.615 5.31596 1.93449 0
M  V30 9111 H 833.172 6.24582 1.86388 0
M  V30 9112 N 836.605 0.766683 1.37694 0
M  V30 9113 C 837.835 0.339446 2.03792 0
M  V30 9114 C 838.243 -1.04153 1.57952 0
M  V30 9115 O 837.586 -1.67521 0.753826 0
M  V30 9116 C 837.648 0.29822 3.58261 0
M  V30 9117 C 837.312 1.62293 4.27212 0
M  V30 9118 C 838.309 2.57447 4.51682 0
M  V30 9119 C 835.994 1.89597 4.65143 0
M  V30 9120 C 837.988 3.78117 5.13134 0
M  V30 9121 C 835.675 3.10538 5.26317 0
M  V30 9122 C 836.673 4.04617 5.50249 0
M  V30 9123 O 836.361 5.23429 6.10145 0
M  V30 9124 H 836.093 0.140952 0.661142 0
M  V30 9125 H 838.647 1.04022 1.77111 0
M  V30 9126 H 836.877 -0.458897 3.83967 0
M  V30 9127 H 838.566 -0.101263 4.05774 0
M  V30 9128 H 839.332 2.37633 4.22795 0
M  V30 9129 H 835.211 1.17199 4.45854 0
M  V30 9130 H 838.755 4.51563 5.3173 0
M  V30 9131 H 834.652 3.3024 5.54628 0
M  V30 9132 H 835.42 5.24187 6.28626 0
M  V30 9133 N 838.083 -1.48885 0.516809 0
M  V30 9134 C 839.332 -2.01686 -0.0239899 0
M  V30 9135 C 839.645 -1.40029 -1.3657 0
M  V30 9136 O 840.851 -1.84249 -1.9941 0
M  V30 9137 C 839.307 -3.59779 -0.0931825 0
M  V30 9138 C 838.915 -4.30416 1.24283 0
M  V30 9139 C 840.659 -4.20471 -0.583507 0
M  V30 9140 C 838.566 -5.80408 1.13494 0
M  V30 9141 H 837.496 -0.753892 -0.0127376 0
M  V30 9142 H 840.147 -1.71273 0.65861 0
M  V30 9143 H 838.529 -3.86976 -0.840577 0
M  V30 9144 H 839.703 -4.14905 2.00476 0
M  V30 9145 H 838.018 -3.81539 1.66785 0
M  V30 9146 H 840.615 -5.30333 -0.681987 0
M  V30 9147 H 840.958 -3.84898 -1.58617 0
M  V30 9148 H 841.491 -3.97654 0.107814 0
M  V30 9149 H 838.23 -6.20532 2.11235 0
M  V30 9150 H 837.75 -5.98368 0.414167 0
M  V30 9151 H 839.429 -6.41781 0.820162 0
M  V30 9152 N 839.561 -0.251338 -1.55583 0
M  V30 9153 C 840.491 0.640437 -2.24545 0
M  V30 9154 C 841.472 1.17781 -1.22726 0
M  V30 9155 O 842.657 1.21633 -1.5139 0
M  V30 9156 C 839.787 1.8355 -2.94834 0
M  V30 9157 C 838.741 1.4307 -4.03379 0
M  V30 9158 C 838.067 2.70695 -4.61116 0
M  V30 9159 C 839.367 0.59848 -5.1886 0
M  V30 9160 H 841.061 0.0653772 -2.99329 0
M  V30 9161 H 838.607 0.0300042 -1.43969 0
M  V30 9162 H 840.56 2.46505 -3.4178 0
M  V30 9163 H 839.284 2.43601 -2.17546 0
M  V30 9164 H 837.943 0.824474 -3.57209 0
M  V30 9165 H 837.591 3.28954 -3.80524 0
M  V30 9166 H 837.291 2.44332 -5.34393 0
M  V30 9167 H 838.815 3.34541 -5.10798 0
M  V30 9168 H 840.229 1.13244 -5.62004 0
M  V30 9169 H 838.626 0.430728 -5.98552 0
M  V30 9170 H 839.696 -0.38829 -4.83343 0
M  V30 9171 N 841.039 1.57585 0.0217189 0
M  V30 9172 C 842.316 1.80779 0.74687 0
M  V30 9173 C 842.696 0.851163 1.9318 0
M  V30 9174 O 842.044 -0.105039 2.28258 0
M  V30 9175 C 842.254 3.28696 1.17302 0
M  V30 9176 C 843.602 3.93871 1.58589 0
M  V30 9177 O 844.626 3.3289 1.2674 0
M  V30 9178 O 843.485 5.01254 2.1773 0
M  V30 9179 H 840.579 0.743666 0.361786 0
M  V30 9180 H 843.125 1.697 -0.00206785 0
M  V30 9181 H 841.897 3.89927 0.327453 0
M  V30 9182 H 841.52 3.44692 1.98174 0
M  V30 9183 N 842.517 -0.29412 1.54831 0
M  V30 9184 C 843.742 -1.05156 1.78765 0
M  V30 9185 C 844.167 -1.79916 0.548809 0
M  V30 9186 O 843.525 -1.74243 -0.500909 0
M  V30 9187 C 843.573 -2.00242 2.99893 0
M  V30 9188 O 842.677 -3.08662 2.73499 0
M  V30 9189 H 842.018 -0.301737 0.591482 0
M  V30 9190 H 844.548 -0.329449 2.0193 0
M  V30 9191 H 844.558 -2.42583 3.28051 0
M  V30 9192 H 843.233 -1.45235 3.89717 0
M  V30 9193 H 841.81 -2.70786 2.56377 0
M  V30 9194 N 843.995 -1.47404 -0.557645 0
M  V30 9195 C 844.927 -1.55917 -1.67995 0
M  V30 9196 C 845.94 -0.445411 -1.56588 0
M  V30 9197 O 847.129 -0.714999 -1.63554 0
M  V30 9198 C 844.229 -1.44697 -3.06457 0
M  V30 9199 C 843.402 -2.70633 -3.43622 0
M  V30 9200 C 842.461 -2.53256 -4.61246 0
M  V30 9201 O 841.487 -3.27068 -4.65849 0
M  V30 9202 N 842.689 -1.61053 -5.57711 0
M  V30 9203 H 845.454 -2.52694 -1.61139 0
M  V30 9204 H 843.015 -1.43778 -0.744271 0
M  V30 9205 H 845.007 -1.30806 -3.82978 0
M  V30 9206 H 843.577 -0.560039 -3.07542 0
M  V30 9207 H 842.797 -2.99288 -2.56555 0
M  V30 9208 H 844.085 -3.5424 -3.65228 0
M  V30 9209 H 843.483 -1.00235 -5.56749 0
M  V30 9210 H 842.04 -1.53115 -6.33561 0
M  V30 9211 N 845.473 0.80434 -1.35529 0
M  V30 9212 C 846.75 1.5486 -1.1949 0
M  V30 9213 C 847.13 2.09897 0.22506 0
M  V30 9214 O 846.478 1.92643 1.22886 0
M  V30 9215 C 846.688 2.65535 -2.26478 0
M  V30 9216 C 848.036 3.33814 -2.62399 0
M  V30 9217 O 849.06 2.75807 -2.25409 0
M  V30 9218 O 847.919 4.38612 -3.26009 0
M  V30 9219 H 845.013 0.68433 -0.464351 0
M  V30 9220 H 847.559 0.844107 -1.47217 0
M  V30 9221 H 846.331 2.22754 -3.21709 0
M  V30 9222 H 845.954 3.43617 -2.00033 0
M  V30 9223 N 846.951 1.19563 1.02676 0
M  V30 9224 C 847.899 0.931942 2.13114 0
M  V30 9225 C 848.893 -0.113007 1.69023 0
M  V30 9226 O 850.099 0.0364298 1.79963 0
M  V30 9227 H 846.474 0.283981 0.696318 0
M  V30 9228 H 848.445 1.86991 2.32545 0
M  V30 9229 C 847.194 0.489461 3.44238 0
M  V30 9230 H 846.517 1.28508 3.78584 0
M  V30 9231 H 847.957 0.34408 4.22602 0
M  V30 9232 C 846.416 -0.796761 3.27343 0
M  V30 9233 O 846.946 -1.85767 3.56165 0
M  V30 9234 N 845.152 -0.754824 2.80626 0
M  V30 9235 H 844.699 0.108778 2.5737 0
M  V30 9236 H 844.657 -1.6158 2.69702 0
M  V30 9237 N 848.429 -1.21819 0.999893 0
M  V30 9238 C 849.678 -1.90066 0.675108 0
M  V30 9239 C 849.991 -1.78624 -0.79705 0
M  V30 9240 O 851.197 -2.41851 -1.23371 0
M  V30 9241 C 849.653 -3.40795 1.15702 0
M  V30 9242 C 849.261 -3.60859 2.6549 0
M  V30 9243 C 851.005 -4.147 0.906889 0
M  V30 9244 C 848.912 -5.05324 3.07248 0
M  V30 9245 H 847.842 -0.711763 0.248815 0
M  V30 9246 H 850.493 -1.3792 1.21038 0
M  V30 9247 H 848.875 -3.92164 0.549832 0
M  V30 9248 H 850.049 -3.19951 3.31614 0
M  V30 9249 H 848.364 -3.00298 2.88461 0
M  V30 9250 H 850.961 -5.21187 1.1945 0
M  V30 9251 H 851.304 -4.16004 -0.156923 0
M  V30 9252 H 851.837 -3.69379 1.47662 0
M  V30 9253 H 848.576 -5.09164 4.12834 0
M  V30 9254 H 848.096 -5.47108 2.45832 0
M  V30 9255 H 849.775 -5.73797 2.98941 0
M  V30 9256 N 849.908 -0.773975 -1.37286 0
M  V30 9257 C 851.185 -0.263942 -1.93811 0
M  V30 9258 C 851.565 1.24138 -1.70743 0
M  V30 9259 O 850.913 2.02557 -1.05749 0
M  V30 9260 C 851.123 -0.639753 -3.43086 0
M  V30 9261 C 852.471 -0.610796 -4.20184 0
M  V30 9262 O 853.495 -0.579278 -3.51458 0
M  V30 9263 O 852.354 -0.639862 -5.42741 0
M  V30 9264 H 849.448 -0.0614331 -0.824715 0
M  V30 9265 H 851.994 -0.855477 -1.46559 0
M  V30 9266 H 850.766 -1.67856 -3.53469 0
M  V30 9267 H 850.389 -0.0212827 -3.97594 0
M  V30 9268 N 851.386 1.48609 -0.524698 0
M  V30 9269 C 852.634 2.02097 0.0112991 0
M  V30 9270 C 852.955 1.40455 1.35268 0
M  V30 9271 O 852.225 0.56807 1.87483 0
M  V30 9272 H 850.805 0.746966 0.00716426 0
M  V30 9273 H 853.467 1.82378 -0.687329 0
M  V30 9274 H 852.563 3.11855 0.123531 0
M  V30 9275 N 852.864 0.259585 1.55447 0
M  V30 9276 C 854.089 -0.368317 2.04103 0
M  V30 9277 C 854.514 -1.49827 1.13725 0
M  V30 9278 O 853.872 -1.80814 0.132705 0
M  V30 9279 C 853.92 -0.841506 3.50644 0
M  V30 9280 O 853.024 -1.95008 3.63381 0
M  V30 9281 H 852.365 -0.0785227 0.659341 0
M  V30 9282 H 854.895 0.389349 2.00861 0
M  V30 9283 H 854.905 -1.14138 3.9171 0
M  V30 9284 H 853.58 -0.0147001 4.15897 0
M  V30 9285 H 852.157 -1.65393 3.34215 0
M  V30 9286 N 854.342 -1.57594 -0.0133615 0
M  V30 9287 C 855.588 -1.91105 -0.696457 0
M  V30 9288 C 855.943 -0.859872 -1.72116 0
M  V30 9289 O 855.236 0.129579 -1.91161 0
M  V30 9290 C 855.43 -3.29121 -1.39336 0
M  V30 9291 C 855.259 -4.47565 -0.437666 0
M  V30 9292 C 854.029 -5.05272 -0.0529454 0
M  V30 9293 C 856.227 -5.13479 0.290537 0
M  V30 9294 N 854.209 -6.07232 0.902355 0
M  V30 9295 C 855.58 -6.10147 1.10097 0
M  V30 9296 C 857.635 -4.96627 0.355804 0
M  V30 9297 C 856.338 -6.91778 1.97069 0
M  V30 9298 C 858.364 -5.78833 1.21271 0
M  V30 9299 C 857.726 -6.75083 2.01102 0
M  V30 9300 H 853.825 -0.747882 -0.228464 0
M  V30 9301 H 856.409 -1.94651 0.0438462 0
M  V30 9302 H 854.58 -3.26474 -2.10403 0
M  V30 9303 H 856.312 -3.501 -2.03008 0
M  V30 9304 H 853.067 -4.71747 -0.418486 0
M  V30 9305 H 853.491 -6.6289 1.37498 0
M  V30 9306 H 858.133 -4.22077 -0.247105 0
M  V30 9307 H 855.851 -7.65662 2.58433 0
M  V30 9308 H 859.437 -5.67838 1.26694 0
M  V30 9309 H 858.317 -7.37587 2.66337 0
M  V30 9310 N 855.82 0.285905 -1.54985 0
M  V30 9311 C 857.05 1.03626 -1.78732 0
M  V30 9312 C 857.458 1.80896 -0.554377 0
M  V30 9313 O 856.801 1.77161 0.48578 0
M  V30 9314 C 856.863 2.05185 -2.95193 0
M  V30 9315 C 856.527 1.46973 -4.32722 0
M  V30 9316 C 857.524 0.891986 -5.12191 0
M  V30 9317 C 855.209 1.50081 -4.79355 0
M  V30 9318 C 857.203 0.353078 -6.36421 0
M  V30 9319 C 854.89 0.958037 -6.03544 0
M  V30 9320 C 855.888 0.385157 -6.81913 0
M  V30 9321 O 855.576 -0.149341 -8.03761 0
M  V30 9322 H 855.308 0.312416 -0.599477 0
M  V30 9323 H 857.862 0.326067 -2.02795 0
M  V30 9324 H 856.092 2.79928 -2.66791 0
M  V30 9325 H 857.781 2.66244 -3.0638 0
M  V30 9326 H 858.547 0.860762 -4.77301 0
M  V30 9327 H 854.426 1.9361 -4.18373 0
M  V30 9328 H 857.97 -0.0947181 -6.97536 0
M  V30 9329 H 853.867 0.986458 -6.37918 0
M  V30 9330 H 854.635 -0.0374719 -8.18491 0
M  V30 9331 N 857.298 1.47698 0.54982 0
M  V30 9332 C 858.546 1.54397 1.30407 0
M  V30 9333 C 858.867 0.211026 1.93855 0
M  V30 9334 O 858.137 -0.765701 1.80316 0
M  V30 9335 H 856.717 0.568747 0.484289 0
M  V30 9336 H 859.379 1.84042 0.641444 0
M  V30 9337 H 858.475 2.31449 2.09375 0
M  V30 9338 N 858.776 -0.797141 1.35954 0
M  V30 9339 C 860.016 -1.56795 1.31128 0
M  V30 9340 C 860.38 -1.91683 -0.110364 0
M  V30 9341 O 861.581 -2.67305 -0.283093 0
M  V30 9342 C 859.852 -2.81577 2.20111 0
M  V30 9343 S 861.411 -3.71895 2.32894 0
M  V30 9344 H 858.229 -0.53711 0.465869 0
M  V30 9345 H 860.831 -0.939522 1.71445 0
M  V30 9346 H 859.535 -2.53986 3.22365 0
M  V30 9347 H 859.066 -3.49399 1.80786 0
M  V30 9348 H 861.081 -4.72322 1.52073 0
M  V30 9349 N 860.254 -1.20106 -1.0204 0
M  V30 9350 C 861.5 -1.02042 -1.75951 0
M  V30 9351 C 861.855 0.443229 -1.87225 0
M  V30 9352 O 861.148 1.32477 -1.38421 0
M  V30 9353 C 861.342 -1.63308 -3.17908 0
M  V30 9354 C 861.171 -3.15478 -3.20474 0
M  V30 9355 C 859.941 -3.84432 -3.27933 0
M  V30 9356 C 862.139 -4.12747 -3.06829 0
M  V30 9357 N 860.121 -5.23925 -3.19963 0
M  V30 9358 C 861.492 -5.38892 -3.06586 0
M  V30 9359 C 863.547 -4.03996 -2.91018 0
M  V30 9360 C 862.25 -6.57296 -2.92154 0
M  V30 9361 C 864.276 -5.22019 -2.77938 0
M  V30 9362 C 863.638 -6.47067 -2.78358 0
M  V30 9363 H 859.737 -0.427602 -0.654737 0
M  V30 9364 H 862.321 -1.52216 -1.21402 0
M  V30 9365 H 860.492 -1.15723 -3.7076 0
M  V30 9366 H 862.224 -1.38597 -3.80227 0
M  V30 9367 H 858.979 -3.35269 -3.34502 0
M  V30 9368 H 859.403 -5.9694 -3.19362 0
M  V30 9369 H 864.045 -3.0813 -2.8951 0
M  V30 9370 H 861.763 -7.5334 -2.92412 0
M  V30 9371 H 865.349 -5.17057 -2.66728 0
M  V30 9372 H 864.229 -7.36857 -2.6835 0
M  V30 9373 N 861.732 1.21287 -1.00634 0
M  V30 9374 C 862.98 1.90013 -0.688438 0
M  V30 9375 C 863.301 1.78573 0.783365 0
M  V30 9376 O 862.571 1.1815 1.56261 0
M  V30 9377 H 861.151 0.703336 -0.251648 0
M  V30 9378 H 863.813 1.47346 -1.27574 0
M  V30 9379 H 862.909 2.96879 -0.962781 0
M  V30 9380 N 863.21 0.781244 1.36873 0
M  V30 9381 C 864.459 0.34652 1.98701 0
M  V30 9382 C 864.772 -1.08555 1.62712 0
M  V30 9383 O 865.978 -1.62213 2.17713 0
M  V30 9384 C 864.434 0.568611 3.5538 0
M  V30 9385 C 864.042 2.01156 4.003 0
M  V30 9386 C 865.786 0.197983 4.24038 0
M  V30 9387 C 863.693 2.18074 5.49725 0
M  V30 9388 H 862.623 0.125821 0.743428 0
M  V30 9389 H 865.274 0.961721 1.56279 0
M  V30 9390 H 863.656 -0.116185 3.9583 0
M  V30 9391 H 864.83 2.73209 3.71071 0
M  V30 9392 H 863.145 2.33967 3.44454 0
M  V30 9393 H 865.742 0.302778 5.33842 0
M  V30 9394 H 866.085 -0.852927 4.07469 0
M  V30 9395 H 866.618 0.835696 3.88923 0
M  V30 9396 H 863.357 3.21519 5.71232 0
M  V30 9397 H 862.877 1.50517 5.80607 0
M  V30 9398 H 864.556 1.98393 6.15832 0
M  V30 9399 N 864.689 -1.48329 0.532571 0
M  V30 9400 C 865.929 -2.044 0.00145618 0
M  V30 9401 C 866.293 -1.40053 -1.31336 0
M  V30 9402 O 867.494 -1.87026 -1.93066 0
M  V30 9403 C 865.765 -3.57214 -0.115376 0
M  V30 9404 S 867.324 -4.34731 -0.59618 0
M  V30 9405 H 864.142 -0.710876 0.0133038 0
M  V30 9406 H 866.744 -1.82006 0.71372 0
M  V30 9407 H 865.448 -4.01579 0.846335 0
M  V30 9408 H 864.979 -3.84065 -0.85194 0
M  V30 9409 H 866.994 -4.6001 -1.86025 0
M  V30 9410 N 866.167 -0.267825 -1.55308 0
M  V30 9411 C 867.397 0.354073 -2.03543 0
M  V30 9412 C 867.805 1.50554 -1.14586 0
M  V30 9413 O 867.148 1.83028 -0.156991 0
M  V30 9414 C 867.21 0.904148 -3.47945 0
M  V30 9415 C 866.874 -0.11775 -4.56848 0
M  V30 9416 C 867.871 -0.934707 -5.11429 0
M  V30 9417 C 865.556 -0.249885 -5.01678 0
M  V30 9418 C 867.55 -1.87005 -6.0935 0
M  V30 9419 C 865.237 -1.18872 -5.99427 0
M  V30 9420 C 866.235 -1.99731 -6.53144 0
M  V30 9421 O 865.923 -2.92028 -7.48983 0
M  V30 9422 H 865.655 0.0857765 -0.670536 0
M  V30 9423 H 868.209 -0.395515 -2.01556 0
M  V30 9424 H 866.439 1.70368 -3.47148 0
M  V30 9425 H 868.128 1.43835 -3.79561 0
M  V30 9426 H 868.894 -0.84332 -4.77612 0
M  V30 9427 H 864.773 0.369469 -4.59517 0
M  V30 9428 H 868.317 -2.5016 -6.51203 0
M  V30 9429 H 864.214 -1.28095 -6.32663 0
M  V30 9430 H 864.982 -2.86627 -7.66673 0
M  V30 9431 N 867.645 1.57599 0.00500368 0
M  V30 9432 C 868.873 1.94626 0.702016 0
M  V30 9433 C 869.288 0.86953 1.67585 0
M  V30 9434 O 868.645 -0.15199 1.81866 0
M  V30 9435 C 868.696 3.31658 1.43824 0
M  V30 9436 O 868.417 4.35197 0.503467 0
M  V30 9437 C 869.918 3.83114 2.23021 0
M  V30 9438 H 867.138 0.641785 0.195841 0
M  V30 9439 H 869.682 2.04451 -0.0446287 0
M  V30 9440 H 867.837 3.23156 2.13655 0
M  V30 9441 H 868.251 5.1444 1.02235 0
M  V30 9442 H 869.725 4.81438 2.7004 0
M  V30 9443 H 870.202 3.15559 3.05482 0
M  V30 9444 H 870.808 3.94775 1.58216 0
M  V30 9445 N 869.123 -0.277682 1.55134 0
M  V30 9446 C 870.353 -1.02677 1.79279 0
M  V30 9447 C 870.761 -1.80599 0.563962 0
M  V30 9448 O 870.104 -1.77416 -0.476378 0
M  V30 9449 C 870.166 -2.03617 2.96277 0
M  V30 9450 C 869.83 -1.44676 4.33495 0
M  V30 9451 C 870.827 -0.864811 5.12657 0
M  V30 9452 C 868.512 -1.47537 4.80144 0
M  V30 9453 C 870.506 -0.319322 6.366 0
M  V30 9454 C 868.193 -0.926016 6.04043 0
M  V30 9455 C 869.191 -0.348988 6.82108 0
M  V30 9456 O 868.879 0.191964 8.03671 0
M  V30 9457 H 868.611 -0.309232 0.601125 0
M  V30 9458 H 871.165 -0.315308 2.02965 0
M  V30 9459 H 869.395 -2.78509 2.68272 0
M  V30 9460 H 871.084 -2.64616 3.07788 0
M  V30 9461 H 871.85 -0.835438 4.7775 0
M  V30 9462 H 867.729 -1.91389 4.19394 0
M  V30 9463 H 871.273 0.131709 6.97476 0
M  V30 9464 H 867.17 -0.952613 6.38432 0
M  V30 9465 H 867.938 0.0808779 8.1846 0
M  V30 9466 N 870.601 -1.47988 -0.541979 0
M  V30 9467 C 871.564 -1.61148 -1.62984 0
M  V30 9468 C 872.564 -0.48553 -1.53295 0
M  V30 9469 O 873.754 -0.751012 -1.5718 0
M  V30 9470 C 870.886 -1.57038 -3.02576 0
M  V30 9471 H 872.079 -2.58138 -1.52659 0
M  V30 9472 H 869.632 -1.36405 -0.763106 0
M  V30 9473 H 870.367 -0.614807 -3.18419 0
M  V30 9474 H 870.152 -2.38769 -3.11018 0
M  V30 9475 H 871.642 -1.69416 -3.81691 0
M  V30 9476 N 872.079 0.78992 -1.36375 0
M  V30 9477 C 873.304 1.58389 -1.33895 0
M  V30 9478 C 873.729 1.8794 0.0774934 0
M  V30 9479 O 873.087 1.4785 1.0493 0
M  V30 9480 C 873.135 2.88201 -2.16732 0
M  V30 9481 O 872.239 3.81778 -1.55946 0
M  V30 9482 H 871.58 0.480471 -0.458305 0
M  V30 9483 H 874.11 0.979119 -1.79651 0
M  V30 9484 H 874.12 3.37475 -2.29292 0
M  V30 9485 H 872.795 2.66019 -3.19698 0
M  V30 9486 H 871.372 3.40371 -1.52323 0
M  V30 9487 N 873.557 1.20646 1.01402 0
M  V30 9488 C 874.49 0.900926 2.09663 0
M  V30 9489 C 875.468 -0.14801 1.61925 0
M  V30 9490 O 876.652 -0.0210235 1.88488 0
M  V30 9491 C 873.779 0.351097 3.36875 0
M  V30 9492 C 872.825 1.38142 4.03508 0
M  V30 9493 S 873.658 2.94741 4.47089 0
M  V30 9494 C 874.814 2.41341 5.77499 0
M  V30 9495 H 875.047 1.81773 2.35257 0
M  V30 9496 H 872.58 1.03521 1.14555 0
M  V30 9497 H 874.538 0.0404201 4.1048 0
M  V30 9498 H 873.199 -0.544255 3.09349 0
M  V30 9499 H 872.392 0.94614 4.9504 0
M  V30 9500 H 871.994 1.63971 3.36139 0
M  V30 9501 H 874.286 1.81263 6.52802 0
M  V30 9502 H 875.229 3.31278 6.25828 0
M  V30 9503 H 875.637 1.83374 5.33886 0
M  V30 9504 N 875.035 -1.20752 1.01276 0
M  V30 9505 C 876.282 -1.90021 0.699887 0
M  V30 9506 C 876.61 -1.78604 -0.770113 0
M  V30 9507 O 875.865 -1.16195 -1.57471 0
M  V30 9508 C 876.164 -3.40808 1.07633 0
M  V30 9509 C 875.83 -3.72423 2.54189 0
M  V30 9510 C 874.492 -3.80762 2.94234 0
M  V30 9511 C 876.844 -3.87025 3.49086 0
M  V30 9512 C 874.172 -4.01158 4.28123 0
M  V30 9513 C 876.524 -4.0893 4.82658 0
M  V30 9514 C 875.188 -4.15498 5.22415 0
M  V30 9515 H 874.458 -0.695335 0.256107 0
M  V30 9516 H 877.105 -1.43096 1.27263 0
M  V30 9517 H 875.41 -3.89521 0.421944 0
M  V30 9518 H 877.107 -3.92693 0.811997 0
M  V30 9519 H 873.697 -3.66529 2.22158 0
M  V30 9520 H 877.881 -3.79942 3.19309 0
M  V30 9521 H 873.137 -4.04476 4.58486 0
M  V30 9522 H 877.311 -4.19172 5.56119 0
M  V30 9523 H 874.938 -4.31055 6.26176 0
M  V30 9524 N 876.513 -0.788492 -1.36457 0
M  V30 9525 C 877.476 -0.192209 -2.28393 0
M  V30 9526 C 878.476 0.609916 -1.48784 0
M  V30 9527 O 879.666 0.431046 -1.68783 0
M  V30 9528 C 876.798 0.734096 -3.32902 0
M  V30 9529 H 877.991 -1.00284 -2.82636 0
M  V30 9530 H 875.544 -0.557852 -1.46006 0
M  V30 9531 H 876.279 1.5691 -2.83813 0
M  V30 9532 H 876.064 0.160875 -3.9177 0
M  V30 9533 H 877.554 1.1462 -4.01562 0
M  V30 9534 N 877.991 1.48044 -0.54043 0
M  V30 9535 C 878.921 2.32597 0.205178 0
M  V30 9536 C 879.902 1.42748 0.925041 0
M  V30 9537 O 881.087 1.71624 0.908784 0
M  V30 9538 C 878.217 3.24175 1.24612 0
M  V30 9539 C 877.171 4.23131 0.64376 0
M  V30 9540 C 876.497 5.03915 1.78812 0
M  V30 9541 C 877.797 5.20831 -0.39144 0
M  V30 9542 H 879.491 2.95184 -0.500676 0
M  V30 9543 H 877.037 1.41948 -0.242225 0
M  V30 9544 H 878.99 3.82158 1.77576 0
M  V30 9545 H 877.714 2.59608 1.98169 0
M  V30 9546 H 876.373 3.66349 0.135554 0
M  V30 9547 H 876.021 4.35765 2.51232 0
M  V30 9548 H 875.721 5.709 1.39094 0
M  V30 9549 H 877.245 5.64753 2.32134 0
M  V30 9550 H 878.659 5.73277 0.0515064 0
M  V30 9551 H 877.056 5.95926 -0.706569 0
M  V30 9552 H 878.126 4.6733 -1.29345 0
M  V30 9553 N 879.47 0.276058 1.55163 0
M  V30 9554 C 880.38 -0.621066 2.2623 0
M  V30 9555 C 881.396 -1.16931 1.28853 0
M  V30 9556 O 882.572 -1.1994 1.61791 0
M  V30 9557 C 879.637 -1.78824 2.97023 0
M  V30 9558 C 878.698 -1.27657 4.09881 0
M  V30 9559 C 877.931 -2.38812 4.77289 0
M  V30 9560 O 878.154 -3.58188 4.43912 0
M  V30 9561 O 877.088 -2.06915 5.65217 0
M  V30 9562 H 880.914 -0.0453346 3.03666 0
M  V30 9563 H 878.499 0.0434275 1.49337 0
M  V30 9564 H 880.381 -2.46877 3.41511 0
M  V30 9565 H 879.056 -2.35104 2.22503 0
M  V30 9566 H 877.963 -0.56248 3.69847 0
M  V30 9567 H 879.296 -0.759509 4.86305 0
M  V30 9568 N 880.948 -1.576 0.00335426 0
M  V30 9569 C 881.911 -2.07576 -0.971838 0
M  V30 9570 C 882.911 -0.985796 -1.27038 0
M  V30 9571 O 884.101 -1.24833 -1.21501 0
M  V30 9572 C 881.233 -2.52003 -2.29581 0
M  V30 9573 H 882.426 -2.95008 -0.539481 0
M  V30 9574 H 879.979 -1.54381 -0.244186 0
M  V30 9575 H 880.714 -1.67825 -2.77498 0
M  V30 9576 H 880.499 -3.31609 -2.09231 0
M  V30 9577 H 881.989 -2.90983 -2.99531 0
M  V30 9578 N 882.426 0.269451 -1.5528 0
M  V30 9579 C 883.356 1.33729 -1.91413 0
M  V30 9580 C 884.337 1.51348 -0.776391 0
M  V30 9581 O 885.522 1.64332 -1.03482 0
M  V30 9582 C 882.652 2.69618 -2.18914 0
M  V30 9583 C 881.606 2.66725 -3.34726 0
M  V30 9584 C 880.932 4.06199 -3.47716 0
M  V30 9585 C 882.232 2.25684 -4.71025 0
M  V30 9586 H 883.926 1.03736 -2.80854 0
M  V30 9587 H 881.472 0.497579 -1.3513 0
M  V30 9588 H 883.425 3.44436 -2.42779 0
M  V30 9589 H 882.149 3.01201 -1.26275 0
M  V30 9590 H 880.808 1.94365 -3.10834 0
M  V30 9591 H 880.456 4.3501 -2.52537 0
M  V30 9592 H 880.156 4.05157 -4.25583 0
M  V30 9593 H 881.68 4.8275 -3.73877 0
M  V30 9594 H 883.094 2.90225 -4.94411 0
M  V30 9595 H 881.491 2.35797 -5.51833 0
M  V30 9596 H 882.561 1.20819 -4.69607 0
M  V30 9597 N 883.904 1.48273 0.534124 0
M  V30 9598 C 884.854 1.58889 1.63519 0
M  V30 9599 C 885.838 0.44626 1.54588 0
M  V30 9600 O 887.03 0.697474 1.62679 0
M  V30 9601 C 884.159 1.62787 3.0225 0
M  V30 9602 C 883.245 2.82515 3.16301 0
M  V30 9603 N 883.636 4.06977 3.00338 0
M  V30 9604 C 881.934 2.7976 3.47347 0
M  V30 9605 C 882.635 4.87283 3.17694 0
M  V30 9606 N 881.611 4.20024 3.45081 0
M  V30 9607 H 885.413 2.52869 1.49781 0
M  V30 9608 H 882.927 1.44587 0.739479 0
M  V30 9609 H 884.924 1.68486 3.81337 0
M  V30 9610 H 883.584 0.699201 3.17082 0
M  V30 9611 H 884.595 4.37479 2.77186 0
M  V30 9612 H 881.272 1.96132 3.68563 0
M  V30 9613 H 882.662 5.96047 3.10126 0
M  V30 9614 N 885.382 -0.782676 1.36792 0
M  V30 9615 C 886.61 -1.57162 1.34565 0
M  V30 9616 C 887.025 -1.88664 -0.0715501 0
M  V30 9617 O 886.382 -1.50633 -1.03033 0
M  V30 9618 C 886.433 -2.88854 2.1736 0
M  V30 9619 O 886.154 -2.58707 3.53557 0
M  V30 9620 C 887.655 -3.83132 2.2299 0
M  V30 9621 H 884.875 -0.487245 0.461338 0
M  V30 9622 H 887.419 -0.970905 1.79982 0
M  V30 9623 H 885.574 -3.45377 1.7548 0
M  V30 9624 H 885.988 -3.42961 3.96835 0
M  V30 9625 H 887.462 -4.72575 2.85266 0
M  V30 9626 H 887.939 -4.21472 1.23524 0
M  V30 9627 H 888.545 -3.32541 2.65135 0
M  V30 9628 N 886.86 -1.21182 -1.00761 0
M  V30 9629 C 888.106 -1.02898 -1.74756 0
M  V30 9630 C 888.439 0.436774 -1.89225 0
M  V30 9631 O 887.714 1.32415 -1.42466 0
M  V30 9632 C 887.997 -1.72372 -3.16164 0
M  V30 9633 C 887.85 -3.2645 -3.09435 0
M  V30 9634 C 889.169 -1.46415 -4.15031 0
M  V30 9635 H 886.288 -0.375214 -0.634337 0
M  V30 9636 H 888.93 -1.49321 -1.17487 0
M  V30 9637 H 887.08 -1.32906 -3.65059 0
M  V30 9638 H 888.752 -3.75269 -2.68274 0
M  V30 9639 H 886.995 -3.56889 -2.46603 0
M  V30 9640 H 887.666 -3.70226 -4.09435 0
M  V30 9641 H 890.142 -1.80671 -3.7483 0
M  V30 9642 H 889.018 -1.97544 -5.12121 0
M  V30 9643 H 889.279 -0.39361 -4.40344 0
M  V30 9644 N 888.338 1.20213 -1.01915 0
M  V30 9645 C 889.586 1.89272 -0.708552 0
M  V30 9646 C 889.907 1.79394 0.76438 0
M  V30 9647 O 889.177 1.198 1.54999 0
M  V30 9648 H 887.757 0.700628 -0.259094 0
M  V30 9649 H 890.419 1.45985 -1.29129 0
M  V30 9650 H 889.515 2.95841 -0.994215 0
M  V30 9651 N 889.816 0.795718 1.36037 0
M  V30 9652 C 890.746 0.212803 2.32528 0
M  V30 9653 C 891.727 -0.655716 1.56953 0
M  V30 9654 O 892.912 -0.588238 1.85077 0
M  V30 9655 C 890.042 -0.648189 3.41198 0
M  V30 9656 C 888.996 0.120948 4.27829 0
M  V30 9657 C 888.322 -0.861044 5.27722 0
M  V30 9658 C 889.622 1.31375 5.05508 0
M  V30 9659 H 891.316 1.01893 2.81528 0
M  V30 9660 H 888.862 0.491422 1.35355 0
M  V30 9661 H 890.815 -1.06597 4.07695 0
M  V30 9662 H 889.539 -1.48709 2.9078 0
M  V30 9663 H 888.198 0.519777 3.62897 0
M  V30 9664 H 887.846 -1.69515 4.73575 0
M  V30 9665 H 887.546 -0.350808 5.86552 0
M  V30 9666 H 889.07 -1.27726 5.97092 0
M  V30 9667 H 890.484 0.971406 5.6501 0
M  V30 9668 H 888.881 1.75772 5.73781 0
M  V30 9669 H 889.951 2.10593 4.36782 0
M  V30 9670 N 891.294 -1.47756 0.548274 0
M  V30 9671 C 892.571 -1.9555 -0.0443603 0
M  V30 9672 C 892.951 -1.49079 -1.49462 0
M  V30 9673 O 892.299 -0.725538 -2.16675 0
M  V30 9674 C 892.509 -3.48879 0.0918425 0
M  V30 9675 C 893.857 -4.2456 -0.0580879 0
M  V30 9676 O 894.881 -3.56195 0.018946 0
M  V30 9677 O 893.74 -5.46048 -0.222261 0
M  V30 9678 H 890.834 -0.824106 -0.0691235 0
M  V30 9679 H 893.38 -1.58196 0.614166 0
M  V30 9680 H 892.152 -3.7548 1.10137 0
M  V30 9681 H 891.775 -3.92975 -0.604704 0
M  V30 9682 N 892.772 -0.284283 -1.55015 0
M  V30 9683 C 894.002 0.332465 -2.03907 0
M  V30 9684 C 894.41 1.49331 -1.16177 0
M  V30 9685 O 893.753 1.82851 -0.176395 0
M  V30 9686 C 893.815 0.867193 -3.48884 0
M  V30 9687 C 893.479 -0.166198 -4.56698 0
M  V30 9688 C 894.476 -0.988898 -5.10408 0
M  V30 9689 C 892.161 -0.303081 -5.01385 0
M  V30 9690 C 894.155 -1.93458 -6.07333 0
M  V30 9691 C 891.842 -1.25223 -5.98133 0
M  V30 9692 C 892.84 -2.06647 -6.50988 0
M  V30 9693 O 892.528 -2.99955 -7.45843 0
M  V30 9694 H 892.26 0.0786597 -0.671408 0
M  V30 9695 H 894.814 -0.416871 -2.01125 0
M  V30 9696 H 893.044 1.66676 -3.48935 0
M  V30 9697 H 894.733 1.39802 -3.81065 0
M  V30 9698 H 895.499 -0.89393 -4.76691 0
M  V30 9699 H 891.378 0.320711 -4.59883 0
M  V30 9700 H 894.922 -2.57053 -6.48513 0
M  V30 9701 H 890.819 -1.34798 -6.31268 0
M  V30 9702 H 891.587 -2.94742 -7.6359 0
M  V30 9703 N 894.251 1.57596 -0.0117121 0
M  V30 9704 C 895.161 2.12596 0.991964 0
M  V30 9705 C 896.177 1.07399 1.36899 0
M  V30 9706 O 897.353 1.39365 1.45394 0
M  V30 9707 C 894.418 2.62796 2.2614 0
M  V30 9708 C 893.479 3.8264 1.94642 0
M  V30 9709 C 892.712 4.30435 3.15533 0
M  V30 9710 O 892.935 3.77495 4.27614 0
M  V30 9711 O 891.869 5.22469 2.98847 0
M  V30 9712 H 895.695 2.98597 0.554371 0
M  V30 9713 H 893.28 1.47947 0.207839 0
M  V30 9714 H 895.162 2.9523 3.00695 0
M  V30 9715 H 893.837 1.79886 2.69114 0
M  V30 9716 H 892.744 3.5516 1.17526 0
M  V30 9717 H 894.077 4.66658 1.56496 0
M  V30 9718 N 895.729 -0.261212 1.5542 0
M  V30 9719 C 896.954 -1.01341 1.80955 0
M  V30 9720 C 897.379 -1.78711 0.586849 0
M  V30 9721 O 896.737 -1.75266 -0.463837 0
M  V30 9722 C 896.785 -1.93835 3.04073 0
M  V30 9723 O 895.889 -3.02791 2.79985 0
M  V30 9724 H 895.23 -0.289123 0.597749 0
M  V30 9725 H 897.76 -0.286543 2.02584 0
M  V30 9726 H 897.77 -2.3557 3.33123 0
M  V30 9727 H 896.445 -1.36936 3.9271 0
M  V30 9728 H 895.022 -2.65287 2.62063 0
M  V30 9729 N 897.207 -1.48554 -0.526253 0
M  V30 9730 C 898.432 -1.60686 -1.31129 0
M  V30 9731 C 898.857 -0.268701 -1.86171 0
M  V30 9732 O 898.215 0.760167 -1.64594 0
M  V30 9733 C 898.263 -2.65938 -2.43536 0
M  V30 9734 O 897.367 -2.23356 -3.46678 0
M  V30 9735 H 896.708 -0.538691 -0.388211 0
M  V30 9736 H 899.238 -1.94567 -0.632826 0
M  V30 9737 H 899.248 -2.87327 -2.89668 0
M  V30 9738 H 897.923 -3.63085 -2.02835 0
M  V30 9739 H 896.5 -2.12196 -3.06639 0
M  V30 9740 N 898.685 0.775411 -1.37205 0
M  V30 9741 C 899.91 1.5696 -1.35567 0
M  V30 9742 C 900.335 1.88012 0.0575554 0
M  V30 9743 O 899.693 1.48954 1.03355 0
M  V30 9744 C 899.741 2.85886 -2.19776 0
M  V30 9745 O 898.845 3.80103 -1.59987 0
M  V30 9746 H 898.186 0.475583 -0.463375 0
M  V30 9747 H 900.716 0.96001 -1.80679 0
M  V30 9748 H 900.726 3.35024 -2.32859 0
M  V30 9749 H 899.401 2.62613 -3.22502 0
M  V30 9750 H 897.978 3.38736 -1.55924 0
M  V30 9751 N 900.163 1.21714 1.00117 0
M  V30 9752 C 901.126 0.981338 2.07129 0
M  V30 9753 C 902.126 -0.0491116 1.60725 0
M  V30 9754 O 903.316 0.188555 1.73177 0
M  V30 9755 C 900.448 0.480608 3.37495 0
M  V30 9756 H 901.641 1.93075 2.29482 0
M  V30 9757 H 899.194 1.03467 1.17151 0
M  V30 9758 H 899.929 -0.473552 3.20824 0
M  V30 9759 H 899.714 1.22393 3.72508 0
M  V30 9760 H 901.204 0.33561 4.16249 0
M  V30 9761 N 901.641 -1.19671 1.02551 0
M  V30 9762 C 902.887 -1.89548 0.721069 0
M  V30 9763 C 903.22 -1.79209 -0.748176 0
M  V30 9764 O 902.495 -1.1822 -1.54448 0
M  V30 9765 C 902.778 -3.4061 1.16861 0
M  V30 9766 C 902.631 -3.59838 2.69883 0
M  V30 9767 C 903.95 -4.33718 0.746782 0
M  V30 9768 H 901.069 -0.688315 0.263422 0
M  V30 9769 H 903.711 -1.40883 1.27483 0
M  V30 9770 H 901.861 -3.82188 0.697477 0
M  V30 9771 H 903.533 -3.27454 3.24917 0
M  V30 9772 H 901.776 -3.03005 3.10435 0
M  V30 9773 H 902.447 -4.65766 2.96253 0
M  V30 9774 H 904.923 -3.99837 1.15195 0
M  V30 9775 H 903.799 -5.38012 1.08786 0
M  V30 9776 H 904.06 -4.40704 -0.351057 0
M  V30 9777 N 903.119 -0.802921 -1.35613 0
M  V30 9778 C 904.066 -0.20874 -2.29854 0
M  V30 9779 C 905.036 0.655128 -1.52634 0
M  V30 9780 O 906.221 0.600979 -1.81088 0
M  V30 9781 C 903.361 0.639663 -3.3912 0
M  V30 9782 C 902.474 -0.244234 -4.31309 0
M  V30 9783 C 901.609 0.611825 -5.27665 0
M  V30 9784 C 900.648 -0.272698 -6.11492 0
M  V30 9785 N 899.785 0.543122 -6.99996 0
M  V30 9786 H 904.625 -1.01782 -2.80079 0
M  V30 9787 H 902.162 -0.513465 -1.37848 0
M  V30 9788 H 904.12 1.14668 -4.01132 0
M  V30 9789 H 902.75 1.41404 -2.9018 0
M  V30 9790 H 901.802 -0.869322 -3.70334 0
M  V30 9791 H 903.114 -0.925202 -4.90144 0
M  V30 9792 H 902.268 1.18412 -5.95032 0
M  V30 9793 H 901.007 1.32637 -4.69317 0
M  V30 9794 H 900.012 -0.857287 -5.43075 0
M  V30 9795 H 901.237 -0.985051 -6.71918 0
M  V30 9796 H 899.183 1.24171 -6.44141 0
M  V30 9797 H 899.1 -0.0798767 -7.55958 0
M  V30 9798 H 900.368 1.09881 -7.71717 0
M  V30 9799 N 904.597 1.47463 -0.556102 0
M  V30 9800 C 905.544 2.29998 0.192213 0
M  V30 9801 C 906.514 1.38993 0.909403 0
M  V30 9802 O 907.699 1.67954 0.905316 0
M  V30 9803 C 904.839 3.22932 1.21692 0
M  V30 9804 C 903.952 4.29027 0.505908 0
M  V30 9805 C 903.087 5.09114 1.51581 0
M  V30 9806 C 902.126 6.06984 0.789714 0
M  V30 9807 N 901.263 6.80033 1.74639 0
M  V30 9808 H 906.103 2.93468 -0.517734 0
M  V30 9809 H 903.64 1.44654 -0.267147 0
M  V30 9810 H 905.598 3.75234 1.8236 0
M  V30 9811 H 904.228 2.61329 1.89491 0
M  V30 9812 H 903.28 3.7979 -0.215276 0
M  V30 9813 H 904.592 4.9876 -0.062958 0
M  V30 9814 H 903.746 5.6556 2.19606 0
M  V30 9815 H 902.485 4.3928 2.11859 0
M  V30 9816 H 901.49 5.49717 0.0955382 0
M  V30 9817 H 902.715 6.78827 0.192688 0
M  V30 9818 H 900.661 6.12931 2.33777 0
M  V30 9819 H 900.578 7.45933 1.22965 0
M  V30 9820 H 901.846 7.41054 2.41782 0
M  V30 9821 N 906.075 0.2925 1.54862 0
M  V30 9822 C 907.323 -0.318633 1.99572 0
M  V30 9823 C 907.644 -1.55062 1.1824 0
M  V30 9824 O 906.914 -1.93943 0.276226 0
M  V30 9825 H 905.494 -0.120722 0.737181 0
M  V30 9826 H 908.156 0.401862 1.90712 0
M  V30 9827 H 907.252 -0.596542 3.06346 0
M  V30 9828 N 907.553 -1.57587 0.0200696 0
M  V30 9829 C 908.793 -1.93287 -0.66479 0
M  V30 9830 C 909.157 -0.896022 -1.6981 0
M  V30 9831 O 910.358 -1.13892 -2.43479 0
M  V30 9832 C 908.629 -3.33949 -1.27328 0
M  V30 9833 S 910.188 -3.91564 -1.98047 0
M  V30 9834 H 907.006 -0.676397 -0.219106 0
M  V30 9835 H 909.608 -1.9533 0.081568 0
M  V30 9836 H 908.312 -4.07235 -0.508673 0
M  V30 9837 H 907.843 -3.35329 -2.05714 0
M  V30 9838 H 909.858 -3.74265 -3.25791 0
M  V30 9839 N 909.032 0.252966 -1.55557 0
M  V30 9840 C 910.309 1.00432 -1.67847 0
M  V30 9841 C 910.689 2.03587 -0.55816 0
M  V30 9842 O 910.037 2.24239 0.439197 0
M  V30 9843 C 910.247 1.64313 -3.079 0
M  V30 9844 C 911.595 2.14726 -3.66303 0
M  V30 9845 O 912.619 1.74264 -3.10661 0
M  V30 9846 O 911.478 2.89 -4.63833 0
M  V30 9847 H 908.572 0.467102 -0.682455 0
M  V30 9848 H 911.118 0.247233 -1.67889 0
M  V30 9849 H 909.89 0.896681 -3.80888 0
M  V30 9850 H 909.513 2.46657 -3.11843 0
M  V30 9851 N 910.51 1.48831 0.518367 0
M  V30 9852 C 911.757 1.57439 1.27355 0
M  V30 9853 C 912.085 0.25338 1.92843 0
M  V30 9854 O 911.34 -0.757323 1.80452 0
M  V30 9855 C 911.639 2.67003 2.3758 0
M  V30 9856 C 911.305 4.09069 1.89667 0
M  V30 9857 C 909.967 4.47733 1.76319 0
M  V30 9858 C 912.319 4.98052 1.53603 0
M  V30 9859 C 909.647 5.73173 1.25258 0
M  V30 9860 C 911.999 6.23992 1.04001 0
M  V30 9861 C 910.663 6.61503 0.892784 0
M  V30 9862 H 909.933 0.57611 0.466023 0
M  V30 9863 H 912.58 1.82595 0.577166 0
M  V30 9864 H 910.885 2.35751 3.12936 0
M  V30 9865 H 912.582 2.70876 2.95681 0
M  V30 9866 H 909.172 3.7854 2.01011 0
M  V30 9867 H 913.356 4.68849 1.62771 0
M  V30 9868 H 908.612 6.0095 1.12557 0
M  V30 9869 H 912.786 6.92331 0.751706 0
M  V30 9870 H 910.413 7.58587 0.494939 0
M  V30 9871 N 911.988 -0.768124 1.37614 0
M  V30 9872 C 912.918 -1.89537 1.36374 0
M  V30 9873 C 913.899 -1.68513 0.231803 0
M  V30 9874 O 915.084 -1.89318 0.432705 0
M  V30 9875 C 912.214 -3.26871 1.17358 0
M  V30 9876 C 911.168 -3.62466 2.27602 0
M  V30 9877 C 910.494 -4.9838 1.93705 0
M  V30 9878 C 911.794 -3.68841 3.69802 0
M  V30 9879 H 913.488 -1.90832 2.30702 0
M  V30 9880 H 911.034 -0.91672 1.11051 0
M  V30 9881 H 912.987 -4.05371 1.15119 0
M  V30 9882 H 911.711 -3.26018 0.194865 0
M  V30 9883 H 910.37 -2.86276 2.29002 0
M  V30 9884 H 910.018 -4.94071 0.943539 0
M  V30 9885 H 909.718 -5.23165 2.6753 0
M  V30 9886 H 911.242 -5.79276 1.93059 0
M  V30 9887 H 912.656 -4.37485 3.70513 0
M  V30 9888 H 911.053 -4.05126 4.42711 0
M  V30 9889 H 912.123 -2.69415 4.03167 0
M  V30 9890 N 913.466 -1.22244 -0.994698 0
M  V30 9891 C 914.715 -1.04005 -1.72817 0
M  V30 9892 C 915.028 0.425413 -1.90918 0
M  V30 9893 O 916.234 0.727429 -2.61574 0
M  V30 9894 C 914.69 -1.81244 -3.10932 0
M  V30 9895 C 914.298 -3.32028 -3.00768 0
M  V30 9896 C 916.042 -1.71448 -3.88337 0
M  V30 9897 C 913.949 -4.01716 -4.34026 0
M  V30 9898 H 912.879 -0.385559 -0.647966 0
M  V30 9899 H 915.53 -1.46077 -1.11058 0
M  V30 9900 H 913.912 -1.3197 -3.73363 0
M  V30 9901 H 915.086 -3.88682 -2.47513 0
M  V30 9902 H 913.401 -3.4248 -2.36846 0
M  V30 9903 H 915.998 -2.20836 -4.86965 0
M  V30 9904 H 916.341 -0.674568 -4.10798 0
M  V30 9905 H 916.874 -2.18256 -3.3258 0
M  V30 9906 H 913.613 -5.05952 -4.16765 0
M  V30 9907 H 913.133 -3.49849 -4.87202 0
M  V30 9908 H 914.812 -4.0721 -5.02782 0
M  V30 9909 N 914.944 1.19125 -1.03184 0
M  V30 9910 C 916.169 1.93379 -0.749628 0
M  V30 9911 C 916.594 1.75153 0.685785 0
M  V30 9912 O 915.952 1.05579 1.47386 0
M  V30 9913 C 916 3.43101 -1.1097 0
M  V30 9914 O 915.104 4.11758 -0.230053 0
M  V30 9915 H 914.445 0.603605 -0.276689 0
M  V30 9916 H 916.975 1.51116 -1.37931 0
M  V30 9917 H 916.985 3.93778 -1.06785 0
M  V30 9918 H 915.66 3.55688 -2.15544 0
M  V30 9919 H 914.237 3.7143 -0.330748 0
M  V30 9920 N 916.422 0.810101 1.35185 0
M  V30 9921 C 917.369 0.220927 2.2974 0
M  V30 9922 C 918.339 -0.647024 1.5298 0
M  V30 9923 O 919.524 -0.591367 1.81404 0
M  V30 9924 C 916.664 -0.62167 3.39454 0
M  V30 9925 C 915.777 0.267104 4.31173 0
M  V30 9926 C 914.912 -0.583833 5.27982 0
M  V30 9927 C 913.951 0.305123 6.11339 0
M  V30 9928 N 913.088 -0.505992 7.00274 0
M  V30 9929 H 917.928 1.03266 2.79536 0
M  V30 9930 H 915.465 0.520768 1.37573 0
M  V30 9931 H 917.423 -1.12539 4.01735 0
M  V30 9932 H 916.053 -1.39863 2.90926 0
M  V30 9933 H 915.105 0.88895 3.69867 0
M  V30 9934 H 916.417 0.951182 4.89647 0
M  V30 9935 H 915.571 -1.15254 5.95652 0
M  V30 9936 H 914.31 -1.30146 4.70014 0
M  V30 9937 H 913.315 0.886075 5.42613 0
M  V30 9938 H 914.54 1.02067 6.71386 0
M  V30 9939 H 912.486 -1.20753 6.4479 0
M  V30 9940 H 912.403 0.119966 7.55905 0
M  V30 9941 H 913.671 -1.05787 7.72288 0
M  V30 9942 N 917.9 -1.47166 0.563914 0
M  V30 9943 C 918.832 -2.28165 -0.217583 0
M  V30 9944 C 919.845 -1.37405 -0.873134 0
M  V30 9945 O 921.034 -1.6217 -0.745857 0
M  V30 9946 C 918.134 -3.11873 -1.32621 0
M  V30 9947 C 917.307 -4.30637 -0.766177 0
M  V30 9948 C 916.366 -4.95889 -1.76014 0
M  V30 9949 O 915.392 -5.54071 -1.3036 0
M  V30 9950 N 916.594 -4.91191 -3.09373 0
M  V30 9951 H 919.359 -2.95876 0.477256 0
M  V30 9952 H 916.92 -1.5687 0.40043 0
M  V30 9953 H 918.912 -3.52392 -1.99003 0
M  V30 9954 H 917.482 -2.46361 -1.92419 0
M  V30 9955 H 916.702 -3.94129 0.0745998 0
M  V30 9956 H 917.99 -5.07442 -0.371472 0
M  V30 9957 H 917.388 -4.45133 -3.49104 0
M  V30 9958 H 915.945 -5.35708 -3.71295 0
M  V30 9959 N 919.378 -0.300708 -1.54705 0
M  V30 9960 C 920.308 0.568675 -2.26469 0
M  V30 9961 C 921.289 1.13817 -1.26411 0
M  V30 9962 O 922.474 1.16756 -1.55183 0
M  V30 9963 C 919.604 1.74077 -3.00524 0
M  V30 9964 C 918.558 1.30165 -4.07727 0
M  V30 9965 C 917.884 2.55888 -4.69495 0
M  V30 9966 C 919.184 0.433106 -5.20501 0
M  V30 9967 H 920.878 -0.0298851 -2.99385 0
M  V30 9968 H 918.424 -0.0158135 -1.43991 0
M  V30 9969 H 920.377 2.35506 -3.49449 0
M  V30 9970 H 919.101 2.36556 -2.25186 0
M  V30 9971 H 917.76 0.710414 -3.59651 0
M  V30 9972 H 917.408 3.16681 -3.90797 0
M  V30 9973 H 917.108 2.27207 -5.41895 0
M  V30 9974 H 918.632 3.18121 -5.21183 0
M  V30 9975 H 920.046 0.95307 -5.65322 0
M  V30 9976 H 918.443 0.240085 -5.9962 0
M  V30 9977 H 919.513 -0.541866 -4.81863 0
M  V30 9978 N 920.856 1.57574 -0.0284266 0
M  V30 9979 C 922.267 1.79585 0.510502 0
M  V30 9980 C 922.618 0.938625 1.72291 0
M  V30 9981 O 921.743 0.14884 2.15888 0
M  V30 9982 C 922.338 3.25703 0.932912 0
M  V30 9983 C 920.897 3.48711 1.41696 0
M  V30 9984 C 920.044 2.74665 0.381356 0
M  V30 9985 H 922.995 1.56647 -0.254464 0
M  V30 9986 H 923.016 3.35376 1.79731 0
M  V30 9987 H 922.528 3.88067 0.0503036 0
M  V30 9988 H 920.629 2.91597 2.31952 0
M  V30 9989 H 920.742 4.57423 1.42481 0
M  V30 9990 H 919.106 2.40123 0.8493 0
M  V30 9991 H 919.889 3.39745 -0.492775 0
M  V30 9992 N 922.334 -0.244713 1.55689 0
M  V30 9993 C 923.611 -0.995407 1.68378 0
M  V30 9994 C 923.991 -2.03288 0.568949 0
M  V30 9995 O 923.339 -2.24469 -0.427299 0
M  V30 9996 C 923.549 -1.62678 3.08767 0
M  V30 9997 C 924.897 -2.1278 3.67437 0
M  V30 9998 O 925.921 -1.72614 3.11581 0
M  V30 9999 O 924.78 -2.86536 4.65359 0
M  V30 10000 H 921.874 -0.463476 0.684923 0
M  V30 10001 H 924.42 -0.238326 1.68018 0
M  V30 10002 H 923.192 -0.876469 3.81358 0
M  V30 10003 H 922.815 -2.45 3.13146 0
M  V30 10004 N 923.813 -1.49104 -0.510467 0
M  V30 10005 C 925.061 -1.578 -1.26268 0
M  V30 10006 C 925.382 -0.262349 -1.93227 0
M  V30 10007 O 924.652 0.717624 -1.82283 0
M  V30 10008 H 923.232 -0.581387 -0.46904 0
M  V30 10009 H 925.894 -1.85678 -0.592423 0
M  V30 10010 H 924.99 -2.36919 -2.03165 0
M  V30 10011 N 925.291 0.760815 -1.38019 0
M  V30 10012 C 926.539 1.51673 -1.33566 0
M  V30 10013 C 926.86 1.94852 0.076024 0
M  V30 10014 O 926.13 1.67112 1.02227 0
M  V30 10015 H 924.71 0.562581 -0.491438 0
M  V30 10016 H 927.372 0.904832 -1.72623 0
M  V30 10017 H 926.468 2.41102 -1.98182 0
M  V30 10018 N 926.769 1.22769 0.988202 0
M  V30 10019 C 928.015 1.06672 1.73184 0
M  V30 10020 C 928.37 -0.393434 1.88334 0
M  V30 10021 O 927.663 -1.2876 1.41885 0
M  V30 10022 C 927.857 1.71679 3.13466 0
M  V30 10023 C 927.686 3.23864 3.11997 0
M  V30 10024 C 926.456 3.92991 3.17626 0
M  V30 10025 C 928.654 4.20737 2.95778 0
M  V30 10026 N 926.636 5.32224 3.05959 0
M  V30 10027 C 928.007 5.46831 2.92191 0
M  V30 10028 C 930.062 4.1157 2.80205 0
M  V30 10029 C 928.765 6.64811 2.74624 0
M  V30 10030 C 930.791 5.29205 2.64 0
M  V30 10031 C 930.153 6.5422 2.61104 0
M  V30 10032 H 926.252 0.44481 0.64317 0
M  V30 10033 H 928.836 1.55381 1.17323 0
M  V30 10034 H 927.007 1.25513 3.67561 0
M  V30 10035 H 928.739 1.48629 3.76419 0
M  V30 10036 H 925.494 3.4402 3.25495 0
M  V30 10037 H 925.918 6.05197 3.03423 0
M  V30 10038 H 930.56 3.15697 2.81239 0
M  V30 10039 H 928.278 7.60828 2.72336 0
M  V30 10040 H 931.864 5.23947 2.52925 0
M  V30 10041 H 930.744 7.43713 2.48719 0
M  V30 10042 N 928.247 -1.18576 1.03814 0
M  V30 10043 C 929.472 -1.92978 0.759873 0
M  V30 10044 C 929.897 -1.75514 -0.676486 0
M  V30 10045 O 929.255 -1.06359 -1.46824 0
M  V30 10046 C 929.303 -3.42507 1.12788 0
M  V30 10047 O 928.407 -4.1163 0.251886 0
M  V30 10048 H 927.748 -0.602129 0.279886 0
M  V30 10049 H 930.278 -1.50383 1.3873 0
M  V30 10050 H 930.288 -3.93206 1.08872 0
M  V30 10051 H 928.963 -3.5454 2.17427 0
M  V30 10052 H 927.54 -3.7125 0.350441 0
M  V30 10053 N 929.725 -0.817259 -1.34754 0
M  V30 10054 C 930.635 -0.236946 -2.334 0
M  V30 10055 C 931.651 0.625685 -1.62361 0
M  V30 10056 O 932.827 0.534921 -1.94166 0
M  V30 10057 C 929.892 0.596215 -3.41535 0
M  V30 10058 C 928.953 -0.288154 -4.28332 0
M  V30 10059 C 928.186 0.505337 -5.31302 0
M  V30 10060 O 928.409 1.73912 -5.43241 0
M  V30 10061 O 927.343 -0.109374 -6.01801 0
M  V30 10062 H 931.169 -1.05327 -2.84851 0
M  V30 10063 H 928.754 -0.579275 -1.37713 0
M  V30 10064 H 930.636 1.07041 -4.07578 0
M  V30 10065 H 929.311 1.38997 -2.92338 0
M  V30 10066 H 928.218 -0.809724 -3.65232 0
M  V30 10067 H 929.551 -1.04612 -4.80955 0
M  V30 10068 N 931.203 1.46865 -0.571711 0
M  V30 10069 C 932.428 2.07323 -0.0564655 0
M  V30 10070 C 932.853 1.41938 1.23431 0
M  V30 10071 O 932.211 0.499334 1.74288 0
M  V30 10072 C 932.259 3.6044 0.107339 0
M  V30 10073 O 931.363 3.95558 1.1665 0
M  V30 10074 H 930.704 0.661475 -0.0578465 0
M  V30 10075 H 933.234 1.88669 -0.791524 0
M  V30 10076 H 933.244 4.06767 0.316987 0
M  V30 10077 H 931.919 4.07425 -0.835348 0
M  V30 10078 H 930.496 3.60957 0.936189 0
M  V30 10079 N 932.681 0.308908 1.54543 0
M  V30 10080 C 933.614 -0.605854 2.20011 0
M  V30 10081 C 934.592 -1.1269 1.17216 0
M  V30 10082 O 935.776 -1.19363 1.45893 0
M  V30 10083 C 932.903 -1.82977 2.85021 0
M  V30 10084 C 931.949 -1.44126 4.0141 0
M  V30 10085 S 932.782 -0.490445 5.33249 0
M  V30 10086 C 933.938 -1.72198 6.01746 0
M  V30 10087 H 934.171 -0.0496911 2.97258 0
M  V30 10088 H 931.704 0.0930238 1.5412 0
M  V30 10089 H 933.662 -2.53211 3.23102 0
M  V30 10090 H 932.323 -2.35711 2.07604 0
M  V30 10091 H 931.516 -2.35288 4.45708 0
M  V30 10092 H 931.118 -0.818788 3.64927 0
M  V30 10093 H 933.41 -2.66147 6.23034 0
M  V30 10094 H 934.353 -1.32142 6.95661 0
M  V30 10095 H 934.761 -1.90229 5.31482 0
M  V30 10096 N 934.159 -1.57557 0.0367827 0
M  V30 10097 C 935.106 -2.10679 -0.942499 0
M  V30 10098 C 936.076 -1.01068 -1.31812 0
M  V30 10099 O 937.261 -1.28533 -1.41011 0
M  V30 10100 C 934.401 -2.64467 -2.21701 0
M  V30 10101 C 933.514 -3.88114 -1.89715 0
M  V30 10102 C 932.649 -4.30268 -3.11518 0
M  V30 10103 C 931.688 -5.46652 -2.75387 0
M  V30 10104 N 930.825 -5.83927 -3.89838 0
M  V30 10105 H 935.665 -2.94066 -0.482588 0
M  V30 10106 H 933.202 -1.45344 -0.226597 0
M  V30 10107 H 935.16 -2.93745 -2.96259 0
M  V30 10108 H 933.79 -1.83898 -2.65295 0
M  V30 10109 H 932.842 -3.65516 -1.05366 0
M  V30 10110 H 934.154 -4.72743 -1.5911 0
M  V30 10111 H 933.308 -4.61023 -3.94389 0
M  V30 10112 H 932.047 -3.44421 -3.4529 0
M  V30 10113 H 931.052 -5.15583 -1.90929 0
M  V30 10114 H 932.277 -6.34204 -2.42822 0
M  V30 10115 H 930.223 -5.01035 -4.23438 0
M  V30 10116 H 930.14 -6.63214 -3.62883 0
M  V30 10117 H 931.408 -6.19291 -4.73391 0
M  V30 10118 N 935.637 0.236453 -1.55816 0
M  V30 10119 C 936.885 0.96111 -1.77784 0
M  V30 10120 C 937.206 1.85454 -0.602648 0
M  V30 10121 O 936.476 1.92157 0.381137 0
M  V30 10122 H 935.056 0.35787 -0.655697 0
M  V30 10123 H 937.718 0.251888 -1.93265 0
M  V30 10124 H 936.814 1.5767 -2.69345 0
M  V30 10125 N 937.115 1.49373 0.502552 0
M  V30 10126 C 938.355 1.60398 1.26696 0
M  V30 10127 C 938.719 0.283599 1.89894 0
M  V30 10128 O 939.92 0.269022 2.6745 0
M  V30 10129 C 938.191 2.72998 2.30666 0
M  V30 10130 S 939.75 3.03964 3.16466 0
M  V30 10131 H 936.568 0.565781 0.430596 0
M  V30 10132 H 939.17 1.87024 0.569418 0
M  V30 10133 H 937.874 3.67458 1.82765 0
M  V30 10134 H 937.405 2.4836 3.05091 0
M  V30 10135 H 939.42 2.45367 4.31288 0
M  V30 10136 N 938.594 -0.753485 1.38421 0
M  V30 10137 C 939.504 -1.89797 1.37892 0
M  V30 10138 C 940.52 -1.71797 0.276023 0
M  V30 10139 O 941.696 -1.94718 0.514464 0
M  V30 10140 C 938.761 -3.25166 1.20284 0
M  V30 10141 C 937.822 -3.55691 2.4038 0
M  V30 10142 C 937.055 -4.84601 2.23602 0
M  V30 10143 O 937.278 -5.56985 1.22979 0
M  V30 10144 O 936.212 -5.14605 3.12194 0
M  V30 10145 H 940.038 -1.93197 2.34326 0
M  V30 10146 H 937.623 -0.898775 1.19342 0
M  V30 10147 H 939.505 -4.06099 1.12525 0
M  V30 10148 H 938.18 -3.22577 0.269352 0
M  V30 10149 H 937.087 -2.74919 2.53714 0
M  V30 10150 H 938.42 -3.6304 3.32359 0
M  V30 10151 N 940.072 -1.23292 -0.981677 0
M  V30 10152 C 941.3 -1.09088 -1.75805 0
M  V30 10153 C 941.715 0.357746 -1.8538 0
M  V30 10154 O 941.072 1.24751 -1.33205 0
M  V30 10155 C 941.123 -1.70885 -3.1856 0
M  V30 10156 O 940.844 -3.10082 -3.09484 0
M  V30 10157 C 942.345 -1.62106 -4.12597 0
M  V30 10158 H 939.565 -0.38184 -0.55176 0
M  V30 10159 H 942.109 -1.63116 -1.23342 0
M  V30 10160 H 940.264 -1.20893 -3.68054 0
M  V30 10161 H 940.678 -3.40039 -3.99342 0
M  V30 10162 H 942.152 -2.10049 -5.10474 0
M  V30 10163 H 942.629 -0.579642 -4.35358 0
M  V30 10164 H 943.235 -2.11457 -3.69007 0
M  V30 10165 N 941.55 1.18024 -1.04442 0
M  V30 10166 C 942.5 2.19714 -0.609069 0
M  V30 10167 C 943.484 1.57037 0.350473 0
M  V30 10168 O 944.676 1.76192 0.16892 0
M  V30 10169 C 941.805 3.43293 0.0225911 0
M  V30 10170 C 940.891 4.13084 -0.960325 0
M  V30 10171 N 941.282 4.58819 -2.12883 0
M  V30 10172 C 939.58 4.38999 -0.787146 0
M  V30 10173 C 940.281 5.12589 -2.75004 0
M  V30 10174 N 939.257 5.04333 -2.02853 0
M  V30 10175 H 943.059 2.5277 -1.49948 0
M  V30 10176 H 940.573 1.34271 -0.913517 0
M  V30 10177 H 942.57 4.1541 0.352196 0
M  V30 10178 H 941.23 3.11731 0.908495 0
M  V30 10179 H 942.241 4.53148 -2.50754 0
M  V30 10180 H 938.918 4.17472 0.048348 0
M  V30 10181 H 940.308 5.58152 -3.74053 0
M  V30 10182 N 943.028 0.824394 1.34319 0
M  V30 10183 C 944.253 0.425194 2.02995 0
M  V30 10184 C 944.678 -0.961476 1.6167 0
M  V30 10185 O 944.036 -1.62593 0.80207 0
M  V30 10186 C 944.084 0.537004 3.56579 0
M  V30 10187 O 943.188 -0.442576 4.10018 0
M  V30 10188 H 942.529 0.174853 0.640564 0
M  V30 10189 H 945.059 1.11522 1.71534 0
M  V30 10190 H 945.069 0.413311 4.05901 0
M  V30 10191 H 943.744 1.54836 3.86004 0
M  V30 10192 H 942.321 -0.277644 3.71865 0
M  V30 10193 N 944.506 -1.46559 0.579492 0
M  V30 10194 C 945.736 -2.06484 0.0692642 0
M  V30 10195 C 946.144 -1.4293 -1.23967 0
M  V30 10196 O 945.487 -0.527632 -1.75959 0
M  V30 10197 C 945.549 -3.59078 -0.174174 0
M  V30 10198 C 945.213 -4.44805 1.04867 0
M  V30 10199 C 946.21 -4.81543 1.95991 0
M  V30 10200 C 943.895 -4.8599 1.26961 0
M  V30 10201 C 945.889 -5.58288 3.0756 0
M  V30 10202 C 943.576 -5.62495 2.38836 0
M  V30 10203 C 944.574 -5.98558 3.28964 0
M  V30 10204 O 944.262 -6.73518 4.38896 0
M  V30 10205 H 943.994 -0.673917 0.0530331 0
M  V30 10206 H 946.548 -1.89223 0.79898 0
M  V30 10207 H 944.778 -3.74634 -0.958464 0
M  V30 10208 H 946.467 -4.00941 -0.632515 0
M  V30 10209 H 947.233 -4.50307 1.80136 0
M  V30 10210 H 943.112 -4.57372 0.577184 0
M  V30 10211 H 946.656 -5.86355 3.77933 0
M  V30 10212 H 942.553 -5.93145 2.54655 0
M  V30 10213 H 943.321 -6.91938 4.37223 0
M  V30 10214 N 945.984 -0.3171 -1.54377 0
M  V30 10215 C 947.23 0.287836 -2.00747 0
M  V30 10216 C 947.563 1.52292 -1.20502 0
M  V30 10217 O 946.838 1.92391 -0.285626 0
M  V30 10218 C 947.121 0.628423 -3.54574 0
M  V30 10219 C 946.974 -0.616922 -4.45549 0
M  V30 10220 C 948.293 1.44862 -4.15575 0
M  V30 10221 H 945.412 0.103144 -0.729747 0
M  V30 10222 H 948.054 -0.432396 -1.85014 0
M  V30 10223 H 946.204 1.24203 -3.68111 0
M  V30 10224 H 947.876 -1.25526 -4.43893 0
M  V30 10225 H 946.119 -1.24706 -4.15489 0
M  V30 10226 H 946.79 -0.334243 -5.50987 0
M  V30 10227 H 949.266 0.930015 -4.05574 0
M  V30 10228 H 948.142 1.6557 -5.23333 0
M  V30 10229 H 948.403 2.44279 -3.68484 0
M  V30 10230 N 947.462 1.57535 -0.0451378 0
M  V30 10231 C 948.41 2.12351 0.949205 0
M  V30 10232 C 949.404 1.05386 1.32628 0
M  V30 10233 O 950.61 1.23802 1.30664 0
M  V30 10234 H 946.985 0.678648 0.323945 0
M  V30 10235 H 948.956 2.94806 0.461718 0
M  V30 10236 C 947.705 2.67862 2.21687 0
M  V30 10237 H 947.028 3.49826 1.93551 0
M  V30 10238 H 948.468 3.09844 2.89435 0
M  V30 10239 C 946.927 1.61353 2.95748 0
M  V30 10240 O 947.457 1.02276 3.88462 0
M  V30 10241 N 945.663 1.33017 2.5837 0
M  V30 10242 H 945.21 1.81246 1.83051 0
M  V30 10243 H 945.168 0.619812 3.0823 0
M  V30 10244 N 948.94 -0.228186 1.55939 0
M  V30 10245 C 950.188 -0.951668 1.78291 0
M  V30 10246 C 950.509 -1.85132 0.612474 0
M  V30 10247 O 949.779 -1.92356 -0.370942 0
M  V30 10248 H 948.359 -0.354388 0.657585 0
M  V30 10249 H 951.021 -0.241635 1.93396 0
M  V30 10250 H 950.117 -1.56239 2.70177 0
M  V30 10251 N 950.418 -1.49637 -0.494624 0
M  V30 10252 C 951.328 -1.69522 -1.62172 0
M  V30 10253 C 952.344 -0.577894 -1.64123 0
M  V30 10254 O 953.52 -0.853382 -1.82426 0
M  V30 10255 C 950.585 -1.7633 -2.9851 0
M  V30 10256 C 949.646 -2.99944 -3.07135 0
M  V30 10257 C 948.879 -3.06419 -4.36971 0
M  V30 10258 O 949.102 -2.20312 -5.26136 0
M  V30 10259 O 948.036 -3.9894 -4.507 0
M  V30 10260 H 951.862 -2.65017 -1.48324 0
M  V30 10261 H 949.447 -1.33454 -0.671603 0
M  V30 10262 H 951.329 -1.83125 -3.7953 0
M  V30 10263 H 950.004 -0.840155 -3.12607 0
M  V30 10264 H 948.911 -2.98664 -2.2528 0
M  V30 10265 H 950.244 -3.9176 -2.97968 0
M  V30 10266 N 951.896 0.746133 -1.38819 0
M  V30 10267 C 952.844 1.88137 -1.36774 0
M  V30 10268 C 953.838 1.67508 -0.252495 0
M  V30 10269 O 955.044 1.74985 -0.421935 0
M  V30 10270 H 951.419 0.619116 -0.426849 0
M  V30 10271 H 953.39 1.86978 -2.32555 0
M  V30 10272 C 952.139 3.25703 -1.21708 0
M  V30 10273 H 951.462 3.42168 -2.06788 0
M  V30 10274 H 952.902 4.05361 -1.24332 0
M  V30 10275 C 951.361 3.36816 0.0754257 0
M  V30 10276 O 951.891 3.87742 1.04972 0
M  V30 10277 N 950.097 2.90287 0.134761 0
M  V30 10278 H 949.644 2.49034 -0.658779 0
M  V30 10279 H 949.602 2.98103 0.999109 0
M  V30 10280 N 953.375 1.23811 0.975125 0
M  V30 10281 C 954.6 1.10109 1.75757 0
M  V30 10282 C 955.025 -0.342922 1.84948 0
M  V30 10283 O 954.383 -1.24814 1.31496 0
M  V30 10284 C 954.431 1.73724 3.15994 0
M  V30 10285 O 953.535 1.00297 4.00018 0
M  V30 10286 H 952.876 0.385627 0.540544 0
M  V30 10287 H 955.406 1.63971 1.22372 0
M  V30 10288 H 955.416 1.79178 3.6655 0
M  V30 10289 H 954.091 2.78794 3.0862 0
M  V30 10290 H 952.668 1.02575 3.58515 0
M  V30 10291 N 954.853 -1.17469 1.05066 0
M  V30 10292 C 955.783 -2.23635 0.671552 0
M  V30 10293 C 956.764 -1.66867 -0.33006 0
M  V30 10294 O 957.949 -1.93084 -0.207933 0
M  V30 10295 C 955.079 -3.47272 0.0441845 0
M  V30 10296 C 954.033 -4.16854 0.97042 0
M  V30 10297 C 953.359 -5.34299 0.206998 0
M  V30 10298 C 954.659 -4.69225 2.29401 0
M  V30 10299 H 956.353 -2.55602 1.55911 0
M  V30 10300 H 953.899 -1.2286 0.751101 0
M  V30 10301 H 955.852 -4.20756 -0.23282 0
M  V30 10302 H 954.576 -3.14568 -0.878311 0
M  V30 10303 H 953.235 -3.4528 1.23197 0
M  V30 10304 H 952.883 -4.97846 -0.718222 0
M  V30 10305 H 952.583 -5.81792 0.82416 0
M  V30 10306 H 954.107 -6.10568 -0.0627525 0
M  V30 10307 H 955.521 -5.34353 2.077 0
M  V30 10308 H 953.918 -5.27291 2.86503 0
M  V30 10309 H 954.988 -3.86102 2.93348 0
M  V30 10310 N 956.331 -0.831506 -1.3388 0
M  V30 10311 C 957.577 -0.424302 -1.98312 0
M  V30 10312 C 957.91 1.01211 -1.65741 0
M  V30 10313 O 957.185 1.70636 -0.933464 0
M  V30 10314 C 957.468 -0.636815 -3.54424 0
M  V30 10315 C 957.321 -2.11997 -3.96708 0
M  V30 10316 C 958.64 -0.0782411 -4.4003 0
M  V30 10317 H 955.759 -0.155637 -0.720379 0
M  V30 10318 H 958.401 -1.04566 -1.58638 0
M  V30 10319 H 956.551 -0.107907 -3.8835 0
M  V30 10320 H 958.223 -2.71317 -3.73075 0
M  V30 10321 H 956.466 -2.60723 -3.46707 0
M  V30 10322 H 957.137 -2.21944 -5.05416 0
M  V30 10323 H 959.613 -0.530243 -4.12708 0
M  V30 10324 H 958.489 -0.256676 -5.483 0
M  V30 10325 H 958.75 1.01745 -4.30233 0
M  V30 10326 N 957.809 1.4625 -0.587256 0
M  V30 10327 C 959.055 2.02662 -0.0746851 0
M  V30 10328 C 959.388 1.45723 1.28368 0
M  V30 10329 O 958.663 0.624062 1.84216 0
M  V30 10330 C 958.946 3.60097 -0.0138109 0
M  V30 10331 C 958.799 4.27412 -1.4014 0
M  V30 10332 C 960.118 4.34744 0.684491 0
M  V30 10333 H 957.237 0.736444 -0.0286144 0
M  V30 10334 H 959.879 1.74341 -0.755328 0
M  V30 10335 H 958.029 3.84357 0.56583 0
M  V30 10336 H 959.701 4.14401 -2.02656 0
M  V30 10337 H 957.944 3.86598 -1.96785 0
M  V30 10338 H 958.615 5.362 -1.31124 0
M  V30 10339 H 961.091 4.15657 0.192023 0
M  V30 10340 H 959.967 5.44468 0.696127 0
M  V30 10341 H 960.228 4.06132 1.74669 0
M  V30 10342 N 959.287 0.325282 1.54207 0
M  V30 10343 C 960.219 -0.57395 2.21897 0
M  V30 10344 C 961.232 -1.0785 1.21952 0
M  V30 10345 O 962.421 -0.991782 1.48411 0
M  V30 10346 C 959.521 -1.8005 2.87115 0
M  V30 10347 C 958.694 -1.43435 4.13213 0
M  V30 10348 C 957.753 -2.51862 4.62009 0
M  V30 10349 O 956.779 -2.15934 5.26651 0
M  V30 10350 N 957.981 -3.8282 4.36382 0
M  V30 10351 H 960.746 0.00566918 2.99699 0
M  V30 10352 H 958.307 0.148563 1.61217 0
M  V30 10353 H 960.299 -2.51981 3.16682 0
M  V30 10354 H 958.869 -2.28792 2.13009 0
M  V30 10355 H 958.089 -0.546598 3.90392 0
M  V30 10356 H 959.377 -1.16544 4.95273 0
M  V30 10357 H 958.775 -4.14807 3.84645 0
M  V30 10358 H 957.332 -4.50976 4.70599 0
M  V30 10359 N 960.765 -1.57509 0.0534917 0
M  V30 10360 C 961.99 -1.97511 -0.632794 0
M  V30 10361 C 962.415 -0.930947 -1.63447 0
M  V30 10362 O 961.773 0.105558 -1.80992 0
M  V30 10363 C 961.821 -3.3658 -1.29407 0
M  V30 10364 O 960.925 -3.3467 -2.40977 0
M  V30 10365 H 960.266 -0.643349 -0.16431 0
M  V30 10366 H 962.796 -2.04232 0.12258 0
M  V30 10367 H 962.806 -3.73359 -1.64521 0
M  V30 10368 H 961.481 -4.12113 -0.559976 0
M  V30 10369 H 960.058 -3.09639 -2.07793 0
M  V30 10370 N 962.243 0.219913 -1.56058 0
M  V30 10371 C 963.206 1.25606 -1.91718 0
M  V30 10372 C 964.206 1.39721 -0.795912 0
M  V30 10373 O 965.396 1.37958 -1.06364 0
M  V30 10374 C 962.528 2.62961 -2.16943 0
M  V30 10375 H 963.721 0.951909 -2.84392 0
M  V30 10376 H 961.274 0.460398 -1.49365 0
M  V30 10377 H 962.009 2.98472 -1.26826 0
M  V30 10378 H 961.794 2.54093 -2.98629 0
M  V30 10379 H 963.284 3.37727 -2.45622 0
M  V30 10380 N 963.721 1.49897 0.486681 0
M  V30 10381 C 964.967 1.61313 1.23893 0
M  V30 10382 C 965.322 0.302457 1.90008 0
M  V30 10383 O 964.615 -0.698466 1.78415 0
M  V30 10384 C 964.809 2.71982 2.31863 0
M  V30 10385 C 964.638 4.13685 1.76338 0
M  V30 10386 C 963.408 4.8029 1.57002 0
M  V30 10387 C 965.606 4.98446 1.26711 0
M  V30 10388 N 963.588 6.06259 0.965564 0
M  V30 10389 C 964.959 6.15011 0.784912 0
M  V30 10390 C 967.014 4.84338 1.15419 0
M  V30 10391 C 965.717 7.19019 0.200942 0
M  V30 10392 C 967.743 5.88508 0.584173 0
M  V30 10393 C 967.105 7.04311 0.112272 0
M  V30 10394 H 963.204 0.644555 0.442801 0
M  V30 10395 H 965.788 1.86959 0.543562 0
M  V30 10396 H 963.959 2.48086 2.98844 0
M  V30 10397 H 965.691 2.72842 2.98897 0
M  V30 10398 H 962.446 4.37324 1.81781 0
M  V30 10399 H 962.87 6.73554 0.6822 0
M  V30 10400 H 967.512 3.95107 1.50499 0
M  V30 10401 H 965.23 8.07937 -0.162099 0
M  V30 10402 H 968.816 5.79653 0.49938 0
M  V30 10403 H 967.696 7.83539 -0.321907 0
M  V30 10404 N 965.199 -0.738761 1.39212 0
M  V30 10405 C 966.162 -1.83441 1.37412 0
M  V30 10406 C 967.162 -1.58484 0.271908 0
M  V30 10407 O 968.352 -1.65954 0.529609 0
M  V30 10408 C 965.484 -3.21167 1.143 0
M  V30 10409 H 966.677 -1.86441 2.34904 0
M  V30 10410 H 964.23 -0.942023 1.24722 0
M  V30 10411 H 964.965 -3.23829 0.174756 0
M  V30 10412 H 964.75 -3.40678 1.94116 0
M  V30 10413 H 966.24 -4.01231 1.15773 0
M  V30 10414 N 966.677 -1.24326 -0.968545 0
M  V30 10415 C 967.607 -1.05951 -2.08079 0
M  V30 10416 C 968.588 0.0272666 -1.70078 0
M  V30 10417 O 969.773 -0.139644 -1.93697 0
M  V30 10418 C 966.903 -0.662623 -3.4092 0
M  V30 10419 C 965.857 -1.69807 -3.92873 0
M  V30 10420 C 965.183 -1.15628 -5.22048 0
M  V30 10421 C 966.483 -3.09383 -4.20808 0
M  V30 10422 H 968.177 -1.98984 -2.23709 0
M  V30 10423 H 965.723 -0.958112 -1.075 0
M  V30 10424 H 967.676 -0.521071 -4.18166 0
M  V30 10425 H 966.4 0.303399 -3.25188 0
M  V30 10426 H 965.059 -1.82783 -3.17783 0
M  V30 10427 H 964.707 -0.180888 -5.02675 0
M  V30 10428 H 964.407 -1.84822 -5.57776 0
M  V30 10429 H 965.931 -1.02683 -6.01904 0
M  V30 10430 H 967.345 -2.99642 -4.88761 0
M  V30 10431 H 965.742 -3.75923 -4.67763 0
M  V30 10432 H 966.812 -3.57486 -3.27616 0
M  V30 10433 N 968.156 1.1691 -1.05688 0
M  V30 10434 C 969.405 1.86629 -0.765022 0
M  V30 10435 C 969.718 1.82223 0.710918 0
M  V30 10436 O 970.924 2.47462 1.11691 0
M  V30 10437 C 969.38 3.34886 -1.3183 0
M  V30 10438 C 968.988 3.47781 -2.82404 0
M  V30 10439 C 970.732 4.099 -1.10372 0
M  V30 10440 C 968.639 4.9009 -3.31008 0
M  V30 10441 H 967.569 0.699082 -0.282491 0
M  V30 10442 H 970.22 1.31989 -1.27481 0
M  V30 10443 H 968.602 3.89094 -0.736312 0
M  V30 10444 H 969.776 3.03765 -3.46502 0
M  V30 10445 H 968.091 2.86193 -3.02461 0
M  V30 10446 H 970.688 5.14894 -1.4418 0
M  V30 10447 H 971.031 4.16279 -0.0417372 0
M  V30 10448 H 971.564 3.61913 -1.65117 0
M  V30 10449 H 968.303 4.88887 -4.36657 0
M  V30 10450 H 967.823 5.34756 -2.71655 0
M  V30 10451 H 969.502 5.58881 -3.25977 0
M  V30 10452 N 969.634 0.838594 1.33437 0
M  V30 10453 C 970.882 0.433312 1.974 0
M  V30 10454 C 971.203 -1.01078 1.66758 0
M  V30 10455 O 970.473 -1.70406 0.966373 0
M  V30 10456 H 969.053 0.15724 0.730263 0
M  V30 10457 H 971.715 1.07149 1.62804 0
M  V30 10458 H 970.811 0.565144 3.06941 0
M  V30 10459 N 971.112 -1.45937 0.595003 0
M  V30 10460 C 972.042 -2.33198 -0.11871 0
M  V30 10461 C 973.023 -1.46083 -0.871423 0
M  V30 10462 O 974.208 -1.74879 -0.844461 0
M  V30 10463 C 971.338 -3.28576 -1.12495 0
M  V30 10464 C 970.292 -4.25229 -0.486275 0
M  V30 10465 C 969.618 -5.10204 -1.59986 0
M  V30 10466 C 970.918 -5.19019 0.584473 0
M  V30 10467 H 972.612 -2.93122 0.609886 0
M  V30 10468 H 970.158 -1.40951 0.294742 0
M  V30 10469 H 972.111 -3.88485 -1.6327 0
M  V30 10470 H 970.835 -2.66784 -1.88398 0
M  V30 10471 H 969.494 -3.666 0.000507962 0
M  V30 10472 H 969.142 -4.44789 -2.34886 0
M  V30 10473 H 968.842 -5.75669 -1.1781 0
M  V30 10474 H 970.366 -5.7298 -2.11014 0
M  V30 10475 H 971.78 -5.73073 0.161297 0
M  V30 10476 H 970.177 -5.92893 0.927256 0
M  V30 10477 H 971.247 -4.62208 1.46601 0
M  V30 10478 N 972.59 -0.333456 -1.54032 0
M  V30 10479 C 973.839 0.267081 -1.99924 0
M  V30 10480 C 974.152 1.52463 -1.22534 0
M  V30 10481 O 975.358 2.20178 -1.58852 0
M  V30 10482 C 973.814 0.526456 -3.56029 0
M  V30 10483 C 973.422 -0.714607 -4.42264 0
M  V30 10484 C 975.166 1.0864 -4.10363 0
M  V30 10485 C 973.073 -0.42659 -5.89859 0
M  V30 10486 H 972.003 0.103577 -0.746852 0
M  V30 10487 H 974.654 -0.447218 -1.77967 0
M  V30 10488 H 973.036 1.3012 -3.74012 0
M  V30 10489 H 974.21 -1.48968 -4.36056 0
M  V30 10490 H 972.525 -1.19547 -3.9887 0
M  V30 10491 H 975.122 1.31668 -5.18235 0
M  V30 10492 H 975.465 2.03884 -3.62956 0
M  V30 10493 H 975.998 0.37261 -3.96051 0
M  V30 10494 H 972.737 -1.34847 -6.4148 0
M  V30 10495 H 972.257 0.310588 -5.98995 0
M  V30 10496 H 973.936 -0.0400807 -6.46988 0
M  V30 10497 N 974.068 1.57479 -0.061844 0
M  V30 10498 C 974.998 2.15181 0.9066 0
M  V30 10499 C 975.979 1.07624 1.31724 0
M  V30 10500 O 977.164 1.35614 1.39006 0
M  V30 10501 C 974.294 2.70542 2.17771 0
M  V30 10502 C 973.248 3.83178 1.9068 0
M  V30 10503 C 972.574 4.25099 3.24337 0
M  V30 10504 C 973.874 5.07853 1.21994 0
M  V30 10505 H 975.568 2.96355 0.42594 0
M  V30 10506 H 973.114 1.42556 0.203435 0
M  V30 10507 H 975.067 3.09552 2.85929 0
M  V30 10508 H 973.791 1.86575 2.68062 0
M  V30 10509 H 972.45 3.44656 1.24931 0
M  V30 10510 H 972.098 3.38069 3.72449 0
M  V30 10511 H 971.798 5.01021 3.07005 0
M  V30 10512 H 973.322 4.66718 3.93709 0
M  V30 10513 H 974.736 5.44242 1.80204 0
M  V30 10514 H 973.133 5.88987 1.14954 0
M  V30 10515 H 974.203 4.84497 0.197536 0
M  V30 10516 N 975.546 -0.211634 1.56173 0
M  V30 10517 C 976.794 -0.932704 1.7929 0
M  V30 10518 C 977.115 -1.84472 0.632076 0
M  V30 10519 O 976.385 -1.92739 -0.350519 0
M  V30 10520 H 974.965 -0.347393 0.661307 0
M  V30 10521 H 977.627 -0.22111 1.93642 0
M  V30 10522 H 976.723 -1.53365 2.71819 0
M  V30 10523 N 977.024 -1.50153 -0.478725 0
M  V30 10524 C 977.972 -1.68975 -1.59844 0
M  V30 10525 C 978.966 -0.555591 -1.6003 0
M  V30 10526 O 980.172 -0.735875 -1.64271 0
M  V30 10527 H 976.547 -0.533211 -0.530274 0
M  V30 10528 H 978.518 -2.62917 -1.41128 0
M  V30 10529 C 977.267 -1.79409 -2.97838 0
M  V30 10530 H 976.59 -2.66066 -2.98411 0
M  V30 10531 H 978.03 -1.96606 -3.75662 0
M  V30 10532 C 976.489 -0.543927 -3.3248 0
M  V30 10533 O 977.019 0.320376 -4.0042 0
M  V30 10534 N 975.225 -0.400217 -2.87831 0
M  V30 10535 H 974.772 -1.10458 -2.32716 0
M  V30 10536 H 974.73 0.435111 -3.11375 0
M  V30 10537 N 978.502 0.731368 -1.39602 0
M  V30 10538 C 979.732 1.51839 -1.40102 0
M  V30 10539 C 980.14 1.89199 0.00526634 0
M  V30 10540 O 979.483 1.54877 0.987874 0
M  V30 10541 C 979.545 2.83292 -2.21328 0
M  V30 10542 C 979.209 2.68345 -3.69919 0
M  V30 10543 C 980.206 2.36651 -4.62917 0
M  V30 10544 C 977.891 2.85102 -4.13548 0
M  V30 10545 C 979.885 2.21901 -5.97527 0
M  V30 10546 C 977.572 2.69971 -5.48233 0
M  V30 10547 C 978.57 2.38416 -6.40037 0
M  V30 10548 O 978.258 2.23383 -7.72241 0
M  V30 10549 H 977.99 0.475695 -0.480302 0
M  V30 10550 H 980.544 0.911096 -1.84087 0
M  V30 10551 H 978.774 3.46294 -1.72096 0
M  V30 10552 H 980.463 3.44928 -2.13961 0
M  V30 10553 H 981.229 2.23352 -4.3051 0
M  V30 10554 H 977.108 3.08655 -3.42423 0
M  V30 10555 H 980.652 1.97193 -6.69149 0
M  V30 10556 H 976.549 2.82849 -5.8023 0
M  V30 10557 H 977.317 2.38425 -7.83004 0
M  V30 10558 N 979.98 1.24838 0.961938 0
M  V30 10559 C 981.391 1.08369 1.5203 0
M  V30 10560 C 981.742 -0.343005 1.93178 0
M  V30 10561 O 980.867 -1.2321 1.779 0
M  V30 10562 C 981.462 1.96102 2.76278 0
M  V30 10563 C 980.021 1.8384 3.28451 0
M  V30 10564 C 979.168 1.9069 2.01327 0
M  V30 10565 H 982.119 1.38231 0.779613 0
M  V30 10566 H 982.14 1.4967 3.49827 0
M  V30 10567 H 981.652 2.99931 2.46298 0
M  V30 10568 H 979.753 0.828653 3.63269 0
M  V30 10569 H 979.866 2.68251 3.96961 0
M  V30 10570 H 978.23 1.34488 2.16299 0
M  V30 10571 H 979.013 2.96111 1.73705 0
M  V30 10572 N 981.458 -1.16348 1.06306 0
M  V30 10573 C 982.735 -1.829 0.69331 0
M  V30 10574 C 983.115 -1.94298 -0.82531 0
M  V30 10575 O 982.463 -1.48619 -1.73565 0
M  V30 10576 C 982.673 -3.1989 1.3954 0
M  V30 10577 C 984.021 -3.95662 1.54068 0
M  V30 10578 O 985.045 -3.29408 1.35532 0
M  V30 10579 O 983.904 -5.14422 1.84479 0
M  V30 10580 H 980.998 -0.789738 0.245445 0
M  V30 10581 H 983.544 -1.23549 1.16334 0
M  V30 10582 H 982.316 -3.06629 2.43093 0
M  V30 10583 H 981.939 -3.86918 0.915453 0
M  V30 10584 N 982.937 -0.845659 -1.3299 0
M  V30 10585 C 983.847 -0.2864 -2.32845 0
M  V30 10586 C 984.863 0.591105 -1.63652 0
M  V30 10587 O 986.039 0.493615 -1.95257 0
M  V30 10588 C 983.104 0.523636 -3.42723 0
M  V30 10589 C 982.165 -0.378945 -4.27624 0
M  V30 10590 C 981.398 0.392526 -5.32255 0
M  V30 10591 O 981.621 1.6235 -5.46808 0
M  V30 10592 O 980.555 -0.237 -6.01433 0
M  V30 10593 H 984.381 -1.11346 -2.82552 0
M  V30 10594 H 981.966 -0.608356 -1.36453 0
M  V30 10595 H 983.848 0.983718 -4.09757 0
M  V30 10596 H 982.523 1.32764 -2.95221 0
M  V30 10597 H 981.43 -0.887012 -3.63432 0
M  V30 10598 H 982.763 -1.1479 -4.78627 0
M  V30 10599 N 984.415 1.45619 -0.602734 0
M  V30 10600 C 985.325 2.34288 0.120902 0
M  V30 10601 C 986.341 1.50952 0.865414 0
M  V30 10602 O 987.517 1.83768 0.824094 0
M  V30 10603 C 984.582 3.28489 1.10888 0
M  V30 10604 C 983.643 4.2773 0.366853 0
M  V30 10605 C 982.876 5.17429 1.30776 0
M  V30 10606 O 983.099 5.10459 2.54535 0
M  V30 10607 O 982.033 5.96459 0.807464 0
M  V30 10608 H 985.859 2.97559 -0.60765 0
M  V30 10609 H 983.444 1.44922 -0.363019 0
M  V30 10610 H 985.326 3.86549 1.67803 0
M  V30 10611 H 984.001 2.67789 1.81854 0
M  V30 10612 H 982.908 3.73299 -0.244643 0
M  V30 10613 H 984.241 4.91271 -0.302226 0
M  V30 10614 N 985.893 0.34162 1.53853 0
M  V30 10615 C 987.304 -0.14269 1.86154 0
M  V30 10616 C 987.655 -1.50151 1.2629 0
M  V30 10617 O 986.78 -2.08601 0.575735 0
M  V30 10618 C 987.375 -0.265691 3.37757 0
M  V30 10619 C 985.934 -0.694231 3.69942 0
M  V30 10620 C 985.081 0.173195 2.76759 0
M  V30 10621 H 988.032 0.561284 1.48443 0
M  V30 10622 H 988.053 -1.09352 3.64448 0
M  V30 10623 H 987.565 0.723424 3.81298 0
M  V30 10624 H 985.666 -1.69244 3.31945 0
M  V30 10625 H 985.779 -0.485461 4.76634 0
M  V30 10626 H 984.143 -0.35416 2.52226 0
M  V30 10627 H 984.926 1.15941 3.23129 0
M  V30 10628 N 987.371 -1.57444 0.0701946 0
M  V30 10629 C 988.62 -1.92605 -0.598849 0
M  V30 10630 C 988.933 -0.952058 -1.70866 0
M  V30 10631 O 990.139 -1.19643 -2.43716 0
M  V30 10632 C 988.595 -3.42142 -1.11655 0
M  V30 10633 C 988.203 -4.47984 -0.0378355 0
M  V30 10634 C 989.947 -3.86307 -1.75975 0
M  V30 10635 C 987.854 -5.88652 -0.569495 0
M  V30 10636 H 986.784 -0.718873 -0.22746 0
M  V30 10637 H 989.435 -1.82948 0.14217 0
M  V30 10638 H 987.817 -3.46866 -1.91049 0
M  V30 10639 H 988.991 -4.54874 0.736661 0
M  V30 10640 H 987.306 -4.13277 0.50904 0
M  V30 10641 H 989.903 -4.88784 -2.16782 0
M  V30 10642 H 990.246 -3.23587 -2.61911 0
M  V30 10643 H 990.779 -3.84179 -1.03206 0
M  V30 10644 H 987.518 -6.55013 0.252662 0
M  V30 10645 H 987.038 -5.85285 -1.31155 0
M  V30 10646 H 988.717 -6.38482 -1.04641 0
M  V30 10647 N 988.849 0.203349 -1.56283 0
M  V30 10648 C 989.796 1.25205 -1.93888 0
M  V30 10649 C 990.766 1.45654 -0.798376 0
M  V30 10650 O 991.951 1.58924 -1.05583 0
M  V30 10651 C 989.091 2.59355 -2.27659 0
M  V30 10652 C 988.204 2.46553 -3.54733 0
M  V30 10653 C 987.339 3.73351 -3.77865 0
M  V30 10654 C 986.378 3.55347 -4.98392 0
M  V30 10655 N 985.515 4.74137 -5.17821 0
M  V30 10656 H 990.355 0.924356 -2.83301 0
M  V30 10657 H 987.892 0.445082 -1.40205 0
M  V30 10658 H 989.85 3.375 -2.45254 0
M  V30 10659 H 988.48 2.90184 -1.41396 0
M  V30 10660 H 987.532 1.59749 -3.45231 0
M  V30 10661 H 988.844 2.2918 -4.43033 0
M  V30 10662 H 987.998 4.59937 -3.95655 0
M  V30 10663 H 986.737 3.9367 -2.8788 0
M  V30 10664 H 985.742 2.67146 -4.80534 0
M  V30 10665 H 986.967 3.36482 -5.89879 0
M  V30 10666 H 984.913 4.94735 -4.30782 0
M  V30 10667 H 984.83 4.59558 -6.00285 0
M  V30 10668 H 986.098 5.62098 -5.40061 0
M  V30 10669 N 990.327 1.50405 0.470755 0
M  V30 10670 C 991.743 1.37838 0.804534 0
M  V30 10671 C 991.943 0.434743 1.96754 0
M  V30 10672 O 990.999 -0.122507 2.52203 0
M  V30 10673 C 992.312 2.79212 1.11629 0
M  V30 10674 C 993.86 2.88129 1.22272 0
M  V30 10675 C 994.335 4.30337 1.5676 0
M  V30 10676 N 995.826 4.3329 1.63751 0
M  V30 10677 C 996.561 5.4032 1.91942 0
M  V30 10678 N 996.057 6.57558 2.18151 0
M  V30 10679 N 997.85 5.27764 1.93446 0
M  V30 10680 H 990.001 2.10332 -0.295689 0
M  V30 10681 H 992.264 0.945429 -0.0697733 0
M  V30 10682 H 991.97 3.50103 0.334778 0
M  V30 10683 H 991.844 3.16475 2.0524 0
M  V30 10684 H 994.231 2.17457 1.9949 0
M  V30 10685 H 994.312 2.54409 0.2664 0
M  V30 10686 H 993.956 5.01547 0.800817 0
M  V30 10687 H 993.886 4.61545 2.53543 0
M  V30 10688 H 996.377 3.48752 1.45535 0
M  V30 10689 H 996.69 7.34935 2.38936 0
M  V30 10690 H 995.035 6.60732 2.15542 0
M  V30 10691 H 998.226 4.35169 1.72468 0
M  V30 10692 H 998.399 6.11264 2.15081 0
M  V30 10693 N 991.805 -0.723954 1.39988 0
M  V30 10694 C 993.053 -1.48078 1.3754 0
M  V30 10695 C 993.374 -1.94985 -0.0243358 0
M  V30 10696 O 992.644 -1.69764 -0.977602 0
M  V30 10697 H 991.224 -0.549354 0.506181 0
M  V30 10698 H 993.886 -0.858746 1.74962 0
M  V30 10699 H 992.982 -2.35763 2.04505 0
M  V30 10700 N 993.283 -1.25346 -0.955304 0
M  V30 10701 C 994.532 -1.0945 -1.69421 0
M  V30 10702 C 994.845 0.364459 -1.92175 0
M  V30 10703 O 996.051 0.643843 -2.63755 0
M  V30 10704 C 994.507 -1.91045 -3.05008 0
M  V30 10705 C 994.115 -3.41428 -2.90053 0
M  V30 10706 C 995.859 -1.83716 -3.82686 0
M  V30 10707 C 993.766 -4.1532 -4.21026 0
M  V30 10708 H 992.696 -0.405978 -0.635372 0
M  V30 10709 H 995.347 -1.49536 -1.06354 0
M  V30 10710 H 993.729 -1.43781 -3.68975 0
M  V30 10711 H 994.903 -3.9636 -2.35022 0
M  V30 10712 H 993.218 -3.49842 -2.25831 0
M  V30 10713 H 995.815 -2.36217 -4.79693 0
M  V30 10714 H 996.158 -0.804919 -4.08444 0
M  V30 10715 H 996.691 -2.28726 -3.25468 0
M  V30 10716 H 993.43 -5.18955 -4.00457 0
M  V30 10717 H 992.95 -3.65172 -4.75825 0
M  V30 10718 H 994.629 -4.22999 -4.89572 0
M  V30 10719 N 994.761 1.15782 -1.06922 0
M  V30 10720 C 995.693 2.19978 -0.643604 0
M  V30 10721 C 996.706 1.59981 0.301653 0
M  V30 10722 O 997.895 1.78265 0.0916508 0
M  V30 10723 C 994.995 3.38815 0.0757973 0
M  V30 10724 C 994.168 4.28363 -0.884545 0
M  V30 10725 C 993.227 5.25807 -0.203233 0
M  V30 10726 O 992.253 5.62924 -0.842904 0
M  V30 10727 N 993.455 5.70874 1.05279 0
M  V30 10728 H 996.22 2.57112 -1.53992 0
M  V30 10729 H 993.781 1.30855 -0.953344 0
M  V30 10730 H 995.773 4.01052 0.542151 0
M  V30 10731 H 994.343 3.00133 0.874 0
M  V30 10732 H 993.563 3.63292 -1.53012 0
M  V30 10733 H 994.851 4.85067 -1.53581 0
M  V30 10734 H 994.249 5.42822 1.5925 0
M  V30 10735 H 992.806 6.35171 1.46289 0
M  V30 10736 N 996.239 0.8527 1.3254 0
M  V30 10737 C 997.486 0.455123 1.97319 0
M  V30 10738 C 997.814 -0.988814 1.67489 0
M  V30 10739 O 997.069 -1.70845 0.954483 0
M  V30 10740 C 997.368 0.638757 3.51646 0
M  V30 10741 C 997.034 2.05287 4.01458 0
M  V30 10742 C 995.696 2.43963 4.14771 0
M  V30 10743 C 998.048 2.9759 4.27889 0
M  V30 10744 C 995.376 3.7422 4.51859 0
M  V30 10745 C 997.728 4.27343 4.66434 0
M  V30 10746 C 996.392 4.65957 4.77954 0
M  V30 10747 H 995.662 0.166541 0.722042 0
M  V30 10748 H 998.309 1.08238 1.57977 0
M  V30 10749 H 996.614 -0.0717394 3.91734 0
M  V30 10750 H 998.311 0.311219 3.9979 0
M  V30 10751 H 994.901 1.74253 3.91579 0
M  V30 10752 H 999.085 2.68942 4.17114 0
M  V30 10753 H 994.341 4.03923 4.58973 0
M  V30 10754 H 998.515 4.9893 4.85841 0
M  V30 10755 H 996.142 5.66934 5.06449 0
M  V30 10756 N 997.718 -1.45297 0.610449 0
M  V30 10757 C 998.648 -2.33311 -0.0939698 0
M  V30 10758 C 999.629 -1.46999 -0.85588 0
M  V30 10759 O 1000.81 -1.75764 -0.825865 0
M  V30 10760 C 997.944 -3.29751 -1.09003 0
M  V30 10761 C 996.898 -4.2572 -0.441146 0
M  V30 10762 C 996.224 -5.11873 -1.54566 0
M  V30 10763 C 997.524 -5.1837 0.639489 0
M  V30 10764 H 999.218 -2.92459 0.640941 0
M  V30 10765 H 996.764 -1.40631 0.309675 0
M  V30 10766 H 998.717 -3.90195 -1.59141 0
M  V30 10767 H 997.441 -2.68768 -1.85557 0
M  V30 10768 H 996.1 -3.66579 0.0393908 0
M  V30 10769 H 995.748 -4.47256 -2.30155 0
M  V30 10770 H 995.448 -5.76886 -1.11698 0
M  V30 10771 H 996.972 -5.75185 -2.04925 0
M  V30 10772 H 998.386 -5.7287 0.22207 0
M  V30 10773 H 996.783 -5.91876 0.990089 0
M  V30 10774 H 997.853 -4.60627 1.51495 0
M  V30 10775 N 999.196 -0.349774 -1.5367 0
M  V30 10776 C 1000.13 0.547309 -2.2154 0
M  V30 10777 C 1001.11 1.09543 -1.20163 0
M  V30 10778 O 1002.29 1.15453 -1.49006 0
M  V30 10779 C 999.418 1.75356 -2.89772 0
M  V30 10780 C 998.464 1.33433 -4.0509 0
M  V30 10781 S 999.297 0.348891 -5.34362 0
M  V30 10782 C 1000.45 1.56183 -6.061 0
M  V30 10783 H 1000.69 -0.0291392 -2.97286 0
M  V30 10784 H 998.219 -0.133853 -1.53819 0
M  V30 10785 H 1000.18 2.44555 -3.29701 0
M  V30 10786 H 998.838 2.30123 -2.1378 0
M  V30 10787 H 998.031 2.23388 -4.5179 0
M  V30 10788 H 997.633 0.721746 -3.6697 0
M  V30 10789 H 999.925 2.49535 -6.29872 0
M  V30 10790 H 1000.87 1.13651 -6.9892 0
M  V30 10791 H 1001.28 1.76071 -5.36339 0
M  V30 10792 N 1000.67 1.57404 -0.0785433 0
M  V30 10793 C 1001.62 2.13104 0.88631 0
M  V30 10794 C 1002.59 1.04527 1.29086 0
M  V30 10795 O 1003.78 1.32226 1.37553 0
M  V30 10796 C 1000.92 2.70252 2.14611 0
M  V30 10797 C 1000.03 3.93007 1.79358 0
M  V30 10798 C 999.164 4.38376 3 0
M  V30 10799 C 998.203 5.53761 2.60796 0
M  V30 10800 N 997.34 5.94058 3.74219 0
M  V30 10801 H 1002.18 2.95243 0.404452 0
M  V30 10802 H 999.717 1.45894 0.187982 0
M  V30 10803 H 1001.67 3.01497 2.88367 0
M  V30 10804 H 1000.3 1.90868 2.60326 0
M  V30 10805 H 999.357 3.68181 0.956384 0
M  V30 10806 H 1000.67 4.76795 1.4652 0
M  V30 10807 H 999.823 4.71317 3.82027 0
M  V30 10808 H 998.562 3.53455 3.36037 0
M  V30 10809 H 997.567 5.20464 1.77192 0
M  V30 10810 H 998.792 6.40419 2.25922 0
M  V30 10811 H 996.738 5.12085 4.10005 0
M  V30 10812 H 996.655 6.72602 3.45171 0
M  V30 10813 H 997.923 6.31624 4.56805 0
M  V30 10814 N 1002.15 -0.195058 1.56388 0
M  V30 10815 C 1003.57 -0.545894 1.49974 0
M  V30 10816 C 1003.77 -1.85851 0.778568 0
M  V30 10817 O 1002.82 -2.50346 0.329105 0
M  V30 10818 C 1004.14 -0.600599 2.94641 0
M  V30 10819 C 1005.68 -0.689429 3.05313 0
M  V30 10820 C 1006.16 -0.775243 4.51391 0
M  V30 10821 N 1007.65 -0.838769 4.55542 0
M  V30 10822 C 1008.39 -0.925337 5.65884 0
M  V30 10823 N 1007.88 -0.974204 6.85916 0
M  V30 10824 N 1009.67 -0.962528 5.53798 0
M  V30 10825 H 1001.83 0.66595 2.0169 0
M  V30 10826 H 1004.09 0.237215 0.917842 0
M  V30 10827 H 1003.79 0.29478 3.50462 0
M  V30 10828 H 1003.67 -1.45528 3.47996 0
M  V30 10829 H 1006.06 -1.57524 2.4954 0
M  V30 10830 H 1006.14 0.191451 2.55083 0
M  V30 10831 H 1005.78 0.106215 5.07789 0
M  V30 10832 H 1005.71 -1.67193 4.99354 0
M  V30 10833 H 1008.2 -0.810249 3.69112 0
M  V30 10834 H 1008.51 -1.04077 7.6576 0
M  V30 10835 H 1006.86 -0.942881 6.88574 0
M  V30 10836 H 1010.05 -0.921188 4.58946 0
M  V30 10837 H 1010.22 -1.02653 6.39817 0
M  V30 10838 N 1003.63 -1.50653 -0.462772 0
M  V30 10839 C 1004.56 -1.66286 -1.5774 0
M  V30 10840 C 1005.57 -0.544094 -1.53439 0
M  V30 10841 O 1006.76 -0.817566 -1.58676 0
M  V30 10842 C 1003.86 -1.63893 -2.96635 0
M  V30 10843 C 1003.04 -2.91939 -3.25716 0
M  V30 10844 C 1002.1 -2.82076 -4.44206 0
M  V30 10845 O 1001.12 -3.56032 -4.44106 0
M  V30 10846 N 1002.32 -1.96196 -5.4634 0
M  V30 10847 H 1005.09 -2.6243 -1.44742 0
M  V30 10848 H 1002.65 -1.48221 -0.651326 0
M  V30 10849 H 1004.64 -1.54897 -3.73884 0
M  V30 10850 H 1003.21 -0.75449 -3.03358 0
M  V30 10851 H 1002.43 -3.14998 -2.37002 0
M  V30 10852 H 1003.72 -3.7675 -3.4196 0
M  V30 10853 H 1003.12 -1.35439 -5.49247 0
M  V30 10854 H 1001.67 -1.93097 -6.2254 0
M  V30 10855 N 1005.11 0.71652 -1.4037 0
M  V30 10856 C 1006.04 1.84345 -1.43315 0
M  V30 10857 C 1007.02 1.67537 -0.294186 0
M  V30 10858 O 1008.2 1.87582 -0.502671 0
M  V30 10859 C 1005.33 3.2229 -1.29408 0
M  V30 10860 C 1004.29 3.53769 -2.40897 0
M  V30 10861 C 1003.61 4.90847 -2.12068 0
M  V30 10862 C 1004.91 3.54862 -3.83237 0
M  V30 10863 H 1006.61 1.82138 -2.37626 0
M  V30 10864 H 1004.15 0.874873 -1.14376 0
M  V30 10865 H 1006.11 4.00819 -1.30085 0
M  V30 10866 H 1004.83 3.2507 -0.31573 0
M  V30 10867 H 1003.49 2.77579 -2.39469 0
M  V30 10868 H 1003.14 4.90229 -1.12626 0
M  V30 10869 H 1002.84 5.12875 -2.86762 0
M  V30 10870 H 1004.36 5.71711 -2.14426 0
M  V30 10871 H 1005.78 4.23432 -3.86494 0
M  V30 10872 H 1004.17 3.88416 -4.57442 0
M  V30 10873 H 1005.24 2.54266 -4.12888 0
M  V30 10874 N 1006.59 1.25851 0.948643 0
M  V30 10875 C 1008 1.09975 1.50872 0
M  V30 10876 C 1008.35 -0.322497 1.93531 0
M  V30 10877 O 1007.47 -1.21316 1.79197 0
M  V30 10878 C 1008.07 1.99021 2.74182 0
M  V30 10879 C 1006.63 1.87313 3.26483 0
M  V30 10880 C 1005.77 1.92815 1.99293 0
M  V30 10881 H 1008.73 1.3905 0.764908 0
M  V30 10882 H 1008.75 1.53372 3.4822 0
M  V30 10883 H 1008.26 3.02527 2.43103 0
M  V30 10884 H 1006.36 0.867136 3.62369 0
M  V30 10885 H 1006.47 2.72446 3.94094 0
M  V30 10886 H 1004.84 1.36774 2.1486 0
M  V30 10887 H 1005.62 2.97936 1.70554 0
M  V30 10888 N 1008.06 -1.15214 1.07534 0
M  V30 10889 C 1009.29 -1.89922 0.820804 0
M  V30 10890 C 1009.71 -1.78114 -0.626177 0
M  V30 10891 O 1009.06 -1.13435 -1.42964 0
M  V30 10892 C 1009.12 -3.40207 1.22236 0
M  V30 10893 O 1008.84 -3.51676 2.61257 0
M  V30 10894 C 1010.34 -4.31934 0.997393 0
M  V30 10895 H 1007.56 -0.601865 0.296647 0
M  V30 10896 H 1010.1 -1.45965 1.43229 0
M  V30 10897 H 1008.26 -3.8182 0.655167 0
M  V30 10898 H 1008.67 -4.44959 2.77689 0
M  V30 10899 H 1010.14 -5.35791 1.32785 0
M  V30 10900 H 1010.62 -4.3915 -0.0661599 0
M  V30 10901 H 1011.23 -3.96066 1.54958 0
M  V30 10902 N 1009.54 -0.859717 -1.32086 0
M  V30 10903 C 1010.79 -0.464662 -1.96686 0
M  V30 10904 C 1011.11 0.98412 -1.68345 0
M  V30 10905 O 1010.38 1.68847 -0.993361 0
M  V30 10906 H 1008.96 -0.168838 -0.727669 0
M  V30 10907 H 1011.62 -1.09726 -1.61079 0
M  V30 10908 H 1010.72 -0.613904 -3.06003 0
M  V30 10909 N 1011.02 1.44971 -0.618145 0
M  V30 10910 C 1011.93 2.34403 0.0960457 0
M  V30 10911 C 1012.95 1.51862 0.849355 0
M  V30 10912 O 1014.12 1.84632 0.804557 0
M  V30 10913 C 1011.19 3.29646 1.07397 0
M  V30 10914 C 1010.25 4.28095 0.321466 0
M  V30 10915 C 1009.48 5.18787 1.25281 0
M  V30 10916 O 1009.7 5.1313 2.49106 0
M  V30 10917 O 1008.64 5.97282 0.744156 0
M  V30 10918 H 1012.46 2.96898 -0.639176 0
M  V30 10919 H 1010.05 1.44529 -0.37837 0
M  V30 10920 H 1011.93 3.88307 1.63694 0
M  V30 10921 H 1010.61 2.69702 1.79004 0
M  V30 10922 H 1009.51 3.73019 -0.284223 0
M  V30 10923 H 1010.85 4.90923 -0.354315 0
M  V30 10924 N 1012.5 0.357919 1.53482 0
M  V30 10925 C 1013.74 -0.22712 2.02128 0
M  V30 10926 C 1014.1 -1.47044 1.2408 0
M  V30 10927 O 1013.39 -1.88841 0.323966 0
M  V30 10928 C 1013.59 -0.579617 3.52669 0
M  V30 10929 C 1013.42 0.627992 4.45294 0
M  V30 10930 C 1012.19 1.13772 4.92325 0
M  V30 10931 C 1014.38 1.49087 4.92217 0
M  V30 10932 N 1012.37 2.30615 5.68937 0
M  V30 10933 C 1013.74 2.50604 5.67096 0
M  V30 10934 C 1015.79 1.51464 4.74303 0
M  V30 10935 C 1014.49 3.54346 6.25964 0
M  V30 10936 C 1016.52 2.54095 5.34032 0
M  V30 10937 C 1015.88 3.54337 6.0879 0
M  V30 10938 H 1011.98 -0.0460295 0.780644 0
M  V30 10939 H 1014.57 0.500733 1.88151 0
M  V30 10940 H 1012.74 -1.27656 3.66822 0
M  V30 10941 H 1014.47 -1.14908 3.88044 0
M  V30 10942 H 1011.22 0.703546 4.68345 0
M  V30 10943 H 1011.65 2.8965 6.11909 0
M  V30 10944 H 1016.29 0.753213 4.16037 0
M  V30 10945 H 1014.01 4.31375 6.83331 0
M  V30 10946 H 1017.59 2.56779 5.22069 0
M  V30 10947 H 1016.47 4.32449 6.54184 0
M  V30 10948 N 1013.98 -1.5736 0.0868897 0
M  V30 10949 C 1014.92 -2.13571 -0.874996 0
M  V30 10950 C 1015.89 -1.0521 -1.2853 0
M  V30 10951 O 1017.08 -1.32954 -1.3685 0
M  V30 10952 C 1014.22 -2.71386 -2.13175 0
M  V30 10953 C 1013.33 -3.93953 -1.77272 0
M  V30 10954 C 1012.47 -4.3996 -2.97671 0
M  V30 10955 C 1011.51 -5.55137 -2.57856 0
M  V30 10956 N 1010.64 -5.96034 -3.71064 0
M  V30 10957 H 1015.48 -2.95453 -0.388789 0
M  V30 10958 H 1013.02 -1.45992 -0.180242 0
M  V30 10959 H 1014.98 -3.03022 -2.86764 0
M  V30 10960 H 1013.61 -1.92245 -2.5931 0
M  V30 10961 H 1012.66 -3.68683 -0.936845 0
M  V30 10962 H 1013.97 -4.77565 -1.43989 0
M  V30 10963 H 1013.13 -4.73337 -3.79522 0
M  V30 10964 H 1011.86 -3.55232 -3.34158 0
M  V30 10965 H 1010.87 -5.21397 -1.7443 0
M  V30 10966 H 1012.09 -6.41608 -2.22522 0
M  V30 10967 H 1010.04 -5.14253 -4.07284 0
M  V30 10968 H 1009.96 -6.74423 -3.41599 0
M  V30 10969 H 1011.23 -6.34038 -4.53449 0
M  V30 10970 N 1015.45 0.186762 -1.56489 0
M  V30 10971 C 1016.68 0.920495 -1.84961 0
M  V30 10972 C 1017.09 1.77004 -0.668297 0
M  V30 10973 O 1016.44 1.79891 0.37213 0
M  V30 10974 C 1016.5 1.85997 -3.07645 0
M  V30 10975 C 1016.16 1.19156 -4.41193 0
M  V30 10976 C 1017.16 0.564446 -5.16827 0
M  V30 10977 C 1014.84 1.19292 -4.87929 0
M  V30 10978 C 1016.84 -0.0523768 -6.37378 0
M  V30 10979 C 1014.52 0.572266 -6.08415 0
M  V30 10980 C 1015.52 -0.049294 -6.82982 0
M  V30 10981 O 1015.21 -0.660201 -8.01184 0
M  V30 10982 H 1014.94 0.273659 -0.618132 0
M  V30 10983 H 1017.5 0.196437 -2.04459 0
M  V30 10984 H 1015.73 2.62394 -2.84053 0
M  V30 10985 H 1017.42 2.46221 -3.22692 0
M  V30 10986 H 1018.18 0.555474 -4.81809 0
M  V30 10987 H 1014.06 1.66611 -4.29839 0
M  V30 10988 H 1017.6 -0.538133 -6.95521 0
M  V30 10989 H 1013.5 0.578769 -6.429 0
M  V30 10990 H 1014.27 -0.557926 -8.16596 0
M  V30 10991 N 1016.93 1.50896 0.454776 0
M  V30 10992 C 1017.84 1.73762 1.5762 0
M  V30 10993 C 1018.86 0.621206 1.62533 0
M  V30 10994 O 1020.03 0.901449 1.801 0
M  V30 10995 C 1017.1 1.84183 2.9373 0
M  V30 10996 C 1016.16 3.07982 2.99075 0
M  V30 10997 C 1015.39 3.17896 4.28693 0
M  V30 10998 O 1015.62 2.34184 5.20109 0
M  V30 10999 O 1014.55 4.10749 4.39964 0
M  V30 11000 H 1018.38 2.68856 1.41245 0
M  V30 11001 H 1015.96 1.35187 0.635984 0
M  V30 11002 H 1017.84 1.93123 3.74542 0
M  V30 11003 H 1016.52 0.922742 3.10269 0
M  V30 11004 H 1015.43 3.04531 2.17282 0
M  V30 11005 H 1016.76 3.99523 2.87476 0
M  V30 11006 N 1018.41 -0.709066 1.40748 0
M  V30 11007 C 1019.69 -1.4626 1.29874 0
M  V30 11008 C 1020.07 -2.10949 -0.0799322 0
M  V30 11009 O 1019.42 -2.00651 -1.09323 0
M  V30 11010 C 1019.63 -2.49302 2.44232 0
M  V30 11011 C 1020.97 -3.14945 2.84771 0
M  V30 11012 O 1022 -2.59623 2.43873 0
M  V30 11013 O 1020.86 -4.15111 3.5545 0
M  V30 11014 H 1017.95 -0.650716 0.51039 0
M  V30 11015 H 1020.5 -0.740687 1.52682 0
M  V30 11016 H 1019.27 -2.00063 3.36289 0
M  V30 11017 H 1018.89 -3.29021 2.23229 0
M  V30 11018 N 1019.89 -1.26353 -0.941956 0
M  V30 11019 C 1021.14 -1.11241 -1.68251 0
M  V30 11020 C 1021.45 0.344055 -1.9255 0
M  V30 11021 O 1022.66 0.615832 -2.64423 0
M  V30 11022 C 1021.11 -1.94269 -3.02965 0
M  V30 11023 C 1020.72 -3.44485 -2.86415 0
M  V30 11024 C 1022.47 -1.87764 -3.80716 0
M  V30 11025 C 1020.37 -4.19763 -4.16597 0
M  V30 11026 H 1019.3 -0.412694 -0.63103 0
M  V30 11027 H 1021.95 -1.50656 -1.04762 0
M  V30 11028 H 1020.34 -1.47687 -3.6743 0
M  V30 11029 H 1021.51 -3.9883 -2.30805 0
M  V30 11030 H 1019.82 -3.52218 -2.22107 0
M  V30 11031 H 1022.42 -2.41292 -4.77161 0
M  V30 11032 H 1022.76 -0.848195 -4.07568 0
M  V30 11033 H 1023.3 -2.32165 -3.23024 0
M  V30 11034 H 1020.04 -5.23173 -3.9493 0
M  V30 11035 H 1019.56 -3.70198 -4.71925 0
M  V30 11036 H 1021.24 -4.28168 -4.85058 0
M  V30 11037 N 1021.37 1.14642 -1.08144 0
M  V30 11038 C 1022.28 2.23257 -0.720668 0
M  V30 11039 C 1023.29 1.71866 0.271648 0
M  V30 11040 O 1024.47 2.01064 0.116266 0
M  V30 11041 C 1021.53 3.46447 -0.132542 0
M  V30 11042 C 1020.6 4.12789 -1.17913 0
M  V30 11043 C 1019.83 5.30099 -0.618971 0
M  V30 11044 O 1020.05 5.6762 0.562418 0
M  V30 11045 O 1018.99 5.86154 -1.36774 0
M  V30 11046 H 1022.81 2.56463 -1.62667 0
M  V30 11047 H 1020.4 1.22521 -0.854932 0
M  V30 11048 H 1022.28 4.20959 0.19277 0
M  V30 11049 H 1020.95 3.14971 0.746662 0
M  V30 11050 H 1019.86 3.40163 -1.55693 0
M  V30 11051 H 1021.19 4.48365 -2.03051 0
M  V30 11052 N 1022.85 0.866709 1.31628 0
M  V30 11053 C 1024.09 0.475086 1.96437 0
M  V30 11054 C 1024.41 -0.975179 1.68865 0
M  V30 11055 O 1023.68 -1.68317 1.0023 0
M  V30 11056 H 1022.26 0.172695 0.726764 0
M  V30 11057 H 1024.93 1.10578 1.60494 0
M  V30 11058 H 1024.02 0.630123 3.05673 0
M  V30 11059 N 1024.32 -1.44642 0.625825 0
M  V30 11060 C 1025.57 -2.02393 0.128391 0
M  V30 11061 C 1025.9 -1.49075 -1.2446 0
M  V30 11062 O 1025.18 -0.672684 -1.82497 0
M  V30 11063 C 1025.46 -3.59934 0.109279 0
M  V30 11064 C 1025.31 -4.23546 1.51423 0
M  V30 11065 C 1026.63 -4.36406 -0.568985 0
M  V30 11066 H 1023.75 -0.735427 0.0481299 0
M  V30 11067 H 1026.39 -1.72277 0.801286 0
M  V30 11068 H 1024.54 -3.85722 -0.463726 0
M  V30 11069 H 1026.22 -4.08882 2.13572 0
M  V30 11070 H 1024.46 -3.81245 2.06966 0
M  V30 11071 H 1025.13 -5.32535 1.45294 0
M  V30 11072 H 1027.61 -4.1602 -0.0817516 0
M  V30 11073 H 1026.48 -5.46122 -0.551527 0
M  V30 11074 H 1026.74 -4.1062 -1.6384 0
M  V30 11075 N 1025.8 -0.366053 -1.5329 0
M  V30 11076 C 1027.05 0.223493 -2.01263 0
M  V30 11077 C 1027.38 1.48736 -1.25331 0
M  V30 11078 O 1026.63 1.92805 -0.335341 0
M  V30 11079 C 1026.93 0.560906 -3.52971 0
M  V30 11080 C 1026.6 -0.60869 -4.46773 0
M  V30 11081 C 1025.26 -0.929609 -4.72135 0
M  V30 11082 C 1027.61 -1.39225 -5.02261 0
M  V30 11083 C 1024.94 -2.03606 -5.50238 0
M  V30 11084 C 1027.29 -2.48912 -5.81572 0
M  V30 11085 C 1025.95 -2.81538 -6.05221 0
M  V30 11086 H 1025.22 0.0817818 -0.736473 0
M  V30 11087 H 1027.87 -0.498613 -1.84895 0
M  V30 11088 H 1026.18 1.36403 -3.67289 0
M  V30 11089 H 1027.87 1.02931 -3.87564 0
M  V30 11090 H 1024.46 -0.348529 -4.27181 0
M  V30 11091 H 1028.65 -1.15757 -4.82612 0
M  V30 11092 H 1023.9 -2.29281 -5.6678 0
M  V30 11093 H 1028.08 -3.10044 -6.23575 0
M  V30 11094 H 1025.7 -3.67396 -6.65525 0
M  V30 11095 N 1027.28 1.57312 -0.0952337 0
M  V30 11096 C 1028.23 2.15263 0.881167 0
M  V30 11097 C 1029.22 1.09552 1.29208 0
M  V30 11098 O 1030.43 1.27897 1.26659 0
M  V30 11099 H 1026.8 0.688611 0.302191 0
M  V30 11100 H 1028.77 2.96126 0.367694 0
M  V30 11101 C 1027.52 2.74779 2.13053 0
M  V30 11102 H 1026.85 3.55807 1.82323 0
M  V30 11103 H 1028.29 3.18895 2.79431 0
M  V30 11104 C 1026.74 1.7068 2.90465 0
M  V30 11105 O 1027.27 1.14582 3.85011 0
M  V30 11106 N 1025.48 1.41169 2.54007 0
M  V30 11107 H 1025.03 1.86977 1.77193 0
M  V30 11108 H 1024.99 0.717559 3.06102 0
M  V30 11109 N 1028.76 -0.17846 1.56586 0
M  V30 11110 C 1029.71 -1.22552 1.92263 0
M  V30 11111 C 1030.69 -1.40163 0.790131 0
M  V30 11112 O 1031.88 -1.42254 1.05322 0
M  V30 11113 C 1029.01 -2.5666 2.27993 0
M  V30 11114 C 1028.1 -2.42772 3.47739 0
M  V30 11115 N 1028.49 -1.98588 4.65185 0
M  V30 11116 C 1026.79 -2.73619 3.52205 0
M  V30 11117 C 1027.49 -1.96991 5.47329 0
M  V30 11118 N 1026.46 -2.39126 4.8818 0
M  V30 11119 H 1030.27 -0.875493 2.80557 0
M  V30 11120 H 1027.78 -0.386785 1.57727 0
M  V30 11121 H 1029.78 -3.32312 2.51743 0
M  V30 11122 H 1028.44 -2.92472 1.41034 0
M  V30 11123 H 1029.45 -1.69036 4.89538 0
M  V30 11124 H 1026.13 -3.13516 2.75706 0
M  V30 11125 H 1027.52 -1.64589 6.51429 0
M  V30 11126 N 1030.24 -1.51135 -0.446768 0
M  V30 11127 C 1031.46 -1.67411 -1.22427 0
M  V30 11128 C 1031.89 -0.367009 -1.84485 0
M  V30 11129 O 1031.24 0.67185 -1.68392 0
M  V30 11130 C 1031.29 -2.78473 -2.29096 0
M  V30 11131 O 1030.4 -2.41419 -3.34351 0
M  V30 11132 H 1029.74 -0.558512 -0.359111 0
M  V30 11133 H 1032.27 -1.97648 -0.5288 0
M  V30 11134 H 1032.28 -3.02277 -2.7403 0
M  V30 11135 H 1030.95 -3.73326 -1.83304 0
M  V30 11136 H 1029.53 -2.28152 -2.9496 0
M  V30 11137 N 1031.71 0.701592 -1.41122 0
M  V30 11138 C 1032.95 1.4739 -1.41618 0
M  V30 11139 C 1033.32 1.91987 -0.0219443 0
M  V30 11140 O 1034.52 2.6862 0.0982793 0
M  V30 11141 C 1032.79 2.65745 -2.38986 0
M  V30 11142 S 1034.35 3.54968 -2.5796 0
M  V30 11143 H 1031.17 0.503742 -0.501762 0
M  V30 11144 H 1033.77 0.819186 -1.77509 0
M  V30 11145 H 1032.47 2.31176 -3.39096 0
M  V30 11146 H 1032 3.36115 -2.04426 0
M  V30 11147 H 1034.02 4.60724 -1.84249 0
M  V30 11148 N 1033.19 1.2685 0.935242 0
M  V30 11149 C 1034.15 1.08975 2.01636 0
M  V30 11150 C 1035.15 0.0361543 1.60759 0
M  V30 11151 O 1036.34 0.280087 1.71934 0
M  V30 11152 C 1033.48 0.658831 3.34473 0
M  V30 11153 H 1034.67 2.04968 2.18925 0
M  V30 11154 H 1032.22 1.09531 1.11501 0
M  V30 11155 H 1032.96 -0.302824 3.22883 0
M  V30 11156 H 1032.74 1.41967 3.65497 0
M  V30 11157 H 1034.23 0.555783 4.13885 0
M  V30 11158 N 1034.67 -1.14067 1.0875 0
M  V30 11159 C 1035.92 -1.84535 0.814235 0
M  V30 11160 C 1036.23 -1.84044 -0.662355 0
M  V30 11161 O 1037.44 -2.50336 -1.05091 0
M  V30 11162 C 1035.89 -3.31273 1.40663 0
M  V30 11163 C 1035.5 -3.40171 2.91526 0
M  V30 11164 C 1037.25 -4.0683 1.21201 0
M  V30 11165 C 1035.15 -4.81141 3.43885 0
M  V30 11166 H 1034.08 -0.691346 0.300926 0
M  V30 11167 H 1036.73 -1.28562 1.30935 0
M  V30 11168 H 1035.12 -3.87005 0.839215 0
M  V30 11169 H 1036.29 -2.94471 3.54434 0
M  V30 11170 H 1034.61 -2.78073 3.09942 0
M  V30 11171 H 1037.2 -5.10891 1.57781 0
M  V30 11172 H 1037.55 -4.16022 0.152092 0
M  V30 11173 H 1038.08 -3.57408 1.74655 0
M  V30 11174 H 1034.82 -4.77138 4.49466 0
M  V30 11175 H 1034.34 -5.27365 2.85738 0
M  V30 11176 H 1036.02 -5.50042 3.40681 0
M  V30 11177 N 1036.15 -0.873678 -1.31166 0
M  V30 11178 C 1037.06 -0.335726 -2.32185 0
M  V30 11179 C 1038.07 0.556259 -1.64869 0
M  V30 11180 O 1039.25 0.452087 -1.9626 0
M  V30 11181 C 1036.32 0.450822 -3.43756 0
M  V30 11182 C 1035.38 -0.469565 -4.26724 0
M  V30 11183 C 1034.61 0.279538 -5.32967 0
M  V30 11184 O 1034.83 1.50715 -5.50128 0
M  V30 11185 O 1033.77 -0.36452 -6.00795 0
M  V30 11186 H 1037.59 -1.17314 -2.80127 0
M  V30 11187 H 1035.18 -0.637163 -1.35132 0
M  V30 11188 H 1037.06 0.896582 -4.11752 0
M  V30 11189 H 1035.73 1.26472 -2.9797 0
M  V30 11190 H 1034.64 -0.963902 -3.61469 0
M  V30 11191 H 1035.97 -1.24916 -4.76085 0
M  V30 11192 N 1037.63 1.44308 -0.633487 0
M  V30 11193 C 1038.86 2.06085 -0.145852 0
M  V30 11194 C 1039.26 1.47432 1.18577 0
M  V30 11195 O 1038.61 0.592575 1.7388 0
M  V30 11196 C 1038.67 3.59477 0.0407848 0
M  V30 11197 C 1038.33 4.40607 -1.21304 0
M  V30 11198 C 1039.33 4.73937 -2.13728 0
M  V30 11199 C 1037.02 4.80943 -1.44911 0
M  V30 11200 C 1039.01 5.46489 -3.28068 0
M  V30 11201 C 1036.7 5.53243 -2.59548 0
M  V30 11202 C 1037.69 5.85936 -3.50953 0
M  V30 11203 O 1037.38 6.56764 -4.6359 0
M  V30 11204 H 1037.11 0.671484 -0.0780085 0
M  V30 11205 H 1039.67 1.86128 -0.868658 0
M  V30 11206 H 1037.9 3.77933 0.818761 0
M  V30 11207 H 1039.59 4.03013 0.483273 0
M  V30 11208 H 1040.35 4.43311 -1.96725 0
M  V30 11209 H 1036.23 4.54915 -0.746537 0
M  V30 11210 H 1039.78 5.71924 -3.99435 0
M  V30 11211 H 1035.67 5.83285 -2.76493 0
M  V30 11212 H 1036.44 6.75234 -4.62602 0
M  V30 11213 N 1039.1 0.374177 1.53094 0
M  V30 11214 C 1040.52 -0.103172 1.86415 0
M  V30 11215 C 1040.87 -1.47439 1.29446 0
M  V30 11216 O 1039.99 -2.07333 0.619853 0
M  V30 11217 C 1040.59 -0.193988 3.38244 0
M  V30 11218 C 1039.15 -0.615605 3.71332 0
M  V30 11219 C 1038.29 0.23186 2.76329 0
M  V30 11220 H 1041.24 0.592644 1.47219 0
M  V30 11221 H 1041.26 -1.01597 3.66686 0
M  V30 11222 H 1040.78 0.80414 3.79678 0
M  V30 11223 H 1038.88 -1.62165 3.3546 0
M  V30 11224 H 1038.99 -0.38425 4.77557 0
M  V30 11225 H 1037.35 -0.300579 2.5292 0
M  V30 11226 H 1038.14 1.22769 3.20597 0
M  V30 11227 N 1040.58 -1.57259 0.103575 0
M  V30 11228 C 1041.81 -1.99424 -0.569638 0
M  V30 11229 C 1042.23 -0.982475 -1.60403 0
M  V30 11230 O 1041.59 0.0479231 -1.81237 0
M  V30 11231 C 1041.64 -3.40527 -1.18633 0
M  V30 11232 O 1040.74 -3.42167 -2.30208 0
M  V30 11233 H 1040.08 -0.648251 -0.143759 0
M  V30 11234 H 1042.61 -2.03739 0.187493 0
M  V30 11235 H 1042.62 -3.78404 -1.5256 0
M  V30 11236 H 1041.3 -4.13686 -0.428582 0
M  V30 11237 H 1039.88 -3.16093 -1.97837 0
M  V30 11238 N 1042.06 0.170153 -1.56679 0
M  V30 11239 C 1043.29 0.900826 -1.85927 0
M  V30 11240 C 1043.7 1.76285 -0.687033 0
M  V30 11241 O 1043.04 1.80276 0.353029 0
M  V30 11242 C 1043.1 1.82723 -3.096 0
M  V30 11243 C 1042.77 1.14469 -4.42432 0
M  V30 11244 C 1043.76 0.509598 -5.17396 0
M  V30 11245 C 1041.45 1.1411 -4.89167 0
M  V30 11246 C 1043.44 -0.119976 -6.37287 0
M  V30 11247 C 1041.13 0.507703 -6.08987 0
M  V30 11248 C 1042.13 -0.121731 -6.82892 0
M  V30 11249 O 1041.82 -0.74514 -8.00439 0
M  V30 11250 H 1041.55 0.267087 -0.621 0
M  V30 11251 H 1044.1 0.17474 -2.04655 0
M  V30 11252 H 1042.33 2.59367 -2.8682 0
M  V30 11253 H 1044.02 2.42784 -3.25285 0
M  V30 11254 H 1044.79 0.504341 -4.82371 0
M  V30 11255 H 1040.67 1.62043 -4.31582 0
M  V30 11256 H 1044.21 -0.611872 -6.94911 0
M  V30 11257 H 1040.11 0.510548 -6.43478 0
M  V30 11258 H 1040.88 -0.644506 -8.15959 0
M  V30 11259 N 1043.54 1.5137 0.438746 0
M  V30 11260 C 1044.95 1.39514 0.775116 0
M  V30 11261 C 1045.15 0.47638 1.95788 0
M  V30 11262 O 1044.21 -0.0689832 2.52406 0
M  V30 11263 C 1045.52 2.81517 1.05681 0
M  V30 11264 C 1047.07 2.90658 1.16133 0
M  V30 11265 C 1047.55 4.33566 1.47597 0
M  V30 11266 N 1049.04 4.36665 1.54524 0
M  V30 11267 C 1049.77 5.4427 1.80438 0
M  V30 11268 N 1049.27 6.62037 2.04154 0
M  V30 11269 N 1051.06 5.31749 1.82208 0
M  V30 11270 H 1043.21 2.09657 -0.340237 0
M  V30 11271 H 1045.48 0.943736 -0.0898115 0
M  V30 11272 H 1045.18 3.50734 0.260441 0
M  V30 11273 H 1045.06 3.20757 1.98481 0
M  V30 11274 H 1047.44 2.2164 1.94833 0
M  V30 11275 H 1047.52 2.54917 0.212376 0
M  V30 11276 H 1047.17 5.03133 0.694251 0
M  V30 11277 H 1047.1 4.66819 2.43696 0
M  V30 11278 H 1049.59 3.51761 1.38105 0
M  V30 11279 H 1049.9 7.39838 2.23293 0
M  V30 11280 H 1048.25 6.65155 2.01479 0
M  V30 11281 H 1051.44 4.3873 1.63198 0
M  V30 11282 H 1051.61 6.15689 2.02067 0
M  V30 11283 N 1045.02 -0.694098 1.41492 0
M  V30 11284 C 1046.26 -1.45415 1.40929 0
M  V30 11285 C 1046.59 -1.94491 0.0189301 0
M  V30 11286 O 1045.85 -1.7 -0.96945 0
M  V30 11287 C 1046.15 -2.6805 2.36398 0
M  V30 11288 C 1045.81 -2.37623 3.83205 0
M  V30 11289 C 1044.47 -2.29035 4.23198 0
M  V30 11290 C 1046.83 -2.12555 4.75888 0
M  V30 11291 C 1044.15 -1.93478 5.5388 0
M  V30 11292 C 1046.51 -1.78506 6.06892 0
M  V30 11293 C 1045.17 -1.68415 6.45905 0
M  V30 11294 H 1044.44 -0.53211 0.515694 0
M  V30 11295 H 1047.09 -0.793193 1.74301 0
M  V30 11296 H 1045.39 -3.39086 1.96285 0
M  V30 11297 H 1047.09 -3.26194 2.33234 0
M  V30 11298 H 1043.68 -2.45202 3.51531 0
M  V30 11299 H 1047.86 -2.18133 4.45793 0
M  V30 11300 H 1043.12 -1.84219 5.82986 0
M  V30 11301 H 1047.29 -1.58128 6.7821 0
M  V30 11302 H 1044.92 -1.40631 7.47079 0
M  V30 11303 N 1046.49 -1.27344 -0.928501 0
M  V30 11304 C 1047.42 -1.12517 -2.04602 0
M  V30 11305 C 1048.41 -0.0268563 -1.70079 0
M  V30 11306 O 1049.59 -0.201197 -1.93155 0
M  V30 11307 C 1046.72 -0.770749 -3.3864 0
M  V30 11308 C 1045.67 -1.8222 -3.87272 0
M  V30 11309 C 1045 -1.32178 -5.18105 0
M  V30 11310 C 1046.3 -3.22614 -4.10752 0
M  V30 11311 H 1047.99 -2.06 -2.17265 0
M  V30 11312 H 1045.54 -0.991827 -1.04397 0
M  V30 11313 H 1047.49 -0.653843 -4.16297 0
M  V30 11314 H 1046.22 0.19979 -3.25988 0
M  V30 11315 H 1044.88 -1.928 -3.11807 0
M  V30 11316 H 1044.52 -0.340719 -5.01845 0
M  V30 11317 H 1044.22 -2.02474 -5.51614 0
M  V30 11318 H 1045.75 -1.2178 -5.98333 0
M  V30 11319 H 1047.16 -3.1504 -4.78981 0
M  V30 11320 H 1045.56 -3.90614 -4.55566 0
M  V30 11321 H 1046.63 -3.67727 -3.16077 0
M  V30 11322 N 1047.97 1.13488 -1.09353 0
M  V30 11323 C 1049.22 1.84748 -0.829126 0
M  V30 11324 C 1049.55 1.83485 0.645247 0
M  V30 11325 O 1048.8 1.26767 1.49093 0
M  V30 11326 C 1049.1 3.32584 -1.30854 0
M  V30 11327 C 1048.77 3.54028 -2.7924 0
M  V30 11328 C 1047.43 3.59588 -3.19765 0
M  V30 11329 C 1049.78 3.62058 -3.74918 0
M  V30 11330 C 1047.11 3.70712 -4.54741 0
M  V30 11331 C 1049.46 3.7471 -5.09682 0
M  V30 11332 C 1048.13 3.78523 -5.49797 0
M  V30 11333 H 1047.4 0.67604 -0.303399 0
M  V30 11334 H 1050.04 1.33989 -1.36818 0
M  V30 11335 H 1048.35 3.85689 -0.689275 0
M  V30 11336 H 1050.04 3.86166 -1.08059 0
M  V30 11337 H 1046.63 3.50354 -2.4688 0
M  V30 11338 H 1050.82 3.57043 -3.44723 0
M  V30 11339 H 1046.07 3.71931 -4.8526 0
M  V30 11340 H 1050.25 3.79866 -5.83674 0
M  V30 11341 H 1047.88 3.86895 -6.54382 0
M  V30 11342 N 1049.45 0.880621 1.30701 0
M  V30 11343 C 1050.86 0.547993 1.78477 0
M  V30 11344 C 1051.21 -0.935633 1.72454 0
M  V30 11345 O 1050.34 -1.73094 1.29874 0
M  V30 11346 C 1050.93 0.98795 3.24076 0
M  V30 11347 C 1049.49 0.706805 3.69704 0
M  V30 11348 C 1048.64 1.17335 2.51252 0
M  V30 11349 H 1051.59 1.06528 1.17633 0
M  V30 11350 H 1051.61 0.31508 3.79193 0
M  V30 11351 H 1051.12 2.06778 3.28427 0
M  V30 11352 H 1049.22 -0.36122 3.70845 0
M  V30 11353 H 1049.34 1.2913 4.6137 0
M  V30 11354 H 1047.7 0.592808 2.47705 0
M  V30 11355 H 1048.48 2.26083 2.58343 0
M  V30 11356 N 1050.93 -1.4397 0.641131 0
M  V30 11357 C 1052.18 -2.01163 0.147026 0
M  V30 11358 C 1052.49 -1.51099 -1.24211 0
M  V30 11359 O 1053.7 -2.00487 -1.83078 0
M  V30 11360 C 1052.15 -3.59275 0.212068 0
M  V30 11361 C 1051.76 -4.18334 1.60314 0
M  V30 11362 C 1053.51 -4.23903 -0.225057 0
M  V30 11363 C 1051.41 -5.68701 1.62276 0
M  V30 11364 H 1050.34 -0.75226 0.051201 0
M  V30 11365 H 1052.99 -1.65075 0.801396 0
M  V30 11366 H 1051.38 -3.92708 -0.509589 0
M  V30 11367 H 1052.55 -3.96422 2.34918 0
M  V30 11368 H 1050.86 -3.66031 1.9852 0
M  V30 11369 H 1053.46 -5.34205 -0.230074 0
M  V30 11370 H 1053.8 -3.96956 -1.25426 0
M  V30 11371 H 1054.34 -3.95309 0.44444 0
M  V30 11372 H 1051.08 -6.00397 2.63066 0
M  V30 11373 H 1050.6 -5.92705 0.919797 0
M  V30 11374 H 1052.28 -6.32521 1.36112 0
M  V30 11375 N 1052.41 -0.382291 -1.52893 0
M  V30 11376 C 1053.35 0.456234 -2.26246 0
M  V30 11377 C 1054.32 1.06366 -1.27575 0
M  V30 11378 O 1055.51 1.09301 -1.5639 0
M  V30 11379 C 1052.65 1.5813 -3.06739 0
M  V30 11380 C 1051.76 0.997416 -4.20328 0
M  V30 11381 C 1050.9 2.09296 -4.8823 0
M  V30 11382 C 1049.94 1.4846 -5.93823 0
M  V30 11383 N 1049.07 2.51916 -6.55349 0
M  V30 11384 H 1053.91 -0.175761 -2.97481 0
M  V30 11385 H 1051.45 -0.0985046 -1.4677 0
M  V30 11386 H 1053.41 2.24426 -3.51694 0
M  V30 11387 H 1052.04 2.18371 -2.37727 0
M  V30 11388 H 1051.09 0.224251 -3.79738 0
M  V30 11389 H 1052.4 0.512784 -4.96157 0
M  V30 11390 H 1051.56 2.83377 -5.36453 0
M  V30 11391 H 1050.3 2.61116 -4.1191 0
M  V30 11392 H 1049.3 0.729001 -5.44946 0
M  V30 11393 H 1050.53 0.97443 -6.72073 0
M  V30 11394 H 1048.47 3.02919 -5.81873 0
M  V30 11395 H 1048.39 2.08188 -7.26769 0
M  V30 11396 H 1049.66 3.25649 -7.08218 0
M  V30 11397 N 1053.89 1.57202 -0.111913 0
M  V30 11398 C 1054.85 2.13778 0.826534 0
M  V30 11399 C 1055.85 1.07097 1.19945 0
M  V30 11400 O 1057.04 1.32906 1.12613 0
M  V30 11401 C 1054.17 2.6722 2.11675 0
M  V30 11402 H 1055.36 2.98023 0.334975 0
M  V30 11403 H 1052.92 1.55696 0.137256 0
M  V30 11404 H 1053.65 1.86542 2.65278 0
M  V30 11405 H 1053.44 3.45235 1.8589 0
M  V30 11406 H 1054.93 3.10926 2.78774 0
M  V30 11407 N 1055.36 -0.161842 1.56767 0
M  V30 11408 C 1056.29 -1.20226 2.0017 0
M  V30 11409 C 1057.27 -1.4564 0.878807 0
M  V30 11410 O 1058.46 -1.56813 1.14557 0
M  V30 11411 C 1055.59 -2.53897 2.36968 0
M  V30 11412 C 1054.54 -2.43033 3.52305 0
M  V30 11413 C 1053.87 -3.81281 3.74872 0
M  V30 11414 C 1055.17 -1.927 4.85453 0
M  V30 11415 H 1056.86 -0.84142 2.87333 0
M  V30 11416 H 1054.41 -0.403309 1.38237 0
M  V30 11417 H 1056.36 -3.26893 2.6593 0
M  V30 11418 H 1055.09 -2.91787 1.46724 0
M  V30 11419 H 1053.75 -1.7249 3.23485 0
M  V30 11420 H 1053.39 -4.1658 2.81904 0
M  V30 11421 H 1053.09 -3.74877 4.52483 0
M  V30 11422 H 1054.62 -4.55848 4.06245 0
M  V30 11423 H 1056.03 -2.55477 5.13229 0
M  V30 11424 H 1054.43 -1.97222 5.66766 0
M  V30 11425 H 1055.5 -0.881816 4.76814 0
M  V30 11426 N 1056.84 -1.516 -0.430713 0
M  V30 11427 C 1058.09 -1.64271 -1.17726 0
M  V30 11428 C 1058.41 -0.364406 -1.91565 0
M  V30 11429 O 1057.68 0.619991 -1.8583 0
M  V30 11430 H 1056.26 -0.605432 -0.437562 0
M  V30 11431 H 1058.92 -1.88557 -0.493166 0
M  V30 11432 H 1058.02 -2.47355 -1.90321 0
M  V30 11433 N 1058.32 0.686584 -1.41858 0
M  V30 11434 C 1059.25 1.81264 -1.47193 0
M  V30 11435 C 1060.23 1.66875 -0.329657 0
M  V30 11436 O 1061.42 1.86473 -0.542347 0
M  V30 11437 C 1058.55 3.19472 -1.36216 0
M  V30 11438 C 1057.5 3.4858 -2.48347 0
M  V30 11439 C 1056.83 4.86239 -2.22432 0
M  V30 11440 C 1058.13 3.46653 -3.90678 0
M  V30 11441 H 1059.82 1.77057 -2.41436 0
M  V30 11442 H 1057.37 0.850415 -1.16206 0
M  V30 11443 H 1059.32 3.97969 -1.38558 0
M  V30 11444 H 1058.04 3.24327 -0.384611 0
M  V30 11445 H 1056.7 2.72437 -2.45303 0
M  V30 11446 H 1056.35 4.8773 -1.22999 0
M  V30 11447 H 1056.05 5.06677 -2.97577 0
M  V30 11448 H 1057.57 5.67034 -2.26505 0
M  V30 11449 H 1058.99 4.15139 -3.95389 0
M  V30 11450 H 1057.38 3.78625 -4.65578 0
M  V30 11451 H 1058.45 2.45451 -4.18189 0
M  V30 11452 N 1059.8 1.27835 0.921735 0
M  V30 11453 C 1061.03 1.17182 1.70153 0
M  V30 11454 C 1061.44 -0.273207 1.87217 0
M  V30 11455 O 1060.78 -1.19729 1.39322 0
M  V30 11456 C 1060.84 1.78969 3.11786 0
M  V30 11457 C 1060.5 3.28179 3.18037 0
M  V30 11458 C 1061.5 4.24729 2.99835 0
M  V30 11459 C 1059.19 3.68995 3.40805 0
M  V30 11460 C 1061.18 5.60071 3.04301 0
M  V30 11461 C 1058.87 5.04465 3.44904 0
M  V30 11462 C 1059.87 5.99813 3.2667 0
M  V30 11463 O 1059.55 7.32813 3.30515 0
M  V30 11464 H 1059.29 0.408079 0.538932 0
M  V30 11465 H 1061.84 1.69326 1.16266 0
M  V30 11466 H 1060.07 1.2131 3.6718 0
M  V30 11467 H 1061.76 1.62946 3.71757 0
M  V30 11468 H 1062.52 3.94533 2.8208 0
M  V30 11469 H 1058.4 2.9525 3.54045 0
M  V30 11470 H 1061.95 6.34471 2.89987 0
M  V30 11471 H 1057.84 5.34315 3.62185 0
M  V30 11472 H 1058.61 7.41338 3.4693 0
M  V30 11473 N 1061.28 -1.12907 1.09954 0
M  V30 11474 C 1062.22 -2.18485 0.743848 0
M  V30 11475 C 1063.19 -1.63766 -0.277494 0
M  V30 11476 O 1064.38 -1.90146 -0.157899 0
M  V30 11477 C 1061.52 -3.44649 0.176437 0
M  V30 11478 C 1060.63 -4.13445 1.25248 0
M  V30 11479 C 1059.77 -5.27242 0.647242 0
M  V30 11480 C 1058.8 -5.87897 1.70421 0
M  V30 11481 N 1057.94 -6.93116 1.1196 0
M  V30 11482 H 1062.78 -2.48257 1.64841 0
M  V30 11483 H 1060.32 -1.21891 0.823471 0
M  V30 11484 H 1062.28 -4.16852 -0.170384 0
M  V30 11485 H 1060.91 -3.15309 -0.69137 0
M  V30 11486 H 1059.96 -3.39471 1.7165 0
M  V30 11487 H 1061.27 -4.54601 2.05279 0
M  V30 11488 H 1060.42 -6.06186 0.249579 0
M  V30 11489 H 1059.16 -4.87351 -0.184556 0
M  V30 11490 H 1058.17 -5.07643 2.11136 0
M  V30 11491 H 1059.39 -6.2986 2.53877 0
M  V30 11492 H 1057.34 -6.55271 0.309181 0
M  V30 11493 H 1057.26 -7.32843 1.85681 0
M  V30 11494 H 1058.52 -7.759 0.748326 0
M  V30 11495 N 1062.75 -0.88754 -1.30232 0
M  V30 11496 C 1063.7 -0.345765 -2.30016 0
M  V30 11497 C 1064.7 0.5486 -1.60271 0
M  V30 11498 O 1065.9 0.43275 -1.74721 0
M  V30 11499 H 1062.28 -0.0931623 -0.746207 0
M  V30 11500 H 1064.25 -1.20095 -2.73166 0
M  V30 11501 C 1063 0.422435 -3.45124 0
M  V30 11502 H 1062.32 -0.256516 -3.98976 0
M  V30 11503 H 1063.76 0.766572 -4.17013 0
M  V30 11504 C 1062.22 1.62049 -2.95367 0
M  V30 11505 O 1062.75 2.71985 -2.95613 0
M  V30 11506 N 1060.95 1.45852 -2.51347 0
M  V30 11507 H 1060.5 0.564158 -2.51346 0
M  V30 11508 H 1060.46 2.26148 -2.18413 0
M  V30 11509 N 1064.23 1.43628 -0.648757 0
M  V30 11510 C 1065.18 2.30755 0.0455536 0
M  V30 11511 C 1066.15 1.44495 0.819168 0
M  V30 11512 O 1067.33 1.73372 0.79667 0
M  V30 11513 C 1064.47 3.30017 1.00908 0
M  V30 11514 C 1063.59 4.31376 0.232039 0
M  V30 11515 C 1062.72 5.17723 1.18897 0
M  V30 11516 C 1061.76 6.10778 0.402096 0
M  V30 11517 N 1060.9 6.89763 1.31038 0
M  V30 11518 H 1065.74 2.89581 -0.70332 0
M  V30 11519 H 1063.28 1.42662 -0.3586 0
M  V30 11520 H 1065.23 3.86072 1.58128 0
M  V30 11521 H 1063.86 2.72851 1.72488 0
M  V30 11522 H 1062.92 3.77652 -0.456373 0
M  V30 11523 H 1064.23 4.9735 -0.380023 0
M  V30 11524 H 1063.38 5.78381 1.83194 0
M  V30 11525 H 1062.12 4.51864 1.83494 0
M  V30 11526 H 1061.13 5.49212 -0.254255 0
M  V30 11527 H 1062.35 6.78678 -0.239411 0
M  V30 11528 H 1060.3 6.26557 1.94324 0
M  V30 11529 H 1060.21 7.52243 0.752774 0
M  V30 11530 H 1061.48 7.54931 1.94164 0
M  V30 11531 N 1065.71 0.390394 1.52688 0
M  V30 11532 C 1066.94 -0.191207 2.05713 0
M  V30 11533 C 1067.35 -1.40973 1.26188 0
M  V30 11534 O 1066.69 -1.81202 0.301938 0
M  V30 11535 C 1066.75 -0.624794 3.54029 0
M  V30 11536 C 1066.42 0.480413 4.54468 0
M  V30 11537 C 1067.41 1.33816 5.02384 0
M  V30 11538 C 1065.1 0.647754 4.98106 0
M  V30 11539 C 1067.09 2.34836 5.92563 0
M  V30 11540 C 1064.78 1.66129 5.88085 0
M  V30 11541 C 1065.78 2.51001 6.35206 0
M  V30 11542 O 1065.47 3.50622 7.23408 0
M  V30 11543 H 1065.2 -0.032221 0.675232 0
M  V30 11544 H 1067.75 0.554431 1.97776 0
M  V30 11545 H 1065.98 -1.42243 3.59589 0
M  V30 11546 H 1067.67 -1.13219 3.8979 0
M  V30 11547 H 1068.44 1.22019 4.694 0
M  V30 11548 H 1064.32 -0.00314511 4.61 0
M  V30 11549 H 1067.86 3.01117 6.29265 0
M  V30 11550 H 1063.76 1.77964 6.20483 0
M  V30 11551 H 1064.53 3.46644 7.41472 0
M  V30 11552 N 1067.19 -1.57141 0.120249 0
M  V30 11553 C 1068.44 -1.94852 -0.536387 0
M  V30 11554 C 1068.76 -1.00452 -1.67136 0
M  V30 11555 O 1068.03 -0.061053 -1.95805 0
M  V30 11556 H 1066.61 -0.719411 -0.201138 0
M  V30 11557 H 1069.27 -1.93977 0.189482 0
M  V30 11558 H 1068.37 -2.97917 -0.930145 0
M  V30 11559 N 1068.67 0.153526 -1.5685 0
M  V30 11560 C 1069.94 0.895545 -1.73895 0
M  V30 11561 C 1070.32 1.99625 -0.686504 0
M  V30 11562 O 1069.67 2.26579 0.2957 0
M  V30 11563 C 1069.88 1.44399 -3.17726 0
M  V30 11564 C 1071.23 1.90996 -3.79217 0
M  V30 11565 O 1072.25 1.54155 -3.21115 0
M  V30 11566 O 1071.11 2.58917 -4.81274 0
M  V30 11567 H 1068.21 0.422755 -0.710779 0
M  V30 11568 H 1070.75 0.139961 -1.69122 0
M  V30 11569 H 1069.52 0.652635 -3.85819 0
M  V30 11570 H 1069.15 2.26326 -3.26898 0
M  V30 11571 N 1070.14 1.51827 0.422667 0
M  V30 11572 C 1071.09 1.74198 1.51406 0
M  V30 11573 C 1072.06 0.584013 1.55494 0
M  V30 11574 O 1073.25 0.820079 1.72277 0
M  V30 11575 C 1070.39 1.88627 2.88988 0
M  V30 11576 C 1069.5 3.16233 2.94314 0
M  V30 11577 C 1068.63 3.21172 4.2311 0
M  V30 11578 C 1067.67 4.43033 4.2236 0
M  V30 11579 N 1066.81 4.4544 5.42704 0
M  V30 11580 H 1071.65 2.67352 1.31632 0
M  V30 11581 H 1069.19 1.32487 0.63919 0
M  V30 11582 H 1071.15 1.94976 3.68837 0
M  V30 11583 H 1069.78 0.988673 3.07287 0
M  V30 11584 H 1068.83 3.19123 2.07039 0
M  V30 11585 H 1070.14 4.06104 2.89623 0
M  V30 11586 H 1069.29 3.26517 5.11343 0
M  V30 11587 H 1068.03 2.29216 4.30478 0
M  V30 11588 H 1067.04 4.37849 3.32518 0
M  V30 11589 H 1068.26 5.3627 4.16643 0
M  V30 11590 H 1066.21 3.56361 5.50766 0
M  V30 11591 H 1066.13 5.29138 5.39953 0
M  V30 11592 H 1067.39 4.54997 6.32928 0
M  V30 11593 N 1071.62 -0.679052 1.4222 0
M  V30 11594 C 1072.87 -1.44125 1.42674 0
M  V30 11595 C 1073.2 -1.94156 0.041438 0
M  V30 11596 O 1072.48 -1.70628 -0.93361 0
M  V30 11597 C 1072.76 -2.64133 2.44756 0
M  V30 11598 C 1072.61 -2.19761 3.9246 0
M  V30 11599 C 1073.93 -3.66347 2.43881 0
M  V30 11600 H 1071.05 -0.522729 0.519541 0
M  V30 11601 H 1073.69 -0.772067 1.73606 0
M  V30 11602 H 1071.84 -3.21225 2.1851 0
M  V30 11603 H 1073.51 -1.67869 4.29671 0
M  V30 11604 H 1071.76 -1.51377 4.06531 0
M  V30 11605 H 1072.43 -3.05944 4.59459 0
M  V30 11606 H 1074.9 -3.18963 2.67211 0
M  V30 11607 H 1073.78 -4.47902 3.17293 0
M  V30 11608 H 1074.04 -4.17183 1.46325 0
M  V30 11609 N 1073.1 -1.28322 -0.914942 0
M  V30 11610 C 1074.03 -1.14681 -2.03398 0
M  V30 11611 C 1075.01 -0.0448939 -1.70041 0
M  V30 11612 O 1076.2 -0.221672 -1.92931 0
M  V30 11613 C 1073.33 -0.806623 -3.37803 0
M  V30 11614 C 1072.28 -1.86318 -3.85318 0
M  V30 11615 C 1071.61 -1.37665 -5.16674 0
M  V30 11616 C 1072.91 -3.26953 -4.07307 0
M  V30 11617 H 1074.6 -2.08293 -2.15068 0
M  V30 11618 H 1072.15 -1.00284 -1.03339 0
M  V30 11619 H 1074.1 -0.69796 -4.1558 0
M  V30 11620 H 1072.82 0.165203 -3.26182 0
M  V30 11621 H 1071.48 -1.96096 -3.09745 0
M  V30 11622 H 1071.13 -0.393927 -5.01455 0
M  V30 11623 H 1070.83 -2.08313 -5.49435 0
M  V30 11624 H 1072.35 -1.28119 -5.97007 0
M  V30 11625 H 1073.77 -3.20102 -4.75613 0
M  V30 11626 H 1072.17 -3.95424 -4.51398 0
M  V30 11627 H 1073.24 -3.71059 -3.12159 0
M  V30 11628 N 1074.58 1.12322 -1.10551 0
M  V30 11629 C 1075.82 1.8413 -0.849932 0
M  V30 11630 C 1076.16 1.83938 0.622946 0
M  V30 11631 O 1075.43 1.28579 1.45937 0
M  V30 11632 C 1075.72 3.31751 -1.40048 0
M  V30 11633 C 1075.57 3.40391 -2.9403 0
M  V30 11634 C 1076.89 4.27543 -1.04379 0
M  V30 11635 H 1074.01 0.668533 -0.310213 0
M  V30 11636 H 1076.65 1.31766 -1.36886 0
M  V30 11637 H 1074.8 3.76475 -0.959102 0
M  V30 11638 H 1076.47 3.04294 -3.46703 0
M  V30 11639 H 1074.71 2.809 -3.30571 0
M  V30 11640 H 1075.38 4.44252 -3.27635 0
M  V30 11641 H 1077.86 3.90951 -1.42466 0
M  V30 11642 H 1076.74 5.2924 -1.4559 0
M  V30 11643 H 1077 4.42075 0.0466316 0
M  V30 11644 O 1076.1 1.02707 1.24633 0
M  V30 11645 H 1076.79 0.69186 1.80923 0
M  V30 END ATOM
M  V30 BEGIN BOND
M  V30 END BOND
M  V30 END CTAB
M  END
$$$$
