drugbank_target|Q04917 14-3-3 protein eta (DB12695)
 OpenBabel12092121073D

  0  0  0     0  0            999 V3000
M  V30 BEGIN CTAB
M  V30 COUNTS 3924 3951 0 0 0
M  V30 BEGIN ATOM
M  V30 1 H -0.908 1.98254 -0.117106 0
M  V30 2 N 0 1.576 0 0
M  V30 3 C 0.933 2.03868 1.02534 0
M  V30 4 C 1.911 0.928543 1.3348 0
M  V30 5 O 3.095 1.19667 1.45644 0
M  V30 6 C 0.222 2.43627 2.35294 0
M  V30 7 C -0.732 3.65373 2.2001 0
M  V30 8 S 0.101 5.13292 1.52614 0
M  V30 9 C 1.257 5.56322 2.86805 0
M  V30 10 H 1.49 2.90518 0.631377 0
M  V30 11 H -0.977 1.52953 0.210867 0
M  V30 12 H 0.981 2.67203 3.11629 0
M  V30 13 H -0.358 1.57376 2.7183 0
M  V30 14 H -1.165 3.90944 3.18086 0
M  V30 15 H -1.563 3.418 1.51819 0
M  V30 16 H 0.729 5.58782 3.83104 0
M  V30 17 H 1.672 6.56266 2.65933 0
M  V30 18 H 2.08 4.83886 2.90714 0
M  V30 19 N 1.4781 -0.272755 1.55222 0
M  V30 20 C 2.7261 -1.00234 1.75492 0
M  V30 21 C 3.0471 -1.8681 0.5592 0
M  V30 22 O 2.3171 -1.91215 -0.425882 0
M  V30 23 H 0.8971 -0.373076 0.647166 0
M  V30 24 H 3.5591 -0.296926 1.92625 0
M  V30 25 H 2.6551 -1.63913 2.65592 0
M  V30 26 N 2.9562 -1.48159 -0.537278 0
M  V30 27 C 4.2332 -1.46291 -1.29839 0
M  V30 28 C 4.6132 -0.170613 -2.10409 0
M  V30 29 O 3.9612 0.847746 -2.12192 0
M  V30 30 C 4.1712 -2.72055 -2.18603 0
M  V30 31 C 5.5192 -3.20087 -2.7898 0
M  V30 32 O 6.5432 -2.72921 -2.28894 0
M  V30 33 O 5.4022 -4.02138 -3.70064 0
M  V30 34 H 2.4962 -0.583906 -0.585647 0
M  V30 35 H 5.0422 -1.60384 -0.554534 0
M  V30 36 H 3.8142 -3.57628 -1.58801 0
M  V30 37 H 3.4372 -2.60646 -3.00249 0
M  V30 38 N 4.4343 0.785586 -1.36625 0
M  V30 39 C 5.8503 1.08419 -1.17122 0
M  V30 40 C 6.0503 2.015 0.00208491 0
M  V30 41 O 5.1063 2.43551 0.666278 0
M  V30 42 C 6.4193 1.69498 -2.48377 0
M  V30 43 C 7.9673 1.81821 -2.54775 0
M  V30 44 C 8.4423 2.46315 -3.86126 0
M  V30 45 N 9.9333 2.53779 -3.87492 0
M  V30 46 C 10.6683 3.045 -4.85868 0
M  V30 47 N 10.1643 3.55499 -5.94637 0
M  V30 48 N 11.9573 3.03247 -4.73284 0
M  V30 49 H 4.1083 0.167264 -2.1174 0
M  V30 50 H 6.3713 0.13682 -0.938075 0
M  V30 51 H 6.0773 1.08571 -3.34522 0
M  V30 52 H 5.9513 2.6896 -2.64462 0
M  V30 53 H 8.3383 2.41884 -1.69045 0
M  V30 54 H 8.4193 0.811532 -2.42586 0
M  V30 55 H 8.0633 1.86895 -4.72263 0
M  V30 56 H 7.9933 3.47561 -3.95612 0
M  V30 57 H 10.4843 2.17672 -3.08913 0
M  V30 58 H 10.7973 3.92562 -6.65669 0
M  V30 59 H 9.1423 3.5364 -5.98301 0
M  V30 60 H 12.3333 2.62696 -3.87438 0
M  V30 61 H 12.5063 3.42467 -5.50109 0
M  V30 62 N 5.9124 1.20967 1.01018 0
M  V30 63 C 6.8224 0.980157 2.13143 0
M  V30 64 C 7.8384 -0.0660665 1.73875 0
M  V30 65 O 9.0144 0.122821 2.01025 0
M  V30 66 C 6.0794 0.54216 3.42435 0
M  V30 67 C 5.1404 1.65999 3.95908 0
M  V30 68 C 4.3734 1.2428 5.19028 0
M  V30 69 O 4.5964 0.114196 5.70286 0
M  V30 70 O 3.5304 2.05271 5.65816 0
M  V30 71 H 7.3564 1.91913 2.35379 0
M  V30 72 H 4.9414 0.994099 1.11526 0
M  V30 73 H 6.8234 0.30744 4.20277 0
M  V30 74 H 5.4984 -0.36815 3.216 0
M  V30 75 H 4.4054 1.94906 3.19316 0
M  V30 76 H 5.7384 2.54753 4.21143 0
M  V30 77 N 7.3905 -1.2043 1.01659 0
M  V30 78 C 8.3225 -2.22626 0.544988 0
M  V30 79 C 9.3355 -1.58479 -0.372609 0
M  V30 80 O 10.5245 -1.77679 -0.170958 0
M  V30 81 C 7.6245 -3.38141 -0.22663 0
M  V30 82 C 6.7975 -4.31877 0.692876 0
M  V30 83 C 5.8565 -5.26191 -0.0311616 0
M  V30 84 O 4.8825 -5.6612 0.591343 0
M  V30 85 N 6.0845 -5.65618 -1.30601 0
M  V30 86 H 8.8495 -2.63716 1.42388 0
M  V30 87 H 6.4105 -1.34971 0.894116 0
M  V30 88 H 8.4025 -3.98239 -0.72024 0
M  V30 89 H 6.9725 -2.95943 -1.00681 0
M  V30 90 H 6.1925 -3.69746 1.36679 0
M  V30 91 H 7.4805 -4.91426 1.31824 0
M  V30 92 H 6.8785 -5.3519 -1.83269 0
M  V30 93 H 5.4355 -6.28025 -1.74435 0
M  V30 94 N 8.8686 -0.792821 -1.36206 0
M  V30 95 C 9.7986 -0.207853 -2.32573 0
M  V30 96 C 10.7796 0.659055 -1.56813 0
M  V30 97 O 11.9646 0.592176 -1.84951 0
M  V30 98 C 9.0946 0.655449 -3.41059 0
M  V30 99 C 8.0486 -0.111842 -4.27854 0
M  V30 100 C 7.3746 0.872274 -5.27537 0
M  V30 101 C 8.6746 -1.30299 -5.05786 0
M  V30 102 H 10.3686 -1.01294 -2.81744 0
M  V30 103 H 7.9146 -0.48854 -1.3546 0
M  V30 104 H 9.8676 1.07464 -4.07467 0
M  V30 105 H 8.5916 1.49328 -2.90463 0
M  V30 106 H 7.2506 -0.512053 -3.63006 0
M  V30 107 H 6.8986 1.70523 -4.73214 0
M  V30 108 H 6.5986 0.363291 -5.86476 0
M  V30 109 H 8.1226 1.28996 -5.96818 0
M  V30 110 H 9.5366 -0.959379 -5.65216 0
M  V30 111 H 7.9336 -1.7455 -5.74154 0
M  V30 112 H 9.0036 -2.09663 -4.37229 0
M  V30 113 N 10.3467 1.47872 -0.545128 0
M  V30 114 C 11.2767 2.32661 0.197793 0
M  V30 115 C 12.2577 1.43041 0.920504 0
M  V30 116 O 13.4427 1.71912 0.90333 0
M  V30 117 C 10.5727 3.24569 1.23582 0
M  V30 118 C 9.5267 4.23333 0.630323 0
M  V30 119 C 8.8527 5.0448 1.77211 0
M  V30 120 C 10.1527 5.20704 -0.407974 0
M  V30 121 H 11.8467 2.95024 -0.510045 0
M  V30 122 H 9.3927 1.4187 -0.246731 0
M  V30 123 H 11.3457 3.8272 1.76362 0
M  V30 124 H 10.0697 2.60236 1.97344 0
M  V30 125 H 8.7287 3.6639 0.123922 0
M  V30 126 H 8.3767 4.36561 2.49847 0
M  V30 127 H 8.0767 5.71339 1.37281 0
M  V30 128 H 9.6007 5.65487 2.3034 0
M  V30 129 H 11.0147 5.7329 0.033305 0
M  V30 130 H 9.4117 5.95699 -0.725486 0
M  V30 131 H 10.4817 4.66917 -1.30828 0
M  V30 132 N 11.8248 0.280983 1.55075 0
M  V30 133 C 12.7568 -0.637268 2.20163 0
M  V30 134 C 13.7698 -1.11298 1.18813 0
M  V30 135 O 14.9588 -1.03388 1.4551 0
M  V30 136 C 12.0588 -1.88199 2.81841 0
M  V30 137 C 11.2318 -1.55211 4.08936 0
M  V30 138 C 10.2908 -2.64991 4.54606 0
M  V30 139 O 9.3168 -2.30929 5.2025 0
M  V30 140 N 10.5188 -3.95161 4.25238 0
M  V30 141 H 13.2838 -0.0801694 2.99593 0
M  V30 142 H 10.8448 0.102329 1.61576 0
M  V30 143 H 12.8368 -2.60948 3.09335 0
M  V30 144 H 11.4068 -2.34799 2.06369 0
M  V30 145 H 10.6268 -0.658185 3.88666 0
M  V30 146 H 11.9148 -1.30681 4.91732 0
M  V30 147 H 11.3128 -4.25653 3.72607 0
M  V30 148 H 9.8698 -4.6427 4.5749 0
M  V30 149 N 13.3029 -1.57598 0.00835791 0
M  V30 150 C 14.7189 -1.55764 -0.347822 0
M  V30 151 C 14.9189 -1.01186 -1.74252 0
M  V30 152 O 13.9749 -0.649371 -2.44007 0
M  V30 153 C 15.2879 -2.99927 -0.215407 0
M  V30 154 C 16.8359 -3.11656 -0.289725 0
M  V30 155 C 17.3109 -4.57621 -0.18634 0
M  V30 156 N 18.8019 -4.62557 -0.243978 0
M  V30 157 C 19.5369 -5.73094 -0.18745 0
M  V30 158 N 19.0329 -6.92753 -0.0810331 0
M  V30 159 N 20.8259 -5.61588 -0.239925 0
M  V30 160 H 12.9769 -1.91411 0.92062 0
M  V30 161 H 15.2399 -0.879562 0.353659 0
M  V30 162 H 14.9459 -3.43729 0.744512 0
M  V30 163 H 14.8199 -3.63865 -0.994097 0
M  V30 164 H 17.2069 -2.67779 -1.24009 0
M  V30 165 H 17.2879 -2.5048 0.51898 0
M  V30 166 H 16.9319 -5.02174 0.760519 0
M  V30 167 H 16.8619 -5.16752 -1.01364 0
M  V30 168 H 19.3529 -3.76481 -0.327217 0
M  V30 169 H 19.6659 -7.72787 -0.0440241 0
M  V30 170 H 18.0109 -6.94984 -0.0465419 0
M  V30 171 H 21.2019 -4.66996 -0.321317 0
M  V30 172 H 21.3749 -6.47714 -0.192407 0
M  V30 173 N 14.781 0.264519 -1.55364 0
M  V30 174 C 15.744 1.31046 -1.88042 0
M  V30 175 C 16.744 1.41943 -0.755569 0
M  V30 176 O 17.934 1.40947 -1.02369 0
M  V30 177 C 15.066 2.69067 -2.09323 0
M  V30 178 H 16.259 1.03297 -2.81549 0
M  V30 179 H 13.812 0.502989 -1.47986 0
M  V30 180 H 14.547 3.01982 -1.18226 0
M  V30 181 H 14.332 2.62542 -2.91229 0
M  V30 182 H 15.822 3.44623 -2.35848 0
M  V30 183 N 16.2591 1.48442 0.529413 0
M  V30 184 C 17.6751 1.34575 0.858004 0
M  V30 185 C 17.8751 0.3572 1.98309 0
M  V30 186 O 16.9311 -0.221379 2.51528 0
M  V30 187 C 18.2441 2.74617 1.22499 0
M  V30 188 C 19.7921 2.83109 1.33484 0
M  V30 189 C 20.2671 4.23854 1.73526 0
M  V30 190 N 21.7581 4.2653 1.80628 0
M  V30 191 C 22.4931 5.32372 2.12997 0
M  V30 192 N 21.9891 6.48491 2.43786 0
M  V30 193 N 23.7821 5.19766 2.14008 0
M  V30 194 H 15.9331 2.1133 -0.212925 0
M  V30 195 H 18.1961 0.947439 -0.0326199 0
M  V30 196 H 17.9021 3.4852 0.471905 0
M  V30 197 H 17.7761 3.08177 2.17501 0
M  V30 198 H 20.1631 2.09462 2.0787 0
M  V30 199 H 20.2441 2.53168 0.366027 0
M  V30 200 H 19.8881 4.98018 0.997013 0
M  V30 201 H 19.8181 4.5124 2.71459 0
M  V30 202 H 22.3091 3.42772 1.59108 0
M  V30 203 H 22.6221 7.24993 2.67592 0
M  V30 204 H 20.9671 6.51765 2.41304 0
M  V30 205 H 24.1581 4.28066 1.89412 0
M  V30 206 H 24.3311 6.02354 2.38902 0
M  V30 207 N 17.7372 -0.778329 1.37039 0
M  V30 208 C 18.6672 -1.90546 1.34962 0
M  V30 209 C 19.6482 -1.68681 0.219274 0
M  V30 210 O 20.8332 -1.89634 0.418624 0
M  V30 211 C 17.9632 -3.27734 1.14925 0
M  V30 212 C 16.9172 -3.64147 2.24902 0
M  V30 213 C 16.2432 -4.99806 1.89996 0
M  V30 214 C 17.5432 -3.71579 3.67051 0
M  V30 215 H 19.2372 -1.92541 2.29277 0
M  V30 216 H 16.7832 -0.924948 1.10366 0
M  V30 217 H 18.7362 -4.06215 1.12104 0
M  V30 218 H 17.4602 -3.26154 0.170631 0
M  V30 219 H 16.1192 -2.8797 2.26868 0
M  V30 220 H 15.7672 -4.94759 0.906796 0
M  V30 221 H 15.4672 -5.25139 2.63634 0
M  V30 222 H 16.9912 -5.80694 1.88749 0
M  V30 223 H 18.4052 -4.40227 3.67251 0
M  V30 224 H 16.8022 -4.08405 4.39688 0
M  V30 225 H 17.8722 -2.72404 4.01154 0
M  V30 226 N 19.2153 -1.21501 -1.00376 0
M  V30 227 C 20.1783 -0.976927 -2.07337 0
M  V30 228 C 21.1783 0.0525322 -1.60714 0
M  V30 229 O 22.3683 -0.184869 -1.73216 0
M  V30 230 C 19.5003 -0.473423 -3.37597 0
M  V30 231 H 20.6933 -1.92587 -2.29892 0
M  V30 232 H 18.2463 -1.03217 -1.17371 0
M  V30 233 H 18.9813 0.480379 -3.20722 0
M  V30 234 H 18.7663 -1.216 -3.72768 0
M  V30 235 H 20.2563 -0.32675 -4.1632 0
M  V30 236 N 20.6934 1.19889 -1.02296 0
M  V30 237 C 21.6034 2.26571 -0.608508 0
M  V30 238 C 22.6194 1.70299 0.356964 0
M  V30 239 O 23.7954 2.00235 0.216326 0
M  V30 240 C 20.8604 3.46677 0.0402814 0
M  V30 241 C 19.9214 4.18153 -0.97194 0
M  V30 242 C 19.1544 5.32525 -0.354016 0
M  V30 243 O 19.3774 5.64112 0.844604 0
M  V30 244 O 18.3114 5.92242 -1.07391 0
M  V30 245 H 22.1374 2.64251 -1.49684 0
M  V30 246 H 19.7224 1.26629 -0.792809 0
M  V30 247 H 21.6044 4.19475 0.402324 0
M  V30 248 H 20.2794 3.10858 0.902707 0
M  V30 249 H 19.1864 3.47499 -1.38546 0
M  V30 250 H 20.5194 4.57927 -1.80454 0
M  V30 251 N 22.1715 0.800033 1.35784 0
M  V30 252 C 23.1035 0.163596 2.28615 0
M  V30 253 C 24.1165 -0.633317 1.49976 0
M  V30 254 O 25.3055 -0.466754 1.72289 0
M  V30 255 C 22.4055 -0.790958 3.29541 0
M  V30 256 C 21.5785 -0.0418255 4.3738 0
M  V30 257 C 20.6375 -0.91389 5.18203 0
M  V30 258 O 19.6635 -0.367234 5.68014 0
M  V30 259 N 20.8655 -2.23682 5.35674 0
M  V30 260 H 23.6305 0.96105 2.83873 0
M  V30 261 H 21.1915 0.654894 1.48063 0
M  V30 262 H 23.1835 -1.37844 3.80501 0
M  V30 263 H 21.7535 -1.48925 2.74846 0
M  V30 264 H 20.9735 0.726813 3.87442 0
M  V30 265 H 22.2615 0.474719 5.06581 0
M  V30 266 H 21.6595 -2.70497 4.96838 0
M  V30 267 H 20.2165 -2.77369 5.89839 0
M  V30 268 N 23.6496 -1.47581 0.552962 0
M  V30 269 C 24.6126 -2.28439 -0.186605 0
M  V30 270 C 25.6126 -1.36706 -0.84665 0
M  V30 271 O 26.8026 -1.59378 -0.703164 0
M  V30 272 C 23.9346 -3.16264 -1.2724 0
M  V30 273 H 25.1276 -2.95294 0.523609 0
M  V30 274 H 22.6806 -1.532 0.309745 0
M  V30 275 H 23.4156 -2.54091 -2.01514 0
M  V30 276 H 23.2006 -3.83769 -0.803968 0
M  V30 277 H 24.6906 -3.77198 -1.79196 0
M  V30 278 N 25.1277 -0.289203 -1.54924 0
M  V30 279 C 26.0377 0.601863 -2.26748 0
M  V30 280 C 27.0537 1.15834 -1.2984 0
M  V30 281 O 28.2297 1.18564 -1.62802 0
M  V30 282 C 25.2947 1.76299 -2.98529 0
M  V30 283 C 24.3557 1.24178 -4.10948 0
M  V30 284 C 23.5887 2.34757 -4.79296 0
M  V30 285 O 23.8117 3.54411 -4.46933 0
M  V30 286 O 22.7457 2.02115 -5.66951 0
M  V30 287 H 26.5717 0.0195879 -3.03694 0
M  V30 288 H 24.1567 -0.0560868 -1.49295 0
M  V30 289 H 26.0387 2.43973 -3.43592 0
M  V30 290 H 24.7137 2.33209 -2.24488 0
M  V30 291 H 23.6207 0.531104 -3.70311 0
M  V30 292 H 24.9537 0.718252 -4.86931 0
M  V30 293 N 26.6058 1.57591 -0.0167156 0
M  V30 294 C 28.0218 1.55946 0.339557 0
M  V30 295 C 28.2218 1.02109 1.73713 0
M  V30 296 O 27.2778 0.662303 2.43659 0
M  V30 297 C 28.5908 3.00037 0.199499 0
M  V30 298 C 30.1388 3.11805 0.273193 0
M  V30 299 C 30.6138 4.57713 0.162068 0
M  V30 300 N 32.1048 4.6268 0.219444 0
M  V30 301 C 32.8398 5.73185 0.157054 0
M  V30 302 N 32.3358 6.92786 0.0442936 0
M  V30 303 N 34.1288 5.61707 0.21014 0
M  V30 304 H 26.2798 1.90921 -0.930758 0
M  V30 305 H 28.5428 0.877674 -0.358319 0
M  V30 306 H 28.2488 3.4333 -0.76273 0
M  V30 307 H 28.1228 3.64387 0.974786 0
M  V30 308 H 30.5098 2.68433 1.22587 0
M  V30 309 H 30.5908 2.50201 -0.532256 0
M  V30 310 H 30.2348 5.01763 -0.78714 0
M  V30 311 H 30.1648 5.17283 0.986222 0
M  V30 312 H 32.6558 3.76649 0.307246 0
M  V30 313 H 32.9688 7.728 0.00304069 0
M  V30 314 H 31.3138 6.94999 0.00968457 0
M  V30 315 H 34.5048 4.6716 0.296546 0
M  V30 316 H 34.6778 6.47807 0.158054 0
M  V30 317 N 28.0839 -0.256276 1.55502 0
M  V30 318 C 29.3139 -1.00196 1.80677 0
M  V30 319 C 29.7219 -1.79805 0.588797 0
M  V30 320 O 29.0649 -1.78055 -0.451883 0
M  V30 321 C 29.1269 -1.99515 2.99055 0
M  V30 322 C 28.7909 -1.38688 4.35448 0
M  V30 323 C 29.7879 -0.794079 5.138 0
M  V30 324 C 27.4729 -1.40906 4.82132 0
M  V30 325 C 29.4669 -0.231562 6.36979 0
M  V30 326 C 27.1539 -0.842684 6.05262 0
M  V30 327 C 28.1519 -0.254953 6.82524 0
M  V30 328 O 27.8399 0.3027 8.0333 0
M  V30 329 H 27.5719 -0.300919 0.60533 0
M  V30 330 H 30.1259 -0.287307 2.03381 0
M  V30 331 H 28.3559 -2.74785 2.72084 0
M  V30 332 H 30.0449 -2.60349 3.11405 0
M  V30 333 H 30.8109 -0.769519 4.78856 0
M  V30 334 H 26.6899 -1.85591 4.21992 0
M  V30 335 H 30.2339 0.227816 6.97228 0
M  V30 336 H 26.1309 -0.86454 6.39684 0
M  V30 337 H 26.8989 0.193662 8.18271 0
M  V30 338 N 29.562 -1.4872 -0.521534 0
M  V30 339 C 30.839 -1.4766 -1.2828 0
M  V30 340 C 31.219 -0.19292 -2.10217 0
M  V30 341 O 30.567 0.825193 -2.13079 0
M  V30 342 C 30.777 -2.74358 -2.15705 0
M  V30 343 C 32.125 -3.23028 -2.75569 0
M  V30 344 O 33.149 -2.75333 -2.25987 0
M  V30 345 O 32.008 -4.0604 -3.65778 0
M  V30 346 H 29.102 -0.590085 -0.579421 0
M  V30 347 H 31.648 -1.60963 -0.537492 0
M  V30 348 H 30.42 -3.59292 -1.54999 0
M  V30 349 H 30.043 -2.63816 -2.97467 0
M  V30 350 N 31.0401 0.771051 -1.3745 0
M  V30 351 C 32.3171 1.519 -1.23231 0
M  V30 352 C 32.6971 2.10383 0.173809 0
M  V30 353 O 32.0451 1.95583 1.18151 0
M  V30 354 C 32.2551 2.59933 -2.32886 0
M  V30 355 C 33.6031 3.27316 -2.70461 0
M  V30 356 O 34.6271 2.70228 -2.32068 0
M  V30 357 O 33.4861 4.30531 -3.36608 0
M  V30 358 H 30.5801 0.672803 -0.480901 0
M  V30 359 H 33.1261 0.807957 -1.49232 0
M  V30 360 H 31.8981 2.14842 -3.27045 0
M  V30 361 H 31.5211 3.38637 -2.08353 0
M  V30 362 N 32.5182 1.22032 0.997298 0
M  V30 363 C 33.4512 0.929735 2.08401 0
M  V30 364 C 34.4292 -0.125681 1.62114 0
M  V30 365 O 35.6132 0.00495409 1.88499 0
M  V30 366 C 32.7402 0.397488 3.3636 0
M  V30 367 C 31.7862 1.4369 4.01566 0
M  V30 368 S 32.6192 3.00874 4.42984 0
M  V30 369 C 33.7752 2.49276 5.74119 0
M  V30 370 H 34.0082 1.84998 2.32729 0
M  V30 371 H 31.5412 1.0509 1.13117 0
M  V30 372 H 33.4992 0.0969846 4.10385 0
M  V30 373 H 32.1602 -0.501571 3.10069 0
M  V30 374 H 31.3532 1.01427 4.93689 0
M  V30 375 H 30.9552 1.68588 3.33847 0
M  V30 376 H 33.2472 1.90242 6.50242 0
M  V30 377 H 34.1902 3.39872 6.21203 0
M  V30 378 H 34.5982 1.90714 5.31308 0
M  V30 379 N 33.9963 -1.19345 1.0293 0
M  V30 380 C 34.9593 -2.20793 0.615069 0
M  V30 381 C 35.9593 -1.57553 -0.321533 0
M  V30 382 O 37.1493 -1.73862 -0.108483 0
M  V30 383 C 34.2813 -3.40754 -0.0999222 0
M  V30 384 H 35.4743 -2.58955 1.51269 0
M  V30 385 H 33.0273 -1.3303 0.820534 0
M  V30 386 H 33.7623 -3.0811 -1.01187 0
M  V30 387 H 33.5473 -3.87889 0.57309 0
M  V30 388 H 35.0373 -4.15898 -0.376645 0
M  V30 389 N 35.4744 -0.807222 -1.35358 0
M  V30 390 C 36.6994 -0.399309 -2.0352 0
M  V30 391 C 37.1244 0.981986 -1.60433 0
M  V30 392 O 36.4824 1.63601 -0.781299 0
M  V30 393 C 36.5304 -0.491552 -3.57234 0
M  V30 394 O 35.6344 0.494754 -4.09421 0
M  V30 395 H 34.9754 -0.166682 -0.642739 0
M  V30 396 H 37.5054 -1.09328 -1.72941 0
M  V30 397 H 37.5154 -0.361588 -4.06395 0
M  V30 398 H 36.1904 -1.49907 -3.87944 0
M  V30 399 H 34.7674 0.324977 -3.71481 0
M  V30 400 N 36.9525 1.47285 -0.560781 0
M  V30 401 C 37.9155 2.28535 0.174488 0
M  V30 402 C 38.9155 1.37153 0.839388 0
M  V30 403 O 40.1055 1.59748 0.694702 0
M  V30 404 C 37.2375 3.16934 1.25561 0
M  V30 405 H 38.4305 2.95012 -0.539262 0
M  V30 406 H 35.9835 1.53034 -0.317865 0
M  V30 407 H 36.7185 2.55157 2.00164 0
M  V30 408 H 36.5035 3.8419 0.783604 0
M  V30 409 H 37.9935 3.78143 1.77193 0
M  V30 410 N 38.4306 0.297415 1.54768 0
M  V30 411 C 39.3636 -0.622188 2.19554 0
M  V30 412 C 40.3416 -1.13558 1.16376 0
M  V30 413 O 41.5256 -1.20444 1.45002 0
M  V30 414 C 38.6526 -1.8509 2.83653 0
M  V30 415 C 37.6986 -1.47106 4.00328 0
M  V30 416 S 38.5316 -0.53006 5.3287 0
M  V30 417 C 39.6876 -1.76665 6.0045 0
M  V30 418 H 39.9206 -0.0717806 2.97213 0
M  V30 419 H 37.4536 0.0815678 1.54184 0
M  V30 420 H 39.4116 -2.55605 3.21211 0
M  V30 421 H 38.0726 -2.37247 2.05846 0
M  V30 422 H 37.2656 -2.38594 4.43947 0
M  V30 423 H 36.8676 -0.845885 3.64309 0
M  V30 424 H 39.1596 -2.7077 6.21039 0
M  V30 425 H 40.1026 -1.37308 6.9466 0
M  V30 426 H 40.5106 -1.94174 5.30054 0
M  V30 427 N 39.9087 -1.5758 0.0250728 0
M  V30 428 C 40.8557 -2.09973 -0.958129 0
M  V30 429 C 41.8257 -1.00085 -1.3256 0
M  V30 430 O 43.0107 -1.27481 -1.41962 0
M  V30 431 C 40.1507 -2.62812 -2.2366 0
M  V30 432 C 39.2637 -3.86693 -1.92594 0
M  V30 433 C 38.3987 -4.27941 -3.14707 0
M  V30 434 C 37.4377 -5.44591 -2.79442 0
M  V30 435 N 36.5747 -5.81014 -3.94167 0
M  V30 436 H 41.4147 -2.937 -0.504428 0
M  V30 437 H 38.9517 -1.45172 -0.237392 0
M  V30 438 H 40.9097 -2.91536 -2.98434 0
M  V30 439 H 39.5397 -1.81922 -2.66654 0
M  V30 440 H 38.5917 -3.64723 -1.0808 0
M  V30 441 H 39.9037 -4.71547 -1.62619 0
M  V30 442 H 39.0577 -4.58079 -3.97804 0
M  V30 443 H 37.7967 -3.41845 -3.4784 0
M  V30 444 H 36.8017 -5.1415 -1.94755 0
M  V30 445 H 38.0267 -6.32382 -2.47528 0
M  V30 446 H 35.9727 -4.97874 -4.2715 0
M  V30 447 H 35.8897 -6.60498 -3.67801 0
M  V30 448 H 37.1577 -6.15756 -4.7798 0
M  V30 449 N 41.3868 0.248026 -1.55636 0
M  V30 450 C 42.3498 1.29044 -1.89421 0
M  V30 451 C 43.3498 1.41134 -0.770581 0
M  V30 452 O 44.5398 1.39854 -1.03858 0
M  V30 453 C 41.6718 2.66831 -2.12165 0
M  V30 454 H 42.8648 1.00305 -2.82629 0
M  V30 455 H 40.4178 0.487265 -1.48511 0
M  V30 456 H 41.1528 3.00711 -1.21422 0
M  V30 457 H 40.9378 2.59438 -2.93997 0
M  V30 458 H 42.4278 3.42103 -2.3949 0
M  V30 459 N 42.8649 1.48995 0.513639 0
M  V30 460 C 44.1109 1.58076 1.27042 0
M  V30 461 C 44.4439 0.261026 1.92438 0
M  V30 462 O 43.7189 -0.734393 1.80103 0
M  V30 463 C 44.0019 2.73091 2.34719 0
M  V30 464 C 43.8549 4.14821 1.73907 0
M  V30 465 C 45.1739 2.83796 3.36375 0
M  V30 466 H 42.2929 0.575391 0.460536 0
M  V30 467 H 44.9349 1.81232 0.570516 0
M  V30 468 H 43.0849 2.53479 2.94416 0
M  V30 469 H 44.7569 4.45917 1.18135 0
M  V30 470 H 42.9999 4.21058 1.0437 0
M  V30 471 H 43.6709 4.91147 2.51949 0
M  V30 472 H 46.1469 3.01611 2.86653 0
M  V30 473 H 45.0229 3.65971 4.09093 0
M  V30 474 H 45.2839 1.92624 3.9793 0
M  V30 475 N 44.343 -0.763751 1.37857 0
M  V30 476 C 45.571 -1.55293 1.36718 0
M  V30 477 C 45.986 -1.88745 -0.0455434 0
M  V30 478 O 45.343 -1.52039 -1.00947 0
M  V30 479 C 45.394 -2.85831 2.2132 0
M  V30 480 O 45.115 -2.5381 3.57089 0
M  V30 481 C 46.616 -3.80023 2.28249 0
M  V30 482 H 43.836 -0.480841 0.468009 0
M  V30 483 H 46.38 -0.946009 1.81303 0
M  V30 484 H 44.535 -3.42926 1.80223 0
M  V30 485 H 44.949 -3.37459 4.01524 0
M  V30 486 H 46.423 -4.68599 2.91752 0
M  V30 487 H 46.9 -4.1973 1.2932 0
M  V30 488 H 47.506 -3.28855 2.69693 0
M  V30 489 N 45.8211 -1.22559 -0.990812 0
M  V30 490 C 46.7311 -1.01394 -2.11557 0
M  V30 491 C 47.7471 0.0383962 -1.73958 0
M  V30 492 O 48.9231 -0.154787 -2.00804 0
M  V30 493 C 45.9881 -0.596569 -3.41529 0
M  V30 494 C 45.0491 -1.72276 -3.93217 0
M  V30 495 C 44.2821 -1.32521 -5.16985 0
M  V30 496 O 44.5051 -0.204909 -5.70032 0
M  V30 497 O 43.4391 -2.14247 -5.62478 0
M  V30 498 H 47.2651 -1.95633 -2.32296 0
M  V30 499 H 44.8501 -1.01172 -1.0993 0
M  V30 500 H 46.7321 -0.374263 -4.19735 0
M  V30 501 H 45.4071 0.316939 -3.22145 0
M  V30 502 H 44.3141 -1.99961 -3.16174 0
M  V30 503 H 45.6471 -2.61421 -4.17037 0
M  V30 504 N 47.2992 1.18797 -1.03562 0
M  V30 505 C 48.2292 2.24472 -0.643019 0
M  V30 506 C 49.2102 1.66433 0.351283 0
M  V30 507 O 50.3952 1.92803 0.232505 0
M  V30 508 C 47.5252 3.473 4.24935e-05 0
M  V30 509 C 46.4792 4.18055 -0.917257 0
M  V30 510 C 45.8052 5.34519 -0.138941 0
M  V30 511 C 47.1052 4.72109 -2.23407 0
M  V30 512 H 48.7992 2.57566 -1.52643 0
M  V30 513 H 46.3452 1.23806 -0.735394 0
M  V30 514 H 48.2982 4.20426 0.286383 0
M  V30 515 H 47.0222 3.13424 0.918299 0
M  V30 516 H 45.6812 3.46821 -1.1879 0
M  V30 517 H 45.3292 4.96891 0.781562 0
M  V30 518 H 45.0292 5.82794 -0.750005 0
M  V30 519 H 46.5532 6.10438 0.1405 0
M  V30 520 H 47.9672 5.36955 -2.00879 0
M  V30 521 H 46.3642 5.30897 -2.79765 0
M  V30 522 H 47.4342 3.89807 -2.88407 0
M  V30 523 N 48.7773 0.814389 1.34928 0
M  V30 524 C 49.7253 0.218424 2.31572 0
M  V30 525 C 50.7193 -0.636128 1.57002 0
M  V30 526 O 51.9253 -0.52842 1.72069 0
M  V30 527 H 48.3003 0.0518799 0.750208 0
M  V30 528 H 50.2713 1.04852 2.79372 0
M  V30 529 C 49.0203 -0.61207 3.4227 0
M  V30 530 H 48.3433 0.0361578 3.99784 0
M  V30 531 H 49.7833 -0.995317 4.12152 0
M  V30 532 C 48.2423 -1.78087 2.85984 0
M  V30 533 O 48.7723 -2.8787 2.80168 0
M  V30 534 N 46.9783 -1.59488 2.42924 0
M  V30 535 H 46.5253 -0.701874 2.47854 0
M  V30 536 H 46.4833 -2.37846 2.05613 0
M  V30 537 N 50.2554 -1.46986 0.568584 0
M  V30 538 C 51.1654 -2.33942 -0.17555 0
M  V30 539 C 52.1814 -1.48891 -0.90041 0
M  V30 540 O 53.3574 -1.81794 -0.86676 0
M  V30 541 C 50.4224 -3.25811 -1.18524 0
M  V30 542 C 49.4834 -4.26757 -0.466582 0
M  V30 543 C 48.7164 -5.14236 -1.42817 0
M  V30 544 O 48.9394 -5.04379 -2.66379 0
M  V30 545 O 47.8734 -5.94412 -0.946453 0
M  V30 546 H 51.6994 -2.98896 0.538036 0
M  V30 547 H 49.2844 -1.4573 0.329097 0
M  V30 548 H 51.1664 -3.82527 -1.76779 0
M  V30 549 H 49.8414 -2.63471 -1.88055 0
M  V30 550 H 48.7484 -3.73769 0.157451 0
M  V30 551 H 50.0814 -4.91843 0.187485 0
M  V30 552 N 51.7335 -0.305618 -1.54608 0
M  V30 553 C 53.1445 0.186098 -1.8577 0
M  V30 554 C 53.4955 1.53058 -1.22751 0
M  V30 555 O 52.6205 2.09888 -0.526893 0
M  V30 556 C 53.2155 0.344449 -3.37044 0
M  V30 557 C 51.7745 0.780384 -3.68221 0
M  V30 558 C 50.9215 -0.108554 -2.77087 0
M  V30 559 H 53.8725 -0.526485 -1.49712 0
M  V30 560 H 53.8935 1.17828 -3.61796 0
M  V30 561 H 53.4055 -0.634235 -3.82883 0
M  V30 562 H 51.5065 1.76945 -3.27904 0
M  V30 563 H 51.6195 0.596572 -4.75371 0
M  V30 564 H 49.9835 0.412931 -2.5133 0
M  V30 565 H 50.7665 -1.08368 -3.25747 0
M  V30 566 N 53.2116 1.57565 -0.0334293 0
M  V30 567 C 54.1416 2.13511 0.945265 0
M  V30 568 C 55.1226 1.05231 1.33643 0
M  V30 569 O 56.3076 1.33084 1.41429 0
M  V30 570 C 53.4376 2.6657 2.22616 0
M  V30 571 C 52.3916 3.79676 1.97561 0
M  V30 572 C 51.7176 4.1918 3.31952 0
M  V30 573 C 53.0176 5.0557 1.31135 0
M  V30 574 H 54.7116 2.95538 0.479325 0
M  V30 575 H 52.2576 1.42166 0.229115 0
M  V30 576 H 54.2106 3.04344 2.91466 0
M  V30 577 H 52.9346 1.8171 2.71384 0
M  V30 578 H 51.5936 3.42347 1.31127 0
M  V30 579 H 51.2416 3.31296 3.78487 0
M  V30 580 H 50.9416 4.95402 3.15992 0
M  V30 581 H 52.4656 4.59541 4.02063 0
M  V30 582 H 53.8796 5.40903 1.89992 0
M  V30 583 H 52.2766 5.86818 1.25559 0
M  V30 584 H 53.3466 4.84062 0.284894 0
M  V30 585 N 54.6897 -0.239769 1.55765 0
M  V30 586 C 55.9147 -0.988373 1.82335 0
M  V30 587 C 56.3397 -1.77886 0.611421 0
M  V30 588 O 55.6977 -1.75889 -0.439639 0
M  V30 589 C 55.7457 -1.89627 3.06715 0
M  V30 590 O 54.8497 -2.98904 2.84131 0
M  V30 591 H 54.1907 -0.280858 0.601677 0
M  V30 592 H 56.7207 -0.258597 2.02959 0
M  V30 593 H 56.7307 -2.30957 3.36338 0
M  V30 594 H 55.4057 -1.31511 3.9456 0
M  V30 595 H 53.9827 -2.61651 2.65694 0
M  V30 596 N 56.1678 -1.49265 -0.50573 0
M  V30 597 C 57.1158 -1.66065 -1.62866 0
M  V30 598 C 58.1098 -0.526636 -1.61006 0
M  V30 599 O 59.3158 -0.706126 -1.65571 0
M  V30 600 H 55.6908 -0.52356 -0.539805 0
M  V30 601 H 57.6618 -2.60329 -1.45848 0
M  V30 602 C 56.4108 -1.74008 -3.01026 0
M  V30 603 H 55.7338 -2.6064 -3.03161 0
M  V30 604 H 57.1738 -1.89798 -3.79147 0
M  V30 605 C 55.6328 -0.483868 -3.33407 0
M  V30 606 O 56.1628 0.392548 -3.99777 0
M  V30 607 N 54.3688 -0.348236 -2.88506 0
M  V30 608 H 53.9158 -1.06242 -2.34671 0
M  V30 609 H 53.8738 0.491204 -3.10539 0
M  V30 610 N 57.6459 0.756429 -1.3826 0
M  V30 611 C 58.5559 1.9009 -1.37488 0
M  V30 612 C 59.5719 1.71855 -0.272366 0
M  V30 613 O 60.7479 1.94827 -0.510318 0
M  V30 614 C 57.8129 3.25421 -1.19592 0
M  V30 615 C 56.8739 3.56202 -2.39622 0
M  V30 616 C 56.1069 4.85075 -2.2257 0
M  V30 617 O 56.3299 5.57246 -1.21793 0
M  V30 618 O 55.2639 5.15269 -3.11098 0
M  V30 619 H 59.0899 1.93695 -2.33914 0
M  V30 620 H 56.6749 0.901313 -1.1915 0
M  V30 621 H 58.5569 4.06337 -1.11661 0
M  V30 622 H 57.2319 3.22634 -0.262486 0
M  V30 623 H 56.1389 2.75458 -2.53128 0
M  V30 624 H 57.4719 3.63747 -3.31586 0
M  V30 625 N 59.124 1.23083 0.984299 0
M  V30 626 C 60.401 0.9689 1.69917 0
M  V30 627 C 60.781 -0.513604 2.04757 0
M  V30 628 O 60.129 -1.48383 1.73767 0
M  V30 629 C 60.339 1.87518 2.94343 0
M  V30 630 C 61.687 2.13636 3.6694 0
M  V30 631 O 62.711 1.85036 3.04368 0
M  V30 632 O 61.57 2.62119 4.79537 0
M  V30 633 H 58.664 0.365095 0.742048 0
M  V30 634 H 61.21 1.34107 1.03987 0
M  V30 635 H 59.982 2.87756 2.65164 0
M  V30 636 H 59.605 1.50514 3.6801 0
M  V30 637 N 60.6021 -1.18246 1.0419 0
M  V30 638 C 62.0181 -1.40269 0.761366 0
M  V30 639 C 62.2181 -1.90777 -0.648578 0
M  V30 640 O 61.2741 -2.0929 -1.41258 0
M  V30 641 C 62.5871 -2.40237 1.8085 0
M  V30 642 C 64.1351 -2.53961 1.82955 0
M  V30 643 C 64.6101 -3.57194 2.86664 0
M  V30 644 N 66.1011 -3.64702 2.85563 0
M  V30 645 C 66.8361 -4.44309 3.6246 0
M  V30 646 N 66.3321 -5.27514 4.49111 0
M  V30 647 N 68.1251 -4.39084 3.50944 0
M  V30 648 H 60.2761 -0.837882 1.95175 0
M  V30 649 H 62.5391 -0.430608 0.84456 0
M  V30 650 H 62.2451 -2.10176 2.81991 0
M  V30 651 H 62.1191 -3.39601 1.64168 0
M  V30 652 H 64.5061 -2.83338 0.824855 0
M  V30 653 H 64.5871 -1.54706 2.03715 0
M  V30 654 H 64.2311 -3.28558 3.87314 0
M  V30 655 H 64.1611 -4.5613 2.6316 0
M  V30 656 H 66.6521 -3.05289 2.22727 0
M  V30 657 H 66.9651 -5.85411 5.04493 0
M  V30 658 H 65.3101 -5.2693 4.53178 0
M  V30 659 H 68.5011 -3.7313 2.82651 0
M  V30 660 H 68.6741 -5.00883 4.11121 0
M  V30 661 N 62.0802 -0.821533 -1.34494 0
M  V30 662 C 63.0282 -0.230702 -2.31453 0
M  V30 663 C 64.0222 0.627793 -1.57338 0
M  V30 664 O 65.2282 0.519288 -1.72347 0
M  V30 665 H 61.6032 -0.0558577 -0.749923 0
M  V30 666 H 63.5742 -1.06332 -2.78812 0
M  V30 667 C 62.3232 0.59391 -3.4259 0
M  V30 668 H 61.6462 -0.0573588 -3.99759 0
M  V30 669 H 63.0862 0.973446 -4.12674 0
M  V30 670 C 61.5452 1.76568 -2.86924 0
M  V30 671 O 62.0752 2.8638 -2.81691 0
M  V30 672 N 60.2812 1.58198 -2.43766 0
M  V30 673 H 59.8282 0.68872 -2.48222 0
M  V30 674 H 59.7862 2.36752 -2.06871 0
M  V30 675 N 63.5583 1.46682 -0.576371 0
M  V30 676 C 64.4883 2.33028 0.148397 0
M  V30 677 C 65.4693 1.44961 0.889956 0
M  V30 678 O 66.6543 1.73789 0.866662 0
M  V30 679 C 63.7843 3.27117 1.1667 0
M  V30 680 C 62.7383 4.24575 0.540386 0
M  V30 681 C 62.0643 5.08126 1.6647 0
M  V30 682 C 63.3643 5.19722 -0.518331 0
M  V30 683 H 65.0583 2.93875 -0.572509 0
M  V30 684 H 62.6043 1.41315 -0.276768 0
M  V30 685 H 64.5573 3.86374 1.68204 0
M  V30 686 H 63.2813 2.64364 1.9178 0
M  V30 687 H 61.9403 3.66571 0.0461769 0
M  V30 688 H 61.5883 4.41762 2.40531 0
M  V30 689 H 61.2883 5.74122 1.25131 0
M  V30 690 H 62.8123 5.70246 2.18293 0
M  V30 691 H 64.2263 5.73232 -0.0883058 0
M  V30 692 H 62.6233 5.94026 -0.851679 0
M  V30 693 H 63.6933 4.64037 -1.40703 0
M  V30 694 N 65.0364 0.313813 1.54444 0
M  V30 695 C 65.9664 -0.549454 2.26943 0
M  V30 696 C 66.9474 -1.12741 1.27372 0
M  V30 697 O 68.1324 -1.15436 1.56167 0
M  V30 698 C 65.2624 -1.71523 3.01989 0
M  V30 699 C 64.2164 -1.26703 4.08816 0
M  V30 700 C 63.5424 -2.51898 4.71647 0
M  V30 701 C 64.8424 -0.388962 5.2085 0
M  V30 702 H 66.5364 0.0552661 2.99349 0
M  V30 703 H 64.0824 0.0280207 1.43973 0
M  V30 704 H 66.0354 -2.32535 3.51433 0
M  V30 705 H 64.7594 -2.34639 2.27183 0
M  V30 706 H 63.4184 -0.679896 3.6024 0
M  V30 707 H 63.0664 -3.13356 3.93468 0
M  V30 708 H 62.7664 -2.22605 5.43802 0
M  V30 709 H 64.2904 -3.1369 5.23861 0
M  V30 710 H 65.7044 -0.905107 5.6611 0
M  V30 711 H 64.1014 -0.18924 5.99802 0
M  V30 712 H 65.1714 0.582699 4.81386 0
M  V30 713 N 66.5145 -1.57545 0.0417849 0
M  V30 714 C 67.7395 -1.97035 -0.647455 0
M  V30 715 C 68.1645 -0.918775 -1.64135 0
M  V30 716 O 67.5225 0.119006 -1.80909 0
M  V30 717 C 67.5705 -3.35609 -1.31905 0
M  V30 718 O 66.6745 -3.3287 -2.43457 0
M  V30 719 H 66.0155 -0.64211 -0.169086 0
M  V30 720 H 68.5455 -2.04318 0.107399 0
M  V30 721 H 68.5555 -3.72126 -1.67291 0
M  V30 722 H 67.2305 -4.11685 -0.590586 0
M  V30 723 H 65.8075 -3.08087 -2.10088 0
M  V30 724 N 67.9926 0.231505 -1.5589 0
M  V30 725 C 69.2386 0.95877 -1.78705 0
M  V30 726 C 69.5716 1.8438 -0.609725 0
M  V30 727 O 68.8466 1.90521 0.391426 0
M  V30 728 C 69.1296 1.8062 -3.11526 0
M  V30 729 C 68.9826 0.948328 -4.39689 0
M  V30 730 C 70.3016 2.78585 -3.40703 0
M  V30 731 H 67.4206 0.347129 -0.650131 0
M  V30 732 H 70.0626 0.228259 -1.88624 0
M  V30 733 H 68.2126 2.42902 -3.03201 0
M  V30 734 H 69.8846 0.343016 -4.60023 0
M  V30 735 H 68.1276 0.253314 -4.3306 0
M  V30 736 H 68.7986 1.57543 -5.29041 0
M  V30 737 H 71.2746 2.26439 -3.49091 0
M  V30 738 H 70.1506 3.34988 -4.34826 0
M  V30 739 H 70.4116 3.55825 -2.62375 0
M  V30 740 N 69.4707 1.49531 0.497807 0
M  V30 741 C 70.4337 1.65916 1.58128 0
M  V30 742 C 71.4337 0.530825 1.51786 0
M  V30 743 O 72.6237 0.797342 1.54881 0
M  V30 744 C 69.7557 1.65951 2.9778 0
M  V30 745 H 70.9487 2.62556 1.44929 0
M  V30 746 H 68.5017 1.38611 0.722275 0
M  V30 747 H 69.2367 0.709065 3.16453 0
M  V30 748 H 69.0217 2.47897 3.03792 0
M  V30 749 H 70.5117 1.80673 3.76493 0
M  V30 750 N 70.9488 -0.749086 1.3866 0
M  V30 751 C 72.1788 -1.53611 1.38157 0
M  V30 752 C 72.5868 -1.89177 -0.0293595 0
M  V30 753 O 71.9298 -1.53606 -1.00752 0
M  V30 754 C 71.9918 -2.86087 2.17702 0
M  V30 755 C 71.6558 -2.73034 3.66472 0
M  V30 756 C 72.6528 -2.42526 4.59866 0
M  V30 757 C 70.3378 -2.90345 4.09884 0
M  V30 758 C 72.3318 -2.29492 5.94653 0
M  V30 759 C 70.0188 -2.7693 5.4475 0
M  V30 760 C 71.0168 -2.46547 6.36949 0
M  V30 761 O 70.7048 -2.33199 7.69333 0
M  V30 762 H 70.4368 -0.481773 0.474205 0
M  V30 763 H 72.9908 -0.934465 1.82912 0
M  V30 764 H 71.2208 -3.48458 1.67672 0
M  V30 765 H 72.9098 -3.47625 2.09551 0
M  V30 766 H 73.6758 -2.28816 4.27631 0
M  V30 767 H 69.5548 -3.1299 3.38464 0
M  V30 768 H 73.0988 -2.05698 6.66584 0
M  V30 769 H 68.9958 -2.90215 5.76581 0
M  V30 770 H 69.7638 -2.48376 7.79905 0
M  V30 771 N 72.4269 -1.23603 -0.977757 0
M  V30 772 C 73.3739 -1.01954 -2.07061 0
M  V30 773 C 74.3439 0.0638697 -1.65977 0
M  V30 774 O 75.5289 -0.0887624 -1.90593 0
M  V30 775 C 72.6689 -0.619658 -3.39491 0
M  V30 776 C 71.7819 -1.77547 -3.93829 0
M  V30 777 C 70.9169 -1.32212 -5.14484 0
M  V30 778 C 69.9559 -2.44852 -5.60994 0
M  V30 779 N 69.0929 -2.00456 -6.72876 0
M  V30 780 H 73.9329 -1.95495 -2.24913 0
M  V30 781 H 71.4699 -0.973861 -1.10247 0
M  V30 782 H 73.4279 -0.368898 -4.15566 0
M  V30 783 H 72.0579 0.278752 -3.21594 0
M  V30 784 H 71.1099 -2.14016 -3.14486 0
M  V30 785 H 72.4219 -2.62219 -4.24314 0
M  V30 786 H 71.5759 -1.02965 -5.97899 0
M  V30 787 H 70.3149 -0.445808 -4.85658 0
M  V30 788 H 69.3199 -2.74871 -4.76157 0
M  V30 789 H 70.5449 -3.33024 -5.91837 0
M  V30 790 H 68.4909 -1.15208 -6.45804 0
M  V30 791 H 68.4079 -2.78687 -7.02759 0
M  V30 792 H 69.6759 -1.7432 -7.59758 0
M  V30 793 N 73.905 1.17692 -1.04816 0
M  V30 794 C 74.853 2.23632 -0.63966 0
M  V30 795 C 75.847 1.6601 0.337219 0
M  V30 796 O 77.053 1.78844 0.203693 0
M  V30 797 H 73.428 0.727949 -0.188665 0
M  V30 798 H 75.399 2.55387 -1.54337 0
M  V30 799 C 74.148 3.4769 -0.0264051 0
M  V30 800 H 73.471 3.92331 -0.769164 0
M  V30 801 H 74.911 4.23418 0.222098 0
M  V30 802 C 73.37 3.13807 1.22584 0
M  V30 803 O 73.9 3.28236 2.31569 0
M  V30 804 N 72.106 2.68065 1.12202 0
M  V30 805 H 71.653 2.56525 0.235133 0
M  V30 806 H 71.611 2.45767 1.96076 0
M  V30 807 N 75.3831 0.828654 1.34056 0
M  V30 808 C 76.6291 0.42008 1.98402 0
M  V30 809 C 76.9621 -1.01564 1.65525 0
M  V30 810 O 76.2371 -1.70834 0.929831 0
M  V30 811 C 76.5201 0.62927 3.54559 0
M  V30 812 C 76.3731 2.11152 3.97159 0
M  V30 813 C 77.6921 0.0688756 4.40046 0
M  V30 814 H 74.8111 0.154104 0.720709 0
M  V30 815 H 77.4531 1.04228 1.5886 0
M  V30 816 H 75.6031 0.0996418 3.88372 0
M  V30 817 H 77.2751 2.70522 3.73651 0
M  V30 818 H 75.5181 2.59985 3.47261 0
M  V30 819 H 76.1891 2.20868 5.05887 0
M  V30 820 H 78.6651 0.521458 4.1282 0
M  V30 821 H 77.5411 0.245006 5.48353 0
M  V30 822 H 77.8021 -1.0266 4.30015 0
M  V30 823 N 76.8612 -1.46375 0.584142 0
M  V30 824 C 78.1072 -2.02678 0.0703716 0
M  V30 825 C 78.4402 -1.4545 -1.28678 0
M  V30 826 O 77.7152 -0.62014 -1.84349 0
M  V30 827 C 77.9982 -3.60099 0.00614674 0
M  V30 828 C 77.8512 -4.27709 1.3923 0
M  V30 829 C 79.1702 -4.34598 -0.693742 0
M  V30 830 H 76.2892 -0.736504 0.027047 0
M  V30 831 H 78.9312 -1.74501 0.751615 0
M  V30 832 H 77.0812 -3.84236 -0.574009 0
M  V30 833 H 78.7532 -4.14832 2.01773 0
M  V30 834 H 76.9962 -3.87016 1.95962 0
M  V30 835 H 77.6672 -5.36478 1.29982 0
M  V30 836 H 80.1432 -4.15615 -0.200869 0
M  V30 837 H 79.0192 -5.44318 -0.707714 0
M  V30 838 H 79.2802 -4.05759 -1.75533 0
M  V30 839 N 78.3393 -0.321999 -1.54275 0
M  V30 840 C 79.5873 0.280489 -2.00144 0
M  V30 841 C 79.9083 1.52777 -1.21178 0
M  V30 842 O 79.1783 1.9338 -0.313187 0
M  V30 843 H 77.7583 0.106632 -0.73935 0
M  V30 844 H 80.4203 -0.438184 -1.8991 0
M  V30 845 H 79.5163 0.537972 -3.07428 0
M  V30 846 N 79.8174 1.5752 -0.0501392 0
M  V30 847 C 80.7804 2.1037 0.909786 0
M  V30 848 C 81.7804 1.02308 1.24056 0
M  V30 849 O 82.9704 1.28385 1.17741 0
M  V30 850 C 80.1024 2.58708 2.21998 0
M  V30 851 H 81.2954 2.96479 0.451665 0
M  V30 852 H 78.8484 1.55038 0.198248 0
M  V30 853 H 79.5834 1.75989 2.72394 0
M  V30 854 H 79.3684 3.37675 1.99295 0
M  V30 855 H 80.8584 2.99747 2.9076 0
M  V30 856 N 81.2955 -0.223234 1.56011 0
M  V30 857 C 82.7115 -0.572856 1.48965 0
M  V30 858 C 82.9115 -1.87225 0.74492 0
M  V30 859 O 81.9675 -2.50899 0.283896 0
M  V30 860 C 83.2805 -0.653646 2.9351 0
M  V30 861 C 84.8285 -0.744386 3.0402 0
M  V30 862 C 85.3035 -0.856535 4.49919 0
M  V30 863 N 86.7945 -0.9208 4.53955 0
M  V30 864 C 87.5295 -1.02726 5.64123 0
M  V30 865 N 87.0255 -1.09777 6.84047 0
M  V30 866 N 88.8185 -1.06226 5.51971 0
M  V30 867 H 80.9695 0.629462 2.02858 0
M  V30 868 H 83.2325 0.220621 0.921971 0
M  V30 869 H 82.9385 0.231518 3.50937 0
M  V30 870 H 82.8125 -1.51781 3.45315 0
M  V30 871 H 85.1995 -1.61999 2.46658 0
M  V30 872 H 85.2805 0.14541 2.55386 0
M  V30 873 H 84.9245 0.0146069 5.07898 0
M  V30 874 H 84.8545 -1.76172 4.96257 0
M  V30 875 H 87.3455 -0.876694 3.6759 0
M  V30 876 H 87.6585 -1.17872 7.63758 0
M  V30 877 H 86.0035 -1.06693 6.86762 0
M  V30 878 H 89.1945 -1.00382 4.5721 0
M  V30 879 H 89.3675 -1.14177 6.37862 0
M  V30 880 N 82.7736 -1.49793 -0.48987 0
M  V30 881 C 84.1896 -1.36803 -0.822022 0
M  V30 882 C 84.3896 -0.409652 -1.97292 0
M  V30 883 O 83.4456 0.154614 -2.52026 0
M  V30 884 C 84.7586 -2.77768 -1.15175 0
M  V30 885 C 86.3066 -2.86549 -1.25931 0
M  V30 886 C 86.7816 -4.28306 -1.62228 0
M  V30 887 N 88.2726 -4.31169 -1.69256 0
M  V30 888 C 89.0076 -5.37832 -1.98807 0
M  V30 889 N 88.5036 -6.54726 -2.26507 0
M  V30 890 N 90.2966 -5.25258 -2.00152 0
M  V30 891 H 82.4476 -2.10691 0.268881 0
M  V30 892 H 84.7106 -0.946241 0.057728 0
M  V30 893 H 84.4166 -3.49648 -0.379335 0
M  V30 894 H 84.2906 -3.13836 -2.09253 0
M  V30 895 H 86.6776 -2.14899 -2.02243 0
M  V30 896 H 86.7586 -2.54049 -0.298776 0
M  V30 897 H 86.4026 -5.00486 -0.864622 0
M  V30 898 H 86.3326 -4.58279 -2.594 0
M  V30 899 H 88.8236 -3.4687 -1.49965 0
M  V30 900 H 89.1366 -7.31833 -2.48276 0
M  V30 901 H 87.4816 -6.57933 -2.23939 0
M  V30 902 H 90.6726 -4.32938 -1.77996 0
M  V30 903 H 90.8456 -6.08476 -2.22848 0
M  V30 904 N 84.2517 0.741722 -1.39055 0
M  V30 905 C 85.4767 1.53607 -1.39354 0
M  V30 906 C 85.9017 1.88096 0.0116905 0
M  V30 907 O 85.2597 1.5143 0.996924 0
M  V30 908 C 85.3077 2.80441 -2.26682 0
M  V30 909 O 84.4117 3.76088 -1.69208 0
M  V30 910 H 83.7527 0.464142 -0.474835 0
M  V30 911 H 86.2827 0.915665 -1.82967 0
M  V30 912 H 86.2927 3.29246 -2.40959 0
M  V30 913 H 84.9677 2.5467 -3.2881 0
M  V30 914 H 83.5447 3.34833 -1.64138 0
M  V30 915 N 85.7298 1.2412 0.971189 0
M  V30 916 C 86.9548 1.10667 1.75407 0
M  V30 917 C 87.3798 -0.337048 1.85056 0
M  V30 918 O 86.7378 -1.24396 1.31892 0
M  V30 919 C 86.7858 1.74726 3.15441 0
M  V30 920 O 85.8898 1.01566 3.99697 0
M  V30 921 H 85.2308 0.387341 0.539317 0
M  V30 922 H 87.7608 1.64358 1.2185 0
M  V30 923 H 87.7708 1.80341 3.6598 0
M  V30 924 H 86.4458 2.79773 3.07734 0
M  V30 925 H 85.0228 1.03713 3.58187 0
M  V30 926 N 87.2079 -1.17134 1.05439 0
M  V30 927 C 88.4539 -1.87979 0.776872 0
M  V30 928 C 88.8089 -1.7965 -0.688751 0
M  V30 929 O 88.1019 -1.19535 -1.4974 0
M  V30 930 C 88.2959 -3.36833 1.19491 0
M  V30 931 C 88.1249 -3.59653 2.69963 0
M  V30 932 C 86.8949 -3.76234 3.37307 0
M  V30 933 C 89.0929 -3.59091 3.68182 0
M  V30 934 N 87.0749 -3.86922 4.76618 0
M  V30 935 C 88.4459 -3.75659 4.93235 0
M  V30 936 C 90.5009 -3.42255 3.61616 0
M  V30 937 C 89.2039 -3.77133 6.12506 0
M  V30 938 C 91.2299 -3.45018 4.8033 0
M  V30 939 C 90.5919 -3.62096 6.04207 0
M  V30 940 H 86.6909 -0.705876 0.336546 0
M  V30 941 H 89.2749 -1.40602 1.34682 0
M  V30 942 H 87.4459 -3.82873 0.652884 0
M  V30 943 H 89.1779 -3.95305 0.866966 0
M  V30 944 H 85.9329 -3.76193 2.87708 0
M  V30 945 H 86.3569 -3.96055 5.49062 0
M  V30 946 H 90.9989 -3.27986 2.66805 0
M  V30 947 H 88.7169 -3.90186 7.07659 0
M  V30 948 H 92.3029 -3.33246 4.76905 0
M  V30 949 H 91.1829 -3.64142 6.94529 0
M  V30 950 N 88.686 -0.835752 -1.33615 0
M  V30 951 C 90.102 -0.523139 -1.50783 0
M  V30 952 C 90.302 0.950171 -1.77691 0
M  V30 953 O 89.358 1.73411 -1.83534 0
M  V30 954 C 90.671 -1.39378 -2.66448 0
M  V30 955 C 92.219 -1.39223 -2.80332 0
M  V30 956 C 92.694 -2.24765 -3.99055 0
M  V30 957 N 94.185 -2.22458 -4.06284 0
M  V30 958 C 94.92 -2.85386 -4.97336 0
M  V30 959 N 94.416 -3.57354 -5.93523 0
M  V30 960 N 96.209 -2.74872 -4.90308 0
M  V30 961 H 88.36 -1.78952 -1.14411 0
M  V30 962 H 90.623 -0.763297 -0.562212 0
M  V30 963 H 90.329 -2.44061 -2.53234 0
M  V30 964 H 90.203 -1.0676 -3.61776 0
M  V30 965 H 92.59 -0.353136 -2.92979 0
M  V30 966 H 92.671 -1.75846 -1.85773 0
M  V30 967 H 92.315 -3.28732 -3.87167 0
M  V30 968 H 92.245 -1.85485 -4.92852 0
M  V30 969 H 94.736 -1.70119 -3.37443 0
M  V30 970 H 95.049 -4.02584 -6.59656 0
M  V30 971 H 93.394 -3.61461 -5.93608 0
M  V30 972 H 96.585 -2.18213 -4.14126 0
M  V30 973 H 96.758 -3.24199 -5.61069 0
M  V30 974 N 90.1641 1.46063 -0.591896 0
M  V30 975 C 91.4101 2.02638 -0.0811191 0
M  V30 976 C 91.7431 1.4613 1.27905 0
M  V30 977 O 91.0181 0.629908 1.84017 0
M  V30 978 C 91.3011 3.60091 -0.0252436 0
M  V30 979 C 91.1541 4.26965 -1.41496 0
M  V30 980 C 92.4731 4.3496 0.670685 0
M  V30 981 H 89.5921 0.73635 -0.0309524 0
M  V30 982 H 92.2341 1.741 -0.760859 0
M  V30 983 H 90.3841 3.84535 0.553624 0
M  V30 984 H 92.0561 4.13756 -2.0397 0
M  V30 985 H 90.2991 3.85971 -1.98011 0
M  V30 986 H 90.9701 5.35781 -1.32825 0
M  V30 987 H 93.4461 4.15716 0.178825 0
M  V30 988 H 92.3221 5.44686 0.678837 0
M  V30 989 H 92.5831 4.06685 1.73379 0
M  V30 990 N 91.6422 0.330177 1.54103 0
M  V30 991 C 92.8912 -0.271336 1.99867 0
M  V30 992 C 93.2042 -1.52723 1.22209 0
M  V30 993 O 94.4102 -2.20515 1.58383 0
M  V30 994 C 92.8662 -0.534032 3.55916 0
M  V30 995 C 92.4742 0.705193 4.42415 0
M  V30 996 C 94.2182 -1.09514 4.1013 0
M  V30 997 C 92.1252 0.414035 5.89949 0
M  V30 998 H 91.0552 -0.105166 0.74663 0
M  V30 999 H 93.7062 0.443429 1.78062 0
M  V30 1000 H 92.0882 -1.30915 3.73734 0
M  V30 1001 H 93.2622 1.4804 4.36372 0
M  V30 1002 H 91.5772 1.18698 3.99124 0
M  V30 1003 H 94.1742 -1.3277 5.17954 0
M  V30 1004 H 94.5172 -2.04656 3.62521 0
M  V30 1005 H 95.0502 -0.381038 3.95971 0
M  V30 1006 H 91.7892 1.33481 6.41766 0
M  V30 1007 H 91.3092 -0.323336 5.98928 0
M  V30 1008 H 92.9882 0.0263105 6.46995 0
M  V30 1009 N 93.1203 -1.57491 0.0584922 0
M  V30 1010 C 94.3453 -1.97711 -0.62652 0
M  V30 1011 C 94.7703 -0.936132 -1.63151 0
M  V30 1012 O 94.1283 0.099811 -1.81025 0
M  V30 1013 C 94.1763 -3.36989 -1.28338 0
M  V30 1014 O 93.2803 -3.35433 -2.39913 0
M  V30 1015 H 92.6213 -0.643868 -0.162266 0
M  V30 1016 H 95.1513 -2.04193 0.129064 0
M  V30 1017 H 95.1613 -3.73879 -1.63335 0
M  V30 1018 H 93.8363 -4.12289 -0.546889 0
M  V30 1019 H 92.4133 -3.10298 -2.06809 0
M  V30 1020 N 94.5984 0.214957 -1.56127 0
M  V30 1021 C 95.8234 0.95924 -1.83884 0
M  V30 1022 C 96.2484 1.7689 -0.639644 0
M  V30 1023 O 95.6064 1.76566 0.411601 0
M  V30 1024 C 95.6544 1.84723 -3.09693 0
M  V30 1025 O 94.7584 2.94346 -2.8885 0
M  V30 1026 H 94.0994 0.27125 -0.606069 0
M  V30 1027 H 96.6294 0.226276 -2.03345 0
M  V30 1028 H 96.6394 2.25576 -3.39969 0
M  V30 1029 H 95.3144 1.25218 -3.96602 0
M  V30 1030 H 93.8914 2.57391 -2.69823 0
M  V30 1031 N 96.0765 1.50051 0.48192 0
M  V30 1032 C 97.3255 1.59741 1.23149 0
M  V30 1033 C 97.6385 0.298163 1.93314 0
M  V30 1034 O 98.8445 0.273835 2.70116 0
M  V30 1035 C 97.3005 2.81926 2.23708 0
M  V30 1036 C 96.9085 4.18685 1.59396 0
M  V30 1037 C 98.6525 3.00956 2.99375 0
M  V30 1038 C 96.5595 5.3207 2.58178 0
M  V30 1039 H 95.4895 0.594838 0.46334 0
M  V30 1040 H 98.1405 1.76467 0.503169 0
M  V30 1041 H 96.5225 2.58736 2.99786 0
M  V30 1042 H 97.6965 4.52088 0.891811 0
M  V30 1043 H 96.0115 4.05171 0.960503 0
M  V30 1044 H 98.6085 3.82836 3.73283 0
M  V30 1045 H 98.9515 2.12258 3.58123 0
M  V30 1046 H 99.4845 3.24277 2.30411 0
M  V30 1047 H 96.2235 6.22888 2.04184 0
M  V30 1048 H 95.7435 5.03098 3.26577 0
M  V30 1049 H 97.4225 5.62196 3.20225 0
M  V30 1050 N 97.5546 -0.734337 1.39446 0
M  V30 1051 C 98.4646 -1.87879 1.40495 0
M  V30 1052 C 99.4806 -1.714 0.299672 0
M  V30 1053 O 100.657 -1.93991 0.541249 0
M  V30 1054 C 97.7216 -3.23477 1.24754 0
M  V30 1055 C 96.7826 -3.52344 2.45259 0
M  V30 1056 C 96.0156 -4.81473 2.30259 0
M  V30 1057 O 96.2386 -5.55237 1.30643 0
M  V30 1058 O 95.1726 -5.10254 3.19256 0
M  V30 1059 H 98.9986 -1.89949 2.36966 0
M  V30 1060 H 96.5836 -0.882243 1.20569 0
M  V30 1061 H 98.4656 -4.04509 1.18111 0
M  V30 1062 H 97.1406 -3.22176 0.313781 0
M  V30 1063 H 96.0476 -2.71396 2.57478 0
M  V30 1064 H 97.3806 -3.58426 3.37331 0
M  V30 1065 N 99.0327 -1.24633 -0.964593 0
M  V30 1066 C 99.9647 -0.999302 -2.06268 0
M  V30 1067 C 100.978 0.0323226 -1.62768 0
M  V30 1068 O 102.167 -0.205079 -1.77318 0
M  V30 1069 C 99.2667 -0.486816 -3.35385 0
M  V30 1070 C 98.4397 -1.5823 -4.07777 0
M  V30 1071 C 97.4987 -1.07191 -5.15166 0
M  V30 1072 O 96.5247 -1.76426 -5.41168 0
M  V30 1073 N 97.7267 0.0920373 -5.80427 0
M  V30 1074 H 100.492 -1.94477 -2.28033 0
M  V30 1075 H 98.0527 -1.15704 -1.13244 0
M  V30 1076 H 100.045 -0.130066 -4.04491 0
M  V30 1077 H 98.6147 0.364459 -3.10468 0
M  V30 1078 H 97.8347 -2.11109 -3.32906 0
M  V30 1079 H 99.1227 -2.31854 -4.52903 0
M  V30 1080 H 98.5207 0.670784 -5.61709 0
M  V30 1081 H 97.0777 0.389905 -6.50633 0
M  V30 1082 N 100.511 1.16574 -1.06058 0
M  V30 1083 C 101.458 2.20883 -0.669263 0
M  V30 1084 C 102.428 1.62729 0.332918 0
M  V30 1085 O 103.613 1.895 0.222346 0
M  V30 1086 C 100.753 3.45049 -0.0593572 0
M  V30 1087 C 99.8658 4.17458 -1.11143 0
M  V30 1088 C 99.0008 5.29135 -0.467916 0
M  V30 1089 C 98.0398 5.93343 -1.50369 0
M  V30 1090 N 97.1768 6.96516 -0.883706 0
M  V30 1091 H 102.017 2.53709 -1.5632 0
M  V30 1092 H 99.5538 1.24616 -0.781625 0
M  V30 1093 H 101.512 4.16033 0.311771 0
M  V30 1094 H 100.142 3.12781 0.797992 0
M  V30 1095 H 99.1938 3.45101 -1.60029 0
M  V30 1096 H 100.506 4.61307 -1.89731 0
M  V30 1097 H 99.6598 6.06684 -0.0436871 0
M  V30 1098 H 98.3988 4.86443 0.349864 0
M  V30 1099 H 97.4038 5.14517 -1.93784 0
M  V30 1100 H 98.6288 6.38114 -2.32352 0
M  V30 1101 H 96.5748 6.55943 -0.086595 0
M  V30 1102 H 96.4918 7.38723 -1.607 0
M  V30 1103 H 97.7598 7.77993 -0.484543 0
M  V30 1104 N 101.989 0.842826 1.3317 0
M  V30 1105 C 103.217 0.454055 2.01856 0
M  V30 1106 C 103.632 -0.94587 1.63397 0
M  V30 1107 O 102.989 -1.61534 0.849302 0
M  V30 1108 C 103.04 0.569715 3.56982 0
M  V30 1109 O 102.761 1.91448 3.94055 0
M  V30 1110 C 104.262 0.178412 4.42941 0
M  V30 1111 H 101.482 0.17979 0.646465 0
M  V30 1112 H 104.026 1.1365 1.70012 0
M  V30 1113 H 102.181 -0.0648587 3.87346 0
M  V30 1114 H 102.595 1.90282 4.88767 0
M  V30 1115 H 104.069 0.310376 5.51127 0
M  V30 1116 H 104.546 -0.880056 4.30293 0
M  V30 1117 H 105.152 0.787579 4.17944 0
M  V30 1118 N 103.467 -1.45747 0.599634 0
M  V30 1119 C 104.4 -2.27547 -0.172552 0
M  V30 1120 C 105.378 -1.36657 -0.881116 0
M  V30 1121 O 106.562 -1.66081 -0.891595 0
M  V30 1122 C 103.689 -3.14829 -1.24903 0
M  V30 1123 C 102.735 -4.21603 -0.644465 0
M  V30 1124 S 103.568 -5.32754 0.541606 0
M  V30 1125 C 104.724 -6.23604 -0.535656 0
M  V30 1126 H 104.957 -2.92691 0.521468 0
M  V30 1127 H 102.49 -1.49473 0.386947 0
M  V30 1128 H 104.448 -3.65675 -1.86527 0
M  V30 1129 H 103.109 -2.48965 -1.91508 0
M  V30 1130 H 102.302 -4.82566 -1.45417 0
M  V30 1131 H 101.904 -3.73857 -0.103534 0
M  V30 1132 H 104.196 -6.62519 -1.41686 0
M  V30 1133 H 105.139 -7.0809 0.0376246 0
M  V30 1134 H 105.547 -5.58103 -0.84741 0
M  V30 1135 N 104.945 -0.338344 -1.53925 0
M  V30 1136 C 105.908 0.508299 -2.23493 0
M  V30 1137 C 106.908 1.03175 -1.23335 0
M  V30 1138 O 108.098 0.921826 -1.47811 0
M  V30 1139 C 105.23 1.70754 -2.95052 0
M  V30 1140 H 106.423 -0.100058 -2.99733 0
M  V30 1141 H 103.976 -0.0896198 -1.56043 0
M  V30 1142 H 104.711 2.35474 -2.22986 0
M  V30 1143 H 104.496 1.33946 -3.68512 0
M  V30 1144 H 105.986 2.30818 -3.48013 0
M  V30 1145 N 106.423 1.57458 -0.0668435 0
M  V30 1146 C 107.7 1.8469 0.644132 0
M  V30 1147 C 108.08 0.958343 1.88093 0
M  V30 1148 O 107.428 0.0233579 2.28488 0
M  V30 1149 C 107.638 3.34767 0.986509 0
M  V30 1150 C 108.986 4.02159 1.36212 0
M  V30 1151 O 110.01 3.39484 1.07839 0
M  V30 1152 O 108.869 5.12694 1.89227 0
M  V30 1153 H 105.963 0.762816 0.319437 0
M  V30 1154 H 108.509 1.6942 -0.0973986 0
M  V30 1155 H 107.281 3.91151 0.107883 0
M  V30 1156 H 106.904 3.55281 1.78497 0
M  V30 1157 N 107.901 -0.206675 1.56239 0
M  V30 1158 C 109.149 -0.927007 1.79586 0
M  V30 1159 C 109.47 -1.8427 0.637929 0
M  V30 1160 O 108.74 -1.92849 -0.344398 0
M  V30 1161 H 107.32 -0.345292 0.662407 0
M  V30 1162 H 109.982 -0.21496 1.93711 0
M  V30 1163 H 109.078 -1.52501 2.72305 0
M  V30 1164 N 109.379 -1.50304 -0.473955 0
M  V30 1165 C 110.327 -1.69482 -1.59307 0
M  V30 1166 C 111.321 -0.560669 -1.59853 0
M  V30 1167 O 112.527 -0.741087 -1.64036 0
M  V30 1168 H 108.902 -0.534892 -0.528578 0
M  V30 1169 H 110.873 -2.63364 -1.40293 0
M  V30 1170 C 109.622 -1.80354 -2.97267 0
M  V30 1171 H 108.945 -2.67012 -2.97564 0
M  V30 1172 H 110.385 -1.97798 -3.75036 0
M  V30 1173 C 108.844 -0.55448 -3.32306 0
M  V30 1174 O 109.374 0.307661 -4.0052 0
M  V30 1175 N 107.58 -0.409354 -2.87702 0
M  V30 1176 H 107.127 -1.11196 -2.32364 0
M  V30 1177 H 107.085 0.425223 -3.11511 0
M  V30 1178 N 110.857 0.726932 -1.39834 0
M  V30 1179 C 111.767 1.87131 -1.41489 0
M  V30 1180 C 112.783 1.71239 -0.308757 0
M  V30 1181 O 113.959 1.93701 -0.551529 0
M  V30 1182 C 111.024 3.22811 -1.26468 0
M  V30 1183 C 110.085 3.51039 -2.47124 0
M  V30 1184 C 109.318 4.80245 -2.3281 0
M  V30 1185 O 109.541 5.54537 -1.33585 0
M  V30 1186 O 108.475 5.08554 -3.21957 0
M  V30 1187 H 112.301 1.8869 -2.3797 0
M  V30 1188 H 109.886 0.875837 -1.21035 0
M  V30 1189 H 111.768 4.03877 -1.20255 0
M  V30 1190 H 110.443 3.22005 -0.330862 0
M  V30 1191 H 109.35 2.70027 -2.58914 0
M  V30 1192 H 110.683 3.56632 -3.39227 0
M  V30 1193 N 112.336 1.25143 0.95797 0
M  V30 1194 C 113.283 1.05235 2.05412 0
M  V30 1195 C 114.253 -0.0374561 1.66058 0
M  V30 1196 O 115.438 0.119073 1.90428 0
M  V30 1197 C 112.578 0.673589 3.38462 0
M  V30 1198 C 111.691 1.8379 3.90954 0
M  V30 1199 C 110.826 1.40381 5.12315 0
M  V30 1200 C 109.865 2.53746 5.57027 0
M  V30 1201 N 109.002 2.11136 6.69601 0
M  V30 1202 H 113.842 1.99048 2.21774 0
M  V30 1203 H 111.379 0.991277 1.08683 0
M  V30 1204 H 113.337 0.434964 4.14926 0
M  V30 1205 H 111.967 -0.227554 3.21997 0
M  V30 1206 H 111.019 2.18992 3.11041 0
M  V30 1207 H 112.331 2.68937 4.20089 0
M  V30 1208 H 111.485 1.12464 5.96185 0
M  V30 1209 H 110.224 0.523015 4.84887 0
M  V30 1210 H 109.229 2.82412 4.71724 0
M  V30 1211 H 110.454 3.42398 5.86464 0
M  V30 1212 H 108.4 1.25468 6.4389 0
M  V30 1213 H 108.317 2.89832 6.98236 0
M  V30 1214 H 109.585 1.86385 7.56889 0
M  V30 1215 N 113.814 -1.1601 1.06675 0
M  V30 1216 C 114.761 -2.20525 0.680967 0
M  V30 1217 C 115.731 -1.62904 -0.324283 0
M  V30 1218 O 116.916 -1.89615 -0.212294 0
M  V30 1219 C 114.056 -3.45013 0.0776551 0
M  V30 1220 C 113.169 -4.16863 1.13355 0
M  V30 1221 C 112.304 -5.2888 0.49597 0
M  V30 1222 C 111.343 -5.92537 1.53513 0
M  V30 1223 N 110.48 -6.96038 0.920631 0
M  V30 1224 H 115.32 -2.52876 1.57663 0
M  V30 1225 H 112.857 -1.24199 0.788223 0
M  V30 1226 H 114.815 -4.16193 -0.289704 0
M  V30 1227 H 113.445 -3.132 -0.781393 0
M  V30 1228 H 112.497 -3.44248 1.61857 0
M  V30 1229 H 113.809 -4.60294 1.92174 0
M  V30 1230 H 112.963 -6.06653 0.0758604 0
M  V30 1231 H 111.702 -4.86622 -0.324062 0
M  V30 1232 H 110.707 -5.13482 1.9651 0
M  V30 1233 H 111.932 -6.36873 2.35733 0
M  V30 1234 H 109.878 -6.55888 0.12138 0
M  V30 1235 H 109.795 -7.3786 1.64616 0
M  V30 1236 H 111.063 -7.77725 0.525795 0
M  V30 1237 N 115.292 -0.849877 -1.32721 0
M  V30 1238 C 116.222 -0.306308 -2.31482 0
M  V30 1239 C 117.203 0.591952 -1.59468 0
M  V30 1240 O 118.388 0.513199 -1.87296 0
M  V30 1241 C 115.518 0.510204 -3.43532 0
M  V30 1242 C 114.472 -0.293209 -4.26994 0
M  V30 1243 C 113.798 0.647743 -5.30762 0
M  V30 1244 C 115.098 -1.51634 -4.99804 0
M  V30 1245 H 116.792 -1.13153 -2.77195 0
M  V30 1246 H 114.338 -0.545553 -1.33266 0
M  V30 1247 H 116.291 0.900856 -4.11658 0
M  V30 1248 H 115.015 1.36874 -2.96535 0
M  V30 1249 H 113.674 -0.665555 -3.60508 0
M  V30 1250 H 113.322 1.50299 -4.8002 0
M  V30 1251 H 113.022 0.11422 -5.87489 0
M  V30 1252 H 114.546 1.03567 -6.01753 0
M  V30 1253 H 115.96 -1.19824 -5.60638 0
M  V30 1254 H 114.357 -1.98745 -5.66234 0
M  V30 1255 H 115.427 -2.28018 -4.27943 0
M  V30 1256 N 116.77 1.45427 -0.607355 0
M  V30 1257 C 117.68 2.34325 0.113463 0
M  V30 1258 C 118.696 1.51226 0.860617 0
M  V30 1259 O 119.872 1.84029 0.818255 0
M  V30 1260 C 116.937 3.28839 1.09844 0
M  V30 1261 C 115.998 4.27844 0.353271 0
M  V30 1262 C 115.231 5.17842 1.29133 0
M  V30 1263 O 115.454 5.11264 2.52913 0
M  V30 1264 O 114.388 5.96713 0.788523 0
M  V30 1265 H 118.214 2.97364 -0.617094 0
M  V30 1266 H 115.799 1.44807 -0.367619 0
M  V30 1267 H 117.681 3.8708 1.66575 0
M  V30 1268 H 116.356 2.68365 1.81003 0
M  V30 1269 H 115.263 3.7322 -0.256494 0
M  V30 1270 H 116.596 4.91173 -0.317822 0
M  V30 1271 N 118.248 0.346503 1.53744 0
M  V30 1272 C 119.195 -0.508914 2.25119 0
M  V30 1273 C 120.165 -1.09315 1.25058 0
M  V30 1274 O 121.35 -1.12921 1.53797 0
M  V30 1275 C 118.49 -1.65246 3.02965 0
M  V30 1276 C 117.603 -1.09525 4.17886 0
M  V30 1277 C 116.738 -2.20634 4.83212 0
M  V30 1278 C 115.777 -1.62279 5.90196 0
M  V30 1279 N 114.914 -2.67143 6.49291 0
M  V30 1280 H 119.754 0.106283 2.9781 0
M  V30 1281 H 117.291 0.0642227 1.4696 0
M  V30 1282 H 119.249 -2.32574 3.4636 0
M  V30 1283 H 117.879 -2.2386 2.32565 0
M  V30 1284 H 116.931 -0.312818 3.79112 0
M  V30 1285 H 118.243 -0.628444 4.94825 0
M  V30 1286 H 117.397 -2.95821 5.29693 0
M  V30 1287 H 116.136 -2.70659 4.05703 0
M  V30 1288 H 115.141 -0.855989 5.43096 0
M  V30 1289 H 116.366 -1.13102 6.69615 0
M  V30 1290 H 114.312 -3.16417 5.74645 0
M  V30 1291 H 114.229 -2.25093 7.21713 0
M  V30 1292 H 115.497 -3.4209 7.00425 0
M  V30 1293 N 119.726 -1.57421 0.075193 0
M  V30 1294 C 120.972 -1.93905 -0.594025 0
M  V30 1295 C 121.305 -0.955701 -1.69056 0
M  V30 1296 O 120.58 0.0145373 -1.94495 0
M  V30 1297 C 120.863 -3.40638 -1.1678 0
M  V30 1298 C 120.716 -4.49733 -0.0776792 0
M  V30 1299 C 122.035 -3.88259 -2.07228 0
M  V30 1300 H 119.154 -0.705105 -0.214466 0
M  V30 1301 H 121.796 -1.8947 0.141854 0
M  V30 1302 H 119.946 -3.44549 -1.79494 0
M  V30 1303 H 121.618 -4.57942 0.555573 0
M  V30 1304 H 119.861 -4.29751 0.591286 0
M  V30 1305 H 120.532 -5.49549 -0.519603 0
M  V30 1306 H 123.008 -3.86376 -1.54445 0
M  V30 1307 H 121.884 -4.91533 -2.44308 0
M  V30 1308 H 122.145 -3.26396 -2.98191 0
M  V30 1309 N 121.204 0.198386 -1.56346 0
M  V30 1310 C 122.151 1.24589 -1.94284 0
M  V30 1311 C 123.121 1.454 -0.802997 0
M  V30 1312 O 124.306 1.58588 -1.06087 0
M  V30 1313 C 121.446 2.58631 -2.28482 0
M  V30 1314 C 120.559 2.45426 -3.55514 0
M  V30 1315 C 119.694 3.7215 -3.79049 0
M  V30 1316 C 118.733 3.53763 -4.99518 0
M  V30 1317 N 117.87 4.72491 -5.19323 0
M  V30 1318 H 122.71 0.915356 -2.83593 0
M  V30 1319 H 120.247 0.440629 -1.40346 0
M  V30 1320 H 122.205 3.3672 -2.46324 0
M  V30 1321 H 120.835 2.89734 -1.42317 0
M  V30 1322 H 119.887 1.58652 -3.45737 0
M  V30 1323 H 121.199 2.27772 -4.43758 0
M  V30 1324 H 120.353 4.58679 -3.97113 0
M  V30 1325 H 119.092 3.92754 -2.89129 0
M  V30 1326 H 118.097 2.65619 -4.8138 0
M  V30 1327 H 119.322 3.34607 -5.90944 0
M  V30 1328 H 117.268 4.93365 -4.3235 0
M  V30 1329 H 117.185 4.5765 -6.01741 0
M  V30 1330 H 118.453 5.6038 -5.41843 0
M  V30 1331 N 122.682 1.50554 0.465978 0
M  V30 1332 C 123.645 1.69233 1.54574 0
M  V30 1333 C 124.645 0.562901 1.50626 0
M  V30 1334 O 125.835 0.830016 1.53155 0
M  V30 1335 C 122.967 1.7223 2.94193 0
M  V30 1336 H 124.16 2.65571 1.39327 0
M  V30 1337 H 121.713 1.40111 0.692711 0
M  V30 1338 H 122.448 0.77603 3.14878 0
M  V30 1339 H 122.233 2.54285 2.98466 0
M  V30 1340 H 123.723 1.88618 3.72576 0
M  V30 1341 N 124.16 -0.719506 1.40217 0
M  V30 1342 C 125.39 -1.50646 1.41384 0
M  V30 1343 C 125.798 -1.89197 0.0107743 0
M  V30 1344 O 125.141 -1.55709 -0.974708 0
M  V30 1345 C 125.203 -2.81405 2.23722 0
M  V30 1346 C 124.867 -2.65199 3.72181 0
M  V30 1347 C 125.864 -2.32717 4.64907 0
M  V30 1348 C 123.549 -2.81586 4.1595 0
M  V30 1349 C 125.543 -2.16827 5.99387 0
M  V30 1350 C 123.23 -2.65313 5.50502 0
M  V30 1351 C 124.228 -2.32981 6.42035 0
M  V30 1352 O 123.916 -2.16827 7.74107 0
M  V30 1353 H 123.648 -0.471606 0.484318 0
M  V30 1354 H 126.202 -0.895456 1.84853 0
M  V30 1355 H 124.432 -3.44823 1.75026 0
M  V30 1356 H 126.121 -3.43102 2.16878 0
M  V30 1357 H 126.887 -2.19694 4.32388 0
M  V30 1358 H 122.766 -3.0574 3.45027 0
M  V30 1359 H 126.31 -1.91513 6.70797 0
M  V30 1360 H 122.207 -2.7792 5.82607 0
M  V30 1361 H 122.975 -2.31778 7.84998 0
M  V30 1362 N 125.638 -1.25649 -0.95132 0
M  V30 1363 C 127.054 -1.02542 -1.223 0
M  V30 1364 C 127.254 0.255715 -1.99871 0
M  V30 1365 O 126.31 0.967558 -2.33226 0
M  V30 1366 C 127.623 -2.25065 -1.99415 0
M  V30 1367 C 129.171 -2.29861 -2.12446 0
M  V30 1368 C 129.646 -3.52048 -2.92961 0
M  V30 1369 N 131.137 -3.52465 -3.00538 0
M  V30 1370 C 131.872 -4.43672 -3.63239 0
M  V30 1371 N 131.368 -5.45157 -4.27523 0
M  V30 1372 N 133.161 -4.31346 -3.60412 0
M  V30 1373 H 125.312 -2.07951 -0.432471 0
M  V30 1374 H 127.575 -0.91339 -0.253816 0
M  V30 1375 H 127.281 -3.18194 -1.49817 0
M  V30 1376 H 127.155 -2.28502 -3.00111 0
M  V30 1377 H 129.542 -1.37252 -2.61239 0
M  V30 1378 H 129.623 -2.3044 -1.11044 0
M  V30 1379 H 129.267 -4.44981 -2.44856 0
M  V30 1380 H 129.197 -3.48715 -3.94596 0
M  V30 1381 H 131.688 -2.79056 -2.54826 0
M  V30 1382 H 132.001 -6.10958 -4.73234 0
M  V30 1383 H 130.346 -5.49025 -4.26141 0
M  V30 1384 H 133.537 -3.51288 -3.09377 0
M  V30 1385 H 133.71 -5.02624 -4.0899 0
M  V30 1386 N 127.117 1.15442 -1.07289 0
M  V30 1387 C 128.027 2.23786 -0.704057 0
M  V30 1388 C 129.043 1.7166 0.284413 0
M  V30 1389 O 130.219 2.00972 0.131205 0
M  V30 1390 C 127.284 3.46535 -0.106792 0
M  V30 1391 C 126.345 4.13654 -1.14842 0
M  V30 1392 C 125.578 5.30544 -0.57956 0
M  V30 1393 O 125.801 5.67187 0.604585 0
M  V30 1394 O 124.735 5.87154 -1.32414 0
M  V30 1395 H 128.561 2.57664 -1.60757 0
M  V30 1396 H 126.146 1.23152 -0.845803 0
M  V30 1397 H 128.028 4.20804 0.224048 0
M  V30 1398 H 126.703 3.14407 0.770049 0
M  V30 1399 H 125.61 3.4131 -1.5316 0
M  V30 1400 H 126.943 4.49861 -1.99714 0
M  V30 1401 N 128.595 0.856903 1.32268 0
M  V30 1402 C 129.542 0.301172 2.28827 0
M  V30 1403 C 130.512 -0.593104 1.5515 0
M  V30 1404 O 131.697 -0.527537 1.83362 0
M  V30 1405 C 128.837 -0.502523 3.41422 0
M  V30 1406 C 127.95 0.417797 4.29975 0
M  V30 1407 C 127.085 -0.398749 5.29701 0
M  V30 1408 C 126.124 0.518827 6.09897 0
M  V30 1409 N 125.261 -0.260674 7.01616 0
M  V30 1410 H 130.101 1.12983 2.75751 0
M  V30 1411 H 127.638 0.568582 1.35667 0
M  V30 1412 H 129.596 -0.984141 4.05426 0
M  V30 1413 H 128.226 -1.29599 2.95642 0
M  V30 1414 H 127.278 1.01781 3.66531 0
M  V30 1415 H 128.59 1.12191 4.86019 0
M  V30 1416 H 127.744 -0.943435 5.9932 0
M  V30 1417 H 126.483 -1.13622 4.7428 0
M  V30 1418 H 125.488 1.07538 5.39181 0
M  V30 1419 H 126.713 1.25495 6.67404 0
M  V30 1420 H 124.659 -0.981198 6.4862 0
M  V30 1421 H 124.576 0.384364 7.55022 0
M  V30 1422 H 125.844 -0.787014 7.75517 0
M  V30 1423 N 130.073 -1.45103 0.615059 0
M  V30 1424 C 131.322 -2.01396 0.110718 0
M  V30 1425 C 131.635 -1.48834 -1.26916 0
M  V30 1426 O 132.841 -1.97152 -1.86664 0
M  V30 1427 C 131.297 -3.59599 0.14723 0
M  V30 1428 C 130.905 -4.21158 1.52743 0
M  V30 1429 C 132.649 -4.23428 -0.30148 0
M  V30 1430 C 130.556 -5.71535 1.51992 0
M  V30 1431 H 129.486 -0.753061 0.0376241 0
M  V30 1432 H 132.137 -1.66494 0.77149 0
M  V30 1433 H 130.519 -3.91724 -0.580339 0
M  V30 1434 H 131.693 -4.00594 2.2773 0
M  V30 1435 H 130.008 -3.69552 1.91886 0
M  V30 1436 H 132.605 -5.33703 -0.326392 0
M  V30 1437 H 132.948 -3.94629 -1.32565 0
M  V30 1438 H 133.481 -3.96047 0.373065 0
M  V30 1439 H 130.22 -6.05044 2.52193 0
M  V30 1440 H 129.74 -5.94268 0.81274 0
M  V30 1441 H 131.419 -6.34873 1.24681 0
M  V30 1442 N 131.551 -0.354651 -1.53558 0
M  V30 1443 C 132.461 0.50515 -2.29097 0
M  V30 1444 C 133.477 1.10223 -1.34636 0
M  V30 1445 O 134.653 1.11553 -1.67684 0
M  V30 1446 C 131.718 1.63479 -3.05738 0
M  V30 1447 C 130.779 1.06636 -4.15845 0
M  V30 1448 C 130.012 2.14217 -4.88822 0
M  V30 1449 O 130.235 3.35137 -4.61562 0
M  V30 1450 O 129.169 1.77887 -5.75013 0
M  V30 1451 H 132.995 -0.109237 -3.03503 0
M  V30 1452 H 130.58 -0.119357 -1.48922 0
M  V30 1453 H 132.462 2.2918 -3.5363 0
M  V30 1454 H 131.137 2.23478 -2.34178 0
M  V30 1455 H 130.044 0.373565 -3.7223 0
M  V30 1456 H 131.377 0.511081 -4.89539 0
M  V30 1457 N 133.029 1.57378 -0.0835403 0
M  V30 1458 C 133.976 2.13384 0.879539 0
M  V30 1459 C 134.946 1.04936 1.28754 0
M  V30 1460 O 136.131 1.32662 1.37133 0
M  V30 1461 C 133.271 2.70932 2.13752 0
M  V30 1462 C 132.384 3.93575 1.7811 0
M  V30 1463 C 131.519 4.39326 2.98607 0
M  V30 1464 C 130.558 5.54587 2.59037 0
M  V30 1465 N 129.695 5.95243 3.72331 0
M  V30 1466 H 134.535 2.9537 0.395076 0
M  V30 1467 H 132.072 1.45953 0.183349 0
M  V30 1468 H 134.03 3.02411 2.87408 0
M  V30 1469 H 132.66 1.91693 2.59718 0
M  V30 1470 H 131.712 3.68483 0.94469 0
M  V30 1471 H 133.024 4.77258 1.45005 0
M  V30 1472 H 132.178 4.72528 3.80529 0
M  V30 1473 H 130.917 3.5452 3.34913 0
M  V30 1474 H 129.922 5.21024 1.75539 0
M  V30 1475 H 131.147 6.41133 2.23887 0
M  V30 1476 H 129.093 5.13385 4.08378 0
M  V30 1477 H 129.01 6.73694 3.43034 0
M  V30 1478 H 130.278 6.33072 4.54797 0
M  V30 1479 N 134.507 -0.190092 1.56449 0
M  V30 1480 C 135.417 -1.25591 1.98152 0
M  V30 1481 C 136.433 -1.49519 0.889944 0
M  V30 1482 O 137.609 -1.62036 1.19609 0
M  V30 1483 C 134.674 -2.57916 2.3169 0
M  V30 1484 C 133.735 -2.42015 3.5458 0
M  V30 1485 C 132.968 -3.6803 3.8651 0
M  V30 1486 O 133.191 -4.72413 3.1966 0
M  V30 1487 O 132.125 -3.6326 4.79923 0
M  V30 1488 H 135.951 -0.931988 2.89046 0
M  V30 1489 H 133.536 -0.395488 1.4407 0
M  V30 1490 H 135.418 -3.36008 2.54316 0
M  V30 1491 H 134.093 -2.89925 1.43963 0
M  V30 1492 H 133 -1.62017 3.37196 0
M  V30 1493 H 134.333 -2.14937 4.4279 0
M  V30 1494 N 135.985 -1.50799 -0.457987 0
M  V30 1495 C 136.915 -1.73553 -1.5621 0
M  V30 1496 C 137.896 -0.584774 -1.59732 0
M  V30 1497 O 139.081 -0.825314 -1.7579 0
M  V30 1498 C 136.211 -1.84169 -2.94447 0
M  V30 1499 C 135.165 -2.99461 -3.0579 0
M  V30 1500 C 134.491 -2.95235 -4.45803 0
M  V30 1501 C 135.791 -4.39766 -2.81786 0
M  V30 1502 H 137.485 -2.66 -1.37421 0
M  V30 1503 H 135.031 -1.28002 -0.659662 0
M  V30 1504 H 136.984 -1.98672 -3.71628 0
M  V30 1505 H 135.708 -0.883545 -3.14422 0
M  V30 1506 H 134.367 -2.8463 -2.31044 0
M  V30 1507 H 134.015 -1.97239 -4.62715 0
M  V30 1508 H 133.715 -3.72642 -4.54326 0
M  V30 1509 H 135.239 -3.11803 -5.24987 0
M  V30 1510 H 136.653 -4.55054 -3.4871 0
M  V30 1511 H 135.05 -5.18722 -3.0174 0
M  V30 1512 H 136.12 -4.51229 -1.7754 0
M  V30 1513 N 137.463 0.71206 -1.40597 0
M  V30 1514 C 138.373 1.8562 -1.43466 0
M  V30 1515 C 139.389 1.70902 -0.326902 0
M  V30 1516 O 140.565 1.93105 -0.572043 0
M  V30 1517 C 137.63 3.21451 -1.29884 0
M  V30 1518 C 136.691 3.48398 -2.50833 0
M  V30 1519 C 135.924 4.77749 -2.3789 0
M  V30 1520 O 136.147 5.53089 -1.39459 0
M  V30 1521 O 135.081 5.05111 -3.27333 0
M  V30 1522 H 138.907 1.86155 -2.39958 0
M  V30 1523 H 136.492 0.86295 -1.21957 0
M  V30 1524 H 138.374 4.02579 -1.24531 0
M  V30 1525 H 137.049 3.21636 -0.364997 0
M  V30 1526 H 135.956 2.67265 -2.61763 0
M  V30 1527 H 137.289 3.53014 -3.4299 0
M  V30 1528 N 138.941 1.26152 0.944643 0
M  V30 1529 C 140.169 1.14259 1.72489 0
M  V30 1530 C 140.584 -0.302555 1.8636 0
M  V30 1531 O 139.941 -1.20741 1.36849 0
M  V30 1532 C 139.992 1.80266 3.13347 0
M  V30 1533 O 139.713 3.19133 3.00143 0
M  V30 1534 C 141.214 1.74283 4.07603 0
M  V30 1535 H 138.434 0.398051 0.540181 0
M  V30 1536 H 140.978 1.66706 1.18446 0
M  V30 1537 H 139.133 1.31766 3.64303 0
M  V30 1538 H 139.547 3.51744 3.89071 0
M  V30 1539 H 141.021 2.25111 5.04013 0
M  V30 1540 H 141.498 0.708631 4.33446 0
M  V30 1541 H 142.104 2.22319 3.62567 0
M  V30 1542 N 140.419 -1.14872 1.07899 0
M  V30 1543 C 141.665 -1.86064 0.806725 0
M  V30 1544 C 141.998 -1.82434 -0.665706 0
M  V30 1545 O 141.273 -1.25138 -1.48899 0
M  V30 1546 C 141.556 -3.34929 1.32267 0
M  V30 1547 C 141.409 -3.47161 2.86006 0
M  V30 1548 C 142.728 -4.29863 0.943717 0
M  V30 1549 H 139.847 -0.675591 0.294526 0
M  V30 1550 H 142.489 -1.34925 1.33773 0
M  V30 1551 H 140.639 -3.78611 0.870974 0
M  V30 1552 H 142.311 -3.12302 3.39507 0
M  V30 1553 H 140.554 -2.88539 3.23925 0
M  V30 1554 H 141.225 -4.51777 3.17177 0
M  V30 1555 H 143.701 -3.9417 1.33302 0
M  V30 1556 H 142.577 -5.32494 1.33198 0
M  V30 1557 H 142.838 -4.41846 -0.149796 0
M  V30 1558 N 141.898 -0.863906 -1.31812 0
M  V30 1559 C 143.138 -0.47825 -1.98726 0
M  V30 1560 C 143.502 0.950397 -1.66828 0
M  V30 1561 O 144.703 1.44109 -2.26905 0
M  V30 1562 C 142.974 -0.721134 -3.50049 0
M  V30 1563 S 144.533 -0.434432 -4.36644 0
M  V30 1564 H 141.351 -0.178773 -0.688158 0
M  V30 1565 H 143.953 -1.11862 -1.60334 0
M  V30 1566 H 142.657 -1.75981 -3.70755 0
M  V30 1567 H 142.188 -0.0675315 -3.93342 0
M  V30 1568 H 144.203 0.735786 -4.90714 0
M  V30 1569 N 143.376 1.44774 -0.622745 0
M  V30 1570 C 144.324 2.32387 0.0994683 0
M  V30 1571 C 145.318 1.46859 0.844326 0
M  V30 1572 O 146.524 1.63254 0.758174 0
M  V30 1573 H 142.899 0.750273 0.0509291 0
M  V30 1574 H 144.87 2.91062 -0.65767 0
M  V30 1575 C 143.619 3.30723 1.07319 0
M  V30 1576 H 142.942 3.96541 0.509462 0
M  V30 1577 H 144.382 3.94725 1.54817 0
M  V30 1578 C 142.841 2.59021 2.15429 0
M  V30 1579 O 143.371 2.38286 3.23393 0
M  V30 1580 N 141.577 2.189 1.91131 0
M  V30 1581 H 141.124 2.35964 1.03337 0
M  V30 1582 H 141.082 1.71251 2.63668 0
M  V30 1583 N 144.854 0.36279 1.53368 0
M  V30 1584 C 146.131 -0.284021 1.93527 0
M  V30 1585 C 146.511 -1.66628 1.29608 0
M  V30 1586 O 145.859 -2.23942 0.45413 0
M  V30 1587 C 146.069 -0.337028 3.47369 0
M  V30 1588 C 147.417 -0.578708 4.20638 0
M  V30 1589 O 148.441 -0.418352 3.53735 0
M  V30 1590 O 147.3 -0.89074 5.39192 0
M  V30 1591 H 144.394 -0.169743 0.809393 0
M  V30 1592 H 146.94 0.41537 1.64538 0
M  V30 1593 H 145.712 0.632217 3.86159 0
M  V30 1594 H 145.335 -1.08243 3.82582 0
M  V30 1595 N 146.332 -1.57332 0.0918853 0
M  V30 1596 C 147.578 -1.94524 -0.573425 0
M  V30 1597 C 147.911 -0.973578 -1.68033 0
M  V30 1598 O 147.186 -0.00609226 -1.94499 0
M  V30 1599 C 147.469 -3.41858 -1.13161 0
M  V30 1600 C 147.322 -4.4979 -0.0299747 0
M  V30 1601 C 148.641 -3.90435 -2.03098 0
M  V30 1602 H 145.76 -0.70734 -0.206975 0
M  V30 1603 H 148.402 -1.89309 0.161942 0
M  V30 1604 H 146.552 -3.46433 -1.7583 0
M  V30 1605 H 148.224 -4.57327 0.604112 0
M  V30 1606 H 146.467 -4.291 0.636833 0
M  V30 1607 H 147.138 -5.50069 -0.461287 0
M  V30 1608 H 149.614 -3.87992 -1.50338 0
M  V30 1609 H 148.49 -4.94097 -2.39081 0
M  V30 1610 H 148.751 -3.29541 -2.94712 0
M  V30 1611 N 147.81 0.181792 -1.56548 0
M  V30 1612 C 148.74 1.22765 -1.98623 0
M  V30 1613 C 149.721 1.46747 -0.860189 0
M  V30 1614 O 150.906 1.58259 -1.12551 0
M  V30 1615 C 148.036 2.56894 -2.33715 0
M  V30 1616 C 146.99 2.475 -3.49182 0
M  V30 1617 C 146.316 3.86023 -3.69986 0
M  V30 1618 C 147.616 1.98866 -4.82959 0
M  V30 1619 H 149.31 0.877942 -2.86239 0
M  V30 1620 H 146.856 0.42088 -1.37712 0
M  V30 1621 H 148.809 3.30253 -2.61746 0
M  V30 1622 H 147.533 2.93632 -1.42997 0
M  V30 1623 H 146.192 1.76596 -3.21262 0
M  V30 1624 H 145.84 4.20136 -2.76576 0
M  V30 1625 H 145.54 3.80609 -4.47672 0
M  V30 1626 H 147.064 4.60984 -4.00407 0
M  V30 1627 H 148.478 2.61992 -5.09934 0
M  V30 1628 H 146.875 2.04424 -5.64208 0
M  V30 1629 H 147.945 0.942465 -4.75653 0
M  V30 1630 N 149.288 1.51039 0.449983 0
M  V30 1631 C 150.513 1.6715 1.22783 0
M  V30 1632 C 150.938 0.363081 1.84563 0
M  V30 1633 O 150.296 -0.675433 1.68249 0
M  V30 1634 C 150.344 2.77985 2.29689 0
M  V30 1635 O 149.448 2.40707 3.34864 0
M  V30 1636 H 148.789 0.557746 0.360299 0
M  V30 1637 H 151.319 1.97535 0.533005 0
M  V30 1638 H 151.329 3.01693 2.74673 0
M  V30 1639 H 150.004 3.72935 1.84098 0
M  V30 1640 H 148.581 2.27523 2.95445 0
M  V30 1641 N 150.766 -0.704594 1.40972 0
M  V30 1642 C 151.696 -1.83124 1.44872 0
M  V30 1643 C 152.677 -1.67281 0.30838 0
M  V30 1644 O 153.862 -1.87149 0.518556 0
M  V30 1645 C 150.992 -3.21181 1.32136 0
M  V30 1646 C 149.946 -3.51714 2.43888 0
M  V30 1647 C 149.272 -4.89032 2.16222 0
M  V30 1648 C 150.572 -3.516 3.86232 0
M  V30 1649 H 152.266 -1.80117 2.39161 0
M  V30 1650 H 149.812 -0.865145 1.15114 0
M  V30 1651 H 151.765 -3.99702 1.33479 0
M  V30 1652 H 150.489 -3.24791 0.343279 0
M  V30 1653 H 149.148 -2.75539 2.41813 0
M  V30 1654 H 148.796 -4.89256 1.16778 0
M  V30 1655 H 148.496 -5.10426 2.911 0
M  V30 1656 H 150.02 -5.69873 2.19265 0
M  V30 1657 H 151.434 -4.2014 3.9007 0
M  V30 1658 H 149.831 -3.84523 4.60719 0
M  V30 1659 H 150.901 -2.50757 4.15029 0
M  V30 1660 N 152.244 -1.26651 -0.937939 0
M  V30 1661 C 153.174 -1.10993 -2.05433 0
M  V30 1662 C 154.155 -0.0142161 -1.70094 0
M  V30 1663 O 155.34 -0.186837 -1.93299 0
M  V30 1664 C 152.47 -0.745561 -3.39203 0
M  V30 1665 C 151.424 -1.79337 -3.88616 0
M  V30 1666 C 150.75 -1.28324 -5.19073 0
M  V30 1667 C 152.05 -3.19553 -4.13138 0
M  V30 1668 H 153.744 -2.0438 -2.1879 0
M  V30 1669 H 151.29 -0.984041 -1.05131 0
M  V30 1670 H 153.243 -0.622888 -4.16771 0
M  V30 1671 H 151.967 0.22401 -3.25831 0
M  V30 1672 H 150.626 -1.90477 -3.13231 0
M  V30 1673 H 150.274 -0.303414 -5.02084 0
M  V30 1674 H 149.974 -1.98369 -5.53103 0
M  V30 1675 H 151.498 -1.1733 -5.99221 0
M  V30 1676 H 152.912 -3.11471 -4.81309 0
M  V30 1677 H 151.309 -3.87218 -4.58457 0
M  V30 1678 H 152.379 -3.65368 -3.18801 0
M  V30 1679 N 153.722 1.14298 -1.08507 0
M  V30 1680 C 154.999 1.81544 -0.728088 0
M  V30 1681 C 155.379 1.95838 0.78808 0
M  V30 1682 O 154.727 1.51904 1.70697 0
M  V30 1683 C 154.937 3.17169 -1.45619 0
M  V30 1684 C 156.285 3.9265 -1.61591 0
M  V30 1685 O 157.309 3.26762 -1.41793 0
M  V30 1686 O 156.168 5.10807 -1.94263 0
M  V30 1687 H 153.262 0.78491 -0.260471 0
M  V30 1688 H 155.808 1.21307 -1.18671 0
M  V30 1689 H 154.58 3.01934 -2.489 0
M  V30 1690 H 154.203 3.851 -0.989124 0
M  V30 1691 N 155.201 0.870884 1.31352 0
M  V30 1692 C 156.148 0.325425 2.28494 0
M  V30 1693 C 157.118 -0.576615 1.5577 0
M  V30 1694 O 158.303 -0.508059 1.83911 0
M  V30 1695 C 155.443 -0.466283 3.41935 0
M  V30 1696 C 154.556 0.463378 4.29508 0
M  V30 1697 C 153.691 -0.342544 5.30094 0
M  V30 1698 C 152.73 0.583486 6.09313 0
M  V30 1699 N 151.867 -0.186244 7.01853 0
M  V30 1700 H 156.707 1.15901 2.74538 0
M  V30 1701 H 154.244 0.58294 1.35056 0
M  V30 1702 H 156.202 -0.941085 4.06447 0
M  V30 1703 H 154.832 -1.26456 2.97 0
M  V30 1704 H 153.884 1.05663 3.65431 0
M  V30 1705 H 155.196 1.1734 4.84802 0
M  V30 1706 H 154.35 -0.879816 6.00287 0
M  V30 1707 H 153.089 -1.08585 4.75458 0
M  V30 1708 H 152.094 1.13251 5.3801 0
M  V30 1709 H 153.319 1.32566 6.66035 0
M  V30 1710 H 151.265 -0.912348 6.49625 0
M  V30 1711 H 151.182 0.464422 7.54572 0
M  V30 1712 H 152.45 -0.704716 7.76308 0
M  V30 1713 N 156.679 -1.44442 0.630414 0
M  V30 1714 C 157.926 -2.02052 0.134617 0
M  V30 1715 C 158.254 -1.49576 -1.24327 0
M  V30 1716 O 157.509 -0.669806 -1.83881 0
M  V30 1717 C 157.808 -3.57332 0.0697835 0
M  V30 1718 C 157.474 -4.29058 1.38635 0
M  V30 1719 C 156.136 -4.4837 1.74694 0
M  V30 1720 C 158.488 -4.69872 2.25543 0
M  V30 1721 C 155.816 -5.05756 2.97369 0
M  V30 1722 C 158.168 -5.28616 3.47487 0
M  V30 1723 C 156.832 -5.46147 3.8377 0
M  V30 1724 H 156.102 -0.739361 0.0492598 0
M  V30 1725 H 158.749 -1.73217 0.816586 0
M  V30 1726 H 157.054 -3.85577 -0.695553 0
M  V30 1727 H 158.751 -3.99637 -0.330344 0
M  V30 1728 H 155.341 -4.14357 1.09574 0
M  V30 1729 H 159.525 -4.54666 1.98979 0
M  V30 1730 H 154.781 -5.17515 3.25558 0
M  V30 1731 H 158.955 -5.59192 4.15063 0
M  V30 1732 H 156.582 -5.9038 4.7891 0
M  V30 1733 N 158.157 -0.370918 -1.53173 0
M  V30 1734 C 159.087 0.464847 -2.28826 0
M  V30 1735 C 160.068 1.07936 -1.31468 0
M  V30 1736 O 161.253 1.0956 -1.60344 0
M  V30 1737 C 158.383 1.60196 -3.08147 0
M  V30 1738 C 157.337 1.11443 -4.13237 0
M  V30 1739 C 156.663 2.3422 -4.80672 0
M  V30 1740 C 157.963 0.195384 -5.21934 0
M  V30 1741 H 159.657 -0.166329 -2.98938 0
M  V30 1742 H 157.203 -0.0814359 -1.4377 0
M  V30 1743 H 159.156 2.19332 -3.59822 0
M  V30 1744 H 157.88 2.26045 -2.35735 0
M  V30 1745 H 156.539 0.545727 -3.62515 0
M  V30 1746 H 156.187 2.98537 -4.04827 0
M  V30 1747 H 155.887 2.02269 -5.51689 0
M  V30 1748 H 157.411 2.94032 -5.35143 0
M  V30 1749 H 158.825 0.694375 -5.69079 0
M  V30 1750 H 157.222 -0.0335027 -6.00091 0
M  V30 1751 H 158.292 -0.760961 -4.78892 0
M  V30 1752 N 159.635 1.57281 -0.100228 0
M  V30 1753 C 160.884 1.93713 0.561984 0
M  V30 1754 C 161.197 0.984492 1.69018 0
M  V30 1755 O 162.403 1.24273 2.41389 0
M  V30 1756 C 160.859 3.4421 1.05106 0
M  V30 1757 C 160.467 4.47975 -0.0476628 0
M  V30 1758 C 162.211 3.89595 1.68571 0
M  V30 1759 C 160.118 5.89631 0.457055 0
M  V30 1760 H 159.048 0.723082 0.2137 0
M  V30 1761 H 161.699 1.82644 -0.177057 0
M  V30 1762 H 160.081 3.50449 1.84395 0
M  V30 1763 H 161.255 4.53385 -0.823333 0
M  V30 1764 H 159.57 4.1223 -0.587816 0
M  V30 1765 H 162.167 4.92832 2.07414 0
M  V30 1766 H 162.51 3.28526 2.55688 0
M  V30 1767 H 163.043 3.86078 0.958562 0
M  V30 1768 H 159.782 6.54411 -0.377616 0
M  V30 1769 H 159.302 5.87681 1.19962 0
M  V30 1770 H 160.981 6.40363 0.92437 0
M  V30 1771 N 161.113 -0.173488 1.56642 0
M  V30 1772 C 162.06 -1.21482 1.96242 0
M  V30 1773 C 163.03 -1.44104 0.826027 0
M  V30 1774 O 164.215 -1.5688 1.08597 0
M  V30 1775 C 161.355 -2.54964 2.32567 0
M  V30 1776 C 160.468 -2.39739 3.59373 0
M  V30 1777 C 159.603 -3.66072 3.84921 0
M  V30 1778 C 158.642 -3.45771 5.05083 0
M  V30 1779 N 157.779 -4.64169 5.26775 0
M  V30 1780 H 162.619 -0.870123 2.85014 0
M  V30 1781 H 160.156 -0.418245 1.41029 0
M  V30 1782 H 162.114 -3.32758 2.5165 0
M  V30 1783 H 160.744 -2.87433 1.46908 0
M  V30 1784 H 159.796 -1.53131 3.48217 0
M  V30 1785 H 161.108 -2.20683 4.47326 0
M  V30 1786 H 160.262 -4.52303 4.0436 0
M  V30 1787 H 159.001 -3.88105 2.9534 0
M  V30 1788 H 158.006 -2.57927 4.85545 0
M  V30 1789 H 159.231 -3.25163 5.96193 0
M  V30 1790 H 157.177 -4.86425 4.40144 0
M  V30 1791 H 157.094 -4.48019 6.08946 0
M  V30 1792 H 158.362 -5.51689 5.5069 0
M  V30 1793 N 162.591 -1.51276 -0.441967 0
M  V30 1794 C 163.539 -1.72823 -1.55676 0
M  V30 1795 C 164.533 -0.59445 -1.58627 0
M  V30 1796 O 165.739 -0.775715 -1.62427 0
M  V30 1797 H 162.114 -0.545983 -0.517113 0
M  V30 1798 H 164.085 -2.6628 -1.34675 0
M  V30 1799 C 162.834 -1.86619 -2.93375 0
M  V30 1800 H 162.157 -2.73264 -2.91834 0
M  V30 1801 H 163.597 -2.05709 -3.70756 0
M  V30 1802 C 162.056 -0.624842 -3.31055 0
M  V30 1803 O 162.586 0.222636 -4.01083 0
M  V30 1804 N 160.792 -0.470288 -2.86769 0
M  V30 1805 H 160.339 -1.161 -2.29953 0
M  V30 1806 H 160.297 0.359051 -3.12343 0
M  V30 1807 N 164.069 0.697108 -1.41344 0
M  V30 1808 C 165.309 1.46939 -1.42085 0
M  V30 1809 C 165.673 1.9198 -0.0280397 0
M  V30 1810 O 166.874 2.6865 0.0897504 0
M  V30 1811 C 165.145 2.64985 -2.39828 0
M  V30 1812 S 166.704 3.54147 -2.59085 0
M  V30 1813 H 163.522 0.502146 -0.503359 0
M  V30 1814 H 166.124 0.813546 -1.77769 0
M  V30 1815 H 164.828 2.30098 -3.39828 0
M  V30 1816 H 164.359 3.35464 -2.05493 0
M  V30 1817 H 166.374 4.60137 -1.85711 0
M  V30 1818 N 165.547 1.27147 0.931209 0
M  V30 1819 C 166.495 1.09398 2.05268 0
M  V30 1820 C 167.489 0.0180591 1.6939 0
M  V30 1821 O 168.695 0.17551 1.79142 0
M  V30 1822 H 165.07 0.336986 0.672268 0
M  V30 1823 H 167.041 2.04416 2.17386 0
M  V30 1824 C 165.79 0.75424 3.39421 0
M  V30 1825 H 165.113 1.57404 3.67511 0
M  V30 1826 H 166.553 0.669903 4.18674 0
M  V30 1827 C 165.012 -0.541197 3.32525 0
M  V30 1828 O 165.542 -1.57664 3.69466 0
M  V30 1829 N 163.748 -0.535517 2.85623 0
M  V30 1830 H 163.295 0.307511 2.55758 0
M  V30 1831 H 163.253 -1.40236 2.81392 0
M  V30 1832 N 167.025 -1.13721 1.09112 0
M  V30 1833 C 168.302 -1.81155 0.737706 0
M  V30 1834 C 168.682 -1.96253 -0.777683 0
M  V30 1835 O 168.03 -1.52807 -1.69889 0
M  V30 1836 C 168.24 -3.16392 1.47299 0
M  V30 1837 C 169.588 -3.91787 1.63671 0
M  V30 1838 O 170.612 -3.26005 1.43524 0
M  V30 1839 O 169.471 -5.0977 1.96969 0
M  V30 1840 H 166.565 -0.783518 0.26463 0
M  V30 1841 H 169.111 -1.20676 1.19312 0
M  V30 1842 H 167.883 -3.0061 2.50498 0
M  V30 1843 H 167.506 -3.8457 1.00953 0
M  V30 1844 N 168.503 -0.877838 -1.30888 0
M  V30 1845 C 169.75 -0.492696 -1.96415 0
M  V30 1846 C 170.078 0.956671 -1.69346 0
M  V30 1847 O 169.333 1.68993 -0.986913 0
M  V30 1848 C 169.632 -0.705748 -3.50363 0
M  V30 1849 C 169.298 -2.1291 -3.97467 0
M  V30 1850 C 167.96 -2.51834 -4.1004 0
M  V30 1851 C 170.312 -3.05702 -4.22132 0
M  V30 1852 C 167.64 -3.82775 -4.44635 0
M  V30 1853 C 169.992 -4.36166 -4.58194 0
M  V30 1854 C 168.656 -4.74993 -4.68975 0
M  V30 1855 H 167.926 -0.18029 -0.718733 0
M  V30 1856 H 170.573 -1.11233 -1.55883 0
M  V30 1857 H 168.878 -0.00303058 -3.918 0
M  V30 1858 H 170.575 -0.387456 -3.99124 0
M  V30 1859 H 167.165 -1.81694 -3.88182 0
M  V30 1860 H 171.349 -2.76853 -4.11906 0
M  V30 1861 H 166.605 -4.12609 -4.51181 0
M  V30 1862 H 170.779 -5.08111 -4.76231 0
M  V30 1863 H 168.406 -5.76495 -4.95537 0
M  V30 1864 N 169.982 1.44106 -0.638065 0
M  V30 1865 C 170.914 2.28976 0.101205 0
M  V30 1866 C 171.927 1.4167 0.802088 0
M  V30 1867 O 173.116 1.65755 0.662375 0
M  V30 1868 C 170.216 3.18217 1.16581 0
M  V30 1869 C 169.389 4.33978 0.546066 0
M  V30 1870 C 168.448 5.04202 1.50554 0
M  V30 1871 O 167.474 5.59986 1.01999 0
M  V30 1872 N 168.676 5.06296 2.8398 0
M  V30 1873 H 171.441 2.93064 -0.627186 0
M  V30 1874 H 169.002 1.54629 -0.479731 0
M  V30 1875 H 170.994 3.62061 1.80815 0
M  V30 1876 H 169.564 2.55833 1.79634 0
M  V30 1877 H 168.784 3.93239 -0.275046 0
M  V30 1878 H 170.072 5.08675 0.112793 0
M  V30 1879 H 169.47 4.62319 3.26002 0
M  V30 1880 H 168.027 5.53907 3.43556 0
M  V30 1881 N 171.46 0.379036 1.52974 0
M  V30 1882 C 172.69 -0.20649 2.05566 0
M  V30 1883 C 173.098 -1.41906 1.25137 0
M  V30 1884 O 172.441 -1.81421 0.288464 0
M  V30 1885 C 172.503 -0.651086 3.53555 0
M  V30 1886 C 172.167 0.446626 4.54812 0
M  V30 1887 C 173.164 1.30079 5.03364 0
M  V30 1888 C 170.849 0.610719 4.98573 0
M  V30 1889 C 172.843 2.30426 5.94292 0
M  V30 1890 C 170.53 1.61754 5.89304 0
M  V30 1891 C 171.528 2.46274 6.37054 0
M  V30 1892 O 171.216 3.45237 7.25994 0
M  V30 1893 H 170.948 -0.0372381 0.674974 0
M  V30 1894 H 173.502 0.539718 1.98182 0
M  V30 1895 H 171.732 -1.44911 3.58522 0
M  V30 1896 H 173.421 -1.16112 3.88938 0
M  V30 1897 H 174.187 1.18527 4.70294 0
M  V30 1898 H 170.066 -0.0374044 4.60985 0
M  V30 1899 H 173.61 2.96432 6.31485 0
M  V30 1900 H 169.507 1.73348 6.21788 0
M  V30 1901 H 170.275 3.41124 7.44027 0
M  V30 1902 N 172.938 -1.57226 0.108567 0
M  V30 1903 C 173.848 -2.18292 -0.859401 0
M  V30 1904 C 174.864 -1.15612 -1.30038 0
M  V30 1905 O 176.04 -1.48039 -1.36552 0
M  V30 1906 C 173.105 -2.762 -2.09558 0
M  V30 1907 C 172.166 -3.93881 -1.70752 0
M  V30 1908 C 171.399 -4.49018 -2.88477 0
M  V30 1909 O 171.622 -4.03068 -4.036 0
M  V30 1910 O 170.556 -5.39852 -2.66164 0
M  V30 1911 H 174.382 -3.01441 -0.369769 0
M  V30 1912 H 171.967 -1.48945 -0.1165 0
M  V30 1913 H 173.849 -3.13156 -2.81978 0
M  V30 1914 H 172.524 -1.96089 -2.57548 0
M  V30 1915 H 171.431 -3.61713 -0.954714 0
M  V30 1916 H 172.764 -4.75396 -1.27513 0
M  V30 1917 N 174.416 0.165178 -1.56732 0
M  V30 1918 C 175.641 0.900253 -1.86843 0
M  V30 1919 C 176.066 1.74766 -0.695596 0
M  V30 1920 O 175.424 1.77786 0.35522 0
M  V30 1921 C 175.472 1.74777 -3.15413 0
M  V30 1922 O 174.576 2.85007 -2.98068 0
M  V30 1923 H 173.917 0.251832 -0.614391 0
M  V30 1924 H 176.447 0.161468 -2.03962 0
M  V30 1925 H 176.457 2.14646 -3.46974 0
M  V30 1926 H 175.132 1.12537 -4.00385 0
M  V30 1927 H 173.709 2.48676 -2.77875 0
M  V30 1928 N 175.894 1.51508 0.433938 0
M  V30 1929 C 176.841 1.73068 1.52696 0
M  V30 1930 C 177.811 0.572441 1.55924 0
M  V30 1931 O 178.996 0.807253 1.72882 0
M  V30 1932 C 176.136 1.86474 2.90381 0
M  V30 1933 C 175.249 3.14037 2.96656 0
M  V30 1934 C 174.384 3.18019 4.25485 0
M  V30 1935 C 173.423 4.39882 4.2564 0
M  V30 1936 N 172.56 4.41394 5.45999 0
M  V30 1937 H 177.4 2.66366 1.33615 0
M  V30 1938 H 174.937 1.32008 0.649018 0
M  V30 1939 H 176.895 1.92229 3.70275 0
M  V30 1940 H 175.525 0.965809 3.08013 0
M  V30 1941 H 174.577 3.17575 2.09404 0
M  V30 1942 H 175.889 4.0394 2.92633 0
M  V30 1943 H 175.043 3.22708 5.13755 0
M  V30 1944 H 173.782 2.2601 4.3217 0
M  V30 1945 H 172.787 4.35366 3.35763 0
M  V30 1946 H 174.012 5.33159 4.20617 0
M  V30 1947 H 171.958 3.52258 5.53399 0
M  V30 1948 H 171.875 5.25111 5.4387 0
M  V30 1949 H 173.143 4.50281 6.36292 0
M  V30 1950 N 177.372 -0.689602 1.41712 0
M  V30 1951 C 178.618 -1.45181 1.41599 0
M  V30 1952 C 178.951 -1.94181 0.0270081 0
M  V30 1953 O 178.226 -1.6993 -0.946265 0
M  V30 1954 C 178.509 -2.65945 2.42787 0
M  V30 1955 C 178.362 -2.22672 3.90816 0
M  V30 1956 C 179.681 -3.68149 2.41151 0
M  V30 1957 H 176.8 -0.526576 0.515642 0
M  V30 1958 H 179.442 -0.784947 1.73028 0
M  V30 1959 H 177.592 -3.2284 2.16116 0
M  V30 1960 H 179.264 -1.71058 4.28412 0
M  V30 1961 H 177.507 -1.54394 4.05395 0
M  V30 1962 H 178.178 -3.0935 4.57172 0
M  V30 1963 H 180.654 -3.2094 2.64834 0
M  V30 1964 H 179.53 -4.50248 3.13955 0
M  V30 1965 H 179.791 -4.18259 1.43221 0
M  V30 1966 N 178.85 -1.27639 -0.924453 0
M  V30 1967 C 180.097 -1.14167 -1.67249 0
M  V30 1968 C 180.425 0.311863 -1.91984 0
M  V30 1969 O 179.68 1.24425 -1.51053 0
M  V30 1970 C 179.979 -1.87407 -3.04325 0
M  V30 1971 C 179.645 -3.37249 -2.99289 0
M  V30 1972 C 178.307 -3.7812 -2.97622 0
M  V30 1973 C 180.659 -4.32845 -2.90336 0
M  V30 1974 C 177.987 -5.12944 -2.8479 0
M  V30 1975 C 180.339 -5.6773 -2.79045 0
M  V30 1976 C 179.003 -6.07889 -2.7573 0
M  V30 1977 H 178.273 -0.417766 -0.612007 0
M  V30 1978 H 180.92 -1.58286 -1.07786 0
M  V30 1979 H 179.225 -1.35805 -3.67511 0
M  V30 1980 H 180.922 -1.74408 -3.61086 0
M  V30 1981 H 177.512 -3.04748 -3.01374 0
M  V30 1982 H 181.696 -4.02239 -2.90719 0
M  V30 1983 H 176.952 -5.432 -2.80612 0
M  V30 1984 H 181.126 -6.41472 -2.71083 0
M  V30 1985 H 178.753 -7.12314 -2.65544 0
M  V30 1986 N 180.328 1.1314 -1.09713 0
M  V30 1987 C 181.558 1.88048 -0.855656 0
M  V30 1988 C 181.966 1.79537 0.596919 0
M  V30 1989 O 181.309 1.16196 1.42282 0
M  V30 1990 C 181.371 3.38314 -1.21589 0
M  V30 1991 C 181.035 3.70605 -2.67397 0
M  V30 1992 C 182.032 3.69596 -3.65643 0
M  V30 1993 C 179.717 4.0017 -3.03593 0
M  V30 1994 C 181.711 3.977 -4.9811 0
M  V30 1995 C 179.398 4.27935 -4.36251 0
M  V30 1996 C 180.396 4.26685 -5.33318 0
M  V30 1997 O 180.084 4.53767 -6.63589 0
M  V30 1998 H 179.816 0.60208 -0.307368 0
M  V30 1999 H 182.37 1.44128 -1.46343 0
M  V30 2000 H 180.6 3.82752 -0.551177 0
M  V30 2001 H 182.289 3.94552 -0.953083 0
M  V30 2002 H 183.055 3.46826 -3.39023 0
M  V30 2003 H 178.934 4.00289 -2.2867 0
M  V30 2004 H 182.478 3.9664 -5.73866 0
M  V30 2005 H 178.375 4.50178 -4.62613 0
M  V30 2006 H 179.143 4.71422 -6.69107 0
M  V30 2007 N 181.806 0.884767 1.30421 0
M  V30 2008 C 182.736 0.367574 2.30589 0
M  V30 2009 C 183.717 -0.549464 1.60981 0
M  V30 2010 O 184.902 -0.46336 1.88591 0
M  V30 2011 C 182.032 -0.418944 3.44764 0
M  V30 2012 C 180.986 0.406316 4.26067 0
M  V30 2013 C 180.312 -0.506793 5.32293 0
M  V30 2014 C 181.612 1.64832 4.95608 0
M  V30 2015 H 183.306 1.20462 2.74097 0
M  V30 2016 H 180.852 0.580695 1.31772 0
M  V30 2017 H 182.805 -0.791395 4.13902 0
M  V30 2018 H 181.529 -1.28964 3.0006 0
M  V30 2019 H 180.188 0.760903 3.58617 0
M  V30 2020 H 179.836 -1.37519 4.83836 0
M  V30 2021 H 179.536 0.0415828 5.87585 0
M  V30 2022 H 181.06 -0.875764 6.04287 0
M  V30 2023 H 182.474 1.34646 5.57264 0
M  V30 2024 H 180.871 2.13688 5.60765 0
M  V30 2025 H 181.941 2.39284 4.21748 0
M  V30 2026 N 183.284 -1.43765 0.645699 0
M  V30 2027 C 184.231 -2.30745 -0.0504648 0
M  V30 2028 C 185.201 -1.4432 -0.822241 0
M  V30 2029 O 186.386 -1.73202 -0.800358 0
M  V30 2030 C 183.526 -3.29802 -1.0161 0
M  V30 2031 C 182.639 -4.31326 -0.241219 0
M  V30 2032 C 181.774 -5.17469 -1.19998 0
M  V30 2033 C 180.813 -6.10691 -0.415094 0
M  V30 2034 N 179.95 -6.89483 -1.32506 0
M  V30 2035 H 184.79 -2.8973 0.697155 0
M  V30 2036 H 182.327 -1.42738 0.355563 0
M  V30 2037 H 184.285 -3.85734 -1.58949 0
M  V30 2038 H 182.915 -2.72483 -1.73069 0
M  V30 2039 H 181.967 -3.77749 0.448334 0
M  V30 2040 H 183.279 -4.9743 0.369437 0
M  V30 2041 H 182.433 -5.7799 -1.84424 0
M  V30 2042 H 181.172 -4.51473 -1.84455 0
M  V30 2043 H 180.177 -5.49265 0.242565 0
M  V30 2044 H 181.402 -6.78727 0.224966 0
M  V30 2045 H 179.348 -6.26142 -1.95657 0
M  V30 2046 H 179.265 -7.52081 -0.768783 0
M  V30 2047 H 180.533 -7.54516 -1.9577 0
M  V30 2048 N 184.763 -0.387143 -1.52771 0
M  V30 2049 C 185.696 0.493123 -2.22808 0
M  V30 2050 C 186.674 1.0658 -1.22798 0
M  V30 2051 O 187.858 1.11785 -1.51777 0
M  V30 2052 C 184.985 1.68238 -2.93962 0
M  V30 2053 C 184.031 1.23515 -4.08223 0
M  V30 2054 S 184.864 0.21848 -5.35054 0
M  V30 2055 C 186.02 1.41357 -6.09729 0
M  V30 2056 H 186.253 -0.101625 -2.97126 0
M  V30 2057 H 183.786 -0.171323 -1.53447 0
M  V30 2058 H 185.744 2.36443 -3.35567 0
M  V30 2059 H 184.405 2.24842 -2.19328 0
M  V30 2060 H 183.598 2.12304 -4.57103 0
M  V30 2061 H 183.2 0.632044 -3.68621 0
M  V30 2062 H 185.492 2.34101 -6.3577 0
M  V30 2063 H 186.435 0.965736 -7.01484 0
M  V30 2064 H 186.843 1.6294 -5.40473 0
M  V30 2065 N 186.241 1.57166 -0.116904 0
M  V30 2066 C 187.188 2.15202 0.83408 0
M  V30 2067 C 188.158 1.07644 1.26499 0
M  V30 2068 O 189.343 1.35541 1.34288 0
M  V30 2069 C 186.483 2.75405 2.07957 0
M  V30 2070 C 185.596 3.97264 1.69721 0
M  V30 2071 C 184.731 4.45561 2.89221 0
M  V30 2072 C 183.77 5.59956 2.47215 0
M  V30 2073 N 182.907 6.03006 3.59622 0
M  V30 2074 H 187.747 2.96141 0.332335 0
M  V30 2075 H 185.284 1.46309 0.152349 0
M  V30 2076 H 187.242 3.08439 2.80929 0
M  V30 2077 H 185.872 1.97159 2.55594 0
M  V30 2078 H 184.924 3.70404 0.866316 0
M  V30 2079 H 186.236 4.80226 1.34849 0
M  V30 2080 H 185.39 4.80493 3.7042 0
M  V30 2081 H 184.129 3.61544 3.27318 0
M  V30 2082 H 183.134 5.2463 1.64448 0
M  V30 2083 H 184.359 6.45738 2.10238 0
M  V30 2084 H 182.305 5.21931 3.97396 0
M  V30 2085 H 182.222 6.80819 3.28667 0
M  V30 2086 H 183.49 6.42576 4.41267 0
M  V30 2087 N 187.719 -0.156864 1.56817 0
M  V30 2088 C 188.967 -0.869404 1.82444 0
M  V30 2089 C 189.288 -1.82147 0.69623 0
M  V30 2090 O 188.558 -1.93847 -0.28287 0
M  V30 2091 H 187.138 -0.324043 0.673056 0
M  V30 2092 H 189.8 -0.153224 1.94297 0
M  V30 2093 H 188.896 -1.43761 2.77019 0
M  V30 2094 N 189.197 -1.51736 -0.425897 0
M  V30 2095 C 190.474 -1.55519 -1.1863 0
M  V30 2096 C 190.854 -0.326219 -2.08564 0
M  V30 2097 O 190.202 0.688012 -2.17896 0
M  V30 2098 C 190.412 -2.87521 -1.9782 0
M  V30 2099 C 191.76 -3.39899 -2.54468 0
M  V30 2100 O 192.784 -2.89148 -2.08019 0
M  V30 2101 O 191.643 -4.2848 -3.39215 0
M  V30 2102 H 188.737 -0.625739 -0.540721 0
M  V30 2103 H 191.283 -1.64055 -0.434038 0
M  V30 2104 H 190.055 -3.68422 -1.31836 0
M  V30 2105 H 189.678 -2.822 -2.80088 0
M  V30 2106 N 190.675 0.682077 -1.42076 0
M  V30 2107 C 191.905 1.46844 -1.45329 0
M  V30 2108 C 192.313 1.89102 -0.0609328 0
M  V30 2109 O 191.656 1.58238 0.933082 0
M  V30 2110 C 191.718 2.75375 -2.31104 0
M  V30 2111 C 191.382 2.55238 -3.79081 0
M  V30 2112 C 192.379 2.20309 -4.70914 0
M  V30 2113 C 190.064 2.70459 -4.2327 0
M  V30 2114 C 192.058 2.00859 -6.04925 0
M  V30 2115 C 189.745 2.50624 -5.57343 0
M  V30 2116 C 190.743 2.15876 -6.47986 0
M  V30 2117 O 190.431 1.96227 -7.79583 0
M  V30 2118 H 190.163 0.4586 -0.496651 0
M  V30 2119 H 192.717 0.846131 -1.87162 0
M  V30 2120 H 190.947 3.40061 -1.84107 0
M  V30 2121 H 192.636 3.37231 -2.25898 0
M  V30 2122 H 193.402 2.08153 -4.38061 0
M  V30 2123 H 189.281 2.96485 -3.53012 0
M  V30 2124 H 192.825 1.7366 -6.75639 0
M  V30 2125 H 188.722 2.62375 -5.89771 0
M  V30 2126 H 189.49 2.10883 -7.90867 0
M  V30 2127 N 192.153 1.28127 0.917671 0
M  V30 2128 C 193.383 1.17722 1.6978 0
M  V30 2129 C 193.791 -0.267261 1.87303 0
M  V30 2130 O 193.134 -1.19286 1.39702 0
M  V30 2131 C 193.196 1.79958 3.11216 0
M  V30 2132 C 192.86 3.29187 3.16993 0
M  V30 2133 C 193.857 4.25679 2.98485 0
M  V30 2134 C 191.542 3.70075 3.39632 0
M  V30 2135 C 193.536 5.61035 3.02521 0
M  V30 2136 C 191.223 5.05557 3.433 0
M  V30 2137 C 192.221 6.00847 3.24764 0
M  V30 2138 O 191.909 7.33859 3.28187 0
M  V30 2139 H 191.641 0.409788 0.537634 0
M  V30 2140 H 194.195 1.69694 1.15728 0
M  V30 2141 H 192.425 1.22475 3.66793 0
M  V30 2142 H 194.114 1.64125 3.71238 0
M  V30 2143 H 194.88 3.95426 2.80826 0
M  V30 2144 H 190.759 2.96373 3.53106 0
M  V30 2145 H 194.303 6.35388 2.87971 0
M  V30 2146 H 190.2 5.35462 3.60486 0
M  V30 2147 H 190.968 7.42436 3.44575 0
M  V30 2148 N 193.631 -1.12557 1.10312 0
M  V30 2149 C 195.047 -1.36036 0.834649 0
M  V30 2150 C 195.247 -1.93946 -0.546539 0
M  V30 2151 O 194.303 -2.16484 -1.29966 0
M  V30 2152 C 195.616 -2.30312 1.9333 0
M  V30 2153 C 197.164 -2.43906 1.9616 0
M  V30 2154 C 197.639 -3.41496 3.05195 0
M  V30 2155 N 199.13 -3.49053 3.04494 0
M  V30 2156 C 199.865 -4.24471 3.85502 0
M  V30 2157 N 199.361 -5.02966 4.76442 0
M  V30 2158 N 201.154 -4.19864 3.73725 0
M  V30 2159 H 193.305 -0.733246 1.99342 0
M  V30 2160 H 195.568 -0.385234 0.866198 0
M  V30 2161 H 195.274 -1.94933 2.92735 0
M  V30 2162 H 195.148 -3.30421 1.81939 0
M  V30 2163 H 197.535 -2.78567 0.973886 0
M  V30 2164 H 197.616 -1.4369 2.11629 0
M  V30 2165 H 197.26 -3.07565 4.04186 0
M  V30 2166 H 197.19 -4.41539 2.86968 0
M  V30 2167 H 199.681 -2.93053 2.38596 0
M  V30 2168 H 199.994 -5.57846 5.34815 0
M  V30 2169 H 198.339 -5.02167 4.80472 0
M  V30 2170 H 201.53 -3.57623 3.02032 0
M  V30 2171 H 201.703 -4.78386 4.37093 0
M  V30 2172 N 195.109 -0.891671 -1.2995 0
M  V30 2173 C 196.339 -0.527893 -1.99742 0
M  V30 2174 C 196.747 0.88979 -1.66971 0
M  V30 2175 O 196.09 1.59766 -0.906667 0
M  V30 2176 C 196.152 -0.630804 -3.53922 0
M  V30 2177 C 195.816 -2.01401 -4.10228 0
M  V30 2178 C 196.813 -2.98422 -4.25724 0
M  V30 2179 C 194.498 -2.32121 -4.45449 0
M  V30 2180 C 196.492 -4.24293 -4.75662 0
M  V30 2181 C 194.179 -3.58237 -4.95086 0
M  V30 2182 C 195.177 -4.54137 -5.10146 0
M  V30 2183 O 194.865 -5.78014 -5.58708 0
M  V30 2184 H 194.597 -0.201953 -0.645129 0
M  V30 2185 H 197.151 -1.20076 -1.66646 0
M  V30 2186 H 195.381 0.0990616 -3.86573 0
M  V30 2187 H 197.07 -0.277338 -4.04951 0
M  V30 2188 H 197.836 -2.76001 -3.98809 0
M  V30 2189 H 193.715 -1.5824 -4.32991 0
M  V30 2190 H 197.259 -4.99153 -4.87332 0
M  V30 2191 H 193.156 -3.80491 -5.21437 0
M  V30 2192 H 193.924 -5.8049 -5.77039 0
M  V30 2193 N 196.587 1.43421 -0.653314 0
M  V30 2194 C 197.517 2.33487 0.0246656 0
M  V30 2195 C 198.498 1.49475 0.811863 0
M  V30 2196 O 199.683 1.78139 0.773322 0
M  V30 2197 C 196.813 3.32841 0.99166 0
M  V30 2198 C 195.767 4.26842 0.314568 0
M  V30 2199 C 195.093 5.16236 1.39302 0
M  V30 2200 C 196.393 5.16243 -0.793095 0
M  V30 2201 H 198.087 2.90427 -0.727481 0
M  V30 2202 H 195.633 1.39649 -0.351287 0
M  V30 2203 H 197.586 3.94747 1.47487 0
M  V30 2204 H 196.31 2.74158 1.77497 0
M  V30 2205 H 194.969 3.663 -0.148199 0
M  V30 2206 H 194.617 4.53891 2.16776 0
M  V30 2207 H 194.317 5.79948 0.945223 0
M  V30 2208 H 195.841 5.81015 1.87759 0
M  V30 2209 H 197.255 5.71958 -0.392039 0
M  V30 2210 H 195.652 5.88676 -1.16536 0
M  V30 2211 H 196.722 4.55927 -1.65103 0
M  V30 2212 N 198.065 0.39524 1.52563 0
M  V30 2213 C 199.028 -0.425001 2.25225 0
M  V30 2214 C 200.028 -0.985266 1.27079 0
M  V30 2215 O 201.218 -0.866332 1.5113 0
M  V30 2216 C 198.35 -1.59686 3.01186 0
M  V30 2217 H 199.543 0.211233 2.99155 0
M  V30 2218 H 197.096 0.147472 1.55603 0
M  V30 2219 H 197.831 -2.27035 2.31572 0
M  V30 2220 H 197.616 -1.20176 3.73229 0
M  V30 2221 H 199.106 -2.17743 3.5634 0
M  V30 2222 N 199.544 -1.57102 0.125237 0
M  V30 2223 C 200.454 -2.19191 -0.8362 0
M  V30 2224 C 201.47 -1.16985 -1.28805 0
M  V30 2225 O 202.646 -1.49479 -1.34974 0
M  V30 2226 C 199.711 -2.78407 -2.06617 0
M  V30 2227 C 198.772 -3.9567 -1.66565 0
M  V30 2228 C 198.005 -4.52052 -2.83698 0
M  V30 2229 O 198.228 -4.07326 -3.99302 0
M  V30 2230 O 197.162 -5.42645 -2.60423 0
M  V30 2231 H 200.988 -3.01816 -0.337776 0
M  V30 2232 H 198.573 -1.4906 -0.100695 0
M  V30 2233 H 200.455 -3.16129 -2.7864 0
M  V30 2234 H 199.13 -1.9881 -2.55453 0
M  V30 2235 H 198.037 -3.62705 -0.916296 0
M  V30 2236 H 199.37 -4.76722 -1.22464 0
M  V30 2237 N 201.022 0.148545 -1.56898 0
M  V30 2238 C 202.268 0.862694 -1.83536 0
M  V30 2239 C 202.601 1.80889 -0.706604 0
M  V30 2240 O 201.876 1.92328 0.289885 0
M  V30 2241 C 202.159 1.63853 -3.20662 0
M  V30 2242 C 202.012 0.713925 -4.44098 0
M  V30 2243 C 203.331 2.60133 -3.54991 0
M  V30 2244 H 200.45 0.312179 -0.667618 0
M  V30 2245 H 203.092 0.127953 -1.89569 0
M  V30 2246 H 201.242 2.26489 -3.1565 0
M  V30 2247 H 202.914 0.098686 -4.61194 0
M  V30 2248 H 201.157 0.0234019 -4.33794 0
M  V30 2249 H 201.828 1.29278 -5.36648 0
M  V30 2250 H 204.304 2.07616 -3.60603 0
M  V30 2251 H 203.18 3.11468 -4.51972 0
M  V30 2252 H 203.441 3.41417 -2.80868 0
M  V30 2253 N 202.5 1.5196 0.417844 0
M  V30 2254 C 203.463 1.74065 1.49111 0
M  V30 2255 C 204.463 0.610537 1.48758 0
M  V30 2256 O 205.653 0.87832 1.50437 0
M  V30 2257 C 202.785 1.81502 2.88565 0
M  V30 2258 H 203.978 2.69869 1.30807 0
M  V30 2259 H 201.531 1.42244 0.647785 0
M  V30 2260 H 202.266 0.875813 3.1225 0
M  V30 2261 H 202.051 2.63651 2.90225 0
M  V30 2262 H 203.541 2.00376 3.66387 0
M  V30 2263 N 203.978 -0.674533 1.42435 0
M  V30 2264 C 205.203 -1.46784 1.46524 0
M  V30 2265 C 205.628 -1.87938 0.078066 0
M  V30 2266 O 204.986 -1.56014 -0.92354 0
M  V30 2267 C 205.034 -2.69307 2.39805 0
M  V30 2268 O 204.138 -3.67587 1.86959 0
M  V30 2269 H 203.479 -0.440959 0.496439 0
M  V30 2270 H 206.009 -0.827326 1.87127 0
M  V30 2271 H 206.019 -3.17374 2.56393 0
M  V30 2272 H 204.694 -2.38692 3.40586 0
M  V30 2273 H 203.271 -3.2662 1.79927 0
M  V30 2274 N 205.456 -1.28612 -0.910864 0
M  V30 2275 C 206.704 -1.15705 -1.65701 0
M  V30 2276 C 207.025 0.29416 -1.92769 0
M  V30 2277 O 206.295 1.20331 -1.54588 0
M  V30 2278 H 204.875 -0.425216 -0.614167 0
M  V30 2279 H 207.537 -1.61381 -1.0928 0
M  V30 2280 H 206.633 -1.6988 -2.61815 0
M  V30 2281 N 206.934 1.1197 -1.10907 0
M  V30 2282 C 207.844 2.21433 -0.774896 0
M  V30 2283 C 208.86 1.72478 0.229657 0
M  V30 2284 O 210.036 2.01288 0.0672008 0
M  V30 2285 C 207.101 3.4602 -0.216986 0
M  V30 2286 C 206.162 4.09791 -1.27944 0
M  V30 2287 C 205.395 5.28431 -0.748055 0
M  V30 2288 O 205.618 5.68823 0.423833 0
M  V30 2289 O 204.552 5.82644 -1.51027 0
M  V30 2290 H 208.378 2.5242 -1.68873 0
M  V30 2291 H 205.963 1.20399 -0.884555 0
M  V30 2292 H 207.845 4.21304 0.090059 0
M  V30 2293 H 206.52 3.16698 0.669633 0
M  V30 2294 H 205.427 3.36265 -1.63941 0
M  V30 2295 H 206.76 4.4328 -2.13925 0
M  V30 2296 N 208.412 0.89855 1.29475 0
M  V30 2297 C 209.359 0.373819 2.27753 0
M  V30 2298 C 210.329 -0.543444 1.56958 0
M  V30 2299 O 211.514 -0.468934 1.84948 0
M  V30 2300 C 208.654 -0.393648 3.42848 0
M  V30 2301 C 207.767 0.554379 4.28428 0
M  V30 2302 C 206.902 -0.230026 5.30702 0
M  V30 2303 C 205.941 0.712599 6.07938 0
M  V30 2304 N 205.078 -0.0373283 7.0209 0
M  V30 2305 H 209.918 1.21699 2.72017 0
M  V30 2306 H 207.455 0.611456 1.33789 0
M  V30 2307 H 209.413 -0.85466 4.08352 0
M  V30 2308 H 208.043 -1.20128 2.99615 0
M  V30 2309 H 207.095 1.13391 3.63107 0
M  V30 2310 H 208.407 1.27597 4.82204 0
M  V30 2311 H 207.561 -0.752288 6.02018 0
M  V30 2312 H 206.3 -0.984758 4.77654 0
M  V30 2313 H 205.305 1.24637 5.35486 0
M  V30 2314 H 206.53 1.46664 6.63074 0
M  V30 2315 H 204.476 -0.774348 6.51414 0
M  V30 2316 H 204.393 0.624374 7.53417 0
M  V30 2317 H 205.661 -0.539891 7.77628 0
M  V30 2318 N 209.89 -1.43072 0.660911 0
M  V30 2319 C 210.837 -2.30785 -0.0259884 0
M  V30 2320 C 211.807 -1.45184 -0.806888 0
M  V30 2321 O 212.992 -1.74041 -0.781943 0
M  V30 2322 C 210.132 -3.30861 -0.981067 0
M  V30 2323 C 209.245 -4.31558 -0.195458 0
M  V30 2324 C 208.38 -5.18712 -1.14503 0
M  V30 2325 C 207.419 -6.11097 -0.350299 0
M  V30 2326 N 206.556 -6.90849 -1.25186 0
M  V30 2327 H 211.396 -2.88975 0.727846 0
M  V30 2328 H 208.933 -1.42353 0.370682 0
M  V30 2329 H 210.891 -3.87399 -1.54849 0
M  V30 2330 H 209.521 -2.74304 -1.70169 0
M  V30 2331 H 208.573 -3.77252 0.488374 0
M  V30 2332 H 209.885 -4.9701 0.422176 0
M  V30 2333 H 209.039 -5.79914 -1.78284 0
M  V30 2334 H 207.778 -4.53404 -1.79656 0
M  V30 2335 H 206.783 -5.48976 0.300808 0
M  V30 2336 H 208.008 -6.7845 0.296941 0
M  V30 2337 H 205.954 -6.28182 -1.89005 0
M  V30 2338 H 205.871 -7.52854 -0.688971 0
M  V30 2339 H 207.139 -7.5655 -1.87757 0
M  V30 2340 N 211.368 -0.403325 -1.52352 0
M  V30 2341 C 212.316 0.439752 -2.28405 0
M  V30 2342 C 213.31 1.05089 -1.32863 0
M  V30 2343 O 214.516 0.989759 -1.50345 0
M  V30 2344 H 210.891 0.160587 -0.734653 0
M  V30 2345 H 212.862 -0.222983 -2.97566 0
M  V30 2346 C 211.611 1.54736 -3.11371 0
M  V30 2347 H 210.934 1.08643 -3.84755 0
M  V30 2348 H 212.374 2.1112 -3.67701 0
M  V30 2349 C 210.833 2.51141 -2.24566 0
M  V30 2350 O 211.363 3.54887 -1.88196 0
M  V30 2351 N 209.569 2.21213 -1.8845 0
M  V30 2352 H 209.116 1.36878 -2.18225 0
M  V30 2353 H 209.074 2.85963 -1.30662 0
M  V30 2354 N 212.846 1.57033 -0.133567 0
M  V30 2355 C 214.071 2.00475 0.531477 0
M  V30 2356 C 214.496 1.01291 1.58499 0
M  V30 2357 O 213.854 -0.0133279 1.81295 0
M  V30 2358 C 213.902 3.42729 1.12113 0
M  V30 2359 O 213.006 3.46498 2.23636 0
M  V30 2360 H 212.347 0.650876 0.131362 0
M  V30 2361 H 214.877 2.03344 -0.22634 0
M  V30 2362 H 214.887 3.81246 1.4531 0
M  V30 2363 H 213.562 4.14428 0.349557 0
M  V30 2364 H 212.139 3.19811 1.91769 0
M  V30 2365 N 214.325 -0.140222 1.56975 0
M  V30 2366 C 215.571 -0.852949 1.83991 0
M  V30 2367 C 215.904 -1.80512 0.716187 0
M  V30 2368 O 215.179 -1.92479 -0.279681 0
M  V30 2369 C 215.462 -1.6215 3.21527 0
M  V30 2370 C 215.315 -0.690363 4.4447 0
M  V30 2371 C 216.634 -2.58247 3.56366 0
M  V30 2372 H 213.753 -0.308634 0.669264 0
M  V30 2373 H 216.395 -0.117898 1.89634 0
M  V30 2374 H 214.545 -2.24812 3.16847 0
M  V30 2375 H 216.217 -0.0742264 4.6124 0
M  V30 2376 H 214.46 -0.000396433 4.338 0
M  V30 2377 H 215.131 -1.2643 5.37326 0
M  V30 2378 H 217.607 -2.05701 3.61699 0
M  V30 2379 H 216.483 -3.09067 4.53617 0
M  V30 2380 H 216.744 -3.39923 2.82674 0
M  V30 2381 N 215.803 -1.52179 -0.40978 0
M  V30 2382 C 217.049 -1.66453 -1.15851 0
M  V30 2383 C 217.382 -0.392972 -1.90182 0
M  V30 2384 O 216.657 0.608579 -1.84734 0
M  V30 2385 C 216.94 -2.88612 -2.15349 0
M  V30 2386 C 216.793 -4.25815 -1.44918 0
M  V30 2387 C 218.112 -3.06294 -3.16026 0
M  V30 2388 H 215.231 -0.60575 -0.419805 0
M  V30 2389 H 217.873 -1.84732 -0.444314 0
M  V30 2390 H 216.023 -2.73158 -2.76255 0
M  V30 2391 H 217.695 -4.52995 -0.871365 0
M  V30 2392 H 215.938 -4.27247 -0.751159 0
M  V30 2393 H 216.609 -5.07337 -2.17516 0
M  V30 2394 H 219.085 -3.20641 -2.65195 0
M  V30 2395 H 217.961 -3.93283 -3.8291 0
M  V30 2396 H 218.222 -2.19579 -3.83715 0
M  V30 2397 N 217.281 0.66697 -1.42791 0
M  V30 2398 C 218.191 1.80962 -1.49299 0
M  V30 2399 C 219.207 1.69775 -0.381108 0
M  V30 2400 O 220.383 1.91188 -0.633188 0
M  V30 2401 C 217.448 3.17156 -1.40045 0
M  V30 2402 C 216.509 3.40242 -2.6179 0
M  V30 2403 C 215.742 4.69939 -2.52969 0
M  V30 2404 O 215.965 5.48372 -1.56985 0
M  V30 2405 O 214.899 4.94441 -3.43237 0
M  V30 2406 H 218.725 1.78427 -2.45759 0
M  V30 2407 H 216.31 0.823713 -1.24641 0
M  V30 2408 H 218.192 3.98413 -1.37276 0
M  V30 2409 H 216.867 3.20312 -0.467138 0
M  V30 2410 H 215.774 2.58802 -2.70134 0
M  V30 2411 H 217.107 3.41923 -3.54047 0
M  V30 2412 N 218.759 1.29093 0.90403 0
M  V30 2413 C 219.722 1.1386 1.98919 0
M  V30 2414 C 220.722 0.0753457 1.60623 0
M  V30 2415 O 221.912 0.321931 1.71199 0
M  V30 2416 C 219.044 0.740198 3.32767 0
M  V30 2417 H 220.237 2.10246 2.13861 0
M  V30 2418 H 217.79 1.12218 1.08797 0
M  V30 2419 H 218.525 -0.223997 3.23525 0
M  V30 2420 H 218.31 1.50838 3.61926 0
M  V30 2421 H 219.8 0.656546 4.12407 0
M  V30 2422 N 220.237 -1.11381 1.11499 0
M  V30 2423 C 221.462 -1.87475 0.887019 0
M  V30 2424 C 221.887 -1.79639 -0.557796 0
M  V30 2425 O 221.245 -1.15924 -1.39396 0
M  V30 2426 C 221.293 -3.34213 1.35403 0
M  V30 2427 O 220.397 -4.0903 0.526146 0
M  V30 2428 H 219.738 -0.582099 0.319463 0
M  V30 2429 H 222.268 -1.40785 1.48461 0
M  V30 2430 H 222.278 -3.8506 1.34881 0
M  V30 2431 H 220.953 -3.39232 2.40612 0
M  V30 2432 H 219.53 -3.68082 0.597522 0
M  V30 2433 N 221.715 -0.905404 -1.28997 0
M  V30 2434 C 222.625 -0.392246 -2.31298 0
M  V30 2435 C 223.641 0.515889 -1.66176 0
M  V30 2436 O 224.817 0.404093 -1.97304 0
M  V30 2437 C 221.882 0.36686 -3.44754 0
M  V30 2438 C 220.943 -0.573485 -4.25452 0
M  V30 2439 C 220.176 0.149488 -5.33491 0
M  V30 2440 O 220.399 1.37255 -5.5364 0
M  V30 2441 O 219.333 -0.510919 -5.99728 0
M  V30 2442 H 223.159 -1.2411 -2.77183 0
M  V30 2443 H 220.744 -0.669926 -1.33538 0
M  V30 2444 H 222.626 0.795907 -4.13816 0
M  V30 2445 H 221.301 1.19169 -3.00966 0
M  V30 2446 H 220.208 -1.05176 -3.59011 0
M  V30 2447 H 221.541 -1.36489 -4.72897 0
M  V30 2448 N 223.193 1.4272 -0.668489 0
M  V30 2449 C 224.156 2.292 0.00448567 0
M  V30 2450 C 225.156 1.43001 0.735339 0
M  V30 2451 O 226.346 1.64461 0.57429 0
M  V30 2452 C 223.478 3.25375 1.01705 0
M  V30 2453 H 224.671 2.90199 -0.756608 0
M  V30 2454 H 222.224 1.50254 -0.430506 0
M  V30 2455 H 222.959 2.69301 1.80686 0
M  V30 2456 H 222.744 3.88944 0.496463 0
M  V30 2457 H 224.234 3.90245 1.48655 0
M  V30 2458 N 224.671 0.411399 1.52136 0
M  V30 2459 C 225.634 -0.401089 2.25663 0
M  V30 2460 C 226.634 -0.971732 1.28117 0
M  V30 2461 O 227.824 -0.850254 1.52041 0
M  V30 2462 C 224.956 -1.56483 3.02863 0
M  V30 2463 H 226.149 0.24295 2.98914 0
M  V30 2464 H 223.702 0.163968 1.55438 0
M  V30 2465 H 224.437 -2.24567 2.33967 0
M  V30 2466 H 224.222 -1.16211 3.74483 0
M  V30 2467 H 225.712 -2.13951 3.58629 0
M  V30 2468 N 226.149 -1.5696 0.141893 0
M  V30 2469 C 227.379 -2.00031 -0.516828 0
M  V30 2470 C 227.787 -1.02091 -1.59293 0
M  V30 2471 O 227.13 -0.00909657 -1.83698 0
M  V30 2472 C 227.192 -3.39534 -1.1814 0
M  V30 2473 C 226.856 -4.56313 -0.250513 0
M  V30 2474 C 227.853 -5.17295 0.519839 0
M  V30 2475 C 225.538 -5.02061 -0.154907 0
M  V30 2476 C 227.532 -6.2243 1.3733 0
M  V30 2477 C 225.219 -6.07053 0.702161 0
M  V30 2478 C 226.217 -6.67106 1.46487 0
M  V30 2479 O 225.905 -7.70066 2.30767 0
M  V30 2480 H 225.637 -0.661451 -0.139493 0
M  V30 2481 H 228.191 -2.04086 0.231926 0
M  V30 2482 H 226.421 -3.32302 -1.97769 0
M  V30 2483 H 228.11 -3.66745 -1.73933 0
M  V30 2484 H 228.876 -4.82852 0.45598 0
M  V30 2485 H 224.755 -4.5505 -0.7383 0
M  V30 2486 H 228.299 -6.69233 1.96909 0
M  V30 2487 H 224.196 -6.40923 0.76733 0
M  V30 2488 H 224.964 -7.87264 2.23959 0
M  V30 2489 N 227.627 0.131896 -1.57047 0
M  V30 2490 C 228.574 1.16236 -1.99393 0
M  V30 2491 C 229.544 1.41863 -0.863943 0
M  V30 2492 O 230.729 1.53946 -1.12718 0
M  V30 2493 C 227.869 2.48708 -2.39245 0
M  V30 2494 C 226.982 2.30127 -3.65603 0
M  V30 2495 C 226.117 3.55738 -3.94492 0
M  V30 2496 C 225.156 3.32259 -5.14073 0
M  V30 2497 N 224.293 4.50039 -5.38896 0
M  V30 2498 H 229.133 0.794251 -2.87221 0
M  V30 2499 H 226.67 0.380707 -1.42088 0
M  V30 2500 H 228.628 3.25969 -2.60384 0
M  V30 2501 H 227.258 2.83437 -1.54478 0
M  V30 2502 H 226.31 1.43845 -3.52154 0
M  V30 2503 H 227.622 2.08746 -4.5302 0
M  V30 2504 H 226.776 4.41423 -4.1621 0
M  V30 2505 H 225.515 3.80138 -3.05526 0
M  V30 2506 H 224.52 2.44963 -4.92212 0
M  V30 2507 H 225.745 3.09242 -6.04604 0
M  V30 2508 H 223.691 4.74584 -4.52886 0
M  V30 2509 H 223.608 4.31716 -6.2061 0
M  V30 2510 H 224.876 5.36895 -5.65123 0
M  V30 2511 N 229.106 1.52395 0.401703 0
M  V30 2512 C 230.016 1.7917 1.51444 0
M  V30 2513 C 231.032 0.677691 1.6026 0
M  V30 2514 O 232.208 0.963909 1.76835 0
M  V30 2515 C 229.273 1.94347 2.87107 0
M  V30 2516 C 228.334 3.18257 2.88116 0
M  V30 2517 C 227.567 3.32701 4.17308 0
M  V30 2518 O 227.79 2.52238 5.11598 0
M  V30 2519 O 226.724 4.25891 4.25324 0
M  V30 2520 H 230.55 2.73633 1.31752 0
M  V30 2521 H 228.135 1.3733 0.588296 0
M  V30 2522 H 230.017 2.06109 3.67555 0
M  V30 2523 H 228.692 1.03073 3.06851 0
M  V30 2524 H 227.599 3.11947 2.06494 0
M  V30 2525 H 228.932 4.09336 2.73322 0
M  V30 2526 N 230.584 -0.659388 1.43143 0
M  V30 2527 C 231.547 -1.75432 1.47501 0
M  V30 2528 C 232.547 -1.56707 0.360512 0
M  V30 2529 O 233.737 -1.62717 0.622002 0
M  V30 2530 C 230.869 -3.14239 1.32162 0
M  V30 2531 H 232.062 -1.7295 2.45006 0
M  V30 2532 H 229.615 -0.870469 1.29817 0
M  V30 2533 H 230.35 -3.22336 0.356401 0
M  V30 2534 H 230.135 -3.29235 2.12948 0
M  V30 2535 H 231.625 -3.94094 1.3813 0
M  V30 2536 N 232.062 -1.29571 -0.897171 0
M  V30 2537 C 233.309 -1.17689 -1.6479 0
M  V30 2538 C 233.637 0.27107 -1.92602 0
M  V30 2539 O 232.892 1.21193 -1.53658 0
M  V30 2540 C 233.191 -1.9382 -3.00281 0
M  V30 2541 C 232.857 -3.43522 -2.92068 0
M  V30 2542 C 231.519 -3.84348 -2.89535 0
M  V30 2543 C 233.871 -4.38906 -2.81089 0
M  V30 2544 C 231.199 -5.18869 -2.73846 0
M  V30 2545 C 233.551 -5.73521 -2.66939 0
M  V30 2546 C 232.215 -6.13601 -2.62774 0
M  V30 2547 H 231.485 -0.430654 -0.603008 0
M  V30 2548 H 234.132 -1.60536 -1.04404 0
M  V30 2549 H 232.437 -1.4357 -3.64547 0
M  V30 2550 H 234.134 -1.82028 -3.57305 0
M  V30 2551 H 230.724 -3.11072 -2.94842 0
M  V30 2552 H 234.908 -4.08315 -2.82121 0
M  V30 2553 H 230.164 -5.4903 -2.69027 0
M  V30 2554 H 234.338 -6.47078 -2.57416 0
M  V30 2555 H 231.965 -7.17786 -2.50375 0
M  V30 2556 N 233.54 1.10788 -1.12088 0
M  V30 2557 C 234.45 2.20599 -0.798338 0
M  V30 2558 C 235.466 1.72712 0.21135 0
M  V30 2559 O 236.642 2.01348 0.0458477 0
M  V30 2560 C 233.707 3.45771 -0.253674 0
M  V30 2561 C 232.768 4.08411 -1.32283 0
M  V30 2562 C 232.001 5.27608 -0.80406 0
M  V30 2563 O 232.224 5.69241 0.363478 0
M  V30 2564 O 231.158 5.8101 -1.57198 0
M  V30 2565 H 234.984 2.50614 -1.7154 0
M  V30 2566 H 232.569 1.19454 -0.897275 0
M  V30 2567 H 234.451 4.21376 0.0453691 0
M  V30 2568 H 233.126 3.1739 0.636005 0
M  V30 2569 H 232.033 3.34507 -1.67499 0
M  V30 2570 H 233.366 4.40986 -2.18614 0
M  V30 2571 N 235.018 0.912232 1.28515 0
M  V30 2572 C 236.267 0.540504 1.94323 0
M  V30 2573 C 236.58 -0.920044 1.72611 0
M  V30 2574 O 237.786 -1.39986 2.32629 0
M  V30 2575 C 236.242 0.915803 3.48053 0
M  V30 2576 C 235.85 2.39598 3.78546 0
M  V30 2577 C 237.594 0.614588 4.20027 0
M  V30 2578 C 235.501 2.71148 5.25578 0
M  V30 2579 H 234.431 0.198418 0.727424 0
M  V30 2580 H 237.082 1.11094 1.46049 0
M  V30 2581 H 235.464 0.274168 3.9505 0
M  V30 2582 H 236.638 3.08422 3.42364 0
M  V30 2583 H 234.953 2.66749 3.1974 0
M  V30 2584 H 237.55 0.827002 5.28266 0
M  V30 2585 H 237.893 -0.447531 4.13887 0
M  V30 2586 H 238.426 1.21462 3.78803 0
M  V30 2587 H 235.165 3.76207 5.36794 0
M  V30 2588 H 234.685 2.0696 5.62963 0
M  V30 2589 H 236.364 2.58072 5.93302 0
M  V30 2590 N 236.496 -1.42363 0.676048 0
M  V30 2591 C 237.721 -2.06377 0.205705 0
M  V30 2592 C 238.146 -1.50463 -1.12883 0
M  V30 2593 O 237.504 -0.623619 -1.70237 0
M  V30 2594 C 237.552 -3.60277 0.152655 0
M  V30 2595 O 236.656 -4.02935 -0.87845 0
M  V30 2596 H 235.997 -0.655588 0.105359 0
M  V30 2597 H 238.527 -1.82475 0.925412 0
M  V30 2598 H 238.537 -4.07993 -0.0230675 0
M  V30 2599 H 237.212 -4.00346 1.12675 0
M  V30 2600 H 235.789 -3.66764 -0.673668 0
M  V30 2601 N 237.974 -0.419461 -1.51915 0
M  V30 2602 C 238.921 0.400927 -2.27291 0
M  V30 2603 C 239.891 1.03224 -1.30131 0
M  V30 2604 O 241.076 1.05455 -1.59009 0
M  V30 2605 C 238.216 1.50603 -3.10504 0
M  V30 2606 C 237.329 0.89462 -4.22635 0
M  V30 2607 C 236.464 1.97328 -4.93189 0
M  V30 2608 C 235.503 1.33935 -5.97267 0
M  V30 2609 N 234.64 2.3586 -6.61298 0
M  V30 2610 H 239.48 -0.248251 -2.96964 0
M  V30 2611 H 237.017 -0.134266 -1.46486 0
M  V30 2612 H 238.975 2.15783 -3.57062 0
M  V30 2613 H 237.605 2.12509 -2.42981 0
M  V30 2614 H 236.657 0.131583 -3.80172 0
M  V30 2615 H 237.969 0.391641 -4.9726 0
M  V30 2616 H 237.123 2.70211 -5.43204 0
M  V30 2617 H 235.862 2.50994 -4.18155 0
M  V30 2618 H 234.867 0.595896 -5.46561 0
M  V30 2619 H 236.092 0.810252 -6.74249 0
M  V30 2620 H 234.038 2.88639 -5.89087 0
M  V30 2621 H 233.955 1.90403 -7.3163 0
M  V30 2622 H 235.223 3.08282 -7.15949 0
M  V30 2623 N 239.452 1.56882 -0.150215 0
M  V30 2624 C 240.362 2.20494 0.801222 0
M  V30 2625 C 241.378 1.19019 1.26927 0
M  V30 2626 O 242.554 1.51607 1.32579 0
M  V30 2627 C 239.619 2.81659 2.02161 0
M  V30 2628 C 238.68 3.9827 1.60249 0
M  V30 2629 C 237.913 4.56508 2.7647 0
M  V30 2630 O 238.136 4.13627 3.92771 0
M  V30 2631 O 237.07 5.46719 2.51757 0
M  V30 2632 H 240.896 3.02315 0.289717 0
M  V30 2633 H 238.481 1.49202 0.0769684 0
M  V30 2634 H 240.363 3.20522 2.73576 0
M  V30 2635 H 239.038 2.02849 2.52258 0
M  V30 2636 H 237.945 3.64117 0.858477 0
M  V30 2637 H 239.278 4.78609 1.14864 0
M  V30 2638 N 240.93 -0.123565 1.57115 0
M  V30 2639 C 241.862 -1.17739 1.96648 0
M  V30 2640 C 242.875 -1.37906 0.865201 0
M  V30 2641 O 244.064 -1.37062 1.14351 0
M  V30 2642 C 241.164 -2.53821 2.24562 0
M  V30 2643 C 240.337 -2.54317 3.55867 0
M  V30 2644 C 239.396 -3.72112 3.72047 0
M  V30 2645 O 238.422 -3.55907 4.44206 0
M  V30 2646 N 239.624 -4.90498 3.10471 0
M  V30 2647 H 242.389 -0.841147 2.87654 0
M  V30 2648 H 239.95 -0.31289 1.58848 0
M  V30 2649 H 241.942 -3.31175 2.32606 0
M  V30 2650 H 240.512 -2.79645 1.39705 0
M  V30 2651 H 239.732 -1.62711 3.59053 0
M  V30 2652 H 241.02 -2.51701 4.42181 0
M  V30 2653 H 240.418 -5.06567 2.51806 0
M  V30 2654 H 238.975 -5.65544 3.24043 0
M  V30 2655 N 242.408 -1.52605 -0.393616 0
M  V30 2656 C 243.341 -1.71798 -1.50202 0
M  V30 2657 C 244.319 -0.565743 -1.52441 0
M  V30 2658 O 245.503 -0.794987 -1.70916 0
M  V30 2659 C 242.63 -1.7714 -2.88685 0
M  V30 2660 C 241.676 -2.98845 -3.04292 0
M  V30 2661 S 242.509 -4.58909 -2.75976 0
M  V30 2662 C 243.665 -4.6706 -4.1666 0
M  V30 2663 H 243.898 -2.65542 -1.33696 0
M  V30 2664 H 241.431 -1.42839 -0.586195 0
M  V30 2665 H 243.389 -1.80903 -3.68489 0
M  V30 2666 H 242.05 -0.844969 -3.02521 0
M  V30 2667 H 241.243 -2.99111 -4.05646 0
M  V30 2668 H 240.845 -2.9305 -2.32374 0
M  V30 2669 H 243.137 -4.45391 -5.10523 0
M  V30 2670 H 244.08 -5.6905 -4.21412 0
M  V30 2671 H 244.488 -3.95944 -4.02354 0
M  V30 2672 N 243.887 0.651787 -1.4349 0
M  V30 2673 C 244.819 1.77725 -1.44729 0
M  V30 2674 C 245.832 1.59141 -0.343231 0
M  V30 2675 O 247.021 1.67835 -0.607751 0
M  V30 2676 C 244.121 3.15172 -1.24579 0
M  V30 2677 C 243.294 3.60402 -2.47849 0
M  V30 2678 C 242.353 4.76656 -2.22902 0
M  V30 2679 O 241.379 4.86022 -2.96263 0
M  V30 2680 N 242.581 5.66958 -1.24656 0
M  V30 2681 H 245.346 1.77141 -2.41746 0
M  V30 2682 H 242.907 0.835678 -1.38665 0
M  V30 2683 H 244.899 3.90634 -1.0577 0
M  V30 2684 H 243.469 3.1052 -0.360015 0
M  V30 2685 H 242.689 2.75369 -2.82073 0
M  V30 2686 H 243.977 3.87368 -3.29884 0
M  V30 2687 H 243.375 5.62065 -0.640265 0
M  V30 2688 H 241.932 6.42135 -1.1183 0
M  V30 2689 N 245.365 1.30045 0.890287 0
M  V30 2690 C 246.776 1.16738 1.45702 0
M  V30 2691 C 247.127 -0.233939 1.948 0
M  V30 2692 O 246.252 -1.13021 1.84541 0
M  V30 2693 C 246.847 2.11313 2.64825 0
M  V30 2694 C 245.406 2.02001 3.17604 0
M  V30 2695 C 244.553 2.01699 1.90296 0
M  V30 2696 H 247.504 1.42392 0.700726 0
M  V30 2697 H 247.525 1.69086 3.40867 0
M  V30 2698 H 247.037 3.13294 2.2906 0
M  V30 2699 H 245.138 1.03142 3.5804 0
M  V30 2700 H 245.251 2.90128 3.81264 0
M  V30 2701 H 243.615 1.46427 2.08402 0
M  V30 2702 H 244.398 3.05402 1.56795 0
M  V30 2703 N 246.843 -1.10192 1.12674 0
M  V30 2704 C 248.071 -1.85983 0.906527 0
M  V30 2705 C 248.486 -1.80783 -0.544333 0
M  V30 2706 O 247.843 -1.19834 -1.37645 0
M  V30 2707 C 247.894 -3.34281 1.37618 0
M  V30 2708 O 247.615 -3.39401 2.77017 0
M  V30 2709 C 249.116 -4.26938 1.19325 0
M  V30 2710 H 246.336 -0.587716 0.323775 0
M  V30 2711 H 248.88 -1.39284 1.49734 0
M  V30 2712 H 247.035 -3.78436 0.828539 0
M  V30 2713 H 247.449 -4.31838 2.97684 0
M  V30 2714 H 248.923 -5.29181 1.57071 0
M  V30 2715 H 249.4 -4.38995 0.134097 0
M  V30 2716 H 250.006 -3.8859 1.72852 0
M  V30 2717 N 248.321 -0.919034 -1.28029 0
M  V30 2718 C 249.271 -0.382574 -2.24767 0
M  V30 2719 C 250.255 0.508286 -1.52661 0
M  V30 2720 O 251.447 0.347145 -1.73562 0
M  V30 2721 C 248.576 0.371432 -3.41285 0
M  V30 2722 C 247.662 -0.535449 -4.20706 0
M  V30 2723 N 248.053 -1.65141 -4.78082 0
M  V30 2724 C 246.351 -0.336824 -4.44726 0
M  V30 2725 C 247.052 -2.21475 -5.37888 0
M  V30 2726 N 246.028 -1.50537 -5.22341 0
M  V30 2727 H 249.83 -1.23477 -2.66703 0
M  V30 2728 H 247.344 -0.772299 -1.42861 0
M  V30 2729 H 249.341 0.772638 -4.09678 0
M  V30 2730 H 248.001 1.22066 -3.00882 0
M  V30 2731 H 249.012 -2.03392 -4.7629 0
M  V30 2732 H 245.689 0.47246 -4.14818 0
M  V30 2733 H 247.079 -3.15379 -5.93284 0
M  V30 2734 N 249.799 1.42003 -0.683588 0
M  V30 2735 C 251.21 1.84501 -0.285736 0
M  V30 2736 C 251.561 1.57213 1.17382 0
M  V30 2737 O 250.686 1.03642 1.89966 0
M  V30 2738 C 251.281 3.34912 -0.511821 0
M  V30 2739 C 249.84 3.76025 -0.168005 0
M  V30 2740 C 248.987 2.6551 -0.799983 0
M  V30 2741 H 251.938 1.31724 -0.885119 0
M  V30 2742 H 251.959 3.79784 0.233292 0
M  V30 2743 H 251.471 3.54741 -1.57418 0
M  V30 2744 H 249.572 3.61801 0.890567 0
M  V30 2745 H 249.685 4.75141 -0.614661 0
M  V30 2746 H 248.049 2.53654 -0.230568 0
M  V30 2747 H 248.832 2.8816 -1.86597 0
M  V30 2748 N 251.277 0.427512 1.51691 0
M  V30 2749 C 252.526 -0.143679 2.01188 0
M  V30 2750 C 252.839 -1.44642 1.31674 0
M  V30 2751 O 254.045 -2.09997 1.72086 0
M  V30 2752 C 252.501 -0.306602 3.58592 0
M  V30 2753 C 252.109 0.985125 4.37035 0
M  V30 2754 C 253.853 -0.832091 4.16265 0
M  V30 2755 C 251.76 0.788382 5.86122 0
M  V30 2756 H 250.69 -0.0574701 0.751807 0
M  V30 2757 H 253.341 0.555772 1.74881 0
M  V30 2758 H 251.723 -1.06882 3.81303 0
M  V30 2759 H 252.897 1.75492 4.26074 0
M  V30 2760 H 251.212 1.4384 3.90767 0
M  V30 2761 H 253.809 -0.995617 5.25349 0
M  V30 2762 H 254.152 -1.81186 3.74803 0
M  V30 2763 H 254.685 -0.128444 3.97593 0
M  V30 2764 H 251.424 1.74025 6.31978 0
M  V30 2765 H 250.944 0.0582143 5.99772 0
M  V30 2766 H 252.623 0.437722 6.45518 0
M  V30 2767 N 252.755 -1.56801 0.158532 0
M  V30 2768 C 254.171 -1.5837 -0.197774 0
M  V30 2769 C 254.371 -1.17334 -1.63814 0
M  V30 2770 O 253.427 -0.878988 -2.36707 0
M  V30 2771 C 254.74 -3.00615 0.0714459 0
M  V30 2772 C 256.288 -3.12999 0.00864533 0
M  V30 2773 C 256.763 -4.57313 0.250685 0
M  V30 2774 N 258.254 -4.62777 0.198014 0
M  V30 2775 C 258.989 -5.72271 0.359642 0
M  V30 2776 N 258.485 -6.90371 0.579625 0
M  V30 2777 N 260.278 -5.61318 0.296438 0
M  V30 2778 H 252.429 -1.81765 1.09887 0
M  V30 2779 H 254.692 -0.841849 0.435884 0
M  V30 2780 H 254.398 -3.35068 1.06874 0
M  V30 2781 H 254.272 -3.71683 -0.642757 0
M  V30 2782 H 256.659 -2.7838 -0.979217 0
M  V30 2783 H 256.74 -2.44393 0.755359 0
M  V30 2784 H 256.384 -4.92639 1.2357 0
M  V30 2785 H 256.314 -5.24061 -0.516489 0
M  V30 2786 H 258.805 -3.77885 0.0331115 0
M  V30 2787 H 259.118 -7.69689 0.69275 0
M  V30 2788 H 257.463 -6.92264 0.616087 0
M  V30 2789 H 260.654 -4.67932 0.125258 0
M  V30 2790 H 260.827 -6.46599 0.425831 0
M  V30 2791 N 254.233 0.115231 -1.57178 0
M  V30 2792 C 255.163 1.1423 -2.03651 0
M  V30 2793 C 256.144 1.42967 -0.921655 0
M  V30 2794 O 257.329 1.53343 -1.19162 0
M  V30 2795 C 254.459 2.4675 -2.44401 0
M  V30 2796 C 253.413 2.32467 -3.59365 0
M  V30 2797 C 252.739 3.69984 -3.86026 0
M  V30 2798 C 254.039 1.78203 -4.90959 0
M  V30 2799 H 255.733 0.755749 -2.89705 0
M  V30 2800 H 253.279 0.362093 -1.39373 0
M  V30 2801 H 255.232 3.18854 -2.75517 0
M  V30 2802 H 253.956 2.87302 -1.55322 0
M  V30 2803 H 252.615 1.62811 -3.28463 0
M  V30 2804 H 252.263 4.08028 -2.94147 0
M  V30 2805 H 251.963 3.61279 -4.63412 0
M  V30 2806 H 253.487 4.43587 -4.19599 0
M  V30 2807 H 254.901 2.40128 -5.20587 0
M  V30 2808 H 253.298 1.8031 -5.72371 0
M  V30 2809 H 254.368 0.739876 -4.79222 0
M  V30 2810 N 255.711 1.52812 0.385517 0
M  V30 2811 C 256.959 1.67694 1.12797 0
M  V30 2812 C 257.28 0.421115 1.90399 0
M  V30 2813 O 256.55 -0.564551 1.87589 0
M  V30 2814 H 255.13 0.618155 0.419396 0
M  V30 2815 H 257.792 1.89938 0.436972 0
M  V30 2816 H 256.888 2.52896 1.82894 0
M  V30 2817 N 257.189 -0.644168 1.43834 0
M  V30 2818 C 258.119 -1.76814 1.52509 0
M  V30 2819 C 259.1 -1.65823 0.379052 0
M  V30 2820 O 260.285 -1.84781 0.597466 0
M  V30 2821 C 257.415 -3.15288 1.4564 0
M  V30 2822 C 256.369 -3.41053 2.58586 0
M  V30 2823 C 255.695 -4.79421 2.36769 0
M  V30 2824 C 256.995 -3.34902 4.00797 0
M  V30 2825 H 258.689 -1.69812 2.46586 0
M  V30 2826 H 256.235 -0.815542 1.1868 0
M  V30 2827 H 258.188 -3.93681 1.50311 0
M  V30 2828 H 256.912 -3.23043 0.480725 0
M  V30 2829 H 255.571 -2.65035 2.53282 0
M  V30 2830 H 255.219 -4.83863 1.37424 0
M  V30 2831 H 254.919 -4.9762 3.12487 0
M  V30 2832 H 256.443 -5.6006 2.43238 0
M  V30 2833 H 257.857 -4.03218 4.07539 0
M  V30 2834 H 256.254 -3.64637 4.76613 0
M  V30 2835 H 257.324 -2.32928 4.25291 0
M  V30 2836 N 258.668 -1.30515 -0.883378 0
M  V30 2837 C 259.631 -1.1701 -1.97082 0
M  V30 2838 C 260.631 -0.10089 -1.60483 0
M  V30 2839 O 261.821 -0.349127 -1.70666 0
M  V30 2840 C 258.953 -0.793045 -3.31547 0
M  V30 2841 H 260.146 -2.13622 -2.10489 0
M  V30 2842 H 257.699 -1.13935 -1.06998 0
M  V30 2843 H 258.434 0.172499 -3.23841 0
M  V30 2844 H 258.219 -1.56576 -3.5948 0
M  V30 2845 H 259.709 -0.722073 -4.1131 0
M  V30 2846 N 260.146 1.09593 -1.13257 0
M  V30 2847 C 261.076 2.18214 -0.830946 0
M  V30 2848 C 262.057 1.68812 0.208966 0
M  V30 2849 O 263.242 1.9408 0.0682666 0
M  V30 2850 C 260.372 3.46051 -0.294296 0
M  V30 2851 C 259.326 4.08778 -1.26826 0
M  V30 2852 C 258.652 5.31419 -0.591449 0
M  V30 2853 C 259.952 4.51476 -2.62615 0
M  V30 2854 H 261.646 2.43703 -1.73923 0
M  V30 2855 H 259.192 1.17128 -0.837675 0
M  V30 2856 H 261.145 4.2134 -0.0709606 0
M  V30 2857 H 259.869 3.20079 0.649366 0
M  V30 2858 H 258.528 3.35505 -1.47756 0
M  V30 2859 H 258.176 5.01727 0.357633 0
M  V30 2860 H 257.876 5.74341 -1.24123 0
M  V30 2861 H 259.4 6.09433 -0.377355 0
M  V30 2862 H 260.814 5.17999 -2.45663 0
M  V30 2863 H 259.211 5.05277 -3.23752 0
M  V30 2864 H 260.281 3.63962 -3.20406 0
M  V30 2865 N 261.624 0.925811 1.2754 0
M  V30 2866 C 262.572 0.413897 2.28888 0
M  V30 2867 C 263.566 -0.500779 1.61829 0
M  V30 2868 O 264.772 -0.38069 1.75928 0
M  V30 2869 H 261.147 0.115274 0.743112 0
M  V30 2870 H 263.118 1.28151 2.69481 0
M  V30 2871 C 261.867 -0.319792 3.46226 0
M  V30 2872 H 261.19 0.374846 3.98039 0
M  V30 2873 H 262.63 -0.642435 4.19105 0
M  V30 2874 C 261.089 -1.53209 3.00048 0
M  V30 2875 O 261.619 -2.6309 3.03557 0
M  V30 2876 N 259.825 -1.38326 2.55566 0
M  V30 2877 H 259.372 -0.489292 2.5291 0
M  V30 2878 H 259.33 -2.19564 2.25031 0
M  V30 2879 N 263.102 -1.41638 0.69111 0
M  V30 2880 C 264.349 -2.01299 0.220193 0
M  V30 2881 C 264.677 -1.54715 -1.17871 0
M  V30 2882 O 263.932 -0.747193 -1.80874 0
M  V30 2883 C 264.231 -3.56714 0.221277 0
M  V30 2884 C 263.897 -4.22792 1.56709 0
M  V30 2885 C 262.559 -4.40557 1.93554 0
M  V30 2886 C 264.911 -4.59883 2.45268 0
M  V30 2887 C 262.239 -4.92688 3.18552 0
M  V30 2888 C 264.591 -5.13403 3.69595 0
M  V30 2889 C 263.255 -5.29379 4.06589 0
M  V30 2890 H 262.525 -0.736606 0.0805743 0
M  V30 2891 H 265.172 -1.69598 0.889319 0
M  V30 2892 H 263.477 -3.8818 -0.531391 0
M  V30 2893 H 265.174 -4.00678 -0.160547 0
M  V30 2894 H 261.764 -4.09336 1.2705 0
M  V30 2895 H 265.948 -4.45817 2.18084 0
M  V30 2896 H 261.204 -5.03242 3.47214 0
M  V30 2897 H 265.378 -5.41084 4.38407 0
M  V30 2898 H 263.005 -5.69537 5.03519 0
M  V30 2899 N 264.58 -0.43555 -1.51462 0
M  V30 2900 C 265.805 0.132627 -2.06976 0
M  V30 2901 C 266.23 1.35848 -1.30104 0
M  V30 2902 O 265.588 1.78112 -0.338493 0
M  V30 2903 C 265.636 0.43523 -3.57964 0
M  V30 2904 O 264.74 1.52198 -3.83288 0
M  V30 2905 H 264.081 0.00265 -0.663995 0
M  V30 2906 H 266.611 -0.616369 -1.95095 0
M  V30 2907 H 266.621 0.686206 -4.02188 0
M  V30 2908 H 265.296 -0.460739 -4.1334 0
M  V30 2909 H 263.873 1.2611 -3.50928 0
M  V30 2910 N 266.058 1.56714 -0.166846 0
M  V30 2911 C 267.304 1.97039 0.479962 0
M  V30 2912 C 267.637 1.05264 1.63197 0
M  V30 2913 O 266.912 0.0988833 1.94248 0
M  V30 2914 C 267.195 3.46867 0.967212 0
M  V30 2915 C 267.048 4.49421 -0.18466 0
M  V30 2916 C 268.367 3.9968 1.84238 0
M  V30 2917 H 265.486 0.71641 0.172992 0
M  V30 2918 H 268.128 1.8832 -0.252079 0
M  V30 2919 H 266.278 3.54428 1.59101 0
M  V30 2920 H 267.95 4.53924 -0.821621 0
M  V30 2921 H 266.193 4.25573 -0.840837 0
M  V30 2922 H 266.864 5.51644 0.198317 0
M  V30 2923 H 269.34 3.94723 1.31655 0
M  V30 2924 H 268.216 5.04941 2.15234 0
M  V30 2925 H 268.477 3.43226 2.78654 0
M  V30 2926 N 267.536 -0.106894 1.57237 0
M  V30 2927 C 268.783 -0.812526 1.85484 0
M  V30 2928 C 269.111 -1.79304 0.753687 0
M  V30 2929 O 268.366 -1.94047 -0.253853 0
M  V30 2930 C 268.665 -1.58628 3.20268 0
M  V30 2931 C 268.331 -0.748967 4.44636 0
M  V30 2932 C 266.993 -0.518104 4.78403 0
M  V30 2933 C 269.345 -0.166122 5.20935 0
M  V30 2934 C 266.673 0.305659 5.85903 0
M  V30 2935 C 269.025 0.644899 6.29304 0
M  V30 2936 C 267.689 0.885965 6.61594 0
M  V30 2937 H 266.959 -0.297324 0.678734 0
M  V30 2938 H 269.606 -0.0744332 1.91355 0
M  V30 2939 H 267.911 -2.39562 3.10028 0
M  V30 2940 H 269.608 -2.13643 3.39349 0
M  V30 2941 H 266.198 -0.939006 4.18187 0
M  V30 2942 H 270.382 -0.33167 4.95191 0
M  V30 2943 H 265.638 0.501528 6.0934 0
M  V30 2944 H 269.812 1.10345 6.87602 0
M  V30 2945 H 267.439 1.52609 7.44725 0
M  V30 2946 N 269.014 -1.53014 -0.377408 0
M  V30 2947 C 270.244 -1.72265 -1.14054 0
M  V30 2948 C 270.652 -0.44601 -1.83868 0
M  V30 2949 O 269.995 0.590095 -1.73964 0
M  V30 2950 C 270.057 -2.82492 -2.22348 0
M  V30 2951 C 269.721 -4.23233 -1.72402 0
M  V30 2952 C 270.718 -5.05992 -1.19448 0
M  V30 2953 C 268.403 -4.696 -1.78273 0
M  V30 2954 C 270.397 -6.33203 -0.730268 0
M  V30 2955 C 268.084 -5.96792 -1.31464 0
M  V30 2956 C 269.082 -6.78424 -0.789297 0
M  V30 2957 O 268.77 -8.0323 -0.328077 0
M  V30 2958 H 268.502 -0.579873 -0.347453 0
M  V30 2959 H 271.056 -2.00502 -0.445882 0
M  V30 2960 H 269.286 -2.49702 -2.95272 0
M  V30 2961 H 270.975 -2.90034 -2.83963 0
M  V30 2962 H 271.741 -4.71349 -1.14259 0
M  V30 2963 H 267.62 -4.06142 -2.18106 0
M  V30 2964 H 271.164 -6.96868 -0.319542 0
M  V30 2965 H 267.061 -6.30937 -1.36342 0
M  V30 2966 H 267.829 -8.1727 -0.448493 0
M  V30 2967 N 270.492 0.636531 -1.44174 0
M  V30 2968 C 271.722 1.42146 -1.49927 0
M  V30 2969 C 272.13 1.88812 -0.121063 0
M  V30 2970 O 271.473 1.61126 0.882267 0
M  V30 2971 C 271.535 2.67883 -2.39748 0
M  V30 2972 C 271.199 2.43048 -3.8701 0
M  V30 2973 C 272.196 2.05216 -4.77684 0
M  V30 2974 C 269.881 2.56856 -4.3166 0
M  V30 2975 C 271.875 1.81512 -6.11009 0
M  V30 2976 C 269.562 2.32766 -5.65034 0
M  V30 2977 C 270.56 1.95152 -6.54526 0
M  V30 2978 O 270.248 1.71326 -7.85431 0
M  V30 2979 H 269.98 0.442567 -0.51099 0
M  V30 2980 H 272.534 0.786158 -1.8976 0
M  V30 2981 H 270.764 3.34032 -1.94832 0
M  V30 2982 H 272.453 3.29874 -2.36513 0
M  V30 2983 H 273.219 1.94111 -4.44462 0
M  V30 2984 H 269.098 2.85104 -3.62266 0
M  V30 2985 H 272.642 1.52077 -6.80822 0
M  V30 2986 H 268.539 2.43479 -5.97819 0
M  V30 2987 H 269.307 1.85616 -7.97176 0
M  V30 2988 N 271.97 1.30982 0.876444 0
M  V30 2989 C 272.88 1.2003 2.01569 0
M  V30 2990 C 273.896 0.11838 1.73597 0
M  V30 2991 O 275.072 0.33495 1.98595 0
M  V30 2992 C 272.137 0.901637 3.34771 0
M  V30 2993 C 271.198 2.06979 3.76109 0
M  V30 2994 C 270.431 1.78529 5.02954 0
M  V30 2995 O 270.654 0.717296 5.65872 0
M  V30 2996 O 269.588 2.64019 5.40905 0
M  V30 2997 H 273.414 2.15753 2.13739 0
M  V30 2998 H 270.999 1.10658 1.00375 0
M  V30 2999 H 272.881 0.750645 4.1466 0
M  V30 3000 H 271.556 -0.0256141 3.2369 0
M  V30 3001 H 270.463 2.27616 2.96887 0
M  V30 3002 H 271.796 2.97907 3.91807 0
M  V30 3003 N 273.449 -1.08991 1.13837 0
M  V30 3004 C 274.698 -1.80631 0.897509 0
M  V30 3005 C 275.011 -1.86872 -0.57777 0
M  V30 3006 O 276.217 -2.54866 -0.935701 0
M  V30 3007 C 274.673 -3.24517 1.55618 0
M  V30 3008 C 274.281 -3.26529 3.0673 0
M  V30 3009 C 276.025 -4.00882 1.3962 0
M  V30 3010 C 273.932 -4.64965 3.65461 0
M  V30 3011 H 272.862 -0.67691 0.332129 0
M  V30 3012 H 275.513 -1.2246 1.3666 0
M  V30 3013 H 273.895 -3.82778 1.01476 0
M  V30 3014 H 275.069 -2.78008 3.67489 0
M  V30 3015 H 273.384 -2.63656 3.22296 0
M  V30 3016 H 275.981 -5.03167 1.80906 0
M  V30 3017 H 276.324 -4.14896 0.341578 0
M  V30 3018 H 276.857 -3.49075 1.90766 0
M  V30 3019 H 273.596 -4.56153 4.70749 0
M  V30 3020 H 273.116 -5.13792 3.09481 0
M  V30 3021 H 274.795 -5.3394 3.654 0
M  V30 3022 N 274.927 -0.932562 -1.27047 0
M  V30 3023 C 275.859 -0.392734 -2.2581 0
M  V30 3024 C 276.872 0.479241 -1.55586 0
M  V30 3025 O 278.061 0.291078 -1.76111 0
M  V30 3026 C 275.161 0.455456 -3.35826 0
M  V30 3027 C 274.334 -0.398355 -4.35582 0
M  V30 3028 C 273.393 0.387985 -5.24768 0
M  V30 3029 O 272.419 -0.206003 -5.68827 0
M  V30 3030 N 273.621 1.68664 -5.55457 0
M  V30 3031 H 276.386 -1.24173 -2.72766 0
M  V30 3032 H 273.947 -0.800511 -1.40725 0
M  V30 3033 H 275.939 0.988692 -3.92437 0
M  V30 3034 H 274.509 1.20522 -2.88432 0
M  V30 3035 H 273.729 -1.11286 -3.78165 0
M  V30 3036 H 275.017 -0.981889 -4.99236 0
M  V30 3037 H 274.415 2.19147 -5.21528 0
M  V30 3038 H 272.972 2.1663 -6.14748 0
M  V30 3039 N 276.405 1.4127 -0.698611 0
M  V30 3040 C 277.353 2.32588 -0.023855 0
M  V30 3041 C 278.347 1.51128 0.765292 0
M  V30 3042 O 279.553 1.67043 0.670571 0
M  V30 3043 H 275.928 0.751918 0.0110871 0
M  V30 3044 H 277.899 2.87167 -0.811031 0
M  V30 3045 C 276.648 3.35947 0.896369 0
M  V30 3046 H 275.971 3.98684 0.298548 0
M  V30 3047 H 277.411 4.02376 1.33676 0
M  V30 3048 C 275.87 2.70076 2.01396 0
M  V30 3049 O 276.4 2.55093 3.10307 0
M  V30 3050 N 274.606 2.28724 1.79259 0
M  V30 3051 H 274.153 2.4111 0.906841 0
M  V30 3052 H 274.111 1.84986 2.54219 0
M  V30 3053 N 277.883 0.443576 1.51229 0
M  V30 3054 C 278.846 -0.353132 2.26463 0
M  V30 3055 C 279.846 -0.944338 1.3015 0
M  V30 3056 O 281.036 -0.817813 1.5381 0
M  V30 3057 C 278.168 -1.50023 3.06114 0
M  V30 3058 H 279.361 0.3063 2.98332 0
M  V30 3059 H 276.914 0.196902 1.55055 0
M  V30 3060 H 277.649 -2.19553 2.38677 0
M  V30 3061 H 277.434 -1.08241 3.76864 0
M  V30 3062 H 278.924 -2.06296 3.63087 0
M  V30 3063 N 279.361 -1.56624 0.175154 0
M  V30 3064 C 280.772 -1.83561 -0.340916 0
M  V30 3065 C 281.123 -1.09511 -1.62794 0
M  V30 3066 O 280.248 -0.349389 -2.13561 0
M  V30 3067 C 280.843 -3.32979 -0.625313 0
M  V30 3068 C 279.402 -3.60399 -1.08581 0
M  V30 3069 C 278.549 -2.77024 -0.123722 0
M  V30 3070 H 281.5 -1.53593 0.399344 0
M  V30 3071 H 281.521 -3.50666 -1.47694 0
M  V30 3072 H 281.033 -3.86847 0.311575 0
M  V30 3073 H 279.134 -3.11945 -2.03767 0
M  V30 3074 H 279.247 -4.68711 -0.992317 0
M  V30 3075 H 277.611 -2.46993 -0.621821 0
M  V30 3076 H 278.394 -3.33674 0.807256 0
M  V30 3077 N 280.839 0.0985539 -1.57292 0
M  V30 3078 C 281.749 1.13824 -2.05137 0
M  V30 3079 C 282.765 1.44076 -0.975604 0
M  V30 3080 O 283.941 1.54786 -1.28853 0
M  V30 3081 C 281.006 2.43969 -2.46333 0
M  V30 3082 C 280.067 2.2093 -3.68087 0
M  V30 3083 C 279.3 3.44869 -4.0731 0
M  V30 3084 O 279.523 4.52972 -3.46659 0
M  V30 3085 O 278.457 3.34661 -5.00285 0
M  V30 3086 H 282.283 0.761881 -2.93988 0
M  V30 3087 H 279.868 0.310818 -1.46131 0
M  V30 3088 H 281.75 3.20609 -2.73473 0
M  V30 3089 H 280.425 2.81038 -1.60621 0
M  V30 3090 H 279.332 1.42081 -3.46069 0
M  V30 3091 H 280.665 1.88755 -4.54568 0
M  V30 3092 N 282.317 1.53212 0.369288 0
M  V30 3093 C 283.249 1.75668 1.47219 0
M  V30 3094 C 284.262 0.637387 1.49804 0
M  V30 3095 O 285.451 0.913561 1.5335 0
M  V30 3096 C 282.551 1.81818 2.85999 0
M  V30 3097 C 281.724 3.11409 3.07153 0
M  V30 3098 C 280.783 3.08849 4.26026 0
M  V30 3099 O 279.809 3.82659 4.2138 0
M  V30 3100 N 281.011 2.29409 5.33246 0
M  V30 3101 H 283.776 2.70832 1.28337 0
M  V30 3102 H 281.337 1.51944 0.55898 0
M  V30 3103 H 283.329 1.77588 3.63655 0
M  V30 3104 H 281.899 0.939544 2.98146 0
M  V30 3105 H 281.119 3.28971 2.1719 0
M  V30 3106 H 282.407 3.97059 3.18154 0
M  V30 3107 H 281.805 1.68946 5.39883 0
M  V30 3108 H 280.362 2.31001 6.09493 0
M  V30 3109 N 283.795 -0.628877 1.44509 0
M  V30 3110 C 284.758 -1.72263 1.51188 0
M  V30 3111 C 285.758 -1.55907 0.39367 0
M  V30 3112 O 286.948 -1.61361 0.656377 0
M  V30 3113 C 284.08 -3.11365 1.38798 0
M  V30 3114 H 285.273 -1.67714 2.4862 0
M  V30 3115 H 282.826 -0.842737 1.31634 0
M  V30 3116 H 283.561 -3.21507 0.424693 0
M  V30 3117 H 283.346 -3.24644 2.19884 0
M  V30 3118 H 284.836 -3.91075 1.46458 0
M  V30 3119 N 285.273 -1.31445 -0.869486 0
M  V30 3120 C 286.513 -1.22458 -1.63656 0
M  V30 3121 C 286.877 0.213846 -1.90805 0
M  V30 3122 O 288.078 0.427212 -2.65383 0
M  V30 3123 C 286.349 -2.04564 -2.93067 0
M  V30 3124 S 287.908 -2.12445 -3.83944 0
M  V30 3125 H 284.726 -0.436145 -0.561514 0
M  V30 3126 H 287.328 -1.66114 -1.03085 0
M  V30 3127 H 286.032 -3.0816 -2.71045 0
M  V30 3128 H 285.563 -1.6163 -3.58663 0
M  V30 3129 H 287.578 -1.26312 -4.79854 0
M  V30 3130 N 286.751 1.08385 -1.14413 0
M  V30 3131 C 287.681 2.17321 -0.854044 0
M  V30 3132 C 288.662 1.69024 0.191049 0
M  V30 3133 O 289.847 1.94141 0.0476779 0
M  V30 3134 C 286.977 3.45719 -0.330983 0
M  V30 3135 C 285.931 4.07409 -1.31155 0
M  V30 3136 C 285.257 5.30762 -0.64778 0
M  V30 3137 C 286.557 4.48665 -2.67388 0
M  V30 3138 H 288.251 2.41845 -1.76498 0
M  V30 3139 H 285.797 1.16233 -0.850051 0
M  V30 3140 H 287.75 4.21241 -0.115645 0
M  V30 3141 H 286.474 3.2075 0.615381 0
M  V30 3142 H 285.133 3.33919 -1.51306 0
M  V30 3143 H 284.781 5.02078 0.304398 0
M  V30 3144 H 284.481 5.72992 -1.30207 0
M  V30 3145 H 286.005 6.08998 -0.441972 0
M  V30 3146 H 287.419 5.15364 -2.51143 0
M  V30 3147 H 285.816 5.01814 -3.29093 0
M  V30 3148 H 286.886 3.60543 -3.24248 0
M  V30 3149 N 288.23 0.939286 1.26551 0
M  V30 3150 C 289.16 0.465044 2.28822 0
M  V30 3151 C 290.141 -0.480692 1.63167 0
M  V30 3152 O 291.326 -0.382955 1.90387 0
M  V30 3153 C 288.456 -0.27234 3.46231 0
M  V30 3154 C 287.41 0.58666 4.2396 0
M  V30 3155 C 286.736 -0.280573 5.33963 0
M  V30 3156 C 288.036 1.85704 4.88171 0
M  V30 3157 H 289.73 1.31979 2.68741 0
M  V30 3158 H 287.276 0.636061 1.29191 0
M  V30 3159 H 289.229 -0.615133 4.16886 0
M  V30 3160 H 287.953 -1.16121 3.0526 0
M  V30 3161 H 286.612 0.91232 3.55067 0
M  V30 3162 H 286.26 -1.16874 4.89234 0
M  V30 3163 H 285.96 0.29076 5.8688 0
M  V30 3164 H 287.484 -0.618678 6.07458 0
M  V30 3165 H 288.898 1.58161 5.51052 0
M  V30 3166 H 287.295 2.37279 5.51197 0
M  V30 3167 H 288.365 2.56957 4.11219 0
M  V30 3168 N 289.708 -1.40897 0.706093 0
M  V30 3169 C 290.671 -2.29131 0.0562841 0
M  V30 3170 C 291.671 -1.44901 -0.697166 0
M  V30 3171 O 292.861 -1.65926 -0.530484 0
M  V30 3172 C 289.993 -3.27957 -0.93043 0
M  V30 3173 H 291.186 -2.88091 0.833284 0
M  V30 3174 H 288.739 -1.4906 0.470192 0
M  V30 3175 H 289.474 -2.73997 -1.73482 0
M  V30 3176 H 289.259 -3.90124 -0.393166 0
M  V30 3177 H 290.749 -3.94049 -1.38256 0
M  V30 3178 N 291.186 -0.45159 -1.50991 0
M  V30 3179 C 292.133 0.352625 -2.2809 0
M  V30 3180 C 293.103 1.0044 -1.32291 0
M  V30 3181 O 294.288 1.02058 -1.6121 0
M  V30 3182 C 291.428 1.43983 -3.13629 0
M  V30 3183 C 290.541 0.804772 -4.24438 0
M  V30 3184 C 289.676 1.86822 -4.97263 0
M  V30 3185 C 288.715 1.21236 -5.99973 0
M  V30 3186 N 287.852 2.2178 -6.66152 0
M  V30 3187 H 292.692 -0.311186 -2.96371 0
M  V30 3188 H 290.229 -0.165308 -1.46168 0
M  V30 3189 H 292.187 2.08161 -3.61559 0
M  V30 3190 H 290.817 2.07307 -2.47434 0
M  V30 3191 H 289.869 0.0509129 -3.80366 0
M  V30 3192 H 291.181 0.286076 -4.97979 0
M  V30 3193 H 290.335 2.58628 -5.48813 0
M  V30 3194 H 289.074 2.42068 -4.23385 0
M  V30 3195 H 288.079 0.479828 -5.47702 0
M  V30 3196 H 289.304 0.667051 -6.75816 0
M  V30 3197 H 287.25 2.76079 -5.95077 0
M  V30 3198 H 287.167 1.74841 -7.35504 0
M  V30 3199 H 288.435 2.93026 -7.22327 0
M  V30 3200 N 292.664 1.56529 -0.183458 0
M  V30 3201 C 293.596 2.15747 0.773697 0
M  V30 3202 C 294.609 1.1162 1.1851 0
M  V30 3203 O 295.798 1.3876 1.12285 0
M  V30 3204 C 292.898 2.6952 2.05456 0
M  V30 3205 C 292.071 3.98429 1.8048 0
M  V30 3206 C 291.13 4.37145 2.92901 0
M  V30 3207 O 290.156 5.04791 2.6301 0
M  V30 3208 N 291.358 3.99695 4.2098 0
M  V30 3209 H 294.123 2.98505 0.26736 0
M  V30 3210 H 291.684 1.619 -0.0010878 0
M  V30 3211 H 293.676 2.92412 2.79781 0
M  V30 3212 H 292.246 1.91282 2.47245 0
M  V30 3213 H 291.466 3.8379 0.899947 0
M  V30 3214 H 292.754 4.82597 1.61175 0
M  V30 3215 H 292.152 3.4526 4.48121 0
M  V30 3216 H 290.709 4.27562 4.9197 0
M  V30 3217 N 294.142 -0.090211 1.57342 0
M  V30 3218 C 295.105 -1.09335 2.01441 0
M  V30 3219 C 296.105 -1.32666 0.908641 0
M  V30 3220 O 297.295 -1.28697 1.174 0
M  V30 3221 C 294.427 -2.44136 2.3793 0
M  V30 3222 H 295.62 -0.713662 2.91285 0
M  V30 3223 H 293.173 -0.335404 1.52659 0
M  V30 3224 H 293.908 -2.86972 1.51055 0
M  V30 3225 H 293.693 -2.28548 3.18603 0
M  V30 3226 H 295.183 -3.16277 2.72688 0
M  V30 3227 N 295.62 -1.53406 -0.361157 0
M  V30 3228 C 296.867 -1.69802 -1.10333 0
M  V30 3229 C 297.195 -0.452087 -1.89173 0
M  V30 3230 O 296.45 0.566017 -1.87336 0
M  V30 3231 C 296.749 -2.90211 -2.08596 0
M  V30 3232 C 296.415 -4.26539 -1.46203 0
M  V30 3233 C 295.077 -4.6361 -1.28915 0
M  V30 3234 C 297.429 -5.113 -1.01101 0
M  V30 3235 C 294.757 -5.83075 -0.651157 0
M  V30 3236 C 297.109 -6.31415 -0.387007 0
M  V30 3237 C 295.773 -6.67195 -0.201657 0
M  V30 3238 H 295.043 -0.621351 -0.403737 0
M  V30 3239 H 297.69 -1.87598 -0.384609 0
M  V30 3240 H 295.995 -2.66946 -2.86788 0
M  V30 3241 H 297.692 -3.00091 -2.65982 0
M  V30 3242 H 294.282 -3.97352 -1.60653 0
M  V30 3243 H 298.466 -4.83206 -1.13249 0
M  V30 3244 H 293.722 -6.09385 -0.496006 0
M  V30 3245 H 297.896 -6.96394 -0.0293563 0
M  V30 3246 H 295.523 -7.59628 0.294766 0
M  V30 3247 N 297.098 0.621204 -1.44841 0
M  V30 3248 C 298.375 1.38 -1.38619 0
M  V30 3249 C 298.755 2.11041 -0.0498935 0
M  V30 3250 O 298.103 2.06992 0.967816 0
M  V30 3251 C 298.313 2.33817 -2.59096 0
M  V30 3252 C 299.661 2.96844 -3.03593 0
M  V30 3253 O 300.685 2.44141 -2.59371 0
M  V30 3254 O 299.544 3.92476 -3.80296 0
M  V30 3255 H 296.638 0.61811 -0.549426 0
M  V30 3256 H 299.184 0.645429 -1.56947 0
M  V30 3257 H 297.956 1.79012 -3.47952 0
M  V30 3258 H 297.579 3.14676 -2.43032 0
M  V30 3259 N 298.576 1.31904 0.862503 0
M  V30 3260 C 299.853 1.12644 1.59908 0
M  V30 3261 C 300.233 -0.316104 2.0872 0
M  V30 3262 O 299.581 -1.31145 1.87118 0
M  V30 3263 C 299.791 2.1472 2.7513 0
M  V30 3264 C 301.139 2.47637 3.44907 0
M  V30 3265 O 302.163 2.13205 2.85346 0
M  V30 3266 O 301.022 3.06632 4.52371 0
M  V30 3267 H 298.116 0.43416 0.703871 0
M  V30 3268 H 300.662 1.43408 0.907314 0
M  V30 3269 H 299.434 3.1172 2.3653 0
M  V30 3270 H 299.057 1.84905 3.51989 0
M  V30 3271 N 300.054 -1.07777 1.14986 0
M  V30 3272 C 301.017 -2.13041 0.845358 0
M  V30 3273 C 302.017 -1.60071 -0.152931 0
M  V30 3274 O 303.207 -1.74033 0.0761879 0
M  V30 3275 C 300.339 -3.39896 0.261383 0
M  V30 3276 H 301.532 -2.41485 1.77834 0
M  V30 3277 H 299.085 -1.23595 0.956757 0
M  V30 3278 H 299.82 -3.17091 -0.68 0
M  V30 3279 H 299.605 -3.79642 0.980514 0
M  V30 3280 H 301.095 -4.17548 0.0657687 0
M  V30 3281 N 301.532 -0.945985 -1.26051 0
M  V30 3282 C 302.781 -0.591836 -1.92822 0
M  V30 3283 C 303.094 0.873956 -1.7499 0
M  V30 3284 O 304.3 1.33769 -2.36259 0
M  V30 3285 C 302.756 -1.00776 -3.45503 0
M  V30 3286 C 302.364 -2.4955 -3.7206 0
M  V30 3287 C 304.108 -0.725735 -4.1825 0
M  V30 3288 C 302.015 -2.84988 -5.18205 0
M  V30 3289 H 300.945 -0.217635 -0.721908 0
M  V30 3290 H 303.596 -1.14927 -1.43052 0
M  V30 3291 H 301.978 -0.378812 -3.94184 0
M  V30 3292 H 303.152 -3.1739 -3.34066 0
M  V30 3293 H 301.467 -2.75133 -3.12555 0
M  V30 3294 H 304.064 -0.966771 -5.25887 0
M  V30 3295 H 304.407 0.337639 -4.14929 0
M  V30 3296 H 304.94 -1.31463 -3.7545 0
M  V30 3297 H 301.679 -3.90307 -5.26631 0
M  V30 3298 H 301.199 -2.21813 -5.57278 0
M  V30 3299 H 302.878 -2.73712 -5.86252 0
M  V30 3300 N 303.011 1.40521 -0.713556 0
M  V30 3301 C 303.974 2.29098 -0.0684347 0
M  V30 3302 C 304.974 1.45268 0.689472 0
M  V30 3303 O 306.164 1.66205 0.521677 0
M  V30 3304 C 303.296 3.28446 0.913024 0
M  V30 3305 H 304.489 2.87645 -0.84855 0
M  V30 3306 H 302.042 1.48809 -0.47809 0
M  V30 3307 H 302.777 2.74913 1.72027 0
M  V30 3308 H 302.562 3.90327 0.372472 0
M  V30 3309 H 304.052 3.94777 1.36165 0
M  V30 3310 N 304.489 0.459591 1.5075 0
M  V30 3311 C 305.399 -0.34613 2.32033 0
M  V30 3312 C 306.415 -1.00686 1.41909 0
M  V30 3313 O 307.591 -0.997361 1.7497 0
M  V30 3314 C 304.656 -1.42029 3.16273 0
M  V30 3315 C 303.717 -0.777362 4.22203 0
M  V30 3316 C 302.95 -1.80034 5.02418 0
M  V30 3317 O 303.173 -3.02544 4.83553 0
M  V30 3318 O 302.107 -1.37853 5.85901 0
M  V30 3319 H 305.933 0.318054 3.0203 0
M  V30 3320 H 303.518 0.221663 1.47746 0
M  V30 3321 H 305.4 -2.04275 3.68578 0
M  V30 3322 H 304.075 -2.06815 2.49016 0
M  V30 3323 H 302.982 -0.116256 3.73919 0
M  V30 3324 H 304.315 -0.172634 4.91897 0
M  V30 3325 N 305.967 -1.56429 0.191757 0
M  V30 3326 C 306.897 -2.21937 -0.725696 0
M  V30 3327 C 307.878 -1.1814 -1.2238 0
M  V30 3328 O 309.063 -1.46636 -1.27325 0
M  V30 3329 C 306.193 -2.87611 -1.94672 0
M  V30 3330 C 305.147 -3.97623 -1.58366 0
M  V30 3331 C 304.473 -4.50446 -2.88102 0
M  V30 3332 C 305.773 -5.16197 -0.796133 0
M  V30 3333 H 307.467 -2.98861 -0.179606 0
M  V30 3334 H 305.013 -1.43749 -0.0849464 0
M  V30 3335 H 306.966 -3.3212 -2.59373 0
M  V30 3336 H 305.69 -2.08087 -2.51728 0
M  V30 3337 H 304.349 -3.53801 -0.960247 0
M  V30 3338 H 303.997 -3.67688 -3.43241 0
M  V30 3339 H 303.697 -5.24675 -2.64556 0
M  V30 3340 H 305.221 -4.97654 -3.53798 0
M  V30 3341 H 306.635 -5.57271 -1.34618 0
M  V30 3342 H 305.032 -5.96471 -0.658928 0
M  V30 3343 H 306.102 -4.84473 0.203478 0
M  V30 3344 N 307.445 0.0818655 -1.57387 0
M  V30 3345 C 308.722 0.815343 -1.77796 0
M  V30 3346 C 309.102 1.96289 -0.77679 0
M  V30 3347 O 308.45 2.27691 0.192106 0
M  V30 3348 C 308.66 1.29765 -3.23978 0
M  V30 3349 C 310.008 1.7351 -3.8753 0
M  V30 3350 O 311.032 1.39356 -3.27808 0
M  V30 3351 O 309.891 2.36708 -4.92576 0
M  V30 3352 H 306.985 0.389914 -0.729312 0
M  V30 3353 H 309.531 0.0627213 -1.69584 0
M  V30 3354 H 308.303 0.47608 -3.88393 0
M  V30 3355 H 307.926 2.11189 -3.36875 0
M  V30 3356 N 308.923 1.53595 0.353017 0
M  V30 3357 C 310.151 1.74311 1.1146 0
M  V30 3358 C 310.566 0.477854 1.82653 0
M  V30 3359 O 309.923 -0.549977 1.74016 0
M  V30 3360 C 309.974 2.91694 2.13534 0
M  V30 3361 O 309.695 4.13325 1.45238 0
M  V30 3362 C 311.196 3.24384 3.02142 0
M  V30 3363 H 308.416 0.582669 0.332773 0
M  V30 3364 H 310.96 2.00386 0.408107 0
M  V30 3365 H 309.115 2.67977 2.79763 0
M  V30 3366 H 309.529 4.79148 2.13349 0
M  V30 3367 H 311.003 4.09893 3.69718 0
M  V30 3368 H 311.48 2.40282 3.67643 0
M  V30 3369 H 312.086 3.50073 2.41514 0
M  V30 3370 N 310.401 -0.613514 1.45168 0
M  V30 3371 C 311.331 -1.7354 1.56225 0
M  V30 3372 C 312.312 -1.64981 0.41414 0
M  V30 3373 O 313.497 -1.83472 0.636526 0
M  V30 3374 C 310.627 -3.12128 1.52295 0
M  V30 3375 C 309.581 -3.35491 2.65762 0
M  V30 3376 C 308.907 -4.74291 2.46885 0
M  V30 3377 C 310.207 -3.26325 4.0781 0
M  V30 3378 H 311.901 -1.64543 2.50132 0
M  V30 3379 H 309.447 -0.790185 1.20383 0
M  V30 3380 H 311.4 -3.90404 1.58628 0
M  V30 3381 H 310.124 -3.2195 0.549139 0
M  V30 3382 H 308.783 -2.59603 2.58847 0
M  V30 3383 H 308.431 -4.80839 1.47657 0
M  V30 3384 H 308.131 -4.9088 3.22972 0
M  V30 3385 H 309.655 -5.54775 2.55063 0
M  V30 3386 H 311.069 -3.94483 4.16 0
M  V30 3387 H 309.466 -3.54445 4.8424 0
M  V30 3388 H 310.536 -2.23855 4.30136 0
M  V30 3389 N 311.879 -1.3236 -0.855495 0
M  V30 3390 C 312.827 -1.2118 -1.9854 0
M  V30 3391 C 313.821 -0.116788 -1.68997 0
M  V30 3392 O 315.027 -0.279657 -1.77814 0
M  V30 3393 H 311.402 -0.375608 -0.651477 0
M  V30 3394 H 313.373 -2.16743 -2.05098 0
M  V30 3395 C 312.122 -0.950849 -3.34446 0
M  V30 3396 H 311.445 -1.78563 -3.57708 0
M  V30 3397 H 312.885 -0.912863 -4.14057 0
M  V30 3398 C 311.344 0.346404 -3.35114 0
M  V30 3399 O 311.874 1.35855 -3.7803 0
M  V30 3400 N 310.08 0.36808 -2.88259 0
M  V30 3401 H 309.627 -0.456102 -2.5353 0
M  V30 3402 H 309.585 1.23591 -2.89089 0
M  V30 3403 N 313.357 1.07166 -1.15556 0
M  V30 3404 C 314.267 2.17947 -0.868116 0
M  V30 3405 C 315.283 1.73297 0.156297 0
M  V30 3406 O 316.459 2.01392 -0.0182327 0
M  V30 3407 C 313.524 3.44789 -0.36355 0
M  V30 3408 C 312.585 4.03996 -1.45209 0
M  V30 3409 C 311.818 5.24783 -0.971508 0
M  V30 3410 O 312.041 5.70109 0.182194 0
M  V30 3411 O 310.975 5.75715 -1.75603 0
M  V30 3412 H 314.801 2.4503 -1.79427 0
M  V30 3413 H 312.386 1.16539 -0.934824 0
M  V30 3414 H 314.268 4.21307 -0.0887113 0
M  V30 3415 H 312.943 3.19253 0.534708 0
M  V30 3416 H 311.85 3.29009 -1.78056 0
M  V30 3417 H 313.183 4.33808 -2.32533 0
M  V30 3418 N 314.835 0.952656 1.25548 0
M  V30 3419 C 316.112 0.523818 1.88456 0
M  V30 3420 C 316.492 -0.998871 1.85973 0
M  V30 3421 O 315.84 -1.86381 1.3219 0
M  V30 3422 C 316.05 1.0982 3.31271 0
M  V30 3423 C 317.398 1.17385 4.08051 0
M  V30 3424 O 318.422 1.04961 3.40384 0
M  V30 3425 O 317.281 1.36852 5.29088 0
M  V30 3426 H 314.375 0.172485 0.808813 0
M  V30 3427 H 316.921 1.04596 1.33633 0
M  V30 3428 H 315.693 2.1415 3.27499 0
M  V30 3429 H 315.316 0.559191 3.93648 0
M  V30 3430 N 316.313 -1.40141 0.720998 0
M  V30 3431 C 317.538 -2.05618 0.271258 0
M  V30 3432 C 317.963 -1.53978 -1.08039 0
M  V30 3433 O 317.321 -0.677463 -1.68167 0
M  V30 3434 C 317.369 -3.59609 0.267197 0
M  V30 3435 O 316.473 -4.05526 -0.749814 0
M  V30 3436 H 315.814 -0.651904 0.126162 0
M  V30 3437 H 318.344 -1.79439 0.982997 0
M  V30 3438 H 318.354 -4.0786 0.106744 0
M  V30 3439 H 317.029 -3.96559 1.25354 0
M  V30 3440 H 315.606 -3.68722 -0.556644 0
M  V30 3441 N 317.792 -0.46758 -1.50504 0
M  V30 3442 C 319.022 0.086288 -2.0642 0
M  V30 3443 C 319.43 1.34369 -1.33197 0
M  V30 3444 O 318.773 1.79431 -0.393747 0
M  V30 3445 C 318.835 0.443846 -3.5675 0
M  V30 3446 C 318.499 -0.711035 -4.51435 0
M  V30 3447 C 319.496 -1.59205 -4.94924 0
M  V30 3448 C 317.181 -0.900363 -4.94165 0
M  V30 3449 C 319.175 -2.64683 -5.79846 0
M  V30 3450 C 316.862 -1.95837 -5.7887 0
M  V30 3451 C 317.86 -2.82997 -6.21612 0
M  V30 3452 O 317.548 -3.86977 -7.0463 0
M  V30 3453 H 317.28 -0.00217814 -0.675996 0
M  V30 3454 H 319.834 -0.654346 -1.94698 0
M  V30 3455 H 318.064 1.23762 -3.6636 0
M  V30 3456 H 319.753 0.932386 -3.95046 0
M  V30 3457 H 320.519 -1.45745 -4.62583 0
M  V30 3458 H 316.398 -0.231427 -4.60419 0
M  V30 3459 H 319.942 -3.32745 -6.13128 0
M  V30 3460 H 315.839 -2.09305 -6.10624 0
M  V30 3461 H 316.607 -3.83923 -7.22873 0
M  V30 3462 N 319.27 1.56325 -0.20005 0
M  V30 3463 C 320.217 2.1932 0.718833 0
M  V30 3464 C 321.187 1.14198 1.20615 0
M  V30 3465 O 322.372 1.42469 1.26914 0
M  V30 3466 C 319.512 2.86041 1.93066 0
M  V30 3467 C 318.625 4.05702 1.48425 0
M  V30 3468 C 317.76 4.60266 2.65196 0
M  V30 3469 C 316.799 5.72273 2.17185 0
M  V30 3470 N 315.936 6.21221 3.27152 0
M  V30 3471 H 320.776 2.97486 0.17489 0
M  V30 3472 H 318.313 1.46911 0.0745794 0
M  V30 3473 H 320.271 3.22897 2.64184 0
M  V30 3474 H 318.901 2.1043 2.44783 0
M  V30 3475 H 317.953 3.74475 0.668755 0
M  V30 3476 H 319.265 4.86699 1.09204 0
M  V30 3477 H 318.419 4.99453 3.4443 0
M  V30 3478 H 317.158 3.78386 3.07693 0
M  V30 3479 H 316.163 5.3261 1.36407 0
M  V30 3480 H 317.388 6.55974 1.75713 0
M  V30 3481 H 315.334 5.42263 3.69171 0
M  V30 3482 H 315.251 6.97284 2.92116 0
M  V30 3483 H 316.519 6.65063 4.06585 0
M  V30 3484 N 320.748 -0.0735177 1.57428 0
M  V30 3485 C 322.025 -0.805903 1.78226 0
M  V30 3486 C 322.405 -1.95874 0.787189 0
M  V30 3487 O 321.753 -2.2779 -0.180029 0
M  V30 3488 C 321.963 -1.28045 3.24662 0
M  V30 3489 C 323.311 -1.71453 3.88444 0
M  V30 3490 O 324.335 -1.37616 3.28543 0
M  V30 3491 O 323.194 -2.34093 4.93825 0
M  V30 3492 H 320.288 -0.386041 0.73137 0
M  V30 3493 H 322.834 -0.0537269 1.69615 0
M  V30 3494 H 321.606 -0.455476 3.8864 0
M  V30 3495 H 321.229 -2.094 3.37991 0
M  V30 3496 N 322.226 -1.5378 -0.344866 0
M  V30 3497 C 323.451 -1.75211 -1.10977 0
M  V30 3498 C 323.876 -0.48936 -1.81623 0
M  V30 3499 O 323.234 0.557925 -1.72502 0
M  V30 3500 C 323.282 -2.93147 -2.09993 0
M  V30 3501 O 322.386 -2.63203 -3.17487 0
M  V30 3502 H 321.727 -0.581241 -0.321021 0
M  V30 3503 H 324.257 -2.00738 -0.395661 0
M  V30 3504 H 324.267 -3.19898 -2.53237 0
M  V30 3505 H 322.942 -3.84731 -1.5797 0
M  V30 3506 H 321.519 -2.47336 -2.79069 0
M  V30 3507 N 323.704 0.605807 -1.45491 0
M  V30 3508 C 324.932 1.39136 -1.5313 0
M  V30 3509 C 325.347 1.88082 -0.164507 0
M  V30 3510 O 324.704 1.62316 0.834247 0
M  V30 3511 C 324.755 2.59463 -2.51716 0
M  V30 3512 O 324.476 2.12551 -3.83084 0
M  V30 3513 C 325.977 3.52301 -2.6907 0
M  V30 3514 H 323.197 0.425849 -0.51855 0
M  V30 3515 H 325.741 0.73865 -1.90694 0
M  V30 3516 H 323.896 3.20772 -2.17219 0
M  V30 3517 H 324.31 2.90744 -4.36541 0
M  V30 3518 H 325.784 4.33271 -3.42024 0
M  V30 3519 H 326.261 4.02757 -1.75167 0
M  V30 3520 H 326.867 2.96845 -3.04571 0
M  V30 3521 N 325.182 1.32811 0.848464 0
M  V30 3522 C 326.112 1.24882 1.97299 0
M  V30 3523 C 327.093 0.131357 1.69592 0
M  V30 3524 O 328.278 0.319553 1.91553 0
M  V30 3525 C 325.408 0.97746 3.33261 0
M  V30 3526 C 324.362 2.05682 3.75338 0
M  V30 3527 C 323.688 1.63777 5.09 0
M  V30 3528 C 324.988 3.47254 3.90144 0
M  V30 3529 H 326.682 2.18966 2.04191 0
M  V30 3530 H 324.228 1.05413 0.981029 0
M  V30 3531 H 326.181 0.908513 4.1149 0
M  V30 3532 H 324.905 0.000980011 3.266 0
M  V30 3533 H 323.564 2.11603 2.99366 0
M  V30 3534 H 323.212 0.648569 4.98801 0
M  V30 3535 H 322.912 2.36 5.38124 0
M  V30 3536 H 324.436 1.5833 5.89715 0
M  V30 3537 H 325.85 3.43888 4.58709 0
M  V30 3538 H 324.247 4.1788 4.30693 0
M  V30 3539 H 325.317 3.86462 2.92874 0
M  V30 3540 N 326.66 -1.06551 1.16123 0
M  V30 3541 C 327.909 -1.78687 0.935622 0
M  V30 3542 C 328.222 -1.88056 -0.538001 0
M  V30 3543 O 329.428 -2.56794 -0.88143 0
M  V30 3544 C 327.884 -3.21143 1.62466 0
M  V30 3545 C 327.492 -3.19949 3.13587 0
M  V30 3546 C 329.236 -3.9783 1.48092 0
M  V30 3547 C 327.143 -4.57108 3.75241 0
M  V30 3548 H 326.073 -0.669712 0.346412 0
M  V30 3549 H 328.724 -1.19534 1.39226 0
M  V30 3550 H 327.106 -3.80539 1.09572 0
M  V30 3551 H 328.28 -2.70151 3.73303 0
M  V30 3552 H 326.595 -2.5676 3.27816 0
M  V30 3553 H 329.192 -4.99217 1.91538 0
M  V30 3554 H 329.535 -4.14078 0.429507 0
M  V30 3555 H 330.068 -3.4495 1.98127 0
M  V30 3556 H 326.807 -4.46065 4.80319 0
M  V30 3557 H 326.327 -5.07111 3.20309 0
M  V30 3558 H 328.006 -5.26069 3.76644 0
M  V30 3559 N 328.138 -0.959301 -1.25041 0
M  V30 3560 C 329.071 -0.427418 -2.24161 0
M  V30 3561 C 330.049 0.493837 -1.54919 0
M  V30 3562 O 331.233 0.427144 -1.83597 0
M  V30 3563 C 328.36 0.383893 -3.36517 0
M  V30 3564 C 327.406 -0.478431 -4.23808 0
M  V30 3565 S 328.239 -1.91353 -5.00144 0
M  V30 3566 C 329.395 -1.11077 -6.15965 0
M  V30 3567 H 329.628 -1.26743 -2.6893 0
M  V30 3568 H 327.161 -0.763714 -1.34189 0
M  V30 3569 H 329.119 0.846039 -4.01687 0
M  V30 3570 H 327.78 1.19878 -2.90324 0
M  V30 3571 H 326.973 0.14406 -5.03794 0
M  V30 3572 H 326.575 -0.87597 -3.63597 0
M  V30 3573 H 328.867 -0.361699 -6.76534 0
M  V30 3574 H 329.81 -1.88472 -6.82557 0
M  V30 3575 H 330.218 -0.638843 -5.60873 0
M  V30 3576 N 329.616 1.39756 -0.72842 0
M  V30 3577 C 330.548 2.29157 -0.0446202 0
M  V30 3578 C 331.561 1.46484 0.710367 0
M  V30 3579 O 332.75 1.69632 0.55562 0
M  V30 3580 C 329.85 3.24987 0.961071 0
M  V30 3581 C 329.023 4.36572 0.268967 0
M  V30 3582 C 328.082 5.12756 1.18184 0
M  V30 3583 O 327.108 5.6534 0.661794 0
M  V30 3584 N 328.31 5.23331 2.51206 0
M  V30 3585 H 331.075 2.88482 -0.812295 0
M  V30 3586 H 328.636 1.51265 -0.577098 0
M  V30 3587 H 330.628 3.72827 1.57423 0
M  V30 3588 H 329.198 2.66739 1.63 0
M  V30 3589 H 328.418 3.90694 -0.524574 0
M  V30 3590 H 329.706 5.08363 -0.210934 0
M  V30 3591 H 329.104 4.82116 2.9594 0
M  V30 3592 H 327.661 5.74634 3.07634 0
M  V30 3593 N 331.094 0.475555 1.50254 0
M  V30 3594 C 332.024 -0.30611 2.31485 0
M  V30 3595 C 333.005 -0.986228 1.38591 0
M  V30 3596 O 334.19 -0.982541 1.67511 0
M  V30 3597 C 331.32 -1.38588 3.1845 0
M  V30 3598 C 330.274 -0.827115 4.19932 0
M  V30 3599 C 329.6 -2.00551 4.95665 0
M  V30 3600 C 330.9 0.16463 5.2204 0
M  V30 3601 H 332.594 0.371866 2.97082 0
M  V30 3602 H 330.14 0.180282 1.42867 0
M  V30 3603 H 332.093 -1.94023 3.74076 0
M  V30 3604 H 330.817 -2.09269 2.50747 0
M  V30 3605 H 329.476 -0.294702 3.65414 0
M  V30 3606 H 329.124 -2.6994 4.2443 0
M  V30 3607 H 328.824 -1.63784 5.64313 0
M  V30 3608 H 330.348 -2.56468 5.54127 0
M  V30 3609 H 331.762 -0.300699 5.72511 0
M  V30 3610 H 330.159 0.446813 5.98434 0
M  V30 3611 H 331.229 1.08905 4.72512 0
M  V30 3612 N 332.573 -1.56217 0.208337 0
M  V30 3613 C 333.503 -2.22694 -0.702116 0
M  V30 3614 C 334.484 -1.19432 -1.2112 0
M  V30 3615 O 335.669 -1.47978 -1.25762 0
M  V30 3616 C 332.799 -2.8966 -1.9161 0
M  V30 3617 C 331.753 -3.9928 -1.5414 0
M  V30 3618 C 331.079 -4.53476 -2.83308 0
M  V30 3619 C 332.379 -5.17012 -0.741339 0
M  V30 3620 H 334.073 -2.99034 -0.147898 0
M  V30 3621 H 331.619 -1.43831 -0.0696951 0
M  V30 3622 H 333.572 -3.34852 -2.55836 0
M  V30 3623 H 332.296 -2.10746 -2.49507 0
M  V30 3624 H 330.955 -3.54799 -0.922668 0
M  V30 3625 H 330.603 -3.71308 -3.39322 0
M  V30 3626 H 330.303 -5.27451 -2.58976 0
M  V30 3627 H 331.827 -5.01378 -3.485 0
M  V30 3628 H 333.241 -5.58667 -1.28699 0
M  V30 3629 H 331.638 -5.97137 -0.595627 0
M  V30 3630 H 332.708 -4.8423 0.254851 0
M  V30 3631 N 334.051 0.0651679 -1.57465 0
M  V30 3632 C 335.467 0.420105 -1.53972 0
M  V30 3633 C 335.667 1.78782 -0.929474 0
M  V30 3634 O 334.723 2.46771 -0.534839 0
M  V30 3635 C 336.036 0.355084 -2.98596 0
M  V30 3636 C 337.584 0.434792 -3.09965 0
M  V30 3637 C 338.059 0.399609 -4.56253 0
M  V30 3638 N 339.55 0.459488 -4.60915 0
M  V30 3639 C 340.285 0.454584 -5.71595 0
M  V30 3640 N 339.781 0.404102 -6.9162 0
M  V30 3641 N 341.574 0.501635 -5.59857 0
M  V30 3642 H 333.725 -0.830328 -1.95498 0
M  V30 3643 H 335.988 -0.312244 -0.895102 0
M  V30 3644 H 335.694 -0.583357 -3.46828 0
M  V30 3645 H 335.568 1.16275 -3.58831 0
M  V30 3646 H 337.955 1.36366 -2.61703 0
M  V30 3647 H 338.036 -0.40157 -2.52628 0
M  V30 3648 H 337.68 -0.525436 -5.05175 0
M  V30 3649 H 337.61 1.25359 -5.11461 0
M  V30 3650 H 340.101 0.502482 -3.74544 0
M  V30 3651 H 340.414 0.404468 -7.71741 0
M  V30 3652 H 338.759 0.37069 -6.94011 0
M  V30 3653 H 341.95 0.538812 -4.64989 0
M  V30 3654 H 342.123 0.494345 -6.46112 0
M  V30 3655 N 335.529 1.53961 0.336706 0
M  V30 3656 C 336.806 1.62171 1.09361 0
M  V30 3657 C 337.186 0.447263 2.06307 0
M  V30 3658 O 336.534 -0.559802 2.21537 0
M  V30 3659 C 336.744 2.98565 1.80721 0
M  V30 3660 C 338.092 3.54157 2.34218 0
M  V30 3661 O 339.116 3.00784 1.90807 0
M  V30 3662 O 337.975 4.47528 3.13657 0
M  V30 3663 H 335.069 0.6562 0.503319 0
M  V30 3664 H 337.615 1.66307 0.33765 0
M  V30 3665 H 336.387 3.75482 1.10132 0
M  V30 3666 H 336.01 2.9805 2.63158 0
M  V30 3667 N 337.007 -0.598083 1.45811 0
M  V30 3668 C 337.955 -1.72932 1.55555 0
M  V30 3669 C 338.949 -1.63984 0.424921 0
M  V30 3670 O 340.155 -1.69663 0.601205 0
M  V30 3671 H 336.53 -0.571489 0.488779 0
M  V30 3672 H 338.501 -1.61842 2.50699 0
M  V30 3673 C 337.25 -3.11318 1.54843 0
M  V30 3674 H 336.573 -3.18867 2.41172 0
M  V30 3675 H 338.013 -3.90274 1.65717 0
M  V30 3676 C 336.472 -3.3578 0.274427 0
M  V30 3677 O 337.002 -3.9654 -0.641778 0
M  V30 3678 N 335.208 -2.90119 0.167139 0
M  V30 3679 H 334.755 -2.40855 0.913596 0
M  V30 3680 H 334.713 -3.0686 -0.684435 0
M  V30 3681 N 338.485 -1.33259 -0.841409 0
M  V30 3682 C 339.415 -1.25926 -1.96634 0
M  V30 3683 C 340.396 -0.140349 -1.6952 0
M  V30 3684 O 341.581 -0.329707 -1.91381 0
M  V30 3685 C 338.711 -0.99512 -3.32738 0
M  V30 3686 C 337.665 -2.0767 -3.74242 0
M  V30 3687 C 336.991 -1.66474 -5.08125 0
M  V30 3688 C 338.291 -3.49318 -3.88297 0
M  V30 3689 H 339.985 -2.20046 -2.03027 0
M  V30 3690 H 337.531 -1.05931 -0.975425 0
M  V30 3691 H 339.484 -0.930323 -4.11002 0
M  V30 3692 H 338.208 -0.0183004 -3.26595 0
M  V30 3693 H 336.867 -2.13187 -2.98239 0
M  V30 3694 H 336.515 -0.675012 -4.9845 0
M  V30 3695 H 336.215 -2.3885 -5.36865 0
M  V30 3696 H 337.739 -1.61455 -5.88867 0
M  V30 3697 H 339.153 -3.46316 -4.56879 0
M  V30 3698 H 337.55 -4.20158 -4.28471 0
M  V30 3699 H 338.62 -3.8801 -2.9082 0
M  V30 3700 N 339.963 1.05934 -1.16686 0
M  V30 3701 C 341.191 1.8249 -0.974929 0
M  V30 3702 C 341.606 1.82679 0.476861 0
M  V30 3703 O 340.963 1.2486 1.33103 0
M  V30 3704 C 341.014 3.28943 -1.49929 0
M  V30 3705 O 340.735 3.28886 -2.89423 0
M  V30 3706 C 342.236 4.22215 -1.35089 0
M  V30 3707 H 339.456 0.575295 -0.345365 0
M  V30 3708 H 342 1.33631 -1.548 0
M  V30 3709 H 340.155 3.751 -0.968423 0
M  V30 3710 H 340.569 4.20493 -3.13506 0
M  V30 3711 H 342.043 5.22987 -1.76603 0
M  V30 3712 H 342.52 4.38195 -0.296935 0
M  V30 3713 H 343.126 3.81907 -1.87155 0
M  V30 3714 N 341.441 0.965919 1.2453 0
M  V30 3715 C 342.371 0.513476 2.27784 0
M  V30 3716 C 343.352 -0.445974 1.6415 0
M  V30 3717 O 344.537 -0.342485 1.91156 0
M  V30 3718 C 341.667 -0.198839 3.4673 0
M  V30 3719 C 340.621 0.676456 4.2262 0
M  V30 3720 C 339.947 -0.167248 5.34438 0
M  V30 3721 C 341.247 1.96017 4.84123 0
M  V30 3722 H 342.941 1.3765 2.65881 0
M  V30 3723 H 340.487 0.663321 1.27813 0
M  V30 3724 H 342.44 -0.526567 4.18097 0
M  V30 3725 H 341.164 -1.0962 3.07654 0
M  V30 3726 H 339.823 0.98743 3.53052 0
M  V30 3727 H 339.471 -1.0647 4.91603 0
M  V30 3728 H 339.171 0.415181 5.86131 0
M  V30 3729 H 340.695 -0.489688 6.08633 0
M  V30 3730 H 342.109 1.69814 5.47573 0
M  V30 3731 H 340.506 2.48918 5.4604 0
M  V30 3732 H 341.576 2.65622 4.05676 0
M  V30 3733 N 342.919 -1.39368 0.735821 0
M  V30 3734 C 344.165 -2.01272 0.293439 0
M  V30 3735 C 344.52 -1.57344 -1.10728 0
M  V30 3736 O 343.813 -0.792744 -1.74431 0
M  V30 3737 C 344.007 -3.5583 0.334651 0
M  V30 3738 C 343.836 -4.14764 1.73784 0
M  V30 3739 C 342.606 -4.47315 2.35026 0
M  V30 3740 C 344.804 -4.38246 2.69157 0
M  V30 3741 N 342.786 -4.91756 3.6749 0
M  V30 3742 C 344.157 -4.849 3.86357 0
M  V30 3743 C 346.212 -4.20315 2.66908 0
M  V30 3744 C 344.915 -5.15505 5.01645 0
M  V30 3745 C 346.941 -4.52033 3.8134 0
M  V30 3746 C 346.303 -4.98895 4.97276 0
M  V30 3747 H 342.402 -0.766756 0.153652 0
M  V30 3748 H 344.986 -1.69276 0.961967 0
M  V30 3749 H 343.157 -3.87212 -0.303527 0
M  V30 3750 H 344.889 -4.04503 -0.126358 0
M  V30 3751 H 341.644 -4.35143 1.86943 0
M  V30 3752 H 342.068 -5.18333 4.35499 0
M  V30 3753 H 346.71 -3.83287 1.78468 0
M  V30 3754 H 344.428 -5.51437 5.90713 0
M  V30 3755 H 348.014 -4.39781 3.80899 0
M  V30 3756 H 346.894 -5.22973 5.84353 0
M  V30 3757 N 344.397 -0.483516 -1.5 0
M  V30 3758 C 345.625 0.0644831 -2.06799 0
M  V30 3759 C 346.04 1.32399 -1.34596 0
M  V30 3760 O 345.397 1.77626 -0.418946 0
M  V30 3761 C 345.448 0.339927 -3.59898 0
M  V30 3762 O 345.169 -0.869635 -4.29382 0
M  V30 3763 C 346.67 0.933515 -4.33359 0
M  V30 3764 H 343.89 -0.0126333 -0.670881 0
M  V30 3765 H 346.434 -0.675864 -1.93009 0
M  V30 3766 H 344.589 1.03022 -3.7345 0
M  V30 3767 H 345.003 -0.62179 -5.20801 0
M  V30 3768 H 346.477 1.07593 -5.41413 0
M  V30 3769 H 346.954 1.92685 -3.94676 0
M  V30 3770 H 347.56 0.281221 -4.24369 0
M  V30 3771 N 345.875 1.56104 -0.216619 0
M  V30 3772 C 347.1 2.0301 0.424462 0
M  V30 3773 C 347.525 1.0955 1.52907 0
M  V30 3774 O 346.883 0.0827914 1.81111 0
M  V30 3775 C 346.931 3.4819 0.937883 0
M  V30 3776 O 346.035 3.57865 2.04955 0
M  V30 3777 H 345.376 0.656925 0.0966755 0
M  V30 3778 H 347.906 2.01859 -0.33381 0
M  V30 3779 H 347.916 3.88413 1.24897 0
M  V30 3780 H 346.591 4.15699 0.129387 0
M  V30 3781 H 345.168 3.29527 1.74546 0
M  V30 3782 N 347.353 -0.0568162 1.57498 0
M  V30 3783 C 348.63 -0.786954 1.79071 0
M  V30 3784 C 349.01 -1.95028 0.80792 0
M  V30 3785 O 348.358 -2.27968 -0.155858 0
M  V30 3786 C 348.568 -1.24594 3.26002 0
M  V30 3787 C 349.916 -1.67323 3.90241 0
M  V30 3788 O 350.94 -1.34124 3.29984 0
M  V30 3789 O 349.799 -2.28842 4.9628 0
M  V30 3790 H 346.893 -0.378262 0.735423 0
M  V30 3791 H 349.439 -0.035734 1.69662 0
M  V30 3792 H 348.211 -0.41423 3.89101 0
M  V30 3793 H 347.834 -2.05803 3.40192 0
M  V30 3794 N 348.832 -1.54138 -0.328536 0
M  V30 3795 C 349.764 -1.79509 -1.4251 0
M  V30 3796 C 350.777 -0.67688 -1.48061 0
M  V30 3797 O 351.966 -0.953898 -1.50874 0
M  V30 3798 C 349.066 -1.89337 -2.81078 0
M  V30 3799 C 348.239 -3.19443 -2.98789 0
M  V30 3800 C 347.298 -3.20036 -4.17688 0
M  V30 3801 O 346.324 -3.93697 -4.11086 0
M  V30 3802 N 347.526 -2.43467 -5.26976 0
M  V30 3803 H 350.291 -2.74139 -1.21111 0
M  V30 3804 H 347.852 -1.53373 -0.518499 0
M  V30 3805 H 349.844 -1.87167 -3.58818 0
M  V30 3806 H 348.414 -1.01826 -2.95551 0
M  V30 3807 H 347.634 -3.34614 -2.08391 0
M  V30 3808 H 348.922 -4.05354 -3.07515 0
M  V30 3809 H 348.32 -1.83201 -5.35214 0
M  V30 3810 H 346.877 -2.4708 -6.03154 0
M  V30 3811 N 350.31 0.590341 -1.46126 0
M  V30 3812 C 351.242 1.71427 -1.52136 0
M  V30 3813 C 352.255 1.57542 -0.41042 0
M  V30 3814 O 353.444 1.65106 -0.678389 0
M  V30 3815 C 350.544 3.09605 -1.37834 0
M  V30 3816 C 349.717 3.49566 -2.62912 0
M  V30 3817 C 348.776 4.66773 -2.42918 0
M  V30 3818 O 347.802 4.73019 -3.1661 0
M  V30 3819 N 349.004 5.61161 -1.4859 0
M  V30 3820 H 351.769 1.66728 -2.49042 0
M  V30 3821 H 349.33 0.776113 -1.42085 0
M  V30 3822 H 351.322 3.85796 -1.22243 0
M  V30 3823 H 349.892 3.08714 -0.491393 0
M  V30 3824 H 349.112 2.63158 -2.93499 0
M  V30 3825 H 350.4 3.73028 -3.46017 0
M  V30 3826 H 349.798 5.58844 -0.87808 0
M  V30 3827 H 348.355 6.36814 -1.38965 0
M  V30 3828 N 351.788 1.33704 0.83433 0
M  V30 3829 C 353.065 1.16011 1.57483 0
M  V30 3830 C 353.445 -0.27176 2.09343 0
M  V30 3831 O 352.793 -1.27146 1.89858 0
M  V30 3832 C 353.003 2.20507 2.70514 0
M  V30 3833 C 354.351 2.54898 3.39577 0
M  V30 3834 O 355.375 2.19209 2.80759 0
M  V30 3835 O 354.234 3.16158 4.45765 0
M  V30 3836 H 351.328 0.448992 0.694503 0
M  V30 3837 H 353.874 1.453 0.876691 0
M  V30 3838 H 352.646 3.16667 2.29865 0
M  V30 3839 H 352.269 1.92329 3.47987 0
M  V30 3840 N 353.266 -1.05314 1.17247 0
M  V30 3841 C 354.176 -2.16538 0.90268 0
M  V30 3842 C 355.192 -1.73523 -0.128707 0
M  V30 3843 O 356.368 -2.01337 0.0502701 0
M  V30 3844 C 353.433 -3.44167 0.418356 0
M  V30 3845 C 352.494 -4.01635 1.51618 0
M  V30 3846 C 351.727 -5.23171 1.05487 0
M  V30 3847 O 351.95 -5.70327 -0.0914715 0
M  V30 3848 O 350.884 -5.72848 1.8474 0
M  V30 3849 H 354.71 -2.42145 1.83302 0
M  V30 3850 H 352.295 -1.15037 0.953246 0
M  V30 3851 H 354.177 -4.21112 0.155726 0
M  V30 3852 H 352.852 -3.20063 -0.48385 0
M  V30 3853 H 351.759 -3.26135 1.83268 0
M  V30 3854 H 353.092 -4.30053 2.39405 0
M  V30 3855 N 354.744 -0.972509 -1.24016 0
M  V30 3856 C 355.654 -0.5143 -2.28893 0
M  V30 3857 C 356.67 0.427078 -1.68677 0
M  V30 3858 O 357.846 0.298939 -1.99169 0
M  V30 3859 C 354.911 0.183598 -3.46214 0
M  V30 3860 C 353.972 -0.798202 -4.21814 0
M  V30 3861 C 353.205 -0.133514 -5.33533 0
M  V30 3862 O 353.428 1.07714 -5.60137 0
M  V30 3863 O 352.362 -0.828103 -5.96176 0
M  V30 3864 H 356.188 -1.38629 -2.70214 0
M  V30 3865 H 353.773 -0.739769 -1.29799 0
M  V30 3866 H 355.655 0.575433 -4.17453 0
M  V30 3867 H 354.33 1.03048 -3.0686 0
M  V30 3868 H 353.237 -1.24059 -3.52931 0
M  V30 3869 H 354.57 -1.61364 -4.64997 0
M  V30 3870 N 356.222 1.38976 -0.743202 0
M  V30 3871 C 357.185 2.28901 -0.117014 0
M  V30 3872 C 358.185 1.46698 0.658503 0
M  V30 3873 O 359.375 1.67274 0.486305 0
M  V30 3874 C 356.507 3.30309 0.84315 0
M  V30 3875 H 357.7 2.8578 -0.909373 0
M  V30 3876 H 355.253 1.47761 -0.509547 0
M  V30 3877 H 355.988 2.785 1.66157 0
M  V30 3878 H 355.773 3.91029 0.289594 0
M  V30 3879 H 357.263 3.97577 1.2776 0
M  V30 3880 N 357.7 0.491464 1.49741 0
M  V30 3881 C 358.948 -0.0563141 2.02022 0
M  V30 3882 C 359.269 -1.38363 1.37407 0
M  V30 3883 O 358.539 -1.88702 0.526166 0
M  V30 3884 H 357.119 -0.0238014 0.746621 0
M  V30 3885 H 359.781 0.646533 1.83864 0
M  V30 3886 H 358.877 -0.192967 3.11503 0
M  V30 3887 N 359.178 -1.55987 0.224894 0
M  V30 3888 C 360.088 -2.24066 -0.69511 0
M  V30 3889 C 361.104 -1.24939 -1.21104 0
M  V30 3890 O 362.28 -1.5776 -1.25195 0
M  V30 3891 C 359.345 -2.90983 -1.88493 0
M  V30 3892 C 358.406 -4.05462 -1.41064 0
M  V30 3893 C 357.639 -4.69179 -2.54375 0
M  V30 3894 O 357.862 -4.31895 -3.72589 0
M  V30 3895 O 356.796 -5.58108 -2.25386 0
M  V30 3896 H 360.622 -3.03353 -0.145149 0
M  V30 3897 H 358.207 -1.49399 -0.00569476 0
M  V30 3898 H 360.089 -3.33209 -2.57972 0
M  V30 3899 H 358.764 -2.14653 -2.42293 0
M  V30 3900 H 357.671 -3.67798 -0.683774 0
M  V30 3901 H 359.004 -4.83545 -0.918985 0
M  V30 3902 N 360.656 0.0484629 -1.57525 0
M  V30 3903 C 361.904 0.741657 -1.88 0
M  V30 3904 C 362.225 1.76918 -0.820054 0
M  V30 3905 O 361.495 1.95335 0.148661 0
M  V30 3906 H 360.075 0.276908 -0.69378 0
M  V30 3907 H 362.737 0.019013 -1.94891 0
M  V30 3908 H 361.833 1.24336 -2.86264 0
M  V30 3909 N 362.134 1.5431 0.320358 0
M  V30 3910 C 363.082 1.84647 1.4145 0
M  V30 3911 C 364.076 0.718624 1.53402 0
M  V30 3912 O 365.282 0.902335 1.5575 0
M  V30 3913 H 361.657 0.585349 0.472091 0
M  V30 3914 H 363.628 2.7614 1.13089 0
M  V30 3915 C 362.377 2.09341 2.77617 0
M  V30 3916 H 361.7 2.9559 2.69196 0
M  V30 3917 H 363.14 2.3452 3.53237 0
M  V30 3918 C 361.599 0.885939 3.25043 0
M  V30 3919 O 362.129 0.0967891 4.01583 0
M  V30 3920 N 360.335 0.696682 2.82125 0
M  V30 3921 H 359.882 1.34006 2.2 0
M  V30 3922 H 359.84 -0.109712 3.14209 0
M  V30 3923 O 363.651 -0.466303 1.54622 0
M  V30 3924 H 364.342 -1.12058 1.57996 0
M  V30 END ATOM
M  V30 BEGIN BOND
M  V30 END BOND
M  V30 END CTAB
M  END
$$$$
