drugbank_target|Q05209 Tyrosine-protein phosphatase non-receptor type 12 (DB01133)
 OpenBabel12092121233D

  0  0  0     0  0            999 V3000
M  V30 BEGIN CTAB
M  V30 COUNTS 12195 12346 0 0 0
M  V30 BEGIN ATOM
M  V30 1 H -0.908 1.98254 -0.117106 0
M  V30 2 N 0 1.576 0 0
M  V30 3 C 0.933 2.03868 1.02534 0
M  V30 4 C 1.911 0.928543 1.3348 0
M  V30 5 O 3.095 1.19667 1.45644 0
M  V30 6 C 0.222 2.43627 2.35294 0
M  V30 7 C -0.732 3.65373 2.2001 0
M  V30 8 S 0.101 5.13292 1.52614 0
M  V30 9 C 1.257 5.56322 2.86805 0
M  V30 10 H 1.49 2.90518 0.631377 0
M  V30 11 H -0.977 1.52953 0.210867 0
M  V30 12 H 0.981 2.67203 3.11629 0
M  V30 13 H -0.358 1.57376 2.7183 0
M  V30 14 H -1.165 3.90944 3.18086 0
M  V30 15 H -1.563 3.418 1.51819 0
M  V30 16 H 0.729 5.58782 3.83104 0
M  V30 17 H 1.672 6.56266 2.65933 0
M  V30 18 H 2.08 4.83886 2.90714 0
M  V30 19 N 1.4781 -0.272755 1.55222 0
M  V30 20 C 2.3881 -1.35918 1.91216 0
M  V30 21 C 3.4041 -1.54026 0.809436 0
M  V30 22 O 4.5801 -1.68148 1.10852 0
M  V30 23 C 1.6451 -2.69834 2.17693 0
M  V30 24 C 0.7061 -2.6047 3.41253 0
M  V30 25 C -0.0609 -3.88 3.66458 0
M  V30 26 O 0.1621 -4.88693 2.94169 0
M  V30 27 O -0.9039 -3.88189 4.59992 0
M  V30 28 H 2.9221 -1.0839 2.83699 0
M  V30 29 H 0.5071 -0.471301 1.41771 0
M  V30 30 H 2.3891 -3.49017 2.36147 0
M  V30 31 H 1.0641 -2.97148 1.28392 0
M  V30 32 H -0.0289 -1.79663 3.28134 0
M  V30 33 H 1.3041 -2.38106 4.30774 0
M  V30 34 N 2.9562 -1.48159 -0.537278 0
M  V30 35 C 3.8882 -1.58218 -1.65831 0
M  V30 36 C 4.9012 -0.466948 -1.5596 0
M  V30 37 O 6.0902 -0.73747 -1.62553 0
M  V30 38 C 3.1902 -1.48906 -3.04434 0
M  V30 39 C 2.3632 -2.75343 -3.3986 0
M  V30 40 C 1.4222 -2.59588 -4.57712 0
M  V30 41 O 0.4482 -3.33457 -4.61297 0
M  V30 42 N 1.6502 -1.68724 -5.55439 0
M  V30 43 H 4.4152 -2.54891 -1.57641 0
M  V30 44 H 1.9762 -1.4479 -0.724386 0
M  V30 45 H 3.9682 -1.36072 -3.81139 0
M  V30 46 H 2.5382 -0.602368 -3.06741 0
M  V30 47 H 1.7582 -3.02795 -2.52406 0
M  V30 48 H 3.0462 -3.5924 -3.60311 0
M  V30 49 H 2.4442 -1.07898 -5.55315 0
M  V30 50 H 1.0012 -1.61832 -6.3139 0
M  V30 51 N 4.4343 0.785586 -1.36625 0
M  V30 52 C 5.6803 1.54591 -1.31261 0
M  V30 53 C 6.0133 1.93906 0.106823 0
M  V30 54 O 5.2883 1.63007 1.06108 0
M  V30 55 C 5.5713 2.82038 -2.23889 0
M  V30 56 C 5.4243 2.49066 -3.74548 0
M  V30 57 C 6.7433 3.83887 -2.15217 0
M  V30 58 H 3.8623 0.560846 -0.478143 0
M  V30 59 H 6.5043 0.902278 -1.67209 0
M  V30 60 H 4.6543 3.36961 -1.93363 0
M  V30 61 H 6.3263 2.00164 -4.15611 0
M  V30 62 H 4.5693 1.81954 -3.93796 0
M  V30 63 H 5.2403 3.40109 -4.34776 0
M  V30 64 H 7.7163 3.38421 -2.42096 0
M  V30 65 H 6.5923 4.70806 -2.82193 0
M  V30 66 H 6.8533 4.27131 -1.14068 0
M  V30 67 N 5.9124 1.20967 1.01018 0
M  V30 68 C 6.8224 0.980157 2.13143 0
M  V30 69 C 7.8384 -0.0660665 1.73875 0
M  V30 70 O 9.0144 0.122821 2.01025 0
M  V30 71 C 6.0794 0.54216 3.42435 0
M  V30 72 C 5.1404 1.65999 3.95908 0
M  V30 73 C 4.3734 1.2428 5.19028 0
M  V30 74 O 4.5964 0.114196 5.70286 0
M  V30 75 O 3.5304 2.05271 5.65816 0
M  V30 76 H 7.3564 1.91913 2.35379 0
M  V30 77 H 4.9414 0.994099 1.11526 0
M  V30 78 H 6.8234 0.30744 4.20277 0
M  V30 79 H 5.4984 -0.36815 3.216 0
M  V30 80 H 4.4054 1.94906 3.19316 0
M  V30 81 H 5.7384 2.54753 4.21143 0
M  V30 82 N 7.3905 -1.2043 1.01659 0
M  V30 83 C 8.6395 -1.89118 0.701237 0
M  V30 84 C 8.9525 -1.79705 -0.772358 0
M  V30 85 O 10.1585 -2.43528 -1.20026 0
M  V30 86 C 8.6145 -3.39168 1.20388 0
M  V30 87 C 8.2225 -3.57166 2.70438 0
M  V30 88 C 9.9665 -4.1341 0.963953 0
M  V30 89 C 7.8735 -5.01042 3.14183 0
M  V30 90 H 6.8035 -0.708267 0.2586 0
M  V30 91 H 9.4545 -1.36239 1.22927 0
M  V30 92 H 7.8365 -3.91369 0.603824 0
M  V30 93 H 9.0105 -3.15351 3.35992 0
M  V30 94 H 7.3255 -2.96294 2.92572 0
M  V30 95 H 9.9225 -5.19491 1.26621 0
M  V30 96 H 10.2655 -4.16181 -0.099578 0
M  V30 97 H 10.7985 -3.67309 1.52738 0
M  V30 98 H 7.5375 -5.03426 4.19812 0
M  V30 99 H 7.0575 -5.43668 2.53348 0
M  V30 100 H 8.7365 -5.69623 3.0682 0
M  V30 101 N 8.8686 -0.792821 -1.36206 0
M  V30 102 C 9.7986 -0.207853 -2.32573 0
M  V30 103 C 10.7796 0.659055 -1.56813 0
M  V30 104 O 11.9646 0.592176 -1.84951 0
M  V30 105 C 9.0946 0.655449 -3.41059 0
M  V30 106 C 8.0486 -0.111842 -4.27854 0
M  V30 107 C 7.3746 0.872274 -5.27537 0
M  V30 108 C 8.6746 -1.30299 -5.05786 0
M  V30 109 H 10.3686 -1.01294 -2.81744 0
M  V30 110 H 7.9146 -0.48854 -1.3546 0
M  V30 111 H 9.8676 1.07464 -4.07467 0
M  V30 112 H 8.5916 1.49328 -2.90463 0
M  V30 113 H 7.2506 -0.512053 -3.63006 0
M  V30 114 H 6.8986 1.70523 -4.73214 0
M  V30 115 H 6.5986 0.363291 -5.86476 0
M  V30 116 H 8.1226 1.28996 -5.96818 0
M  V30 117 H 9.5366 -0.959379 -5.65216 0
M  V30 118 H 7.9336 -1.7455 -5.74154 0
M  V30 119 H 9.0036 -2.09663 -4.37229 0
M  V30 120 N 10.3467 1.47872 -0.545128 0
M  V30 121 C 11.7627 1.5829 -0.204032 0
M  V30 122 C 11.9627 1.54529 1.29317 0
M  V30 123 O 11.0187 1.44232 2.07252 0
M  V30 124 C 12.3317 2.89304 -0.819987 0
M  V30 125 C 13.8797 3.02864 -0.790105 0
M  V30 126 C 14.3547 4.3656 -1.38491 0
M  V30 127 N 15.8457 4.43165 -1.34755 0
M  V30 128 C 16.5807 5.45153 -1.77753 0
M  V30 129 N 16.0767 6.54016 -2.2855 0
M  V30 130 N 17.8697 5.36125 -1.68897 0
M  V30 131 H 10.0207 1.4856 -1.51802 0
M  V30 132 H 12.2837 0.706305 -0.632327 0
M  V30 133 H 11.9897 2.97757 -1.87173 0
M  V30 134 H 11.8637 3.75957 -0.305915 0
M  V30 135 H 14.2507 2.94014 0.252913 0
M  V30 136 H 14.3317 2.17782 -1.34181 0
M  V30 137 H 13.9757 4.46164 -2.42693 0
M  V30 138 H 13.9057 5.20353 -0.808754 0
M  V30 139 H 16.3967 3.65083 -0.975855 0
M  V30 140 H 16.7097 7.27994 -2.59314 0
M  V30 141 H 15.0547 6.54938 -2.32553 0
M  V30 142 H 18.2457 4.49975 -1.28998 0
M  V30 143 H 18.4187 6.15472 -2.02726 0
M  V30 144 N 11.8248 0.280983 1.55075 0
M  V30 145 C 12.7718 -0.603937 2.22758 0
M  V30 146 C 13.7418 -1.1452 1.20309 0
M  V30 147 O 14.9268 -1.19343 1.48869 0
M  V30 148 C 12.0668 -1.77947 2.95684 0
M  V30 149 C 11.1798 -1.2715 4.12864 0
M  V30 150 C 10.3148 -2.4093 4.7342 0
M  V30 151 C 9.3538 -1.87165 5.82783 0
M  V30 152 N 8.4908 -2.94441 6.37377 0
M  V30 153 H 13.3308 -0.020124 2.97993 0
M  V30 154 H 10.8678 0.00183425 1.471 0
M  V30 155 H 12.8258 -2.47055 3.36184 0
M  V30 156 H 11.4558 -2.33522 2.22861 0
M  V30 157 H 10.5078 -0.473331 3.77444 0
M  V30 158 H 11.8198 -0.837751 4.91715 0
M  V30 159 H 10.9738 -3.18021 5.1667 0
M  V30 160 H 9.7128 -2.87623 3.93859 0
M  V30 161 H 8.7178 -1.08556 5.38976 0
M  V30 162 H 9.9428 -1.41401 6.64216 0
M  V30 163 H 7.8888 -3.40505 5.60707 0
M  V30 164 H 7.8058 -2.55501 7.11516 0
M  V30 165 H 9.0738 -3.71489 6.85285 0
M  V30 166 N 13.3029 -1.57598 0.00835791 0
M  V30 167 C 14.5499 -1.90928 -0.674732 0
M  V30 168 C 14.8779 -0.88277 -1.73313 0
M  V30 169 O 14.1329 0.111294 -1.95383 0
M  V30 170 C 14.4319 -3.3101 -1.34787 0
M  V30 171 C 14.0979 -4.48922 -0.421861 0
M  V30 172 C 12.7599 -4.8091 -0.166927 0
M  V30 173 C 15.1119 -5.20755 0.215211 0
M  V30 174 C 12.4399 -5.821 0.733232 0
M  V30 175 C 14.7919 -6.22905 1.1033 0
M  V30 176 C 13.4559 -6.53346 1.36733 0
M  V30 177 H 12.7259 -0.698656 -0.246902 0
M  V30 178 H 15.3729 -1.91387 0.0656779 0
M  V30 179 H 13.6779 -3.26714 -2.16253 0
M  V30 180 H 15.3749 -3.54061 -1.8826 0
M  V30 181 H 11.9649 -4.23934 -0.630729 0
M  V30 182 H 16.1489 -4.9629 0.0312829 0
M  V30 183 H 11.4049 -6.04042 0.945712 0
M  V30 184 H 15.5789 -6.77694 1.60325 0
M  V30 185 H 13.2059 -7.31573 2.06652 0
M  V30 186 N 14.781 0.264519 -1.55364 0
M  V30 187 C 16.03 0.992812 -1.75574 0
M  V30 188 C 16.343 1.87142 -0.568979 0
M  V30 189 O 17.549 2.63513 -0.653682 0
M  V30 190 C 16.005 1.81519 -3.10771 0
M  V30 191 C 15.613 0.984839 -4.37041 0
M  V30 192 C 17.357 2.53727 -3.40327 0
M  V30 193 C 15.264 1.80209 -5.63275 0
M  V30 194 H 14.194 0.374412 -0.65447 0
M  V30 195 H 16.845 0.248138 -1.81815 0
M  V30 196 H 15.227 2.60115 -2.98591 0
M  V30 197 H 16.401 0.242455 -4.60162 0
M  V30 198 H 14.716 0.37691 -4.14691 0
M  V30 199 H 17.313 3.15292 -4.3185 0
M  V30 200 H 17.656 3.24447 -2.60845 0
M  V30 201 H 18.189 1.82156 -3.53644 0
M  V30 202 H 14.928 1.13896 -6.45529 0
M  V30 203 H 14.448 2.52022 -5.44284 0
M  V30 204 H 16.127 2.37364 -6.01887 0
M  V30 205 N 16.2591 1.48442 0.529413 0
M  V30 206 C 17.1911 1.59095 1.64989 0
M  V30 207 C 18.2041 0.475212 1.5571 0
M  V30 208 O 19.3931 0.746081 1.6216 0
M  V30 209 C 16.4931 1.50518 3.0364 0
M  V30 210 C 15.6661 2.77142 3.38395 0
M  V30 211 C 14.7251 2.62012 4.56329 0
M  V30 212 O 13.7511 3.35898 4.59522 0
M  V30 213 N 14.9531 1.71667 5.54536 0
M  V30 214 H 17.7181 2.55723 1.56287 0
M  V30 215 H 15.2791 1.45173 0.716697 0
M  V30 216 H 17.2711 1.38091 3.80412 0
M  V30 217 H 15.8411 0.618627 3.06418 0
M  V30 218 H 15.0611 3.0413 2.50796 0
M  V30 219 H 16.3491 3.61146 3.58401 0
M  V30 220 H 15.7471 1.10841 5.54735 0
M  V30 221 H 14.3041 1.65178 6.30523 0
M  V30 222 N 17.7372 -0.778329 1.37039 0
M  V30 223 C 19.1532 -1.07796 1.17695 0
M  V30 224 C 19.3532 -2.01498 0.00860115 0
M  V30 225 O 18.4092 -2.43901 -0.653352 0
M  V30 226 C 19.7222 -1.68178 2.49272 0
M  V30 227 C 21.2702 -1.80467 2.55735 0
M  V30 228 C 21.7452 -2.44263 3.87427 0
M  V30 229 N 23.2362 -2.51721 3.88833 0
M  V30 230 C 23.9712 -3.01919 4.87476 0
M  V30 231 N 23.4672 -3.5234 5.96513 0
M  V30 232 N 25.2602 -3.00733 4.74885 0
M  V30 233 H 17.4112 -0.156032 2.11826 0
M  V30 234 H 19.6742 -0.131844 0.938787 0
M  V30 235 H 19.3802 -1.06796 3.35093 0
M  V30 236 H 19.2542 -2.67554 2.65885 0
M  V30 237 H 21.6412 -2.40984 1.70325 0
M  V30 238 H 21.7222 -0.798656 2.43013 0
M  V30 239 H 21.3662 -1.84388 4.73248 0
M  V30 240 H 21.2962 -3.45458 3.9745 0
M  V30 241 H 23.7872 -2.1603 3.10063 0
M  V30 242 H 24.1002 -3.89027 6.67741 0
M  V30 243 H 22.4452 -3.50462 6.00168 0
M  V30 244 H 25.6362 -2.60638 3.88826 0
M  V30 245 H 25.8092 -3.39545 5.51918 0
M  V30 246 N 19.2153 -1.21501 -1.00376 0
M  V30 247 C 20.4613 -1.03452 -1.74429 0
M  V30 248 C 20.7943 0.430764 -1.89362 0
M  V30 249 O 20.0693 1.31962 -1.42886 0
M  V30 250 C 20.3523 -1.73375 -3.15615 0
M  V30 251 C 20.2053 -3.27431 -3.08397 0
M  V30 252 C 21.5243 -1.47732 -4.14564 0
M  V30 253 H 18.6433 -0.377226 -0.633143 0
M  V30 254 H 21.2853 -1.49693 -1.17013 0
M  V30 255 H 19.4353 -1.34064 -3.64636 0
M  V30 256 H 21.1073 -3.76119 -2.67081 0
M  V30 257 H 19.3503 -3.5767 -2.45468 0
M  V30 258 H 20.0213 -3.71524 -4.08258 0
M  V30 259 H 22.4973 -1.8186 -3.74254 0
M  V30 260 H 21.3733 -1.99169 -5.11491 0
M  V30 261 H 21.6343 -0.407589 -4.40217 0
M  V30 262 N 20.6934 1.19889 -1.02296 0
M  V30 263 C 21.6254 2.22334 -0.556787 0
M  V30 264 C 22.6384 1.58674 0.364199 0
M  V30 265 O 23.8274 1.77768 0.161533 0
M  V30 266 C 20.9274 3.38257 0.208694 0
M  V30 267 C 20.1004 4.31504 -0.71577 0
M  V30 268 C 19.1594 5.262 0.00325597 0
M  V30 269 O 18.1854 5.65798 -0.621357 0
M  V30 270 N 19.3874 5.66303 1.27599 0
M  V30 271 H 22.1524 2.62957 -1.43784 0
M  V30 272 H 19.7134 1.34495 -0.901261 0
M  V30 273 H 21.7054 3.98616 0.699111 0
M  V30 274 H 20.2754 2.96472 0.991102 0
M  V30 275 H 19.4954 3.69016 -1.38638 0
M  V30 276 H 20.7834 4.9072 -1.34428 0
M  V30 277 H 20.1814 5.36155 1.80429 0
M  V30 278 H 18.7384 6.28942 1.71102 0
M  V30 279 N 22.1715 0.800033 1.35784 0
M  V30 280 C 23.1345 0.211565 2.28221 0
M  V30 281 C 24.1345 -0.59728 1.49296 0
M  V30 282 O 25.3245 -0.416721 1.69142 0
M  V30 283 C 22.4565 -0.705846 3.33513 0
M  V30 284 H 23.6495 1.02677 2.81776 0
M  V30 285 H 21.2025 0.570211 1.45528 0
M  V30 286 H 21.9375 -1.54498 2.85133 0
M  V30 287 H 21.7225 -0.127655 3.91892 0
M  V30 288 H 23.2125 -1.11211 4.02519 0
M  V30 289 N 23.6496 -1.47581 0.552962 0
M  V30 290 C 24.5826 -2.26883 -0.244857 0
M  V30 291 C 25.5606 -1.33784 -0.924147 0
M  V30 292 O 26.7446 -1.6316 -0.943981 0
M  V30 293 C 23.8716 -3.10695 -1.34856 0
M  V30 294 C 22.9176 -4.19339 -0.778268 0
M  V30 295 S 23.7506 -5.34207 0.37184 0
M  V30 296 C 24.9066 -6.21584 -0.733779 0
M  V30 297 H 25.1396 -2.94202 0.428087 0
M  V30 298 H 22.6726 -1.50628 0.339197 0
M  V30 299 H 24.6306 -3.59555 -1.98066 0
M  V30 300 H 23.2916 -2.42746 -1.99332 0
M  V30 301 H 22.4846 -4.77695 -1.60696 0
M  V30 302 H 22.0866 -3.73338 -0.222422 0
M  V30 303 H 24.3786 -6.57676 -1.62692 0
M  V30 304 H 25.3216 -7.07851 -0.187668 0
M  V30 305 H 25.7296 -5.55125 -1.02454 0
M  V30 306 N 25.1277 -0.289203 -1.54924 0
M  V30 307 C 26.0747 0.592115 -2.23075 0
M  V30 308 C 27.0447 1.13881 -1.20915 0
M  V30 309 O 28.2297 1.18551 -1.495 0
M  V30 310 C 25.3697 1.76376 -2.96623 0
M  V30 311 C 24.4827 1.24959 -4.13533 0
M  V30 312 C 23.6177 2.38416 -4.74691 0
M  V30 313 C 22.6567 1.84072 -5.83767 0
M  V30 314 N 21.7937 2.91057 -6.38929 0
M  V30 315 H 26.6337 0.00432038 -2.98 0
M  V30 316 H 24.1707 -0.00963529 -1.47097 0
M  V30 317 H 26.1287 2.45268 -3.3749 0
M  V30 318 H 24.7587 2.32337 -2.24097 0
M  V30 319 H 23.8107 0.453307 -3.77689 0
M  V30 320 H 25.1227 0.811662 -4.92152 0
M  V30 321 H 24.2767 3.15276 -5.18349 0
M  V30 322 H 23.0157 2.8553 -3.95378 0
M  V30 323 H 22.0207 1.05697 -5.39545 0
M  V30 324 H 23.2457 1.37877 -6.64956 0
M  V30 325 H 21.1917 3.37526 -5.62505 0
M  V30 326 H 21.1087 2.51724 -7.12861 0
M  V30 327 H 22.3767 3.6785 -6.87246 0
M  V30 328 N 26.6058 1.57591 -0.0167156 0
M  V30 329 C 27.8308 1.9598 0.67872 0
M  V30 330 C 28.2558 0.892546 1.65575 0
M  V30 331 O 27.6138 -0.147772 1.80697 0
M  V30 332 C 27.6618 3.33468 1.37227 0
M  V30 333 O 26.7658 3.28954 2.48722 0
M  V30 334 H 26.1068 0.639339 0.17928 0
M  V30 335 H 28.6368 2.04463 -0.0748802 0
M  V30 336 H 28.6468 3.69417 1.7319 0
M  V30 337 H 27.3218 4.10694 0.656007 0
M  V30 338 H 25.8988 3.04705 2.14963 0
M  V30 339 N 28.0839 -0.256276 1.55502 0
M  V30 340 C 29.4949 -0.826068 1.67431 0
M  V30 341 C 29.8459 -1.86396 0.612446 0
M  V30 342 O 28.9709 -2.15031 -0.243025 0
M  V30 343 C 29.5659 -1.50512 3.03532 0
M  V30 344 C 28.1249 -2.02273 3.17431 0
M  V30 345 C 27.2719 -0.870548 2.63281 0
M  V30 346 H 30.2229 -0.0322728 1.58667 0
M  V30 347 H 30.2439 -2.37279 2.97454 0
M  V30 348 H 29.7559 -0.749484 3.80794 0
M  V30 349 H 27.8569 -2.80746 2.44974 0
M  V30 350 H 27.9699 -2.22655 4.24219 0
M  V30 351 H 26.3339 -1.26851 2.20864 0
M  V30 352 H 27.1169 -0.128149 3.43061 0
M  V30 353 N 29.562 -1.4872 -0.521534 0
M  V30 354 C 30.839 -1.4766 -1.2828 0
M  V30 355 C 31.219 -0.19292 -2.10217 0
M  V30 356 O 30.567 0.825193 -2.13079 0
M  V30 357 C 30.777 -2.74358 -2.15705 0
M  V30 358 C 32.125 -3.23028 -2.75569 0
M  V30 359 O 33.149 -2.75333 -2.25987 0
M  V30 360 O 32.008 -4.0604 -3.65778 0
M  V30 361 H 29.102 -0.590085 -0.579421 0
M  V30 362 H 31.648 -1.60963 -0.537492 0
M  V30 363 H 30.42 -3.59292 -1.54999 0
M  V30 364 H 30.043 -2.63816 -2.97467 0
M  V30 365 N 31.0401 0.771051 -1.3745 0
M  V30 366 C 31.9901 1.87456 -1.29785 0
M  V30 367 C 32.9741 1.59827 -0.185541 0
M  V30 368 O 34.1661 1.71945 -0.419997 0
M  V30 369 C 31.2951 3.24935 -1.1078 0
M  V30 370 C 30.3811 3.58514 -2.26558 0
M  V30 371 N 30.7721 3.6327 -3.5195 0
M  V30 372 C 29.0701 3.88683 -2.18727 0
M  V30 373 C 29.7711 3.93616 -4.283 0
M  V30 374 N 28.7471 4.09551 -3.57448 0
M  V30 375 H 32.5491 1.89386 -2.24745 0
M  V30 376 H 30.0631 0.967531 -1.30432 0
M  V30 377 H 32.0601 4.03881 -1.03374 0
M  V30 378 H 30.7201 3.24268 -0.16738 0
M  V30 379 H 31.7311 3.45458 -3.85848 0
M  V30 380 H 28.4081 3.95834 -1.32746 0
M  V30 381 H 29.7981 4.04066 -5.36824 0
M  V30 382 N 32.5182 1.22032 0.997298 0
M  V30 383 C 33.4662 0.983634 2.10778 0
M  V30 384 C 34.4602 -0.0717564 1.69248 0
M  V30 385 O 35.6662 0.080304 1.79821 0
M  V30 386 H 32.0412 0.300877 0.689186 0
M  V30 387 H 34.0122 1.92606 2.27916 0
M  V30 388 C 32.7612 0.57326 3.42942 0
M  V30 389 H 32.0842 1.37702 3.75338 0
M  V30 390 H 33.5242 0.447031 4.21637 0
M  V30 391 C 31.9832 -0.7167 3.29188 0
M  V30 392 O 32.5132 -1.77027 3.60589 0
M  V30 393 N 30.7192 -0.686167 2.82383 0
M  V30 394 H 30.2662 0.171507 2.57028 0
M  V30 395 H 30.2242 -1.54955 2.73562 0
M  V30 396 N 33.9963 -1.19345 1.0293 0
M  V30 397 C 35.2443 -1.88665 0.724574 0
M  V30 398 C 35.5653 -1.80036 -0.749144 0
M  V30 399 O 34.8353 -1.2111 -1.53978 0
M  V30 400 H 33.4153 -0.698406 0.265025 0
M  V30 401 H 36.0773 -1.44885 1.30362 0
M  V30 402 H 35.1733 -2.94987 1.01926 0
M  V30 403 N 35.4744 -0.807222 -1.35358 0
M  V30 404 C 36.3844 -0.219594 -2.3357 0
M  V30 405 C 37.4004 0.637734 -1.61892 0
M  V30 406 O 38.5764 0.549336 -1.93763 0
M  V30 407 C 35.6414 0.62158 -3.41083 0
M  V30 408 C 34.7024 -0.256315 -4.28534 0
M  V30 409 C 33.9354 0.544807 -5.30912 0
M  V30 410 O 34.1584 1.77944 -5.41934 0
M  V30 411 O 33.0924 -0.0646478 -6.01865 0
M  V30 412 H 36.9184 -1.03208 -2.85625 0
M  V30 413 H 34.5034 -0.569025 -1.38139 0
M  V30 414 H 36.3854 1.10067 -4.06772 0
M  V30 415 H 35.0604 1.41165 -2.91297 0
M  V30 416 H 33.9674 -0.782559 -3.65823 0
M  V30 417 H 35.3004 -1.01034 -4.81719 0
M  V30 418 N 36.9525 1.47285 -0.560781 0
M  V30 419 C 38.2295 1.9558 0.0277798 0
M  V30 420 C 38.6095 1.5034 1.48192 0
M  V30 421 O 37.9575 0.743882 2.16052 0
M  V30 422 C 38.1675 3.48789 -0.121418 0
M  V30 423 C 39.5155 4.24594 0.0220912 0
M  V30 424 O 40.5395 3.56166 -0.0491439 0
M  V30 425 O 39.3985 5.46217 0.175958 0
M  V30 426 H 36.4925 0.824663 0.0621342 0
M  V30 427 H 39.0385 1.5767 -0.627556 0
M  V30 428 H 37.8105 3.74533 -1.13316 0
M  V30 429 H 37.4335 3.93473 0.571366 0
M  V30 430 N 38.4306 0.297415 1.54768 0
M  V30 431 C 39.3786 -0.596051 2.24833 0
M  V30 432 C 40.3726 -1.13992 1.25308 0
M  V30 433 O 41.5786 -1.09098 1.4317 0
M  V30 434 H 37.9536 -0.210814 0.721846 0
M  V30 435 H 39.9246 0.0174667 2.98395 0
M  V30 436 C 38.6736 -1.75818 2.99972 0
M  V30 437 H 37.9966 -1.3489 3.76357 0
M  V30 438 H 39.4366 -2.35949 3.52284 0
M  V30 439 C 37.8956 -2.66014 2.06732 0
M  V30 440 O 38.4256 -3.67009 1.63302 0
M  V30 441 N 36.6316 -2.33669 1.72763 0
M  V30 442 H 36.1786 -1.51586 2.08277 0
M  V30 443 H 36.1366 -2.94285 1.10652 0
M  V30 444 N 39.9087 -1.5758 0.0250728 0
M  V30 445 C 41.1557 -1.91633 -0.654444 0
M  V30 446 C 41.4837 -0.901103 -1.72367 0
M  V30 447 O 40.7387 0.0905647 -1.9549 0
M  V30 448 C 41.0377 -3.32421 -1.31268 0
M  V30 449 C 40.7037 -4.49344 -0.374223 0
M  V30 450 C 39.3657 -4.8106 -0.115911 0
M  V30 451 C 41.7177 -5.20498 0.270432 0
M  V30 452 C 39.0457 -5.8129 0.79493 0
M  V30 453 C 41.3977 -6.21699 1.1693 0
M  V30 454 C 40.0617 -6.51859 1.43655 0
M  V30 455 H 39.3317 -0.701236 -0.239478 0
M  V30 456 H 41.9787 -1.91307 0.0859734 0
M  V30 457 H 40.2837 -3.28989 -2.12775 0
M  V30 458 H 41.9807 -3.56038 -1.84494 0
M  V30 459 H 38.5707 -4.24579 -0.58573 0
M  V30 460 H 42.7547 -4.96229 0.0839194 0
M  V30 461 H 38.0107 -6.03005 1.00973 0
M  V30 462 H 42.1847 -6.75955 1.67504 0
M  V30 463 H 39.8117 -7.2934 2.144 0
M  V30 464 N 41.3868 0.248026 -1.55636 0
M  V30 465 C 42.3498 1.29044 -1.89421 0
M  V30 466 C 43.3498 1.41134 -0.770581 0
M  V30 467 O 44.5398 1.39854 -1.03858 0
M  V30 468 C 41.6718 2.66831 -2.12165 0
M  V30 469 H 42.8648 1.00305 -2.82629 0
M  V30 470 H 40.4178 0.487265 -1.48511 0
M  V30 471 H 41.1528 3.00711 -1.21422 0
M  V30 472 H 40.9378 2.59438 -2.93997 0
M  V30 473 H 42.4278 3.42103 -2.3949 0
M  V30 474 N 42.8649 1.48995 0.513639 0
M  V30 475 C 44.2809 1.35478 0.843682 0
M  V30 476 C 44.4809 0.378213 1.97919 0
M  V30 477 O 43.5369 -0.194689 2.51748 0
M  V30 478 C 44.8499 2.75901 1.1958 0
M  V30 479 C 46.3979 2.84509 1.30474 0
M  V30 480 C 46.8729 4.25671 1.69021 0
M  V30 481 N 48.3639 4.28422 1.76094 0
M  V30 482 C 49.0989 5.34601 2.07338 0
M  V30 483 N 48.5949 6.5104 2.36894 0
M  V30 484 N 50.3879 5.22007 2.08483 0
M  V30 485 H 42.5389 2.11092 -0.235328 0
M  V30 486 H 44.8019 0.947039 -0.0426669 0
M  V30 487 H 44.5079 3.49001 0.434913 0
M  V30 488 H 44.3819 3.10467 2.1422 0
M  V30 489 H 46.7689 2.11655 2.05637 0
M  V30 490 H 46.8499 2.53542 0.339155 0
M  V30 491 H 46.4939 4.99048 0.944135 0
M  V30 492 H 46.4239 4.54094 2.66658 0
M  V30 493 H 48.9149 3.44441 1.55464 0
M  V30 494 H 49.2279 7.2779 2.59887 0
M  V30 495 H 47.5729 6.54287 2.34378 0
M  V30 496 H 50.7639 4.30051 1.84861 0
M  V30 497 H 50.9369 6.04854 2.325 0
M  V30 498 N 44.343 -0.763751 1.37857 0
M  V30 499 C 45.62 -1.51244 1.24035 0
M  V30 500 C 46 -2.10472 -0.162649 0
M  V30 501 O 45.348 -1.96206 -1.17112 0
M  V30 502 C 45.558 -2.58694 2.34261 0
M  V30 503 C 46.906 -3.25878 2.72193 0
M  V30 504 O 47.93 -2.68993 2.33497 0
M  V30 505 O 46.789 -4.2874 3.38887 0
M  V30 506 H 43.883 -0.670243 0.484462 0
M  V30 507 H 46.429 -0.800031 1.49658 0
M  V30 508 H 45.201 -2.13105 3.2818 0
M  V30 509 H 44.824 -3.37527 2.10146 0
M  V30 510 N 45.8211 -1.22559 -0.990812 0
M  V30 511 C 47.0681 -1.05141 -1.73065 0
M  V30 512 C 47.3961 0.413191 -1.9006 0
M  V30 513 O 46.6511 1.32257 -1.44245 0
M  V30 514 C 46.9501 -1.71011 -3.13831 0
M  V30 515 C 46.6161 -3.20911 -3.16745 0
M  V30 516 C 45.2781 -3.61812 -3.17247 0
M  V30 517 C 47.6301 -4.16846 -3.12872 0
M  V30 518 C 44.9581 -4.97127 -3.1158 0
M  V30 519 C 47.3101 -5.5214 -3.08746 0
M  V30 520 C 45.9741 -5.92419 -3.07565 0
M  V30 521 H 45.2441 -0.384738 -0.633291 0
M  V30 522 H 47.8911 -1.5235 -1.16025 0
M  V30 523 H 46.1961 -1.16133 -3.74193 0
M  V30 524 H 47.8931 -1.55023 -3.69823 0
M  V30 525 H 44.4831 -2.88344 -3.17105 0
M  V30 526 H 48.6671 -3.86263 -3.11632 0
M  V30 527 H 43.9231 -5.27562 -3.09012 0
M  V30 528 H 48.0971 -6.26201 -3.04705 0
M  V30 529 H 45.7241 -6.97236 -3.02929 0
M  V30 530 N 47.2992 1.18797 -1.03562 0
M  V30 531 C 48.2322 2.2105 -0.56676 0
M  V30 532 C 49.2102 1.57704 0.395993 0
M  V30 533 O 50.3942 1.85908 0.311498 0
M  V30 534 C 47.5212 3.38259 0.172704 0
M  V30 535 C 46.5672 4.19987 -0.74252 0
M  V30 536 S 47.4002 4.87199 -2.22254 0
M  V30 537 C 48.5562 6.07813 -1.49379 0
M  V30 538 H 48.7892 2.60478 -1.43312 0
M  V30 539 H 46.3222 1.29151 -0.846133 0
M  V30 540 H 48.2802 4.06191 0.593191 0
M  V30 541 H 46.9412 2.97252 1.01488 0
M  V30 542 H 46.1342 5.03709 -0.171265 0
M  V30 543 H 45.7362 3.57408 -1.10163 0
M  V30 544 H 48.0282 6.72948 -0.784056 0
M  V30 545 H 48.9712 6.69435 -2.30786 0
M  V30 546 H 49.3792 5.55781 -0.988331 0
M  V30 547 N 48.7773 0.814389 1.34928 0
M  V30 548 C 50.1933 0.499084 1.51596 0
M  V30 549 C 50.3933 -0.978319 1.76157 0
M  V30 550 O 49.4493 -1.76309 1.80752 0
M  V30 551 C 50.7623 1.35121 2.68631 0
M  V30 552 C 52.3103 1.34746 2.82511 0
M  V30 553 C 52.7853 2.18388 4.0258 0
M  V30 554 N 54.2763 2.15966 4.09772 0
M  V30 555 C 55.0113 2.77437 5.01813 0
M  V30 556 N 54.5073 3.47866 5.99134 0
M  V30 557 N 56.3003 2.67037 4.94619 0
M  V30 558 H 48.4513 1.7711 1.17243 0
M  V30 559 H 50.7143 0.754256 0.574284 0
M  V30 560 H 50.4203 2.40001 2.57085 0
M  V30 561 H 50.2943 1.00991 3.63429 0
M  V30 562 H 52.6813 0.30648 2.93504 0
M  V30 563 H 52.7623 1.72869 1.88547 0
M  V30 564 H 52.4063 3.2253 3.92347 0
M  V30 565 H 52.3363 1.77621 4.9574 0
M  V30 566 H 54.8273 1.64729 3.40107 0
M  V30 567 H 55.1403 3.92038 6.65977 0
M  V30 568 H 53.4853 3.51972 5.99284 0
M  V30 569 H 56.6763 2.11597 4.17546 0
M  V30 570 H 56.8493 3.15232 5.66156 0
M  V30 571 N 50.2554 -1.46986 0.568584 0
M  V30 572 C 51.1854 -2.32946 -0.160753 0
M  V30 573 C 52.1664 -1.44487 -0.897631 0
M  V30 574 O 53.3514 -1.73327 -0.875867 0
M  V30 575 C 50.4814 -3.26494 -1.18403 0
M  V30 576 C 49.4354 -4.24282 -0.562895 0
M  V30 577 C 48.7614 -5.07236 -1.69163 0
M  V30 578 C 50.0614 -5.19989 0.490761 0
M  V30 579 H 51.7554 -2.94175 0.556916 0
M  V30 580 H 49.3014 -1.4146 0.26927 0
M  V30 581 H 51.2544 -3.85477 -1.70251 0
M  V30 582 H 49.9784 -2.63343 -1.93179 0
M  V30 583 H 48.6374 -3.66541 -0.0656164 0
M  V30 584 H 48.2854 -4.4048 -2.42871 0
M  V30 585 H 47.9854 -5.7345 -1.28174 0
M  V30 586 H 49.5094 -5.6908 -2.21314 0
M  V30 587 H 50.9234 -5.73271 0.0579047 0
M  V30 588 H 49.3204 -5.94469 0.820165 0
M  V30 589 H 50.3904 -4.64777 1.3824 0
M  V30 590 N 51.7335 -0.305618 -1.54608 0
M  V30 591 C 53.1495 0.0476228 -1.59529 0
M  V30 592 C 53.3495 1.52025 -1.32252 0
M  V30 593 O 52.4055 2.27368 -1.09818 0
M  V30 594 C 53.7185 -0.354471 -2.98603 0
M  V30 595 C 55.2665 -0.303622 -3.11524 0
M  V30 596 C 55.7415 -0.680608 -4.52915 0
M  V30 597 N 57.2325 -0.63332 -4.5885 0
M  V30 598 C 57.9675 -0.897432 -5.66334 0
M  V30 599 N 57.4635 -1.22775 -6.81834 0
M  V30 600 N 59.2565 -0.824186 -5.56025 0
M  V30 601 H 51.4075 -1.2653 -1.70599 0
M  V30 602 H 53.6705 -0.513291 -0.797017 0
M  V30 603 H 53.3765 -1.3798 -3.23503 0
M  V30 604 H 53.2505 0.289568 -3.76087 0
M  V30 605 H 55.6375 0.712472 -2.8637 0
M  V30 606 H 55.7185 -0.982348 -2.36185 0
M  V30 607 H 55.3625 -1.69453 -4.78799 0
M  V30 608 H 55.2925 0.0202385 -5.26596 0
M  V30 609 H 57.7835 -0.389138 -3.75891 0
M  V30 610 H 58.0965 -1.41513 -7.59733 0
M  V30 611 H 56.4415 -1.26583 -6.83375 0
M  V30 612 H 59.6325 -0.565748 -4.64669 0
M  V30 613 H 59.8055 -1.03338 -6.39707 0
M  V30 614 N 53.2116 1.57565 -0.0334293 0
M  V30 615 C 54.6276 1.56297 0.322997 0
M  V30 616 C 54.8276 1.03945 1.7262 0
M  V30 617 O 53.8836 0.688109 2.42943 0
M  V30 618 C 55.1966 3.00232 0.167664 0
M  V30 619 C 56.7446 3.12078 0.240107 0
M  V30 620 C 57.2196 4.57859 0.113513 0
M  V30 621 N 58.7106 4.62887 0.170359 0
M  V30 622 C 59.4456 5.73319 0.0962517 0
M  V30 623 N 58.9416 6.92794 -0.0291881 0
M  V30 624 N 60.7346 5.61898 0.150551 0
M  V30 625 H 52.8856 1.89923 -0.950956 0
M  V30 626 H 55.1486 0.873824 -0.367608 0
M  V30 627 H 54.8546 3.42501 -0.799102 0
M  V30 628 H 54.7286 3.654 0.936083 0
M  V30 629 H 57.1156 2.69718 1.19733 0
M  V30 630 H 57.1966 2.49623 -0.558763 0
M  V30 631 H 56.8406 5.009 -0.840314 0
M  V30 632 H 56.7706 5.18299 0.931302 0
M  V30 633 H 59.2616 3.76954 0.26728 0
M  V30 634 H 59.5746 7.7276 -0.0789252 0
M  V30 635 H 57.9196 6.94971 -0.0640299 0
M  V30 636 H 61.1106 4.67448 0.246981 0
M  V30 637 H 61.2836 6.47938 0.0893365 0
M  V30 638 N 54.6897 -0.239769 1.55765 0
M  V30 639 C 55.6197 -1.30052 1.9393 0
M  V30 640 C 56.6007 -1.49839 0.805132 0
M  V30 641 O 57.7857 -1.62328 1.06599 0
M  V30 642 C 54.9157 -2.65391 2.2402 0
M  V30 643 C 53.8697 -2.60289 3.39755 0
M  V30 644 C 53.1957 -3.99489 3.55405 0
M  V30 645 C 54.4957 -2.16654 4.75246 0
M  V30 646 H 56.1897 -0.983573 2.82783 0
M  V30 647 H 53.7357 -0.471701 1.36055 0
M  V30 648 H 55.6887 -3.3974 2.49308 0
M  V30 649 H 54.4127 -2.98736 1.32 0
M  V30 650 H 53.0717 -1.88398 3.14487 0
M  V30 651 H 52.7197 -4.30112 2.60793 0
M  V30 652 H 52.4197 -3.96962 4.33238 0
M  V30 653 H 53.9437 -4.75528 3.83022 0
M  V30 654 H 55.3577 -2.80737 4.99859 0
M  V30 655 H 53.7547 -2.25223 5.56232 0
M  V30 656 H 54.8247 -1.11835 4.71827 0
M  V30 657 N 56.1678 -1.49265 -0.50573 0
M  V30 658 C 57.3928 -1.62478 -1.28902 0
M  V30 659 C 57.8178 -0.294332 -1.85783 0
M  V30 660 O 57.1758 0.737412 -1.65626 0
M  V30 661 C 57.2238 -2.69268 -2.39848 0
M  V30 662 O 56.3278 -2.28113 -3.43567 0
M  V30 663 H 55.6688 -0.54399 -0.380751 0
M  V30 664 H 58.1988 -1.95421 -0.605952 0
M  V30 665 H 58.2088 -2.91291 -2.85681 0
M  V30 666 H 56.8838 -3.65846 -1.97812 0
M  V30 667 H 55.4608 -2.16401 -3.03685 0
M  V30 668 N 57.6459 0.756429 -1.3826 0
M  V30 669 C 58.8739 1.54565 -1.3754 0
M  V30 670 C 59.2889 1.88767 0.0355331 0
M  V30 671 O 58.6459 1.52572 1.0014 0
M  V30 672 C 58.6969 2.84654 -2.22833 0
M  V30 673 O 58.4179 2.51912 -3.5843 0
M  V30 674 C 59.9189 3.78807 -2.30261 0
M  V30 675 H 57.1389 0.478353 -0.470553 0
M  V30 676 H 59.6829 0.936381 -1.81803 0
M  V30 677 H 57.8379 3.41965 -1.8204 0
M  V30 678 H 58.2519 3.35325 -4.03308 0
M  V30 679 H 59.7259 4.67045 -2.94233 0
M  V30 680 H 60.2029 4.19038 -1.31545 0
M  V30 681 H 60.8089 3.2742 -2.71433 0
M  V30 682 N 59.124 1.23083 0.984299 0
M  V30 683 C 60.071 1.00854 2.07598 0
M  V30 684 C 61.041 -0.0726709 1.65941 0
M  V30 685 O 62.226 0.0786535 1.90638 0
M  V30 686 C 59.366 0.601645 3.39815 0
M  V30 687 C 58.479 1.75456 3.94765 0
M  V30 688 C 57.614 1.29482 5.15177 0
M  V30 689 C 56.653 2.41873 5.62284 0
M  V30 690 N 55.79 1.96885 6.73929 0
M  V30 691 H 60.63 1.943 2.25946 0
M  V30 692 H 58.167 0.968001 1.10762 0
M  V30 693 H 60.125 0.346854 4.15756 0
M  V30 694 H 58.755 -0.295803 3.21442 0
M  V30 695 H 57.807 2.12346 3.15616 0
M  V30 696 H 59.119 2.59965 4.25699 0
M  V30 697 H 58.273 0.997923 5.98437 0
M  V30 698 H 57.012 0.420046 4.85888 0
M  V30 699 H 56.017 2.72342 4.77608 0
M  V30 700 H 57.242 3.29881 5.93595 0
M  V30 701 H 55.188 1.11782 6.46406 0
M  V30 702 H 55.105 2.74956 7.04227 0
M  V30 703 H 56.373 1.70289 7.60672 0
M  V30 704 N 60.6021 -1.18246 1.0419 0
M  V30 705 C 61.8321 -1.91916 0.764961 0
M  V30 706 C 62.2401 -1.76485 -0.681898 0
M  V30 707 O 61.5831 -1.09275 -1.47664 0
M  V30 708 C 61.6451 -3.4373 1.05309 0
M  V30 709 C 61.3091 -3.8294 2.4941 0
M  V30 710 C 62.3061 -3.86621 3.47592 0
M  V30 711 C 59.9911 -4.142 2.84155 0
M  V30 712 C 61.9851 -4.21013 4.78568 0
M  V30 713 C 59.6721 -4.48262 4.15337 0
M  V30 714 C 60.6701 -4.51645 5.12353 0
M  V30 715 O 60.3581 -4.84911 6.41183 0
M  V30 716 H 60.0901 -0.61606 0.278292 0
M  V30 717 H 62.6441 -1.50947 1.39299 0
M  V30 718 H 60.8741 -3.84946 0.367933 0
M  V30 719 H 62.5631 -3.9865 0.763752 0
M  V30 720 H 63.3291 -3.62607 3.22089 0
M  V30 721 H 59.2081 -4.10743 2.09311 0
M  V30 722 H 62.7521 -4.23568 5.54289 0
M  V30 723 H 58.6491 -4.71737 4.40607 0
M  V30 724 H 59.4171 -5.02809 6.45852 0
M  V30 725 N 62.0802 -0.821533 -1.34494 0
M  V30 726 C 63.4962 -0.507117 -1.51329 0
M  V30 727 C 63.6962 0.968964 -1.76673 0
M  V30 728 O 62.7522 1.75348 -1.81685 0
M  V30 729 C 64.0652 -1.36544 -2.67911 0
M  V30 730 C 65.6132 -1.36242 -2.81793 0
M  V30 731 C 66.0882 -2.2052 -4.01416 0
M  V30 732 N 67.5792 -2.18136 -4.08621 0
M  V30 733 C 68.3142 -2.80095 -5.00334 0
M  V30 734 N 67.8102 -3.51039 -5.9728 0
M  V30 735 N 69.6032 -2.69656 -4.93196 0
M  V30 736 H 61.7542 -1.77729 -1.16302 0
M  V30 737 H 64.0172 -0.757291 -0.570276 0
M  V30 738 H 63.7232 -2.41361 -2.55808 0
M  V30 739 H 63.5972 -1.02917 -3.62888 0
M  V30 740 H 65.9842 -0.322041 -2.93338 0
M  V30 741 H 66.0652 -1.73866 -1.87628 0
M  V30 742 H 65.7092 -3.24607 -3.90631 0
M  V30 743 H 65.6392 -1.80247 -4.94791 0
M  V30 744 H 68.1302 -1.6653 -3.39229 0
M  V30 745 H 68.4432 -3.95565 -6.63889 0
M  V30 746 H 66.7882 -3.55145 -5.97409 0
M  V30 747 H 69.9792 -2.13808 -4.16418 0
M  V30 748 H 70.1522 -3.1823 -5.64476 0
M  V30 749 N 63.5583 1.46682 -0.576371 0
M  V30 750 C 64.7863 2.06798 -0.0649635 0
M  V30 751 C 65.2013 1.42612 1.23723 0
M  V30 752 O 64.5583 0.529203 1.74659 0
M  V30 753 C 64.6093 3.6132 0.114202 0
M  V30 754 O 64.3303 4.23104 -1.13644 0
M  V30 755 C 65.8313 4.38349 0.66069 0
M  V30 756 H 63.0513 0.668778 -0.0545616 0
M  V30 757 H 65.5953 1.88404 -0.795237 0
M  V30 758 H 63.7503 3.79162 0.794673 0
M  V30 759 H 64.1643 5.15894 -0.946253 0
M  V30 760 H 65.6383 5.47081 0.73526 0
M  V30 761 H 66.1153 4.05953 1.67627 0
M  V30 762 H 66.7213 4.25297 0.0152951 0
M  V30 763 N 65.0364 0.313813 1.54444 0
M  V30 764 C 65.9464 -0.565714 2.27677 0
M  V30 765 C 66.9624 -1.13754 1.31666 0
M  V30 766 O 68.1384 -1.15959 1.64668 0
M  V30 767 C 65.2034 -1.71528 3.01296 0
M  V30 768 C 64.2644 -1.17624 4.12872 0
M  V30 769 C 63.4974 -2.27102 4.8297 0
M  V30 770 O 63.7204 -3.47256 4.52514 0
M  V30 771 O 62.6544 -1.9307 5.70094 0
M  V30 772 H 66.4804 0.0287296 3.03686 0
M  V30 773 H 64.0654 0.0798312 1.49187 0
M  V30 774 H 65.9474 -2.38476 3.4743 0
M  V30 775 H 64.6224 -2.29608 2.2817 0
M  V30 776 H 63.5294 -0.472124 3.71109 0
M  V30 777 H 64.8624 -0.640695 4.88012 0
M  V30 778 N 66.5145 -1.57545 0.0417849 0
M  V30 779 C 67.4615 -2.10977 -0.935805 0
M  V30 780 C 68.4315 -1.01486 -1.31491 0
M  V30 781 O 69.6165 -1.2898 -1.40602 0
M  V30 782 C 66.7565 -2.65169 -2.2086 0
M  V30 783 C 65.8695 -3.88714 -1.88482 0
M  V30 784 C 65.0045 -4.31254 -3.1015 0
M  V30 785 C 64.0435 -5.47524 -2.7365 0
M  V30 786 N 63.1805 -5.85162 -3.87982 0
M  V30 787 H 68.0205 -2.94218 -0.473249 0
M  V30 788 H 65.5575 -1.45415 -0.221981 0
M  V30 789 H 67.5155 -2.94685 -2.95325 0
M  V30 790 H 66.1455 -1.8474 -2.64709 0
M  V30 791 H 65.1975 -3.65849 -1.04205 0
M  V30 792 H 66.5095 -4.73245 -1.57608 0
M  V30 793 H 65.6635 -4.62273 -3.92923 0
M  V30 794 H 64.4025 -3.45516 -3.44195 0
M  V30 795 H 63.4075 -5.16187 -1.89291 0
M  V30 796 H 64.6325 -6.34971 -2.40807 0
M  V30 797 H 62.5785 -5.02377 -4.21846 0
M  V30 798 H 62.4955 -6.64362 -3.60775 0
M  V30 799 H 63.7635 -6.20791 -4.71422 0
M  V30 800 N 67.9926 0.231505 -1.5589 0
M  V30 801 C 69.2416 0.955346 -1.7764 0
M  V30 802 C 69.5546 1.85893 -0.608546 0
M  V30 803 O 70.7606 2.62067 -0.70943 0
M  V30 804 C 69.2166 1.74886 -3.14552 0
M  V30 805 C 68.8246 0.891915 -4.39032 0
M  V30 806 C 70.5686 2.46452 -3.45633 0
M  V30 807 C 68.4756 1.68221 -5.66971 0
M  V30 808 H 67.4056 0.360446 -0.662265 0
M  V30 809 H 70.0566 0.209516 -1.823 0
M  V30 810 H 68.4386 2.53723 -3.04041 0
M  V30 811 H 69.6126 0.144793 -4.60572 0
M  V30 812 H 67.9276 0.288863 -4.15397 0
M  V30 813 H 70.5246 3.06061 -4.38441 0
M  V30 814 H 70.8676 3.18841 -2.67668 0
M  V30 815 H 71.4006 1.74613 -3.57428 0
M  V30 816 H 68.1396 1.00178 -6.478 0
M  V30 817 H 67.6596 2.4042 -5.49507 0
M  V30 818 H 69.3386 2.24544 -6.06786 0
M  V30 819 N 69.4707 1.49531 0.497807 0
M  V30 820 C 70.7007 1.62657 1.27382 0
M  V30 821 C 71.1087 0.298488 1.86831 0
M  V30 822 O 70.4517 -0.72647 1.68725 0
M  V30 823 C 70.5137 2.6393 2.44093 0
M  V30 824 C 70.1777 4.08195 2.05489 0
M  V30 825 C 71.1747 4.949 1.59279 0
M  V30 826 C 68.8597 4.53948 2.15026 0
M  V30 827 C 70.8537 6.25397 1.23113 0
M  V30 828 C 68.5407 5.84458 1.78473 0
M  V30 829 C 69.5387 6.70006 1.32591 0
M  V30 830 O 69.2267 7.98083 0.965327 0
M  V30 831 H 68.9587 0.550429 0.392434 0
M  V30 832 H 71.5127 1.96325 0.603801 0
M  V30 833 H 69.7427 2.25449 3.14181 0
M  V30 834 H 71.4317 2.66552 3.06113 0
M  V30 835 H 72.1977 4.60779 1.51354 0
M  V30 836 H 68.0767 3.87525 2.4969 0
M  V30 837 H 71.6207 6.92125 0.872299 0
M  V30 838 H 67.5177 6.18107 1.86048 0
M  V30 839 H 68.2857 8.11122 1.09652 0
M  V30 840 N 70.9488 -0.749086 1.3866 0
M  V30 841 C 72.3598 -1.32664 1.31366 0
M  V30 842 C 72.7108 -1.96179 -0.028484 0
M  V30 843 O 71.8358 -1.9537 -0.93057 0
M  V30 844 C 72.4308 -2.41219 2.37905 0
M  V30 845 C 70.9898 -2.94684 2.34176 0
M  V30 846 C 70.1368 -1.68108 2.20533 0
M  V30 847 H 73.0878 -0.547628 1.48952 0
M  V30 848 H 73.1088 -3.21268 2.0388 0
M  V30 849 H 72.6208 -1.94962 3.35576 0
M  V30 850 H 70.7218 -3.45258 1.401 0
M  V30 851 H 70.8348 -3.48757 3.2849 0
M  V30 852 H 69.1988 -1.91907 1.67463 0
M  V30 853 H 69.9818 -1.23923 3.20153 0
M  V30 854 N 72.4269 -1.23603 -0.977757 0
M  V30 855 C 73.6549 -1.09646 -1.75458 0
M  V30 856 C 74.0699 0.351859 -1.85492 0
M  V30 857 O 73.4269 1.24327 -1.336 0
M  V30 858 C 73.4779 -1.71895 -3.18016 0
M  V30 859 O 73.1989 -3.11063 -3.08498 0
M  V30 860 C 74.6999 -1.63415 -4.12081 0
M  V30 861 H 71.9199 -0.38359 -0.550545 0
M  V30 862 H 74.4639 -1.63507 -1.22824 0
M  V30 863 H 72.6189 -1.22061 -3.67668 0
M  V30 864 H 73.0329 -3.41305 -3.9826 0
M  V30 865 H 74.5069 -2.11669 -5.09804 0
M  V30 866 H 74.9839 -0.593462 -4.35172 0
M  V30 867 H 75.5899 -2.12628 -3.68334 0
M  V30 868 N 73.905 1.17692 -1.04816 0
M  V30 869 C 74.868 2.19787 -0.650117 0
M  V30 870 C 75.868 1.58044 0.296427 0
M  V30 871 O 77.058 1.74012 0.0808097 0
M  V30 872 C 74.19 3.40869 0.0456987 0
M  V30 873 H 75.383 2.56516 -1.5537 0
M  V30 874 H 72.936 1.31708 -0.841594 0
M  V30 875 H 73.671 3.09681 0.962726 0
M  V30 876 H 73.456 3.86928 -0.634727 0
M  V30 877 H 74.946 4.16445 0.310432 0
M  V30 878 N 75.3831 0.828654 1.34056 0
M  V30 879 C 76.6111 0.43262 2.02326 0
M  V30 880 C 77.0261 -0.963147 1.62385 0
M  V30 881 O 76.3831 -1.62425 0.832121 0
M  V30 882 C 76.4341 0.53182 3.57567 0
M  V30 883 O 76.1551 1.87258 3.96063 0
M  V30 884 C 77.6561 0.131422 4.43105 0
M  V30 885 H 74.8761 0.172923 0.648335 0
M  V30 886 H 77.4201 1.1184 1.71208 0
M  V30 887 H 75.5751 -0.105938 3.87255 0
M  V30 888 H 75.9891 1.85087 4.90758 0
M  V30 889 H 77.4631 0.251904 5.51425 0
M  V30 890 H 77.9401 -0.925645 4.29335 0
M  V30 891 H 78.5461 0.743207 4.18756 0
M  V30 892 N 76.8612 -1.46375 0.584142 0
M  V30 893 C 78.1092 -2.01978 0.0701287 0
M  V30 894 C 78.4302 -1.4579 -1.295 0
M  V30 895 O 77.7002 -0.64314 -1.85042 0
M  V30 896 H 76.2802 -0.746648 0.0229345 0
M  V30 897 H 78.9422 -1.79461 0.760245 0
M  V30 898 H 78.0382 -3.121 0.0022064 0
M  V30 899 N 78.3393 -0.321999 -1.54275 0
M  V30 900 C 79.2493 0.553631 -2.27974 0
M  V30 901 C 80.2653 1.13054 -1.32268 0
M  V30 902 O 81.4413 1.15084 -1.6528 0
M  V30 903 C 78.5063 1.69927 -3.02201 0
M  V30 904 C 77.5673 1.15433 -4.1349 0
M  V30 905 C 76.8003 2.24537 -4.84168 0
M  V30 906 O 77.0233 3.44852 -4.5435 0
M  V30 907 O 75.9573 1.90044 -5.7111 0
M  V30 908 H 79.7833 -0.0448345 -3.03667 0
M  V30 909 H 77.3683 -0.0877418 -1.49142 0
M  V30 910 H 79.2503 2.3663 -3.48689 0
M  V30 911 H 77.9253 2.28395 -2.29385 0
M  V30 912 H 76.8323 0.452436 -3.71354 0
M  V30 913 H 78.1653 0.614805 -4.88345 0
M  V30 914 N 79.8174 1.5752 -0.0501392 0
M  V30 915 C 80.7644 2.1147 0.924603 0
M  V30 916 C 81.7344 1.02182 1.30951 0
M  V30 917 O 82.9194 1.29723 1.39916 0
M  V30 918 C 80.0594 2.66337 2.19451 0
M  V30 919 C 79.1724 3.89708 1.86418 0
M  V30 920 C 78.3074 4.32893 3.07859 0
M  V30 921 C 77.3464 5.48967 2.70742 0
M  V30 922 N 76.4834 5.87211 3.84874 0
M  V30 923 H 81.3234 2.94465 0.457639 0
M  V30 924 H 78.8604 1.45531 0.214266 0
M  V30 925 H 80.8184 2.96247 2.93758 0
M  V30 926 H 79.4484 1.86141 2.63726 0
M  V30 927 H 78.5004 3.66396 1.02264 0
M  V30 928 H 79.8124 4.74074 1.55096 0
M  V30 929 H 78.9664 4.6435 3.90466 0
M  V30 930 H 77.7054 3.47336 3.42358 0
M  V30 931 H 76.7104 5.17183 1.86551 0
M  V30 932 H 77.9354 6.3624 2.37436 0
M  V30 933 H 75.8814 5.04607 4.19175 0
M  V30 934 H 75.7984 6.66266 3.57247 0
M  V30 935 H 77.0664 6.23282 4.68123 0
M  V30 936 N 81.2955 -0.223234 1.56011 0
M  V30 937 C 82.2055 -1.29766 1.95443 0
M  V30 938 C 83.2215 -1.51373 0.858028 0
M  V30 939 O 84.3975 -1.64536 1.16146 0
M  V30 940 C 81.4625 -2.62772 2.26167 0
M  V30 941 C 80.5235 -2.49482 3.49367 0
M  V30 942 C 79.7565 -3.76145 3.78616 0
M  V30 943 O 79.9795 -4.79087 3.09568 0
M  V30 944 O 78.9135 -3.73358 4.72109 0
M  V30 945 H 82.7395 -0.99309 2.87004 0
M  V30 946 H 80.3245 -0.425958 1.43199 0
M  V30 947 H 82.2065 -3.41327 2.47131 0
M  V30 948 H 80.8815 -2.92913 1.37781 0
M  V30 949 H 79.7885 -1.69133 3.33684 0
M  V30 950 H 81.1215 -2.2428 4.38131 0
M  V30 951 N 82.7736 -1.49793 -0.48987 0
M  V30 952 C 83.6836 -1.70036 -1.61632 0
M  V30 953 C 84.6996 -0.583102 -1.63939 0
M  V30 954 O 85.8756 -0.859169 -1.82154 0
M  V30 955 C 82.9406 -1.77277 -2.97949 0
M  V30 956 C 82.0016 -3.00918 -3.06181 0
M  V30 957 C 81.2346 -3.07804 -4.35996 0
M  V30 958 O 81.4576 -2.21982 -5.25433 0
M  V30 959 O 80.3916 -4.00369 -4.49431 0
M  V30 960 H 84.2176 -2.65486 -1.47482 0
M  V30 961 H 81.8026 -1.33666 -0.667362 0
M  V30 962 H 83.6846 -1.84329 -3.78947 0
M  V30 963 H 82.3596 -0.850076 -3.12339 0
M  V30 964 H 81.2666 -2.99377 -2.2433 0
M  V30 965 H 82.5996 -3.92704 -2.96723 0
M  V30 966 N 84.2517 0.741722 -1.39055 0
M  V30 967 C 85.1997 1.87702 -1.3737 0
M  V30 968 C 86.1937 1.67427 -0.257812 0
M  V30 969 O 87.3997 1.7485 -0.427489 0
M  V30 970 H 83.7747 0.617757 -0.428812 0
M  V30 971 H 85.7457 1.86239 -2.33147 0
M  V30 972 C 84.4947 3.25315 -1.22741 0
M  V30 973 H 83.8177 3.41509 -2.07873 0
M  V30 974 H 85.2577 4.04964 -1.25618 0
M  V30 975 C 83.7167 3.36838 0.0647316 0
M  V30 976 O 84.2467 3.88073 1.03741 0
M  V30 977 N 82.4527 2.90329 0.125544 0
M  V30 978 H 81.9997 2.48823 -0.666682 0
M  V30 979 H 81.9577 2.98418 0.989639 0
M  V30 980 N 85.7298 1.2412 0.971189 0
M  V30 981 C 86.9758 1.08041 1.71625 0
M  V30 982 C 87.3088 -0.380407 1.90438 0
M  V30 983 O 86.5838 -1.28127 1.46334 0
M  V30 984 C 86.8668 1.81682 3.10908 0
M  V30 985 C 86.7198 3.35493 2.99608 0
M  V30 986 C 88.0388 1.58671 4.10501 0
M  V30 987 H 85.1578 0.39388 0.622919 0
M  V30 988 H 87.7998 1.52743 1.13003 0
M  V30 989 H 85.9498 1.43684 3.60953 0
M  V30 990 H 87.6218 3.83068 2.57015 0
M  V30 991 H 85.8648 3.64052 2.35899 0
M  V30 992 H 86.5358 3.82217 3.98264 0
M  V30 993 H 89.0118 1.91719 3.69301 0
M  V30 994 H 87.8878 2.1266 5.06031 0
M  V30 995 H 88.1488 0.524161 4.38982 0
M  V30 996 N 87.2079 -1.17134 1.05439 0
M  V30 997 C 88.1549 -2.21235 0.657539 0
M  V30 998 C 89.1249 -1.62551 -0.341543 0
M  V30 999 O 90.3099 -1.89379 -0.232393 0
M  V30 1000 C 87.4499 -3.45076 0.0410575 0
M  V30 1001 C 86.5629 -4.18042 1.08927 0
M  V30 1002 C 85.6979 -5.29376 0.439848 0
M  V30 1003 C 84.7369 -5.94132 1.4722 0
M  V30 1004 N 83.8739 -6.96975 0.846756 0
M  V30 1005 H 88.7139 -2.54534 1.54972 0
M  V30 1006 H 86.2509 -1.25028 0.775006 0
M  V30 1007 H 88.2089 -4.15862 -0.33383 0
M  V30 1008 H 86.8389 -3.12353 -0.814568 0
M  V30 1009 H 85.8909 -3.45945 1.58196 0
M  V30 1010 H 87.2029 -4.62306 1.87282 0
M  V30 1011 H 86.3569 -6.06699 0.0115125 0
M  V30 1012 H 85.0959 -4.86251 -0.375656 0
M  V30 1013 H 84.1009 -5.15538 1.91052 0
M  V30 1014 H 85.3259 -6.39337 2.28965 0
M  V30 1015 H 83.2719 -6.5598 0.0518075 0
M  V30 1016 H 83.1889 -7.39565 1.5678 0
M  V30 1017 H 84.4569 -7.78239 0.443277 0
M  V30 1018 N 88.686 -0.835752 -1.33615 0
M  V30 1019 C 89.633 -0.26473 -2.29277 0
M  V30 1020 C 90.603 0.617712 -1.54187 0
M  V30 1021 O 91.788 0.556641 -1.825 0
M  V30 1022 C 88.928 0.556777 -3.40579 0
M  V30 1023 C 88.041 -0.349339 -4.30585 0
M  V30 1024 C 87.176 0.482969 -5.29 0
M  V30 1025 C 86.215 -0.421732 -6.10645 0
M  V30 1026 N 85.352 0.372262 -7.01112 0
M  V30 1027 H 90.192 -1.08582 -2.77514 0
M  V30 1028 H 87.729 -0.546927 -1.36554 0
M  V30 1029 H 89.687 1.04852 -4.03809 0
M  V30 1030 H 88.317 1.34286 -2.93542 0
M  V30 1031 H 87.369 -0.959372 -3.68104 0
M  V30 1032 H 88.681 -1.04445 -4.87742 0
M  V30 1033 H 87.835 1.03866 -5.97743 0
M  V30 1034 H 86.574 1.21153 -4.72412 0
M  V30 1035 H 85.579 -0.989464 -5.40823 0
M  V30 1036 H 86.804 -1.14861 -6.69316 0
M  V30 1037 H 84.75 1.08426 -6.46977 0
M  V30 1038 H 84.667 -0.264198 -7.55538 0
M  V30 1039 H 85.935 0.910293 -7.74167 0
M  V30 1040 N 90.1641 1.46063 -0.591896 0
M  V30 1041 C 91.1121 2.32124 0.148739 0
M  V30 1042 C 92.1061 1.45035 0.875286 0
M  V30 1043 O 93.3121 1.61609 0.792632 0
M  V30 1044 H 89.6871 0.749024 0.066832 0
M  V30 1045 H 91.6581 2.92392 -0.595783 0
M  V30 1046 C 90.4071 3.28373 1.1431 0
M  V30 1047 H 89.7301 3.95371 0.59346 0
M  V30 1048 H 91.1701 3.91352 1.63155 0
M  V30 1049 C 89.6291 2.54393 2.20875 0
M  V30 1050 O 90.1591 2.31373 3.28374 0
M  V30 1051 N 88.3651 2.14797 1.95731 0
M  V30 1052 H 87.9121 2.33719 1.08319 0
M  V30 1053 H 87.8701 1.65619 2.67241 0
M  V30 1054 N 91.6422 0.330177 1.54103 0
M  V30 1055 C 93.0582 -0.0222371 1.59585 0
M  V30 1056 C 93.2582 -1.49902 1.34654 0
M  V30 1057 O 92.3142 -2.25592 1.13421 0
M  V30 1058 C 93.6272 0.401932 2.98002 0
M  V30 1059 C 95.1752 0.353145 3.11001 0
M  V30 1060 C 95.6502 0.752576 4.51775 0
M  V30 1061 N 97.1412 0.706239 4.57784 0
M  V30 1062 C 97.8762 0.987417 5.64834 0
M  V30 1063 N 97.3722 1.33607 6.79795 0
M  V30 1064 N 99.1652 0.91254 5.54643 0
M  V30 1065 H 91.3162 1.29228 1.68564 0
M  V30 1066 H 93.5792 0.525906 0.78875 0
M  V30 1067 H 93.2852 1.4311 3.21267 0
M  V30 1068 H 93.1592 -0.229699 3.765 0
M  V30 1069 H 95.5462 -0.666822 2.87467 0
M  V30 1070 H 95.6272 1.0198 2.34593 0
M  V30 1071 H 95.2712 1.77049 4.76042 0
M  V30 1072 H 95.2012 0.0635409 5.26562 0
M  V30 1073 H 97.6922 0.44889 3.75224 0
M  V30 1074 H 98.0052 1.53582 7.57385 0
M  V30 1075 H 96.3502 1.37439 6.81275 0
M  V30 1076 H 99.5412 0.639601 4.6371 0
M  V30 1077 H 99.7142 1.13503 6.37982 0
M  V30 1078 N 93.1203 -1.57491 0.0584922 0
M  V30 1079 C 94.3503 -1.9701 -0.622134 0
M  V30 1080 C 94.7583 -0.935034 -1.6448 0
M  V30 1081 O 94.1013 0.0882904 -1.83488 0
M  V30 1082 C 94.1633 -3.32794 -1.35972 0
M  V30 1083 C 93.8273 -4.54343 -0.492043 0
M  V30 1084 C 94.8243 -5.19323 0.244901 0
M  V30 1085 C 92.5093 -5.00534 -0.420821 0
M  V30 1086 C 94.5033 -6.28835 1.04143 0
M  V30 1087 C 92.1903 -6.09921 0.379389 0
M  V30 1088 C 93.1883 -6.73933 1.10919 0
M  V30 1089 O 92.8763 -7.81216 1.89623 0
M  V30 1090 H 92.6083 -0.653127 -0.174359 0
M  V30 1091 H 95.1623 -2.05029 0.123418 0
M  V30 1092 H 93.3923 -3.21351 -2.15105 0
M  V30 1093 H 95.0813 -3.5701 -1.93129 0
M  V30 1094 H 95.8473 -4.8459 0.19939 0
M  V30 1095 H 91.7263 -4.50496 -0.978474 0
M  V30 1096 H 95.2703 -6.7873 1.61157 0
M  V30 1097 H 91.1673 -6.44089 0.426512 0
M  V30 1098 H 91.9353 -7.98029 1.81913 0
M  V30 1099 N 94.5984 0.214957 -1.56127 0
M  V30 1100 C 95.5454 1.26642 -1.92952 0
M  V30 1101 C 96.5154 1.46244 -0.78753 0
M  V30 1102 O 97.7004 1.59704 -1.04399 0
M  V30 1103 C 94.8404 2.6104 -2.25726 0
M  V30 1104 C 93.9534 2.49183 -3.52891 0
M  V30 1105 C 93.0884 3.76149 -3.7508 0
M  V30 1106 C 92.1274 3.59041 -4.95738 0
M  V30 1107 N 91.2644 4.77972 -5.14283 0
M  V30 1108 H 96.1044 0.945384 -2.82607 0
M  V30 1109 H 93.6414 0.455489 -1.3987 0
M  V30 1110 H 95.5994 3.39313 -2.42739 0
M  V30 1111 H 94.2294 2.91227 -1.39236 0
M  V30 1112 H 93.2814 1.6231 -3.44034 0
M  V30 1113 H 94.5934 2.32466 -4.41318 0
M  V30 1114 H 93.7474 4.62865 -3.92226 0
M  V30 1115 H 92.4864 3.95799 -2.84947 0
M  V30 1116 H 91.4914 2.7071 -4.78535 0
M  V30 1117 H 92.7164 3.40856 -5.87362 0
M  V30 1118 H 90.6624 4.97923 -4.27093 0
M  V30 1119 H 90.5794 4.64006 -5.96853 0
M  V30 1120 H 91.8474 5.66096 -5.35869 0
M  V30 1121 N 96.0765 1.50051 0.48192 0
M  V30 1122 C 97.3535 1.51009 1.2432 0
M  V30 1123 C 97.7335 0.248587 2.09631 0
M  V30 1124 O 97.0815 -0.768409 2.15192 0
M  V30 1125 C 97.2915 2.79981 2.08355 0
M  V30 1126 C 98.6395 3.3022 2.66908 0
M  V30 1127 O 99.6635 2.81228 2.18607 0
M  V30 1128 O 98.5225 4.15595 3.54884 0
M  V30 1129 H 95.6165 0.605239 0.563573 0
M  V30 1130 H 98.1625 1.62332 0.494627 0
M  V30 1131 H 96.9345 3.63275 1.45419 0
M  V30 1132 H 96.5575 2.7161 2.90368 0
M  V30 1133 N 97.5546 -0.734337 1.39446 0
M  V30 1134 C 98.8036 -1.48937 1.36017 0
M  V30 1135 C 99.1166 -1.95557 -0.0409005 0
M  V30 1136 O 100.323 -2.70779 -0.19778 0
M  V30 1137 C 98.7786 -2.69125 2.38955 0
M  V30 1138 C 98.3866 -2.29452 3.8478 0
M  V30 1139 C 100.131 -3.46944 2.44603 0
M  V30 1140 C 98.0376 -3.46366 4.79358 0
M  V30 1141 H 96.9676 -0.559296 0.505672 0
M  V30 1142 H 99.6186 -0.800983 1.65095 0
M  V30 1143 H 98.0006 -3.40041 2.02948 0
M  V30 1144 H 99.1746 -1.66077 4.29831 0
M  V30 1145 H 97.4896 -1.64723 3.82433 0
M  V30 1146 H 100.087 -4.33907 3.12456 0
M  V30 1147 H 100.43 -3.89454 1.47076 0
M  V30 1148 H 100.963 -2.83056 2.79507 0
M  V30 1149 H 97.7016 -3.08905 5.78151 0
M  V30 1150 H 97.2216 -4.08719 4.38986 0
M  V30 1151 H 98.9006 -4.12691 4.98292 0
M  V30 1152 N 99.0327 -1.24633 -0.964593 0
M  V30 1153 C 99.9627 -1.06611 -2.07741 0
M  V30 1154 C 100.944 0.0218666 -1.70086 0
M  V30 1155 O 102.129 -0.145793 -1.93652 0
M  V30 1156 C 99.2587 -0.673444 -3.40708 0
M  V30 1157 C 98.2127 -1.71054 -3.92332 0
M  V30 1158 C 97.5387 -1.17285 -5.21678 0
M  V30 1159 C 98.8387 -3.10718 -4.19824 0
M  V30 1160 H 100.533 -1.99693 -2.23076 0
M  V30 1161 H 98.0787 -0.96152 -1.07195 0
M  V30 1162 H 100.032 -0.534345 -4.17998 0
M  V30 1163 H 98.7557 0.293073 -3.25282 0
M  V30 1164 H 97.4147 -1.83791 -3.17201 0
M  V30 1165 H 97.0627 -0.196847 -5.02615 0
M  V30 1166 H 96.7627 -1.86592 -5.57187 0
M  V30 1167 H 98.2867 -1.04593 -6.01575 0
M  V30 1168 H 99.7007 -3.01192 -4.87808 0
M  V30 1169 H 98.0977 -3.77406 -4.66567 0
M  V30 1170 H 99.1677 -3.58524 -3.26479 0
M  V30 1171 N 100.511 1.16574 -1.06058 0
M  V30 1172 C 101.922 1.68662 -0.800632 0
M  V30 1173 C 102.273 1.84184 0.67608 0
M  V30 1174 O 101.398 1.53568 1.52466 0
M  V30 1175 C 101.993 3.06356 -1.44676 0
M  V30 1176 C 100.552 3.55575 -1.23465 0
M  V30 1177 C 99.6988 2.31616 -1.52477 0
M  V30 1178 H 102.65 1.00969 -1.22438 0
M  V30 1179 H 102.671 3.70636 -0.860788 0
M  V30 1180 H 102.183 2.95027 -2.52152 0
M  V30 1181 H 100.284 3.72167 -0.179527 0
M  V30 1182 H 100.397 4.37812 -1.94571 0
M  V30 1183 H 98.7608 2.36512 -0.945209 0
M  V30 1184 H 99.5438 2.22887 -2.61106 0
M  V30 1185 N 101.989 0.842826 1.3317 0
M  V30 1186 C 103.236 0.440447 1.97652 0
M  V30 1187 C 103.564 -1.00123 1.6675 0
M  V30 1188 O 102.819 -1.7155 0.941761 0
M  V30 1189 C 103.118 0.612607 3.52111 0
M  V30 1190 C 102.784 2.02297 4.02972 0
M  V30 1191 C 101.446 2.40874 4.16573 0
M  V30 1192 C 103.798 2.94402 4.30089 0
M  V30 1193 C 101.126 3.70852 4.54627 0
M  V30 1194 C 103.478 4.23865 4.69597 0
M  V30 1195 C 102.142 4.62392 4.81404 0
M  V30 1196 H 101.412 0.161171 0.72326 0
M  V30 1197 H 104.059 1.07061 1.58777 0
M  V30 1198 H 102.364 -0.100849 3.9167 0
M  V30 1199 H 104.061 0.2815 4.00011 0
M  V30 1200 H 100.651 1.71338 3.92863 0
M  V30 1201 H 104.835 2.65835 4.19101 0
M  V30 1202 H 100.091 4.00501 4.61962 0
M  V30 1203 H 104.265 4.95306 4.89536 0
M  V30 1204 H 101.892 5.63154 5.10648 0
M  V30 1205 N 103.467 -1.45747 0.599634 0
M  V30 1206 C 104.744 -1.95585 0.0240846 0
M  V30 1207 C 105.124 -1.54217 -1.44154 0
M  V30 1208 O 104.472 -0.800903 -2.14004 0
M  V30 1209 C 104.682 -3.48344 0.21385 0
M  V30 1210 C 106.03 -4.24504 0.0904902 0
M  V30 1211 O 107.054 -3.55911 0.143558 0
M  V30 1212 O 105.913 -5.46491 -0.0310766 0
M  V30 1213 H 103.007 -0.82602 -0.0402478 0
M  V30 1214 H 105.553 -1.55951 0.669139 0
M  V30 1215 H 104.325 -3.71397 1.23206 0
M  V30 1216 H 103.948 -3.9485 -0.466842 0
M  V30 1217 N 104.945 -0.338344 -1.53925 0
M  V30 1218 C 105.895 0.536712 -2.21593 0
M  V30 1219 C 106.879 1.07015 -1.20153 0
M  V30 1220 O 108.071 1.00471 -1.45721 0
M  V30 1221 C 105.2 1.68977 -2.98834 0
M  V30 1222 C 104.286 1.17052 -4.07627 0
M  V30 1223 N 104.677 0.372085 -5.0443 0
M  V30 1224 C 102.975 1.44789 -4.21844 0
M  V30 1225 C 103.676 0.0909171 -5.81629 0
M  V30 1226 N 102.652 0.681131 -5.39316 0
M  V30 1227 H 106.454 -0.0804298 -2.9379 0
M  V30 1228 H 103.968 -0.144943 -1.61752 0
M  V30 1229 H 105.965 2.32857 -3.45808 0
M  V30 1230 H 104.625 2.31024 -2.28162 0
M  V30 1231 H 105.636 0.0136217 -5.17898 0
M  V30 1232 H 102.313 2.07313 -3.62391 0
M  V30 1233 H 103.703 -0.552817 -6.69622 0
M  V30 1234 N 106.423 1.57458 -0.0668435 0
M  V30 1235 C 107.648 1.9804 0.616027 0
M  V30 1236 C 108.073 0.944771 1.62652 0
M  V30 1237 O 107.431 -0.0902094 1.81075 0
M  V30 1238 C 107.479 3.37665 1.26549 0
M  V30 1239 O 106.583 3.36701 2.38131 0
M  V30 1240 H 105.924 0.644719 0.158849 0
M  V30 1241 H 108.454 2.04121 -0.139891 0
M  V30 1242 H 108.464 3.7474 1.6135 0
M  V30 1243 H 107.139 4.12573 0.525016 0
M  V30 1244 H 105.716 3.1139 2.0516 0
M  V30 1245 N 107.901 -0.206675 1.56239 0
M  V30 1246 C 109.317 -0.557025 1.49564 0
M  V30 1247 C 109.517 -1.86424 0.764735 0
M  V30 1248 O 108.573 -2.50584 0.310491 0
M  V30 1249 C 109.886 -0.622478 2.94186 0
M  V30 1250 C 111.434 -0.712099 3.04792 0
M  V30 1251 C 111.909 -0.808767 4.50803 0
M  V30 1252 N 113.4 -0.8726 4.54907 0
M  V30 1253 C 114.135 -0.967365 5.65181 0
M  V30 1254 N 113.631 -1.02515 6.85173 0
M  V30 1255 N 115.424 -1.00366 5.53067 0
M  V30 1256 H 107.575 0.650943 2.02179 0
M  V30 1257 H 109.838 0.230387 0.919579 0
M  V30 1258 H 109.544 0.268727 3.50672 0
M  V30 1259 H 109.418 -1.4811 3.46905 0
M  V30 1260 H 111.805 -1.59374 2.48363 0
M  V30 1261 H 111.886 0.172489 2.55218 0
M  V30 1262 H 111.53 0.0684754 5.07854 0
M  V30 1263 H 111.46 -1.70899 4.98098 0
M  V30 1264 H 113.951 -0.837657 3.68499 0
M  V30 1265 H 114.264 -1.09765 7.64965 0
M  V30 1266 H 112.609 -0.994026 6.87855 0
M  V30 1267 H 115.8 -0.95527 4.58249 0
M  V30 1268 H 115.973 -1.07405 6.39037 0
M  V30 1269 N 109.379 -1.50304 -0.473955 0
M  V30 1270 C 110.625 -1.61389 -1.22806 0
M  V30 1271 C 110.958 -0.311955 -1.91678 0
M  V30 1272 O 110.233 0.686384 -1.81986 0
M  V30 1273 C 110.516 -2.79219 -2.27396 0
M  V30 1274 C 110.369 -4.19286 -1.62848 0
M  V30 1275 C 111.688 -2.92614 -3.28732 0
M  V30 1276 H 108.807 -0.587399 -0.445119 0
M  V30 1277 H 111.449 -1.82681 -0.522265 0
M  V30 1278 H 109.599 -2.61195 -2.87592 0
M  V30 1279 H 111.271 -4.48892 -1.06271 0
M  V30 1280 H 109.514 -4.23677 -0.931693 0
M  V30 1281 H 110.185 -4.97655 -2.38838 0
M  V30 1282 H 112.661 -3.09105 -2.78556 0
M  V30 1283 H 111.537 -3.76688 -3.99246 0
M  V30 1284 H 111.798 -2.03107 -3.92683 0
M  V30 1285 N 110.857 0.726932 -1.39834 0
M  V30 1286 C 111.804 1.841 -1.39197 0
M  V30 1287 C 112.774 1.642 -0.250502 0
M  V30 1288 O 113.959 1.85494 -0.446846 0
M  V30 1289 C 111.099 3.21697 -1.24919 0
M  V30 1290 C 110.212 3.53247 -2.48678 0
M  V30 1291 C 109.347 4.80289 -2.26928 0
M  V30 1292 C 108.386 5.04707 -3.4632 0
M  V30 1293 N 107.523 6.22956 -3.23836 0
M  V30 1294 H 112.363 1.83979 -2.34427 0
M  V30 1295 H 109.9 0.898876 -1.16442 0
M  V30 1296 H 111.858 4.01137 -1.1465 0
M  V30 1297 H 110.488 3.21076 -0.333153 0
M  V30 1298 H 109.54 2.68447 -2.69519 0
M  V30 1299 H 110.852 3.67205 -3.37582 0
M  V30 1300 H 110.006 5.67725 -2.13947 0
M  V30 1301 H 108.745 4.68519 -1.35431 0
M  V30 1302 H 107.75 4.1573 -3.5979 0
M  V30 1303 H 108.975 5.18357 -4.38729 0
M  V30 1304 H 106.921 6.12459 -2.35011 0
M  V30 1305 H 106.838 6.37539 -4.063 0
M  V30 1306 H 108.106 7.1321 -3.14566 0
M  V30 1307 N 112.336 1.25143 0.95797 0
M  V30 1308 C 113.266 1.07711 2.07173 0
M  V30 1309 C 114.247 -0.0128462 1.70095 0
M  V30 1310 O 115.432 0.156061 1.93572 0
M  V30 1311 C 112.562 0.691503 3.40346 0
M  V30 1312 C 111.516 1.73132 3.9142 0
M  V30 1313 C 110.842 1.20049 5.21049 0
M  V30 1314 C 112.142 3.1294 4.1817 0
M  V30 1315 H 113.836 2.00873 2.22014 0
M  V30 1316 H 111.382 0.967191 1.06684 0
M  V30 1317 H 113.335 0.556505 4.17709 0
M  V30 1318 H 112.059 -0.275819 3.25433 0
M  V30 1319 H 110.718 1.8547 3.16222 0
M  V30 1320 H 110.366 0.223499 5.02503 0
M  V30 1321 H 110.066 1.89545 5.56189 0
M  V30 1322 H 111.59 1.07782 6.01012 0
M  V30 1323 H 113.004 3.03775 4.86203 0
M  V30 1324 H 111.401 3.79875 4.64559 0
M  V30 1325 H 112.471 3.6025 3.24573 0
M  V30 1326 N 113.814 -1.1601 1.06675 0
M  V30 1327 C 115.042 -1.90527 0.806667 0
M  V30 1328 C 115.457 -1.77643 -0.639396 0
M  V30 1329 O 114.814 -1.12369 -1.43803 0
M  V30 1330 C 114.865 -3.41106 1.19705 0
M  V30 1331 O 114.586 -3.53608 2.58636 0
M  V30 1332 C 116.087 -4.32663 0.965266 0
M  V30 1333 H 113.307 -0.604053 0.292166 0
M  V30 1334 H 115.851 -1.47026 1.4214 0
M  V30 1335 H 114.006 -3.82296 0.626774 0
M  V30 1336 H 114.42 -4.47011 2.74375 0
M  V30 1337 H 115.894 -5.36763 1.288 0
M  V30 1338 H 116.371 -4.39089 -0.0987936 0
M  V30 1339 H 116.977 -3.97206 1.52011 0
M  V30 1340 N 115.292 -0.849877 -1.32721 0
M  V30 1341 C 116.222 -0.306308 -2.31482 0
M  V30 1342 C 117.203 0.591952 -1.59468 0
M  V30 1343 O 118.388 0.513199 -1.87296 0
M  V30 1344 C 115.518 0.510204 -3.43532 0
M  V30 1345 C 114.472 -0.293209 -4.26994 0
M  V30 1346 C 113.798 0.647743 -5.30762 0
M  V30 1347 C 115.098 -1.51634 -4.99804 0
M  V30 1348 H 116.792 -1.13153 -2.77195 0
M  V30 1349 H 114.338 -0.545553 -1.33266 0
M  V30 1350 H 116.291 0.900856 -4.11658 0
M  V30 1351 H 115.015 1.36874 -2.96535 0
M  V30 1352 H 113.674 -0.665555 -3.60508 0
M  V30 1353 H 113.322 1.50299 -4.8002 0
M  V30 1354 H 113.022 0.11422 -5.87489 0
M  V30 1355 H 114.546 1.03567 -6.01753 0
M  V30 1356 H 115.96 -1.19824 -5.60638 0
M  V30 1357 H 114.357 -1.98745 -5.66234 0
M  V30 1358 H 115.427 -2.28018 -4.27943 0
M  V30 1359 N 116.77 1.45427 -0.607355 0
M  V30 1360 C 117.717 2.3053 0.111625 0
M  V30 1361 C 118.687 1.4209 0.860216 0
M  V30 1362 O 119.872 1.71019 0.845998 0
M  V30 1363 C 117.012 3.26992 1.10319 0
M  V30 1364 C 116.125 4.30535 0.355493 0
M  V30 1365 C 115.26 5.14105 1.33676 0
M  V30 1366 C 114.299 6.09376 0.576862 0
M  V30 1367 N 113.436 6.85727 1.5074 0
M  V30 1368 H 118.276 2.91477 -0.620093 0
M  V30 1369 H 115.813 1.43631 -0.317594 0
M  V30 1370 H 117.771 3.81385 1.6912 0
M  V30 1371 H 116.401 2.67799 1.80232 0
M  V30 1372 H 115.453 3.78805 -0.348023 0
M  V30 1373 H 116.765 4.98235 -0.237423 0
M  V30 1374 H 115.919 5.72897 1.99684 0
M  V30 1375 H 114.658 4.46423 1.9636 0
M  V30 1376 H 113.663 5.49715 -0.0968519 0
M  V30 1377 H 114.888 6.79085 -0.0449341 0
M  V30 1378 H 112.834 6.20735 2.12189 0
M  V30 1379 H 112.751 7.49778 0.967913 0
M  V30 1380 H 114.019 7.4906 2.15706 0
M  V30 1381 N 118.248 0.346503 1.53744 0
M  V30 1382 C 119.476 -0.25041 2.05379 0
M  V30 1383 C 119.891 -1.43979 1.22129 0
M  V30 1384 O 119.248 -1.80677 0.257321 0
M  V30 1385 C 119.299 -0.662575 3.55376 0
M  V30 1386 O 119.02 0.479515 4.35468 0
M  V30 1387 C 120.521 -1.31989 4.23195 0
M  V30 1388 H 117.741 -0.0478198 0.669294 0
M  V30 1389 H 120.285 0.499346 1.9831 0
M  V30 1390 H 118.44 -1.36227 3.62658 0
M  V30 1391 H 118.854 0.15037 5.24284 0
M  V30 1392 H 120.328 -1.55902 5.29527 0
M  V30 1393 H 120.805 -2.27436 3.75725 0
M  V30 1394 H 121.411 -0.662154 4.20114 0
M  V30 1395 N 119.726 -1.57421 0.075193 0
M  V30 1396 C 121.137 -1.81021 -0.456964 0
M  V30 1397 C 121.488 -0.98936 -1.69429 0
M  V30 1398 O 120.613 -0.212865 -2.15351 0
M  V30 1399 C 121.208 -3.28329 -0.83581 0
M  V30 1400 C 119.767 -3.52764 -1.31281 0
M  V30 1401 C 118.914 -2.75676 -0.299648 0
M  V30 1402 H 121.865 -1.55822 0.300856 0
M  V30 1403 H 121.886 -3.40564 -1.69696 0
M  V30 1404 H 121.398 -3.88046 0.0649238 0
M  V30 1405 H 119.499 -2.98355 -2.23193 0
M  V30 1406 H 119.612 -4.61451 -1.28839 0
M  V30 1407 H 117.976 -2.42538 -0.777641 0
M  V30 1408 H 118.759 -3.38132 0.593417 0
M  V30 1409 N 121.204 0.198386 -1.56346 0
M  V30 1410 C 122.429 0.939682 -1.84891 0
M  V30 1411 C 122.854 1.76202 -0.658369 0
M  V30 1412 O 122.212 1.76993 0.392851 0
M  V30 1413 C 122.26 1.81428 -3.11635 0
M  V30 1414 O 121.364 2.91265 -2.91956 0
M  V30 1415 H 120.705 0.264807 -0.608912 0
M  V30 1416 H 123.235 0.204695 -2.03573 0
M  V30 1417 H 123.245 2.21958 -3.42343 0
M  V30 1418 H 121.92 1.21004 -3.97908 0
M  V30 1419 H 120.497 2.54514 -2.72538 0
M  V30 1420 N 122.682 1.50554 0.465978 0
M  V30 1421 C 123.614 1.65949 1.58093 0
M  V30 1422 C 124.627 0.540827 1.53554 0
M  V30 1423 O 125.816 0.814187 1.5885 0
M  V30 1424 C 122.916 1.63261 2.96983 0
M  V30 1425 C 122.089 2.91245 3.26336 0
M  V30 1426 C 121.148 2.8113 4.44806 0
M  V30 1427 O 120.174 3.55086 4.44862 0
M  V30 1428 N 121.376 1.95032 5.46756 0
M  V30 1429 H 124.141 2.62122 1.45301 0
M  V30 1430 H 121.702 1.48082 0.65448 0
M  V30 1431 H 123.694 1.54101 3.74212 0
M  V30 1432 H 122.264 0.748032 3.03518 0
M  V30 1433 H 121.484 3.14493 2.37672 0
M  V30 1434 H 122.772 3.76022 3.42761 0
M  V30 1435 H 122.17 1.3427 5.49534 0
M  V30 1436 H 120.727 1.91772 6.2295 0
M  V30 1437 N 124.16 -0.719506 1.40217 0
M  V30 1438 C 125.437 -1.47221 1.28784 0
M  V30 1439 C 125.817 -2.10883 -0.0956067 0
M  V30 1440 O 125.165 -1.99833 -1.10811 0
M  V30 1441 C 125.375 -2.5111 2.42373 0
M  V30 1442 C 126.723 -3.17053 2.82423 0
M  V30 1443 O 127.747 -2.61429 2.41937 0
M  V30 1444 O 126.606 -4.17742 3.52355 0
M  V30 1445 H 123.7 -0.654491 0.50554 0
M  V30 1446 H 126.246 -0.752014 1.52128 0
M  V30 1447 H 125.018 -2.02556 3.34793 0
M  V30 1448 H 124.641 -3.3067 2.20778 0
M  V30 1449 N 125.638 -1.25649 -0.95132 0
M  V30 1450 C 126.863 -1.13443 -1.73624 0
M  V30 1451 C 127.288 0.307565 -1.85568 0
M  V30 1452 O 126.646 1.22282 -1.33854 0
M  V30 1453 C 126.694 -1.79723 -3.12621 0
M  V30 1454 O 125.798 -1.07912 -3.98031 0
M  V30 1455 H 125.139 -0.395872 -0.533086 0
M  V30 1456 H 127.669 -1.66276 -1.1922 0
M  V30 1457 H 127.679 -1.86141 -3.63064 0
M  V30 1458 H 126.354 -2.84633 -3.03244 0
M  V30 1459 H 124.931 -1.09398 -3.56492 0
M  V30 1460 N 127.117 1.15442 -1.07289 0
M  V30 1461 C 128.394 1.82306 -0.708792 0
M  V30 1462 C 128.774 1.94991 0.808807 0
M  V30 1463 O 128.122 1.50085 1.72298 0
M  V30 1464 C 128.332 3.18695 -1.42247 0
M  V30 1465 C 129.68 3.94341 -1.57417 0
M  V30 1466 O 130.704 3.28247 -1.38319 0
M  V30 1467 O 129.563 5.12839 -1.88834 0
M  V30 1468 H 126.657 0.787628 -0.252132 0
M  V30 1469 H 129.203 1.22559 -1.17377 0
M  V30 1470 H 127.975 3.04557 -2.45684 0
M  V30 1471 H 127.598 3.86128 -0.948223 0
M  V30 1472 N 128.595 0.856903 1.32268 0
M  V30 1473 C 129.825 0.47475 2.01071 0
M  V30 1474 C 130.233 -0.933746 1.64553 0
M  V30 1475 O 129.576 -1.62114 0.863989 0
M  V30 1476 C 129.638 0.536746 3.55471 0
M  V30 1477 C 129.302 1.90453 4.15423 0
M  V30 1478 C 130.299 2.87029 4.33486 0
M  V30 1479 C 127.984 2.20229 4.51447 0
M  V30 1480 C 129.978 4.11532 4.86744 0
M  V30 1481 C 127.665 3.44984 5.0441 0
M  V30 1482 C 128.663 4.40452 5.22007 0
M  V30 1483 O 128.351 5.62998 5.73837 0
M  V30 1484 H 128.083 0.184778 0.650256 0
M  V30 1485 H 130.637 1.15615 1.69771 0
M  V30 1486 H 128.867 -0.20152 3.86175 0
M  V30 1487 H 130.556 0.169875 4.05544 0
M  V30 1488 H 131.322 2.6533 4.05986 0
M  V30 1489 H 127.201 1.46705 4.37034 0
M  V30 1490 H 130.745 4.86056 5.00395 0
M  V30 1491 H 126.642 3.66532 5.31342 0
M  V30 1492 H 127.41 5.64987 5.92226 0
M  V30 1493 N 130.073 -1.45103 0.615059 0
M  V30 1494 C 131.322 -2.01396 0.110718 0
M  V30 1495 C 131.635 -1.48834 -1.26916 0
M  V30 1496 O 132.841 -1.97152 -1.86664 0
M  V30 1497 C 131.297 -3.59599 0.14723 0
M  V30 1498 C 130.905 -4.21158 1.52743 0
M  V30 1499 C 132.649 -4.23428 -0.30148 0
M  V30 1500 C 130.556 -5.71535 1.51992 0
M  V30 1501 H 129.486 -0.753061 0.0376241 0
M  V30 1502 H 132.137 -1.66494 0.77149 0
M  V30 1503 H 130.519 -3.91724 -0.580339 0
M  V30 1504 H 131.693 -4.00594 2.2773 0
M  V30 1505 H 130.008 -3.69552 1.91886 0
M  V30 1506 H 132.605 -5.33703 -0.326392 0
M  V30 1507 H 132.948 -3.94629 -1.32565 0
M  V30 1508 H 133.481 -3.96047 0.373065 0
M  V30 1509 H 130.22 -6.05044 2.52193 0
M  V30 1510 H 129.74 -5.94268 0.81274 0
M  V30 1511 H 131.419 -6.34873 1.24681 0
M  V30 1512 N 131.551 -0.354651 -1.53558 0
M  V30 1513 C 132.499 0.512195 -2.26891 0
M  V30 1514 C 133.493 1.09263 -1.29452 0
M  V30 1515 O 134.699 1.03709 -1.47121 0
M  V30 1516 H 131.074 0.183878 -0.729173 0
M  V30 1517 H 133.045 -0.128202 -2.98124 0
M  V30 1518 C 131.794 1.64563 -3.06291 0
M  V30 1519 H 131.117 1.20829 -3.81104 0
M  V30 1520 H 132.557 2.22711 -3.60799 0
M  V30 1521 C 131.016 2.58158 -2.16462 0
M  V30 1522 O 131.546 3.60695 -1.76811 0
M  V30 1523 N 129.752 2.27096 -1.81317 0
M  V30 1524 H 129.299 1.43751 -2.1376 0
M  V30 1525 H 129.257 2.89975 -1.21498 0
M  V30 1526 N 133.029 1.57378 -0.0835403 0
M  V30 1527 C 133.992 2.12252 0.864959 0
M  V30 1528 C 134.992 1.04916 1.21858 0
M  V30 1529 O 136.182 1.30853 1.14991 0
M  V30 1530 C 133.314 2.63358 2.16461 0
M  V30 1531 H 134.507 2.97371 0.388676 0
M  V30 1532 H 132.06 1.55423 0.165317 0
M  V30 1533 H 132.795 1.81727 2.686 0
M  V30 1534 H 132.58 3.41826 1.92087 0
M  V30 1535 H 134.07 3.05847 2.84337 0
M  V30 1536 N 134.507 -0.190092 1.56449 0
M  V30 1537 C 135.455 -1.25501 1.95837 0
M  V30 1538 C 136.449 -1.4685 0.844485 0
M  V30 1539 O 137.655 -1.47651 1.02952 0
M  V30 1540 H 134.03 -0.421447 0.622805 0
M  V30 1541 H 136.001 -0.895821 2.84636 0
M  V30 1542 C 134.75 -2.59124 2.31841 0
M  V30 1543 H 134.073 -2.43514 3.17082 0
M  V30 1544 H 135.513 -3.32371 2.6326 0
M  V30 1545 C 133.972 -3.16488 1.15486 0
M  V30 1546 O 134.502 -3.99365 0.432535 0
M  V30 1547 N 132.708 -2.75305 0.930349 0
M  V30 1548 H 132.255 -2.08013 1.51948 0
M  V30 1549 H 132.213 -3.14024 0.153634 0
M  V30 1550 N 135.985 -1.50799 -0.457987 0
M  V30 1551 C 137.232 -1.62442 -1.20908 0
M  V30 1552 C 137.56 -0.330865 -1.91665 0
M  V30 1553 O 136.815 0.68401 -1.83357 0
M  V30 1554 C 137.114 -2.76358 -2.2663 0
M  V30 1555 C 136.78 -4.16378 -1.73033 0
M  V30 1556 C 135.442 -4.54473 -1.58138 0
M  V30 1557 C 137.794 -5.03836 -1.33413 0
M  V30 1558 C 135.122 -5.77754 -1.02065 0
M  V30 1559 C 137.474 -6.27676 -0.78778 0
M  V30 1560 C 136.138 -6.64562 -0.625561 0
M  V30 1561 H 135.408 -0.594417 -0.442435 0
M  V30 1562 H 138.055 -1.84772 -0.503136 0
M  V30 1563 H 136.36 -2.48167 -3.03184 0
M  V30 1564 H 138.057 -2.82568 -2.84528 0
M  V30 1565 H 134.647 -3.86331 -1.85598 0
M  V30 1566 H 138.831 -4.75026 -1.4375 0
M  V30 1567 H 134.087 -6.04997 -0.882547 0
M  V30 1568 H 138.261 -6.94797 -0.472177 0
M  V30 1569 H 135.888 -7.59965 -0.188926 0
M  V30 1570 N 137.463 0.71206 -1.40597 0
M  V30 1571 C 138.712 1.46754 -1.38369 0
M  V30 1572 C 139.025 1.95598 0.0097839 0
M  V30 1573 O 140.231 2.71059 0.154677 0
M  V30 1574 C 138.687 2.65289 -2.43207 0
M  V30 1575 C 138.295 2.23301 -3.88382 0
M  V30 1576 C 140.039 3.43008 -2.50091 0
M  V30 1577 C 137.946 3.38696 -4.84808 0
M  V30 1578 H 136.876 0.55118 -0.514506 0
M  V30 1579 H 139.527 0.774616 -1.66349 0
M  V30 1580 H 137.909 3.36769 -2.08332 0
M  V30 1581 H 139.083 1.59218 -4.32419 0
M  V30 1582 H 137.398 1.58618 -3.85006 0
M  V30 1583 H 139.995 4.28881 -3.1932 0
M  V30 1584 H 140.338 3.87065 -1.53253 0
M  V30 1585 H 140.871 2.78574 -2.83974 0
M  V30 1586 H 137.61 2.99668 -5.82992 0
M  V30 1587 H 137.13 4.01683 -4.45433 0
M  V30 1588 H 138.809 4.04712 -5.04794 0
M  V30 1589 N 138.941 1.26152 0.944643 0
M  V30 1590 C 139.888 1.07408 2.04285 0
M  V30 1591 C 140.858 -0.0198413 1.66088 0
M  V30 1592 O 142.043 0.139264 1.90291 0
M  V30 1593 C 139.183 0.70945 3.37729 0
M  V30 1594 C 138.296 1.87926 3.88983 0
M  V30 1595 C 137.431 1.45807 5.10797 0
M  V30 1596 C 136.47 2.5964 5.54305 0
M  V30 1597 N 135.607 2.18226 6.67324 0
M  V30 1598 H 140.447 2.01389 2.1965 0
M  V30 1599 H 137.984 1.00275 1.07626 0
M  V30 1600 H 139.942 0.478948 4.14442 0
M  V30 1601 H 138.572 -0.193389 3.2222 0
M  V30 1602 H 137.624 2.22279 3.08701 0
M  V30 1603 H 138.936 2.73377 4.17213 0
M  V30 1604 H 138.09 1.18781 5.94959 0
M  V30 1605 H 136.829 0.574414 4.84305 0
M  V30 1606 H 135.834 2.87399 4.68702 0
M  V30 1607 H 137.059 3.48599 5.828 0
M  V30 1608 H 135.005 1.3229 6.42523 0
M  V30 1609 H 134.922 2.97221 6.95123 0
M  V30 1610 H 136.19 1.94403 7.54869 0
M  V30 1611 N 140.419 -1.14872 1.07899 0
M  V30 1612 C 141.667 -1.85422 0.803941 0
M  V30 1613 C 141.988 -1.83051 -0.67211 0
M  V30 1614 O 141.258 -1.27532 -1.48703 0
M  V30 1615 H 139.838 -0.686537 0.294408 0
M  V30 1616 H 142.5 -1.39226 1.3639 0
M  V30 1617 H 141.596 -2.90399 1.14346 0
M  V30 1618 N 141.898 -0.863906 -1.31812 0
M  V30 1619 C 143.144 -0.472535 -1.97218 0
M  V30 1620 C 143.477 0.971394 -1.68159 0
M  V30 1621 O 142.752 1.68309 -0.974798 0
M  V30 1622 C 143.035 -0.723054 -3.52766 0
M  V30 1623 C 142.888 -2.21608 -3.91421 0
M  V30 1624 C 144.207 -0.185522 -4.39709 0
M  V30 1625 H 141.326 -0.173158 -0.71637 0
M  V30 1626 H 143.968 -1.08403 -1.56041 0
M  V30 1627 H 142.118 -0.202577 -3.87971 0
M  V30 1628 H 143.79 -2.80334 -3.66347 0
M  V30 1629 H 142.033 -2.691 -3.40246 0
M  V30 1630 H 142.704 -2.34203 -4.99853 0
M  V30 1631 H 145.18 -0.630726 -4.11292 0
M  V30 1632 H 144.056 -0.390306 -5.47511 0
M  V30 1633 H 144.317 0.912229 -4.32586 0
M  V30 1634 N 143.376 1.44774 -0.622745 0
M  V30 1635 C 144.606 2.06187 -0.130532 0
M  V30 1636 C 145.014 1.46547 1.19669 0
M  V30 1637 O 144.357 0.579636 1.74316 0
M  V30 1638 C 144.419 3.59437 0.0674983 0
M  V30 1639 C 144.083 4.41496 -1.18026 0
M  V30 1640 C 145.08 4.75512 -2.102 0
M  V30 1641 C 142.765 4.82007 -1.41333 0
M  V30 1642 C 144.759 5.48912 -3.23998 0
M  V30 1643 C 142.446 5.55157 -2.55429 0
M  V30 1644 C 143.444 5.88528 -3.46589 0
M  V30 1645 O 143.132 6.60191 -4.58697 0
M  V30 1646 H 142.864 0.672045 -0.0730162 0
M  V30 1647 H 145.418 1.86768 -0.854802 0
M  V30 1648 H 143.648 3.77314 0.846825 0
M  V30 1649 H 145.337 4.02642 0.513209 0
M  V30 1650 H 146.103 4.4476 -1.93425 0
M  V30 1651 H 141.982 4.55457 -0.712709 0
M  V30 1652 H 145.526 5.74877 -3.95174 0
M  V30 1653 H 141.423 5.85324 -2.72151 0
M  V30 1654 H 142.191 6.78654 -4.57571 0
M  V30 1655 N 144.854 0.36279 1.53368 0
M  V30 1656 C 146.102 -0.227326 2.00817 0
M  V30 1657 C 146.423 -1.49511 1.25186 0
M  V30 1658 O 145.693 -1.92482 0.364348 0
M  V30 1659 H 144.273 -0.0869923 0.741917 0
M  V30 1660 H 146.935 0.488381 1.88682 0
M  V30 1661 H 146.031 -0.456273 3.08747 0
M  V30 1662 N 146.332 -1.57332 0.0918853 0
M  V30 1663 C 147.743 -1.81496 -0.437739 0
M  V30 1664 C 148.094 -1.00727 -1.6837 0
M  V30 1665 O 147.219 -0.235694 -2.15113 0
M  V30 1666 C 147.814 -3.29197 -0.800939 0
M  V30 1667 C 146.373 -3.54136 -1.27532 0
M  V30 1668 C 145.52 -2.75979 -0.270392 0
M  V30 1669 H 148.471 -1.55494 0.317366 0
M  V30 1670 H 148.492 -3.42344 -1.66074 0
M  V30 1671 H 148.004 -3.87955 0.106078 0
M  V30 1672 H 146.105 -3.00705 -2.20016 0
M  V30 1673 H 146.218 -4.62792 -1.23938 0
M  V30 1674 H 144.582 -2.43349 -0.751872 0
M  V30 1675 H 145.365 -3.37484 0.629248 0
M  V30 1676 N 147.81 0.181792 -1.56548 0
M  V30 1677 C 148.757 1.22521 -1.95595 0
M  V30 1678 C 149.727 1.4454 -0.818373 0
M  V30 1679 O 150.912 1.57454 -1.07763 0
M  V30 1680 C 148.052 2.56193 -2.31212 0
M  V30 1681 C 147.165 2.41641 -3.58097 0
M  V30 1682 C 146.3 3.68108 -3.82975 0
M  V30 1683 C 145.339 3.48445 -5.03242 0
M  V30 1684 N 144.476 4.66956 -5.24306 0
M  V30 1685 H 149.316 0.885226 -2.84548 0
M  V30 1686 H 146.853 0.425718 -1.40805 0
M  V30 1687 H 148.811 3.34088 -2.49882 0
M  V30 1688 H 147.441 2.88208 -1.45382 0
M  V30 1689 H 146.493 1.54976 -3.474 0
M  V30 1690 H 147.805 2.23052 -4.46149 0
M  V30 1691 H 146.959 4.54441 -4.01956 0
M  V30 1692 H 145.698 3.89666 -2.93278 0
M  V30 1693 H 144.703 2.60499 -4.8417 0
M  V30 1694 H 145.928 3.2832 -5.9446 0
M  V30 1695 H 143.874 4.88752 -4.37559 0
M  V30 1696 H 143.791 4.51242 -6.06561 0
M  V30 1697 H 145.059 5.54602 -5.47756 0
M  V30 1698 N 149.288 1.51039 0.449983 0
M  V30 1699 C 150.251 1.70863 1.5277 0
M  V30 1700 C 151.251 0.578846 1.5002 0
M  V30 1701 O 152.441 0.846213 1.52266 0
M  V30 1702 C 149.573 1.75341 2.9235 0
M  V30 1703 H 150.766 2.67034 1.36502 0
M  V30 1704 H 148.319 1.40838 0.677812 0
M  V30 1705 H 149.054 0.809383 3.14037 0
M  V30 1706 H 148.839 2.57436 2.95752 0
M  V30 1707 H 150.329 1.92559 3.70555 0
M  V30 1708 N 150.766 -0.704594 1.40972 0
M  V30 1709 C 151.996 -1.49138 1.42974 0
M  V30 1710 C 152.404 -1.89175 0.0308406 0
M  V30 1711 O 151.747 -1.56734 -0.958138 0
M  V30 1712 C 151.809 -2.79016 2.26694 0
M  V30 1713 C 151.473 -2.61236 3.74973 0
M  V30 1714 C 152.47 -2.27773 4.67349 0
M  V30 1715 C 150.155 -2.77158 4.18914 0
M  V30 1716 C 152.149 -2.10457 6.01653 0
M  V30 1717 C 149.836 -2.59459 5.53285 0
M  V30 1718 C 150.834 -2.26158 6.4447 0
M  V30 1719 O 150.522 -2.08605 7.76363 0
M  V30 1720 H 150.254 -0.466443 0.489292 0
M  V30 1721 H 152.808 -0.8758 1.85793 0
M  V30 1722 H 151.038 -3.42947 1.78673 0
M  V30 1723 H 152.727 -3.40782 2.20504 0
M  V30 1724 H 153.493 -2.15095 4.34694 0
M  V30 1725 H 149.372 -3.02064 3.48251 0
M  V30 1726 H 152.916 -1.84387 6.72791 0
M  V30 1727 H 148.813 -2.71725 5.85522 0
M  V30 1728 H 149.581 -2.23439 7.87412 0
M  V30 1729 N 152.244 -1.26651 -0.937939 0
M  V30 1730 C 153.49 -1.12553 -1.687 0
M  V30 1731 C 153.823 0.329782 -1.91379 0
M  V30 1732 O 153.098 1.24202 -1.4968 0
M  V30 1733 C 153.381 -1.89862 -3.05981 0
M  V30 1734 C 153.234 -3.43318 -2.90607 0
M  V30 1735 C 154.553 -1.69499 -4.0615 0
M  V30 1736 H 151.672 -0.410257 -0.612257 0
M  V30 1737 H 154.314 -1.55685 -1.08913 0
M  V30 1738 H 152.464 -1.53204 -3.57017 0
M  V30 1739 H 154.136 -3.89747 -2.46769 0
M  V30 1740 H 152.379 -3.70179 -2.26164 0
M  V30 1741 H 153.05 -3.92642 -3.8799 0
M  V30 1742 H 155.526 -2.01442 -3.64088 0
M  V30 1743 H 154.402 -2.26002 -5.00214 0
M  V30 1744 H 154.663 -0.640365 -4.37438 0
M  V30 1745 N 153.722 1.14298 -1.08507 0
M  V30 1746 C 154.685 2.17607 -0.719711 0
M  V30 1747 C 155.685 1.58907 0.245997 0
M  V30 1748 O 156.875 1.74181 0.0254081 0
M  V30 1749 C 154.007 3.40842 -0.0627695 0
M  V30 1750 H 155.2 2.51443 -1.63452 0
M  V30 1751 H 152.753 1.28963 -0.88307 0
M  V30 1752 H 153.488 3.12587 0.863716 0
M  V30 1753 H 153.273 3.84713 -0.757504 0
M  V30 1754 H 154.763 4.17221 0.177786 0
M  V30 1755 N 155.201 0.870884 1.31352 0
M  V30 1756 C 156.429 0.49677 2.00848 0
M  V30 1757 C 156.844 -0.910998 1.65367 0
M  V30 1758 O 156.201 -1.59696 0.883374 0
M  V30 1759 C 156.252 0.645308 3.55694 0
M  V30 1760 O 155.973 1.99764 3.89905 0
M  V30 1761 C 157.474 0.272326 4.42463 0
M  V30 1762 H 154.694 0.193462 0.642506 0
M  V30 1763 H 157.238 1.1723 1.67563 0
M  V30 1764 H 155.393 0.0173176 3.87396 0
M  V30 1765 H 155.807 2.00607 4.84621 0
M  V30 1766 H 157.281 0.427208 5.50344 0
M  V30 1767 H 157.758 -0.788587 4.32062 0
M  V30 1768 H 158.364 0.876054 4.1618 0
M  V30 1769 N 156.679 -1.44442 0.630414 0
M  V30 1770 C 157.611 -2.2892 -0.113347 0
M  V30 1771 C 158.624 -1.41243 -0.80959 0
M  V30 1772 O 159.813 -1.65402 -0.671156 0
M  V30 1773 C 156.913 -3.17594 -1.18266 0
M  V30 1774 C 156.086 -4.33682 -0.569073 0
M  V30 1775 C 155.145 -5.03397 -1.53226 0
M  V30 1776 O 154.171 -5.59438 -1.04967 0
M  V30 1777 N 155.373 -5.04783 -2.86661 0
M  V30 1778 H 158.138 -2.93392 0.611636 0
M  V30 1779 H 155.699 -1.54881 0.471523 0
M  V30 1780 H 157.691 -3.61097 -1.82732 0
M  V30 1781 H 156.261 -2.54876 -1.80988 0
M  V30 1782 H 155.481 -3.9338 0.254187 0
M  V30 1783 H 156.769 -5.08608 -0.139767 0
M  V30 1784 H 156.167 -4.60584 -3.28449 0
M  V30 1785 H 154.724 -5.52077 -3.46489 0
M  V30 1786 N 158.157 -0.370918 -1.53173 0
M  V30 1787 C 159.405 0.216673 -2.00935 0
M  V30 1788 C 159.726 1.48845 -1.25977 0
M  V30 1789 O 158.996 1.92286 -0.374551 0
M  V30 1790 H 157.576 0.0830565 -0.742368 0
M  V30 1791 H 160.238 -0.49838 -1.8842 0
M  V30 1792 H 159.334 0.439893 -3.08984 0
M  V30 1793 N 159.635 1.57281 -0.100228 0
M  V30 1794 C 161.046 1.81725 0.428107 0
M  V30 1795 C 161.397 1.01619 1.67833 0
M  V30 1796 O 160.522 0.247098 2.14985 0
M  V30 1797 C 161.117 3.29617 0.78347 0
M  V30 1798 C 159.676 3.54808 1.25653 0
M  V30 1799 C 158.823 2.76118 0.255752 0
M  V30 1800 H 161.774 1.55324 -0.325608 0
M  V30 1801 H 161.795 3.4322 1.64256 0
M  V30 1802 H 161.307 3.87893 -0.12665 0
M  V30 1803 H 159.408 3.01868 2.18418 0
M  V30 1804 H 159.521 4.63443 1.21482 0
M  V30 1805 H 157.885 2.43745 0.738956 0
M  V30 1806 H 158.668 3.37145 -0.647136 0
M  V30 1807 N 161.113 -0.173488 1.56642 0
M  V30 1808 C 162.043 -1.2171 1.99271 0
M  V30 1809 C 163.024 -1.46289 0.867959 0
M  V30 1810 O 164.209 -1.5766 1.13388 0
M  V30 1811 C 161.339 -2.55651 2.35074 0
M  V30 1812 C 160.293 -2.45645 3.50489 0
M  V30 1813 C 159.619 -3.84056 3.72028 0
M  V30 1814 C 160.919 -1.96302 4.84007 0
M  V30 1815 H 162.613 -0.86275 2.867 0
M  V30 1816 H 160.159 -0.413571 1.37933 0
M  V30 1817 H 162.112 -3.2886 2.63494 0
M  V30 1818 H 160.836 -2.92869 1.44552 0
M  V30 1819 H 159.495 -1.7489 3.22194 0
M  V30 1820 H 159.143 -4.18664 2.788 0
M  V30 1821 H 158.843 -3.7823 4.49684 0
M  V30 1822 H 160.367 -4.58854 4.02846 0
M  V30 1823 H 161.781 -2.59284 5.11317 0
M  V30 1824 H 160.178 -2.01429 5.65284 0
M  V30 1825 H 161.248 -0.917226 4.76146 0
M  V30 1826 N 162.591 -1.51276 -0.441967 0
M  V30 1827 C 163.554 -1.7167 -1.51862 0
M  V30 1828 C 164.554 -0.586793 -1.49711 0
M  V30 1829 O 165.744 -0.854276 -1.51815 0
M  V30 1830 C 162.876 -1.76889 -2.91416 0
M  V30 1831 H 164.069 -2.67754 -1.35084 0
M  V30 1832 H 161.622 -1.41196 -0.670333 0
M  V30 1833 H 162.357 -0.826026 -3.13604 0
M  V30 1834 H 162.142 -2.59001 -2.94382 0
M  V30 1835 H 163.632 -1.94522 -3.69528 0
M  V30 1836 N 164.069 0.697108 -1.41344 0
M  V30 1837 C 165.017 1.83237 -1.43272 0
M  V30 1838 C 166.011 1.66522 -0.310947 0
M  V30 1839 O 167.217 1.73402 -0.482899 0
M  V30 1840 H 163.592 0.603802 -0.448249 0
M  V30 1841 H 165.563 1.78727 -2.38954 0
M  V30 1842 C 164.312 3.21245 -1.33029 0
M  V30 1843 H 163.635 3.34723 -2.18633 0
M  V30 1844 H 165.075 4.00763 -1.38439 0
M  V30 1845 C 163.534 3.36873 -0.0424635 0
M  V30 1846 O 164.064 3.91177 0.913421 0
M  V30 1847 N 162.27 2.90581 0.0331145 0
M  V30 1848 H 161.817 2.46577 -0.745506 0
M  V30 1849 H 161.775 3.01416 0.894199 0
M  V30 1850 N 165.547 1.27147 0.931209 0
M  V30 1851 C 166.775 1.16082 1.71267 0
M  V30 1852 C 167.19 -0.282772 1.8667 0
M  V30 1853 O 166.547 -1.19283 1.38122 0
M  V30 1854 C 166.598 1.8358 3.11417 0
M  V30 1855 O 166.319 3.22299 2.96741 0
M  V30 1856 C 167.82 1.78597 4.05732 0
M  V30 1857 H 165.04 0.403758 0.535929 0
M  V30 1858 H 167.584 1.67953 1.16671 0
M  V30 1859 H 165.739 1.35623 3.62885 0
M  V30 1860 H 166.153 3.55851 3.85319 0
M  V30 1861 H 167.627 2.30444 5.01597 0
M  V30 1862 H 168.104 0.754564 4.3267 0
M  V30 1863 H 168.71 2.26152 3.60188 0
M  V30 1864 N 167.025 -1.13721 1.09112 0
M  V30 1865 C 168.271 -1.85198 0.826414 0
M  V30 1866 C 168.604 -1.83129 -0.646319 0
M  V30 1867 O 167.879 -1.2671 -1.47563 0
M  V30 1868 C 168.162 -3.33507 1.35812 0
M  V30 1869 C 168.015 -3.44108 2.89672 0
M  V30 1870 C 169.334 -4.28838 0.989256 0
M  V30 1871 H 166.453 -0.67243 0.301675 0
M  V30 1872 H 169.095 -1.33499 1.35197 0
M  V30 1873 H 167.245 -3.77666 0.911082 0
M  V30 1874 H 168.917 -3.08684 3.428 0
M  V30 1875 H 167.16 -2.85087 3.26967 0
M  V30 1876 H 167.831 -4.48388 3.21951 0
M  V30 1877 H 170.307 -3.92734 1.37475 0
M  V30 1878 H 169.183 -5.31051 1.38838 0
M  V30 1879 H 169.444 -4.4198 -0.102924 0
M  V30 1880 N 168.503 -0.877838 -1.30888 0
M  V30 1881 C 169.752 -0.488793 -1.95688 0
M  V30 1882 C 170.065 0.965485 -1.70111 0
M  V30 1883 O 171.271 1.46104 -2.28836 0
M  V30 1884 C 169.727 -0.823201 -3.50359 0
M  V30 1885 C 169.335 -2.29477 -3.84765 0
M  V30 1886 C 171.079 -0.503009 -4.21509 0
M  V30 1887 C 168.986 -2.57118 -5.32583 0
M  V30 1888 H 167.916 -0.179062 -0.732429 0
M  V30 1889 H 170.567 -1.07183 -1.48943 0
M  V30 1890 H 168.949 -0.169331 -3.95638 0
M  V30 1891 H 170.123 -2.99236 -3.5042 0
M  V30 1892 H 168.438 -2.58178 -3.267 0
M  V30 1893 H 171.035 -0.68665 -5.30273 0
M  V30 1894 H 171.378 0.557109 -4.12555 0
M  V30 1895 H 171.911 -1.11376 -3.8189 0
M  V30 1896 H 168.65 -3.61843 -5.4658 0
M  V30 1897 H 168.17 -1.91961 -5.68253 0
M  V30 1898 H 169.849 -2.42251 -5.99936 0
M  V30 1899 N 169.982 1.44106 -0.638065 0
M  V30 1900 C 171.259 1.95453 -0.0759321 0
M  V30 1901 C 171.639 1.57984 1.40015 0
M  V30 1902 O 170.987 0.857361 2.11806 0
M  V30 1903 C 171.197 3.47655 -0.306132 0
M  V30 1904 C 172.545 4.24114 -0.203008 0
M  V30 1905 O 173.569 3.55405 -0.237871 0
M  V30 1906 O 172.428 5.46381 -0.113827 0
M  V30 1907 H 169.522 0.826797 0.0183332 0
M  V30 1908 H 172.068 1.54122 -0.710251 0
M  V30 1909 H 170.84 3.68 -1.3301 0
M  V30 1910 H 170.463 3.95949 0.361991 0
M  V30 1911 N 171.46 0.379036 1.52974 0
M  V30 1912 C 172.707 -0.206421 2.01445 0
M  V30 1913 C 173.035 -1.47668 1.26587 0
M  V30 1914 O 172.29 -1.92514 0.351675 0
M  V30 1915 C 172.589 -0.53096 3.53434 0
M  V30 1916 C 172.255 0.646546 4.46241 0
M  V30 1917 C 170.917 0.969604 4.7133 0
M  V30 1918 C 173.269 1.43479 5.01062 0
M  V30 1919 C 170.597 2.08263 5.48492 0
M  V30 1920 C 172.949 2.53834 5.7944 0
M  V30 1921 C 171.613 2.86659 6.02812 0
M  V30 1922 H 170.883 -0.0755349 0.73714 0
M  V30 1923 H 173.53 0.514271 1.84465 0
M  V30 1924 H 171.835 -1.33285 3.68432 0
M  V30 1925 H 173.532 -0.996417 3.88423 0
M  V30 1926 H 170.122 0.384734 4.2687 0
M  V30 1927 H 174.306 1.19844 4.81613 0
M  V30 1928 H 169.562 2.34078 5.64816 0
M  V30 1929 H 173.736 3.15319 6.20924 0
M  V30 1930 H 171.363 3.73026 6.62387 0
M  V30 1931 N 172.938 -1.57226 0.108567 0
M  V30 1932 C 174.184 -1.95919 -0.546564 0
M  V30 1933 C 174.539 -0.990417 -1.6495 0
M  V30 1934 O 173.832 -0.0186593 -1.91591 0
M  V30 1935 C 174.026 -3.38911 -1.13463 0
M  V30 1936 C 173.855 -4.4961 -0.0901926 0
M  V30 1937 C 172.625 -5.04168 0.338008 0
M  V30 1938 C 174.823 -5.09693 0.686808 0
M  V30 1939 N 172.805 -5.98434 1.36931 0
M  V30 1940 C 174.176 -5.99804 1.56958 0
M  V30 1941 C 176.231 -4.92388 0.738846 0
M  V30 1942 C 174.934 -6.74463 2.49983 0
M  V30 1943 C 176.96 -5.67719 1.65676 0
M  V30 1944 C 176.322 -6.57507 2.52713 0
M  V30 1945 H 172.421 -0.763312 -0.169936 0
M  V30 1946 H 175.005 -1.93728 0.194264 0
M  V30 1947 H 173.176 -3.41769 -1.84522 0
M  V30 1948 H 174.908 -3.64752 -1.75322 0
M  V30 1949 H 171.663 -4.73571 -0.0523673 0
M  V30 1950 H 172.087 -6.5027 1.88356 0
M  V30 1951 H 176.729 -4.22724 0.080084 0
M  V30 1952 H 174.447 -7.4338 3.16878 0
M  V30 1953 H 178.033 -5.56338 1.70233 0
M  V30 1954 H 176.913 -7.14778 3.22586 0
M  V30 1955 N 174.416 0.165178 -1.56732 0
M  V30 1956 C 175.832 0.517174 -1.50988 0
M  V30 1957 C 176.032 1.84331 -0.813894 0
M  V30 1958 O 175.088 2.49672 -0.37682 0
M  V30 1959 C 176.401 0.544261 -2.95733 0
M  V30 1960 C 177.949 0.631039 -3.06573 0
M  V30 1961 C 178.424 0.68896 -4.52788 0
M  V30 1962 N 179.915 0.751683 -4.5706 0
M  V30 1963 C 180.65 0.817177 -5.67547 0
M  V30 1964 N 180.146 0.843129 -6.8765 0
M  V30 1965 N 181.939 0.856668 -5.55534 0
M  V30 1966 H 174.09 -0.704318 -2.00382 0
M  V30 1967 H 176.353 -0.254687 -0.913148 0
M  V30 1968 H 176.059 -0.361607 -3.49836 0
M  V30 1969 H 175.933 1.3886 -3.5071 0
M  V30 1970 H 178.32 1.52733 -2.52501 0
M  V30 1971 H 178.401 -0.240095 -2.54671 0
M  V30 1972 H 178.045 -0.2031 -5.07494 0
M  V30 1973 H 177.975 1.57633 -5.02454 0
M  V30 1974 H 180.466 0.739661 -3.70591 0
M  V30 1975 H 180.779 0.894448 -7.67606 0
M  V30 1976 H 179.124 0.811304 -6.90248 0
M  V30 1977 H 182.315 0.833437 -4.60621 0
M  V30 1978 H 182.488 0.904247 -6.4166 0
M  V30 1979 N 175.894 1.51508 0.433938 0
M  V30 1980 C 176.827 1.67756 1.54704 0
M  V30 1981 C 177.805 0.525127 1.53887 0
M  V30 1982 O 178.989 0.749393 1.72963 0
M  V30 1983 C 176.116 1.69424 2.9328 0
M  V30 1984 C 175.162 2.90673 3.12108 0
M  V30 1985 S 175.995 4.51431 2.88046 0
M  V30 1986 C 177.151 4.55849 4.28897 0
M  V30 1987 H 177.384 2.61904 1.40689 0
M  V30 1988 H 174.917 1.41235 0.62386 0
M  V30 1989 H 176.875 1.7107 3.73156 0
M  V30 1990 H 175.536 0.764464 3.04655 0
M  V30 1991 H 174.729 2.88251 4.13434 0
M  V30 1992 H 174.331 2.86786 2.40062 0
M  V30 1993 H 176.623 4.31699 5.22152 0
M  V30 1994 H 177.566 5.57676 4.36351 0
M  V30 1995 H 177.974 3.85137 4.12711 0
M  V30 1996 N 177.372 -0.689602 1.41712 0
M  V30 1997 C 178.621 -1.44534 1.40686 0
M  V30 1998 C 178.934 -1.95588 0.0213352 0
M  V30 1999 O 180.14 -2.71271 -0.111534 0
M  V30 2000 C 178.596 -2.61387 2.47396 0
M  V30 2001 C 178.204 -2.17094 3.91885 0
M  V30 2002 C 179.948 -3.38986 2.55517 0
M  V30 2003 C 177.855 -3.3094 4.90135 0
M  V30 2004 H 176.785 -0.542925 0.52321 0
M  V30 2005 H 179.436 -0.748054 1.6756 0
M  V30 2006 H 177.818 -3.33412 2.13664 0
M  V30 2007 H 178.992 -1.52318 4.34897 0
M  V30 2008 H 177.307 -1.52473 3.8748 0
M  V30 2009 H 179.904 -4.23747 3.26102 0
M  V30 2010 H 180.247 -3.84578 1.59391 0
M  V30 2011 H 180.78 -2.74021 2.8837 0
M  V30 2012 H 177.519 -2.90355 5.87685 0
M  V30 2013 H 177.039 -3.94546 4.51767 0
M  V30 2014 H 178.718 -3.9663 5.11169 0
M  V30 2015 N 178.85 -1.27639 -0.924453 0
M  V30 2016 C 180.096 -1.15345 -1.67532 0
M  V30 2017 C 180.451 0.297096 -1.90092 0
M  V30 2018 O 179.744 1.21374 -1.48253 0
M  V30 2019 C 179.938 -1.87407 -3.04325 0
M  V30 2020 C 179.767 -3.3932 -2.95114 0
M  V30 2021 C 178.537 -4.08644 -2.97218 0
M  V30 2022 C 180.735 -4.35242 -2.73987 0
M  V30 2023 N 178.717 -5.47102 -2.78482 0
M  V30 2024 C 180.088 -5.6099 -2.63988 0
M  V30 2025 C 182.143 -4.25294 -2.589 0
M  V30 2026 C 180.846 -6.77924 -2.40442 0
M  V30 2027 C 182.872 -5.41952 -2.36731 0
M  V30 2028 C 182.234 -6.66658 -2.27478 0
M  V30 2029 H 178.333 -0.47696 -0.619704 0
M  V30 2030 H 180.917 -1.6115 -1.09265 0
M  V30 2031 H 179.088 -1.44053 -3.60699 0
M  V30 2032 H 180.82 -1.6759 -3.68369 0
M  V30 2033 H 177.575 -3.60136 -3.07569 0
M  V30 2034 H 177.999 -6.19852 -2.72236 0
M  V30 2035 H 182.641 -3.29598 -2.64811 0
M  V30 2036 H 180.359 -7.73699 -2.3327 0
M  V30 2037 H 183.945 -5.36137 -2.25938 0
M  V30 2038 H 182.825 -7.55405 -2.10555 0
M  V30 2039 N 180.328 1.1314 -1.09713 0
M  V30 2040 C 181.238 2.22242 -0.751367 0
M  V30 2041 C 182.254 1.72224 0.247938 0
M  V30 2042 O 183.43 2.01205 0.0885463 0
M  V30 2043 C 180.495 3.46231 -0.180274 0
M  V30 2044 C 179.556 4.11125 -1.2359 0
M  V30 2045 C 178.789 5.29195 -0.691966 0
M  V30 2046 O 179.012 5.68342 0.48414 0
M  V30 2047 O 177.946 5.84214 -1.44838 0
M  V30 2048 H 181.772 2.54197 -1.66186 0
M  V30 2049 H 179.357 1.21331 -0.871735 0
M  V30 2050 H 181.239 4.21185 0.134739 0
M  V30 2051 H 179.914 3.1597 0.703185 0
M  V30 2052 H 178.821 3.37985 -1.60366 0
M  V30 2053 H 180.154 4.45524 -2.09211 0
M  V30 2054 N 181.806 0.884767 1.30421 0
M  V30 2055 C 183.036 0.517293 2.00019 0
M  V30 2056 C 183.444 -0.898632 1.66497 0
M  V30 2057 O 182.787 -1.60245 0.898181 0
M  V30 2058 C 182.849 0.612025 3.54252 0
M  V30 2059 C 182.513 1.99222 4.1129 0
M  V30 2060 C 183.51 2.9616 4.273 0
M  V30 2061 C 181.195 2.29755 4.46674 0
M  V30 2062 C 183.189 4.21764 4.77906 0
M  V30 2063 C 180.876 3.55606 4.96979 0
M  V30 2064 C 181.874 4.51425 5.12547 0
M  V30 2065 O 181.562 5.75043 5.61766 0
M  V30 2066 H 181.294 0.198529 0.64619 0
M  V30 2067 H 183.848 1.1919 1.67281 0
M  V30 2068 H 182.078 -0.119561 3.86515 0
M  V30 2069 H 183.767 0.255859 4.05093 0
M  V30 2070 H 184.533 2.73882 4.00267 0
M  V30 2071 H 180.412 1.55942 4.33824 0
M  V30 2072 H 183.956 4.96561 4.89972 0
M  V30 2073 H 179.853 3.7772 5.23448 0
M  V30 2074 H 180.621 5.77422 5.80109 0
M  V30 2075 N 183.284 -1.43765 0.645699 0
M  V30 2076 C 184.232 -2.32516 -0.0624849 0
M  V30 2077 C 185.226 -1.48183 -0.820855 0
M  V30 2078 O 186.432 -1.64439 -0.732106 0
M  V30 2079 H 182.807 -0.750989 -0.0389864 0
M  V30 2080 H 184.778 -2.89979 0.703892 0
M  V30 2081 C 183.527 -3.32389 -1.02044 0
M  V30 2082 H 182.85 -3.97301 -0.446312 0
M  V30 2083 H 184.29 -3.97138 -1.48517 0
M  V30 2084 C 182.749 -2.62416 -2.11281 0
M  V30 2085 O 183.279 -2.434 -3.19561 0
M  V30 2086 N 181.485 -2.21913 -1.87624 0
M  V30 2087 H 181.032 -2.37578 -0.995703 0
M  V30 2088 H 180.99 -1.75424 -2.6091 0
M  V30 2089 N 184.763 -0.387143 -1.52771 0
M  V30 2090 C 186.009 0.196025 -2.0185 0
M  V30 2091 C 186.342 1.46641 -1.27319 0
M  V30 2092 O 185.617 1.90889 -0.373032 0
M  V30 2093 C 185.9 0.466136 -3.5707 0
M  V30 2094 C 185.753 -0.819385 -4.42274 0
M  V30 2095 C 187.072 1.25768 -4.21747 0
M  V30 2096 H 184.191 0.0697708 -0.73369 0
M  V30 2097 H 186.833 -0.516286 -1.82851 0
M  V30 2098 H 184.983 1.07293 -3.7339 0
M  V30 2099 H 186.655 -1.4563 -4.37709 0
M  V30 2100 H 184.898 -1.43517 -4.09372 0
M  V30 2101 H 185.569 -0.585065 -5.48891 0
M  V30 2102 H 188.045 0.744167 -4.09391 0
M  V30 2103 H 186.921 1.41541 -5.30337 0
M  V30 2104 H 187.182 2.27228 -3.79236 0
M  V30 2105 N 186.241 1.57166 -0.116904 0
M  V30 2106 C 187.487 1.95412 0.542405 0
M  V30 2107 C 187.82 1.00019 1.66463 0
M  V30 2108 O 187.095 0.0370346 1.94465 0
M  V30 2109 C 187.378 3.43615 1.07708 0
M  V30 2110 C 187.231 4.49781 -0.0415868 0
M  V30 2111 C 188.55 3.93616 1.96861 0
M  V30 2112 H 185.669 0.710543 0.195696 0
M  V30 2113 H 188.311 1.89027 -0.192038 0
M  V30 2114 H 186.461 3.49187 1.70296 0
M  V30 2115 H 188.133 4.56308 -0.676793 0
M  V30 2116 H 186.376 4.28033 -0.705019 0
M  V30 2117 H 187.047 5.50733 0.373717 0
M  V30 2118 H 189.523 3.90335 1.44146 0
M  V30 2119 H 188.399 4.97838 2.3119 0
M  V30 2120 H 188.66 3.34188 2.89432 0
M  V30 2121 N 187.719 -0.156864 1.56817 0
M  V30 2122 C 188.968 -0.869504 1.81996 0
M  V30 2123 C 189.281 -1.82777 0.696545 0
M  V30 2124 O 190.487 -2.58384 0.833658 0
M  V30 2125 C 188.943 -1.59679 3.22538 0
M  V30 2126 C 188.551 -0.681431 4.42787 0
M  V30 2127 C 190.295 -2.2968 3.56997 0
M  V30 2128 C 188.202 -1.40978 5.74351 0
M  V30 2129 H 187.132 -0.328438 0.678708 0
M  V30 2130 H 189.783 -0.1223 1.83092 0
M  V30 2131 H 188.165 -2.38927 3.158 0
M  V30 2132 H 189.339 0.0751166 4.60739 0
M  V30 2133 H 187.654 -0.0903431 4.16302 0
M  V30 2134 H 190.251 -2.84794 4.52544 0
M  V30 2135 H 190.594 -3.05707 2.82576 0
M  V30 2136 H 191.127 -1.57361 3.65352 0
M  V30 2137 H 187.866 -0.691561 6.51842 0
M  V30 2138 H 187.386 -2.13929 5.60352 0
M  V30 2139 H 189.065 -1.95337 6.16808 0
M  V30 2140 N 189.197 -1.51736 -0.425897 0
M  V30 2141 C 190.446 -1.64201 -1.17136 0
M  V30 2142 C 190.759 -0.369705 -1.92074 0
M  V30 2143 O 191.965 -0.373898 -2.68913 0
M  V30 2144 C 190.421 -2.90035 -2.13091 0
M  V30 2145 C 190.029 -4.24312 -1.43747 0
M  V30 2146 C 191.773 -3.1186 -2.87999 0
M  V30 2147 C 189.68 -5.41285 -2.38253 0
M  V30 2148 H 188.61 -0.611624 -0.440944 0
M  V30 2149 H 191.261 -1.78212 -0.437328 0
M  V30 2150 H 189.643 -2.69684 -2.89977 0
M  V30 2151 H 190.817 -4.55086 -0.723408 0
M  V30 2152 H 189.132 -4.08456 -0.809465 0
M  V30 2153 H 191.729 -3.96427 -3.58817 0
M  V30 2154 H 192.072 -2.25403 -3.49999 0
M  V30 2155 H 192.605 -3.32605 -2.18217 0
M  V30 2156 H 189.344 -6.30037 -1.80925 0
M  V30 2157 H 188.864 -5.14872 -3.0768 0
M  V30 2158 H 190.543 -5.73694 -2.99139 0
M  V30 2159 N 190.675 0.682077 -1.42076 0
M  V30 2160 C 191.921 1.44428 -1.42367 0
M  V30 2161 C 192.254 1.94164 -0.0373056 0
M  V30 2162 O 191.529 1.70429 0.937239 0
M  V30 2163 C 191.812 2.64654 -2.44194 0
M  V30 2164 C 191.665 2.20596 -3.91991 0
M  V30 2165 C 192.984 3.66865 -2.431 0
M  V30 2166 H 190.103 0.523834 -0.518428 0
M  V30 2167 H 192.745 0.77576 -1.73442 0
M  V30 2168 H 190.895 3.2169 -2.17826 0
M  V30 2169 H 192.567 1.68783 -4.29313 0
M  V30 2170 H 190.81 1.52242 -4.06208 0
M  V30 2171 H 191.481 3.06921 -4.58807 0
M  V30 2172 H 193.957 3.19531 -2.66532 0
M  V30 2173 H 192.833 4.48577 -3.16339 0
M  V30 2174 H 193.094 4.17493 -1.45437 0
M  V30 2175 N 192.153 1.28127 0.917671 0
M  V30 2176 C 193.086 1.06039 2.02067 0
M  V30 2177 C 194.064 -0.0223285 1.62585 0
M  V30 2178 O 195.248 0.124823 1.88086 0
M  V30 2179 C 192.375 0.610596 3.33151 0
M  V30 2180 C 191.421 1.68937 3.91615 0
M  V30 2181 S 192.254 3.28437 4.22953 0
M  V30 2182 C 193.41 2.85283 5.57103 0
M  V30 2183 H 193.643 1.99425 2.20493 0
M  V30 2184 H 191.176 1.12071 1.06205 0
M  V30 2185 H 193.134 0.357778 4.08938 0
M  V30 2186 H 191.795 -0.303364 3.12632 0
M  V30 2187 H 190.988 1.32619 4.86239 0
M  V30 2188 H 190.59 1.89478 3.2245 0
M  V30 2189 H 192.882 2.3121 6.36827 0
M  V30 2190 H 193.825 3.7869 5.98331 0
M  V30 2191 H 194.233 2.24118 5.18104 0
M  V30 2192 N 193.631 -1.12557 1.10312 0
M  V30 2193 C 194.594 -2.16434 0.75424 0
M  V30 2194 C 195.594 -1.59278 -0.220685 0
M  V30 2195 O 196.784 -1.742 0.00230591 0
M  V30 2196 C 193.916 -3.40699 0.116987 0
M  V30 2197 H 195.109 -2.48811 1.67431 0
M  V30 2198 H 192.662 -1.27542 0.903475 0
M  V30 2199 H 193.397 -3.13921 -0.813877 0
M  V30 2200 H 193.182 -3.83459 0.818613 0
M  V30 2201 H 194.672 -4.17451 -0.111387 0
M  V30 2202 N 195.109 -0.891671 -1.2995 0
M  V30 2203 C 196.349 -0.520296 -1.97667 0
M  V30 2204 C 196.713 0.914797 -1.68806 0
M  V30 2205 O 197.914 1.39263 -2.29911 0
M  V30 2206 C 196.185 -0.795222 -3.48441 0
M  V30 2207 S 197.744 -0.526953 -4.35624 0
M  V30 2208 H 194.562 -0.19333 -0.684211 0
M  V30 2209 H 197.164 -1.15238 -1.57926 0
M  V30 2210 H 195.868 -1.83805 -3.66938 0
M  V30 2211 H 195.399 -0.15095 -3.9311 0
M  V30 2212 H 197.414 0.631533 -4.92165 0
M  V30 2213 N 196.587 1.43421 -0.653314 0
M  V30 2214 C 198.003 1.56341 -0.320886 0
M  V30 2215 C 198.203 1.63696 1.17499 0
M  V30 2216 O 197.259 1.59208 1.95982 0
M  V30 2217 C 198.572 2.82424 -1.03233 0
M  V30 2218 C 200.12 2.96168 -1.01259 0
M  V30 2219 C 200.595 4.25084 -1.70492 0
M  V30 2220 N 202.086 4.31948 -1.67257 0
M  V30 2221 C 202.821 5.30466 -2.17701 0
M  V30 2222 N 202.317 6.35261 -2.76434 0
M  V30 2223 N 204.11 5.2212 -2.082 0
M  V30 2224 H 196.261 1.3689 -1.62403 0
M  V30 2225 H 198.524 0.657455 -0.682977 0
M  V30 2226 H 198.23 2.83053 -2.08744 0
M  V30 2227 H 198.104 3.72653 -0.583948 0
M  V30 2228 H 200.491 2.9508 0.0341235 0
M  V30 2229 H 200.572 2.07229 -1.49966 0
M  V30 2230 H 200.216 4.26932 -2.7512 0
M  V30 2231 H 200.146 5.1292 -1.19251 0
M  V30 2232 H 202.637 3.56838 -1.24398 0
M  V30 2233 H 202.95 7.06754 -3.12601 0
M  V30 2234 H 201.295 6.35884 -2.80495 0
M  V30 2235 H 204.486 4.39166 -1.62021 0
M  V30 2236 H 204.659 5.98739 -2.47822 0
M  V30 2237 N 198.065 0.39524 1.52563 0
M  V30 2238 C 198.975 -0.444232 2.30356 0
M  V30 2239 C 199.991 -1.06615 1.37511 0
M  V30 2240 O 201.167 -1.07067 1.70583 0
M  V30 2241 C 198.232 -1.55315 3.09964 0
M  V30 2242 C 197.293 -0.955734 4.18526 0
M  V30 2243 C 196.526 -2.01181 4.9433 0
M  V30 2244 O 196.749 -3.22781 4.70285 0
M  V30 2245 O 195.683 -1.62579 5.79527 0
M  V30 2246 H 199.509 0.189667 3.03107 0
M  V30 2247 H 197.094 0.1588 1.48554 0
M  V30 2248 H 198.976 -2.19724 3.59582 0
M  V30 2249 H 197.651 -2.17191 2.4002 0
M  V30 2250 H 196.558 -0.274743 3.7309 0
M  V30 2251 H 197.891 -0.381109 4.90722 0
M  V30 2252 N 199.544 -1.57102 0.125237 0
M  V30 2253 C 200.791 -1.95407 -0.531248 0
M  V30 2254 C 201.119 -1.0089 -1.66287 0
M  V30 2255 O 200.374 -0.0339431 -1.95671 0
M  V30 2256 C 200.673 -3.40096 -1.09862 0
M  V30 2257 C 200.339 -4.50815 -0.0876989 0
M  V30 2258 C 199.001 -4.80824 0.19026 0
M  V30 2259 C 201.353 -5.17724 0.600902 0
M  V30 2260 C 198.681 -5.75058 1.163 0
M  V30 2261 C 201.033 -6.13005 1.56231 0
M  V30 2262 C 199.697 -6.41403 1.8482 0
M  V30 2263 H 198.967 -0.715046 -0.194397 0
M  V30 2264 H 201.614 -1.90373 0.207463 0
M  V30 2265 H 199.919 -3.41855 -1.91422 0
M  V30 2266 H 201.616 -3.6705 -1.61478 0
M  V30 2267 H 198.206 -4.27444 -0.314528 0
M  V30 2268 H 202.39 -4.94691 0.399333 0
M  V30 2269 H 197.646 -5.95362 1.39117 0
M  V30 2270 H 201.82 -6.63934 2.10153 0
M  V30 2271 H 199.447 -7.14229 2.60349 0
M  V30 2272 N 201.022 0.148545 -1.56898 0
M  V30 2273 C 201.932 1.20293 -2.01412 0
M  V30 2274 C 202.948 1.47107 -0.929273 0
M  V30 2275 O 204.124 1.58807 -1.23863 0
M  V30 2276 C 201.189 2.51682 -2.38447 0
M  V30 2277 C 200.25 2.32529 -3.60872 0
M  V30 2278 C 199.483 3.57653 -3.96132 0
M  V30 2279 O 199.706 4.63771 -3.32073 0
M  V30 2280 O 198.64 3.50408 -4.89385 0
M  V30 2281 H 202.466 0.855025 -2.91416 0
M  V30 2282 H 200.051 0.357151 -1.45068 0
M  V30 2283 H 201.933 3.29147 -2.63135 0
M  V30 2284 H 200.608 2.86006 -1.51599 0
M  V30 2285 H 199.515 1.53019 -3.41373 0
M  V30 2286 H 200.848 2.03121 -4.48333 0
M  V30 2287 N 202.5 1.5196 0.417844 0
M  V30 2288 C 203.433 1.69387 1.52916 0
M  V30 2289 C 204.411 0.541419 1.53321 0
M  V30 2290 O 205.595 0.767695 1.72159 0
M  V30 2291 C 202.722 1.72525 2.91467 0
M  V30 2292 C 201.768 2.93967 3.09008 0
M  V30 2293 S 202.601 4.54461 2.83242 0
M  V30 2294 C 203.757 4.60372 4.24038 0
M  V30 2295 H 203.99 2.63382 1.37903 0
M  V30 2296 H 201.523 1.41889 0.608845 0
M  V30 2297 H 203.481 1.75018 3.7132 0
M  V30 2298 H 202.142 0.796733 3.03827 0
M  V30 2299 H 201.335 2.92619 4.10353 0
M  V30 2300 H 200.937 2.89316 2.37007 0
M  V30 2301 H 203.229 4.37213 5.17544 0
M  V30 2302 H 204.172 5.62273 4.30412 0
M  V30 2303 H 204.58 3.89492 4.08602 0
M  V30 2304 N 203.978 -0.674533 1.42435 0
M  V30 2305 C 205.226 -1.43175 1.42637 0
M  V30 2306 C 205.547 -1.94951 0.0438992 0
M  V30 2307 O 204.817 -1.7308 -0.917607 0
M  V30 2308 H 203.397 -0.531307 0.525092 0
M  V30 2309 H 206.059 -0.797006 1.77859 0
M  V30 2310 H 205.155 -2.28463 2.12629 0
M  V30 2311 N 205.456 -1.28612 -0.910864 0
M  V30 2312 C 206.872 -1.06381 -1.18976 0
M  V30 2313 C 207.072 0.191998 -2.00583 0
M  V30 2314 O 206.128 0.892869 -2.36187 0
M  V30 2315 C 207.441 -2.31295 -1.92154 0
M  V30 2316 C 208.989 -2.36503 -2.05025 0
M  V30 2317 C 209.464 -3.61191 -2.81612 0
M  V30 2318 N 210.955 -3.61847 -2.89172 0
M  V30 2319 C 211.69 -4.55004 -3.4894 0
M  V30 2320 N 211.186 -5.58482 -4.09963 0
M  V30 2321 N 212.979 -4.42594 -3.46506 0
M  V30 2322 H 205.13 -2.09221 -0.366094 0
M  V30 2323 H 207.393 -0.921003 -0.224629 0
M  V30 2324 H 207.099 -3.228 -1.39618 0
M  V30 2325 H 206.973 -2.37934 -2.9269 0
M  V30 2326 H 209.36 -1.45494 -2.5674 0
M  V30 2327 H 209.441 -2.33857 -1.03657 0
M  V30 2328 H 209.085 -4.52545 -2.30576 0
M  V30 2329 H 209.015 -3.61092 -3.83302 0
M  V30 2330 H 211.506 -2.87022 -2.45819 0
M  V30 2331 H 211.819 -6.25704 -4.53557 0
M  V30 2332 H 210.164 -5.62305 -4.08459 0
M  V30 2333 H 213.355 -3.60953 -2.98045 0
M  V30 2334 H 213.528 -5.15381 -3.92793 0
M  V30 2335 N 206.934 1.1197 -1.10907 0
M  V30 2336 C 207.881 2.17846 -0.762345 0
M  V30 2337 C 208.851 1.63995 0.263599 0
M  V30 2338 O 210.036 1.90273 0.141773 0
M  V30 2339 C 207.176 3.44487 -0.205651 0
M  V30 2340 C 206.289 4.12369 -1.28748 0
M  V30 2341 C 205.424 5.26674 -0.691919 0
M  V30 2342 C 204.463 5.86431 -1.75399 0
M  V30 2343 N 203.6 6.92142 -1.17833 0
M  V30 2344 H 208.44 2.46851 -1.6694 0
M  V30 2345 H 205.977 1.21188 -0.833776 0
M  V30 2346 H 207.935 4.16981 0.135037 0
M  V30 2347 H 206.565 3.15884 0.664613 0
M  V30 2348 H 205.617 3.38003 -1.74522 0
M  V30 2349 H 206.929 4.52844 -2.09125 0
M  V30 2350 H 206.083 6.05953 -0.300963 0
M  V30 2351 H 204.822 4.8749 0.143232 0
M  V30 2352 H 203.827 5.05835 -2.15432 0
M  V30 2353 H 205.052 6.27685 -2.59208 0
M  V30 2354 H 202.998 6.54985 -0.364725 0
M  V30 2355 H 202.915 7.31242 -1.91887 0
M  V30 2356 H 204.183 7.75237 -0.81408 0
M  V30 2357 N 208.412 0.89855 1.29475 0
M  V30 2358 C 209.359 0.373819 2.27753 0
M  V30 2359 C 210.329 -0.543444 1.56958 0
M  V30 2360 O 211.514 -0.468934 1.84948 0
M  V30 2361 C 208.654 -0.393648 3.42848 0
M  V30 2362 C 207.767 0.554379 4.28428 0
M  V30 2363 C 206.902 -0.230026 5.30702 0
M  V30 2364 C 205.941 0.712599 6.07938 0
M  V30 2365 N 205.078 -0.0373283 7.0209 0
M  V30 2366 H 209.918 1.21699 2.72017 0
M  V30 2367 H 207.455 0.611456 1.33789 0
M  V30 2368 H 209.413 -0.85466 4.08352 0
M  V30 2369 H 208.043 -1.20128 2.99615 0
M  V30 2370 H 207.095 1.13391 3.63107 0
M  V30 2371 H 208.407 1.27597 4.82204 0
M  V30 2372 H 207.561 -0.752288 6.02018 0
M  V30 2373 H 206.3 -0.984758 4.77654 0
M  V30 2374 H 205.305 1.24637 5.35486 0
M  V30 2375 H 206.53 1.46664 6.63074 0
M  V30 2376 H 204.476 -0.774348 6.51414 0
M  V30 2377 H 204.393 0.624374 7.53417 0
M  V30 2378 H 205.661 -0.539891 7.77628 0
M  V30 2379 N 209.89 -1.43072 0.660911 0
M  V30 2380 C 211.13 -2.03596 0.181146 0
M  V30 2381 C 211.494 -1.51057 -1.18515 0
M  V30 2382 O 212.695 -2.03275 -1.75877 0
M  V30 2383 C 210.966 -3.56845 0.19911 0
M  V30 2384 S 212.525 -4.38289 -0.211684 0
M  V30 2385 H 209.343 -0.706954 0.0757479 0
M  V30 2386 H 211.945 -1.75027 0.870965 0
M  V30 2387 H 210.649 -3.92583 1.1961 0
M  V30 2388 H 210.18 -3.90067 -0.510996 0
M  V30 2389 H 212.195 -4.74583 -1.44863 0
M  V30 2390 N 211.368 -0.403325 -1.52352 0
M  V30 2391 C 212.278 0.432009 -2.30588 0
M  V30 2392 C 213.294 1.05884 -1.38075 0
M  V30 2393 O 214.47 1.06161 -1.71148 0
M  V30 2394 C 211.535 1.53669 -3.10784 0
M  V30 2395 C 210.596 0.933525 -4.19027 0
M  V30 2396 C 209.829 1.98557 -4.9539 0
M  V30 2397 O 210.052 3.20283 -4.71991 0
M  V30 2398 O 208.986 1.59504 -5.80381 0
M  V30 2399 H 212.812 -0.205739 -3.03002 0
M  V30 2400 H 210.397 -0.166675 -1.48467 0
M  V30 2401 H 212.279 2.17814 -3.60742 0
M  V30 2402 H 210.954 2.15915 -2.41169 0
M  V30 2403 H 209.861 0.254954 -3.7323 0
M  V30 2404 H 211.194 0.35508 -4.90918 0
M  V30 2405 N 212.846 1.57033 -0.133567 0
M  V30 2406 C 214.262 1.58035 0.222944 0
M  V30 2407 C 214.462 1.14713 1.6566 0
M  V30 2408 O 213.518 0.841218 2.38075 0
M  V30 2409 C 214.831 3.00691 -0.0236116 0
M  V30 2410 C 216.379 3.12973 0.0411512 0
M  V30 2411 C 216.854 4.57654 -0.177899 0
M  V30 2412 N 218.345 4.63033 -0.124365 0
M  V30 2413 C 219.08 5.72771 -0.268553 0
M  V30 2414 N 218.576 6.91206 -0.46972 0
M  V30 2415 N 220.369 5.61718 -0.2071 0
M  V30 2416 H 212.52 1.8349 -1.06981 0
M  V30 2417 H 214.783 0.848677 -0.422436 0
M  V30 2418 H 214.489 3.36726 -1.0153 0
M  V30 2419 H 214.363 3.70614 0.701808 0
M  V30 2420 H 216.75 2.76787 1.02338 0
M  V30 2421 H 216.831 2.45564 -0.716383 0
M  V30 2422 H 216.475 4.94542 -1.15717 0
M  V30 2423 H 216.405 5.23173 0.599797 0
M  V30 2424 H 218.896 3.7789 0.027011 0
M  V30 2425 H 219.209 7.70693 -0.570212 0
M  V30 2426 H 217.554 6.93156 -0.505876 0
M  V30 2427 H 220.745 4.68072 -0.0507986 0
M  V30 2428 H 220.918 6.47195 -0.322909 0
M  V30 2429 N 214.325 -0.140222 1.56975 0
M  V30 2430 C 215.555 -0.865181 1.87612 0
M  V30 2431 C 215.963 -1.74942 0.72055 0
M  V30 2432 O 215.306 -1.80917 -0.318561 0
M  V30 2433 C 215.368 -1.76782 3.13031 0
M  V30 2434 C 215.032 -1.06005 4.44536 0
M  V30 2435 C 216.029 -0.410768 5.18275 0
M  V30 2436 C 213.714 -1.04754 4.91255 0
M  V30 2437 C 215.708 0.241572 6.36942 0
M  V30 2438 C 213.395 -0.391394 6.09845 0
M  V30 2439 C 214.393 0.252029 6.82535 0
M  V30 2440 O 214.081 0.897757 7.98871 0
M  V30 2441 H 213.813 -0.255188 0.625983 0
M  V30 2442 H 216.367 -0.135653 2.04952 0
M  V30 2443 H 214.597 -2.53846 2.91718 0
M  V30 2444 H 216.286 -2.36533 3.29859 0
M  V30 2445 H 217.052 -0.412195 4.83245 0
M  V30 2446 H 212.931 -1.53777 4.34596 0
M  V30 2447 H 216.475 0.744375 6.93617 0
M  V30 2448 H 212.372 -0.387656 6.44335 0
M  V30 2449 H 213.14 0.800102 8.1458 0
M  V30 2450 N 215.803 -1.52179 -0.40978 0
M  V30 2451 C 217.049 -1.67408 -1.15525 0
M  V30 2452 C 217.404 -0.398746 -1.88223 0
M  V30 2453 O 216.697 0.60678 -1.81738 0
M  V30 2454 C 216.891 -2.83428 -2.17723 0
M  V30 2455 C 216.72 -4.22121 -1.55061 0
M  V30 2456 C 215.49 -4.87657 -1.3236 0
M  V30 2457 C 217.688 -5.04248 -1.01185 0
M  V30 2458 N 215.67 -6.10387 -0.655834 0
M  V30 2459 C 217.041 -6.18209 -0.470963 0
M  V30 2460 C 219.096 -4.89583 -0.906252 0
M  V30 2461 C 217.799 -7.1911 0.165172 0
M  V30 2462 C 219.825 -5.90718 -0.28397 0
M  V30 2463 C 219.187 -7.03969 0.246243 0
M  V30 2464 H 215.286 -0.666251 -0.409431 0
M  V30 2465 H 217.87 -1.89482 -0.447729 0
M  V30 2466 H 216.041 -2.6297 -2.85834 0
M  V30 2467 H 217.773 -2.87697 -2.84627 0
M  V30 2468 H 214.528 -4.46007 -1.59294 0
M  V30 2469 H 214.952 -6.76153 -0.338596 0
M  V30 2470 H 219.594 -4.02253 -1.302 0
M  V30 2471 H 217.312 -8.06066 0.572986 0
M  V30 2472 H 220.898 -5.81443 -0.203792 0
M  V30 2473 H 219.778 -7.80886 0.720173 0
M  V30 2474 N 217.281 0.66697 -1.42791 0
M  V30 2475 C 218.692 1.2478 -1.38877 0
M  V30 2476 C 219.043 1.96012 -0.0859426 0
M  V30 2477 O 218.168 2.00463 0.815081 0
M  V30 2478 C 218.763 2.26938 -2.51564 0
M  V30 2479 C 217.322 2.80529 -2.50959 0
M  V30 2480 C 216.469 1.54965 -2.29959 0
M  V30 2481 H 219.42 0.459853 -1.51892 0
M  V30 2482 H 219.441 3.08834 -2.22265 0
M  V30 2483 H 218.953 1.75065 -3.46372 0
M  V30 2484 H 217.054 3.36502 -1.59991 0
M  V30 2485 H 217.167 3.29012 -3.48265 0
M  V30 2486 H 215.531 1.81817 -1.78366 0
M  V30 2487 H 216.314 1.05047 -3.26833 0
M  V30 2488 N 218.759 1.29093 0.90403 0
M  V30 2489 C 219.689 1.16401 2.02418 0
M  V30 2490 C 220.67 0.0593085 1.69997 0
M  V30 2491 O 221.855 0.238021 1.92736 0
M  V30 2492 C 218.985 0.835233 3.37107 0
M  V30 2493 C 217.939 1.89578 3.83724 0
M  V30 2494 C 217.265 1.42041 5.15489 0
M  V30 2495 C 218.565 3.30394 4.04521 0
M  V30 2496 H 220.259 2.10109 2.13295 0
M  V30 2497 H 217.805 1.01157 1.02486 0
M  V30 2498 H 219.758 0.733169 4.14973 0
M  V30 2499 H 218.482 -0.137543 3.2631 0
M  V30 2500 H 217.141 1.98715 3.08071 0
M  V30 2501 H 216.789 0.436426 5.01103 0
M  V30 2502 H 216.489 2.12964 5.4765 0
M  V30 2503 H 218.013 1.33176 5.959 0
M  V30 2504 H 219.427 3.24123 4.72882 0
M  V30 2505 H 217.824 3.99237 4.48029 0
M  V30 2506 H 218.894 3.73692 3.09002 0
M  V30 2507 N 220.237 -1.11381 1.11499 0
M  V30 2508 C 221.467 -1.86663 0.885464 0
M  V30 2509 C 221.875 -1.80464 -0.568281 0
M  V30 2510 O 221.218 -1.18445 -1.40415 0
M  V30 2511 C 221.28 -3.36337 1.26956 0
M  V30 2512 C 220.944 -3.66304 2.73259 0
M  V30 2513 C 221.941 -3.63733 3.71476 0
M  V30 2514 C 219.626 -3.9529 3.09921 0
M  V30 2515 C 221.62 -3.89725 5.04374 0
M  V30 2516 C 219.307 -4.20941 4.43004 0
M  V30 2517 C 220.305 -4.18147 5.40039 0
M  V30 2518 O 219.993 -4.43153 6.70724 0
M  V30 2519 H 219.725 -0.597114 0.316908 0
M  V30 2520 H 222.279 -1.41782 1.48617 0
M  V30 2521 H 220.509 -3.81826 0.611999 0
M  V30 2522 H 222.198 -3.92986 1.01573 0
M  V30 2523 H 222.964 -3.41389 3.44498 0
M  V30 2524 H 218.843 -3.966 2.35009 0
M  V30 2525 H 222.387 -3.8746 5.80104 0
M  V30 2526 H 218.284 -4.42761 4.69716 0
M  V30 2527 H 219.052 -4.60717 6.76522 0
M  V30 2528 N 221.715 -0.905404 -1.28997 0
M  V30 2529 C 222.963 -0.533192 -1.9494 0
M  V30 2530 C 223.284 0.924618 -1.71685 0
M  V30 2531 O 222.554 1.65268 -1.05183 0
M  V30 2532 H 221.134 -0.194194 -0.721317 0
M  V30 2533 H 223.796 -1.15294 -1.57141 0
M  V30 2534 H 222.892 -0.72059 -3.03667 0
M  V30 2535 N 223.193 1.4272 -0.668489 0
M  V30 2536 C 224.103 2.34596 0.0139753 0
M  V30 2537 C 225.119 1.5474 0.795703 0
M  V30 2538 O 226.295 1.87334 0.739466 0
M  V30 2539 C 223.36 3.33202 0.957982 0
M  V30 2540 C 222.421 4.28957 0.17149 0
M  V30 2541 C 221.654 5.22853 1.07053 0
M  V30 2542 O 221.877 5.21531 2.31001 0
M  V30 2543 O 220.811 5.9952 0.534727 0
M  V30 2544 H 224.637 2.9448 -0.742661 0
M  V30 2545 H 222.222 1.43117 -0.428705 0
M  V30 2546 H 224.104 3.93796 1.50008 0
M  V30 2547 H 222.779 2.758 1.69458 0
M  V30 2548 H 221.686 3.71796 -0.414558 0
M  V30 2549 H 223.019 4.89383 -0.52586 0
M  V30 2550 N 224.671 0.411399 1.52136 0
M  V30 2551 C 225.948 -0.222308 1.94333 0
M  V30 2552 C 226.328 -1.6242 1.34844 0
M  V30 2553 O 225.676 -2.22384 0.525145 0
M  V30 2554 C 225.886 -0.226345 3.48265 0
M  V30 2555 C 227.234 -0.444592 4.22266 0
M  V30 2556 O 228.258 -0.305602 3.54887 0
M  V30 2557 O 227.117 -0.718749 5.41753 0
M  V30 2558 H 224.211 -0.143907 0.814383 0
M  V30 2559 H 226.757 0.467506 1.63133 0
M  V30 2560 H 225.529 0.75475 3.83952 0
M  V30 2561 H 225.152 -0.960163 3.85832 0
M  V30 2562 N 226.149 -1.5696 0.141893 0
M  V30 2563 C 227.56 -1.82797 -0.379776 0
M  V30 2564 C 227.911 -1.06033 -1.6508 0
M  V30 2565 O 227.036 -0.304011 -2.14254 0
M  V30 2566 C 227.631 -3.31578 -0.695802 0
M  V30 2567 C 226.19 -3.58014 -1.16201 0
M  V30 2568 C 225.337 -2.76699 -0.182455 0
M  V30 2569 H 228.288 -1.54406 0.366675 0
M  V30 2570 H 228.309 -3.47454 -1.55099 0
M  V30 2571 H 227.821 -3.87421 0.229449 0
M  V30 2572 H 225.922 -3.07553 -2.10338 0
M  V30 2573 H 226.035 -4.66501 -1.09151 0
M  V30 2574 H 224.399 -2.45618 -0.674072 0
M  V30 2575 H 225.182 -3.35311 0.736297 0
M  V30 2576 N 227.627 0.131896 -1.57047 0
M  V30 2577 C 228.876 0.84044 -1.83356 0
M  V30 2578 C 229.189 1.81646 -0.725535 0
M  V30 2579 O 230.395 2.57025 -0.874659 0
M  V30 2580 C 228.851 1.54528 -3.25037 0
M  V30 2581 C 228.459 0.610902 -4.43815 0
M  V30 2582 C 230.203 2.23972 -3.60606 0
M  V30 2583 C 228.11 1.31823 -5.76521 0
M  V30 2584 H 227.04 0.317599 -0.683847 0
M  V30 2585 H 229.691 0.0931561 -1.83263 0
M  V30 2586 H 228.073 2.33873 -3.19561 0
M  V30 2587 H 229.247 -0.148407 -4.60561 0
M  V30 2588 H 227.562 0.0241016 -4.16393 0
M  V30 2589 H 230.159 2.77558 -4.57018 0
M  V30 2590 H 230.502 3.01173 -2.87403 0
M  V30 2591 H 231.035 1.51529 -3.6781 0
M  V30 2592 H 227.774 0.587771 -6.52859 0
M  V30 2593 H 227.294 2.04987 -5.63685 0
M  V30 2594 H 228.973 1.855 -6.19838 0
M  V30 2595 N 229.106 1.52395 0.401703 0
M  V30 2596 C 230.334 1.70676 1.16949 0
M  V30 2597 C 230.749 0.419503 1.8408 0
M  V30 2598 O 230.106 -0.605061 1.72178 0
M  V30 2599 C 230.157 2.84753 2.22706 0
M  V30 2600 O 229.878 4.08495 1.58314 0
M  V30 2601 C 231.379 3.14608 3.12309 0
M  V30 2602 H 228.599 0.571787 0.351142 0
M  V30 2603 H 231.143 1.98987 0.471652 0
M  V30 2604 H 229.298 2.58941 2.88147 0
M  V30 2605 H 229.712 4.72117 2.28485 0
M  V30 2606 H 231.186 3.97923 3.82572 0
M  V30 2607 H 231.663 2.28464 3.75101 0
M  V30 2608 H 232.269 3.42212 2.52529 0
M  V30 2609 N 230.584 -0.659388 1.43143 0
M  V30 2610 C 231.831 -1.41935 1.44433 0
M  V30 2611 C 232.159 -1.94387 0.0663522 0
M  V30 2612 O 231.414 -1.72314 -0.927706 0
M  V30 2613 C 231.713 -2.62206 2.42864 0
M  V30 2614 C 231.379 -2.28208 3.88886 0
M  V30 2615 C 230.041 -2.18647 4.28657 0
M  V30 2616 C 232.393 -2.00887 4.8093 0
M  V30 2617 C 229.721 -1.79914 5.58433 0
M  V30 2618 C 232.073 -1.63653 6.11065 0
M  V30 2619 C 230.737 -1.52614 6.49819 0
M  V30 2620 H 230.007 -0.519376 0.528517 0
M  V30 2621 H 232.654 -0.750453 1.76183 0
M  V30 2622 H 230.959 -3.34199 2.04495 0
M  V30 2623 H 232.656 -3.2041 2.41119 0
M  V30 2624 H 229.246 -2.36557 3.57406 0
M  V30 2625 H 233.43 -2.07198 4.5098 0
M  V30 2626 H 228.686 -1.69948 5.87305 0
M  V30 2627 H 232.86 -1.41543 6.81864 0
M  V30 2628 H 230.487 -1.22371 7.50286 0
M  V30 2629 N 232.062 -1.29571 -0.897171 0
M  V30 2630 C 233.025 -1.14913 -1.98312 0
M  V30 2631 C 234.025 -0.0838629 -1.60581 0
M  V30 2632 O 235.215 -0.331006 -1.71026 0
M  V30 2633 C 232.347 -0.757835 -3.3237 0
M  V30 2634 H 233.54 -2.11377 -2.12743 0
M  V30 2635 H 231.093 -1.12793 -1.08201 0
M  V30 2636 H 231.828 0.206837 -3.2364 0
M  V30 2637 H 231.613 -1.52755 -3.61121 0
M  V30 2638 H 233.103 -0.678408 -4.12053 0
M  V30 2639 N 233.54 1.10788 -1.12088 0
M  V30 2640 C 234.951 1.64181 -0.88891 0
M  V30 2641 C 235.302 1.87508 0.577498 0
M  V30 2642 O 234.427 1.61434 1.44112 0
M  V30 2643 C 235.022 2.98257 -1.60712 0
M  V30 2644 C 233.581 3.4853 -1.42139 0
M  V30 2645 C 232.728 2.23208 -1.6454 0
M  V30 2646 H 235.679 0.943368 -1.27618 0
M  V30 2647 H 235.7 3.65552 -1.05604 0
M  V30 2648 H 235.212 2.81246 -2.67436 0
M  V30 2649 H 233.313 3.70692 -0.376552 0
M  V30 2650 H 233.426 4.26882 -2.17505 0
M  V30 2651 H 231.79 2.31169 -1.06925 0
M  V30 2652 H 232.573 2.08733 -2.72554 0
M  V30 2653 N 235.018 0.912232 1.28515 0
M  V30 2654 C 236.265 0.544599 1.95039 0
M  V30 2655 C 236.593 -0.911435 1.71823 0
M  V30 2656 O 235.848 -1.66317 1.03137 0
M  V30 2657 C 236.147 0.798392 3.48368 0
M  V30 2658 C 235.813 2.23374 3.91682 0
M  V30 2659 C 234.475 2.62617 4.03219 0
M  V30 2660 C 236.827 3.16786 4.13879 0
M  V30 2661 C 234.155 3.94429 4.3433 0
M  V30 2662 C 236.507 4.48161 4.46469 0
M  V30 2663 C 235.171 4.8726 4.56217 0
M  V30 2664 H 234.441 0.199283 0.7137 0
M  V30 2665 H 237.088 1.15327 1.52879 0
M  V30 2666 H 235.393 0.106908 3.91654 0
M  V30 2667 H 237.09 0.493141 3.97956 0
M  V30 2668 H 233.68 1.91922 3.83228 0
M  V30 2669 H 237.864 2.87677 4.0442 0
M  V30 2670 H 233.12 4.24426 4.40082 0
M  V30 2671 H 237.294 5.20559 4.62592 0
M  V30 2672 H 234.921 5.89431 4.80078 0
M  V30 2673 N 236.496 -1.42363 0.676048 0
M  V30 2674 C 237.443 -2.308 -0.00150904 0
M  V30 2675 C 238.413 -1.46032 -0.791444 0
M  V30 2676 O 239.598 -1.74861 -0.76344 0
M  V30 2677 C 236.738 -3.31883 -0.945919 0
M  V30 2678 C 235.851 -4.31741 -0.149675 0
M  V30 2679 C 234.986 -5.19898 -1.08995 0
M  V30 2680 C 234.025 -6.11434 -0.285465 0
M  V30 2681 N 233.162 -6.92138 -1.17851 0
M  V30 2682 H 238.002 -2.88187 0.758455 0
M  V30 2683 H 235.539 -1.41952 0.38576 0
M  V30 2684 H 237.497 -3.89019 -1.50731 0
M  V30 2685 H 236.127 -2.76093 -1.6725 0
M  V30 2686 H 235.179 -3.76713 0.528359 0
M  V30 2687 H 236.491 -4.96534 0.474866 0
M  V30 2688 H 235.645 -5.81772 -1.72123 0
M  V30 2689 H 234.384 -4.55284 -1.74837 0
M  V30 2690 H 233.389 -5.48627 0.359018 0
M  V30 2691 H 234.614 -6.78097 0.368883 0
M  V30 2692 H 232.56 -6.30152 -1.82332 0
M  V30 2693 H 232.477 -7.53542 -0.609082 0
M  V30 2694 H 233.745 -7.58499 -1.79722 0
M  V30 2695 N 237.974 -0.419461 -1.51915 0
M  V30 2696 C 239.223 0.154346 -2.01109 0
M  V30 2697 C 239.536 1.45338 -1.30905 0
M  V30 2698 O 240.742 2.10906 -1.7097 0
M  V30 2699 C 239.198 0.325615 -3.58424 0
M  V30 2700 C 238.806 -0.961934 -4.37551 0
M  V30 2701 C 240.55 0.854155 -4.15818 0
M  V30 2702 C 238.457 -0.757287 -5.86531 0
M  V30 2703 H 237.387 0.0614563 -0.751491 0
M  V30 2704 H 240.038 -0.54649 -1.75173 0
M  V30 2705 H 238.42 1.08903 -3.80731 0
M  V30 2706 H 239.594 -1.7323 -4.26999 0
M  V30 2707 H 237.909 -1.41766 -3.91524 0
M  V30 2708 H 240.506 1.02346 -5.24814 0
M  V30 2709 H 240.849 1.83172 -3.73837 0
M  V30 2710 H 241.382 0.149528 -3.97519 0
M  V30 2711 H 238.121 -1.70671 -6.32892 0
M  V30 2712 H 237.641 -0.0264061 -5.99794 0
M  V30 2713 H 239.32 -0.403482 -6.45741 0
M  V30 2714 N 239.452 1.56882 -0.150215 0
M  V30 2715 C 240.677 2.01027 0.510184 0
M  V30 2716 C 241.102 1.02966 1.57415 0
M  V30 2717 O 240.46 0.00590158 1.81299 0
M  V30 2718 C 240.508 3.43899 1.08472 0
M  V30 2719 O 239.612 3.4885 2.19948 0
M  V30 2720 H 238.953 0.652233 0.124451 0
M  V30 2721 H 241.483 2.03093 -0.247894 0
M  V30 2722 H 241.493 3.82766 1.41259 0
M  V30 2723 H 240.168 4.14776 0.305582 0
M  V30 2724 H 238.745 3.21827 1.88366 0
M  V30 2725 N 240.93 -0.123565 1.57115 0
M  V30 2726 C 242.17 -0.838097 1.86428 0
M  V30 2727 C 242.534 -1.77266 0.737611 0
M  V30 2728 O 243.735 -2.52842 0.912389 0
M  V30 2729 C 242.006 -1.57219 3.20962 0
M  V30 2730 S 243.565 -2.32893 3.71896 0
M  V30 2731 H 240.383 -0.279811 0.653626 0
M  V30 2732 H 242.985 -0.0967034 1.95261 0
M  V30 2733 H 241.689 -0.877522 4.00909 0
M  V30 2734 H 241.22 -2.35405 3.15195 0
M  V30 2735 H 243.235 -3.5853 3.43032 0
M  V30 2736 N 242.408 -1.52605 -0.393616 0
M  V30 2737 C 243.318 -1.79971 -1.50492 0
M  V30 2738 C 244.334 -0.686181 -1.59899 0
M  V30 2739 O 245.51 -0.973274 -1.76322 0
M  V30 2740 C 242.575 -1.95867 -2.86072 0
M  V30 2741 C 241.636 -3.19781 -2.86424 0
M  V30 2742 C 240.869 -3.34909 -4.15538 0
M  V30 2743 O 241.092 -2.54948 -5.10253 0
M  V30 2744 O 240.026 -4.28141 -4.23059 0
M  V30 2745 H 243.852 -2.74328 -1.30299 0
M  V30 2746 H 241.437 -1.3764 -0.581005 0
M  V30 2747 H 243.319 -2.08056 -3.66457 0
M  V30 2748 H 241.994 -1.04699 -3.063 0
M  V30 2749 H 240.901 -3.13038 -2.04837 0
M  V30 2750 H 242.234 -4.1078 -2.71147 0
M  V30 2751 N 243.887 0.651787 -1.4349 0
M  V30 2752 C 245.164 1.40909 -1.35661 0
M  V30 2753 C 245.544 2.11099 -0.00511733 0
M  V30 2754 O 244.892 2.04892 1.0115 0
M  V30 2755 C 245.102 2.3926 -2.54078 0
M  V30 2756 C 246.45 3.03217 -2.97228 0
M  V30 2757 O 247.474 2.49588 -2.54135 0
M  V30 2758 O 246.333 4.00455 -3.71885 0
M  V30 2759 H 243.427 0.629625 -0.536191 0
M  V30 2760 H 245.973 0.678575 -1.55542 0
M  V30 2761 H 244.745 1.86352 -3.44076 0
M  V30 2762 H 244.368 3.1976 -2.36303 0
M  V30 2763 N 245.365 1.30045 0.890287 0
M  V30 2764 C 246.275 1.17885 2.02831 0
M  V30 2765 C 247.291 0.0999609 1.73713 0
M  V30 2766 O 248.467 0.313867 1.98939 0
M  V30 2767 C 245.532 0.866079 3.35708 0
M  V30 2768 C 244.593 2.02979 3.78283 0
M  V30 2769 C 243.826 1.73184 5.0482 0
M  V30 2770 O 244.049 0.657237 5.66601 0
M  V30 2771 O 242.983 2.58267 5.43674 0
M  V30 2772 H 246.809 2.13474 2.16015 0
M  V30 2773 H 244.394 1.09587 1.01543 0
M  V30 2774 H 246.276 0.706623 4.15433 0
M  V30 2775 H 244.951 -0.0599443 3.23644 0
M  V30 2776 H 243.858 2.24454 2.99285 0
M  V30 2777 H 245.191 2.93734 3.94944 0
M  V30 2778 N 246.843 -1.10192 1.12674 0
M  V30 2779 C 247.775 -2.16418 0.754701 0
M  V30 2780 C 248.788 -1.61309 -0.21986 0
M  V30 2781 O 249.977 -1.785 -0.000826841 0
M  V30 2782 C 247.077 -3.38762 0.096698 0
M  V30 2783 C 246.25 -4.23307 1.10136 0
M  V30 2784 C 245.309 -5.24092 0.470513 0
M  V30 2785 O 244.335 -5.57906 1.12824 0
M  V30 2786 N 245.537 -5.75491 -0.760948 0
M  V30 2787 H 248.302 -2.48943 1.66875 0
M  V30 2788 H 245.863 -1.25834 1.01869 0
M  V30 2789 H 247.855 -4.03291 -0.337384 0
M  V30 2790 H 246.425 -3.04192 -0.720153 0
M  V30 2791 H 245.645 -3.55036 1.71299 0
M  V30 2792 H 246.933 -4.76624 1.78064 0
M  V30 2793 H 246.331 -5.50222 -1.31424 0
M  V30 2794 H 244.888 -6.41792 -1.13781 0
M  V30 2795 N 248.321 -0.919034 -1.28029 0
M  V30 2796 C 249.284 -0.416182 -2.2539 0
M  V30 2797 C 250.284 0.460438 -1.54067 0
M  V30 2798 O 251.474 0.262744 -1.72207 0
M  V30 2799 C 248.606 0.402707 -3.38513 0
M  V30 2800 H 249.799 -1.27629 -2.71387 0
M  V30 2801 H 247.352 -0.698919 -1.39803 0
M  V30 2802 H 248.087 1.282 -2.97885 0
M  V30 2803 H 247.872 -0.225698 -3.9145 0
M  V30 2804 H 249.362 0.745191 -4.10897 0
M  V30 2805 N 249.799 1.42003 -0.683588 0
M  V30 2806 C 251.215 1.55625 -0.353976 0
M  V30 2807 C 251.415 1.66151 1.14 0
M  V30 2808 O 250.471 1.63329 1.92561 0
M  V30 2809 C 251.784 2.80171 -1.092 0
M  V30 2810 C 253.332 2.93954 -1.07518 0
M  V30 2811 C 253.807 4.21372 -1.79471 0
M  V30 2812 N 255.298 4.28303 -1.76381 0
M  V30 2813 C 256.033 5.25729 -2.28904 0
M  V30 2814 N 255.529 6.29254 -2.89846 0
M  V30 2815 N 257.322 5.17586 -2.19228 0
M  V30 2816 H 249.473 1.33415 -1.6527 0
M  V30 2817 H 251.736 0.64282 -0.696769 0
M  V30 2818 H 251.442 2.78561 -2.14701 0
M  V30 2819 H 251.316 3.7133 -0.662862 0
M  V30 2820 H 253.703 2.95086 -0.028475 0
M  V30 2821 H 253.784 2.04002 -1.54328 0
M  V30 2822 H 253.428 4.21001 -2.84114 0
M  V30 2823 H 253.358 5.10275 -1.30104 0
M  V30 2824 H 255.849 3.54119 -1.31939 0
M  V30 2825 H 256.162 6.99964 -3.27522 0
M  V30 2826 H 254.507 6.29791 -2.93919 0
M  V30 2827 H 257.698 4.35631 -1.71299 0
M  V30 2828 H 257.871 5.93348 -2.60466 0
M  V30 2829 N 251.277 0.427512 1.51691 0
M  V30 2830 C 252.505 -0.141191 2.06418 0
M  V30 2831 C 252.92 -1.37303 1.29589 0
M  V30 2832 O 252.277 -1.79059 0.352732 0
M  V30 2833 C 252.328 -0.473266 3.58389 0
M  V30 2834 O 252.049 0.709673 4.32314 0
M  V30 2835 C 253.55 -1.09371 4.29596 0
M  V30 2836 H 250.77 -0.0122747 0.670888 0
M  V30 2837 H 253.314 0.603764 1.95384 0
M  V30 2838 H 251.469 -1.16812 3.69369 0
M  V30 2839 H 251.883 0.42807 5.2275 0
M  V30 2840 H 253.357 -1.27613 5.37046 0
M  V30 2841 H 253.834 -2.072 3.87253 0
M  V30 2842 H 254.44 -0.43853 4.23033 0
M  V30 2843 N 252.755 -1.56801 0.158532 0
M  V30 2844 C 254.032 -1.88131 -0.535357 0
M  V30 2845 C 254.412 -1.06638 -1.82186 0
M  V30 2846 O 253.76 -0.156533 -2.27963 0
M  V30 2847 C 253.97 -3.39949 -0.789653 0
M  V30 2848 C 255.318 -4.09416 -1.12533 0
M  V30 2849 O 256.342 -3.45194 -0.878622 0
M  V30 2850 O 255.201 -5.22855 -1.59014 0
M  V30 2851 H 252.295 -0.780143 -0.27442 0
M  V30 2852 H 254.841 -1.68564 0.19601 0
M  V30 2853 H 253.613 -3.91115 0.120353 0
M  V30 2854 H 253.236 -3.65084 -1.57479 0
M  V30 2855 N 254.233 0.115231 -1.57178 0
M  V30 2856 C 255.463 0.835224 -1.88964 0
M  V30 2857 C 255.871 1.73774 -0.74829 0
M  V30 2858 O 255.214 1.81401 0.289739 0
M  V30 2859 C 255.276 1.7178 -3.15804 0
M  V30 2860 C 254.94 0.989198 -4.46166 0
M  V30 2861 C 255.937 0.328263 -5.18863 0
M  V30 2862 C 253.622 0.969256 -4.9286 0
M  V30 2863 C 255.616 -0.342873 -6.36477 0
M  V30 2864 C 253.303 0.294324 -6.10391 0
M  V30 2865 C 254.301 -0.360582 -6.82048 0
M  V30 2866 O 253.989 -1.02474 -7.97342 0
M  V30 2867 H 253.721 0.245197 -0.629964 0
M  V30 2868 H 256.275 0.10303 -2.05141 0
M  V30 2869 H 254.505 2.49173 -2.95719 0
M  V30 2870 H 256.194 2.31255 -3.33581 0
M  V30 2871 H 256.96 0.335263 -4.8384 0
M  V30 2872 H 252.839 1.46844 -4.36987 0
M  V30 2873 H 256.383 -0.854629 -6.92345 0
M  V30 2874 H 252.28 0.285099 -6.4487 0
M  V30 2875 H 253.048 -0.929594 -8.13204 0
M  V30 2876 N 255.711 1.52812 0.385517 0
M  V30 2877 C 256.958 1.68026 1.1302 0
M  V30 2878 C 257.286 0.421934 1.89868 0
M  V30 2879 O 256.541 -0.595749 1.86412 0
M  V30 2880 C 256.84 2.86856 2.13187 0
M  V30 2881 C 256.506 4.24159 1.5297 0
M  V30 2882 C 255.168 4.61501 1.36274 0
M  V30 2883 C 257.52 5.09627 1.09223 0
M  V30 2884 C 254.848 5.81966 0.743837 0
M  V30 2885 C 257.2 6.30719 0.487411 0
M  V30 2886 C 255.864 6.6679 0.307777 0
M  V30 2887 H 255.134 0.614849 0.413571 0
M  V30 2888 H 257.781 1.86962 0.414405 0
M  V30 2889 H 256.086 2.6235 2.90998 0
M  V30 2890 H 257.783 2.95821 2.70722 0
M  V30 2891 H 254.373 3.94746 1.66954 0
M  V30 2892 H 258.557 4.81343 1.20922 0
M  V30 2893 H 253.813 6.08519 0.592891 0
M  V30 2894 H 257.987 6.96259 0.140143 0
M  V30 2895 H 255.614 7.60001 -0.173879 0
M  V30 2896 N 257.189 -0.644168 1.43834 0
M  V30 2897 C 258.438 -1.39985 1.45214 0
M  V30 2898 C 258.751 -1.95421 0.0835494 0
M  V30 2899 O 259.957 -2.71488 -0.0251748 0
M  V30 2900 C 258.413 -2.53384 2.55587 0
M  V30 2901 C 258.021 -2.04517 3.98594 0
M  V30 2902 C 259.765 -3.30685 2.66172 0
M  V30 2903 C 257.672 -3.1518 5.00416 0
M  V30 2904 H 256.602 -0.526005 0.540218 0
M  V30 2905 H 259.253 -0.694367 1.69855 0
M  V30 2906 H 257.635 -3.26446 2.24163 0
M  V30 2907 H 258.809 -1.38405 4.39523 0
M  V30 2908 H 257.124 -1.40068 3.92135 0
M  V30 2909 H 259.721 -4.13158 3.39418 0
M  V30 2910 H 260.064 -3.79312 1.71546 0
M  V30 2911 H 260.597 -2.64708 2.96942 0
M  V30 2912 H 257.336 -2.71511 5.96625 0
M  V30 2913 H 256.856 -3.79974 4.64091 0
M  V30 2914 H 258.535 -3.80166 5.23529 0
M  V30 2915 N 258.668 -1.30515 -0.883378 0
M  V30 2916 C 260.084 -1.08881 -1.16692 0
M  V30 2917 C 260.284 0.149409 -2.00945 0
M  V30 2918 O 259.34 0.84257 -2.38027 0
M  V30 2919 C 260.653 -2.35319 -1.87204 0
M  V30 2920 C 262.201 -2.40799 -1.99962 0
M  V30 2921 C 262.676 -3.67083 -2.73887 0
M  V30 2922 N 264.167 -3.679 -2.81432 0
M  V30 2923 C 264.902 -4.62303 -3.3921 0
M  V30 2924 N 264.398 -5.67052 -3.98025 0
M  V30 2925 N 266.191 -4.49845 -3.3704 0
M  V30 2926 H 258.342 -2.09951 -0.321633 0
M  V30 2927 H 260.605 -0.92556 -0.205043 0
M  V30 2928 H 260.311 -3.25689 -1.3274 0
M  V30 2929 H 260.185 -2.44089 -2.87577 0
M  V30 2930 H 262.572 -1.50907 -2.53597 0
M  V30 2931 H 262.653 -2.36003 -0.98673 0
M  V30 2932 H 262.297 -4.57334 -2.20925 0
M  V30 2933 H 262.227 -3.69141 -3.75556 0
M  V30 2934 H 264.718 -2.92171 -2.39676 0
M  V30 2935 H 265.031 -6.35184 -4.40183 0
M  V30 2936 H 263.376 -5.70842 -3.96439 0
M  V30 2937 H 266.567 -3.67194 -2.90321 0
M  V30 2938 H 266.74 -5.23597 -3.81772 0
M  V30 2939 N 260.146 1.09593 -1.13257 0
M  V30 2940 C 261.374 1.855 -0.916378 0
M  V30 2941 C 261.789 1.81069 0.534738 0
M  V30 2942 O 261.146 1.20562 1.37007 0
M  V30 2943 C 261.197 3.33546 -1.39388 0
M  V30 2944 O 260.918 3.37927 -2.78813 0
M  V30 2945 C 262.419 4.26299 -1.21588 0
M  V30 2946 H 259.639 0.585991 -0.326887 0
M  V30 2947 H 262.183 1.38488 -1.5047 0
M  V30 2948 H 260.338 3.77992 -0.848597 0
M  V30 2949 H 260.752 4.30254 -2.9997 0
M  V30 2950 H 262.226 5.28341 -1.59876 0
M  V30 2951 H 262.703 4.38918 -0.157376 0
M  V30 2952 H 263.309 3.87668 -1.7491 0
M  V30 2953 N 261.624 0.925811 1.2754 0
M  V30 2954 C 262.554 0.440748 2.29303 0
M  V30 2955 C 263.535 -0.497971 1.62648 0
M  V30 2956 O 264.72 -0.403126 1.8997 0
M  V30 2957 C 261.85 -0.309048 3.45922 0
M  V30 2958 C 260.804 0.54166 4.24559 0
M  V30 2959 C 260.13 -0.337191 5.33636 0
M  V30 2960 C 261.43 1.80516 4.90114 0
M  V30 2961 H 263.124 1.29121 2.70126 0
M  V30 2962 H 260.67 0.622323 1.29858 0
M  V30 2963 H 262.623 -0.659315 4.1621 0
M  V30 2964 H 261.347 -1.19352 3.04011 0
M  V30 2965 H 260.006 0.874609 3.56014 0
M  V30 2966 H 259.654 -1.22056 4.87966 0
M  V30 2967 H 259.354 0.228497 5.87156 0
M  V30 2968 H 260.878 -0.683072 6.06767 0
M  V30 2969 H 262.292 1.52307 5.52698 0
M  V30 2970 H 260.689 2.3142 5.53683 0
M  V30 2971 H 261.759 2.52581 4.13921 0
M  V30 2972 N 263.102 -1.41638 0.69111 0
M  V30 2973 C 264.032 -2.3347 0.037248 0
M  V30 2974 C 265.013 -1.51575 -0.771947 0
M  V30 2975 O 266.198 -1.80126 -0.72582 0
M  V30 2976 C 263.328 -3.35354 -0.903064 0
M  V30 2977 C 262.282 -4.27526 -0.201288 0
M  V30 2978 C 261.608 -5.19747 -1.25565 0
M  V30 2979 C 262.908 -5.13959 0.929689 0
M  V30 2980 H 264.602 -2.88397 0.804227 0
M  V30 2981 H 262.148 -1.38669 0.388189 0
M  V30 2982 H 264.101 -3.98519 -1.36969 0
M  V30 2983 H 262.825 -2.78767 -1.70166 0
M  V30 2984 H 261.484 -3.65779 0.245265 0
M  V30 2985 H 261.132 -4.59479 -2.04666 0
M  V30 2986 H 260.832 -5.8225 -0.791128 0
M  V30 2987 H 262.356 -5.85789 -1.72288 0
M  V30 2988 H 263.77 -5.70718 0.543546 0
M  V30 2989 H 262.167 -5.85379 1.32103 0
M  V30 2990 H 263.237 -4.51389 1.77133 0
M  V30 2991 N 264.58 -0.43555 -1.51462 0
M  V30 2992 C 265.51 0.367376 -2.30592 0
M  V30 2993 C 266.491 1.02263 -1.35928 0
M  V30 2994 O 267.676 1.02661 -1.64847 0
M  V30 2995 C 264.806 1.46983 -3.14664 0
M  V30 2996 C 263.76 0.938161 -4.17591 0
M  V30 2997 C 263.086 2.13622 -4.90173 0
M  V30 2998 C 264.386 -0.0261621 -5.22293 0
M  V30 2999 H 266.08 -0.292969 -2.97963 0
M  V30 3000 H 263.626 -0.14234 -1.43295 0
M  V30 3001 H 265.579 2.03873 -3.688 0
M  V30 3002 H 264.303 2.15843 -2.4511 0
M  V30 3003 H 262.962 0.391481 -3.64504 0
M  V30 3004 H 262.61 2.81098 -4.17124 0
M  V30 3005 H 262.31 1.78688 -5.59772 0
M  V30 3006 H 263.834 2.7107 -5.47132 0
M  V30 3007 H 265.248 0.452384 -5.71512 0
M  V30 3008 H 263.645 -0.287992 -5.99409 0
M  V30 3009 H 264.715 -0.963391 -4.75233 0
M  V30 3010 N 266.058 1.56714 -0.166846 0
M  V30 3011 C 266.968 2.21331 0.777791 0
M  V30 3012 C 267.984 1.20358 1.25658 0
M  V30 3013 O 269.16 1.53005 1.30964 0
M  V30 3014 C 266.225 2.83787 1.99163 0
M  V30 3015 C 265.286 3.99947 1.56016 0
M  V30 3016 C 264.519 4.59415 2.71613 0
M  V30 3017 O 264.742 4.17769 3.88362 0
M  V30 3018 O 263.676 5.49359 2.45945 0
M  V30 3019 H 267.502 3.02605 0.257636 0
M  V30 3020 H 265.087 1.49275 0.0611393 0
M  V30 3021 H 266.969 3.23405 2.70161 0
M  V30 3022 H 265.644 2.05513 2.50092 0
M  V30 3023 H 264.551 3.65007 0.819809 0
M  V30 3024 H 265.884 4.79801 1.09782 0
M  V30 3025 N 267.536 -0.106894 1.57237 0
M  V30 3026 C 268.783 -0.812526 1.85484 0
M  V30 3027 C 269.111 -1.79304 0.753687 0
M  V30 3028 O 268.366 -1.94047 -0.253853 0
M  V30 3029 C 268.665 -1.58628 3.20268 0
M  V30 3030 C 268.331 -0.748967 4.44636 0
M  V30 3031 C 266.993 -0.518104 4.78403 0
M  V30 3032 C 269.345 -0.166122 5.20935 0
M  V30 3033 C 266.673 0.305659 5.85903 0
M  V30 3034 C 269.025 0.644899 6.29304 0
M  V30 3035 C 267.689 0.885965 6.61594 0
M  V30 3036 H 266.959 -0.297324 0.678734 0
M  V30 3037 H 269.606 -0.0744332 1.91355 0
M  V30 3038 H 267.911 -2.39562 3.10028 0
M  V30 3039 H 269.608 -2.13643 3.39349 0
M  V30 3040 H 266.198 -0.939006 4.18187 0
M  V30 3041 H 270.382 -0.33167 4.95191 0
M  V30 3042 H 265.638 0.501528 6.0934 0
M  V30 3043 H 269.812 1.10345 6.87602 0
M  V30 3044 H 267.439 1.52609 7.44725 0
M  V30 3045 N 269.014 -1.53014 -0.377408 0
M  V30 3046 C 269.946 -1.74884 -1.48149 0
M  V30 3047 C 270.959 -0.629433 -1.5014 0
M  V30 3048 O 272.148 -0.905416 -1.53833 0
M  V30 3049 C 269.248 -1.80299 -2.86959 0
M  V30 3050 C 268.421 -3.09776 -3.08801 0
M  V30 3051 C 267.48 -3.06586 -4.27658 0
M  V30 3052 O 266.506 -3.80419 -4.23403 0
M  V30 3053 N 267.708 -2.26578 -5.34455 0
M  V30 3054 H 270.473 -2.70147 -1.29771 0
M  V30 3055 H 268.034 -1.51646 -0.56703 0
M  V30 3056 H 270.026 -1.75657 -3.64591 0
M  V30 3057 H 268.596 -0.92372 -2.98641 0
M  V30 3058 H 267.816 -3.27815 -2.18931 0
M  V30 3059 H 269.104 -3.95366 -3.20255 0
M  V30 3060 H 268.502 -1.66081 -5.40771 0
M  V30 3061 H 267.059 -2.27766 -6.10709 0
M  V30 3062 N 270.492 0.636531 -1.44174 0
M  V30 3063 C 271.44 1.76995 -1.50915 0
M  V30 3064 C 272.434 1.65053 -0.381295 0
M  V30 3065 O 273.64 1.71197 -0.55601 0
M  V30 3066 H 270.015 0.584247 -0.473455 0
M  V30 3067 H 271.986 1.68432 -2.4632 0
M  V30 3068 C 270.735 3.15314 -1.46534 0
M  V30 3069 H 270.058 3.25149 -2.32633 0
M  V30 3070 H 271.498 3.9453 -1.55312 0
M  V30 3071 C 269.957 3.3639 -0.185305 0
M  V30 3072 O 270.487 3.94699 0.746688 0
M  V30 3073 N 268.693 2.9046 -0.0901606 0
M  V30 3074 H 268.24 2.43193 -0.849416 0
M  V30 3075 H 268.198 3.04937 0.765553 0
M  V30 3076 N 271.97 1.30982 0.876444 0
M  V30 3077 C 272.88 1.2003 2.01569 0
M  V30 3078 C 273.896 0.11838 1.73597 0
M  V30 3079 O 275.072 0.33495 1.98595 0
M  V30 3080 C 272.137 0.901637 3.34771 0
M  V30 3081 C 271.198 2.06979 3.76109 0
M  V30 3082 C 270.431 1.78529 5.02954 0
M  V30 3083 O 270.654 0.717296 5.65872 0
M  V30 3084 O 269.588 2.64019 5.40905 0
M  V30 3085 H 273.414 2.15753 2.13739 0
M  V30 3086 H 270.999 1.10658 1.00375 0
M  V30 3087 H 272.881 0.750645 4.1466 0
M  V30 3088 H 271.556 -0.0256141 3.2369 0
M  V30 3089 H 270.463 2.27616 2.96887 0
M  V30 3090 H 271.796 2.97907 3.91807 0
M  V30 3091 N 273.449 -1.08991 1.13837 0
M  V30 3092 C 274.674 -1.85551 0.926585 0
M  V30 3093 C 275.099 -1.80782 -0.519566 0
M  V30 3094 O 274.457 -1.18855 -1.36906 0
M  V30 3095 C 274.505 -3.31266 1.42462 0
M  V30 3096 O 273.609 -4.07822 0.612789 0
M  V30 3097 H 272.95 -0.575192 0.331738 0
M  V30 3098 H 275.48 -1.37604 1.51414 0
M  V30 3099 H 275.49 -3.82112 1.43019 0
M  V30 3100 H 274.165 -3.34052 2.47754 0
M  V30 3101 H 272.742 -3.66731 0.675463 0
M  V30 3102 N 274.927 -0.932562 -1.27047 0
M  V30 3103 C 276.343 -0.633544 -1.46487 0
M  V30 3104 C 276.543 0.815746 -1.84249 0
M  V30 3105 O 275.599 1.59319 -1.95892 0
M  V30 3106 C 276.912 -1.58758 -2.55375 0
M  V30 3107 C 278.46 -1.59634 -2.69232 0
M  V30 3108 C 278.935 -2.53747 -3.81283 0
M  V30 3109 N 280.426 -2.51982 -3.88664 0
M  V30 3110 C 281.161 -3.21491 -4.74796 0
M  V30 3111 N 280.657 -4.00395 -5.65381 0
M  V30 3112 N 282.45 -3.10485 -4.68568 0
M  V30 3113 H 274.601 -1.86946 -1.00821 0
M  V30 3114 H 276.864 -0.802897 -0.504044 0
M  V30 3115 H 276.57 -2.62172 -2.34432 0
M  V30 3116 H 276.444 -1.33301 -3.52861 0
M  V30 3117 H 278.831 -0.569488 -2.89553 0
M  V30 3118 H 278.912 -1.89142 -1.72218 0
M  V30 3119 H 278.556 -3.56545 -3.61715 0
M  V30 3120 H 278.486 -2.21532 -4.77735 0
M  V30 3121 H 280.977 -1.94681 -3.23895 0
M  V30 3122 H 281.29 -4.50406 -6.27976 0
M  V30 3123 H 279.635 -4.04498 -5.65161 0
M  V30 3124 H 282.826 -2.48331 -3.96799 0
M  V30 3125 H 282.999 -3.64925 -5.35475 0
M  V30 3126 N 276.405 1.4127 -0.698611 0
M  V30 3127 C 277.821 1.55241 -0.370462 0
M  V30 3128 C 278.021 1.67351 1.12231 0
M  V30 3129 O 277.077 1.65363 1.90818 0
M  V30 3130 C 278.39 2.78997 -1.12165 0
M  V30 3131 C 279.938 2.92797 -1.1063 0
M  V30 3132 C 280.413 4.19445 -1.8393 0
M  V30 3133 N 281.904 4.26409 -1.80914 0
M  V30 3134 C 282.639 5.23271 -2.34467 0
M  V30 3135 N 282.135 6.26145 -2.96504 0
M  V30 3136 N 283.928 5.15232 -2.24706 0
M  V30 3137 H 276.079 1.31654 -1.66676 0
M  V30 3138 H 278.342 0.635393 -0.703548 0
M  V30 3139 H 278.048 2.76268 -2.17644 0
M  V30 3140 H 277.922 3.70606 -0.702209 0
M  V30 3141 H 280.309 2.95039 -0.0597713 0
M  V30 3142 H 280.39 2.02353 -1.56483 0
M  V30 3143 H 280.034 4.17964 -2.88563 0
M  V30 3144 H 279.964 5.08866 -1.35509 0
M  V30 3145 H 282.455 3.527 -1.35687 0
M  V30 3146 H 282.768 6.96451 -3.34927 0
M  V30 3147 H 281.113 6.26638 -3.00583 0
M  V30 3148 H 284.304 4.33789 -1.7591 0
M  V30 3149 H 284.477 5.90552 -2.66745 0
M  V30 3150 N 277.883 0.443576 1.51229 0
M  V30 3151 C 278.813 -0.355142 2.30783 0
M  V30 3152 C 279.794 -1.0154 1.36468 0
M  V30 3153 O 280.979 -1.01785 1.65389 0
M  V30 3154 C 278.109 -1.45312 3.15439 0
M  V30 3155 C 277.063 -0.916002 4.18083 0
M  V30 3156 C 276.389 -2.1102 4.91299 0
M  V30 3157 C 277.689 0.0538602 5.22272 0
M  V30 3158 H 279.383 0.308767 2.97804 0
M  V30 3159 H 276.929 0.149937 1.43217 0
M  V30 3160 H 278.882 -2.01914 3.69876 0
M  V30 3161 H 277.606 -2.14541 2.46252 0
M  V30 3162 H 276.265 -0.372145 3.64706 0
M  V30 3163 H 275.913 -2.78882 4.18609 0
M  V30 3164 H 275.613 -1.75717 5.60712 0
M  V30 3165 H 277.137 -2.68164 5.48562 0
M  V30 3166 H 278.551 -0.422069 5.71744 0
M  V30 3167 H 276.948 0.319776 5.99247 0
M  V30 3168 H 278.018 0.98858 4.74716 0
M  V30 3169 N 279.361 -1.56624 0.175154 0
M  V30 3170 C 280.591 -2.01082 -0.474283 0
M  V30 3171 C 280.999 -1.05447 -1.57091 0
M  V30 3172 O 280.342 -0.0480595 -1.83637 0
M  V30 3173 C 280.404 -3.41963 -1.10911 0
M  V30 3174 C 280.068 -4.56742 -0.153666 0
M  V30 3175 C 281.065 -5.16076 0.629448 0
M  V30 3176 C 278.75 -5.02277 -0.0483776 0
M  V30 3177 C 280.744 -6.19377 1.50501 0
M  V30 3178 C 278.431 -6.05427 0.830768 0
M  V30 3179 C 279.429 -6.63849 1.60605 0
M  V30 3180 O 279.117 -7.64998 2.47049 0
M  V30 3181 H 278.849 -0.664261 -0.125432 0
M  V30 3182 H 281.403 -2.03549 0.275163 0
M  V30 3183 H 279.633 -3.36422 -1.90676 0
M  V30 3184 H 281.322 -3.70352 -1.66114 0
M  V30 3185 H 282.088 -4.81776 0.558297 0
M  V30 3186 H 277.967 -4.56513 -0.641611 0
M  V30 3187 H 281.511 -6.64906 2.1106 0
M  V30 3188 H 277.408 -6.39151 0.903107 0
M  V30 3189 H 278.176 -7.82336 2.40607 0
M  V30 3190 N 280.839 0.0985539 -1.57292 0
M  V30 3191 C 281.771 1.14595 -1.98496 0
M  V30 3192 C 282.784 1.36512 -0.887031 0
M  V30 3193 O 283.973 1.35225 -1.16518 0
M  V30 3194 C 281.073 2.50216 -2.28572 0
M  V30 3195 C 280.246 2.48624 -3.59868 0
M  V30 3196 C 279.305 3.66146 -3.7792 0
M  V30 3197 O 278.331 3.48795 -4.49812 0
M  V30 3198 N 279.533 4.85496 -3.18235 0
M  V30 3199 H 282.298 0.795277 -2.88956 0
M  V30 3200 H 279.859 0.287579 -1.59325 0
M  V30 3201 H 281.851 3.27432 -2.37845 0
M  V30 3202 H 280.421 2.77387 -1.44136 0
M  V30 3203 H 279.641 1.56978 -3.61596 0
M  V30 3204 H 280.929 2.44635 -4.46129 0
M  V30 3205 H 280.327 5.02497 -2.59833 0
M  V30 3206 H 278.884 5.60317 -3.32999 0
M  V30 3207 N 282.317 1.53212 0.369288 0
M  V30 3208 C 283.564 1.69215 1.11232 0
M  V30 3209 C 283.892 0.442048 1.8941 0
M  V30 3210 O 283.147 -0.575944 1.87033 0
M  V30 3211 C 283.446 2.89101 2.10132 0
M  V30 3212 C 283.112 4.25758 1.48463 0
M  V30 3213 C 281.774 4.6292 1.31372 0
M  V30 3214 C 284.126 5.10757 1.03811 0
M  V30 3215 C 281.454 5.82722 0.68207 0
M  V30 3216 C 283.806 6.31201 0.420487 0
M  V30 3217 C 282.47 6.67079 0.237038 0
M  V30 3218 H 281.74 0.619201 0.407027 0
M  V30 3219 H 284.387 1.87391 0.394552 0
M  V30 3220 H 282.692 2.65421 2.88199 0
M  V30 3221 H 284.389 2.98676 2.6757 0
M  V30 3222 H 280.979 3.96494 1.62758 0
M  V30 3223 H 285.163 4.82599 1.1581 0
M  V30 3224 H 280.419 6.09113 0.528316 0
M  V30 3225 H 284.593 6.96368 0.0662874 0
M  V30 3226 H 282.22 7.59774 -0.254477 0
M  V30 3227 N 283.795 -0.628877 1.44509 0
M  V30 3228 C 284.745 -1.7345 1.47983 0
M  V30 3229 C 285.729 -1.5715 0.345373 0
M  V30 3230 O 286.921 -1.66848 0.590829 0
M  V30 3231 C 284.05 -3.12143 1.42904 0
M  V30 3232 C 283.136 -3.33906 2.61472 0
M  V30 3233 N 283.527 -3.26024 3.86706 0
M  V30 3234 C 281.825 -3.64709 2.56716 0
M  V30 3235 C 282.526 -3.48536 4.65722 0
M  V30 3236 N 281.502 -3.71517 3.96832 0
M  V30 3237 H 285.304 -1.65818 2.42655 0
M  V30 3238 H 282.818 -0.831419 1.39503 0
M  V30 3239 H 284.815 -3.91433 1.43476 0
M  V30 3240 H 283.475 -3.2094 0.492717 0
M  V30 3241 H 284.486 -3.04893 4.18641 0
M  V30 3242 H 281.163 -3.80473 1.71891 0
M  V30 3243 H 282.553 -3.48016 5.74747 0
M  V30 3244 N 285.273 -1.31445 -0.869486 0
M  V30 3245 C 286.503 -1.23942 -1.65294 0
M  V30 3246 C 286.911 0.197561 -1.88166 0
M  V30 3247 O 286.254 1.14019 -1.44033 0
M  V30 3248 C 286.316 -1.91385 -3.04322 0
M  V30 3249 C 285.98 -3.40726 -3.04557 0
M  V30 3250 C 286.977 -4.36464 -2.82481 0
M  V30 3251 C 284.662 -3.82425 -3.25663 0
M  V30 3252 C 286.656 -5.71876 -2.8149 0
M  V30 3253 C 284.343 -5.1795 -3.243 0
M  V30 3254 C 285.341 -6.12486 -3.02241 0
M  V30 3255 O 285.029 -7.45534 -3.00724 0
M  V30 3256 H 284.761 -0.429459 -0.522054 0
M  V30 3257 H 287.315 -1.73873 -1.0935 0
M  V30 3258 H 285.545 -1.36004 -3.61994 0
M  V30 3259 H 287.234 -1.77791 -3.64891 0
M  V30 3260 H 288 -4.05576 -2.65956 0
M  V30 3261 H 283.879 -3.09274 -3.41863 0
M  V30 3262 H 287.423 -6.45638 -2.64191 0
M  V30 3263 H 283.32 -5.48473 -3.40365 0
M  V30 3264 H 284.088 -7.54713 -3.16782 0
M  V30 3265 N 286.751 1.08385 -1.14413 0
M  V30 3266 C 287.997 1.81044 -0.913834 0
M  V30 3267 C 288.33 1.86004 0.558209 0
M  V30 3268 O 287.605 1.33606 1.4135 0
M  V30 3269 C 287.888 3.26648 -1.51569 0
M  V30 3270 C 287.741 3.29895 -3.0576 0
M  V30 3271 C 289.06 4.23629 -1.19273 0
M  V30 3272 H 286.179 0.65727 -0.333414 0
M  V30 3273 H 288.821 1.26896 -1.41412 0
M  V30 3274 H 286.971 3.72889 -1.09023 0
M  V30 3275 H 288.643 2.91977 -3.57137 0
M  V30 3276 H 286.886 2.69163 -3.40197 0
M  V30 3277 H 287.557 4.32516 -3.42977 0
M  V30 3278 H 290.033 3.85727 -1.56057 0
M  V30 3279 H 288.909 5.23822 -1.64017 0
M  V30 3280 H 289.17 4.41968 -0.108068 0
M  V30 3281 N 288.23 0.939286 1.26551 0
M  V30 3282 C 289.178 0.43815 2.28436 0
M  V30 3283 C 290.172 -0.483587 1.62351 0
M  V30 3284 O 291.378 -0.362009 1.76322 0
M  V30 3285 H 287.753 0.123149 0.741848 0
M  V30 3286 H 289.724 1.31002 2.68106 0
M  V30 3287 C 288.473 -0.283052 3.46546 0
M  V30 3288 H 287.796 0.417043 3.97619 0
M  V30 3289 H 289.236 -0.597948 4.19763 0
M  V30 3290 C 287.695 -1.50018 3.01656 0
M  V30 3291 O 288.225 -2.59855 3.0633 0
M  V30 3292 N 286.431 -1.35608 2.57019 0
M  V30 3293 H 285.978 -0.46244 2.53415 0
M  V30 3294 H 285.936 -2.17165 2.27347 0
M  V30 3295 N 289.708 -1.40897 0.706093 0
M  V30 3296 C 290.954 -2.01849 0.250681 0
M  V30 3297 C 291.309 -1.5496 -1.14041 0
M  V30 3298 O 290.602 -0.755566 -1.76073 0
M  V30 3299 C 290.796 -3.5646 0.259099 0
M  V30 3300 C 290.625 -4.18357 1.64947 0
M  V30 3301 C 289.395 -4.522 2.25485 0
M  V30 3302 C 291.593 -4.43856 2.598 0
M  V30 3303 N 289.575 -4.9944 3.56977 0
M  V30 3304 C 290.946 -4.92986 3.75985 0
M  V30 3305 C 293.001 -4.25882 2.57933 0
M  V30 3306 C 291.704 -5.2603 4.90597 0
M  V30 3307 C 293.73 -4.6002 3.71665 0
M  V30 3308 C 293.092 -5.09331 4.86581 0
M  V30 3309 H 289.191 -0.769843 0.137353 0
M  V30 3310 H 291.775 -1.71278 0.925845 0
M  V30 3311 H 289.946 -3.86481 -0.385592 0
M  V30 3312 H 291.678 -4.04144 -0.21213 0
M  V30 3313 H 288.433 -4.3901 1.77671 0
M  V30 3314 H 288.857 -5.27454 4.24407 0
M  V30 3315 H 293.499 -3.86986 1.70298 0
M  V30 3316 H 291.217 -5.63843 5.78884 0
M  V30 3317 H 294.803 -4.47762 3.71484 0
M  V30 3318 H 293.683 -5.35251 5.73129 0
M  V30 3319 N 291.186 -0.45159 -1.50991 0
M  V30 3320 C 292.597 0.00818571 -1.86698 0
M  V30 3321 C 292.948 1.40661 -1.3678 0
M  V30 3322 O 292.073 2.0391 -0.724546 0
M  V30 3323 C 292.668 0.0216303 -3.38793 0
M  V30 3324 C 291.227 0.425865 -3.73983 0
M  V30 3325 C 290.374 -0.372163 -2.74791 0
M  V30 3326 H 293.325 -0.666785 -1.44013 0
M  V30 3327 H 293.346 0.828078 -3.7138 0
M  V30 3328 H 292.858 -0.996288 -3.75094 0
M  V30 3329 H 290.959 1.44886 -3.43277 0
M  V30 3330 H 291.072 0.140761 -4.78893 0
M  V30 3331 H 289.436 0.171498 -2.54122 0
M  V30 3332 H 290.219 -1.38922 -3.13935 0
M  V30 3333 N 292.664 1.56529 -0.183458 0
M  V30 3334 C 293.941 1.88959 0.50536 0
M  V30 3335 C 294.321 1.09523 1.80466 0
M  V30 3336 O 293.669 0.19278 2.27685 0
M  V30 3337 C 293.879 3.41162 0.73547 0
M  V30 3338 C 295.227 4.11155 1.06005 0
M  V30 3339 O 296.251 3.46548 0.823594 0
M  V30 3340 O 295.11 5.25318 1.50675 0
M  V30 3341 H 292.204 0.78441 0.261973 0
M  V30 3342 H 294.75 1.68231 -0.222802 0
M  V30 3343 H 293.522 3.90874 -0.182561 0
M  V30 3344 H 293.145 3.67543 1.51651 0
M  V30 3345 N 294.142 -0.090211 1.57342 0
M  V30 3346 C 295.092 -1.11557 1.98844 0
M  V30 3347 C 296.076 -1.35503 0.867624 0
M  V30 3348 O 297.268 -1.36113 1.13148 0
M  V30 3349 C 294.397 -2.43446 2.42051 0
M  V30 3350 C 293.483 -2.22853 3.60828 0
M  V30 3351 N 293.874 -1.72141 4.75606 0
M  V30 3352 C 292.172 -2.53401 3.67021 0
M  V30 3353 C 292.873 -1.65932 5.57531 0
M  V30 3354 N 291.849 -2.11323 5.00843 0
M  V30 3355 H 295.651 -0.716499 2.85032 0
M  V30 3356 H 293.165 -0.297567 1.59651 0
M  V30 3357 H 295.162 -3.17644 2.70014 0
M  V30 3358 H 293.822 -2.84087 1.57241 0
M  V30 3359 H 294.833 -1.41268 4.98261 0
M  V30 3360 H 291.51 -2.97532 2.92884 0
M  V30 3361 H 292.9 -1.27733 6.59647 0
M  V30 3362 N 295.62 -1.53406 -0.361157 0
M  V30 3363 C 296.897 -1.60411 -1.11927 0
M  V30 3364 C 297.277 -0.414385 -2.06993 0
M  V30 3365 O 296.625 0.594976 -2.20618 0
M  V30 3366 C 296.835 -2.95652 -1.85448 0
M  V30 3367 C 298.183 -3.50386 -2.39823 0
M  V30 3368 O 299.207 -2.97711 -1.95568 0
M  V30 3369 O 298.066 -4.42482 -3.20737 0
M  V30 3370 H 295.16 -0.64811 -0.513695 0
M  V30 3371 H 297.706 -1.65749 -0.364065 0
M  V30 3372 H 296.478 -3.73682 -1.16091 0
M  V30 3373 H 296.101 -2.93825 -2.67866 0
M  V30 3374 N 297.098 0.621204 -1.44841 0
M  V30 3375 C 298.344 1.3826 -1.48365 0
M  V30 3376 C 298.677 1.93831 -0.119624 0
M  V30 3377 O 297.952 1.74251 0.864111 0
M  V30 3378 C 298.235 2.54058 -2.55199 0
M  V30 3379 C 298.088 2.03772 -4.00995 0
M  V30 3380 C 299.407 3.56225 -2.58442 0
M  V30 3381 H 296.526 0.501374 -0.540179 0
M  V30 3382 H 299.168 0.7015 -1.76576 0
M  V30 3383 H 297.318 3.12162 -2.31274 0
M  V30 3384 H 298.99 1.50423 -4.36086 0
M  V30 3385 H 297.233 1.34876 -4.12299 0
M  V30 3386 H 297.904 2.87185 -4.71411 0
M  V30 3387 H 300.38 3.07939 -2.79844 0
M  V30 3388 H 299.256 4.34756 -3.3508 0
M  V30 3389 H 299.517 4.10949 -1.63013 0
M  V30 3390 N 298.576 1.31904 0.862503 0
M  V30 3391 C 299.987 1.19803 1.43193 0
M  V30 3392 C 300.338 -0.192567 1.95253 0
M  V30 3393 O 299.463 -1.09081 1.86896 0
M  V30 3394 C 300.058 2.16883 2.60283 0
M  V30 3395 C 298.617 2.08692 3.13248 0
M  V30 3396 C 297.764 2.05691 1.85975 0
M  V30 3397 H 300.715 1.43846 0.670365 0
M  V30 3398 H 300.736 1.76278 3.37204 0
M  V30 3399 H 300.248 3.18083 2.22363 0
M  V30 3400 H 298.349 1.10713 3.55771 0
M  V30 3401 H 298.462 2.9815 3.75025 0
M  V30 3402 H 296.826 1.50814 2.05249 0
M  V30 3403 H 297.609 3.08659 1.50282 0
M  V30 3404 N 300.054 -1.07777 1.14986 0
M  V30 3405 C 301.279 -1.84558 0.946213 0
M  V30 3406 C 301.704 -1.81323 -0.500362 0
M  V30 3407 O 301.062 -1.20301 -1.35637 0
M  V30 3408 C 301.11 -3.29736 1.45968 0
M  V30 3409 O 300.214 -4.07149 0.65601 0
M  V30 3410 H 299.555 -0.571641 0.33782 0
M  V30 3411 H 302.085 -1.35991 1.52865 0
M  V30 3412 H 302.095 -3.80574 1.47063 0
M  V30 3413 H 300.77 -3.31406 2.51283 0
M  V30 3414 H 299.347 -3.65994 0.714322 0
M  V30 3415 N 301.532 -0.945985 -1.26051 0
M  V30 3416 C 302.757 -0.612525 -1.98149 0
M  V30 3417 C 303.182 0.806623 -1.69927 0
M  V30 3418 O 302.54 1.54411 -0.950108 0
M  V30 3419 C 302.588 -0.866981 -3.50023 0
M  V30 3420 O 301.692 0.0585333 -4.12358 0
M  V30 3421 H 301.033 -0.23379 -0.621481 0
M  V30 3422 H 303.563 -1.27023 -1.60395 0
M  V30 3423 H 303.573 -0.789792 -4.00283 0
M  V30 3424 H 302.248 -1.90135 -3.69894 0
M  V30 3425 H 300.825 -0.0701241 -3.72834 0
M  V30 3426 N 303.011 1.40521 -0.713556 0
M  V30 3427 C 304.258 2.00923 -0.25219 0
M  V30 3428 C 304.586 1.56571 1.15395 0
M  V30 3429 O 303.841 0.775874 1.79663 0
M  V30 3430 C 304.14 3.56317 -0.278 0
M  V30 3431 C 303.806 4.20246 -1.63415 0
M  V30 3432 C 302.468 4.37422 -2.00538 0
M  V30 3433 C 304.82 4.55923 -2.52554 0
M  V30 3434 C 302.148 4.87558 -3.2635 0
M  V30 3435 C 304.5 5.07458 -3.77716 0
M  V30 3436 C 303.164 5.22843 -4.14959 0
M  V30 3437 H 302.434 0.735231 -0.0922829 0
M  V30 3438 H 305.081 1.68161 -0.916188 0
M  V30 3439 H 303.386 3.88976 0.469567 0
M  V30 3440 H 305.083 4.00883 0.0967819 0
M  V30 3441 H 301.673 4.07263 -1.33546 0
M  V30 3442 H 305.857 4.42291 -2.25149 0
M  V30 3443 H 301.113 4.97654 -3.55176 0
M  V30 3444 H 305.287 5.34041 -4.4696 0
M  V30 3445 H 302.914 5.61454 -5.12516 0
M  V30 3446 N 304.489 0.459591 1.5075 0
M  V30 3447 C 305.766 -0.160371 1.94941 0
M  V30 3448 C 306.146 -1.58048 1.39943 0
M  V30 3449 O 305.494 -2.206 0.595629 0
M  V30 3450 C 305.704 -0.115432 3.48809 0
M  V30 3451 C 307.052 -0.310026 4.23467 0
M  V30 3452 O 308.076 -0.192543 3.55679 0
M  V30 3453 O 306.935 -0.546031 5.43765 0
M  V30 3454 H 304.029 -0.117925 0.818549 0
M  V30 3455 H 306.575 0.519169 1.61563 0
M  V30 3456 H 305.347 0.87652 3.81357 0
M  V30 3457 H 304.97 -0.836928 3.88692 0
M  V30 3458 N 305.967 -1.56429 0.191757 0
M  V30 3459 C 307.192 -2.02309 -0.456706 0
M  V30 3460 C 307.617 -1.07103 -1.5463 0
M  V30 3461 O 306.975 -0.0539677 -1.8122 0
M  V30 3462 C 307.023 -3.46654 -0.993159 0
M  V30 3463 O 306.127 -3.54559 -2.10622 0
M  V30 3464 H 305.468 -0.655303 -0.107114 0
M  V30 3465 H 307.998 -2.02364 0.301653 0
M  V30 3466 H 308.008 -3.86377 -1.31061 0
M  V30 3467 H 306.683 -4.1544 -0.195504 0
M  V30 3468 H 305.26 -3.26708 -1.79767 0
M  V30 3469 N 307.445 0.0818655 -1.57387 0
M  V30 3470 C 308.694 0.781681 -1.85937 0
M  V30 3471 C 309.007 1.79246 -0.782957 0
M  V30 3472 O 310.213 2.54112 -0.955987 0
M  V30 3473 C 308.669 1.44109 -3.29789 0
M  V30 3474 C 308.277 0.469396 -4.45534 0
M  V30 3475 C 310.021 2.12386 -3.67549 0
M  V30 3476 C 307.928 1.13415 -5.80423 0
M  V30 3477 H 306.858 0.295682 -0.693605 0
M  V30 3478 H 309.509 0.0348051 -1.83467 0
M  V30 3479 H 307.891 2.23588 -3.2684 0
M  V30 3480 H 309.065 -0.294856 -4.59856 0
M  V30 3481 H 307.38 -0.108383 -4.16259 0
M  V30 3482 H 309.977 2.62878 -4.65617 0
M  V30 3483 H 310.32 2.91877 -2.96839 0
M  V30 3484 H 310.853 1.39751 -3.72444 0
M  V30 3485 H 307.592 0.379771 -6.54399 0
M  V30 3486 H 307.112 1.8695 -5.69921 0
M  V30 3487 H 308.791 1.65686 -6.25426 0
M  V30 3488 N 308.923 1.53595 0.353017 0
M  V30 3489 C 309.853 1.83902 1.43883 0
M  V30 3490 C 310.834 0.693421 1.55324 0
M  V30 3491 O 312.019 0.944452 1.69687 0
M  V30 3492 C 309.149 2.04016 2.8106 0
M  V30 3493 C 308.103 3.19814 2.84434 0
M  V30 3494 C 307.429 3.25244 4.24406 0
M  V30 3495 C 308.729 4.58133 2.50822 0
M  V30 3496 H 310.423 2.74835 1.1877 0
M  V30 3497 H 307.969 1.32242 0.569917 0
M  V30 3498 H 309.922 2.238 3.57059 0
M  V30 3499 H 308.646 1.09804 3.07588 0
M  V30 3500 H 307.305 2.9987 2.10887 0
M  V30 3501 H 306.953 2.28646 4.48029 0
M  V30 3502 H 306.653 4.03054 4.27576 0
M  V30 3503 H 308.177 3.47228 5.0226 0
M  V30 3504 H 309.591 4.77995 3.16534 0
M  V30 3505 H 307.988 5.38276 2.6529 0
M  V30 3506 H 309.058 4.62387 1.46034 0
M  V30 3507 N 310.401 -0.613514 1.45168 0
M  V30 3508 C 311.678 -1.37263 1.39349 0
M  V30 3509 C 312.058 -2.11012 0.0610848 0
M  V30 3510 O 311.406 -2.07502 -0.956825 0
M  V30 3511 C 311.616 -2.3244 2.60332 0
M  V30 3512 C 312.964 -2.9523 3.05163 0
M  V30 3513 O 313.988 -2.42762 2.60663 0
M  V30 3514 O 312.847 -3.90454 3.82372 0
M  V30 3515 H 309.941 -0.615188 0.552696 0
M  V30 3516 H 312.487 -0.637097 1.57287 0
M  V30 3517 H 311.259 -1.77164 3.48896 0
M  V30 3518 H 310.882 -3.13383 2.44698 0
M  V30 3519 N 311.879 -1.3236 -0.855495 0
M  V30 3520 C 312.812 -1.15559 -1.96777 0
M  V30 3521 C 313.79 -0.0552681 -1.62506 0
M  V30 3522 O 314.974 -0.214419 -1.87277 0
M  V30 3523 C 312.101 -0.768851 -3.29858 0
M  V30 3524 C 311.147 -1.87429 -3.83109 0
M  V30 3525 S 311.98 -3.48243 -4.06801 0
M  V30 3526 C 313.136 -3.11539 -5.42858 0
M  V30 3527 H 313.369 -2.09717 -2.10727 0
M  V30 3528 H 310.902 -1.17011 -1.00737 0
M  V30 3529 H 312.86 -0.55248 -4.06765 0
M  V30 3530 H 311.521 0.153857 -3.13723 0
M  V30 3531 H 310.714 -1.55667 -4.79358 0
M  V30 3532 H 310.316 -2.04647 -3.13042 0
M  V30 3533 H 312.608 -2.61331 -6.2507 0
M  V30 3534 H 313.551 -4.06806 -5.79582 0
M  V30 3535 H 313.959 -2.48582 -5.06821 0
M  V30 3536 N 313.357 1.07166 -1.15556 0
M  V30 3537 C 314.606 1.79181 -0.926132 0
M  V30 3538 C 314.919 1.87768 0.547967 0
M  V30 3539 O 316.125 2.56323 0.895036 0
M  V30 3540 C 314.581 3.22 -1.60761 0
M  V30 3541 C 314.189 3.21607 -3.11886 0
M  V30 3542 C 315.933 3.9861 -1.4598 0
M  V30 3543 C 313.84 4.59092 -3.72812 0
M  V30 3544 H 312.77 0.67154 -0.342856 0
M  V30 3545 H 315.421 1.2027 -1.3859 0
M  V30 3546 H 313.803 3.81115 -1.07553 0
M  V30 3547 H 314.977 2.72127 -3.71865 0
M  V30 3548 H 313.292 2.58495 -3.2645 0
M  V30 3549 H 315.889 5.00225 -1.88888 0
M  V30 3550 H 316.232 4.143 -0.407541 0
M  V30 3551 H 316.765 3.45996 -1.96295 0
M  V30 3552 H 313.504 4.48606 -4.77946 0
M  V30 3553 H 313.024 5.08803 -3.17616 0
M  V30 3554 H 314.703 5.28059 -3.73848 0
M  V30 3555 N 314.835 0.952656 1.25548 0
M  V30 3556 C 316.06 0.623025 1.97821 0
M  V30 3557 C 316.485 -0.7976 1.70352 0
M  V30 3558 O 315.843 -1.53905 0.958283 0
M  V30 3559 C 315.891 0.885532 3.49558 0
M  V30 3560 O 314.995 -0.0366641 4.12384 0
M  V30 3561 H 314.336 0.237082 0.620232 0
M  V30 3562 H 316.866 1.27871 1.59719 0
M  V30 3563 H 316.876 0.811009 3.99858 0
M  V30 3564 H 315.551 1.92094 3.6888 0
M  V30 3565 H 314.128 0.0898954 3.72792 0
M  V30 3566 N 316.313 -1.40141 0.720998 0
M  V30 3567 C 317.243 -2.33339 0.0867621 0
M  V30 3568 C 318.224 -1.53178 -0.739622 0
M  V30 3569 O 319.409 -1.81625 -0.687449 0
M  V30 3570 C 316.539 -3.37194 -0.831728 0
M  V30 3571 C 315.493 -4.27857 -0.110558 0
M  V30 3572 C 314.819 -5.22294 -1.14513 0
M  V30 3573 C 316.119 -5.11872 1.0385 0
M  V30 3574 H 317.813 -2.86626 0.865219 0
M  V30 3575 H 315.359 -1.37814 0.417516 0
M  V30 3576 H 317.312 -4.01335 -1.28485 0
M  V30 3577 H 316.036 -2.82314 -1.64214 0
M  V30 3578 H 314.695 -3.65176 0.322797 0
M  V30 3579 H 314.343 -4.63717 -1.94874 0
M  V30 3580 H 314.043 -5.83797 -0.667446 0
M  V30 3581 H 315.567 -5.89312 -1.59824 0
M  V30 3582 H 316.981 -5.69436 0.664482 0
M  V30 3583 H 315.378 -5.82445 1.4449 0
M  V30 3584 H 316.448 -4.4753 1.86668 0
M  V30 3585 N 317.792 -0.46758 -1.50504 0
M  V30 3586 C 318.725 0.374324 -2.25109 0
M  V30 3587 C 319.703 0.99921 -1.28275 0
M  V30 3588 O 320.887 1.03583 -1.57489 0
M  V30 3589 C 318.014 1.52419 -3.02467 0
M  V30 3590 C 317.06 1.01702 -4.14197 0
M  V30 3591 S 317.893 -0.0654477 -5.3546 0
M  V30 3592 C 319.049 1.08837 -6.16365 0
M  V30 3593 H 319.282 -0.258983 -2.9617 0
M  V30 3594 H 316.815 -0.252421 -1.52323 0
M  V30 3595 H 318.773 2.18322 -3.47628 0
M  V30 3596 H 317.434 2.129 -2.30938 0
M  V30 3597 H 316.627 1.87776 -4.67714 0
M  V30 3598 H 316.229 0.435757 -3.71453 0
M  V30 3599 H 318.521 2.00071 -6.47285 0
M  V30 3600 H 319.464 0.592538 -7.05616 0
M  V30 3601 H 319.872 1.34061 -5.4835 0
M  V30 3602 N 319.27 1.56325 -0.20005 0
M  V30 3603 C 320.686 1.58839 0.155716 0
M  V30 3604 C 320.886 1.21636 1.60645 0
M  V30 3605 O 319.942 0.941437 2.34293 0
M  V30 3606 C 321.255 3.0032 -0.151124 0
M  V30 3607 C 322.803 3.12866 -0.0916284 0
M  V30 3608 C 323.278 4.56488 -0.371845 0
M  V30 3609 N 324.769 4.62089 -0.320641 0
M  V30 3610 C 325.504 5.71116 -0.511243 0
M  V30 3611 N 325 6.88592 -0.762461 0
M  V30 3612 N 326.793 5.60335 -0.445157 0
M  V30 3613 H 318.944 1.78788 -1.14668 0
M  V30 3614 H 321.207 0.829996 -0.458051 0
M  V30 3615 H 320.913 3.32117 -1.15721 0
M  V30 3616 H 320.787 3.73257 0.543986 0
M  V30 3617 H 323.174 2.80878 0.905065 0
M  V30 3618 H 323.255 2.42304 -0.81989 0
M  V30 3619 H 322.899 4.89189 -1.36588 0
M  V30 3620 H 322.829 5.25246 0.377362 0
M  V30 3621 H 325.32 3.77665 -0.13329 0
M  V30 3622 H 325.633 7.67581 -0.896576 0
M  V30 3623 H 323.978 6.90387 -0.799412 0
M  V30 3624 H 327.169 4.67436 -0.249278 0
M  V30 3625 H 327.342 6.45243 -0.597116 0
M  V30 3626 N 320.748 -0.0735177 1.57428 0
M  V30 3627 C 321.695 -1.08756 2.0357 0
M  V30 3628 C 322.665 -1.38559 0.916 0
M  V30 3629 O 323.85 -1.49656 1.18354 0
M  V30 3630 C 320.99 -2.39657 2.48311 0
M  V30 3631 C 320.103 -2.16399 3.73892 0
M  V30 3632 C 319.238 -3.40852 4.07423 0
M  V30 3633 C 318.277 -3.1295 5.2605 0
M  V30 3634 N 317.414 -4.29729 5.55228 0
M  V30 3635 H 322.254 -0.687104 2.8997 0
M  V30 3636 H 319.791 -0.327709 1.43403 0
M  V30 3637 H 321.749 -3.16081 2.72303 0
M  V30 3638 H 320.379 -2.77508 1.64891 0
M  V30 3639 H 319.431 -1.30676 3.57251 0
M  V30 3640 H 320.743 -1.91788 4.60455 0
M  V30 3641 H 319.897 -4.25671 4.32306 0
M  V30 3642 H 318.636 -3.68537 3.19425 0
M  V30 3643 H 317.641 -2.26526 5.00965 0
M  V30 3644 H 318.866 -2.86589 6.15665 0
M  V30 3645 H 316.812 -4.57448 4.70188 0
M  V30 3646 H 316.729 -4.08385 6.36206 0
M  V30 3647 H 317.997 -5.1555 5.84661 0
M  V30 3648 N 322.226 -1.5378 -0.344866 0
M  V30 3649 C 323.456 -1.74646 -1.10374 0
M  V30 3650 C 323.864 -0.48491 -1.8288 0
M  V30 3651 O 323.207 0.553062 -1.75177 0
M  V30 3652 C 323.269 -2.87145 -2.16306 0
M  V30 3653 C 322.933 -4.26795 -1.63386 0
M  V30 3654 C 323.93 -5.08412 -1.08688 0
M  V30 3655 C 321.615 -4.73276 -1.68272 0
M  V30 3656 C 323.609 -6.34609 -0.595792 0
M  V30 3657 C 321.296 -5.99446 -1.18776 0
M  V30 3658 C 322.294 -6.79946 -0.645215 0
M  V30 3659 O 321.982 -8.03745 -0.157626 0
M  V30 3660 H 321.714 -0.587112 -0.335075 0
M  V30 3661 H 324.268 -2.01403 -0.403252 0
M  V30 3662 H 322.498 -2.55909 -2.89909 0
M  V30 3663 H 324.187 -2.95992 -2.77747 0
M  V30 3664 H 324.953 -4.73666 -1.04236 0
M  V30 3665 H 320.832 -4.10677 -2.09442 0
M  V30 3666 H 324.376 -6.97389 -0.171654 0
M  V30 3667 H 320.273 -6.33687 -1.22928 0
M  V30 3668 H 321.041 -8.18038 -0.275037 0
M  V30 3669 N 323.704 0.605807 -1.45491 0
M  V30 3670 C 324.636 1.73031 -1.5031 0
M  V30 3671 C 325.649 1.57968 -0.393687 0
M  V30 3672 O 326.838 1.65817 -0.660839 0
M  V30 3673 C 323.938 3.11049 -1.34543 0
M  V30 3674 C 323.111 3.52334 -2.59189 0
M  V30 3675 C 322.17 4.69323 -2.37954 0
M  V30 3676 O 321.196 4.7635 -3.11575 0
M  V30 3677 N 322.398 5.62705 -1.4263 0
M  V30 3678 H 325.163 1.6936 -2.4726 0
M  V30 3679 H 322.724 0.79114 -1.41254 0
M  V30 3680 H 324.716 3.87071 -1.18144 0
M  V30 3681 H 323.286 3.09217 -0.458623 0
M  V30 3682 H 322.506 2.66256 -2.90691 0
M  V30 3683 H 323.794 3.76677 -3.42041 0
M  V30 3684 H 323.192 5.59744 -0.818758 0
M  V30 3685 H 321.749 6.38252 -1.32202 0
M  V30 3686 N 325.182 1.32811 0.848464 0
M  V30 3687 C 326.092 1.24278 1.98978 0
M  V30 3688 C 327.108 0.155176 1.73307 0
M  V30 3689 O 328.284 0.376999 1.9784 0
M  V30 3690 C 325.349 0.972444 3.32783 0
M  V30 3691 C 324.41 2.14911 3.71634 0
M  V30 3692 C 323.643 1.89157 4.99054 0
M  V30 3693 O 323.866 0.837165 5.64223 0
M  V30 3694 O 322.8 2.75433 5.35183 0
M  V30 3695 H 326.626 2.20238 2.09115 0
M  V30 3696 H 324.211 1.12762 0.980052 0
M  V30 3697 H 326.093 0.838432 4.12975 0
M  V30 3698 H 324.768 0.043051 3.23671 0
M  V30 3699 H 323.675 2.33862 2.91992 0
M  V30 3700 H 325.008 3.06151 3.85399 0
M  V30 3701 N 326.66 -1.06551 1.16123 0
M  V30 3702 C 327.61 -2.12209 0.833736 0
M  V30 3703 C 328.594 -1.59825 -0.185656 0
M  V30 3704 O 329.786 -1.76994 0.0147906 0
M  V30 3705 C 326.915 -3.41674 0.333697 0
M  V30 3706 C 326.001 -4.00892 1.38372 0
M  V30 3707 N 326.392 -4.34256 2.59337 0
M  V30 3708 C 324.69 -4.28463 1.23836 0
M  V30 3709 C 325.391 -4.81291 3.26701 0
M  V30 3710 N 324.367 -4.80565 2.54083 0
M  V30 3711 H 328.169 -2.35849 1.75364 0
M  V30 3712 H 325.683 -1.24068 1.04789 0
M  V30 3713 H 327.68 -4.16822 0.0806918 0
M  V30 3714 H 326.34 -3.19475 -0.58017 0
M  V30 3715 H 327.351 -4.24687 2.96415 0
M  V30 3716 H 324.028 -4.15721 0.38504 0
M  V30 3717 H 325.418 -5.16332 4.29943 0
M  V30 3718 N 328.138 -0.959301 -1.25041 0
M  V30 3719 C 329.048 -0.489994 -2.29426 0
M  V30 3720 C 330.064 0.444944 -1.68215 0
M  V30 3721 O 331.24 0.320046 -1.98841 0
M  V30 3722 C 328.305 0.220309 -3.45999 0
M  V30 3723 C 327.366 -0.753418 -4.22637 0
M  V30 3724 C 326.599 -0.076918 -5.33645 0
M  V30 3725 O 326.822 1.13649 -5.58963 0
M  V30 3726 O 325.756 -0.764824 -5.97021 0
M  V30 3727 H 329.582 -1.35755 -2.71669 0
M  V30 3728 H 327.167 -0.725961 -1.30576 0
M  V30 3729 H 329.049 0.619677 -4.16819 0
M  V30 3730 H 327.724 1.06296 -3.0575 0
M  V30 3731 H 326.631 -1.20308 -3.54227 0
M  V30 3732 H 327.964 -1.56423 -4.66683 0
M  V30 3733 N 329.616 1.39756 -0.72842 0
M  V30 3734 C 330.893 1.94574 -0.200079 0
M  V30 3735 C 331.273 1.66569 1.29684 0
M  V30 3736 O 330.621 0.990326 2.05924 0
M  V30 3737 C 330.831 3.45004 -0.526608 0
M  V30 3738 C 332.179 4.21965 -0.472318 0
M  V30 3739 O 333.203 3.53173 -0.463413 0
M  V30 3740 O 332.062 5.44552 -0.461075 0
M  V30 3741 H 329.156 0.826289 -0.0342851 0
M  V30 3742 H 331.702 1.49293 -0.806829 0
M  V30 3743 H 330.474 3.58796 -1.56144 0
M  V30 3744 H 330.097 3.97449 0.109449 0
M  V30 3745 N 331.094 0.475555 1.50254 0
M  V30 3746 C 332.34 -0.0780073 2.0265 0
M  V30 3747 C 332.673 -1.38968 1.35652 0
M  V30 3748 O 331.948 -1.8839 0.483691 0
M  V30 3749 C 332.231 -0.257161 3.59181 0
M  V30 3750 C 332.084 1.07585 4.36744 0
M  V30 3751 C 333.403 -1.00965 4.28362 0
M  V30 3752 H 330.522 -0.0268758 0.73651 0
M  V30 3753 H 333.164 0.622015 1.7953 0
M  V30 3754 H 331.314 -0.853412 3.79011 0
M  V30 3755 H 332.986 1.70902 4.28474 0
M  V30 3756 H 331.229 1.6714 4.00308 0
M  V30 3757 H 331.9 0.904088 5.44546 0
M  V30 3758 H 334.376 -0.504214 4.13034 0
M  V30 3759 H 333.252 -1.10381 5.37687 0
M  V30 3760 H 333.513 -2.04731 3.91839 0
M  V30 3761 N 332.573 -1.56217 0.208337 0
M  V30 3762 C 333.984 -1.84243 -0.301904 0
M  V30 3763 C 334.335 -1.12939 -1.60434 0
M  V30 3764 O 333.46 -0.39461 -2.12772 0
M  V30 3765 C 334.055 -3.34231 -0.554543 0
M  V30 3766 C 332.614 -3.62621 -1.00912 0
M  V30 3767 C 331.761 -2.77224 -0.064933 0
M  V30 3768 H 334.712 -1.52712 0.431833 0
M  V30 3769 H 334.733 -3.5372 -1.40223 0
M  V30 3770 H 334.245 -3.86099 0.393561 0
M  V30 3771 H 332.346 -3.16197 -1.97104 0
M  V30 3772 H 332.459 -4.7071 -0.892674 0
M  V30 3773 H 330.823 -2.48256 -0.56929 0
M  V30 3774 H 331.606 -3.31887 0.877851 0
M  V30 3775 N 334.051 0.0651679 -1.57465 0
M  V30 3776 C 335.3 0.761916 -1.86756 0
M  V30 3777 C 335.613 1.78406 -0.801925 0
M  V30 3778 O 336.819 2.53084 -0.982885 0
M  V30 3779 C 335.275 1.40603 -3.31299 0
M  V30 3780 C 334.883 0.422115 -4.46007 0
M  V30 3781 C 336.627 2.08476 -3.69781 0
M  V30 3782 C 334.534 1.07252 -5.81593 0
M  V30 3783 H 333.464 0.288308 -0.696702 0
M  V30 3784 H 336.115 0.015344 -1.83494 0
M  V30 3785 H 334.497 2.20109 -3.29193 0
M  V30 3786 H 335.671 -0.343613 -4.59517 0
M  V30 3787 H 333.986 -0.152527 -4.16121 0
M  V30 3788 H 336.583 2.57925 -4.68379 0
M  V30 3789 H 336.926 2.88712 -2.99919 0
M  V30 3790 H 337.459 1.35792 -3.73905 0
M  V30 3791 H 334.198 0.310342 -6.54765 0
M  V30 3792 H 333.718 1.80895 -5.71872 0
M  V30 3793 H 335.397 1.59043 -6.27148 0
M  V30 3794 N 335.529 1.53961 0.336706 0
M  V30 3795 C 336.769 1.73254 1.08454 0
M  V30 3796 C 337.133 0.488937 1.8567 0
M  V30 3797 O 338.334 0.559001 2.62923 0
M  V30 3798 C 336.605 2.96519 1.99528 0
M  V30 3799 S 338.164 3.36655 2.81441 0
M  V30 3800 H 334.982 0.609353 0.366347 0
M  V30 3801 H 337.584 1.92117 0.362124 0
M  V30 3802 H 336.288 3.85193 1.41614 0
M  V30 3803 H 335.819 2.80142 2.76196 0
M  V30 3804 H 337.834 2.90925 4.01967 0
M  V30 3805 N 337.007 -0.598083 1.45811 0
M  V30 3806 C 338.256 -1.35295 1.49594 0
M  V30 3807 C 338.569 -1.95057 0.145679 0
M  V30 3808 O 339.775 -2.71431 0.0612099 0
M  V30 3809 C 338.231 -2.45124 2.63519 0
M  V30 3810 C 337.839 -1.91732 4.04899 0
M  V30 3811 C 339.583 -3.2205 2.76558 0
M  V30 3812 C 337.49 -2.991 5.1019 0
M  V30 3813 H 336.42 -0.508552 0.556679 0
M  V30 3814 H 339.071 -0.639977 1.71978 0
M  V30 3815 H 337.453 -3.19149 2.34435 0
M  V30 3816 H 338.627 -1.24352 4.43704 0
M  V30 3817 H 336.942 -1.27522 3.96393 0
M  V30 3818 H 339.539 -4.0215 3.52391 0
M  V30 3819 H 339.882 -3.73663 1.83526 0
M  V30 3820 H 340.415 -2.55127 3.05213 0
M  V30 3821 H 337.154 -2.52393 6.04961 0
M  V30 3822 H 336.674 -3.65017 4.75944 0
M  V30 3823 H 338.353 -3.63318 5.35359 0
M  V30 3824 N 338.485 -1.33259 -0.841409 0
M  V30 3825 C 339.435 -1.19872 -1.93945 0
M  V30 3826 C 340.419 -0.102269 -1.60575 0
M  V30 3827 O 341.611 -0.330114 -1.73894 0
M  V30 3828 C 338.74 -0.937517 -3.30251 0
M  V30 3829 C 337.826 -2.07629 -3.69799 0
M  V30 3830 N 338.217 -3.32604 -3.81062 0
M  V30 3831 C 336.515 -1.98242 -3.9952 0
M  V30 3832 C 337.216 -4.07275 -4.15333 0
M  V30 3833 N 336.192 -3.35691 -4.27566 0
M  V30 3834 H 339.994 -2.14604 -2.00805 0
M  V30 3835 H 337.508 -1.2523 -1.03398 0
M  V30 3836 H 339.505 -0.822545 -4.08705 0
M  V30 3837 H 338.165 0.00128798 -3.247 0
M  V30 3838 H 339.176 -3.67382 -3.65035 0
M  V30 3839 H 335.853 -1.12005 -4.02195 0
M  V30 3840 H 337.243 -5.1511 -4.31406 0
M  V30 3841 N 339.963 1.05934 -1.16686 0
M  V30 3842 C 341.203 1.80382 -0.961345 0
M  V30 3843 C 341.567 1.85331 0.501643 0
M  V30 3844 O 342.768 2.55795 0.825986 0
M  V30 3845 C 341.039 3.20777 -1.57596 0
M  V30 3846 S 342.598 4.11795 -1.51559 0
M  V30 3847 H 339.416 0.621332 -0.345641 0
M  V30 3848 H 342.018 1.27157 -1.48497 0
M  V30 3849 H 340.722 3.14773 -2.63337 0
M  V30 3850 H 340.253 3.79078 -1.05182 0
M  V30 3851 H 342.268 4.93485 -0.518374 0
M  V30 3852 N 341.441 0.965919 1.2453 0
M  V30 3853 C 342.666 0.643971 1.97149 0
M  V30 3854 C 343.091 -0.779487 1.71189 0
M  V30 3855 O 342.449 -1.5288 0.974553 0
M  V30 3856 C 342.497 0.922557 3.48599 0
M  V30 3857 O 341.601 0.00707672 4.12399 0
M  V30 3858 H 340.942 0.243647 0.617683 0
M  V30 3859 H 343.472 1.29558 1.58353 0
M  V30 3860 H 343.482 0.853373 3.98976 0
M  V30 3861 H 342.157 1.95996 3.66822 0
M  V30 3862 H 340.734 0.12943 3.72675 0
M  V30 3863 N 342.919 -1.39368 0.735821 0
M  V30 3864 C 343.882 -2.2896 0.104874 0
M  V30 3865 C 344.882 -1.46347 -0.666274 0
M  V30 3866 O 346.072 -1.67014 -0.49517 0
M  V30 3867 C 343.204 -3.29857 -0.860656 0
M  V30 3868 H 344.397 -2.86259 0.894205 0
M  V30 3869 H 341.95 -1.48029 0.501704 0
M  V30 3870 H 342.685 -2.77615 -1.67631 0
M  V30 3871 H 342.47 -3.9087 -0.310327 0
M  V30 3872 H 343.96 -3.96893 -1.29867 0
M  V30 3873 N 344.397 -0.483516 -1.5 0
M  V30 3874 C 345.645 0.067027 -2.01989 0
M  V30 3875 C 345.966 1.3909 -1.36671 0
M  V30 3876 O 345.236 1.88978 -0.516152 0
M  V30 3877 H 343.816 0.0277606 -0.746484 0
M  V30 3878 H 346.478 -0.636773 -1.84204 0
M  V30 3879 H 345.574 0.209484 -3.11396 0
M  V30 3880 N 345.875 1.56104 -0.216619 0
M  V30 3881 C 347.115 2.00074 0.418322 0
M  V30 3882 C 347.479 1.10098 1.57297 0
M  V30 3883 O 348.68 1.43393 2.27359 0
M  V30 3884 C 346.951 3.47231 0.846477 0
M  V30 3885 S 348.51 4.13223 1.47622 0
M  V30 3886 H 345.328 0.698457 0.132962 0
M  V30 3887 H 347.93 1.92784 -0.324748 0
M  V30 3888 H 346.634 4.104 -0.0036319 0
M  V30 3889 H 346.165 3.58384 1.62248 0
M  V30 3890 H 348.18 4.12005 2.76526 0
M  V30 3891 N 347.353 -0.0568162 1.57498 0
M  V30 3892 C 348.601 -0.751617 1.87604 0
M  V30 3893 C 348.922 -1.77351 0.81066 0
M  V30 3894 O 348.192 -1.95254 -0.159018 0
M  V30 3895 H 346.772 -0.280583 0.692302 0
M  V30 3896 H 349.434 -0.0293483 1.94878 0
M  V30 3897 H 348.53 -1.25852 2.856 0
M  V30 3898 N 348.832 -1.54138 -0.328536 0
M  V30 3899 C 350.248 -1.44736 -0.672574 0
M  V30 3900 C 350.448 -0.616217 -1.91846 0
M  V30 3901 O 349.504 -0.113067 -2.52247 0
M  V30 3902 C 350.817 -2.884 -0.851217 0
M  V30 3903 C 352.365 -2.98271 -0.948877 0
M  V30 3904 C 352.84 -4.43074 -1.15973 0
M  V30 3905 N 354.331 -4.46665 -1.22658 0
M  V30 3906 C 355.066 -5.55857 -1.40751 0
M  V30 3907 N 354.562 -6.75026 -1.5592 0
M  V30 3908 N 356.355 -5.43495 -1.4342 0
M  V30 3909 H 348.506 -2.06661 0.490421 0
M  V30 3910 H 350.769 -0.934812 0.157579 0
M  V30 3911 H 350.475 -3.51699 -0.00704236 0
M  V30 3912 H 350.349 -3.34225 -1.74853 0
M  V30 3913 H 352.736 -2.35102 -1.78356 0
M  V30 3914 H 352.817 -2.55785 -0.0281435 0
M  V30 3915 H 352.461 -5.06827 -0.329915 0
M  V30 3916 H 352.391 -4.83165 -2.09426 0
M  V30 3917 H 354.882 -3.60797 -1.124 0
M  V30 3918 H 355.195 -7.54004 -1.69404 0
M  V30 3919 H 353.54 -6.77944 -1.53027 0
M  V30 3920 H 356.731 -4.49349 -1.31162 0
M  V30 3921 H 356.904 -6.28649 -1.57178 0
M  V30 3922 N 350.31 0.590341 -1.46126 0
M  V30 3923 C 351.538 1.37504 -1.54597 0
M  V30 3924 C 351.953 1.87897 -0.184447 0
M  V30 3925 O 351.31 1.63192 0.816984 0
M  V30 3926 C 351.361 2.56779 -2.54454 0
M  V30 3927 O 351.082 2.08476 -3.85317 0
M  V30 3928 C 352.583 3.49427 -2.72792 0
M  V30 3929 H 349.803 0.420325 -0.523037 0
M  V30 3930 H 352.347 0.718383 -1.91467 0
M  V30 3931 H 350.502 3.1845 -2.20609 0
M  V30 3932 H 350.916 2.86097 -4.396 0
M  V30 3933 H 352.39 4.29619 -3.466 0
M  V30 3934 H 352.867 4.00876 -1.79429 0
M  V30 3935 H 353.473 2.93598 -3.07702 0
M  V30 3936 N 351.788 1.33704 0.83433 0
M  V30 3937 C 353.036 1.25169 1.58673 0
M  V30 3938 C 353.357 -0.18127 1.94156 0
M  V30 3939 O 352.627 -1.11113 1.6134 0
M  V30 3940 H 351.207 0.4603 0.58833 0
M  V30 3941 H 353.869 1.67478 0.996847 0
M  V30 3942 H 352.965 1.84856 2.51465 0
M  V30 3943 N 353.266 -1.05314 1.17247 0
M  V30 3944 C 354.229 -2.112 0.890357 0
M  V30 3945 C 355.229 -1.60359 -0.118943 0
M  V30 3946 O 356.419 -1.73833 0.113086 0
M  V30 3947 C 353.551 -3.39266 0.333422 0
M  V30 3948 H 354.744 -2.37659 1.82916 0
M  V30 3949 H 352.297 -1.21538 0.982758 0
M  V30 3950 H 353.032 -3.18462 -0.612587 0
M  V30 3951 H 352.817 -3.77477 1.06082 0
M  V30 3952 H 354.307 -4.17315 0.154322 0
M  V30 3953 N 354.744 -0.972509 -1.24016 0
M  V30 3954 C 355.993 -0.632603 -1.91523 0
M  V30 3955 C 356.306 0.836641 -1.76804 0
M  V30 3956 O 357.512 1.28728 -2.39043 0
M  V30 3957 C 355.968 -1.08082 -3.43287 0
M  V30 3958 C 355.576 -2.57386 -3.66683 0
M  V30 3959 C 357.32 -0.814288 -4.16617 0
M  V30 3960 C 355.227 -2.95915 -5.12043 0
M  V30 3961 H 354.157 -0.232898 -0.717129 0
M  V30 3962 H 356.808 -1.17936 -1.40582 0
M  V30 3963 H 355.19 -0.462339 -3.93292 0
M  V30 3964 H 356.364 -3.24405 -3.27258 0
M  V30 3965 H 354.679 -2.81701 -3.06649 0
M  V30 3966 H 357.276 -1.0781 -5.23718 0
M  V30 3967 H 357.619 0.24955 -4.15551 0
M  V30 3968 H 358.152 -1.39397 -3.72577 0
M  V30 3969 H 354.891 -4.0139 -5.18234 0
M  V30 3970 H 354.411 -2.33584 -5.52448 0
M  V30 3971 H 356.09 -2.86086 -5.80314 0
M  V30 3972 N 356.222 1.38976 -0.743202 0
M  V30 3973 C 357.462 2.02193 -0.29954 0
M  V30 3974 C 357.826 1.5771 1.09506 0
M  V30 3975 O 359.027 2.13184 1.63726 0
M  V30 3976 C 357.298 3.55077 -0.406822 0
M  V30 3977 S 358.857 4.38778 -0.0442109 0
M  V30 3978 H 355.675 0.701335 -0.116836 0
M  V30 3979 H 358.277 1.69651 -0.971529 0
M  V30 3980 H 356.981 3.84942 -1.42295 0
M  V30 3981 H 356.512 3.92383 0.282707 0
M  V30 3982 H 358.527 4.82222 1.16947 0
M  V30 3983 N 357.7 0.491464 1.49741 0
M  V30 3984 C 358.663 -0.280906 2.27472 0
M  V30 3985 C 359.663 -0.902454 1.33088 0
M  V30 3986 O 360.853 -0.768465 1.56334 0
M  V30 3987 C 357.985 -1.40209 3.10732 0
M  V30 3988 H 359.178 0.401056 2.97206 0
M  V30 3989 H 356.731 0.246131 1.5435 0
M  V30 3990 H 357.466 -2.11849 2.45541 0
M  V30 3991 H 357.251 -0.961969 3.80117 0
M  V30 3992 H 358.741 -1.9464 3.69466 0
M  V30 3993 N 359.178 -1.55987 0.224894 0
M  V30 3994 C 360.427 -1.97566 -0.406273 0
M  V30 3995 C 360.74 -1.11569 -1.6066 0
M  V30 3996 O 361.946 -1.43062 -2.3075 0
M  V30 3997 C 360.402 -3.51474 -0.774207 0
M  V30 3998 C 360.01 -4.46179 0.403496 0
M  V30 3999 C 361.754 -4.01758 -1.37079 0
M  V30 4000 C 359.661 -5.91399 0.0129412 0
M  V30 4001 H 358.591 -0.737777 -0.155565 0
M  V30 4002 H 361.242 -1.80659 0.321635 0
M  V30 4003 H 359.624 -3.63994 -1.55963 0
M  V30 4004 H 360.798 -4.45409 1.18101 0
M  V30 4005 H 359.113 -4.06255 0.913536 0
M  V30 4006 H 361.71 -5.07756 -1.67596 0
M  V30 4007 H 362.053 -3.47805 -2.28773 0
M  V30 4008 H 362.586 -3.92475 -0.648733 0
M  V30 4009 H 359.325 -6.49341 0.896451 0
M  V30 4010 H 358.845 -5.95356 -0.728821 0
M  V30 4011 H 360.524 -6.45683 -0.412582 0
M  V30 4012 N 360.656 0.0484629 -1.57525 0
M  V30 4013 C 361.933 0.777447 -1.79486 0
M  V30 4014 C 362.313 1.94597 -0.818251 0
M  V30 4015 O 361.661 2.28047 0.143767 0
M  V30 4016 C 361.871 1.22864 -3.26658 0
M  V30 4017 C 363.219 1.65251 -3.91123 0
M  V30 4018 O 364.243 1.32372 -3.3069 0
M  V30 4019 O 363.102 2.26207 -4.97486 0
M  V30 4020 H 360.196 0.374357 -0.737419 0
M  V30 4021 H 362.742 0.0267359 -1.69679 0
M  V30 4022 H 361.514 0.393589 -3.89316 0
M  V30 4023 H 361.137 2.03996 -3.41279 0
M  V30 4024 N 362.134 1.5431 0.320358 0
M  V30 4025 C 363.364 1.7638 1.07582 0
M  V30 4026 C 363.772 0.513944 1.82086 0
M  V30 4027 O 363.115 -0.525123 1.76035 0
M  V30 4028 C 363.177 2.9055 2.1171 0
M  V30 4029 C 362.841 4.2934 1.56575 0
M  V30 4030 C 363.838 5.10077 1.00586 0
M  V30 4031 C 361.523 4.75893 1.60722 0
M  V30 4032 C 363.517 6.35477 0.494756 0
M  V30 4033 C 361.204 6.0126 1.09224 0
M  V30 4034 C 362.202 6.80886 0.53696 0
M  V30 4035 O 361.89 8.03894 0.0297371 0
M  V30 4036 H 361.622 0.592369 0.325692 0
M  V30 4037 H 364.176 2.02019 0.37116 0
M  V30 4038 H 362.406 2.60489 2.85801 0
M  V30 4039 H 364.095 3.00373 2.73003 0
M  V30 4040 H 364.861 4.75265 0.966869 0
M  V30 4041 H 360.74 4.13957 2.02882 0
M  V30 4042 H 364.284 6.97574 0.0606842 0
M  V30 4043 H 360.181 6.35562 1.12831 0
M  V30 4044 H 360.949 8.18372 0.14486 0
M  V30 4045 N 363.613 -0.582584 1.46437 0
M  V30 4046 C 364.841 -1.36682 1.55324 0
M  V30 4047 C 365.256 -1.87796 0.194409 0
M  V30 4048 O 364.613 -1.63623 -0.808318 0
M  V30 4049 C 364.664 -2.55426 2.55812 0
M  V30 4050 O 364.385 -2.0643 3.86417 0
M  V30 4051 C 365.886 -3.47976 2.74641 0
M  V30 4052 H 363.106 -0.417545 0.525259 0
M  V30 4053 H 365.65 -0.708219 1.91845 0
M  V30 4054 H 363.805 -3.17275 2.22295 0
M  V30 4055 H 364.219 -2.83762 4.41111 0
M  V30 4056 H 365.693 -4.27775 3.48874 0
M  V30 4057 H 366.17 -3.99919 1.81553 0
M  V30 4058 H 366.776 -2.91962 3.09255 0
M  V30 4059 N 365.091 -1.34144 -0.827227 0
M  V30 4060 C 366.337 -1.27455 -1.58515 0
M  V30 4061 C 366.692 0.155271 -1.91772 0
M  V30 4062 O 365.985 1.10042 -1.56848 0
M  V30 4063 C 366.179 -2.09464 -2.89585 0
M  V30 4064 C 366.008 -3.60276 -2.69131 0
M  V30 4065 C 364.778 -4.29565 -2.66087 0
M  V30 4066 C 366.976 -4.54367 -2.40947 0
M  V30 4067 N 364.958 -5.66252 -2.37132 0
M  V30 4068 C 366.329 -5.79027 -2.21648 0
M  V30 4069 C 368.384 -4.43327 -2.26639 0
M  V30 4070 C 367.087 -6.93891 -1.89492 0
M  V30 4071 C 369.113 -5.58019 -1.95878 0
M  V30 4072 C 368.475 -6.81695 -1.774 0
M  V30 4073 H 364.574 -0.521614 -0.582617 0
M  V30 4074 H 367.158 -1.68811 -0.970105 0
M  V30 4075 H 365.329 -1.70411 -3.49019 0
M  V30 4076 H 367.061 -1.94453 -3.54923 0
M  V30 4077 H 363.816 -3.81959 -2.80008 0
M  V30 4078 H 364.24 -6.38338 -2.25507 0
M  V30 4079 H 368.882 -3.48333 -2.39633 0
M  V30 4080 H 366.6 -7.88871 -1.75236 0
M  V30 4081 H 370.186 -5.5142 -1.85546 0
M  V30 4082 H 369.066 -7.68942 -1.53941 0
M  V30 4083 N 366.569 1.04691 -1.17803 0
M  V30 4084 C 367.517 2.14665 -0.895635 0
M  V30 4085 C 368.511 1.68806 0.141679 0
M  V30 4086 O 369.717 1.79999 -0.00587914 0
M  V30 4087 H 366.092 0.701038 -0.272121 0
M  V30 4088 H 368.063 2.35685 -1.83017 0
M  V30 4089 C 366.812 3.45019 -0.430962 0
M  V30 4090 H 366.135 3.8071 -1.22064 0
M  V30 4091 H 367.575 4.23125 -0.272301 0
M  V30 4092 C 366.034 3.25943 0.852207 0
M  V30 4093 O 366.564 3.5296 1.91786 0
M  V30 4094 N 364.77 2.79304 0.802346 0
M  V30 4095 H 364.317 2.57518 -0.0650788 0
M  V30 4096 H 364.275 2.66921 1.66134 0
M  V30 4097 N 368.047 0.979072 1.23499 0
M  V30 4098 C 368.977 0.537606 2.27227 0
M  V30 4099 C 369.958 -0.428539 1.64613 0
M  V30 4100 O 371.143 -0.322191 1.91509 0
M  V30 4101 C 368.273 -0.162052 3.46922 0
M  V30 4102 C 367.227 0.721242 4.21879 0
M  V30 4103 C 366.553 -0.110555 5.34586 0
M  V30 4104 C 367.853 2.01141 4.82016 0
M  V30 4105 H 369.547 1.40462 2.64406 0
M  V30 4106 H 367.093 0.67684 1.27102 0
M  V30 4107 H 369.046 -0.482192 4.18632 0
M  V30 4108 H 367.77 -1.06351 3.08799 0
M  V30 4109 H 366.429 1.02482 3.51984 0
M  V30 4110 H 366.077 -1.0125 4.92704 0
M  V30 4111 H 365.777 0.477325 5.85658 0
M  V30 4112 H 367.301 -0.425107 6.09118 0
M  V30 4113 H 368.715 1.75612 5.45741 0
M  V30 4114 H 367.112 2.54695 5.43369 0
M  V30 4115 H 368.182 2.69909 4.02836 0
M  V30 4116 N 369.525 -1.3858 0.750561 0
M  V30 4117 C 370.455 -2.33102 0.136237 0
M  V30 4118 C 371.436 -1.54713 -0.706965 0
M  V30 4119 O 372.621 -1.83043 -0.648769 0
M  V30 4120 C 369.751 -3.38882 -0.760017 0
M  V30 4121 C 368.705 -4.27995 -0.0197785 0
M  V30 4122 C 368.031 -5.24605 -1.03408 0
M  V30 4123 C 369.331 -5.09554 1.14684 0
M  V30 4124 H 371.025 -2.84726 0.925822 0
M  V30 4125 H 368.571 -1.36898 0.446654 0
M  V30 4126 H 370.524 -4.0397 -1.19943 0
M  V30 4127 H 369.248 -2.85734 -1.58189 0
M  V30 4128 H 367.907 -3.64409 0.400184 0
M  V30 4129 H 367.555 -4.67746 -1.84994 0
M  V30 4130 H 367.255 -5.85081 -0.543464 0
M  V30 4131 H 368.779 -5.9257 -1.47288 0
M  V30 4132 H 370.193 -5.67899 0.785118 0
M  V30 4133 H 368.59 -5.7925 1.56812 0
M  V30 4134 H 369.66 -4.4347 1.96118 0
M  V30 4135 N 371.003 -0.499398 -1.49478 0
M  V30 4136 C 371.95 0.279881 -2.29097 0
M  V30 4137 C 372.92 0.961805 -1.3542 0
M  V30 4138 O 374.105 0.968777 -1.64376 0
M  V30 4139 C 371.245 1.33932 -3.18051 0
M  V30 4140 C 370.358 0.669333 -4.26783 0
M  V30 4141 C 369.493 1.70907 -5.02955 0
M  V30 4142 C 368.532 1.02087 -6.03527 0
M  V30 4143 N 367.669 2.00474 -6.7287 0
M  V30 4144 H 372.509 -0.405317 -2.95231 0
M  V30 4145 H 370.046 -0.211726 -1.45568 0
M  V30 4146 H 372.004 1.96553 -3.67998 0
M  V30 4147 H 370.634 1.9933 -2.53904 0
M  V30 4148 H 369.686 -0.0701234 -3.80335 0
M  V30 4149 H 370.998 0.127503 -4.98637 0
M  V30 4150 H 370.152 2.41037 -5.56764 0
M  V30 4151 H 368.891 2.28476 -4.30871 0
M  V30 4152 H 367.896 0.305338 -5.48951 0
M  V30 4153 H 369.121 0.451708 -6.77596 0
M  V30 4154 H 367.067 2.57007 -6.03559 0
M  V30 4155 H 366.984 1.51353 -7.40694 0
M  V30 4156 H 368.252 2.69897 -7.31284 0
M  V30 4157 N 372.481 1.55866 -0.233164 0
M  V30 4158 C 373.444 2.1953 0.658715 0
M  V30 4159 C 374.444 1.16053 1.11303 0
M  V30 4160 O 375.634 1.41218 1.01996 0
M  V30 4161 C 372.766 2.82791 1.90373 0
M  V30 4162 H 373.959 2.99721 0.10347 0
M  V30 4163 H 371.512 1.56291 0.0164245 0
M  V30 4164 H 372.247 2.06501 2.50056 0
M  V30 4165 H 372.032 3.58578 1.58632 0
M  V30 4166 H 373.522 3.31556 2.53891 0
M  V30 4167 N 373.959 -0.0401083 1.57549 0
M  V30 4168 C 375.207 -0.731677 1.8839 0
M  V30 4169 C 375.528 -1.76481 0.829425 0
M  V30 4170 O 374.798 -1.95411 -0.1383 0
M  V30 4171 H 373.378 -0.273225 0.695239 0
M  V30 4172 H 376.04 -0.00867725 1.94898 0
M  V30 4173 H 375.136 -1.22816 2.86919 0
M  V30 4174 N 375.437 -1.54477 -0.31217 0
M  V30 4175 C 376.384 -1.84655 -1.38461 0
M  V30 4176 C 377.354 -0.694536 -1.50882 0
M  V30 4177 O 378.539 -0.942081 -1.6592 0
M  V30 4178 C 375.679 -2.0896 -2.74645 0
M  V30 4179 C 374.792 -3.36618 -2.70763 0
M  V30 4180 C 373.927 -3.50824 -3.98868 0
M  V30 4181 C 372.966 -4.72315 -3.89339 0
M  V30 4182 N 372.103 -4.83387 -5.09197 0
M  V30 4183 H 376.943 -2.76142 -1.12026 0
M  V30 4184 H 374.48 -1.36748 -0.542065 0
M  V30 4185 H 376.438 -2.21045 -3.53829 0
M  V30 4186 H 375.068 -1.20752 -2.99364 0
M  V30 4187 H 374.12 -3.33211 -1.83506 0
M  V30 4188 H 375.432 -4.25917 -2.59608 0
M  V30 4189 H 374.586 -3.62513 -4.86486 0
M  V30 4190 H 373.325 -2.59638 -4.12843 0
M  V30 4191 H 372.33 -4.6067 -3.00105 0
M  V30 4192 H 373.555 -5.64897 -3.76919 0
M  V30 4193 H 371.501 -3.9512 -5.23657 0
M  V30 4194 H 371.418 -5.66669 -5.00422 0
M  V30 4195 H 372.686 -4.9942 -5.98498 0
M  V30 4196 N 376.915 0.57481 -1.46744 0
M  V30 4197 C 378.164 1.32898 -1.51727 0
M  V30 4198 C 378.477 1.948 -0.176692 0
M  V30 4199 O 379.683 2.71299 -0.104385 0
M  V30 4200 C 378.139 2.40901 -2.67385 0
M  V30 4201 C 377.747 1.85266 -4.07898 0
M  V30 4202 C 379.491 3.17609 -2.81646 0
M  V30 4203 C 377.398 2.90945 -5.14883 0
M  V30 4204 H 376.328 0.499631 -0.564699 0
M  V30 4205 H 378.979 0.612536 -1.72975 0
M  V30 4206 H 377.361 3.15379 -2.39483 0
M  V30 4207 H 378.535 1.17278 -4.45626 0
M  V30 4208 H 376.85 1.21199 -3.98371 0
M  V30 4209 H 379.447 3.96493 -3.58744 0
M  V30 4210 H 379.79 3.70696 -1.89448 0
M  V30 4211 H 380.323 2.50239 -3.09233 0
M  V30 4212 H 377.062 2.42736 -6.089 0
M  V30 4213 H 376.582 3.57398 -4.81691 0
M  V30 4214 H 378.261 3.54755 -5.41071 0
M  V30 4215 N 378.394 1.34581 0.820102 0
M  V30 4216 C 379.805 1.24298 1.39309 0
M  V30 4217 C 380.156 -0.130351 1.95767 0
M  V30 4218 O 379.281 -1.0308 1.90272 0
M  V30 4219 C 379.876 2.25054 2.53251 0
M  V30 4220 C 378.435 2.18552 3.0645 0
M  V30 4221 C 377.582 2.11503 1.79337 0
M  V30 4222 H 380.533 1.45906 0.624262 0
M  V30 4223 H 380.554 1.86917 3.31425 0
M  V30 4224 H 380.066 3.24996 2.1213 0
M  V30 4225 H 378.167 1.21976 3.52069 0
M  V30 4226 H 378.28 3.0993 3.65349 0
M  V30 4227 H 376.644 1.57268 2.00347 0
M  V30 4228 H 377.427 3.13284 1.40386 0
M  V30 4229 N 379.872 -1.04064 1.18357 0
M  V30 4230 C 380.782 -2.15569 0.925596 0
M  V30 4231 C 381.798 -1.7365 -0.110295 0
M  V30 4232 O 382.974 -2.01273 0.0716218 0
M  V30 4233 C 380.039 -3.43704 0.454836 0
M  V30 4234 C 379.1 -4.00004 1.55869 0
M  V30 4235 C 378.333 -5.22023 1.1103 0
M  V30 4236 O 378.556 -5.70392 -0.0309756 0
M  V30 4237 O 377.49 -5.70856 1.90805 0
M  V30 4238 H 381.316 -2.40187 1.8586 0
M  V30 4239 H 378.901 -1.1402 0.965394 0
M  V30 4240 H 380.783 -4.20923 0.200382 0
M  V30 4241 H 379.458 -3.20559 -0.449876 0
M  V30 4242 H 378.365 -3.24172 1.86716 0
M  V30 4243 H 379.698 -4.2749 2.43953 0
M  V30 4244 N 381.35 -0.985608 -1.22978 0
M  V30 4245 C 382.26 -0.538548 -2.28335 0
M  V30 4246 C 383.276 0.409163 -1.69121 0
M  V30 4247 O 384.452 0.277797 -1.99475 0
M  V30 4248 C 381.517 0.146867 -3.46389 0
M  V30 4249 C 380.578 -0.842896 -4.20944 0
M  V30 4250 C 379.811 -0.190095 -5.33361 0
M  V30 4251 O 380.034 1.01767 -5.61248 0
M  V30 4252 O 378.968 -0.891289 -5.95264 0
M  V30 4253 H 382.794 -1.41487 -2.68729 0
M  V30 4254 H 380.379 -0.753495 -1.29007 0
M  V30 4255 H 382.261 0.531125 -4.1804 0
M  V30 4256 H 380.936 0.997871 -3.07935 0
M  V30 4257 H 379.843 -1.27795 -3.51595 0
M  V30 4258 H 381.176 -1.66287 -4.6326 0
M  V30 4259 N 382.828 1.3818 -0.7579 0
M  V30 4260 C 384.075 2.00019 -0.315985 0
M  V30 4261 C 384.403 1.60163 1.10355 0
M  V30 4262 O 383.658 0.83264 1.77103 0
M  V30 4263 C 383.957 3.55252 -0.391218 0
M  V30 4264 C 383.623 4.14834 -1.76702 0
M  V30 4265 C 382.285 4.30821 -2.14353 0
M  V30 4266 C 384.637 4.47658 -2.66931 0
M  V30 4267 C 381.965 4.76928 -3.41696 0
M  V30 4268 C 384.317 4.95184 -3.93669 0
M  V30 4269 C 382.981 5.09377 -4.31383 0
M  V30 4270 H 382.251 0.731923 -0.115627 0
M  V30 4271 H 384.898 1.65161 -0.969223 0
M  V30 4272 H 383.203 3.90273 0.34558 0
M  V30 4273 H 384.9 4.00988 -0.030805 0
M  V30 4274 H 381.49 4.02808 -1.46435 0
M  V30 4275 H 385.674 4.34904 -2.39106 0
M  V30 4276 H 380.93 4.86103 -3.70829 0
M  V30 4277 H 385.104 5.19551 -4.63724 0
M  V30 4278 H 382.731 5.44865 -5.30119 0
M  V30 4279 N 384.306 0.507319 1.49211 0
M  V30 4280 C 385.254 -0.281364 2.30892 0
M  V30 4281 C 386.248 -0.95687 1.39787 0
M  V30 4282 O 387.454 -0.883838 1.56807 0
M  V30 4283 H 383.829 -0.109597 0.743971 0
M  V30 4284 H 385.8 0.42744 2.95323 0
M  V30 4285 C 384.549 -1.32918 3.21291 0
M  V30 4286 H 383.872 -0.818799 3.91326 0
M  V30 4287 H 385.312 -1.85288 3.81372 0
M  V30 4288 C 383.771 -2.35074 2.41333 0
M  V30 4289 O 384.301 -3.4108 2.12197 0
M  V30 4290 N 382.507 -2.07705 2.03241 0
M  V30 4291 H 382.054 -1.2152 2.27136 0
M  V30 4292 H 382.012 -2.76283 1.50051 0
M  V30 4293 N 385.784 -1.5574 0.241426 0
M  V30 4294 C 387.03 -1.99104 -0.385406 0
M  V30 4295 C 387.363 -1.1293 -1.57988 0
M  V30 4296 O 386.638 -0.191449 -1.93555 0
M  V30 4297 C 386.921 -3.51087 -0.800616 0
M  V30 4298 C 386.774 -4.48028 0.398874 0
M  V30 4299 C 388.093 -4.08015 -1.64959 0
M  V30 4300 H 385.212 -0.723848 -0.138614 0
M  V30 4301 H 387.854 -1.86903 0.341642 0
M  V30 4302 H 386.004 -3.61615 -1.4201 0
M  V30 4303 H 387.676 -4.49487 1.03726 0
M  V30 4304 H 385.919 -4.21077 1.04293 0
M  V30 4305 H 386.59 -5.51962 0.0651056 0
M  V30 4306 H 389.066 -4.00555 -1.12672 0
M  V30 4307 H 387.942 -5.14635 -1.90898 0
M  V30 4308 H 388.203 -3.56131 -2.61961 0
M  V30 4309 N 387.262 0.0317525 -1.57568 0
M  V30 4310 C 388.509 0.723104 -1.89149 0
M  V30 4311 C 388.837 1.75504 -0.838377 0
M  V30 4312 O 388.092 1.95037 0.160982 0
M  V30 4313 C 388.391 1.43167 -3.27472 0
M  V30 4314 C 388.057 0.535972 -4.47703 0
M  V30 4315 C 386.719 0.289262 -4.8033 0
M  V30 4316 C 389.071 -0.0826125 -5.21135 0
M  V30 4317 C 386.399 -0.584853 -5.83778 0
M  V30 4318 C 388.751 -0.944414 -6.25511 0
M  V30 4319 C 387.415 -1.20061 -6.56614 0
M  V30 4320 H 386.685 0.264602 -0.692146 0
M  V30 4321 H 389.332 -0.0169496 -1.91492 0
M  V30 4322 H 387.637 2.24497 -3.21105 0
M  V30 4323 H 389.334 1.97209 -3.49155 0
M  V30 4324 H 385.924 0.738414 -4.22191 0
M  V30 4325 H 390.108 0.0950302 -4.96209 0
M  V30 4326 H 385.364 -0.79168 -6.06253 0
M  V30 4327 H 389.538 -1.43026 -6.81554 0
M  V30 4328 H 387.165 -1.87967 -7.36595 0
M  V30 4329 N 388.74 1.54641 0.303973 0
M  V30 4330 C 389.688 1.86137 1.39484 0
M  V30 4331 C 390.682 0.734854 1.52631 0
M  V30 4332 O 391.888 0.918803 1.54784 0
M  V30 4333 H 388.263 0.590324 0.465856 0
M  V30 4334 H 390.234 2.77324 1.10154 0
M  V30 4335 C 388.983 2.12274 2.75382 0
M  V30 4336 H 388.306 2.98429 2.66046 0
M  V30 4337 H 389.746 2.38254 3.5073 0
M  V30 4338 C 388.205 0.920365 3.24085 0
M  V30 4339 O 388.735 0.139377 4.01458 0
M  V30 4340 N 386.941 0.726566 2.81371 0
M  V30 4341 H 386.488 1.36332 2.18567 0
M  V30 4342 H 386.446 -0.0763799 3.14307 0
M  V30 4343 N 390.218 -0.567019 1.47046 0
M  V30 4344 C 391.148 -1.68482 1.61667 0
M  V30 4345 C 392.129 -1.6358 0.466418 0
M  V30 4346 O 393.314 -1.81354 0.694574 0
M  V30 4347 C 390.444 -3.07124 1.62148 0
M  V30 4348 C 389.398 -3.26867 2.76301 0
M  V30 4349 C 388.724 -4.66196 2.61849 0
M  V30 4350 C 390.024 -3.13186 4.17986 0
M  V30 4351 H 391.718 -1.56502 2.5524 0
M  V30 4352 H 389.264 -0.751486 1.22836 0
M  V30 4353 H 391.217 -3.8516 1.70968 0
M  V30 4354 H 389.941 -3.2004 0.651287 0
M  V30 4355 H 388.6 -2.51237 2.66975 0
M  V30 4356 H 388.248 -4.75898 1.62879 0
M  V30 4357 H 387.948 -4.80356 3.38425 0
M  V30 4358 H 389.472 -5.46379 2.72584 0
M  V30 4359 H 390.886 -3.81049 4.2834 0
M  V30 4360 H 389.283 -3.3886 4.95272 0
M  V30 4361 H 390.353 -2.10057 4.3704 0
M  V30 4362 N 391.696 -1.35014 -0.812953 0
M  V30 4363 C 392.945 -1.27269 -1.56479 0
M  V30 4364 C 393.258 0.152771 -1.95002 0
M  V30 4365 O 394.464 0.352451 -2.69203 0
M  V30 4366 C 392.92 -2.23159 -2.82362 0
M  V30 4367 C 392.528 -3.71016 -2.511 0
M  V30 4368 C 394.272 -2.24342 -3.60376 0
M  V30 4369 C 392.179 -4.58746 -3.73237 0
M  V30 4370 H 391.109 -0.472829 -0.587324 0
M  V30 4371 H 393.76 -1.6024 -0.894171 0
M  V30 4372 H 392.142 -1.83151 -3.51101 0
M  V30 4373 H 393.316 -4.1962 -1.90409 0
M  V30 4374 H 391.631 -3.72378 -1.86343 0
M  V30 4375 H 394.228 -2.87107 -4.51081 0
M  V30 4376 H 394.571 -1.24542 -3.97234 0
M  V30 4377 H 395.104 -2.62846 -2.98591 0
M  V30 4378 H 391.843 -5.59521 -3.41492 0
M  V30 4379 H 391.363 -4.14871 -4.33176 0
M  V30 4380 H 393.042 -4.73852 -4.40537 0
M  V30 4381 N 393.175 1.03435 -1.18907 0
M  V30 4382 C 394.107 2.1165 -0.879595 0
M  V30 4383 C 395.12 1.62316 0.125439 0
M  V30 4384 O 396.309 1.78201 -0.103245 0
M  V30 4385 C 393.409 3.37622 -0.294042 0
M  V30 4386 C 392.582 4.16166 -1.34629 0
M  V30 4387 C 391.641 5.20457 -0.775274 0
M  V30 4388 O 390.667 5.50379 -1.4516 0
M  V30 4389 N 391.869 5.78949 0.424126 0
M  V30 4390 H 394.634 2.38791 -1.81105 0
M  V30 4391 H 392.195 1.19681 -1.09032 0
M  V30 4392 H 394.187 4.04572 0.101679 0
M  V30 4393 H 392.757 3.07873 0.541575 0
M  V30 4394 H 391.977 3.44444 -1.91707 0
M  V30 4395 H 393.265 4.65432 -2.05549 0
M  V30 4396 H 392.663 5.56948 0.991209 0
M  V30 4397 H 391.22 6.47334 0.761691 0
M  V30 4398 N 394.653 0.992116 1.22453 0
M  V30 4399 C 395.563 0.55065 2.28046 0
M  V30 4400 C 396.579 -0.400189 1.69335 0
M  V30 4401 O 397.755 -0.267215 1.99619 0
M  V30 4402 C 394.82 -0.128496 3.46462 0
M  V30 4403 C 393.881 0.865208 4.20491 0
M  V30 4404 C 393.114 0.218377 5.33253 0
M  V30 4405 O 393.337 -0.987894 5.6178 0
M  V30 4406 O 392.271 0.922845 5.94783 0
M  V30 4407 H 396.097 1.4291 2.67975 0
M  V30 4408 H 393.682 0.760326 1.28606 0
M  V30 4409 H 395.564 -0.508947 4.18315 0
M  V30 4410 H 394.239 -0.981526 3.0846 0
M  V30 4411 H 393.146 1.29658 3.50913 0
M  V30 4412 H 394.479 1.68741 4.62371 0
M  V30 4413 N 396.131 -1.37776 0.765217 0
M  V30 4414 C 397.064 -2.28008 0.0935025 0
M  V30 4415 C 398.042 -1.45985 -0.716047 0
M  V30 4416 O 399.226 -1.75331 -0.692203 0
M  V30 4417 C 396.353 -3.27228 -0.874052 0
M  V30 4418 C 395.399 -4.26239 -0.149307 0
M  V30 4419 S 396.232 -5.22827 1.15809 0
M  V30 4420 C 397.388 -6.256 0.193906 0
M  V30 4421 H 397.621 -2.84631 0.858637 0
M  V30 4422 H 395.154 -1.43952 0.558313 0
M  V30 4423 H 397.112 -3.84902 -1.42691 0
M  V30 4424 H 395.773 -2.69565 -1.61225 0
M  V30 4425 H 394.966 -4.96213 -0.88254 0
M  V30 4426 H 394.568 -3.7252 0.332366 0
M  V30 4427 H 396.86 -6.74508 -0.636011 0
M  V30 4428 H 397.803 -7.02838 0.861638 0
M  V30 4429 H 398.211 -5.64173 -0.191975 0
M  V30 4430 N 397.609 -0.515225 -1.4894 0
M  V30 4431 C 399.025 -0.172099 -1.58669 0
M  V30 4432 C 399.225 1.32405 -1.51892 0
M  V30 4433 O 398.281 2.10116 -1.40027 0
M  V30 4434 C 399.594 -0.761533 -2.90897 0
M  V30 4435 C 401.142 -0.728926 -3.04394 0
M  V30 4436 C 401.617 -1.29667 -4.39261 0
M  V30 4437 N 403.108 -1.25799 -4.4579 0
M  V30 4438 C 403.843 -1.66733 -5.48623 0
M  V30 4439 N 403.339 -2.15327 -6.58488 0
M  V30 4440 N 405.132 -1.58061 -5.39419 0
M  V30 4441 H 397.283 -1.48778 -1.51588 0
M  V30 4442 H 399.546 -0.617968 -0.718901 0
M  V30 4443 H 399.252 -1.81136 -3.01468 0
M  V30 4444 H 399.126 -0.230106 -3.76497 0
M  V30 4445 H 401.513 0.312098 -2.93445 0
M  V30 4446 H 401.594 -1.29766 -2.20442 0
M  V30 4447 H 401.238 -2.33655 -4.50963 0
M  V30 4448 H 401.168 -0.703752 -5.21876 0
M  V30 4449 H 403.659 -0.902102 -3.66975 0
M  V30 4450 H 403.972 -2.44594 -7.33071 0
M  V30 4451 H 402.317 -2.19311 -6.59491 0
M  V30 4452 H 405.508 -1.19906 -4.52482 0
M  V30 4453 H 405.681 -1.90284 -6.19432 0
M  V30 4454 N 399.087 1.5561 -0.249682 0
M  V30 4455 C 400.315 2.03411 0.378352 0
M  V30 4456 C 400.73 1.12886 1.51335 0
M  V30 4457 O 400.087 0.143833 1.81932 0
M  V30 4458 C 400.138 3.50537 0.88351 0
M  V30 4459 O 399.859 4.37614 -0.20626 0
M  V30 4460 C 401.36 4.14113 1.58195 0
M  V30 4461 H 398.58 0.664994 0.08958 0
M  V30 4462 H 401.124 2.01044 -0.374357 0
M  V30 4463 H 399.279 3.5343 1.58639 0
M  V30 4464 H 399.693 5.24199 0.177782 0
M  V30 4465 H 401.167 5.18741 1.8871 0
M  V30 4466 H 401.644 3.60767 2.50487 0
M  V30 4467 H 402.25 4.15151 0.923573 0
M  V30 4468 N 400.565 -0.0233959 1.57583 0
M  V30 4469 C 401.497 -1.04994 2.03737 0
M  V30 4470 C 402.51 -1.32125 0.951152 0
M  V30 4471 O 403.699 -1.29512 1.22837 0
M  V30 4472 C 400.799 -2.39026 2.40249 0
M  V30 4473 C 399.972 -2.31171 3.7132 0
M  V30 4474 C 399.031 -3.47698 3.94959 0
M  V30 4475 O 398.057 -3.26937 4.65941 0
M  V30 4476 N 399.259 -4.6976 3.41037 0
M  V30 4477 H 402.024 -0.656507 2.92421 0
M  V30 4478 H 399.585 -0.211235 1.60516 0
M  V30 4479 H 401.577 -3.15712 2.53196 0
M  V30 4480 H 400.147 -2.70194 1.57207 0
M  V30 4481 H 399.367 -1.39547 3.68674 0
M  V30 4482 H 400.655 -2.23071 4.57293 0
M  V30 4483 H 400.053 -4.89528 2.83512 0
M  V30 4484 H 398.61 -5.43791 3.59353 0
M  V30 4485 N 402.043 -1.548 -0.295768 0
M  V30 4486 C 403.459 -1.4613 -0.641722 0
M  V30 4487 C 403.659 -0.656771 -1.90496 0
M  V30 4488 O 402.715 -0.166547 -2.5195 0
M  V30 4489 C 404.028 -2.90141 -0.789852 0
M  V30 4490 C 405.576 -3.00216 -0.885396 0
M  V30 4491 C 406.051 -4.45434 -1.06548 0
M  V30 4492 N 407.542 -4.49166 -1.13156 0
M  V30 4493 C 408.277 -5.58717 -1.28929 0
M  V30 4494 N 407.773 -6.78182 -1.41567 0
M  V30 4495 N 409.566 -5.46415 -1.31859 0
M  V30 4496 H 401.717 -2.05574 0.534147 0
M  V30 4497 H 403.98 -0.931259 0.177372 0
M  V30 4498 H 403.686 -3.51635 0.0675598 0
M  V30 4499 H 403.56 -3.37859 -1.67724 0
M  V30 4500 H 405.947 -2.38833 -1.73329 0
M  V30 4501 H 406.028 -2.55787 0.0261185 0
M  V30 4502 H 405.672 -5.07413 -0.222335 0
M  V30 4503 H 405.602 -4.87499 -1.9913 0
M  V30 4504 H 408.093 -3.631 -1.04721 0
M  V30 4505 H 408.406 -7.57428 -1.53372 0
M  V30 4506 H 406.751 -6.81037 -1.38613 0
M  V30 4507 H 409.942 -4.5203 -1.21601 0
M  V30 4508 H 410.115 -6.31841 -1.43808 0
M  V30 4509 N 403.521 0.559213 -1.47345 0
M  V30 4510 C 404.471 1.66192 -1.5609 0
M  V30 4511 C 405.455 1.55323 -0.419957 0
M  V30 4512 O 406.647 1.63839 -0.669762 0
M  V30 4513 C 403.776 3.0497 -1.57634 0
M  V30 4514 C 402.862 3.2105 -2.77106 0
M  V30 4515 N 403.253 3.07203 -4.01821 0
M  V30 4516 C 401.551 3.52046 -2.73825 0
M  V30 4517 C 402.252 3.25919 -4.81821 0
M  V30 4518 N 401.228 3.52161 -4.14106 0
M  V30 4519 H 405.03 1.54052 -2.5029 0
M  V30 4520 H 402.544 0.763914 -1.43311 0
M  V30 4521 H 404.541 3.84142 -1.61989 0
M  V30 4522 H 403.201 3.18224 -0.645281 0
M  V30 4523 H 404.212 2.84572 -4.32711 0
M  V30 4524 H 400.889 3.71839 -1.89848 0
M  V30 4525 H 402.279 3.20198 -5.90697 0
M  V30 4526 N 404.999 1.35443 0.805782 0
M  V30 4527 C 406.224 1.32037 1.59941 0
M  V30 4528 C 406.649 -0.0994215 1.87837 0
M  V30 4529 O 406.007 -1.06648 1.46615 0
M  V30 4530 C 406.055 2.13354 2.90711 0
M  V30 4531 O 405.159 1.5148 3.83572 0
M  V30 4532 H 404.5 0.452666 0.485787 0
M  V30 4533 H 407.03 1.78496 1.00002 0
M  V30 4534 H 407.04 2.25338 3.40128 0
M  V30 4535 H 405.715 3.16572 2.69732 0
M  V30 4536 H 404.292 1.4834 3.42125 0
M  V30 4537 N 406.477 -1.02803 1.19454 0
M  V30 4538 C 407.44 -2.09264 0.934955 0
M  V30 4539 C 408.44 -1.60576 -0.0849015 0
M  V30 4540 O 409.63 -1.73554 0.149933 0
M  V30 4541 C 406.762 -3.38482 0.40531 0
M  V30 4542 H 407.955 -2.33726 1.87916 0
M  V30 4543 H 405.508 -1.19426 1.00832 0
M  V30 4544 H 406.243 -3.19689 -0.544899 0
M  V30 4545 H 406.028 -3.75142 1.14065 0
M  V30 4546 H 407.518 -4.16894 0.242806 0
M  V30 4547 N 407.956 -0.998596 -1.21925 0
M  V30 4548 C 409.202 -0.678667 -1.91107 0
M  V30 4549 C 409.535 0.78791 -1.77498 0
M  V30 4550 O 408.81 1.57043 -1.1475 0
M  V30 4551 C 409.093 -1.09245 -3.43129 0
M  V30 4552 C 408.946 -2.61801 -3.6576 0
M  V30 4553 C 410.265 -0.649984 -4.35274 0
M  V30 4554 H 407.384 -0.248025 -0.694012 0
M  V30 4555 H 410.026 -1.24314 -1.43688 0
M  V30 4556 H 408.176 -0.612171 -3.83647 0
M  V30 4557 H 409.848 -3.17543 -3.34611 0
M  V30 4558 H 408.091 -3.03609 -3.09845 0
M  V30 4559 H 408.762 -2.85804 -4.7225 0
M  V30 4560 H 411.238 -1.0626 -4.02303 0
M  V30 4561 H 410.114 -0.967743 -5.40302 0
M  V30 4562 H 410.375 0.449139 -4.39813 0
M  V30 4563 N 409.434 1.37368 -0.772513 0
M  V30 4564 C 410.366 2.28899 -0.117502 0
M  V30 4565 C 411.379 1.4867 0.663405 0
M  V30 4566 O 412.568 1.71314 0.501372 0
M  V30 4567 C 409.668 3.2788 0.857192 0
M  V30 4568 C 408.841 4.37207 0.129938 0
M  V30 4569 C 407.9 5.16257 1.01811 0
M  V30 4570 O 406.926 5.67159 0.481601 0
M  V30 4571 N 408.128 5.31058 2.3443 0
M  V30 4572 H 410.893 2.85752 -0.903662 0
M  V30 4573 H 408.454 1.49353 -0.62493 0
M  V30 4574 H 410.446 3.77647 1.45482 0
M  V30 4575 H 409.016 2.7179 1.54432 0
M  V30 4576 H 408.236 3.88827 -0.648605 0
M  V30 4577 H 409.524 5.07434 -0.372559 0
M  V30 4578 H 408.922 4.91287 2.80452 0
M  V30 4579 H 407.479 5.84131 2.89197 0
M  V30 4580 N 410.912 0.523116 1.48665 0
M  V30 4581 C 412.14 -0.0096312 2.06898 0
M  V30 4582 C 412.555 -1.28784 1.38059 0
M  V30 4583 O 411.912 -1.76453 0.465893 0
M  V30 4584 C 411.963 -0.244386 3.60673 0
M  V30 4585 O 411.684 0.983172 4.26925 0
M  V30 4586 C 413.185 -0.818289 4.35682 0
M  V30 4587 H 410.405 0.0304161 0.67031 0
M  V30 4588 H 412.949 0.726799 1.91149 0
M  V30 4589 H 411.104 -0.930847 3.76051 0
M  V30 4590 H 411.518 0.759653 5.1897 0
M  V30 4591 H 412.992 -0.93201 5.44075 0
M  V30 4592 H 413.469 -1.82153 3.99646 0
M  V30 4593 H 414.075 -0.168609 4.24966 0
M  V30 4594 N 412.39 -1.55475 0.257931 0
M  V30 4595 C 413.337 -2.21837 -0.636939 0
M  V30 4596 C 414.307 -1.18596 -1.16294 0
M  V30 4597 O 415.492 -1.47081 -1.21539 0
M  V30 4598 C 412.632 -2.9301 -1.82317 0
M  V30 4599 C 411.745 -4.10931 -1.33265 0
M  V30 4600 C 410.88 -4.69791 -2.47931 0
M  V30 4601 C 409.919 -5.7994 -1.95796 0
M  V30 4602 N 409.056 -6.32935 -3.0387 0
M  V30 4603 H 413.896 -2.9793 -0.0643591 0
M  V30 4604 H 411.433 -1.47086 -0.0200031 0
M  V30 4605 H 413.391 -3.3248 -2.52018 0
M  V30 4606 H 412.021 -2.1937 -2.36805 0
M  V30 4607 H 411.073 -3.76699 -0.52931 0
M  V30 4608 H 412.385 -4.90417 -0.910654 0
M  V30 4609 H 411.539 -5.11892 -3.25656 0
M  V30 4610 H 410.278 -3.89545 -2.93438 0
M  V30 4611 H 409.283 -5.37305 -1.16546 0
M  V30 4612 H 410.508 -6.62043 -1.51246 0
M  V30 4613 H 408.454 -5.55591 -3.48791 0
M  V30 4614 H 408.371 -7.07645 -2.66035 0
M  V30 4615 H 409.639 -6.79695 -3.81621 0
M  V30 4616 N 413.868 0.0150385 -1.57593 0
M  V30 4617 C 414.778 1.02791 -2.10882 0
M  V30 4618 C 415.794 1.38702 -1.0506 0
M  V30 4619 O 416.97 1.47739 -1.36877 0
M  V30 4620 C 414.035 2.30568 -2.58919 0
M  V30 4621 C 413.096 2.01108 -3.79281 0
M  V30 4622 C 412.329 3.22794 -4.25018 0
M  V30 4623 O 412.552 4.33959 -3.70183 0
M  V30 4624 O 411.486 3.07672 -5.17322 0
M  V30 4625 H 415.312 0.604973 -2.97613 0
M  V30 4626 H 412.897 0.23292 -1.47573 0
M  V30 4627 H 414.779 3.05662 -2.90084 0
M  V30 4628 H 413.454 2.72129 -1.75293 0
M  V30 4629 H 412.361 1.23537 -3.53114 0
M  V30 4630 H 413.694 1.64394 -4.63935 0
M  V30 4631 N 415.346 1.54954 0.287554 0
M  V30 4632 C 416.278 1.83224 1.37701 0
M  V30 4633 C 417.291 0.715898 1.46215 0
M  V30 4634 O 418.48 0.993565 1.48292 0
M  V30 4635 C 415.58 1.96723 2.75959 0
M  V30 4636 C 414.753 3.27253 2.90215 0
M  V30 4637 C 413.812 3.30998 4.09056 0
M  V30 4638 O 412.838 4.04457 4.00503 0
M  V30 4639 N 414.04 2.57353 5.20336 0
M  V30 4640 H 416.805 2.77254 1.138 0
M  V30 4641 H 414.366 1.54694 0.477652 0
M  V30 4642 H 416.358 1.96615 3.5373 0
M  V30 4643 H 414.928 1.09626 2.92747 0
M  V30 4644 H 414.148 3.40022 1.99447 0
M  V30 4645 H 415.436 4.13365 2.96659 0
M  V30 4646 H 414.834 1.97327 5.30169 0
M  V30 4647 H 413.391 2.62984 5.96391 0
M  V30 4648 N 416.824 -0.551391 1.4764 0
M  V30 4649 C 418.054 -1.33163 1.57959 0
M  V30 4650 C 418.462 -1.87785 0.23094 0
M  V30 4651 O 417.805 -1.65996 -0.786825 0
M  V30 4652 C 417.867 -2.53449 2.54958 0
M  V30 4653 C 417.531 -2.20071 4.00522 0
M  V30 4654 C 418.528 -1.77017 4.88836 0
M  V30 4655 C 416.213 -2.31252 4.45901 0
M  V30 4656 C 418.207 -1.4558 6.20552 0
M  V30 4657 C 415.894 -1.99427 5.77644 0
M  V30 4658 C 416.892 -1.56659 6.64791 0
M  V30 4659 O 416.58 -1.25242 7.94084 0
M  V30 4660 H 416.312 -0.412022 0.535923 0
M  V30 4661 H 418.866 -0.674186 1.9402 0
M  V30 4662 H 417.096 -3.22104 2.13976 0
M  V30 4663 H 418.785 -3.15523 2.55343 0
M  V30 4664 H 419.551 -1.67867 4.55023 0
M  V30 4665 H 415.43 -2.63498 3.78272 0
M  V30 4666 H 418.974 -1.12125 6.8853 0
M  V30 4667 H 414.871 -2.08211 6.10998 0
M  V30 4668 H 415.639 -1.38822 8.06642 0
M  V30 4669 N 418.302 -1.35869 -0.798587 0
M  V30 4670 C 419.212 -1.31578 -1.94228 0
M  V30 4671 C 420.228 -0.21939 -1.72611 0
M  V30 4672 O 421.404 -0.450167 -1.96305 0
M  V30 4673 C 418.469 -1.09528 -3.28944 0
M  V30 4674 C 417.53 -2.28556 -3.63402 0
M  V30 4675 C 416.763 -2.07549 -4.9169 0
M  V30 4676 O 416.986 -1.046 -5.60727 0
M  V30 4677 O 415.92 -2.95106 -5.24591 0
M  V30 4678 H 419.746 -2.27847 -2.00796 0
M  V30 4679 H 417.331 -1.16322 -0.937526 0
M  V30 4680 H 419.213 -0.991127 -4.09579 0
M  V30 4681 H 417.888 -0.16315 -3.23289 0
M  V30 4682 H 416.795 -2.44538 -2.83112 0
M  V30 4683 H 418.128 -3.20244 -3.73771 0
M  V30 4684 N 419.78 1.02168 -1.19998 0
M  V30 4685 C 420.71 2.12488 -0.96804 0
M  V30 4686 C 421.691 1.69799 0.101185 0
M  V30 4687 O 422.876 1.94121 -0.0552993 0
M  V30 4688 C 420.006 3.43479 -0.513776 0
M  V30 4689 C 418.96 3.99884 -1.52566 0
M  V30 4690 C 418.286 5.26582 -0.928214 0
M  V30 4691 C 419.586 4.33861 -2.90795 0
M  V30 4692 H 421.28 2.32149 -1.89069 0
M  V30 4693 H 418.826 1.11564 -0.910468 0
M  V30 4694 H 420.779 4.20036 -0.338774 0
M  V30 4695 H 419.503 3.23561 0.444493 0
M  V30 4696 H 418.162 3.25429 -1.68794 0
M  V30 4697 H 417.81 5.02986 0.0378289 0
M  V30 4698 H 417.51 5.65284 -1.60397 0
M  V30 4699 H 419.034 6.05799 -0.764167 0
M  V30 4700 H 420.448 5.01327 -2.78109 0
M  V30 4701 H 418.845 4.83664 -3.55231 0
M  V30 4702 H 419.915 3.42848 -3.42904 0
M  V30 4703 N 421.258 1.00505 1.21394 0
M  V30 4704 C 422.504 0.688793 1.90745 0
M  V30 4705 C 422.837 -0.778486 1.77914 0
M  V30 4706 O 422.112 -1.56433 1.15581 0
M  V30 4707 C 422.395 1.11063 3.42545 0
M  V30 4708 C 422.248 2.63737 3.64367 0
M  V30 4709 C 423.567 0.673059 4.34923 0
M  V30 4710 H 420.686 0.251702 0.692687 0
M  V30 4711 H 423.328 1.25074 1.43026 0
M  V30 4712 H 421.478 0.632508 3.83317 0
M  V30 4713 H 423.15 3.19313 3.32922 0
M  V30 4714 H 421.393 3.05248 3.08231 0
M  V30 4715 H 422.064 2.88305 4.70727 0
M  V30 4716 H 424.54 1.08392 4.01734 0
M  V30 4717 H 423.416 0.996383 5.39781 0
M  V30 4718 H 423.677 -0.425808 4.40045 0
M  V30 4719 N 422.737 -1.36956 0.779787 0
M  V30 4720 C 423.687 -2.27539 0.144892 0
M  V30 4721 C 424.671 -1.46493 -0.665488 0
M  V30 4722 O 425.863 -1.68968 -0.527141 0
M  V30 4723 C 422.992 -3.35512 -0.727082 0
M  V30 4724 C 422.078 -4.24001 0.0915642 0
M  V30 4725 N 422.469 -4.92757 1.14125 0
M  V30 4726 C 420.767 -4.45807 -0.131141 0
M  V30 4727 C 421.468 -5.58138 1.6388 0
M  V30 4728 N 420.444 -5.35241 0.94962 0
M  V30 4729 H 424.246 -2.78176 0.948446 0
M  V30 4730 H 421.76 -1.50169 0.618315 0
M  V30 4731 H 423.757 -3.99324 -1.19776 0
M  V30 4732 H 422.417 -2.86431 -1.52929 0
M  V30 4733 H 423.428 -4.94984 1.52353 0
M  V30 4734 H 420.105 -4.07582 -0.904621 0
M  V30 4735 H 421.495 -6.23071 2.51461 0
M  V30 4736 N 424.215 -0.530993 -1.48385 0
M  V30 4737 C 425.631 -0.188919 -1.58478 0
M  V30 4738 C 425.831 1.30786 -1.53288 0
M  V30 4739 O 424.887 2.08619 -1.42248 0
M  V30 4740 C 426.2 -0.792343 -2.90073 0
M  V30 4741 C 427.748 -0.76117 -3.03604 0
M  V30 4742 C 428.223 -1.34319 -4.37861 0
M  V30 4743 N 429.714 -1.3052 -4.44431 0
M  V30 4744 C 430.449 -1.72543 -5.46824 0
M  V30 4745 N 429.945 -2.22299 -6.56167 0
M  V30 4746 N 431.738 -1.63773 -5.37712 0
M  V30 4747 H 423.889 -1.50377 -1.50002 0
M  V30 4748 H 426.152 -0.625559 -0.712306 0
M  V30 4749 H 425.858 -1.84323 -2.99529 0
M  V30 4750 H 425.732 -0.270026 -3.76232 0
M  V30 4751 H 428.119 0.280957 -2.93759 0
M  V30 4752 H 428.2 -1.32097 -2.19053 0
M  V30 4753 H 427.844 -2.38425 -4.4846 0
M  V30 4754 H 427.774 -0.759064 -5.21101 0
M  V30 4755 H 430.265 -0.940973 -3.65997 0
M  V30 4756 H 430.578 -2.52356 -7.30436 0
M  V30 4757 H 428.923 -2.26293 -6.57127 0
M  V30 4758 H 432.114 -1.24698 -4.51185 0
M  V30 4759 H 432.287 -1.96844 -6.17379 0
M  V30 4760 N 425.693 1.55336 -0.266172 0
M  V30 4761 C 426.656 2.20878 0.612001 0
M  V30 4762 C 427.656 1.18388 1.08816 0
M  V30 4763 O 428.846 1.4335 0.989774 0
M  V30 4764 C 425.978 2.86765 1.84332 0
M  V30 4765 H 427.171 2.99873 0.0398718 0
M  V30 4766 H 424.724 1.56291 -0.0167309 0
M  V30 4767 H 425.459 2.11759 2.45619 0
M  V30 4768 H 425.244 3.61862 1.5099 0
M  V30 4769 H 426.734 3.36867 2.46801 0
M  V30 4770 N 427.171 -0.0066808 1.57599 0
M  V30 4771 C 428.42 -0.692078 1.89455 0
M  V30 4772 C 428.733 -1.75306 0.867586 0
M  V30 4773 O 429.939 -2.49262 1.07614 0
M  V30 4774 C 428.395 -1.2821 3.36289 0
M  V30 4775 C 428.003 -0.256291 4.47266 0
M  V30 4776 C 429.747 -1.94608 3.77264 0
M  V30 4777 C 427.654 -0.855927 5.85173 0
M  V30 4778 H 426.584 -0.262252 0.706923 0
M  V30 4779 H 429.235 0.052769 1.83424 0
M  V30 4780 H 427.617 -2.0774 3.37135 0
M  V30 4781 H 428.791 0.513923 4.57925 0
M  V30 4782 H 427.106 0.306862 4.15268 0
M  V30 4783 H 429.703 -2.40364 4.77629 0
M  V30 4784 H 430.046 -2.77382 3.10427 0
M  V30 4785 H 430.579 -1.21822 3.78688 0
M  V30 4786 H 427.318 -0.0671161 6.55466 0
M  V30 4787 H 426.838 -1.59546 5.78191 0
M  V30 4788 H 428.517 -1.35658 6.32618 0
M  V30 4789 N 428.649 -1.55105 -0.279332 0
M  V30 4790 C 429.612 -1.86783 -1.32834 0
M  V30 4791 C 430.612 -0.74199 -1.42657 0
M  V30 4792 O 431.802 -1.0102 -1.41918 0
M  V30 4793 C 428.934 -2.06746 -2.71052 0
M  V30 4794 H 430.127 -2.8055 -1.05979 0
M  V30 4795 H 427.68 -1.47499 -0.517087 0
M  V30 4796 H 428.415 -1.15339 -3.03097 0
M  V30 4797 H 428.2 -2.88711 -2.65309 0
M  V30 4798 H 429.69 -2.32549 -3.46858 0
M  V30 4799 N 430.127 0.543554 -1.4793 0
M  V30 4800 C 431.059 1.665 -1.57513 0
M  V30 4801 C 432.072 1.56156 -0.460333 0
M  V30 4802 O 433.261 1.62865 -0.730573 0
M  V30 4803 C 430.361 3.05063 -1.47614 0
M  V30 4804 C 429.534 3.41024 -2.739 0
M  V30 4805 C 428.593 4.58809 -2.57645 0
M  V30 4806 O 427.619 4.62707 -3.31498 0
M  V30 4807 N 428.821 5.56149 -1.66368 0
M  V30 4808 H 431.586 1.5872 -2.5422 0
M  V30 4809 H 429.147 0.730517 -1.44482 0
M  V30 4810 H 431.139 3.81712 -1.34455 0
M  V30 4811 H 429.709 3.06994 -0.589359 0
M  V30 4812 H 428.929 2.53687 -3.01723 0
M  V30 4813 H 430.217 3.61831 -3.57709 0
M  V30 4814 H 429.615 5.55767 -1.05543 0
M  V30 4815 H 428.172 6.32071 -1.59154 0
M  V30 4816 N 431.605 1.3629 0.791371 0
M  V30 4817 C 432.535 1.33137 1.91825 0
M  V30 4818 C 433.516 0.203168 1.68882 0
M  V30 4819 O 434.701 0.400509 1.90025 0
M  V30 4820 C 431.831 1.11793 3.28816 0
M  V30 4821 C 430.785 2.21417 3.66277 0
M  V30 4822 C 430.111 1.85218 5.01596 0
M  V30 4823 C 431.411 3.63489 3.75064 0
M  V30 4824 H 433.105 2.2743 1.9472 0
M  V30 4825 H 430.651 1.09479 0.935437 0
M  V30 4826 H 432.604 1.08222 4.07266 0
M  V30 4827 H 431.328 0.139501 3.26302 0
M  V30 4828 H 429.987 2.2411 2.90121 0
M  V30 4829 H 429.635 0.859544 4.95602 0
M  V30 4830 H 429.335 2.58611 5.27631 0
M  V30 4831 H 430.859 1.832 5.82469 0
M  V30 4832 H 432.273 3.63034 4.43711 0
M  V30 4833 H 430.67 4.35771 4.12582 0
M  V30 4834 H 431.74 3.98536 2.76219 0
M  V30 4835 N 433.083 -1.0153 1.20538 0
M  V30 4836 C 434.33 -1.75149 1.01633 0
M  V30 4837 C 434.658 -1.89189 -0.451399 0
M  V30 4838 O 433.913 -1.41551 -1.35136 0
M  V30 4839 C 434.212 -3.17213 1.64654 0
M  V30 4840 C 433.878 -3.23146 3.14464 0
M  V30 4841 C 432.54 -3.24472 3.55347 0
M  V30 4842 C 434.892 -3.21207 4.10458 0
M  V30 4843 C 432.22 -3.21532 4.90748 0
M  V30 4844 C 434.572 -3.19808 5.45807 0
M  V30 4845 C 433.236 -3.19439 5.86102 0
M  V30 4846 H 432.506 -0.640914 0.3719 0
M  V30 4847 H 435.153 -1.19071 1.49981 0
M  V30 4848 H 433.458 -3.76457 1.08571 0
M  V30 4849 H 435.155 -3.72871 1.4754 0
M  V30 4850 H 431.745 -3.2285 2.81897 0
M  V30 4851 H 435.929 -3.19351 3.79906 0
M  V30 4852 H 431.185 -3.19578 5.21229 0
M  V30 4853 H 435.359 -3.1726 6.19935 0
M  V30 4854 H 432.986 -3.16915 6.90991 0
M  V30 4855 N 434.561 -1.01147 -1.20859 0
M  V30 4856 C 435.471 -0.58686 -2.27141 0
M  V30 4857 C 436.487 0.373198 -1.69951 0
M  V30 4858 O 437.663 0.235423 -2.00019 0
M  V30 4859 C 434.728 0.0733602 -3.46622 0
M  V30 4860 C 433.789 -0.931995 -4.19061 0
M  V30 4861 C 433.022 -0.303186 -5.32838 0
M  V30 4862 O 433.245 0.898395 -5.63281 0
M  V30 4863 O 432.179 -1.01735 -5.9324 0
M  V30 4864 H 436.005 -1.47155 -2.65667 0
M  V30 4865 H 433.59 -0.780689 -1.2738 0
M  V30 4866 H 435.472 0.442333 -4.19072 0
M  V30 4867 H 434.147 0.932329 -3.09983 0
M  V30 4868 H 433.054 -1.35224 -3.48805 0
M  V30 4869 H 434.387 -1.76076 -4.59628 0
M  V30 4870 N 436.039 1.36541 -0.78704 0
M  V30 4871 C 436.986 2.30082 -0.181901 0
M  V30 4872 C 437.956 1.5186 0.672896 0
M  V30 4873 O 439.141 1.80374 0.622072 0
M  V30 4874 C 436.281 3.3835 0.679197 0
M  V30 4875 C 435.394 4.31565 -0.193882 0
M  V30 4876 C 434.529 5.26915 0.673364 0
M  V30 4877 C 433.568 6.11769 -0.201315 0
M  V30 4878 N 432.705 6.99315 0.624777 0
M  V30 4879 H 437.545 2.81248 -0.985064 0
M  V30 4880 H 435.082 1.38437 -0.497342 0
M  V30 4881 H 437.04 3.99767 1.19341 0
M  V30 4882 H 435.67 2.8851 1.44781 0
M  V30 4883 H 434.722 3.71323 -0.826044 0
M  V30 4884 H 436.034 4.91191 -0.867937 0
M  V30 4885 H 435.188 5.9361 1.25348 0
M  V30 4886 H 433.927 4.67737 1.38105 0
M  V30 4887 H 432.932 5.44039 -0.793849 0
M  V30 4888 H 434.157 6.73022 -0.906568 0
M  V30 4889 H 432.103 6.42648 1.3168 0
M  V30 4890 H 432.02 7.56 0.00835237 0
M  V30 4891 H 433.288 7.70382 1.18879 0
M  V30 4892 N 437.518 0.538854 1.48102 0
M  V30 4893 C 438.45 -0.256278 2.27763 0
M  V30 4894 C 439.463 -0.89633 1.35904 0
M  V30 4895 O 440.652 -0.773275 1.60881 0
M  V30 4896 C 437.752 -1.37896 3.09577 0
M  V30 4897 C 436.925 -0.839159 4.29275 0
M  V30 4898 C 435.984 -1.84405 4.9283 0
M  V30 4899 O 435.01 -1.39746 5.51779 0
M  V30 4900 N 436.212 -3.17666 4.85869 0
M  V30 4901 H 438.977 0.426968 2.96643 0
M  V30 4902 H 436.538 0.373747 1.57527 0
M  V30 4903 H 438.53 -2.04955 3.48963 0
M  V30 4904 H 437.1 -1.96572 2.4306 0
M  V30 4905 H 436.32 0.00769287 3.94199 0
M  V30 4906 H 437.608 -0.457548 5.06739 0
M  V30 4907 H 437.006 -3.56609 4.39143 0
M  V30 4908 H 435.563 -3.80334 5.29329 0
M  V30 4909 N 438.996 -1.55193 0.274407 0
M  V30 4910 C 439.926 -2.25471 -0.607032 0
M  V30 4911 C 440.907 -1.24461 -1.15946 0
M  V30 4912 O 442.092 -1.53179 -1.19373 0
M  V30 4913 C 439.222 -2.97526 -1.79153 0
M  V30 4914 C 438.176 -4.05459 -1.37067 0
M  V30 4915 C 437.502 -4.65084 -2.6382 0
M  V30 4916 C 438.802 -5.19691 -0.521389 0
M  V30 4917 H 440.496 -2.99393 -0.0209343 0
M  V30 4918 H 438.042 -1.43997 -0.00862866 0
M  V30 4919 H 439.995 -3.45402 -2.41404 0
M  V30 4920 H 438.719 -2.21138 -2.40344 0
M  V30 4921 H 437.378 -3.58393 -0.771355 0
M  V30 4922 H 437.026 -3.85365 -3.23268 0
M  V30 4923 H 436.726 -5.37961 -2.36372 0
M  V30 4924 H 438.25 -5.15708 -3.26921 0
M  V30 4925 H 439.664 -5.63623 -1.04889 0
M  V30 4926 H 438.061 -5.99126 -0.341825 0
M  V30 4927 H 439.131 -4.82713 0.46 0
M  V30 4928 N 440.474 -0.00167713 -1.576 0
M  V30 4929 C 441.406 1.0174 -2.05382 0
M  V30 4930 C 442.419 1.30595 -0.972052 0
M  V30 4931 O 443.608 1.27542 -1.24882 0
M  V30 4932 C 440.708 2.35174 -2.44022 0
M  V30 4933 C 439.881 2.25234 -3.74951 0
M  V30 4934 C 438.94 3.4137 -4.00441 0
M  V30 4935 O 437.966 3.19483 -4.71083 0
M  V30 4936 N 439.168 4.64275 -3.48467 0
M  V30 4937 H 441.933 0.609902 -2.93428 0
M  V30 4938 H 439.494 0.185672 -1.60832 0
M  V30 4939 H 441.486 3.11643 -2.58187 0
M  V30 4940 H 440.056 2.67659 -1.61485 0
M  V30 4941 H 439.276 1.33664 -3.70847 0
M  V30 4942 H 440.564 2.15767 -4.60784 0
M  V30 4943 H 439.962 4.84955 -2.91264 0
M  V30 4944 H 438.519 5.38005 -3.67959 0
M  V30 4945 N 441.952 1.55251 0.271103 0
M  V30 4946 C 442.882 1.9127 1.33933 0
M  V30 4947 C 443.863 0.77478 1.5143 0
M  V30 4948 O 445.048 1.03307 1.64442 0
M  V30 4949 C 442.178 2.18627 2.69851 0
M  V30 4950 C 441.132 3.34442 2.67081 0
M  V30 4951 C 440.458 3.47284 4.06569 0
M  V30 4952 C 441.758 4.70784 2.26185 0
M  V30 4953 H 443.452 2.80744 1.04035 0
M  V30 4954 H 440.998 1.35077 0.499017 0
M  V30 4955 H 442.951 2.42413 3.44694 0
M  V30 4956 H 441.675 1.25955 3.01335 0
M  V30 4957 H 440.334 3.10627 1.94695 0
M  V30 4958 H 439.982 2.52074 4.35279 0
M  V30 4959 H 439.682 4.25152 4.0561 0
M  V30 4960 H 441.206 3.73363 4.83148 0
M  V30 4961 H 442.62 4.94102 2.90751 0
M  V30 4962 H 441.017 5.51582 2.36384 0
M  V30 4963 H 442.087 4.69478 1.21319 0
M  V30 4964 N 443.43 -0.535701 1.48216 0
M  V30 4965 C 444.66 -1.3148 1.59363 0
M  V30 4966 C 445.068 -1.8753 0.250844 0
M  V30 4967 O 444.411 -1.66821 -0.769174 0
M  V30 4968 C 444.473 -2.50731 2.57632 0
M  V30 4969 C 444.137 -2.15811 4.02833 0
M  V30 4970 C 445.134 -1.71822 4.90686 0
M  V30 4971 C 442.819 -2.26509 4.48329 0
M  V30 4972 C 444.813 -1.3899 6.22062 0
M  V30 4973 C 442.5 -1.93289 5.79726 0
M  V30 4974 C 443.498 -1.49599 6.66415 0
M  V30 4975 O 443.186 -1.16812 7.95368 0
M  V30 4976 H 442.918 -0.406315 0.540263 0
M  V30 4977 H 445.472 -0.653569 1.94725 0
M  V30 4978 H 443.702 -3.19817 2.1738 0
M  V30 4979 H 445.391 -3.12797 2.58675 0
M  V30 4980 H 446.157 -1.63031 4.56778 0
M  V30 4981 H 442.036 -2.59471 3.81045 0
M  V30 4982 H 445.58 -1.04816 6.89681 0
M  V30 4983 H 441.477 -2.01718 6.13172 0
M  V30 4984 H 442.245 -1.30259 8.08069 0
M  V30 4985 N 444.908 -1.36708 -0.784132 0
M  V30 4986 C 445.818 -1.3363 -1.92822 0
M  V30 4987 C 446.834 -0.237686 -1.72369 0
M  V30 4988 O 448.01 -0.470962 -1.95816 0
M  V30 4989 C 445.075 -1.13011 -3.27764 0
M  V30 4990 C 444.136 -2.32397 -3.60957 0
M  V30 4991 C 443.369 -2.12752 -4.89461 0
M  V30 4992 O 443.592 -1.10541 -5.59586 0
M  V30 4993 O 442.526 -3.00653 -5.21432 0
M  V30 4994 H 446.352 -2.29964 -1.98369 0
M  V30 4995 H 443.937 -1.1731 -0.925136 0
M  V30 4996 H 445.819 -1.03451 -4.08504 0
M  V30 4997 H 444.494 -0.19743 -3.23097 0
M  V30 4998 H 443.401 -2.47527 -2.80502 0
M  V30 4999 H 444.734 -3.2419 -3.70354 0
M  V30 5000 N 446.386 1.0089 -1.21074 0
M  V30 5001 C 447.635 1.74019 -1.01981 0
M  V30 5002 C 447.948 1.90408 0.447665 0
M  V30 5003 O 449.154 2.60707 0.757906 0
M  V30 5004 C 447.61 3.13026 -1.77603 0
M  V30 5005 C 447.218 3.04623 -3.28495 0
M  V30 5006 C 448.962 3.90312 -1.66904 0
M  V30 5007 C 446.869 4.38685 -3.96623 0
M  V30 5008 H 445.799 0.652422 -0.377971 0
M  V30 5009 H 448.45 1.12755 -1.44771 0
M  V30 5010 H 446.832 3.74878 -1.27604 0
M  V30 5011 H 448.006 2.52032 -3.85767 0
M  V30 5012 H 446.321 2.40827 -3.39693 0
M  V30 5013 H 448.918 4.8951 -2.15138 0
M  V30 5014 H 449.261 4.11558 -0.62658 0
M  V30 5015 H 449.794 3.35104 -2.14359 0
M  V30 5016 H 446.533 4.22641 -5.01054 0
M  V30 5017 H 446.053 4.91252 -3.4414 0
M  V30 5018 H 447.732 5.075 -4.01314 0
M  V30 5019 N 447.864 1.01787 1.20321 0
M  V30 5020 C 448.814 0.559976 2.21016 0
M  V30 5021 C 449.798 -0.385366 1.56217 0
M  V30 5022 O 450.99 -0.208126 1.75772 0
M  V30 5023 C 448.119 -0.0990553 3.43157 0
M  V30 5024 C 447.205 0.86807 4.15121 0
M  V30 5025 N 447.596 2.0261 4.63447 0
M  V30 5026 C 445.894 0.689162 4.40643 0
M  V30 5027 C 446.595 2.63518 5.18588 0
M  V30 5028 N 445.571 1.91569 5.08726 0
M  V30 5029 H 449.373 1.44281 2.56048 0
M  V30 5030 H 446.887 0.883381 1.36272 0
M  V30 5031 H 448.884 -0.444643 4.14522 0
M  V30 5032 H 447.544 -0.977709 3.0963 0
M  V30 5033 H 448.555 2.40598 4.58621 0
M  V30 5034 H 445.232 -0.14133 4.17261 0
M  V30 5035 H 446.622 3.61527 5.66346 0
M  V30 5036 N 449.342 -1.36122 0.79427 0
M  V30 5037 C 450.59 -1.98718 0.368177 0
M  V30 5038 C 450.911 -1.63345 -1.06506 0
M  V30 5039 O 450.181 -0.909825 -1.73491 0
M  V30 5040 H 448.761 -0.735038 0.133146 0
M  V30 5041 H 451.423 -1.66239 1.01739 0
M  V30 5042 H 450.519 -3.08633 0.463923 0
M  V30 5043 N 450.82 -0.546701 -1.47814 0
M  V30 5044 C 451.783 0.196287 -2.28358 0
M  V30 5045 C 452.783 0.852437 -1.36346 0
M  V30 5046 O 453.973 0.709913 -1.59078 0
M  V30 5047 C 451.105 1.28579 -3.15722 0
M  V30 5048 H 452.298 -0.511086 -2.95513 0
M  V30 5049 H 449.851 -0.303248 -1.5333 0
M  V30 5050 H 450.586 2.0259 -2.53235 0
M  V30 5051 H 450.371 0.820229 -3.83425 0
M  V30 5052 H 451.861 1.80793 -3.76435 0
M  V30 5053 N 452.299 1.55045 -0.282633 0
M  V30 5054 C 453.231 2.2023 0.634924 0
M  V30 5055 C 454.244 1.18931 1.11172 0
M  V30 5056 O 455.433 1.4562 1.03233 0
M  V30 5057 C 452.533 2.82041 1.87899 0
M  V30 5058 C 451.706 4.091 1.54776 0
M  V30 5059 C 450.765 4.54887 2.64507 0
M  V30 5060 O 449.791 5.20496 2.30375 0
M  V30 5061 N 450.993 4.25659 3.94709 0
M  V30 5062 H 453.758 2.99601 0.0769811 0
M  V30 5063 H 451.319 1.61565 -0.104048 0
M  V30 5064 H 453.311 3.09613 2.60619 0
M  V30 5065 H 451.881 2.06618 2.3458 0
M  V30 5066 H 451.101 3.88736 0.654049 0
M  V30 5067 H 452.389 4.9187 1.30158 0
M  V30 5068 H 451.787 3.7306 4.25256 0
M  V30 5069 H 450.344 4.57984 4.63782 0
M  V30 5070 N 453.777 0.010035 1.57597 0
M  V30 5071 C 454.724 -0.978122 2.09049 0
M  V30 5072 C 455.694 -1.33509 0.988159 0
M  V30 5073 O 456.879 -1.43172 1.26121 0
M  V30 5074 C 454.019 -2.26158 2.60666 0
M  V30 5075 C 453.132 -1.96275 3.84838 0
M  V30 5076 C 452.267 -3.18776 4.24918 0
M  V30 5077 C 451.306 -2.84625 5.41899 0
M  V30 5078 N 450.443 -3.99693 5.77226 0
M  V30 5079 H 455.283 -0.532431 2.93205 0
M  V30 5080 H 452.82 -0.251234 1.44939 0
M  V30 5081 H 454.778 -3.01202 2.88675 0
M  V30 5082 H 453.408 -2.68378 1.79369 0
M  V30 5083 H 452.46 -1.11555 3.63675 0
M  V30 5084 H 453.772 -1.67111 4.69974 0
M  V30 5085 H 452.926 -4.02157 4.54262 0
M  V30 5086 H 451.665 -3.51087 3.38511 0
M  V30 5087 H 450.67 -1.99653 5.12268 0
M  V30 5088 H 451.895 -2.53551 6.29991 0
M  V30 5089 H 449.841 -4.31882 4.93776 0
M  V30 5090 H 449.758 -3.74087 6.56959 0
M  V30 5091 H 451.026 -4.83834 6.11167 0
M  V30 5092 N 455.255 -1.55392 -0.262866 0
M  V30 5093 C 456.504 -1.75679 -0.990943 0
M  V30 5094 C 456.817 -0.57097 -1.87081 0
M  V30 5095 O 458.023 -0.656486 -2.63444 0
M  V30 5096 C 456.479 -3.10964 -1.81188 0
M  V30 5097 C 456.087 -4.37146 -0.980188 0
M  V30 5098 C 457.831 -3.40597 -2.53365 0
M  V30 5099 C 455.738 -5.63466 -1.7961 0
M  V30 5100 H 454.668 -0.654868 -0.373716 0
M  V30 5101 H 457.319 -1.81841 -0.246203 0
M  V30 5102 H 455.701 -2.98867 -2.59797 0
M  V30 5103 H 456.875 -4.60187 -0.237558 0
M  V30 5104 H 455.19 -4.14731 -0.372497 0
M  V30 5105 H 457.787 -4.32186 -3.14833 0
M  V30 5106 H 458.13 -2.6119 -3.24169 0
M  V30 5107 H 458.663 -3.53838 -1.81779 0
M  V30 5108 H 455.402 -6.4565 -1.13209 0
M  V30 5109 H 454.922 -5.44552 -2.51443 0
M  V30 5110 H 456.601 -6.02139 -2.36723 0
M  V30 5111 N 456.733 0.527833 -1.48498 0
M  V30 5112 C 457.696 1.61439 -1.62696 0
M  V30 5113 C 458.696 1.52824 -0.500136 0
M  V30 5114 O 459.886 1.56456 -0.765976 0
M  V30 5115 C 457.018 3.01063 -1.59918 0
M  V30 5116 H 458.211 1.50189 -2.59583 0
M  V30 5117 H 455.764 0.750055 -1.37127 0
M  V30 5118 H 456.499 3.17818 -0.645163 0
M  V30 5119 H 456.284 3.08725 -2.41726 0
M  V30 5120 H 457.774 3.80057 -1.73051 0
M  V30 5121 N 458.211 1.37122 0.776871 0
M  V30 5122 C 459.488 1.22586 1.52421 0
M  V30 5123 C 459.868 -0.182726 2.10308 0
M  V30 5124 O 459.216 -1.18979 1.9508 0
M  V30 5125 C 459.426 2.31782 2.60918 0
M  V30 5126 C 460.774 2.69071 3.2846 0
M  V30 5127 O 461.798 2.3092 2.71209 0
M  V30 5128 O 460.657 3.3478 4.31954 0
M  V30 5129 H 457.751 0.478045 0.674835 0
M  V30 5130 H 460.297 1.48888 0.814275 0
M  V30 5131 H 459.069 3.26131 2.16227 0
M  V30 5132 H 458.692 2.06916 3.39517 0
M  V30 5133 N 459.689 -1.00246 1.21608 0
M  V30 5134 C 460.937 -1.73717 1.0328 0
M  V30 5135 C 461.258 -1.90102 -0.434318 0
M  V30 5136 O 460.528 -1.45376 -1.31311 0
M  V30 5137 H 459.108 -0.643613 0.379172 0
M  V30 5138 H 461.77 -1.20787 1.52959 0
M  V30 5139 H 460.866 -2.73535 1.50283 0
M  V30 5140 N 461.167 -1.02423 -1.1978 0
M  V30 5141 C 462.413 -0.719051 -1.89625 0
M  V30 5142 C 462.746 0.750083 -1.7913 0
M  V30 5143 O 462.021 1.54574 -1.18056 0
M  V30 5144 C 462.304 -1.16499 -3.40735 0
M  V30 5145 C 462.157 -2.695 -3.60125 0
M  V30 5146 C 463.476 -0.742166 -4.33797 0
M  V30 5147 H 460.595 -0.26269 -0.688595 0
M  V30 5148 H 463.237 -1.27333 -1.41018 0
M  V30 5149 H 461.387 -0.69341 -3.82262 0
M  V30 5150 H 463.059 -3.24569 -3.278 0
M  V30 5151 H 461.302 -3.10113 -3.03336 0
M  V30 5152 H 461.973 -2.95757 -4.66081 0
M  V30 5153 H 464.449 -1.1477 -3.99959 0
M  V30 5154 H 463.325 -1.08213 -5.38127 0
M  V30 5155 H 463.586 0.355747 -4.40666 0
M  V30 5156 N 462.645 1.35699 -0.801477 0
M  V30 5157 C 463.593 2.3177 -0.196317 0
M  V30 5158 C 464.587 1.56388 0.651081 0
M  V30 5159 O 465.793 1.71557 0.544815 0
M  V30 5160 H 462.168 0.750669 -0.0447189 0
M  V30 5161 H 464.139 2.8036 -1.02181 0
M  V30 5162 C 462.888 3.41671 0.644702 0
M  V30 5163 H 462.211 3.998 0.0019921 0
M  V30 5164 H 463.651 4.11184 1.0346 0
M  V30 5165 C 462.11 2.84271 1.80808 0
M  V30 5166 O 462.64 2.77408 2.9053 0
M  V30 5167 N 460.846 2.41391 1.61799 0
M  V30 5168 H 460.393 2.47173 0.725493 0
M  V30 5169 H 460.351 2.03334 2.39797 0
M  V30 5170 N 464.123 0.554532 1.47522 0
M  V30 5171 C 465.033 -0.197865 2.33764 0
M  V30 5172 C 466.049 -0.914576 1.48025 0
M  V30 5173 O 467.225 -0.884067 1.80959 0
M  V30 5174 C 464.29 -1.21628 3.24665 0
M  V30 5175 C 463.351 -0.507283 4.26292 0
M  V30 5176 C 462.584 -1.47718 5.1285 0
M  V30 5177 O 462.807 -2.7118 5.01814 0
M  V30 5178 O 461.741 -1.00313 5.93482 0
M  V30 5179 H 465.567 0.50949 2.99396 0
M  V30 5180 H 463.152 0.315176 1.46038 0
M  V30 5181 H 465.034 -1.80421 3.80823 0
M  V30 5182 H 463.709 -1.9056 2.61665 0
M  V30 5183 H 462.616 0.121778 3.73902 0
M  V30 5184 H 463.949 0.140544 4.91999 0
M  V30 5185 N 465.601 -1.54893 0.290851 0
M  V30 5186 C 466.85 -1.99111 -0.322113 0
M  V30 5187 C 467.163 -1.18283 -1.55784 0
M  V30 5188 O 468.369 -1.5272 -2.24475 0
M  V30 5189 C 466.825 -3.54442 -0.624438 0
M  V30 5190 C 466.433 -4.44066 0.592373 0
M  V30 5191 C 468.177 -4.07211 -1.19916 0
M  V30 5192 C 466.084 -5.90812 0.263762 0
M  V30 5193 H 465.014 -0.743712 -0.124133 0
M  V30 5194 H 467.665 -1.79132 0.39797 0
M  V30 5195 H 466.047 -3.70281 -1.40384 0
M  V30 5196 H 467.221 -4.39999 1.36886 0
M  V30 5197 H 465.536 -4.02015 1.08502 0
M  V30 5198 H 468.133 -5.14407 -1.45909 0
M  V30 5199 H 468.476 -3.57196 -2.13815 0
M  V30 5200 H 469.009 -3.94873 -0.481687 0
M  V30 5201 H 465.748 -6.44955 1.17105 0
M  V30 5202 H 465.268 -5.97911 -0.475655 0
M  V30 5203 H 466.947 -6.46852 -0.138354 0
M  V30 5204 N 467.08 -0.0183926 -1.57589 0
M  V30 5205 C 468.028 0.985111 -2.10709 0
M  V30 5206 C 469.022 1.34397 -1.0312 0
M  V30 5207 O 470.228 1.32746 -1.21567 0
M  V30 5208 H 466.603 0.335418 -0.673052 0
M  V30 5209 H 468.574 0.511689 -2.9398 0
M  V30 5210 C 467.323 2.26202 -2.64061 0
M  V30 5211 H 466.646 1.9946 -3.4649 0
M  V30 5212 H 468.086 2.94652 -3.04887 0
M  V30 5213 C 466.545 2.98444 -1.5631 0
M  V30 5214 O 467.075 3.90142 -0.956674 0
M  V30 5215 N 465.281 2.6059 -1.28612 0
M  V30 5216 H 464.828 1.86101 -1.78112 0
M  V30 5217 H 464.786 3.09238 -0.567406 0
M  V30 5218 N 468.558 1.5553 0.254621 0
M  V30 5219 C 469.786 1.81046 1.00149 0
M  V30 5220 C 470.201 0.593047 1.79244 0
M  V30 5221 O 469.558 -0.438196 1.77161 0
M  V30 5222 C 469.609 3.04684 1.94551 0
M  V30 5223 O 469.33 4.21725 1.18658 0
M  V30 5224 C 470.831 3.42943 2.80901 0
M  V30 5225 H 468.051 0.602653 0.295044 0
M  V30 5226 H 470.595 2.02576 0.279842 0
M  V30 5227 H 468.75 2.85226 2.62154 0
M  V30 5228 H 469.164 4.91746 1.82445 0
M  V30 5229 H 470.638 4.32576 3.42902 0
M  V30 5230 H 471.115 2.63176 3.51617 0
M  V30 5231 H 471.721 3.64724 2.18762 0
M  V30 5232 N 470.036 -0.519951 1.48776 0
M  V30 5233 C 470.946 -1.65025 1.66745 0
M  V30 5234 C 471.962 -1.6508 0.549954 0
M  V30 5235 O 473.138 -1.83848 0.822295 0
M  V30 5236 C 470.203 -3.0146 1.71238 0
M  V30 5237 C 469.264 -3.12182 2.94688 0
M  V30 5238 C 468.497 -4.42109 2.98958 0
M  V30 5239 O 468.72 -5.29799 2.1135 0
M  V30 5240 O 467.654 -4.57406 3.91233 0
M  V30 5241 H 471.48 -1.52801 2.62461 0
M  V30 5242 H 469.065 -0.694157 1.32294 0
M  V30 5243 H 470.947 -3.82584 1.76657 0
M  V30 5244 H 469.622 -3.13988 0.786975 0
M  V30 5245 H 468.529 -2.30316 2.94797 0
M  V30 5246 H 469.862 -3.04574 3.86646 0
M  V30 5247 N 471.514 -1.37532 -0.769588 0
M  V30 5248 C 472.462 -1.33561 -1.90432 0
M  V30 5249 C 473.456 -0.224027 -1.67912 0
M  V30 5250 O 474.662 -0.392174 -1.75676 0
M  V30 5251 H 471.037 -0.416279 -0.626271 0
M  V30 5252 H 473.008 -2.29348 -1.90899 0
M  V30 5253 C 471.757 -1.16162 -3.27722 0
M  V30 5254 H 471.08 -2.00951 -3.45628 0
M  V30 5255 H 472.52 -1.17434 -4.07413 0
M  V30 5256 C 470.979 0.132583 -3.36639 0
M  V30 5257 O 471.509 1.11539 -3.85904 0
M  V30 5258 N 469.715 0.184013 -2.90017 0
M  V30 5259 H 469.262 -0.616415 -2.50116 0
M  V30 5260 H 469.22 1.04956 -2.96364 0
M  V30 5261 N 472.992 0.995999 -1.22138 0
M  V30 5262 C 473.925 2.08302 -0.931952 0
M  V30 5263 C 474.903 1.62127 0.123956 0
M  V30 5264 O 476.087 1.88499 -0.00696004 0
M  V30 5265 C 473.214 3.36317 -0.401068 0
M  V30 5266 C 472.26 4.01413 -1.44117 0
M  V30 5267 S 473.093 4.42664 -3.01345 0
M  V30 5268 C 474.249 5.73853 -2.49887 0
M  V30 5269 H 474.482 2.32532 -1.85246 0
M  V30 5270 H 472.015 1.13005 -1.0521 0
M  V30 5271 H 473.973 4.10375 -0.101352 0
M  V30 5272 H 472.634 3.10123 0.498272 0
M  V30 5273 H 471.827 4.9358 -1.01952 0
M  V30 5274 H 471.429 3.33668 -1.68943 0
M  V30 5275 H 473.721 6.50039 -1.90934 0
M  V30 5276 H 474.664 6.20841 -3.40532 0
M  V30 5277 H 475.072 5.31105 -1.9128 0
M  V30 5278 N 474.47 1.03057 1.19235 0
M  V30 5279 C 475.716 0.729098 1.89241 0
M  V30 5280 C 476.049 -0.740573 1.79525 0
M  V30 5281 O 475.324 -1.53946 1.18874 0
M  V30 5282 C 475.607 1.18304 3.40112 0
M  V30 5283 C 475.46 2.71406 3.5869 0
M  V30 5284 C 476.779 0.765161 4.33397 0
M  V30 5285 H 473.898 0.266338 0.687192 0
M  V30 5286 H 476.54 1.28079 1.40341 0
M  V30 5287 H 474.69 0.713672 3.81889 0
M  V30 5288 H 476.362 3.26303 3.26074 0
M  V30 5289 H 474.605 3.11717 3.01687 0
M  V30 5290 H 475.276 2.98225 4.64506 0
M  V30 5291 H 477.752 1.16889 3.99345 0
M  V30 5292 H 476.628 1.11065 5.37546 0
M  V30 5293 H 476.889 -0.332372 4.40849 0
M  V30 5294 N 475.948 -1.35272 0.808662 0
M  V30 5295 C 477.173 -2.03477 0.401475 0
M  V30 5296 C 477.598 -1.60537 -0.980279 0
M  V30 5297 O 476.956 -0.78304 -1.63518 0
M  V30 5298 C 477.004 -3.57181 0.495354 0
M  V30 5299 O 476.108 -4.09474 -0.490397 0
M  V30 5300 H 475.449 -0.642561 0.167366 0
M  V30 5301 H 477.979 -1.72824 1.09512 0
M  V30 5302 H 477.989 -4.06356 0.365912 0
M  V30 5303 H 476.664 -3.87784 1.5032 0
M  V30 5304 H 475.241 -3.71516 -0.321023 0
M  V30 5305 N 477.426 -0.562348 -1.47226 0
M  V30 5306 C 478.651 -0.0432632 -2.07355 0
M  V30 5307 C 479.076 1.24332 -1.41149 0
M  V30 5308 O 478.434 1.74603 -0.488226 0
M  V30 5309 C 478.482 0.130288 -3.60365 0
M  V30 5310 O 477.586 1.19166 -3.94808 0
M  V30 5311 H 476.927 -0.0536334 -0.66183 0
M  V30 5312 H 479.457 -0.779495 -1.89169 0
M  V30 5313 H 479.467 0.342881 -4.06557 0
M  V30 5314 H 478.142 -0.809389 -4.07948 0
M  V30 5315 H 476.719 0.959153 -3.60354 0
M  V30 5316 N 478.904 1.54736 -0.299062 0
M  V30 5317 C 480.153 1.99279 0.311549 0
M  V30 5318 C 480.466 1.19107 1.55154 0
M  V30 5319 O 481.672 1.53908 2.23662 0
M  V30 5320 C 480.128 3.54768 0.605632 0
M  V30 5321 C 479.736 4.43746 -0.615914 0
M  V30 5322 C 481.48 4.07841 1.17754 0
M  V30 5323 C 479.387 5.90663 -0.29509 0
M  V30 5324 H 478.317 0.744359 0.120187 0
M  V30 5325 H 480.968 1.78919 -0.407464 0
M  V30 5326 H 479.35 3.71021 1.38419 0
M  V30 5327 H 480.524 4.39267 -1.39218 0
M  V30 5328 H 478.839 4.01434 -1.10633 0
M  V30 5329 H 481.436 5.15174 1.43179 0
M  V30 5330 H 481.779 3.58324 2.11918 0
M  V30 5331 H 482.312 3.95123 0.460739 0
M  V30 5332 H 479.051 6.44325 -1.20524 0
M  V30 5333 H 478.571 5.98155 0.44394 0
M  V30 5334 H 480.25 6.46916 0.104048 0
M  V30 5335 N 480.382 0.0267497 1.57577 0
M  V30 5336 C 481.292 -0.971633 2.13533 0
M  V30 5337 C 482.308 -1.35868 1.08701 0
M  V30 5338 O 483.484 -1.44058 1.40746 0
M  V30 5339 C 480.549 -2.23622 2.64941 0
M  V30 5340 C 479.61 -1.90982 3.8448 0
M  V30 5341 C 478.843 -3.11411 4.33427 0
M  V30 5342 O 479.066 -4.23992 3.81558 0
M  V30 5343 O 478 -2.93848 5.25297 0
M  V30 5344 H 481.826 -0.525853 2.99113 0
M  V30 5345 H 479.411 -0.193712 1.48139 0
M  V30 5346 H 481.293 -2.97864 2.98086 0
M  V30 5347 H 479.968 -2.67386 1.82446 0
M  V30 5348 H 478.875 -1.14132 3.56265 0
M  V30 5349 H 480.208 -1.52036 4.6813 0
M  V30 5350 N 481.861 -1.55662 -0.24637 0
M  V30 5351 C 483.272 -1.67953 -0.81539 0
M  V30 5352 C 483.623 -0.624302 -1.86002 0
M  V30 5353 O 482.748 0.229328 -2.15181 0
M  V30 5354 C 483.343 -3.04484 -1.48576 0
M  V30 5355 C 481.902 -3.18713 -2.00248 0
M  V30 5356 C 481.049 -2.6383 -0.853766 0
M  V30 5357 H 484 -1.58685 -0.0221692 0
M  V30 5358 H 484.021 -2.98959 -2.3538 0
M  V30 5359 H 483.533 -3.81264 -0.725222 0
M  V30 5360 H 481.634 -2.46757 -2.79181 0
M  V30 5361 H 481.747 -4.25628 -2.1995 0
M  V30 5362 H 480.111 -2.21667 -1.25442 0
M  V30 5363 H 480.894 -3.43135 -0.106302 0
M  V30 5364 N 483.339 0.512053 -1.4905 0
M  V30 5365 C 484.249 1.64139 -1.67617 0
M  V30 5366 C 485.265 1.64786 -0.558701 0
M  V30 5367 O 486.441 1.8341 -0.832034 0
M  V30 5368 C 483.506 3.00548 -1.72835 0
M  V30 5369 C 482.567 3.10615 -2.96339 0
M  V30 5370 C 481.8 4.40517 -3.01298 0
M  V30 5371 O 482.023 5.28671 -2.14157 0
M  V30 5372 O 480.957 4.55325 -3.93653 0
M  V30 5373 H 484.783 1.51407 -2.63267 0
M  V30 5374 H 482.368 0.687131 -1.32661 0
M  V30 5375 H 484.25 3.81641 -1.78683 0
M  V30 5376 H 482.925 3.13566 -0.803616 0
M  V30 5377 H 481.832 2.2875 -2.96014 0
M  V30 5378 H 483.165 3.0252 -3.88256 0
M  V30 5379 N 484.817 1.37938 0.762283 0
M  V30 5380 C 485.764 1.34467 1.87583 0
M  V30 5381 C 486.734 0.208633 1.64785 0
M  V30 5382 O 487.919 0.399494 1.86571 0
M  V30 5383 C 485.059 1.16692 3.24772 0
M  V30 5384 C 484.172 2.39608 3.59461 0
M  V30 5385 C 483.307 2.14631 4.85908 0
M  V30 5386 C 482.346 3.33364 5.13357 0
M  V30 5387 N 481.483 3.07877 6.30996 0
M  V30 5388 H 486.323 2.29669 1.89885 0
M  V30 5389 H 483.86 1.14116 0.928219 0
M  V30 5390 H 485.818 1.04405 4.03925 0
M  V30 5391 H 484.448 0.251333 3.2182 0
M  V30 5392 H 483.5 2.626 2.75219 0
M  V30 5393 H 484.812 3.28128 3.75678 0
M  V30 5394 H 483.966 1.99429 5.72986 0
M  V30 5395 H 482.705 1.23463 4.71814 0
M  V30 5396 H 481.71 3.49094 4.24751 0
M  V30 5397 H 482.935 4.25395 5.29354 0
M  V30 5398 H 480.881 2.19348 6.18241 0
M  V30 5399 H 480.798 3.89944 6.47673 0
M  V30 5400 H 482.066 2.96313 7.20985 0
M  V30 5401 N 486.295 -0.989507 1.22664 0
M  V30 5402 C 487.227 -2.0824 0.957542 0
M  V30 5403 C 488.24 -1.6267 -0.0651098 0
M  V30 5404 O 489.429 -1.77695 0.169312 0
M  V30 5405 C 486.529 -3.36298 0.419145 0
M  V30 5406 C 485.702 -4.10882 1.49982 0
M  V30 5407 C 484.761 -5.17221 0.967904 0
M  V30 5408 O 483.787 -5.44613 1.65487 0
M  V30 5409 N 484.989 -5.80124 -0.20896 0
M  V30 5410 H 487.754 -2.31904 1.89843 0
M  V30 5411 H 485.315 -1.15552 1.13399 0
M  V30 5412 H 487.307 -4.04671 0.0485451 0
M  V30 5413 H 485.877 -3.09671 -0.426937 0
M  V30 5414 H 485.097 -3.37092 2.04359 0
M  V30 5415 H 486.385 -4.57482 2.22682 0
M  V30 5416 H 485.783 -5.60244 -0.783818 0
M  V30 5417 H 484.34 -6.49715 -0.520913 0
M  V30 5418 N 487.773 -1.03688 -1.18687 0
M  V30 5419 C 489.05 -0.652397 -1.84399 0
M  V30 5420 C 489.43 0.868386 -1.92412 0
M  V30 5421 O 488.778 1.76832 -1.44716 0
M  V30 5422 C 488.988 -1.3238 -3.22919 0
M  V30 5423 C 490.336 -1.45216 -3.98996 0
M  V30 5424 O 491.36 -1.2816 -3.32345 0
M  V30 5425 O 490.219 -1.72975 -5.18403 0
M  V30 5426 H 487.313 -0.227793 -0.795009 0
M  V30 5427 H 489.859 -1.13553 -1.2611 0
M  V30 5428 H 488.631 -2.36202 -3.11968 0
M  V30 5429 H 488.254 -0.829039 -3.88861 0
M  V30 5430 N 489.251 1.34841 -0.815825 0
M  V30 5431 C 490.476 2.03261 -0.41226 0
M  V30 5432 C 490.901 1.61055 0.971751 0
M  V30 5433 O 490.259 0.7917 1.63101 0
M  V30 5434 C 490.307 3.56914 -0.514289 0
M  V30 5435 O 489.411 4.09728 0.468675 0
M  V30 5436 H 488.752 0.641664 -0.170771 0
M  V30 5437 H 491.282 1.72241 -1.10427 0
M  V30 5438 H 491.292 4.06156 -0.387457 0
M  V30 5439 H 489.967 3.86982 -1.52375 0
M  V30 5440 H 488.544 3.71681 0.301316 0
M  V30 5441 N 490.729 0.570148 1.46925 0
M  V30 5442 C 492.14 0.1402 1.86173 0
M  V30 5443 C 492.491 -1.29347 1.47526 0
M  V30 5444 O 491.616 -1.97508 0.884292 0
M  V30 5445 C 492.211 0.247661 3.37894 0
M  V30 5446 C 490.77 -0.127332 3.76185 0
M  V30 5447 C 489.917 0.589349 2.70965 0
M  V30 5448 H 492.868 0.779117 1.38259 0
M  V30 5449 H 492.889 -0.530341 3.76786 0
M  V30 5450 H 492.401 1.29121 3.65991 0
M  V30 5451 H 490.502 -1.17149 3.53704 0
M  V30 5452 H 490.615 0.240238 4.78497 0
M  V30 5453 H 488.979 0.0309824 2.54681 0
M  V30 5454 H 489.762 1.6343 3.01903 0
M  V30 5455 N 492.207 -1.54576 0.307264 0
M  V30 5456 C 493.618 -1.8579 -0.184121 0
M  V30 5457 C 493.969 -1.22914 -1.52927 0
M  V30 5458 O 493.094 -0.529126 -2.09831 0
M  V30 5459 C 493.689 -3.37081 -0.340862 0
M  V30 5460 C 492.248 -3.68304 -0.776465 0
M  V30 5461 C 491.395 -2.77076 0.111503 0
M  V30 5462 H 494.346 -1.49656 0.528078 0
M  V30 5463 H 494.367 -3.61922 -1.17443 0
M  V30 5464 H 493.879 -3.82815 0.638309 0
M  V30 5465 H 491.98 -3.28092 -1.76596 0
M  V30 5466 H 492.093 -4.75434 -0.591512 0
M  V30 5467 H 490.457 -2.51374 -0.410256 0
M  V30 5468 H 491.24 -3.25632 1.08714 0
M  V30 5469 N 493.685 -0.035106 -1.57561 0
M  V30 5470 C 495.096 0.502885 -1.798 0
M  V30 5471 C 495.447 1.71892 -0.945921 0
M  V30 5472 O 494.572 2.15822 -0.157991 0
M  V30 5473 C 495.167 0.919097 -3.26095 0
M  V30 5474 C 493.726 1.40216 -3.49308 0
M  V30 5475 C 492.873 0.369709 -2.74824 0
M  V30 5476 H 495.824 -0.261102 -1.56537 0
M  V30 5477 H 495.845 1.78308 -3.36135 0
M  V30 5478 H 495.357 0.0338526 -3.88085 0
M  V30 5479 H 493.458 2.30714 -2.92578 0
M  V30 5480 H 493.571 1.40541 -4.58023 0
M  V30 5481 H 491.935 0.839113 -2.40481 0
M  V30 5482 H 492.718 -0.507173 -3.39533 0
M  V30 5483 N 495.163 1.55791 0.238111 0
M  V30 5484 C 496.11 1.9105 1.29493 0
M  V30 5485 C 497.08 0.765733 1.47397 0
M  V30 5486 O 498.265 1.02017 1.61236 0
M  V30 5487 C 495.405 2.21826 2.64362 0
M  V30 5488 C 494.518 3.49153 2.54394 0
M  V30 5489 C 493.653 3.69455 3.81676 0
M  V30 5490 C 492.692 4.90353 3.66361 0
M  V30 5491 N 491.829 5.07131 4.85554 0
M  V30 5492 H 496.669 2.81172 0.987233 0
M  V30 5493 H 494.206 1.39179 0.476203 0
M  V30 5494 H 496.164 2.37675 3.4288 0
M  V30 5495 H 494.794 1.34897 2.93262 0
M  V30 5496 H 493.846 3.41587 1.67399 0
M  V30 5497 H 495.158 4.37818 2.38991 0
M  V30 5498 H 494.312 3.85311 4.68636 0
M  V30 5499 H 493.051 2.7904 3.99985 0
M  V30 5500 H 492.056 4.74464 2.77784 0
M  V30 5501 H 493.281 5.82237 3.49538 0
M  V30 5502 H 491.227 4.19654 5.04209 0
M  V30 5503 H 491.144 5.89899 4.72816 0
M  V30 5504 H 492.412 5.27407 5.73988 0
M  V30 5505 N 496.642 -0.504142 1.49319 0
M  V30 5506 C 498.053 -1.08572 1.51885 0
M  V30 5507 C 498.404 -1.93842 0.303255 0
M  V30 5508 O 497.529 -2.0828 -0.58724 0
M  V30 5509 C 498.124 -1.97574 2.75227 0
M  V30 5510 C 496.683 -2.509 2.80581 0
M  V30 5511 C 495.83 -1.28447 2.45757 0
M  V30 5512 H 498.781 -0.288194 1.56061 0
M  V30 5513 H 498.802 -2.82219 2.55211 0
M  V30 5514 H 498.314 -1.35486 3.63683 0
M  V30 5515 H 496.415 -3.16636 1.96398 0
M  V30 5516 H 496.528 -2.88268 3.82673 0
M  V30 5517 H 494.892 -1.60868 1.97468 0
M  V30 5518 H 495.675 -0.68072 3.36483 0
M  V30 5519 N 498.12 -1.38341 -0.754957 0
M  V30 5520 C 499.531 -1.30803 -1.3322 0
M  V30 5521 C 499.882 0.0368 -1.96165 0
M  V30 5522 O 499.007 0.938844 -1.94974 0
M  V30 5523 C 499.602 -2.3688 -2.42225 0
M  V30 5524 C 498.161 -2.32925 -2.95674 0
M  V30 5525 C 497.308 -2.19819 -1.69042 0
M  V30 5526 H 500.259 -1.48719 -0.553937 0
M  V30 5527 H 500.28 -2.02517 -3.22129 0
M  V30 5528 H 499.792 -3.34747 -1.96383 0
M  V30 5529 H 497.893 -1.38635 -3.45848 0
M  V30 5530 H 498.006 -3.27008 -3.50146 0
M  V30 5531 H 496.37 -1.66648 -1.92615 0
M  V30 5532 H 497.153 -3.19625 -1.25279 0
M  V30 5533 N 499.598 0.982988 -1.23187 0
M  V30 5534 C 501.014 1.2487 -0.993967 0
M  V30 5535 C 501.214 1.99155 0.306498 0
M  V30 5536 O 500.27 2.30688 1.0266 0
M  V30 5537 C 501.583 2.05078 -2.19917 0
M  V30 5538 C 503.131 2.18227 -2.2438 0
M  V30 5539 C 503.606 3.01825 -3.44479 0
M  V30 5540 N 505.097 3.09411 -3.44702 0
M  V30 5541 C 505.832 3.74412 -4.34285 0
M  V30 5542 N 505.328 4.41259 -5.341 0
M  V30 5543 N 507.121 3.71273 -4.22035 0
M  V30 5544 H 499.272 0.485253 -2.06783 0
M  V30 5545 H 501.535 0.276979 -0.906635 0
M  V30 5546 H 501.241 1.57867 -3.14279 0
M  V30 5547 H 501.115 3.05829 -2.2079 0
M  V30 5548 H 503.502 2.64648 -1.30559 0
M  V30 5549 H 503.583 1.16873 -2.2754 0
M  V30 5550 H 503.227 2.56102 -4.38605 0
M  V30 5551 H 503.157 4.03342 -3.38559 0
M  V30 5552 H 505.648 2.61845 -2.7248 0
M  V30 5553 H 505.961 4.88629 -5.98717 0
M  V30 5554 H 504.306 4.39975 -5.38002 0
M  V30 5555 H 507.497 3.18217 -3.43301 0
M  V30 5556 H 507.67 4.21649 -4.92053 0
M  V30 5557 N 501.076 1.04316 1.18135 0
M  V30 5558 C 502.304 0.768117 1.92113 0
M  V30 5559 C 502.719 -0.675057 1.76319 0
M  V30 5560 O 502.076 -1.46038 1.09449 0
M  V30 5561 C 502.127 1.12808 3.43448 0
M  V30 5562 O 501.848 2.5146 3.58747 0
M  V30 5563 C 503.349 0.8779 4.3452 0
M  V30 5564 H 500.569 0.279937 0.609817 0
M  V30 5565 H 503.113 1.39149 1.49859 0
M  V30 5566 H 501.268 0.549623 3.83481 0
M  V30 5567 H 501.682 2.65313 4.52448 0
M  V30 5568 H 503.156 1.17959 5.39249 0
M  V30 5569 H 503.633 -0.187239 4.38801 0
M  V30 5570 H 504.239 1.43977 4.00188 0
M  V30 5571 N 502.554 -1.34406 0.822964 0
M  V30 5572 C 503.97 -1.51275 0.508727 0
M  V30 5573 C 504.17 -1.76776 -0.967083 0
M  V30 5574 O 503.226 -1.81871 -1.75155 0
M  V30 5575 C 504.539 -2.67765 1.36829 0
M  V30 5576 C 506.087 -2.81647 1.36542 0
M  V30 5577 C 506.562 -4.01181 2.20947 0
M  V30 5578 N 508.053 -4.08388 2.18571 0
M  V30 5579 C 508.788 -5.00036 2.80627 0
M  V30 5580 N 508.284 -5.96906 3.51674 0
M  V30 5581 N 510.077 -4.92908 2.70181 0
M  V30 5582 H 502.228 -1.16113 1.77852 0
M  V30 5583 H 504.491 -0.56947 0.757897 0
M  V30 5584 H 504.197 -2.55551 2.41633 0
M  V30 5585 H 504.071 -3.62779 1.03303 0
M  V30 5586 H 506.458 -2.93303 0.325163 0
M  V30 5587 H 506.539 -1.87443 1.74066 0
M  V30 5588 H 506.183 -3.90286 3.25022 0
M  V30 5589 H 506.113 -4.94599 1.80774 0
M  V30 5590 H 508.604 -3.39051 1.66891 0
M  V30 5591 H 508.917 -6.63468 3.96271 0
M  V30 5592 H 507.262 -5.9703 3.5578 0
M  V30 5593 H 510.453 -4.1619 2.14251 0
M  V30 5594 H 510.626 -5.64137 3.18831 0
M  V30 5595 N 504.032 -0.577932 -1.46621 0
M  V30 5596 C 505.257 -0.0652536 -2.07297 0
M  V30 5597 C 505.682 1.22828 -1.4246 0
M  V30 5598 O 505.04 1.74075 -0.506718 0
M  V30 5599 C 505.088 0.0920589 -3.60482 0
M  V30 5600 O 504.192 1.14972 -3.96049 0
M  V30 5601 H 503.533 -0.06065 -0.661224 0
M  V30 5602 H 506.063 -0.799515 -1.88332 0
M  V30 5603 H 506.073 0.299741 -4.06897 0
M  V30 5604 H 504.748 -0.852612 -4.07067 0
M  V30 5605 H 503.325 0.920879 -3.61351 0
M  V30 5606 N 505.51 1.54411 -0.315457 0
M  V30 5607 C 506.75 2.02329 0.290236 0
M  V30 5608 C 507.114 1.19878 1.49977 0
M  V30 5609 O 508.315 1.57562 2.17779 0
M  V30 5610 C 506.586 3.51912 0.623937 0
M  V30 5611 S 508.145 4.21775 1.21044 0
M  V30 5612 H 504.963 0.705499 0.0882739 0
M  V30 5613 H 507.565 1.90328 -0.446694 0
M  V30 5614 H 506.269 4.09546 -0.264624 0
M  V30 5615 H 505.8 3.67977 1.39128 0
M  V30 5616 H 507.815 4.28757 2.49764 0
M  V30 5617 N 506.988 0.0434614 1.5754 0
M  V30 5618 C 507.918 -0.931651 2.14109 0
M  V30 5619 C 508.899 -1.32971 1.06079 0
M  V30 5620 O 510.084 -1.40579 1.33982 0
M  V30 5621 C 507.214 -2.20914 2.67982 0
M  V30 5622 C 506.168 -1.95139 3.80926 0
M  V30 5623 C 505.494 -3.29276 4.21285 0
M  V30 5624 C 506.794 -1.27913 5.06395 0
M  V30 5625 H 508.488 -0.460497 2.95837 0
M  V30 5626 H 506.034 -0.220058 1.42309 0
M  V30 5627 H 507.987 -2.89522 3.06194 0
M  V30 5628 H 506.711 -2.70221 1.83434 0
M  V30 5629 H 505.37 -1.28945 3.43175 0
M  V30 5630 H 505.018 -3.76369 3.33699 0
M  V30 5631 H 504.718 -3.12831 4.97404 0
M  V30 5632 H 506.242 -3.99129 4.62091 0
M  V30 5633 H 507.656 -1.86544 5.42102 0
M  V30 5634 H 506.053 -1.2182 5.87605 0
M  V30 5635 H 507.123 -0.254066 4.84234 0
M  V30 5636 N 508.466 -1.55915 -0.229846 0
M  V30 5637 C 509.712 -1.78807 -0.956868 0
M  V30 5638 C 510.045 -0.611687 -1.84315 0
M  V30 5639 O 509.32 0.389398 -1.90562 0
M  V30 5640 C 509.603 -3.11718 -1.80288 0
M  V30 5641 C 509.456 -4.3979 -0.943649 0
M  V30 5642 C 510.775 -3.40999 -2.78222 0
M  V30 5643 H 507.894 -0.6505 -0.346437 0
M  V30 5644 H 510.536 -1.88648 -0.226252 0
M  V30 5645 H 508.686 -3.03459 -2.42579 0
M  V30 5646 H 510.358 -4.60059 -0.338121 0
M  V30 5647 H 508.601 -4.33086 -0.248705 0
M  V30 5648 H 509.272 -5.29208 -1.5698 0
M  V30 5649 H 511.748 -3.49332 -2.26067 0
M  V30 5650 H 510.624 -4.35183 -3.34526 0
M  V30 5651 H 510.885 -2.62754 -3.55546 0
M  V30 5652 N 509.944 0.496216 -1.49584 0
M  V30 5653 C 510.854 1.62352 -1.69349 0
M  V30 5654 C 511.87 1.64184 -0.576147 0
M  V30 5655 O 513.046 1.82517 -0.85144 0
M  V30 5656 C 510.111 2.98698 -1.76013 0
M  V30 5657 C 509.172 3.07454 -2.99617 0
M  V30 5658 C 508.405 4.37296 -3.05953 0
M  V30 5659 O 508.628 5.2637 -2.19752 0
M  V30 5660 O 507.562 4.51124 -3.9846 0
M  V30 5661 H 511.388 1.48606 -2.64859 0
M  V30 5662 H 508.973 0.673022 -1.33382 0
M  V30 5663 H 510.855 3.79725 -1.82721 0
M  V30 5664 H 509.53 3.12696 -0.836828 0
M  V30 5665 H 508.437 2.25597 -2.98424 0
M  V30 5666 H 509.77 2.98385 -3.91443 0
M  V30 5667 N 511.423 1.38739 0.74761 0
M  V30 5668 C 512.671 1.35007 1.50391 0
M  V30 5669 C 512.992 -0.0574274 1.94915 0
M  V30 5670 O 512.262 -1.00628 1.6808 0
M  V30 5671 H 510.842 0.496784 0.557866 0
M  V30 5672 H 513.504 1.73479 0.888319 0
M  V30 5673 H 512.6 2.00474 2.392 0
M  V30 5674 N 512.901 -0.976442 1.23707 0
M  V30 5675 C 514.178 -1.69296 0.979699 0
M  V30 5676 C 514.558 -2.0508 -0.500555 0
M  V30 5677 O 513.906 -1.74708 -1.47273 0
M  V30 5678 C 514.116 -2.93143 1.89389 0
M  V30 5679 C 515.464 -3.65572 2.15968 0
M  V30 5680 O 516.488 -3.03184 1.86971 0
M  V30 5681 O 515.347 -4.77859 2.65167 0
M  V30 5682 H 512.441 -0.739708 0.369812 0
M  V30 5683 H 514.987 -1.03131 1.34767 0
M  V30 5684 H 513.759 -2.63327 2.89439 0
M  V30 5685 H 513.382 -3.67044 1.52854 0
M  V30 5686 N 514.379 -1.04941 -1.1758 0
M  V30 5687 C 515.342 -0.652456 -2.19717 0
M  V30 5688 C 516.342 0.294745 -1.58076 0
M  V30 5689 O 517.532 0.0789579 -1.74021 0
M  V30 5690 C 514.664 0.0420712 -3.40874 0
M  V30 5691 H 515.857 -1.55642 -2.5635 0
M  V30 5692 H 513.41 -0.842995 -1.31618 0
M  V30 5693 H 514.145 0.95943 -3.09783 0
M  V30 5694 H 513.93 -0.638844 -3.86861 0
M  V30 5695 H 515.42 0.306 -4.16477 0
M  V30 5696 N 515.857 1.33968 -0.830081 0
M  V30 5697 C 516.804 2.29387 -0.255008 0
M  V30 5698 C 517.774 1.53923 0.624243 0
M  V30 5699 O 518.959 1.82262 0.564372 0
M  V30 5700 C 516.099 3.4034 0.571209 0
M  V30 5701 C 515.212 4.30729 -0.331083 0
M  V30 5702 C 514.347 5.2879 0.505389 0
M  V30 5703 C 513.386 6.10819 -0.395843 0
M  V30 5704 N 512.523 7.00948 0.401979 0
M  V30 5705 H 517.363 2.77972 -1.07404 0
M  V30 5706 H 514.9 1.36785 -0.541133 0
M  V30 5707 H 516.858 4.03361 1.06562 0
M  V30 5708 H 515.488 2.9297 1.35529 0
M  V30 5709 H 514.54 3.68507 -0.943759 0
M  V30 5710 H 515.852 4.88181 -1.02377 0
M  V30 5711 H 515.006 5.97297 1.06399 0
M  V30 5712 H 513.745 4.71894 1.23155 0
M  V30 5713 H 512.75 5.41238 -0.966529 0
M  V30 5714 H 513.975 6.69797 -1.12023 0
M  V30 5715 H 511.921 6.46512 1.11168 0
M  V30 5716 H 511.838 7.55643 -0.232167 0
M  V30 5717 H 513.106 7.73774 0.943102 0
M  V30 5718 N 517.335 0.585699 1.46312 0
M  V30 5719 C 518.245 -0.148236 2.34131 0
M  V30 5720 C 519.261 -0.882972 1.49932 0
M  V30 5721 O 520.437 -0.845484 1.82794 0
M  V30 5722 C 517.502 -1.14714 3.27172 0
M  V30 5723 C 516.563 -0.416746 4.27272 0
M  V30 5724 C 515.796 -1.36806 5.15868 0
M  V30 5725 O 516.019 -2.60475 5.07454 0
M  V30 5726 O 514.953 -0.877018 5.95476 0
M  V30 5727 H 518.779 0.572882 2.98248 0
M  V30 5728 H 516.364 0.346082 1.45336 0
M  V30 5729 H 518.246 -1.72303 3.84564 0
M  V30 5730 H 516.921 -1.84967 2.65648 0
M  V30 5731 H 515.828 0.201061 3.73559 0
M  V30 5732 H 517.161 0.244872 4.9159 0
M  V30 5733 N 518.813 -1.54241 0.323641 0
M  V30 5734 C 519.723 -2.28033 -0.551205 0
M  V30 5735 C 520.739 -1.32388 -1.12913 0
M  V30 5736 O 521.915 -1.65403 -1.14908 0
M  V30 5737 C 518.98 -3.02382 -1.69606 0
M  V30 5738 C 518.041 -4.13612 -1.14993 0
M  V30 5739 C 517.274 -4.84407 -2.24022 0
M  V30 5740 O 517.497 -4.54716 -3.44368 0
M  V30 5741 O 516.431 -5.71312 -1.89436 0
M  V30 5742 H 520.257 -3.03662 0.048066 0
M  V30 5743 H 517.842 -1.49133 0.0893289 0
M  V30 5744 H 519.724 -3.48941 -2.36259 0
M  V30 5745 H 518.399 -2.29628 -2.28151 0
M  V30 5746 H 517.306 -3.71402 -0.448484 0
M  V30 5747 H 518.639 -4.8841 -0.609608 0
M  V30 5748 N 520.291 -0.0518155 -1.57515 0
M  V30 5749 C 521.54 0.621286 -1.91893 0
M  V30 5750 C 521.853 1.71966 -0.932052 0
M  V30 5751 O 523.059 2.45096 -1.16791 0
M  V30 5752 C 521.515 1.15641 -3.40816 0
M  V30 5753 C 521.123 0.0901146 -4.47909 0
M  V30 5754 C 522.867 1.80472 -3.84227 0
M  V30 5755 C 520.774 0.638154 -5.87947 0
M  V30 5756 H 519.704 0.235835 -0.716169 0
M  V30 5757 H 522.355 -0.120809 -1.83102 0
M  V30 5758 H 520.737 1.95084 -3.44613 0
M  V30 5759 H 521.911 -0.683525 -4.55702 0
M  V30 5760 H 520.226 -0.460774 -4.13843 0
M  V30 5761 H 522.823 2.22471 -4.86221 0
M  V30 5762 H 523.166 2.65669 -3.20508 0
M  V30 5763 H 523.699 1.07683 -3.82948 0
M  V30 5764 H 520.438 -0.176202 -6.55263 0
M  V30 5765 H 519.958 1.37976 -5.83714 0
M  V30 5766 H 521.637 1.12085 -6.37217 0
M  V30 5767 N 521.769 1.56035 0.221574 0
M  V30 5768 C 522.699 1.95434 1.2778 0
M  V30 5769 C 523.68 0.822564 1.48889 0
M  V30 5770 O 524.865 1.08486 1.61072 0
M  V30 5771 C 521.995 2.27102 2.62759 0
M  V30 5772 C 520.949 3.4277 2.56306 0
M  V30 5773 C 520.275 3.60043 3.95314 0
M  V30 5774 C 521.575 4.77742 2.11093 0
M  V30 5775 H 523.269 2.83912 0.950504 0
M  V30 5776 H 520.815 1.36596 0.455791 0
M  V30 5777 H 522.768 2.53256 3.36807 0
M  V30 5778 H 521.492 1.35478 2.97176 0
M  V30 5779 H 520.151 3.16664 1.84715 0
M  V30 5780 H 519.799 2.65794 4.27039 0
M  V30 5781 H 519.499 4.37841 3.91879 0
M  V30 5782 H 521.023 3.88545 4.71025 0
M  V30 5783 H 522.437 5.03102 2.74885 0
M  V30 5784 H 520.834 5.58823 2.18716 0
M  V30 5785 H 521.904 4.731 1.06321 0
M  V30 5786 N 523.247 -0.488276 1.49845 0
M  V30 5787 C 524.179 -1.60539 1.63584 0
M  V30 5788 C 525.192 -1.5434 0.517972 0
M  V30 5789 O 526.381 -1.60041 0.790516 0
M  V30 5790 C 523.481 -2.99374 1.58835 0
M  V30 5791 C 522.654 -3.30624 2.86368 0
M  V30 5792 C 521.713 -4.4893 2.74496 0
M  V30 5793 O 520.739 -4.50085 3.48443 0
M  V30 5794 N 521.941 -5.49591 1.86894 0
M  V30 5795 H 524.706 -1.49176 2.59936 0
M  V30 5796 H 522.267 -0.67639 1.47094 0
M  V30 5797 H 524.259 -3.76459 1.48529 0
M  V30 5798 H 522.829 -3.04595 0.702892 0
M  V30 5799 H 522.049 -2.42314 3.1093 0
M  V30 5800 H 523.337 -3.48305 3.70892 0
M  V30 5801 H 522.735 -5.51467 1.26097 0
M  V30 5802 H 521.292 -6.25728 1.82503 0
M  V30 5803 N 524.725 -1.39134 -0.740242 0
M  V30 5804 C 526.136 -1.32208 -1.31825 0
M  V30 5805 C 526.487 0.0159919 -1.96193 0
M  V30 5806 O 525.612 0.918111 -1.95958 0
M  V30 5807 C 526.207 -2.39436 -2.39699 0
M  V30 5808 C 524.766 -2.36048 -2.93187 0
M  V30 5809 C 523.913 -2.21599 -1.66701 0
M  V30 5810 H 526.864 -1.49298 -0.538133 0
M  V30 5811 H 526.885 -2.05922 -3.19963 0
M  V30 5812 H 526.397 -3.36811 -1.92821 0
M  V30 5813 H 524.498 -1.42295 -3.44359 0
M  V30 5814 H 524.611 -3.30704 -3.46658 0
M  V30 5815 H 522.975 -1.68681 -1.90837 0
M  V30 5816 H 523.758 -3.20936 -1.21882 0
M  V30 5817 N 526.204 0.969867 -1.24223 0
M  V30 5818 C 527.615 1.52717 -1.07399 0
M  V30 5819 C 527.966 1.92956 0.355298 0
M  V30 5820 O 527.091 1.77112 1.2434 0
M  V30 5821 C 527.686 2.77521 -1.94339 0
M  V30 5822 C 526.245 3.29615 -1.81744 0
M  V30 5823 C 525.392 2.02537 -1.89405 0
M  V30 5824 H 528.343 0.788399 -1.37732 0
M  V30 5825 H 528.364 3.50773 -1.47439 0
M  V30 5826 H 527.876 2.48203 -2.98357 0
M  V30 5827 H 525.977 3.63789 -0.805505 0
M  V30 5828 H 526.09 3.98661 -2.65718 0
M  V30 5829 H 524.454 2.17151 -1.33108 0
M  V30 5830 H 525.237 1.75587 -2.94999 0
M  V30 5831 N 527.682 1.05563 1.17022 0
M  V30 5832 C 528.592 0.670758 2.24807 0
M  V30 5833 C 529.608 -0.309865 1.71219 0
M  V30 5834 O 530.784 -0.161025 2.00755 0
M  V30 5835 C 527.849 0.055337 3.46656 0
M  V30 5836 C 526.91 1.08688 4.15314 0
M  V30 5837 C 526.143 0.500736 5.31346 0
M  V30 5838 O 526.366 -0.688718 5.66227 0
M  V30 5839 O 525.3 1.23683 5.89055 0
M  V30 5840 H 529.126 1.56914 2.60023 0
M  V30 5841 H 526.711 0.827428 1.24395 0
M  V30 5842 H 528.593 -0.286492 4.20425 0
M  V30 5843 H 527.268 -0.816638 3.13229 0
M  V30 5844 H 526.175 1.48077 3.43546 0
M  V30 5845 H 527.508 1.93014 4.52777 0
M  V30 5846 N 529.16 -1.33526 0.837174 0
M  V30 5847 C 530.571 -1.80182 0.489017 0
M  V30 5848 C 530.922 -1.69285 -0.991826 0
M  V30 5849 O 530.047 -1.24113 -1.77271 0
M  V30 5850 C 530.642 -3.27149 0.880866 0
M  V30 5851 C 529.201 -3.71828 0.584872 0
M  V30 5852 C 528.348 -2.54974 1.09011 0
M  V30 5853 H 531.299 -1.21071 1.02603 0
M  V30 5854 H 531.32 -3.80024 0.190239 0
M  V30 5855 H 530.832 -3.35048 1.95869 0
M  V30 5856 H 528.933 -3.69457 -0.48295 0
M  V30 5857 H 529.046 -4.65366 1.13892 0
M  V30 5858 H 527.41 -2.4952 0.511047 0
M  V30 5859 H 528.193 -2.65637 2.17467 0
M  V30 5860 N 530.638 -0.59345 -1.46 0
M  V30 5861 C 531.588 0.154751 -2.27474 0
M  V30 5862 C 532.572 0.851849 -1.365 0
M  V30 5863 O 533.764 0.744171 -1.60596 0
M  V30 5864 C 530.893 1.16079 -3.2308 0
M  V30 5865 C 529.979 0.465256 -4.2154 0
M  V30 5866 N 530.37 -0.485197 -5.03467 0
M  V30 5867 C 528.668 0.714634 -4.40237 0
M  V30 5868 C 529.369 -0.892709 -5.74809 0
M  V30 5869 N 528.345 -0.239511 -5.43072 0
M  V30 5870 H 532.147 -0.57546 -2.88211 0
M  V30 5871 H 529.661 -0.416046 -1.5698 0
M  V30 5872 H 531.658 1.71108 -3.80168 0
M  V30 5873 H 530.318 1.89171 -2.63903 0
M  V30 5874 H 531.329 -0.861258 -5.10689 0
M  V30 5875 H 528.006 1.43131 -3.92199 0
M  V30 5876 H 529.396 -1.67581 -6.50666 0
M  V30 5877 N 532.116 1.54067 -0.331816 0
M  V30 5878 C 533.527 1.86059 0.15454 0
M  V30 5879 C 533.878 1.25331 1.50952 0
M  V30 5880 O 533.003 0.562441 2.08963 0
M  V30 5881 C 533.598 3.37581 0.287192 0
M  V30 5882 C 532.157 3.69493 0.717773 0
M  V30 5883 C 531.304 2.76863 -0.155569 0
M  V30 5884 H 534.255 1.48797 -0.55182 0
M  V30 5885 H 534.276 3.63744 1.11671 0
M  V30 5886 H 533.788 3.81751 -0.699131 0
M  V30 5887 H 531.889 3.3086 1.71354 0
M  V30 5888 H 532.002 4.76315 0.5158 0
M  V30 5889 H 530.366 2.51995 0.370213 0
M  V30 5890 H 531.149 3.23861 -1.13881 0
M  V30 5891 N 533.594 0.0601682 1.57485 0
M  V30 5892 C 534.84 -0.612501 1.93329 0
M  V30 5893 C 535.173 -1.6996 0.939526 0
M  V30 5894 O 534.448 -1.94472 -0.0330957 0
M  V30 5895 C 534.731 -1.20025 3.39508 0
M  V30 5896 C 534.584 -0.12059 4.49638 0
M  V30 5897 C 535.903 -2.10923 3.86264 0
M  V30 5898 H 533.022 -0.221185 0.703027 0
M  V30 5899 H 535.664 0.123768 1.89596 0
M  V30 5900 H 533.814 -1.82774 3.42821 0
M  V30 5901 H 535.486 0.51185 4.58452 0
M  V30 5902 H 533.729 0.550251 4.30296 0
M  V30 5903 H 534.4 -0.572019 5.49028 0
M  V30 5904 H 536.876 -1.58124 3.84884 0
M  V30 5905 H 535.752 -2.48987 4.8918 0
M  V30 5906 H 536.013 -3.01292 3.23536 0
M  V30 5907 N 535.072 -1.5615 -0.213296 0
M  V30 5908 C 536.483 -1.69645 -0.779582 0
M  V30 5909 C 536.834 -0.663615 -1.84636 0
M  V30 5910 O 535.959 0.183633 -2.15619 0
M  V30 5911 C 536.554 -3.07567 -1.42084 0
M  V30 5912 C 535.113 -3.22889 -1.93442 0
M  V30 5913 C 534.26 -2.65581 -0.797612 0
M  V30 5914 H 537.211 -1.58696 0.0114951 0
M  V30 5915 H 537.232 -3.03884 -2.28986 0
M  V30 5916 H 536.744 -3.82716 -0.644187 0
M  V30 5917 H 534.845 -2.52623 -2.73884 0
M  V30 5918 H 534.958 -4.30197 -2.10872 0
M  V30 5919 H 533.322 -2.24278 -1.20712 0
M  V30 5920 H 534.105 -3.43284 -0.033494 0
M  V30 5921 N 536.55 0.480323 -1.50102 0
M  V30 5922 C 537.961 1.06142 -1.53593 0
M  V30 5923 C 538.312 1.93335 -0.334055 0
M  V30 5924 O 537.437 2.09188 0.55403 0
M  V30 5925 C 538.032 1.9317 -2.78336 0
M  V30 5926 C 536.591 2.46405 -2.84538 0
M  V30 5927 C 535.738 1.24521 -2.4777 0
M  V30 5928 H 538.689 0.26333 -1.565 0
M  V30 5929 H 538.71 2.78123 -2.59669 0
M  V30 5930 H 538.222 1.29683 -3.65792 0
M  V30 5931 H 536.323 3.13472 -2.01411 0
M  V30 5932 H 536.436 2.82143 -3.87211 0
M  V30 5933 H 534.8 1.57706 -2.00003 0
M  V30 5934 H 535.583 0.627102 -3.37524 0
M  V30 5935 N 538.028 1.39524 0.732853 0
M  V30 5936 C 539.277 1.36175 1.48792 0
M  V30 5937 C 539.59 -0.0388195 1.95561 0
M  V30 5938 O 540.796 -0.194899 2.708 0
M  V30 5939 C 539.252 2.39242 2.68871 0
M  V30 5940 C 538.86 3.85024 2.29042 0
M  V30 5941 C 540.604 2.44972 3.46683 0
M  V30 5942 C 538.511 4.79727 3.45856 0
M  V30 5943 H 537.441 0.506267 0.558757 0
M  V30 5944 H 540.092 1.65181 0.799226 0
M  V30 5945 H 538.474 2.0331 3.39825 0
M  V30 5946 H 539.648 4.30008 1.6562 0
M  V30 5947 H 537.963 3.82609 1.64316 0
M  V30 5948 H 540.56 3.12918 4.33574 0
M  V30 5949 H 540.903 1.4749 3.89297 0
M  V30 5950 H 541.436 2.79808 2.82759 0
M  V30 5951 H 538.175 5.78479 3.08289 0
M  V30 5952 H 537.695 4.39421 4.08251 0
M  V30 5953 H 539.374 4.98731 4.12161 0
M  V30 5954 N 539.506 -0.963266 1.24736 0
M  V30 5955 C 540.436 -2.07628 1.06832 0
M  V30 5956 C 541.417 -1.70088 -0.0200566 0
M  V30 5957 O 542.602 -1.93636 0.147854 0
M  V30 5958 C 539.732 -3.40636 0.677069 0
M  V30 5959 C 538.686 -3.9215 1.71471 0
M  V30 5960 C 538.012 -5.21553 1.1784 0
M  V30 5961 C 539.312 -4.19493 3.11164 0
M  V30 5962 H 541.006 -2.22864 1.9993 0
M  V30 5963 H 538.552 -1.07093 0.96266 0
M  V30 5964 H 540.505 -4.17941 0.538792 0
M  V30 5965 H 539.229 -3.25313 -0.289612 0
M  V30 5966 H 537.888 -3.17005 1.84128 0
M  V30 5967 H 537.536 -5.02593 0.202195 0
M  V30 5968 H 537.236 -5.56988 1.87185 0
M  V30 5969 H 538.76 -6.01463 1.05233 0
M  V30 5970 H 540.174 -4.87487 3.01711 0
M  V30 5971 H 538.571 -4.66165 3.77902 0
M  V30 5972 H 539.641 -3.26097 3.58871 0
M  V30 5973 N 540.985 -1.06182 -1.16461 0
M  V30 5974 C 542.213 -0.798583 -1.90867 0
M  V30 5975 C 542.628 0.646921 -1.77371 0
M  V30 5976 O 541.985 1.44279 -1.11758 0
M  V30 5977 C 542.036 -1.18258 -3.4161 0
M  V30 5978 O 541.757 -2.57135 -3.54701 0
M  V30 5979 C 543.258 -0.946917 -4.33069 0
M  V30 5980 H 540.478 -0.289603 -0.605286 0
M  V30 5981 H 543.022 -1.41515 -1.47627 0
M  V30 5982 H 541.177 -0.610562 -3.82558 0
M  V30 5983 H 541.591 -2.72477 -4.4817 0
M  V30 5984 H 543.065 -1.26523 -5.37304 0
M  V30 5985 H 543.542 0.117406 -4.39043 0
M  V30 5986 H 544.148 -1.50326 -3.97847 0
M  V30 5987 N 542.463 1.3308 -0.844243 0
M  V30 5988 C 543.874 1.7992 -0.498566 0
M  V30 5989 C 544.225 1.69808 0.982834 0
M  V30 5990 O 543.35 1.25051 1.7661 0
M  V30 5991 C 543.945 3.26677 -0.898204 0
M  V30 5992 C 542.504 3.71513 -0.604583 0
M  V30 5993 C 541.651 2.54393 -1.10362 0
M  V30 5994 H 544.602 1.20526 -1.03244 0
M  V30 5995 H 544.623 3.79918 -0.21039 0
M  V30 5996 H 544.135 3.34004 -1.97643 0
M  V30 5997 H 542.236 3.69708 0.46335 0
M  V30 5998 H 542.349 4.64755 -1.16358 0
M  V30 5999 H 540.713 2.49246 -0.524273 0
M  V30 6000 H 541.496 2.6448 -2.18873 0
M  V30 6001 N 543.941 0.601185 1.45683 0
M  V30 6002 C 545.166 0.0982245 2.07167 0
M  V30 6003 C 545.591 -1.20546 1.44396 0
M  V30 6004 O 544.949 -1.73247 0.534347 0
M  V30 6005 C 544.997 -0.0346976 3.60583 0
M  V30 6006 O 544.101 -1.08657 3.97828 0
M  V30 6007 H 543.442 0.0711618 0.660176 0
M  V30 6008 H 545.972 0.829376 1.87036 0
M  V30 6009 H 545.982 -0.234969 4.07323 0
M  V30 6010 H 544.657 0.917265 4.05659 0
M  V30 6011 H 543.234 -0.863275 3.6277 0
M  V30 6012 N 545.419 -1.53889 0.339982 0
M  V30 6013 C 546.83 -1.86139 -0.144671 0
M  V30 6014 C 547.181 -1.2613 -1.50285 0
M  V30 6015 O 546.306 -0.573515 -2.08662 0
M  V30 6016 C 546.901 -3.37728 -0.269285 0
M  V30 6017 C 545.46 -3.69868 -0.698168 0
M  V30 6018 C 544.607 -2.76777 0.170249 0
M  V30 6019 H 547.558 -1.48503 0.559704 0
M  V30 6020 H 547.579 -3.64331 -1.0974 0
M  V30 6021 H 547.091 -3.81375 0.719366 0
M  V30 6022 H 545.192 -3.31764 -1.69597 0
M  V30 6023 H 545.305 -4.76582 -0.490533 0
M  V30 6024 H 543.669 -2.52188 -0.356844 0
M  V30 6025 H 544.452 -3.23253 1.15597 0
M  V30 6026 N 546.897 -0.0685191 -1.57451 0
M  V30 6027 C 548.308 0.464634 -1.80826 0
M  V30 6028 C 548.659 1.69847 -0.982169 0
M  V30 6029 O 547.784 2.15439 -0.203734 0
M  V30 6030 C 548.379 0.849721 -3.27971 0
M  V30 6031 C 546.938 1.32776 -3.52204 0
M  V30 6032 C 546.085 0.311332 -2.75547 0
M  V30 6033 H 549.036 -0.294248 -1.55948 0
M  V30 6034 H 549.057 1.71138 -3.39841 0
M  V30 6035 H 548.569 -0.0484736 -3.8807 0
M  V30 6036 H 546.67 2.24456 -2.97406 0
M  V30 6037 H 546.783 1.30794 -4.60901 0
M  V30 6038 H 545.147 0.787915 -2.42206 0
M  V30 6039 H 545.93 -0.579078 -3.38381 0
M  V30 6040 N 548.375 1.56261 0.205012 0
M  V30 6041 C 549.6 1.84491 0.947512 0
M  V30 6042 C 550.025 0.650894 1.76479 0
M  V30 6043 O 549.383 -0.40035 1.76824 0
M  V30 6044 C 549.431 3.10863 1.82747 0
M  V30 6045 O 548.535 2.90719 2.925 0
M  V30 6046 H 547.876 0.607783 0.267386 0
M  V30 6047 H 550.406 2.03485 0.213323 0
M  V30 6048 H 550.416 3.41399 2.23407 0
M  V30 6049 H 549.091 3.97392 1.2269 0
M  V30 6050 H 547.668 2.71457 2.55667 0
M  V30 6051 N 549.853 -0.472356 1.50355 0
M  V30 6052 C 550.816 -1.5529 1.68576 0
M  V30 6053 C 551.816 -1.50863 0.556511 0
M  V30 6054 O 553.006 -1.53505 0.823516 0
M  V30 6055 C 550.138 -2.94921 1.70981 0
M  V30 6056 H 551.331 -1.40451 2.64978 0
M  V30 6057 H 548.884 -0.698645 1.39816 0
M  V30 6058 H 549.619 -3.15204 0.762675 0
M  V30 6059 H 549.404 -2.99541 2.53017 0
M  V30 6060 H 550.894 -3.73372 1.87037 0
M  V30 6061 N 551.331 -1.39911 -0.725443 0
M  V30 6062 C 552.578 -1.37654 -1.48518 0
M  V30 6063 C 552.906 0.0243982 -1.94485 0
M  V30 6064 O 552.161 1.00708 -1.67799 0
M  V30 6065 C 552.46 -2.30368 -2.7325 0
M  V30 6066 C 552.126 -3.77817 -2.461 0
M  V30 6067 C 550.788 -4.17991 -2.38405 0
M  V30 6068 C 553.14 -4.71036 -2.23103 0
M  V30 6069 C 550.468 -5.49433 -2.05768 0
M  V30 6070 C 552.82 -6.02766 -1.9198 0
M  V30 6071 C 551.484 -6.41993 -1.82761 0
M  V30 6072 H 550.754 -0.503713 -0.543465 0
M  V30 6073 H 553.401 -1.7249 -0.831822 0
M  V30 6074 H 551.706 -1.88683 -3.43375 0
M  V30 6075 H 553.403 -2.2591 -3.31309 0
M  V30 6076 H 549.993 -3.45982 -2.52972 0
M  V30 6077 H 554.177 -4.40823 -2.2801 0
M  V30 6078 H 549.433 -5.78738 -1.9716 0
M  V30 6079 H 553.607 -6.74519 -1.73197 0
M  V30 6080 H 551.234 -7.43761 -1.57237 0
M  V30 6081 N 552.809 0.956637 -1.25245 0
M  V30 6082 C 554.22 1.51569 -1.09012 0
M  V30 6083 C 554.571 1.93322 0.334813 0
M  V30 6084 O 553.696 1.78421 1.22454 0
M  V30 6085 C 554.291 2.75444 -1.97271 0
M  V30 6086 C 552.85 3.27669 -1.8523 0
M  V30 6087 C 551.997 2.00517 -1.91542 0
M  V30 6088 H 554.948 0.773746 -1.3856 0
M  V30 6089 H 554.969 3.4919 -1.51151 0
M  V30 6090 H 554.481 2.45024 -3.00973 0
M  V30 6091 H 552.582 3.62914 -0.844045 0
M  V30 6092 H 552.695 3.9582 -2.69932 0
M  V30 6093 H 551.059 2.15727 -1.35404 0
M  V30 6094 H 551.842 1.72448 -2.96844 0
M  V30 6095 N 554.287 1.06798 1.15896 0
M  V30 6096 C 555.515 0.808694 1.90441 0
M  V30 6097 C 555.93 -0.637506 1.77711 0
M  V30 6098 O 555.287 -1.43684 1.12522 0
M  V30 6099 C 555.338 1.20068 3.40978 0
M  V30 6100 O 555.059 2.59013 3.53333 0
M  V30 6101 C 556.56 0.96987 4.3256 0
M  V30 6102 H 553.78 0.292809 0.603742 0
M  V30 6103 H 556.324 1.42296 1.46874 0
M  V30 6104 H 554.479 0.630842 3.82229 0
M  V30 6105 H 554.893 2.7485 4.46719 0
M  V30 6106 H 556.367 1.29371 5.36626 0
M  V30 6107 H 556.844 -0.0941209 4.39099 0
M  V30 6108 H 557.45 1.52433 3.97044 0
M  V30 6109 N 555.766 -1.3263 0.851289 0
M  V30 6110 C 557.012 -1.9766 0.453694 0
M  V30 6111 C 557.345 -1.67225 -0.987396 0
M  V30 6112 O 556.62 -0.958693 -1.69232 0
M  V30 6113 C 556.903 -3.5344 0.68936 0
M  V30 6114 C 556.756 -3.93517 2.17862 0
M  V30 6115 C 558.075 -4.39866 0.143555 0
M  V30 6116 H 555.194 -0.717989 0.166314 0
M  V30 6117 H 557.836 -1.57068 1.06909 0
M  V30 6118 H 555.986 -3.88147 0.165546 0
M  V30 6119 H 557.658 -3.69006 2.76826 0
M  V30 6120 H 555.901 -3.42798 2.65841 0
M  V30 6121 H 556.572 -5.02065 2.29422 0
M  V30 6122 H 559.048 -4.11875 0.591451 0
M  V30 6123 H 557.924 -5.47858 0.338043 0
M  V30 6124 H 558.185 -4.31696 -0.953466 0
M  V30 6125 N 557.244 -0.608902 -1.45362 0
M  V30 6126 C 558.472 -0.111013 -2.06602 0
M  V30 6127 C 558.887 1.20516 -1.45332 0
M  V30 6128 O 558.244 1.73437 -0.567978 0
M  V30 6129 C 558.295 0.033688 -3.61484 0
M  V30 6130 O 558.016 -1.23041 -4.20467 0
M  V30 6131 C 559.517 0.562882 -4.39712 0
M  V30 6132 H 556.737 -0.0694453 -0.667397 0
M  V30 6133 H 559.281 -0.837008 -1.86586 0
M  V30 6134 H 557.436 0.710016 -3.80838 0
M  V30 6135 H 557.85 -1.06094 -5.13658 0
M  V30 6136 H 559.324 0.613213 -5.48583 0
M  V30 6137 H 559.801 1.58543 -4.09586 0
M  V30 6138 H 560.407 -0.0794454 -4.25226 0
M  V30 6139 N 558.722 1.53707 -0.348139 0
M  V30 6140 C 559.95 2.05406 0.248224 0
M  V30 6141 C 560.365 1.22282 1.43849 0
M  V30 6142 O 559.722 0.259244 1.80649 0
M  V30 6143 C 559.773 3.55446 0.658793 0
M  V30 6144 O 559.494 4.35417 -0.484149 0
M  V30 6145 C 560.995 4.23335 1.31539 0
M  V30 6146 H 558.215 0.669344 0.0471075 0
M  V30 6147 H 560.759 1.98257 -0.501456 0
M  V30 6148 H 558.914 3.62803 1.35841 0
M  V30 6149 H 559.328 5.24268 -0.155949 0
M  V30 6150 H 560.802 5.29692 1.55338 0
M  V30 6151 H 561.279 3.75967 2.27036 0
M  V30 6152 H 561.885 4.20184 0.657683 0
M  V30 6153 N 560.2 0.0768682 1.57412 0
M  V30 6154 C 561.446 -0.591961 1.93968 0
M  V30 6155 C 561.779 -1.68954 0.9575 0
M  V30 6156 O 561.054 -1.94496 -0.0124675 0
M  V30 6157 C 561.337 -1.16418 3.40762 0
M  V30 6158 C 561.19 -0.0728933 4.49741 0
M  V30 6159 C 562.509 -2.06814 3.88479 0
M  V30 6160 H 559.628 -0.213716 0.705333 0
M  V30 6161 H 562.27 0.14387 1.89455 0
M  V30 6162 H 560.42 -1.79128 3.4474 0
M  V30 6163 H 562.092 0.560446 4.57883 0
M  V30 6164 H 560.335 0.595859 4.29688 0
M  V30 6165 H 561.006 -0.513755 5.49604 0
M  V30 6166 H 563.482 -1.54033 3.8654 0
M  V30 6167 H 562.358 -2.43785 4.91793 0
M  V30 6168 H 562.619 -2.97844 3.26713 0
M  V30 6169 N 561.678 -1.56367 -0.196722 0
M  V30 6170 C 562.924 -1.81698 -0.914182 0
M  V30 6171 C 563.279 -0.65367 -1.80956 0
M  V30 6172 O 562.572 0.351224 -1.88353 0
M  V30 6173 C 562.766 -3.10663 -1.767 0
M  V30 6174 C 562.595 -4.39428 -0.955689 0
M  V30 6175 C 561.365 -5.01221 -0.64076 0
M  V30 6176 C 563.563 -5.1337 -0.309165 0
M  V30 6177 N 561.545 -6.13608 0.189358 0
M  V30 6178 C 562.916 -6.18815 0.383225 0
M  V30 6179 C 564.971 -4.97393 -0.224726 0
M  V30 6180 C 563.674 -7.10015 1.15201 0
M  V30 6181 C 565.7 -5.89014 0.530658 0
M  V30 6182 C 565.062 -6.93903 1.2115 0
M  V30 6183 H 561.161 -0.716203 -0.31397 0
M  V30 6184 H 563.745 -1.93838 -0.18304 0
M  V30 6185 H 561.916 -2.99762 -2.46976 0
M  V30 6186 H 563.648 -3.24088 -2.42382 0
M  V30 6187 H 560.403 -4.63669 -0.96479 0
M  V30 6188 H 560.827 -6.74389 0.593979 0
M  V30 6189 H 565.469 -4.16331 -0.736754 0
M  V30 6190 H 563.187 -7.9054 1.67547 0
M  V30 6191 H 566.773 -5.78726 0.597326 0
M  V30 6192 H 565.653 -7.63576 1.78665 0
M  V30 6193 N 563.156 0.464375 -1.50603 0
M  V30 6194 C 564.088 1.57916 -1.66118 0
M  V30 6195 C 565.101 1.53497 -0.54246 0
M  V30 6196 O 566.29 1.58763 -0.815877 0
M  V30 6197 C 563.39 2.96809 -1.63577 0
M  V30 6198 C 562.563 3.26026 -2.91592 0
M  V30 6199 C 561.622 4.44506 -2.81604 0
M  V30 6200 O 560.648 4.44484 -3.55559 0
M  V30 6201 N 561.85 5.46549 -1.95614 0
M  V30 6202 H 564.615 1.45022 -2.62276 0
M  V30 6203 H 562.176 0.652903 -1.48151 0
M  V30 6204 H 564.168 3.74048 -1.54499 0
M  V30 6205 H 562.738 3.03438 -0.751262 0
M  V30 6206 H 561.958 2.37337 -3.14746 0
M  V30 6207 H 563.246 3.42361 -3.76386 0
M  V30 6208 H 562.644 5.49391 -1.34854 0
M  V30 6209 H 561.201 6.22746 -1.92435 0
M  V30 6210 N 564.634 1.40294 0.718013 0
M  V30 6211 C 565.911 1.2894 1.47084 0
M  V30 6212 C 566.291 -0.0933625 2.10893 0
M  V30 6213 O 565.639 -1.10598 1.99951 0
M  V30 6214 C 565.849 2.4264 2.50852 0
M  V30 6215 C 567.197 2.8276 3.16752 0
M  V30 6216 O 568.221 2.42215 2.61171 0
M  V30 6217 O 567.08 3.528 4.17366 0
M  V30 6218 H 564.174 0.506236 0.653952 0
M  V30 6219 H 566.72 1.52208 0.750394 0
M  V30 6220 H 565.492 3.35009 2.022 0
M  V30 6221 H 565.115 2.21129 3.30435 0
M  V30 6222 N 566.112 -0.949982 1.2575 0
M  V30 6223 C 567.06 -2.06869 1.06339 0
M  V30 6224 C 568.054 -1.69399 -0.00708901 0
M  V30 6225 O 569.26 -1.79383 0.148897 0
M  V30 6226 H 565.635 -0.677197 0.326969 0
M  V30 6227 H 567.606 -2.20396 2.01167 0
M  V30 6228 C 566.355 -3.40503 0.703769 0
M  V30 6229 H 565.678 -3.69807 1.51931 0
M  V30 6230 H 567.118 -4.19623 0.607677 0
M  V30 6231 C 565.577 -3.31685 -0.5905 0
M  V30 6232 O 566.107 -3.67085 -1.63131 0
M  V30 6233 N 564.313 -2.84797 -0.577859 0
M  V30 6234 H 563.86 -2.56186 0.26951 0
M  V30 6235 H 563.818 -2.79279 -1.44398 0
M  V30 6236 N 567.59 -1.07411 -1.15328 0
M  V30 6237 C 568.867 -0.710732 -1.82231 0
M  V30 6238 C 569.247 0.806732 -1.95077 0
M  V30 6239 O 568.595 1.72139 -1.50268 0
M  V30 6240 C 568.805 -1.42586 -3.18544 0
M  V30 6241 C 570.153 -1.57836 -3.94174 0
M  V30 6242 O 571.177 -1.38669 -3.281 0
M  V30 6243 O 570.036 -1.8938 -5.12638 0
M  V30 6244 H 567.13 -0.25297 -0.78736 0
M  V30 6245 H 569.676 -1.17508 -1.22434 0
M  V30 6246 H 568.448 -2.46008 -3.04296 0
M  V30 6247 H 568.071 -0.952332 -3.86026 0
M  V30 6248 N 569.068 1.32177 -0.85831 0
M  V30 6249 C 570.484 1.49873 -0.548656 0
M  V30 6250 C 570.684 1.79278 0.919874 0
M  V30 6251 O 569.74 1.86451 1.70271 0
M  V30 6252 C 571.053 2.64043 -1.4388 0
M  V30 6253 C 572.601 2.77928 -1.43961 0
M  V30 6254 C 573.076 3.95182 -2.31506 0
M  V30 6255 N 574.567 4.0245 -2.29321 0
M  V30 6256 C 575.302 4.9242 -2.93786 0
M  V30 6257 N 574.798 5.87373 -3.67376 0
M  V30 6258 N 576.591 4.85572 -2.83155 0
M  V30 6259 H 568.742 1.11357 -1.80868 0
M  V30 6260 H 571.005 0.549175 -0.772729 0
M  V30 6261 H 570.711 2.49055 -2.48324 0
M  V30 6262 H 570.585 3.59912 -1.12885 0
M  V30 6263 H 572.972 2.92338 -0.402813 0
M  V30 6264 H 573.053 1.82762 -1.78974 0
M  V30 6265 H 572.697 3.81531 -3.35256 0
M  V30 6266 H 572.627 4.89633 -1.93823 0
M  V30 6267 H 575.118 3.34507 -1.75822 0
M  V30 6268 H 575.431 6.52728 -4.13722 0
M  V30 6269 H 573.776 5.87388 -3.71484 0
M  V30 6270 H 576.967 4.10363 -2.25211 0
M  V30 6271 H 577.14 5.55486 -3.33676 0
M  V30 6272 N 570.547 0.616602 1.45037 0
M  V30 6273 C 571.777 0.121791 2.06241 0
M  V30 6274 C 572.185 -1.20289 1.46038 0
M  V30 6275 O 571.528 -1.7456 0.572242 0
M  V30 6276 C 571.59 -0.0827345 3.59405 0
M  V30 6277 C 571.254 1.16153 4.41993 0
M  V30 6278 C 572.251 2.08183 4.76399 0
M  V30 6279 C 569.936 1.39288 4.82601 0
M  V30 6280 C 571.93 3.21668 5.5028 0
M  V30 6281 C 569.617 2.53073 5.56235 0
M  V30 6282 C 570.615 3.44091 5.89992 0
M  V30 6283 O 570.303 4.55894 6.6213 0
M  V30 6284 H 570.035 0.0701667 0.672349 0
M  V30 6285 H 572.589 0.846877 1.87129 0
M  V30 6286 H 570.819 -0.862812 3.76952 0
M  V30 6287 H 572.508 -0.530273 4.02421 0
M  V30 6288 H 573.274 1.91538 4.45576 0
M  V30 6289 H 569.153 0.693396 4.55755 0
M  V30 6290 H 572.697 3.92733 5.76547 0
M  V30 6291 H 568.594 2.69667 5.86472 0
M  V30 6292 H 569.362 4.5469 6.80587 0
M  V30 6293 N 572.025 -1.5352 0.356285 0
M  V30 6294 C 572.975 -2.22204 -0.510815 0
M  V30 6295 C 573.959 -1.21393 -1.05605 0
M  V30 6296 O 575.151 -1.46883 -0.987639 0
M  V30 6297 C 572.28 -3.00786 -1.65478 0
M  V30 6298 C 571.366 -4.08965 -1.12287 0
M  V30 6299 N 571.757 -5.04829 -0.313191 0
M  V30 6300 C 570.055 -4.23505 -1.39856 0
M  V30 6301 C 570.756 -5.81695 -0.0230322 0
M  V30 6302 N 569.732 -5.40074 -0.618144 0
M  V30 6303 H 573.534 -2.93676 0.114711 0
M  V30 6304 H 571.048 -1.61572 0.163811 0
M  V30 6305 H 573.045 -3.48502 -2.28806 0
M  V30 6306 H 571.705 -2.30843 -2.28345 0
M  V30 6307 H 572.716 -5.17879 0.0468202 0
M  V30 6308 H 569.393 -3.64786 -2.0307 0
M  V30 6309 H 570.783 -6.68931 0.630927 0
M  V30 6310 N 573.503 -0.0852151 -1.57369 0
M  V30 6311 C 574.914 0.445428 -1.81309 0
M  V30 6312 C 575.265 1.68795 -1.00013 0
M  V30 6313 O 574.39 2.15211 -0.226573 0
M  V30 6314 C 574.985 0.814887 -3.28854 0
M  V30 6315 C 573.544 1.29032 -3.53592 0
M  V30 6316 C 572.691 0.282089 -2.75861 0
M  V30 6317 H 575.642 -0.310771 -1.55627 0
M  V30 6318 H 575.663 1.67524 -3.41637 0
M  V30 6319 H 575.175 -0.0896309 -3.87996 0
M  V30 6320 H 573.276 2.21289 -2.9977 0
M  V30 6321 H 573.389 1.25898 -4.62262 0
M  V30 6322 H 571.753 0.762182 -2.43029 0
M  V30 6323 H 572.536 -0.614936 -3.37748 0
M  V30 6324 N 574.981 1.5647 0.188427 0
M  V30 6325 C 575.928 1.95073 1.23349 0
M  V30 6326 C 576.898 0.812238 1.44886 0
M  V30 6327 O 578.083 1.07095 1.57909 0
M  V30 6328 C 575.223 2.30124 2.57171 0
M  V30 6329 C 574.336 3.57069 2.43157 0
M  V30 6330 C 573.471 3.81411 3.69729 0
M  V30 6331 C 572.51 5.0176 3.50575 0
M  V30 6332 N 571.647 5.22321 4.69175 0
M  V30 6333 H 576.487 2.84171 0.89728 0
M  V30 6334 H 574.024 1.40623 0.431683 0
M  V30 6335 H 575.982 2.48463 3.35145 0
M  V30 6336 H 574.612 1.44159 2.88822 0
M  V30 6337 H 573.664 3.4674 1.56447 0
M  V30 6338 H 574.976 4.452 2.24942 0
M  V30 6339 H 574.13 4.00026 4.56141 0
M  V30 6340 H 572.869 2.91624 3.90905 0
M  V30 6341 H 571.874 4.83061 2.62549 0
M  V30 6342 H 573.099 5.93063 3.30837 0
M  V30 6343 H 571.045 4.35483 4.90602 0
M  V30 6344 H 570.962 6.04643 4.53809 0
M  V30 6345 H 572.23 5.45401 5.56919 0
M  V30 6346 N 576.459 -0.456382 1.50847 0
M  V30 6347 C 577.87 -1.03685 1.55262 0
M  V30 6348 C 578.221 -1.92779 0.364771 0
M  V30 6349 O 577.346 -2.10043 -0.52068 0
M  V30 6350 C 577.941 -1.88718 2.81374 0
M  V30 6351 C 576.5 -2.41847 2.88422 0
M  V30 6352 C 575.647 -1.20564 2.49719 0
M  V30 6353 H 578.598 -0.238399 1.56899 0
M  V30 6354 H 578.619 -2.73957 2.6406 0
M  V30 6355 H 578.131 -1.23847 3.67809 0
M  V30 6356 H 576.232 -3.10228 2.06372 0
M  V30 6357 H 576.345 -2.75947 3.9165 0
M  V30 6358 H 574.709 -1.54504 2.02486 0
M  V30 6359 H 575.492 -0.573326 3.38479 0
M  V30 6360 N 577.937 -1.40673 -0.710563 0
M  V30 6361 C 579.183 -1.39428 -1.47267 0
M  V30 6362 C 579.516 0.00182129 -1.942 0
M  V30 6363 O 578.791 0.971387 -1.68506 0
M  V30 6364 C 579.074 -2.38812 -2.6952 0
M  V30 6365 C 578.927 -3.87467 -2.28449 0
M  V30 6366 C 580.246 -2.3566 -3.71689 0
M  V30 6367 H 577.365 -0.507768 -0.534173 0
M  V30 6368 H 580.007 -1.71843 -0.810547 0
M  V30 6369 H 578.157 -2.113 -3.26013 0
M  V30 6370 H 579.829 -4.25825 -1.77399 0
M  V30 6371 H 578.072 -4.03058 -1.60395 0
M  V30 6372 H 578.743 -4.5253 -3.16103 0
M  V30 6373 H 581.219 -2.6004 -3.24836 0
M  V30 6374 H 580.095 -3.07237 -4.54859 0
M  V30 6375 H 580.356 -1.36996 -4.20339 0
M  V30 6376 N 579.415 0.9433 -1.26252 0
M  V30 6377 C 580.345 2.05902 -1.10122 0
M  V30 6378 C 581.326 1.70099 -0.00700552 0
M  V30 6379 O 582.511 1.93377 -0.178641 0
M  V30 6380 C 579.641 3.39516 -0.731175 0
M  V30 6381 C 578.595 3.89372 -1.77688 0
M  V30 6382 C 577.921 5.19613 -1.26122 0
M  V30 6383 C 579.221 4.14489 -3.17799 0
M  V30 6384 H 580.915 2.19655 -2.03451 0
M  V30 6385 H 578.461 1.05548 -0.979576 0
M  V30 6386 H 580.414 4.17031 -0.605215 0
M  V30 6387 H 579.138 3.25733 0.23782 0
M  V30 6388 H 577.797 3.14036 -1.89148 0
M  V30 6389 H 577.445 5.02208 -0.282128 0
M  V30 6390 H 577.145 5.53939 -1.96023 0
M  V30 6391 H 578.669 5.99713 -1.14789 0
M  V30 6392 H 580.083 4.82625 -3.09428 0
M  V30 6393 H 578.48 4.60094 -3.85271 0
M  V30 6394 H 579.55 3.20347 -3.64014 0
M  V30 6395 N 580.893 1.08022 1.14757 0
M  V30 6396 C 581.843 0.676345 2.17737 0
M  V30 6397 C 582.827 -0.302018 1.5804 0
M  V30 6398 O 584.019 -0.11466 1.76628 0
M  V30 6399 C 581.148 0.082984 3.432 0
M  V30 6400 C 580.234 1.0869 4.09936 0
M  V30 6401 N 580.625 2.26891 4.52055 0
M  V30 6402 C 578.923 0.921768 4.36371 0
M  V30 6403 C 579.624 2.90636 5.0389 0
M  V30 6404 N 578.6 2.18266 4.97856 0
M  V30 6405 H 582.402 1.5765 2.4804 0
M  V30 6406 H 579.916 0.954374 1.31398 0
M  V30 6407 H 581.913 -0.224289 4.16296 0
M  V30 6408 H 580.573 -0.812206 3.14378 0
M  V30 6409 H 581.584 2.6457 4.45223 0
M  V30 6410 H 578.261 0.0800499 4.17423 0
M  V30 6411 H 579.651 3.9104 5.46386 0
M  V30 6412 N 582.371 -1.3172 0.865308 0
M  V30 6413 C 583.304 -2.26687 0.262376 0
M  V30 6414 C 584.282 -1.50894 -0.605787 0
M  V30 6415 O 585.466 -1.79982 -0.56024 0
M  V30 6416 C 582.593 -3.3281 -0.628915 0
M  V30 6417 C 581.639 -4.26172 0.167278 0
M  V30 6418 S 582.472 -5.12797 1.54272 0
M  V30 6419 C 583.628 -6.22438 0.657427 0
M  V30 6420 H 583.861 -2.77478 1.0674 0
M  V30 6421 H 581.394 -1.39414 0.663555 0
M  V30 6422 H 583.352 -3.94426 -1.13747 0
M  V30 6423 H 582.013 -2.80782 -1.40785 0
M  V30 6424 H 581.206 -5.01392 -0.51203 0
M  V30 6425 H 580.808 -3.69029 0.607777 0
M  V30 6426 H 583.1 -6.77368 -0.133925 0
M  V30 6427 H 584.043 -6.9451 1.38061 0
M  V30 6428 H 584.451 -5.64043 0.227044 0
M  V30 6429 N 583.85 -0.624285 -1.44708 0
M  V30 6430 C 585.096 -0.126237 -2.02407 0
M  V30 6431 C 585.428 1.24618 -1.48943 0
M  V30 6432 O 584.704 1.82569 -0.670742 0
M  V30 6433 C 584.986 -0.105449 -3.59946 0
M  V30 6434 C 584.84 -1.50972 -4.23707 0
M  V30 6435 C 586.159 0.573629 -4.36346 0
M  V30 6436 H 583.278 -0.0473472 -0.735478 0
M  V30 6437 H 585.92 -0.799452 -1.72362 0
M  V30 6438 H 584.07 0.46783 -3.85673 0
M  V30 6439 H 585.742 -2.13136 -4.0911 0
M  V30 6440 H 583.985 -2.0656 -3.81465 0
M  V30 6441 H 584.656 -1.44727 -5.32689 0
M  V30 6442 H 587.132 0.0861787 -4.16011 0
M  V30 6443 H 586.008 0.557338 -5.46063 0
M  V30 6444 H 586.269 1.64276 -4.10446 0
M  V30 6445 N 585.328 1.53329 -0.364422 0
M  V30 6446 C 586.553 2.06132 0.229033 0
M  V30 6447 C 586.978 1.23625 1.41769 0
M  V30 6448 O 586.336 0.255038 1.79497 0
M  V30 6449 C 586.384 3.55544 0.60174 0
M  V30 6450 O 585.488 3.75771 1.69912 0
M  V30 6451 H 584.829 0.663148 0.0336213 0
M  V30 6452 H 587.359 1.97758 -0.524689 0
M  V30 6453 H 587.369 3.98549 0.873073 0
M  V30 6454 H 586.044 4.15039 -0.267421 0
M  V30 6455 H 584.621 3.44663 1.42343 0
M  V30 6456 N 586.806 0.0935595 1.57322 0
M  V30 6457 C 588.031 -0.582324 1.99057 0
M  V30 6458 C 588.456 -1.61025 0.972242 0
M  V30 6459 O 587.814 -1.81202 -0.0594622 0
M  V30 6460 C 587.862 -1.20799 3.39765 0
M  V30 6461 O 586.966 -2.32382 3.40694 0
M  V30 6462 H 586.307 -0.147884 0.647323 0
M  V30 6463 H 588.837 0.174516 2.03854 0
M  V30 6464 H 588.847 -1.54966 3.77425 0
M  V30 6465 H 587.522 -0.454914 4.13405 0
M  V30 6466 H 586.099 -1.99845 3.14827 0
M  V30 6467 N 588.284 -1.56567 -0.180126 0
M  V30 6468 C 589.194 -1.98947 -1.24327 0
M  V30 6469 C 590.21 -0.899446 -1.4895 0
M  V30 6470 O 591.386 -1.20639 -1.61271 0
M  V30 6471 C 588.451 -2.33328 -2.56435 0
M  V30 6472 C 587.512 -3.56114 -2.39752 0
M  V30 6473 C 586.745 -3.88845 -3.65561 0
M  V30 6474 O 586.968 -3.22662 -4.70368 0
M  V30 6475 O 585.902 -4.82226 -3.60197 0
M  V30 6476 H 589.728 -2.89634 -0.913565 0
M  V30 6477 H 587.313 -1.44319 -0.386306 0
M  V30 6478 H 589.195 -2.5645 -3.34382 0
M  V30 6479 H 587.87 -1.45806 -2.89002 0
M  V30 6480 H 586.777 -3.38221 -1.59866 0
M  V30 6481 H 588.11 -4.4415 -2.12113 0
M  V30 6482 N 589.762 0.448376 -1.51087 0
M  V30 6483 C 590.694 1.56146 -1.67783 0
M  V30 6484 C 591.707 1.52913 -0.55871 0
M  V30 6485 O 592.896 1.57889 -0.83267 0
M  V30 6486 C 589.996 2.95057 -1.66716 0
M  V30 6487 C 589.169 3.22915 -2.95033 0
M  V30 6488 C 588.228 4.41495 -2.86302 0
M  V30 6489 O 587.254 4.40688 -3.60254 0
M  V30 6490 N 588.456 5.44443 -2.014 0
M  V30 6491 H 591.221 1.42232 -2.638 0
M  V30 6492 H 588.782 0.637153 -1.48835 0
M  V30 6493 H 590.774 3.72388 -1.58458 0
M  V30 6494 H 589.344 3.02624 -0.783403 0
M  V30 6495 H 588.564 2.33985 -3.17245 0
M  V30 6496 H 589.852 3.38349 -3.79996 0
M  V30 6497 H 589.25 5.4793 -1.40674 0
M  V30 6498 H 587.807 6.2067 -1.99029 0
M  V30 6499 N 591.24 1.41047 0.703093 0
M  V30 6500 C 592.19 1.38774 1.80903 0
M  V30 6501 C 593.174 0.263275 1.58731 0
M  V30 6502 O 594.366 0.503362 1.69692 0
M  V30 6503 C 591.495 1.26497 3.19145 0
M  V30 6504 C 590.581 2.43775 3.47037 0
M  V30 6505 N 590.972 3.69249 3.45672 0
M  V30 6506 C 589.27 2.37425 3.77552 0
M  V30 6507 C 589.971 4.46989 3.72258 0
M  V30 6508 N 588.947 3.76998 3.91629 0
M  V30 6509 H 592.749 2.33714 1.78199 0
M  V30 6510 H 590.263 1.34996 0.902762 0
M  V30 6511 H 592.26 1.2295 3.98358 0
M  V30 6512 H 590.92 0.32534 3.23066 0
M  V30 6513 H 591.931 4.02239 3.26228 0
M  V30 6514 H 588.608 1.51895 3.88888 0
M  V30 6515 H 589.998 5.55894 3.77402 0
M  V30 6516 N 592.718 -0.936591 1.26751 0
M  V30 6517 C 593.943 -1.72288 1.15462 0
M  V30 6518 C 594.368 -1.85915 -0.285887 0
M  V30 6519 O 593.726 -1.35272 -1.20711 0
M  V30 6520 C 593.774 -3.10503 1.83359 0
M  V30 6521 O 592.878 -3.96745 1.1255 0
M  V30 6522 H 592.219 -0.52843 0.402067 0
M  V30 6523 H 594.749 -1.17271 1.67656 0
M  V30 6524 H 594.759 -3.60867 1.90365 0
M  V30 6525 H 593.434 -2.99901 2.88153 0
M  V30 6526 H 592.011 -3.55191 1.13551 0
M  V30 6527 N 594.196 -1.08629 -1.14182 0
M  V30 6528 C 595.159 -0.722027 -2.1753 0
M  V30 6529 C 596.159 0.244305 -1.58933 0
M  V30 6530 O 597.349 0.0235545 -1.74184 0
M  V30 6531 C 594.481 -0.0663966 -3.40835 0
M  V30 6532 H 595.674 -1.63719 -2.51269 0
M  V30 6533 H 593.227 -0.884442 -1.28869 0
M  V30 6534 H 593.962 0.860389 -3.12678 0
M  V30 6535 H 593.747 -0.761598 -3.84632 0
M  V30 6536 H 595.237 0.173346 -4.1724 0
M  V30 6537 N 595.674 1.31259 -0.872281 0
M  V30 6538 C 596.951 1.91362 -0.404943 0
M  V30 6539 C 597.331 1.79362 1.11321 0
M  V30 6540 O 596.679 1.20277 1.94283 0
M  V30 6541 C 596.889 3.3749 -0.888893 0
M  V30 6542 C 598.237 4.14593 -0.916384 0
M  V30 6543 O 599.261 3.46282 -0.834701 0
M  V30 6544 O 598.12 5.3661 -1.03498 0
M  V30 6545 H 595.214 0.818016 -0.121569 0
M  V30 6546 H 597.76 1.39912 -0.960346 0
M  V30 6547 H 596.532 3.40249 -1.93251 0
M  V30 6548 H 596.155 3.96375 -0.311932 0
M  V30 6549 N 597.152 0.631951 1.44375 0
M  V30 6550 C 598.082 -0.0593243 2.33425 0
M  V30 6551 C 599.063 -0.833964 1.48253 0
M  V30 6552 O 600.248 -0.799682 1.76971 0
M  V30 6553 C 597.378 -1.04096 3.31333 0
M  V30 6554 C 596.332 -0.377899 4.26328 0
M  V30 6555 C 595.658 -1.4695 5.14111 0
M  V30 6556 C 596.958 0.716371 5.17364 0
M  V30 6557 H 598.652 0.684287 2.91475 0
M  V30 6558 H 596.198 0.330518 1.40156 0
M  V30 6559 H 598.151 -1.53331 3.92514 0
M  V30 6560 H 596.875 -1.81547 2.71493 0
M  V30 6561 H 595.534 0.0938054 3.6648 0
M  V30 6562 H 595.182 -2.2349 4.50623 0
M  V30 6563 H 594.882 -1.03121 5.78481 0
M  V30 6564 H 596.406 -1.96363 5.78164 0
M  V30 6565 H 597.82 0.307089 5.72477 0
M  V30 6566 H 596.217 1.07784 5.90341 0
M  V30 6567 H 597.287 1.58316 4.58327 0
M  V30 6568 N 598.631 -1.53133 0.372548 0
M  V30 6569 C 599.579 -2.27473 -0.485681 0
M  V30 6570 C 600.573 -1.30719 -1.07745 0
M  V30 6571 O 601.779 -1.48321 -1.01985 0
M  V30 6572 H 598.154 -0.731269 -0.175356 0
M  V30 6573 H 600.125 -2.97955 0.162986 0
M  V30 6574 C 598.874 -3.08191 -1.60978 0
M  V30 6575 H 598.197 -3.82488 -1.16373 0
M  V30 6576 H 599.637 -3.63373 -2.18485 0
M  V30 6577 C 598.096 -2.19461 -2.55614 0
M  V30 6578 O 598.626 -1.81008 -3.58607 0
M  V30 6579 N 596.832 -1.83955 -2.24965 0
M  V30 6580 H 596.379 -2.15423 -1.41247 0
M  V30 6581 H 596.337 -1.24874 -2.88538 0
M  V30 6582 N 600.109 -0.101901 -1.5727 0
M  V30 6583 C 601.525 0.254739 -1.57554 0
M  V30 6584 C 601.725 1.67937 -1.11352 0
M  V30 6585 O 600.781 2.39722 -0.793081 0
M  V30 6586 C 602.094 0.036975 -3.00677 0
M  V30 6587 C 603.642 0.104199 -3.12827 0
M  V30 6588 C 604.117 -0.0856565 -4.5792 0
M  V30 6589 N 605.608 -0.0310498 -4.6319 0
M  V30 6590 C 606.343 -0.153099 -5.73196 0
M  V30 6591 N 605.839 -0.330364 -6.92012 0
M  V30 6592 N 607.632 -0.0938854 -5.62022 0
M  V30 6593 H 599.783 -1.03263 -1.85609 0
M  V30 6594 H 602.046 -0.405251 -0.857016 0
M  V30 6595 H 601.752 -0.947254 -3.38703 0
M  V30 6596 H 601.626 0.776335 -3.69124 0
M  V30 6597 H 604.013 1.07894 -2.74669 0
M  V30 6598 H 604.094 -0.666762 -2.46957 0
M  V30 6599 H 603.738 -1.05729 -4.96773 0
M  V30 6600 H 603.668 0.705082 -5.21858 0
M  V30 6601 H 606.159 0.103141 -3.77759 0
M  V30 6602 H 606.472 -0.41482 -7.71686 0
M  V30 6603 H 604.817 -0.366119 -6.94035 0
M  V30 6604 H 608.008 0.0435168 -4.6808 0
M  V30 6605 H 608.181 -0.19245 -6.47714 0
M  V30 6606 N 601.587 1.56661 0.17182 0
M  V30 6607 C 602.535 1.97289 1.23207 0
M  V30 6608 C 603.529 0.861566 1.45854 0
M  V30 6609 O 604.735 1.04668 1.4644 0
M  V30 6610 H 601.11 0.627681 0.41415 0
M  V30 6611 H 603.081 2.85662 0.862542 0
M  V30 6612 C 601.83 2.34849 2.564 0
M  V30 6613 H 601.153 3.19903 2.39797 0
M  V30 6614 H 602.593 2.67121 3.29276 0
M  V30 6615 C 601.052 1.19172 3.15119 0
M  V30 6616 O 601.582 0.479113 3.98833 0
M  V30 6617 N 599.788 0.962415 2.74201 0
M  V30 6618 H 599.335 1.54365 2.06226 0
M  V30 6619 H 599.293 0.190272 3.13824 0
M  V30 6620 N 603.065 -0.440357 1.51323 0
M  V30 6621 C 604.295 -1.21079 1.67402 0
M  V30 6622 C 604.703 -1.85555 0.369599 0
M  V30 6623 O 604.046 -1.71375 -0.661525 0
M  V30 6624 C 604.108 -2.33839 2.73056 0
M  V30 6625 C 603.772 -1.89755 4.15743 0
M  V30 6626 C 604.769 -1.40268 5.0062 0
M  V30 6627 C 602.454 -1.97539 4.61826 0
M  V30 6628 C 604.448 -0.991474 6.29642 0
M  V30 6629 C 602.135 -1.56029 5.90845 0
M  V30 6630 C 603.133 -1.06915 6.7458 0
M  V30 6631 O 602.821 -0.659933 8.01187 0
M  V30 6632 H 602.553 -0.371133 0.56501 0
M  V30 6633 H 605.107 -0.528409 1.98487 0
M  V30 6634 H 603.337 -3.05345 2.37279 0
M  V30 6635 H 605.026 -2.95713 2.78044 0
M  V30 6636 H 605.792 -1.33652 4.66221 0
M  V30 6637 H 601.671 -2.34713 3.96776 0
M  V30 6638 H 605.215 -0.607425 6.9495 0
M  V30 6639 H 601.112 -1.62315 6.24759 0
M  V30 6640 H 601.88 -0.786052 8.14717 0
M  V30 6641 N 604.543 -1.41418 -0.695603 0
M  V30 6642 C 605.768 -1.44329 -1.48942 0
M  V30 6643 C 606.193 -0.0501579 -1.88033 0
M  V30 6644 O 605.551 0.946598 -1.54626 0
M  V30 6645 C 605.599 -2.3578 -2.72837 0
M  V30 6646 O 604.703 -1.81482 -3.70322 0
M  V30 6647 H 604.044 -0.489838 -0.44828 0
M  V30 6648 H 606.574 -1.85878 -0.855014 0
M  V30 6649 H 606.584 -2.51654 -3.21145 0
M  V30 6650 H 605.259 -3.37005 -2.43722 0
M  V30 6651 H 603.836 -1.75058 -3.29255 0
M  V30 6652 N 606.021 0.929856 -1.27246 0
M  V30 6653 C 606.968 2.03017 -1.09785 0
M  V30 6654 C 607.938 1.661 0.000456744 0
M  V30 6655 O 609.123 1.90116 -0.161462 0
M  V30 6656 C 606.263 3.36878 -0.748816 0
M  V30 6657 C 605.376 3.86763 -1.92453 0
M  V30 6658 C 604.511 5.09061 -1.51758 0
M  V30 6659 C 603.55 5.51237 -2.66091 0
M  V30 6660 N 602.687 6.64732 -2.25999 0
M  V30 6661 H 607.527 2.17285 -2.03939 0
M  V30 6662 H 605.064 1.06448 -1.01524 0
M  V30 6663 H 607.022 4.13855 -0.527283 0
M  V30 6664 H 605.652 3.22424 0.155771 0
M  V30 6665 H 604.704 3.06086 -2.25867 0
M  V30 6666 H 606.016 4.13994 -2.78227 0
M  V30 6667 H 605.17 5.93532 -1.25716 0
M  V30 6668 H 603.909 4.83602 -0.630896 0
M  V30 6669 H 602.914 4.65316 -2.92849 0
M  V30 6670 H 604.139 5.78692 -3.55377 0
M  V30 6671 H 602.085 6.40935 -1.3978 0
M  V30 6672 H 602.002 6.91607 -3.05313 0
M  V30 6673 H 603.27 7.52549 -2.03199 0
M  V30 6674 N 607.499 1.09233 1.13605 0
M  V30 6675 C 608.724 0.849067 1.89224 0
M  V30 6676 C 609.149 -0.593875 1.78479 0
M  V30 6677 O 608.507 -1.41703 1.13092 0
M  V30 6678 C 608.555 1.28642 3.36873 0
M  V30 6679 O 607.659 0.44363 4.10007 0
M  V30 6680 H 607 0.30767 0.588417 0
M  V30 6681 H 609.53 1.45595 1.43748 0
M  V30 6682 H 609.54 1.27096 3.87699 0
M  V30 6683 H 608.215 2.33729 3.44011 0
M  V30 6684 H 606.792 0.523241 3.69211 0
M  V30 6685 N 608.977 -1.30795 0.87923 0
M  V30 6686 C 610.205 -2.00527 0.509548 0
M  V30 6687 C 610.62 -1.65944 -0.90045 0
M  V30 6688 O 609.977 -0.893525 -1.5913 0
M  V30 6689 C 610.028 -3.55276 0.667943 0
M  V30 6690 O 609.749 -3.88625 2.02242 0
M  V30 6691 C 611.25 -4.4228 0.300494 0
M  V30 6692 H 608.47 -0.641261 0.197549 0
M  V30 6693 H 611.014 -1.66813 1.18295 0
M  V30 6694 H 609.169 -3.87377 0.0419843 0
M  V30 6695 H 609.583 -4.83334 2.03688 0
M  V30 6696 H 611.057 -5.50061 0.462242 0
M  V30 6697 H 611.534 -4.32556 -0.76106 0
M  V30 6698 H 612.14 -4.15613 0.902536 0
M  V30 6699 N 610.455 -0.639598 -1.44038 0
M  V30 6700 C 611.365 0.0612377 -2.3452 0
M  V30 6701 C 612.381 0.826717 -1.53106 0
M  V30 6702 O 613.557 0.777059 -1.85806 0
M  V30 6703 C 610.622 1.02492 -3.31204 0
M  V30 6704 C 609.683 0.25788 -4.28525 0
M  V30 6705 C 608.916 1.17566 -5.2059 0
M  V30 6706 O 609.139 2.41461 -5.16771 0
M  V30 6707 O 608.073 0.655407 -5.98321 0
M  V30 6708 H 611.899 -0.68318 -2.95916 0
M  V30 6709 H 609.484 -0.399784 -1.43952 0
M  V30 6710 H 611.366 1.57911 -3.90694 0
M  V30 6711 H 610.041 1.7498 -2.7233 0
M  V30 6712 H 608.948 -0.339566 -3.72556 0
M  V30 6713 H 610.281 -0.427154 -4.90343 0
M  V30 6714 N 611.933 1.52934 -0.380664 0
M  V30 6715 C 612.863 2.29118 0.450268 0
M  V30 6716 C 613.844 1.32153 1.07096 0
M  V30 6717 O 615.029 1.61038 1.08537 0
M  V30 6718 C 612.159 3.09161 1.58231 0
M  V30 6719 C 611.113 4.13938 1.0881 0
M  V30 6720 C 610.439 4.82153 2.31155 0
M  V30 6721 C 611.739 5.22048 0.162146 0
M  V30 6722 H 613.433 2.98826 -0.185361 0
M  V30 6723 H 610.979 1.43715 -0.0905886 0
M  V30 6724 H 612.932 3.61211 2.17036 0
M  V30 6725 H 611.656 2.3717 2.2454 0
M  V30 6726 H 610.315 3.62855 0.522633 0
M  V30 6727 H 609.963 4.06719 2.95953 0
M  V30 6728 H 609.663 5.52966 1.98752 0
M  V30 6729 H 611.187 5.37004 2.90618 0
M  V30 6730 H 612.601 5.6951 0.658126 0
M  V30 6731 H 610.998 6.00057 -0.0717122 0
M  V30 6732 H 612.068 4.78398 -0.791438 0
M  V30 6733 N 613.412 0.11024 1.57214 0
M  V30 6734 C 614.823 -0.416527 1.81994 0
M  V30 6735 C 615.174 -1.67183 1.02686 0
M  V30 6736 O 614.299 -2.14823 0.260782 0
M  V30 6737 C 614.894 -0.762466 3.30109 0
M  V30 6738 C 613.453 -1.23391 3.556 0
M  V30 6739 C 612.6 -0.238166 2.76275 0
M  V30 6740 H 615.551 0.335491 1.55113 0
M  V30 6741 H 615.572 -1.62068 3.44259 0
M  V30 6742 H 615.084 0.151346 3.87805 0
M  V30 6743 H 613.185 -2.16492 3.03253 0
M  V30 6744 H 613.298 -1.18528 4.64207 0
M  V30 6745 H 611.662 -0.723421 2.4421 0
M  V30 6746 H 612.445 0.668591 3.36727 0
M  V30 6747 N 614.89 -1.56749 -0.16351 0
M  V30 6748 C 616.138 -1.82074 -0.87713 0
M  V30 6749 C 616.459 -0.688503 -1.82441 0
M  V30 6750 O 615.729 0.291085 -1.93725 0
M  V30 6751 H 614.309 -0.671677 -0.326893 0
M  V30 6752 H 616.971 -1.9423 -0.161459 0
M  V30 6753 H 616.067 -2.76407 -1.44934 0
M  V30 6754 N 616.368 0.432326 -1.51554 0
M  V30 6755 C 617.315 1.52512 -1.7323 0
M  V30 6756 C 618.285 1.55863 -0.5741 0
M  V30 6757 O 619.47 1.72796 -0.809093 0
M  V30 6758 C 616.61 2.90183 -1.86783 0
M  V30 6759 C 615.723 2.96322 -3.14352 0
M  V30 6760 C 614.858 4.25147 -3.18471 0
M  V30 6761 C 613.897 4.25172 -4.40335 0
M  V30 6762 N 613.034 5.45529 -4.41975 0
M  V30 6763 H 617.874 1.33332 -2.66508 0
M  V30 6764 H 615.411 0.647613 -1.32077 0
M  V30 6765 H 617.369 3.70071 -1.92623 0
M  V30 6766 H 615.999 3.0791 -0.969087 0
M  V30 6767 H 615.051 2.09066 -3.17798 0
M  V30 6768 H 616.363 2.92203 -4.04251 0
M  V30 6769 H 615.517 5.13411 -3.23255 0
M  V30 6770 H 614.256 4.31929 -2.2647 0
M  V30 6771 H 613.261 3.353 -4.35723 0
M  V30 6772 H 614.486 4.20049 -5.33606 0
M  V30 6773 H 612.432 5.53024 -3.52847 0
M  V30 6774 H 612.349 5.43311 -5.25689 0
M  V30 6775 H 613.617 6.35812 -4.50958 0
M  V30 6776 N 617.846 1.41785 0.688094 0
M  V30 6777 C 618.794 1.44436 1.82321 0
M  V30 6778 C 619.788 0.321544 1.6632 0
M  V30 6779 O 620.994 0.493931 1.73091 0
M  V30 6780 H 617.369 0.452084 0.600936 0
M  V30 6781 H 619.34 2.40087 1.77202 0
M  V30 6782 C 618.089 1.35071 3.20392 0
M  V30 6783 H 617.412 2.2076 3.33324 0
M  V30 6784 H 618.852 1.40988 3.99873 0
M  V30 6785 C 617.311 0.0639127 3.36839 0
M  V30 6786 O 617.841 -0.888495 3.91751 0
M  V30 6787 N 616.047 -0.0146114 2.90596 0
M  V30 6788 H 615.594 0.761191 2.46097 0
M  V30 6789 H 615.552 -0.874988 3.01979 0
M  V30 6790 N 619.324 -0.923095 1.27737 0
M  V30 6791 C 620.234 -2.05765 1.12685 0
M  V30 6792 C 621.25 -1.73911 0.0557197 0
M  V30 6793 O 622.426 -1.99674 0.263137 0
M  V30 6794 C 619.491 -3.37804 0.780363 0
M  V30 6795 C 618.552 -3.83326 1.93286 0
M  V30 6796 C 617.785 -5.09064 1.60281 0
M  V30 6797 O 618.008 -5.6809 0.512828 0
M  V30 6798 O 616.942 -5.50071 2.44347 0
M  V30 6799 H 620.768 -2.21378 2.07907 0
M  V30 6800 H 618.353 -1.04299 1.06968 0
M  V30 6801 H 620.235 -4.17097 0.600668 0
M  V30 6802 H 618.91 -3.23387 -0.142291 0
M  V30 6803 H 617.817 -3.049 2.16764 0
M  V30 6804 H 619.15 -4.02292 2.83588 0
M  V30 6805 N 620.802 -1.09834 -1.13024 0
M  V30 6806 C 622.027 -0.85909 -1.88771 0
M  V30 6807 C 622.452 0.584402 -1.78791 0
M  V30 6808 O 621.81 1.41101 -1.13842 0
M  V30 6809 C 621.858 -1.30427 -3.36186 0
M  V30 6810 O 620.962 -0.465368 -4.09766 0
M  V30 6811 H 620.303 -0.310786 -0.586778 0
M  V30 6812 H 622.833 -1.46355 -1.42973 0
M  V30 6813 H 622.843 -1.2915 -3.8702 0
M  V30 6814 H 621.518 -2.3555 -3.42767 0
M  V30 6815 H 620.095 -0.542814 -3.68928 0
M  V30 6816 N 622.28 1.30327 -0.886154 0
M  V30 6817 C 623.508 2.00254 -0.520176 0
M  V30 6818 C 623.923 1.66419 0.891637 0
M  V30 6819 O 623.28 0.901951 1.58654 0
M  V30 6820 C 623.331 3.54916 -0.686775 0
M  V30 6821 O 623.052 3.87547 -2.04301 0
M  V30 6822 C 624.553 4.42115 -0.323945 0
M  V30 6823 H 621.773 0.640204 -0.200947 0
M  V30 6824 H 624.317 1.66183 -1.19178 0
M  V30 6825 H 622.472 3.8735 -0.0625273 0
M  V30 6826 H 622.886 4.82247 -2.06249 0
M  V30 6827 H 624.36 5.49808 -0.491407 0
M  V30 6828 H 624.837 4.32953 0.73811 0
M  V30 6829 H 625.443 4.15129 -0.924565 0
M  V30 6830 N 623.758 0.647228 1.43697 0
M  V30 6831 C 625.007 0.155552 2.01099 0
M  V30 6832 C 625.32 -1.23569 1.51624 0
M  V30 6833 O 626.526 -1.82226 2.01261 0
M  V30 6834 C 624.982 0.227296 3.59182 0
M  V30 6835 C 624.59 1.62086 4.17651 0
M  V30 6836 C 626.334 -0.207085 4.23995 0
M  V30 6837 C 624.241 1.64685 5.68008 0
M  V30 6838 H 623.171 0.0543895 0.752036 0
M  V30 6839 H 625.822 0.808386 1.64734 0
M  V30 6840 H 624.204 -0.492937 3.9292 0
M  V30 6841 H 625.378 2.36597 3.95422 0
M  V30 6842 H 623.693 2.0007 3.65186 0
M  V30 6843 H 626.29 -0.207426 5.34298 0
M  V30 6844 H 626.633 -1.23742 3.97484 0
M  V30 6845 H 627.166 0.461193 3.95118 0
M  V30 6846 H 623.905 2.65608 5.99277 0
M  V30 6847 H 623.425 0.944914 5.9231 0
M  V30 6848 H 625.104 1.38792 6.31938 0
M  V30 6849 N 625.236 -1.5273 0.388769 0
M  V30 6850 C 626.146 -2.30165 -0.453993 0
M  V30 6851 C 627.162 -1.37058 -1.07197 0
M  V30 6852 O 628.338 -1.70127 -1.0779 0
M  V30 6853 C 625.403 -3.09303 -1.56628 0
M  V30 6854 C 624.464 -4.18117 -0.973467 0
M  V30 6855 C 623.697 -4.93472 -2.03275 0
M  V30 6856 O 623.92 -4.68913 -3.24772 0
M  V30 6857 O 622.854 -5.78833 -1.65034 0
M  V30 6858 H 626.68 -3.03185 0.176816 0
M  V30 6859 H 624.265 -1.4862 0.152501 0
M  V30 6860 H 626.147 -3.58648 -2.21246 0
M  V30 6861 H 624.822 -2.39098 -2.18206 0
M  V30 6862 H 623.729 -3.7297 -0.290556 0
M  V30 6863 H 625.062 -4.90556 -0.401908 0
M  V30 6864 N 626.714 -0.118576 -1.57153 0
M  V30 6865 C 627.646 0.862247 -2.12363 0
M  V30 6866 C 628.659 1.23025 -1.06625 0
M  V30 6867 O 629.848 1.17927 -1.33998 0
M  V30 6868 C 626.948 2.16425 -2.60794 0
M  V30 6869 C 626.121 1.96801 -3.90626 0
M  V30 6870 C 625.18 3.10726 -4.2466 0
M  V30 6871 O 624.206 2.83659 -4.93484 0
M  V30 6872 N 625.408 4.37147 -3.81946 0
M  V30 6873 H 628.173 0.390564 -2.97144 0
M  V30 6874 H 625.734 0.0658591 -1.61766 0
M  V30 6875 H 627.726 2.91633 -2.80593 0
M  V30 6876 H 626.296 2.54943 -1.80895 0
M  V30 6877 H 625.516 1.05787 -3.7974 0
M  V30 6878 H 626.804 1.80993 -4.7552 0
M  V30 6879 H 626.202 4.62014 -3.26435 0
M  V30 6880 H 624.759 5.09229 -4.06853 0
M  V30 6881 N 628.193 1.56834 0.155195 0
M  V30 6882 C 629.442 1.82088 0.867567 0
M  V30 6883 C 629.755 0.69849 1.82703 0
M  V30 6884 O 630.961 0.836407 2.58295 0
M  V30 6885 C 629.417 3.22707 1.59336 0
M  V30 6886 C 629.025 4.42859 0.676719 0
M  V30 6887 C 630.769 3.57242 2.293 0
M  V30 6888 C 628.676 5.74501 1.40367 0
M  V30 6889 H 627.606 0.679057 0.327715 0
M  V30 6890 H 630.257 1.83105 0.120351 0
M  V30 6891 H 628.639 3.16054 2.38591 0
M  V30 6892 H 629.813 4.60731 -0.0800196 0
M  V30 6893 H 628.128 4.16311 0.0859129 0
M  V30 6894 H 630.725 4.52847 2.84312 0
M  V30 6895 H 631.068 2.82901 3.05406 0
M  V30 6896 H 631.601 3.6552 1.56972 0
M  V30 6897 H 628.34 6.51915 0.684623 0
M  V30 6898 H 627.86 5.60579 2.13332 0
M  V30 6899 H 629.539 6.17016 1.94681 0
M  V30 6900 N 629.671 -0.424282 1.51781 0
M  V30 6901 C 630.948 -1.18464 1.55646 0
M  V30 6902 C 631.328 -2.08529 0.328438 0
M  V30 6903 O 630.676 -2.17969 -0.685693 0
M  V30 6904 C 630.886 -1.97514 2.87731 0
M  V30 6905 C 632.234 -2.54106 3.40169 0
M  V30 6906 O 633.258 -2.07711 2.89369 0
M  V30 6907 O 632.117 -3.38759 4.28841 0
M  V30 6908 H 629.211 -0.540055 0.626314 0
M  V30 6909 H 631.757 -0.432291 1.64102 0
M  V30 6910 H 630.529 -1.31444 3.68562 0
M  V30 6911 H 630.152 -2.79787 2.82498 0
M  V30 6912 N 631.149 -1.42148 -0.680565 0
M  V30 6913 C 632.096 -1.45175 -1.79424 0
M  V30 6914 C 633.066 -0.304352 -1.63288 0
M  V30 6915 O 634.251 -0.507591 -1.83924 0
M  V30 6916 C 631.391 -1.35429 -3.17416 0
M  V30 6917 C 630.504 -2.60158 -3.4488 0
M  V30 6918 C 629.639 -2.42596 -4.72568 0
M  V30 6919 C 628.678 -3.62727 -4.93047 0
M  V30 6920 N 627.815 -3.44143 -6.11973 0
M  V30 6921 H 632.655 -2.40349 -1.76172 0
M  V30 6922 H 630.192 -1.19334 -0.860107 0
M  V30 6923 H 632.15 -1.27777 -3.97151 0
M  V30 6924 H 630.78 -0.438536 -3.19807 0
M  V30 6925 H 629.832 -2.78199 -2.5944 0
M  V30 6926 H 631.144 -3.49473 -3.55908 0
M  V30 6927 H 630.298 -2.32497 -5.60384 0
M  V30 6928 H 629.037 -1.50761 -4.63813 0
M  V30 6929 H 628.042 -3.73264 -4.03676 0
M  V30 6930 H 629.267 -4.55534 -5.03652 0
M  V30 6931 H 627.213 -2.5502 -6.04401 0
M  V30 6932 H 627.13 -4.27041 -6.23836 0
M  V30 6933 H 628.398 -3.37845 -7.02482 0
M  V30 6934 N 632.627 0.916307 -1.28225 0
M  V30 6935 C 633.574 2.01841 -1.11932 0
M  V30 6936 C 634.544 1.66091 -0.0171604 0
M  V30 6937 O 635.729 1.89934 -0.181617 0
M  V30 6938 C 632.869 3.36065 -0.784504 0
M  V30 6939 C 631.982 3.847 -1.96544 0
M  V30 6940 C 631.117 5.07423 -1.57149 0
M  V30 6941 C 630.156 5.48384 -2.71922 0
M  V30 6942 N 629.293 6.62298 -2.33037 0
M  V30 6943 H 634.133 2.1511 -2.06232 0
M  V30 6944 H 631.67 1.05366 -1.02647 0
M  V30 6945 H 633.628 4.13272 -0.571148 0
M  V30 6946 H 632.258 3.22571 0.121565 0
M  V30 6947 H 631.31 3.03673 -2.291 0
M  V30 6948 H 632.622 4.1102 -2.82603 0
M  V30 6949 H 631.776 5.92165 -1.32004 0
M  V30 6950 H 630.515 4.82906 -0.682153 0
M  V30 6951 H 629.52 4.62184 -2.97768 0
M  V30 6952 H 630.745 5.7489 -3.61494 0
M  V30 6953 H 628.691 6.39416 -1.4657 0
M  V30 6954 H 628.608 6.8833 -3.12631 0
M  V30 6955 H 629.876 7.50352 -2.11169 0
M  V30 6956 N 634.105 1.10431 1.1244 0
M  V30 6957 C 635.035 0.775143 2.20258 0
M  V30 6958 C 636.016 -0.25186 1.68225 0
M  V30 6959 O 637.201 -0.117637 1.93843 0
M  V30 6960 C 634.331 0.206133 3.46688 0
M  V30 6961 C 633.285 1.16382 4.11873 0
M  V30 6962 C 632.611 0.456014 5.32752 0
M  V30 6963 C 633.911 2.5104 4.58013 0
M  V30 6964 H 635.605 1.67665 2.4805 0
M  V30 6965 H 633.151 0.807595 1.19222 0
M  V30 6966 H 635.104 -0.036291 4.21384 0
M  V30 6967 H 633.828 -0.730614 3.18323 0
M  V30 6968 H 632.487 1.39169 3.39157 0
M  V30 6969 H 632.135 -0.485203 5.00654 0
M  V30 6970 H 631.835 1.09466 5.77314 0
M  V30 6971 H 633.359 0.222135 6.10196 0
M  V30 6972 H 634.773 2.32401 5.24083 0
M  V30 6973 H 633.17 3.10789 5.13352 0
M  V30 6974 H 634.24 3.11039 3.71998 0
M  V30 6975 N 635.583 -1.29855 0.893053 0
M  V30 6976 C 636.493 -2.31661 0.370157 0
M  V30 6977 C 637.509 -1.65677 -0.531723 0
M  V30 6978 O 638.685 -1.9691 -0.422902 0
M  V30 6979 C 635.75 -3.44388 -0.399741 0
M  V30 6980 C 634.811 -4.2598 0.532861 0
M  V30 6981 C 634.044 -5.33324 -0.200388 0
M  V30 6982 O 634.267 -5.52305 -1.42531 0
M  V30 6983 O 633.201 -6.00188 0.453668 0
M  V30 6984 H 637.027 -2.78354 1.2146 0
M  V30 6985 H 634.612 -1.34171 0.657153 0
M  V30 6986 H 636.494 -4.13037 -0.835358 0
M  V30 6987 H 635.169 -2.99815 -1.22035 0
M  V30 6988 H 634.076 -3.59998 1.01746 0
M  V30 6989 H 635.409 -4.74178 1.3197 0
M  V30 6990 N 637.061 -0.65484 -1.43351 0
M  V30 6991 C 638.477 -0.32255 -1.56307 0
M  V30 6992 C 638.677 1.17324 -1.63821 0
M  V30 6993 O 637.733 1.95813 -1.59417 0
M  V30 6994 C 639.046 -1.03533 -2.82314 0
M  V30 6995 C 640.594 -1.01574 -2.9606 0
M  V30 6996 C 641.069 -1.70945 -4.24902 0
M  V30 6997 N 642.56 -1.67716 -4.3177 0
M  V30 6998 C 643.295 -2.18265 -5.30234 0
M  V30 6999 N 642.791 -2.7711 -6.34966 0
M  V30 7000 N 644.584 -2.08756 -5.21898 0
M  V30 7001 H 636.735 -1.62549 -1.36717 0
M  V30 7002 H 638.998 -0.683676 -0.656727 0
M  V30 7003 H 638.704 -2.09045 -2.8283 0
M  V30 7004 H 638.578 -0.587913 -3.7259 0
M  V30 7005 H 640.965 0.0309834 -2.95084 0
M  V30 7006 H 641.046 -1.50186 -2.07069 0
M  V30 7007 H 640.69 -2.75574 -4.26639 0
M  V30 7008 H 640.62 -1.19797 -5.12793 0
M  V30 7009 H 643.111 -1.24777 -3.56706 0
M  V30 7010 H 643.424 -3.13353 -7.06421 0
M  V30 7011 H 641.769 -2.81171 -6.35585 0
M  V30 7012 H 644.96 -1.62488 -4.38994 0
M  V30 7013 H 645.133 -2.48459 -5.98475 0
M  V30 7014 N 638.539 1.52521 -0.396863 0
M  V30 7015 C 639.487 2.28217 0.44943 0
M  V30 7016 C 640.481 1.32416 1.05652 0
M  V30 7017 O 641.687 1.49925 0.996124 0
M  V30 7018 H 638.062 0.733966 0.1637 0
M  V30 7019 H 640.033 2.97658 -0.210367 0
M  V30 7020 C 638.782 3.10713 1.56054 0
M  V30 7021 H 638.105 3.84291 1.10273 0
M  V30 7022 H 639.545 3.66803 2.12677 0
M  V30 7023 C 638.004 2.23499 2.52091 0
M  V30 7024 O 638.534 1.8669 3.55682 0
M  V30 7025 N 636.74 1.8751 2.2201 0
M  V30 7026 H 636.287 2.17643 1.37802 0
M  V30 7027 H 636.245 1.29448 2.86514 0
M  V30 7028 N 640.017 0.126909 1.57088 0
M  V30 7029 C 640.947 -0.816847 2.18746 0
M  V30 7030 C 641.928 -1.27161 1.12979 0
M  V30 7031 O 643.113 -1.33279 1.41246 0
M  V30 7032 C 640.243 -2.06398 2.79315 0
M  V30 7033 C 639.197 -1.74673 3.90735 0
M  V30 7034 C 638.523 -3.06482 4.38147 0
M  V30 7035 C 639.823 -1.0089 5.12463 0
M  V30 7036 H 641.517 -0.303032 2.97863 0
M  V30 7037 H 639.063 -0.144314 1.43275 0
M  V30 7038 H 641.016 -2.72885 3.2111 0
M  V30 7039 H 639.74 -2.60118 1.975 0
M  V30 7040 H 638.399 -1.10572 3.49527 0
M  V30 7041 H 638.047 -3.58152 3.5318 0
M  V30 7042 H 637.747 -2.86025 5.13287 0
M  V30 7043 H 639.271 -3.74073 4.82599 0
M  V30 7044 H 640.685 -1.57546 5.51228 0
M  V30 7045 H 639.082 -0.905006 5.93237 0
M  V30 7046 H 640.152 0.00297335 4.849 0
M  V30 7047 N 641.495 -1.56914 -0.146875 0
M  V30 7048 C 642.72 -1.87881 -0.878386 0
M  V30 7049 C 643.145 -0.715945 -1.73942 0
M  V30 7050 O 642.503 0.334447 -1.78189 0
M  V30 7051 C 642.551 -3.17431 -1.71084 0
M  V30 7052 O 641.655 -3.01374 -2.81509 0
M  V30 7053 H 640.996 -0.617289 -0.244644 0
M  V30 7054 H 643.526 -2.04136 -0.137654 0
M  V30 7055 H 643.536 -3.49455 -2.10582 0
M  V30 7056 H 642.211 -4.01671 -1.07856 0
M  V30 7057 H 640.788 -2.80758 -2.45416 0
M  V30 7058 N 642.974 0.416227 -1.52004 0
M  V30 7059 C 644.221 1.16383 -1.65714 0
M  V30 7060 C 644.549 1.9068 -0.383594 0
M  V30 7061 O 643.804 1.85174 0.633185 0
M  V30 7062 C 644.103 2.18923 -2.82502 0
M  V30 7063 C 643.769 1.61485 -4.20991 0
M  V30 7064 C 642.431 1.45545 -4.58661 0
M  V30 7065 C 644.783 1.19468 -5.07323 0
M  V30 7066 C 642.111 0.860937 -5.80349 0
M  V30 7067 C 644.463 0.614386 -6.29609 0
M  V30 7068 C 643.127 0.442056 -6.66035 0
M  V30 7069 H 642.397 0.425875 -0.606392 0
M  V30 7070 H 645.044 0.45199 -1.8609 0
M  V30 7071 H 643.349 2.96225 -2.56433 0
M  V30 7072 H 645.046 2.76628 -2.90307 0
M  V30 7073 H 641.636 1.74873 -3.91302 0
M  V30 7074 H 645.82 1.30596 -4.78809 0
M  V30 7075 H 641.076 0.715372 -6.072 0
M  V30 7076 H 645.25 0.280393 -6.95835 0
M  V30 7077 H 642.877 -0.0207218 -7.60197 0
M  V30 7078 N 644.452 1.42507 0.673017 0
M  V30 7079 C 645.362 1.4853 1.81593 0
M  V30 7080 C 646.378 0.373907 1.69935 0
M  V30 7081 O 647.554 0.625078 1.91454 0
M  V30 7082 C 644.619 1.387 3.17747 0
M  V30 7083 C 643.68 2.60346 3.41348 0
M  V30 7084 C 642.913 2.50975 4.71007 0
M  V30 7085 O 643.136 1.54659 5.49033 0
M  V30 7086 O 642.07 3.41138 4.95892 0
M  V30 7087 H 645.896 2.45001 1.79467 0
M  V30 7088 H 643.481 1.2429 0.82899 0
M  V30 7089 H 645.363 1.35586 3.98992 0
M  V30 7090 H 644.038 0.453555 3.20507 0
M  V30 7091 H 642.945 2.69034 2.59945 0
M  V30 7092 H 644.278 3.52595 3.43421 0
M  V30 7093 N 645.93 -0.909495 1.28709 0
M  V30 7094 C 647.179 -1.65365 1.15487 0
M  V30 7095 C 647.492 -1.93364 -0.294941 0
M  V30 7096 O 648.698 -2.65905 -0.548338 0
M  V30 7097 C 647.154 -2.97923 2.01916 0
M  V30 7098 C 646.762 -2.77556 3.51663 0
M  V30 7099 C 648.506 -3.75814 1.97393 0
M  V30 7100 C 646.413 -4.0578 4.30229 0
M  V30 7101 H 645.343 -0.620323 0.42862 0
M  V30 7102 H 647.994 -1.00894 1.53273 0
M  V30 7103 H 646.376 -3.63552 1.5699 0
M  V30 7104 H 647.55 -2.2058 4.04575 0
M  V30 7105 H 645.865 -2.13072 3.57756 0
M  V30 7106 H 648.462 -4.70866 2.53357 0
M  V30 7107 H 648.805 -4.05277 0.951643 0
M  V30 7108 H 649.338 -3.1701 2.40311 0
M  V30 7109 H 646.077 -3.81488 5.33055 0
M  V30 7110 H 645.597 -4.62351 3.82089 0
M  V30 7111 H 647.276 -4.74004 4.40374 0
M  V30 7112 N 647.408 -1.11026 -1.11852 0
M  V30 7113 C 648.355 -0.764662 -2.17765 0
M  V30 7114 C 649.325 0.261854 -1.64023 0
M  V30 7115 O 650.51 0.139748 -1.90288 0
M  V30 7116 C 647.65 -0.209317 -3.44465 0
M  V30 7117 C 646.763 -1.29187 -4.12231 0
M  V30 7118 C 645.898 -0.697523 -5.266 0
M  V30 7119 C 644.937 -1.76023 -5.86244 0
M  V30 7120 N 644.074 -1.18569 -6.92016 0
M  V30 7121 H 648.914 -1.67202 -2.46673 0
M  V30 7122 H 646.451 -0.835065 -1.21099 0
M  V30 7123 H 648.409 0.130599 -4.16996 0
M  V30 7124 H 647.039 0.661251 -3.15955 0
M  V30 7125 H 646.091 -1.74881 -3.37818 0
M  V30 7126 H 647.403 -2.09607 -4.52622 0
M  V30 7127 H 646.557 -0.307412 -6.05921 0
M  V30 7128 H 645.296 0.138044 -4.87505 0
M  V30 7129 H 644.301 -2.1597 -5.05606 0
M  V30 7130 H 645.526 -2.59875 -6.27409 0
M  V30 7131 H 643.472 -0.371695 -6.54946 0
M  V30 7132 H 643.389 -1.92666 -7.31038 0
M  V30 7133 H 644.657 -0.82233 -7.7515 0
M  V30 7134 N 648.886 1.2938 -0.899927 0
M  V30 7135 C 649.833 2.27713 -0.376243 0
M  V30 7136 C 650.803 1.57016 0.541774 0
M  V30 7137 O 651.988 1.84997 0.466966 0
M  V30 7138 C 649.128 3.42889 0.39 0
M  V30 7139 C 648.241 4.28369 -0.558938 0
M  V30 7140 C 647.376 5.30726 0.224379 0
M  V30 7141 C 646.415 6.07862 -0.719068 0
M  V30 7142 N 645.552 7.02094 0.0298569 0
M  V30 7143 H 650.392 2.71888 -1.21988 0
M  V30 7144 H 647.929 1.33724 -0.612879 0
M  V30 7145 H 649.887 4.08443 0.850314 0
M  V30 7146 H 648.517 2.99743 1.19809 0
M  V30 7147 H 647.569 3.62986 -1.13777 0
M  V30 7148 H 648.881 4.82068 -1.2811 0
M  V30 7149 H 648.035 6.02098 0.745881 0
M  V30 7150 H 646.774 4.77759 0.979674 0
M  V30 7151 H 645.779 5.35353 -1.25207 0
M  V30 7152 H 647.004 6.62917 -1.4737 0
M  V30 7153 H 644.95 6.51496 0.767415 0
M  V30 7154 H 644.867 7.5335 -0.632391 0
M  V30 7155 H 646.135 7.77685 0.531615 0
M  V30 7156 N 650.364 0.662433 1.43002 0
M  V30 7157 C 651.61 0.179857 2.02001 0
M  V30 7158 C 651.943 -1.20625 1.52195 0
M  V30 7159 O 651.218 -1.80726 0.718911 0
M  V30 7160 C 651.501 0.200845 3.59539 0
M  V30 7161 C 651.354 1.62153 4.19555 0
M  V30 7162 C 652.673 -0.457738 4.37713 0
M  V30 7163 H 649.792 0.0668305 0.733964 0
M  V30 7164 H 652.434 0.84487 1.70182 0
M  V30 7165 H 650.584 -0.365411 3.86778 0
M  V30 7166 H 652.256 2.23908 4.03315 0
M  V30 7167 H 650.499 2.16601 3.75854 0
M  V30 7168 H 651.17 1.58799 5.28665 0
M  V30 7169 H 653.646 0.0241495 4.16093 0
M  V30 7170 H 652.522 -0.412363 5.47349 0
M  V30 7171 H 652.783 -1.53336 4.14657 0
M  V30 7172 N 651.842 -1.52309 0.404946 0
M  V30 7173 C 653.253 -1.86585 -0.0655926 0
M  V30 7174 C 653.604 -1.3239 -1.44801 0
M  V30 7175 O 652.729 -0.6615 -2.06042 0
M  V30 7176 C 653.324 -3.38566 -0.125801 0
M  V30 7177 C 651.883 -3.72497 -0.540666 0
M  V30 7178 C 651.03 -2.75806 0.287487 0
M  V30 7179 H 653.981 -1.45995 0.622185 0
M  V30 7180 H 654.002 -3.68658 -0.941888 0
M  V30 7181 H 653.514 -3.77981 0.880473 0
M  V30 7182 H 651.615 -3.38659 -1.55373 0
M  V30 7183 H 651.728 -4.78234 -0.287956 0
M  V30 7184 H 650.092 -2.53474 -0.249561 0
M  V30 7185 H 650.875 -3.18059 1.29203 0
M  V30 7186 N 653.32 -0.135238 -1.57019 0
M  V30 7187 C 654.25 0.805235 -2.19176 0
M  V30 7188 C 655.231 1.2656 -1.13651 0
M  V30 7189 O 656.416 1.32528 -1.4195 0
M  V30 7190 C 653.546 2.04914 -2.80406 0
M  V30 7191 C 652.5 1.72598 -3.91655 0
M  V30 7192 C 651.826 3.04154 -4.39766 0
M  V30 7193 C 653.126 0.981709 -5.12991 0
M  V30 7194 H 654.82 0.287232 -2.98019 0
M  V30 7195 H 652.366 0.136714 -1.4335 0
M  V30 7196 H 654.319 2.71178 -3.22553 0
M  V30 7197 H 653.043 2.59067 -1.98877 0
M  V30 7198 H 651.702 1.08717 -3.50109 0
M  V30 7199 H 651.35 3.56274 -3.55075 0
M  V30 7200 H 651.05 2.83299 -5.14796 0
M  V30 7201 H 652.574 3.71509 -4.84576 0
M  V30 7202 H 653.988 1.5462 -5.52056 0
M  V30 7203 H 652.385 0.873533 -5.93708 0
M  V30 7204 H 653.455 -0.0286887 -4.84892 0
M  V30 7205 N 654.798 1.5699 0.138552 0
M  V30 7206 C 655.73 1.95515 1.1961 0
M  V30 7207 C 656.743 0.852002 1.38726 0
M  V30 7208 O 657.932 1.13038 1.38147 0
M  V30 7209 C 655.032 2.2213 2.55952 0
M  V30 7210 C 654.205 3.53424 2.57702 0
M  V30 7211 C 653.264 3.6848 3.75645 0
M  V30 7212 O 652.29 4.4079 3.60129 0
M  V30 7213 N 653.492 3.05777 4.93438 0
M  V30 7214 H 656.257 2.86838 0.868557 0
M  V30 7215 H 653.818 1.58542 0.328033 0
M  V30 7216 H 655.81 2.29435 3.33379 0
M  V30 7217 H 654.38 1.3703 2.80965 0
M  V30 7218 H 653.6 3.57484 1.6613 0
M  V30 7219 H 654.888 4.39759 2.55909 0
M  V30 7220 H 654.286 2.46961 5.08947 0
M  V30 7221 H 652.843 3.18631 5.6861 0
M  V30 7222 N 656.276 -0.40816 1.52223 0
M  V30 7223 C 657.186 -1.52202 1.78526 0
M  V30 7224 C 658.202 -1.60546 0.670892 0
M  V30 7225 O 659.378 -1.77242 0.956404 0
M  V30 7226 C 656.443 -2.87928 1.93128 0
M  V30 7227 C 655.504 -2.89463 3.17033 0
M  V30 7228 C 654.737 -4.18715 3.30929 0
M  V30 7229 O 654.96 -5.12662 2.50067 0
M  V30 7230 O 653.894 -4.27125 4.24084 0
M  V30 7231 H 657.72 -1.32911 2.73072 0
M  V30 7232 H 655.305 -0.594112 1.37079 0
M  V30 7233 H 657.187 -3.68426 2.04549 0
M  V30 7234 H 655.862 -3.07285 1.01772 0
M  V30 7235 H 654.769 -2.07815 3.11069 0
M  V30 7236 H 656.102 -2.75055 4.08174 0
M  V30 7237 N 657.755 -1.42862 -0.66545 0
M  V30 7238 C 659.003 -1.43546 -1.42264 0
M  V30 7239 C 659.324 -0.0563116 -1.94919 0
M  V30 7240 O 658.594 0.906568 -1.73661 0
M  V30 7241 H 657.174 -0.528464 -0.527953 0
M  V30 7242 H 659.836 -1.78363 -0.785665 0
M  V30 7243 H 658.932 -2.14079 -2.27105 0
M  V30 7244 N 659.233 0.902656 -1.29189 0
M  V30 7245 C 660.644 1.46809 -1.15343 0
M  V30 7246 C 660.995 1.94568 0.252517 0
M  V30 7247 O 660.12 1.83454 1.14777 0
M  V30 7248 C 660.715 2.66829 -2.08776 0
M  V30 7249 C 659.274 3.19518 -1.98961 0
M  V30 7250 C 658.421 1.92212 -1.99874 0
M  V30 7251 H 661.372 0.714282 -1.41717 0
M  V30 7252 H 661.393 3.42465 -1.65826 0
M  V30 7253 H 660.905 2.32039 -3.11094 0
M  V30 7254 H 659.006 3.59008 -0.99721 0
M  V30 7255 H 659.119 3.84016 -2.86477 0
M  V30 7256 H 657.483 2.0979 -1.44431 0
M  V30 7257 H 658.266 1.59702 -3.03891 0
M  V30 7258 N 660.711 1.11618 1.11262 0
M  V30 7259 C 661.658 0.7762 2.17356 0
M  V30 7260 C 662.628 -0.253152 1.6416 0
M  V30 7261 O 663.813 -0.129655 1.90359 0
M  V30 7262 C 660.953 0.227581 3.44349 0
M  V30 7263 C 660.066 1.31372 4.1154 0
M  V30 7264 C 659.201 0.72544 5.26223 0
M  V30 7265 C 658.24 1.7913 5.85302 0
M  V30 7266 N 657.377 1.22237 6.91377 0
M  V30 7267 H 662.217 1.68508 2.45783 0
M  V30 7268 H 659.754 0.841475 1.20655 0
M  V30 7269 H 661.712 -0.108483 4.17059 0
M  V30 7270 H 660.342 -0.644486 3.16301 0
M  V30 7271 H 659.394 1.7667 3.36885 0
M  V30 7272 H 660.706 2.12005 4.51504 0
M  V30 7273 H 659.86 0.339541 6.05749 0
M  V30 7274 H 658.599 -0.112188 4.87571 0
M  V30 7275 H 657.604 2.18648 5.04453 0
M  V30 7276 H 658.829 2.63199 6.26022 0
M  V30 7277 H 656.775 0.406423 6.5474 0
M  V30 7278 H 656.692 1.9654 7.30006 0
M  V30 7279 H 657.96 0.863426 7.74703 0
M  V30 7280 N 662.189 -1.289 0.906776 0
M  V30 7281 C 663.414 -1.99939 0.551303 0
M  V30 7282 C 663.839 -1.67366 -0.858496 0
M  V30 7283 O 663.197 -0.902176 -1.57259 0
M  V30 7284 C 663.245 -3.52523 0.758937 0
M  V30 7285 O 662.349 -4.11983 -0.185308 0
M  V30 7286 H 661.69 -0.628376 0.214568 0
M  V30 7287 H 664.22 -1.64225 1.2203 0
M  V30 7288 H 664.23 -4.02522 0.666329 0
M  V30 7289 H 662.905 -3.75566 1.78671 0
M  V30 7290 H 661.482 -3.72873 -0.0445577 0
M  V30 7291 N 663.667 -0.670007 -1.42649 0
M  V30 7292 C 664.914 -0.190286 -2.01604 0
M  V30 7293 C 665.242 1.20155 -1.52948 0
M  V30 7294 O 664.497 1.81964 -0.72026 0
M  V30 7295 C 664.796 -0.168298 -3.57004 0
M  V30 7296 C 664.462 -1.50415 -4.25072 0
M  V30 7297 C 663.124 -1.86992 -4.43382 0
M  V30 7298 C 665.476 -2.38414 -4.63474 0
M  V30 7299 C 662.804 -3.11203 -4.97363 0
M  V30 7300 C 665.156 -3.61933 -5.18833 0
M  V30 7301 C 663.82 -3.98685 -5.35356 0
M  V30 7302 H 663.09 -0.0696305 -0.737721 0
M  V30 7303 H 665.737 -0.864044 -1.70899 0
M  V30 7304 H 664.042 0.588958 -3.87348 0
M  V30 7305 H 665.739 0.22001 -4.00396 0
M  V30 7306 H 662.329 -1.20959 -4.11177 0
M  V30 7307 H 666.513 -2.11442 -4.49006 0
M  V30 7308 H 661.769 -3.39705 -5.08341 0
M  V30 7309 H 665.943 -4.30326 -5.47533 0
M  V30 7310 H 663.57 -4.95009 -5.76949 0
M  V30 7311 N 665.145 1.52092 -0.413018 0
M  V30 7312 C 666.422 1.94356 0.22024 0
M  V30 7313 C 666.802 1.35017 1.62277 0
M  V30 7314 O 666.15 0.527511 2.22328 0
M  V30 7315 C 666.36 3.48289 0.222638 0
M  V30 7316 C 667.708 4.22313 0.440098 0
M  V30 7317 O 668.732 3.54919 0.301826 0
M  V30 7318 O 667.591 5.41829 0.712984 0
M  V30 7319 H 664.685 0.814536 0.14304 0
M  V30 7320 H 667.231 1.63083 -0.469242 0
M  V30 7321 H 666.003 3.83872 -0.758836 0
M  V30 7322 H 665.626 3.85934 0.956057 0
M  V30 7323 N 666.623 0.143563 1.56945 0
M  V30 7324 C 667.871 -0.507402 1.95627 0
M  V30 7325 C 668.192 -1.65626 1.02922 0
M  V30 7326 O 667.462 -1.95693 0.0901136 0
M  V30 7327 H 666.042 -0.190436 0.722318 0
M  V30 7328 H 668.704 0.218257 1.93674 0
M  V30 7329 H 667.8 -0.885816 2.99265 0
M  V30 7330 N 668.101 -1.57061 -0.130224 0
M  V30 7331 C 669.049 -2.00486 -1.17933 0
M  V30 7332 C 670.043 -0.899933 -1.43519 0
M  V30 7333 O 671.249 -1.08514 -1.43613 0
M  V30 7334 H 667.624 -0.638441 -0.397363 0
M  V30 7335 H 669.595 -2.87848 -0.786501 0
M  V30 7336 C 668.344 -2.41565 -2.50084 0
M  V30 7337 H 667.667 -3.26148 -2.31231 0
M  V30 7338 H 669.107 -2.75757 -3.22078 0
M  V30 7339 C 667.566 -1.27485 -3.11848 0
M  V30 7340 O 668.096 -0.584688 -3.97422 0
M  V30 7341 N 666.302 -1.03478 -2.71552 0
M  V30 7342 H 665.849 -1.59779 -2.02061 0
M  V30 7343 H 665.807 -0.27341 -3.13209 0
M  V30 7344 N 669.579 0.400081 -1.52437 0
M  V30 7345 C 670.807 1.16768 -1.70801 0
M  V30 7346 C 671.222 1.84036 -0.421462 0
M  V30 7347 O 670.579 1.72242 0.603228 0
M  V30 7348 C 670.63 2.22403 -2.8499 0
M  V30 7349 O 670.351 1.57879 -4.08663 0
M  V30 7350 C 671.852 3.11974 -3.1494 0
M  V30 7351 H 669.072 0.350533 -0.57216 0
M  V30 7352 H 671.616 0.469534 -1.99037 0
M  V30 7353 H 669.771 2.87871 -2.59247 0
M  V30 7354 H 670.185 2.27982 -4.7236 0
M  V30 7355 H 671.659 3.82148 -3.9833 0
M  V30 7356 H 672.136 3.74858 -2.28863 0
M  V30 7357 H 672.742 2.52165 -3.42481 0
M  V30 7358 N 671.057 1.43213 0.657864 0
M  V30 7359 C 671.987 1.50815 1.78262 0
M  V30 7360 C 672.968 0.363211 1.66177 0
M  V30 7361 O 674.153 0.579806 1.85343 0
M  V30 7362 C 671.283 1.42625 3.16663 0
M  V30 7363 C 670.237 2.5532 3.43505 0
M  V30 7364 C 669.563 2.32184 4.81658 0
M  V30 7365 C 670.863 3.97583 3.38711 0
M  V30 7366 H 672.557 2.44954 1.72157 0
M  V30 7367 H 670.103 1.17896 0.82683 0
M  V30 7368 H 672.056 1.46548 3.95097 0
M  V30 7369 H 670.78 0.449877 3.23487 0
M  V30 7370 H 669.439 2.50742 2.6744 0
M  V30 7371 H 669.087 1.32801 4.85153 0
M  V30 7372 H 668.787 3.07724 5.00579 0
M  V30 7373 H 670.311 2.37883 5.62356 0
M  V30 7374 H 671.725 4.03673 4.07089 0
M  V30 7375 H 670.122 4.73112 3.69168 0
M  V30 7376 H 671.192 4.23049 2.36976 0
M  V30 7377 N 672.536 -0.895792 1.29666 0
M  V30 7378 C 673.466 -2.01673 1.17688 0
M  V30 7379 C 674.447 -1.69955 0.0701317 0
M  V30 7380 O 675.632 -1.9258 0.250289 0
M  V30 7381 C 672.762 -3.36568 0.856681 0
M  V30 7382 C 671.716 -3.82509 1.92017 0
M  V30 7383 C 671.042 -5.14574 1.4532 0
M  V30 7384 C 672.342 -4.02409 3.32963 0
M  V30 7385 H 674.036 -2.11953 2.11463 0
M  V30 7386 H 671.582 -1.01839 1.01807 0
M  V30 7387 H 673.535 -4.14498 0.759577 0
M  V30 7388 H 672.259 -3.26391 -0.116763 0
M  V30 7389 H 670.918 -3.068 2.00673 0
M  V30 7390 H 670.566 -5.00815 0.468325 0
M  V30 7391 H 670.266 -5.46283 2.16447 0
M  V30 7392 H 671.79 -5.9504 1.36968 0
M  V30 7393 H 673.204 -4.70808 3.27127 0
M  V30 7394 H 671.601 -4.45478 4.02082 0
M  V30 7395 H 672.671 -3.06616 3.75652 0
M  V30 7396 N 674.014 -1.12206 -1.10668 0
M  V30 7397 C 674.962 -0.782918 -2.19028 0
M  V30 7398 C 675.956 0.229175 -1.67843 0
M  V30 7399 O 677.162 0.0876295 -1.79787 0
M  V30 7400 H 673.537 -0.235339 -0.714227 0
M  V30 7401 H 675.508 -1.70527 -2.44874 0
M  V30 7402 C 674.257 -0.25116 -3.46792 0
M  V30 7403 H 673.58 -1.02123 -3.86537 0
M  V30 7404 H 675.02 -0.0521409 -4.23968 0
M  V30 7405 C 673.479 1.02037 -3.21076 0
M  V30 7406 O 674.009 2.09862 -3.42522 0
M  V30 7407 N 672.215 0.946348 -2.74759 0
M  V30 7408 H 671.762 0.068777 -2.57508 0
M  V30 7409 H 671.72 1.79775 -2.57931 0
M  V30 7410 N 675.492 1.28418 -0.913599 0
M  V30 7411 C 676.908 1.47411 -0.611728 0
M  V30 7412 C 677.108 1.83018 0.843008 0
M  V30 7413 O 676.164 1.93505 1.6221 0
M  V30 7414 C 677.477 2.57703 -1.5495 0
M  V30 7415 C 679.025 2.71572 -1.5562 0
M  V30 7416 C 679.5 3.85008 -2.48058 0
M  V30 7417 N 680.991 3.92361 -2.46184 0
M  V30 7418 C 681.726 4.79516 -3.14407 0
M  V30 7419 N 681.222 5.71262 -3.91958 0
M  V30 7420 N 683.015 4.73125 -3.03495 0
M  V30 7421 H 675.166 1.03585 -1.85429 0
M  V30 7422 H 677.429 0.515907 -0.795326 0
M  V30 7423 H 677.135 2.38298 -2.58663 0
M  V30 7424 H 677.009 3.54801 -1.28048 0
M  V30 7425 H 679.396 2.90366 -0.526441 0
M  V30 7426 H 679.477 1.75006 -1.86565 0
M  V30 7427 H 679.121 3.66969 -3.51136 0
M  V30 7428 H 679.051 4.80971 -2.14416 0
M  V30 7429 H 681.542 3.26749 -1.89851 0
M  V30 7430 H 681.855 6.34593 -4.41034 0
M  V30 7431 H 680.2 5.71103 -3.96063 0
M  V30 7432 H 683.391 4.00442 -2.42413 0
M  V30 7433 H 683.564 5.40834 -3.56935 0
M  V30 7434 N 676.97 0.677563 1.42291 0
M  V30 7435 C 678.218 0.200578 2.01102 0
M  V30 7436 C 678.539 -1.19803 1.53858 0
M  V30 7437 O 677.809 -1.80496 0.761439 0
M  V30 7438 H 676.389 0.0711634 0.743603 0
M  V30 7439 H 679.051 0.874691 1.7417 0
M  V30 7440 H 678.147 0.204 3.11433 0
M  V30 7441 N 678.448 -1.51871 0.421078 0
M  V30 7442 C 679.398 -2.24171 -0.416111 0
M  V30 7443 C 680.382 -1.25763 -1.00362 0
M  V30 7444 O 681.574 -1.5094 -0.924452 0
M  V30 7445 C 678.703 -3.07533 -1.52571 0
M  V30 7446 C 677.789 -4.1336 -0.948399 0
M  V30 7447 N 678.18 -5.05704 -0.0987933 0
M  V30 7448 C 676.478 -4.29055 -1.21768 0
M  V30 7449 C 677.179 -5.8127 0.223705 0
M  V30 7450 N 676.155 -5.4221 -0.388524 0
M  V30 7451 H 679.957 -2.92925 0.239166 0
M  V30 7452 H 677.471 -1.60732 0.232191 0
M  V30 7453 H 679.468 -3.57893 -2.13819 0
M  V30 7454 H 678.128 -2.4032 -2.18349 0
M  V30 7455 H 679.139 -5.17214 0.266428 0
M  V30 7456 H 675.816 -3.73071 -1.87416 0
M  V30 7457 H 677.206 -6.65653 0.914076 0
M  V30 7458 N 679.926 -0.151884 -1.56866 0
M  V30 7459 C 680.889 0.771861 -2.15812 0
M  V30 7460 C 681.889 1.17181 -1.10115 0
M  V30 7461 O 683.079 1.09194 -1.35729 0
M  V30 7462 C 680.211 2.04806 -2.7252 0
M  V30 7463 H 681.404 0.259021 -2.98779 0
M  V30 7464 H 678.957 0.097588 -1.55995 0
M  V30 7465 H 679.692 2.60445 -1.93233 0
M  V30 7466 H 679.477 1.77044 -3.49854 0
M  V30 7467 H 680.967 2.70771 -3.1792 0
M  V30 7468 N 681.404 1.57128 0.121893 0
M  V30 7469 C 682.653 1.83888 0.828748 0
M  V30 7470 C 682.966 0.737087 1.81181 0
M  V30 7471 O 684.172 0.891007 2.56463 0
M  V30 7472 C 682.628 3.26014 1.52455 0
M  V30 7473 C 682.236 4.44195 0.58263 0
M  V30 7474 C 683.98 3.62025 2.21671 0
M  V30 7475 C 681.887 5.77349 1.28149 0
M  V30 7476 H 680.817 0.685856 0.313238 0
M  V30 7477 H 683.468 1.83319 0.0814851 0
M  V30 7478 H 681.85 3.21044 2.31834 0
M  V30 7479 H 683.024 4.60457 -0.177729 0
M  V30 7480 H 681.339 4.164 -0.00241228 0
M  V30 7481 H 683.936 4.58776 2.74643 0
M  V30 7482 H 684.279 2.89315 2.99337 0
M  V30 7483 H 684.812 3.68767 1.49184 0
M  V30 7484 H 681.551 6.53221 0.546189 0
M  V30 7485 H 681.071 5.64978 2.01394 0
M  V30 7486 H 682.75 6.21006 1.81549 0
M  V30 7487 N 682.882 -0.391992 1.52647 0
M  V30 7488 C 683.829 -1.47866 1.77213 0
M  V30 7489 C 684.799 -1.54286 0.615223 0
M  V30 7490 O 685.984 -1.7059 0.854622 0
M  V30 7491 C 683.124 -2.85129 1.94411 0
M  V30 7492 C 682.237 -2.87883 3.22098 0
M  V30 7493 C 681.372 -4.16553 3.29631 0
M  V30 7494 C 680.411 -4.13348 4.51453 0
M  V30 7495 N 679.548 -5.33619 4.56284 0
M  V30 7496 H 684.388 -1.26219 2.6995 0
M  V30 7497 H 681.925 -0.612367 1.33748 0
M  V30 7498 H 683.883 -3.64833 2.02367 0
M  V30 7499 H 682.513 -3.05232 1.05038 0
M  V30 7500 H 681.565 -2.00567 3.23229 0
M  V30 7501 H 682.877 -2.81382 4.11856 0
M  V30 7502 H 682.031 -5.0466 3.36753 0
M  V30 7503 H 680.77 -4.25773 2.37842 0
M  V30 7504 H 679.775 -3.23629 4.44459 0
M  V30 7505 H 681 -4.05754 5.44555 0
M  V30 7506 H 678.946 -5.43474 3.67385 0
M  V30 7507 H 678.863 -5.29182 5.3991 0
M  V30 7508 H 680.131 -6.23632 4.67657 0
M  V30 7509 N 684.36 -1.4356 -0.65026 0
M  V30 7510 C 685.609 -1.44619 -1.406 0
M  V30 7511 C 685.922 -0.0752645 -1.95455 0
M  V30 7512 O 687.128 0.0366832 -2.71475 0
M  V30 7513 C 685.584 -2.54511 -2.54465 0
M  V30 7514 C 685.192 -3.97723 -2.06204 0
M  V30 7515 C 686.936 -2.64768 -3.31811 0
M  V30 7516 C 684.843 -4.99075 -3.17298 0
M  V30 7517 H 683.773 -0.537983 -0.52829 0
M  V30 7518 H 686.424 -1.69559 -0.701561 0
M  V30 7519 H 684.806 -2.22777 -3.27393 0
M  V30 7520 H 685.98 -4.38932 -1.40267 0
M  V30 7521 H 684.295 -3.91538 -1.41729 0
M  V30 7522 H 686.892 -3.37664 -4.14593 0
M  V30 7523 H 687.235 -1.69936 -3.80036 0
M  V30 7524 H 687.768 -2.95817 -2.65964 0
M  V30 7525 H 684.507 -5.95469 -2.74038 0
M  V30 7526 H 684.027 -4.62476 -3.81937 0
M  V30 7527 H 685.706 -5.21913 -3.82382 0
M  V30 7528 N 685.838 0.888903 -1.30139 0
M  V30 7529 C 686.785 1.99422 -1.16188 0
M  V30 7530 C 687.755 1.66017 -0.0523869 0
M  V30 7531 O 688.94 1.89506 -0.221864 0
M  V30 7532 C 686.08 3.34325 -0.855612 0
M  V30 7533 C 685.193 3.80445 -2.0466 0
M  V30 7534 C 684.328 5.03975 -1.67876 0
M  V30 7535 C 683.367 5.42492 -2.83493 0
M  V30 7536 N 682.504 6.57206 -2.47032 0
M  V30 7537 H 687.344 2.10687 -2.10749 0
M  V30 7538 H 684.881 1.03165 -1.04859 0
M  V30 7539 H 686.839 4.11968 -0.658681 0
M  V30 7540 H 685.469 3.22756 0.0531155 0
M  V30 7541 H 684.521 2.98745 -2.3549 0
M  V30 7542 H 685.833 4.04933 -2.91257 0
M  V30 7543 H 684.987 5.89232 -1.44535 0
M  V30 7544 H 683.726 4.8135 -0.784431 0
M  V30 7545 H 682.731 4.55764 -3.07505 0
M  V30 7546 H 683.956 5.67093 -3.73607 0
M  V30 7547 H 681.902 6.36164 -1.601 0
M  V30 7548 H 681.819 6.81543 -3.27161 0
M  V30 7549 H 683.087 7.45704 -2.27038 0
M  V30 7550 N 687.317 1.12792 1.10072 0
M  V30 7551 C 688.542 0.908838 1.86427 0
M  V30 7552 C 688.967 -0.536793 1.80278 0
M  V30 7553 O 688.325 -1.38033 1.17543 0
M  V30 7554 C 688.373 1.39295 3.3261 0
M  V30 7555 O 687.477 0.573846 4.08388 0
M  V30 7556 H 686.818 0.326234 0.578331 0
M  V30 7557 H 689.348 1.50094 1.39043 0
M  V30 7558 H 689.358 1.39366 3.83459 0
M  V30 7559 H 688.033 2.44555 3.36401 0
M  V30 7560 H 686.61 0.640438 3.67359 0
M  V30 7561 N 688.795 -1.27931 0.920396 0
M  V30 7562 C 689.758 -2.25345 0.41858 0
M  V30 7563 C 690.758 -1.54116 -0.458798 0
M  V30 7564 O 691.948 -1.72235 -0.260912 0
M  V30 7565 C 689.08 -3.38556 -0.399104 0
M  V30 7566 H 690.273 -2.71251 1.27918 0
M  V30 7567 H 687.826 -1.39728 0.700406 0
M  V30 7568 H 688.561 -2.98021 -1.27882 0
M  V30 7569 H 688.346 -3.91426 0.229863 0
M  V30 7570 H 689.836 -4.10976 -0.740817 0
M  V30 7571 N 690.273 -0.685099 -1.4193 0
M  V30 7572 C 691.498 -0.218842 -2.06242 0
M  V30 7573 C 691.923 1.11923 -1.51178 0
M  V30 7574 O 691.281 1.69837 -0.634446 0
M  V30 7575 C 691.329 -0.175592 -3.60172 0
M  V30 7576 O 690.433 0.852776 -4.03487 0
M  V30 7577 H 689.774 -0.109531 -0.654904 0
M  V30 7578 H 692.304 -0.937013 -1.81882 0
M  V30 7579 H 692.314 -0.00291151 -4.08 0
M  V30 7580 H 690.989 -1.15222 -3.99621 0
M  V30 7581 H 689.566 0.650301 -3.67186 0
M  V30 7582 N 691.751 1.51645 -0.429126 0
M  V30 7583 C 693.162 1.86665 0.0359003 0
M  V30 7584 C 693.513 1.34677 1.42676 0
M  V30 7585 O 692.638 0.694195 2.04963 0
M  V30 7586 C 693.233 3.38724 0.0719221 0
M  V30 7587 C 691.792 3.7331 0.481336 0
M  V30 7588 C 690.939 2.75313 -0.331329 0
M  V30 7589 H 693.89 1.44987 -0.645333 0
M  V30 7590 H 693.911 3.7011 0.883118 0
M  V30 7591 H 693.423 3.76532 -0.940495 0
M  V30 7592 H 691.524 3.41088 1.49966 0
M  V30 7593 H 691.637 4.78631 0.211837 0
M  V30 7594 H 690.001 2.53839 0.209204 0
M  V30 7595 H 690.784 3.15963 -1.34247 0
M  V30 7596 N 693.229 0.160201 1.56784 0
M  V30 7597 C 694.469 -0.490179 1.98435 0
M  V30 7598 C 694.833 -1.61164 1.04355 0
M  V30 7599 O 696.034 -2.3238 1.35103 0
M  V30 7600 C 694.305 -0.971106 3.43954 0
M  V30 7601 S 695.864 -1.62423 4.07632 0
M  V30 7602 H 692.682 -0.158056 0.693209 0
M  V30 7603 H 695.284 0.255036 1.93829 0
M  V30 7604 H 693.988 -0.144323 4.10146 0
M  V30 7605 H 693.519 -1.75063 3.52302 0
M  V30 7606 H 695.534 -2.91199 4.01768 0
M  V30 7607 N 694.707 -1.5719 -0.113559 0
M  V30 7608 C 695.956 -1.84325 -0.818984 0
M  V30 7609 C 696.269 -0.746685 -1.80787 0
M  V30 7610 O 697.475 -0.904596 -2.55987 0
M  V30 7611 C 695.931 -3.26818 -1.50724 0
M  V30 7612 C 695.539 -4.44498 -0.559065 0
M  V30 7613 C 697.283 -3.63196 -2.19748 0
M  V30 7614 C 695.19 -5.7802 -1.25086 0
M  V30 7615 H 694.12 -0.687507 -0.309596 0
M  V30 7616 H 696.771 -1.8336 -0.0717621 0
M  V30 7617 H 695.153 -3.22269 -2.30128 0
M  V30 7618 H 696.327 -4.60356 0.202146 0
M  V30 7619 H 694.642 -4.16393 0.024495 0
M  V30 7620 H 697.239 -4.60226 -2.72206 0
M  V30 7621 H 697.582 -2.90899 -2.97798 0
M  V30 7622 H 698.115 -3.69553 -1.47226 0
M  V30 7623 H 694.854 -6.53501 -0.511539 0
M  V30 7624 H 694.374 -5.66038 -1.98395 0
M  V30 7625 H 696.053 -6.2196 -1.78253 0
M  V30 7626 N 696.185 0.383891 -1.52853 0
M  V30 7627 C 697.148 1.45197 -1.77343 0
M  V30 7628 C 698.148 1.47362 -0.643522 0
M  V30 7629 O 699.338 1.48443 -0.911613 0
M  V30 7630 C 696.47 2.8445 -1.87885 0
M  V30 7631 H 697.663 1.24764 -2.72716 0
M  V30 7632 H 695.216 0.615939 -1.43652 0
M  V30 7633 H 695.951 3.10222 -0.94515 0
M  V30 7634 H 695.736 2.8428 -2.70051 0
M  V30 7635 H 697.226 3.61832 -2.08488 0
M  V30 7636 N 697.663 1.43903 0.642637 0
M  V30 7637 C 698.94 1.36556 1.40043 0
M  V30 7638 C 699.32 0.0185588 2.11092 0
M  V30 7639 O 698.668 -0.998438 2.05532 0
M  V30 7640 C 698.878 2.55596 2.37638 0
M  V30 7641 C 700.226 2.99153 3.01318 0
M  V30 7642 O 701.25 2.55719 2.47965 0
M  V30 7643 O 700.109 3.74427 3.98078 0
M  V30 7644 H 697.203 0.540189 0.626198 0
M  V30 7645 H 699.749 1.55971 0.668657 0
M  V30 7646 H 698.521 3.45256 1.84158 0
M  V30 7647 H 698.144 2.38334 3.18249 0
M  V30 7648 N 699.141 -0.881989 1.30609 0
M  V30 7649 C 700.088 -1.98803 1.17244 0
M  V30 7650 C 701.058 -1.65987 0.0611905 0
M  V30 7651 O 702.243 -1.89385 0.231911 0
M  V30 7652 C 699.383 -3.33867 0.87333 0
M  V30 7653 C 698.496 -3.79354 2.06675 0
M  V30 7654 C 697.631 -5.03078 1.70547 0
M  V30 7655 C 696.67 -5.40981 2.86366 0
M  V30 7656 N 695.807 -6.55886 2.50514 0
M  V30 7657 H 700.647 -2.09566 2.11863 0
M  V30 7658 H 698.184 -1.02607 1.05405 0
M  V30 7659 H 700.142 -4.11612 0.680519 0
M  V30 7660 H 698.772 -3.2278 -0.0359983 0
M  V30 7661 H 697.824 -2.97492 2.37071 0
M  V30 7662 H 699.136 -4.03382 2.93401 0
M  V30 7663 H 698.29 -5.88457 1.47658 0
M  V30 7664 H 697.029 -4.80927 0.809947 0
M  V30 7665 H 696.034 -4.54127 3.09917 0
M  V30 7666 H 697.259 -5.65104 3.76609 0
M  V30 7667 H 695.205 -6.35306 1.63471 0
M  V30 7668 H 695.122 -6.79799 3.30771 0
M  V30 7669 H 696.39 -7.44489 2.30989 0
M  V30 7670 N 700.619 -1.13374 -1.09472 0
M  V30 7671 C 701.868 -0.889844 -1.8101 0
M  V30 7672 C 702.181 0.585686 -1.86625 0
M  V30 7673 O 703.387 0.946497 -2.54467 0
M  V30 7674 C 701.843 -1.54241 -3.25174 0
M  V30 7675 C 701.451 -3.05343 -3.27826 0
M  V30 7676 C 703.195 -1.37919 -4.0147 0
M  V30 7677 C 701.102 -3.63486 -4.6651 0
M  V30 7678 H 700.032 -0.329256 -0.678311 0
M  V30 7679 H 702.683 -1.36139 -1.23038 0
M  V30 7680 H 701.065 -0.998525 -3.83204 0
M  V30 7681 H 702.239 -3.66307 -2.79563 0
M  V30 7682 H 700.554 -3.21175 -2.65019 0
M  V30 7683 H 703.151 -1.78771 -5.03929 0
M  V30 7684 H 703.494 -0.323987 -4.15037 0
M  V30 7685 H 704.027 -1.89284 -3.49881 0
M  V30 7686 H 700.766 -4.68811 -4.58145 0
M  V30 7687 H 700.286 -3.073 -5.15099 0
M  V30 7688 H 701.965 -3.63134 -5.35484 0
M  V30 7689 N 702.098 1.27442 -0.927168 0
M  V30 7690 C 703.323 1.99036 -0.583042 0
M  V30 7691 C 703.748 1.68711 0.83176 0
M  V30 7692 O 703.106 0.927081 1.55804 0
M  V30 7693 C 703.154 3.51271 -0.814925 0
M  V30 7694 O 702.258 4.12226 0.119742 0
M  V30 7695 H 701.599 0.624883 -0.224538 0
M  V30 7696 H 704.129 1.62263 -1.24628 0
M  V30 7697 H 704.139 4.01411 -0.730282 0
M  V30 7698 H 702.814 3.72676 -1.84623 0
M  V30 7699 H 701.391 3.72897 -0.0147688 0
M  V30 7700 N 703.576 0.692616 1.41565 0
M  V30 7701 C 704.523 0.0254264 2.30786 0
M  V30 7702 C 705.493 -0.774347 1.46946 0
M  V30 7703 O 706.678 -0.742981 1.7574 0
M  V30 7704 C 703.818 -0.907123 3.32964 0
M  V30 7705 C 702.931 -0.0992784 4.31886 0
M  V30 7706 C 702.066 -1.0292 5.21134 0
M  V30 7707 C 701.105 -0.214088 6.11725 0
M  V30 7708 N 700.242 -1.09766 6.93467 0
M  V30 7709 H 705.082 0.792036 2.87282 0
M  V30 7710 H 702.619 0.4023 1.41492 0
M  V30 7711 H 704.577 -1.46181 3.90752 0
M  V30 7712 H 703.207 -1.64016 2.78026 0
M  V30 7713 H 702.259 0.572287 3.76071 0
M  V30 7714 H 703.571 0.532782 4.95946 0
M  V30 7715 H 702.725 -1.65321 5.83741 0
M  V30 7716 H 701.464 -1.69512 4.57293 0
M  V30 7717 H 700.469 0.42302 5.4817 0
M  V30 7718 H 701.694 0.447995 6.77621 0
M  V30 7719 H 699.64 -1.74965 6.32237 0
M  V30 7720 H 699.557 -0.521099 7.54202 0
M  V30 7721 H 700.825 -1.70858 7.60544 0
M  V30 7722 N 705.054 -1.51416 0.437162 0
M  V30 7723 C 706.465 -1.86682 -0.0260005 0
M  V30 7724 C 706.816 -1.35432 -1.4196 0
M  V30 7725 O 705.941 -0.705055 -2.04592 0
M  V30 7726 C 706.536 -3.38757 -0.0539577 0
M  V30 7727 C 705.095 -3.7356 -0.461532 0
M  V30 7728 C 704.242 -2.75134 0.345924 0
M  V30 7729 H 707.193 -1.44642 0.653013 0
M  V30 7730 H 707.214 -3.70573 -0.863478 0
M  V30 7731 H 706.726 -3.76028 0.96045 0
M  V30 7732 H 704.827 -3.41878 -1.48155 0
M  V30 7733 H 704.94 -4.78737 -0.186451 0
M  V30 7734 H 703.304 -2.53947 -0.195739 0
M  V30 7735 H 704.087 -3.15247 1.35921 0
M  V30 7736 N 706.532 -0.168513 -1.56696 0
M  V30 7737 C 707.464 0.794249 -2.14998 0
M  V30 7738 C 708.477 1.1957 -1.10485 0
M  V30 7739 O 709.666 1.13604 -1.37682 0
M  V30 7740 C 706.766 2.08018 -2.67547 0
M  V30 7741 C 705.939 1.84274 -3.96689 0
M  V30 7742 C 704.998 2.97059 -4.3433 0
M  V30 7743 O 704.024 2.67815 -5.02259 0
M  V30 7744 N 705.226 4.24775 -3.9566 0
M  V30 7745 H 707.991 0.295832 -2.98236 0
M  V30 7746 H 705.552 0.0143611 -1.61894 0
M  V30 7747 H 707.544 2.82559 -2.89729 0
M  V30 7748 H 706.114 2.49059 -1.88914 0
M  V30 7749 H 705.334 0.936528 -3.82914 0
M  V30 7750 H 706.622 1.65773 -4.81037 0
M  V30 7751 H 706.02 4.51395 -3.40968 0
M  V30 7752 H 704.577 4.96027 -4.22848 0
M  V30 7753 N 708.01 1.57248 0.105221 0
M  V30 7754 C 708.92 2.04653 1.14693 0
M  V30 7755 C 709.936 0.969488 1.44489 0
M  V30 7756 O 711.112 1.28196 1.55331 0
M  V30 7757 C 708.177 2.45297 2.45011 0
M  V30 7758 C 707.238 3.67148 2.22489 0
M  V30 7759 C 706.471 4.05844 3.46592 0
M  V30 7760 O 706.694 3.44736 4.54437 0
M  V30 7761 O 705.628 4.98862 3.36779 0
M  V30 7762 H 709.454 2.93663 0.774336 0
M  V30 7763 H 707.039 1.45998 0.31701 0
M  V30 7764 H 708.921 2.72112 3.21766 0
M  V30 7765 H 707.596 1.59429 2.81717 0
M  V30 7766 H 706.503 3.45463 1.43547 0
M  V30 7767 H 707.836 4.53764 1.9068 0
M  V30 7768 N 709.488 -0.375779 1.53054 0
M  V30 7769 C 710.418 -1.46598 1.81745 0
M  V30 7770 C 711.399 -1.56337 0.670286 0
M  V30 7771 O 712.584 -1.71071 0.919158 0
M  V30 7772 C 709.714 -2.84058 1.99821 0
M  V30 7773 C 708.668 -2.8915 3.15557 0
M  V30 7774 C 707.994 -4.29187 3.18908 0
M  V30 7775 C 709.294 -2.57595 4.54359 0
M  V30 7776 H 710.988 -1.22837 2.73041 0
M  V30 7777 H 708.534 -0.589485 1.31381 0
M  V30 7778 H 710.487 -3.60342 2.18475 0
M  V30 7779 H 709.211 -3.09184 1.05226 0
M  V30 7780 H 707.87 -2.15316 2.96706 0
M  V30 7781 H 707.518 -4.51374 2.2197 0
M  V30 7782 H 707.218 -4.33512 3.96662 0
M  V30 7783 H 708.742 -5.07359 3.39734 0
M  V30 7784 H 710.156 -3.23595 4.73243 0
M  V30 7785 H 708.553 -2.73252 5.34279 0
M  V30 7786 H 709.623 -1.52882 4.60169 0
M  V30 7787 N 710.966 -1.44241 -0.634997 0
M  V30 7788 C 712.191 -1.50516 -1.42687 0
M  V30 7789 C 712.616 -0.129864 -1.87651 0
M  V30 7790 O 711.974 0.880164 -1.58502 0
M  V30 7791 C 712.022 -2.4714 -2.62591 0
M  V30 7792 O 711.126 -1.97025 -3.62291 0
M  V30 7793 H 710.467 -0.50841 -0.427101 0
M  V30 7794 H 712.997 -1.89337 -0.775408 0
M  V30 7795 H 713.007 -2.65048 -3.10183 0
M  V30 7796 H 711.682 -3.47039 -2.29209 0
M  V30 7797 H 710.259 -1.88866 -3.21534 0
M  V30 7798 N 712.444 0.87505 -1.31075 0
M  V30 7799 C 713.669 1.66583 -1.23551 0
M  V30 7800 C 714.094 1.87067 0.19686 0
M  V30 7801 O 713.452 1.40877 1.1412 0
M  V30 7802 C 713.5 3.01401 -1.97965 0
M  V30 7803 O 712.604 3.90923 -1.31351 0
M  V30 7804 H 711.945 0.508645 -0.426821 0
M  V30 7805 H 714.475 1.09139 -1.7306 0
M  V30 7806 H 714.485 3.51374 -2.07366 0
M  V30 7807 H 713.16 2.85812 -3.02133 0
M  V30 7808 H 711.737 3.49369 -1.30368 0
M  V30 7809 N 713.922 1.13953 1.08869 0
M  V30 7810 C 715.199 0.815768 1.77777 0
M  V30 7811 C 715.579 -0.691624 1.99449 0
M  V30 7812 O 714.927 -1.63085 1.60049 0
M  V30 7813 C 715.137 1.60916 3.09689 0
M  V30 7814 C 716.485 1.80549 3.84301 0
M  V30 7815 O 717.509 1.57562 3.19457 0
M  V30 7816 O 716.368 2.18946 5.00724 0
M  V30 7817 H 713.462 0.298445 0.771271 0
M  V30 7818 H 716.008 1.24446 1.15374 0
M  V30 7819 H 714.78 2.6333 2.89435 0
M  V30 7820 H 714.403 1.17578 3.79817 0
M  V30 7821 N 715.4 -1.26948 0.933913 0
M  V30 7822 C 716.33 -2.29017 0.45534 0
M  V30 7823 C 717.311 -1.62961 -0.487605 0
M  V30 7824 O 718.496 -1.90223 -0.391022 0
M  V30 7825 C 715.626 -3.46112 -0.287015 0
M  V30 7826 C 714.58 -4.24205 0.568682 0
M  V30 7827 C 713.906 -5.3384 -0.303206 0
M  V30 7828 C 715.206 -4.88954 1.83633 0
M  V30 7829 H 716.9 -2.69298 1.30839 0
M  V30 7830 H 714.446 -1.29459 0.630579 0
M  V30 7831 H 716.399 -4.16622 -0.6328 0
M  V30 7832 H 715.123 -3.04765 -1.17414 0
M  V30 7833 H 713.782 -3.5545 0.897261 0
M  V30 7834 H 713.43 -4.88734 -1.18947 0
M  V30 7835 H 713.13 -5.86998 0.265879 0
M  V30 7836 H 714.654 -6.0719 -0.644423 0
M  V30 7837 H 716.068 -5.51717 1.55823 0
M  V30 7838 H 714.465 -5.52198 2.34941 0
M  V30 7839 H 715.535 -4.12305 2.55211 0
M  V30 7840 N 716.879 -0.700114 -1.41195 0
M  V30 7841 C 717.827 -0.0263301 -2.32585 0
M  V30 7842 C 718.821 0.763683 -1.51209 0
M  V30 7843 O 720.027 0.668793 -1.67114 0
M  V30 7844 H 716.402 0.0102869 -0.75193 0
M  V30 7845 H 718.373 -0.814087 -2.8708 0
M  V30 7846 C 717.122 0.892793 -3.36042 0
M  V30 7847 H 716.445 0.294306 -3.98715 0
M  V30 7848 H 717.885 1.33247 -4.02518 0
M  V30 7849 C 716.344 2.01109 -2.7029 0
M  V30 7850 O 716.874 3.10035 -2.55423 0
M  V30 7851 N 715.08 1.79015 -2.28915 0
M  V30 7852 H 714.627 0.904275 -2.41207 0
M  V30 7853 H 714.585 2.54022 -1.85257 0
M  V30 7854 N 718.357 1.51182 -0.445186 0
M  V30 7855 C 719.603 2.02452 0.11882 0
M  V30 7856 C 719.936 1.32824 1.41673 0
M  V30 7857 O 719.211 0.445637 1.89326 0
M  V30 7858 C 719.494 3.5859 0.329475 0
M  V30 7859 C 719.347 4.38823 -0.987638 0
M  V30 7860 C 720.666 4.26241 1.09575 0
M  V30 7861 H 717.785 0.735819 0.0417092 0
M  V30 7862 H 720.427 1.80747 -0.585718 0
M  V30 7863 H 718.577 3.77214 0.9296 0
M  V30 7864 H 720.249 4.3183 -1.62235 0
M  V30 7865 H 718.492 4.03594 -1.59041 0
M  V30 7866 H 719.163 5.46257 -0.794192 0
M  V30 7867 H 721.639 4.11934 0.587328 0
M  V30 7868 H 720.515 5.35354 1.21191 0
M  V30 7869 H 720.776 3.87635 2.12584 0
M  V30 7870 N 719.835 0.176821 1.56605 0
M  V30 7871 C 721.083 -0.465793 1.96659 0
M  V30 7872 C 721.404 -1.63406 1.06412 0
M  V30 7873 O 720.674 -1.95457 0.131603 0
M  V30 7874 H 719.254 -0.175072 0.726195 0
M  V30 7875 H 721.916 0.25929 1.93168 0
M  V30 7876 H 721.012 -0.822138 3.01077 0
M  V30 7877 N 721.313 -1.57302 -0.09688 0
M  V30 7878 C 722.59 -1.7701 -0.832272 0
M  V30 7879 C 722.97 -0.758025 -1.97021 0
M  V30 7880 O 722.318 0.213824 -2.27497 0
M  V30 7881 C 722.528 -3.22725 -1.32851 0
M  V30 7882 C 723.876 -3.85856 -1.772 0
M  V30 7883 O 724.9 -3.26464 -1.42478 0
M  V30 7884 O 723.759 -4.90295 -2.41398 0
M  V30 7885 H 720.853 -0.725558 -0.396856 0
M  V30 7886 H 723.399 -1.69516 -0.0789005 0
M  V30 7887 H 722.171 -3.87921 -0.51312 0
M  V30 7888 H 721.794 -3.34845 -2.14394 0
M  V30 7889 N 722.791 0.367657 -1.53252 0
M  V30 7890 C 724.019 1.13119 -1.73239 0
M  V30 7891 C 724.434 1.831 -0.460404 0
M  V30 7892 O 723.791 1.73483 0.566557 0
M  V30 7893 C 723.842 2.16308 -2.89643 0
M  V30 7894 O 723.563 1.49175 -4.1192 0
M  V30 7895 C 725.064 3.05224 -3.21486 0
M  V30 7896 H 722.284 0.338318 -0.579467 0
M  V30 7897 H 724.828 0.42721 -1.99988 0
M  V30 7898 H 722.983 2.82307 -2.65295 0
M  V30 7899 H 723.397 2.17912 -4.7709 0
M  V30 7900 H 724.871 3.73613 -4.06346 0
M  V30 7901 H 725.348 3.69919 -2.36763 0
M  V30 7902 H 725.954 2.44843 -3.47753 0
M  V30 7903 N 724.269 1.44576 0.627338 0
M  V30 7904 C 725.494 1.51271 1.41887 0
M  V30 7905 C 725.919 0.139814 1.8758 0
M  V30 7906 O 725.277 -0.871746 1.58966 0
M  V30 7907 C 725.325 2.48529 2.61277 0
M  V30 7908 O 724.429 1.98944 3.61241 0
M  V30 7909 H 723.77 0.510668 0.424399 0
M  V30 7910 H 726.3 1.89746 0.765356 0
M  V30 7911 H 726.31 2.66689 3.08773 0
M  V30 7912 H 724.985 3.48249 2.27366 0
M  V30 7913 H 723.562 1.90568 3.20528 0
M  V30 7914 N 725.747 -0.868086 1.31537 0
M  V30 7915 C 726.679 -1.98165 1.15166 0
M  V30 7916 C 727.692 -1.6255 0.0902335 0
M  V30 7917 O 728.881 -1.75272 0.33791 0
M  V30 7918 C 725.981 -3.30772 0.737776 0
M  V30 7919 C 725.154 -3.94716 1.88462 0
M  V30 7920 C 724.213 -5.05641 1.45648 0
M  V30 7921 O 723.239 -5.2636 2.16642 0
M  V30 7922 N 724.441 -5.79474 0.34493 0
M  V30 7923 H 727.206 -2.12754 2.11083 0
M  V30 7924 H 724.767 -1.04217 1.23897 0
M  V30 7925 H 726.759 -4.02366 0.434032 0
M  V30 7926 H 725.329 -3.1233 -0.129834 0
M  V30 7927 H 724.549 -3.16079 2.35558 0
M  V30 7928 H 725.837 -4.34175 2.65273 0
M  V30 7929 H 725.235 -5.65164 -0.246259 0
M  V30 7930 H 723.792 -6.51722 0.100728 0
M  V30 7931 N 727.225 -1.14528 -1.08264 0
M  V30 7932 C 728.173 -0.829201 -2.17318 0
M  V30 7933 C 729.167 0.193521 -1.68291 0
M  V30 7934 O 730.373 0.0494744 -1.79932 0
M  V30 7935 H 726.748 -0.250435 -0.709074 0
M  V30 7936 H 728.719 -1.75683 -2.41201 0
M  V30 7937 C 727.468 -0.324663 -3.46181 0
M  V30 7938 H 726.791 -1.10299 -3.84284 0
M  V30 7939 H 728.231 -0.142059 -4.23762 0
M  V30 7940 C 726.69 0.952033 -3.23169 0
M  V30 7941 O 727.22 2.02549 -3.46896 0
M  V30 7942 N 725.426 0.887854 -2.76705 0
M  V30 7943 H 724.973 0.0141402 -2.57596 0
M  V30 7944 H 724.931 1.74263 -2.61686 0
M  V30 7945 N 728.703 1.26451 -0.940633 0
M  V30 7946 C 729.928 1.98407 -0.60412 0
M  V30 7947 C 730.353 1.69584 0.81382 0
M  V30 7948 O 729.711 0.943553 1.54812 0
M  V30 7949 C 729.759 3.50387 -0.852136 0
M  V30 7950 O 728.863 4.1233 0.076013 0
M  V30 7951 H 728.204 0.622466 -0.231153 0
M  V30 7952 H 730.734 1.60932 -1.26342 0
M  V30 7953 H 730.744 4.00614 -0.772816 0
M  V30 7954 H 729.419 3.70696 -1.88566 0
M  V30 7955 H 727.996 3.7286 -0.0543187 0
M  V30 7956 N 730.181 0.707592 1.40822 0
M  V30 7957 C 731.421 0.247986 2.0289 0
M  V30 7958 C 731.785 -1.13484 1.54872 0
M  V30 7959 O 732.986 -1.69098 2.08948 0
M  V30 7960 C 731.257 0.316326 3.55997 0
M  V30 7961 S 732.816 -0.0674698 4.38748 0
M  V30 7962 H 729.634 0.09895 0.704081 0
M  V30 7963 H 732.236 0.928039 1.72069 0
M  V30 7964 H 730.94 1.32453 3.88438 0
M  V30 7965 H 730.471 -0.382474 3.91536 0
M  V30 7966 H 732.486 -1.29182 4.79089 0
M  V30 7967 N 731.66 -1.50943 0.453197 0
M  V30 7968 C 732.906 -2.02512 -0.108082 0
M  V30 7969 C 733.239 -1.33574 -1.40967 0
M  V30 7970 O 732.514 -0.455671 -1.89087 0
M  V30 7971 C 732.797 -3.58759 -0.310453 0
M  V30 7972 C 732.65 -4.38293 1.0109 0
M  V30 7973 C 733.969 -4.26816 -1.07313 0
M  V30 7974 H 731.088 -0.73603 -0.0378064 0
M  V30 7975 H 733.73 -1.80433 0.595295 0
M  V30 7976 H 731.88 -3.77702 -0.909582 0
M  V30 7977 H 733.552 -4.30964 1.64523 0
M  V30 7978 H 731.795 -4.02745 1.61179 0
M  V30 7979 H 732.466 -5.45828 0.82315 0
M  V30 7980 H 734.942 -4.1224 -0.565473 0
M  V30 7981 H 733.818 -5.35989 -1.1835 0
M  V30 7982 H 734.079 -3.88757 -2.10525 0
M  V30 7983 N 733.138 -0.185124 -1.56509 0
M  V30 7984 C 734.415 0.503348 -1.89013 0
M  V30 7985 C 734.795 1.80349 -1.09715 0
M  V30 7986 O 734.143 2.27665 -0.195203 0
M  V30 7987 C 734.353 0.731839 -3.41241 0
M  V30 7988 C 735.701 1.05568 -4.11267 0
M  V30 7989 O 736.725 0.819906 -3.46635 0
M  V30 7990 O 735.584 1.50116 -5.25478 0
M  V30 7991 H 732.678 0.261139 -0.784688 0
M  V30 7992 H 735.224 -0.224592 -1.68207 0
M  V30 7993 H 733.996 -0.18672 -3.90854 0
M  V30 7994 H 733.619 1.5126 -3.67704 0
M  V30 7995 N 734.616 1.57351 0.0885366 0
M  V30 7996 C 735.856 1.88248 0.796362 0
M  V30 7997 C 736.22 0.776915 1.75579 0
M  V30 7998 O 737.421 0.968485 2.50747 0
M  V30 7999 C 735.692 3.24385 1.50031 0
M  V30 8000 S 737.251 3.76991 2.24551 0
M  V30 8001 H 734.069 0.659697 0.265181 0
M  V30 8002 H 736.671 1.95428 0.0531843 0
M  V30 8003 H 735.375 4.02764 0.788 0
M  V30 8004 H 734.906 3.20361 2.28325 0
M  V30 8005 H 736.921 3.50933 3.508 0
M  V30 8006 N 736.094 -0.359525 1.53444 0
M  V30 8007 C 737.319 -1.12644 1.74144 0
M  V30 8008 C 737.744 -1.82082 0.472007 0
M  V30 8009 O 737.102 -1.71962 -0.57436 0
M  V30 8010 C 737.15 -2.12781 2.9113 0
M  V30 8011 O 736.254 -3.19984 2.60162 0
M  V30 8012 H 735.595 -0.326553 0.578152 0
M  V30 8013 H 738.125 -0.414798 2.00351 0
M  V30 8014 H 738.135 -2.56278 3.17467 0
M  V30 8015 H 736.81 -1.61634 3.83207 0
M  V30 8016 H 735.387 -2.81417 2.44661 0
M  V30 8017 N 737.572 -1.44907 -0.619662 0
M  V30 8018 C 738.818 -1.48512 -1.38102 0
M  V30 8019 C 739.151 -0.121686 -1.93818 0
M  V30 8020 O 738.426 0.862256 -1.74343 0
M  V30 8021 C 738.709 -2.55469 -2.53787 0
M  V30 8022 C 738.562 -4.01212 -2.03345 0
M  V30 8023 C 739.881 -2.58821 -3.55949 0
M  V30 8024 H 737 -0.540712 -0.500799 0
M  V30 8025 H 739.642 -1.7665 -0.69962 0
M  V30 8026 H 737.792 -2.31606 -3.11915 0
M  V30 8027 H 739.464 -4.36245 -1.49959 0
M  V30 8028 H 737.707 -4.12443 -1.34438 0
M  V30 8029 H 738.378 -4.71717 -2.86683 0
M  V30 8030 H 740.854 -2.80172 -3.07641 0
M  V30 8031 H 739.73 -3.35542 -4.34399 0
M  V30 8032 H 739.991 -1.63451 -4.10775 0
M  V30 8033 N 739.05 0.861098 -1.31996 0
M  V30 8034 C 740.278 1.6474 -1.25173 0
M  V30 8035 C 740.693 1.87926 0.181425 0
M  V30 8036 O 740.05 1.4437 1.1164 0
M  V30 8037 C 740.101 3.01036 -2.0015 0
M  V30 8038 O 739.822 2.7888 -3.37872 0
M  V30 8039 C 741.323 3.95481 -2.00273 0
M  V30 8040 H 738.543 0.513314 -0.432146 0
M  V30 8041 H 741.087 1.07419 -1.74016 0
M  V30 8042 H 739.242 3.55021 -1.55046 0
M  V30 8043 H 739.656 3.65514 -3.76165 0
M  V30 8044 H 741.13 4.88403 -2.57229 0
M  V30 8045 H 741.607 4.27957 -0.987407 0
M  V30 8046 H 742.213 3.47433 -2.45296 0
M  V30 8047 N 740.528 1.15101 1.07655 0
M  V30 8048 C 741.46 0.802722 2.14684 0
M  V30 8049 C 742.473 -0.183874 1.61758 0
M  V30 8050 O 743.662 0.0389349 1.78458 0
M  V30 8051 C 740.762 0.172135 3.38463 0
M  V30 8052 C 739.935 1.19538 4.20749 0
M  V30 8053 C 738.994 0.58714 5.22914 0
M  V30 8054 O 738.02 1.25224 5.55255 0
M  V30 8055 N 739.222 -0.632566 5.77043 0
M  V30 8056 H 741.987 1.72379 2.45164 0
M  V30 8057 H 739.548 1.04647 1.23534 0
M  V30 8058 H 741.54 -0.247465 4.03943 0
M  V30 8059 H 740.11 -0.652214 3.0572 0
M  V30 8060 H 739.33 1.79165 3.51132 0
M  V30 8061 H 740.618 1.88636 4.7254 0
M  V30 8062 H 740.016 -1.19135 5.53013 0
M  V30 8063 H 738.573 -0.994566 6.44167 0
M  V30 8064 N 742.006 -1.2595 0.947325 0
M  V30 8065 C 743.231 -1.98083 0.614633 0
M  V30 8066 C 743.656 -1.70013 -0.804815 0
M  V30 8067 O 743.014 -0.95175 -1.54309 0
M  V30 8068 C 743.062 -3.4993 0.870706 0
M  V30 8069 O 742.166 -4.12364 -0.0541451 0
M  V30 8070 H 741.507 -0.621232 0.234451 0
M  V30 8071 H 744.037 -1.60259 1.27193 0
M  V30 8072 H 744.047 -4.00198 0.794051 0
M  V30 8073 H 742.722 -3.69691 1.90529 0
M  V30 8074 H 741.299 -3.72826 0.0740917 0
M  V30 8075 N 743.484 -0.715051 -1.40445 0
M  V30 8076 C 744.432 -0.0509974 -2.32544 0
M  V30 8077 C 745.426 0.747602 -1.52011 0
M  V30 8078 O 746.632 0.651031 -1.67814 0
M  V30 8079 H 743.007 0.00231113 -0.751996 0
M  V30 8080 H 744.978 -0.84449 -2.86201 0
M  V30 8081 C 743.727 0.857101 -3.3697 0
M  V30 8082 H 743.05 0.252 -3.99005 0
M  V30 8083 H 744.49 1.28971 -4.03909 0
M  V30 8084 C 742.949 1.98231 -2.72408 0
M  V30 8085 O 743.479 3.07309 -2.58697 0
M  V30 8086 N 741.685 1.76577 -2.308 0
M  V30 8087 H 741.232 0.878641 -2.42152 0
M  V30 8088 H 741.19 2.52043 -1.87941 0
M  V30 8089 N 744.962 1.50701 -0.461195 0
M  V30 8090 C 745.909 2.2831 0.338094 0
M  V30 8091 C 746.879 1.32928 0.995957 0
M  V30 8092 O 748.064 1.61857 1.0103 0
M  V30 8093 C 745.204 3.14539 1.41983 0
M  V30 8094 C 744.317 4.24942 0.77773 0
M  V30 8095 C 743.452 4.98443 1.83652 0
M  V30 8096 C 742.491 6.00733 1.17413 0
M  V30 8097 N 741.628 6.6755 2.17533 0
M  V30 8098 H 746.468 2.96167 -0.330051 0
M  V30 8099 H 744.005 1.4606 -0.174611 0
M  V30 8100 H 745.963 3.62877 2.05855 0
M  V30 8101 H 744.593 2.48749 2.05727 0
M  V30 8102 H 743.645 3.80391 0.0266924 0
M  V30 8103 H 744.957 4.98151 0.254362 0
M  V30 8104 H 744.111 5.50449 2.55129 0
M  V30 8105 H 742.85 4.24917 2.39367 0
M  V30 8106 H 741.855 5.47997 0.444944 0
M  V30 8107 H 743.08 6.76227 0.624006 0
M  V30 8108 H 741.026 5.96823 2.72284 0
M  V30 8109 H 740.943 7.36603 1.70154 0
M  V30 8110 H 742.211 7.24178 2.88421 0
M  V30 8111 N 746.441 0.193421 1.56409 0
M  V30 8112 C 747.687 -0.446449 1.97825 0
M  V30 8113 C 748.02 -1.61386 1.08019 0
M  V30 8114 O 747.295 -1.94053 0.131839 0
M  V30 8115 C 747.578 -0.908199 3.48459 0
M  V30 8116 C 747.431 0.260914 4.49043 0
M  V30 8117 C 748.75 -1.77428 4.0275 0
M  V30 8118 H 745.869 -0.160807 0.719243 0
M  V30 8119 H 748.511 0.284006 1.87865 0
M  V30 8120 H 746.661 -1.53062 3.57077 0
M  V30 8121 H 748.333 0.898548 4.52464 0
M  V30 8122 H 746.576 0.912949 4.24085 0
M  V30 8123 H 747.247 -0.104657 5.51901 0
M  V30 8124 H 749.723 -1.24936 3.96901 0
M  V30 8125 H 748.599 -2.06633 5.08521 0
M  V30 8126 H 748.86 -2.72788 3.47907 0
M  V30 8127 N 747.919 -1.57396 -0.0801906 0
M  V30 8128 C 749.144 -1.91437 -0.797909 0
M  V30 8129 C 749.569 -0.789075 -1.70749 0
M  V30 8130 O 748.927 0.25857 -1.79447 0
M  V30 8131 C 748.975 -3.24402 -1.57467 0
M  V30 8132 O 748.079 -3.13043 -2.68473 0
M  V30 8133 H 747.42 -0.627109 -0.218243 0
M  V30 8134 H 749.95 -2.04537 -0.050949 0
M  V30 8135 H 749.96 -3.58072 -1.95571 0
M  V30 8136 H 748.635 -4.05884 -0.907229 0
M  V30 8137 H 747.212 -2.90915 -2.33287 0
M  V30 8138 N 749.397 0.351382 -1.53633 0
M  V30 8139 C 750.643 1.09411 -1.70754 0
M  V30 8140 C 750.976 1.88544 -0.465293 0
M  V30 8141 O 750.251 1.86923 0.537608 0
M  V30 8142 C 750.534 2.04173 -2.96623 0
M  V30 8143 C 750.387 1.28556 -4.31038 0
M  V30 8144 C 751.706 3.04102 -3.18136 0
M  V30 8145 H 748.825 0.396373 -0.621335 0
M  V30 8146 H 751.467 0.373464 -1.86293 0
M  V30 8147 H 749.617 2.65625 -2.83506 0
M  V30 8148 H 751.289 0.697786 -4.55992 0
M  V30 8149 H 749.532 0.587498 -4.29803 0
M  V30 8150 H 750.203 1.97989 -5.15271 0
M  V30 8151 H 752.679 2.5276 -3.30532 0
M  V30 8152 H 751.555 3.67616 -4.07615 0
M  V30 8153 H 751.816 3.75053 -2.34068 0
M  V30 8154 N 750.875 1.45233 0.611969 0
M  V30 8155 C 752.103 1.52539 1.39784 0
M  V30 8156 C 752.518 0.156533 1.8815 0
M  V30 8157 O 751.875 -0.84112 1.61961 0
M  V30 8158 C 751.926 2.50614 2.60528 0
M  V30 8159 O 751.647 3.8218 2.14173 0
M  V30 8160 C 753.148 2.67574 3.53439 0
M  V30 8161 H 750.368 0.51674 0.428043 0
M  V30 8162 H 752.912 1.90379 0.746727 0
M  V30 8163 H 751.067 2.15858 3.2169 0
M  V30 8164 H 751.481 4.35305 2.92592 0
M  V30 8165 H 752.955 3.40184 4.34717 0
M  V30 8166 H 753.432 1.73458 4.03496 0
M  V30 8167 H 754.038 3.0331 2.98133 0
M  V30 8168 N 752.353 -0.854086 1.3245 0
M  V30 8169 C 753.764 -1.42427 1.20712 0
M  V30 8170 C 754.115 -1.95371 -0.18013 0
M  V30 8171 O 753.24 -1.87587 -1.07889 0
M  V30 8172 C 753.835 -2.58897 2.18536 0
M  V30 8173 C 752.394 -3.11913 2.10683 0
M  V30 8174 C 751.541 -1.84661 2.06871 0
M  V30 8175 H 754.492 -0.661192 1.4427 0
M  V30 8176 H 754.513 -3.36074 1.78422 0
M  V30 8177 H 754.025 -2.20333 3.19492 0
M  V30 8178 H 752.126 -3.55059 1.12977 0
M  V30 8179 H 752.239 -3.73119 3.00532 0
M  V30 8180 H 750.603 -2.04285 1.52118 0
M  V30 8181 H 751.386 -1.48314 3.09609 0
M  V30 8182 N 753.831 -1.1567 -1.07043 0
M  V30 8183 C 755.242 -0.942408 -1.61169 0
M  V30 8184 C 755.593 0.515537 -1.89306 0
M  V30 8185 O 754.718 1.38726 -1.66084 0
M  V30 8186 C 755.313 -1.70431 -2.92812 0
M  V30 8187 C 753.872 -1.53521 -3.43669 0
M  V30 8188 C 753.019 -1.7179 -2.17678 0
M  V30 8189 H 755.97 -1.3065 -0.9009 0
M  V30 8190 H 755.991 -1.17566 -3.61882 0
M  V30 8191 H 755.503 -2.76538 -2.72302 0
M  V30 8192 H 753.604 -0.498224 -3.69254 0
M  V30 8193 H 753.717 -2.31422 -4.19501 0
M  V30 8194 H 752.081 -1.14468 -2.27529 0
M  V30 8195 H 752.864 -2.79269 -1.99659 0
M  V30 8196 N 755.309 1.25446 -0.953992 0
M  V30 8197 C 756.219 2.29632 -0.480264 0
M  V30 8198 C 757.235 1.68025 0.452071 0
M  V30 8199 O 758.411 1.98703 0.328472 0
M  V30 8200 C 755.476 3.45903 0.234974 0
M  V30 8201 C 754.537 4.22953 -0.735495 0
M  V30 8202 C 753.77 5.33672 -0.0542957 0
M  V30 8203 O 753.993 5.58477 1.16018 0
M  V30 8204 O 752.927 5.9734 -0.739509 0
M  V30 8205 H 756.753 2.72242 -1.34602 0
M  V30 8206 H 754.338 1.30883 -0.720419 0
M  V30 8207 H 756.22 4.16552 0.637341 0
M  V30 8208 H 754.895 3.05296 1.07592 0
M  V30 8209 H 753.802 3.54734 -1.18806 0
M  V30 8210 H 755.135 4.67341 -1.54444 0
M  V30 8211 N 756.787 0.722489 1.40064 0
M  V30 8212 C 757.697 0.0755984 2.34478 0
M  V30 8213 C 758.713 -0.736046 1.57665 0
M  V30 8214 O 759.889 -0.667407 1.9002 0
M  V30 8215 C 756.954 -0.830075 3.36616 0
M  V30 8216 C 756.015 -0.00759884 4.29299 0
M  V30 8217 C 755.248 -0.870139 5.26559 0
M  V30 8218 O 755.471 -2.10921 5.2997 0
M  V30 8219 O 754.405 -0.305454 6.01124 0
M  V30 8220 H 758.231 0.854545 2.9143 0
M  V30 8221 H 755.816 0.483032 1.41376 0
M  V30 8222 H 757.698 -1.34864 3.99236 0
M  V30 8223 H 756.373 -1.58805 2.82069 0
M  V30 8224 H 755.28 0.556199 3.69942 0
M  V30 8225 H 756.613 0.712312 4.87018 0
M  V30 8226 N 758.265 -1.50454 0.469181 0
M  V30 8227 C 759.49 -2.0722 -0.0864892 0
M  V30 8228 C 759.915 -1.33098 -1.32916 0
M  V30 8229 O 759.273 -0.378084 -1.77314 0
M  V30 8230 C 759.321 -3.58845 -0.355384 0
M  V30 8231 O 758.425 -3.86583 -1.43622 0
M  V30 8232 H 757.766 -0.663889 0.0121414 0
M  V30 8233 H 760.296 -1.93674 0.659674 0
M  V30 8234 H 760.306 -4.03617 -0.596447 0
M  V30 8235 H 758.981 -4.12211 0.552698 0
M  V30 8236 H 757.558 -3.5365 -1.18262 0
M  V30 8237 N 759.743 -0.201713 -1.56304 0
M  V30 8238 C 760.675 0.748466 -2.16635 0
M  V30 8239 C 761.688 1.172 -1.12996 0
M  V30 8240 O 762.877 1.10658 -1.40061 0
M  V30 8241 C 759.977 2.02296 -2.719 0
M  V30 8242 C 759.15 1.75818 -4.00508 0
M  V30 8243 C 758.209 2.87779 -4.40533 0
M  V30 8244 O 757.235 2.57101 -5.07826 0
M  V30 8245 N 758.437 4.16287 -4.04581 0
M  V30 8246 H 761.202 0.232505 -2.98797 0
M  V30 8247 H 758.763 -0.0199822 -1.61888 0
M  V30 8248 H 760.755 2.7635 -2.95657 0
M  V30 8249 H 759.325 2.44996 -1.94154 0
M  V30 8250 H 758.545 0.855095 -3.84814 0
M  V30 8251 H 759.833 1.55532 -4.84445 0
M  V30 8252 H 759.231 4.44061 -3.50466 0
M  V30 8253 H 757.788 4.86946 -4.33274 0
M  V30 8254 N 761.222 1.57436 0.0718424 0
M  V30 8255 C 762.17 2.04725 1.10411 0
M  V30 8256 C 763.164 0.952579 1.4008 0
M  V30 8257 O 764.37 1.13769 1.39487 0
M  V30 8258 H 760.745 0.652749 0.373393 0
M  V30 8259 H 762.716 2.90569 0.679126 0
M  V30 8260 C 761.465 2.5068 2.40946 0
M  V30 8261 H 760.788 3.34505 2.18967 0
M  V30 8262 H 762.228 2.87521 3.11621 0
M  V30 8263 C 760.687 1.38971 3.06902 0
M  V30 8264 O 761.217 0.731786 3.94978 0
M  V30 8265 N 759.423 1.13485 2.67525 0
M  V30 8266 H 758.97 1.67168 1.95991 0
M  V30 8267 H 758.928 0.389467 3.11978 0
M  V30 8268 N 762.7 -0.34323 1.53817 0
M  V30 8269 C 763.925 -1.1079 1.75329 0
M  V30 8270 C 764.35 -1.81571 0.491293 0
M  V30 8271 O 763.708 -1.72561 -0.556089 0
M  V30 8272 C 763.756 -2.09681 2.9337 0
M  V30 8273 O 762.86 -3.17207 2.63541 0
M  V30 8274 H 762.201 -0.320402 0.581583 0
M  V30 8275 H 764.731 -0.393525 2.0078 0
M  V30 8276 H 764.741 -2.52897 3.20168 0
M  V30 8277 H 763.416 -1.5756 3.84899 0
M  V30 8278 H 761.993 -2.78806 2.47632 0
M  V30 8279 N 764.178 -1.45556 -0.604258 0
M  V30 8280 C 765.455 -1.40221 -1.36373 0
M  V30 8281 C 765.835 -0.0745195 -2.10968 0
M  V30 8282 O 765.183 0.943594 -2.08107 0
M  V30 8283 C 765.393 -2.61807 -2.30777 0
M  V30 8284 C 766.741 -3.07037 -2.93281 0
M  V30 8285 O 767.765 -2.62203 -2.41097 0
M  V30 8286 O 766.624 -3.8485 -3.88011 0
M  V30 8287 H 763.718 -0.556602 -0.611656 0
M  V30 8288 H 766.264 -1.57689 -0.627069 0
M  V30 8289 H 765.036 -3.50017 -1.74939 0
M  V30 8290 H 764.659 -2.46688 -3.11818 0
M  V30 8291 N 765.656 0.84705 -1.32902 0
M  V30 8292 C 766.884 1.63403 -1.26913 0
M  V30 8293 C 767.299 1.88108 0.161483 0
M  V30 8294 O 766.656 1.45546 1.10103 0
M  V30 8295 C 766.707 2.98896 -2.03331 0
M  V30 8296 O 766.428 2.75281 -3.40811 0
M  V30 8297 C 767.929 3.93335 -2.04457 0
M  V30 8298 H 765.149 0.508701 -0.437566 0
M  V30 8299 H 767.693 1.05567 -1.75145 0
M  V30 8300 H 765.848 3.53356 -1.58802 0
M  V30 8301 H 766.262 3.61504 -3.8002 0
M  V30 8302 H 767.736 4.85647 -2.62394 0
M  V30 8303 H 768.213 4.26885 -1.03274 0
M  V30 8304 H 768.819 3.44812 -2.48967 0
M  V30 8305 N 767.134 1.16236 1.06428 0
M  V30 8306 C 768.545 0.950942 1.60667 0
M  V30 8307 C 768.896 -0.505491 1.89576 0
M  V30 8308 O 768.021 -1.37843 1.66818 0
M  V30 8309 C 768.616 1.71982 2.91904 0
M  V30 8310 C 767.175 1.55342 3.4285 0
M  V30 8311 C 766.322 1.72942 2.16763 0
M  V30 8312 H 769.273 1.31126 0.893959 0
M  V30 8313 H 769.294 1.19483 3.61253 0
M  V30 8314 H 768.806 2.77978 2.70831 0
M  V30 8315 H 766.907 0.5178 3.68985 0
M  V30 8316 H 767.02 2.33643 4.18267 0
M  V30 8317 H 765.384 1.15673 2.26918 0
M  V30 8318 H 766.167 2.80324 1.98175 0
M  V30 8319 N 768.612 -1.24939 0.960631 0
M  V30 8320 C 770.023 -1.74701 0.658529 0
M  V30 8321 C 770.374 -1.77967 -0.825959 0
M  V30 8322 O 769.499 -1.40444 -1.64634 0
M  V30 8323 C 770.094 -3.17263 1.18867 0
M  V30 8324 C 768.653 -3.64561 0.936614 0
M  V30 8325 C 767.8 -2.43423 1.32817 0
M  V30 8326 H 770.751 -1.10741 1.13676 0
M  V30 8327 H 770.772 -3.76481 0.551589 0
M  V30 8328 H 770.284 -3.14854 2.26912 0
M  V30 8329 H 768.385 -3.72378 -0.128608 0
M  V30 8330 H 768.498 -4.52392 1.57729 0
M  V30 8331 H 766.862 -2.43513 0.746548 0
M  V30 8332 H 767.645 -2.437 2.41796 0
M  V30 8333 N 770.09 -0.729906 -1.39679 0
M  V30 8334 C 771.506 -0.404951 -1.54377 0
M  V30 8335 C 771.706 1.08476 -1.6981 0
M  V30 8336 O 770.762 1.87087 -1.69572 0
M  V30 8337 C 772.075 -1.18352 -2.76429 0
M  V30 8338 C 773.623 -1.17124 -2.9026 0
M  V30 8339 C 774.098 -1.93227 -4.15244 0
M  V30 8340 N 775.589 -1.90368 -4.22273 0
M  V30 8341 C 776.324 -2.46065 -5.17918 0
M  V30 8342 N 775.82 -3.10378 -6.19385 0
M  V30 8343 N 777.613 -2.36127 -5.10099 0
M  V30 8344 H 769.764 -1.69567 -1.27909 0
M  V30 8345 H 772.027 -0.717527 -0.619564 0
M  V30 8346 H 771.733 -2.23743 -2.71352 0
M  V30 8347 H 771.607 -0.784589 -3.6895 0
M  V30 8348 H 773.994 -0.125478 -2.94833 0
M  V30 8349 H 774.075 -1.60951 -1.98817 0
M  V30 8350 H 773.719 -2.97802 -4.11432 0
M  V30 8351 H 773.649 -1.4681 -5.05722 0
M  V30 8352 H 776.14 -1.4351 -3.4959 0
M  V30 8353 H 776.453 -3.50358 -6.88817 0
M  V30 8354 H 774.798 -3.14467 -6.19787 0
M  V30 8355 H 777.989 -1.85529 -4.29763 0
M  V30 8356 H 778.162 -2.79833 -5.84463 0
M  V30 8357 N 771.568 1.50203 -0.477153 0
M  V30 8358 C 772.979 1.86685 -0.0235041 0
M  V30 8359 C 773.33 1.39148 1.38319 0
M  V30 8360 O 772.455 0.759051 2.02651 0
M  V30 8361 C 773.05 3.38781 -0.0358767 0
M  V30 8362 C 771.609 3.74652 0.362327 0
M  V30 8363 C 770.756 2.7412 -0.41875 0
M  V30 8364 H 773.707 1.4286 -0.691133 0
M  V30 8365 H 773.728 3.72732 0.764924 0
M  V30 8366 H 773.24 3.73349 -1.05981 0
M  V30 8367 H 771.341 3.45686 1.39039 0
M  V30 8368 H 771.454 4.79063 0.059457 0
M  V30 8369 H 769.818 2.54376 0.128341 0
M  V30 8370 H 770.601 3.11532 -1.44231 0
M  V30 8371 N 773.046 0.209999 1.56195 0
M  V30 8372 C 774.323 -0.473214 1.89789 0
M  V30 8373 C 774.703 -1.78581 1.1257 0
M  V30 8374 O 774.051 -2.27325 0.231398 0
M  V30 8375 C 774.261 -0.677458 3.42362 0
M  V30 8376 C 775.609 -0.990114 4.12895 0
M  V30 8377 O 776.633 -0.764655 3.47896 0
M  V30 8378 O 775.492 -1.41737 5.278 0
M  V30 8379 H 772.586 -0.248622 0.788743 0
M  V30 8380 H 775.132 0.251324 1.67829 0
M  V30 8381 H 773.904 0.248878 3.90508 0
M  V30 8382 H 773.527 -1.45391 3.70064 0
M  V30 8383 N 774.524 -1.57472 -0.0634922 0
M  V30 8384 C 775.94 -1.54016 -0.418466 0
M  V30 8385 C 776.14 -0.931376 -1.78683 0
M  V30 8386 O 775.196 -0.537465 -2.46714 0
M  V30 8387 C 776.509 -2.98634 -0.351906 0
M  V30 8388 C 778.057 -3.10012 -0.431494 0
M  V30 8389 C 778.532 -4.56296 -0.394754 0
M  V30 8390 N 780.023 -4.60964 -0.454583 0
M  V30 8391 C 780.758 -5.71643 -0.448501 0
M  V30 8392 N 780.254 -6.91663 -0.396742 0
M  V30 8393 N 782.047 -5.5991 -0.495677 0
M  V30 8394 H 774.198 -1.95409 0.832408 0
M  V30 8395 H 776.461 -0.894769 0.313197 0
M  V30 8396 H 776.167 -3.46766 0.587048 0
M  V30 8397 H 776.041 -3.58955 -1.15893 0
M  V30 8398 H 778.428 -2.61848 -1.36087 0
M  V30 8399 H 778.509 -2.52585 0.404258 0
M  V30 8400 H 778.153 -5.05119 0.530811 0
M  V30 8401 H 778.083 -5.11594 -1.24815 0
M  V30 8402 H 780.574 -3.74598 -0.498496 0
M  V30 8403 H 780.887 -7.71783 -0.396256 0
M  V30 8404 H 779.232 -6.9405 -0.363304 0
M  V30 8405 H 782.423 -4.65046 -0.533864 0
M  V30 8406 H 782.596 -6.46164 -0.487469 0
M  V30 8407 N 776.003 0.335068 -1.53997 0
M  V30 8408 C 776.933 1.41727 -1.85568 0
M  V30 8409 C 777.914 1.54505 -0.7115 0
M  V30 8410 O 779.099 1.68573 -0.964191 0
M  V30 8411 C 776.229 2.7866 -2.07282 0
M  V30 8412 C 775.183 2.80682 -3.23112 0
M  V30 8413 C 774.509 4.20581 -3.30175 0
M  V30 8414 C 775.809 2.45458 -4.61029 0
M  V30 8415 H 777.503 1.15555 -2.76202 0
M  V30 8416 H 775.049 0.554445 -1.32898 0
M  V30 8417 H 777.002 3.54423 -2.27952 0
M  V30 8418 H 775.726 3.06286 -1.13387 0
M  V30 8419 H 774.385 2.07373 -3.02311 0
M  V30 8420 H 774.033 4.4533 -2.33859 0
M  V30 8421 H 773.733 4.22843 -4.08016 0
M  V30 8422 H 775.257 4.98174 -3.53066 0
M  V30 8423 H 776.671 3.10934 -4.81656 0
M  V30 8424 H 775.068 2.5899 -5.41336 0
M  V30 8425 H 776.138 1.40628 -4.6406 0
M  V30 8426 N 777.481 1.45874 0.596531 0
M  V30 8427 C 778.892 1.44798 1.17857 0
M  V30 8428 C 779.243 0.181443 1.95359 0
M  V30 8429 O 778.368 -0.716336 2.042 0
M  V30 8430 C 778.963 2.62333 2.14398 0
M  V30 8431 C 777.522 2.64342 2.67955 0
M  V30 8432 C 776.669 2.37244 1.43564 0
M  V30 8433 H 779.62 1.53954 0.385222 0
M  V30 8434 H 779.641 2.37063 2.97626 0
M  V30 8435 H 779.153 3.54499 1.57963 0
M  V30 8436 H 777.254 1.76213 3.28298 0
M  V30 8437 H 777.367 3.63897 3.11634 0
M  V30 8438 H 775.731 1.87022 1.72901 0
M  V30 8439 H 776.514 3.31568 0.889805 0
M  V30 8440 N 778.959 -0.83999 1.33349 0
M  V30 8441 C 779.889 -1.965 1.26135 0
M  V30 8442 C 780.87 -1.69505 0.142152 0
M  V30 8443 O 782.055 -1.91346 0.331743 0
M  V30 8444 C 779.185 -3.32632 0.99866 0
M  V30 8445 C 778.139 -3.74021 2.08068 0
M  V30 8446 C 777.465 -5.07947 1.67014 0
M  V30 8447 C 778.765 -3.87925 3.49731 0
M  V30 8448 H 780.459 -2.02793 2.20262 0
M  V30 8449 H 778.005 -0.974297 1.06035 0
M  V30 8450 H 779.958 -4.10903 0.934696 0
M  V30 8451 H 778.682 -3.26593 0.0217759 0
M  V30 8452 H 777.341 -2.98012 2.13505 0
M  V30 8453 H 776.989 -4.98378 0.680316 0
M  V30 8454 H 776.689 -5.36611 2.39422 0
M  V30 8455 H 778.213 -5.88695 1.62082 0
M  V30 8456 H 779.627 -4.5651 3.46802 0
M  V30 8457 H 778.024 -4.28023 4.20614 0
M  V30 8458 H 779.094 -2.90407 3.88319 0
M  V30 8459 N 780.437 -1.16799 -1.0581 0
M  V30 8460 C 781.714 -0.862616 -1.75551 0
M  V30 8461 C 782.094 0.6385 -2.01212 0
M  V30 8462 O 781.442 1.58784 -1.64317 0
M  V30 8463 C 781.652 -1.6907 -3.05314 0
M  V30 8464 C 783 -1.90675 -3.79379 0
M  V30 8465 O 784.024 -1.65976 -3.15167 0
M  V30 8466 O 782.883 -2.32145 -4.94743 0
M  V30 8467 H 779.977 -0.318789 -0.763088 0
M  V30 8468 H 782.523 -1.27461 -1.12034 0
M  V30 8469 H 781.295 -2.70912 -2.82352 0
M  V30 8470 H 780.918 -1.27606 -3.76567 0
M  V30 8471 N 781.915 1.24427 -0.967243 0
M  V30 8472 C 782.825 2.29109 -0.504592 0
M  V30 8473 C 783.841 1.68495 0.434224 0
M  V30 8474 O 785.017 1.99041 0.307379 0
M  V30 8475 C 782.082 3.46133 0.198273 0
M  V30 8476 C 781.143 4.22149 -0.780313 0
M  V30 8477 C 780.376 5.33585 -0.110896 0
M  V30 8478 O 780.599 5.59676 1.10088 0
M  V30 8479 O 779.533 5.96522 -0.802823 0
M  V30 8480 H 783.359 2.708 -1.37482 0
M  V30 8481 H 780.944 1.30111 -0.73426 0
M  V30 8482 H 782.826 4.17205 0.593124 0
M  V30 8483 H 781.501 3.0642 1.04347 0
M  V30 8484 H 780.408 3.53454 -1.22561 0
M  V30 8485 H 781.741 4.65677 -1.59392 0
M  V30 8486 N 783.393 0.737304 1.3929 0
M  V30 8487 C 784.34 0.0988364 2.30588 0
M  V30 8488 C 785.31 -0.727206 1.49335 0
M  V30 8489 O 786.495 -0.686694 1.78014 0
M  V30 8490 C 783.635 -0.800734 3.35682 0
M  V30 8491 C 782.748 0.0381731 4.31983 0
M  V30 8492 C 781.883 -0.862884 5.24145 0
M  V30 8493 C 780.922 -0.0193639 6.12097 0
M  V30 8494 N 780.059 -0.87648 6.96608 0
M  V30 8495 H 784.899 0.883031 2.84617 0
M  V30 8496 H 782.436 0.447111 1.4014 0
M  V30 8497 H 784.394 -1.33676 3.95205 0
M  V30 8498 H 783.024 -1.55088 2.83103 0
M  V30 8499 H 782.076 0.691641 3.74059 0
M  V30 8500 H 783.388 0.690294 4.94 0
M  V30 8501 H 782.542 -1.46667 5.88705 0
M  V30 8502 H 781.281 -1.54878 4.62454 0
M  V30 8503 H 780.286 0.597202 5.46547 0
M  V30 8504 H 781.511 0.663348 6.75852 0
M  V30 8505 H 779.457 -1.54762 6.37483 0
M  V30 8506 H 779.374 -0.280892 7.55478 0
M  V30 8507 H 780.642 -1.46575 7.65595 0
M  V30 8508 N 784.871 -1.49948 0.485112 0
M  V30 8509 C 786.119 -2.01996 -0.0648775 0
M  V30 8510 C 786.44 -1.36819 -1.38945 0
M  V30 8511 O 785.71 -0.518163 -1.88923 0
M  V30 8512 H 784.29 -0.746513 -0.0269662 0
M  V30 8513 H 786.952 -1.84136 0.638733 0
M  V30 8514 H 786.048 -3.11418 -0.20617 0
M  V30 8515 N 786.349 -0.21828 -1.56081 0
M  V30 8516 C 787.299 0.706492 -2.16778 0
M  V30 8517 C 788.283 1.15987 -1.11516 0
M  V30 8518 O 789.475 1.11441 -1.37513 0
M  V30 8519 C 786.604 1.91583 -2.8487 0
M  V30 8520 C 785.69 1.48228 -3.97353 0
M  V30 8521 N 786.081 0.761113 -5.00041 0
M  V30 8522 C 784.379 1.76982 -4.09382 0
M  V30 8523 C 785.08 0.540496 -5.79184 0
M  V30 8524 N 784.056 1.09622 -5.32432 0
M  V30 8525 H 787.858 0.147038 -2.93532 0
M  V30 8526 H 785.372 -0.0194049 -1.62388 0
M  V30 8527 H 787.369 2.58906 -3.26762 0
M  V30 8528 H 786.029 2.47979 -2.09611 0
M  V30 8529 H 787.04 0.414141 -5.16241 0
M  V30 8530 H 783.717 2.34721 -3.45271 0
M  V30 8531 H 785.107 -0.0332531 -6.71892 0
M  V30 8532 N 787.827 1.57504 0.0551401 0
M  V30 8533 C 789.073 1.88334 0.752216 0
M  V30 8534 C 789.406 0.812742 1.76375 0
M  V30 8535 O 788.681 -0.175198 1.93709 0
M  V30 8536 C 788.964 3.29824 1.44528 0
M  V30 8537 C 788.817 4.47553 0.449026 0
M  V30 8538 C 790.136 3.69808 2.38601 0
M  V30 8539 H 787.255 0.684973 0.271995 0
M  V30 8540 H 789.897 1.89994 0.0151895 0
M  V30 8541 H 788.047 3.28539 2.07351 0
M  V30 8542 H 789.719 4.60967 -0.175277 0
M  V30 8543 H 787.962 4.33168 -0.234162 0
M  V30 8544 H 788.633 5.43376 0.971917 0
M  V30 8545 H 791.109 3.72293 1.85842 0
M  V30 8546 H 789.985 4.69665 2.84088 0
M  V30 8547 H 790.246 3.00641 3.24141 0
M  V30 8548 N 789.305 -0.326896 1.54172 0
M  V30 8549 C 790.533 -1.08486 1.76177 0
M  V30 8550 C 790.948 -1.81815 0.508788 0
M  V30 8551 O 790.305 -1.74924 -0.520362 0
M  V30 8552 C 790.356 -2.08552 2.95276 0
M  V30 8553 O 790.077 -1.38202 4.15731 0
M  V30 8554 C 791.578 -2.96593 3.29466 0
M  V30 8555 H 788.798 -0.322835 0.588233 0
M  V30 8556 H 791.342 -0.374036 2.0105 0
M  V30 8557 H 789.497 -2.75174 2.72687 0
M  V30 8558 H 789.911 -2.05186 4.827 0
M  V30 8559 H 791.385 -3.62708 4.16109 0
M  V30 8560 H 791.862 -3.63511 2.46487 0
M  V30 8561 H 792.468 -2.35537 3.54122 0
M  V30 8562 N 790.784 -1.46188 -0.588786 0
M  V30 8563 C 792.03 -1.52396 -1.34711 0
M  V30 8564 C 792.385 -0.170846 -1.9164 0
M  V30 8565 O 791.678 0.819714 -1.7318 0
M  V30 8566 C 791.872 -2.55364 -2.50048 0
M  V30 8567 C 791.701 -4.00554 -2.04417 0
M  V30 8568 C 790.471 -4.68334 -1.89715 0
M  V30 8569 C 792.669 -4.88533 -1.60747 0
M  V30 8570 N 790.651 -5.98167 -1.38091 0
M  V30 8571 C 792.022 -6.08143 -1.20672 0
M  V30 8572 C 794.077 -4.75236 -1.4851 0
M  V30 8573 C 792.78 -7.15927 -0.695782 0
M  V30 8574 C 794.806 -5.83085 -0.988196 0
M  V30 8575 C 794.168 -7.01864 -0.59719 0
M  V30 8576 H 790.267 -0.61252 -0.486151 0
M  V30 8577 H 792.851 -1.8277 -0.671063 0
M  V30 8578 H 791.022 -2.2691 -3.15225 0
M  V30 8579 H 792.754 -2.51603 -3.16983 0
M  V30 8580 H 789.509 -4.23763 -2.11476 0
M  V30 8581 H 789.933 -6.67254 -1.14458 0
M  V30 8582 H 794.575 -3.83801 -1.7736 0
M  V30 8583 H 792.293 -8.07135 -0.394857 0
M  V30 8584 H 795.879 -5.74836 -0.897504 0
M  V30 8585 H 794.759 -7.83895 -0.218621 0
M  V30 8586 N 792.262 0.832906 -1.33792 0
M  V30 8587 C 793.487 1.62568 -1.28788 0
M  V30 8588 C 793.912 1.87599 0.137246 0
M  V30 8589 O 793.27 1.44436 1.0958 0
M  V30 8590 C 793.318 2.9495 -2.07453 0
M  V30 8591 O 792.422 3.86546 -1.43722 0
M  V30 8592 H 791.763 0.494809 -0.442787 0
M  V30 8593 H 794.293 1.03578 -1.76445 0
M  V30 8594 H 794.303 3.44599 -2.1844 0
M  V30 8595 H 792.978 2.76055 -3.11073 0
M  V30 8596 H 791.555 3.45044 -1.41417 0
M  V30 8597 N 793.74 1.17359 1.05189 0
M  V30 8598 C 794.987 0.961987 1.78191 0
M  V30 8599 C 795.315 -0.509363 1.87712 0
M  V30 8600 O 794.57 -1.39425 1.37329 0
M  V30 8601 C 794.869 1.54821 3.22126 0
M  V30 8602 C 794.535 3.04378 3.32663 0
M  V30 8603 C 793.197 3.45201 3.35246 0
M  V30 8604 C 795.549 4.00387 3.33677 0
M  V30 8605 C 792.877 4.80629 3.36471 0
M  V30 8606 C 795.229 5.35715 3.36441 0
M  V30 8607 C 793.893 5.76002 3.37311 0
M  V30 8608 H 793.163 0.352016 0.652047 0
M  V30 8609 H 795.81 1.46249 1.23627 0
M  V30 8610 H 794.115 0.969432 3.79617 0
M  V30 8611 H 795.812 1.36004 3.77232 0
M  V30 8612 H 792.402 2.71836 3.31366 0
M  V30 8613 H 796.586 3.69906 3.30882 0
M  V30 8614 H 791.842 5.11155 3.35455 0
M  V30 8615 H 796.016 6.09886 3.36173 0
M  V30 8616 H 793.643 6.80919 3.38013 0
M  V30 8617 N 795.218 -1.23913 0.973828 0
M  V30 8618 C 796.168 -2.22892 0.479933 0
M  V30 8619 C 797.152 -1.54726 -0.441434 0
M  V30 8620 O 798.344 -1.74908 -0.271358 0
M  V30 8621 C 795.473 -3.42577 -0.222702 0
M  V30 8622 C 794.559 -4.17981 0.717851 0
M  V30 8623 N 794.95 -4.7045 1.8577 0
M  V30 8624 C 793.248 -4.42841 0.529858 0
M  V30 8625 C 793.949 -5.27751 2.44651 0
M  V30 8626 N 792.925 -5.15302 1.73104 0
M  V30 8627 H 796.727 -2.61083 1.34956 0
M  V30 8628 H 794.241 -1.39368 0.83368 0
M  V30 8629 H 796.238 -4.1265 -0.593793 0
M  V30 8630 H 794.898 -3.05904 -1.0887 0
M  V30 8631 H 795.909 -4.66997 2.23908 0
M  V30 8632 H 792.586 -4.1648 -0.291664 0
M  V30 8633 H 793.976 -5.79011 3.40875 0
M  V30 8634 N 796.696 -0.74468 -1.38897 0
M  V30 8635 C 797.944 -0.296298 -1.99916 0
M  V30 8636 C 798.265 1.12325 -1.59399 0
M  V30 8637 O 797.535 1.76658 -0.846689 0
M  V30 8638 H 796.115 -0.106561 -0.73936 0
M  V30 8639 H 798.777 -0.956793 -1.69798 0
M  V30 8640 H 797.873 -0.352356 -3.10105 0
M  V30 8641 N 798.174 1.49689 -0.493057 0
M  V30 8642 C 799.585 1.8665 -0.0433032 0
M  V30 8643 C 799.936 1.40607 1.36836 0
M  V30 8644 O 799.061 0.780503 2.01834 0
M  V30 8645 C 799.656 3.38724 -0.0718069 0
M  V30 8646 C 798.215 3.75015 0.32257 0
M  V30 8647 C 797.362 2.7366 -0.4478 0
M  V30 8648 H 800.313 1.42119 -0.706246 0
M  V30 8649 H 800.334 3.73522 0.725347 0
M  V30 8650 H 799.846 3.72204 -1.09935 0
M  V30 8651 H 797.947 3.47142 1.35364 0
M  V30 8652 H 798.06 4.79099 0.00864259 0
M  V30 8653 H 796.424 2.54498 0.101354 0
M  V30 8654 H 797.207 3.09985 -1.47527 0
M  V30 8655 N 799.652 0.226554 1.55963 0
M  V30 8656 C 800.562 -0.692725 2.24139 0
M  V30 8657 C 801.578 -1.20971 1.25068 0
M  V30 8658 O 802.754 -1.25027 1.57893 0
M  V30 8659 C 799.819 -1.88183 2.91184 0
M  V30 8660 C 798.88 -1.40633 4.05612 0
M  V30 8661 C 798.113 -2.53875 4.6945 0
M  V30 8662 O 798.336 -3.72129 4.32292 0
M  V30 8663 O 797.27 -2.24792 5.58348 0
M  V30 8664 H 801.096 -0.141921 3.03368 0
M  V30 8665 H 798.681 -0.0041049 1.49399 0
M  V30 8666 H 800.563 -2.57617 3.33484 0
M  V30 8667 H 799.238 -2.42064 2.14911 0
M  V30 8668 H 798.145 -0.67986 3.67871 0
M  V30 8669 H 799.478 -0.913838 4.83642 0
M  V30 8670 N 801.13 -1.57531 -0.0467866 0
M  V30 8671 C 802.078 -2.06455 -1.0714 0
M  V30 8672 C 803.072 -0.974744 -1.38546 0
M  V30 8673 O 804.278 -1.15974 -1.37659 0
M  V30 8674 H 800.653 -0.658607 -0.362962 0
M  V30 8675 H 802.624 -2.91613 -0.632813 0
M  V30 8676 C 801.373 -2.54481 -2.36927 0
M  V30 8677 H 800.696 -3.37946 -2.13617 0
M  V30 8678 H 802.136 -2.92442 -3.07007 0
M  V30 8679 C 800.595 -1.43836 -3.04652 0
M  V30 8680 O 801.125 -0.794531 -3.93764 0
M  V30 8681 N 799.331 -1.17727 -2.65686 0
M  V30 8682 H 798.878 -1.70265 -1.93307 0
M  V30 8683 H 798.836 -0.439051 -3.11319 0
M  V30 8684 N 802.608 0.318715 -1.54344 0
M  V30 8685 C 803.571 1.37545 -1.83342 0
M  V30 8686 C 804.571 1.445 -0.705444 0
M  V30 8687 O 805.761 1.44443 -0.973752 0
M  V30 8688 C 802.893 2.76225 -1.99781 0
M  V30 8689 H 804.086 1.13084 -2.77762 0
M  V30 8690 H 801.639 0.554457 -1.46135 0
M  V30 8691 H 802.374 3.05934 -1.07588 0
M  V30 8692 H 802.159 2.7257 -2.81865 0
M  V30 8693 H 803.649 3.52664 -2.23647 0
M  V30 8694 N 804.086 1.46499 0.581025 0
M  V30 8695 C 805.335 1.51162 1.3354 0
M  V30 8696 C 805.648 0.168433 1.94873 0
M  V30 8697 O 806.854 0.092883 2.71341 0
M  V30 8698 C 805.31 2.66362 2.42032 0
M  V30 8699 C 804.918 4.07109 1.86994 0
M  V30 8700 C 806.662 2.80297 3.188 0
M  V30 8701 C 804.569 5.13645 2.93125 0
M  V30 8702 H 803.499 0.562576 0.502021 0
M  V30 8703 H 806.15 1.72713 0.619863 0
M  V30 8704 H 804.532 2.38143 3.16392 0
M  V30 8705 H 805.706 4.45125 1.19166 0
M  V30 8706 H 804.021 3.97854 1.22887 0
M  V30 8707 H 806.618 3.5706 3.9801 0
M  V30 8708 H 806.961 1.87875 3.71495 0
M  V30 8709 H 807.494 3.0817 2.51547 0
M  V30 8710 H 804.233 6.07866 2.45315 0
M  V30 8711 H 803.753 4.80172 3.59437 0
M  V30 8712 H 805.432 5.39562 3.57046 0
M  V30 8713 N 805.565 -0.825799 1.34232 0
M  V30 8714 C 806.976 -1.39835 1.23706 0
M  V30 8715 C 807.327 -1.95709 -0.138649 0
M  V30 8716 O 806.452 -1.89833 -1.03886 0
M  V30 8717 C 807.047 -2.54203 2.23978 0
M  V30 8718 C 805.606 -3.07374 2.17251 0
M  V30 8719 C 804.753 -1.80232 2.10741 0
M  V30 8720 H 807.704 -0.630442 1.4564 0
M  V30 8721 H 807.725 -3.32214 1.8551 0
M  V30 8722 H 807.237 -2.13506 3.24094 0
M  V30 8723 H 805.338 -3.52583 1.20483 0
M  V30 8724 H 805.451 -3.6666 3.08379 0
M  V30 8725 H 803.815 -2.01012 1.56417 0
M  V30 8726 H 804.598 -1.41713 3.12686 0
M  V30 8727 N 807.043 -1.17915 -1.04565 0
M  V30 8728 C 808.292 -0.965816 -1.77073 0
M  V30 8729 C 808.605 0.506005 -1.88942 0
M  V30 8730 O 809.811 0.837717 -2.58253 0
M  V30 8731 C 808.267 -1.67894 -3.18339 0
M  V30 8732 C 807.875 -3.18972 -3.1458 0
M  V30 8733 C 809.619 -1.54823 -3.9526 0
M  V30 8734 C 807.526 -3.82946 -4.50674 0
M  V30 8735 H 806.456 -0.357729 -0.663736 0
M  V30 8736 H 809.107 -1.41235 -1.17153 0
M  V30 8737 H 807.489 -1.16016 -3.78624 0
M  V30 8738 H 808.663 -3.77835 -2.63776 0
M  V30 8739 H 806.978 -3.32127 -2.51159 0
M  V30 8740 H 809.575 -1.99984 -4.95894 0
M  V30 8741 H 809.918 -0.499727 -4.1329 0
M  V30 8742 H 810.451 -2.03953 -3.41538 0
M  V30 8743 H 807.19 -4.8782 -4.37849 0
M  V30 8744 H 806.71 -3.2887 -5.01602 0
M  V30 8745 H 808.389 -3.85518 -5.196 0
M  V30 8746 N 808.521 1.23394 -0.980386 0
M  V30 8747 C 809.932 1.73631 -0.686239 0
M  V30 8748 C 810.283 1.79259 0.797541 0
M  V30 8749 O 809.408 1.43046 1.62379 0
M  V30 8750 C 810.003 3.15332 -1.239 0
M  V30 8751 C 808.562 3.63024 -0.994494 0
M  V30 8752 C 807.709 2.41279 -1.36673 0
M  V30 8753 H 810.66 1.08918 -1.15423 0
M  V30 8754 H 810.681 3.75556 -0.611414 0
M  V30 8755 H 810.193 3.11204 -2.31892 0
M  V30 8756 H 808.294 3.72535 0.0693492 0
M  V30 8757 H 808.407 4.49825 -1.64906 0
M  V30 8758 H 806.771 2.42295 -0.785195 0
M  V30 8759 H 807.554 2.39822 -2.45642 0
M  V30 8760 N 809.999 0.752036 1.385 0
M  V30 8761 C 811.276 0.233075 1.94206 0
M  V30 8762 C 811.656 -1.26838 1.68746 0
M  V30 8763 O 811.004 -2.04214 1.02513 0
M  V30 8764 C 811.214 0.58509 3.44061 0
M  V30 8765 C 812.562 0.543871 4.21102 0
M  V30 8766 O 813.586 0.523291 3.52335 0
M  V30 8767 O 812.445 0.553436 5.4369 0
M  V30 8768 H 809.539 0.0483049 0.825588 0
M  V30 8769 H 812.085 0.832053 1.47902 0
M  V30 8770 H 810.857 1.62212 3.56094 0
M  V30 8771 H 810.48 -0.0419738 3.97578 0
M  V30 8772 N 811.477 -1.49425 0.500989 0
M  V30 8773 C 812.407 -2.31971 -0.266775 0
M  V30 8774 C 813.388 -1.40245 -0.962563 0
M  V30 8775 O 814.573 -1.69154 -0.953968 0
M  V30 8776 C 811.703 -3.20757 -1.33163 0
M  V30 8777 C 810.657 -4.21275 -0.75572 0
M  V30 8778 C 809.983 -4.98997 -1.92109 0
M  V30 8779 C 811.283 -5.21686 0.253213 0
M  V30 8780 H 812.977 -2.96408 0.422237 0
M  V30 8781 H 810.523 -1.4254 0.204505 0
M  V30 8782 H 812.476 -3.77315 -1.87646 0
M  V30 8783 H 811.2 -2.54263 -2.04983 0
M  V30 8784 H 809.859 -3.65861 -0.232637 0
M  V30 8785 H 809.507 -4.28951 -2.62698 0
M  V30 8786 H 809.207 -5.67011 -1.54182 0
M  V30 8787 H 810.731 -5.584 -2.47026 0
M  V30 8788 H 812.145 -5.72939 -0.203483 0
M  V30 8789 H 810.542 -5.9759 0.548322 0
M  V30 8790 H 811.612 -4.70596 1.16909 0
M  V30 8791 N 812.955 -0.234822 -1.55841 0
M  V30 8792 C 814.18 0.400741 -2.03492 0
M  V30 8793 C 814.605 1.51618 -1.11327 0
M  V30 8794 O 813.963 1.81002 -0.103922 0
M  V30 8795 C 814.011 0.897184 -3.49261 0
M  V30 8796 O 813.115 2.00764 -3.60233 0
M  V30 8797 H 812.456 0.0890023 -0.658008 0
M  V30 8798 H 814.986 -0.357345 -2.01455 0
M  V30 8799 H 814.996 1.20356 -3.89844 0
M  V30 8800 H 813.671 0.0808639 -4.15821 0
M  V30 8801 H 812.248 1.70689 -3.31541 0
M  V30 8802 N 814.433 1.57553 0.0384317 0
M  V30 8803 C 815.343 2.09333 1.0591 0
M  V30 8804 C 816.359 1.0299 1.40247 0
M  V30 8805 O 817.535 1.34669 1.49754 0
M  V30 8806 C 814.6 2.55468 2.34386 0
M  V30 8807 C 813.661 3.76254 2.06716 0
M  V30 8808 C 812.894 4.20179 3.29067 0
M  V30 8809 O 813.117 3.637 4.39407 0
M  V30 8810 O 812.051 5.12697 3.15317 0
M  V30 8811 H 815.877 2.96683 0.649087 0
M  V30 8812 H 813.462 1.47211 0.254802 0
M  V30 8813 H 815.344 2.85514 3.09935 0
M  V30 8814 H 814.019 1.71234 2.74701 0
M  V30 8815 H 812.926 3.51241 1.28766 0
M  V30 8816 H 814.259 4.61443 1.71263 0
M  V30 8817 N 815.911 -0.310526 1.54511 0
M  V30 8818 C 817.159 -1.04484 1.72996 0
M  V30 8819 C 817.48 -1.88118 0.513479 0
M  V30 8820 O 816.75 -1.90119 -0.472384 0
M  V30 8821 H 815.33 -0.388747 0.637875 0
M  V30 8822 H 817.992 -0.343811 1.91844 0
M  V30 8823 H 817.088 -1.70341 2.61515 0
M  V30 8824 N 817.389 -1.46805 -0.573248 0
M  V30 8825 C 818.337 -1.58468 -1.70267 0
M  V30 8826 C 819.331 -0.452694 -1.63239 0
M  V30 8827 O 820.537 -0.629915 -1.68618 0
M  V30 8828 H 816.912 -0.498408 -0.56311 0
M  V30 8829 H 818.883 -2.5341 -1.57563 0
M  V30 8830 C 817.632 -1.60104 -3.08645 0
M  V30 8831 H 816.955 -2.4655 -3.14727 0
M  V30 8832 H 818.395 -1.72318 -3.87405 0
M  V30 8833 C 816.854 -0.33138 -3.35266 0
M  V30 8834 O 817.384 0.57438 -3.97572 0
M  V30 8835 N 815.59 -0.216358 -2.89793 0
M  V30 8836 H 815.137 -0.954345 -2.3927 0
M  V30 8837 H 815.095 0.632253 -3.07977 0
M  V30 8838 N 818.867 0.818669 -1.34668 0
M  V30 8839 C 820.092 1.61193 -1.30505 0
M  V30 8840 C 820.517 1.87734 0.117341 0
M  V30 8841 O 819.875 1.45591 1.08042 0
M  V30 8842 C 819.923 2.92733 -2.1057 0
M  V30 8843 O 819.027 3.85 -1.47813 0
M  V30 8844 H 818.368 0.490085 -0.44801 0
M  V30 8845 H 820.898 1.01701 -1.77534 0
M  V30 8846 H 820.908 3.42262 -2.22082 0
M  V30 8847 H 819.583 2.7274 -3.13984 0
M  V30 8848 H 818.16 3.43525 -1.45069 0
M  V30 8849 N 820.346 1.18468 1.03938 0
M  V30 8850 C 821.571 1.00638 1.81347 0
M  V30 8851 C 821.996 -0.440477 1.8287 0
M  V30 8852 O 821.354 -1.31609 1.24695 0
M  V30 8853 C 821.402 1.5673 3.24759 0
M  V30 8854 O 820.506 0.789517 4.04772 0
M  V30 8855 H 819.847 0.356432 0.560225 0
M  V30 8856 H 822.377 1.57253 1.30891 0
M  V30 8857 H 822.387 1.59496 3.75533 0
M  V30 8858 H 821.062 2.62043 3.22965 0
M  V30 8859 H 819.639 0.834267 3.63448 0
M  V30 8860 N 821.824 -1.22873 0.986916 0
M  V30 8861 C 823.101 -1.86939 0.575589 0
M  V30 8862 C 823.481 -1.88656 -0.947205 0
M  V30 8863 O 822.829 -1.3728 -1.82665 0
M  V30 8864 C 823.039 -3.28117 1.18914 0
M  V30 8865 C 824.387 -4.04659 1.28593 0
M  V30 8866 O 825.411 -3.3736 1.14308 0
M  V30 8867 O 824.27 -5.25112 1.51391 0
M  V30 8868 H 821.364 -0.803748 0.194724 0
M  V30 8869 H 823.91 -1.30698 1.08241 0
M  V30 8870 H 822.682 -3.21468 2.231 0
M  V30 8871 H 822.305 -3.91956 0.667535 0
M  V30 8872 N 823.302 -0.75937 -1.38099 0
M  V30 8873 C 824.551 -0.314864 -1.99227 0
M  V30 8874 C 824.864 1.1113 -1.60964 0
M  V30 8875 O 826.07 1.65657 -2.15105 0
M  V30 8876 C 824.526 -0.512001 -3.56239 0
M  V30 8877 C 824.134 -1.94762 -4.0345 0
M  V30 8878 C 825.878 -0.130497 -4.24299 0
M  V30 8879 C 823.785 -2.09301 -5.53125 0
M  V30 8880 H 822.715 -0.113978 -0.745335 0
M  V30 8881 H 825.366 -0.936736 -1.57789 0
M  V30 8882 H 823.748 0.179144 -3.95595 0
M  V30 8883 H 824.922 -2.67271 -3.75371 0
M  V30 8884 H 823.237 -2.28457 -3.48133 0
M  V30 8885 H 825.834 -0.21781 -5.34256 0
M  V30 8886 H 826.177 0.917644 -4.0606 0
M  V30 8887 H 826.71 -0.773716 -3.90203 0
M  V30 8888 H 823.449 -3.1239 -5.76275 0
M  V30 8889 H 822.969 -1.41261 -5.82928 0
M  V30 8890 H 824.648 -1.88571 -6.1891 0
M  V30 8891 N 824.78 1.49157 -0.508906 0
M  V30 8892 C 825.728 2.30922 0.278906 0
M  V30 8893 C 826.722 1.39889 0.955382 0
M  V30 8894 O 827.928 1.56901 0.882169 0
M  V30 8895 H 824.303 0.744087 0.108805 0
M  V30 8896 H 826.274 2.95277 -0.430583 0
M  V30 8897 C 825.023 3.21432 1.32576 0
M  V30 8898 H 824.346 3.91413 0.814634 0
M  V30 8899 H 825.786 3.81568 1.84882 0
M  V30 8900 C 824.245 2.41583 2.34817 0
M  V30 8901 O 824.775 2.1256 3.40854 0
M  V30 8902 N 822.981 2.03462 2.07489 0
M  V30 8903 H 822.528 2.27265 1.21278 0
M  V30 8904 H 822.486 1.50345 2.76123 0
M  V30 8905 N 826.258 0.243083 1.55714 0
M  V30 8906 C 827.488 -0.38641 2.02954 0
M  V30 8907 C 827.896 -1.52358 1.12177 0
M  V30 8908 O 827.239 -1.83255 0.127853 0
M  V30 8909 C 827.301 -0.959388 3.46462 0
M  V30 8910 C 826.965 0.0450546 4.56978 0
M  V30 8911 C 827.962 0.853224 5.12851 0
M  V30 8912 C 825.647 0.170041 5.02012 0
M  V30 8913 C 827.641 1.77288 6.12248 0
M  V30 8914 C 825.328 1.0932 6.01242 0
M  V30 8915 C 826.326 1.89315 6.56238 0
M  V30 8916 O 826.014 2.80075 7.53534 0
M  V30 8917 H 825.746 -0.0964333 0.669086 0
M  V30 8918 H 828.3 0.363399 2.0216 0
M  V30 8919 H 826.53 -1.75869 3.44394 0
M  V30 8920 H 828.219 -1.49856 3.77224 0
M  V30 8921 H 828.985 0.767229 4.78893 0
M  V30 8922 H 824.864 -0.442528 4.58871 0
M  V30 8923 H 828.408 2.39768 6.55101 0
M  V30 8924 H 824.305 1.18013 6.3462 0
M  V30 8925 H 825.073 2.74393 7.71136 0
M  V30 8926 N 827.736 -1.57571 -0.0300757 0
M  V30 8927 C 828.668 -2.0329 -1.05857 0
M  V30 8928 C 829.681 -0.945543 -1.32527 0
M  V30 8929 O 830.87 -1.22287 -1.30032 0
M  V30 8930 C 827.97 -2.39234 -2.40042 0
M  V30 8931 C 827.143 -3.70337 -2.32743 0
M  V30 8932 C 826.202 -3.93482 -3.49369 0
M  V30 8933 O 825.228 -4.64551 -3.28909 0
M  V30 8934 N 826.43 -3.39042 -4.71201 0
M  V30 8935 H 829.195 -2.9214 -0.668897 0
M  V30 8936 H 826.756 -1.60425 -0.218038 0
M  V30 8937 H 828.748 -2.51856 -3.16782 0
M  V30 8938 H 827.318 -1.5606 -2.70858 0
M  V30 8939 H 826.538 -3.68079 -1.41109 0
M  V30 8940 H 827.826 -4.56343 -2.25007 0
M  V30 8941 H 827.224 -2.81434 -4.90725 0
M  V30 8942 H 825.781 -3.57045 -5.45309 0
M  V30 8943 N 829.214 0.302327 -1.54673 0
M  V30 8944 C 830.442 1.05669 -1.77881 0
M  V30 8945 C 830.857 1.80983 -0.537648 0
M  V30 8946 O 830.214 1.7573 0.492467 0
M  V30 8947 C 830.265 2.03828 -2.98557 0
M  V30 8948 O 829.986 1.3157 -4.17877 0
M  V30 8949 C 831.487 2.91314 -3.34143 0
M  V30 8950 H 828.707 0.313436 -0.593295 0
M  V30 8951 H 831.251 0.342003 -2.0162 0
M  V30 8952 H 829.406 2.70801 -2.7703 0
M  V30 8953 H 829.82 1.97481 -4.85903 0
M  V30 8954 H 831.294 3.56042 -4.21827 0
M  V30 8955 H 831.771 3.59544 -2.52239 0
M  V30 8956 H 832.377 2.29874 -3.57824 0
M  V30 8957 N 830.692 1.47107 0.565454 0
M  V30 8958 C 832.108 1.32443 0.890566 0
M  V30 8959 C 832.308 0.308735 1.99121 0
M  V30 8960 O 831.364 -0.28265 2.50913 0
M  V30 8961 C 832.677 2.71548 1.2916 0
M  V30 8962 C 834.225 2.7977 1.40349 0
M  V30 8963 C 834.7 4.19497 1.83811 0
M  V30 8964 N 836.191 4.21998 1.90975 0
M  V30 8965 C 836.926 5.2702 2.25916 0
M  V30 8966 N 836.422 6.42353 2.59527 0
M  V30 8967 N 838.215 5.14393 2.26619 0
M  V30 8968 H 830.366 2.11786 -0.161328 0
M  V30 8969 H 832.629 0.947952 -0.00950631 0
M  V30 8970 H 832.335 3.47265 0.556753 0
M  V30 8971 H 832.209 3.02782 2.24951 0
M  V30 8972 H 834.596 2.0433 2.12916 0
M  V30 8973 H 834.677 2.522 0.427655 0
M  V30 8974 H 834.321 4.95439 1.11816 0
M  V30 8975 H 834.251 4.44486 2.82382 0
M  V30 8976 H 836.742 3.38791 1.6742 0
M  V30 8977 H 837.055 7.18252 2.85191 0
M  V30 8978 H 835.4 6.45687 2.57126 0
M  V30 8979 H 838.591 4.2332 1.99794 0
M  V30 8980 H 838.764 5.96349 2.5352 0
M  V30 8981 N 832.17 -0.811516 1.35101 0
M  V30 8982 C 833.117 -1.92308 1.27617 0
M  V30 8983 C 834.087 -1.6543 0.149091 0
M  V30 8984 O 835.272 -1.8789 0.331974 0
M  V30 8985 C 832.412 -3.28768 1.04908 0
M  V30 8986 C 831.525 -3.67865 2.26493 0
M  V30 8987 C 830.66 -4.9333 1.96974 0
M  V30 8988 C 829.699 -5.25041 3.1464 0
M  V30 8989 N 828.836 -6.41685 2.84929 0
M  V30 8990 H 833.676 -1.98041 2.22674 0
M  V30 8991 H 831.213 -0.968755 1.10696 0
M  V30 8992 H 833.171 -4.07426 0.897749 0
M  V30 8993 H 831.801 -3.22517 0.135151 0
M  V30 8994 H 830.853 -2.84507 2.52507 0
M  V30 8995 H 832.165 -3.87263 3.14371 0
M  V30 8996 H 831.319 -5.79803 1.78643 0
M  V30 8997 H 830.058 -4.75958 1.06374 0
M  V30 8998 H 829.063 -4.3706 3.33554 0
M  V30 8999 H 830.288 -5.44346 4.06035 0
M  V30 9000 H 828.234 -6.25747 1.96918 0
M  V30 9001 H 828.151 -6.6131 3.66341 0
M  V30 9002 H 829.419 -7.31198 2.70128 0
M  V30 9003 N 833.648 -1.19017 -1.03309 0
M  V30 9004 C 834.876 -1.01534 -1.80273 0
M  V30 9005 C 835.291 0.43605 -1.83696 0
M  V30 9006 O 834.648 1.30288 -1.27794 0
M  V30 9007 C 834.699 -1.5722 -3.25522 0
M  V30 9008 O 834.42 -2.96677 -3.22358 0
M  V30 9009 C 835.921 -1.4446 -4.19102 0
M  V30 9010 H 833.141 -0.358094 -0.567459 0
M  V30 9011 H 835.685 -1.57738 -1.3015 0
M  V30 9012 H 833.84 -1.05174 -3.7285 0
M  V30 9013 H 834.254 -3.22795 -4.13405 0
M  V30 9014 H 835.728 -1.88209 -5.18923 0
M  V30 9015 H 836.205 -0.394471 -4.37425 0
M  V30 9016 H 836.811 -1.95616 -3.77643 0
M  V30 9017 N 835.127 1.22348 -0.993418 0
M  V30 9018 C 836.373 1.91393 -0.67056 0
M  V30 9019 C 836.706 1.77163 0.795428 0
M  V30 9020 O 835.981 1.14084 1.57528 0
M  V30 9021 C 836.264 3.43589 -1.0779 0
M  V30 9022 C 836.117 3.66867 -2.60248 0
M  V30 9023 C 837.436 4.35545 -0.631527 0
M  V30 9024 H 834.555 0.695057 -0.24508 0
M  V30 9025 H 837.197 1.44213 -1.23703 0
M  V30 9026 H 835.347 3.83903 -0.595902 0
M  V30 9027 H 837.019 3.35954 -3.16121 0
M  V30 9028 H 835.262 3.1113 -3.02293 0
M  V30 9029 H 835.933 4.73457 -2.838 0
M  V30 9030 H 838.409 4.0275 -1.04554 0
M  V30 9031 H 837.285 5.40707 -0.944831 0
M  V30 9032 H 837.546 4.39618 0.467779 0
M  V30 9033 N 836.605 0.766683 1.37694 0
M  V30 9034 C 837.83 0.338715 2.04615 0
M  V30 9035 C 838.255 -1.02918 1.57447 0
M  V30 9036 O 837.613 -1.65849 0.732386 0
M  V30 9037 C 837.661 0.385284 3.58536 0
M  V30 9038 O 836.765 -0.616081 4.07772 0
M  V30 9039 H 836.106 0.147527 0.647404 0
M  V30 9040 H 838.636 1.04146 1.7611 0
M  V30 9041 H 838.646 0.240782 4.07289 0
M  V30 9042 H 837.321 1.38325 3.92223 0
M  V30 9043 H 835.898 -0.435115 3.70353 0
M  V30 9044 N 838.083 -1.48885 0.516809 0
M  V30 9045 C 839.013 -2.32241 -0.242157 0
M  V30 9046 C 839.994 -1.41258 -0.947633 0
M  V30 9047 O 841.179 -1.70156 -0.935973 0
M  V30 9048 C 838.309 -3.22151 -1.29754 0
M  V30 9049 C 837.263 -4.22053 -0.710995 0
M  V30 9050 C 836.589 -5.01007 -1.86806 0
M  V30 9051 C 837.889 -5.21388 0.30853 0
M  V30 9052 H 839.583 -2.95943 0.453651 0
M  V30 9053 H 837.129 -1.42316 0.219612 0
M  V30 9054 H 839.082 -3.79284 -1.83634 0
M  V30 9055 H 837.806 -2.56423 -2.02274 0
M  V30 9056 H 836.465 -3.66087 -0.193819 0
M  V30 9057 H 836.113 -4.31713 -2.58133 0
M  V30 9058 H 835.813 -5.68615 -1.48159 0
M  V30 9059 H 837.337 -5.60989 -2.4109 0
M  V30 9060 H 838.751 -5.73122 -0.142703 0
M  V30 9061 H 837.148 -5.96975 0.611673 0
M  V30 9062 H 838.218 -4.69329 1.21894 0
M  V30 9063 N 839.561 -0.251338 -1.55583 0
M  V30 9064 C 840.789 0.376187 -2.03451 0
M  V30 9065 C 841.204 1.51215 -1.13047 0
M  V30 9066 O 840.561 1.81917 -0.145769 0
M  V30 9067 C 840.612 0.879779 -3.50631 0
M  V30 9068 O 840.333 -0.210917 -4.37592 0
M  V30 9069 C 841.834 1.57754 -4.14281 0
M  V30 9070 H 839.054 0.0888722 -0.665089 0
M  V30 9071 H 841.598 -0.376497 -2.01004 0
M  V30 9072 H 839.753 1.58263 -3.53598 0
M  V30 9073 H 840.167 0.172203 -5.24217 0
M  V30 9074 H 841.641 1.88158 -5.18942 0
M  V30 9075 H 842.118 2.50103 -3.61034 0
M  V30 9076 H 842.724 0.919154 -4.15249 0
M  V30 9077 N 841.039 1.57585 0.0217189 0
M  V30 9078 C 842.45 1.7787 0.567377 0
M  V30 9079 C 842.801 0.883337 1.7519 0
M  V30 9080 O 841.926 0.0800819 2.16252 0
M  V30 9081 C 842.521 3.2257 1.03606 0
M  V30 9082 C 841.08 3.44026 1.52718 0
M  V30 9083 C 840.227 2.73313 0.468545 0
M  V30 9084 H 843.178 1.57377 -0.2045 0
M  V30 9085 H 843.199 3.29488 1.9031 0
M  V30 9086 H 842.711 3.87711 0.173739 0
M  V30 9087 H 840.812 2.8407 2.41111 0
M  V30 9088 H 840.925 4.52659 1.56962 0
M  V30 9089 H 839.289 2.37299 0.925263 0
M  V30 9090 H 840.072 3.41141 -0.384438 0
M  V30 9091 N 842.517 -0.29412 1.54831 0
M  V30 9092 C 843.742 -1.05156 1.78765 0
M  V30 9093 C 844.167 -1.79916 0.548809 0
M  V30 9094 O 843.525 -1.74243 -0.500909 0
M  V30 9095 C 843.573 -2.00242 2.99893 0
M  V30 9096 O 842.677 -3.08662 2.73499 0
M  V30 9097 H 842.018 -0.301737 0.591482 0
M  V30 9098 H 844.548 -0.329449 2.0193 0
M  V30 9099 H 844.558 -2.42583 3.28051 0
M  V30 9100 H 843.233 -1.45235 3.89717 0
M  V30 9101 H 841.81 -2.70786 2.56377 0
M  V30 9102 N 843.995 -1.47404 -0.557645 0
M  V30 9103 C 845.406 -1.47872 -1.13977 0
M  V30 9104 C 845.757 -0.233176 -1.94809 0
M  V30 9105 O 844.882 0.661945 -2.06027 0
M  V30 9106 C 845.477 -2.67926 -2.07368 0
M  V30 9107 C 844.036 -2.71354 -2.60852 0
M  V30 9108 C 843.183 -2.40967 -1.37223 0
M  V30 9109 H 846.134 -1.54921 -0.344268 0
M  V30 9110 H 846.155 -2.44871 -2.91236 0
M  V30 9111 H 845.667 -3.58562 -1.48509 0
M  V30 9112 H 843.768 -1.84855 -3.23511 0
M  V30 9113 H 843.881 -3.72032 -3.01876 0
M  V30 9114 H 842.245 -1.91541 -1.67882 0
M  V30 9115 H 843.028 -3.33811 -0.801583 0
M  V30 9116 N 845.473 0.80434 -1.35529 0
M  V30 9117 C 846.701 1.59283 -1.32048 0
M  V30 9118 C 847.116 1.88527 0.101556 0
M  V30 9119 O 846.473 1.48975 1.05417 0
M  V30 9120 C 846.524 2.92276 -2.12737 0
M  V30 9121 O 846.245 2.64299 -3.49396 0
M  V30 9122 C 847.746 3.86631 -2.16867 0
M  V30 9123 H 844.966 0.494523 -0.453528 0
M  V30 9124 H 847.51 0.999415 -1.78415 0
M  V30 9125 H 845.665 3.48125 -1.69964 0
M  V30 9126 H 846.079 3.4923 -3.91329 0
M  V30 9127 H 847.553 4.77053 -2.77712 0
M  V30 9128 H 848.03 4.23384 -1.16803 0
M  V30 9129 H 848.636 3.36717 -2.59811 0
M  V30 9130 N 846.951 1.19563 1.02676 0
M  V30 9131 C 848.179 1.02488 1.79732 0
M  V30 9132 C 848.594 -0.426302 1.83924 0
M  V30 9133 O 847.951 -1.29609 1.28483 0
M  V30 9134 C 848.002 1.58944 3.24683 0
M  V30 9135 O 847.723 2.98382 3.2078 0
M  V30 9136 C 849.224 1.46681 4.1833 0
M  V30 9137 H 846.444 0.361098 0.565552 0
M  V30 9138 H 848.988 1.58426 1.29311 0
M  V30 9139 H 847.143 1.0715 3.72287 0
M  V30 9140 H 847.557 3.24983 4.11687 0
M  V30 9141 H 849.031 1.90959 5.17918 0
M  V30 9142 H 849.508 0.417663 4.3721 0
M  V30 9143 H 850.114 1.97616 3.76601 0
M  V30 9144 N 848.429 -1.21819 0.999893 0
M  V30 9145 C 849.361 -2.23356 0.514256 0
M  V30 9146 C 850.374 -1.5795 -0.394413 0
M  V30 9147 O 851.563 -1.77427 -0.195428 0
M  V30 9148 C 848.663 -3.37797 -0.273207 0
M  V30 9149 C 847.836 -4.32791 0.633293 0
M  V30 9150 C 846.895 -5.26098 -0.103673 0
M  V30 9151 O 845.921 -5.66881 0.513269 0
M  V30 9152 N 847.123 -5.63764 -1.38383 0
M  V30 9153 H 849.888 -2.65653 1.3874 0
M  V30 9154 H 847.449 -1.3619 0.875431 0
M  V30 9155 H 849.441 -3.97209 -0.775053 0
M  V30 9156 H 848.011 -2.94527 -1.0475 0
M  V30 9157 H 847.231 -3.71595 1.31571 0
M  V30 9158 H 848.519 -4.93196 1.25039 0
M  V30 9159 H 847.917 -5.32614 -1.90627 0
M  V30 9160 H 846.474 -6.25562 -1.83073 0
M  V30 9161 N 849.908 -0.773975 -1.37286 0
M  V30 9162 C 851.154 -0.339809 -1.99933 0
M  V30 9163 C 851.487 1.0815 -1.61299 0
M  V30 9164 O 850.762 1.74442 -0.860252 0
M  V30 9165 C 851.045 -0.485919 -3.56806 0
M  V30 9166 C 850.898 -1.9498 -4.05343 0
M  V30 9167 C 852.217 0.108461 -4.39966 0
M  V30 9168 H 849.336 -0.124944 -0.726332 0
M  V30 9169 H 851.978 -0.977433 -1.6293 0
M  V30 9170 H 850.128 0.0569023 -3.88458 0
M  V30 9171 H 851.8 -2.5525 -3.84246 0
M  V30 9172 H 850.043 -2.45784 -3.57453 0
M  V30 9173 H 850.714 -2.00308 -5.14374 0
M  V30 9174 H 853.19 -0.354722 -4.14585 0
M  V30 9175 H 852.066 -0.0238926 -5.48895 0
M  V30 9176 H 852.327 1.19901 -4.25531 0
M  V30 9177 N 851.386 1.48609 -0.524698 0
M  V30 9178 C 852.296 2.33318 0.244923 0
M  V30 9179 C 853.312 1.46153 0.944214 0
M  V30 9180 O 854.488 1.79141 0.920347 0
M  V30 9181 C 851.553 3.22149 1.28144 0
M  V30 9182 C 850.614 4.25184 0.593068 0
M  V30 9183 C 849.847 5.0977 1.5802 0
M  V30 9184 O 850.07 4.96249 2.81235 0
M  V30 9185 O 849.004 5.9134 1.1225 0
M  V30 9186 H 852.83 3.00362 -0.449066 0
M  V30 9187 H 850.415 1.46643 -0.285689 0
M  V30 9188 H 852.297 3.77111 1.88057 0
M  V30 9189 H 850.972 2.57772 1.95793 0
M  V30 9190 H 849.879 3.74071 -0.0464214 0
M  V30 9191 H 851.212 4.92183 -0.0413893 0
M  V30 9192 N 852.864 0.259585 1.55447 0
M  V30 9193 C 854.092 -0.365392 2.03648 0
M  V30 9194 C 854.507 -1.50613 1.13847 0
M  V30 9195 O 853.864 -1.81837 0.155414 0
M  V30 9196 C 853.915 -0.861172 3.51093 0
M  V30 9197 O 853.636 0.234121 4.37474 0
M  V30 9198 C 855.137 -1.55555 4.15111 0
M  V30 9199 H 852.357 -0.0853439 0.66555 0
M  V30 9200 H 854.901 0.387151 2.00802 0
M  V30 9201 H 853.056 -1.56385 3.54433 0
M  V30 9202 H 853.47 -0.1444 5.24301 0
M  V30 9203 H 854.944 -1.85403 5.19932 0
M  V30 9204 H 855.421 -2.48185 3.62355 0
M  V30 9205 H 856.027 -0.89712 4.15731 0
M  V30 9206 N 854.342 -1.57594 -0.0133615 0
M  V30 9207 C 855.753 -1.78168 -0.557937 0
M  V30 9208 C 856.104 -0.892616 -1.74719 0
M  V30 9209 O 855.229 -0.0915491 -2.16206 0
M  V30 9210 C 855.824 -3.23115 -1.01894 0
M  V30 9211 C 854.383 -3.44831 -1.50892 0
M  V30 9212 C 853.53 -2.73558 -0.454044 0
M  V30 9213 H 856.481 -1.57266 0.212843 0
M  V30 9214 H 856.502 -3.30493 -1.8856 0
M  V30 9215 H 856.014 -3.87798 -0.153175 0
M  V30 9216 H 854.115 -2.85345 -2.39602 0
M  V30 9217 H 854.228 -4.53485 -1.54559 0
M  V30 9218 H 852.592 -2.37787 -0.912666 0
M  V30 9219 H 853.375 -3.40932 0.402524 0
M  V30 9220 N 855.82 0.285905 -1.54985 0
M  V30 9221 C 857.097 1.0397 -1.65679 0
M  V30 9222 C 857.477 2.04725 -0.514851 0
M  V30 9223 O 856.825 2.23257 0.486663 0
M  V30 9224 C 857.035 1.70807 -3.04345 0
M  V30 9225 C 858.383 2.22447 -3.61666 0
M  V30 9226 O 859.407 1.80815 -3.06895 0
M  V30 9227 O 858.266 2.98773 -4.57599 0
M  V30 9228 H 855.36 0.481473 -0.672394 0
M  V30 9229 H 857.906 0.282789 -1.67327 0
M  V30 9230 H 856.678 0.977271 -3.789 0
M  V30 9231 H 856.301 2.53217 -3.06541 0
M  V30 9232 N 857.298 1.47698 0.54982 0
M  V30 9233 C 858.228 1.63622 1.66583 0
M  V30 9234 C 859.209 0.485477 1.63025 0
M  V30 9235 O 860.394 0.715692 1.80531 0
M  V30 9236 C 857.524 1.65721 3.05211 0
M  V30 9237 C 856.478 2.80097 3.2362 0
M  V30 9238 C 855.804 2.67272 4.63109 0
M  V30 9239 C 857.104 4.21612 3.08286 0
M  V30 9240 H 858.798 2.57049 1.53512 0
M  V30 9241 H 856.344 1.23705 0.737099 0
M  V30 9242 H 858.297 1.75451 3.83138 0
M  V30 9243 H 857.021 0.688593 3.19258 0
M  V30 9244 H 855.68 2.69889 2.48104 0
M  V30 9245 H 855.328 1.68422 4.73965 0
M  V30 9246 H 855.028 3.44008 4.76374 0
M  V30 9247 H 856.552 2.78942 5.43161 0
M  V30 9248 H 857.966 4.32758 3.76024 0
M  V30 9249 H 856.363 4.99193 3.33057 0
M  V30 9250 H 857.433 4.39462 2.04942 0
M  V30 9251 N 858.776 -0.797141 1.35954 0
M  V30 9252 C 860.022 -1.55698 1.29946 0
M  V30 9253 C 860.355 -1.93808 -0.123259 0
M  V30 9254 O 859.63 -1.62102 -1.07486 0
M  V30 9255 C 859.913 -2.83926 2.2149 0
M  V30 9256 C 859.766 -2.52232 3.72423 0
M  V30 9257 C 861.085 -3.85698 2.11955 0
M  V30 9258 H 858.204 -0.56488 0.47337 0
M  V30 9259 H 860.846 -0.916421 1.66438 0
M  V30 9260 H 858.996 -3.38588 1.905 0
M  V30 9261 H 860.668 -2.0368 4.13899 0
M  V30 9262 H 858.911 -1.85286 3.92239 0
M  V30 9263 H 859.582 -3.43782 4.31877 0
M  V30 9264 H 862.058 -3.40462 2.39218 0
M  V30 9265 H 860.934 -4.73182 2.78191 0
M  V30 9266 H 861.195 -4.28083 1.10442 0
M  V30 9267 N 860.254 -1.20106 -1.0204 0
M  V30 9268 C 861.531 -0.918029 -1.72718 0
M  V30 9269 C 861.911 0.574163 -2.03142 0
M  V30 9270 O 861.259 1.53476 -1.69285 0
M  V30 9271 C 861.469 -1.78698 -2.9978 0
M  V30 9272 C 862.817 -2.02648 -3.7312 0
M  V30 9273 O 863.841 -1.75919 -3.09727 0
M  V30 9274 O 862.7 -2.47767 -4.87107 0
M  V30 9275 H 859.794 -0.342904 -0.752559 0
M  V30 9276 H 862.34 -1.30961 -1.07923 0
M  V30 9277 H 861.112 -2.79757 -2.7359 0
M  V30 9278 H 860.735 -1.39522 -3.72316 0
M  V30 9279 N 861.732 1.21287 -1.00634 0
M  V30 9280 C 862.682 2.21541 -0.53886 0
M  V30 9281 C 863.666 1.55842 0.400256 0
M  V30 9282 O 864.858 1.75566 0.224889 0
M  V30 9283 C 861.987 3.43047 0.131796 0
M  V30 9284 C 861.073 4.1593 -0.828419 0
M  V30 9285 N 861.464 4.65359 -1.98178 0
M  V30 9286 C 859.762 4.41281 -0.647083 0
M  V30 9287 C 860.463 5.21079 -2.58557 0
M  V30 9288 N 859.439 5.10531 -1.86705 0
M  V30 9289 H 863.241 2.57413 -1.41831 0
M  V30 9290 H 860.755 1.37109 -0.870338 0
M  V30 9291 H 862.752 4.14079 0.484178 0
M  V30 9292 H 861.412 3.08683 1.00721 0
M  V30 9293 H 862.423 4.60896 -2.3621 0
M  V30 9294 H 859.1 4.17107 0.181139 0
M  V30 9295 H 860.49 5.6977 -3.56107 0
M  V30 9296 N 863.21 0.781244 1.36873 0
M  V30 9297 C 864.487 0.274217 1.93668 0
M  V30 9298 C 864.867 -1.2323 1.71399 0
M  V30 9299 O 864.215 -2.01993 1.06822 0
M  V30 9300 C 864.425 0.657939 3.42742 0
M  V30 9301 C 865.773 0.63307 4.19854 0
M  V30 9302 O 866.797 0.597909 3.51146 0
M  V30 9303 O 865.656 0.668636 5.42394 0
M  V30 9304 H 862.75 0.0658059 0.824378 0
M  V30 9305 H 865.296 0.863238 1.46104 0
M  V30 9306 H 864.068 1.69728 3.52573 0
M  V30 9307 H 863.691 0.0423678 3.97577 0
M  V30 9308 N 864.689 -1.48329 0.532571 0
M  V30 9309 C 865.637 -2.31336 -0.242133 0
M  V30 9310 C 866.631 -1.41391 -0.933006 0
M  V30 9311 O 867.837 -1.58284 -0.857096 0
M  V30 9312 H 864.212 -0.745724 -0.0969536 0
M  V30 9313 H 866.183 -2.94555 0.477504 0
M  V30 9314 C 864.932 -3.23501 -1.27446 0
M  V30 9315 H 864.255 -3.92659 -0.752261 0
M  V30 9316 H 865.695 -3.84461 -1.78789 0
M  V30 9317 C 864.154 -2.45288 -2.30944 0
M  V30 9318 O 864.684 -2.17955 -3.37429 0
M  V30 9319 N 862.89 -2.06737 -2.04226 0
M  V30 9320 H 862.437 -2.29166 -1.17647 0
M  V30 9321 H 862.395 -1.54719 -2.73696 0
M  V30 9322 N 866.167 -0.267825 -1.55308 0
M  V30 9323 C 867.395 0.354587 -2.03839 0
M  V30 9324 C 867.81 1.50007 -1.14644 0
M  V30 9325 O 867.167 1.81752 -0.165055 0
M  V30 9326 C 867.218 0.84254 -3.51544 0
M  V30 9327 O 866.939 -0.257318 -4.37344 0
M  V30 9328 C 868.44 1.53351 -4.15931 0
M  V30 9329 H 865.66 0.0818131 -0.665994 0
M  V30 9330 H 868.204 -0.397795 -2.00594 0
M  V30 9331 H 866.359 1.54503 -3.55257 0
M  V30 9332 H 866.773 0.116593 -5.2437 0
M  V30 9333 H 868.247 1.82643 -5.20908 0
M  V30 9334 H 868.724 2.4626 -3.63666 0
M  V30 9335 H 869.33 0.87506 -4.162 0
M  V30 9336 N 867.645 1.57599 0.00500368 0
M  V30 9337 C 868.87 1.95026 0.705663 0
M  V30 9338 C 869.295 0.869643 1.6679 0
M  V30 9339 O 868.653 -0.172659 1.80476 0
M  V30 9340 C 868.701 3.31545 1.4181 0
M  V30 9341 O 867.805 3.25495 2.53232 0
M  V30 9342 H 867.146 0.636808 0.188074 0
M  V30 9343 H 869.676 2.04547 -0.046696 0
M  V30 9344 H 869.686 3.66996 1.78265 0
M  V30 9345 H 868.361 4.09751 0.712543 0
M  V30 9346 H 866.938 3.01714 2.19142 0
M  V30 9347 N 869.123 -0.277682 1.55134 0
M  V30 9348 C 870.534 -0.849063 1.66276 0
M  V30 9349 C 870.885 -1.87223 0.5867 0
M  V30 9350 O 870.01 -2.14676 -0.272635 0
M  V30 9351 C 870.605 -1.54681 3.01429 0
M  V30 9352 C 869.164 -2.06628 3.14614 0
M  V30 9353 C 868.311 -0.906748 2.62056 0
M  V30 9354 H 871.262 -0.0541357 1.58608 0
M  V30 9355 H 871.283 -2.41356 2.94156 0
M  V30 9356 H 870.795 -0.80189 3.79725 0
M  V30 9357 H 868.896 -2.84095 2.41082 0
M  V30 9358 H 869.009 -2.2848 4.2111 0
M  V30 9359 H 867.373 -1.29882 2.19095 0
M  V30 9360 H 868.156 -0.175414 3.42852 0
M  V30 9361 N 870.601 -1.47988 -0.541979 0
M  V30 9362 C 871.531 -1.64503 -1.65713 0
M  V30 9363 C 872.512 -0.494116 -1.62765 0
M  V30 9364 O 873.697 -0.725256 -1.80149 0
M  V30 9365 C 870.827 -1.67337 -3.04328 0
M  V30 9366 C 869.781 -2.81809 -3.2213 0
M  V30 9367 C 869.107 -2.69724 -4.61685 0
M  V30 9368 C 870.407 -4.23241 -3.06046 0
M  V30 9369 H 872.101 -2.5786 -1.52147 0
M  V30 9370 H 869.647 -1.24094 -0.730529 0
M  V30 9371 H 871.6 -1.77481 -3.82202 0
M  V30 9372 H 870.324 -0.705514 -3.18889 0
M  V30 9373 H 868.983 -2.71201 -2.46669 0
M  V30 9374 H 868.631 -1.70934 -4.73065 0
M  V30 9375 H 868.331 -3.4653 -4.74543 0
M  V30 9376 H 869.855 -2.81818 -5.41674 0
M  V30 9377 H 871.269 -4.34746 -3.73723 0
M  V30 9378 H 869.666 -5.00952 -3.30405 0
M  V30 9379 H 870.736 -4.40543 -2.02609 0
M  V30 9380 N 872.079 0.78992 -1.36375 0
M  V30 9381 C 873.326 1.54777 -1.30576 0
M  V30 9382 C 873.654 1.94159 0.115095 0
M  V30 9383 O 872.909 1.62918 1.08426 0
M  V30 9384 C 873.208 2.83698 -2.17371 0
M  V30 9385 C 872.874 2.63457 -3.65925 0
M  V30 9386 C 871.536 2.57645 -4.06415 0
M  V30 9387 C 873.888 2.44833 -4.60115 0
M  V30 9388 C 871.216 2.31174 -5.39236 0
M  V30 9389 C 873.568 2.19889 -5.93154 0
M  V30 9390 C 872.232 2.1251 -6.32768 0
M  V30 9391 H 871.502 0.566371 -0.477813 0
M  V30 9392 H 874.149 0.91138 -1.68422 0
M  V30 9393 H 872.454 3.51802 -1.72459 0
M  V30 9394 H 874.151 3.41487 -2.10209 0
M  V30 9395 H 870.741 2.68836 -3.33804 0
M  V30 9396 H 874.925 2.48325 -4.29707 0
M  V30 9397 H 870.181 2.23942 -5.68911 0
M  V30 9398 H 874.355 2.04473 -6.65705 0
M  V30 9399 H 871.982 1.91761 -7.35616 0
M  V30 9400 N 873.557 1.20646 1.01402 0
M  V30 9401 C 874.973 0.961866 1.27359 0
M  V30 9402 C 875.173 -0.357083 1.98311 0
M  V30 9403 O 874.229 -1.08498 2.28001 0
M  V30 9404 C 875.542 2.14627 2.10609 0
M  V30 9405 C 877.09 2.18753 2.23866 0
M  V30 9406 C 877.565 3.36686 3.10494 0
M  V30 9407 N 879.056 3.36716 3.18083 0
M  V30 9408 C 879.791 4.24615 3.85343 0
M  V30 9409 N 879.287 5.22697 4.54708 0
M  V30 9410 N 881.08 4.12449 3.81893 0
M  V30 9411 H 873.231 2.05481 0.537721 0
M  V30 9412 H 875.494 0.899292 0.299963 0
M  V30 9413 H 875.2 3.10159 1.65814 0
M  V30 9414 H 875.074 2.12935 3.11349 0
M  V30 9415 H 877.461 1.23782 2.67885 0
M  V30 9416 H 877.542 2.24492 1.22626 0
M  V30 9417 H 877.186 4.31945 2.67181 0
M  V30 9418 H 877.116 3.28185 4.11828 0
M  V30 9419 H 879.607 2.65728 2.68695 0
M  V30 9420 H 879.92 5.86087 5.03708 0
M  V30 9421 H 878.265 5.26631 4.53525 0
M  V30 9422 H 881.456 3.35091 3.26851 0
M  V30 9423 H 881.629 4.81162 4.34035 0
M  V30 9424 N 875.035 -1.20752 1.01276 0
M  V30 9425 C 876.263 -1.94006 0.718976 0
M  V30 9426 C 876.678 -1.74544 -0.719711 0
M  V30 9427 O 876.035 -1.05697 -1.48776 0
M  V30 9428 C 876.086 -3.46208 1.04031 0
M  V30 9429 O 875.807 -3.65031 2.42248 0
M  V30 9430 C 877.308 -4.36614 0.767032 0
M  V30 9431 H 874.528 -0.616743 0.264327 0
M  V30 9432 H 877.072 -1.53352 1.3529 0
M  V30 9433 H 875.227 -3.84756 0.451852 0
M  V30 9434 H 875.641 -4.59054 2.53712 0
M  V30 9435 H 877.115 -5.42076 1.04198 0
M  V30 9436 H 877.592 -4.38182 -0.298851 0
M  V30 9437 H 878.198 -4.03723 1.33746 0
M  V30 9438 N 876.513 -0.788492 -1.36457 0
M  V30 9439 C 877.924 -0.423742 -1.81828 0
M  V30 9440 C 878.275 1.05221 -1.65599 0
M  V30 9441 O 877.4 1.8163 -1.17641 0
M  V30 9442 C 877.995 -0.762354 -3.30112 0
M  V30 9443 C 876.554 -0.450445 -3.73695 0
M  V30 9444 C 875.701 -0.997482 -2.58738 0
M  V30 9445 H 878.652 -0.981718 -1.24692 0
M  V30 9446 H 878.673 -0.0531136 -3.80463 0
M  V30 9447 H 878.185 -1.83662 -3.41891 0
M  V30 9448 H 876.286 0.615829 -3.67476 0
M  V30 9449 H 876.399 -0.970408 -4.69169 0
M  V30 9450 H 874.763 -0.420761 -2.51201 0
M  V30 9451 H 875.546 -2.07749 -2.73304 0
M  V30 9452 N 877.991 1.48044 -0.54043 0
M  V30 9453 C 878.921 2.32597 0.205178 0
M  V30 9454 C 879.902 1.42748 0.925041 0
M  V30 9455 O 881.087 1.71624 0.908784 0
M  V30 9456 C 878.217 3.24175 1.24612 0
M  V30 9457 C 877.171 4.23131 0.64376 0
M  V30 9458 C 876.497 5.03915 1.78812 0
M  V30 9459 C 877.797 5.20831 -0.39144 0
M  V30 9460 H 879.491 2.95184 -0.500676 0
M  V30 9461 H 877.037 1.41948 -0.242225 0
M  V30 9462 H 878.99 3.82158 1.77576 0
M  V30 9463 H 877.714 2.59608 1.98169 0
M  V30 9464 H 876.373 3.66349 0.135554 0
M  V30 9465 H 876.021 4.35765 2.51232 0
M  V30 9466 H 875.721 5.709 1.39094 0
M  V30 9467 H 877.245 5.64753 2.32134 0
M  V30 9468 H 878.659 5.73277 0.0515064 0
M  V30 9469 H 877.056 5.95926 -0.706569 0
M  V30 9470 H 878.126 4.6733 -1.29345 0
M  V30 9471 N 879.47 0.276058 1.55163 0
M  V30 9472 C 880.695 -0.346648 2.04483 0
M  V30 9473 C 881.12 -1.48613 1.15308 0
M  V30 9474 O 880.478 -1.80663 0.151875 0
M  V30 9475 C 880.526 -0.804268 3.51517 0
M  V30 9476 O 879.63 -1.91143 3.65429 0
M  V30 9477 H 878.971 -0.0715251 0.660136 0
M  V30 9478 H 881.501 0.410631 2.00437 0
M  V30 9479 H 881.511 -1.09977 3.92898 0
M  V30 9480 H 880.186 0.0294123 4.1589 0
M  V30 9481 H 878.763 -1.61839 3.3595 0
M  V30 9482 N 880.948 -1.576 0.00335426 0
M  V30 9483 C 882.195 -1.90713 -0.680791 0
M  V30 9484 C 882.523 -0.877263 -1.73592 0
M  V30 9485 O 881.778 0.117497 -1.95347 0
M  V30 9486 C 882.077 -3.3058 -1.35837 0
M  V30 9487 C 881.743 -4.48786 -0.436111 0
M  V30 9488 C 880.405 -4.80855 -0.182195 0
M  V30 9489 C 882.757 -5.20821 0.198677 0
M  V30 9490 C 880.085 -5.8233 0.714747 0
M  V30 9491 C 882.437 -6.23252 1.08351 0
M  V30 9492 C 881.101 -6.53776 1.34658 0
M  V30 9493 H 880.371 -0.697869 -0.249119 0
M  V30 9494 H 883.018 -1.91407 0.0596011 0
M  V30 9495 H 881.323 -3.26026 -2.17289 0
M  V30 9496 H 883.02 -3.53462 -1.89383 0
M  V30 9497 H 879.61 -4.23731 -0.644186 0
M  V30 9498 H 883.794 -4.96298 0.0155259 0
M  V30 9499 H 879.05 -6.04339 0.926529 0
M  V30 9500 H 883.224 -6.78199 1.58172 0
M  V30 9501 H 880.851 -7.32225 2.04328 0
M  V30 9502 N 882.426 0.269451 -1.5528 0
M  V30 9503 C 883.654 1.01872 -1.80082 0
M  V30 9504 C 884.069 1.79802 -0.575917 0
M  V30 9505 O 883.426 1.76735 0.455081 0
M  V30 9506 C 883.477 1.9745 -3.02813 0
M  V30 9507 O 883.198 1.22677 -4.20573 0
M  V30 9508 C 884.699 2.8416 -3.40247 0
M  V30 9509 H 881.919 0.300781 -0.59981 0
M  V30 9510 H 884.463 0.29916 -2.023 0
M  V30 9511 H 882.618 2.64864 -2.82712 0
M  V30 9512 H 883.032 1.87129 -4.89982 0
M  V30 9513 H 884.506 3.47014 -4.29284 0
M  V30 9514 H 884.983 3.54113 -2.59809 0
M  V30 9515 H 885.589 2.22232 -3.6262 0
M  V30 9516 N 883.904 1.48273 0.534124 0
M  V30 9517 C 884.852 1.62926 1.66005 0
M  V30 9518 C 885.846 0.495814 1.61982 0
M  V30 9519 O 887.052 0.6744 1.66889 0
M  V30 9520 H 883.427 0.513163 0.549698 0
M  V30 9521 H 885.398 2.57498 1.50789 0
M  V30 9522 C 884.147 1.68231 3.04292 0
M  V30 9523 H 883.47 2.54807 3.0808 0
M  V30 9524 H 884.91 1.82528 3.827 0
M  V30 9525 C 883.369 0.420154 3.3427 0
M  V30 9526 O 883.899 -0.468769 3.98955 0
M  V30 9527 N 882.105 0.293115 2.89118 0
M  V30 9528 H 881.652 1.01745 2.36655 0
M  V30 9529 H 881.61 -0.550376 3.09545 0
M  V30 9530 N 885.382 -0.782676 1.36792 0
M  V30 9531 C 886.793 -1.35828 1.28092 0
M  V30 9532 C 887.144 -1.96052 -0.076315 0
M  V30 9533 O 886.269 -1.93042 -0.977935 0
M  V30 9534 C 886.864 -2.46949 2.31952 0
M  V30 9535 C 885.423 -3.00307 2.2692 0
M  V30 9536 C 884.57 -1.73436 2.16368 0
M  V30 9537 H 887.521 -0.583788 1.47572 0
M  V30 9538 H 887.542 -3.26144 1.95986 0
M  V30 9539 H 887.054 -2.03087 3.30722 0
M  V30 9540 H 885.155 -3.48571 1.31639 0
M  V30 9541 H 885.268 -3.56663 3.19887 0
M  V30 9542 H 883.632 -1.95934 1.62733 0
M  V30 9543 H 884.415 -1.31693 3.17036 0
M  V30 9544 N 886.86 -1.21182 -1.00761 0
M  V30 9545 C 887.79 -0.992773 -2.11344 0
M  V30 9546 C 888.771 0.0813618 -1.69905 0
M  V30 9547 O 889.956 -0.0779503 -1.94043 0
M  V30 9548 C 887.086 -0.553826 -3.42856 0
M  V30 9549 C 886.04 -1.57223 -3.98077 0
M  V30 9550 C 885.366 -0.989605 -5.25463 0
M  V30 9551 C 886.666 -2.95839 -4.30438 0
M  V30 9552 H 888.36 -1.91766 -2.29927 0
M  V30 9553 H 885.906 -0.923426 -1.10494 0
M  V30 9554 H 887.859 -0.387771 -4.19612 0
M  V30 9555 H 886.583 0.406702 -3.24058 0
M  V30 9556 H 885.242 -1.7258 -3.23437 0
M  V30 9557 H 884.89 -0.0208743 -5.02996 0
M  V30 9558 H 884.59 -1.66984 -5.63374 0
M  V30 9559 H 886.114 -0.834815 -6.04866 0
M  V30 9560 H 887.528 -2.8394 -4.98047 0
M  V30 9561 H 885.925 -3.60851 -4.79486 0
M  V30 9562 H 886.995 -3.46882 -3.38823 0
M  V30 9563 N 888.338 1.20213 -1.01915 0
M  V30 9564 C 889.288 2.20957 -0.562327 0
M  V30 9565 C 890.272 1.56258 0.383704 0
M  V30 9566 O 891.464 1.75794 0.206255 0
M  V30 9567 C 888.593 3.43167 0.0954035 0
M  V30 9568 C 887.679 4.15028 -0.872487 0
M  V30 9569 N 888.07 4.63231 -2.03103 0
M  V30 9570 C 886.368 4.4057 -0.69385 0
M  V30 9571 C 887.069 5.18307 -2.64069 0
M  V30 9572 N 886.045 5.08522 -1.9211 0
M  V30 9573 H 889.847 2.55894 -1.44553 0
M  V30 9574 H 887.361 1.36178 -0.884831 0
M  V30 9575 H 889.358 4.14569 0.440232 0
M  V30 9576 H 888.018 3.09734 0.974413 0
M  V30 9577 H 889.029 4.58365 -2.41086 0
M  V30 9578 H 885.706 4.17276 0.136889 0
M  V30 9579 H 887.096 5.65961 -3.6213 0
M  V30 9580 N 889.816 0.795718 1.36037 0
M  V30 9581 C 891.041 0.38204 2.03851 0
M  V30 9582 C 891.466 -0.995553 1.59594 0
M  V30 9583 O 890.824 -1.64258 0.767401 0
M  V30 9584 C 890.872 0.461248 3.57638 0
M  V30 9585 O 889.976 -0.529448 4.08987 0
M  V30 9586 H 889.317 0.161227 0.644129 0
M  V30 9587 H 891.847 1.07858 1.73861 0
M  V30 9588 H 891.857 0.32712 4.06687 0
M  V30 9589 H 890.532 1.46613 3.89201 0
M  V30 9590 H 889.109 -0.35646 3.71192 0
M  V30 9591 N 891.294 -1.47756 0.548274 0
M  V30 9592 C 892.571 -1.9555 -0.0443603 0
M  V30 9593 C 892.951 -1.49079 -1.49462 0
M  V30 9594 O 892.299 -0.725538 -2.16675 0
M  V30 9595 C 892.509 -3.48879 0.0918425 0
M  V30 9596 C 893.857 -4.2456 -0.0580879 0
M  V30 9597 O 894.881 -3.56195 0.018946 0
M  V30 9598 O 893.74 -5.46048 -0.222261 0
M  V30 9599 H 890.834 -0.824106 -0.0691235 0
M  V30 9600 H 893.38 -1.58196 0.614166 0
M  V30 9601 H 892.152 -3.7548 1.10137 0
M  V30 9602 H 891.775 -3.92975 -0.604704 0
M  V30 9603 N 892.772 -0.284283 -1.55015 0
M  V30 9604 C 894.049 0.382125 -1.91831 0
M  V30 9605 C 894.429 1.73007 -1.20962 0
M  V30 9606 O 893.777 2.25962 -0.339594 0
M  V30 9607 C 893.987 0.513341 -3.45204 0
M  V30 9608 C 895.335 0.791989 -4.17148 0
M  V30 9609 O 896.359 0.597799 -3.51148 0
M  V30 9610 O 895.218 1.16394 -5.33961 0
M  V30 9611 H 892.312 0.210707 -0.799707 0
M  V30 9612 H 894.858 -0.331111 -1.66438 0
M  V30 9613 H 893.63 -0.434911 -3.88876 0
M  V30 9614 H 893.253 1.27569 -3.76579 0
M  V30 9615 N 894.251 1.57596 -0.0117121 0
M  V30 9616 C 895.476 1.95764 0.684938 0
M  V30 9617 C 895.901 0.887285 1.65858 0
M  V30 9618 O 895.259 -0.153508 1.80649 0
M  V30 9619 C 895.307 3.33031 1.38285 0
M  V30 9620 O 894.411 3.28163 2.49765 0
M  V30 9621 H 893.752 0.638767 0.181309 0
M  V30 9622 H 896.282 2.04486 -0.0683883 0
M  V30 9623 H 896.292 3.68866 1.74362 0
M  V30 9624 H 894.967 4.10483 0.669043 0
M  V30 9625 H 893.544 3.04021 2.15929 0
M  V30 9626 N 895.729 -0.261212 1.5542 0
M  V30 9627 C 897.006 -1.01321 1.67312 0
M  V30 9628 C 897.386 -2.0388 0.547356 0
M  V30 9629 O 896.734 -2.24003 -0.451083 0
M  V30 9630 C 896.944 -1.65943 3.07024 0
M  V30 9631 C 898.292 -2.16666 3.65159 0
M  V30 9632 O 899.316 -1.75909 3.09733 0
M  V30 9633 O 898.175 -2.91455 4.62294 0
M  V30 9634 H 895.269 -0.470714 0.679968 0
M  V30 9635 H 897.815 -0.256133 1.67756 0
M  V30 9636 H 896.587 -0.916868 3.80407 0
M  V30 9637 H 896.21 -2.48308 3.1053 0
M  V30 9638 N 897.207 -1.48554 -0.526253 0
M  V30 9639 C 898.432 -1.60686 -1.31129 0
M  V30 9640 C 898.857 -0.268701 -1.86171 0
M  V30 9641 O 898.215 0.760167 -1.64594 0
M  V30 9642 C 898.263 -2.65938 -2.43536 0
M  V30 9643 O 897.367 -2.23356 -3.46678 0
M  V30 9644 H 896.708 -0.538691 -0.388211 0
M  V30 9645 H 899.238 -1.94567 -0.632826 0
M  V30 9646 H 899.248 -2.87327 -2.89668 0
M  V30 9647 H 897.923 -3.63085 -2.02835 0
M  V30 9648 H 896.5 -2.12196 -3.06639 0
M  V30 9649 N 898.685 0.775411 -1.37205 0
M  V30 9650 C 899.962 1.5229 -1.22748 0
M  V30 9651 C 900.342 2.10327 0.180487 0
M  V30 9652 O 899.69 1.95206 1.18772 0
M  V30 9653 C 899.9 2.60671 -2.3206 0
M  V30 9654 C 901.248 3.28173 -2.6942 0
M  V30 9655 O 902.272 2.70963 -2.31208 0
M  V30 9656 O 901.131 4.31598 -3.3524 0
M  V30 9657 H 898.225 0.674326 -0.478762 0
M  V30 9658 H 900.771 0.812691 -1.48975 0
M  V30 9659 H 899.543 2.1588 -3.26361 0
M  V30 9660 H 899.166 3.39296 -2.07277 0
M  V30 9661 N 900.163 1.21714 1.00117 0
M  V30 9662 C 901.073 0.99597 2.12409 0
M  V30 9663 C 902.089 -0.0531431 1.73919 0
M  V30 9664 O 903.265 0.137757 2.00928 0
M  V30 9665 C 900.33 0.567593 3.42022 0
M  V30 9666 C 899.391 1.68936 3.94663 0
M  V30 9667 C 898.624 1.28133 5.1809 0
M  V30 9668 O 898.847 0.156574 5.70185 0
M  V30 9669 O 897.781 2.0947 5.64275 0
M  V30 9670 H 901.607 1.93657 2.33946 0
M  V30 9671 H 899.192 1.00236 1.10784 0
M  V30 9672 H 901.074 0.338664 4.20037 0
M  V30 9673 H 899.749 -0.34424 3.21864 0
M  V30 9674 H 898.656 1.97274 3.17858 0
M  V30 9675 H 899.989 2.57876 4.19238 0
M  V30 9676 N 901.641 -1.19671 1.02551 0
M  V30 9677 C 903.057 -1.41305 0.741963 0
M  V30 9678 C 903.257 -1.89865 -0.674807 0
M  V30 9679 O 902.313 -2.07323 -1.44129 0
M  V30 9680 C 903.626 -2.42706 1.77522 0
M  V30 9681 C 905.174 -2.56458 1.79438 0
M  V30 9682 C 905.649 -3.61111 2.81715 0
M  V30 9683 N 907.14 -3.68603 2.8051 0
M  V30 9684 C 907.875 -4.49262 3.56302 0
M  V30 9685 N 907.371 -5.33653 4.41799 0
M  V30 9686 N 909.164 -4.43879 3.44859 0
M  V30 9687 H 901.315 -0.8647 1.94002 0
M  V30 9688 H 903.578 -0.442206 0.838545 0
M  V30 9689 H 903.284 -2.14042 2.79068 0
M  V30 9690 H 903.158 -3.41831 1.59472 0
M  V30 9691 H 905.545 -2.84447 0.78573 0
M  V30 9692 H 905.626 -1.57499 2.01563 0
M  V30 9693 H 905.27 -3.33864 3.82749 0
M  V30 9694 H 905.2 -4.59713 2.56849 0
M  V30 9695 H 907.691 -3.08329 2.18498 0
M  V30 9696 H 908.004 -5.92308 4.96378 0
M  V30 9697 H 906.349 -5.33125 4.45873 0
M  V30 9698 H 909.54 -3.7699 2.77482 0
M  V30 9699 H 909.713 -5.06501 4.04179 0
M  V30 9700 N 903.119 -0.802921 -1.35613 0
M  V30 9701 C 904.067 -0.198783 -2.31749 0
M  V30 9702 C 905.061 0.649416 -1.56458 0
M  V30 9703 O 906.267 0.542989 -1.71615 0
M  V30 9704 H 902.642 -0.0455177 -0.750621 0
M  V30 9705 H 904.613 -1.02479 -2.80251 0
M  V30 9706 C 903.362 0.641066 -3.41739 0
M  V30 9707 H 902.685 -0.00226244 -3.998 0
M  V30 9708 H 904.125 1.03022 -4.11294 0
M  V30 9709 C 902.584 1.80505 -2.84464 0
M  V30 9710 O 903.114 2.90235 -2.77717 0
M  V30 9711 N 901.32 1.61542 -2.41563 0
M  V30 9712 H 900.867 0.722863 -2.4725 0
M  V30 9713 H 900.825 2.39581 -2.03589 0
M  V30 9714 N 904.597 1.47463 -0.556102 0
M  V30 9715 C 905.822 2.07371 -0.0344729 0
M  V30 9716 C 906.247 1.40621 1.2493 0
M  V30 9717 O 905.605 0.48082 1.74808 0
M  V30 9718 C 905.653 3.60306 0.145563 0
M  V30 9719 O 904.757 3.94299 1.20839 0
M  V30 9720 H 904.098 0.662052 -0.0508274 0
M  V30 9721 H 906.628 1.89498 -0.771469 0
M  V30 9722 H 906.638 4.06408 0.360112 0
M  V30 9723 H 905.313 4.08288 -0.792089 0
M  V30 9724 H 903.89 3.59944 0.97442 0
M  V30 9725 N 906.075 0.2925 1.54862 0
M  V30 9726 C 907.352 -0.371946 1.92031 0
M  V30 9727 C 907.732 -1.72363 1.21878 0
M  V30 9728 O 907.08 -2.25779 0.351573 0
M  V30 9729 C 907.29 -0.495027 3.45471 0
M  V30 9730 C 908.638 -0.769855 4.17562 0
M  V30 9731 O 909.662 -0.579168 3.5146 0
M  V30 9732 O 908.521 -1.13561 5.34571 0
M  V30 9733 H 905.615 -0.206463 0.800813 0
M  V30 9734 H 908.161 0.339933 1.6626 0
M  V30 9735 H 906.933 0.455528 3.88639 0
M  V30 9736 H 906.556 -1.2557 3.7725 0
M  V30 9737 N 907.553 -1.57587 0.0200696 0
M  V30 9738 C 908.801 -1.91046 -0.65922 0
M  V30 9739 C 909.122 -0.896197 -1.73186 0
M  V30 9740 O 908.392 0.0635952 -1.95797 0
M  V30 9741 H 906.972 -0.705163 -0.246483 0
M  V30 9742 H 909.634 -1.94789 0.0657368 0
M  V30 9743 H 908.73 -2.91399 -1.11773 0
M  V30 9744 N 909.032 0.252966 -1.55557 0
M  V30 9745 C 909.995 1.29645 -1.8901 0
M  V30 9746 C 910.995 1.41378 -0.766096 0
M  V30 9747 O 912.185 1.40183 -1.03414 0
M  V30 9748 C 909.317 2.67504 -2.11316 0
M  V30 9749 H 910.51 1.01202 -2.82309 0
M  V30 9750 H 908.063 0.491977 -1.48355 0
M  V30 9751 H 908.798 3.01095 -1.20466 0
M  V30 9752 H 908.583 2.6037 -2.93172 0
M  V30 9753 H 910.073 3.42861 -2.38403 0
M  V30 9754 N 910.51 1.48831 0.518367 0
M  V30 9755 C 911.756 1.57672 1.27543 0
M  V30 9756 C 912.089 0.254915 1.9252 0
M  V30 9757 O 911.364 -0.740107 1.79868 0
M  V30 9758 C 911.647 2.72345 2.35585 0
M  V30 9759 C 911.5 4.14267 1.75224 0
M  V30 9760 C 912.819 2.82726 3.37274 0
M  V30 9761 H 909.938 0.573926 0.462361 0
M  V30 9762 H 912.58 1.8105 0.576267 0
M  V30 9763 H 910.73 2.52543 2.95219 0
M  V30 9764 H 912.402 4.45539 1.19551 0
M  V30 9765 H 910.645 4.20724 1.05706 0
M  V30 9766 H 911.316 4.90345 2.53507 0
M  V30 9767 H 913.792 3.00699 2.8761 0
M  V30 9768 H 912.668 3.6467 4.10252 0
M  V30 9769 H 912.929 1.9136 3.9854 0
M  V30 9770 N 911.988 -0.768124 1.37614 0
M  V30 9771 C 913.216 -1.55726 1.36224 0
M  V30 9772 C 913.631 -1.8873 -0.0515357 0
M  V30 9773 O 912.988 -1.51718 -1.0143 0
M  V30 9774 C 913.039 -2.86533 2.20412 0
M  V30 9775 O 912.76 -2.54942 3.56281 0
M  V30 9776 C 914.261 -3.80745 2.27041 0
M  V30 9777 H 911.481 -0.482325 0.46648 0
M  V30 9778 H 914.025 -0.95176 1.81002 0
M  V30 9779 H 912.18 -3.43496 1.79134 0
M  V30 9780 H 912.594 -3.38732 4.00451 0
M  V30 9781 H 914.068 -4.69523 2.90263 0
M  V30 9782 H 914.545 -4.20138 1.27987 0
M  V30 9783 H 915.151 -3.2971 2.68647 0
M  V30 9784 N 913.466 -1.22244 -0.994698 0
M  V30 9785 C 914.398 -0.948706 -2.08644 0
M  V30 9786 C 915.411 0.0720049 -1.62641 0
M  V30 9787 O 916.6 -0.161778 -1.77765 0
M  V30 9788 C 913.7 -0.404885 -3.36473 0
M  V30 9789 C 912.873 -1.48239 -4.11514 0
M  V30 9790 C 911.932 -0.94597 -5.17627 0
M  V30 9791 O 910.958 -1.63177 -5.45309 0
M  V30 9792 N 912.16 0.23355 -5.8003 0
M  V30 9793 H 914.925 -1.88858 -2.32707 0
M  V30 9794 H 912.486 -1.12908 -1.16032 0
M  V30 9795 H 914.478 -0.0313903 -4.04688 0
M  V30 9796 H 913.048 0.440061 -3.09487 0
M  V30 9797 H 912.268 -2.02928 -3.37955 0
M  V30 9798 H 913.556 -2.20741 -4.58422 0
M  V30 9799 H 912.954 0.80756 -5.59906 0
M  V30 9800 H 911.511 0.54845 -6.49488 0
M  V30 9801 N 914.944 1.19125 -1.03184 0
M  V30 9802 C 915.892 2.24492 -0.608781 0
M  V30 9803 C 916.886 1.65529 0.360065 0
M  V30 9804 O 918.092 1.78546 0.22832 0
M  V30 9805 H 914.467 0.73048 -0.178616 0
M  V30 9806 H 916.438 2.5749 -1.50803 0
M  V30 9807 C 915.187 3.47693 0.0215126 0
M  V30 9808 H 914.51 3.93354 -0.715024 0
M  V30 9809 H 915.95 4.23072 0.280429 0
M  V30 9810 C 914.409 3.12088 1.26896 0
M  V30 9811 O 914.939 3.25013 2.36071 0
M  V30 9812 N 913.145 2.66494 1.15886 0
M  V30 9813 H 912.692 2.56176 0.270463 0
M  V30 9814 H 912.65 2.43042 1.99444 0
M  V30 9815 N 916.422 0.810101 1.35185 0
M  V30 9816 C 917.369 0.220927 2.2974 0
M  V30 9817 C 918.339 -0.647024 1.5298 0
M  V30 9818 O 919.524 -0.591367 1.81404 0
M  V30 9819 C 916.664 -0.62167 3.39454 0
M  V30 9820 C 915.777 0.267104 4.31173 0
M  V30 9821 C 914.912 -0.583833 5.27982 0
M  V30 9822 C 913.951 0.305123 6.11339 0
M  V30 9823 N 913.088 -0.505992 7.00274 0
M  V30 9824 H 917.928 1.03266 2.79536 0
M  V30 9825 H 915.465 0.520768 1.37573 0
M  V30 9826 H 917.423 -1.12539 4.01735 0
M  V30 9827 H 916.053 -1.39863 2.90926 0
M  V30 9828 H 915.105 0.88895 3.69867 0
M  V30 9829 H 916.417 0.951182 4.89647 0
M  V30 9830 H 915.571 -1.15254 5.95652 0
M  V30 9831 H 914.31 -1.30146 4.70014 0
M  V30 9832 H 913.315 0.886075 5.42613 0
M  V30 9833 H 914.54 1.02067 6.71386 0
M  V30 9834 H 912.486 -1.20753 6.4479 0
M  V30 9835 H 912.403 0.119966 7.55905 0
M  V30 9836 H 913.671 -1.05787 7.72288 0
M  V30 9837 N 917.9 -1.47166 0.563914 0
M  V30 9838 C 919.128 -2.06846 0.0474287 0
M  V30 9839 C 919.543 -1.41557 -1.24928 0
M  V30 9840 O 918.9 -0.514376 -1.75101 0
M  V30 9841 C 918.951 -3.6121 -0.144831 0
M  V30 9842 O 918.672 -4.24052 1.10053 0
M  V30 9843 C 920.173 -4.37773 -0.69783 0
M  V30 9844 H 917.393 -0.669217 0.0488896 0
M  V30 9845 H 919.937 -1.89072 0.779235 0
M  V30 9846 H 918.092 -3.78474 -0.82679 0
M  V30 9847 H 918.506 -5.16677 0.902481 0
M  V30 9848 H 919.98 -5.46438 -0.781616 0
M  V30 9849 H 920.457 -4.04517 -1.71063 0
M  V30 9850 H 921.063 -4.25269 -0.0513516 0
M  V30 9851 N 919.378 -0.300708 -1.54705 0
M  V30 9852 C 920.326 0.591264 -2.2496 0
M  V30 9853 C 921.32 1.13725 -1.2555 0
M  V30 9854 O 922.526 1.08793 -1.43402 0
M  V30 9855 H 918.901 0.209278 -0.722293 0
M  V30 9856 H 920.872 -0.0238175 -2.9839 0
M  V30 9857 C 919.621 1.75179 -3.00346 0
M  V30 9858 H 918.944 1.34089 -3.76643 0
M  V30 9859 H 920.384 2.35198 -3.52786 0
M  V30 9860 C 918.843 2.65574 -2.07298 0
M  V30 9861 O 919.373 3.6666 -1.64083 0
M  V30 9862 N 917.579 2.33301 -1.7326 0
M  V30 9863 H 917.126 1.51142 -2.08599 0
M  V30 9864 H 917.084 2.94049 -1.11278 0
M  V30 9865 N 920.856 1.57574 -0.0284266 0
M  V30 9866 C 922.105 1.9095 0.649704 0
M  V30 9867 C 922.418 0.906421 1.7333 0
M  V30 9868 O 923.624 1.1314 2.46803 0
M  V30 9869 C 922.08 3.39061 1.20687 0
M  V30 9870 C 921.688 4.47726 0.156597 0
M  V30 9871 C 923.432 3.81505 1.86156 0
M  V30 9872 C 921.339 5.86935 0.725365 0
M  V30 9873 H 920.269 0.712589 0.24644 0
M  V30 9874 H 922.92 1.83261 -0.0936143 0
M  V30 9875 H 921.302 3.41679 2.00178 0
M  V30 9876 H 922.476 4.56667 -0.6158 0
M  V30 9877 H 920.791 4.14481 -0.399288 0
M  V30 9878 H 923.388 4.82865 2.29665 0
M  V30 9879 H 923.731 3.16529 2.70398 0
M  V30 9880 H 924.264 3.81307 1.13356 0
M  V30 9881 H 921.003 6.55453 -0.0789081 0
M  V30 9882 H 920.523 5.81602 1.46627 0
M  V30 9883 H 922.202 6.35483 1.21532 0
M  V30 9884 N 922.334 -0.244713 1.55689 0
M  V30 9885 C 923.559 -0.994157 1.8202 0
M  V30 9886 C 923.984 -1.78079 0.60577 0
M  V30 9887 O 923.342 -1.75748 -0.445221 0
M  V30 9888 C 923.39 -1.90599 3.06111 0
M  V30 9889 O 922.494 -2.99804 2.8318 0
M  V30 9890 H 921.835 -0.282767 0.600782 0
M  V30 9891 H 924.365 -0.26504 2.02876 0
M  V30 9892 H 924.375 -2.32023 3.35603 0
M  V30 9893 H 923.05 -1.32763 3.9414 0
M  V30 9894 H 921.627 -2.62493 2.64862 0
M  V30 9895 N 923.813 -1.49104 -0.510467 0
M  V30 9896 C 925.041 -1.61806 -1.28944 0
M  V30 9897 C 925.456 -0.285774 -1.86625 0
M  V30 9898 O 924.813 0.727551 -1.67371 0
M  V30 9899 C 924.864 -2.67966 -2.42645 0
M  V30 9900 O 924.585 -3.96026 -1.87337 0
M  V30 9901 C 926.086 -2.91286 -3.34166 0
M  V30 9902 H 923.306 -0.544999 -0.391429 0
M  V30 9903 H 925.85 -1.95071 -0.613805 0
M  V30 9904 H 924.005 -2.37505 -3.06056 0
M  V30 9905 H 924.419 -4.54427 -2.61909 0
M  V30 9906 H 925.893 -3.69323 -4.1025 0
M  V30 9907 H 926.37 -2.00842 -3.90588 0
M  V30 9908 H 926.976 -3.23127 -2.76531 0
M  V30 9909 N 925.291 0.760815 -1.38019 0
M  V30 9910 C 926.254 1.85604 -1.34476 0
M  V30 9911 C 927.254 1.58897 -0.24666 0
M  V30 9912 O 928.444 1.66776 -0.50314 0
M  V30 9913 C 925.576 3.22945 -1.09176 0
M  V30 9914 H 926.769 1.90155 -2.31908 0
M  V30 9915 H 924.322 0.961746 -1.23208 0
M  V30 9916 H 925.057 3.24066 -0.123216 0
M  V30 9917 H 924.842 3.43723 -1.88672 0
M  V30 9918 H 926.332 4.03022 -1.09375 0
M  V30 9919 N 926.769 1.22769 0.988202 0
M  V30 9920 C 927.994 1.08239 1.76915 0
M  V30 9921 C 928.419 -0.362519 1.84574 0
M  V30 9922 O 927.777 -1.26202 1.30165 0
M  V30 9923 C 927.825 1.70363 3.17819 0
M  V30 9924 O 926.929 0.960484 4.01059 0
M  V30 9925 H 926.27 0.379872 0.544604 0
M  V30 9926 H 928.8 1.62663 1.24104 0
M  V30 9927 H 928.81 1.7528 3.6843 0
M  V30 9928 H 927.485 2.75505 3.1156 0
M  V30 9929 H 926.062 0.987667 3.59582 0
M  V30 9930 N 928.247 -1.18576 1.03814 0
M  V30 9931 C 929.21 -2.2033 0.63146 0
M  V30 9932 C 930.21 -1.57787 -0.309816 0
M  V30 9933 O 931.4 -1.73938 -0.0955598 0
M  V30 9934 C 928.532 -3.40818 -0.0745963 0
M  V30 9935 H 929.725 -2.57824 1.53189 0
M  V30 9936 H 927.278 -1.32416 0.830398 0
M  V30 9937 H 928.013 -3.08853 -0.988947 0
M  V30 9938 H 927.798 -3.87453 0.6019 0
M  V30 9939 H 929.288 -4.16166 -0.345727 0
M  V30 9940 N 929.725 -0.817259 -1.34754 0
M  V30 9941 C 930.953 -0.415451 -2.02686 0
M  V30 9942 C 931.368 0.97688 -1.61563 0
M  V30 9943 O 930.725 1.63125 -0.818321 0
M  V30 9944 C 930.776 -0.501486 -3.58005 0
M  V30 9945 O 930.497 -1.83893 -3.97637 0
M  V30 9946 C 931.998 -0.0938504 -4.43201 0
M  V30 9947 H 929.218 -0.16742 -0.649778 0
M  V30 9948 H 931.762 -1.10384 -1.7215 0
M  V30 9949 H 929.917 0.138766 -3.87151 0
M  V30 9950 H 930.331 -1.8092 -4.92309 0
M  V30 9951 H 931.805 -0.205145 -5.51619 0
M  V30 9952 H 932.282 0.962011 -4.28535 0
M  V30 9953 H 932.888 -0.707677 -4.19371 0
M  V30 9954 N 931.203 1.46865 -0.571711 0
M  V30 9955 C 932.449 2.0273 -0.0531858 0
M  V30 9956 C 932.782 1.44353 1.29907 0
M  V30 9957 O 932.057 0.604488 1.84868 0
M  V30 9958 C 932.34 3.60092 0.0243831 0
M  V30 9959 C 932.193 4.28874 -1.35599 0
M  V30 9960 C 933.512 4.33994 0.730563 0
M  V30 9961 H 930.631 0.736706 -0.0208018 0
M  V30 9962 H 933.273 1.75132 -0.736794 0
M  V30 9963 H 931.423 3.83736 0.606565 0
M  V30 9964 H 933.095 4.16527 -1.98249 0
M  V30 9965 H 931.338 3.88664 -1.92674 0
M  V30 9966 H 932.009 5.37561 -1.25429 0
M  V30 9967 H 934.485 4.1543 0.236098 0
M  V30 9968 H 933.361 5.43699 0.753836 0
M  V30 9969 H 933.622 4.04257 1.78967 0
M  V30 9970 N 932.681 0.308908 1.54543 0
M  V30 9971 C 933.906 -0.303196 2.05172 0
M  V30 9972 C 934.331 -1.46133 1.18434 0
M  V30 9973 O 933.689 -1.803 0.190162 0
M  V30 9974 C 933.737 -0.729526 3.53143 0
M  V30 9975 O 932.841 -1.83348 3.69401 0
M  V30 9976 H 932.182 -0.0575066 0.661505 0
M  V30 9977 H 934.712 0.453055 1.99521 0
M  V30 9978 H 934.722 -1.01619 3.95143 0
M  V30 9979 H 933.397 0.117622 4.15734 0
M  V30 9980 H 931.974 -1.54676 3.39308 0
M  V30 9981 N 934.159 -1.57557 0.0367827 0
M  V30 9982 C 935.122 -2.09591 -0.927589 0
M  V30 9983 C 936.122 -1.01252 -1.24919 0
M  V30 9984 O 937.312 -1.27382 -1.18825 0
M  V30 9985 C 934.444 -2.56816 -2.24184 0
M  V30 9986 H 935.637 -2.96086 -0.476784 0
M  V30 9987 H 933.19 -1.54864 -0.211385 0
M  V30 9988 H 933.925 -1.73673 -2.73876 0
M  V30 9989 H 933.71 -3.35973 -2.0215 0
M  V30 9990 H 935.2 -2.97271 -2.93291 0
M  V30 9991 N 935.637 0.236453 -1.55816 0
M  V30 9992 C 936.6 1.27633 -1.90375 0
M  V30 9993 C 937.6 1.40557 -0.781048 0
M  V30 9994 O 938.79 1.39078 -1.04895 0
M  V30 9995 C 935.922 2.65247 -2.14142 0
M  V30 9996 H 937.115 0.982019 -2.83366 0
M  V30 9997 H 934.668 0.476215 -1.48869 0
M  V30 9998 H 935.403 2.99801 -1.23653 0
M  V30 9999 H 935.188 2.57246 -2.95917 0
M  V30 10000 H 936.678 3.40313 -2.42026 0
M  V30 10001 N 937.115 1.49373 0.502552 0
M  V30 10002 C 938.343 1.62488 1.28084 0
M  V30 10003 C 938.758 0.295667 1.86471 0
M  V30 10004 O 938.115 -0.718664 1.67754 0
M  V30 10005 C 938.166 2.69249 2.4122 0
M  V30 10006 O 937.887 3.97014 1.85234 0
M  V30 10007 C 939.388 2.93054 3.32617 0
M  V30 10008 H 936.608 0.547068 0.388533 0
M  V30 10009 H 939.152 1.95394 0.603452 0
M  V30 10010 H 937.307 2.39125 3.04792 0
M  V30 10011 H 937.721 4.55809 2.59496 0
M  V30 10012 H 939.195 3.71493 4.08285 0
M  V30 10013 H 939.672 2.02911 3.89517 0
M  V30 10014 H 940.278 3.24589 2.74813 0
M  V30 10015 N 938.594 -0.753485 1.38421 0
M  V30 10016 C 939.819 -1.54783 1.38047 0
M  V30 10017 C 940.244 -1.8808 -0.0276371 0
M  V30 10018 O 939.602 -1.5058 -1.00973 0
M  V30 10019 C 939.65 -2.82353 2.24297 0
M  V30 10020 O 938.754 -3.77509 1.66014 0
M  V30 10021 H 938.095 -0.468151 0.470883 0
M  V30 10022 H 940.625 -0.931144 1.82184 0
M  V30 10023 H 940.635 -3.31277 2.38159 0
M  V30 10024 H 939.31 -2.57449 3.26639 0
M  V30 10025 H 937.887 -3.36212 1.61294 0
M  V30 10026 N 940.072 -1.23292 -0.981677 0
M  V30 10027 C 941.3 -1.09088 -1.75805 0
M  V30 10028 C 941.715 0.357746 -1.8538 0
M  V30 10029 O 941.072 1.24751 -1.33205 0
M  V30 10030 C 941.123 -1.70885 -3.1856 0
M  V30 10031 O 940.844 -3.10082 -3.09484 0
M  V30 10032 C 942.345 -1.62106 -4.12597 0
M  V30 10033 H 939.565 -0.38184 -0.55176 0
M  V30 10034 H 942.109 -1.63116 -1.23342 0
M  V30 10035 H 940.264 -1.20893 -3.68054 0
M  V30 10036 H 940.678 -3.40039 -3.99342 0
M  V30 10037 H 942.152 -2.10049 -5.10474 0
M  V30 10038 H 942.629 -0.579642 -4.35358 0
M  V30 10039 H 943.235 -2.11457 -3.69007 0
M  V30 10040 N 941.55 1.18024 -1.04442 0
M  V30 10041 C 942.46 2.25436 -0.649276 0
M  V30 10042 C 943.476 1.70915 0.326189 0
M  V30 10043 O 944.652 2.00592 0.180174 0
M  V30 10044 C 941.717 3.46693 -0.0222558 0
M  V30 10045 C 940.778 4.16332 -1.0472 0
M  V30 10046 C 940.011 5.31799 -0.450011 0
M  V30 10047 O 940.234 5.65544 0.742717 0
M  V30 10048 O 939.168 5.90209 -1.18056 0
M  V30 10049 H 942.994 2.61508 -1.54426 0
M  V30 10050 H 940.579 1.25178 -0.81552 0
M  V30 10051 H 942.461 4.20132 0.326597 0
M  V30 10052 H 941.136 3.12436 0.84649 0
M  V30 10053 H 940.043 3.44944 -1.44792 0
M  V30 10054 H 941.376 4.54598 -1.88684 0
M  V30 10055 N 943.028 0.824394 1.34319 0
M  V30 10056 C 944.253 0.425194 2.02995 0
M  V30 10057 C 944.678 -0.961476 1.6167 0
M  V30 10058 O 944.036 -1.62593 0.80207 0
M  V30 10059 C 944.084 0.537004 3.56579 0
M  V30 10060 O 943.188 -0.442576 4.10018 0
M  V30 10061 H 942.529 0.174853 0.640564 0
M  V30 10062 H 945.059 1.11522 1.71534 0
M  V30 10063 H 945.069 0.413311 4.05901 0
M  V30 10064 H 943.744 1.54836 3.86004 0
M  V30 10065 H 942.321 -0.277644 3.71865 0
M  V30 10066 N 944.506 -1.46559 0.579492 0
M  V30 10067 C 945.755 -2.01606 0.0615735 0
M  V30 10068 C 946.068 -1.45695 -1.30508 0
M  V30 10069 O 947.274 -1.92541 -1.91416 0
M  V30 10070 C 945.73 -3.59851 0.059496 0
M  V30 10071 C 945.338 -4.24757 1.42427 0
M  V30 10072 C 947.082 -4.22567 -0.404646 0
M  V30 10073 C 944.989 -5.75072 1.38009 0
M  V30 10074 H 943.919 -0.753754 0.0192491 0
M  V30 10075 H 946.57 -1.68326 0.73066 0
M  V30 10076 H 944.952 -3.90193 -0.675691 0
M  V30 10077 H 946.126 -4.06029 2.17893 0
M  V30 10078 H 944.441 -3.74121 1.82817 0
M  V30 10079 H 947.038 -5.32748 -0.456441 0
M  V30 10080 H 947.381 -3.91279 -1.42149 0
M  V30 10081 H 947.914 -3.96839 0.276376 0
M  V30 10082 H 944.653 -6.11014 2.37364 0
M  V30 10083 H 944.173 -5.96073 0.667583 0
M  V30 10084 H 945.852 -6.37724 1.09163 0
M  V30 10085 N 945.984 -0.3171 -1.54377 0
M  V30 10086 C 947.209 0.292311 -2.0533 0
M  V30 10087 C 947.634 1.45503 -1.19207 0
M  V30 10088 O 946.992 1.80197 -0.199721 0
M  V30 10089 C 947.04 0.710787 -3.53525 0
M  V30 10090 O 946.144 1.81387 -3.70368 0
M  V30 10091 H 945.485 0.0539976 -0.661801 0
M  V30 10092 H 948.015 -0.463629 -1.99278 0
M  V30 10093 H 948.025 0.995216 -3.95676 0
M  V30 10094 H 946.7 -0.139668 -4.15665 0
M  V30 10095 H 945.277 1.52875 -3.40123 0
M  V30 10096 N 947.462 1.57535 -0.0451378 0
M  V30 10097 C 948.69 1.96761 0.639742 0
M  V30 10098 C 949.105 0.922405 1.64734 0
M  V30 10099 O 948.462 -0.0940535 1.82257 0
M  V30 10100 C 948.513 3.36066 1.33199 0
M  V30 10101 O 948.234 4.36579 0.364757 0
M  V30 10102 C 949.735 3.90015 2.1072 0
M  V30 10103 H 946.955 0.64769 0.175324 0
M  V30 10104 H 949.499 2.04206 -0.109651 0
M  V30 10105 H 947.654 3.2979 2.03266 0
M  V30 10106 H 948.068 5.17432 0.858168 0
M  V30 10107 H 949.542 4.89785 2.54586 0
M  V30 10108 H 950.019 3.25117 2.95288 0
M  V30 10109 H 950.625 3.99609 1.45577 0
M  V30 10110 N 948.94 -0.228186 1.55939 0
M  V30 10111 C 950.356 -0.577583 1.48782 0
M  V30 10112 C 950.556 -1.87461 0.738972 0
M  V30 10113 O 949.612 -2.50988 0.275929 0
M  V30 10114 C 950.925 -0.662961 2.93301 0
M  V30 10115 C 952.473 -0.754035 3.03782 0
M  V30 10116 C 952.948 -0.870815 4.49645 0
M  V30 10117 N 954.439 -0.935208 4.53661 0
M  V30 10118 C 955.174 -1.04516 5.63794 0
M  V30 10119 N 954.67 -1.11948 6.83696 0
M  V30 10120 N 956.463 -1.07978 5.51631 0
M  V30 10121 H 948.614 0.623018 2.03057 0
M  V30 10122 H 950.877 0.217692 0.922667 0
M  V30 10123 H 950.583 0.220375 3.51009 0
M  V30 10124 H 950.457 -1.52876 3.44831 0
M  V30 10125 H 952.844 -1.62782 2.46143 0
M  V30 10126 H 952.925 0.137301 2.55431 0
M  V30 10127 H 952.569 -0.0015186 5.079 0
M  V30 10128 H 952.499 -1.77747 4.95695 0
M  V30 10129 H 954.99 -0.88836 3.6731 0
M  V30 10130 H 955.303 -1.20297 7.6338 0
M  V30 10131 H 953.648 -1.08873 6.8642 0
M  V30 10132 H 956.839 -1.01833 4.56889 0
M  V30 10133 H 957.012 -1.16202 6.37496 0
M  V30 10134 N 950.418 -1.49637 -0.494624 0
M  V30 10135 C 951.365 -1.66776 -1.59545 0
M  V30 10136 C 952.335 -0.509159 -1.58104 0
M  V30 10137 O 953.52 -0.736949 -1.75993 0
M  V30 10138 C 950.66 -1.74624 -2.97658 0
M  V30 10139 C 949.773 -3.01831 -3.09067 0
M  V30 10140 C 948.908 -3.00619 -4.37952 0
M  V30 10141 C 947.947 -4.22378 -4.43016 0
M  V30 10142 N 947.084 -4.1904 -5.63339 0
M  V30 10143 H 951.924 -2.60767 -1.44238 0
M  V30 10144 H 949.461 -1.29286 -0.701673 0
M  V30 10145 H 951.419 -1.77156 -3.77719 0
M  V30 10146 H 950.049 -0.840936 -3.11654 0
M  V30 10147 H 949.101 -3.08881 -2.22029 0
M  V30 10148 H 950.413 -3.91823 -3.08669 0
M  V30 10149 H 949.567 -3.01749 -5.26339 0
M  V30 10150 H 948.306 -2.08416 -4.40924 0
M  V30 10151 H 947.311 -4.21485 -3.5303 0
M  V30 10152 H 948.536 -5.15781 -4.41755 0
M  V30 10153 H 946.482 -3.29677 -5.67141 0
M  V30 10154 H 946.399 -5.02774 -5.64583 0
M  V30 10155 H 947.667 -4.24281 -6.53916 0
M  V30 10156 N 951.896 0.746133 -1.38819 0
M  V30 10157 C 953.142 1.50768 -1.35635 0
M  V30 10158 C 953.475 1.94132 0.0512435 0
M  V30 10159 O 952.75 1.65979 1.01396 0
M  V30 10160 C 953.033 2.7551 -2.31875 0
M  V30 10161 C 952.886 2.38236 -3.81528 0
M  V30 10162 C 954.205 3.77566 -2.26124 0
M  V30 10163 H 951.324 0.546922 -0.494009 0
M  V30 10164 H 953.966 0.854017 -1.69725 0
M  V30 10165 H 952.116 3.31285 -2.02935 0
M  V30 10166 H 953.788 1.88178 -4.21173 0
M  V30 10167 H 952.031 1.70601 -3.98846 0
M  V30 10168 H 952.702 3.27517 -4.44339 0
M  V30 10169 H 955.178 3.31349 -2.51689 0
M  V30 10170 H 954.054 4.62531 -2.95561 0
M  V30 10171 H 954.315 4.23689 -1.26254 0
M  V30 10172 N 953.375 1.23811 0.975125 0
M  V30 10173 C 954.305 1.04846 2.08638 0
M  V30 10174 C 955.286 -0.0362859 1.70061 0
M  V30 10175 O 956.471 0.12937 1.93769 0
M  V30 10176 C 953.601 0.644534 3.41267 0
M  V30 10177 C 952.555 1.67722 3.93768 0
M  V30 10178 C 951.881 1.12857 5.22654 0
M  V30 10179 C 953.181 3.07147 4.22443 0
M  V30 10180 H 954.875 1.97795 2.24761 0
M  V30 10181 H 952.421 0.952397 1.08006 0
M  V30 10182 H 954.374 0.498887 4.18436 0
M  V30 10183 H 953.098 -0.320641 3.25022 0
M  V30 10184 H 951.757 1.81095 3.18748 0
M  V30 10185 H 951.405 0.154227 5.02764 0
M  V30 10186 H 951.105 1.81862 5.58749 0
M  V30 10187 H 952.629 0.994891 6.0244 0
M  V30 10188 H 954.043 2.97045 4.90344 0
M  V30 10189 H 952.44 3.73437 4.6975 0
M  V30 10190 H 953.51 3.55743 3.29507 0
M  V30 10191 N 954.853 -1.17469 1.05066 0
M  V30 10192 C 956.264 -1.69334 0.786304 0
M  V30 10193 C 956.615 -1.83604 -0.691671 0
M  V30 10194 O 955.74 -1.52269 -1.53763 0
M  V30 10195 C 956.335 -3.07572 1.42074 0
M  V30 10196 C 954.894 -3.56609 1.20446 0
M  V30 10197 C 954.041 -2.329 1.50508 0
M  V30 10198 H 956.992 -1.02003 1.21577 0
M  V30 10199 H 957.013 -3.71352 0.829334 0
M  V30 10200 H 956.525 -2.97154 2.49642 0
M  V30 10201 H 954.626 -3.72306 0.147968 0
M  V30 10202 H 954.739 -4.39446 1.90852 0
M  V30 10203 H 953.103 -2.37305 0.925124 0
M  V30 10204 H 953.886 -2.25093 2.59207 0
M  V30 10205 N 956.331 -0.831506 -1.3388 0
M  V30 10206 C 957.264 -0.2046 -2.27281 0
M  V30 10207 C 958.242 0.643992 -1.49303 0
M  V30 10208 O 959.426 0.605863 -1.78498 0
M  V30 10209 C 956.553 0.713409 -3.31101 0
M  V30 10210 C 955.599 -0.0587654 -4.2646 0
M  V30 10211 S 956.432 -1.41172 -5.16557 0
M  V30 10212 C 957.588 -0.498807 -6.23909 0
M  V30 10213 H 957.821 -0.996442 -2.80104 0
M  V30 10214 H 955.354 -0.62786 -1.41058 0
M  V30 10215 H 957.312 1.23748 -3.91403 0
M  V30 10216 H 955.973 1.47885 -2.77108 0
M  V30 10217 H 955.166 0.639466 -4.99927 0
M  V30 10218 H 954.768 -0.513665 -3.70456 0
M  V30 10219 H 957.06 0.306268 -6.76807 0
M  V30 10220 H 958.003 -1.20342 -6.97799 0
M  V30 10221 H 958.411 -0.0834242 -5.64438 0
M  V30 10222 N 957.809 1.4625 -0.587256 0
M  V30 10223 C 959.034 2.07252 -0.0784517 0
M  V30 10224 C 959.459 1.43239 1.21919 0
M  V30 10225 O 958.817 0.517791 1.73749 0
M  V30 10226 C 958.865 3.60534 0.0691037 0
M  V30 10227 O 957.969 3.96773 1.12448 0
M  V30 10228 H 957.31 0.660825 -0.064859 0
M  V30 10229 H 959.84 1.87819 -0.811491 0
M  V30 10230 H 959.85 4.0708 0.273826 0
M  V30 10231 H 958.525 4.06516 -0.878514 0
M  V30 10232 H 957.102 3.6193 0.897852 0
M  V30 10233 N 959.287 0.325282 1.54207 0
M  V30 10234 C 960.536 -0.27768 1.99779 0
M  V30 10235 C 960.849 -1.5311 1.21723 0
M  V30 10236 O 962.055 -2.21017 1.57682 0
M  V30 10237 C 960.511 -0.545329 3.55745 0
M  V30 10238 C 960.119 0.691143 4.42637 0
M  V30 10239 C 961.863 -1.10815 4.09781 0
M  V30 10240 C 959.77 0.395302 5.90077 0
M  V30 10241 H 958.7 -0.107536 0.746292 0
M  V30 10242 H 961.351 0.437773 1.78202 0
M  V30 10243 H 959.733 -1.32101 3.73317 0
M  V30 10244 H 960.907 1.46653 4.3684 0
M  V30 10245 H 959.222 1.1743 3.99499 0
M  V30 10246 H 961.819 -1.34414 5.1753 0
M  V30 10247 H 962.162 -2.05806 3.6187 0
M  V30 10248 H 962.695 -0.393608 3.95848 0
M  V30 10249 H 959.434 1.31443 6.42186 0
M  V30 10250 H 958.954 -0.34235 5.98822 0
M  V30 10251 H 960.633 0.00576877 6.47 0
M  V30 10252 N 960.765 -1.57509 0.0534917 0
M  V30 10253 C 961.728 -2.10563 -0.905307 0
M  V30 10254 C 962.728 -1.02571 -1.23838 0
M  V30 10255 O 963.918 -1.28635 -1.17468 0
M  V30 10256 C 961.05 -2.5918 -2.21447 0
M  V30 10257 H 962.243 -2.96575 -0.445354 0
M  V30 10258 H 959.796 -1.55079 -0.194947 0
M  V30 10259 H 960.531 -1.76568 -2.72019 0
M  V30 10260 H 960.316 -3.38098 -1.98575 0
M  V30 10261 H 961.806 -3.00365 -2.90122 0
M  V30 10262 N 962.243 0.219913 -1.56058 0
M  V30 10263 C 963.659 0.569685 -1.49086 0
M  V30 10264 C 963.859 1.87066 -0.748903 0
M  V30 10265 O 962.915 2.50838 -0.289235 0
M  V30 10266 C 964.228 0.647397 -2.93648 0
M  V30 10267 C 965.776 0.737914 -3.04177 0
M  V30 10268 C 966.251 0.846957 -4.50101 0
M  V30 10269 N 967.742 0.911136 -4.5415 0
M  V30 10270 C 968.477 1.01525 -5.64341 0
M  V30 10271 N 967.973 1.0832 -6.8428 0
M  V30 10272 N 969.766 1.05051 -5.52196 0
M  V30 10273 H 961.917 -0.633778 -2.02724 0
M  V30 10274 H 964.18 -0.222583 -0.921499 0
M  V30 10275 H 963.886 -0.238987 -3.50887 0
M  V30 10276 H 963.76 1.51046 -3.45637 0
M  V30 10277 H 966.147 1.61474 -2.47002 0
M  V30 10278 H 966.228 -0.150845 -2.55355 0
M  V30 10279 H 965.872 -0.0254166 -5.07894 0
M  V30 10280 H 965.802 1.75116 -4.96631 0
M  V30 10281 H 968.293 0.868869 -3.67776 0
M  V30 10282 H 968.606 1.16247 -7.64007 0
M  V30 10283 H 966.951 1.05231 -6.86987 0
M  V30 10284 H 970.142 0.994086 -4.57423 0
M  V30 10285 H 970.315 1.12819 -6.38103 0
M  V30 10286 N 963.721 1.49897 0.486681 0
M  V30 10287 C 964.671 1.6401 1.58381 0
M  V30 10288 C 965.655 0.495215 1.5309 0
M  V30 10289 O 966.847 0.748876 1.60377 0
M  V30 10290 C 963.976 1.72321 2.96918 0
M  V30 10291 C 963.062 2.92435 3.07152 0
M  V30 10292 N 963.453 4.16326 2.87238 0
M  V30 10293 C 961.751 2.90669 3.38271 0
M  V30 10294 C 962.452 4.97144 3.02031 0
M  V30 10295 N 961.428 4.3079 3.31544 0
M  V30 10296 H 965.23 2.57506 1.41661 0
M  V30 10297 H 962.744 1.46867 0.693106 0
M  V30 10298 H 964.741 1.80532 3.75784 0
M  V30 10299 H 963.401 0.799724 3.14697 0
M  V30 10300 H 964.412 4.46076 2.63128 0
M  V30 10301 H 961.089 2.07758 3.62137 0
M  V30 10302 H 962.479 6.05611 2.91006 0
M  V30 10303 N 965.199 -0.738761 1.39212 0
M  V30 10304 C 966.147 -1.8741 1.3777 0
M  V30 10305 C 967.141 -1.67371 0.261375 0
M  V30 10306 O 968.347 -1.74759 0.431209 0
M  V30 10307 H 964.722 -0.616843 0.430126 0
M  V30 10308 H 966.693 -1.85742 2.33543 0
M  V30 10309 C 965.442 -3.25053 1.23433 0
M  V30 10310 H 964.765 -3.41066 2.086 0
M  V30 10311 H 966.205 -4.04696 1.2648 0
M  V30 10312 C 964.664 -3.36851 -0.0575624 0
M  V30 10313 O 965.194 -3.88293 -1.02915 0
M  V30 10314 N 963.4 -2.90355 -0.119364 0
M  V30 10315 H 962.947 -2.48681 0.671976 0
M  V30 10316 H 962.905 -2.98628 -0.983286 0
M  V30 10317 N 966.677 -1.24326 -0.968545 0
M  V30 10318 C 967.926 -1.07647 -1.70572 0
M  V30 10319 C 968.239 0.384821 -1.91777 0
M  V30 10320 O 969.445 0.671782 -2.63058 0
M  V30 10321 C 967.901 -1.87799 -3.07017 0
M  V30 10322 C 967.509 -3.38333 -2.93658 0
M  V30 10323 C 969.253 -1.79647 -3.84613 0
M  V30 10324 C 967.16 -4.10831 -4.25407 0
M  V30 10325 H 966.09 -0.399216 -0.639642 0
M  V30 10326 H 968.741 -1.484 -1.07934 0
M  V30 10327 H 967.123 -1.3986 -3.7048 0
M  V30 10328 H 968.297 -3.93845 -2.39213 0
M  V30 10329 H 966.612 -3.47427 -2.29528 0
M  V30 10330 H 969.209 -2.31116 -4.82172 0
M  V30 10331 H 969.552 -0.761553 -4.09275 0
M  V30 10332 H 970.085 -2.25261 -3.27875 0
M  V30 10333 H 966.824 -5.14679 -4.05939 0
M  V30 10334 H 966.344 -3.60105 -4.79671 0
M  V30 10335 H 968.023 -4.17783 -4.94031 0
M  V30 10336 N 968.156 1.1691 -1.05688 0
M  V30 10337 C 969.119 2.19297 -0.666433 0
M  V30 10338 C 970.119 1.5826 0.284674 0
M  V30 10339 O 971.309 1.74068 0.0678757 0
M  V30 10340 C 968.441 3.40894 0.0203656 0
M  V30 10341 H 969.634 2.55354 -1.57272 0
M  V30 10342 H 967.187 1.31078 -0.851359 0
M  V30 10343 H 967.922 3.10388 0.939686 0
M  V30 10344 H 967.707 3.86446 -0.663464 0
M  V30 10345 H 969.197 4.16664 0.279475 0
M  V30 10346 N 969.634 0.838594 1.33437 0
M  V30 10347 C 970.882 0.433312 1.974 0
M  V30 10348 C 971.203 -1.01078 1.66758 0
M  V30 10349 O 970.473 -1.70406 0.966373 0
M  V30 10350 H 969.053 0.15724 0.730263 0
M  V30 10351 H 971.715 1.07149 1.62804 0
M  V30 10352 H 970.811 0.565144 3.06941 0
M  V30 10353 N 971.112 -1.45937 0.595003 0
M  V30 10354 C 972.34 -2.06698 0.091293 0
M  V30 10355 C 972.755 -1.44176 -1.21897 0
M  V30 10356 O 972.112 -0.551402 -1.73971 0
M  V30 10357 C 972.163 -3.61436 -0.0681801 0
M  V30 10358 O 971.884 -4.21622 1.19023 0
M  V30 10359 C 973.385 -4.39155 -0.604814 0
M  V30 10360 H 970.605 -0.668029 0.0630737 0
M  V30 10361 H 973.149 -1.87376 0.819165 0
M  V30 10362 H 971.304 -3.80143 -0.746324 0
M  V30 10363 H 971.718 -5.14647 1.01187 0
M  V30 10364 H 973.192 -5.47973 -0.665532 0
M  V30 10365 H 973.669 -4.08055 -1.62444 0
M  V30 10366 H 974.275 -4.25282 0.0388658 0
M  V30 10367 N 972.59 -0.333456 -1.54032 0
M  V30 10368 C 973.818 0.267813 -2.05159 0
M  V30 10369 C 974.233 1.4501 -1.20903 0
M  V30 10370 O 973.59 1.80888 -0.241994 0
M  V30 10371 C 973.641 0.69268 -3.54802 0
M  V30 10372 O 973.362 -0.442579 -4.35859 0
M  V30 10373 C 974.863 1.35572 -4.2206 0
M  V30 10374 H 972.083 0.0534924 -0.668864 0
M  V30 10375 H 974.627 -0.482515 -1.98726 0
M  V30 10376 H 972.782 1.39297 -3.6149 0
M  V30 10377 H 973.196 -0.105915 -5.24393 0
M  V30 10378 H 974.67 1.60385 -5.28186 0
M  V30 10379 H 975.147 2.30614 -3.73783 0
M  V30 10380 H 975.753 0.697748 -4.19537 0
M  V30 10381 N 974.068 1.57479 -0.061844 0
M  V30 10382 C 975.018 2.0867 0.918749 0
M  V30 10383 C 976.002 0.994174 1.26511 0
M  V30 10384 O 977.194 1.25738 1.24575 0
M  V30 10385 C 974.323 2.64386 2.18986 0
M  V30 10386 C 973.409 3.80626 1.87042 0
M  V30 10387 N 973.8 4.89982 1.25504 0
M  V30 10388 C 972.098 3.89733 2.1685 0
M  V30 10389 C 972.799 5.70928 1.11429 0
M  V30 10390 N 971.775 5.18877 1.62072 0
M  V30 10391 H 975.577 2.90611 0.438469 0
M  V30 10392 H 973.091 1.61775 0.142321 0
M  V30 10393 H 975.088 2.9937 2.90144 0
M  V30 10394 H 973.748 1.83888 2.67611 0
M  V30 10395 H 974.759 5.09556 0.925914 0
M  V30 10396 H 971.436 3.20194 2.67921 0
M  V30 10397 H 972.826 6.68886 0.635665 0
M  V30 10398 N 975.546 -0.211634 1.56173 0
M  V30 10399 C 976.771 -0.955324 1.84088 0
M  V30 10400 C 977.196 -1.76754 0.643407 0
M  V30 10401 O 976.554 -1.76653 -0.407842 0
M  V30 10402 C 976.602 -1.84063 3.10085 0
M  V30 10403 O 975.706 -2.9373 2.89476 0
M  V30 10404 H 975.047 -0.26996 0.606645 0
M  V30 10405 H 977.577 -0.221947 2.03393 0
M  V30 10406 H 977.587 -2.24852 3.40449 0
M  V30 10407 H 976.262 -1.24373 3.96868 0
M  V30 10408 H 974.839 -2.56816 2.7037 0
M  V30 10409 N 977.024 -1.50153 -0.478725 0
M  V30 10410 C 978.272 -1.60443 -1.22892 0
M  V30 10411 C 978.593 -0.303276 -1.92627 0
M  V30 10412 O 977.863 0.678798 -1.83764 0
M  V30 10413 H 976.443 -0.591205 -0.456602 0
M  V30 10414 H 979.105 -1.86893 -0.552905 0
M  V30 10415 H 978.201 -2.41175 -1.98094 0
M  V30 10416 N 978.502 0.731368 -1.39602 0
M  V30 10417 C 979.465 1.8271 -1.38383 0
M  V30 10418 C 980.465 1.58338 -0.280309 0
M  V30 10419 O 981.655 1.65671 -0.538402 0
M  V30 10420 C 978.787 3.20556 -1.16002 0
M  V30 10421 H 979.98 1.85193 -2.35889 0
M  V30 10422 H 977.533 0.935396 -1.2522 0
M  V30 10423 H 978.268 3.23732 -0.191927 0
M  V30 10424 H 978.053 3.39643 -1.9592 0
M  V30 10425 H 979.543 4.00612 -1.17899 0
M  V30 10426 N 979.98 1.24838 0.961938 0
M  V30 10427 C 980.89 1.06304 2.09133 0
M  V30 10428 C 981.906 0.00221475 1.74 0
M  V30 10429 O 983.082 0.201611 2.00388 0
M  V30 10430 C 980.147 0.676117 3.40043 0
M  V30 10431 C 979.208 1.81407 3.89089 0
M  V30 10432 C 978.441 1.44551 5.13752 0
M  V30 10433 O 978.664 0.337894 5.69398 0
M  V30 10434 O 977.598 2.27316 5.57325 0
M  V30 10435 H 981.424 2.01001 2.27667 0
M  V30 10436 H 979.009 1.0371 1.07539 0
M  V30 10437 H 980.891 0.472124 4.18747 0
M  V30 10438 H 979.566 -0.241667 3.22797 0
M  V30 10439 H 978.473 2.07286 3.11421 0
M  V30 10440 H 979.806 2.71083 4.10822 0
M  V30 10441 N 981.458 -1.16348 1.06306 0
M  V30 10442 C 982.405 -2.20741 0.673962 0
M  V30 10443 C 983.375 -1.628 -0.329454 0
M  V30 10444 O 984.56 -1.89547 -0.218313 0
M  V30 10445 C 981.7 -3.45036 0.0667008 0
M  V30 10446 C 980.813 -4.17221 1.12031 0
M  V30 10447 C 979.948 -5.29034 0.479176 0
M  V30 10448 C 978.987 -5.93021 1.51631 0
M  V30 10449 N 978.124 -6.96327 0.898528 0
M  V30 10450 H 982.964 -2.53376 1.56859 0
M  V30 10451 H 980.501 -1.24449 0.784276 0
M  V30 10452 H 982.459 -4.16099 -0.302916 0
M  V30 10453 H 981.089 -3.1295 -0.791333 0
M  V30 10454 H 980.141 -3.4476 1.60763 0
M  V30 10455 H 981.453 -4.60902 1.90712 0
M  V30 10456 H 980.607 -6.06674 0.0565993 0
M  V30 10457 H 979.346 -4.86517 -0.33951 0
M  V30 10458 H 978.351 -5.14104 1.94878 0
M  V30 10459 H 979.576 -6.37618 2.3371 0
M  V30 10460 H 977.522 -6.55923 0.100555 0
M  V30 10461 H 977.439 -7.38379 1.62272 0
M  V30 10462 H 978.707 -7.77888 0.5011 0
M  V30 10463 N 982.937 -0.845659 -1.3299 0
M  V30 10464 C 984.214 -0.366306 -1.92139 0
M  V30 10465 C 984.594 1.14912 -1.77083 0
M  V30 10466 O 983.942 1.96667 -1.16338 0
M  V30 10467 C 984.152 -0.820716 -3.39213 0
M  V30 10468 C 985.5 -0.832667 -4.16355 0
M  V30 10469 O 986.524 -0.764764 -3.47893 0
M  V30 10470 O 985.383 -0.926658 -5.38586 0
M  V30 10471 H 982.477 -0.105063 -0.820299 0
M  V30 10472 H 985.023 -0.931962 -1.41819 0
M  V30 10473 H 983.795 -1.86357 -3.44074 0
M  V30 10474 H 983.418 -0.232009 -3.96923 0
M  V30 10475 N 984.415 1.45619 -0.602734 0
M  V30 10476 C 985.661 2.02572 -0.0961759 0
M  V30 10477 C 985.994 1.47076 1.26815 0
M  V30 10478 O 985.269 0.643566 1.83544 0
M  V30 10479 C 985.552 3.60062 -0.0520032 0
M  V30 10480 C 985.405 4.25901 -1.44665 0
M  V30 10481 C 986.724 4.35446 0.638342 0
M  V30 10482 H 983.843 0.736099 -0.0364238 0
M  V30 10483 H 986.485 1.7353 -0.773776 0
M  V30 10484 H 984.635 3.84936 0.525032 0
M  V30 10485 H 986.307 4.12228 -2.0704 0
M  V30 10486 H 984.55 3.84489 -2.00874 0
M  V30 10487 H 985.221 5.34779 -1.36803 0
M  V30 10488 H 987.697 4.15837 0.147926 0
M  V30 10489 H 986.573 5.45176 0.63834 0
M  V30 10490 H 986.834 4.07962 1.70351 0
M  V30 10491 N 985.893 0.34162 1.53853 0
M  V30 10492 C 987.17 -0.310664 1.93117 0
M  V30 10493 C 987.55 -1.68398 1.273 0
M  V30 10494 O 986.898 -2.24546 0.423225 0
M  V30 10495 C 987.108 -0.384867 3.46871 0
M  V30 10496 C 988.456 -0.636621 4.198 0
M  V30 10497 O 989.48 -0.467061 3.53125 0
M  V30 10498 O 988.339 -0.964962 5.37913 0
M  V30 10499 H 985.433 -0.180881 0.806977 0
M  V30 10500 H 987.979 0.392656 1.65095 0
M  V30 10501 H 986.751 0.57894 3.86994 0
M  V30 10502 H 986.374 -1.13505 3.81054 0
M  V30 10503 N 987.371 -1.57444 0.0701946 0
M  V30 10504 C 988.617 -1.93716 -0.600178 0
M  V30 10505 C 988.95 -0.950329 -1.69359 0
M  V30 10506 O 988.225 0.0207123 -1.94489 0
M  V30 10507 C 988.508 -3.40266 -1.17861 0
M  V30 10508 C 988.361 -4.49706 -0.0919575 0
M  V30 10509 C 989.68 -3.87599 -2.08459 0
M  V30 10510 H 986.799 -0.704421 -0.216704 0
M  V30 10511 H 989.441 -1.89514 0.135838 0
M  V30 10512 H 987.591 -3.43977 -1.80587 0
M  V30 10513 H 989.263 -4.58116 0.541031 0
M  V30 10514 H 987.506 -4.29937 0.577639 0
M  V30 10515 H 988.177 -5.49381 -0.537048 0
M  V30 10516 H 990.653 -3.85883 -1.5567 0
M  V30 10517 H 989.529 -4.90755 -2.45867 0
M  V30 10518 H 989.79 -3.25448 -2.99226 0
M  V30 10519 N 988.849 0.203349 -1.56283 0
M  V30 10520 C 990.074 0.945548 -1.84592 0
M  V30 10521 C 990.499 1.7641 -0.652772 0
M  V30 10522 O 989.857 1.76867 0.398468 0
M  V30 10523 C 989.905 1.82416 -3.11057 0
M  V30 10524 O 989.009 2.92191 -2.9103 0
M  V30 10525 H 988.35 0.266739 -0.608068 0
M  V30 10526 H 990.88 0.211158 -2.03507 0
M  V30 10527 H 990.89 2.23044 -3.41636 0
M  V30 10528 H 989.565 1.22267 -3.97522 0
M  V30 10529 H 988.142 2.55378 -2.71728 0
M  V30 10530 N 990.327 1.50405 0.470755 0
M  V30 10531 C 991.237 1.7208 1.59454 0
M  V30 10532 C 992.253 0.603932 1.63183 0
M  V30 10533 O 993.429 0.882296 1.81046 0
M  V30 10534 C 990.494 1.81057 2.95667 0
M  V30 10535 C 989.555 3.04792 3.02324 0
M  V30 10536 C 988.788 3.13332 4.3204 0
M  V30 10537 O 989.011 2.28655 5.22564 0
M  V30 10538 O 987.945 4.0606 4.44296 0
M  V30 10539 H 991.771 2.67343 1.44089 0
M  V30 10540 H 989.356 1.34505 0.650286 0
M  V30 10541 H 991.238 1.8914 3.76569 0
M  V30 10542 H 989.913 0.889782 3.11231 0
M  V30 10543 H 988.82 3.0221 2.205 0
M  V30 10544 H 990.153 3.96451 2.91698 0
M  V30 10545 N 991.805 -0.723954 1.39988 0
M  V30 10546 C 993.082 -1.4763 1.28316 0
M  V30 10547 C 993.462 -2.10852 -0.102302 0
M  V30 10548 O 992.81 -1.9948 -1.11445 0
M  V30 10549 C 993.02 -2.51878 2.41574 0
M  V30 10550 C 994.368 -3.17948 2.81415 0
M  V30 10551 O 995.392 -2.62195 2.41106 0
M  V30 10552 O 994.251 -4.18858 3.51027 0
M  V30 10553 H 991.345 -0.656092 0.50346 0
M  V30 10554 H 993.891 -0.75684 1.51888 0
M  V30 10555 H 992.663 -2.03618 3.34149 0
M  V30 10556 H 992.286 -3.3137 2.19727 0
M  V30 10557 N 993.283 -1.25346 -0.955304 0
M  V30 10558 C 994.508 -1.12892 -1.73983 0
M  V30 10559 C 994.933 0.313455 -1.8547 0
M  V30 10560 O 994.291 1.22706 -1.33465 0
M  V30 10561 C 994.339 -1.78729 -3.1319 0
M  V30 10562 O 993.443 -1.06648 -3.98372 0
M  V30 10563 H 992.784 -0.394178 -0.534341 0
M  V30 10564 H 995.314 -1.65897 -1.19747 0
M  V30 10565 H 995.324 -1.84987 -3.63653 0
M  V30 10566 H 993.999 -2.83669 -3.04146 0
M  V30 10567 H 992.576 -1.08266 -3.56837 0
M  V30 10568 N 994.761 1.15782 -1.06922 0
M  V30 10569 C 996.172 1.68062 -0.813144 0
M  V30 10570 C 996.523 1.84681 0.662374 0
M  V30 10571 O 995.648 1.54696 1.51321 0
M  V30 10572 C 996.243 3.05273 -1.46949 0
M  V30 10573 C 994.802 3.54647 -1.26104 0
M  V30 10574 C 993.949 2.30477 -1.54194 0
M  V30 10575 H 996.9 1.00056 -1.23185 0
M  V30 10576 H 996.921 3.69986 -0.888308 0
M  V30 10577 H 996.433 2.93145 -2.54337 0
M  V30 10578 H 994.534 3.72024 -0.20718 0
M  V30 10579 H 994.647 4.36354 -1.97819 0
M  V30 10580 H 993.011 2.35803 -0.96276 0
M  V30 10581 H 993.794 2.2094 -2.62755 0
M  V30 10582 N 996.239 0.8527 1.3254 0
M  V30 10583 C 997.65 0.510012 1.79599 0
M  V30 10584 C 998.001 -0.972002 1.70431 0
M  V30 10585 O 997.126 -1.7581 1.26173 0
M  V30 10586 C 997.721 0.918986 3.26098 0
M  V30 10587 C 996.28 0.628227 3.7112 0
M  V30 10588 C 995.427 1.11979 2.53685 0
M  V30 10589 H 998.378 1.04009 1.19866 0
M  V30 10590 H 998.399 0.234577 3.79776 0
M  V30 10591 H 997.911 1.99765 3.32739 0
M  V30 10592 H 996.012 -0.4398 3.69995 0
M  V30 10593 H 996.125 1.19315 4.64005 0
M  V30 10594 H 994.489 0.540133 2.48907 0
M  V30 10595 H 995.272 2.20552 2.63081 0
M  V30 10596 N 997.718 -1.45297 0.610449 0
M  V30 10597 C 999.129 -1.85715 0.191488 0
M  V30 10598 C 999.48 -1.51036 -1.25229 0
M  V30 10599 O 998.605 -0.938422 -1.94994 0
M  V30 10600 C 999.2 -3.37082 0.340747 0
M  V30 10601 C 997.759 -3.76393 -0.0235433 0
M  V30 10602 C 996.906 -2.69237 0.663849 0
M  V30 10603 H 999.857 -1.36058 0.816948 0
M  V30 10604 H 999.878 -3.78105 -0.426233 0
M  V30 10605 H 999.39 -3.62291 1.39164 0
M  V30 10606 H 997.491 -3.56801 -1.07351 0
M  V30 10607 H 997.604 -4.77653 0.372102 0
M  V30 10608 H 995.968 -2.54499 0.101204 0
M  V30 10609 H 996.751 -2.97281 1.71694 0
M  V30 10610 N 999.196 -0.349774 -1.5367 0
M  V30 10611 C 1000.13 0.496338 -2.28164 0
M  V30 10612 C 1001.11 1.09737 -1.29968 0
M  V30 10613 O 1002.29 1.11759 -1.58819 0
M  V30 10614 C 999.422 1.64428 -3.0591 0
M  V30 10615 C 998.376 1.17127 -4.11661 0
M  V30 10616 C 997.702 2.40822 -4.77398 0
M  V30 10617 C 999.002 0.267293 -5.21616 0
M  V30 10618 H 1000.7 -0.125117 -2.99138 0
M  V30 10619 H 998.242 -0.0616152 -1.43868 0
M  V30 10620 H 1000.19 2.2427 -3.56765 0
M  V30 10621 H 998.919 2.29272 -2.32598 0
M  V30 10622 H 997.578 0.595634 -3.61729 0
M  V30 10623 H 997.226 3.04088 -4.00674 0
M  V30 10624 H 996.926 2.09852 -5.48849 0
M  V30 10625 H 998.45 3.01378 -5.3104 0
M  V30 10626 H 999.864 0.772734 -5.68068 0
M  V30 10627 H 998.261 0.0491991 -6.0008 0
M  V30 10628 H 999.331 -0.694892 -4.79895 0
M  V30 10629 N 1000.67 1.57404 -0.0785433 0
M  V30 10630 C 1002.08 1.81118 0.45311 0
M  V30 10631 C 1002.44 0.992963 1.69218 0
M  V30 10632 O 1001.56 0.217448 2.15305 0
M  V30 10633 C 1002.16 3.28506 0.82882 0
M  V30 10634 C 1000.71 3.53042 1.3053 0
M  V30 10635 C 999.862 2.75739 0.29378 0
M  V30 10636 H 1002.81 1.55758 -0.304171 0
M  V30 10637 H 1002.83 3.40924 1.68971 0
M  V30 10638 H 1002.35 3.88031 -0.0731826 0
M  V30 10639 H 1000.45 2.98829 2.22558 0
M  V30 10640 H 1000.56 4.61724 1.27857 0
M  V30 10641 H 998.924 2.42703 0.772477 0
M  V30 10642 H 999.707 3.38005 -0.600613 0
M  V30 10643 N 1002.15 -0.195058 1.56388 0
M  V30 10644 C 1003.06 -1.26219 1.97752 0
M  V30 10645 C 1004.08 -1.49801 0.885192 0
M  V30 10646 O 1005.25 -1.62415 1.19094 0
M  V30 10647 C 1002.32 -2.5865 2.3087 0
M  V30 10648 C 1001.38 -2.4314 3.5381 0
M  V30 10649 C 1000.61 -3.69255 3.85339 0
M  V30 10650 O 1000.84 -4.73425 3.18159 0
M  V30 10651 O 999.77 -3.64782 4.78767 0
M  V30 10652 H 1003.6 -0.941161 2.88749 0
M  V30 10653 H 1001.18 -0.40006 1.43944 0
M  V30 10654 H 1003.06 -3.36814 2.53247 0
M  V30 10655 H 1001.74 -2.9038 1.43042 0
M  V30 10656 H 1000.64 -1.63086 3.3668 0
M  V30 10657 H 1001.98 -2.16341 4.42105 0
M  V30 10658 N 1003.63 -1.50653 -0.462772 0
M  V30 10659 C 1005.05 -1.38263 -0.797213 0
M  V30 10660 C 1005.25 -0.445172 -1.96521 0
M  V30 10661 O 1004.3 0.10913 -2.52264 0
M  V30 10662 C 1005.61 -2.798 -1.10146 0
M  V30 10663 C 1007.16 -2.88774 -1.20742 0
M  V30 10664 C 1007.64 -4.31163 -1.54476 0
M  V30 10665 N 1009.13 -4.34152 -1.61451 0
M  V30 10666 C 1009.86 -5.4133 -1.89074 0
M  V30 10667 N 1009.36 -6.58705 -2.1466 0
M  V30 10668 N 1011.15 -5.28783 -1.90645 0
M  V30 10669 H 1003.3 -2.10172 0.30684 0
M  V30 10670 H 1005.57 -0.945046 0.0747862 0
M  V30 10671 H 1005.27 -3.50276 -0.316207 0
M  V30 10672 H 1005.15 -3.17559 -2.03559 0
M  V30 10673 H 1007.53 -2.18512 -1.98334 0
M  V30 10674 H 1007.61 -2.54547 -0.252904 0
M  V30 10675 H 1007.26 -5.01965 -0.774207 0
M  V30 10676 H 1007.19 -4.62883 -2.51092 0
M  V30 10677 H 1009.68 -3.49519 -1.43684 0
M  V30 10678 H 1009.99 -7.36192 -2.35035 0
M  V30 10679 H 1008.34 -6.61866 -2.12035 0
M  V30 10680 H 1011.53 -4.36078 -1.70158 0
M  V30 10681 H 1011.7 -6.12396 -2.11836 0
M  V30 10682 N 1005.11 0.71652 -1.4037 0
M  V30 10683 C 1006.34 1.50563 -1.4191 0
M  V30 10684 C 1006.75 1.88791 -0.0185456 0
M  V30 10685 O 1006.11 1.55378 0.957289 0
M  V30 10686 C 1006.16 2.78155 -2.30894 0
M  V30 10687 O 1005.88 2.41543 -3.65497 0
M  V30 10688 C 1007.38 3.72057 -2.41016 0
M  V30 10689 H 1004.6 0.464679 -0.48406 0
M  V30 10690 H 1007.15 0.883927 -1.8441 0
M  V30 10691 H 1005.3 3.36611 -1.91759 0
M  V30 10692 H 1005.71 3.23636 -4.12747 0
M  V30 10693 H 1007.19 4.58426 -3.07489 0
M  V30 10694 H 1007.67 4.15098 -1.43492 0
M  V30 10695 H 1008.27 3.19512 -2.80699 0
M  V30 10696 N 1006.59 1.25851 0.948643 0
M  V30 10697 C 1008 1.09975 1.50872 0
M  V30 10698 C 1008.35 -0.322497 1.93531 0
M  V30 10699 O 1007.47 -1.21316 1.79197 0
M  V30 10700 C 1008.07 1.99021 2.74182 0
M  V30 10701 C 1006.63 1.87313 3.26483 0
M  V30 10702 C 1005.77 1.92815 1.99293 0
M  V30 10703 H 1008.73 1.3905 0.764908 0
M  V30 10704 H 1008.75 1.53372 3.4822 0
M  V30 10705 H 1008.26 3.02527 2.43103 0
M  V30 10706 H 1006.36 0.867136 3.62369 0
M  V30 10707 H 1006.47 2.72446 3.94094 0
M  V30 10708 H 1004.84 1.36774 2.1486 0
M  V30 10709 H 1005.62 2.97936 1.70554 0
M  V30 10710 N 1008.06 -1.15214 1.07534 0
M  V30 10711 C 1008.97 -2.23636 0.708818 0
M  V30 10712 C 1009.99 -1.7172 -0.280759 0
M  V30 10713 O 1011.17 -2.01 -0.126927 0
M  V30 10714 C 1008.23 -3.46512 0.114167 0
M  V30 10715 C 1007.29 -4.13409 1.15722 0
M  V30 10716 C 1006.53 -5.30419 0.59085 0
M  V30 10717 O 1006.75 -5.67314 -0.592512 0
M  V30 10718 O 1005.68 -5.86871 1.33663 0
M  V30 10719 H 1009.51 -2.57322 1.61305 0
M  V30 10720 H 1007.09 -1.22972 0.848422 0
M  V30 10721 H 1008.98 -4.20851 -0.215091 0
M  V30 10722 H 1007.65 -3.1457 -0.763356 0
M  V30 10723 H 1006.56 -3.40984 1.53886 0
M  V30 10724 H 1007.89 -4.49435 2.00671 0
M  V30 10725 N 1009.54 -0.859717 -1.32086 0
M  V30 10726 C 1010.77 -0.478865 -2.01796 0
M  V30 10727 C 1011.19 0.918274 -1.64163 0
M  V30 10728 O 1010.55 1.60409 -0.844896 0
M  V30 10729 C 1010.6 -0.631356 -3.5503 0
M  V30 10730 O 1009.7 0.333712 -4.11048 0
M  V30 10731 H 1009.04 -0.191775 -0.635703 0
M  V30 10732 H 1011.57 -1.16031 -1.68517 0
M  V30 10733 H 1011.58 -0.520783 -4.04663 0
M  V30 10734 H 1010.26 -1.65015 -3.81763 0
M  V30 10735 H 1008.84 0.178953 -3.7247 0
M  V30 10736 N 1011.02 1.44971 -0.618145 0
M  V30 10737 C 1012.27 2.02159 -0.117482 0
M  V30 10738 C 1012.6 1.48517 1.2559 0
M  V30 10739 O 1011.85 0.654192 1.84442 0
M  V30 10740 C 1012.15 3.57378 -0.0394861 0
M  V30 10741 C 1011.82 4.30218 -1.34993 0
M  V30 10742 C 1010.48 4.49835 -1.70886 0
M  V30 10743 C 1012.83 4.71768 -2.21551 0
M  V30 10744 C 1010.16 5.08258 -2.9307 0
M  V30 10745 C 1012.51 5.31543 -3.42993 0
M  V30 10746 C 1011.17 5.49381 -3.79126 0
M  V30 10747 H 1010.44 0.739752 -0.0429897 0
M  V30 10748 H 1013.09 1.73903 -0.801871 0
M  V30 10749 H 1011.4 3.84973 0.728217 0
M  V30 10750 H 1013.09 3.99343 0.364213 0
M  V30 10751 H 1009.68 4.15271 -1.06057 0
M  V30 10752 H 1013.87 4.56336 -1.95117 0
M  V30 10753 H 1009.12 5.20257 -3.21158 0
M  V30 10754 H 1013.3 5.62691 -4.10308 0
M  V30 10755 H 1010.92 5.94419 -4.73888 0
M  V30 10756 N 1012.5 0.357919 1.53482 0
M  V30 10757 C 1013.74 -0.23451 2.0144 0
M  V30 10758 C 1014.08 -1.49044 1.24497 0
M  V30 10759 O 1013.35 -1.91566 0.336535 0
M  V30 10760 C 1013.64 -0.534193 3.56116 0
M  V30 10761 C 1013.49 0.734834 4.43757 0
M  V30 10762 C 1014.81 -1.33793 4.1927 0
M  V30 10763 H 1011.93 -0.0837595 0.732225 0
M  V30 10764 H 1014.57 0.481297 1.83803 0
M  V30 10765 H 1012.72 -1.144 3.71275 0
M  V30 10766 H 1014.39 1.37251 4.40409 0
M  V30 10767 H 1012.63 1.35678 4.12036 0
M  V30 10768 H 1013.3 0.48021 5.49907 0
M  V30 10769 H 1015.78 -0.822158 4.07897 0
M  V30 10770 H 1014.66 -1.51636 5.27539 0
M  V30 10771 H 1014.92 -2.34423 3.74831 0
M  V30 10772 N 1013.98 -1.5736 0.0868897 0
M  V30 10773 C 1014.91 -2.16596 -0.872252 0
M  V30 10774 C 1015.89 -1.09706 -1.29995 0
M  V30 10775 O 1017.07 -1.37808 -1.36831 0
M  V30 10776 C 1014.2 -2.73972 -2.1344 0
M  V30 10777 C 1013.16 -3.86163 -1.8456 0
M  V30 10778 C 1012.48 -4.30206 -3.17533 0
M  V30 10779 C 1013.78 -5.0973 -1.13899 0
M  V30 10780 H 1015.48 -2.96995 -0.378738 0
M  V30 10781 H 1013.02 -1.42861 -0.18073 0
M  V30 10782 H 1014.98 -3.14062 -2.80968 0
M  V30 10783 H 1013.7 -1.90817 -2.6506 0
M  V30 10784 H 1012.36 -3.466 -1.19432 0
M  V30 10785 H 1012.01 -3.43951 -3.67024 0
M  V30 10786 H 1011.71 -5.05841 -2.98996 0
M  V30 10787 H 1013.23 -4.72922 -3.86234 0
M  V30 10788 H 1014.64 -5.4704 -1.71523 0
M  V30 10789 H 1013.04 -5.90741 -1.05569 0
M  V30 10790 H 1014.11 -4.8475 -0.120432 0
M  V30 10791 N 1015.45 0.186762 -1.56489 0
M  V30 10792 C 1016.42 1.21511 -1.94339 0
M  V30 10793 C 1017.42 1.38001 -0.82537 0
M  V30 10794 O 1018.61 1.3567 -1.09266 0
M  V30 10795 C 1015.74 2.583 -2.22472 0
M  V30 10796 H 1016.93 0.891371 -2.86347 0
M  V30 10797 H 1014.49 0.428612 -1.50308 0
M  V30 10798 H 1015.22 2.95715 -1.33129 0
M  V30 10799 H 1015.01 2.47701 -3.03951 0
M  V30 10800 H 1016.5 3.32441 -2.5273 0
M  V30 10801 N 1016.93 1.50896 0.454776 0
M  V30 10802 C 1018.16 1.66759 1.23313 0
M  V30 10803 C 1018.58 0.35722 1.84677 0
M  V30 10804 O 1017.94 -0.680771 1.68033 0
M  V30 10805 C 1017.99 2.77254 2.3057 0
M  V30 10806 O 1017.09 2.39642 3.35627 0
M  V30 10807 H 1016.43 0.556599 0.362068 0
M  V30 10808 H 1018.96 1.97365 0.539274 0
M  V30 10809 H 1018.97 3.0082 2.75629 0
M  V30 10810 H 1017.65 3.72349 1.85281 0
M  V30 10811 H 1016.23 2.26584 2.96165 0
M  V30 10812 N 1018.41 -0.709066 1.40748 0
M  V30 10813 C 1019.32 -1.85314 1.43861 0
M  V30 10814 C 1020.34 -1.70832 0.330539 0
M  V30 10815 O 1021.51 -1.92983 0.576152 0
M  V30 10816 C 1018.58 -3.21174 1.30568 0
M  V30 10817 C 1017.64 -3.47863 2.51574 0
M  V30 10818 C 1016.87 -4.77241 2.38906 0
M  V30 10819 O 1017.09 -5.52791 1.40636 0
M  V30 10820 O 1016.03 -5.04413 3.28407 0
M  V30 10821 H 1019.85 -1.85644 2.40354 0
M  V30 10822 H 1017.44 -0.860352 1.2214 0
M  V30 10823 H 1019.32 -4.02313 1.25388 0
M  V30 10824 H 1018 -3.21557 0.371841 0
M  V30 10825 H 1016.9 -2.66708 2.62331 0
M  V30 10826 H 1018.24 -3.52283 3.43741 0
M  V30 10827 N 1019.89 -1.26353 -0.941956 0
M  V30 10828 C 1020.84 -1.04513 -2.02635 0
M  V30 10829 C 1021.82 0.0222314 -1.60885 0
M  V30 10830 O 1023.02 -0.194629 -1.75927 0
M  V30 10831 C 1020.14 -0.679282 -3.36512 0
M  V30 10832 C 1019.23 -1.78406 -3.8475 0
M  V30 10833 N 1019.62 -3.02136 -4.05645 0
M  V30 10834 C 1017.92 -1.66748 -4.13656 0
M  V30 10835 C 1018.62 -3.73932 -4.45589 0
M  V30 10836 N 1017.6 -3.01616 -4.52248 0
M  V30 10837 H 1021.4 -1.9843 -2.16801 0
M  V30 10838 H 1018.91 -1.16858 -1.12774 0
M  V30 10839 H 1020.91 -0.503975 -4.13843 0
M  V30 10840 H 1019.57 0.252418 -3.23717 0
M  V30 10841 H 1020.58 -3.38049 -3.92356 0
M  V30 10842 H 1017.26 -0.805627 -4.09653 0
M  V30 10843 H 1018.65 -4.80201 -4.69954 0
M  V30 10844 N 1021.37 1.14642 -1.08144 0
M  V30 10845 C 1022.32 2.21708 -0.703448 0
M  V30 10846 C 1023.31 1.66907 0.289535 0
M  V30 10847 O 1024.52 1.79354 0.152387 0
M  V30 10848 H 1020.89 0.722247 -0.209437 0
M  V30 10849 H 1022.86 2.50862 -1.61588 0
M  V30 10850 C 1021.61 3.47472 -0.125975 0
M  V30 10851 H 1020.93 3.89967 -0.881216 0
M  V30 10852 H 1022.37 4.2388 0.100737 0
M  V30 10853 C 1020.83 3.17189 1.13546 0
M  V30 10854 O 1021.36 3.34733 2.22073 0
M  V30 10855 N 1019.57 2.71169 1.04479 0
M  V30 10856 H 1019.12 2.57093 0.161566 0
M  V30 10857 H 1019.07 2.51282 1.88957 0
M  V30 10858 N 1022.85 0.866709 1.31628 0
M  V30 10859 C 1024.07 0.49039 2.01004 0
M  V30 10860 C 1024.49 -0.916244 1.65077 0
M  V30 10861 O 1023.85 -1.59975 0.8783 0
M  V30 10862 C 1023.9 0.634011 3.55897 0
M  V30 10863 O 1023.62 1.98525 3.90537 0
M  V30 10864 C 1025.12 0.258277 4.42547 0
M  V30 10865 H 1022.34 0.191421 0.643117 0
M  V30 10866 H 1024.88 1.16698 1.67934 0
M  V30 10867 H 1023.04 0.00501801 3.874 0
M  V30 10868 H 1023.45 1.99067 4.85255 0
M  V30 10869 H 1024.93 0.409733 5.50477 0
M  V30 10870 H 1025.4 -0.802301 4.3181 0
M  V30 10871 H 1026.01 0.862837 4.16456 0
M  V30 10872 N 1024.32 -1.44642 0.625825 0
M  V30 10873 C 1025.73 -1.85502 0.211175 0
M  V30 10874 C 1026.09 -1.52356 -1.2362 0
M  V30 10875 O 1025.21 -0.959051 -1.93988 0
M  V30 10876 C 1025.81 -3.36702 0.37648 0
M  V30 10877 C 1024.36 -3.76396 0.0163795 0
M  V30 10878 C 1023.51 -2.68517 0.692368 0
M  V30 10879 H 1026.46 -1.35183 0.831333 0
M  V30 10880 H 1026.48 -3.78536 -0.386106 0
M  V30 10881 H 1026 -3.60795 1.42999 0
M  V30 10882 H 1024.1 -3.57919 -1.0356 0
M  V30 10883 H 1024.21 -4.77231 0.422742 0
M  V30 10884 H 1022.57 -2.54377 0.128191 0
M  V30 10885 H 1023.36 -2.95444 1.74837 0
M  V30 10886 N 1025.8 -0.366053 -1.5329 0
M  V30 10887 C 1027.05 0.223824 -2.01561 0
M  V30 10888 C 1027.38 1.48382 -1.25286 0
M  V30 10889 O 1026.66 1.91385 -0.34669 0
M  V30 10890 C 1026.94 0.5153 -3.56394 0
M  V30 10891 C 1026.79 -0.758357 -4.43361 0
M  V30 10892 C 1028.11 1.31568 -4.19974 0
M  V30 10893 H 1025.23 0.0798751 -0.732659 0
M  V30 10894 H 1027.87 -0.491038 -1.83545 0
M  V30 10895 H 1026.02 1.12429 -3.71876 0
M  V30 10896 H 1027.69 -1.39584 -4.39675 0
M  V30 10897 H 1025.94 -1.37862 -4.11311 0
M  V30 10898 H 1026.61 -0.509366 -5.49645 0
M  V30 10899 H 1029.08 0.800514 -4.08327 0
M  V30 10900 H 1027.96 1.48837 -5.28336 0
M  V30 10901 H 1028.22 2.32432 -3.76069 0
M  V30 10902 N 1027.28 1.57312 -0.0952337 0
M  V30 10903 C 1028.7 1.57445 0.261416 0
M  V30 10904 C 1028.9 1.10639 1.68408 0
M  V30 10905 O 1027.95 0.782912 2.40056 0
M  V30 10906 C 1029.26 3.00659 0.0497206 0
M  V30 10907 C 1030.81 3.1278 0.117459 0
M  V30 10908 C 1031.29 4.57952 -0.0662441 0
M  V30 10909 N 1032.78 4.63199 -0.0114146 0
M  V30 10910 C 1033.51 5.73255 -0.128799 0
M  V30 10911 N 1033.01 6.92146 -0.301026 0
M  V30 10912 N 1034.8 5.62056 -0.0700599 0
M  V30 10913 H 1026.95 1.86045 -1.02475 0
M  V30 10914 H 1029.22 0.858726 -0.401614 0
M  V30 10915 H 1028.92 3.39102 -0.932888 0
M  V30 10916 H 1028.8 3.68792 0.791975 0
M  V30 10917 H 1031.18 2.74209 1.09057 0
M  V30 10918 H 1031.26 2.47238 -0.656288 0
M  V30 10919 H 1030.91 4.97217 -1.03623 0
M  V30 10920 H 1030.84 5.21555 0.727198 0
M  V30 10921 H 1033.33 3.77712 0.119154 0
M  V30 10922 H 1033.64 7.71855 -0.382104 0
M  V30 10923 H 1031.99 6.94184 -0.336695 0
M  V30 10924 H 1035.18 4.68057 0.0633587 0
M  V30 10925 H 1035.35 6.4779 -0.164991 0
M  V30 10926 N 1028.76 -0.17846 1.56586 0
M  V30 10927 C 1029.98 -0.916061 1.86073 0
M  V30 10928 C 1030.41 -1.75349 0.680754 0
M  V30 10929 O 1029.77 -1.77479 -0.37028 0
M  V30 10930 C 1029.81 -1.77445 3.1392 0
M  V30 10931 O 1028.92 -2.87524 2.95641 0
M  V30 10932 H 1028.26 -0.257031 0.612234 0
M  V30 10933 H 1030.79 -0.178755 2.03818 0
M  V30 10934 H 1030.8 -2.1758 3.45142 0
M  V30 10935 H 1029.47 -1.15927 3.99417 0
M  V30 10936 H 1028.05 -2.51023 2.75757 0
M  V30 10937 N 1030.24 -1.51135 -0.446768 0
M  V30 10938 C 1031.15 -1.74595 -1.56696 0
M  V30 10939 C 1032.16 -0.629816 -1.62201 0
M  V30 10940 O 1033.34 -0.910987 -1.79619 0
M  V30 10941 C 1030.4 -1.85738 -2.9275 0
M  V30 10942 C 1029.46 -3.09564 -2.97437 0
M  V30 10943 C 1028.7 -3.20165 -4.27001 0
M  V30 10944 O 1028.92 -2.36939 -5.1886 0
M  V30 10945 O 1027.85 -4.13077 -4.3778 0
M  V30 10946 H 1031.68 -2.69601 -1.39817 0
M  V30 10947 H 1029.26 -1.35523 -0.628805 0
M  V30 10948 H 1031.15 -1.95107 -3.73512 0
M  V30 10949 H 1029.82 -0.939184 -3.09776 0
M  V30 10950 H 1028.73 -3.05679 -2.15664 0
M  V30 10951 H 1030.06 -4.01041 -2.85353 0
M  V30 10952 N 1031.71 0.701592 -1.41122 0
M  V30 10953 C 1032.96 1.46245 -1.41364 0
M  V30 10954 C 1033.31 1.9239 -0.0200662 0
M  V30 10955 O 1032.61 1.6622 0.952971 0
M  V30 10956 C 1032.8 2.693 -2.34973 0
M  V30 10957 C 1032.63 2.35193 -3.83294 0
M  V30 10958 C 1031.4 2.2585 -4.52018 0
M  V30 10959 C 1033.6 1.98555 -4.74426 0
M  V30 10960 N 1031.58 1.84565 -5.85499 0
M  V30 10961 C 1032.95 1.67981 -5.9681 0
M  V30 10962 C 1035.01 1.85313 -4.62129 0
M  V30 10963 C 1033.71 1.25496 -7.08268 0
M  V30 10964 C 1035.74 1.44232 -5.73543 0
M  V30 10965 C 1035.1 1.14564 -6.95021 0
M  V30 10966 H 1031.2 0.532679 -0.572518 0
M  V30 10967 H 1033.78 0.812296 -1.76946 0
M  V30 10968 H 1031.95 3.32045 -2.01496 0
M  V30 10969 H 1033.68 3.35734 -2.25976 0
M  V30 10970 H 1030.44 2.4405 -4.05878 0
M  V30 10971 H 1030.86 1.66421 -6.56226 0
M  V30 10972 H 1035.5 2.06905 -3.68714 0
M  V30 10973 H 1033.22 1.02647 -8.01554 0
M  V30 10974 H 1036.81 1.34544 -5.66029 0
M  V30 10975 H 1035.69 0.832556 -7.79768 0
M  V30 10976 N 1033.19 1.2685 0.935242 0
M  V30 10977 C 1034.42 1.15645 1.72165 0
M  V30 10978 C 1034.84 -0.283909 1.85945 0
M  V30 10979 O 1034.2 -1.20567 1.354 0
M  V30 10980 C 1034.25 1.83689 3.10307 0
M  V30 10981 O 1033.35 1.12972 3.96625 0
M  V30 10982 H 1032.69 0.402629 0.528002 0
M  V30 10983 H 1035.22 1.67781 1.17093 0
M  V30 10984 H 1035.23 1.90749 3.60664 0
M  V30 10985 H 1033.91 2.88472 2.99595 0
M  V30 10986 H 1032.48 1.13929 3.5507 0
M  V30 10987 N 1034.67 -1.14067 1.0875 0
M  V30 10988 C 1035.58 -2.22871 0.732498 0
M  V30 10989 C 1036.6 -1.72008 -0.26253 0
M  V30 10990 O 1037.77 -2.01123 -0.105601 0
M  V30 10991 C 1034.84 -3.46371 0.150913 0
M  V30 10992 C 1033.9 -4.12158 1.201 0
M  V30 10993 C 1033.13 -5.29763 0.647075 0
M  V30 10994 O 1033.35 -5.67911 -0.532307 0
M  V30 10995 O 1032.29 -5.8542 1.3988 0
M  V30 10996 H 1036.11 -2.55596 1.64025 0
M  V30 10997 H 1033.7 -1.22065 0.861417 0
M  V30 10998 H 1035.58 -4.21055 -0.170442 0
M  V30 10999 H 1034.26 -3.15362 -0.729948 0
M  V30 11000 H 1033.16 -3.39332 1.57494 0
M  V30 11001 H 1034.5 -4.47282 2.05426 0
M  V30 11002 N 1036.15 -0.873678 -1.31166 0
M  V30 11003 C 1037.08 -0.348011 -2.30892 0
M  V30 11004 C 1038.06 0.563092 -1.60509 0
M  V30 11005 O 1039.24 0.479332 -1.88192 0
M  V30 11006 C 1036.37 0.448158 -3.44396 0
M  V30 11007 C 1035.33 -0.370179 -4.26396 0
M  V30 11008 C 1034.65 0.551903 -5.31844 0
M  V30 11009 C 1035.95 -1.60624 -4.96988 0
M  V30 11010 H 1037.65 -1.18134 -2.75109 0
M  V30 11011 H 1035.19 -0.569502 -1.3226 0
M  V30 11012 H 1037.15 0.826458 -4.13216 0
M  V30 11013 H 1035.87 1.31503 -2.98956 0
M  V30 11014 H 1034.53 -0.730472 -3.59249 0
M  V30 11015 H 1034.18 1.41616 -4.82653 0
M  V30 11016 H 1033.88 0.00823478 -5.87599 0
M  V30 11017 H 1035.4 0.926965 -6.03523 0
M  V30 11018 H 1036.82 -1.29917 -5.58386 0
M  V30 11019 H 1035.21 -2.08926 -5.62557 0
M  V30 11020 H 1036.28 -2.357 -4.23761 0
M  V30 11021 N 1037.63 1.44308 -0.633487 0
M  V30 11022 C 1038.56 2.28943 0.108474 0
M  V30 11023 C 1039.57 1.41415 0.806582 0
M  V30 11024 O 1040.76 1.65544 0.667634 0
M  V30 11025 C 1037.86 3.17845 1.1759 0
M  V30 11026 C 1037.03 4.33802 0.559842 0
M  V30 11027 C 1036.09 5.03722 1.52154 0
M  V30 11028 O 1035.12 5.5966 1.03776 0
M  V30 11029 N 1036.32 5.05392 2.85586 0
M  V30 11030 H 1039.09 2.93262 -0.617879 0
M  V30 11031 H 1036.65 1.54781 -0.474819 0
M  V30 11032 H 1038.64 3.61485 1.81963 0
M  V30 11033 H 1037.21 2.55261 1.80445 0
M  V30 11034 H 1036.43 3.93325 -0.262559 0
M  V30 11035 H 1037.72 5.08637 0.128942 0
M  V30 11036 H 1037.11 4.61282 3.27468 0
M  V30 11037 H 1035.67 5.52813 3.45313 0
M  V30 11038 N 1039.1 0.374177 1.53094 0
M  V30 11039 C 1040.33 -0.215903 2.06273 0
M  V30 11040 C 1040.75 -1.40979 1.24526 0
M  V30 11041 O 1040.11 -1.79331 0.266462 0
M  V30 11042 C 1040.16 -0.579089 3.5592 0
M  V30 11043 O 1039.26 -1.67516 3.76845 0
M  V30 11044 H 1038.61 -0.0293981 0.663349 0
M  V30 11045 H 1041.14 0.537271 1.9742 0
M  V30 11046 H 1041.15 -0.847678 3.99097 0
M  V30 11047 H 1039.82 0.293843 4.14861 0
M  V30 11048 H 1038.4 -1.40146 3.45563 0
M  V30 11049 N 1040.58 -1.57259 0.103575 0
M  V30 11050 C 1041.51 -2.1153 -0.882472 0
M  V30 11051 C 1042.53 -1.05446 -1.24036 0
M  V30 11052 O 1043.72 -1.32867 -1.192 0
M  V30 11053 C 1040.82 -2.58717 -2.18903 0
M  V30 11054 C 1039.99 -3.8873 -2.00519 0
M  V30 11055 C 1039.05 -4.21675 -3.14764 0
M  V30 11056 O 1038.07 -4.90755 -2.88355 0
M  V30 11057 N 1039.28 -3.77757 -4.40772 0
M  V30 11058 H 1042.04 -2.96758 -0.418901 0
M  V30 11059 H 1039.6 -1.61696 -0.0812921 0
M  V30 11060 H 1041.59 -2.77797 -2.94297 0
M  V30 11061 H 1040.16 -1.78454 -2.56657 0
M  V30 11062 H 1039.38 -3.78714 -1.09406 0
M  V30 11063 H 1040.67 -4.73771 -1.85522 0
M  V30 11064 H 1040.07 -3.22011 -4.65108 0
M  V30 11065 H 1038.63 -4.01975 -5.13088 0
M  V30 11066 N 1042.06 0.170153 -1.56679 0
M  V30 11067 C 1042.97 1.23057 -1.99735 0
M  V30 11068 C 1043.99 1.48374 -0.908912 0
M  V30 11069 O 1045.16 1.60499 -1.21663 0
M  V30 11070 C 1042.23 2.54944 -2.34956 0
M  V30 11071 C 1041.29 2.3748 -3.57634 0
M  V30 11072 C 1040.52 3.63078 -3.91165 0
M  V30 11073 O 1040.74 4.68304 -3.2565 0
M  V30 11074 O 1039.68 3.57119 -4.8451 0
M  V30 11075 H 1043.5 0.895104 -2.9021 0
M  V30 11076 H 1041.09 0.377109 -1.44562 0
M  V30 11077 H 1042.97 3.32742 -2.58574 0
M  V30 11078 H 1041.65 2.88068 -1.47643 0
M  V30 11079 H 1040.55 1.57709 -3.39232 0
M  V30 11080 H 1041.89 2.0928 -4.45491 0
M  V30 11081 N 1043.54 1.5137 0.438746 0
M  V30 11082 C 1044.95 1.39514 0.775116 0
M  V30 11083 C 1045.15 0.47638 1.95788 0
M  V30 11084 O 1044.21 -0.0689832 2.52406 0
M  V30 11085 C 1045.52 2.81517 1.05681 0
M  V30 11086 C 1047.07 2.90658 1.16133 0
M  V30 11087 C 1047.55 4.33566 1.47597 0
M  V30 11088 N 1049.04 4.36665 1.54524 0
M  V30 11089 C 1049.77 5.4427 1.80438 0
M  V30 11090 N 1049.27 6.62037 2.04154 0
M  V30 11091 N 1051.06 5.31749 1.82208 0
M  V30 11092 H 1043.21 2.09657 -0.340237 0
M  V30 11093 H 1045.48 0.943736 -0.0898115 0
M  V30 11094 H 1045.18 3.50734 0.260441 0
M  V30 11095 H 1045.06 3.20757 1.98481 0
M  V30 11096 H 1047.44 2.2164 1.94833 0
M  V30 11097 H 1047.52 2.54917 0.212376 0
M  V30 11098 H 1047.17 5.03133 0.694251 0
M  V30 11099 H 1047.1 4.66819 2.43696 0
M  V30 11100 H 1049.59 3.51761 1.38105 0
M  V30 11101 H 1049.9 7.39838 2.23293 0
M  V30 11102 H 1048.25 6.65155 2.01479 0
M  V30 11103 H 1051.44 4.3873 1.63198 0
M  V30 11104 H 1051.61 6.15689 2.02067 0
M  V30 11105 N 1045.02 -0.694098 1.41492 0
M  V30 11106 C 1046.24 -1.48789 1.44488 0
M  V30 11107 C 1046.67 -1.88028 0.0521588 0
M  V30 11108 O 1046.02 -1.54727 -0.944952 0
M  V30 11109 C 1046.07 -2.72586 2.3607 0
M  V30 11110 O 1045.18 -3.70128 1.81876 0
M  V30 11111 H 1044.52 -0.447758 0.490315 0
M  V30 11112 H 1047.05 -0.853036 1.85969 0
M  V30 11113 H 1047.06 -3.20877 2.51995 0
M  V30 11114 H 1045.73 -2.43363 3.37264 0
M  V30 11115 H 1044.31 -3.29069 1.75408 0
M  V30 11116 N 1046.49 -1.27344 -0.928501 0
M  V30 11117 C 1047.4 -1.11812 -2.06241 0
M  V30 11118 C 1048.42 -0.048347 -1.73933 0
M  V30 11119 O 1049.6 -0.25467 -1.99783 0
M  V30 11120 C 1046.66 -0.766036 -3.38131 0
M  V30 11121 C 1045.72 -1.91659 -3.84142 0
M  V30 11122 C 1044.96 -1.58121 -5.09738 0
M  V30 11123 O 1045.18 -0.488742 -5.68302 0
M  V30 11124 O 1044.11 -2.42013 -5.51102 0
M  V30 11125 H 1047.94 -2.06967 -2.22258 0
M  V30 11126 H 1045.52 -1.06524 -1.04752 0
M  V30 11127 H 1047.41 -0.582982 -4.17348 0
M  V30 11128 H 1046.08 0.155998 -3.23324 0
M  V30 11129 H 1044.99 -2.1547 -3.05816 0
M  V30 11130 H 1046.32 -2.8188 -4.0349 0
M  V30 11131 N 1047.97 1.13488 -1.09353 0
M  V30 11132 C 1048.9 2.18563 -0.69012 0
M  V30 11133 C 1049.92 1.60585 0.267651 0
M  V30 11134 O 1051.11 1.78419 0.0538176 0
M  V30 11135 C 1048.21 3.389 0.00391255 0
M  V30 11136 C 1047.38 4.2639 -0.975209 0
M  V30 11137 C 1046.44 5.25258 -0.314719 0
M  V30 11138 O 1045.46 5.6101 -0.962119 0
M  V30 11139 N 1046.67 5.72978 0.931458 0
M  V30 11140 H 1049.43 2.53788 -1.59411 0
M  V30 11141 H 1046.99 1.28803 -0.980886 0
M  V30 11142 H 1048.98 4.02112 0.45696 0
M  V30 11143 H 1047.55 3.0192 0.81014 0
M  V30 11144 H 1046.77 3.59964 -1.60684 0
M  V30 11145 H 1048.06 4.817 -1.63836 0
M  V30 11146 H 1047.46 5.46078 1.477 0
M  V30 11147 H 1046.02 6.38131 1.32784 0
M  V30 11148 N 1049.45 0.880621 1.30701 0
M  V30 11149 C 1050.4 0.342397 2.28246 0
M  V30 11150 C 1051.37 -0.565023 1.56194 0
M  V30 11151 O 1052.55 -0.494377 1.84284 0
M  V30 11152 C 1049.69 -0.440859 3.42272 0
M  V30 11153 C 1048.81 0.495284 4.29151 0
M  V30 11154 C 1047.94 -0.303141 5.30334 0
M  V30 11155 C 1046.98 0.628751 6.08862 0
M  V30 11156 N 1046.12 -0.13408 7.01972 0
M  V30 11157 H 1050.96 1.17938 2.73669 0
M  V30 11158 H 1048.49 0.59296 1.34619 0
M  V30 11159 H 1050.45 -0.910854 4.07135 0
M  V30 11160 H 1049.08 -1.24245 2.97931 0
M  V30 11161 H 1048.13 1.08376 3.64635 0
M  V30 11162 H 1049.45 1.2094 4.83916 0
M  V30 11163 H 1048.6 -0.835181 6.00924 0
M  V30 11164 H 1047.34 -1.05049 4.76252 0
M  V30 11165 H 1046.34 1.17246 5.37153 0
M  V30 11166 H 1047.57 1.37512 6.65032 0
M  V30 11167 H 1045.52 -0.864046 6.50285 0
M  V30 11168 H 1045.43 0.520486 7.54206 0
M  V30 11169 H 1046.7 -0.647005 7.7681 0
M  V30 11170 N 1050.93 -1.4397 0.641131 0
M  V30 11171 C 1051.88 -2.30728 -0.0577905 0
M  V30 11172 C 1052.85 -1.44059 -0.826819 0
M  V30 11173 O 1054.03 -1.72947 -0.805853 0
M  V30 11174 C 1051.17 -3.29478 -1.02657 0
M  V30 11175 C 1050.28 -4.31247 -0.254913 0
M  V30 11176 C 1049.42 -5.17085 -1.2164 0
M  V30 11177 C 1048.46 -6.10556 -0.434481 0
M  V30 11178 N 1047.6 -6.89059 -1.34694 0
M  V30 11179 H 1052.44 -2.8995 0.687953 0
M  V30 11180 H 1049.97 -1.4285 0.351029 0
M  V30 11181 H 1051.93 -3.85228 -1.60173 0
M  V30 11182 H 1050.56 -2.71932 -1.73933 0
M  V30 11183 H 1049.61 -3.77889 0.436338 0
M  V30 11184 H 1050.92 -4.97545 0.353642 0
M  V30 11185 H 1050.08 -5.77402 -1.86258 0
M  V30 11186 H 1048.82 -4.50885 -1.85888 0
M  V30 11187 H 1047.82 -5.49339 0.225125 0
M  V30 11188 H 1049.05 -6.78795 0.203415 0
M  V30 11189 H 1046.99 -6.25518 -1.97644 0
M  V30 11190 H 1046.91 -7.51833 -0.792657 0
M  V30 11191 H 1048.18 -7.5389 -1.98165 0
M  V30 11192 N 1052.41 -0.382291 -1.52893 0
M  V30 11193 C 1053.63 0.204961 -2.06385 0
M  V30 11194 C 1054.06 1.40316 -1.25271 0
M  V30 11195 O 1053.42 1.79187 -0.275969 0
M  V30 11196 C 1053.46 0.560205 -3.56222 0
M  V30 11197 O 1052.57 1.65515 -3.77728 0
M  V30 11198 H 1051.91 0.0258798 -0.663495 0
M  V30 11199 H 1054.44 -0.547733 -1.97132 0
M  V30 11200 H 1054.45 0.826501 -3.99541 0
M  V30 11201 H 1053.12 -0.31584 -4.14699 0
M  V30 11202 H 1051.7 1.38311 -3.46301 0
M  V30 11203 N 1053.89 1.57202 -0.111913 0
M  V30 11204 C 1054.8 2.18475 0.854753 0
M  V30 11205 C 1055.81 1.15888 1.29792 0
M  V30 11206 O 1056.99 1.48329 1.36237 0
M  V30 11207 C 1054.05 2.76645 2.0897 0
M  V30 11208 C 1053.11 3.94244 1.69913 0
M  V30 11209 C 1052.35 4.49631 2.8752 0
M  V30 11210 O 1052.57 4.03926 4.02741 0
M  V30 11211 O 1051.5 5.40417 2.65015 0
M  V30 11212 H 1055.33 3.01519 0.363352 0
M  V30 11213 H 1052.91 1.4897 0.113329 0
M  V30 11214 H 1054.8 3.13755 2.81311 0
M  V30 11215 H 1053.47 1.96637 2.5713 0
M  V30 11216 H 1052.38 3.61915 0.947013 0
M  V30 11217 H 1053.71 4.75666 1.26501 0
M  V30 11218 N 1055.36 -0.161842 1.56767 0
M  V30 11219 C 1056.61 -0.875192 1.82167 0
M  V30 11220 C 1056.93 -1.82367 0.690444 0
M  V30 11221 O 1056.2 -1.93756 -0.289023 0
M  V30 11222 H 1054.78 -0.326178 0.672024 0
M  V30 11223 H 1057.44 -0.159392 1.94247 0
M  V30 11224 H 1056.54 -1.44639 2.76561 0
M  V30 11225 N 1056.84 -1.516 -0.430713 0
M  V30 11226 C 1057.77 -1.76342 -1.53054 0
M  V30 11227 C 1058.75 -0.61349 -1.58652 0
M  V30 11228 O 1059.94 -0.856888 -1.74273 0
M  V30 11229 C 1057.07 -1.8945 -2.91077 0
M  V30 11230 C 1056.02 -3.04928 -3.00339 0
M  V30 11231 C 1055.35 -3.03228 -4.40405 0
M  V30 11232 C 1056.65 -4.44777 -2.73808 0
M  V30 11233 H 1058.34 -2.68435 -1.326 0
M  V30 11234 H 1055.89 -1.29171 -0.636466 0
M  V30 11235 H 1057.84 -2.05343 -3.67984 0
M  V30 11236 H 1056.56 -0.940114 -3.12777 0
M  V30 11237 H 1055.22 -2.88751 -2.25872 0
M  V30 11238 H 1054.87 -2.05553 -4.59083 0
M  V30 11239 H 1054.57 -3.80776 -4.47531 0
M  V30 11240 H 1056.1 -3.21222 -5.19277 0
M  V30 11241 H 1057.51 -4.6127 -3.40445 0
M  V30 11242 H 1055.91 -5.2408 -2.92335 0
M  V30 11243 H 1056.98 -4.54358 -1.69372 0
M  V30 11244 N 1058.32 0.686584 -1.41858 0
M  V30 11245 C 1059.57 1.44235 -1.40994 0
M  V30 11246 C 1059.88 1.95583 -0.0254979 0
M  V30 11247 O 1061.09 2.71294 0.10576 0
M  V30 11248 C 1059.54 2.6086 -2.47952 0
M  V30 11249 C 1059.15 2.16259 -3.92347 0
M  V30 11250 C 1060.9 3.38441 -2.56237 0
M  V30 11251 C 1058.8 3.29896 -4.90838 0
M  V30 11252 H 1057.73 0.54181 -0.524364 0
M  V30 11253 H 1060.38 0.744486 -1.67719 0
M  V30 11254 H 1058.77 3.32957 -2.14373 0
M  V30 11255 H 1059.94 1.51392 -4.35221 0
M  V30 11256 H 1058.25 1.51648 -3.87804 0
M  V30 11257 H 1060.85 4.23052 -3.27003 0
M  V30 11258 H 1061.19 3.84238 -1.6021 0
M  V30 11259 H 1061.73 2.73406 -2.88953 0
M  V30 11260 H 1058.47 2.89104 -5.88302 0
M  V30 11261 H 1057.99 3.93584 -4.52606 0
M  V30 11262 H 1059.67 3.95541 -5.12012 0
M  V30 11263 N 1059.8 1.27835 0.921735 0
M  V30 11264 C 1061.03 1.17352 1.704 0
M  V30 11265 C 1061.44 -0.268892 1.86875 0
M  V30 11266 O 1060.8 -1.18253 1.39005 0
M  V30 11267 C 1060.85 1.85889 3.10045 0
M  V30 11268 O 1060.57 3.24495 2.94338 0
M  V30 11269 C 1062.07 1.81607 4.04393 0
M  V30 11270 H 1059.29 0.40773 0.532914 0
M  V30 11271 H 1061.83 1.68815 1.15419 0
M  V30 11272 H 1059.99 1.38316 3.61867 0
M  V30 11273 H 1060.4 3.58705 3.82663 0
M  V30 11274 H 1061.88 2.34165 4.99871 0
M  V30 11275 H 1062.35 0.786697 4.32097 0
M  V30 11276 H 1062.96 2.28822 3.58498 0
M  V30 11277 N 1061.28 -1.12907 1.09954 0
M  V30 11278 C 1062.5 -1.88679 0.861099 0
M  V30 11279 C 1062.93 -1.78853 -0.582499 0
M  V30 11280 O 1062.28 -1.13992 -1.4098 0
M  V30 11281 C 1062.33 -3.36047 1.30785 0
M  V30 11282 O 1061.44 -4.09716 0.469728 0
M  V30 11283 H 1060.78 -0.586447 0.31141 0
M  V30 11284 H 1063.31 -1.42818 1.46507 0
M  V30 11285 H 1063.32 -3.86882 1.29562 0
M  V30 11286 H 1061.99 -3.42516 2.35914 0
M  V30 11287 H 1060.57 -3.6887 0.54674 0
M  V30 11288 N 1062.75 -0.88754 -1.30232 0
M  V30 11289 C 1063.66 -0.360333 -2.31816 0
M  V30 11290 C 1064.68 0.538741 -1.6545 0
M  V30 11291 O 1065.86 0.431246 -1.96729 0
M  V30 11292 C 1062.92 0.414336 -3.44215 0
M  V30 11293 C 1061.98 -0.514799 -4.26202 0
M  V30 11294 C 1061.21 0.222994 -5.33234 0
M  V30 11295 O 1061.44 1.44871 -5.51696 0
M  V30 11296 O 1060.37 -0.428221 -6.00375 0
M  V30 11297 H 1064.2 -1.20279 -2.78867 0
M  V30 11298 H 1061.78 -0.651459 -1.34448 0
M  V30 11299 H 1063.66 0.852859 -4.12679 0
M  V30 11300 H 1062.34 1.23305 -2.99295 0
M  V30 11301 H 1061.25 -1.00219 -3.60426 0
M  V30 11302 H 1062.58 -1.29959 -4.74733 0
M  V30 11303 N 1064.23 1.43628 -0.648757 0
M  V30 11304 C 1065.18 2.32529 0.057536 0
M  V30 11305 C 1066.17 1.48358 0.817699 0
M  V30 11306 O 1067.38 1.64595 0.728605 0
M  V30 11307 H 1063.76 0.75107 0.037388 0
M  V30 11308 H 1065.73 2.89829 -0.710062 0
M  V30 11309 C 1064.48 3.32605 1.01336 0
M  V30 11310 H 1063.8 3.97395 0.437855 0
M  V30 11311 H 1065.24 3.97453 1.47672 0
M  V30 11312 C 1063.7 2.62865 2.10722 0
M  V30 11313 O 1064.23 2.4408 3.19042 0
M  V30 11314 N 1062.43 2.22312 1.87152 0
M  V30 11315 H 1061.98 2.3779 0.990644 0
M  V30 11316 H 1061.94 1.75979 2.60536 0
M  V30 11317 N 1065.71 0.390394 1.52688 0
M  V30 11318 C 1066.62 -0.451543 2.30213 0
M  V30 11319 C 1067.64 -1.07051 1.37172 0
M  V30 11320 O 1068.81 -1.07609 1.70242 0
M  V30 11321 C 1065.88 -1.56299 3.0947 0
M  V30 11322 C 1064.94 -0.969017 4.18221 0
M  V30 11323 C 1064.17 -2.0275 4.93688 0
M  V30 11324 O 1064.39 -3.24273 4.69258 0
M  V30 11325 O 1063.33 -1.64418 5.79008 0
M  V30 11326 H 1067.15 0.180042 3.03166 0
M  V30 11327 H 1064.74 0.154082 1.48603 0
M  V30 11328 H 1066.62 -2.20864 3.58883 0
M  V30 11329 H 1065.3 -2.17952 2.3933 0
M  V30 11330 H 1064.2 -0.286587 3.73001 0
M  V30 11331 H 1065.54 -0.396687 4.90599 0
M  V30 11332 N 1067.19 -1.57141 0.120249 0
M  V30 11333 C 1068.14 -2.15379 -0.829497 0
M  V30 11334 C 1069.11 -1.07913 -1.2627 0
M  V30 11335 O 1070.29 -1.35827 -1.33999 0
M  V30 11336 C 1067.43 -2.75847 -2.0737 0
M  V30 11337 C 1066.54 -3.97624 -1.68875 0
M  V30 11338 C 1065.68 -4.46175 -2.88272 0
M  V30 11339 C 1064.72 -5.60481 -2.46023 0
M  V30 11340 N 1063.85 -6.0377 -3.58337 0
M  V30 11341 H 1068.69 -2.96211 -0.326031 0
M  V30 11342 H 1066.23 -1.46341 -0.149235 0
M  V30 11343 H 1068.19 -3.09037 -2.80272 0
M  V30 11344 H 1066.82 -1.97703 -2.55174 0
M  V30 11345 H 1065.87 -3.70588 -0.858431 0
M  V30 11346 H 1067.18 -4.80512 -1.33827 0
M  V30 11347 H 1066.34 -4.8128 -3.69397 0
M  V30 11348 H 1065.08 -3.6224 -3.26548 0
M  V30 11349 H 1064.08 -5.24979 -1.63331 0
M  V30 11350 H 1065.31 -6.46184 -2.08863 0
M  V30 11351 H 1063.25 -5.22776 -3.96284 0
M  V30 11352 H 1063.17 -6.81517 -3.27217 0
M  V30 11353 H 1064.44 -6.43514 -4.39898 0
M  V30 11354 N 1068.67 0.153526 -1.5685 0
M  V30 11355 C 1069.91 0.873522 -1.84794 0
M  V30 11356 C 1070.27 1.78642 -0.703648 0
M  V30 11357 O 1071.47 2.54537 -0.863972 0
M  V30 11358 C 1069.74 1.63316 -3.17904 0
M  V30 11359 S 1071.3 2.39948 -3.67383 0
M  V30 11360 H 1068.12 0.292233 -0.648167 0
M  V30 11361 H 1070.72 0.133949 -1.95041 0
M  V30 11362 H 1069.43 0.95387 -3.99161 0
M  V30 11363 H 1068.96 2.41377 -3.10646 0
M  V30 11364 H 1070.97 3.65011 -3.36127 0
M  V30 11365 N 1070.14 1.51827 0.422667 0
M  V30 11366 C 1071.42 1.55772 1.18299 0
M  V30 11367 C 1071.8 0.330657 2.08494 0
M  V30 11368 O 1071.15 -0.683373 2.18042 0
M  V30 11369 C 1071.36 2.87941 1.97208 0
M  V30 11370 C 1072.71 3.4044 2.53744 0
M  V30 11371 O 1073.73 2.8959 2.07403 0
M  V30 11372 O 1072.59 4.29201 3.38303 0
M  V30 11373 H 1069.68 0.626889 0.539388 0
M  V30 11374 H 1072.23 1.64147 0.430545 0
M  V30 11375 H 1071 3.68702 1.31052 0
M  V30 11376 H 1070.63 2.82795 2.79486 0
M  V30 11377 N 1071.62 -0.679052 1.4222 0
M  V30 11378 C 1072.57 -1.78522 1.41824 0
M  V30 11379 C 1073.56 -1.58262 0.290179 0
M  V30 11380 O 1074.75 -1.68813 0.532092 0
M  V30 11381 C 1071.88 -3.16952 1.31895 0
M  V30 11382 C 1070.96 -3.42849 2.4963 0
M  V30 11383 N 1071.35 -3.39354 3.75063 0
M  V30 11384 C 1069.65 -3.73468 2.43799 0
M  V30 11385 C 1070.35 -3.64617 4.53243 0
M  V30 11386 N 1069.33 -3.85174 3.83591 0
M  V30 11387 H 1073.13 -1.74206 2.36705 0
M  V30 11388 H 1070.65 -0.879719 1.36509 0
M  V30 11389 H 1072.64 -3.96214 1.29693 0
M  V30 11390 H 1071.3 -3.22467 0.380127 0
M  V30 11391 H 1072.31 -3.19354 4.07718 0
M  V30 11392 H 1068.99 -3.86254 1.58474 0
M  V30 11393 H 1070.38 -3.67912 5.62219 0
M  V30 11394 N 1073.1 -1.28322 -0.914942 0
M  V30 11395 C 1074.51 -1.13937 -1.47903 0
M  V30 11396 C 1074.86 0.271072 -1.94318 0
M  V30 11397 O 1073.99 1.16522 -1.8235 0
M  V30 11398 C 1074.58 -2.06221 -2.68809 0
M  V30 11399 C 1073.14 -1.95903 -3.21402 0
M  V30 11400 C 1072.29 -1.98031 -1.94111 0
M  V30 11401 H 1075.24 -1.41029 -0.727772 0
M  V30 11402 H 1075.26 -1.6255 -3.44031 0
M  V30 11403 H 1074.77 -3.08866 -2.34997 0
M  V30 11404 H 1072.87 -0.962907 -3.59943 0
M  V30 11405 H 1072.99 -2.82799 -3.86732 0
M  V30 11406 H 1071.35 -1.42423 -2.11158 0
M  V30 11407 H 1072.13 -3.02354 -1.62595 0
M  V30 11408 N 1074.58 1.12322 -1.10551 0
M  V30 11409 C 1075.54 2.16273 -0.758844 0
M  V30 11410 C 1076.54 1.59325 0.217294 0
M  V30 11411 O 1077.73 1.74199 -0.00601346 0
M  V30 11412 C 1074.86 3.40674 -0.124238 0
M  V30 11413 H 1076.06 2.48454 -1.6796 0
M  V30 11414 H 1073.61 1.2735 -0.906188 0
M  V30 11415 H 1074.34 3.14094 0.807194 0
M  V30 11416 H 1074.13 3.83284 -0.826772 0
M  V30 11417 H 1075.62 4.17474 0.102502 0
M  V30 11418 N 1076.06 0.894434 1.2976 0
M  V30 11419 C 1077.3 0.516646 1.95385 0
M  V30 11420 C 1077.63 -0.939141 1.70895 0
M  V30 11421 O 1076.9 -1.66153 1.03778 0
M  V30 11422 H 1075.48 0.188072 0.722937 0
M  V30 11423 H 1078.14 1.13958 1.58113 0
M  V30 11424 H 1077.23 0.694819 3.04267 0
M  V30 11425 N 1077.53 -1.43282 0.656365 0
M  V30 11426 C 1078.78 -2.01378 0.170702 0
M  V30 11427 C 1079.1 -1.52063 -1.22073 0
M  V30 11428 O 1078.37 -0.73456 -1.81607 0
M  V30 11429 H 1076.95 -0.744577 0.0601168 0
M  V30 11430 H 1079.62 -1.75449 0.848739 0
M  V30 11431 H 1078.71 -3.11701 0.157745 0
M  V30 11432 N 1079.01 -0.398486 -1.52479 0
M  V30 11433 C 1080.26 0.182046 -2.00877 0
M  V30 11434 C 1080.58 1.47128 -1.2889 0
M  V30 11435 O 1081.78 2.13242 -1.68048 0
M  V30 11436 C 1080.24 0.374978 -3.57941 0
M  V30 11437 C 1079.85 -0.901544 -4.38835 0
M  V30 11438 C 1081.59 0.911378 -4.14601 0
M  V30 11439 C 1079.5 -0.676385 -5.87519 0
M  V30 11440 H 1078.43 0.0718068 -0.750573 0
M  V30 11441 H 1081.08 -0.522297 -1.7591 0
M  V30 11442 H 1079.46 1.14139 -3.79194 0
M  V30 11443 H 1080.63 -1.67329 -4.29346 0
M  V30 11444 H 1078.95 -1.36357 -3.93441 0
M  V30 11445 H 1081.55 1.09569 -5.23353 0
M  V30 11446 H 1081.89 1.88306 -3.71277 0
M  V30 11447 H 1082.42 0.204296 -3.97275 0
M  V30 11448 H 1079.16 -1.61933 -6.35184 0
M  V30 11449 H 1078.68 0.0562542 -5.99774 0
M  V30 11450 H 1080.36 -0.314454 -6.46235 0
M  V30 11451 N 1080.49 1.57075 -0.12858 0
M  V30 11452 C 1081.44 2.12379 0.829418 0
M  V30 11453 C 1082.43 1.04694 1.2218 0
M  V30 11454 O 1083.62 1.30909 1.1913 0
M  V30 11455 C 1080.75 2.73436 2.07575 0
M  V30 11456 C 1079.83 3.88217 1.7073 0
M  V30 11457 N 1080.22 4.94864 1.04609 0
M  V30 11458 C 1078.52 3.9858 2.00125 0
M  V30 11459 C 1079.22 5.7514 0.871137 0
M  V30 11460 N 1078.2 5.25284 1.39918 0
M  V30 11461 H 1082 2.92209 0.314816 0
M  V30 11462 H 1079.51 1.62233 0.0735788 0
M  V30 11463 H 1081.51 3.11406 2.77185 0
M  V30 11464 H 1080.17 1.95073 2.5957 0
M  V30 11465 H 1081.18 5.13025 0.708961 0
M  V30 11466 H 1077.86 3.3127 2.541 0
M  V30 11467 H 1079.25 6.7098 0.351395 0
M  V30 11468 N 1081.97 -0.145205 1.5693 0
M  V30 11469 C 1083.2 -0.871133 1.87336 0
M  V30 11470 C 1083.61 -1.7517 0.714992 0
M  V30 11471 O 1082.95 -1.80815 -0.324304 0
M  V30 11472 C 1083.01 -1.77775 3.12468 0
M  V30 11473 C 1082.68 -1.07416 4.44197 0
M  V30 11474 C 1083.67 -0.42722 5.18142 0
M  V30 11475 C 1081.36 -1.06313 4.9092 0
M  V30 11476 C 1083.35 0.221348 6.37016 0
M  V30 11477 C 1081.04 -0.410755 6.09718 0
M  V30 11478 C 1082.04 0.230357 6.82611 0
M  V30 11479 O 1081.73 0.872389 7.99152 0
M  V30 11480 H 1081.46 -0.257174 0.62517 0
M  V30 11481 H 1084.01 -0.142159 2.04907 0
M  V30 11482 H 1082.24 -2.54771 2.9091 0
M  V30 11483 H 1083.93 -2.37579 3.29107 0
M  V30 11484 H 1084.7 -0.427536 4.83112 0
M  V30 11485 H 1080.58 -1.55156 4.34105 0
M  V30 11486 H 1084.12 0.722349 6.9385 0
M  V30 11487 H 1080.02 -0.408112 6.44209 0
M  V30 11488 H 1080.78 0.774236 8.1483 0
M  V30 11489 N 1083.45 -1.52049 -0.414609 0
M  V30 11490 C 1084.36 -1.7788 -1.52958 0
M  V30 11491 C 1085.37 -0.66408 -1.60829 0
M  V30 11492 O 1086.55 -0.948882 -1.77646 0
M  V30 11493 C 1083.61 -1.91906 -2.88744 0
M  V30 11494 C 1082.68 -3.15803 -2.90804 0
M  V30 11495 C 1081.91 -3.29151 -4.20114 0
M  V30 11496 O 1082.13 -2.47892 -5.13718 0
M  V30 11497 O 1081.07 -4.2227 -4.28919 0
M  V30 11498 H 1084.89 -2.72506 -1.34067 0
M  V30 11499 H 1082.48 -1.36826 -0.599918 0
M  V30 11500 H 1084.36 -2.02986 -3.6929 0
M  V30 11501 H 1083.03 -1.00468 -3.07714 0
M  V30 11502 H 1081.94 -3.10185 -2.09131 0
M  V30 11503 H 1083.27 -4.07004 -2.76783 0
M  V30 11504 N 1084.93 0.6715 -1.42579 0
M  V30 11505 C 1085.86 1.79625 -1.40749 0
M  V30 11506 C 1086.84 1.6032 -0.271312 0
M  V30 11507 O 1088.02 1.82749 -0.46205 0
M  V30 11508 C 1085.15 3.16672 -1.20153 0
M  V30 11509 C 1084.19 3.54718 -2.36807 0
M  V30 11510 S 1085.03 3.56771 -3.99343 0
M  V30 11511 C 1086.18 4.96505 -3.81095 0
M  V30 11512 H 1086.42 1.80903 -2.35926 0
M  V30 11513 H 1083.95 0.842469 -1.2939 0
M  V30 11514 H 1085.91 3.95776 -1.08956 0
M  V30 11515 H 1084.57 3.12976 -0.265545 0
M  V30 11516 H 1083.76 4.54341 -2.18152 0
M  V30 11517 H 1083.36 2.82982 -2.44535 0
M  V30 11518 H 1085.65 5.84674 -3.4229 0
M  V30 11519 H 1086.6 5.20207 -4.80406 0
M  V30 11520 H 1087.01 4.69178 -3.13898 0
M  V30 11521 N 1086.4 1.28806 0.908124 0
M  V30 11522 C 1087.64 1.17546 1.67219 0
M  V30 11523 C 1088.01 -0.270396 1.90086 0
M  V30 11524 O 1089.21 -0.505808 2.63998 0
M  V30 11525 C 1087.48 1.95774 2.99011 0
M  V30 11526 S 1089.04 2.00953 3.90081 0
M  V30 11527 H 1085.86 0.419283 0.574215 0
M  V30 11528 H 1088.46 1.6298 1.07971 0
M  V30 11529 H 1087.16 2.99978 2.80074 0
M  V30 11530 H 1086.69 1.50911 3.63303 0
M  V30 11531 H 1088.71 1.1201 4.83392 0
M  V30 11532 N 1087.88 -1.11734 1.11145 0
M  V30 11533 C 1089.13 -1.82766 0.853194 0
M  V30 11534 C 1089.44 -1.85408 -0.623168 0
M  V30 11535 O 1090.65 -2.52509 -0.997574 0
M  V30 11536 C 1089.11 -3.28215 1.47658 0
M  V30 11537 C 1088.71 -3.33911 2.98676 0
M  V30 11538 C 1090.46 -4.04168 1.29803 0
M  V30 11539 C 1088.36 -4.73739 3.54013 0
M  V30 11540 H 1087.29 -0.684807 0.315523 0
M  V30 11541 H 1089.95 -1.25756 1.33633 0
M  V30 11542 H 1088.33 -3.85138 0.921116 0
M  V30 11543 H 1089.5 -2.86887 3.606 0
M  V30 11544 H 1087.82 -2.71437 3.15771 0
M  V30 11545 H 1090.41 -5.07429 1.68582 0
M  V30 11546 H 1090.76 -4.15606 0.240302 0
M  V30 11547 H 1091.29 -3.53623 1.82196 0
M  V30 11548 H 1088.03 -4.67497 4.59485 0
M  V30 11549 H 1087.55 -5.21186 2.9686 0
M  V30 11550 H 1089.23 -5.42691 3.52271 0
M  V30 11551 N 1089.36 -0.901303 -1.29284 0
M  V30 11552 C 1090.27 -0.3849 -2.31421 0
M  V30 11553 C 1091.29 0.521163 -1.66012 0
M  V30 11554 O 1092.46 0.410356 -1.97175 0
M  V30 11555 C 1089.53 0.377804 -3.44635 0
M  V30 11556 C 1088.59 -0.559974 -4.25632 0
M  V30 11557 C 1087.82 0.166425 -5.3344 0
M  V30 11558 O 1088.04 1.39012 -5.53202 0
M  V30 11559 O 1086.98 -0.491875 -5.99887 0
M  V30 11560 H 1090.8 -1.2323 -2.77575 0
M  V30 11561 H 1088.39 -0.665683 -1.3375 0
M  V30 11562 H 1090.27 0.809041 -4.13561 0
M  V30 11563 H 1088.95 1.20124 -3.00586 0
M  V30 11564 H 1087.85 -1.04036 -3.59343 0
M  V30 11565 H 1089.19 -1.34987 -4.73328 0
M  V30 11566 N 1090.84 1.42931 -0.663954 0
M  V30 11567 C 1092.08 2.03557 -0.185479 0
M  V30 11568 C 1092.44 1.51309 1.18193 0
M  V30 11569 O 1093.64 2.03649 1.75444 0
M  V30 11570 C 1091.91 3.56802 -0.206705 0
M  V30 11571 S 1093.47 4.38333 0.202356 0
M  V30 11572 H 1090.29 0.706791 -0.0772523 0
M  V30 11573 H 1092.89 1.74841 -0.874688 0
M  V30 11574 H 1091.6 3.92328 -1.20445 0
M  V30 11575 H 1091.13 3.90175 0.502693 0
M  V30 11576 H 1093.14 4.7489 1.43853 0
M  V30 11577 N 1092.32 0.406567 1.52266 0
M  V30 11578 C 1093.73 -0.063607 1.86592 0
M  V30 11579 C 1094.08 -1.4466 1.32544 0
M  V30 11580 O 1093.2 -2.05971 0.663692 0
M  V30 11581 C 1093.8 -0.122198 3.3858 0
M  V30 11582 C 1092.36 -0.536701 3.72554 0
M  V30 11583 C 1091.5 0.290422 2.75775 0
M  V30 11584 H 1094.45 0.623738 1.45929 0
M  V30 11585 H 1094.48 -0.937964 3.68758 0
M  V30 11586 H 1093.99 0.884495 3.77887 0
M  V30 11587 H 1092.09 -1.55013 3.38824 0
M  V30 11588 H 1092.2 -0.282867 4.78264 0
M  V30 11589 H 1090.57 -0.246864 2.53501 0
M  V30 11590 H 1091.35 1.29541 3.17921 0
M  V30 11591 N 1093.79 -1.57004 0.136909 0
M  V30 11592 C 1095.21 -1.82675 -0.385577 0
M  V30 11593 C 1095.56 -1.05508 -1.65416 0
M  V30 11594 O 1094.68 -0.297207 -2.14349 0
M  V30 11595 C 1095.28 -3.31356 -0.706326 0
M  V30 11596 C 1093.84 -3.57644 -1.17337 0
M  V30 11597 C 1092.98 -2.7664 -0.191239 0
M  V30 11598 H 1095.93 -1.54522 0.36177 0
M  V30 11599 H 1095.95 -3.4696 -1.56201 0
M  V30 11600 H 1095.47 -3.87492 0.217147 0
M  V30 11601 H 1093.57 -3.06883 -2.11313 0
M  V30 11602 H 1093.68 -4.66152 -1.10632 0
M  V30 11603 H 1092.04 -2.45403 -0.681867 0
M  V30 11604 H 1092.83 -3.35543 0.725647 0
M  V30 11605 N 1095.27 0.136881 -1.57004 0
M  V30 11606 C 1096.5 0.862436 -1.88068 0
M  V30 11607 C 1096.92 1.74274 -0.726227 0
M  V30 11608 O 1096.27 1.79956 0.30366 0
M  V30 11609 C 1096.32 1.71076 -3.18458 0
M  V30 11610 O 1096.04 0.865918 -4.29457 0
M  V30 11611 C 1097.55 2.54302 -3.63105 0
M  V30 11612 H 1094.77 0.248865 -0.623143 0
M  V30 11613 H 1097.31 0.126633 -2.04108 0
M  V30 11614 H 1095.46 2.39951 -3.04142 0
M  V30 11615 H 1095.88 1.4493 -5.04079 0
M  V30 11616 H 1097.35 3.09384 -4.57149 0
M  V30 11617 H 1097.83 3.3082 -2.88886 0
M  V30 11618 H 1098.44 1.907 -3.80149 0
M  V30 11619 N 1096.75 1.52266 0.40654 0
M  V30 11620 C 1098 1.66452 1.15325 0
M  V30 11621 C 1098.33 0.395728 1.90432 0
M  V30 11622 O 1097.58 -0.621382 1.85573 0
M  V30 11623 C 1097.88 2.8389 2.1712 0
M  V30 11624 C 1097.55 4.22011 1.58801 0
M  V30 11625 C 1096.21 4.59579 1.42621 0
M  V30 11626 C 1098.56 5.08074 1.16236 0
M  V30 11627 C 1095.89 5.80885 0.823967 0
M  V30 11628 C 1098.24 6.29988 0.574284 0
M  V30 11629 C 1096.9 6.66303 0.399638 0
M  V30 11630 H 1096.17 0.609092 0.422005 0
M  V30 11631 H 1098.82 1.86374 0.440131 0
M  V30 11632 H 1097.13 2.58314 2.94586 0
M  V30 11633 H 1098.82 2.92063 2.74774 0
M  V30 11634 H 1095.41 3.92408 1.72378 0
M  V30 11635 H 1099.6 4.79631 1.27544 0
M  V30 11636 H 1094.85 6.07644 0.676694 0
M  V30 11637 H 1099.03 6.96 0.236081 0
M  V30 11638 H 1096.65 7.60169 -0.0691262 0
M  V30 11639 N 1098.23 -0.663929 1.42933 0
M  V30 11640 C 1099.45 -1.45691 1.47611 0
M  V30 11641 C 1099.88 -1.87875 0.0920305 0
M  V30 11642 O 1099.24 -1.56696 -0.91192 0
M  V30 11643 C 1099.28 -2.67517 2.41799 0
M  V30 11644 O 1098.39 -3.66187 1.89686 0
M  V30 11645 H 1097.73 -0.437257 0.499702 0
M  V30 11646 H 1100.26 -0.813397 1.87737 0
M  V30 11647 H 1100.27 -3.1546 2.58745 0
M  V30 11648 H 1098.94 -2.36155 3.4235 0
M  V30 11649 H 1097.52 -3.25274 1.82349 0
M  V30 11650 N 1099.71 -1.29285 -0.901281 0
M  V30 11651 C 1100.98 -1.07847 -1.63182 0
M  V30 11652 C 1101.36 0.377927 -2.07689 0
M  V30 11653 O 1100.71 1.36642 -1.83143 0
M  V30 11654 C 1100.92 -2.06457 -2.81383 0
M  V30 11655 C 1102.27 -2.37289 -3.52107 0
M  V30 11656 O 1103.29 -2.0464 -2.91549 0
M  V30 11657 O 1102.15 -2.93067 -4.61274 0
M  V30 11658 H 1099.25 -0.413073 -0.71645 0
M  V30 11659 H 1101.79 -1.40651 -0.949488 0
M  V30 11660 H 1100.56 -3.04561 -2.4568 0
M  V30 11661 H 1100.19 -1.74374 -3.57323 0
M  V30 11662 N 1101.18 1.11143 -1.11736 0
M  V30 11663 C 1102.13 2.17274 -0.778513 0
M  V30 11664 C 1103.1 1.64186 0.251405 0
M  V30 11665 O 1104.29 1.90373 0.127629 0
M  V30 11666 C 1101.43 3.44324 -0.231246 0
M  V30 11667 C 1100.54 4.114 -1.31809 0
M  V30 11668 C 1099.67 5.26146 -0.73104 0
M  V30 11669 C 1098.71 5.85112 -1.79752 0
M  V30 11670 N 1097.85 6.91247 -1.22973 0
M  V30 11671 H 1102.69 2.45603 -1.68769 0
M  V30 11672 H 1100.23 1.20565 -0.842759 0
M  V30 11673 H 1102.19 4.1707 0.104045 0
M  V30 11674 H 1100.82 3.16369 0.641119 0
M  V30 11675 H 1099.87 3.36697 -1.77029 0
M  V30 11676 H 1101.18 4.51278 -2.12485 0
M  V30 11677 H 1100.33 6.05713 -0.345987 0
M  V30 11678 H 1099.07 4.87583 0.107 0
M  V30 11679 H 1098.08 5.0422 -2.19185 0
M  V30 11680 H 1099.3 6.25741 -2.63865 0
M  V30 11681 H 1097.25 6.54696 -0.41339 0
M  V30 11682 H 1097.17 7.29796 -1.97316 0
M  V30 11683 H 1098.43 7.74611 -0.87167 0
M  V30 11684 N 1102.66 0.908147 1.28804 0
M  V30 11685 C 1104.08 0.605474 1.47669 0
M  V30 11686 C 1104.28 -0.850759 1.82659 0
M  V30 11687 O 1103.33 -1.63029 1.92816 0
M  V30 11688 C 1104.65 1.53856 2.58358 0
M  V30 11689 C 1106.2 1.54467 2.7223 0
M  V30 11690 C 1106.67 2.46424 3.86056 0
M  V30 11691 N 1108.16 2.44519 3.93402 0
M  V30 11692 C 1108.9 3.12371 4.80845 0
M  V30 11693 N 1108.39 3.89533 5.72919 0
M  V30 11694 N 1110.19 3.01486 4.74407 0
M  V30 11695 H 1102.34 1.84988 1.04371 0
M  V30 11696 H 1104.6 0.793132 0.519274 0
M  V30 11697 H 1104.31 2.57651 2.39393 0
M  V30 11698 H 1104.18 1.26543 3.5534 0
M  V30 11699 H 1106.57 0.514127 2.90587 0
M  V30 11700 H 1106.65 1.85821 1.75796 0
M  V30 11701 H 1106.29 3.49577 3.68454 0
M  V30 11702 H 1106.22 2.12375 4.81876 0
M  V30 11703 H 1108.71 1.88464 3.27551 0
M  V30 11704 H 1109.03 4.3834 6.36457 0
M  V30 11705 H 1107.37 3.93639 5.72777 0
M  V30 11706 H 1110.56 2.40713 4.01466 0
M  V30 11707 H 1110.73 3.5464 5.42342 0
M  V30 11708 N 1104.14 -1.42577 0.671525 0
M  V30 11709 C 1105.05 -2.34598 -0.00898225 0
M  V30 11710 C 1106.07 -1.54909 -0.792407 0
M  V30 11711 O 1107.24 -1.87491 -0.735477 0
M  V30 11712 C 1104.31 -3.33405 -0.950888 0
M  V30 11713 C 1103.37 -4.28993 -0.16236 0
M  V30 11714 C 1102.6 -5.2308 -1.0594 0
M  V30 11715 O 1102.82 -5.22022 -2.2989 0
M  V30 11716 O 1101.76 -5.99632 -0.521966 0
M  V30 11717 H 1105.58 -2.94321 0.748927 0
M  V30 11718 H 1103.17 -1.43025 0.43175 0
M  V30 11719 H 1105.05 -3.94115 -1.49169 0
M  V30 11720 H 1103.73 -2.7616 -1.68871 0
M  V30 11721 H 1102.63 -3.71707 0.42247 0
M  V30 11722 H 1103.97 -4.8927 0.536274 0
M  V30 11723 N 1105.62 -0.414636 -1.52048 0
M  V30 11724 C 1106.55 0.443601 -2.24866 0
M  V30 11725 C 1107.56 1.00556 -1.28032 0
M  V30 11726 O 1108.75 0.903566 -1.53941 0
M  V30 11727 C 1105.85 1.63004 -2.97124 0
M  V30 11728 C 1105.03 1.191 -4.20873 0
M  V30 11729 C 1104.08 2.24497 -4.75907 0
M  V30 11730 O 1103.11 1.84861 -5.38345 0
M  V30 11731 N 1104.31 3.56727 -4.57959 0
M  V30 11732 H 1107.08 -0.180393 -2.99157 0
M  V30 11733 H 1104.64 -0.242305 -1.60077 0
M  V30 11734 H 1106.63 2.33089 -3.30835 0
M  V30 11735 H 1105.2 2.15984 -2.25986 0
M  V30 11736 H 1104.42 0.318059 -3.92915 0
M  V30 11737 H 1105.71 0.874699 -5.01225 0
M  V30 11738 H 1105.11 3.91675 -4.08175 0
M  V30 11739 H 1103.66 4.22772 -4.96092 0
M  V30 11740 N 1107.1 1.56929 -0.145233 0
M  V30 11741 C 1108.35 1.95243 0.506273 0
M  V30 11742 C 1108.66 1.0325 1.66129 0
M  V30 11743 O 1109.86 1.31135 2.37731 0
M  V30 11744 C 1108.32 3.47079 0.952042 0
M  V30 11745 C 1107.93 4.47654 -0.175947 0
M  V30 11746 C 1109.67 3.94263 1.57344 0
M  V30 11747 C 1107.58 5.90698 0.287993 0
M  V30 11748 H 1106.51 0.728906 0.192903 0
M  V30 11749 H 1109.16 1.82062 -0.229295 0
M  V30 11750 H 1107.54 3.55587 1.74282 0
M  V30 11751 H 1108.72 4.50841 -0.952848 0
M  V30 11752 H 1107.03 4.10377 -0.70564 0
M  V30 11753 H 1109.63 4.9857 1.93214 0
M  V30 11754 H 1109.97 3.35714 2.46174 0
M  V30 11755 H 1110.5 3.88665 0.847593 0
M  V30 11756 H 1107.24 6.53061 -0.564889 0
M  V30 11757 H 1106.76 5.90876 1.03081 0
M  V30 11758 H 1108.44 6.42747 0.740586 0
M  V30 11759 N 1108.58 -0.128553 1.57075 0
M  V30 11760 C 1109.8 -0.8564 1.88893 0
M  V30 11761 C 1110.23 -1.73095 0.736196 0
M  V30 11762 O 1109.58 -1.78567 -0.313629 0
M  V30 11763 C 1109.63 -1.67368 3.19406 0
M  V30 11764 O 1108.74 -2.77973 3.04639 0
M  V30 11765 H 1108.08 -0.237424 0.620102 0
M  V30 11766 H 1110.61 -0.113821 2.04283 0
M  V30 11767 H 1110.62 -2.0649 3.51889 0
M  V30 11768 H 1109.29 -1.03161 4.02903 0
M  V30 11769 H 1107.87 -2.42123 2.83603 0
M  V30 11770 N 1110.05 -1.5248 -0.398459 0
M  V30 11771 C 1110.96 -1.79492 -1.51062 0
M  V30 11772 C 1111.98 -0.681101 -1.60116 0
M  V30 11773 O 1113.16 -0.967671 -1.7663 0
M  V30 11774 C 1110.22 -1.94958 -2.86692 0
M  V30 11775 C 1109.28 -3.1887 -2.87438 0
M  V30 11776 C 1108.51 -3.33588 -4.16599 0
M  V30 11777 O 1108.74 -2.53327 -5.11059 0
M  V30 11778 O 1107.67 -4.26795 -4.24416 0
M  V30 11779 H 1111.5 -2.73913 -1.31169 0
M  V30 11780 H 1109.08 -1.37455 -0.585372 0
M  V30 11781 H 1110.96 -2.06891 -3.67116 0
M  V30 11782 H 1109.64 -1.03726 -3.06631 0
M  V30 11783 H 1108.55 -3.12386 -2.0583 0
M  V30 11784 H 1109.88 -4.09917 -2.7245 0
M  V30 11785 N 1111.53 0.65634 -1.43283 0
M  V30 11786 C 1112.48 1.79058 -1.48462 0
M  V30 11787 C 1113.47 1.65563 -0.358512 0
M  V30 11788 O 1114.68 1.71947 -0.532365 0
M  V30 11789 H 1111.05 0.590716 -0.465358 0
M  V30 11790 H 1113.03 1.7181 -2.43975 0
M  V30 11791 C 1111.77 3.17304 -1.42175 0
M  V30 11792 H 1111.1 3.28324 -2.2813 0
M  V30 11793 H 1112.54 3.96633 -1.4986 0
M  V30 11794 C 1111 3.36613 -0.138929 0
M  V30 11795 O 1111.53 3.93633 0.80101 0
M  V30 11796 N 1109.73 2.90557 -0.0501237 0
M  V30 11797 H 1109.28 2.4434 -0.815821 0
M  V30 11798 H 1109.24 3.03853 0.807504 0
M  V30 11799 N 1113.01 1.29761 0.894412 0
M  V30 11800 C 1114.42 1.16275 1.46072 0
M  V30 11801 C 1114.77 -0.240123 1.94725 0
M  V30 11802 O 1113.9 -1.13606 1.84181 0
M  V30 11803 C 1114.49 2.10471 2.65494 0
M  V30 11804 C 1113.05 2.00992 3.18244 0
M  V30 11805 C 1112.2 2.01094 1.90936 0
M  V30 11806 H 1115.15 1.42169 0.705243 0
M  V30 11807 H 1115.17 1.68003 3.41402 0
M  V30 11808 H 1114.68 3.12566 2.30053 0
M  V30 11809 H 1112.78 1.02005 3.58365 0
M  V30 11810 H 1112.9 2.88916 3.82184 0
M  V30 11811 H 1111.26 1.45764 2.08866 0
M  V30 11812 H 1112.04 3.04902 1.57764 0
M  V30 11813 N 1114.49 -1.10549 1.12324 0
M  V30 11814 C 1115.72 -1.8627 0.900618 0
M  V30 11815 C 1116.13 -1.80609 -0.550069 0
M  V30 11816 O 1115.49 -1.19396 -1.38025 0
M  V30 11817 C 1115.54 -3.34716 1.36556 0
M  V30 11818 O 1115.26 -3.40279 2.75938 0
M  V30 11819 C 1116.76 -4.27315 1.17969 0
M  V30 11820 H 1113.98 -0.588741 0.321908 0
M  V30 11821 H 1116.52 -1.39759 1.49291 0
M  V30 11822 H 1114.68 -3.78697 0.81652 0
M  V30 11823 H 1115.09 -4.32781 2.96312 0
M  V30 11824 H 1116.57 -5.29677 1.55391 0
M  V30 11825 H 1117.04 -4.39036 0.120158 0
M  V30 11826 H 1117.65 -3.89137 1.71617 0
M  V30 11827 N 1115.97 -0.914965 -1.28321 0
M  V30 11828 C 1116.88 -0.409424 -2.31 0
M  V30 11829 C 1117.89 0.503526 -1.66555 0
M  V30 11830 O 1119.07 0.38942 -1.97599 0
M  V30 11831 C 1116.13 0.34123 -3.45017 0
M  V30 11832 C 1115.19 -0.605087 -4.25014 0
M  V30 11833 C 1114.43 0.109837 -5.33587 0
M  V30 11834 O 1114.65 1.33136 -5.54645 0
M  V30 11835 O 1113.58 -0.555474 -5.99331 0
M  V30 11836 H 1117.41 -1.26167 -2.76253 0
M  V30 11837 H 1114.99 -0.679831 -1.33036 0
M  V30 11838 H 1116.88 0.765132 -4.14396 0
M  V30 11839 H 1115.55 1.16929 -3.01843 0
M  V30 11840 H 1114.46 -1.07841 -3.58219 0
M  V30 11841 H 1115.79 -1.39999 -4.7187 0
M  V30 11842 N 1117.44 1.42219 -0.679077 0
M  V30 11843 C 1118.41 2.29197 -0.0125475 0
M  V30 11844 C 1119.41 1.43544 0.724691 0
M  V30 11845 O 1120.6 1.64884 0.562052 0
M  V30 11846 C 1117.73 3.26122 0.992846 0
M  V30 11847 H 1118.92 2.89629 -0.778154 0
M  V30 11848 H 1116.47 1.4993 -0.44166 0
M  V30 11849 H 1117.21 2.70637 1.78679 0
M  V30 11850 H 1116.99 3.89302 0.467544 0
M  V30 11851 H 1118.48 3.91339 1.45751 0
M  V30 11852 N 1118.92 0.422693 1.51826 0
M  V30 11853 C 1120.15 -0.147744 2.06372 0
M  V30 11854 C 1120.56 -1.37714 1.29152 0
M  V30 11855 O 1119.92 -1.7917 0.347046 0
M  V30 11856 C 1119.97 -0.484642 3.58237 0
M  V30 11857 O 1119.69 0.695944 4.32537 0
M  V30 11858 C 1121.19 -1.10734 4.29247 0
M  V30 11859 H 1118.41 -0.0144047 0.670845 0
M  V30 11860 H 1120.96 0.597558 1.95575 0
M  V30 11861 H 1119.11 -1.17984 3.68997 0
M  V30 11862 H 1119.53 0.411471 5.22884 0
M  V30 11863 H 1121 -1.29318 5.36639 0
M  V30 11864 H 1121.48 -2.08429 3.86593 0
M  V30 11865 H 1122.08 -0.451958 4.22892 0
M  V30 11866 N 1120.4 -1.5685 0.153553 0
M  V30 11867 C 1121.68 -1.8796 -0.541328 0
M  V30 11868 C 1122.06 -1.06059 -1.82523 0
M  V30 11869 O 1121.4 -0.149295 -2.28012 0
M  V30 11870 C 1121.61 -3.39697 -0.800442 0
M  V30 11871 C 1122.96 -4.09057 -1.13832 0
M  V30 11872 O 1123.99 -3.44913 -0.889578 0
M  V30 11873 O 1122.85 -5.22347 -1.60673 0
M  V30 11874 H 1119.94 -0.779268 -0.276895 0
M  V30 11875 H 1122.49 -1.68626 0.190657 0
M  V30 11876 H 1121.26 -3.91151 0.107935 0
M  V30 11877 H 1120.88 -3.64582 -1.58638 0
M  V30 11878 N 1121.88 0.120221 -1.57141 0
M  V30 11879 C 1123.13 0.826791 -1.83976 0
M  V30 11880 C 1123.44 1.81102 -0.739014 0
M  V30 11881 O 1124.65 2.56368 -0.893736 0
M  V30 11882 C 1123.1 1.52108 -3.26176 0
M  V30 11883 C 1122.71 0.577902 -4.44257 0
M  V30 11884 C 1124.45 2.21286 -3.62261 0
M  V30 11885 C 1122.36 1.27535 -5.77485 0
M  V30 11886 H 1121.29 0.312508 -0.686189 0
M  V30 11887 H 1123.94 0.0795343 -1.83328 0
M  V30 11888 H 1122.32 2.31492 -3.2129 0
M  V30 11889 H 1123.5 -0.182629 -4.60438 0
M  V30 11890 H 1121.81 -0.00684348 -4.16399 0
M  V30 11891 H 1124.41 2.74154 -4.59068 0
M  V30 11892 H 1124.75 2.99029 -2.89634 0
M  V30 11893 H 1125.29 1.48791 -3.68925 0
M  V30 11894 H 1122.02 0.539237 -6.53278 0
M  V30 11895 H 1121.54 2.00792 -5.65192 0
M  V30 11896 H 1123.22 1.80888 -6.21199 0
M  V30 11897 N 1123.36 1.52689 0.390367 0
M  V30 11898 C 1124.6 1.67335 1.13329 0
M  V30 11899 C 1124.93 0.415068 1.90531 0
M  V30 11900 O 1124.2 -0.570504 1.87409 0
M  V30 11901 H 1122.78 0.616821 0.421356 0
M  V30 11902 H 1125.44 1.89799 0.443 0
M  V30 11903 H 1124.53 2.52314 1.83696 0
M  V30 11904 N 1124.83 -0.648732 1.43629 0
M  V30 11905 C 1126.08 -1.40857 1.45483 0
M  V30 11906 C 1126.41 -1.94332 0.0807963 0
M  V30 11907 O 1125.66 -1.72999 -0.914875 0
M  V30 11908 C 1125.96 -2.60394 2.44806 0
M  V30 11909 C 1125.63 -2.25311 3.90571 0
M  V30 11910 C 1124.29 -2.15456 4.3027 0
M  V30 11911 C 1126.64 -1.97307 4.8241 0
M  V30 11912 C 1123.97 -1.75759 5.59755 0
M  V30 11913 C 1126.32 -1.59108 6.12264 0
M  V30 11914 C 1124.99 -1.47781 6.50936 0
M  V30 11915 H 1124.26 -0.515434 0.532362 0
M  V30 11916 H 1126.9 -0.737339 1.76736 0
M  V30 11917 H 1125.21 -3.3267 2.06973 0
M  V30 11918 H 1126.91 -3.18609 2.43494 0
M  V30 11919 H 1123.5 -2.33894 3.59154 0
M  V30 11920 H 1127.68 -2.0384 4.52507 0
M  V30 11921 H 1122.94 -1.65579 5.88552 0
M  V30 11922 H 1127.11 -1.36472 6.82897 0
M  V30 11923 H 1124.74 -1.16792 7.51175 0
M  V30 11924 N 1126.31 -1.30234 -0.887518 0
M  V30 11925 C 1127.56 -1.18675 -1.63587 0
M  V30 11926 C 1127.88 0.259342 -1.93268 0
M  V30 11927 O 1127.15 1.17523 -1.56733 0
M  V30 11928 H 1125.73 -0.436224 -0.606397 0
M  V30 11929 H 1128.39 -1.63326 -1.06351 0
M  V30 11930 H 1127.49 -1.74575 -2.58708 0
M  V30 11931 N 1127.79 1.09952 -1.12909 0
M  V30 11932 C 1128.74 2.18525 -0.796849 0
M  V30 11933 C 1129.73 1.67985 0.218483 0
M  V30 11934 O 1130.94 1.79839 0.07618 0
M  V30 11935 H 1127.31 0.712714 -0.239882 0
M  V30 11936 H 1129.28 2.43783 -1.72083 0
M  V30 11937 C 1128.03 3.46625 -0.273237 0
M  V30 11938 H 1127.36 3.85879 -1.04582 0
M  V30 11939 H 1128.8 4.23926 -0.0791355 0
M  V30 11940 C 1127.26 3.2172 0.999903 0
M  V30 11941 O 1127.79 3.43851 2.07676 0
M  V30 11942 N 1125.99 2.75356 0.928833 0
M  V30 11943 H 1125.54 2.57547 0.052379 0
M  V30 11944 H 1125.5 2.5907 1.78129 0
M  V30 11945 N 1129.27 0.921757 1.27833 0
M  V30 11946 C 1130.68 0.621102 1.47019 0
M  V30 11947 C 1130.88 -0.831338 1.83551 0
M  V30 11948 O 1129.94 -1.60974 1.94534 0
M  V30 11949 C 1131.25 1.56588 2.56712 0
M  V30 11950 C 1132.8 1.57346 2.70576 0
M  V30 11951 C 1133.28 2.50505 3.8342 0
M  V30 11952 N 1134.77 2.48678 3.90786 0
M  V30 11953 C 1135.5 3.17454 4.77505 0
M  V30 11954 N 1135 3.95588 5.68755 0
M  V30 11955 N 1136.79 3.06501 4.71183 0
M  V30 11956 H 1128.94 1.86085 1.02403 0
M  V30 11957 H 1131.21 0.798595 0.510833 0
M  V30 11958 H 1130.91 2.60175 2.36647 0
M  V30 11959 H 1130.79 1.30305 3.53978 0
M  V30 11960 H 1133.17 0.544919 2.90025 0
M  V30 11961 H 1133.25 1.87675 1.73815 0
M  V30 11962 H 1132.9 3.53466 3.64725 0
M  V30 11963 H 1132.83 2.17474 4.79596 0
M  V30 11964 H 1135.32 1.91928 3.25534 0
M  V30 11965 H 1135.63 4.45066 6.31772 0
M  V30 11966 H 1133.98 3.99692 5.6857 0
M  V30 11967 H 1137.17 2.44958 3.9889 0
M  V30 11968 H 1137.34 3.60372 5.3855 0
M  V30 11969 N 1130.75 -1.41857 0.686609 0
M  V30 11970 C 1131.99 -2.03236 0.217839 0
M  V30 11971 C 1132.35 -1.5317 -1.15771 0
M  V30 11972 O 1133.55 -2.06415 -1.72181 0
M  V30 11973 C 1131.82 -3.56428 0.263443 0
M  V30 11974 S 1133.38 -4.386 -0.132595 0
M  V30 11975 H 1130.2 -0.705472 0.088487 0
M  V30 11976 H 1132.8 -1.73428 0.902393 0
M  V30 11977 H 1131.51 -3.90362 1.26672 0
M  V30 11978 H 1131.04 -3.90925 -0.440556 0
M  V30 11979 H 1133.05 -4.77119 -1.3628 0
M  V30 11980 N 1132.22 -0.430739 -1.51599 0
M  V30 11981 C 1133.47 0.137657 -2.01631 0
M  V30 11982 C 1133.79 1.43787 -1.31721 0
M  V30 11983 O 1133.06 1.90668 -0.449717 0
M  V30 11984 H 1131.64 0.0538611 -0.745056 0
M  V30 11985 H 1134.31 -0.571935 -1.86319 0
M  V30 11986 H 1133.4 0.318305 -3.10473 0
M  V30 11987 N 1133.7 1.56767 -0.161869 0
M  V30 11988 C 1134.65 2.17502 0.772102 0
M  V30 11989 C 1135.62 1.11223 1.23364 0
M  V30 11990 O 1136.8 1.39332 1.30351 0
M  V30 11991 C 1133.94 2.81248 1.99984 0
M  V30 11992 C 1133.06 4.01962 1.58274 0
M  V30 11993 C 1132.19 4.53662 2.76341 0
M  V30 11994 C 1131.23 5.66807 2.31076 0
M  V30 11995 N 1130.37 6.13059 3.42203 0
M  V30 11996 H 1135.21 2.96971 0.247382 0
M  V30 11997 H 1132.75 1.46685 0.110382 0
M  V30 11998 H 1134.7 3.16359 2.7198 0
M  V30 11999 H 1133.33 2.04398 2.49842 0
M  V30 12000 H 1132.39 3.72733 0.759874 0
M  V30 12001 H 1133.7 4.83891 1.2104 0
M  V30 12002 H 1132.85 4.90905 3.56507 0
M  V30 12003 H 1131.59 3.7077 3.16829 0
M  V30 12004 H 1130.6 5.29125 1.49354 0
M  V30 12005 H 1131.82 6.51494 1.91657 0
M  V30 12006 H 1129.77 5.33099 3.82285 0
M  V30 12007 H 1129.68 6.89953 3.09033 0
M  V30 12008 H 1130.95 6.54951 4.22682 0
M  V30 12009 N 1135.18 -0.111886 1.57202 0
M  V30 12010 C 1136.59 -0.668261 1.74331 0
M  V30 12011 C 1136.94 -1.79959 0.781609 0
M  V30 12012 O 1136.07 -2.16356 -0.043833 0
M  V30 12013 C 1136.66 -1.219 3.1611 0
M  V30 12014 C 1135.22 -1.7216 3.34721 0
M  V30 12015 C 1134.37 -0.624223 2.70183 0
M  V30 12016 H 1137.32 0.114081 1.58289 0
M  V30 12017 H 1137.34 -2.08858 3.18054 0
M  V30 12018 H 1136.85 -0.395381 3.86081 0
M  V30 12019 H 1134.95 -2.56976 2.69803 0
M  V30 12020 H 1135.07 -1.82615 4.42932 0
M  V30 12021 H 1133.43 -1.05958 2.31614 0
M  V30 12022 H 1134.21 0.188537 3.42782 0
M  V30 12023 N 1136.66 -1.52894 -0.382264 0
M  V30 12024 C 1137.61 -1.78151 -1.46734 0
M  V30 12025 C 1138.58 -0.625034 -1.53891 0
M  V30 12026 O 1139.76 -0.865467 -1.70042 0
M  V30 12027 C 1136.9 -1.96223 -2.83885 0
M  V30 12028 C 1136.01 -3.23925 -2.85826 0
M  V30 12029 C 1135.15 -3.32277 -4.14446 0
M  V30 12030 C 1134.19 -4.54076 -4.10465 0
M  V30 12031 N 1133.32 -4.59672 -5.30703 0
M  V30 12032 H 1138.16 -2.70748 -1.24497 0
M  V30 12033 H 1135.7 -1.34135 -0.603838 0
M  V30 12034 H 1137.66 -2.04686 -3.63537 0
M  V30 12035 H 1136.29 -1.0698 -3.04557 0
M  V30 12036 H 1135.34 -3.245 -1.98505 0
M  V30 12037 H 1136.65 -4.1364 -2.78754 0
M  V30 12038 H 1135.81 -3.3996 -5.02506 0
M  V30 12039 H 1134.55 -2.40548 -4.2425 0
M  V30 12040 H 1133.55 -4.46511 -3.20793 0
M  V30 12041 H 1134.78 -5.47128 -4.02278 0
M  V30 12042 H 1132.72 -3.70838 -5.41124 0
M  V30 12043 H 1132.64 -5.43268 -5.25734 0
M  V30 12044 H 1133.91 -4.71618 -6.20642 0
M  V30 12045 N 1138.14 0.641106 -1.43971 0
M  V30 12046 C 1139.39 1.39807 -1.4594 0
M  V30 12047 C 1139.71 1.94795 -0.0893874 0
M  V30 12048 O 1138.98 1.75175 0.876962 0
M  V30 12049 H 1137.56 0.518908 -0.537349 0
M  V30 12050 H 1140.22 0.755278 -1.79671 0
M  V30 12051 H 1139.31 2.23439 -2.17903 0
M  V30 12052 N 1139.62 1.30703 0.880598 0
M  V30 12053 C 1141.03 1.17818 1.4483 0
M  V30 12054 C 1141.38 -0.219456 1.94969 0
M  V30 12055 O 1140.5 -1.11646 1.85375 0
M  V30 12056 C 1141.1 2.13275 2.63247 0
M  V30 12057 C 1139.66 2.04356 3.16094 0
M  V30 12058 C 1138.8 2.03108 1.88792 0
M  V30 12059 H 1141.75 1.42909 0.690125 0
M  V30 12060 H 1141.78 1.71615 3.39601 0
M  V30 12061 H 1141.29 3.14988 2.26725 0
M  V30 12062 H 1139.39 1.058 3.57263 0
M  V30 12063 H 1139.5 2.92953 3.79098 0
M  V30 12064 H 1137.87 1.47971 2.07308 0
M  V30 12065 H 1138.65 3.06558 1.54521 0
M  V30 12066 N 1141.09 -1.09351 1.1349 0
M  V30 12067 C 1142.51 -1.3359 0.873269 0
M  V30 12068 C 1142.71 -1.95432 -0.490767 0
M  V30 12069 O 1141.77 -2.20117 -1.23712 0
M  V30 12070 C 1143.08 -2.24681 1.99847 0
M  V30 12071 C 1144.63 -2.38188 2.03065 0
M  V30 12072 C 1145.1 -3.32615 3.14851 0
M  V30 12073 N 1146.59 -3.40188 3.14366 0
M  V30 12074 C 1147.33 -4.13256 3.97501 0
M  V30 12075 N 1146.82 -4.89114 4.90652 0
M  V30 12076 N 1148.62 -4.08988 3.85597 0
M  V30 12077 H 1140.77 -0.675852 2.0136 0
M  V30 12078 H 1143.03 -0.360268 0.876876 0
M  V30 12079 H 1142.74 -1.86469 2.98198 0
M  V30 12080 H 1142.61 -3.25075 1.91327 0
M  V30 12081 H 1145 -2.75663 1.05327 0
M  V30 12082 H 1145.08 -1.3757 2.15658 0
M  V30 12083 H 1144.72 -2.95863 4.12829 0
M  V30 12084 H 1144.65 -4.33139 2.99496 0
M  V30 12085 H 1147.14 -2.861 2.46892 0
M  V30 12086 H 1147.46 -5.423 5.50573 0
M  V30 12087 H 1145.8 -4.882 4.94657 0
M  V30 12088 H 1148.99 -3.48826 3.12151 0
M  V30 12089 H 1149.17 -4.65671 4.50615 0
M  V30 12090 N 1142.57 -0.928524 -1.27343 0
M  V30 12091 C 1143.85 -0.487758 -1.89421 0
M  V30 12092 C 1144.23 1.03418 -1.84032 0
M  V30 12093 O 1143.58 1.8887 -1.2861 0
M  V30 12094 C 1143.79 -1.03478 -3.33307 0
M  V30 12095 C 1145.13 -1.09577 -4.10217 0
M  V30 12096 O 1146.16 -0.984463 -3.42326 0
M  V30 12097 O 1145.02 -1.2673 -5.31603 0
M  V30 12098 H 1142.11 -0.157018 -0.811957 0
M  V30 12099 H 1144.66 -1.02027 -1.35605 0
M  V30 12100 H 1143.43 -2.07861 -3.31526 0
M  V30 12101 H 1143.05 -0.483967 -3.94644 0
M  V30 12102 N 1144.05 1.41491 -0.694123 0
M  V30 12103 C 1145.46 1.84283 -0.299439 0
M  V30 12104 C 1145.81 1.58081 1.16211 0
M  V30 12105 O 1144.94 1.05051 1.89191 0
M  V30 12106 C 1145.53 3.34522 -0.536696 0
M  V30 12107 C 1144.09 3.7589 -0.195944 0
M  V30 12108 C 1143.24 2.64908 -0.819692 0
M  V30 12109 H 1146.19 1.31063 -0.894884 0
M  V30 12110 H 1146.21 3.79947 0.205062 0
M  V30 12111 H 1145.72 3.53561 -1.6005 0
M  V30 12112 H 1143.82 3.62452 0.863655 0
M  V30 12113 H 1143.94 4.74671 -0.649954 0
M  V30 12114 H 1142.3 2.53476 -0.249412 0
M  V30 12115 H 1143.08 2.86765 -1.88734 0
M  V30 12116 N 1145.53 0.438773 1.51369 0
M  V30 12117 C 1146.94 -0.0240139 1.86685 0
M  V30 12118 C 1147.29 -1.41816 1.35583 0
M  V30 12119 O 1146.41 -2.04517 0.707232 0
M  V30 12120 C 1147.01 -0.0503527 3.38763 0
M  V30 12121 C 1145.57 -0.457556 3.73609 0
M  V30 12122 C 1144.72 0.348852 2.75097 0
M  V30 12123 H 1147.67 0.654552 1.44573 0
M  V30 12124 H 1147.69 -0.859534 3.70665 0
M  V30 12125 H 1147.2 0.964451 3.75925 0
M  V30 12126 H 1145.3 -1.47791 3.42036 0
M  V30 12127 H 1145.41 -0.181357 4.78757 0
M  V30 12128 H 1143.78 -0.193037 2.53967 0
M  V30 12129 H 1144.56 1.36256 3.15102 0
M  V30 12130 N 1147.01 -1.56678 0.170181 0
M  V30 12131 C 1148.23 -2.0166 -0.484543 0
M  V30 12132 C 1148.66 -1.04962 -1.56091 0
M  V30 12133 O 1148.01 -0.0289887 -1.81277 0
M  V30 12134 C 1148.06 -3.45252 -1.04084 0
M  V30 12135 O 1147.17 -3.51623 -2.15488 0
M  V30 12136 H 1146.51 -0.653765 -0.116135 0
M  V30 12137 H 1149.04 -2.02761 0.273737 0
M  V30 12138 H 1149.05 -3.84534 -1.36373 0
M  V30 12139 H 1147.72 -4.15131 -0.252738 0
M  V30 12140 H 1146.3 -3.242 -1.84252 0
M  V30 12141 N 1148.48 0.103547 -1.57259 0
M  V30 12142 C 1149.39 1.14475 -2.04774 0
M  V30 12143 C 1150.41 1.44385 -0.971025 0
M  V30 12144 O 1151.59 1.55195 -1.28361 0
M  V30 12145 C 1148.65 2.4475 -2.45558 0
M  V30 12146 C 1147.71 2.22098 -3.67384 0
M  V30 12147 C 1146.94 3.4616 -4.06213 0
M  V30 12148 O 1147.17 4.5407 -3.45219 0
M  V30 12149 O 1146.1 3.36248 -4.9922 0
M  V30 12150 H 1149.93 0.771211 -2.93745 0
M  V30 12151 H 1147.51 0.315456 -1.46032 0
M  V30 12152 H 1149.39 3.21476 -2.72454 0
M  V30 12153 H 1148.07 2.81547 -1.59728 0
M  V30 12154 H 1146.98 1.43179 -3.45616 0
M  V30 12155 H 1148.31 1.90197 -4.53967 0
M  V30 12156 N 1149.96 1.53094 0.37415 0
M  V30 12157 C 1151.21 1.70059 1.11586 0
M  V30 12158 C 1151.56 0.442567 1.87241 0
M  V30 12159 O 1150.86 -0.564198 1.83105 0
M  V30 12160 C 1151.05 2.88432 2.11049 0
M  V30 12161 C 1150.88 4.25625 1.45166 0
M  V30 12162 C 1149.65 4.90613 1.20942 0
M  V30 12163 C 1151.85 5.06472 0.893887 0
M  V30 12164 N 1149.83 6.11751 0.513196 0
M  V30 12165 C 1151.2 6.19139 0.326549 0
M  V30 12166 C 1153.25 4.91565 0.791739 0
M  V30 12167 C 1151.96 7.18529 -0.332963 0
M  V30 12168 C 1153.98 5.9122 0.146023 0
M  V30 12169 C 1153.35 7.03203 -0.410477 0
M  V30 12170 H 1149.44 0.675625 0.39377 0
M  V30 12171 H 1152.03 1.90475 0.403383 0
M  V30 12172 H 1150.2 2.6957 2.79619 0
M  V30 12173 H 1151.93 2.94261 2.77835 0
M  V30 12174 H 1148.69 4.49604 1.48841 0
M  V30 12175 H 1149.11 6.76759 0.180695 0
M  V30 12176 H 1153.75 4.05183 1.20776 0
M  V30 12177 H 1151.47 8.04509 -0.76096 0
M  V30 12178 H 1155.06 5.8176 0.0680321 0
M  V30 12179 H 1153.94 7.78993 -0.90223 0
M  V30 12180 N 1151.44 -0.633461 1.44309 0
M  V30 12181 C 1152.67 -1.42033 1.50447 0
M  V30 12182 C 1153.08 -1.88362 0.128585 0
M  V30 12183 O 1152.44 -1.60695 -0.865071 0
M  V30 12184 C 1152.49 -2.6422 2.46719 0
M  V30 12185 O 1152.21 -2.19823 3.78958 0
M  V30 12186 C 1153.71 -3.57372 2.62298 0
M  V30 12187 H 1150.93 -0.435667 0.510329 0
M  V30 12188 H 1153.48 -0.774907 1.8925 0
M  V30 12189 H 1151.63 -3.24859 2.11058 0
M  V30 12190 H 1152.05 -2.99022 4.30913 0
M  V30 12191 H 1153.52 -4.39719 3.33693 0
M  V30 12192 H 1154 -4.06026 1.67449 0
M  V30 12193 H 1154.6 -3.02603 2.9885 0
M  V30 12194 O 1152.96 -1.41587 -0.77688 0
M  V30 12195 H 1153.65 -1.31317 -1.42392 0
M  V30 END ATOM
M  V30 BEGIN BOND
M  V30 END BOND
M  V30 END CTAB
M  END
$$$$
