drugbank_target|Q05329 Glutamate decarboxylase 2 (DB00142)
 OpenBabel12092119353D

  0  0  0     0  0            999 V3000
M  V30 BEGIN CTAB
M  V30 COUNTS 9117 9229 0 0 0
M  V30 BEGIN ATOM
M  V30 1 H -0.908 1.98254 -0.117106 0
M  V30 2 N 0 1.576 0 0
M  V30 3 C 0.933 2.03868 1.02534 0
M  V30 4 C 1.911 0.928543 1.3348 0
M  V30 5 O 3.095 1.19667 1.45644 0
M  V30 6 C 0.222 2.43627 2.35294 0
M  V30 7 C -0.732 3.65373 2.2001 0
M  V30 8 S 0.101 5.13292 1.52614 0
M  V30 9 C 1.257 5.56322 2.86805 0
M  V30 10 H 1.49 2.90518 0.631377 0
M  V30 11 H -0.977 1.52953 0.210867 0
M  V30 12 H 0.981 2.67203 3.11629 0
M  V30 13 H -0.358 1.57376 2.7183 0
M  V30 14 H -1.165 3.90944 3.18086 0
M  V30 15 H -1.563 3.418 1.51819 0
M  V30 16 H 0.729 5.58782 3.83104 0
M  V30 17 H 1.672 6.56266 2.65933 0
M  V30 18 H 2.08 4.83886 2.90714 0
M  V30 19 N 1.4781 -0.272755 1.55222 0
M  V30 20 C 2.4411 -1.32041 1.87344 0
M  V30 21 C 3.4411 -1.42342 0.74803 0
M  V30 22 O 4.6311 -1.41488 1.0162 0
M  V30 23 C 1.7631 -2.70173 2.07893 0
M  V30 24 H 2.9561 -1.04789 2.80997 0
M  V30 25 H 0.5091 -0.51083 1.47717 0
M  V30 26 H 1.2441 -3.02605 1.16622 0
M  V30 27 H 1.0291 -2.64082 2.89833 0
M  V30 28 H 2.5191 -3.45869 2.34017 0
M  V30 29 N 2.9562 -1.48159 -0.537278 0
M  V30 30 C 4.1812 -1.59707 -1.32319 0
M  V30 31 C 4.6062 -0.254859 -1.86365 0
M  V30 32 O 3.9642 0.772378 -1.64024 0
M  V30 33 C 4.0122 -2.6412 -2.45505 0
M  V30 34 O 3.1162 -2.20774 -3.48328 0
M  V30 35 H 2.4572 -0.535791 -0.392204 0
M  V30 36 H 4.9872 -1.94092 -0.647268 0
M  V30 37 H 4.9972 -2.85166 -2.91795 0
M  V30 38 H 3.6722 -3.61567 -2.05528 0
M  V30 39 H 2.2492 -2.09911 -3.08207 0
M  V30 40 N 4.4343 0.785586 -1.36625 0
M  V30 41 C 5.8453 1.36101 -1.27803 0
M  V30 42 C 6.1963 1.96035 0.0804875 0
M  V30 43 O 5.3213 1.92834 0.982042 0
M  V30 44 C 5.9163 2.47442 -2.31426 0
M  V30 45 C 4.4753 3.00789 -2.26281 0
M  V30 46 C 3.6223 1.73896 -2.15999 0
M  V30 47 H 6.5733 0.586928 -1.47448 0
M  V30 48 H 6.5943 3.2656 -1.95291 0
M  V30 49 H 6.1063 2.03791 -3.30289 0
M  V30 50 H 4.2073 3.48851 -1.30896 0
M  V30 51 H 4.3203 3.57343 -3.19128 0
M  V30 52 H 2.6843 1.9628 -1.62316 0
M  V30 53 H 3.4673 1.32368 -3.16755 0
M  V30 54 N 5.9124 1.20967 1.01018 0
M  V30 55 C 7.1604 1.02172 1.74371 0
M  V30 56 C 7.4814 -0.446414 1.89821 0
M  V30 57 O 6.7514 -1.32234 1.44537 0
M  V30 58 H 5.3314 0.375066 0.646014 0
M  V30 59 H 7.9934 1.52187 1.21758 0
M  V30 60 H 7.0894 1.48538 2.74487 0
M  V30 61 N 7.3905 -1.2043 1.01659 0
M  V30 62 C 8.6155 -1.94318 0.724942 0
M  V30 63 C 9.0405 -1.74266 -0.708034 0
M  V30 64 O 8.3985 -1.03694 -1.48719 0
M  V30 65 C 8.4465 -3.44486 1.06591 0
M  V30 66 O 7.5505 -4.12017 0.177599 0
M  V30 67 H 6.8915 -0.60708 0.26898 0
M  V30 68 H 9.4215 -1.52861 1.35995 0
M  V30 69 H 9.4315 -3.95106 1.01762 0
M  V30 70 H 8.1065 -3.58404 2.10997 0
M  V30 71 H 6.6835 -3.71821 0.283421 0
M  V30 72 N 8.8686 -0.792821 -1.36206 0
M  V30 73 C 10.1166 -0.366062 -1.98757 0
M  V30 74 C 10.4376 1.0668 -1.63231 0
M  V30 75 O 9.7076 1.73587 -0.907978 0
M  V30 76 H 8.2876 -0.132364 -0.735179 0
M  V30 77 H 10.9496 -1.01562 -1.66347 0
M  V30 78 H 10.0456 -0.460638 -3.08682 0
M  V30 79 N 10.3467 1.47872 -0.545128 0
M  V30 80 C 11.5937 2.02493 -0.0165858 0
M  V30 81 C 11.9217 1.42073 1.32836 0
M  V30 82 O 11.1767 0.561459 1.87473 0
M  V30 83 C 11.4757 3.57131 0.13867 0
M  V30 84 C 11.1417 4.36411 -1.13384 0
M  V30 85 C 9.8037 4.57792 -1.48256 0
M  V30 86 C 12.1557 4.82223 -1.97764 0
M  V30 87 C 9.4837 5.22233 -2.67376 0
M  V30 88 C 11.8357 5.47977 -3.16076 0
M  V30 89 C 10.4997 5.67593 -3.51275 0
M  V30 90 H 9.7697 0.740975 -0.00606918 0
M  V30 91 H 12.4167 1.77683 -0.714207 0
M  V30 92 H 10.7217 3.80865 0.919172 0
M  V30 93 H 12.4187 3.97031 0.562782 0
M  V30 94 H 9.0087 4.2004 -0.852297 0
M  V30 95 H 13.1927 4.65493 -1.72132 0
M  V30 96 H 8.4487 5.35616 -2.94831 0
M  V30 97 H 12.6227 5.8244 -3.81755 0
M  V30 98 H 10.2497 6.17298 -4.43675 0
M  V30 99 N 11.8248 0.280983 1.55075 0
M  V30 100 C 13.0708 -0.327573 2.00745 0
M  V30 101 C 13.4258 -1.53045 1.16598 0
M  V30 102 O 12.7188 -1.90221 0.229451 0
M  V30 103 C 12.9128 -0.754656 3.49342 0
M  V30 104 C 12.7418 0.40529 4.4787 0
M  V30 105 C 11.5118 0.890947 4.97383 0
M  V30 106 C 13.7098 1.24371 4.99035 0
M  V30 107 N 11.6918 2.01975 5.79724 0
M  V30 108 C 13.0628 2.22031 5.7888 0
M  V30 109 C 15.1178 1.27638 4.81262 0
M  V30 110 C 13.8208 3.22709 6.42846 0
M  V30 111 C 15.8468 2.27164 5.46031 0
M  V30 112 C 15.2088 3.23556 6.25692 0
M  V30 113 H 11.3078 -0.0848774 0.77738 0
M  V30 114 H 13.8918 0.406342 1.90413 0
M  V30 115 H 12.0628 -1.45778 3.60005 0
M  V30 116 H 13.7948 -1.34105 3.81835 0
M  V30 117 H 10.5498 0.469262 4.71269 0
M  V30 118 H 10.9738 2.58794 6.25584 0
M  V30 119 H 15.6158 0.544936 4.19274 0
M  V30 120 H 13.3338 3.96784 7.0398 0
M  V30 121 H 16.9198 2.30441 5.34217 0
M  V30 122 H 15.7998 3.99309 6.74924 0
M  V30 123 N 13.3029 -1.57598 0.00835791 0
M  V30 124 C 14.5279 -1.95617 -0.689103 0
M  V30 125 C 14.9529 -0.883753 -1.66046 0
M  V30 126 O 14.3109 0.157352 -1.80616 0
M  V30 127 C 14.3589 -3.32736 -1.38994 0
M  V30 128 O 13.4629 -3.27631 -2.50463 0
M  V30 129 H 12.8039 -0.638379 -0.182668 0
M  V30 130 H 15.3339 -2.045 0.064036 0
M  V30 131 H 15.3439 -3.68494 -1.75147 0
M  V30 132 H 14.0189 -4.1034 -0.677778 0
M  V30 133 H 12.5959 -3.03561 -2.16576 0
M  V30 134 N 14.781 0.264519 -1.55364 0
M  V30 135 C 16.028 0.994986 -1.7637 0
M  V30 136 C 16.356 1.85976 -0.5695 0
M  V30 137 O 15.611 1.90509 0.44776 0
M  V30 138 C 15.91 1.9004 -3.02687 0
M  V30 139 C 15.576 1.19243 -4.34847 0
M  V30 140 C 14.238 0.996709 -4.70764 0
M  V30 141 C 16.59 0.689296 -5.16622 0
M  V30 142 C 13.918 0.285261 -5.86006 0
M  V30 143 C 16.27 -0.00860079 -6.32599 0
M  V30 144 C 14.934 -0.215963 -6.67151 0
M  V30 145 H 14.204 0.364091 -0.645383 0
M  V30 146 H 16.851 0.266543 -1.89636 0
M  V30 147 H 15.156 2.69533 -2.84357 0
M  V30 148 H 16.853 2.46695 -3.16137 0
M  V30 149 H 13.443 1.3549 -4.06621 0
M  V30 150 H 17.627 0.828108 -4.89342 0
M  V30 151 H 12.883 0.113961 -6.11294 0
M  V30 152 H 17.057 -0.406186 -6.95214 0
M  V30 153 H 14.684 -0.769217 -7.56298 0
M  V30 154 N 16.2591 1.48442 0.529413 0
M  V30 155 C 17.5071 1.56179 1.28267 0
M  V30 156 C 17.8281 0.237721 1.93546 0
M  V30 157 O 17.0981 -0.740779 1.81354 0
M  V30 158 H 15.6781 0.575367 0.476405 0
M  V30 159 H 18.3401 1.84909 0.61602 0
M  V30 160 H 17.4361 2.34312 2.06165 0
M  V30 161 N 17.7372 -0.778329 1.37039 0
M  V30 162 C 18.9622 -1.57248 1.35233 0
M  V30 163 C 19.3872 -1.87999 -0.0615568 0
M  V30 164 O 18.7452 -1.48734 -1.03672 0
M  V30 165 C 18.7932 -2.86353 2.19167 0
M  V30 166 O 17.8972 -3.80442 1.59178 0
M  V30 167 H 17.2382 -0.476569 0.462362 0
M  V30 168 H 19.7682 -0.963853 1.80474 0
M  V30 169 H 19.7782 -3.35519 2.32145 0
M  V30 170 H 18.4532 -2.63299 3.21942 0
M  V30 171 H 17.0302 -3.39067 1.55203 0
M  V30 172 N 19.2153 -1.21501 -1.00376 0
M  V30 173 C 20.1253 -0.991447 -2.12621 0
M  V30 174 C 21.1413 0.0568446 -1.73907 0
M  V30 175 O 22.3173 -0.13348 -2.00957 0
M  V30 176 C 19.3823 -0.560312 -3.42142 0
M  V30 177 C 18.4433 -1.68096 -3.95022 0
M  V30 178 C 17.6763 -1.2703 -5.18362 0
M  V30 179 O 17.8993 -0.144438 -5.70217 0
M  V30 180 O 16.8333 -2.08269 -5.64719 0
M  V30 181 H 20.6593 -1.93158 -2.34358 0
M  V30 182 H 18.2443 -0.999999 -1.10997 0
M  V30 183 H 20.1263 -0.329724 -4.20108 0
M  V30 184 H 18.8013 0.351089 -3.2179 0
M  V30 185 H 17.7083 -1.96597 -3.18278 0
M  V30 186 H 19.0413 -2.56983 -4.19786 0
M  V30 187 N 20.6934 1.19889 -1.02296 0
M  V30 188 C 21.9704 1.85148 -0.630832 0
M  V30 189 C 22.3504 1.91385 0.890782 0
M  V30 190 O 21.6984 1.42642 1.78509 0
M  V30 191 C 21.9084 3.24442 -1.28602 0
M  V30 192 C 23.2564 4.00663 -1.4055 0
M  V30 193 O 24.2804 3.33818 -1.24273 0
M  V30 194 O 23.1394 5.20387 -1.66913 0
M  V30 195 H 20.2334 0.797613 -0.218499 0
M  V30 196 H 22.7794 1.27427 -1.12074 0
M  V30 197 H 21.5514 3.14704 -2.32545 0
M  V30 198 H 21.1744 3.89802 -0.7836 0
M  V30 199 N 22.1715 0.800033 1.35784 0
M  V30 200 C 23.4195 0.376597 1.9856 0
M  V30 201 C 23.7405 -1.05812 1.63795 0
M  V30 202 O 23.0105 -1.73103 0.917171 0
M  V30 203 H 21.5905 0.136261 0.734467 0
M  V30 204 H 24.2525 1.02442 1.65806 0
M  V30 205 H 23.3485 0.477002 3.08433 0
M  V30 206 N 23.6496 -1.47581 0.552962 0
M  V30 207 C 24.8746 -2.07378 0.0300593 0
M  V30 208 C 25.2996 -1.40355 -1.25229 0
M  V30 209 O 24.6576 -0.477099 -1.7491 0
M  V30 210 C 24.7056 -3.60274 -0.153231 0
M  V30 211 O 23.8096 -3.94041 -1.21678 0
M  V30 212 H 23.1506 -0.662158 0.0494182 0
M  V30 213 H 25.6806 -1.89662 0.767434 0
M  V30 214 H 25.6906 -4.0633 -0.368761 0
M  V30 215 H 24.3656 -4.08455 0.783397 0
M  V30 216 H 22.9426 -3.59735 -0.982079 0
M  V30 217 N 25.1277 -0.289203 -1.54924 0
M  V30 218 C 26.3757 0.322879 -1.99504 0
M  V30 219 C 26.6967 1.55313 -1.1791 0
M  V30 220 O 25.9667 1.94001 -0.272097 0
M  V30 221 H 24.5467 0.122291 -0.736922 0
M  V30 222 H 27.2087 -0.397802 -1.90797 0
M  V30 223 H 26.3047 0.603061 -3.06218 0
M  V30 224 N 26.6058 1.57591 -0.0167156 0
M  V30 225 C 27.8828 1.82547 0.702564 0
M  V30 226 C 28.2628 0.898018 1.91047 0
M  V30 227 O 27.6108 -0.0493456 2.28447 0
M  V30 228 C 27.8208 3.31459 1.09251 0
M  V30 229 C 29.1688 3.97622 1.48937 0
M  V30 230 O 30.1928 3.35881 1.18584 0
M  V30 231 O 29.0518 5.06415 2.05442 0
M  V30 232 H 26.1458 0.752268 0.343544 0
M  V30 233 H 28.6918 1.69644 -0.0434495 0
M  V30 234 H 27.4638 3.9061 0.23227 0
M  V30 235 H 27.0868 3.49422 1.89709 0
M  V30 236 N 28.0839 -0.256276 1.55502 0
M  V30 237 C 29.3089 -1.00766 1.81276 0
M  V30 238 C 29.7339 -1.78524 0.59252 0
M  V30 239 O 29.0919 -1.75413 -0.45827 0
M  V30 240 C 29.1399 -1.92869 3.04687 0
M  V30 241 O 28.2439 -3.019 2.80945 0
M  V30 242 H 27.5849 -0.287224 0.598664 0
M  V30 243 H 30.1149 -0.280109 2.02674 0
M  V30 244 H 30.1249 -2.34511 3.33869 0
M  V30 245 H 28.7999 -1.35689 3.93143 0
M  V30 246 H 27.3769 -2.64454 2.62904 0
M  V30 247 N 29.562 -1.4872 -0.521534 0
M  V30 248 C 30.472 -1.66569 -1.65203 0
M  V30 249 C 31.488 -0.548197 -1.65139 0
M  V30 250 O 32.664 -0.820339 -1.83936 0
M  V30 251 C 29.729 -1.70917 -3.01642 0
M  V30 252 C 28.79 -2.94356 -3.12495 0
M  V30 253 C 28.023 -2.98487 -4.42426 0
M  V30 254 O 28.246 -2.10786 -5.30024 0
M  V30 255 O 27.18 -3.90746 -4.57822 0
M  V30 256 H 31.006 -2.62298 -1.5308 0
M  V30 257 H 28.591 -1.3222 -0.695565 0
M  V30 258 H 30.473 -1.7625 -3.82771 0
M  V30 259 H 29.148 -0.783633 -3.14071 0
M  V30 260 H 28.055 -2.94552 -2.3063 0
M  V30 261 H 29.388 -3.86322 -3.04986 0
M  V30 262 N 31.0401 0.771051 -1.3745 0
M  V30 263 C 31.9881 1.90574 -1.33358 0
M  V30 264 C 32.9821 1.67936 -0.22224 0
M  V30 265 O 34.1881 1.75717 -0.390304 0
M  V30 266 H 30.5631 0.626714 -0.415612 0
M  V30 267 H 32.5341 1.91142 -2.29144 0
M  V30 268 C 31.2831 3.27845 -1.15813 0
M  V30 269 H 30.6061 3.45842 -2.00583 0
M  V30 270 H 32.0461 4.07538 -1.17 0
M  V30 271 C 30.5051 3.36625 0.136165 0
M  V30 272 O 31.0351 3.85785 1.11949 0
M  V30 273 N 29.2411 2.89997 0.187099 0
M  V30 274 H 28.7881 2.50182 -0.613753 0
M  V30 275 H 28.7461 2.96252 1.05272 0
M  V30 276 N 32.5182 1.22032 0.997298 0
M  V30 277 C 33.9292 1.0397 1.55071 0
M  V30 278 C 34.2802 -0.398192 1.92117 0
M  V30 279 O 33.4052 -1.28254 1.74298 0
M  V30 280 C 34.0002 1.88109 2.81781 0
M  V30 281 C 32.5592 1.74357 3.33581 0
M  V30 282 C 31.7062 1.84846 2.06706 0
M  V30 283 H 34.6572 1.35941 0.818883 0
M  V30 284 H 34.6782 1.39589 3.53971 0
M  V30 285 H 34.1902 2.92754 2.54787 0
M  V30 286 H 32.2912 0.72427 3.65493 0
M  V30 287 H 32.4042 2.56772 4.04481 0
M  V30 288 H 30.7682 1.28238 2.20062 0
M  V30 289 H 31.5512 2.91014 1.82114 0
M  V30 290 N 33.9963 -1.19345 1.0293 0
M  V30 291 C 35.2443 -1.88665 0.724574 0
M  V30 292 C 35.5653 -1.80036 -0.749144 0
M  V30 293 O 34.8353 -1.2111 -1.53978 0
M  V30 294 H 33.4153 -0.698406 0.265025 0
M  V30 295 H 36.0773 -1.44885 1.30362 0
M  V30 296 H 35.1733 -2.94987 1.01926 0
M  V30 297 N 35.4744 -0.807222 -1.35358 0
M  V30 298 C 36.7024 -0.400377 -2.02989 0
M  V30 299 C 37.1174 0.988859 -1.60832 0
M  V30 300 O 36.4744 1.63729 -0.806175 0
M  V30 301 C 36.5254 -0.474867 -3.58368 0
M  V30 302 O 36.2464 -1.80933 -3.98992 0
M  V30 303 C 37.7474 -0.0609112 -4.43258 0
M  V30 304 H 34.9674 -0.162587 -0.651004 0
M  V30 305 H 37.5114 -1.09102 -1.72965 0
M  V30 306 H 35.6664 0.167534 -3.87038 0
M  V30 307 H 36.0804 -1.77256 -4.9364 0
M  V30 308 H 37.5544 -0.164145 -5.51756 0
M  V30 309 H 38.0314 0.993831 -4.27808 0
M  V30 310 H 38.6374 -0.676492 -4.19885 0
M  V30 311 N 36.9525 1.47285 -0.560781 0
M  V30 312 C 37.9155 2.28535 0.174488 0
M  V30 313 C 38.9155 1.37153 0.839388 0
M  V30 314 O 40.1055 1.59748 0.694702 0
M  V30 315 C 37.2375 3.16934 1.25561 0
M  V30 316 H 38.4305 2.95012 -0.539262 0
M  V30 317 H 35.9835 1.53034 -0.317865 0
M  V30 318 H 36.7185 2.55157 2.00164 0
M  V30 319 H 36.5035 3.8419 0.783604 0
M  V30 320 H 37.9935 3.78143 1.77193 0
M  V30 321 N 38.4306 0.297415 1.54768 0
M  V30 322 C 39.8466 -0.0560823 1.59501 0
M  V30 323 C 40.0466 -1.52725 1.31444 0
M  V30 324 O 39.1026 -2.27947 1.08611 0
M  V30 325 C 40.4156 0.338631 2.98787 0
M  V30 326 C 41.9636 0.287097 3.11681 0
M  V30 327 C 42.4386 0.656579 4.53269 0
M  V30 328 N 43.9296 0.608977 4.59179 0
M  V30 329 C 44.6646 0.867385 5.66802 0
M  V30 330 N 44.1606 1.19157 6.82476 0
M  V30 331 N 45.9536 0.794687 5.56454 0
M  V30 332 H 38.1046 1.25624 1.71267 0
M  V30 333 H 40.3676 0.509057 0.799728 0
M  V30 334 H 40.0736 1.36263 3.2423 0
M  V30 335 H 39.9476 -0.309508 3.75928 0
M  V30 336 H 42.3346 -0.727649 2.85988 0
M  V30 337 H 42.4156 0.969809 2.36703 0
M  V30 338 H 42.0596 1.66912 4.7969 0
M  V30 339 H 41.9896 -0.0481649 5.26578 0
M  V30 340 H 44.4806 0.369198 3.76092 0
M  V30 341 H 44.7936 1.37482 7.60473 0
M  V30 342 H 43.1386 1.22958 6.84037 0
M  V30 343 H 46.3296 0.541098 4.64962 0
M  V30 344 H 46.5026 0.999445 6.40246 0
M  V30 345 N 39.9087 -1.5758 0.0250728 0
M  V30 346 C 40.8717 -2.08896 -0.943139 0
M  V30 347 C 41.8717 -1.00321 -1.25668 0
M  V30 348 O 43.0617 -1.26495 -1.19769 0
M  V30 349 C 40.1937 -2.55143 -2.26086 0
M  V30 350 H 41.3867 -2.95723 -0.498775 0
M  V30 351 H 38.9397 -1.54703 -0.222888 0
M  V30 352 H 39.6747 -1.71633 -2.75159 0
M  V30 353 H 39.4597 -3.34461 -2.04641 0
M  V30 354 H 40.9497 -2.95083 -2.95492 0
M  V30 355 N 41.3868 0.248026 -1.55636 0
M  V30 356 C 42.6328 0.973427 -1.78594 0
M  V30 357 C 42.9878 1.83007 -0.593823 0
M  V30 358 O 42.2808 1.87097 0.412961 0
M  V30 359 C 42.4748 1.86819 -3.04686 0
M  V30 360 C 42.3038 1.09965 -4.36048 0
M  V30 361 C 41.0738 0.805204 -4.98843 0
M  V30 362 C 43.2718 0.477783 -5.12076 0
M  V30 363 N 41.2538 0.0124859 -6.13899 0
M  V30 364 C 42.6248 -0.179565 -6.1974 0
M  V30 365 C 44.6798 0.388136 -4.96385 0
M  V30 366 C 43.3828 -0.91795 -7.13419 0
M  V30 367 C 45.4088 -0.336716 -5.90441 0
M  V30 368 C 44.7708 -0.982705 -6.97511 0
M  V30 369 H 40.8698 0.337348 -0.705493 0
M  V30 370 H 43.4538 0.24667 -1.93131 0
M  V30 371 H 41.6248 2.56698 -2.9148 0
M  V30 372 H 43.3568 2.52907 -3.15944 0
M  V30 373 H 40.1118 1.11671 -4.60246 0
M  V30 374 H 40.5358 -0.371933 -6.75978 0
M  V30 375 H 45.1778 0.873237 -4.13684 0
M  V30 376 H 42.8958 -1.41466 -7.95621 0
M  V30 377 H 46.4818 -0.406731 -5.80377 0
M  V30 378 H 45.3618 -1.53464 -7.69037 0
M  V30 379 N 42.8649 1.48995 0.513639 0
M  V30 380 C 44.1049 1.59452 1.27885 0
M  V30 381 C 44.4689 0.269479 1.90099 0
M  V30 382 O 45.6699 0.249139 2.67643 0
M  V30 383 C 43.9409 2.71277 2.32688 0
M  V30 384 S 45.4999 3.01604 3.18717 0
M  V30 385 H 42.3179 0.562565 0.434789 0
M  V30 386 H 44.9199 1.86595 0.583301 0
M  V30 387 H 43.6239 3.66089 1.8549 0
M  V30 388 H 43.1549 2.46086 3.06929 0
M  V30 389 H 45.1699 2.42155 4.331 0
M  V30 390 N 44.343 -0.763751 1.37857 0
M  V30 391 C 45.275 -1.88664 1.30148 0
M  V30 392 C 46.288 -1.61365 0.215685 0
M  V30 393 O 47.477 -1.72134 0.472459 0
M  V30 394 C 44.577 -3.24075 0.991396 0
M  V30 395 C 43.75 -3.78958 2.18426 0
M  V30 396 C 42.809 -4.92862 1.8432 0
M  V30 397 O 41.835 -5.08027 2.56704 0
M  V30 398 N 43.037 -5.75071 0.792081 0
M  V30 399 H 45.802 -1.95791 2.26905 0
M  V30 400 H 43.363 -0.943226 1.31586 0
M  V30 401 H 45.355 -3.97804 0.743935 0
M  V30 402 H 43.925 -3.12399 0.112122 0
M  V30 403 H 43.145 -2.96913 2.59299 0
M  V30 404 H 44.433 -4.12357 2.98058 0
M  V30 405 H 43.831 -5.65375 0.191595 0
M  V30 406 H 42.388 -6.48991 0.60449 0
M  V30 407 N 45.8211 -1.22559 -0.990812 0
M  V30 408 C 47.0671 -1.05297 -1.73322 0
M  V30 409 C 47.4001 0.410655 -1.89808 0
M  V30 410 O 46.6751 1.30439 -1.44277 0
M  V30 411 C 46.9581 -1.76713 -3.13759 0
M  V30 412 C 46.8111 -3.30684 -3.04907 0
M  V30 413 C 48.1301 -1.52121 -4.12974 0
M  V30 414 H 45.2491 -0.38392 -0.629106 0
M  V30 415 H 47.8911 -1.50926 -1.15418 0
M  V30 416 H 46.0411 -1.37924 -3.63193 0
M  V30 417 H 47.7131 -3.7893 -2.63077 0
M  V30 418 H 45.9561 -3.60253 -2.41661 0
M  V30 419 H 46.6271 -3.75833 -4.04294 0
M  V30 420 H 49.1031 -1.85819 -3.72304 0
M  V30 421 H 47.9791 -2.04582 -5.0935 0
M  V30 422 H 48.2401 -0.454257 -4.3976 0
M  V30 423 N 47.2992 1.18797 -1.03562 0
M  V30 424 C 48.2622 2.20464 -0.626769 0
M  V30 425 C 49.2622 1.57721 0.313173 0
M  V30 426 O 50.4522 1.73917 0.0992615 0
M  V30 427 C 47.5842 3.40802 0.0818498 0
M  V30 428 H 48.7772 2.58149 -1.5264 0
M  V30 429 H 46.3302 1.32593 -0.827578 0
M  V30 430 H 47.0652 3.08642 0.995518 0
M  V30 431 H 46.8502 3.8758 -0.593652 0
M  V30 432 H 48.3402 4.16092 0.354584 0
M  V30 433 N 48.7773 0.814389 1.34928 0
M  V30 434 C 49.7093 0.187834 2.28429 0
M  V30 435 C 50.7223 -0.617374 1.5064 0
M  V30 436 O 51.9113 -0.448454 1.72775 0
M  V30 437 C 49.0113 -0.755962 3.30361 0
M  V30 438 C 48.1843 0.00456686 4.374 0
M  V30 439 C 47.2433 -0.858876 5.19143 0
M  V30 440 O 46.2693 -0.306968 5.68372 0
M  V30 441 N 47.4713 -2.17988 5.38016 0
M  V30 442 H 50.2363 0.991105 2.82838 0
M  V30 443 H 47.7973 0.670561 1.4736 0
M  V30 444 H 49.7893 -1.338 3.81942 0
M  V30 445 H 48.3593 -1.46001 2.7641 0
M  V30 446 H 47.5793 0.767865 3.86649 0
M  V30 447 H 48.8673 0.528422 5.06049 0
M  V30 448 H 48.2653 -2.65212 4.99679 0
M  V30 449 H 46.8223 -2.71098 5.92747 0
M  V30 450 N 50.2554 -1.46986 0.568584 0
M  V30 451 C 51.2024 -2.30153 -0.172707 0
M  V30 452 C 52.1724 -1.39759 -0.897586 0
M  V30 453 O 53.3574 -1.68716 -0.891044 0
M  V30 454 C 50.4974 -3.23952 -1.1895 0
M  V30 455 C 49.6104 -4.29441 -0.469517 0
M  V30 456 C 48.7454 -5.1038 -1.47259 0
M  V30 457 C 47.7844 -6.07632 -0.738225 0
M  V30 458 N 46.9214 -6.8149 -1.68868 0
M  V30 459 H 51.7614 -2.93019 0.542596 0
M  V30 460 H 49.2984 -1.44422 0.279401 0
M  V30 461 H 51.2564 -3.76767 -1.79173 0
M  V30 462 H 49.8864 -2.62926 -1.87269 0
M  V30 463 H 48.9384 -3.79594 0.247467 0
M  V30 464 H 50.2504 -4.98689 0.105241 0
M  V30 465 H 49.4044 -5.67402 -2.14803 0
M  V30 466 H 48.1434 -4.4106 -2.08128 0
M  V30 467 H 47.1484 -5.49778 -0.0489293 0
M  V30 468 H 48.3734 -6.78966 -0.135129 0
M  V30 469 H 46.3194 -6.14891 -2.28573 0
M  V30 470 H 46.2364 -7.46948 -1.16636 0
M  V30 471 H 47.5044 -7.43078 -2.3549 0
M  V30 472 N 51.7335 -0.305618 -1.54608 0
M  V30 473 C 52.9805 0.302298 -2.00231 0
M  V30 474 C 53.3085 1.5354 -1.19398 0
M  V30 475 O 52.5635 1.93973 -0.259423 0
M  V30 476 C 52.8625 0.698983 -3.50498 0
M  V30 477 C 52.5285 -0.432903 -4.48817 0
M  V30 478 C 51.1905 -0.743622 -4.75419 0
M  V30 479 C 53.5425 -1.19409 -5.07337 0
M  V30 480 C 50.8705 -1.81857 -5.57804 0
M  V30 481 C 53.2225 -2.25899 -5.90891 0
M  V30 482 C 51.8865 -2.57572 -6.15803 0
M  V30 483 H 51.1565 0.110619 -0.732697 0
M  V30 484 H 53.8035 -0.425674 -1.86709 0
M  V30 485 H 52.1085 1.50711 -3.61654 0
M  V30 486 H 53.8055 1.1806 -3.83227 0
M  V30 487 H 50.3955 -0.18063 -4.28219 0
M  V30 488 H 54.5795 -0.967295 -4.86782 0
M  V30 489 H 49.8355 -2.06864 -5.75341 0
M  V30 490 H 54.0095 -2.85335 -6.35261 0
M  V30 491 H 51.6365 -3.40998 -6.7943 0
M  V30 492 N 53.2116 1.57565 -0.0334293 0
M  V30 493 C 54.4396 1.9628 0.654347 0
M  V30 494 C 54.8546 0.910138 1.65414 0
M  V30 495 O 54.2116 -0.107595 1.82183 0
M  V30 496 C 54.2626 3.35067 1.35693 0
M  V30 497 O 53.9836 4.36296 0.397191 0
M  V30 498 C 55.4846 3.88439 2.13613 0
M  V30 499 H 52.7046 0.646369 0.180132 0
M  V30 500 H 55.2486 2.04282 -0.0944721 0
M  V30 501 H 53.4036 3.2827 2.05712 0
M  V30 502 H 53.8176 5.1678 0.896597 0
M  V30 503 H 55.2916 4.8788 2.58219 0
M  V30 504 H 55.7686 3.22914 2.97696 0
M  V30 505 H 56.3746 3.98516 1.48543 0
M  V30 506 N 54.6897 -0.239769 1.55765 0
M  V30 507 C 55.9377 -0.964892 1.77579 0
M  V30 508 C 56.2587 -1.85582 0.598699 0
M  V30 509 O 55.5287 -1.92075 -0.385226 0
M  V30 510 H 54.1087 -0.359265 0.654933 0
M  V30 511 H 56.7707 -0.256001 1.93211 0
M  V30 512 H 55.8667 -1.58243 2.69009 0
M  V30 513 N 56.1678 -1.49265 -0.50573 0
M  V30 514 C 57.4158 -1.582 -1.25766 0
M  V30 515 C 57.7368 -0.268482 -1.93143 0
M  V30 516 O 57.0068 0.711833 -1.8251 0
M  V30 517 H 55.5868 -0.582873 -0.467191 0
M  V30 518 H 58.2488 -1.85865 -0.586525 0
M  V30 519 H 57.3448 -2.37563 -2.02412 0
M  V30 520 N 57.6459 0.756429 -1.3826 0
M  V30 521 C 58.8949 1.51082 -1.3363 0
M  V30 522 C 59.2079 1.95467 0.0720068 0
M  V30 523 O 60.4139 2.7043 0.240834 0
M  V30 524 C 58.8699 2.72893 -2.34644 0
M  V30 525 C 58.4779 2.35544 -3.81081 0
M  V30 526 C 60.2219 3.50791 -2.39052 0
M  V30 527 C 58.1289 3.53948 -4.73787 0
M  V30 528 H 57.0589 0.56727 -0.49671 0
M  V30 529 H 59.7099 0.827147 -1.638 0
M  V30 530 H 58.0919 3.43227 -1.97513 0
M  V30 531 H 59.2659 1.72894 -4.27135 0
M  V30 532 H 57.5809 1.70786 -3.79764 0
M  V30 533 H 60.1779 4.38823 -3.05513 0
M  V30 534 H 60.5209 3.91745 -1.40861 0
M  V30 535 H 61.0539 2.87467 -2.74968 0
M  V30 536 H 57.7929 3.18064 -5.73163 0
M  V30 537 H 57.3129 4.15651 -4.32428 0
M  V30 538 H 58.9919 4.20566 -4.91663 0
M  V30 539 N 59.124 1.23083 0.984299 0
M  V30 540 C 60.372 1.05848 1.72165 0
M  V30 541 C 60.693 -0.406049 1.90726 0
M  V30 542 O 59.963 -1.29139 1.47309 0
M  V30 543 H 58.543 0.388685 0.637913 0
M  V30 544 H 61.205 1.54736 1.18503 0
M  V30 545 H 60.301 1.54327 2.71274 0
M  V30 546 N 60.6021 -1.18246 1.0419 0
M  V30 547 C 61.5501 -2.23968 0.627792 0
M  V30 548 C 62.5441 -1.65828 -0.346019 0
M  V30 549 O 63.7501 -1.78733 -0.213175 0
M  V30 550 H 60.1251 -0.728939 0.184802 0
M  V30 551 H 62.0961 -2.56202 1.52981 0
M  V30 552 C 60.8451 -3.47699 0.00796591 0
M  V30 553 H 60.1681 -3.92734 0.748347 0
M  V30 554 H 61.6081 -4.23294 -0.24455 0
M  V30 555 C 60.0671 -3.13153 -1.24246 0
M  V30 556 O 60.5971 -3.27003 -2.33307 0
M  V30 557 N 58.8031 -2.67467 -1.13622 0
M  V30 558 H 58.3501 -2.56396 -0.248734 0
M  V30 559 H 58.3081 -2.44724 -1.97377 0
M  V30 560 N 62.0802 -0.821533 -1.34494 0
M  V30 561 C 63.0272 -0.240397 -2.29545 0
M  V30 562 C 63.9972 0.634031 -1.53523 0
M  V30 563 O 65.1822 0.575966 -1.81899 0
M  V30 564 C 62.3222 0.592869 -3.39969 0
M  V30 565 C 61.4352 -0.30365 -4.30932 0
M  V30 566 C 60.5702 0.539049 -5.28458 0
M  V30 567 C 59.6092 -0.356942 -6.11058 0
M  V30 568 N 58.7462 0.446603 -7.00678 0
M  V30 569 H 63.5862 -1.05632 -2.7865 0
M  V30 570 H 61.1232 -0.532413 -1.37127 0
M  V30 571 H 63.0812 1.09129 -4.02675 0
M  V30 572 H 61.7112 1.37392 -2.92102 0
M  V30 573 H 60.7632 -0.920276 -3.691 0
M  V30 574 H 62.0752 -0.992661 -4.88823 0
M  V30 575 H 61.2292 1.102 -5.96608 0
M  V30 576 H 59.9682 1.26157 -4.71101 0
M  V30 577 H 58.9732 -0.932047 -5.41842 0
M  V30 578 H 60.1982 -1.07755 -6.70497 0
M  V30 579 H 58.1442 1.15282 -6.45791 0
M  V30 580 H 58.0612 -0.184048 -7.55776 0
M  V30 581 H 59.3292 0.992352 -7.73158 0
M  V30 582 N 63.5583 1.46682 -0.576371 0
M  V30 583 C 64.4883 2.33028 0.148397 0
M  V30 584 C 65.4693 1.44961 0.889956 0
M  V30 585 O 66.6543 1.73789 0.866662 0
M  V30 586 C 63.7843 3.27117 1.1667 0
M  V30 587 C 62.7383 4.24575 0.540386 0
M  V30 588 C 62.0643 5.08126 1.6647 0
M  V30 589 C 63.3643 5.19722 -0.518331 0
M  V30 590 H 65.0583 2.93875 -0.572509 0
M  V30 591 H 62.6043 1.41315 -0.276768 0
M  V30 592 H 64.5573 3.86374 1.68204 0
M  V30 593 H 63.2813 2.64364 1.9178 0
M  V30 594 H 61.9403 3.66571 0.0461769 0
M  V30 595 H 61.5883 4.41762 2.40531 0
M  V30 596 H 61.2883 5.74122 1.25131 0
M  V30 597 H 62.8123 5.70246 2.18293 0
M  V30 598 H 64.2263 5.73232 -0.0883058 0
M  V30 599 H 62.6233 5.94026 -0.851679 0
M  V30 600 H 63.6933 4.64037 -1.40703 0
M  V30 601 N 65.0364 0.313813 1.54444 0
M  V30 602 C 66.2764 -0.292389 2.02298 0
M  V30 603 C 66.6404 -1.50105 1.19719 0
M  V30 604 O 67.8414 -2.17947 1.5733 0
M  V30 605 C 66.1124 -0.627682 3.51845 0
M  V30 606 S 67.6714 -1.21493 4.21646 0
M  V30 607 H 64.4894 -0.0890247 0.705405 0
M  V30 608 H 67.0914 0.444668 1.90376 0
M  V30 609 H 65.7954 0.260265 4.09574 0
M  V30 610 H 65.3264 -1.39519 3.67829 0
M  V30 611 H 67.3414 -2.5022 4.28491 0
M  V30 612 N 66.5145 -1.57545 0.0417849 0
M  V30 613 C 67.4775 -2.09885 -0.92093 0
M  V30 614 C 68.4775 -1.01648 -1.24596 0
M  V30 615 O 69.6675 -1.27759 -1.1842 0
M  V30 616 C 66.7995 -2.57527 -2.23367 0
M  V30 617 H 67.9925 -2.96236 -0.467382 0
M  V30 618 H 65.5455 -1.5493 -0.206467 0
M  V30 619 H 66.2805 -1.74542 -2.73323 0
M  V30 620 H 66.0655 -3.36613 -2.01083 0
M  V30 621 H 67.5555 -2.98201 -2.92346 0
M  V30 622 N 67.9926 0.231505 -1.5589 0
M  V30 623 C 68.9226 1.29022 -1.94617 0
M  V30 624 C 69.9036 1.4941 -0.813067 0
M  V30 625 O 71.0886 1.6176 -1.07459 0
M  V30 626 C 68.2186 2.64199 -2.25424 0
M  V30 627 C 67.1726 2.58484 -3.41131 0
M  V30 628 C 66.4986 3.97599 -3.57518 0
M  V30 629 C 67.7986 2.1413 -4.76388 0
M  V30 630 H 69.4926 0.968563 -2.83301 0
M  V30 631 H 67.0386 0.464479 -1.36303 0
M  V30 632 H 68.9916 3.38413 -2.51107 0
M  V30 633 H 67.7156 2.98032 -1.33583 0
M  V30 634 H 66.3746 1.86727 -3.15481 0
M  V30 635 H 66.0226 4.28723 -2.6307 0
M  V30 636 H 65.7226 3.94659 -4.35337 0
M  V30 637 H 67.2466 4.7349 -3.85538 0
M  V30 638 H 68.6606 2.78083 -5.01341 0
M  V30 639 H 67.0576 2.2227 -5.57419 0
M  V30 640 H 68.1276 1.09331 -4.72414 0
M  V30 641 N 69.4707 1.49531 0.497807 0
M  V30 642 C 70.4007 1.6935 1.60757 0
M  V30 643 C 71.3817 0.542218 1.61227 0
M  V30 644 O 72.5667 0.778417 1.77917 0
M  V30 645 C 69.6967 1.76298 2.99226 0
M  V30 646 C 68.6507 2.91248 3.13622 0
M  V30 647 C 67.9767 2.83312 4.53474 0
M  V30 648 C 69.2767 4.3214 2.93346 0
M  V30 649 H 70.9707 2.62263 1.44425 0
M  V30 650 H 68.5167 1.26208 0.693367 0
M  V30 651 H 70.4697 1.88749 3.76765 0
M  V30 652 H 69.1937 0.799871 3.16654 0
M  V30 653 H 67.8527 2.78404 2.38509 0
M  V30 654 H 67.5007 1.84902 4.67782 0
M  V30 655 H 67.2007 3.60465 4.64046 0
M  V30 656 H 68.7247 2.97775 5.33069 0
M  V30 657 H 70.1387 4.45649 3.60652 0
M  V30 658 H 68.5357 5.1054 3.15387 0
M  V30 659 H 69.6057 4.46363 1.89441 0
M  V30 660 N 70.9488 -0.749086 1.3866 0
M  V30 661 C 72.1788 -1.53611 1.38157 0
M  V30 662 C 72.5868 -1.89177 -0.0293595 0
M  V30 663 O 71.9298 -1.53606 -1.00752 0
M  V30 664 C 71.9918 -2.86087 2.17702 0
M  V30 665 C 71.6558 -2.73034 3.66472 0
M  V30 666 C 72.6528 -2.42526 4.59866 0
M  V30 667 C 70.3378 -2.90345 4.09884 0
M  V30 668 C 72.3318 -2.29492 5.94653 0
M  V30 669 C 70.0188 -2.7693 5.4475 0
M  V30 670 C 71.0168 -2.46547 6.36949 0
M  V30 671 O 70.7048 -2.33199 7.69333 0
M  V30 672 H 70.4368 -0.481773 0.474205 0
M  V30 673 H 72.9908 -0.934465 1.82912 0
M  V30 674 H 71.2208 -3.48458 1.67672 0
M  V30 675 H 72.9098 -3.47625 2.09551 0
M  V30 676 H 73.6758 -2.28816 4.27631 0
M  V30 677 H 69.5548 -3.1299 3.38464 0
M  V30 678 H 73.0988 -2.05698 6.66584 0
M  V30 679 H 68.9958 -2.90215 5.76581 0
M  V30 680 H 69.7638 -2.48376 7.79905 0
M  V30 681 N 72.4269 -1.23603 -0.977757 0
M  V30 682 C 73.6749 -1.06759 -1.71601 0
M  V30 683 C 73.9959 0.395929 -1.90938 0
M  V30 684 O 73.2659 1.28356 -1.47992 0
M  V30 685 H 71.8459 -0.392062 -0.635843 0
M  V30 686 H 74.5079 -1.55362 -1.1768 0
M  V30 687 H 73.6039 -1.55763 -2.70452 0
M  V30 688 N 73.905 1.17692 -1.04816 0
M  V30 689 C 75.182 1.83768 -0.669963 0
M  V30 690 C 75.562 1.93232 0.849986 0
M  V30 691 O 74.91 1.46397 1.75443 0
M  V30 692 C 75.12 3.21641 -1.35455 0
M  V30 693 C 76.468 3.97592 -1.49017 0
M  V30 694 O 77.492 3.31107 -1.31326 0
M  V30 695 O 76.351 5.16729 -1.77914 0
M  V30 696 H 73.445 0.792799 -0.235368 0
M  V30 697 H 75.991 1.25021 -1.14751 0
M  V30 698 H 74.763 3.097 -2.39168 0
M  V30 699 H 74.386 3.88052 -0.866107 0
M  V30 700 N 75.3831 0.828654 1.34056 0
M  V30 701 C 76.3461 0.259927 2.27721 0
M  V30 702 C 77.3461 -0.565478 1.50529 0
M  V30 703 O 78.5361 -0.38075 1.69988 0
M  V30 704 C 75.6681 -0.634944 3.34935 0
M  V30 705 H 76.8611 1.0863 2.79534 0
M  V30 706 H 74.4141 0.600951 1.44285 0
M  V30 707 H 75.1491 -1.48416 2.88346 0
M  V30 708 H 74.9341 -0.0444999 3.92075 0
M  V30 709 H 76.4241 -1.02648 4.04788 0
M  V30 710 N 76.8612 -1.46375 0.584142 0
M  V30 711 C 77.7712 -2.34115 -0.150728 0
M  V30 712 C 78.7872 -1.49838 -0.884567 0
M  V30 713 O 79.9632 -1.82704 -0.847429 0
M  V30 714 C 77.0282 -3.2705 -1.15062 0
M  V30 715 C 76.0892 -4.27228 -0.421293 0
M  V30 716 C 75.3222 -5.15722 -1.37355 0
M  V30 717 O 75.5452 -5.07176 -2.61014 0
M  V30 718 O 74.4792 -5.95383 -0.883355 0
M  V30 719 H 78.3052 -2.98309 0.569708 0
M  V30 720 H 75.8902 -1.45373 0.344535 0
M  V30 721 H 77.7722 -3.84381 -1.72712 0
M  V30 722 H 76.4472 -2.65451 -1.8525 0
M  V30 723 H 75.3542 -3.7358 0.197085 0
M  V30 724 H 76.6872 -4.91616 0.239641 0
M  V30 725 N 78.3393 -0.321999 -1.54275 0
M  V30 726 C 79.2863 0.544664 -2.24281 0
M  V30 727 C 80.2563 1.1129 -1.23303 0
M  V30 728 O 81.4413 1.15354 -1.51981 0
M  V30 729 C 78.5813 1.70045 -3.00298 0
M  V30 730 C 77.6943 1.16159 -4.1609 0
M  V30 731 C 76.8293 2.28293 -4.79641 0
M  V30 732 C 75.8683 1.71648 -5.8754 0
M  V30 733 N 75.0053 2.77438 -6.44959 0
M  V30 734 H 79.8453 -0.0588907 -2.97942 0
M  V30 735 H 77.3823 -0.0408345 -1.47043 0
M  V30 736 H 79.3403 2.38054 -3.42616 0
M  V30 737 H 77.9703 2.27531 -2.28975 0
M  V30 738 H 77.0223 0.373092 -3.78566 0
M  V30 739 H 78.3343 0.707087 -4.93763 0
M  V30 740 H 77.4883 3.0421 -5.2492 0
M  V30 741 H 76.2273 2.77079 -4.01346 0
M  V30 742 H 75.2323 0.942282 -5.41665 0
M  V30 743 H 76.4573 1.23741 -6.67731 0
M  V30 744 H 74.4033 3.25519 -5.69538 0
M  V30 745 H 74.3203 2.36547 -7.1804 0
M  V30 746 H 75.5883 3.53189 -6.94894 0
M  V30 747 N 79.8174 1.5752 -0.0501392 0
M  V30 748 C 81.2284 1.80271 0.485705 0
M  V30 749 C 81.5794 0.96228 1.70981 0
M  V30 750 O 80.7044 0.178578 2.15662 0
M  V30 751 C 81.2994 3.26957 0.887938 0
M  V30 752 C 79.8584 3.5063 1.36877 0
M  V30 753 C 79.0054 2.75165 0.343468 0
M  V30 754 H 81.9564 1.56281 -0.276028 0
M  V30 755 H 81.9774 3.37821 1.75093 0
M  V30 756 H 81.4894 3.881 -0.0031809 0
M  V30 757 H 79.5904 2.94766 2.27911 0
M  V30 758 H 79.7034 4.59343 1.36164 0
M  V30 759 H 78.0674 2.4127 0.816128 0
M  V30 760 H 78.8504 3.39034 -0.539548 0
M  V30 761 N 81.2955 -0.223234 1.56011 0
M  V30 762 C 82.2585 -1.26014 1.9145 0
M  V30 763 C 83.2585 -1.3989 0.792937 0
M  V30 764 O 84.4485 -1.38184 1.0607 0
M  V30 765 C 81.5805 -2.63422 2.16383 0
M  V30 766 H 82.7735 -0.95796 2.84189 0
M  V30 767 H 80.3265 -0.463576 1.49267 0
M  V30 768 H 81.0615 -2.98741 1.2619 0
M  V30 769 H 80.8465 -2.54728 2.98088 0
M  V30 770 H 82.3365 -3.38249 2.44903 0
M  V30 771 N 82.7736 -1.49793 -0.48987 0
M  V30 772 C 83.6836 -1.70036 -1.61632 0
M  V30 773 C 84.6996 -0.583102 -1.63939 0
M  V30 774 O 85.8756 -0.859169 -1.82154 0
M  V30 775 C 82.9406 -1.77277 -2.97949 0
M  V30 776 C 82.0016 -3.00918 -3.06181 0
M  V30 777 C 81.2346 -3.07804 -4.35996 0
M  V30 778 O 81.4576 -2.21982 -5.25433 0
M  V30 779 O 80.3916 -4.00369 -4.49431 0
M  V30 780 H 84.2176 -2.65486 -1.47482 0
M  V30 781 H 81.8026 -1.33666 -0.667362 0
M  V30 782 H 83.6846 -1.84329 -3.78947 0
M  V30 783 H 82.3596 -0.850076 -3.12339 0
M  V30 784 H 81.2666 -2.99377 -2.2433 0
M  V30 785 H 82.5996 -3.92704 -2.96723 0
M  V30 786 N 84.2517 0.741722 -1.39055 0
M  V30 787 C 85.4767 1.53607 -1.39354 0
M  V30 788 C 85.9017 1.88096 0.0116905 0
M  V30 789 O 85.2597 1.5143 0.996924 0
M  V30 790 C 85.3077 2.80441 -2.26682 0
M  V30 791 O 84.4117 3.76088 -1.69208 0
M  V30 792 H 83.7527 0.464142 -0.474835 0
M  V30 793 H 86.2827 0.915665 -1.82967 0
M  V30 794 H 86.2927 3.29246 -2.40959 0
M  V30 795 H 84.9677 2.5467 -3.2881 0
M  V30 796 H 83.5447 3.34833 -1.64138 0
M  V30 797 N 85.7298 1.2412 0.971189 0
M  V30 798 C 86.9778 1.07668 1.71032 0
M  V30 799 C 87.2988 -0.385797 1.91146 0
M  V30 800 O 86.5688 -1.27569 1.4867 0
M  V30 801 H 85.1488 0.395429 0.633755 0
M  V30 802 H 87.8108 1.55984 1.16855 0
M  V30 803 H 86.9068 1.57195 2.69622 0
M  V30 804 N 87.2079 -1.17134 1.05439 0
M  V30 805 C 88.4559 -1.87085 0.764429 0
M  V30 806 C 88.7769 -1.81584 -0.710787 0
M  V30 807 O 88.0469 -1.24349 -1.51374 0
M  V30 808 H 86.6269 -0.692627 0.279779 0
M  V30 809 H 89.2889 -1.42087 1.33406 0
M  V30 810 H 88.3849 -2.92759 1.0816 0
M  V30 811 N 88.686 -0.835752 -1.33615 0
M  V30 812 C 89.911 -0.442389 -2.02627 0
M  V30 813 C 90.336 0.947735 -1.62479 0
M  V30 814 O 89.694 1.61907 -0.815826 0
M  V30 815 C 89.742 -0.567216 -3.56111 0
M  V30 816 O 88.846 0.407799 -4.10379 0
M  V30 817 H 88.187 -0.180278 -0.639059 0
M  V30 818 H 90.717 -1.12972 -1.70583 0
M  V30 819 H 90.727 -0.447708 -4.05536 0
M  V30 820 H 89.402 -1.58103 -3.84677 0
M  V30 821 H 87.979 0.246107 -3.72087 0
M  V30 822 N 90.1641 1.46063 -0.591896 0
M  V30 823 C 91.0961 2.28539 0.174001 0
M  V30 824 C 92.1091 1.39047 0.846753 0
M  V30 825 O 93.2981 1.63564 0.714774 0
M  V30 826 C 90.3981 3.14347 1.26645 0
M  V30 827 C 89.5711 4.32021 0.683856 0
M  V30 828 C 88.6301 4.99157 1.66518 0
M  V30 829 O 87.6561 5.56458 1.19763 0
M  V30 830 N 88.8581 4.97005 2.99943 0
M  V30 831 H 91.6231 2.94911 -0.533633 0
M  V30 832 H 89.1841 1.56077 -0.430294 0
M  V30 833 H 91.1761 3.56125 1.92242 0
M  V30 834 H 89.7461 2.49988 1.87682 0
M  V30 835 H 88.9661 3.93915 -0.1498 0
M  V30 836 H 90.2541 5.08059 0.274567 0
M  V30 837 H 89.6521 4.51714 3.40545 0
M  V30 838 H 88.2091 5.42696 3.61004 0
M  V30 839 N 91.6422 0.330177 1.54103 0
M  V30 840 C 93.0532 -0.15652 1.86043 0
M  V30 841 C 93.4042 -1.51086 1.2517 0
M  V30 842 O 92.5292 -2.09023 0.560217 0
M  V30 843 C 93.1242 -0.290784 3.3755 0
M  V30 844 C 91.6832 -0.721705 3.69416 0
M  V30 845 C 90.8302 0.152622 2.7688 0
M  V30 846 H 93.7812 0.550237 1.48856 0
M  V30 847 H 93.8022 -1.12058 3.63625 0
M  V30 848 H 93.3142 0.695068 3.81825 0
M  V30 849 H 91.4152 -1.71706 3.30678 0
M  V30 850 H 91.5282 -0.520869 4.7626 0
M  V30 851 H 89.8922 -0.372894 2.51956 0
M  V30 852 H 90.6752 1.13536 3.23982 0
M  V30 853 N 93.1203 -1.57491 0.0584922 0
M  V30 854 C 94.5313 -1.80526 -0.476138 0
M  V30 855 C 94.8823 -0.971334 -1.70469 0
M  V30 856 O 94.0073 -0.190012 -2.15564 0
M  V30 857 C 94.6023 -3.27424 -0.870587 0
M  V30 858 C 93.1613 -3.51351 -1.35015 0
M  V30 859 C 92.3083 -2.75343 -0.32887 0
M  V30 860 H 95.2593 -1.56133 0.284312 0
M  V30 861 H 95.2803 -3.38745 -1.73299 0
M  V30 862 H 94.7923 -3.88093 0.0237627 0
M  V30 863 H 92.8933 -2.95971 -2.26345 0
M  V30 864 H 93.0063 -4.60059 -1.33726 0
M  V30 865 H 91.3703 -2.417 -0.803321 0
M  V30 866 H 92.1533 -3.38743 0.557521 0
M  V30 867 N 94.5984 0.214957 -1.56127 0
M  V30 868 C 96.0144 0.564948 -1.49267 0
M  V30 869 C 96.2144 1.86827 -0.754838 0
M  V30 870 O 95.2704 2.50745 -0.297198 0
M  V30 871 C 96.5834 0.638071 -2.93852 0
M  V30 872 C 98.1314 0.728253 -3.0441 0
M  V30 873 C 98.6064 0.832663 -4.50367 0
M  V30 874 N 100.097 0.896712 -4.54437 0
M  V30 875 C 100.832 0.997324 -5.6466 0
M  V30 876 N 100.328 1.06147 -6.8462 0
M  V30 877 N 102.121 1.03297 -5.52527 0
M  V30 878 H 94.2724 -0.640211 -2.02522 0
M  V30 879 H 96.5354 -0.225507 -0.920788 0
M  V30 880 H 96.2414 -0.250126 -3.50809 0
M  V30 881 H 96.1154 1.49947 -3.46115 0
M  V30 882 H 98.5024 1.60689 -2.47514 0
M  V30 883 H 98.5834 -0.158952 -2.55306 0
M  V30 884 H 98.2274 -0.0415417 -5.07883 0
M  V30 885 H 98.1574 1.73538 -4.97184 0
M  V30 886 H 100.648 0.857188 -3.6805 0
M  V30 887 H 100.961 1.1382 -7.64372 0
M  V30 888 H 99.3064 1.03049 -6.87318 0
M  V30 889 H 102.497 0.979558 -4.57736 0
M  V30 890 H 102.67 1.10793 -6.38458 0
M  V30 891 N 96.0765 1.50051 0.48192 0
M  V30 892 C 97.0395 1.67584 1.5636 0
M  V30 893 C 98.0395 0.546894 1.51214 0
M  V30 894 O 99.2295 0.813725 1.54026 0
M  V30 895 C 96.3615 1.691 2.96003 0
M  V30 896 H 97.5545 2.64078 1.42136 0
M  V30 897 H 95.1075 1.39369 0.707533 0
M  V30 898 H 95.8425 0.742589 3.15684 0
M  V30 899 H 95.6275 2.51105 3.01146 0
M  V30 900 H 97.1175 1.84656 3.74556 0
M  V30 901 N 97.5546 -0.734337 1.39446 0
M  V30 902 C 98.5176 -1.83004 1.37994 0
M  V30 903 C 99.5176 -1.58397 0.276938 0
M  V30 904 O 100.708 -1.65785 0.534875 0
M  V30 905 C 97.8396 -3.20802 1.1532 0
M  V30 906 H 99.0326 -1.85694 2.35494 0
M  V30 907 H 96.5856 -0.938059 1.25021 0
M  V30 908 H 97.3206 -3.23772 0.185036 0
M  V30 909 H 97.1056 -3.4006 1.95197 0
M  V30 910 H 98.5956 -4.00862 1.17046 0
M  V30 911 N 99.0327 -1.24633 -0.964593 0
M  V30 912 C 99.9957 -1.0424 -2.04124 0
M  V30 913 C 100.996 0.00137563 -1.608 0
M  V30 914 O 102.186 -0.239883 -1.7254 0
M  V30 915 C 99.3177 -0.580588 -3.3592 0
M  V30 916 H 100.511 -1.99803 -2.23649 0
M  V30 917 H 98.0637 -1.06899 -1.14027 0
M  V30 918 H 98.7987 0.3781 -3.22088 0
M  V30 919 H 98.5837 -1.33398 -3.6871 0
M  V30 920 H 100.074 -0.459034 -4.15069 0
M  V30 921 N 100.511 1.16574 -1.06058 0
M  V30 922 C 101.927 1.3904 -0.783585 0
M  V30 923 C 102.127 1.91784 0.618145 0
M  V30 924 O 101.183 2.11511 1.37911 0
M  V30 925 C 102.496 2.37329 -1.84649 0
M  V30 926 C 104.044 2.51018 -1.86973 0
M  V30 927 C 104.519 3.52588 -2.92311 0
M  V30 928 N 106.01 3.60113 -2.91329 0
M  V30 929 C 106.745 4.38486 -3.69482 0
M  V30 930 N 106.241 5.20302 -4.57447 0
M  V30 931 N 108.034 4.33446 -3.57885 0
M  V30 932 H 100.185 0.806725 -1.96483 0
M  V30 933 H 102.448 0.417117 -0.851303 0
M  V30 934 H 102.154 2.05663 -2.85299 0
M  V30 935 H 102.028 3.36946 -1.6955 0
M  V30 936 H 104.415 2.81989 -0.869827 0
M  V30 937 H 104.496 1.51445 -2.0615 0
M  V30 938 H 104.14 3.22354 -3.92492 0
M  V30 939 H 104.07 4.51886 -2.70383 0
M  V30 940 H 106.561 3.01707 -2.27555 0
M  V30 941 H 106.874 5.77311 -5.13743 0
M  V30 942 H 105.219 5.19653 -4.61503 0
M  V30 943 H 108.41 3.68586 -2.88551 0
M  V30 944 H 108.583 4.94279 -4.19037 0
M  V30 945 N 101.989 0.842826 1.3317 0
M  V30 946 C 102.936 0.276885 2.29133 0
M  V30 947 C 103.906 -0.609527 1.54512 0
M  V30 948 O 105.091 -0.546955 1.82792 0
M  V30 949 C 102.231 -0.538707 3.40869 0
M  V30 950 C 101.344 0.372169 4.30394 0
M  V30 951 C 100.479 -0.454908 5.29249 0
M  V30 952 C 99.5179 0.45411 6.10413 0
M  V30 953 N 98.6549 -0.335075 7.013 0
M  V30 954 H 103.495 1.10052 2.76934 0
M  V30 955 H 101.032 0.554161 1.36262 0
M  V30 956 H 102.99 -1.02709 4.0436 0
M  V30 957 H 101.62 -1.32727 2.9425 0
M  V30 958 H 100.672 0.97888 3.6759 0
M  V30 959 H 101.984 1.0703 4.87182 0
M  V30 960 H 101.138 -1.00695 5.98285 0
M  V30 961 H 99.8769 -1.18646 4.73048 0
M  V30 962 H 98.8819 1.01813 5.40291 0
M  V30 963 H 100.107 1.18409 6.68697 0
M  V30 964 H 98.0529 -1.04994 6.47543 0
M  V30 965 H 97.9699 0.304262 7.55387 0
M  V30 966 H 99.2379 -0.869224 7.74638 0
M  V30 967 N 103.467 -1.45747 0.599634 0
M  V30 968 C 104.43 -2.28917 -0.113835 0
M  V30 969 C 105.43 -1.3933 -0.802729 0
M  V30 970 O 106.62 -1.61534 -0.652103 0
M  V30 971 C 103.752 -3.20152 -1.17114 0
M  V30 972 H 104.945 -2.93478 0.617289 0
M  V30 973 H 102.498 -1.52137 0.358327 0
M  V30 974 H 103.233 -2.60374 -1.93329 0
M  V30 975 H 103.018 -3.86133 -0.681468 0
M  V30 976 H 104.508 -3.82708 -1.67105 0
M  V30 977 N 104.945 -0.338344 -1.53925 0
M  V30 978 C 105.908 0.508299 -2.23493 0
M  V30 979 C 106.908 1.03175 -1.23335 0
M  V30 980 O 108.098 0.921826 -1.47811 0
M  V30 981 C 105.23 1.70754 -2.95052 0
M  V30 982 H 106.423 -0.100058 -2.99733 0
M  V30 983 H 103.976 -0.0896198 -1.56043 0
M  V30 984 H 104.711 2.35474 -2.22986 0
M  V30 985 H 104.496 1.33946 -3.68512 0
M  V30 986 H 105.986 2.30818 -3.48013 0
M  V30 987 N 106.423 1.57458 -0.0668435 0
M  V30 988 C 107.663 1.95175 0.607116 0
M  V30 989 C 108.027 0.946039 1.67075 0
M  V30 990 O 109.228 1.2107 2.39991 0
M  V30 991 C 107.499 3.37582 1.17358 0
M  V30 992 S 109.058 3.97271 1.86336 0
M  V30 993 H 105.876 0.682604 0.19893 0
M  V30 994 H 108.478 1.95002 -0.139519 0
M  V30 995 H 107.182 4.08566 0.387553 0
M  V30 996 H 106.713 3.41288 1.95669 0
M  V30 997 H 108.728 3.83772 3.14537 0
M  V30 998 N 107.901 -0.206675 1.56239 0
M  V30 999 C 108.864 -1.23976 1.92776 0
M  V30 1000 C 109.864 -1.39041 0.807729 0
M  V30 1001 O 111.054 -1.37051 1.0753 0
M  V30 1002 C 108.186 -2.61112 2.19165 0
M  V30 1003 H 109.379 -0.927764 2.85189 0
M  V30 1004 H 106.932 -0.447718 1.4975 0
M  V30 1005 H 107.667 -2.97386 1.29352 0
M  V30 1006 H 107.452 -2.51552 3.00772 0
M  V30 1007 H 108.942 -3.35633 2.48476 0
M  V30 1008 N 109.379 -1.50304 -0.473955 0
M  V30 1009 C 110.619 -1.62786 -1.23612 0
M  V30 1010 C 110.983 -0.319786 -1.89318 0
M  V30 1011 O 112.184 -0.320012 -2.66888 0
M  V30 1012 C 110.455 -2.77351 -2.25414 0
M  V30 1013 S 112.014 -3.09948 -3.10608 0
M  V30 1014 H 108.832 -0.573895 -0.419721 0
M  V30 1015 H 111.434 -1.88076 -0.533623 0
M  V30 1016 H 110.138 -3.70879 -1.75719 0
M  V30 1017 H 109.669 -2.54137 -3.00296 0
M  V30 1018 H 111.684 -2.53553 -4.26527 0
M  V30 1019 N 110.857 0.726932 -1.39834 0
M  V30 1020 C 112.134 1.47902 -1.28001 0
M  V30 1021 C 112.514 2.1083 0.106789 0
M  V30 1022 O 111.862 1.99242 1.11869 0
M  V30 1023 C 112.072 2.52392 -2.41038 0
M  V30 1024 C 113.42 3.18546 -2.80737 0
M  V30 1025 O 114.444 2.62708 -2.40547 0
M  V30 1026 O 113.303 4.19604 -3.50135 0
M  V30 1027 H 110.397 0.657163 -0.502062 0
M  V30 1028 H 112.943 0.760071 -1.51727 0
M  V30 1029 H 111.715 2.04329 -3.33715 0
M  V30 1030 H 111.338 3.31837 -2.19021 0
M  V30 1031 N 112.336 1.25143 0.95797 0
M  V30 1032 C 113.268 1.01023 2.05735 0
M  V30 1033 C 114.281 -0.0236902 1.62783 0
M  V30 1034 O 115.47 0.21448 1.77207 0
M  V30 1035 C 112.57 0.504595 3.35122 0
M  V30 1036 C 111.743 1.6039 4.06932 0
M  V30 1037 C 110.802 1.09922 5.14591 0
M  V30 1038 O 109.828 1.79293 5.40225 0
M  V30 1039 N 111.03 -0.0612545 5.80468 0
M  V30 1040 H 113.795 1.95683 2.26998 0
M  V30 1041 H 111.356 1.16303 1.12629 0
M  V30 1042 H 113.348 0.151516 4.04416 0
M  V30 1043 H 111.918 -0.347989 3.10657 0
M  V30 1044 H 111.138 2.12872 3.31782 0
M  V30 1045 H 112.426 2.34252 4.51667 0
M  V30 1046 H 111.824 -0.640985 5.62057 0
M  V30 1047 H 110.381 -0.355395 6.5083 0
M  V30 1048 N 113.814 -1.1601 1.06675 0
M  V30 1049 C 114.761 -2.20525 0.680967 0
M  V30 1050 C 115.731 -1.62904 -0.324283 0
M  V30 1051 O 116.916 -1.89615 -0.212294 0
M  V30 1052 C 114.056 -3.45013 0.0776551 0
M  V30 1053 C 113.169 -4.16863 1.13355 0
M  V30 1054 C 112.304 -5.2888 0.49597 0
M  V30 1055 C 111.343 -5.92537 1.53513 0
M  V30 1056 N 110.48 -6.96038 0.920631 0
M  V30 1057 H 115.32 -2.52876 1.57663 0
M  V30 1058 H 112.857 -1.24199 0.788223 0
M  V30 1059 H 114.815 -4.16193 -0.289704 0
M  V30 1060 H 113.445 -3.132 -0.781393 0
M  V30 1061 H 112.497 -3.44248 1.61857 0
M  V30 1062 H 113.809 -4.60294 1.92174 0
M  V30 1063 H 112.963 -6.06653 0.0758604 0
M  V30 1064 H 111.702 -4.86622 -0.324062 0
M  V30 1065 H 110.707 -5.13482 1.9651 0
M  V30 1066 H 111.932 -6.36873 2.35733 0
M  V30 1067 H 109.878 -6.55888 0.12138 0
M  V30 1068 H 109.795 -7.3786 1.64616 0
M  V30 1069 H 111.063 -7.77725 0.525795 0
M  V30 1070 N 115.292 -0.849877 -1.32721 0
M  V30 1071 C 116.703 -0.506188 -1.79707 0
M  V30 1072 C 117.054 0.975627 -1.70223 0
M  V30 1073 O 116.179 1.76078 -1.25799 0
M  V30 1074 C 116.774 -0.912044 -3.26293 0
M  V30 1075 C 115.333 -0.620326 -3.71253 0
M  V30 1076 C 114.48 -1.11439 -2.53922 0
M  V30 1077 H 117.431 -1.03754 -1.20087 0
M  V30 1078 H 117.452 -0.226493 -3.79825 0
M  V30 1079 H 116.964 -1.99057 -3.33164 0
M  V30 1080 H 115.065 0.447674 -3.69901 0
M  V30 1081 H 115.178 -1.18327 -4.64258 0
M  V30 1082 H 113.542 -0.534834 -2.49021 0
M  V30 1083 H 114.325 -2.19992 -2.6355 0
M  V30 1084 N 116.77 1.45427 -0.607355 0
M  V30 1085 C 118.01 2.04128 -0.105458 0
M  V30 1086 C 118.374 1.46555 1.24039 0
M  V30 1087 O 119.575 1.96608 1.833 0
M  V30 1088 C 117.846 3.57338 -0.0665324 0
M  V30 1089 S 119.405 4.37201 0.374207 0
M  V30 1090 H 116.223 0.709278 -0.0494575 0
M  V30 1091 H 118.825 1.78139 -0.805404 0
M  V30 1092 H 117.529 3.96752 -1.04957 0
M  V30 1093 H 117.06 3.87902 0.655415 0
M  V30 1094 H 119.075 4.6888 1.62377 0
M  V30 1095 N 118.248 0.346503 1.53744 0
M  V30 1096 C 119.473 -0.253074 2.0585 0
M  V30 1097 C 119.898 -1.43202 1.21962 0
M  V30 1098 O 119.256 -1.79783 0.234073 0
M  V30 1099 C 119.304 -0.643193 3.54817 0
M  V30 1100 O 118.408 -1.74286 3.73762 0
M  V30 1101 H 117.749 -0.0413583 0.662711 0
M  V30 1102 H 120.279 0.501574 1.98357 0
M  V30 1103 H 120.289 -0.919526 3.97503 0
M  V30 1104 H 118.964 0.218966 4.15323 0
M  V30 1105 H 117.541 -1.46356 3.42979 0
M  V30 1106 N 119.726 -1.57421 0.075193 0
M  V30 1107 C 120.966 -1.95495 -0.596757 0
M  V30 1108 C 121.33 -0.954886 -1.66571 0
M  V30 1109 O 122.531 -1.22341 -2.39345 0
M  V30 1110 C 120.802 -3.382 -1.15566 0
M  V30 1111 S 122.361 -3.98254 -1.84226 0
M  V30 1112 H 119.179 -0.683649 -0.195307 0
M  V30 1113 H 121.781 -1.94925 0.149859 0
M  V30 1114 H 120.485 -4.08766 -0.36588 0
M  V30 1115 H 120.016 -3.42321 -1.93856 0
M  V30 1116 H 122.031 -3.85435 -3.12497 0
M  V30 1117 N 121.204 0.198386 -1.56346 0
M  V30 1118 C 122.429 0.939682 -1.84891 0
M  V30 1119 C 122.854 1.76202 -0.658369 0
M  V30 1120 O 122.212 1.76993 0.392851 0
M  V30 1121 C 122.26 1.81428 -3.11635 0
M  V30 1122 O 121.364 2.91265 -2.91956 0
M  V30 1123 H 120.705 0.264807 -0.608912 0
M  V30 1124 H 123.235 0.204695 -2.03573 0
M  V30 1125 H 123.245 2.21958 -3.42343 0
M  V30 1126 H 121.92 1.21004 -3.97908 0
M  V30 1127 H 120.497 2.54514 -2.72538 0
M  V30 1128 N 122.682 1.50554 0.465978 0
M  V30 1129 C 123.629 1.6979 1.56333 0
M  V30 1130 C 124.599 0.539239 1.57103 0
M  V30 1131 O 125.784 0.770401 1.74555 0
M  V30 1132 C 122.924 1.80273 2.94271 0
M  V30 1133 C 122.037 3.07674 3.0325 0
M  V30 1134 C 121.172 3.08922 4.32135 0
M  V30 1135 C 120.211 4.30755 4.34875 0
M  V30 1136 N 119.348 4.29714 5.55239 0
M  V30 1137 H 124.188 2.63472 1.39235 0
M  V30 1138 H 121.725 1.30602 0.676873 0
M  V30 1139 H 123.683 1.84332 3.74269 0
M  V30 1140 H 122.313 0.900258 3.09992 0
M  V30 1141 H 121.365 3.13062 2.16094 0
M  V30 1142 H 122.677 3.97642 3.01135 0
M  V30 1143 H 121.831 3.11738 5.20485 0
M  V30 1144 H 120.57 2.16792 4.36866 0
M  V30 1145 H 119.575 4.28146 3.44922 0
M  V30 1146 H 120.8 5.24117 4.31831 0
M  V30 1147 H 118.746 3.4044 5.60746 0
M  V30 1148 H 118.663 5.13456 5.54886 0
M  V30 1149 H 119.931 4.36683 6.457 0
M  V30 1150 N 124.16 -0.719506 1.40217 0
M  V30 1151 C 125.406 -1.48152 1.38488 0
M  V30 1152 C 125.739 -1.94195 -0.0141867 0
M  V30 1153 O 125.014 -1.67884 -0.982096 0
M  V30 1154 C 125.297 -2.71035 2.37091 0
M  V30 1155 C 125.15 -2.30912 3.86005 0
M  V30 1156 C 126.469 -3.73182 2.33288 0
M  V30 1157 H 123.588 -0.537395 0.504357 0
M  V30 1158 H 126.23 -0.821472 1.71324 0
M  V30 1159 H 124.38 -3.27352 2.0922 0
M  V30 1160 H 126.052 -1.80107 4.24687 0
M  V30 1161 H 124.295 -1.62958 4.02029 0
M  V30 1162 H 124.966 -3.18978 4.50508 0
M  V30 1163 H 127.442 -3.26485 2.57966 0
M  V30 1164 H 126.318 -4.56806 3.04334 0
M  V30 1165 H 126.579 -4.21202 1.34317 0
M  V30 1166 N 125.638 -1.25649 -0.95132 0
M  V30 1167 C 126.915 -1.01361 -1.67288 0
M  V30 1168 C 127.295 0.459135 -2.06046 0
M  V30 1169 O 126.643 1.43723 -1.7764 0
M  V30 1170 C 126.853 -1.95256 -2.89268 0
M  V30 1171 C 128.201 -2.23289 -3.61147 0
M  V30 1172 O 129.225 -1.93041 -2.99355 0
M  V30 1173 O 128.084 -2.74741 -4.72419 0
M  V30 1174 H 125.178 -0.38464 -0.732107 0
M  V30 1175 H 127.724 -1.36817 -1.00395 0
M  V30 1176 H 126.496 -2.94685 -2.57442 0
M  V30 1177 H 126.119 -1.60218 -3.6389 0
M  V30 1178 N 127.117 1.15442 -1.07289 0
M  V30 1179 C 128.363 1.86489 -0.796846 0
M  V30 1180 C 128.696 1.82078 0.675371 0
M  V30 1181 O 127.971 1.24346 1.4956 0
M  V30 1182 C 128.254 3.35626 -1.30489 0
M  V30 1183 C 128.107 3.48673 -2.84161 0
M  V30 1184 C 129.426 4.30357 -0.920907 0
M  V30 1185 H 126.545 0.677144 -0.290939 0
M  V30 1186 H 129.187 1.35633 -1.33056 0
M  V30 1187 H 127.337 3.79068 -0.850883 0
M  V30 1188 H 129.009 3.14099 -3.37846 0
M  V30 1189 H 127.252 2.90253 -3.22391 0
M  V30 1190 H 127.923 4.53453 -3.14777 0
M  V30 1191 H 130.399 3.94871 -1.3121 0
M  V30 1192 H 129.275 5.33193 -1.30372 0
M  V30 1193 H 129.536 4.4176 0.173226 0
M  V30 1194 N 128.595 0.856903 1.32268 0
M  V30 1195 C 129.543 0.291987 2.3076 0
M  V30 1196 C 130.537 -0.585857 1.58947 0
M  V30 1197 O 131.743 -0.47341 1.73663 0
M  V30 1198 H 128.118 0.075721 0.748178 0
M  V30 1199 H 130.089 1.13687 2.75895 0
M  V30 1200 C 128.838 -0.502869 3.44044 0
M  V30 1201 H 128.161 0.163328 3.99466 0
M  V30 1202 H 129.601 -0.863691 4.1511 0
M  V30 1203 C 128.06 -1.68898 2.91505 0
M  V30 1204 O 128.59 -2.78811 2.89184 0
M  V30 1205 N 126.796 -1.51679 2.47875 0
M  V30 1206 H 126.343 -0.622666 2.49961 0
M  V30 1207 H 126.301 -2.31184 2.13076 0
M  V30 1208 N 130.073 -1.45103 0.615059 0
M  V30 1209 C 131.303 -2.06254 0.119596 0
M  V30 1210 C 131.711 -1.4591 -1.20445 0
M  V30 1211 O 131.054 -0.570384 -1.7462 0
M  V30 1212 C 131.116 -3.59396 -0.0865591 0
M  V30 1213 C 130.78 -4.42116 1.15683 0
M  V30 1214 C 131.777 -4.7662 2.07676 0
M  V30 1215 C 129.462 -4.82749 1.38775 0
M  V30 1216 C 131.456 -5.50622 3.21082 0
M  V30 1217 C 129.143 -5.56504 2.52481 0
M  V30 1218 C 130.141 -5.90358 3.43463 0
M  V30 1219 O 129.829 -6.62615 4.55189 0
M  V30 1220 H 129.561 -0.672423 0.0694512 0
M  V30 1221 H 132.115 -1.87219 0.844885 0
M  V30 1222 H 130.345 -3.76859 -0.866823 0
M  V30 1223 H 132.034 -4.02365 -0.534555 0
M  V30 1224 H 132.8 -4.4578 1.91063 0
M  V30 1225 H 128.679 -4.55829 0.688545 0
M  V30 1226 H 132.223 -5.76965 3.92119 0
M  V30 1227 H 128.12 -5.86759 2.69043 0
M  V30 1228 H 128.888 -6.81071 4.53966 0
M  V30 1229 N 131.551 -0.354651 -1.53558 0
M  V30 1230 C 132.514 0.484566 -2.24019 0
M  V30 1231 C 133.514 1.01861 -1.24422 0
M  V30 1232 O 134.704 0.906097 -1.4878 0
M  V30 1233 C 131.836 1.67615 -2.96847 0
M  V30 1234 H 133.029 -0.131843 -2.9961 0
M  V30 1235 H 130.582 -0.106165 -1.55939 0
M  V30 1236 H 131.317 2.33095 -2.25471 0
M  V30 1237 H 131.102 1.30029 -3.69912 0
M  V30 1238 H 132.592 2.27114 -3.50441 0
M  V30 1239 N 133.029 1.57378 -0.0835403 0
M  V30 1240 C 134.276 1.9393 0.58287 0
M  V30 1241 C 134.604 0.964455 1.68904 0
M  V30 1242 O 133.859 -0.0179474 1.95692 0
M  V30 1243 C 134.158 3.37063 1.1884 0
M  V30 1244 C 133.824 4.50424 0.207194 0
M  V30 1245 C 132.486 4.81159 -0.0627115 0
M  V30 1246 C 134.838 5.19136 -0.463426 0
M  V30 1247 C 132.166 5.77939 -1.01012 0
M  V30 1248 C 134.518 6.16931 -1.39924 0
M  V30 1249 C 133.182 6.46078 -1.67749 0
M  V30 1250 H 132.452 0.70964 0.213287 0
M  V30 1251 H 135.099 1.90856 -0.156916 0
M  V30 1252 H 133.404 3.3666 2.00418 0
M  V30 1253 H 135.101 3.6264 1.71153 0
M  V30 1254 H 131.691 4.2646 0.427747 0
M  V30 1255 H 135.875 4.95576 -0.268034 0
M  V30 1256 H 131.131 5.98842 -1.23283 0
M  V30 1257 H 135.305 6.69273 -1.92476 0
M  V30 1258 H 132.932 7.2088 -2.41321 0
M  V30 1259 N 134.507 -0.190092 1.56449 0
M  V30 1260 C 135.437 -1.23816 1.97969 0
M  V30 1261 C 136.418 -1.47201 0.852395 0
M  V30 1262 O 137.603 -1.58854 1.1171 0
M  V30 1263 C 134.733 -2.5813 2.3235 0
M  V30 1264 C 133.687 -2.49348 3.47864 0
M  V30 1265 C 133.013 -3.8798 3.67934 0
M  V30 1266 C 134.313 -2.01424 4.81898 0
M  V30 1267 H 136.007 -0.89311 2.85769 0
M  V30 1268 H 133.553 -0.428177 1.37487 0
M  V30 1269 H 135.506 -3.31637 2.59991 0
M  V30 1270 H 134.23 -2.94386 1.41438 0
M  V30 1271 H 132.889 -1.78297 3.20321 0
M  V30 1272 H 132.537 -4.21597 2.74344 0
M  V30 1273 H 132.237 -3.82978 4.45648 0
M  V30 1274 H 133.761 -4.63101 3.97957 0
M  V30 1275 H 135.175 -2.64693 5.08538 0
M  V30 1276 H 133.572 -2.07413 5.63116 0
M  V30 1277 H 134.642 -0.967677 4.75146 0
M  V30 1278 N 135.985 -1.50799 -0.457987 0
M  V30 1279 C 136.935 -1.67003 -1.55222 0
M  V30 1280 C 137.919 -0.52434 -1.52117 0
M  V30 1281 O 139.111 -0.779345 -1.58919 0
M  V30 1282 C 136.24 -1.77956 -2.93576 0
M  V30 1283 C 135.326 -2.98243 -3.01516 0
M  V30 1284 N 135.717 -4.21732 -2.79241 0
M  V30 1285 C 134.015 -2.97072 -3.32662 0
M  V30 1286 C 134.716 -5.02817 -2.92489 0
M  V30 1287 N 133.692 -4.37038 -3.23262 0
M  V30 1288 H 137.494 -2.60163 -1.36721 0
M  V30 1289 H 135.008 -1.48163 -0.664952 0
M  V30 1290 H 137.005 -1.87671 -3.72271 0
M  V30 1291 H 135.665 -0.859634 -3.13114 0
M  V30 1292 H 136.676 -4.51016 -2.54567 0
M  V30 1293 H 133.353 -2.14631 -3.58106 0
M  V30 1294 H 134.743 -6.11054 -2.79396 0
M  V30 1295 N 137.463 0.71206 -1.40597 0
M  V30 1296 C 138.426 1.80785 -1.40888 0
M  V30 1297 C 139.426 1.57937 -0.302103 0
M  V30 1298 O 140.616 1.64913 -0.561182 0
M  V30 1299 C 137.748 3.18927 -1.20409 0
M  V30 1300 H 138.941 1.81924 -2.38419 0
M  V30 1301 H 136.494 0.91805 -1.26497 0
M  V30 1302 H 137.229 3.23436 -0.236522 0
M  V30 1303 H 137.014 3.36911 -2.00582 0
M  V30 1304 H 138.504 3.98949 -1.23408 0
M  V30 1305 N 138.941 1.26152 0.944643 0
M  V30 1306 C 140.169 1.14259 1.72489 0
M  V30 1307 C 140.584 -0.302555 1.8636 0
M  V30 1308 O 139.941 -1.20741 1.36849 0
M  V30 1309 C 139.992 1.80266 3.13347 0
M  V30 1310 O 139.713 3.19133 3.00143 0
M  V30 1311 C 141.214 1.74283 4.07603 0
M  V30 1312 H 138.434 0.398051 0.540181 0
M  V30 1313 H 140.978 1.66706 1.18446 0
M  V30 1314 H 139.133 1.31766 3.64303 0
M  V30 1315 H 139.547 3.51744 3.89071 0
M  V30 1316 H 141.021 2.25111 5.04013 0
M  V30 1317 H 141.498 0.708631 4.33446 0
M  V30 1318 H 142.104 2.22319 3.62567 0
M  V30 1319 N 140.419 -1.14872 1.07899 0
M  V30 1320 C 141.696 -1.81928 0.71845 0
M  V30 1321 C 142.076 -1.95417 -0.798455 0
M  V30 1322 O 141.424 -1.50997 -1.715 0
M  V30 1323 C 141.634 -3.17937 1.43935 0
M  V30 1324 C 142.982 -3.93501 1.59506 0
M  V30 1325 O 144.006 -3.27509 1.40058 0
M  V30 1326 O 142.865 -5.1183 1.91551 0
M  V30 1327 H 139.959 -0.78628 0.256305 0
M  V30 1328 H 142.505 -1.21934 1.18026 0
M  V30 1329 H 141.277 -3.0325 2.47295 0
M  V30 1330 H 140.9 -3.85619 0.968687 0
M  V30 1331 N 141.898 -0.863906 -1.31812 0
M  V30 1332 C 142.828 -0.330843 -2.31144 0
M  V30 1333 C 143.809 0.575005 -1.60087 0
M  V30 1334 O 144.994 0.493304 -1.8783 0
M  V30 1335 C 142.124 0.47374 -3.44054 0
M  V30 1336 C 141.078 -0.338481 -4.26659 0
M  V30 1337 C 140.404 0.591412 -5.31419 0
M  V30 1338 C 141.704 -1.56926 -4.98168 0
M  V30 1339 H 143.398 -1.16086 -2.75979 0
M  V30 1340 H 140.944 -0.559657 -1.32679 0
M  V30 1341 H 142.897 0.857143 -4.12591 0
M  V30 1342 H 141.621 1.33721 -2.9797 0
M  V30 1343 H 140.28 -0.703754 -3.59782 0
M  V30 1344 H 139.928 1.45199 -4.81587 0
M  V30 1345 H 139.628 0.0519022 -5.87577 0
M  V30 1346 H 141.152 0.97179 -6.02817 0
M  V30 1347 H 142.566 -1.25764 -5.59336 0
M  V30 1348 H 140.963 -2.04739 -5.64094 0
M  V30 1349 H 142.033 -2.32544 -4.25501 0
M  V30 1350 N 143.376 1.44774 -0.622745 0
M  V30 1351 C 144.306 2.33382 0.0741861 0
M  V30 1352 C 145.287 1.47719 0.843387 0
M  V30 1353 O 146.472 1.76458 0.810934 0
M  V30 1354 C 143.602 3.30663 1.06204 0
M  V30 1355 C 142.556 4.26079 0.405037 0
M  V30 1356 C 141.882 5.13165 1.5022 0
M  V30 1357 C 143.182 5.1781 -0.683414 0
M  V30 1358 H 144.876 2.91905 -0.665713 0
M  V30 1359 H 142.422 1.40363 -0.321587 0
M  V30 1360 H 144.375 3.9153 1.55827 0
M  V30 1361 H 143.099 2.70331 1.83272 0
M  V30 1362 H 141.758 3.66532 -0.0704683 0
M  V30 1363 H 141.406 4.49191 2.26355 0
M  V30 1364 H 141.106 5.77812 1.06803 0
M  V30 1365 H 142.63 5.76902 2.00041 0
M  V30 1366 H 144.044 5.72661 -0.270631 0
M  V30 1367 H 142.441 5.91015 -1.04023 0
M  V30 1368 H 143.511 4.59326 -1.55395 0
M  V30 1369 N 144.854 0.36279 1.53368 0
M  V30 1370 C 146.265 -0.117022 1.86333 0
M  V30 1371 C 146.616 -1.48397 1.28347 0
M  V30 1372 O 145.741 -2.07787 0.604428 0
M  V30 1373 C 146.336 -0.21912 3.38091 0
M  V30 1374 C 144.895 -0.643184 3.70864 0
M  V30 1375 C 144.042 0.211318 2.76494 0
M  V30 1376 H 146.993 0.581687 1.47655 0
M  V30 1377 H 147.014 -1.04319 3.6592 0
M  V30 1378 H 146.526 0.775902 3.80265 0
M  V30 1379 H 144.627 -1.64654 3.34245 0
M  V30 1380 H 144.74 -0.41973 4.77258 0
M  V30 1381 H 143.104 -0.319367 2.5269 0
M  V30 1382 H 143.887 1.20383 3.21501 0
M  V30 1383 N 146.332 -1.57332 0.0918853 0
M  V30 1384 C 147.295 -2.12708 -0.85369 0
M  V30 1385 C 148.295 -1.05561 -1.213 0
M  V30 1386 O 149.485 -1.31461 -1.14296 0
M  V30 1387 C 146.617 -2.64503 -2.15061 0
M  V30 1388 H 147.81 -2.97573 -0.3729 0
M  V30 1389 H 145.363 -1.55509 -0.157072 0
M  V30 1390 H 146.098 -1.83149 -2.67632 0
M  V30 1391 H 145.883 -3.4284 -1.90272 0
M  V30 1392 H 147.373 -3.07351 -2.82711 0
M  V30 1393 N 147.81 0.181792 -1.56548 0
M  V30 1394 C 149.05 0.906711 -1.83189 0
M  V30 1395 C 149.414 1.79882 -0.671312 0
M  V30 1396 O 150.615 2.56054 -0.81792 0
M  V30 1397 C 148.886 1.69023 -3.14906 0
M  V30 1398 S 150.445 2.46535 -3.62996 0
M  V30 1399 H 147.263 0.303877 -0.642791 0
M  V30 1400 H 149.865 0.169107 -1.94767 0
M  V30 1401 H 148.569 1.02571 -3.97376 0
M  V30 1402 H 148.1 2.46941 -3.06241 0
M  V30 1403 H 150.115 3.71014 -3.29489 0
M  V30 1404 N 149.288 1.51039 0.449983 0
M  V30 1405 C 150.565 1.53612 1.21089 0
M  V30 1406 C 150.945 0.292997 2.09057 0
M  V30 1407 O 150.293 -0.72259 2.16774 0
M  V30 1408 C 150.503 2.84337 2.0237 0
M  V30 1409 C 151.851 3.35807 2.59843 0
M  V30 1410 O 152.875 2.85802 2.12593 0
M  V30 1411 O 151.734 4.23029 3.45989 0
M  V30 1412 H 148.828 0.617057 0.550608 0
M  V30 1413 H 151.374 1.63344 0.460082 0
M  V30 1414 H 150.146 3.66278 1.37681 0
M  V30 1415 H 149.769 2.77708 2.84542 0
M  V30 1416 N 150.766 -0.704594 1.40972 0
M  V30 1417 C 152.014 -1.46169 1.39568 0
M  V30 1418 C 152.335 -1.95 0.00253745 0
M  V30 1419 O 151.605 -1.71095 -0.954114 0
M  V30 1420 H 150.185 -0.542326 0.513704 0
M  V30 1421 H 152.847 -0.834553 1.76128 0
M  V30 1422 H 151.943 -2.32922 2.07735 0
M  V30 1423 N 152.244 -1.26651 -0.937939 0
M  V30 1424 C 153.154 -1.10276 -2.07066 0
M  V30 1425 C 154.17 -0.0354197 -1.73964 0
M  V30 1426 O 155.346 -0.239816 -1.99967 0
M  V30 1427 C 152.411 -0.740887 -3.38691 0
M  V30 1428 C 151.472 -1.88799 -3.85556 0
M  V30 1429 C 150.705 -1.54329 -5.10899 0
M  V30 1430 O 150.928 -0.446494 -5.6865 0
M  V30 1431 O 149.862 -2.37911 -5.52885 0
M  V30 1432 H 153.688 -2.05309 -2.23789 0
M  V30 1433 H 151.273 -1.05743 -1.0554 0
M  V30 1434 H 153.155 -0.55195 -4.1777 0
M  V30 1435 H 151.83 0.180022 -3.23199 0
M  V30 1436 H 150.737 -2.13191 -3.07409 0
M  V30 1437 H 152.07 -2.78874 -4.05574 0
M  V30 1438 N 153.722 1.14298 -1.08507 0
M  V30 1439 C 155.138 1.37347 -0.812901 0
M  V30 1440 C 155.338 1.93052 0.577325 0
M  V30 1441 O 154.394 2.14389 1.33393 0
M  V30 1442 C 155.707 2.33359 -1.89642 0
M  V30 1443 C 157.255 2.46996 -1.92255 0
M  V30 1444 C 157.73 3.46309 -2.99724 0
M  V30 1445 N 159.221 3.53853 -2.98902 0
M  V30 1446 C 159.956 4.3055 -3.787 0
M  V30 1447 N 159.452 5.10482 -4.6838 0
M  V30 1448 N 161.245 4.25757 -3.66998 0
M  V30 1449 H 153.396 0.764867 -1.9815 0
M  V30 1450 H 155.659 0.398966 -0.859959 0
M  V30 1451 H 155.365 1.99565 -2.89597 0
M  V30 1452 H 155.239 3.33274 -1.76659 0
M  V30 1453 H 157.626 2.80081 -0.929445 0
M  V30 1454 H 157.707 1.47039 -2.09316 0
M  V30 1455 H 157.351 3.13957 -3.99241 0
M  V30 1456 H 157.281 4.46049 -2.79907 0
M  V30 1457 H 159.772 2.96812 -2.33904 0
M  V30 1458 H 160.085 5.66284 -5.25873 0
M  V30 1459 H 158.43 5.09747 -4.72422 0
M  V30 1460 H 161.621 3.62383 -2.96304 0
M  V30 1461 H 161.794 4.85279 -4.29427 0
M  V30 1462 N 155.201 0.870884 1.31352 0
M  V30 1463 C 156.612 0.534714 1.78879 0
M  V30 1464 C 156.963 -0.948423 1.71754 0
M  V30 1465 O 156.088 -1.74055 1.28584 0
M  V30 1466 C 156.683 0.963839 3.24801 0
M  V30 1467 C 155.242 0.679311 3.70219 0
M  V30 1468 C 154.389 1.15465 2.52117 0
M  V30 1469 H 157.34 1.05651 1.18421 0
M  V30 1470 H 157.361 0.286892 3.79417 0
M  V30 1471 H 156.873 2.04332 3.29955 0
M  V30 1472 H 154.974 -0.388769 3.70566 0
M  V30 1473 H 155.087 1.25698 4.62317 0
M  V30 1474 H 153.451 0.574383 2.48139 0
M  V30 1475 H 154.234 2.24157 2.60016 0
M  V30 1476 N 156.679 -1.44442 0.630414 0
M  V30 1477 C 157.907 -2.06414 0.141671 0
M  V30 1478 C 158.322 -1.47105 -1.18345 0
M  V30 1479 O 157.679 -0.593662 -1.72574 0
M  V30 1480 C 157.73 -3.61494 0.0199784 0
M  V30 1481 O 157.451 -4.18594 1.29269 0
M  V30 1482 C 158.952 -4.40499 -0.497544 0
M  V30 1483 H 156.172 -0.666292 0.0793452 0
M  V30 1484 H 158.716 -1.85323 0.864614 0
M  V30 1485 H 156.871 -3.8185 -0.653402 0
M  V30 1486 H 157.285 -5.12026 1.13707 0
M  V30 1487 H 158.759 -5.49433 -0.531708 0
M  V30 1488 H 159.236 -4.11895 -1.52445 0
M  V30 1489 H 159.842 -4.25061 0.142562 0
M  V30 1490 N 158.157 -0.370918 -1.53173 0
M  V30 1491 C 159.087 0.464847 -2.28826 0
M  V30 1492 C 160.068 1.07936 -1.31468 0
M  V30 1493 O 161.253 1.0956 -1.60344 0
M  V30 1494 C 158.383 1.60196 -3.08147 0
M  V30 1495 C 157.337 1.11443 -4.13237 0
M  V30 1496 C 156.663 2.3422 -4.80672 0
M  V30 1497 C 157.963 0.195384 -5.21934 0
M  V30 1498 H 159.657 -0.166329 -2.98938 0
M  V30 1499 H 157.203 -0.0814359 -1.4377 0
M  V30 1500 H 159.156 2.19332 -3.59822 0
M  V30 1501 H 157.88 2.26045 -2.35735 0
M  V30 1502 H 156.539 0.545727 -3.62515 0
M  V30 1503 H 156.187 2.98537 -4.04827 0
M  V30 1504 H 155.887 2.02269 -5.51689 0
M  V30 1505 H 157.411 2.94032 -5.35143 0
M  V30 1506 H 158.825 0.694375 -5.69079 0
M  V30 1507 H 157.222 -0.0335027 -6.00091 0
M  V30 1508 H 158.292 -0.760961 -4.78892 0
M  V30 1509 N 159.635 1.57281 -0.100228 0
M  V30 1510 C 160.598 2.13158 0.842398 0
M  V30 1511 C 161.598 1.06202 1.20738 0
M  V30 1512 O 162.788 1.32066 1.13597 0
M  V30 1513 C 159.92 2.65639 2.13655 0
M  V30 1514 H 161.113 2.97766 0.357114 0
M  V30 1515 H 158.666 1.5559 0.148823 0
M  V30 1516 H 159.401 1.84566 2.66657 0
M  V30 1517 H 159.186 3.43844 1.88451 0
M  V30 1518 H 160.676 3.08846 2.81077 0
M  V30 1519 N 161.113 -0.173488 1.56642 0
M  V30 1520 C 162.36 -0.890465 1.81871 0
M  V30 1521 C 162.688 -1.82339 0.67696 0
M  V30 1522 O 161.943 -1.92795 -0.335926 0
M  V30 1523 C 162.242 -1.72069 3.13252 0
M  V30 1524 C 161.908 -0.936878 4.41059 0
M  V30 1525 C 160.57 -0.720545 4.75775 0
M  V30 1526 C 162.922 -0.386919 5.19762 0
M  V30 1527 C 160.25 0.0568829 5.86672 0
M  V30 1528 C 162.602 0.37741 6.31473 0
M  V30 1529 C 161.266 0.604563 6.64757 0
M  V30 1530 H 160.536 -0.325844 0.665512 0
M  V30 1531 H 163.183 -0.155527 1.90867 0
M  V30 1532 H 161.488 -2.52496 2.99588 0
M  V30 1533 H 163.185 -2.27844 3.29982 0
M  V30 1534 H 159.775 -1.11553 4.13828 0
M  V30 1535 H 163.959 -0.541398 4.93338 0
M  V30 1536 H 159.215 0.242635 6.10918 0
M  V30 1537 H 163.389 0.810825 6.91664 0
M  V30 1538 H 161.016 1.20885 7.50527 0
M  V30 1539 N 162.591 -1.51276 -0.441967 0
M  V30 1540 C 163.521 -1.752 -1.54361 0
M  V30 1541 C 164.502 -0.601682 -1.59103 0
M  V30 1542 O 165.687 -0.843913 -1.74905 0
M  V30 1543 C 162.817 -1.87282 -2.92477 0
M  V30 1544 C 161.771 -3.02687 -3.02596 0
M  V30 1545 C 161.097 -2.99947 -4.42647 0
M  V30 1546 C 162.397 -4.4273 -2.77106 0
M  V30 1547 H 164.091 -2.67442 -1.34592 0
M  V30 1548 H 161.637 -1.28694 -0.646048 0
M  V30 1549 H 163.59 -2.02602 -3.695 0
M  V30 1550 H 162.314 -0.916844 -3.13467 0
M  V30 1551 H 160.973 -2.87065 -2.28012 0
M  V30 1552 H 160.621 -2.02136 -4.60597 0
M  V30 1553 H 160.321 -3.77439 -4.50348 0
M  V30 1554 H 161.845 -3.17354 -5.2165 0
M  V30 1555 H 163.259 -4.58727 -3.43864 0
M  V30 1556 H 161.656 -5.21893 -2.96222 0
M  V30 1557 H 162.726 -4.53087 -1.72744 0
M  V30 1558 N 164.069 0.697108 -1.41344 0
M  V30 1559 C 165.001 1.8224 -1.39001 0
M  V30 1560 C 166.014 1.60152 -0.292428 0
M  V30 1561 O 167.203 1.69684 -0.554048 0
M  V30 1562 C 164.303 3.18976 -1.14489 0
M  V30 1563 C 163.476 3.68105 -2.36258 0
M  V30 1564 C 162.535 4.83506 -2.07625 0
M  V30 1565 O 161.561 4.95201 -2.8065 0
M  V30 1566 N 162.763 5.70637 -1.06555 0
M  V30 1567 H 165.528 1.84742 -2.35988 0
M  V30 1568 H 163.089 0.87937 -1.35936 0
M  V30 1569 H 165.081 3.93801 -0.932885 0
M  V30 1570 H 163.651 3.11508 -0.261043 0
M  V30 1571 H 162.871 2.84204 -2.7317 0
M  V30 1572 H 164.159 3.97667 -3.17393 0
M  V30 1573 H 163.557 5.63817 -0.461125 0
M  V30 1574 H 162.114 6.45368 -0.913444 0
M  V30 1575 N 165.547 1.27147 0.931209 0
M  V30 1576 C 166.824 1.0401 1.65654 0
M  V30 1577 C 167.204 -0.426297 2.06751 0
M  V30 1578 O 166.552 -1.40879 1.79904 0
M  V30 1579 C 166.762 1.99834 2.86125 0
M  V30 1580 C 168.11 2.29007 3.57549 0
M  V30 1581 O 169.134 1.97779 2.96246 0
M  V30 1582 O 167.993 2.82222 4.67989 0
M  V30 1583 H 165.087 0.396239 0.725895 0
M  V30 1584 H 167.633 1.38397 0.982056 0
M  V30 1585 H 166.405 2.98744 2.52721 0
M  V30 1586 H 166.028 1.65987 3.61295 0
M  V30 1587 N 167.025 -1.13721 1.09112 0
M  V30 1588 C 168.271 -1.85198 0.826414 0
M  V30 1589 C 168.604 -1.83129 -0.646319 0
M  V30 1590 O 167.879 -1.2671 -1.47563 0
M  V30 1591 C 168.162 -3.33507 1.35812 0
M  V30 1592 C 168.015 -3.44108 2.89672 0
M  V30 1593 C 169.334 -4.28838 0.989256 0
M  V30 1594 H 166.453 -0.67243 0.301675 0
M  V30 1595 H 169.095 -1.33499 1.35197 0
M  V30 1596 H 167.245 -3.77666 0.911082 0
M  V30 1597 H 168.917 -3.08684 3.428 0
M  V30 1598 H 167.16 -2.85087 3.26967 0
M  V30 1599 H 167.831 -4.48388 3.21951 0
M  V30 1600 H 170.307 -3.92734 1.37475 0
M  V30 1601 H 169.183 -5.31051 1.38838 0
M  V30 1602 H 169.444 -4.4198 -0.102924 0
M  V30 1603 N 168.503 -0.877838 -1.30888 0
M  V30 1604 C 169.436 -0.283995 -2.26426 0
M  V30 1605 C 170.414 0.591361 -1.51465 0
M  V30 1606 O 171.598 0.54304 -1.80509 0
M  V30 1607 C 168.725 0.597129 -3.33395 0
M  V30 1608 C 167.771 -0.207937 -4.25993 0
M  V30 1609 S 168.604 -1.59158 -5.11301 0
M  V30 1610 C 169.76 -0.716791 -6.21782 0
M  V30 1611 H 169.993 -1.09383 -2.76446 0
M  V30 1612 H 167.526 -0.676828 -1.38775 0
M  V30 1613 H 169.484 1.09978 -3.95493 0
M  V30 1614 H 168.145 1.38099 -2.82113 0
M  V30 1615 H 167.338 0.464163 -5.01858 0
M  V30 1616 H 166.94 -0.642963 -3.68432 0
M  V30 1617 H 169.232 0.0692833 -6.77465 0
M  V30 1618 H 170.175 -1.44682 -6.93161 0
M  V30 1619 H 170.583 -0.280855 -5.63801 0
M  V30 1620 N 169.982 1.44106 -0.638065 0
M  V30 1621 C 170.93 2.3248 0.0748149 0
M  V30 1622 C 171.924 1.47746 0.828702 0
M  V30 1623 O 173.13 1.64049 0.740816 0
M  V30 1624 H 169.505 0.750771 0.0429686 0
M  V30 1625 H 171.476 2.90348 -0.688504 0
M  V30 1626 C 170.225 3.31843 1.03805 0
M  V30 1627 H 169.548 3.97059 0.467375 0
M  V30 1628 H 170.988 3.96345 1.50622 0
M  V30 1629 C 169.447 2.61291 2.1267 0
M  V30 1630 O 169.977 2.41702 3.20847 0
M  V30 1631 N 168.183 2.20915 1.88798 0
M  V30 1632 H 167.73 2.37047 1.00829 0
M  V30 1633 H 167.688 1.74038 2.61836 0
M  V30 1634 N 171.46 0.379036 1.52974 0
M  V30 1635 C 172.709 -0.207612 2.00629 0
M  V30 1636 C 173.022 -1.48758 1.27006 0
M  V30 1637 O 174.228 -2.15365 1.65318 0
M  V30 1638 C 172.684 -0.42053 3.57435 0
M  V30 1639 C 172.292 0.845587 4.39948 0
M  V30 1640 C 174.036 -0.964102 4.13407 0
M  V30 1641 C 171.943 0.601513 5.88333 0
M  V30 1642 H 170.873 -0.0813591 0.749598 0
M  V30 1643 H 173.524 0.499853 1.76561 0
M  V30 1644 H 171.906 -1.18959 3.7771 0
M  V30 1645 H 173.08 1.61848 4.31442 0
M  V30 1646 H 171.395 1.31336 3.95145 0
M  V30 1647 H 173.992 -1.16225 5.21916 0
M  V30 1648 H 174.335 -1.93019 3.68849 0
M  V30 1649 H 174.868 -0.25487 3.96983 0
M  V30 1650 H 171.607 1.53831 6.37194 0
M  V30 1651 H 171.127 -0.132628 5.99653 0
M  V30 1652 H 172.806 0.232134 6.46583 0
M  V30 1653 N 172.938 -1.57226 0.108567 0
M  V30 1654 C 173.868 -2.17778 -0.84232 0
M  V30 1655 C 174.849 -1.11487 -1.2847 0
M  V30 1656 O 176.034 -1.39681 -1.34918 0
M  V30 1657 C 173.164 -2.76888 -2.09644 0
M  V30 1658 C 172.118 -3.88669 -1.79221 0
M  V30 1659 C 171.444 -4.34541 -3.11574 0
M  V30 1660 C 172.744 -5.11251 -1.06864 0
M  V30 1661 H 174.438 -2.97489 -0.337774 0
M  V30 1662 H 171.984 -1.43097 -0.161025 0
M  V30 1663 H 173.937 -3.17904 -2.76614 0
M  V30 1664 H 172.661 -1.94451 -2.62405 0
M  V30 1665 H 171.32 -3.48213 -1.14644 0
M  V30 1666 H 170.968 -3.48977 -3.62249 0
M  V30 1667 H 170.668 -5.09914 -2.91996 0
M  V30 1668 H 172.192 -4.782 -3.7968 0
M  V30 1669 H 173.606 -5.49352 -1.63968 0
M  V30 1670 H 172.003 -5.9214 -0.974178 0
M  V30 1671 H 173.073 -4.8487 -0.0536168 0
M  V30 1672 N 174.416 0.165178 -1.56732 0
M  V30 1673 C 175.346 1.20651 -1.99914 0
M  V30 1674 C 176.327 1.45827 -0.875705 0
M  V30 1675 O 177.512 1.57057 -1.14223 0
M  V30 1676 C 174.642 2.54401 -2.36427 0
M  V30 1677 C 173.596 2.43782 -3.51787 0
M  V30 1678 C 172.922 3.82078 -3.7406 0
M  V30 1679 C 174.222 1.93732 -4.85041 0
M  V30 1680 H 175.916 0.847534 -2.87154 0
M  V30 1681 H 173.462 0.40625 -1.38151 0
M  V30 1682 H 175.415 3.27458 -2.65234 0
M  V30 1683 H 174.139 2.92098 -1.46103 0
M  V30 1684 H 172.798 1.73178 -3.23117 0
M  V30 1685 H 172.446 4.17179 -2.81017 0
M  V30 1686 H 172.146 3.7584 -4.51684 0
M  V30 1687 H 173.67 4.56712 -4.05274 0
M  V30 1688 H 175.084 2.56569 -5.12684 0
M  V30 1689 H 173.481 1.98428 -5.66345 0
M  V30 1690 H 174.551 0.891962 -4.76626 0
M  V30 1691 N 175.894 1.51508 0.433938 0
M  V30 1692 C 176.826 1.69266 1.54537 0
M  V30 1693 C 177.839 0.573276 1.52373 0
M  V30 1694 O 179.028 0.847698 1.57087 0
M  V30 1695 C 176.128 1.69524 2.93453 0
M  V30 1696 C 175.301 2.98101 3.20085 0
M  V30 1697 C 174.36 2.90502 4.38742 0
M  V30 1698 O 173.386 3.64442 4.3723 0
M  V30 1699 N 174.588 2.06586 5.42496 0
M  V30 1700 H 177.353 2.65145 1.39708 0
M  V30 1701 H 174.914 1.49437 0.622922 0
M  V30 1702 H 176.906 1.62004 3.70859 0
M  V30 1703 H 175.476 0.812245 3.01863 0
M  V30 1704 H 174.696 3.19464 2.30947 0
M  V30 1705 H 175.984 3.83207 3.34708 0
M  V30 1706 H 175.382 1.45896 5.46563 0
M  V30 1707 H 173.939 2.04943 6.18742 0
M  V30 1708 N 177.372 -0.689602 1.41712 0
M  V30 1709 C 178.602 -1.47613 1.44548 0
M  V30 1710 C 179.01 -1.89132 0.0509034 0
M  V30 1711 O 178.353 -1.57741 -0.94146 0
M  V30 1712 C 178.415 -2.76596 2.2964 0
M  V30 1713 C 178.079 -2.57245 3.77722 0
M  V30 1714 C 179.076 -2.22804 4.69739 0
M  V30 1715 C 176.761 -2.727 4.2183 0
M  V30 1716 C 178.755 -2.04064 6.03851 0
M  V30 1717 C 176.442 -2.53576 5.56006 0
M  V30 1718 C 177.44 -2.1931 6.46832 0
M  V30 1719 O 177.128 -2.00359 7.78532 0
M  V30 1720 H 176.86 -0.461227 0.494212 0
M  V30 1721 H 179.414 -0.856045 1.86711 0
M  V30 1722 H 177.644 -3.41033 1.82301 0
M  V30 1723 H 179.333 -3.38424 2.24107 0
M  V30 1724 H 180.099 -2.10473 4.36951 0
M  V30 1725 H 175.978 -2.98353 3.51435 0
M  V30 1726 H 179.522 -1.77241 6.74708 0
M  V30 1727 H 175.419 -2.65499 5.88371 0
M  V30 1728 H 176.187 -2.15075 7.89737 0
M  V30 1729 N 178.85 -1.27639 -0.924453 0
M  V30 1730 C 180.096 -1.14336 -1.67497 0
M  V30 1731 C 180.429 0.309465 -1.91718 0
M  V30 1732 O 179.704 1.22608 -1.50989 0
M  V30 1733 C 179.987 -1.93096 -3.0395 0
M  V30 1734 C 179.84 -3.46381 -2.8695 0
M  V30 1735 C 181.159 -1.73798 -4.0433 0
M  V30 1736 H 178.278 -0.416728 -0.607871 0
M  V30 1737 H 180.92 -1.56832 -1.07256 0
M  V30 1738 H 179.07 -1.56982 -3.55372 0
M  V30 1739 H 180.742 -3.92343 -2.42621 0
M  V30 1740 H 178.985 -3.72557 -2.22225 0
M  V30 1741 H 179.656 -3.96735 -3.83804 0
M  V30 1742 H 182.132 -2.05293 -3.61931 0
M  V30 1743 H 181.008 -2.31294 -4.97789 0
M  V30 1744 H 181.269 -0.686725 -4.36734 0
M  V30 1745 N 180.328 1.1314 -1.09713 0
M  V30 1746 C 181.574 1.84757 -0.836224 0
M  V30 1747 C 181.907 1.8347 0.636598 0
M  V30 1748 O 181.182 1.27491 1.46889 0
M  V30 1749 C 181.465 3.32782 -1.37578 0
M  V30 1750 C 181.318 3.42567 -2.91493 0
M  V30 1751 C 182.637 4.28307 -1.01198 0
M  V30 1752 H 179.756 0.67082 -0.305236 0
M  V30 1753 H 182.398 1.3278 -1.35903 0
M  V30 1754 H 180.548 3.77177 -0.931097 0
M  V30 1755 H 182.22 3.06862 -3.44432 0
M  V30 1756 H 180.463 2.83349 -3.28475 0
M  V30 1757 H 181.134 4.46674 -3.24324 0
M  V30 1758 H 183.61 3.91999 -1.39556 0
M  V30 1759 H 182.486 5.30307 -1.41653 0
M  V30 1760 H 182.747 4.42029 0.0794833 0
M  V30 1761 N 181.806 0.884767 1.30421 0
M  V30 1762 C 182.753 0.349642 2.28136 0
M  V30 1763 C 183.723 -0.560061 1.56373 0
M  V30 1764 O 184.908 -0.488524 1.8444 0
M  V30 1765 C 182.048 -0.42999 3.42411 0
M  V30 1766 C 181.161 0.508907 4.28992 0
M  V30 1767 C 180.296 -0.286301 5.30428 0
M  V30 1768 C 179.335 0.648079 6.08659 0
M  V30 1769 N 178.472 -0.111792 7.02011 0
M  V30 1770 H 183.312 1.18807 2.73293 0
M  V30 1771 H 180.849 0.597231 1.3443 0
M  V30 1772 H 182.807 -0.897923 4.07423 0
M  V30 1773 H 181.437 -1.23299 2.98324 0
M  V30 1774 H 180.489 1.09533 3.64289 0
M  V30 1775 H 181.801 1.22475 4.8353 0
M  V30 1776 H 180.955 -0.816098 6.01186 0
M  V30 1777 H 179.694 -1.03536 4.76583 0
M  V30 1778 H 178.699 1.18951 5.36778 0
M  V30 1779 H 179.924 1.39623 6.64592 0
M  V30 1780 H 177.87 -0.843395 6.50556 0
M  V30 1781 H 177.787 0.544429 7.54037 0
M  V30 1782 H 179.055 -0.622339 7.77012 0
M  V30 1783 N 183.284 -1.43765 0.645699 0
M  V30 1784 C 184.509 -2.06767 0.161883 0
M  V30 1785 C 184.934 -1.48034 -1.16049 0
M  V30 1786 O 184.292 -0.587369 -1.71522 0
M  V30 1787 C 184.34 -3.60519 0.0762003 0
M  V30 1788 O 183.444 -4.00982 -0.963721 0
M  V30 1789 H 182.785 -0.657675 0.091429 0
M  V30 1790 H 185.315 -1.84397 0.886499 0
M  V30 1791 H 185.325 -4.07853 -0.109604 0
M  V30 1792 H 184 -4.02646 1.04157 0
M  V30 1793 H 182.577 -3.65253 -0.751312 0
M  V30 1794 N 184.763 -0.387143 -1.52771 0
M  V30 1795 C 186.01 0.195735 -2.01552 0
M  V30 1796 C 186.338 1.46995 -1.27369 0
M  V30 1797 O 185.593 1.92325 -0.361879 0
M  V30 1798 C 185.892 0.512209 -3.53711 0
M  V30 1799 C 185.558 -0.670202 -4.45891 0
M  V30 1800 C 184.22 -0.994586 -4.70809 0
M  V30 1801 C 186.572 -1.46134 -5.00294 0
M  V30 1802 C 183.9 -2.11169 -5.4738 0
M  V30 1803 C 186.252 -2.56903 -5.78086 0
M  V30 1804 C 184.916 -2.89852 -6.01284 0
M  V30 1805 H 184.186 0.0716246 -0.73753 0
M  V30 1806 H 186.833 -0.524046 -1.8419 0
M  V30 1807 H 185.138 1.31329 -3.69134 0
M  V30 1808 H 186.835 0.975804 -3.88946 0
M  V30 1809 H 183.425 -0.407366 -4.2666 0
M  V30 1810 H 187.609 -1.22397 -4.80971 0
M  V30 1811 H 182.865 -2.3707 -5.63567 0
M  V30 1812 H 187.039 -3.18608 -6.19243 0
M  V30 1813 H 184.666 -3.76533 -6.60399 0
M  V30 1814 N 186.241 1.57166 -0.116904 0
M  V30 1815 C 187.518 1.86645 0.585049 0
M  V30 1816 C 187.898 1.0177 1.84949 0
M  V30 1817 O 187.246 0.0960379 2.28298 0
M  V30 1818 C 187.456 3.37736 0.879507 0
M  V30 1819 C 188.804 4.06289 1.23348 0
M  V30 1820 O 189.828 3.42743 0.969836 0
M  V30 1821 O 188.687 5.18455 1.7282 0
M  V30 1822 H 185.781 0.772593 0.295007 0
M  V30 1823 H 188.327 1.69025 -0.151249 0
M  V30 1824 H 187.099 3.91296 -0.0166136 0
M  V30 1825 H 186.722 3.6078 1.67103 0
M  V30 1826 N 187.719 -0.156864 1.56817 0
M  V30 1827 C 189.135 -0.50916 1.5126 0
M  V30 1828 C 189.335 -1.83897 0.823658 0
M  V30 1829 O 188.391 -2.49469 0.390055 0
M  V30 1830 C 189.704 -0.52857 2.96018 0
M  V30 1831 C 191.252 -0.614771 3.06903 0
M  V30 1832 C 191.727 -0.664938 4.53147 0
M  V30 1833 N 193.218 -0.727433 4.57452 0
M  V30 1834 C 193.953 -0.787067 5.67973 0
M  V30 1835 N 193.449 -0.806649 6.88088 0
M  V30 1836 N 195.242 -0.827195 5.5598 0
M  V30 1837 H 187.393 0.714935 2.00006 0
M  V30 1838 H 189.656 0.259526 0.911784 0
M  V30 1839 H 189.362 0.380154 3.49639 0
M  V30 1840 H 189.236 -1.36998 3.51442 0
M  V30 1841 H 191.623 -1.51392 2.53307 0
M  V30 1842 H 191.704 0.253597 2.5454 0
M  V30 1843 H 191.348 0.230011 5.07379 0
M  V30 1844 H 191.278 -1.54966 5.03282 0
M  V30 1845 H 193.769 -0.719998 3.70978 0
M  V30 1846 H 194.082 -0.853727 7.6807 0
M  V30 1847 H 192.427 -0.774687 6.90669 0
M  V30 1848 H 195.618 -0.808998 4.61056 0
M  V30 1849 H 195.791 -0.870206 6.4213 0
M  V30 1850 N 189.197 -1.51736 -0.425897 0
M  V30 1851 C 190.422 -1.69082 -1.20108 0
M  V30 1852 C 190.847 -0.392398 -1.83962 0
M  V30 1853 O 190.205 0.64858 -1.69302 0
M  V30 1854 C 190.253 -2.81604 -2.25237 0
M  V30 1855 O 189.357 -2.46004 -3.30992 0
M  V30 1856 H 188.698 -0.563408 -0.35138 0
M  V30 1857 H 191.228 -1.98358 -0.501512 0
M  V30 1858 H 191.238 -3.06025 -2.69838 0
M  V30 1859 H 189.913 -3.75817 -1.78142 0
M  V30 1860 H 188.49 -2.32195 -2.91787 0
M  V30 1861 N 190.675 0.682077 -1.42076 0
M  V30 1862 C 191.903 1.47057 -1.4554 0
M  V30 1863 C 192.318 1.8869 -0.0645779 0
M  V30 1864 O 191.675 1.57666 0.919115 0
M  V30 1865 C 191.726 2.72442 -2.37609 0
M  V30 1866 O 191.447 2.32559 -3.71279 0
M  V30 1867 C 192.948 3.66069 -2.50017 0
M  V30 1868 H 190.168 0.452737 -0.495248 0
M  V30 1869 H 192.712 0.838695 -1.8651 0
M  V30 1870 H 190.867 3.31835 -1.9991 0
M  V30 1871 H 191.281 3.13475 -4.20516 0
M  V30 1872 H 192.755 4.50792 -3.18576 0
M  V30 1873 H 193.232 4.11476 -1.53572 0
M  V30 1874 H 193.838 3.12572 -2.88407 0
M  V30 1875 N 192.153 1.28127 0.917671 0
M  V30 1876 C 193.1 1.11717 2.0196 0
M  V30 1877 C 194.07 0.0153929 1.66093 0
M  V30 1878 O 195.255 0.179596 1.89953 0
M  V30 1879 C 192.395 0.780927 3.36148 0
M  V30 1880 C 191.508 1.96135 3.84909 0
M  V30 1881 C 190.643 1.56609 5.0759 0
M  V30 1882 C 189.682 2.71339 5.48673 0
M  V30 1883 N 188.819 2.32332 6.62545 0
M  V30 1884 H 193.659 2.06003 2.15329 0
M  V30 1885 H 191.196 1.02535 1.05475 0
M  V30 1886 H 193.154 0.56675 4.13333 0
M  V30 1887 H 191.784 -0.124998 3.22558 0
M  V30 1888 H 190.836 2.28777 3.03916 0
M  V30 1889 H 192.148 2.82165 4.1132 0
M  V30 1890 H 191.302 1.31374 5.92305 0
M  V30 1891 H 190.041 0.677014 4.82978 0
M  V30 1892 H 189.046 2.97276 4.62501 0
M  V30 1893 H 190.271 3.60882 5.75274 0
M  V30 1894 H 188.217 1.45889 6.39572 0
M  V30 1895 H 188.134 3.11899 6.88662 0
M  V30 1896 H 189.402 2.10371 7.50576 0
M  V30 1897 N 193.631 -1.12557 1.10312 0
M  V30 1898 C 194.877 -1.84311 0.846011 0
M  V30 1899 C 195.21 -1.83805 -0.626859 0
M  V30 1900 O 194.485 -1.28268 -1.46211 0
M  V30 1901 C 194.768 -3.32048 1.39341 0
M  V30 1902 C 194.621 -3.41016 2.93305 0
M  V30 1903 C 195.94 -4.27764 1.03468 0
M  V30 1904 H 193.059 -0.669192 0.30879 0
M  V30 1905 H 195.701 -1.32057 1.36605 0
M  V30 1906 H 193.851 -3.76678 0.951087 0
M  V30 1907 H 195.523 -3.05031 3.46055 0
M  V30 1908 H 193.766 -2.81603 3.29973 0
M  V30 1909 H 194.437 -4.44948 3.26689 0
M  V30 1910 H 196.913 -3.91253 1.41633 0
M  V30 1911 H 195.789 -5.29549 1.44463 0
M  V30 1912 H 196.05 -4.42064 -0.0560404 0
M  V30 1913 N 195.109 -0.891671 -1.2995 0
M  V30 1914 C 196.358 -0.509521 -1.95158 0
M  V30 1915 C 196.671 0.947388 -1.71125 0
M  V30 1916 O 197.877 1.43669 -2.30372 0
M  V30 1917 C 196.333 -0.860315 -3.49466 0
M  V30 1918 C 195.941 -2.33545 -3.8231 0
M  V30 1919 C 197.685 -0.547687 -4.20952 0
M  V30 1920 C 195.592 -2.62752 -5.29826 0
M  V30 1921 H 194.522 -0.18682 -0.730489 0
M  V30 1922 H 197.173 -1.08756 -1.47798 0
M  V30 1923 H 195.555 -0.211285 -3.95436 0
M  V30 1924 H 196.729 -3.02936 -3.47227 0
M  V30 1925 H 195.044 -2.61629 -3.23944 0
M  V30 1926 H 197.641 -0.742854 -5.29515 0
M  V30 1927 H 197.984 0.51332 -4.13123 0
M  V30 1928 H 198.517 -1.1542 -3.80688 0
M  V30 1929 H 195.256 -3.6762 -5.42712 0
M  V30 1930 H 194.776 -1.97977 -5.66185 0
M  V30 1931 H 196.455 -2.48601 -5.97333 0
M  V30 1932 N 196.587 1.43421 -0.653314 0
M  V30 1933 C 197.864 1.95361 -0.0966581 0
M  V30 1934 C 198.244 1.59461 1.38331 0
M  V30 1935 O 197.592 0.879777 2.10884 0
M  V30 1936 C 197.802 3.47311 -0.342988 0
M  V30 1937 C 199.15 4.23875 -0.24798 0
M  V30 1938 O 200.174 3.55133 -0.275553 0
M  V30 1939 O 199.033 5.4623 -0.171771 0
M  V30 1940 H 196.127 0.826945 0.00956291 0
M  V30 1941 H 198.673 1.5336 -0.726558 0
M  V30 1942 H 197.445 3.66569 -1.36906 0
M  V30 1943 H 197.068 3.9631 0.319975 0
M  V30 1944 N 198.065 0.39524 1.52563 0
M  V30 1945 C 199.312 -0.185044 2.01653 0
M  V30 1946 C 199.64 -1.46317 1.28146 0
M  V30 1947 O 198.895 -1.9213 0.372074 0
M  V30 1948 C 199.194 -0.493444 3.53977 0
M  V30 1949 C 198.86 0.69384 4.4553 0
M  V30 1950 C 197.522 1.01954 4.70275 0
M  V30 1951 C 199.874 1.48785 4.99512 0
M  V30 1952 C 197.202 2.14069 5.46252 0
M  V30 1953 C 199.554 2.59965 5.76716 0
M  V30 1954 C 198.218 2.93037 5.99738 0
M  V30 1955 H 197.488 -0.0677123 0.7379 0
M  V30 1956 H 200.135 0.533807 1.8391 0
M  V30 1957 H 198.44 -1.29369 3.69825 0
M  V30 1958 H 200.137 -0.955163 3.89458 0
M  V30 1959 H 196.727 0.429987 4.26438 0
M  V30 1960 H 200.911 1.24946 4.80315 0
M  V30 1961 H 196.167 2.40056 5.62302 0
M  V30 1962 H 200.341 3.21887 6.17545 0
M  V30 1963 H 197.968 3.8003 6.58393 0
M  V30 1964 N 199.544 -1.57102 0.125237 0
M  V30 1965 C 200.494 -2.12202 -0.833936 0
M  V30 1966 C 201.478 -1.04433 -1.22403 0
M  V30 1967 O 202.67 -1.30655 -1.19408 0
M  V30 1968 C 199.799 -2.72994 -2.08157 0
M  V30 1969 C 198.885 -3.87852 -1.71556 0
M  V30 1970 N 199.276 -4.9464 -1.05662 0
M  V30 1971 C 197.574 -3.98153 -2.00973 0
M  V30 1972 C 198.275 -5.74953 -0.883376 0
M  V30 1973 N 197.251 -5.24985 -1.41036 0
M  V30 1974 H 201.053 -2.92141 -0.321035 0
M  V30 1975 H 198.567 -1.62217 -0.0770315 0
M  V30 1976 H 200.564 -3.10816 -2.77847 0
M  V30 1977 H 199.224 -1.9452 -2.59985 0
M  V30 1978 H 200.235 -5.12872 -0.719878 0
M  V30 1979 H 196.912 -3.30728 -2.54804 0
M  V30 1980 H 198.302 -6.70904 -0.365675 0
M  V30 1981 N 201.022 0.148545 -1.56898 0
M  V30 1982 C 202.252 0.875118 -1.8715 0
M  V30 1983 C 202.66 1.75322 -0.711262 0
M  V30 1984 O 202.003 1.80745 0.328151 0
M  V30 1985 C 202.065 1.7844 -3.12089 0
M  V30 1986 C 201.729 1.08361 -4.43967 0
M  V30 1987 C 202.726 0.438247 -5.1805 0
M  V30 1988 C 200.411 1.07358 -4.90693 0
M  V30 1989 C 202.405 -0.20779 -6.37061 0
M  V30 1990 C 200.092 0.42373 -6.09629 0
M  V30 1991 C 201.09 -0.215829 -6.82659 0
M  V30 1992 O 200.778 -0.855378 -7.99336 0
M  V30 1993 H 200.51 0.258504 -0.624621 0
M  V30 1994 H 203.064 0.14652 -2.04877 0
M  V30 1995 H 201.294 2.55389 -2.90367 0
M  V30 1996 H 202.983 2.38279 -3.286 0
M  V30 1997 H 203.749 0.437817 -4.8302 0
M  V30 1998 H 199.628 1.5608 -4.33774 0
M  V30 1999 H 203.172 -0.70758 -6.94002 0
M  V30 2000 H 199.069 0.421822 -6.4412 0
M  V30 2001 H 199.837 -0.756892 -8.14993 0
M  V30 2002 N 202.5 1.5196 0.417844 0
M  V30 2003 C 203.911 1.57851 0.997 0
M  V30 2004 C 204.262 0.413714 1.91789 0
M  V30 2005 O 203.387 -0.467057 2.113 0
M  V30 2006 C 203.982 2.86085 1.81496 0
M  V30 2007 C 202.541 2.94483 2.34428 0
M  V30 2008 C 201.688 2.52707 1.14169 0
M  V30 2009 H 204.639 1.57455 0.198392 0
M  V30 2010 H 204.66 2.70947 2.67148 0
M  V30 2011 H 204.172 3.70842 1.14446 0
M  V30 2012 H 202.273 2.142 3.04875 0
M  V30 2013 H 202.386 3.98546 2.65891 0
M  V30 2014 H 200.75 2.06353 1.49301 0
M  V30 2015 H 201.533 3.39828 0.486999 0
M  V30 2016 N 203.978 -0.674533 1.42435 0
M  V30 2017 C 204.926 -1.80934 1.46169 0
M  V30 2018 C 205.92 -1.66006 0.3374 0
M  V30 2019 O 207.126 -1.72611 0.510425 0
M  V30 2020 H 203.501 -0.596594 0.457798 0
M  V30 2021 H 205.472 -1.74903 2.41767 0
M  V30 2022 C 204.221 -3.19088 1.38123 0
M  V30 2023 H 203.544 -3.31203 2.23931 0
M  V30 2024 H 204.984 -3.9851 1.44797 0
M  V30 2025 C 203.443 -3.36763 0.0960517 0
M  V30 2026 O 203.973 -3.92581 -0.851073 0
M  V30 2027 N 202.179 -2.90597 0.0131186 0
M  V30 2028 H 201.726 -2.45359 0.784639 0
M  V30 2029 H 201.684 -3.028 -0.846133 0
M  V30 2030 N 205.456 -1.28612 -0.910864 0
M  V30 2031 C 206.366 -1.14643 -2.0468 0
M  V30 2032 C 207.382 -0.0723121 -1.7385 0
M  V30 2033 O 208.558 -0.282178 -1.99413 0
M  V30 2034 C 205.623 -0.812561 -3.37044 0
M  V30 2035 C 204.684 -1.96935 -3.81465 0
M  V30 2036 C 203.917 -1.65131 -5.07511 0
M  V30 2037 O 204.14 -0.567013 -5.67575 0
M  V30 2038 O 203.074 -2.49585 -5.47714 0
M  V30 2039 H 206.9 -2.1001 -2.19384 0
M  V30 2040 H 204.485 -1.07958 -1.03274 0
M  V30 2041 H 206.367 -0.640441 -4.16505 0
M  V30 2042 H 205.042 0.111426 -3.23508 0
M  V30 2043 H 203.949 -2.19664 -3.02818 0
M  V30 2044 H 205.282 -2.87414 -3.99567 0
M  V30 2045 N 206.934 1.1197 -1.10907 0
M  V30 2046 C 207.864 2.19928 -0.784473 0
M  V30 2047 C 208.845 1.6833 0.244726 0
M  V30 2048 O 210.03 1.93892 0.109418 0
M  V30 2049 C 207.16 3.46597 -0.220827 0
M  V30 2050 C 206.114 4.11376 -1.18127 0
M  V30 2051 C 205.44 5.32554 -0.478594 0
M  V30 2052 C 206.74 4.56945 -2.52979 0
M  V30 2053 H 208.434 2.47337 -1.68715 0
M  V30 2054 H 205.98 1.18879 -0.812642 0
M  V30 2055 H 207.933 4.21396 0.0184278 0
M  V30 2056 H 206.657 3.1863 0.717113 0
M  V30 2057 H 205.316 3.38564 -1.40606 0
M  V30 2058 H 204.964 5.00856 0.463976 0
M  V30 2059 H 204.664 5.76844 -1.11912 0
M  V30 2060 H 206.188 6.10096 -0.248 0
M  V30 2061 H 207.602 5.23093 -2.3462 0
M  V30 2062 H 205.999 5.1203 -3.12962 0
M  V30 2063 H 207.069 3.70676 -3.12614 0
M  V30 2064 N 208.412 0.89855 1.29475 0
M  V30 2065 C 209.342 0.39201 2.30186 0
M  V30 2066 C 210.323 -0.532359 1.61555 0
M  V30 2067 O 211.508 -0.443331 1.89072 0
M  V30 2068 C 208.638 -0.382353 3.45189 0
M  V30 2069 C 207.592 0.451483 4.25612 0
M  V30 2070 C 206.918 -0.450307 5.328 0
M  V30 2071 C 208.218 1.70079 4.93832 0
M  V30 2072 H 209.912 1.23362 2.72804 0
M  V30 2073 H 207.458 0.594638 1.31149 0
M  V30 2074 H 209.411 -0.747451 4.14718 0
M  V30 2075 H 208.135 -1.25774 3.01411 0
M  V30 2076 H 206.794 0.798897 3.57789 0
M  V30 2077 H 206.442 -1.32379 4.85268 0
M  V30 2078 H 206.142 0.103902 5.87508 0
M  V30 2079 H 207.666 -0.811623 6.05182 0
M  V30 2080 H 209.08 1.40549 5.55805 0
M  V30 2081 H 207.477 2.19623 5.58467 0
M  V30 2082 H 208.547 2.43744 4.19186 0
M  V30 2083 N 209.89 -1.43072 0.660911 0
M  V30 2084 C 210.822 -2.29108 -0.0647641 0
M  V30 2085 C 211.835 -1.42928 -0.779448 0
M  V30 2086 O 213.024 -1.66788 -0.635921 0
M  V30 2087 C 210.124 -3.20032 -1.11503 0
M  V30 2088 C 209.297 -4.34792 -0.476955 0
M  V30 2089 C 208.356 -5.06534 -1.42513 0
M  V30 2090 O 207.382 -5.61538 -0.930771 0
M  V30 2091 N 208.584 -5.1075 -2.75889 0
M  V30 2092 H 211.349 -2.92029 0.673731 0
M  V30 2093 H 208.91 -1.53846 0.50427 0
M  V30 2094 H 210.902 -3.64892 -1.75032 0
M  V30 2095 H 209.472 -2.58658 -1.75541 0
M  V30 2096 H 208.692 -3.92752 0.337572 0
M  V30 2097 H 209.98 -5.0879 -0.0318525 0
M  V30 2098 H 209.378 -4.67447 -3.18606 0
M  V30 2099 H 207.935 -5.59302 -3.347 0
M  V30 2100 N 211.368 -0.403325 -1.52352 0
M  V30 2101 C 212.278 0.432009 -2.30588 0
M  V30 2102 C 213.294 1.05884 -1.38075 0
M  V30 2103 O 214.47 1.06161 -1.71148 0
M  V30 2104 C 211.535 1.53669 -3.10784 0
M  V30 2105 C 210.596 0.933525 -4.19027 0
M  V30 2106 C 209.829 1.98557 -4.9539 0
M  V30 2107 O 210.052 3.20283 -4.71991 0
M  V30 2108 O 208.986 1.59504 -5.80381 0
M  V30 2109 H 212.812 -0.205739 -3.03002 0
M  V30 2110 H 210.397 -0.166675 -1.48467 0
M  V30 2111 H 212.279 2.17814 -3.60742 0
M  V30 2112 H 210.954 2.15915 -2.41169 0
M  V30 2113 H 209.861 0.254954 -3.7323 0
M  V30 2114 H 211.194 0.35508 -4.90918 0
M  V30 2115 N 212.846 1.57033 -0.133567 0
M  V30 2116 C 214.076 1.99754 0.527429 0
M  V30 2117 C 214.484 1.01245 1.59832 0
M  V30 2118 O 213.827 -0.000645496 1.837 0
M  V30 2119 C 213.889 3.38903 1.19939 0
M  V30 2120 C 213.553 4.56174 0.274709 0
M  V30 2121 C 214.55 5.17563 -0.492398 0
M  V30 2122 C 212.235 5.01972 0.18153 0
M  V30 2123 C 214.229 6.2315 -1.34027 0
M  V30 2124 C 211.916 6.07416 -0.669958 0
M  V30 2125 C 212.914 6.67874 -1.42947 0
M  V30 2126 O 212.602 7.71279 -2.2668 0
M  V30 2127 H 212.334 0.660702 0.142999 0
M  V30 2128 H 214.888 2.04207 -0.221099 0
M  V30 2129 H 213.118 3.31248 1.99528 0
M  V30 2130 H 214.807 3.65818 1.75875 0
M  V30 2131 H 215.573 4.83087 -0.430367 0
M  V30 2132 H 211.452 4.54652 0.762422 0
M  V30 2133 H 214.996 6.70268 -1.93357 0
M  V30 2134 H 210.893 6.41321 -0.73333 0
M  V30 2135 H 211.661 7.88441 -2.1978 0
M  V30 2136 N 214.325 -0.140222 1.56975 0
M  V30 2137 C 215.273 -1.19207 1.99731 0
M  V30 2138 C 216.267 -1.44089 0.890777 0
M  V30 2139 O 217.473 -1.44301 1.07597 0
M  V30 2140 H 213.848 -0.40142 0.635898 0
M  V30 2141 H 215.819 -0.804813 2.87342 0
M  V30 2142 C 214.568 -2.51617 2.39967 0
M  V30 2143 H 213.891 -2.33303 3.24669 0
M  V30 2144 H 215.331 -3.23827 2.73701 0
M  V30 2145 C 213.79 -3.12654 1.25496 0
M  V30 2146 O 214.32 -3.97786 0.559371 0
M  V30 2147 N 212.526 -2.72206 1.01746 0
M  V30 2148 H 212.073 -2.03074 1.58489 0
M  V30 2149 H 212.031 -3.13377 0.253461 0
M  V30 2150 N 215.803 -1.52179 -0.40978 0
M  V30 2151 C 217.049 -1.67408 -1.15525 0
M  V30 2152 C 217.404 -0.398746 -1.88223 0
M  V30 2153 O 216.697 0.60678 -1.81738 0
M  V30 2154 C 216.891 -2.83428 -2.17723 0
M  V30 2155 C 216.72 -4.22121 -1.55061 0
M  V30 2156 C 215.49 -4.87657 -1.3236 0
M  V30 2157 C 217.688 -5.04248 -1.01185 0
M  V30 2158 N 215.67 -6.10387 -0.655834 0
M  V30 2159 C 217.041 -6.18209 -0.470963 0
M  V30 2160 C 219.096 -4.89583 -0.906252 0
M  V30 2161 C 217.799 -7.1911 0.165172 0
M  V30 2162 C 219.825 -5.90718 -0.28397 0
M  V30 2163 C 219.187 -7.03969 0.246243 0
M  V30 2164 H 215.286 -0.666251 -0.409431 0
M  V30 2165 H 217.87 -1.89482 -0.447729 0
M  V30 2166 H 216.041 -2.6297 -2.85834 0
M  V30 2167 H 217.773 -2.87697 -2.84627 0
M  V30 2168 H 214.528 -4.46007 -1.59294 0
M  V30 2169 H 214.952 -6.76153 -0.338596 0
M  V30 2170 H 219.594 -4.02253 -1.302 0
M  V30 2171 H 217.312 -8.06066 0.572986 0
M  V30 2172 H 220.898 -5.81443 -0.203792 0
M  V30 2173 H 219.778 -7.80886 0.720173 0
M  V30 2174 N 217.281 0.66697 -1.42791 0
M  V30 2175 C 218.191 1.80962 -1.49299 0
M  V30 2176 C 219.207 1.69775 -0.381108 0
M  V30 2177 O 220.383 1.91188 -0.633188 0
M  V30 2178 C 217.448 3.17156 -1.40045 0
M  V30 2179 C 216.509 3.40242 -2.6179 0
M  V30 2180 C 215.742 4.69939 -2.52969 0
M  V30 2181 O 215.965 5.48372 -1.56985 0
M  V30 2182 O 214.899 4.94441 -3.43237 0
M  V30 2183 H 218.725 1.78427 -2.45759 0
M  V30 2184 H 216.31 0.823713 -1.24641 0
M  V30 2185 H 218.192 3.98413 -1.37276 0
M  V30 2186 H 216.867 3.20312 -0.467138 0
M  V30 2187 H 215.774 2.58802 -2.70134 0
M  V30 2188 H 217.107 3.41923 -3.54047 0
M  V30 2189 N 218.759 1.29093 0.90403 0
M  V30 2190 C 219.689 1.16401 2.02418 0
M  V30 2191 C 220.67 0.0593085 1.69997 0
M  V30 2192 O 221.855 0.238021 1.92736 0
M  V30 2193 C 218.985 0.835233 3.37107 0
M  V30 2194 C 217.939 1.89578 3.83724 0
M  V30 2195 C 217.265 1.42041 5.15489 0
M  V30 2196 C 218.565 3.30394 4.04521 0
M  V30 2197 H 220.259 2.10109 2.13295 0
M  V30 2198 H 217.805 1.01157 1.02486 0
M  V30 2199 H 219.758 0.733169 4.14973 0
M  V30 2200 H 218.482 -0.137543 3.2631 0
M  V30 2201 H 217.141 1.98715 3.08071 0
M  V30 2202 H 216.789 0.436426 5.01103 0
M  V30 2203 H 216.489 2.12964 5.4765 0
M  V30 2204 H 218.013 1.33176 5.959 0
M  V30 2205 H 219.427 3.24123 4.72882 0
M  V30 2206 H 217.824 3.99237 4.48029 0
M  V30 2207 H 218.894 3.73692 3.09002 0
M  V30 2208 N 220.237 -1.11381 1.11499 0
M  V30 2209 C 221.2 -2.15622 0.777153 0
M  V30 2210 C 222.2 -1.59504 -0.203779 0
M  V30 2211 O 223.39 -1.74188 0.020782 0
M  V30 2212 C 220.522 -3.40556 0.153116 0
M  V30 2213 H 221.715 -2.47021 1.70061 0
M  V30 2214 H 219.268 -1.26577 0.916952 0
M  V30 2215 H 220.003 -3.14767 -0.780536 0
M  V30 2216 H 219.788 -3.8257 0.859238 0
M  V30 2217 H 221.278 -4.17546 -0.0671044 0
M  V30 2218 N 221.715 -0.905404 -1.28997 0
M  V30 2219 C 222.992 -0.453513 -1.9027 0
M  V30 2220 C 223.372 1.06721 -1.82137 0
M  V30 2221 O 222.72 1.91159 -1.25182 0
M  V30 2222 C 222.93 -0.974494 -3.35119 0
M  V30 2223 C 224.278 -1.0216 -4.12127 0
M  V30 2224 O 225.302 -0.922557 -3.44046 0
M  V30 2225 O 224.161 -1.17121 -5.33802 0
M  V30 2226 H 221.255 -0.142347 -0.814657 0
M  V30 2227 H 223.801 -0.995642 -1.37423 0
M  V30 2228 H 222.573 -2.01848 -3.35221 0
M  V30 2229 H 222.196 -0.412706 -3.95452 0
M  V30 2230 N 223.193 1.4272 -0.668489 0
M  V30 2231 C 224.125 2.2914 0.052613 0
M  V30 2232 C 225.138 1.43339 0.771857 0
M  V30 2233 O 226.327 1.67123 0.627067 0
M  V30 2234 C 223.427 3.20618 1.09804 0
M  V30 2235 C 222.6 4.35039 0.45389 0
M  V30 2236 C 221.659 5.07282 1.39825 0
M  V30 2237 O 220.685 5.62024 0.900978 0
M  V30 2238 N 221.887 5.12206 2.73176 0
M  V30 2239 H 224.652 2.91668 -0.689209 0
M  V30 2240 H 222.213 1.53577 -0.512422 0
M  V30 2241 H 224.205 3.65815 1.73094 0
M  V30 2242 H 222.775 2.59585 1.74167 0
M  V30 2243 H 221.995 3.92567 -0.358396 0
M  V30 2244 H 223.283 5.088 0.00486972 0
M  V30 2245 H 222.681 4.6913 3.16122 0
M  V30 2246 H 221.238 5.61069 3.31729 0
M  V30 2247 N 224.671 0.411399 1.52136 0
M  V30 2248 C 226.082 -0.0576826 1.86611 0
M  V30 2249 C 226.433 -1.44238 1.33003 0
M  V30 2250 O 225.558 -2.05759 0.670228 0
M  V30 2251 C 226.153 -0.111448 3.38617 0
M  V30 2252 C 224.712 -0.52487 3.72723 0
M  V30 2253 C 223.859 0.299176 2.75681 0
M  V30 2254 H 226.81 0.628368 1.4573 0
M  V30 2255 H 226.831 -0.926252 3.69054 0
M  V30 2256 H 226.343 0.896488 3.77604 0
M  V30 2257 H 224.444 -1.53936 3.39315 0
M  V30 2258 H 224.557 -0.267681 4.78352 0
M  V30 2259 H 222.921 -0.238814 2.53578 0
M  V30 2260 H 223.704 1.3055 3.17508 0
M  V30 2261 N 226.149 -1.5696 0.141893 0
M  V30 2262 C 227.081 -2.13619 -0.830627 0
M  V30 2263 C 228.094 -1.08439 -1.21428 0
M  V30 2264 O 229.283 -1.35734 -1.15925 0
M  V30 2265 C 226.383 -2.63978 -2.12529 0
M  V30 2266 C 225.556 -3.93504 -1.9098 0
M  V30 2267 C 224.615 -4.29225 -3.04388 0
M  V30 2268 O 223.641 -4.97641 -2.76302 0
M  V30 2269 N 224.843 -3.88393 -4.31429 0
M  V30 2270 H 227.608 -2.97691 -0.34641 0
M  V30 2271 H 225.169 -1.61846 -0.0418375 0
M  V30 2272 H 227.161 -2.84891 -2.87436 0
M  V30 2273 H 225.731 -1.84659 -2.52229 0
M  V30 2274 H 224.951 -3.81269 -1.00139 0
M  V30 2275 H 226.239 -4.78154 -1.73914 0
M  V30 2276 H 225.637 -3.33257 -4.57117 0
M  V30 2277 H 224.194 -4.14368 -5.03133 0
M  V30 2278 N 227.627 0.131896 -1.57047 0
M  V30 2279 C 228.575 1.18146 -2.0036 0
M  V30 2280 C 229.569 1.43614 -0.898406 0
M  V30 2281 O 230.775 1.43729 -1.08361 0
M  V30 2282 H 227.15 0.398042 -0.638018 0
M  V30 2283 H 229.121 0.789564 -2.87765 0
M  V30 2284 C 227.87 2.50341 -2.41298 0
M  V30 2285 H 227.193 2.31578 -3.25902 0
M  V30 2286 H 228.633 3.22371 -2.75414 0
M  V30 2287 C 227.092 3.11984 -1.27153 0
M  V30 2288 O 227.622 3.97484 -0.580459 0
M  V30 2289 N 225.828 2.71662 -1.03189 0
M  V30 2290 H 225.375 2.02231 -1.59564 0
M  V30 2291 H 225.333 3.13238 -0.270077 0
M  V30 2292 N 229.106 1.52395 0.401703 0
M  V30 2293 C 230.036 1.79231 1.49661 0
M  V30 2294 C 231.017 0.643654 1.57452 0
M  V30 2295 O 232.202 0.889989 1.72606 0
M  V30 2296 C 229.332 1.94971 2.87409 0
M  V30 2297 C 228.286 3.10604 2.94465 0
M  V30 2298 C 227.612 3.11577 4.34538 0
M  V30 2299 C 228.912 4.49921 2.6527 0
M  V30 2300 H 230.606 2.70917 1.27454 0
M  V30 2301 H 228.152 1.30362 0.6117 0
M  V30 2302 H 230.105 2.12328 3.63999 0
M  V30 2303 H 228.829 0.999632 3.10926 0
M  V30 2304 H 227.488 2.93009 2.20321 0
M  V30 2305 H 227.136 2.14277 4.55076 0
M  V30 2306 H 226.836 3.89247 4.40183 0
M  V30 2307 H 228.36 3.31073 5.13053 0
M  V30 2308 H 229.774 4.67683 3.31581 0
M  V30 2309 H 228.171 5.29564 2.82281 0
M  V30 2310 H 229.241 4.57507 1.60671 0
M  V30 2311 N 230.584 -0.659388 1.43143 0
M  V30 2312 C 231.494 -1.80167 1.50256 0
M  V30 2313 C 232.51 -1.69571 0.390106 0
M  V30 2314 O 233.686 -1.90849 0.643319 0
M  V30 2315 C 230.751 -3.16409 1.41725 0
M  V30 2316 C 229.812 -3.38848 2.63591 0
M  V30 2317 C 229.045 -4.68591 2.55458 0
M  V30 2318 O 229.268 -5.47532 1.59891 0
M  V30 2319 O 228.202 -4.92614 3.45854 0
M  V30 2320 H 232.028 -1.77121 2.46702 0
M  V30 2321 H 229.613 -0.817092 1.25076 0
M  V30 2322 H 231.495 -3.9768 1.39387 0
M  V30 2323 H 230.17 -3.20059 0.484118 0
M  V30 2324 H 229.077 -2.57366 2.71502 0
M  V30 2325 H 230.41 -3.4004 3.55856 0
M  V30 2326 N 232.062 -1.29571 -0.897171 0
M  V30 2327 C 232.972 -1.16808 -2.03453 0
M  V30 2328 C 233.988 -0.0907471 -1.73763 0
M  V30 2329 O 235.164 -0.303312 -1.99103 0
M  V30 2330 C 232.229 -0.848264 -3.36163 0
M  V30 2331 C 231.29 -2.0097 -3.79354 0
M  V30 2332 C 230.523 -1.70505 -5.05731 0
M  V30 2333 O 230.746 -0.62718 -5.66941 0
M  V30 2334 O 229.68 -2.5538 -5.45036 0
M  V30 2335 H 233.506 -2.12325 -2.17144 0
M  V30 2336 H 231.091 -1.09047 -1.02123 0
M  V30 2337 H 232.973 -0.684581 -4.15802 0
M  V30 2338 H 231.648 0.0771071 -3.23608 0
M  V30 2339 H 230.555 -2.22863 -3.00471 0
M  V30 2340 H 231.888 -2.91636 -3.96496 0
M  V30 2341 N 233.54 1.10788 -1.12088 0
M  V30 2342 C 234.789 1.82036 -0.868659 0
M  V30 2343 C 235.102 1.85929 0.607426 0
M  V30 2344 O 236.308 2.53346 0.97613 0
M  V30 2345 C 234.764 3.26951 -1.50435 0
M  V30 2346 C 234.372 3.31367 -3.01496 0
M  V30 2347 C 236.116 4.03053 -1.33225 0
M  V30 2348 C 234.023 4.7072 -3.58017 0
M  V30 2349 H 232.953 0.682108 -0.321318 0
M  V30 2350 H 235.604 1.24618 -1.34694 0
M  V30 2351 H 233.986 3.84343 -0.953735 0
M  V30 2352 H 235.16 2.83819 -3.6302 0
M  V30 2353 H 233.475 2.6875 -3.18061 0
M  V30 2354 H 236.072 5.05981 -1.72878 0
M  V30 2355 H 236.415 4.15387 -0.275529 0
M  V30 2356 H 236.948 3.52066 -1.85188 0
M  V30 2357 H 233.687 4.63585 -4.63432 0
M  V30 2358 H 233.207 5.1865 -3.01268 0
M  V30 2359 H 234.886 5.39685 -3.56859 0
M  V30 2360 N 235.018 0.912232 1.28515 0
M  V30 2361 C 235.948 0.416403 2.29757 0
M  V30 2362 C 236.929 -0.515194 1.6211 0
M  V30 2363 O 238.114 -0.423253 1.89532 0
M  V30 2364 C 235.244 -0.34572 3.45575 0
M  V30 2365 C 234.198 0.496599 4.25109 0
M  V30 2366 C 233.524 -0.393771 5.33248 0
M  V30 2367 C 234.824 1.75307 4.92001 0
M  V30 2368 H 236.518 1.26249 2.7148 0
M  V30 2369 H 234.064 0.608515 1.30511 0
M  V30 2370 H 236.017 -0.703422 4.15488 0
M  V30 2371 H 234.741 -1.2257 3.02728 0
M  V30 2372 H 233.4 0.8368 3.56922 0
M  V30 2373 H 233.048 -1.27225 4.86644 0
M  V30 2374 H 232.748 0.166209 5.87365 0
M  V30 2375 H 234.272 -0.747389 6.06009 0
M  V30 2376 H 235.686 1.46437 5.54283 0
M  V30 2377 H 234.083 2.25534 5.56106 0
M  V30 2378 H 235.153 2.48176 4.16577 0
M  V30 2379 N 236.496 -1.42363 0.676048 0
M  V30 2380 C 237.429 -2.28141 -0.0516916 0
M  V30 2381 C 238.407 -1.41135 -0.807439 0
M  V30 2382 O 239.591 -1.70573 -0.802305 0
M  V30 2383 C 236.718 -3.21007 -1.08039 0
M  V30 2384 C 235.764 -4.24426 -0.420076 0
M  V30 2385 S 236.597 -5.29134 0.823246 0
M  V30 2386 C 237.753 -6.25566 -0.204344 0
M  V30 2387 H 237.986 -2.89515 0.675884 0
M  V30 2388 H 235.519 -1.47211 0.465635 0
M  V30 2389 H 237.477 -3.75048 -1.66881 0
M  V30 2390 H 236.138 -2.58766 -1.78042 0
M  V30 2391 H 235.331 -4.89596 -1.19633 0
M  V30 2392 H 234.933 -3.7388 0.0947845 0
M  V30 2393 H 237.225 -6.69098 -1.06369 0
M  V30 2394 H 238.168 -7.06895 0.412915 0
M  V30 2395 H 238.576 -5.61811 -0.55038 0
M  V30 2396 N 237.974 -0.419461 -1.51915 0
M  V30 2397 C 238.924 0.418496 -2.24126 0
M  V30 2398 C 239.908 1.00495 -1.25656 0
M  V30 2399 O 241.1 0.926058 -1.50842 0
M  V30 2400 C 238.229 1.52899 -3.07371 0
M  V30 2401 C 237.315 0.952797 -4.13258 0
M  V30 2402 N 237.706 0.104175 -5.05693 0
M  V30 2403 C 236.004 1.22224 -4.28926 0
M  V30 2404 C 236.705 -0.21752 -5.81293 0
M  V30 2405 N 235.681 0.394293 -5.42168 0
M  V30 2406 H 239.483 -0.236048 -2.92951 0
M  V30 2407 H 236.997 -0.230481 -1.60756 0
M  V30 2408 H 238.994 2.14199 -3.57665 0
M  V30 2409 H 237.654 2.18605 -2.40088 0
M  V30 2410 H 238.665 -0.260924 -5.17242 0
M  V30 2411 H 235.342 1.87812 -3.72871 0
M  V30 2412 H 236.732 -0.906992 -6.6575 0
M  V30 2413 N 239.452 1.56882 -0.150215 0
M  V30 2414 C 240.692 1.98119 0.502804 0
M  V30 2415 C 241.056 1.03327 1.61826 0
M  V30 2416 O 242.257 1.33621 2.33236 0
M  V30 2417 C 240.528 3.43329 0.992988 0
M  V30 2418 S 242.087 4.0659 1.65015 0
M  V30 2419 H 238.905 0.692189 0.162467 0
M  V30 2420 H 241.507 1.93988 -0.242689 0
M  V30 2421 H 240.211 4.10046 0.170436 0
M  V30 2422 H 239.742 3.5118 1.77303 0
M  V30 2423 H 241.757 3.99906 2.93752 0
M  V30 2424 N 240.93 -0.123565 1.57115 0
M  V30 2425 C 241.862 -1.17739 1.96648 0
M  V30 2426 C 242.875 -1.37906 0.865201 0
M  V30 2427 O 244.064 -1.37062 1.14351 0
M  V30 2428 C 241.164 -2.53821 2.24562 0
M  V30 2429 C 240.337 -2.54317 3.55867 0
M  V30 2430 C 239.396 -3.72112 3.72047 0
M  V30 2431 O 238.422 -3.55907 4.44206 0
M  V30 2432 N 239.624 -4.90498 3.10471 0
M  V30 2433 H 242.389 -0.841147 2.87654 0
M  V30 2434 H 239.95 -0.31289 1.58848 0
M  V30 2435 H 241.942 -3.31175 2.32606 0
M  V30 2436 H 240.512 -2.79645 1.39705 0
M  V30 2437 H 239.732 -1.62711 3.59053 0
M  V30 2438 H 241.02 -2.51701 4.42181 0
M  V30 2439 H 240.418 -5.06567 2.51806 0
M  V30 2440 H 238.975 -5.65544 3.24043 0
M  V30 2441 N 242.408 -1.52605 -0.393616 0
M  V30 2442 C 243.636 -1.71294 -1.16043 0
M  V30 2443 C 244.051 -0.429259 -1.83855 0
M  V30 2444 O 243.408 0.595921 -1.72496 0
M  V30 2445 C 243.459 -2.8593 -2.21193 0
M  V30 2446 O 243.18 -4.09329 -1.56146 0
M  V30 2447 C 244.681 -3.16259 -3.10636 0
M  V30 2448 H 241.901 -0.573641 -0.348104 0
M  V30 2449 H 244.445 -1.99234 -0.461092 0
M  V30 2450 H 242.6 -2.60465 -2.86769 0
M  V30 2451 H 243.014 -4.73323 -2.25978 0
M  V30 2452 H 244.488 -3.99946 -3.80456 0
M  V30 2453 H 244.965 -2.3045 -3.73884 0
M  V30 2454 H 245.571 -3.43547 -2.50711 0
M  V30 2455 N 243.887 0.651787 -1.4349 0
M  V30 2456 C 245.115 1.43937 -1.48626 0
M  V30 2457 C 245.53 1.8851 -0.104587 0
M  V30 2458 O 244.887 1.5958 0.885464 0
M  V30 2459 C 244.938 2.6734 -2.43334 0
M  V30 2460 O 244.659 2.24631 -3.76128 0
M  V30 2461 C 246.16 3.60683 -2.57726 0
M  V30 2462 H 243.38 0.44213 -0.504739 0
M  V30 2463 H 245.924 0.798944 -1.88248 0
M  V30 2464 H 244.079 3.2752 -2.06904 0
M  V30 2465 H 244.493 3.04485 -4.2707 0
M  V30 2466 H 245.967 4.43933 -3.28067 0
M  V30 2467 H 246.444 4.08126 -1.62265 0
M  V30 2468 H 247.05 3.06384 -2.94973 0
M  V30 2469 N 245.365 1.30045 0.890287 0
M  V30 2470 C 246.295 1.18541 2.01172 0
M  V30 2471 C 247.276 0.0773356 1.69924 0
M  V30 2472 O 248.461 0.25845 1.92473 0
M  V30 2473 C 245.591 0.870941 3.36202 0
M  V30 2474 C 244.545 1.93637 3.81692 0
M  V30 2475 C 243.871 1.475 5.13953 0
M  V30 2476 C 245.171 3.34666 4.00994 0
M  V30 2477 H 246.865 2.12359 2.11054 0
M  V30 2478 H 244.411 1.02238 1.01407 0
M  V30 2479 H 246.364 0.777141 4.14172 0
M  V30 2480 H 245.088 -0.102926 3.26438 0
M  V30 2481 H 243.747 2.01972 3.05946 0
M  V30 2482 H 243.395 0.489551 5.00612 0
M  V30 2483 H 243.095 2.1876 5.4536 0
M  V30 2484 H 244.619 1.39489 5.94454 0
M  V30 2485 H 246.033 3.2912 4.69417 0
M  V30 2486 H 244.43 4.03966 4.43769 0
M  V30 2487 H 245.5 3.76949 3.05021 0
M  V30 2488 N 246.843 -1.10192 1.12674 0
M  V30 2489 C 247.79 -2.16606 0.796906 0
M  V30 2490 C 248.76 -1.64394 -0.237476 0
M  V30 2491 O 249.945 -1.90474 -0.111484 0
M  V30 2492 C 247.085 -3.44116 0.26043 0
M  V30 2493 C 246.198 -4.10268 1.35293 0
M  V30 2494 C 245.333 -5.25507 0.775621 0
M  V30 2495 C 244.372 -5.83567 1.84706 0
M  V30 2496 N 243.509 -6.90179 1.28829 0
M  V30 2497 H 248.349 -2.44163 1.70846 0
M  V30 2498 H 245.886 -1.19846 0.85295 0
M  V30 2499 H 247.844 -4.17143 -0.0686814 0
M  V30 2500 H 246.474 -3.16901 -0.614274 0
M  V30 2501 H 245.526 -3.35184 1.79877 0
M  V30 2502 H 246.838 -4.4946 2.16303 0
M  V30 2503 H 245.992 -6.05398 0.397327 0
M  V30 2504 H 244.731 -4.87656 -0.0656581 0
M  V30 2505 H 243.736 -5.02344 2.23452 0
M  V30 2506 H 244.961 -6.23482 2.69161 0
M  V30 2507 H 242.907 -6.54322 0.468881 0
M  V30 2508 H 242.824 -7.28097 2.03497 0
M  V30 2509 H 244.092 -7.73844 0.937311 0
M  V30 2510 N 248.321 -0.919034 -1.28029 0
M  V30 2511 C 249.551 -0.570143 -1.98577 0
M  V30 2512 C 249.959 0.854172 -1.68821 0
M  V30 2513 O 249.302 1.57807 -0.940351 0
M  V30 2514 C 249.364 -0.705734 -3.52505 0
M  V30 2515 C 249.028 -2.10057 -4.05863 0
M  V30 2516 C 250.025 -3.07385 -4.19298 0
M  V30 2517 C 247.71 -2.41517 -4.40426 0
M  V30 2518 C 249.704 -4.34287 -4.66555 0
M  V30 2519 C 247.391 -3.68657 -4.87376 0
M  V30 2520 C 248.389 -4.64856 -5.00398 0
M  V30 2521 O 248.077 -5.89735 -5.46322 0
M  V30 2522 H 247.809 -0.215592 -0.6407 0
M  V30 2523 H 250.363 -1.23583 -1.64062 0
M  V30 2524 H 248.593 0.0170414 -3.86696 0
M  V30 2525 H 250.282 -0.363172 -4.04272 0
M  V30 2526 H 251.048 -2.84398 -3.92865 0
M  V30 2527 H 246.927 -1.67389 -4.29537 0
M  V30 2528 H 250.471 -5.09377 -4.76635 0
M  V30 2529 H 246.368 -3.91466 -5.13249 0
M  V30 2530 H 247.136 -5.92599 -5.64596 0
M  V30 2531 N 249.799 1.42003 -0.683588 0
M  V30 2532 C 250.762 2.29191 -0.0198243 0
M  V30 2533 C 251.762 1.43773 0.72013 0
M  V30 2534 O 252.952 1.65061 0.556815 0
M  V30 2535 C 250.084 3.26435 0.982487 0
M  V30 2536 H 251.277 2.8938 -0.787345 0
M  V30 2537 H 248.83 1.49789 -0.446418 0
M  V30 2538 H 249.565 2.71203 1.77819 0
M  V30 2539 H 249.35 3.89449 0.455182 0
M  V30 2540 H 250.84 3.918 1.44508 0
M  V30 2541 N 251.277 0.427512 1.51691 0
M  V30 2542 C 252.526 -0.143679 2.01188 0
M  V30 2543 C 252.839 -1.44642 1.31674 0
M  V30 2544 O 254.045 -2.09997 1.72086 0
M  V30 2545 C 252.501 -0.306602 3.58592 0
M  V30 2546 C 252.109 0.985125 4.37035 0
M  V30 2547 C 253.853 -0.832091 4.16265 0
M  V30 2548 C 251.76 0.788382 5.86122 0
M  V30 2549 H 250.69 -0.0574701 0.751807 0
M  V30 2550 H 253.341 0.555772 1.74881 0
M  V30 2551 H 251.723 -1.06882 3.81303 0
M  V30 2552 H 252.897 1.75492 4.26074 0
M  V30 2553 H 251.212 1.4384 3.90767 0
M  V30 2554 H 253.809 -0.995617 5.25349 0
M  V30 2555 H 254.152 -1.81186 3.74803 0
M  V30 2556 H 254.685 -0.128444 3.97593 0
M  V30 2557 H 251.424 1.74025 6.31978 0
M  V30 2558 H 250.944 0.0582143 5.99772 0
M  V30 2559 H 252.623 0.437722 6.45518 0
M  V30 2560 N 252.755 -1.56801 0.158532 0
M  V30 2561 C 253.702 -2.17337 -0.776729 0
M  V30 2562 C 254.672 -1.1096 -1.23601 0
M  V30 2563 O 255.857 -1.39054 -1.30647 0
M  V30 2564 C 252.997 -2.80822 -2.00582 0
M  V30 2565 C 252.11 -4.01624 -1.59129 0
M  V30 2566 C 251.245 -4.53072 -2.77306 0
M  V30 2567 C 250.284 -5.66314 -2.32282 0
M  V30 2568 N 249.421 -6.12329 -3.43508 0
M  V30 2569 H 254.261 -2.96918 -0.253701 0
M  V30 2570 H 251.798 -1.46661 -0.113504 0
M  V30 2571 H 253.756 -3.15779 -2.72652 0
M  V30 2572 H 252.386 -2.03866 -2.50277 0
M  V30 2573 H 251.438 -3.72571 -0.767806 0
M  V30 2574 H 252.75 -4.83633 -1.2207 0
M  V30 2575 H 251.904 -4.90145 -3.57551 0
M  V30 2576 H 250.643 -3.70095 -3.17617 0
M  V30 2577 H 249.648 -5.28806 -1.5048 0
M  V30 2578 H 250.873 -6.51085 -1.93043 0
M  V30 2579 H 248.819 -5.32284 -3.83418 0
M  V30 2580 H 248.736 -6.89293 -3.105 0
M  V30 2581 H 250.004 -6.5405 -4.24075 0
M  V30 2582 N 254.233 0.115231 -1.57178 0
M  V30 2583 C 255.461 0.836437 -1.89239 0
M  V30 2584 C 255.876 1.73256 -0.750175 0
M  V30 2585 O 255.233 1.80357 0.278832 0
M  V30 2586 C 255.284 1.66671 -3.20785 0
M  V30 2587 O 255.005 0.806652 -4.3061 0
M  V30 2588 C 256.506 2.49274 -3.66575 0
M  V30 2589 H 253.726 0.240253 -0.626514 0
M  V30 2590 H 256.27 0.0984932 -2.04263 0
M  V30 2591 H 254.425 2.35737 -3.0742 0
M  V30 2592 H 254.839 1.37969 -5.06028 0
M  V30 2593 H 256.313 3.03055 -4.6137 0
M  V30 2594 H 256.79 3.26807 -2.93417 0
M  V30 2595 H 257.396 1.85443 -3.82741 0
M  V30 2596 N 255.711 1.52812 0.385517 0
M  V30 2597 C 256.959 1.67694 1.12797 0
M  V30 2598 C 257.28 0.421115 1.90399 0
M  V30 2599 O 256.55 -0.564551 1.87589 0
M  V30 2600 H 255.13 0.618155 0.419396 0
M  V30 2601 H 257.792 1.89938 0.436972 0
M  V30 2602 H 256.888 2.52896 1.82894 0
M  V30 2603 N 257.189 -0.644168 1.43834 0
M  V30 2604 C 258.139 -1.7501 1.46135 0
M  V30 2605 C 259.123 -1.57507 0.328685 0
M  V30 2606 O 260.315 -1.67465 0.5731 0
M  V30 2607 C 257.444 -3.13641 1.39585 0
M  V30 2608 C 256.53 -3.3666 2.57916 0
M  V30 2609 N 256.921 -3.30107 3.83227 0
M  V30 2610 C 255.219 -3.67411 2.52834 0
M  V30 2611 C 255.92 -3.53456 4.61999 0
M  V30 2612 N 254.896 -3.75705 3.9287 0
M  V30 2613 H 258.698 -1.68382 2.40883 0
M  V30 2614 H 256.212 -0.846169 1.38614 0
M  V30 2615 H 258.209 -3.92933 1.39317 0
M  V30 2616 H 256.869 -3.21444 0.45865 0
M  V30 2617 H 257.88 -3.09316 4.15384 0
M  V30 2618 H 254.557 -3.82275 1.67845 0
M  V30 2619 H 255.947 -3.54093 5.71024 0
M  V30 2620 N 258.668 -1.30515 -0.883378 0
M  V30 2621 C 260.079 -1.17509 -1.45081 0
M  V30 2622 C 260.43 0.223605 -1.94922 0
M  V30 2623 O 259.555 1.12041 -1.85137 0
M  V30 2624 C 260.15 -2.12715 -2.63701 0
M  V30 2625 C 258.709 -2.03682 -3.16529 0
M  V30 2626 C 257.856 -2.02706 -1.89224 0
M  V30 2627 H 260.807 -1.42762 -0.693165 0
M  V30 2628 H 260.828 -1.70891 -3.39965 0
M  V30 2629 H 260.34 -3.14505 -2.27395 0
M  V30 2630 H 258.441 -1.05039 -3.57488 0
M  V30 2631 H 258.554 -2.92146 -3.7972 0
M  V30 2632 H 256.918 -1.4753 -2.07622 0
M  V30 2633 H 257.701 -3.06229 -1.55174 0
M  V30 2634 N 260.146 1.09593 -1.13257 0
M  V30 2635 C 261.562 1.33775 -0.870423 0
M  V30 2636 C 261.762 1.95327 0.494926 0
M  V30 2637 O 260.818 2.19853 1.2418 0
M  V30 2638 C 262.131 2.25106 -1.99369 0
M  V30 2639 C 263.679 2.3862 -2.02558 0
M  V30 2640 C 264.154 3.33285 -3.14142 0
M  V30 2641 N 265.645 3.40857 -3.13641 0
M  V30 2642 C 266.38 4.14101 -3.96621 0
M  V30 2643 N 265.876 4.90157 -4.8961 0
M  V30 2644 N 267.669 4.09808 -3.84726 0
M  V30 2645 H 259.82 0.680136 -2.01216 0
M  V30 2646 H 262.083 0.362133 -0.876107 0
M  V30 2647 H 261.789 1.87103 -2.97801 0
M  V30 2648 H 261.663 3.25481 -1.90635 0
M  V30 2649 H 264.05 2.75887 -1.0474 0
M  V30 2650 H 264.131 1.38028 -2.15364 0
M  V30 2651 H 263.775 2.96741 -4.12198 0
M  V30 2652 H 263.705 4.33776 -2.98574 0
M  V30 2653 H 266.196 2.86624 -2.46282 0
M  V30 2654 H 266.509 5.4347 -5.49418 0
M  V30 2655 H 264.854 4.89251 -4.93617 0
M  V30 2656 H 268.045 3.4949 -3.11408 0
M  V30 2657 H 268.218 4.66629 -4.49623 0
M  V30 2658 N 261.624 0.925811 1.2754 0
M  V30 2659 C 262.854 0.580666 1.98272 0
M  V30 2660 C 263.262 -0.845207 1.69272 0
M  V30 2661 O 262.605 -1.57306 0.948707 0
M  V30 2662 C 262.667 0.724418 3.52126 0
M  V30 2663 C 262.331 2.12206 4.04744 0
M  V30 2664 C 263.328 3.09604 4.17662 0
M  V30 2665 C 261.013 2.4385 4.39138 0
M  V30 2666 C 263.007 4.36755 4.64246 0
M  V30 2667 C 260.694 3.71237 4.85414 0
M  V30 2668 C 261.692 4.67503 4.97926 0
M  V30 2669 O 261.38 5.92624 5.43187 0
M  V30 2670 H 261.112 0.218987 0.639547 0
M  V30 2671 H 263.666 1.24452 1.63404 0
M  V30 2672 H 261.896 0.0034663 3.867 0
M  V30 2673 H 263.585 0.384607 4.04074 0
M  V30 2674 H 264.351 2.86478 3.91351 0
M  V30 2675 H 260.23 1.69665 4.28643 0
M  V30 2676 H 263.774 5.11898 4.73927 0
M  V30 2677 H 259.671 3.94182 5.11166 0
M  V30 2678 H 260.439 5.95585 5.61445 0
M  V30 2679 N 263.102 -1.41638 0.69111 0
M  V30 2680 C 264.349 -2.01299 0.220193 0
M  V30 2681 C 264.677 -1.54715 -1.17871 0
M  V30 2682 O 263.932 -0.747193 -1.80874 0
M  V30 2683 C 264.231 -3.56714 0.221277 0
M  V30 2684 C 263.897 -4.22792 1.56709 0
M  V30 2685 C 262.559 -4.40557 1.93554 0
M  V30 2686 C 264.911 -4.59883 2.45268 0
M  V30 2687 C 262.239 -4.92688 3.18552 0
M  V30 2688 C 264.591 -5.13403 3.69595 0
M  V30 2689 C 263.255 -5.29379 4.06589 0
M  V30 2690 H 262.525 -0.736606 0.0805743 0
M  V30 2691 H 265.172 -1.69598 0.889319 0
M  V30 2692 H 263.477 -3.8818 -0.531391 0
M  V30 2693 H 265.174 -4.00678 -0.160547 0
M  V30 2694 H 261.764 -4.09336 1.2705 0
M  V30 2695 H 265.948 -4.45817 2.18084 0
M  V30 2696 H 261.204 -5.03242 3.47214 0
M  V30 2697 H 265.378 -5.41084 4.38407 0
M  V30 2698 H 263.005 -5.69537 5.03519 0
M  V30 2699 N 264.58 -0.43555 -1.51462 0
M  V30 2700 C 265.528 0.391205 -2.29287 0
M  V30 2701 C 266.522 1.02247 -1.35062 0
M  V30 2702 O 267.728 0.957646 -1.52411 0
M  V30 2703 H 264.103 0.144968 -0.737895 0
M  V30 2704 H 266.074 -0.286051 -2.97026 0
M  V30 2705 C 264.823 1.48096 -3.14583 0
M  V30 2706 H 264.146 1.00457 -3.86973 0
M  V30 2707 H 265.586 2.03273 -3.72097 0
M  V30 2708 C 264.045 2.46321 -2.29843 0
M  V30 2709 O 264.575 3.50815 -1.95682 0
M  V30 2710 N 262.781 2.17166 -1.931 0
M  V30 2711 H 262.328 1.32218 -2.21079 0
M  V30 2712 H 262.286 2.83127 -1.36698 0
M  V30 2713 N 266.058 1.56714 -0.166846 0
M  V30 2714 C 266.99 2.14914 0.796537 0
M  V30 2715 C 268.003 1.10357 1.19688 0
M  V30 2716 O 269.192 1.37561 1.13751 0
M  V30 2717 C 266.292 2.67326 2.08303 0
M  V30 2718 C 265.465 3.96493 1.84696 0
M  V30 2719 C 264.524 4.34014 2.97521 0
M  V30 2720 O 263.55 5.01973 2.6835 0
M  V30 2721 N 264.752 3.95208 4.25196 0
M  V30 2722 H 267.517 2.98205 0.299006 0
M  V30 2723 H 265.078 1.61892 0.0160839 0
M  V30 2724 H 267.07 2.89428 2.82867 0
M  V30 2725 H 265.64 1.88649 2.4926 0
M  V30 2726 H 264.86 3.82814 0.940602 0
M  V30 2727 H 266.148 4.8086 1.66285 0
M  V30 2728 H 265.546 3.40487 4.51758 0
M  V30 2729 H 264.103 4.2232 4.96477 0
M  V30 2730 N 267.536 -0.106894 1.57237 0
M  V30 2731 C 268.466 -1.13148 2.04254 0
M  V30 2732 C 269.447 -1.42476 0.929224 0
M  V30 2733 O 270.632 -1.52709 1.19973 0
M  V30 2734 C 267.762 -2.4545 2.45706 0
M  V30 2735 C 266.716 -2.30558 3.60592 0
M  V30 2736 C 266.042 -3.67931 3.87983 0
M  V30 2737 C 267.342 -1.75597 4.91897 0
M  V30 2738 H 269.036 -0.740374 2.90101 0
M  V30 2739 H 266.582 -0.354696 1.39563 0
M  V30 2740 H 268.535 -3.17389 2.77205 0
M  V30 2741 H 267.259 -2.86475 1.56843 0
M  V30 2742 H 265.918 -1.61067 3.29322 0
M  V30 2743 H 265.566 -4.06462 2.96306 0
M  V30 2744 H 265.266 -3.58817 4.65322 0
M  V30 2745 H 266.79 -4.41356 4.21945 0
M  V30 2746 H 268.204 -2.37364 5.21854 0
M  V30 2747 H 266.601 -1.77272 5.73319 0
M  V30 2748 H 267.671 -0.714451 4.79608 0
M  V30 2749 N 269.014 -1.53014 -0.377408 0
M  V30 2750 C 270.239 -1.72818 -1.14668 0
M  V30 2751 C 270.664 -0.450725 -1.8262 0
M  V30 2752 O 270.022 0.59439 -1.7128 0
M  V30 2753 C 270.07 -2.88627 -2.16164 0
M  V30 2754 O 269.174 -2.56409 -3.22998 0
M  V30 2755 H 268.515 -0.574301 -0.333278 0
M  V30 2756 H 271.045 -1.99853 -0.438152 0
M  V30 2757 H 271.055 -3.14455 -2.59966 0
M  V30 2758 H 269.73 -3.81294 -1.66095 0
M  V30 2759 H 268.307 -2.4136 -2.84253 0
M  V30 2760 N 270.492 0.636531 -1.44174 0
M  V30 2761 C 271.72 1.42353 -1.50144 0
M  V30 2762 C 272.135 1.88389 -0.124575 0
M  V30 2763 O 271.492 1.6051 0.868489 0
M  V30 2764 C 271.543 2.64744 -2.46156 0
M  V30 2765 O 271.264 2.20629 -3.7849 0
M  V30 2766 C 272.765 3.57929 -2.61537 0
M  V30 2767 H 269.985 0.436752 -0.5094 0
M  V30 2768 H 272.529 0.778933 -1.89084 0
M  V30 2769 H 270.684 3.25307 -2.10366 0
M  V30 2770 H 271.098 2.99938 -4.30276 0
M  V30 2771 H 272.572 4.40428 -3.32757 0
M  V30 2772 H 273.049 4.06382 -1.66585 0
M  V30 2773 H 273.655 3.03238 -2.98206 0
M  V30 2774 N 271.97 1.30982 0.876444 0
M  V30 2775 C 273.218 1.20058 1.62575 0
M  V30 2776 C 273.539 -0.242947 1.93481 0
M  V30 2777 O 272.809 -1.1619 1.57724 0
M  V30 2778 H 271.389 0.44135 0.602677 0
M  V30 2779 H 274.051 1.64222 1.04962 0
M  V30 2780 H 273.147 1.76762 2.57219 0
M  V30 2781 N 273.449 -1.08991 1.13837 0
M  V30 2782 C 274.379 -2.17771 0.842507 0
M  V30 2783 C 275.36 -1.6892 -0.20001 0
M  V30 2784 O 276.545 -1.94113 -0.0579731 0
M  V30 2785 C 273.675 -3.4589 0.312644 0
M  V30 2786 C 272.629 -4.08099 1.28992 0
M  V30 2787 C 271.955 -5.31098 0.619623 0
M  V30 2788 C 273.255 -4.50077 2.65005 0
M  V30 2789 H 274.949 -2.42777 1.75213 0
M  V30 2790 H 272.495 -1.16682 0.843875 0
M  V30 2791 H 274.448 -4.21297 0.0933043 0
M  V30 2792 H 273.172 -3.20419 -0.632382 0
M  V30 2793 H 271.831 -3.34717 1.49533 0
M  V30 2794 H 271.479 -5.0191 -0.33102 0
M  V30 2795 H 271.179 -5.73674 1.27167 0
M  V30 2796 H 272.703 -6.09224 0.409669 0
M  V30 2797 H 274.117 -5.16688 2.48407 0
M  V30 2798 H 272.514 -5.03553 3.26427 0
M  V30 2799 H 273.584 -3.62257 3.22332 0
M  V30 2800 N 274.927 -0.932562 -1.27047 0
M  V30 2801 C 276.204 -0.49377 -1.89265 0
M  V30 2802 C 276.584 1.02833 -1.8436 0
M  V30 2803 O 275.932 1.88461 -1.29209 0
M  V30 2804 C 276.142 -1.04536 -3.32976 0
M  V30 2805 C 277.49 -1.10879 -4.09867 0
M  V30 2806 O 278.514 -0.995327 -3.42011 0
M  V30 2807 O 277.373 -1.28417 -5.31198 0
M  V30 2808 H 274.467 -0.159596 -0.811454 0
M  V30 2809 H 277.013 -1.02457 -1.3528 0
M  V30 2810 H 275.785 -2.08913 -3.30864 0
M  V30 2811 H 275.408 -0.496494 -3.94488 0
M  V30 2812 N 276.405 1.4127 -0.698611 0
M  V30 2813 C 277.338 2.28195 0.0153898 0
M  V30 2814 C 278.316 1.42402 0.784883 0
M  V30 2815 O 279.5 1.71828 0.775067 0
M  V30 2816 C 276.627 3.22685 1.02918 0
M  V30 2817 C 275.673 4.25041 0.352501 0
M  V30 2818 S 276.506 5.27757 -0.907322 0
M  V30 2819 C 277.662 6.25812 0.104796 0
M  V30 2820 H 277.895 2.88403 -0.721858 0
M  V30 2821 H 275.428 1.46452 -0.488996 0
M  V30 2822 H 277.386 3.77655 1.60893 0
M  V30 2823 H 276.047 2.61566 1.73902 0
M  V30 2824 H 275.24 4.91437 1.11828 0
M  V30 2825 H 274.842 3.73682 -0.154254 0
M  V30 2826 H 277.134 6.70705 0.957103 0
M  V30 2827 H 278.077 7.06149 -0.525323 0
M  V30 2828 H 278.485 5.62615 0.460931 0
M  V30 2829 N 277.883 0.443576 1.51229 0
M  V30 2830 C 279.129 -0.120975 2.02439 0
M  V30 2831 C 279.462 -1.41815 1.32674 0
M  V30 2832 O 278.737 -1.89373 0.443622 0
M  V30 2833 C 279.02 -0.333291 3.58554 0
M  V30 2834 C 278.873 0.982968 4.38928 0
M  V30 2835 C 280.192 -1.10028 4.26124 0
M  V30 2836 H 277.311 -0.0424923 0.735774 0
M  V30 2837 H 279.953 0.583794 1.80809 0
M  V30 2838 H 278.103 -0.933614 3.77115 0
M  V30 2839 H 279.775 1.61775 4.32003 0
M  V30 2840 H 278.018 1.58611 4.03763 0
M  V30 2841 H 278.689 0.788379 5.46341 0
M  V30 2842 H 281.165 -0.591711 4.11871 0
M  V30 2843 H 280.041 -1.21761 5.35225 0
M  V30 2844 H 280.302 -2.12996 3.87408 0
M  V30 2845 N 279.361 -1.56624 0.175154 0
M  V30 2846 C 280.609 -1.96609 -0.467885 0
M  V30 2847 C 280.93 -1.06238 -1.63519 0
M  V30 2848 O 280.2 -0.129523 -1.95471 0
M  V30 2849 H 278.78 -0.726008 -0.175845 0
M  V30 2850 H 281.442 -1.93195 0.257234 0
M  V30 2851 H 280.538 -3.00989 -0.825342 0
M  V30 2852 N 280.839 0.0985539 -1.57292 0
M  V30 2853 C 281.769 1.12064 -2.04851 0
M  V30 2854 C 282.75 1.41981 -0.936767 0
M  V30 2855 O 283.935 1.52071 -1.20781 0
M  V30 2856 C 281.065 2.44144 -2.47004 0
M  V30 2857 C 280.019 2.28643 -3.6181 0
M  V30 2858 C 279.345 3.65869 -3.89929 0
M  V30 2859 C 280.645 1.72986 -4.92822 0
M  V30 2860 H 282.339 0.724979 -2.9049 0
M  V30 2861 H 279.885 0.34729 -1.39749 0
M  V30 2862 H 281.838 3.15914 -2.78884 0
M  V30 2863 H 280.562 2.85639 -1.5836 0
M  V30 2864 H 279.221 1.59318 -3.30172 0
M  V30 2865 H 278.869 4.04885 -2.98458 0
M  V30 2866 H 278.569 3.56344 -4.67218 0
M  V30 2867 H 280.093 4.39112 -4.2428 0
M  V30 2868 H 281.507 2.34593 -5.23105 0
M  V30 2869 H 279.904 1.74229 -5.74251 0
M  V30 2870 H 280.974 0.689007 -4.7998 0
M  V30 2871 N 282.317 1.53212 0.369288 0
M  V30 2872 C 283.28 1.7872 1.43498 0
M  V30 2873 C 284.28 0.657554 1.46741 0
M  V30 2874 O 285.47 0.925736 1.47566 0
M  V30 2875 C 282.602 1.90591 2.82645 0
M  V30 2876 H 283.795 2.73894 1.22156 0
M  V30 2877 H 281.348 1.44233 0.602203 0
M  V30 2878 H 282.083 0.974709 3.09306 0
M  V30 2879 H 281.868 2.72751 2.8169 0
M  V30 2880 H 283.358 2.11931 3.59826 0
M  V30 2881 N 283.795 -0.628877 1.44509 0
M  V30 2882 C 284.758 -1.72263 1.51188 0
M  V30 2883 C 285.758 -1.55907 0.39367 0
M  V30 2884 O 286.948 -1.61361 0.656377 0
M  V30 2885 C 284.08 -3.11365 1.38798 0
M  V30 2886 H 285.273 -1.67714 2.4862 0
M  V30 2887 H 282.826 -0.842737 1.31634 0
M  V30 2888 H 283.561 -3.21507 0.424693 0
M  V30 2889 H 283.346 -3.24644 2.19884 0
M  V30 2890 H 284.836 -3.91075 1.46458 0
M  V30 2891 N 285.273 -1.31445 -0.869486 0
M  V30 2892 C 286.55 -1.11795 -1.60503 0
M  V30 2893 C 286.93 0.327168 -2.08549 0
M  V30 2894 O 286.278 1.32135 -1.8642 0
M  V30 2895 C 286.488 -2.13258 -2.76265 0
M  V30 2896 C 287.836 -2.45805 -3.46215 0
M  V30 2897 O 288.86 -2.11688 -2.86473 0
M  V30 2898 O 287.719 -3.04228 -4.5399 0
M  V30 2899 H 284.813 -0.430421 -0.706163 0
M  V30 2900 H 287.359 -1.42925 -0.914907 0
M  V30 2901 H 286.131 -3.10461 -2.3818 0
M  V30 2902 H 285.754 -1.83035 -3.52964 0
M  V30 2903 N 286.751 1.08385 -1.14413 0
M  V30 2904 C 287.997 1.81212 -0.923793 0
M  V30 2905 C 288.352 1.84555 0.543814 0
M  V30 2906 O 287.645 1.31056 1.39767 0
M  V30 2907 C 287.839 3.26273 -1.45879 0
M  V30 2908 C 287.668 3.37063 -2.97689 0
M  V30 2909 C 286.438 3.4824 -3.66138 0
M  V30 2910 C 288.636 3.28698 -3.95553 0
M  V30 2911 N 286.618 3.47824 -5.05858 0
M  V30 2912 C 287.989 3.35276 -5.21527 0
M  V30 2913 C 290.044 3.12437 -3.8767 0
M  V30 2914 C 288.747 3.27267 -6.40538 0
M  V30 2915 C 290.773 3.05757 -5.06228 0
M  V30 2916 C 290.135 3.12938 -6.3107 0
M  V30 2917 H 286.234 0.6769 -0.391574 0
M  V30 2918 H 288.818 1.29455 -1.45429 0
M  V30 2919 H 286.989 3.76474 -0.95507 0
M  V30 2920 H 288.721 3.87165 -1.17835 0
M  V30 2921 H 285.476 3.52141 -3.16692 0
M  V30 2922 H 285.9 3.51171 -5.78798 0
M  V30 2923 H 290.542 3.05747 -2.92025 0
M  V30 2924 H 288.26 3.32718 -7.36427 0
M  V30 2925 H 291.846 2.94295 -5.01878 0
M  V30 2926 H 290.726 3.078 -7.21269 0
M  V30 2927 N 288.23 0.939286 1.26551 0
M  V30 2928 C 289.16 0.465044 2.28822 0
M  V30 2929 C 290.141 -0.480692 1.63167 0
M  V30 2930 O 291.326 -0.382955 1.90387 0
M  V30 2931 C 288.456 -0.27234 3.46231 0
M  V30 2932 C 287.41 0.58666 4.2396 0
M  V30 2933 C 286.736 -0.280573 5.33963 0
M  V30 2934 C 288.036 1.85704 4.88171 0
M  V30 2935 H 289.73 1.31979 2.68741 0
M  V30 2936 H 287.276 0.636061 1.29191 0
M  V30 2937 H 289.229 -0.615133 4.16886 0
M  V30 2938 H 287.953 -1.16121 3.0526 0
M  V30 2939 H 286.612 0.91232 3.55067 0
M  V30 2940 H 286.26 -1.16874 4.89234 0
M  V30 2941 H 285.96 0.29076 5.8688 0
M  V30 2942 H 287.484 -0.618678 6.07458 0
M  V30 2943 H 288.898 1.58161 5.51052 0
M  V30 2944 H 287.295 2.37279 5.51197 0
M  V30 2945 H 288.365 2.56957 4.11219 0
M  V30 2946 N 289.708 -1.40897 0.706093 0
M  V30 2947 C 290.936 -2.05373 0.250887 0
M  V30 2948 C 291.351 -1.53172 -1.10381 0
M  V30 2949 O 290.708 -0.684305 -1.69185 0
M  V30 2950 C 290.759 -3.6088 0.211571 0
M  V30 2951 O 290.48 -4.11153 1.51276 0
M  V30 2952 C 291.981 -4.42517 -0.263346 0
M  V30 2953 H 289.201 -0.66115 0.114552 0
M  V30 2954 H 291.745 -1.80479 0.961635 0
M  V30 2955 H 289.9 -3.84777 -0.450073 0
M  V30 2956 H 290.314 -5.05279 1.40689 0
M  V30 2957 H 291.788 -5.51479 -0.239718 0
M  V30 2958 H 292.265 -4.19396 -1.30397 0
M  V30 2959 H 292.871 -4.23708 0.367677 0
M  V30 2960 N 291.186 -0.45159 -1.50991 0
M  V30 2961 C 292.411 0.110667 -2.07105 0
M  V30 2962 C 292.836 1.3446 -1.31538 0
M  V30 2963 O 292.194 1.77743 -0.357365 0
M  V30 2964 C 292.242 0.397238 -3.58405 0
M  V30 2965 O 291.346 1.48124 -3.84881 0
M  V30 2966 H 290.687 -0.00439271 -0.663985 0
M  V30 2967 H 293.217 -0.637026 -1.9443 0
M  V30 2968 H 293.227 0.64351 -4.02893 0
M  V30 2969 H 291.902 -0.504553 -4.12828 0
M  V30 2970 H 290.479 1.22381 -3.52246 0
M  V30 2971 N 292.664 1.56529 -0.183458 0
M  V30 2972 C 293.892 2.01623 0.464285 0
M  V30 2973 C 294.307 1.06366 1.55986 0
M  V30 2974 O 293.664 0.0665398 1.82379 0
M  V30 2975 C 293.715 3.46475 1.03139 0
M  V30 2976 O 293.436 4.38095 -0.0204675 0
M  V30 2977 C 294.937 4.0703 1.75617 0
M  V30 2978 H 292.157 0.660596 0.117704 0
M  V30 2979 H 294.701 2.02451 -0.288751 0
M  V30 2980 H 292.856 3.46383 1.73486 0
M  V30 2981 H 293.27 5.22973 0.399952 0
M  V30 2982 H 294.744 5.10271 2.10542 0
M  V30 2983 H 295.221 3.49819 2.65563 0
M  V30 2984 H 295.827 4.1086 1.09882 0
M  V30 2985 N 294.142 -0.090211 1.57342 0
M  V30 2986 C 295.105 -1.09335 2.01441 0
M  V30 2987 C 296.105 -1.32666 0.908641 0
M  V30 2988 O 297.295 -1.28697 1.174 0
M  V30 2989 C 294.427 -2.44136 2.3793 0
M  V30 2990 H 295.62 -0.713662 2.91285 0
M  V30 2991 H 293.173 -0.335404 1.52659 0
M  V30 2992 H 293.908 -2.86972 1.51055 0
M  V30 2993 H 293.693 -2.28548 3.18603 0
M  V30 2994 H 295.183 -3.16277 2.72688 0
M  V30 2995 N 295.62 -1.53406 -0.361157 0
M  V30 2996 C 296.568 -1.80832 -1.46296 0
M  V30 2997 C 297.562 -0.677699 -1.55253 0
M  V30 2998 O 298.768 -0.860723 -1.58087 0
M  V30 2999 H 295.143 -0.572627 -0.487445 0
M  V30 3000 H 297.114 -2.73045 -1.20371 0
M  V30 3001 C 295.863 -2.01907 -2.8307 0
M  V30 3002 H 295.186 -2.88349 -2.76938 0
M  V30 3003 H 296.626 -2.25072 -3.59331 0
M  V30 3004 C 295.085 -0.799449 -3.27277 0
M  V30 3005 O 295.615 0.00971761 -4.01699 0
M  V30 3006 N 293.821 -0.621637 -2.83873 0
M  V30 3007 H 293.368 -1.28126 -2.23476 0
M  V30 3008 H 293.326 0.19298 -3.13807 0
M  V30 3009 N 297.098 0.621204 -1.44841 0
M  V30 3010 C 298.326 1.40752 -1.51646 0
M  V30 3011 C 298.741 1.88246 -0.144549 0
M  V30 3012 O 298.098 1.61422 0.851416 0
M  V30 3013 C 298.149 2.62119 -2.4895 0
M  V30 3014 O 297.87 2.16602 -3.80808 0
M  V30 3015 C 299.371 3.55135 -2.65319 0
M  V30 3016 H 296.591 0.431325 -0.514004 0
M  V30 3017 H 299.135 0.758835 -1.899 0
M  V30 3018 H 297.29 3.23058 -2.13805 0
M  V30 3019 H 297.704 2.95358 -4.33433 0
M  V30 3020 H 299.178 4.36874 -3.37409 0
M  V30 3021 H 299.655 4.04592 -1.70886 0
M  V30 3022 H 300.261 3.00058 -3.01405 0
M  V30 3023 N 298.576 1.31904 0.862503 0
M  V30 3024 C 299.524 1.20125 1.9918 0
M  V30 3025 C 300.518 0.107824 1.69056 0
M  V30 3026 O 301.724 0.270223 1.7796 0
M  V30 3027 H 298.099 0.372148 0.65346 0
M  V30 3028 H 300.07 2.15652 2.06244 0
M  V30 3029 C 298.819 0.933099 3.34946 0
M  V30 3030 H 298.142 1.76664 3.5865 0
M  V30 3031 H 299.582 0.890892 4.14535 0
M  V30 3032 C 298.041 -0.364172 3.34926 0
M  V30 3033 O 298.571 -1.37858 3.77304 0
M  V30 3034 N 296.777 -0.383362 2.8806 0
M  V30 3035 H 296.324 0.442651 2.53768 0
M  V30 3036 H 296.282 -1.25123 2.8843 0
M  V30 3037 N 300.054 -1.07777 1.14986 0
M  V30 3038 C 300.987 -2.14228 0.786243 0
M  V30 3039 C 301.965 -1.60888 -0.235347 0
M  V30 3040 O 303.149 -1.88099 -0.122909 0
M  V30 3041 C 300.276 -3.38281 0.168433 0
M  V30 3042 C 299.322 -4.10387 1.16123 0
M  V30 3043 S 300.155 -4.62371 2.70135 0
M  V30 3044 C 301.311 -5.89704 2.09762 0
M  V30 3045 H 301.544 -2.44741 1.68787 0
M  V30 3046 H 299.077 -1.19984 0.971756 0
M  V30 3047 H 301.035 -4.10098 -0.181588 0
M  V30 3048 H 299.696 -3.05953 -0.710725 0
M  V30 3049 H 298.889 -4.99431 0.677086 0
M  V30 3050 H 298.491 -3.44513 1.45556 0
M  V30 3051 H 300.783 -6.61648 1.45701 0
M  V30 3052 H 301.726 -6.42824 2.96955 0
M  V30 3053 H 302.134 -5.4302 1.54239 0
M  V30 3054 N 301.532 -0.945985 -1.26051 0
M  V30 3055 C 302.779 -0.596118 -1.93527 0
M  V30 3056 C 303.107 0.865559 -1.74179 0
M  V30 3057 O 302.362 1.63524 -1.0751 0
M  V30 3058 C 302.661 -0.890475 -3.46129 0
M  V30 3059 C 302.327 -2.3368 -3.85622 0
M  V30 3060 C 300.989 -2.73216 -3.96114 0
M  V30 3061 C 303.341 -3.27648 -4.05334 0
M  V30 3062 C 300.669 -4.05806 -4.2372 0
M  V30 3063 C 303.021 -4.59841 -4.3443 0
M  V30 3064 C 301.685 -4.99185 -4.43137 0
M  V30 3065 H 300.955 -0.218135 -0.708165 0
M  V30 3066 H 303.602 -1.1934 -1.49768 0
M  V30 3067 H 301.907 -0.210711 -3.91233 0
M  V30 3068 H 303.604 -0.598478 -3.96509 0
M  V30 3069 H 300.194 -2.02015 -3.78005 0
M  V30 3070 H 304.378 -2.98298 -3.96651 0
M  V30 3071 H 299.634 -4.35945 -4.28675 0
M  V30 3072 H 303.808 -5.32641 -4.48628 0
M  V30 3073 H 301.435 -6.01952 -4.64282 0
M  V30 3074 N 303.011 1.40521 -0.713556 0
M  V30 3075 C 304.239 2.05237 -0.261775 0
M  V30 3076 C 304.654 1.53755 1.09567 0
M  V30 3077 O 304.011 0.693268 1.6882 0
M  V30 3078 C 304.062 3.60763 -0.230706 0
M  V30 3079 O 303.783 4.10345 -1.53455 0
M  V30 3080 C 305.284 4.42651 0.239874 0
M  V30 3081 H 302.504 0.660533 -0.118057 0
M  V30 3082 H 305.048 1.79967 -0.971192 0
M  V30 3083 H 303.203 3.8501 0.429661 0
M  V30 3084 H 303.617 5.04526 -1.43366 0
M  V30 3085 H 305.091 5.51599 0.210468 0
M  V30 3086 H 305.568 4.20082 1.28171 0
M  V30 3087 H 306.174 4.23507 -0.390142 0
M  V30 3088 N 304.489 0.459591 1.5075 0
M  V30 3089 C 305.719 -0.0972338 2.06371 0
M  V30 3090 C 306.127 -1.35074 1.32483 0
M  V30 3091 O 305.47 -1.79637 0.384226 0
M  V30 3092 C 305.532 -0.462759 3.56509 0
M  V30 3093 C 305.196 0.687084 4.51805 0
M  V30 3094 C 306.193 1.56578 4.95761 0
M  V30 3095 C 303.878 0.874144 4.94635 0
M  V30 3096 C 305.872 2.61604 5.81242 0
M  V30 3097 C 303.559 1.92765 5.79901 0
M  V30 3098 C 304.557 2.79697 6.23104 0
M  V30 3099 O 304.245 3.83235 7.06673 0
M  V30 3100 H 303.977 -0.00140687 0.675999 0
M  V30 3101 H 306.531 0.644011 1.95043 0
M  V30 3102 H 304.761 -1.25703 3.65699 0
M  V30 3103 H 306.45 -0.953323 3.94546 0
M  V30 3104 H 307.216 1.4329 4.6335 0
M  V30 3105 H 303.095 0.207006 4.60535 0
M  V30 3106 H 306.639 3.29489 6.14884 0
M  V30 3107 H 302.536 2.06064 6.11725 0
M  V30 3108 H 303.304 3.80084 7.24899 0
M  V30 3109 N 305.967 -1.56429 0.191757 0
M  V30 3110 C 306.877 -2.22541 -0.742481 0
M  V30 3111 C 307.893 -1.22342 -1.23727 0
M  V30 3112 O 309.069 -1.55069 -1.28513 0
M  V30 3113 C 306.134 -2.8692 -1.94623 0
M  V30 3114 C 305.195 -4.02378 -1.49633 0
M  V30 3115 C 304.428 -4.63678 -2.6427 0
M  V30 3116 O 304.651 -4.23895 -3.81666 0
M  V30 3117 O 303.585 -5.53202 -2.37174 0
M  V30 3118 H 307.411 -3.02977 -0.209462 0
M  V30 3119 H 304.996 -1.49353 -0.0373832 0
M  V30 3120 H 306.878 -3.27663 -2.64982 0
M  V30 3121 H 305.553 -2.09466 -2.46791 0
M  V30 3122 H 304.46 -3.66265 -0.761636 0
M  V30 3123 H 305.793 -4.81487 -1.02134 0
M  V30 3124 N 307.445 0.0818655 -1.57387 0
M  V30 3125 C 308.694 0.781681 -1.85937 0
M  V30 3126 C 309.007 1.79246 -0.782957 0
M  V30 3127 O 310.213 2.54112 -0.955987 0
M  V30 3128 C 308.669 1.44109 -3.29789 0
M  V30 3129 C 308.277 0.469396 -4.45534 0
M  V30 3130 C 310.021 2.12386 -3.67549 0
M  V30 3131 C 307.928 1.13415 -5.80423 0
M  V30 3132 H 306.858 0.295682 -0.693605 0
M  V30 3133 H 309.509 0.0348051 -1.83467 0
M  V30 3134 H 307.891 2.23588 -3.2684 0
M  V30 3135 H 309.065 -0.294856 -4.59856 0
M  V30 3136 H 307.38 -0.108383 -4.16259 0
M  V30 3137 H 309.977 2.62878 -4.65617 0
M  V30 3138 H 310.32 2.91877 -2.96839 0
M  V30 3139 H 310.853 1.39751 -3.72444 0
M  V30 3140 H 307.592 0.379771 -6.54399 0
M  V30 3141 H 307.112 1.8695 -5.69921 0
M  V30 3142 H 308.791 1.65686 -6.25426 0
M  V30 3143 N 308.923 1.53595 0.353017 0
M  V30 3144 C 309.886 1.80232 1.41594 0
M  V30 3145 C 310.886 0.673081 1.46035 0
M  V30 3146 O 312.076 0.941335 1.46576 0
M  V30 3147 C 309.208 1.93578 2.80607 0
M  V30 3148 H 310.401 2.75174 1.19244 0
M  V30 3149 H 307.954 1.44864 0.586872 0
M  V30 3150 H 308.689 1.00746 3.08254 0
M  V30 3151 H 308.474 2.75724 2.78781 0
M  V30 3152 H 309.964 2.15735 3.57558 0
M  V30 3153 N 310.401 -0.613514 1.45168 0
M  V30 3154 C 311.812 -1.19539 1.43413 0
M  V30 3155 C 312.163 -1.95558 0.158632 0
M  V30 3156 O 311.288 -2.0335 -0.740119 0
M  V30 3157 C 311.883 -2.17445 2.59813 0
M  V30 3158 C 310.442 -2.71022 2.61197 0
M  V30 3159 C 309.589 -1.46323 2.35552 0
M  V30 3160 H 312.54 -0.403163 1.53494 0
M  V30 3161 H 312.561 -3.00373 2.33574 0
M  V30 3162 H 312.073 -1.62089 3.52631 0
M  V30 3163 H 310.174 -3.30332 1.7237 0
M  V30 3164 H 310.287 -3.15859 3.60236 0
M  V30 3165 H 308.651 -1.75072 1.84992 0
M  V30 3166 H 309.434 -0.92844 3.30507 0
M  V30 3167 N 311.879 -1.3236 -0.855495 0
M  V30 3168 C 313.125 -1.23054 -1.612 0
M  V30 3169 C 313.458 0.207404 -1.93089 0
M  V30 3170 O 312.733 1.14432 -1.57275 0
M  V30 3171 C 313.016 -2.08937 -2.93287 0
M  V30 3172 C 312.869 -3.61105 -2.68185 0
M  V30 3173 C 314.188 -1.94986 -3.94549 0
M  V30 3174 H 311.307 -0.448364 -0.584926 0
M  V30 3175 H 313.949 -1.62297 -0.987917 0
M  V30 3176 H 312.099 -1.75599 -3.46551 0
M  V30 3177 H 313.771 -4.04652 -2.21483 0
M  V30 3178 H 312.014 -3.83813 -2.02164 0
M  V30 3179 H 312.685 -4.16522 -3.62234 0
M  V30 3180 H 315.161 -2.24189 -3.5054 0
M  V30 3181 H 314.037 -2.57356 -4.84829 0
M  V30 3182 H 314.298 -0.917263 -4.3248 0
M  V30 3183 N 313.357 1.07166 -1.15556 0
M  V30 3184 C 314.604 1.79798 -0.931604 0
M  V30 3185 C 314.932 1.8682 0.54115 0
M  V30 3186 O 314.187 1.34942 1.41736 0
M  V30 3187 C 314.486 3.24707 -1.49332 0
M  V30 3188 C 314.152 3.37781 -2.98688 0
M  V30 3189 C 312.814 3.41057 -3.39461 0
M  V30 3190 C 315.166 3.40424 -3.94665 0
M  V30 3191 C 312.494 3.4458 -4.74849 0
M  V30 3192 C 314.846 3.45485 -5.29927 0
M  V30 3193 C 313.51 3.47039 -5.70193 0
M  V30 3194 H 312.78 0.657928 -0.340898 0
M  V30 3195 H 315.427 1.26091 -1.44129 0
M  V30 3196 H 313.732 3.81208 -0.904859 0
M  V30 3197 H 315.429 3.79486 -1.29582 0
M  V30 3198 H 312.019 3.35932 -2.66172 0
M  V30 3199 H 316.203 3.37113 -3.64237 0
M  V30 3200 H 311.459 3.44083 -5.05388 0
M  V30 3201 H 315.633 3.46476 -6.04092 0
M  V30 3202 H 313.26 3.49522 -6.75084 0
M  V30 3203 N 314.835 0.952656 1.25548 0
M  V30 3204 C 316.081 0.607272 1.93494 0
M  V30 3205 C 316.414 -0.853245 1.74452 0
M  V30 3206 O 315.689 -1.61194 1.08843 0
M  V30 3207 C 315.972 0.96435 3.46947 0
M  V30 3208 C 315.825 2.48045 3.75225 0
M  V30 3209 C 317.144 0.487987 4.37386 0
M  V30 3210 H 314.263 0.222096 0.702739 0
M  V30 3211 H 316.905 1.18895 1.48203 0
M  V30 3212 H 315.055 0.469361 3.85654 0
M  V30 3213 H 316.727 3.04905 3.46166 0
M  V30 3214 H 314.97 2.919 3.209 0
M  V30 3215 H 315.641 2.6808 4.82532 0
M  V30 3216 H 318.117 0.912558 4.0597 0
M  V30 3217 H 316.993 0.766547 5.43521 0
M  V30 3218 H 317.254 -0.612063 4.37843 0
M  V30 3219 N 316.313 -1.40141 0.720998 0
M  V30 3220 C 317.243 -2.33339 0.0867621 0
M  V30 3221 C 318.224 -1.53178 -0.739622 0
M  V30 3222 O 319.409 -1.81625 -0.687449 0
M  V30 3223 C 316.539 -3.37194 -0.831728 0
M  V30 3224 C 315.493 -4.27857 -0.110558 0
M  V30 3225 C 314.819 -5.22294 -1.14513 0
M  V30 3226 C 316.119 -5.11872 1.0385 0
M  V30 3227 H 317.813 -2.86626 0.865219 0
M  V30 3228 H 315.359 -1.37814 0.417516 0
M  V30 3229 H 317.312 -4.01335 -1.28485 0
M  V30 3230 H 316.036 -2.82314 -1.64214 0
M  V30 3231 H 314.695 -3.65176 0.322797 0
M  V30 3232 H 314.343 -4.63717 -1.94874 0
M  V30 3233 H 314.043 -5.83797 -0.667446 0
M  V30 3234 H 315.567 -5.89312 -1.59824 0
M  V30 3235 H 316.981 -5.69436 0.664482 0
M  V30 3236 H 315.378 -5.82445 1.4449 0
M  V30 3237 H 316.448 -4.4753 1.86668 0
M  V30 3238 N 317.792 -0.46758 -1.50504 0
M  V30 3239 C 318.722 0.318381 -2.31319 0
M  V30 3240 C 319.703 0.993564 -1.38066 0
M  V30 3241 O 320.888 0.991411 -1.66987 0
M  V30 3242 C 318.018 1.40275 -3.17711 0
M  V30 3243 C 316.972 0.849373 -4.19487 0
M  V30 3244 C 316.298 2.03177 -4.94594 0
M  V30 3245 C 317.598 -0.136942 -5.2212 0
M  V30 3246 H 319.292 -0.356106 -2.97275 0
M  V30 3247 H 316.838 -0.172703 -1.42961 0
M  V30 3248 H 318.791 1.96004 -3.73042 0
M  V30 3249 H 317.515 2.10596 -2.49634 0
M  V30 3250 H 316.174 0.314076 -3.65252 0
M  V30 3251 H 315.822 2.72187 -4.22993 0
M  V30 3252 H 315.522 1.66774 -5.63436 0
M  V30 3253 H 317.046 2.59403 -5.52759 0
M  V30 3254 H 318.46 0.331056 -5.72343 0
M  V30 3255 H 316.857 -0.41507 -5.98663 0
M  V30 3256 H 317.927 -1.06398 -4.73083 0
M  V30 3257 N 319.27 1.56325 -0.20005 0
M  V30 3258 C 320.18 2.22931 0.730668 0
M  V30 3259 C 321.196 1.22997 1.23076 0
M  V30 3260 O 322.372 1.55748 1.27689 0
M  V30 3261 C 319.437 2.87948 1.93098 0
M  V30 3262 C 318.498 4.03166 1.47497 0
M  V30 3263 C 317.731 4.65073 2.61807 0
M  V30 3264 O 317.954 4.25913 3.79413 0
M  V30 3265 O 316.888 5.54452 2.34237 0
M  V30 3266 H 320.714 3.03084 0.193391 0
M  V30 3267 H 318.299 1.49371 0.0294621 0
M  V30 3268 H 320.181 3.29063 2.6324 0
M  V30 3269 H 318.856 2.10771 2.45677 0
M  V30 3270 H 317.763 3.66664 0.742201 0
M  V30 3271 H 319.096 4.82022 0.995796 0
M  V30 3272 N 320.748 -0.0735177 1.57428 0
M  V30 3273 C 321.978 -0.78483 1.91112 0
M  V30 3274 C 322.386 -1.71729 0.7941 0
M  V30 3275 O 321.729 -1.82105 -0.241542 0
M  V30 3276 C 321.791 -1.63346 3.20247 0
M  V30 3277 C 321.455 -0.870557 4.48632 0
M  V30 3278 C 322.452 -0.19058 5.19551 0
M  V30 3279 C 320.137 -0.838242 4.95256 0
M  V30 3280 C 322.131 0.511503 6.35344 0
M  V30 3281 C 319.818 -0.132386 6.10957 0
M  V30 3282 C 320.816 0.541288 6.80852 0
M  V30 3283 O 320.504 1.23578 7.94345 0
M  V30 3284 H 320.236 -0.228408 0.636244 0
M  V30 3285 H 322.79 -0.0486039 2.05342 0
M  V30 3286 H 321.02 -2.41245 3.02222 0
M  V30 3287 H 322.709 -2.22329 3.39595 0
M  V30 3288 H 323.475 -0.206864 4.84559 0
M  V30 3289 H 319.354 -1.35206 4.40727 0
M  V30 3290 H 322.898 1.03789 6.89836 0
M  V30 3291 H 318.795 -0.114023 6.45399 0
M  V30 3292 H 319.563 1.14487 8.10454 0
M  V30 3293 N 322.226 -1.5378 -0.344866 0
M  V30 3294 C 323.472 -1.71216 -1.08687 0
M  V30 3295 C 323.805 -0.473281 -1.88345 0
M  V30 3296 O 323.08 0.52968 -1.87149 0
M  V30 3297 C 323.363 -2.97486 -2.02914 0
M  V30 3298 C 323.216 -4.31579 -1.26727 0
M  V30 3299 C 324.535 -3.19422 -3.0275 0
M  V30 3300 H 321.654 -0.62301 -0.393735 0
M  V30 3301 H 324.296 -1.8645 -0.365563 0
M  V30 3302 H 322.446 -2.84629 -2.64421 0
M  V30 3303 H 324.118 -4.56284 -0.67845 0
M  V30 3304 H 322.361 -4.30049 -0.569273 0
M  V30 3305 H 323.032 -5.16106 -1.95803 0
M  V30 3306 H 325.508 -3.316 -2.51357 0
M  V30 3307 H 324.384 -4.09169 -3.65885 0
M  V30 3308 H 324.645 -2.35656 -3.74057 0
M  V30 3309 N 323.704 0.605807 -1.45491 0
M  V30 3310 C 324.932 1.39136 -1.5313 0
M  V30 3311 C 325.347 1.88082 -0.164507 0
M  V30 3312 O 324.704 1.62316 0.834247 0
M  V30 3313 C 324.755 2.59463 -2.51716 0
M  V30 3314 O 324.476 2.12551 -3.83084 0
M  V30 3315 C 325.977 3.52301 -2.6907 0
M  V30 3316 H 323.197 0.425849 -0.51855 0
M  V30 3317 H 325.741 0.73865 -1.90694 0
M  V30 3318 H 323.896 3.20772 -2.17219 0
M  V30 3319 H 324.31 2.90744 -4.36541 0
M  V30 3320 H 325.784 4.33271 -3.42024 0
M  V30 3321 H 326.261 4.02757 -1.75167 0
M  V30 3322 H 326.867 2.96845 -3.04571 0
M  V30 3323 N 325.182 1.32811 0.848464 0
M  V30 3324 C 326.112 1.24882 1.97299 0
M  V30 3325 C 327.093 0.131357 1.69592 0
M  V30 3326 O 328.278 0.319553 1.91553 0
M  V30 3327 C 325.408 0.97746 3.33261 0
M  V30 3328 C 324.362 2.05682 3.75338 0
M  V30 3329 C 323.688 1.63777 5.09 0
M  V30 3330 C 324.988 3.47254 3.90144 0
M  V30 3331 H 326.682 2.18966 2.04191 0
M  V30 3332 H 324.228 1.05413 0.981029 0
M  V30 3333 H 326.181 0.908513 4.1149 0
M  V30 3334 H 324.905 0.000980011 3.266 0
M  V30 3335 H 323.564 2.11603 2.99366 0
M  V30 3336 H 323.212 0.648569 4.98801 0
M  V30 3337 H 322.912 2.36 5.38124 0
M  V30 3338 H 324.436 1.5833 5.89715 0
M  V30 3339 H 325.85 3.43888 4.58709 0
M  V30 3340 H 324.247 4.1788 4.30693 0
M  V30 3341 H 325.317 3.86462 2.92874 0
M  V30 3342 N 326.66 -1.06551 1.16123 0
M  V30 3343 C 327.607 -2.13961 0.865414 0
M  V30 3344 C 328.577 -1.65066 -0.185055 0
M  V30 3345 O 329.762 -1.90732 -0.05083 0
M  V30 3346 C 326.902 -3.43113 0.369776 0
M  V30 3347 C 326.015 -4.05756 1.48276 0
M  V30 3348 C 325.15 -5.22773 0.942414 0
M  V30 3349 C 324.189 -5.77395 2.03179 0
M  V30 3350 N 323.326 -6.85731 1.50721 0
M  V30 3351 H 328.166 -2.38605 1.78527 0
M  V30 3352 H 325.703 -1.17072 0.890646 0
M  V30 3353 H 327.661 -4.17151 0.0640643 0
M  V30 3354 H 326.291 -3.18695 -0.513143 0
M  V30 3355 H 325.343 -3.29292 1.9045 0
M  V30 3356 H 326.655 -4.42351 2.30493 0
M  V30 3357 H 325.809 -6.03827 0.589729 0
M  V30 3358 H 324.548 -4.87618 0.0895191 0
M  V30 3359 H 323.553 -4.94981 2.3932 0
M  V30 3360 H 324.778 -6.14603 2.8886 0
M  V30 3361 H 322.724 -6.52499 0.676811 0
M  V30 3362 H 322.641 -7.21254 2.26557 0
M  V30 3363 H 323.909 -7.7047 1.18303 0
M  V30 3364 N 328.138 -0.959301 -1.25041 0
M  V30 3365 C 329.085 -0.482057 -2.2571 0
M  V30 3366 C 330.055 0.467939 -1.59372 0
M  V30 3367 O 331.24 0.380159 -1.86974 0
M  V30 3368 C 328.38 0.229623 -3.44335 0
M  V30 3369 C 327.493 -0.758156 -4.25295 0
M  V30 3370 C 326.628 -0.0234403 -5.31195 0
M  V30 3371 C 325.667 -1.00184 -6.03846 0
M  V30 3372 N 324.804 -0.29769 -7.01469 0
M  V30 3373 H 329.644 -1.34538 -2.65901 0
M  V30 3374 H 327.181 -0.674592 -1.3072 0
M  V30 3375 H 329.139 0.658856 -4.11965 0
M  V30 3376 H 327.769 1.05696 -3.05005 0
M  V30 3377 H 326.821 -1.30586 -3.57284 0
M  V30 3378 H 328.133 -1.50458 -4.75567 0
M  V30 3379 H 327.287 0.464201 -6.04922 0
M  V30 3380 H 326.026 0.755741 -4.81809 0
M  V30 3381 H 325.031 -1.50044 -5.2893 0
M  V30 3382 H 326.256 -1.78133 -6.55321 0
M  V30 3383 H 324.202 0.462668 -6.54366 0
M  V30 3384 H 324.119 -0.983128 -7.4958 0
M  V30 3385 H 325.387 0.16826 -7.79318 0
M  V30 3386 N 329.616 1.39756 -0.72842 0
M  V30 3387 C 330.549 2.28176 -0.0330172 0
M  V30 3388 C 331.527 1.44035 0.754501 0
M  V30 3389 O 332.711 1.73434 0.738445 0
M  V30 3390 C 329.838 3.24795 0.960504 0
M  V30 3391 C 328.884 4.25693 0.262264 0
M  V30 3392 S 329.717 5.25714 -1.01906 0
M  V30 3393 C 330.873 6.25894 -0.0279717 0
M  V30 3394 H 331.106 2.86807 -0.78287 0
M  V30 3395 H 328.639 1.45382 -0.519951 0
M  V30 3396 H 330.597 3.80983 1.52846 0
M  V30 3397 H 329.258 2.65196 1.68315 0
M  V30 3398 H 328.451 4.93699 1.01379 0
M  V30 3399 H 328.053 3.7327 -0.233482 0
M  V30 3400 H 330.345 6.72585 0.814621 0
M  V30 3401 H 331.288 7.04876 -0.67499 0
M  V30 3402 H 331.696 5.63466 0.341489 0
M  V30 3403 N 331.094 0.475555 1.50254 0
M  V30 3404 C 332.51 0.12997 1.5907 0
M  V30 3405 C 332.71 -1.36385 1.48328 0
M  V30 3406 O 331.766 -2.13754 1.34407 0
M  V30 3407 C 333.079 0.684139 2.92814 0
M  V30 3408 C 334.627 0.647965 3.0622 0
M  V30 3409 C 335.102 1.17975 4.42545 0
M  V30 3410 N 336.593 1.13936 4.48969 0
M  V30 3411 C 337.328 1.52129 5.52851 0
M  V30 3412 N 336.824 1.97793 6.63965 0
M  V30 3413 N 338.617 1.43704 5.4342 0
M  V30 3414 H 330.768 1.44706 1.55479 0
M  V30 3415 H 333.031 0.598691 0.735033 0
M  V30 3416 H 332.737 1.73079 3.06164 0
M  V30 3417 H 332.611 0.130204 3.76975 0
M  V30 3418 H 334.998 -0.38979 2.92514 0
M  V30 3419 H 335.079 1.23876 2.23805 0
M  V30 3420 H 334.723 2.21616 4.57 0
M  V30 3421 H 334.653 0.565138 5.23559 0
M  V30 3422 H 337.144 0.804488 3.69238 0
M  V30 3423 H 337.457 2.25072 7.39299 0
M  V30 3424 H 335.802 2.01749 6.65073 0
M  V30 3425 H 338.993 1.07867 4.55502 0
M  V30 3426 H 339.166 1.73794 6.24259 0
M  V30 3427 N 332.573 -1.56217 0.208337 0
M  V30 3428 C 333.483 -2.23316 -0.718836 0
M  V30 3429 C 334.499 -1.23648 -1.22422 0
M  V30 3430 O 335.675 -1.56423 -1.26861 0
M  V30 3431 C 332.74 -2.88968 -1.91568 0
M  V30 3432 C 331.801 -4.03943 -1.45357 0
M  V30 3433 C 331.034 -4.66455 -2.59337 0
M  V30 3434 O 331.257 -4.27919 -3.77149 0
M  V30 3435 O 330.191 -5.55686 -2.31293 0
M  V30 3436 H 334.017 -3.03182 -0.177315 0
M  V30 3437 H 331.602 -1.49384 -0.0215402 0
M  V30 3438 H 333.484 -3.30455 -2.61491 0
M  V30 3439 H 332.159 -2.12071 -2.44556 0
M  V30 3440 H 331.066 -3.67052 -0.722746 0
M  V30 3441 H 332.399 -4.82543 -0.970219 0
M  V30 3442 N 334.051 0.0651679 -1.57465 0
M  V30 3443 C 335.3 0.761916 -1.86756 0
M  V30 3444 C 335.613 1.78406 -0.801925 0
M  V30 3445 O 336.819 2.53084 -0.982885 0
M  V30 3446 C 335.275 1.40603 -3.31299 0
M  V30 3447 C 334.883 0.422115 -4.46007 0
M  V30 3448 C 336.627 2.08476 -3.69781 0
M  V30 3449 C 334.534 1.07252 -5.81593 0
M  V30 3450 H 333.464 0.288308 -0.696702 0
M  V30 3451 H 336.115 0.015344 -1.83494 0
M  V30 3452 H 334.497 2.20109 -3.29193 0
M  V30 3453 H 335.671 -0.343613 -4.59517 0
M  V30 3454 H 333.986 -0.152527 -4.16121 0
M  V30 3455 H 336.583 2.57925 -4.68379 0
M  V30 3456 H 336.926 2.88712 -2.99919 0
M  V30 3457 H 337.459 1.35792 -3.73905 0
M  V30 3458 H 334.198 0.310342 -6.54765 0
M  V30 3459 H 333.718 1.80895 -5.71872 0
M  V30 3460 H 335.397 1.59043 -6.27148 0
M  V30 3461 N 335.529 1.53961 0.336706 0
M  V30 3462 C 336.778 1.70751 1.07363 0
M  V30 3463 C 337.091 0.481061 1.89592 0
M  V30 3464 O 338.297 0.530046 2.66276 0
M  V30 3465 C 336.753 3.01965 1.95818 0
M  V30 3466 C 336.361 4.31971 1.18764 0
M  V30 3467 C 338.105 3.28121 2.69327 0
M  V30 3468 C 336.012 5.54255 2.06289 0
M  V30 3469 H 334.942 0.636292 0.404535 0
M  V30 3470 H 337.593 1.80459 0.332681 0
M  V30 3471 H 335.975 2.86132 2.7376 0
M  V30 3472 H 337.149 4.5853 0.456849 0
M  V30 3473 H 335.464 4.12481 0.569946 0
M  V30 3474 H 338.061 4.16673 3.35094 0
M  V30 3475 H 338.404 2.45426 3.36261 0
M  V30 3476 H 338.937 3.44762 1.98454 0
M  V30 3477 H 335.676 6.39513 1.43885 0
M  V30 3478 H 335.196 5.31935 2.77138 0
M  V30 3479 H 336.875 5.90159 2.65182 0
M  V30 3480 N 337.007 -0.598083 1.45811 0
M  V30 3481 C 338.255 -1.35413 1.50026 0
M  V30 3482 C 338.576 -1.94444 0.147177 0
M  V30 3483 O 337.846 -1.77701 -0.824571 0
M  V30 3484 H 336.426 -0.502727 0.552517 0
M  V30 3485 H 339.088 -0.701606 1.81834 0
M  V30 3486 H 338.184 -2.16871 2.2444 0
M  V30 3487 N 338.485 -1.33259 -0.841409 0
M  V30 3488 C 339.731 -1.25766 -1.59857 0
M  V30 3489 C 340.086 0.175602 -1.91597 0
M  V30 3490 O 339.379 1.117 -1.55672 0
M  V30 3491 C 339.573 -2.06381 -2.9179 0
M  V30 3492 C 339.402 -3.57401 -2.72937 0
M  V30 3493 C 338.172 -4.26718 -2.70628 0
M  V30 3494 C 340.37 -4.51786 -2.45753 0
M  V30 3495 N 338.352 -5.63705 -2.43125 0
M  V30 3496 C 339.723 -5.76643 -2.27777 0
M  V30 3497 C 341.778 -4.40898 -2.31329 0
M  V30 3498 C 340.481 -6.91842 -1.96841 0
M  V30 3499 C 342.507 -5.55911 -2.01786 0
M  V30 3500 C 341.869 -6.79776 -1.8462 0
M  V30 3501 H 337.968 -0.515406 -0.588117 0
M  V30 3502 H 340.552 -1.67772 -0.987955 0
M  V30 3503 H 338.723 -1.667 -3.50807 0
M  V30 3504 H 340.455 -1.90678 -3.56965 0
M  V30 3505 H 337.21 -3.78968 -2.84043 0
M  V30 3506 H 337.634 -6.35911 -2.32265 0
M  V30 3507 H 342.276 -3.45772 -2.43314 0
M  V30 3508 H 339.994 -7.86968 -1.83594 0
M  V30 3509 H 343.58 -5.49421 -1.91384 0
M  V30 3510 H 342.46 -7.67266 -1.62088 0
M  V30 3511 N 339.963 1.05934 -1.16686 0
M  V30 3512 C 341.374 1.60263 -0.957745 0
M  V30 3513 C 341.725 1.89789 0.49745 0
M  V30 3514 O 340.85 1.67401 1.37135 0
M  V30 3515 C 341.445 2.91172 -1.73218 0
M  V30 3516 C 340.004 3.42188 -1.56794 0
M  V30 3517 C 339.151 2.16028 -1.73859 0
M  V30 3518 H 342.102 0.888392 -1.31504 0
M  V30 3519 H 342.123 3.60744 -1.21014 0
M  V30 3520 H 341.635 2.6965 -2.79124 0
M  V30 3521 H 339.736 3.68762 -0.533437 0
M  V30 3522 H 339.849 4.17273 -2.35414 0
M  V30 3523 H 338.213 2.26426 -1.16633 0
M  V30 3524 H 338.996 1.96985 -2.81161 0
M  V30 3525 N 341.441 0.965919 1.2453 0
M  V30 3526 C 342.689 0.625593 1.92174 0
M  V30 3527 C 343.01 -0.841652 1.75901 0
M  V30 3528 O 342.28 -1.60061 1.12948 0
M  V30 3529 H 340.86 0.228388 0.71123 0
M  V30 3530 H 343.522 1.2266 1.51461 0
M  V30 3531 H 342.618 0.864653 2.99884 0
M  V30 3532 N 342.919 -1.39368 0.735821 0
M  V30 3533 C 344.167 -2.00101 0.283562 0
M  V30 3534 C 344.488 -1.5868 -1.13338 0
M  V30 3535 O 343.758 -0.835423 -1.77193 0
M  V30 3536 H 342.338 -0.740024 0.101851 0
M  V30 3537 H 345 -1.70404 0.945962 0
M  V30 3538 H 344.096 -3.10323 0.332604 0
M  V30 3539 N 344.397 -0.483516 -1.5 0
M  V30 3540 C 345.622 0.0667119 -2.07293 0
M  V30 3541 C 346.047 1.3164 -1.3436 0
M  V30 3542 O 345.405 1.76945 -0.394987 0
M  V30 3543 C 345.453 0.321126 -3.59167 0
M  V30 3544 O 344.557 1.39927 -3.87936 0
M  V30 3545 H 343.898 -0.0184758 -0.663743 0
M  V30 3546 H 346.428 -0.678125 -1.93035 0
M  V30 3547 H 346.438 0.557906 -4.04168 0
M  V30 3548 H 345.113 -0.592007 -4.11665 0
M  V30 3549 H 343.69 1.14882 -3.54763 0
M  V30 3550 N 345.875 1.56104 -0.216619 0
M  V30 3551 C 347.123 1.97781 0.415593 0
M  V30 3552 C 347.444 1.10536 1.60645 0
M  V30 3553 O 346.714 0.181303 1.95059 0
M  V30 3554 H 345.294 0.730415 0.156534 0
M  V30 3555 H 347.956 1.92445 -0.308366 0
M  V30 3556 H 347.052 3.03072 0.74525 0
M  V30 3557 N 347.353 -0.0568162 1.57498 0
M  V30 3558 C 348.63 -0.786954 1.79071 0
M  V30 3559 C 349.01 -1.95028 0.80792 0
M  V30 3560 O 348.358 -2.27968 -0.155858 0
M  V30 3561 C 348.568 -1.24594 3.26002 0
M  V30 3562 C 349.916 -1.67323 3.90241 0
M  V30 3563 O 350.94 -1.34124 3.29984 0
M  V30 3564 O 349.799 -2.28842 4.9628 0
M  V30 3565 H 346.893 -0.378262 0.735423 0
M  V30 3566 H 349.439 -0.035734 1.69662 0
M  V30 3567 H 348.211 -0.41423 3.89101 0
M  V30 3568 H 347.834 -2.05803 3.40192 0
M  V30 3569 N 348.832 -1.54138 -0.328536 0
M  V30 3570 C 350.08 -1.71765 -1.06496 0
M  V30 3571 C 350.401 -0.49149 -1.88704 0
M  V30 3572 O 349.671 0.494539 -1.89555 0
M  V30 3573 H 348.251 -0.633295 -0.396164 0
M  V30 3574 H 350.913 -1.91429 -0.366176 0
M  V30 3575 H 350.009 -2.5951 -1.73381 0
M  V30 3576 N 350.31 0.590341 -1.46126 0
M  V30 3577 C 351.559 1.34499 -1.50309 0
M  V30 3578 C 351.872 1.94977 -0.156021 0
M  V30 3579 O 353.078 2.71395 -0.0756037 0
M  V30 3580 C 351.534 2.43723 -2.64815 0
M  V30 3581 C 351.142 1.89582 -4.0591 0
M  V30 3582 C 352.886 3.20579 -2.78262 0
M  V30 3583 C 350.793 2.9639 -5.11769 0
M  V30 3584 H 349.723 0.505593 -0.559368 0
M  V30 3585 H 352.374 0.630848 -1.72315 0
M  V30 3586 H 350.756 3.17902 -2.36124 0
M  V30 3587 H 351.93 1.21997 -4.44357 0
M  V30 3588 H 350.245 1.25418 -3.97063 0
M  V30 3589 H 352.842 4.00276 -3.54519 0
M  V30 3590 H 353.185 3.72684 -1.85505 0
M  V30 3591 H 353.718 2.53505 -3.06562 0
M  V30 3592 H 350.457 2.49181 -6.06291 0
M  V30 3593 H 349.977 3.62487 -4.77873 0
M  V30 3594 H 351.656 3.60474 -5.37278 0
M  V30 3595 N 351.788 1.33704 0.83433 0
M  V30 3596 C 353.035 1.25417 1.58987 0
M  V30 3597 C 353.363 -0.178869 1.93676 0
M  V30 3598 O 352.618 -1.13723 1.59265 0
M  V30 3599 C 352.917 2.07926 2.90692 0
M  V30 3600 C 352.583 3.57066 2.75345 0
M  V30 3601 C 351.245 3.97724 2.70867 0
M  V30 3602 C 353.597 4.51817 2.59828 0
M  V30 3603 C 350.925 5.31344 2.48778 0
M  V30 3604 C 353.277 5.85604 2.39272 0
M  V30 3605 C 351.941 6.25439 2.33199 0
M  V30 3606 H 351.211 0.458934 0.581774 0
M  V30 3607 H 353.858 1.65335 0.966261 0
M  V30 3608 H 352.163 1.608 3.57282 0
M  V30 3609 H 353.86 1.98868 3.48213 0
M  V30 3610 H 350.45 3.24785 2.79665 0
M  V30 3611 H 354.634 4.21311 2.62319 0
M  V30 3612 H 349.89 5.61241 2.42526 0
M  V30 3613 H 354.064 6.58623 2.2625 0
M  V30 3614 H 351.691 7.28914 2.15843 0
M  V30 3615 N 353.266 -1.05314 1.17247 0
M  V30 3616 C 354.491 -1.82509 0.985148 0
M  V30 3617 C 354.916 -1.82343 -0.461788 0
M  V30 3618 O 354.274 -1.23151 -1.33055 0
M  V30 3619 C 354.322 -3.26566 1.52929 0
M  V30 3620 O 353.426 -4.05666 0.742225 0
M  V30 3621 H 352.767 -0.564347 0.349869 0
M  V30 3622 H 355.297 -1.32718 1.55715 0
M  V30 3623 H 355.307 -3.77369 1.55103 0
M  V30 3624 H 353.982 -3.26001 2.58256 0
M  V30 3625 H 352.559 -3.64397 0.791794 0
M  V30 3626 N 354.744 -0.972509 -1.24016 0
M  V30 3627 C 356.155 -0.67517 -1.74064 0
M  V30 3628 C 356.506 0.808939 -1.78747 0
M  V30 3629 O 355.631 1.63286 -1.42009 0
M  V30 3630 C 356.226 -1.21889 -3.16115 0
M  V30 3631 C 354.785 -0.971358 -3.6365 0
M  V30 3632 C 353.932 -1.35134 -2.42145 0
M  V30 3633 H 356.883 -1.14727 -1.09651 0
M  V30 3634 H 356.904 -0.587489 -3.75937 0
M  V30 3635 H 356.416 -2.29906 -3.12674 0
M  V30 3636 H 354.517 0.0930686 -3.72484 0
M  V30 3637 H 354.63 -1.62039 -4.50866 0
M  V30 3638 H 352.994 -0.769751 -2.4279 0
M  V30 3639 H 353.777 -2.4411 -2.41381 0
M  V30 3640 N 356.222 1.38976 -0.743202 0
M  V30 3641 C 357.47 1.99948 -0.29417 0
M  V30 3642 C 357.791 1.59279 1.12495 0
M  V30 3643 O 357.061 0.844808 1.76748 0
M  V30 3644 H 355.641 0.739473 -0.105774 0
M  V30 3645 H 358.303 1.699 -0.954986 0
M  V30 3646 H 357.399 3.10142 -0.349056 0
M  V30 3647 N 357.7 0.491464 1.49741 0
M  V30 3648 C 358.948 -0.0563141 2.02022 0
M  V30 3649 C 359.269 -1.38363 1.37407 0
M  V30 3650 O 358.539 -1.88702 0.526166 0
M  V30 3651 H 357.119 -0.0238014 0.746621 0
M  V30 3652 H 359.781 0.646533 1.83864 0
M  V30 3653 H 358.877 -0.192967 3.11503 0
M  V30 3654 N 359.178 -1.55987 0.224894 0
M  V30 3655 C 360.141 -2.19178 -0.670348 0
M  V30 3656 C 361.141 -1.15461 -1.11917 0
M  V30 3657 O 362.331 -1.40675 -1.02743 0
M  V30 3658 C 359.463 -2.81777 -1.9187 0
M  V30 3659 H 360.656 -2.99662 -0.119364 0
M  V30 3660 H 358.209 -1.5628 -0.0247128 0
M  V30 3661 H 358.944 -2.05172 -2.51147 0
M  V30 3662 H 358.729 -3.57732 -1.60531 0
M  V30 3663 H 360.219 -3.30205 -2.55645 0
M  V30 3664 N 360.656 0.0484629 -1.57525 0
M  V30 3665 C 361.905 0.742065 -1.87553 0
M  V30 3666 C 362.218 1.77545 -0.820802 0
M  V30 3667 O 363.424 2.52027 -1.00967 0
M  V30 3668 C 361.88 1.37081 -3.32771 0
M  V30 3669 C 361.488 0.374786 -4.4643 0
M  V30 3670 C 363.232 2.04542 -3.71972 0
M  V30 3671 C 361.139 1.01077 -5.82698 0
M  V30 3672 H 360.069 0.280903 -0.699721 0
M  V30 3673 H 362.72 -0.00411877 -1.835 0
M  V30 3674 H 361.102 2.16605 -3.31509 0
M  V30 3675 H 362.276 -0.392331 -4.59127 0
M  V30 3676 H 360.591 -0.196653 -4.15935 0
M  V30 3677 H 363.188 2.52943 -4.71088 0
M  V30 3678 H 363.531 2.85515 -3.02964 0
M  V30 3679 H 364.064 1.31819 -3.75325 0
M  V30 3680 H 360.803 0.240878 -6.55057 0
M  V30 3681 H 360.323 1.74819 -5.73758 0
M  V30 3682 H 362.002 1.52383 -6.28799 0
M  V30 3683 N 362.134 1.5431 0.320358 0
M  V30 3684 C 363.359 1.76954 1.08175 0
M  V30 3685 C 363.784 0.518193 1.80821 0
M  V30 3686 O 363.142 -0.530411 1.73368 0
M  V30 3687 C 363.19 2.96451 2.05303 0
M  V30 3688 O 362.294 2.68221 3.13259 0
M  V30 3689 H 361.635 0.586275 0.311733 0
M  V30 3690 H 364.165 2.01342 0.363676 0
M  V30 3691 H 364.175 3.23887 2.48116 0
M  V30 3692 H 362.85 3.87196 1.51829 0
M  V30 3693 H 361.427 2.51744 2.75099 0
M  V30 3694 N 363.613 -0.582584 1.46437 0
M  V30 3695 C 364.561 -1.71272 1.5738 0
M  V30 3696 C 365.555 -1.63524 0.44229 0
M  V30 3697 O 366.761 -1.69016 0.619166 0
M  V30 3698 H 363.136 -0.566273 0.494813 0
M  V30 3699 H 365.107 -1.59174 2.52401 0
M  V30 3700 C 363.856 -3.09658 1.58136 0
M  V30 3701 H 363.179 -3.16291 2.44541 0
M  V30 3702 H 364.619 -3.88494 1.69847 0
M  V30 3703 C 363.078 -3.3547 0.310026 0
M  V30 3704 O 363.608 -3.97199 -0.599683 0
M  V30 3705 N 361.814 -2.89925 0.197901 0
M  V30 3706 H 361.361 -2.39873 0.93909 0
M  V30 3707 H 361.319 -3.07568 -0.65185 0
M  V30 3708 N 365.091 -1.34144 -0.827227 0
M  V30 3709 C 366.024 -1.19707 -1.94282 0
M  V30 3710 C 367.002 -0.0897256 -1.62352 0
M  V30 3711 O 368.186 -0.254095 -1.8678 0
M  V30 3712 C 365.313 -0.838646 -3.28153 0
M  V30 3713 C 364.359 -1.95514 -3.79047 0
M  V30 3714 S 365.192 -3.56793 -3.99323 0
M  V30 3715 C 366.348 -3.22983 -5.36127 0
M  V30 3716 H 366.581 -2.1414 -2.06231 0
M  V30 3717 H 364.114 -1.19121 -0.982321 0
M  V30 3718 H 366.072 -0.638637 -4.05502 0
M  V30 3719 H 364.733 0.0872776 -3.13979 0
M  V30 3720 H 363.926 -1.658 -4.75948 0
M  V30 3721 H 363.528 -2.11241 -3.08631 0
M  V30 3722 H 365.82 -2.74531 -6.19386 0
M  V30 3723 H 366.763 -4.19008 -5.70822 0
M  V30 3724 H 367.171 -2.59276 -5.01434 0
M  V30 3725 N 366.569 1.04691 -1.17803 0
M  V30 3726 C 367.799 1.81183 -0.992788 0
M  V30 3727 C 368.207 1.8347 0.462098 0
M  V30 3728 O 367.55 1.2643 1.33271 0
M  V30 3729 C 367.612 3.28363 -1.46349 0
M  V30 3730 C 367.276 3.49749 -2.94151 0
M  V30 3731 C 368.273 3.41456 -3.92051 0
M  V30 3732 C 365.958 3.76548 -3.32441 0
M  V30 3733 C 367.952 3.59656 -5.26238 0
M  V30 3734 C 365.639 3.94396 -4.66792 0
M  V30 3735 C 366.637 3.8595 -5.635 0
M  V30 3736 O 366.325 4.03294 -6.9542 0
M  V30 3737 H 366.057 0.577622 -0.351182 0
M  V30 3738 H 368.611 1.32876 -1.5663 0
M  V30 3739 H 366.841 3.77609 -0.833574 0
M  V30 3740 H 368.53 3.86395 -1.24313 0
M  V30 3741 H 369.296 3.20723 -3.63815 0
M  V30 3742 H 365.175 3.82224 -2.57732 0
M  V30 3743 H 368.719 3.52979 -6.01707 0
M  V30 3744 H 364.616 4.14622 -4.94731 0
M  V30 3745 H 365.384 4.2049 -7.02232 0
M  V30 3746 N 368.047 0.979072 1.23499 0
M  V30 3747 C 369.01 0.523244 2.23147 0
M  V30 3748 C 370.01 -0.386406 1.56088 0
M  V30 3749 O 371.2 -0.180283 1.73265 0
M  V30 3750 C 368.332 -0.240739 3.40049 0
M  V30 3751 H 369.525 1.40432 2.64989 0
M  V30 3752 H 367.078 0.764824 1.36309 0
M  V30 3753 H 367.813 -1.13841 3.03662 0
M  V30 3754 H 367.598 0.412207 3.89927 0
M  V30 3755 H 369.088 -0.548297 4.13985 0
M  V30 3756 N 369.525 -1.3858 0.750561 0
M  V30 3757 C 370.458 -2.28095 0.0693139 0
M  V30 3758 C 371.436 -1.45217 -0.731491 0
M  V30 3759 O 372.62 -1.74587 -0.71076 0
M  V30 3760 C 369.747 -3.26282 -0.90871 0
M  V30 3761 C 368.793 -4.26056 -0.194507 0
M  V30 3762 S 369.626 -5.24026 1.10257 0
M  V30 3763 C 370.782 -6.2577 0.127542 0
M  V30 3764 H 371.015 -2.85526 0.8284 0
M  V30 3765 H 368.548 -1.44536 0.543014 0
M  V30 3766 H 370.506 -3.83367 -1.46766 0
M  V30 3767 H 369.167 -2.6784 -1.64075 0
M  V30 3768 H 368.36 -4.95249 -0.93512 0
M  V30 3769 H 367.962 -3.72852 0.292837 0
M  V30 3770 H 370.254 -6.73796 -0.707516 0
M  V30 3771 H 371.197 -7.03712 0.787044 0
M  V30 3772 H 371.605 -5.63938 -0.251803 0
M  V30 3773 N 371.003 -0.499398 -1.49478 0
M  V30 3774 C 371.936 0.326491 -2.25852 0
M  V30 3775 C 372.914 0.971776 -1.30366 0
M  V30 3776 O 374.098 1.00219 -1.59651 0
M  V30 3777 C 371.225 1.45969 -3.05632 0
M  V30 3778 C 370.271 0.928938 -4.16261 0
M  V30 3779 S 371.104 -0.179012 -5.35201 0
M  V30 3780 C 372.26 0.957389 -6.18534 0
M  V30 3781 H 372.493 -0.321746 -2.95554 0
M  V30 3782 H 370.026 -0.284674 -1.51753 0
M  V30 3783 H 371.984 2.109 -3.52181 0
M  V30 3784 H 370.645 2.07953 -2.35402 0
M  V30 3785 H 369.838 1.77813 -4.71592 0
M  V30 3786 H 369.44 0.356869 -3.72293 0
M  V30 3787 H 371.732 1.86296 -6.51383 0
M  V30 3788 H 372.675 0.442733 -7.06715 0
M  V30 3789 H 373.083 1.224 -5.5107 0
M  V30 3790 N 372.481 1.55866 -0.233164 0
M  V30 3791 C 373.73 1.97779 0.39579 0
M  V30 3792 C 374.043 1.12419 1.60066 0
M  V30 3793 O 375.249 1.44283 2.29988 0
M  V30 3794 C 373.705 3.5188 0.755556 0
M  V30 3795 C 373.313 4.45959 -0.427152 0
M  V30 3796 C 375.057 4.02479 1.34946 0
M  V30 3797 C 372.964 5.91383 -0.0443043 0
M  V30 3798 H 371.894 0.738592 0.15165 0
M  V30 3799 H 374.545 1.80486 -0.331212 0
M  V30 3800 H 372.927 3.64816 1.5403 0
M  V30 3801 H 374.101 4.44776 -1.20462 0
M  V30 3802 H 372.416 4.05765 -0.935068 0
M  V30 3803 H 375.013 5.08637 1.649 0
M  V30 3804 H 375.356 3.49014 2.26925 0
M  V30 3805 H 375.889 3.92813 0.62791 0
M  V30 3806 H 372.628 6.48857 -0.930874 0
M  V30 3807 H 372.148 5.95734 0.697238 0
M  V30 3808 H 373.827 6.45893 0.378334 0
M  V30 3809 N 373.959 -0.0401083 1.57549 0
M  V30 3810 C 374.922 -1.02871 2.04817 0
M  V30 3811 C 375.922 -1.29708 0.950388 0
M  V30 3812 O 377.112 -1.24897 1.21435 0
M  V30 3813 C 374.244 -2.36443 2.45576 0
M  V30 3814 H 375.437 -0.620631 2.93408 0
M  V30 3815 H 372.99 -0.286667 1.53649 0
M  V30 3816 H 373.725 -2.82021 1.60108 0
M  V30 3817 H 373.51 -2.18296 3.25713 0
M  V30 3818 H 375 -3.07441 2.82612 0
M  V30 3819 N 375.437 -1.54477 -0.31217 0
M  V30 3820 C 376.853 -1.45442 -0.657185 0
M  V30 3821 C 377.053 -0.63653 -1.91182 0
M  V30 3822 O 376.109 -0.139815 -2.52113 0
M  V30 3823 C 377.422 -2.89287 -0.82058 0
M  V30 3824 C 378.97 -2.9926 -0.917188 0
M  V30 3825 C 379.445 -4.44279 -1.11267 0
M  V30 3826 N 380.936 -4.4794 -1.17914 0
M  V30 3827 C 381.671 -5.57318 -1.34848 0
M  V30 3828 N 381.167 -6.76642 -1.48752 0
M  V30 3829 N 382.96 -5.44986 -1.37647 0
M  V30 3830 H 375.111 -2.06129 0.512313 0
M  V30 3831 H 377.374 -0.933088 0.167485 0
M  V30 3832 H 377.08 -3.51687 0.0302604 0
M  V30 3833 H 376.954 -3.36061 -1.71298 0
M  V30 3834 H 379.341 -2.36981 -1.75852 0
M  V30 3835 H 379.422 -2.558 -0.00101257 0
M  V30 3836 H 379.066 -5.07149 -0.27614 0
M  V30 3837 H 378.996 -4.85359 -2.04289 0
M  V30 3838 H 381.487 -3.61969 -1.08567 0
M  V30 3839 H 381.8 -7.55758 -1.61397 0
M  V30 3840 H 380.145 -6.79529 -1.45828 0
M  V30 3841 H 383.336 -4.50715 -1.26388 0
M  V30 3842 H 383.509 -6.3028 -1.50501 0
M  V30 3843 N 376.915 0.57481 -1.46744 0
M  V30 3844 C 378.162 1.33272 -1.52462 0
M  V30 3845 C 378.49 1.93669 -0.179572 0
M  V30 3846 O 377.745 1.7743 0.825664 0
M  V30 3847 C 378.044 2.476 -2.57738 0
M  V30 3848 C 377.71 2.05146 -4.01529 0
M  V30 3849 C 376.372 1.93284 -4.40676 0
M  V30 3850 C 378.724 1.72506 -4.91824 0
M  V30 3851 C 376.052 1.47049 -5.67973 0
M  V30 3852 C 378.404 1.27748 -6.19567 0
M  V30 3853 C 377.068 1.14468 -6.57612 0
M  V30 3854 H 376.338 0.487678 -0.557899 0
M  V30 3855 H 378.985 0.646456 -1.80259 0
M  V30 3856 H 377.29 3.21708 -2.23632 0
M  V30 3857 H 378.987 3.05807 -2.5939 0
M  V30 3858 H 375.577 2.15316 -3.7059 0
M  V30 3859 H 379.761 1.80552 -4.62293 0
M  V30 3860 H 375.017 1.35417 -5.96215 0
M  V30 3861 H 379.191 1.01547 -6.88957 0
M  V30 3862 H 376.818 0.78419 -7.56145 0
M  V30 3863 N 378.394 1.34581 0.820102 0
M  V30 3864 C 379.341 1.2639 1.93117 0
M  V30 3865 C 380.311 0.138554 1.65521 0
M  V30 3866 O 381.496 0.320004 1.88097 0
M  V30 3867 C 378.636 1.02812 3.29429 0
M  V30 3868 C 377.749 2.24146 3.693 0
M  V30 3869 C 376.884 1.93829 4.94574 0
M  V30 3870 C 375.923 3.1129 5.27034 0
M  V30 3871 N 375.06 2.80838 6.43486 0
M  V30 3872 H 379.9 2.21408 1.99455 0
M  V30 3873 H 377.437 1.10077 0.975784 0
M  V30 3874 H 379.395 0.871788 4.0799 0
M  V30 3875 H 378.025 0.114612 3.22596 0
M  V30 3876 H 377.077 2.50691 2.86109 0
M  V30 3877 H 378.389 3.11899 3.89257 0
M  V30 3878 H 377.543 1.74948 5.80929 0
M  V30 3879 H 376.282 1.03341 4.76626 0
M  V30 3880 H 375.287 3.30764 4.39175 0
M  V30 3881 H 376.512 4.02561 5.4692 0
M  V30 3882 H 374.458 1.92929 6.26988 0
M  V30 3883 H 374.375 3.62123 6.63629 0
M  V30 3884 H 375.643 2.65467 7.32903 0
M  V30 3885 N 379.872 -1.04064 1.18357 0
M  V30 3886 C 380.805 -2.11618 0.854 0
M  V30 3887 C 381.783 -1.61555 -0.184043 0
M  V30 3888 O 382.967 -1.88395 -0.0630048 0
M  V30 3889 C 380.094 -3.37574 0.27597 0
M  V30 3890 C 379.14 -4.06485 1.2912 0
M  V30 3891 S 379.973 -4.53543 2.84709 0
M  V30 3892 C 381.129 -5.82732 2.28417 0
M  V30 3893 H 381.362 -2.39247 1.76488 0
M  V30 3894 H 378.895 -1.16832 1.00944 0
M  V30 3895 H 380.853 -4.10468 -0.051026 0
M  V30 3896 H 379.514 -3.0806 -0.613028 0
M  V30 3897 H 378.707 -4.97024 0.835633 0
M  V30 3898 H 378.309 -3.39708 1.56443 0
M  V30 3899 H 380.601 -6.56677 1.66677 0
M  V30 3900 H 381.544 -6.33052 3.17256 0
M  V30 3901 H 381.952 -5.37838 1.71436 0
M  V30 3902 N 381.35 -0.985608 -1.22978 0
M  V30 3903 C 382.597 -0.657386 -1.91532 0
M  V30 3904 C 382.925 0.809707 -1.76845 0
M  V30 3905 O 382.18 1.60021 -1.12658 0
M  V30 3906 C 382.479 -1.00014 -3.43121 0
M  V30 3907 C 382.145 -2.4583 -3.77993 0
M  V30 3908 C 380.807 -2.85679 -3.87222 0
M  V30 3909 C 383.159 -3.40378 -3.94705 0
M  V30 3910 C 380.487 -4.19081 -4.10595 0
M  V30 3911 C 382.839 -4.73429 -4.1958 0
M  V30 3912 C 381.503 -5.1303 -4.27032 0
M  V30 3913 H 380.773 -0.240555 -0.700867 0
M  V30 3914 H 383.42 -1.24044 -1.45895 0
M  V30 3915 H 381.725 -0.335072 -3.90365 0
M  V30 3916 H 383.422 -0.724322 -3.94404 0
M  V30 3917 H 380.012 -2.13939 -3.71387 0
M  V30 3918 H 384.196 -3.10766 -3.8696 0
M  V30 3919 H 379.452 -4.49362 -4.14589 0
M  V30 3920 H 383.626 -5.46644 -4.31455 0
M  V30 3921 H 381.253 -6.16418 -4.44896 0
M  V30 3922 N 382.828 1.3818 -0.7579 0
M  V30 3923 C 384.239 1.82726 -0.383134 0
M  V30 3924 C 384.59 1.63214 1.08884 0
M  V30 3925 O 383.715 1.13566 1.84205 0
M  V30 3926 C 384.31 3.31728 -0.688631 0
M  V30 3927 C 382.869 3.74606 -0.367091 0
M  V30 3928 C 382.016 2.60896 -0.939599 0
M  V30 3929 H 384.967 1.26847 -0.953699 0
M  V30 3930 H 384.988 3.80487 0.0316492 0
M  V30 3931 H 384.5 3.45898 -1.76001 0
M  V30 3932 H 382.601 3.66013 0.697532 0
M  V30 3933 H 382.714 4.71215 -0.865658 0
M  V30 3934 H 381.078 2.52075 -0.3647 0
M  V30 3935 H 381.861 2.77864 -2.0161 0
M  V30 3936 N 384.306 0.507319 1.49211 0
M  V30 3937 C 385.216 -0.272136 2.33016 0
M  V30 3938 C 386.232 -0.961206 1.45041 0
M  V30 3939 O 387.408 -0.941191 1.78055 0
M  V30 3940 C 384.473 -1.31895 3.20631 0
M  V30 3941 C 383.534 -0.642648 4.24463 0
M  V30 3942 C 382.767 -1.63959 5.07891 0
M  V30 3943 O 382.99 -2.87007 4.92933 0
M  V30 3944 O 381.924 -1.19143 5.8999 0
M  V30 3945 H 385.75 0.413982 3.00865 0
M  V30 3946 H 383.335 0.268556 1.46966 0
M  V30 3947 H 385.217 -1.92446 3.7489 0
M  V30 3948 H 383.892 -1.98788 2.5547 0
M  V30 3949 H 382.799 0.00276252 3.741 0
M  V30 3950 H 384.132 -0.0160534 4.92197 0
M  V30 3951 N 385.784 -1.5574 0.241426 0
M  V30 3952 C 387.03 -1.99104 -0.385406 0
M  V30 3953 C 387.363 -1.1293 -1.57988 0
M  V30 3954 O 386.638 -0.191449 -1.93555 0
M  V30 3955 C 386.921 -3.51087 -0.800616 0
M  V30 3956 C 386.774 -4.48028 0.398874 0
M  V30 3957 C 388.093 -4.08015 -1.64959 0
M  V30 3958 H 385.212 -0.723848 -0.138614 0
M  V30 3959 H 387.854 -1.86903 0.341642 0
M  V30 3960 H 386.004 -3.61615 -1.4201 0
M  V30 3961 H 387.676 -4.49487 1.03726 0
M  V30 3962 H 385.919 -4.21077 1.04293 0
M  V30 3963 H 386.59 -5.51962 0.0651056 0
M  V30 3964 H 389.066 -4.00555 -1.12672 0
M  V30 3965 H 387.942 -5.14635 -1.90898 0
M  V30 3966 H 388.203 -3.56131 -2.61961 0
M  V30 3967 N 387.262 0.0317525 -1.57568 0
M  V30 3968 C 388.209 1.0332 -2.06382 0
M  V30 3969 C 389.179 1.36082 -0.952414 0
M  V30 3970 O 390.364 1.46466 -1.2228 0
M  V30 3971 C 387.504 2.32989 -2.54578 0
M  V30 3972 C 386.617 2.0641 -3.79498 0
M  V30 3973 C 385.752 3.2993 -4.16317 0
M  V30 3974 C 384.791 2.98893 -5.34162 0
M  V30 3975 N 383.928 4.14857 -5.66426 0
M  V30 3976 H 388.768 0.609982 -2.9169 0
M  V30 3977 H 386.305 0.289573 -1.44222 0
M  V30 3978 H 388.263 3.0875 -2.80587 0
M  V30 3979 H 386.893 2.73039 -1.7219 0
M  V30 3980 H 385.945 1.21158 -3.6059 0
M  V30 3981 H 387.257 1.79513 -4.65378 0
M  V30 3982 H 386.411 4.1406 -4.4344 0
M  V30 3983 H 385.15 3.59938 -3.29083 0
M  V30 3984 H 384.155 2.13164 -5.06795 0
M  V30 3985 H 385.38 2.70165 -6.23047 0
M  V30 3986 H 383.326 4.44821 -4.82151 0
M  V30 3987 H 383.243 3.91374 -6.4681 0
M  V30 3988 H 384.511 4.99868 -5.98124 0
M  V30 3989 N 388.74 1.54641 0.303973 0
M  V30 3990 C 389.65 1.88439 1.39743 0
M  V30 3991 C 390.666 0.778239 1.55626 0
M  V30 3992 O 391.842 1.07442 1.70347 0
M  V30 3993 C 388.907 2.12212 2.74166 0
M  V30 3994 C 387.968 3.35936 2.67293 0
M  V30 3995 C 387.201 3.58566 3.95305 0
M  V30 3996 O 387.424 2.84263 4.9452 0
M  V30 3997 O 386.358 4.52078 3.97378 0
M  V30 3998 H 390.184 2.81458 1.14083 0
M  V30 3999 H 387.769 1.40793 0.499768 0
M  V30 4000 H 389.651 2.29067 3.53704 0
M  V30 4001 H 388.326 1.22379 2.99675 0
M  V30 4002 H 387.233 3.24448 1.86237 0
M  V30 4003 H 388.566 4.2589 2.46736 0
M  V30 4004 N 390.218 -0.567019 1.47046 0
M  V30 4005 C 391.165 -1.67489 1.58796 0
M  V30 4006 C 392.135 -1.60399 0.43144 0
M  V30 4007 O 393.32 -1.79378 0.650233 0
M  V30 4008 C 390.46 -3.05821 1.59899 0
M  V30 4009 C 389.573 -3.2342 2.86397 0
M  V30 4010 C 388.708 -4.52093 2.789 0
M  V30 4011 C 387.747 -4.6309 4.00267 0
M  V30 4012 N 386.884 -5.83106 3.91064 0
M  V30 4013 H 391.724 -1.56785 2.53422 0
M  V30 4014 H 389.261 -0.763896 1.2571 0
M  V30 4015 H 391.219 -3.8591 1.58522 0
M  V30 4016 H 389.849 -3.15384 0.687929 0
M  V30 4017 H 388.901 -2.3683 2.97684 0
M  V30 4018 H 390.213 -3.27412 3.76301 0
M  V30 4019 H 389.367 -5.4043 2.75718 0
M  V30 4020 H 388.106 -4.50565 1.86662 0
M  V30 4021 H 387.111 -3.73168 4.03765 0
M  V30 4022 H 388.336 -4.66386 4.93621 0
M  V30 4023 H 386.282 -5.82546 3.01623 0
M  V30 4024 H 386.199 -5.88434 4.74638 0
M  V30 4025 H 387.467 -6.73831 3.91882 0
M  V30 4026 N 391.696 -1.35014 -0.812953 0
M  V30 4027 C 392.944 -1.27678 -1.56661 0
M  V30 4028 C 393.265 0.150359 -1.94419 0
M  V30 4029 O 392.535 1.08532 -1.63088 0
M  V30 4030 H 391.115 -0.469602 -0.580933 0
M  V30 4031 H 393.777 -1.69043 -0.970076 0
M  V30 4032 H 392.873 -1.88833 -2.48492 0
M  V30 4033 N 393.175 1.03435 -1.18907 0
M  V30 4034 C 394.108 2.11162 -0.86521 0
M  V30 4035 C 395.086 1.6165 0.175473 0
M  V30 4036 O 396.27 1.88425 0.0530129 0
M  V30 4037 C 393.397 3.37423 -0.293868 0
M  V30 4038 C 392.443 4.05795 -1.31274 0
M  V30 4039 S 393.276 4.52027 -2.8711 0
M  V30 4040 C 394.432 5.81513 -2.31504 0
M  V30 4041 H 394.665 2.38308 -1.77754 0
M  V30 4042 H 392.198 1.16295 -1.01562 0
M  V30 4043 H 394.156 4.1049 0.0292572 0
M  V30 4044 H 392.817 3.0838 0.596682 0
M  V30 4045 H 392.01 4.96574 -0.86198 0
M  V30 4046 H 391.612 3.38874 -1.58242 0
M  V30 4047 H 393.904 6.55784 -1.70157 0
M  V30 4048 H 394.847 6.3136 -3.20608 0
M  V30 4049 H 395.255 5.36921 -1.74286 0
M  V30 4050 N 394.653 0.992116 1.22453 0
M  V30 4051 C 395.616 0.546883 2.2258 0
M  V30 4052 C 396.616 -0.369829 1.56489 0
M  V30 4053 O 397.806 -0.161896 1.73446 0
M  V30 4054 C 394.938 -0.204659 3.40285 0
M  V30 4055 H 396.131 1.43234 2.63484 0
M  V30 4056 H 393.684 0.779239 1.3549 0
M  V30 4057 H 394.419 -1.10614 3.04853 0
M  V30 4058 H 394.204 0.45354 3.89468 0
M  V30 4059 H 395.694 -0.504358 4.14543 0
M  V30 4060 N 396.131 -1.37776 0.765217 0
M  V30 4061 C 397.094 -2.28686 0.153416 0
M  V30 4062 C 398.094 -1.47727 -0.635081 0
M  V30 4063 O 399.284 -1.68027 -0.459632 0
M  V30 4064 C 396.416 -3.31608 -0.790495 0
M  V30 4065 H 397.609 -2.84297 0.954723 0
M  V30 4066 H 395.162 -1.46932 0.53299 0
M  V30 4067 H 395.897 -2.81109 -1.61705 0
M  V30 4068 H 395.682 -3.9144 -0.227348 0
M  V30 4069 H 397.172 -3.99559 -1.21419 0
M  V30 4070 N 397.609 -0.515225 -1.4894 0
M  V30 4071 C 398.539 0.244628 -2.32215 0
M  V30 4072 C 399.52 0.949136 -1.41157 0
M  V30 4073 O 400.705 0.937783 -1.70057 0
M  V30 4074 C 397.835 1.30096 -3.22013 0
M  V30 4075 C 396.789 0.715486 -4.21977 0
M  V30 4076 C 396.115 1.87339 -5.00808 0
M  V30 4077 C 397.415 -0.302982 -5.2142 0
M  V30 4078 H 399.109 -0.450501 -2.95991 0
M  V30 4079 H 396.655 -0.218098 -1.42339 0
M  V30 4080 H 398.608 1.84037 -3.79089 0
M  V30 4081 H 397.332 2.02547 -2.56207 0
M  V30 4082 H 395.991 0.197715 -3.66066 0
M  V30 4083 H 395.639 2.58592 -4.31438 0
M  V30 4084 H 395.339 1.48764 -5.68457 0
M  V30 4085 H 396.863 2.41686 -5.60732 0
M  V30 4086 H 398.277 0.148802 -5.73107 0
M  V30 4087 H 396.674 -0.60532 -5.97039 0
M  V30 4088 H 397.744 -1.21395 -4.69459 0
M  V30 4089 N 399.087 1.5561 -0.249682 0
M  V30 4090 C 400.498 1.84979 0.252949 0
M  V30 4091 C 400.849 1.17153 1.57384 0
M  V30 4092 O 399.974 0.450884 2.11651 0
M  V30 4093 C 400.569 3.35584 0.465732 0
M  V30 4094 C 399.128 3.65169 0.912624 0
M  V30 4095 C 398.275 2.77299 -0.00859085 0
M  V30 4096 H 401.226 1.51513 -0.47217 0
M  V30 4097 H 401.247 3.57313 1.30795 0
M  V30 4098 H 400.759 3.8492 -0.49579 0
M  V30 4099 H 398.86 3.21312 1.88652 0
M  V30 4100 H 398.973 4.72912 0.767559 0
M  V30 4101 H 397.337 2.49678 0.50327 0
M  V30 4102 H 398.12 3.29442 -0.965537 0
M  V30 4103 N 400.565 -0.0233959 1.57583 0
M  V30 4104 C 401.981 -0.379134 1.55031 0
M  V30 4105 C 402.181 -1.76255 0.976548 0
M  V30 4106 O 401.237 -2.45266 0.600078 0
M  V30 4107 C 402.55 -0.275792 2.99433 0
M  V30 4108 C 404.098 -0.352458 3.11009 0
M  V30 4109 C 404.573 -0.278501 4.57152 0
M  V30 4110 N 406.064 -0.337123 4.61972 0
M  V30 4111 C 406.799 -0.302876 5.726 0
M  V30 4112 N 406.295 -0.220589 6.92449 0
M  V30 4113 N 408.088 -0.353023 5.6099 0
M  V30 4114 H 400.239 0.881869 1.93227 0
M  V30 4115 H 402.502 0.335867 0.886509 0
M  V30 4116 H 402.208 0.675108 3.4516 0
M  V30 4117 H 402.082 -1.06721 3.61788 0
M  V30 4118 H 404.469 -1.29379 2.65226 0
M  V30 4119 H 404.55 0.468409 2.51475 0
M  V30 4120 H 404.194 0.659189 5.03604 0
M  V30 4121 H 404.124 -1.11755 5.14605 0
M  V30 4122 H 406.615 -0.403002 3.75745 0
M  V30 4123 H 406.928 -0.199713 7.72542 0
M  V30 4124 H 405.273 -0.186555 6.9475 0
M  V30 4125 H 408.464 -0.415339 4.66254 0
M  V30 4126 H 408.637 -0.322866 6.47195 0
M  V30 4127 N 402.043 -1.548 -0.295768 0
M  V30 4128 C 402.973 -1.89115 -1.36959 0
M  V30 4129 C 403.954 -0.75059 -1.52644 0
M  V30 4130 O 405.139 -1.00678 -1.66065 0
M  V30 4131 C 402.269 -2.14307 -2.73295 0
M  V30 4132 C 401.223 -3.30151 -2.72368 0
M  V30 4133 C 400.549 -3.40772 -4.12042 0
M  V30 4134 C 401.849 -4.67126 -2.33646 0
M  V30 4135 H 403.543 -2.79053 -1.08488 0
M  V30 4136 H 401.089 -1.34266 -0.520443 0
M  V30 4137 H 403.042 -2.36898 -3.48507 0
M  V30 4138 H 401.766 -1.21145 -3.03301 0
M  V30 4139 H 400.425 -3.0749 -1.99613 0
M  V30 4140 H 400.073 -2.45117 -4.39234 0
M  V30 4141 H 399.773 -4.18645 -4.12322 0
M  V30 4142 H 401.297 -3.6563 -4.89027 0
M  V30 4143 H 402.711 -4.89414 -2.98575 0
M  V30 4144 H 401.108 -5.47751 -2.45129 0
M  V30 4145 H 402.178 -4.67489 -1.28772 0
M  V30 4146 N 403.521 0.559213 -1.47345 0
M  V30 4147 C 404.77 1.31281 -1.53128 0
M  V30 4148 C 405.083 1.94602 -0.197344 0
M  V30 4149 O 406.289 2.71173 -0.133154 0
M  V30 4150 C 404.745 2.38051 -2.69925 0
M  V30 4151 C 404.353 1.8093 -4.0984 0
M  V30 4152 C 406.097 3.14604 -2.84999 0
M  V30 4153 C 404.004 2.85468 -5.1794 0
M  V30 4154 H 402.934 0.493614 -0.569966 0
M  V30 4155 H 405.585 0.594155 -1.73615 0
M  V30 4156 H 403.967 3.12822 -2.42814 0
M  V30 4157 H 405.141 1.12544 -4.46845 0
M  V30 4158 H 403.456 1.16967 -3.99634 0
M  V30 4159 H 406.053 3.92666 -3.62929 0
M  V30 4160 H 406.396 3.68665 -1.93369 0
M  V30 4161 H 406.929 2.46945 -3.1187 0
M  V30 4162 H 403.668 2.36264 -6.1144 0
M  V30 4163 H 403.188 3.52269 -4.85455 0
M  V30 4164 H 404.867 3.48996 -5.44803 0
M  V30 4165 N 404.999 1.35443 0.805782 0
M  V30 4166 C 405.962 1.28301 1.89925 0
M  V30 4167 C 406.962 0.194285 1.59622 0
M  V30 4168 O 408.152 0.448036 1.6834 0
M  V30 4169 C 405.284 0.984997 3.2636 0
M  V30 4170 H 406.477 2.2553 1.97677 0
M  V30 4171 H 404.03 1.19979 1.00173 0
M  V30 4172 H 404.765 0.016603 3.24296 0
M  V30 4173 H 404.55 1.77269 3.4974 0
M  V30 4174 H 406.04 0.960651 4.064 0
M  V30 4175 N 406.477 -1.02803 1.19454 0
M  V30 4176 C 407.724 -1.76217 0.997693 0
M  V30 4177 C 408.052 -1.887 -0.47144 0
M  V30 4178 O 407.307 -1.4011 -1.3663 0
M  V30 4179 C 407.606 -3.18941 1.6128 0
M  V30 4180 C 407.272 -3.26463 3.11019 0
M  V30 4181 C 405.934 -3.28223 3.51885 0
M  V30 4182 C 408.286 -3.25542 4.07028 0
M  V30 4183 C 405.614 -3.26719 4.8731 0
M  V30 4184 C 407.966 -3.25579 5.42385 0
M  V30 4185 C 406.63 -3.25637 5.82681 0
M  V30 4186 H 405.9 -0.644823 0.365082 0
M  V30 4187 H 408.547 -1.20655 1.4871 0
M  V30 4188 H 406.852 -3.77587 1.04572 0
M  V30 4189 H 408.549 -3.74415 1.43577 0
M  V30 4190 H 405.139 -3.25822 2.78457 0
M  V30 4191 H 409.323 -3.23362 3.76498 0
M  V30 4192 H 404.579 -3.25089 5.1781 0
M  V30 4193 H 408.753 -3.23817 6.16535 0
M  V30 4194 H 406.38 -3.24226 6.87591 0
M  V30 4195 N 407.956 -0.998596 -1.21925 0
M  V30 4196 C 409.184 -0.696286 -1.94832 0
M  V30 4197 C 409.599 0.740032 -1.73692 0
M  V30 4198 O 408.956 1.5 -1.03953 0
M  V30 4199 C 409.007 -0.999833 -3.47398 0
M  V30 4200 O 408.728 -2.37972 -3.67833 0
M  V30 4201 C 410.229 -0.716025 -4.37479 0
M  V30 4202 H 407.449 -0.257111 -0.619786 0
M  V30 4203 H 409.993 -1.33491 -1.54921 0
M  V30 4204 H 408.148 -0.406918 -3.85257 0
M  V30 4205 H 408.562 -2.48338 -4.61983 0
M  V30 4206 H 410.036 -0.978642 -5.43256 0
M  V30 4207 H 410.513 0.349968 -4.37803 0
M  V30 4208 H 411.119 -1.29025 -4.05256 0
M  V30 4209 N 409.434 1.37368 -0.772513 0
M  V30 4210 C 410.659 2.0447 -0.347386 0
M  V30 4211 C 411.084 1.57882 1.0225 0
M  V30 4212 O 410.442 0.73941 1.65537 0
M  V30 4213 C 410.49 3.58369 -0.400479 0
M  V30 4214 O 409.594 4.0803 0.598789 0
M  V30 4215 H 408.935 0.646773 -0.15027 0
M  V30 4216 H 411.465 1.75667 -1.04892 0
M  V30 4217 H 411.475 4.07183 -0.258045 0
M  V30 4218 H 410.15 3.91633 -1.39986 0
M  V30 4219 H 408.727 3.70534 0.419411 0
M  V30 4220 N 410.912 0.523116 1.48665 0
M  V30 4221 C 411.822 -0.247406 2.33292 0
M  V30 4222 C 412.838 -0.945769 1.46052 0
M  V30 4223 O 414.014 -0.922253 1.79043 0
M  V30 4224 C 411.079 -1.28487 3.22012 0
M  V30 4225 C 410.14 -0.597592 4.2512 0
M  V30 4226 C 409.373 -1.58563 5.09601 0
M  V30 4227 O 409.596 -2.81763 4.95949 0
M  V30 4228 O 408.53 -1.12879 5.91221 0
M  V30 4229 H 412.356 0.445869 3.00409 0
M  V30 4230 H 409.941 0.284128 1.46673 0
M  V30 4231 H 411.823 -1.88459 3.7691 0
M  V30 4232 H 410.498 -1.96068 2.57564 0
M  V30 4233 H 409.405 0.0424407 3.74076 0
M  V30 4234 H 410.738 0.0361517 4.92187 0
M  V30 4235 N 412.39 -1.55475 0.257931 0
M  V30 4236 C 413.34 -2.18506 -0.651094 0
M  V30 4237 C 414.324 -1.14431 -1.13112 0
M  V30 4238 O 415.516 -1.40305 -1.07905 0
M  V30 4239 C 412.645 -2.89653 -1.84272 0
M  V30 4240 C 411.731 -4.00996 -1.38068 0
M  V30 4241 N 412.122 -5.01816 -0.633609 0
M  V30 4242 C 410.42 -4.13753 -1.66506 0
M  V30 4243 C 411.121 -5.80371 -0.392922 0
M  V30 4244 N 410.097 -5.3505 -0.960359 0
M  V30 4245 H 413.899 -2.93811 -0.0722883 0
M  V30 4246 H 411.413 -1.62286 0.0607256 0
M  V30 4247 H 413.41 -3.33245 -2.50506 0
M  V30 4248 H 412.07 -2.15854 -2.42564 0
M  V30 4249 H 413.081 -5.17128 -0.282626 0
M  V30 4250 H 409.758 -3.51133 -2.25858 0
M  V30 4251 H 411.148 -6.7159 0.204235 0
M  V30 4252 N 413.868 0.0150385 -1.57593 0
M  V30 4253 C 415.093 0.718067 -1.94573 0
M  V30 4254 C 415.518 1.6734 -0.859005 0
M  V30 4255 O 414.876 1.80362 0.184147 0
M  V30 4256 C 414.924 1.43918 -3.30636 0
M  V30 4257 O 414.028 2.55299 -3.23876 0
M  V30 4258 H 413.369 0.192125 -0.635597 0
M  V30 4259 H 415.899 -0.0336708 -2.04572 0
M  V30 4260 H 415.909 1.80598 -3.65853 0
M  V30 4261 H 414.584 0.738619 -4.09289 0
M  V30 4262 H 413.161 2.21058 -3.00312 0
M  V30 4263 N 415.346 1.54954 0.287554 0
M  V30 4264 C 416.296 1.8322 1.357 0
M  V30 4265 C 417.28 0.690152 1.45347 0
M  V30 4266 O 418.472 0.951137 1.49273 0
M  V30 4267 C 415.601 2.09481 2.71979 0
M  V30 4268 C 414.687 3.29906 2.66502 0
M  V30 4269 N 415.078 4.50154 2.30641 0
M  V30 4270 C 413.376 3.32203 2.97585 0
M  V30 4271 C 414.077 5.32209 2.34794 0
M  V30 4272 N 413.053 4.70258 2.72688 0
M  V30 4273 H 416.855 2.73746 1.0696 0
M  V30 4274 H 414.369 1.54635 0.496167 0
M  V30 4275 H 416.366 2.27882 3.49107 0
M  V30 4276 H 415.026 1.2023 3.0162 0
M  V30 4277 H 416.037 4.76515 2.02865 0
M  V30 4278 H 412.714 2.53101 3.32034 0
M  V30 4279 H 414.104 6.38321 2.09753 0
M  V30 4280 N 416.824 -0.551391 1.4764 0
M  V30 4281 C 418.071 -1.3083 1.54563 0
M  V30 4282 C 418.399 -1.93359 0.210361 0
M  V30 4283 O 417.654 -1.78721 -0.797332 0
M  V30 4284 C 417.953 -2.43469 2.61644 0
M  V30 4285 C 417.619 -1.98732 4.04742 0
M  V30 4286 C 416.281 -1.86248 4.43695 0
M  V30 4287 C 418.633 -1.64659 4.94507 0
M  V30 4288 C 415.961 -1.37995 5.70241 0
M  V30 4289 C 418.313 -1.17875 6.21521 0
M  V30 4290 C 416.977 -1.03992 6.5935 0
M  V30 4291 H 416.247 -0.478741 0.565587 0
M  V30 4292 H 418.894 -0.617697 1.81264 0
M  V30 4293 H 417.199 -3.18109 2.28722 0
M  V30 4294 H 418.896 -3.01642 2.64222 0
M  V30 4295 H 415.486 -2.09393 3.73968 0
M  V30 4296 H 419.67 -1.73174 4.65107 0
M  V30 4297 H 414.926 -1.25915 5.98294 0
M  V30 4298 H 419.1 -0.905739 6.90485 0
M  V30 4299 H 416.727 -0.663794 7.57296 0
M  V30 4300 N 418.302 -1.35869 -0.798587 0
M  V30 4301 C 419.527 -1.32883 -1.59238 0
M  V30 4302 C 419.952 0.0894587 -1.87887 0
M  V30 4303 O 419.31 1.05869 -1.47178 0
M  V30 4304 C 419.358 -2.14892 -2.89575 0
M  V30 4305 O 418.462 -1.53512 -3.82763 0
M  V30 4306 H 417.803 -0.455236 -0.48338 0
M  V30 4307 H 420.333 -1.79024 -0.990539 0
M  V30 4308 H 420.343 -2.27139 -3.38928 0
M  V30 4309 H 419.018 -3.17998 -2.68049 0
M  V30 4310 H 417.595 -1.50153 -3.41334 0
M  V30 4311 N 419.78 1.02168 -1.19998 0
M  V30 4312 C 420.71 2.12488 -0.96804 0
M  V30 4313 C 421.691 1.69799 0.101185 0
M  V30 4314 O 422.876 1.94121 -0.0552993 0
M  V30 4315 C 420.006 3.43479 -0.513776 0
M  V30 4316 C 418.96 3.99884 -1.52566 0
M  V30 4317 C 418.286 5.26582 -0.928214 0
M  V30 4318 C 419.586 4.33861 -2.90795 0
M  V30 4319 H 421.28 2.32149 -1.89069 0
M  V30 4320 H 418.826 1.11564 -0.910468 0
M  V30 4321 H 420.779 4.20036 -0.338774 0
M  V30 4322 H 419.503 3.23561 0.444493 0
M  V30 4323 H 418.162 3.25429 -1.68794 0
M  V30 4324 H 417.81 5.02986 0.0378289 0
M  V30 4325 H 417.51 5.65284 -1.60397 0
M  V30 4326 H 419.034 6.05799 -0.764167 0
M  V30 4327 H 420.448 5.01327 -2.78109 0
M  V30 4328 H 418.845 4.83664 -3.55231 0
M  V30 4329 H 419.915 3.42848 -3.42904 0
M  V30 4330 N 421.258 1.00505 1.21394 0
M  V30 4331 C 422.205 0.565496 2.23765 0
M  V30 4332 C 423.175 -0.408466 1.60999 0
M  V30 4333 O 424.36 -0.310503 1.88257 0
M  V30 4334 C 421.5 -0.101667 3.4495 0
M  V30 4335 C 420.613 0.915479 4.22188 0
M  V30 4336 C 419.748 0.220574 5.30742 0
M  V30 4337 C 418.787 1.22527 5.99711 0
M  V30 4338 N 417.924 0.557831 6.9988 0
M  V30 4339 H 422.764 1.44314 2.60725 0
M  V30 4340 H 420.301 0.722643 1.28126 0
M  V30 4341 H 422.259 -0.505504 4.14126 0
M  V30 4342 H 420.889 -0.94303 3.08718 0
M  V30 4343 H 419.941 1.43756 3.52191 0
M  V30 4344 H 421.253 1.68005 4.69655 0
M  V30 4345 H 420.407 -0.239368 6.06228 0
M  V30 4346 H 419.146 -0.576401 4.84282 0
M  V30 4347 H 418.151 1.69571 5.22997 0
M  V30 4348 H 419.376 2.02332 6.48258 0
M  V30 4349 H 417.322 -0.219486 6.55633 0
M  V30 4350 H 417.239 1.26065 7.45415 0
M  V30 4351 H 418.507 0.121095 7.79406 0
M  V30 4352 N 422.737 -1.36956 0.779787 0
M  V30 4353 C 423.684 -2.30175 0.169697 0
M  V30 4354 C 424.654 -1.51501 -0.68094 0
M  V30 4355 O 425.839 -1.80042 -0.631629 0
M  V30 4356 C 422.979 -3.37985 -0.697131 0
M  V30 4357 C 422.092 -4.31661 0.170992 0
M  V30 4358 C 421.227 -5.2655 -0.701298 0
M  V30 4359 C 420.266 -6.11867 0.168869 0
M  V30 4360 N 419.403 -6.98973 -0.661855 0
M  V30 4361 H 424.243 -2.81767 0.970135 0
M  V30 4362 H 421.78 -1.38699 0.489994 0
M  V30 4363 H 423.738 -3.99128 -1.2146 0
M  V30 4364 H 422.368 -2.87739 -1.46309 0
M  V30 4365 H 421.42 -3.71756 0.80634 0
M  V30 4366 H 422.732 -4.91644 0.841875 0
M  V30 4367 H 421.886 -5.92937 -1.28494 0
M  V30 4368 H 420.625 -4.66998 -1.40584 0
M  V30 4369 H 419.63 -5.44452 0.764986 0
M  V30 4370 H 420.855 -6.73493 0.870863 0
M  V30 4371 H 418.801 -6.41941 -1.35086 0
M  V30 4372 H 418.718 -7.55984 -0.0484447 0
M  V30 4373 H 419.986 -7.6974 -1.22963 0
M  V30 4374 N 424.215 -0.530993 -1.48385 0
M  V30 4375 C 425.463 0.00273189 -2.021 0
M  V30 4376 C 425.784 1.34672 -1.41027 0
M  V30 4377 O 425.054 1.8724 -0.576012 0
M  V30 4378 H 423.634 0.00399774 -0.746989 0
M  V30 4379 H 426.296 -0.695054 -1.82085 0
M  V30 4380 H 425.392 0.11031 -3.11905 0
M  V30 4381 N 425.693 1.55336 -0.266172 0
M  V30 4382 C 426.656 2.20878 0.612001 0
M  V30 4383 C 427.656 1.18388 1.08816 0
M  V30 4384 O 428.846 1.4335 0.989774 0
M  V30 4385 C 425.978 2.86765 1.84332 0
M  V30 4386 H 427.171 2.99873 0.0398718 0
M  V30 4387 H 424.724 1.56291 -0.0167309 0
M  V30 4388 H 425.459 2.11759 2.45619 0
M  V30 4389 H 425.244 3.61862 1.5099 0
M  V30 4390 H 426.734 3.36867 2.46801 0
M  V30 4391 N 427.171 -0.0066808 1.57599 0
M  V30 4392 C 428.134 -0.985035 2.06953 0
M  V30 4393 C 429.134 -1.27663 0.977687 0
M  V30 4394 O 430.324 -1.22293 1.24057 0
M  V30 4395 C 427.456 -2.3118 2.50536 0
M  V30 4396 H 428.649 -0.558255 2.94658 0
M  V30 4397 H 426.202 -0.254011 1.54222 0
M  V30 4398 H 426.937 -2.78561 1.66054 0
M  V30 4399 H 426.722 -2.11338 3.3027 0
M  V30 4400 H 428.212 -3.01377 2.8907 0
M  V30 4401 N 428.649 -1.55105 -0.279332 0
M  V30 4402 C 429.612 -1.86783 -1.32834 0
M  V30 4403 C 430.612 -0.74199 -1.42657 0
M  V30 4404 O 431.802 -1.0102 -1.41918 0
M  V30 4405 C 428.934 -2.06746 -2.71052 0
M  V30 4406 H 430.127 -2.8055 -1.05979 0
M  V30 4407 H 427.68 -1.47499 -0.517087 0
M  V30 4408 H 428.415 -1.15339 -3.03097 0
M  V30 4409 H 428.2 -2.88711 -2.65309 0
M  V30 4410 H 429.69 -2.32549 -3.46858 0
M  V30 4411 N 430.127 0.543554 -1.4793 0
M  V30 4412 C 431.057 1.65888 -1.64327 0
M  V30 4413 C 432.038 1.62818 -0.492383 0
M  V30 4414 O 433.223 1.80226 -0.723338 0
M  V30 4415 C 430.353 3.04506 -1.67013 0
M  V30 4416 C 429.307 3.2243 -2.81466 0
M  V30 4417 C 428.633 4.61972 -2.69233 0
M  V30 4418 C 429.933 3.06496 -4.22915 0
M  V30 4419 H 431.627 1.52421 -2.57698 0
M  V30 4420 H 429.173 0.731849 -1.24016 0
M  V30 4421 H 431.126 3.82391 -1.77074 0
M  V30 4422 H 429.85 3.18964 -0.70212 0
M  V30 4423 H 428.509 2.46957 -2.70938 0
M  V30 4424 H 428.157 4.73247 -1.7043 0
M  V30 4425 H 427.857 4.74911 -3.46025 0
M  V30 4426 H 429.381 5.41974 -2.81242 0
M  V30 4427 H 430.795 3.74186 -4.34348 0
M  V30 4428 H 429.192 3.30938 -5.006 0
M  V30 4429 H 430.262 2.03077 -4.40327 0
M  V30 4430 N 431.605 1.3629 0.791371 0
M  V30 4431 C 432.853 1.30154 1.5461 0
M  V30 4432 C 433.174 -0.119409 1.94634 0
M  V30 4433 O 432.444 -1.05924 1.64794 0
M  V30 4434 H 431.024 0.478784 0.573389 0
M  V30 4435 H 433.686 1.70565 0.94306 0
M  V30 4436 H 432.782 1.92762 2.45457 0
M  V30 4437 N 433.083 -1.0153 1.20538 0
M  V30 4438 C 434.332 -1.74558 1.01057 0
M  V30 4439 C 434.645 -1.90168 -0.457756 0
M  V30 4440 O 435.851 -2.60301 -0.771722 0
M  V30 4441 C 434.307 -3.13963 1.75941 0
M  V30 4442 C 433.915 -3.06361 3.26875 0
M  V30 4443 C 435.659 -3.91191 1.64832 0
M  V30 4444 C 433.566 -4.40782 3.94291 0
M  V30 4445 H 432.496 -0.654417 0.374505 0
M  V30 4446 H 435.147 -1.13521 1.44171 0
M  V30 4447 H 433.529 -3.75549 1.25614 0
M  V30 4448 H 434.703 -2.54074 3.84425 0
M  V30 4449 H 433.018 -2.42625 3.38411 0
M  V30 4450 H 435.615 -4.90644 2.12539 0
M  V30 4451 H 435.958 -4.11884 0.604745 0
M  V30 4452 H 436.491 -3.36236 2.12579 0
M  V30 4453 H 433.23 -4.25292 4.98805 0
M  V30 4454 H 432.75 -4.9307 3.41529 0
M  V30 4455 H 434.429 -5.09621 3.98617 0
M  V30 4456 N 434.561 -1.01147 -1.20859 0
M  V30 4457 C 435.809 -0.696486 -1.89719 0
M  V30 4458 C 436.13 0.775788 -1.78904 0
M  V30 4459 O 435.4 1.55759 -1.18811 0
M  V30 4460 H 433.98 -0.254628 -0.702263 0
M  V30 4461 H 436.642 -1.28197 -1.46804 0
M  V30 4462 H 435.738 -0.975357 -2.96468 0
M  V30 4463 N 436.039 1.36541 -0.78704 0
M  V30 4464 C 437.267 2.03561 -0.370199 0
M  V30 4465 C 437.682 1.59347 1.01263 0
M  V30 4466 O 437.039 0.781781 1.64907 0
M  V30 4467 C 437.09 3.59033 -0.421614 0
M  V30 4468 O 436.811 4.01634 -1.7499 0
M  V30 4469 C 438.312 4.433 0.00489763 0
M  V30 4470 H 435.532 0.653346 -0.152904 0
M  V30 4471 H 438.076 1.74566 -1.06522 0
M  V30 4472 H 436.231 3.86746 0.224971 0
M  V30 4473 H 436.645 4.96217 -1.69909 0
M  V30 4474 H 438.119 5.51939 -0.0822184 0
M  V30 4475 H 438.596 4.26285 1.05723 0
M  V30 4476 H 439.202 4.20843 -0.614085 0
M  V30 4477 N 437.518 0.538854 1.48102 0
M  V30 4478 C 438.795 -0.0568108 1.95517 0
M  V30 4479 C 439.175 -1.50408 1.48124 0
M  V30 4480 O 438.523 -2.17133 0.711727 0
M  V30 4481 C 438.733 0.0696262 3.48931 0
M  V30 4482 C 440.081 -0.0851202 4.24515 0
M  V30 4483 O 441.105 -0.0037347 3.562 0
M  V30 4484 O 439.964 -0.257025 5.45895 0
M  V30 4485 H 437.058 -0.0743695 0.823649 0
M  V30 4486 H 439.604 0.604081 1.58584 0
M  V30 4487 H 438.376 1.07744 3.76174 0
M  V30 4488 H 437.999 -0.629714 3.92582 0
M  V30 4489 N 438.996 -1.55193 0.274407 0
M  V30 4490 C 440.221 -2.04446 -0.348824 0
M  V30 4491 C 440.646 -1.15149 -1.48735 0
M  V30 4492 O 440.004 -0.149952 -1.80679 0
M  V30 4493 C 440.052 -3.51431 -0.808009 0
M  V30 4494 O 439.156 -3.65225 -1.91531 0
M  V30 4495 H 438.497 -0.66006 -0.0722276 0
M  V30 4496 H 441.027 -2.00481 0.408498 0
M  V30 4497 H 441.037 -3.92781 -1.10395 0
M  V30 4498 H 439.712 -4.15892 0.0249865 0
M  V30 4499 H 438.289 -3.35778 -1.62196 0
M  V30 4500 N 440.474 -0.00167713 -1.576 0
M  V30 4501 C 441.72 0.683832 -1.90923 0
M  V30 4502 C 442.053 1.7333 -0.875799 0
M  V30 4503 O 441.328 1.94215 0.10525 0
M  V30 4504 C 441.611 1.32543 -3.3482 0
M  V30 4505 C 441.464 0.287387 -4.48881 0
M  V30 4506 C 442.783 2.25114 -3.78169 0
M  V30 4507 H 439.902 0.247125 -0.694333 0
M  V30 4508 H 442.544 -0.0533149 -1.89925 0
M  V30 4509 H 440.694 1.95372 -3.35801 0
M  V30 4510 H 442.366 -0.341346 -4.60035 0
M  V30 4511 H 440.609 -0.39017 -4.32042 0
M  V30 4512 H 441.28 0.775393 -5.46527 0
M  V30 4513 H 443.756 1.723 -3.7875 0
M  V30 4514 H 442.632 2.66971 -4.79602 0
M  V30 4515 H 442.893 3.13092 -3.12131 0
M  V30 4516 N 441.952 1.55251 0.271103 0
M  V30 4517 C 443.201 1.75151 1.00025 0
M  V30 4518 C 443.514 0.561041 1.87381 0
M  V30 4519 O 444.72 0.642506 2.63788 0
M  V30 4520 C 443.176 3.09999 1.82835 0
M  V30 4521 C 442.784 4.3662 1.00336 0
M  V30 4522 C 444.528 3.39249 2.55168 0
M  V30 4523 C 442.435 5.62506 1.82595 0
M  V30 4524 H 441.365 0.652877 0.377183 0
M  V30 4525 H 444.016 1.81708 0.255843 0
M  V30 4526 H 442.398 2.97485 2.61378 0
M  V30 4527 H 443.572 4.60055 0.261959 0
M  V30 4528 H 441.887 4.14527 0.394486 0
M  V30 4529 H 444.484 4.3051 3.1712 0
M  V30 4530 H 444.827 2.59467 3.2555 0
M  V30 4531 H 445.36 3.52869 1.83653 0
M  V30 4532 H 442.099 6.45041 1.16631 0
M  V30 4533 H 441.619 5.43211 2.54327 0
M  V30 4534 H 443.298 6.00875 2.39913 0
M  V30 4535 N 443.43 -0.535701 1.48216 0
M  V30 4536 C 444.36 -1.65014 1.65204 0
M  V30 4537 C 445.341 -1.62554 0.501011 0
M  V30 4538 O 446.526 -1.7984 0.732886 0
M  V30 4539 C 443.656 -3.03616 1.68626 0
M  V30 4540 C 442.61 -3.20932 2.83172 0
M  V30 4541 C 441.936 -4.60537 2.71679 0
M  V30 4542 C 443.236 -3.04249 4.24535 0
M  V30 4543 H 444.93 -1.51053 2.58502 0
M  V30 4544 H 442.476 -0.725262 1.24402 0
M  V30 4545 H 444.429 -3.81446 1.79099 0
M  V30 4546 H 443.153 -3.18587 0.719026 0
M  V30 4547 H 441.812 -2.45517 2.72244 0
M  V30 4548 H 441.46 -4.72336 1.72937 0
M  V30 4549 H 441.16 -4.73069 3.48538 0
M  V30 4550 H 442.684 -5.40475 2.84112 0
M  V30 4551 H 444.098 -3.71877 4.36326 0
M  V30 4552 H 442.495 -3.28278 5.02348 0
M  V30 4553 H 443.565 -2.00739 4.41397 0
M  V30 4554 N 444.908 -1.36708 -0.784132 0
M  V30 4555 C 446.157 -1.30559 -1.53744 0
M  V30 4556 C 446.47 0.111374 -1.95283 0
M  V30 4557 O 447.676 0.29527 -2.6989 0
M  V30 4558 C 446.132 -2.29098 -2.77565 0
M  V30 4559 C 445.74 -3.76258 -2.43174 0
M  V30 4560 C 447.484 -2.31936 -3.55536 0
M  V30 4561 C 445.391 -4.6656 -3.63422 0
M  V30 4562 H 444.321 -0.48518 -0.577162 0
M  V30 4563 H 446.972 -1.62101 -0.859981 0
M  V30 4564 H 445.354 -1.90557 -3.47137 0
M  V30 4565 H 446.528 -4.23565 -1.81465 0
M  V30 4566 H 444.843 -3.76246 -1.78403 0
M  V30 4567 H 447.44 -2.9661 -4.44889 0
M  V30 4568 H 447.783 -1.3294 -3.94503 0
M  V30 4569 H 448.316 -2.6912 -2.92949 0
M  V30 4570 H 445.055 -5.66638 -3.29547 0
M  V30 4571 H 444.575 -4.23966 -4.24279 0
M  V30 4572 H 446.254 -4.8309 -4.30387 0
M  V30 4573 N 446.386 1.0089 -1.21074 0
M  V30 4574 C 447.333 2.09588 -0.966512 0
M  V30 4575 C 448.303 1.65761 0.106089 0
M  V30 4576 O 449.488 1.90758 -0.0402287 0
M  V30 4577 C 446.628 3.40958 -0.533058 0
M  V30 4578 C 445.741 3.9822 -1.67467 0
M  V30 4579 C 444.876 5.17682 -1.19076 0
M  V30 4580 C 443.915 5.67043 -2.30496 0
M  V30 4581 N 443.052 6.77759 -1.83267 0
M  V30 4582 H 447.892 2.29815 -1.89708 0
M  V30 4583 H 445.429 1.12689 -0.945489 0
M  V30 4584 H 447.387 4.1637 -0.263019 0
M  V30 4585 H 446.017 3.20781 0.360505 0
M  V30 4586 H 445.069 3.1983 -2.05944 0
M  V30 4587 H 446.381 4.3085 -2.51336 0
M  V30 4588 H 445.535 6.00326 -0.877151 0
M  V30 4589 H 444.274 4.86635 -0.322066 0
M  V30 4590 H 443.279 4.82999 -2.62664 0
M  V30 4591 H 444.504 6.00121 -3.17855 0
M  V30 4592 H 442.45 6.48527 -0.987356 0
M  V30 4593 H 442.367 7.09624 -2.60711 0
M  V30 4594 H 443.635 7.63949 -1.54928 0
M  V30 4595 N 447.864 1.01787 1.20321 0
M  V30 4596 C 449.104 0.716493 1.91431 0
M  V30 4597 C 449.468 -0.740352 1.77152 0
M  V30 4598 O 450.669 -1.1543 2.42754 0
M  V30 4599 C 448.94 1.14169 3.38674 0
M  V30 4600 S 450.499 0.962482 4.28114 0
M  V30 4601 H 447.317 0.261175 0.661293 0
M  V30 4602 H 449.919 1.30539 1.45533 0
M  V30 4603 H 448.623 2.19784 3.46588 0
M  V30 4604 H 448.154 0.545621 3.89598 0
M  V30 4605 H 450.169 -0.133253 4.96021 0
M  V30 4606 N 449.342 -1.36122 0.79427 0
M  V30 4607 C 450.619 -1.93398 0.292685 0
M  V30 4608 C 450.999 -1.72567 -1.21589 0
M  V30 4609 O 450.347 -1.08745 -2.00965 0
M  V30 4610 C 450.557 -3.42099 0.690614 0
M  V30 4611 C 451.905 -4.19231 0.673105 0
M  V30 4612 O 452.929 -3.50559 0.631389 0
M  V30 4613 O 451.788 -5.41732 0.720362 0
M  V30 4614 H 448.882 -0.823712 0.0736693 0
M  V30 4615 H 451.428 -1.45273 0.87714 0
M  V30 4616 H 450.2 -3.50938 1.73085 0
M  V30 4617 H 449.823 -3.97519 0.0803036 0
M  V30 4618 N 450.82 -0.546701 -1.47814 0
M  V30 4619 C 451.73 0.21026 -2.33656 0
M  V30 4620 C 452.746 0.922413 -1.47538 0
M  V30 4621 O 453.922 0.893652 -1.80488 0
M  V30 4622 C 450.987 1.23348 -3.24016 0
M  V30 4623 C 450.048 0.529883 -4.26017 0
M  V30 4624 C 449.281 1.50435 -5.12059 0
M  V30 4625 O 449.504 2.73837 -5.00369 0
M  V30 4626 O 448.438 1.03459 -5.92942 0
M  V30 4627 H 452.264 -0.493605 -2.99662 0
M  V30 4628 H 449.849 -0.307427 -1.46203 0
M  V30 4629 H 451.731 1.82438 -3.79861 0
M  V30 4630 H 450.406 1.91945 -2.60651 0
M  V30 4631 H 449.313 -0.101948 -3.73961 0
M  V30 4632 H 450.646 -0.11445 -4.92067 0
M  V30 4633 N 452.299 1.55045 -0.282633 0
M  V30 4634 C 453.715 1.59441 0.0712997 0
M  V30 4635 C 453.915 1.2998 1.53972 0
M  V30 4636 O 452.971 1.06431 2.28973 0
M  V30 4637 C 454.284 2.99097 -0.310104 0
M  V30 4638 C 455.832 3.1194 -0.257343 0
M  V30 4639 C 456.307 4.53875 -0.613297 0
M  V30 4640 N 457.798 4.5974 -0.565134 0
M  V30 4641 C 458.533 5.67603 -0.81326 0
M  V30 4642 N 458.029 6.83582 -1.1264 0
M  V30 4643 N 459.822 5.57187 -0.741553 0
M  V30 4644 H 451.973 1.72458 -1.23984 0
M  V30 4645 H 454.236 0.804549 -0.501403 0
M  V30 4646 H 453.942 3.25516 -1.33163 0
M  V30 4647 H 453.816 3.75616 0.345366 0
M  V30 4648 H 456.203 2.85281 0.754905 0
M  V30 4649 H 456.284 2.37618 -0.947178 0
M  V30 4650 H 455.928 4.81261 -1.62327 0
M  V30 4651 H 455.858 5.26508 0.09841 0
M  V30 4652 H 458.349 3.76427 -0.333294 0
M  V30 4653 H 458.662 7.6175 -1.30219 0
M  V30 4654 H 457.007 6.85179 -1.16425 0
M  V30 4655 H 460.198 4.65457 -0.496705 0
M  V30 4656 H 460.371 6.41171 -0.938306 0
M  V30 4657 N 453.777 0.010035 1.57597 0
M  V30 4658 C 455.025 -0.671371 1.90623 0
M  V30 4659 C 455.346 -1.73753 0.885151 0
M  V30 4660 O 454.616 -1.95752 -0.0760611 0
M  V30 4661 H 453.196 -0.250968 0.703579 0
M  V30 4662 H 455.858 0.0533325 1.94827 0
M  V30 4663 H 454.954 -1.13626 2.90681 0
M  V30 4664 N 455.255 -1.55392 -0.262866 0
M  V30 4665 C 456.202 -1.88966 -1.32516 0
M  V30 4666 C 457.172 -0.742187 -1.48596 0
M  V30 4667 O 458.357 -0.99439 -1.62839 0
M  V30 4668 C 455.497 -2.17592 -2.67858 0
M  V30 4669 C 454.61 -3.45061 -2.59917 0
M  V30 4670 C 453.745 -3.63336 -3.87505 0
M  V30 4671 C 452.784 -4.84462 -3.74116 0
M  V30 4672 N 451.921 -4.99342 -4.93561 0
M  V30 4673 H 456.761 -2.79566 -1.03184 0
M  V30 4674 H 454.298 -1.38404 -0.498285 0
M  V30 4675 H 456.256 -2.3219 -3.46617 0
M  V30 4676 H 454.886 -1.30215 -2.95371 0
M  V30 4677 H 453.938 -3.38881 -1.72812 0
M  V30 4678 H 455.25 -4.3396 -2.45926 0
M  V30 4679 H 454.404 -3.77807 -4.74707 0
M  V30 4680 H 453.143 -2.72641 -4.04374 0
M  V30 4681 H 452.148 -4.69985 -2.85297 0
M  V30 4682 H 453.373 -5.76603 -3.58757 0
M  V30 4683 H 451.319 -4.1158 -5.10821 0
M  V30 4684 H 451.236 -5.82303 -4.82141 0
M  V30 4685 H 452.504 -5.18208 -5.82306 0
M  V30 4686 N 456.733 0.527833 -1.48498 0
M  V30 4687 C 457.666 1.64892 -1.57753 0
M  V30 4688 C 458.644 1.5687 -0.427867 0
M  V30 4689 O 459.828 1.77311 -0.639764 0
M  V30 4690 C 456.955 3.03301 -1.50752 0
M  V30 4691 C 456.001 3.29675 -2.70586 0
M  V30 4692 S 456.834 3.15712 -4.32535 0
M  V30 4693 C 457.99 4.56564 -4.28136 0
M  V30 4694 H 458.223 1.56792 -2.52594 0
M  V30 4695 H 455.756 0.710959 -1.37057 0
M  V30 4696 H 457.714 3.83123 -1.474 0
M  V30 4697 H 456.375 3.08839 -0.572454 0
M  V30 4698 H 455.568 4.3065 -2.61833 0
M  V30 4699 H 455.17 2.57526 -2.71212 0
M  V30 4700 H 457.462 5.48126 -3.98201 0
M  V30 4701 H 458.405 4.70371 -5.29298 0
M  V30 4702 H 458.813 4.35987 -3.58574 0
M  V30 4703 N 458.211 1.37122 0.776871 0
M  V30 4704 C 459.46 1.31373 1.53049 0
M  V30 4705 C 459.773 -0.101016 1.95339 0
M  V30 4706 O 460.979 -0.280953 2.70042 0
M  V30 4707 C 459.435 2.30567 2.76346 0
M  V30 4708 C 459.043 3.77543 2.41175 0
M  V30 4709 C 460.787 2.33818 3.54301 0
M  V30 4710 C 458.694 4.68481 3.60943 0
M  V30 4711 H 457.624 0.488234 0.574581 0
M  V30 4712 H 460.275 1.62554 0.851372 0
M  V30 4713 H 458.657 1.92396 3.46121 0
M  V30 4714 H 459.831 4.24521 1.79216 0
M  V30 4715 H 458.146 3.77187 1.76405 0
M  V30 4716 H 460.743 2.98965 4.4331 0
M  V30 4717 H 461.086 1.3503 3.93793 0
M  V30 4718 H 461.619 2.7067 2.91518 0
M  V30 4719 H 458.358 5.68378 3.26537 0
M  V30 4720 H 457.878 4.2621 4.22025 0
M  V30 4721 H 459.557 4.85366 4.27819 0
M  V30 4722 N 459.689 -1.00246 1.21608 0
M  V30 4723 C 461.1 -1.55511 1.03312 0
M  V30 4724 C 461.451 -1.91946 -0.406332 0
M  V30 4725 O 460.576 -1.73753 -1.28992 0
M  V30 4726 C 461.171 -2.82576 1.86913 0
M  V30 4727 C 459.73 -3.34318 1.72941 0
M  V30 4728 C 458.877 -2.07487 1.83968 0
M  V30 4729 H 461.828 -0.824638 1.35593 0
M  V30 4730 H 461.849 -3.54559 1.38087 0
M  V30 4731 H 461.361 -2.56026 2.91672 0
M  V30 4732 H 459.462 -3.65797 0.70877 0
M  V30 4733 H 459.575 -4.05566 2.55055 0
M  V30 4734 H 457.939 -2.20603 1.27304 0
M  V30 4735 H 458.722 -1.83346 2.9024 0
M  V30 4736 N 461.167 -1.02423 -1.1978 0
M  V30 4737 C 462.392 -0.7373 -1.93852 0
M  V30 4738 C 462.817 0.696923 -1.74713 0
M  V30 4739 O 462.175 1.48056 -1.04638 0
M  V30 4740 C 462.223 -1.08783 -3.438 0
M  V30 4741 O 461.327 -0.20383 -4.11896 0
M  V30 4742 H 460.668 -0.27284 -0.605355 0
M  V30 4743 H 463.198 -1.36966 -1.51992 0
M  V30 4744 H 463.208 -1.04276 -3.9445 0
M  V30 4745 H 461.883 -2.13274 -3.57053 0
M  V30 4746 H 460.46 -0.307091 -3.71633 0
M  V30 4747 N 462.645 1.35699 -0.801477 0
M  V30 4748 C 463.922 1.9324 -0.302937 0
M  V30 4749 C 464.302 1.73209 1.20672 0
M  V30 4750 O 463.65 1.09809 2.00385 0
M  V30 4751 C 463.86 3.41728 -0.708747 0
M  V30 4752 C 465.208 4.18868 -0.695328 0
M  V30 4753 O 466.232 3.5022 -0.649971 0
M  V30 4754 O 465.091 5.41342 -0.749081 0
M  V30 4755 H 462.185 0.82331 -0.0780367 0
M  V30 4756 H 464.731 1.44806 -0.884832 0
M  V30 4757 H 463.503 3.50015 -1.74944 0
M  V30 4758 H 463.126 3.97471 -0.101384 0
M  V30 4759 N 464.123 0.554532 1.47522 0
M  V30 4760 C 465.053 -0.182974 2.32782 0
M  V30 4761 C 466.034 -0.911377 1.43624 0
M  V30 4762 O 467.219 -0.892366 1.72483 0
M  V30 4763 C 464.349 -1.21513 3.25349 0
M  V30 4764 C 463.303 -0.603355 4.23726 0
M  V30 4765 C 462.629 -1.73995 5.05598 0
M  V30 4766 C 463.929 0.441121 5.20434 0
M  V30 4767 H 465.623 0.52882 2.94693 0
M  V30 4768 H 463.169 0.255759 1.41711 0
M  V30 4769 H 465.122 -1.73922 3.83835 0
M  V30 4770 H 463.846 -1.95683 2.61487 0
M  V30 4771 H 462.505 -0.10059 3.66462 0
M  V30 4772 H 462.153 -2.47063 4.38143 0
M  V30 4773 H 461.853 -1.3364 5.72201 0
M  V30 4774 H 463.377 -2.26735 5.66942 0
M  V30 4775 H 464.791 0.00319931 5.733 0
M  V30 4776 H 463.188 0.763402 5.95224 0
M  V30 4777 H 464.258 1.33799 4.66075 0
M  V30 4778 N 465.601 -1.54893 0.290851 0
M  V30 4779 C 466.511 -2.26812 -0.59945 0
M  V30 4780 C 467.527 -1.29963 -1.15696 0
M  V30 4781 O 468.703 -1.62928 -1.18391 0
M  V30 4782 C 465.768 -2.98716 -1.75982 0
M  V30 4783 C 464.829 -4.1108 -1.2374 0
M  V30 4784 C 464.062 -4.79546 -2.34246 0
M  V30 4785 O 464.285 -4.47309 -3.53936 0
M  V30 4786 O 463.219 -5.67165 -2.01512 0
M  V30 4787 H 467.045 -3.03696 -0.0163561 0
M  V30 4788 H 464.63 -1.49289 0.0576755 0
M  V30 4789 H 466.512 -3.43851 -2.43607 0
M  V30 4790 H 465.187 -2.24737 -2.3297 0
M  V30 4791 H 464.094 -3.70367 -0.527163 0
M  V30 4792 H 465.427 -4.87007 -0.71307 0
M  V30 4793 N 467.08 -0.0183926 -1.57589 0
M  V30 4794 C 468.496 0.337897 -1.55982 0
M  V30 4795 C 468.696 1.73604 -1.02294 0
M  V30 4796 O 467.752 2.43589 -0.664895 0
M  V30 4797 C 469.065 0.196305 -3.00059 0
M  V30 4798 C 470.613 0.269875 -3.11834 0
M  V30 4799 C 471.088 0.157197 -4.5773 0
M  V30 4800 N 472.579 0.214521 -4.62703 0
M  V30 4801 C 473.314 0.150955 -5.73201 0
M  V30 4802 N 472.81 0.0369212 -6.9279 0
M  V30 4803 N 474.603 0.204162 -5.61729 0
M  V30 4804 H 466.754 -0.93279 -1.90821 0
M  V30 4805 H 469.017 -0.359253 -0.877292 0
M  V30 4806 H 468.723 -0.766383 -3.43248 0
M  V30 4807 H 468.597 0.970908 -3.6449 0
M  V30 4808 H 470.984 1.22302 -2.68563 0
M  V30 4809 H 471.065 -0.534918 -2.50144 0
M  V30 4810 H 470.709 -0.792479 -5.01679 0
M  V30 4811 H 470.639 0.980717 -5.17387 0
M  V30 4812 H 473.13 0.303238 -3.76681 0
M  V30 4813 H 473.443 -0.00518321 -7.728 0
M  V30 4814 H 471.788 0.0022886 -6.95 0
M  V30 4815 H 474.979 0.291575 -4.67191 0
M  V30 4816 H 475.152 0.15116 -6.47824 0
M  V30 4817 N 468.558 1.5553 0.254621 0
M  V30 4818 C 469.974 1.4778 0.602753 0
M  V30 4819 C 470.174 0.707047 1.88688 0
M  V30 4820 O 469.23 0.233288 2.5142 0
M  V30 4821 C 470.543 2.92133 0.712648 0
M  V30 4822 C 472.091 3.02458 0.805488 0
M  V30 4823 C 472.566 4.48102 0.947009 0
M  V30 4824 N 474.057 4.52008 1.01207 0
M  V30 4825 C 474.792 5.61939 1.1407 0
M  V30 4826 N 474.288 6.81697 1.23536 0
M  V30 4827 N 476.081 5.49719 1.17325 0
M  V30 4828 H 468.232 2.04085 -0.588463 0
M  V30 4829 H 470.495 0.926229 -0.202001 0
M  V30 4830 H 470.201 3.51332 -0.160766 0
M  V30 4831 H 470.075 3.42187 1.58707 0
M  V30 4832 H 472.462 2.43344 1.66936 0
M  V30 4833 H 472.543 2.55627 -0.0939266 0
M  V30 4834 H 472.187 5.07824 0.087725 0
M  V30 4835 H 472.117 4.92607 1.86135 0
M  V30 4836 H 474.608 3.65749 0.950577 0
M  V30 4837 H 474.921 7.61228 1.33236 0
M  V30 4838 H 473.266 6.84473 1.20508 0
M  V30 4839 H 476.457 4.55095 1.09573 0
M  V30 4840 H 476.63 6.35432 1.27005 0
M  V30 4841 N 470.036 -0.519951 1.48776 0
M  V30 4842 C 471.285 -1.27175 1.56555 0
M  V30 4843 C 471.598 -1.9401 0.248869 0
M  V30 4844 O 472.804 -2.70725 0.205004 0
M  V30 4845 C 471.26 -2.30811 2.76142 0
M  V30 4846 C 470.868 -1.7 4.14493 0
M  V30 4847 C 472.612 -3.06937 2.9324 0
M  V30 4848 C 470.519 -2.71635 5.25327 0
M  V30 4849 H 469.449 -0.478329 0.582853 0
M  V30 4850 H 472.1 -0.547916 1.75129 0
M  V30 4851 H 470.482 -3.06274 2.51023 0
M  V30 4852 H 471.656 -1.00658 4.49672 0
M  V30 4853 H 469.971 -1.06331 4.02595 0
M  V30 4854 H 472.568 -3.82905 3.73213 0
M  V30 4855 H 472.911 -3.63409 2.03075 0
M  V30 4856 H 473.444 -2.38589 3.18308 0
M  V30 4857 H 470.183 -2.1997 6.1749 0
M  V30 4858 H 469.703 -3.39275 4.94624 0
M  V30 4859 H 471.382 -3.34429 5.53865 0
M  V30 4860 N 471.514 -1.37532 -0.769588 0
M  V30 4861 C 472.444 -1.36172 -1.89682 0
M  V30 4862 C 473.425 -0.23001 -1.68538 0
M  V30 4863 O 474.61 -0.43069 -1.89364 0
M  V30 4864 C 471.74 -1.1701 -3.26995 0
M  V30 4865 C 470.694 -2.27216 -3.62708 0
M  V30 4866 C 470.02 -1.93174 -4.98586 0
M  V30 4867 C 471.32 -3.6941 -3.69234 0
M  V30 4868 H 473.014 -2.30499 -1.91078 0
M  V30 4869 H 470.56 -1.10953 -0.917902 0
M  V30 4870 H 472.513 -1.14688 -4.05493 0
M  V30 4871 H 471.237 -0.191395 -3.26039 0
M  V30 4872 H 469.896 -2.28697 -2.86519 0
M  V30 4873 H 469.544 -0.938281 -4.94171 0
M  V30 4874 H 469.244 -2.66973 -5.23449 0
M  V30 4875 H 470.768 -1.92443 -5.79481 0
M  V30 4876 H 472.182 -3.70047 -4.37879 0
M  V30 4877 H 470.579 -4.4228 -4.05597 0
M  V30 4878 H 471.649 -4.0288 -2.69844 0
M  V30 4879 N 472.992 0.995999 -1.22138 0
M  V30 4880 C 473.902 2.11985 -1.00496 0
M  V30 4881 C 474.918 1.7394 0.0457701 0
M  V30 4882 O 476.094 2.00868 -0.146273 0
M  V30 4883 C 473.159 3.41779 -0.582086 0
M  V30 4884 C 472.22 3.93943 -1.70608 0
M  V30 4885 C 471.453 5.17542 -1.30328 0
M  V30 4886 O 471.676 5.70114 -0.180743 0
M  V30 4887 O 470.61 5.63382 -2.11861 0
M  V30 4888 H 474.436 2.33123 -1.94647 0
M  V30 4889 H 472.021 1.10358 -1.00705 0
M  V30 4890 H 473.903 4.1989 -0.356467 0
M  V30 4891 H 472.578 3.22007 0.330592 0
M  V30 4892 H 471.485 3.17019 -1.98619 0
M  V30 4893 H 472.818 4.18141 -2.59651 0
M  V30 4894 N 474.47 1.03057 1.19235 0
M  V30 4895 C 475.433 0.617418 2.20727 0
M  V30 4896 C 476.433 -0.319856 1.57587 0
M  V30 4897 O 477.623 -0.106633 1.73873 0
M  V30 4898 C 474.755 -0.096296 3.40764 0
M  V30 4899 H 475.948 1.51544 2.58794 0
M  V30 4900 H 473.501 0.821949 1.32942 0
M  V30 4901 H 474.236 -1.00859 3.08217 0
M  V30 4902 H 474.021 0.577217 3.87828 0
M  V30 4903 H 475.511 -0.372219 4.15938 0
M  V30 4904 N 475.948 -1.35272 0.808662 0
M  V30 4905 C 476.895 -2.29764 0.218482 0
M  V30 4906 C 477.865 -1.52911 -0.648652 0
M  V30 4907 O 479.05 -1.81341 -0.593297 0
M  V30 4908 C 476.19 -3.39388 -0.625282 0
M  V30 4909 C 475.303 -4.31202 0.262516 0
M  V30 4910 C 474.438 -5.27919 -0.589451 0
M  V30 4911 C 473.477 -6.11371 0.298617 0
M  V30 4912 N 472.614 -7.0022 -0.513443 0
M  V30 4913 H 477.454 -2.79645 1.02968 0
M  V30 4914 H 474.991 -1.37629 0.519303 0
M  V30 4915 H 476.949 -4.01615 -1.12966 0
M  V30 4916 H 475.579 -2.90777 -1.40173 0
M  V30 4917 H 474.631 -3.69962 0.885013 0
M  V30 4918 H 475.943 -4.89748 0.945971 0
M  V30 4919 H 475.097 -5.95529 -1.15888 0
M  V30 4920 H 473.836 -4.69875 -1.30647 0
M  V30 4921 H 472.841 -5.42707 0.880301 0
M  V30 4922 H 474.066 -6.71494 1.01352 0
M  V30 4923 H 472.012 -6.44662 -1.21439 0
M  V30 4924 H 471.929 -7.55917 0.111922 0
M  V30 4925 H 473.197 -7.72175 -1.06608 0
M  V30 4926 N 477.426 -0.562348 -1.47226 0
M  V30 4927 C 478.358 0.220011 -2.28142 0
M  V30 4928 C 479.371 0.874596 -1.37312 0
M  V30 4929 O 480.56 0.747583 -1.62091 0
M  V30 4930 C 477.66 1.32953 -3.11732 0
M  V30 4931 C 476.833 0.770759 -4.30556 0
M  V30 4932 C 475.892 1.76541 -4.95701 0
M  V30 4933 O 474.918 1.3095 -5.53932 0
M  V30 4934 N 476.12 3.09896 -4.90861 0
M  V30 4935 H 478.885 -0.474107 -2.95926 0
M  V30 4936 H 476.446 -0.398761 -1.56912 0
M  V30 4937 H 478.438 1.99378 -3.5218 0
M  V30 4938 H 477.008 1.92681 -2.46156 0
M  V30 4939 H 476.228 -0.0704056 -3.94137 0
M  V30 4940 H 477.516 0.376872 -5.07402 0
M  V30 4941 H 476.914 3.49577 -4.44761 0
M  V30 4942 H 475.471 3.71865 -5.35313 0
M  V30 4943 N 478.904 1.54736 -0.299062 0
M  V30 4944 C 479.851 2.23448 0.577899 0
M  V30 4945 C 480.821 1.21637 1.13109 0
M  V30 4946 O 482.006 1.50252 1.17597 0
M  V30 4947 C 479.146 2.9774 1.74484 0
M  V30 4948 C 478.259 4.1432 1.22323 0
M  V30 4949 C 477.394 4.76199 2.35388 0
M  V30 4950 C 476.433 5.84927 1.80351 0
M  V30 4951 N 475.57 6.4077 2.86982 0
M  V30 4952 H 480.41 2.97996 -0.0146545 0
M  V30 4953 H 477.947 1.47088 -0.0190013 0
M  V30 4954 H 479.905 3.39045 2.43114 0
M  V30 4955 H 478.535 2.25572 2.30905 0
M  V30 4956 H 477.587 3.7797 0.429249 0
M  V30 4957 H 478.899 4.92659 0.780309 0
M  V30 4958 H 478.053 5.20346 3.11969 0
M  V30 4959 H 476.792 3.97188 2.83006 0
M  V30 4960 H 475.797 5.40207 1.02259 0
M  V30 4961 H 477.022 6.65821 1.3364 0
M  V30 4962 H 474.968 5.64643 3.33938 0
M  V30 4963 H 474.885 7.1445 2.4718 0
M  V30 4964 H 476.153 6.89574 3.63466 0
M  V30 4965 N 480.382 0.0267497 1.57577 0
M  V30 4966 C 481.63 -0.651116 1.91324 0
M  V30 4967 C 481.951 -1.72804 0.90353 0
M  V30 4968 O 481.221 -1.95822 -0.0552946 0
M  V30 4969 H 479.801 -0.243491 0.706202 0
M  V30 4970 H 482.463 0.0739935 1.94759 0
M  V30 4971 H 481.559 -1.10536 2.9187 0
M  V30 4972 N 481.861 -1.55662 -0.24637 0
M  V30 4973 C 483.108 -1.77519 -0.974335 0
M  V30 4974 C 483.436 -0.591165 -1.85298 0
M  V30 4975 O 482.691 0.425497 -1.91018 0
M  V30 4976 C 482.99 -3.04885 -1.86494 0
M  V30 4977 C 482.656 -4.36209 -1.14161 0
M  V30 4978 C 481.318 -4.71896 -0.941701 0
M  V30 4979 C 483.67 -5.17391 -0.628957 0
M  V30 4980 C 480.998 -5.86299 -0.216852 0
M  V30 4981 C 483.35 -6.32546 0.0824273 0
M  V30 4982 C 482.014 -6.66853 0.293807 0
M  V30 4983 H 481.284 -0.649588 -0.356535 0
M  V30 4984 H 483.931 -1.89934 -0.244394 0
M  V30 4985 H 482.236 -2.87484 -2.66196 0
M  V30 4986 H 483.933 -3.18994 -2.42989 0
M  V30 4987 H 480.523 -4.08174 -1.30736 0
M  V30 4988 H 484.707 -4.90276 -0.770943 0
M  V30 4989 H 479.963 -6.11385 -0.0426124 0
M  V30 4990 H 484.137 -6.94693 0.487292 0
M  V30 4991 H 481.764 -7.55349 0.857428 0
M  V30 4992 N 483.339 0.512053 -1.4905 0
M  V30 4993 C 484.585 1.26874 -1.58212 0
M  V30 4994 C 484.918 1.9241 -0.263073 0
M  V30 4995 O 484.193 1.80181 0.732476 0
M  V30 4996 C 484.476 2.34428 -2.73341 0
M  V30 4997 C 484.329 1.73466 -4.15006 0
M  V30 4998 C 485.648 3.36073 -2.84154 0
M  V30 4999 H 482.767 0.459924 -0.575881 0
M  V30 5000 H 485.409 0.568587 -1.81293 0
M  V30 5001 H 483.559 2.94146 -2.53792 0
M  V30 5002 H 485.231 1.17661 -4.46042 0
M  V30 5003 H 483.474 1.03921 -4.21168 0
M  V30 5004 H 484.145 2.51426 -4.91415 0
M  V30 5005 H 486.621 2.86332 -3.01916 0
M  V30 5006 H 485.497 4.08703 -3.66406 0
M  V30 5007 H 485.758 3.97725 -1.93048 0
M  V30 5008 N 484.817 1.37938 0.762283 0
M  V30 5009 C 486.228 1.30094 1.33912 0
M  V30 5010 C 486.579 -0.0472026 1.96143 0
M  V30 5011 O 485.704 -0.94917 1.94473 0
M  V30 5012 C 486.299 2.35592 2.43478 0
M  V30 5013 C 484.858 2.31353 2.96905 0
M  V30 5014 C 484.005 2.18919 1.70205 0
M  V30 5015 H 486.956 1.48423 0.561816 0
M  V30 5016 H 486.977 2.00806 3.23199 0
M  V30 5017 H 486.489 3.33701 1.98155 0
M  V30 5018 H 484.59 1.36799 3.46579 0
M  V30 5019 H 484.703 3.25147 3.51875 0
M  V30 5020 H 483.067 1.65624 1.93496 0
M  V30 5021 H 483.85 3.18956 1.26973 0
M  V30 5022 N 486.295 -0.989507 1.22664 0
M  V30 5023 C 487.542 -1.72953 1.05325 0
M  V30 5024 C 487.87 -1.90104 -0.411168 0
M  V30 5025 O 487.125 -1.44386 -1.32103 0
M  V30 5026 C 487.424 -3.13649 1.71345 0
M  V30 5027 C 487.09 -3.16403 3.21248 0
M  V30 5028 C 485.752 -3.16862 3.62149 0
M  V30 5029 C 488.104 -3.12428 4.17179 0
M  V30 5030 C 485.432 -3.11051 4.97458 0
M  V30 5031 C 487.784 -3.08159 5.52468 0
M  V30 5032 C 486.448 -3.06935 5.92746 0
M  V30 5033 H 485.718 -0.632881 0.385412 0
M  V30 5034 H 488.365 -1.15863 1.52473 0
M  V30 5035 H 486.67 -3.74069 1.16532 0
M  V30 5036 H 488.367 -3.69658 1.55416 0
M  V30 5037 H 484.957 -3.16798 2.88682 0
M  V30 5038 H 489.141 -3.11221 3.86595 0
M  V30 5039 H 484.397 -3.0845 5.27891 0
M  V30 5040 H 488.571 -3.04039 6.26525 0
M  V30 5041 H 486.198 -3.02186 6.97558 0
M  V30 5042 N 487.773 -1.03688 -1.18687 0
M  V30 5043 C 488.703 -0.645407 -2.24403 0
M  V30 5044 C 489.684 0.349511 -1.66471 0
M  V30 5045 O 490.869 0.230453 -1.92828 0
M  V30 5046 C 487.999 -0.00365337 -3.473 0
M  V30 5047 C 486.953 -0.921705 -4.17958 0
M  V30 5048 C 486.279 -0.144629 -5.34504 0
M  V30 5049 C 487.579 -2.23909 -4.71871 0
M  V30 5050 H 489.273 -1.52917 -2.57404 0
M  V30 5051 H 486.819 -0.736711 -1.23728 0
M  V30 5052 H 488.772 0.281908 -4.20456 0
M  V30 5053 H 487.496 0.914963 -3.13522 0
M  V30 5054 H 486.155 -1.19159 -3.46694 0
M  V30 5055 H 485.803 0.776274 -4.96974 0
M  V30 5056 H 485.503 -0.756206 -5.82714 0
M  V30 5057 H 487.027 0.134004 -6.10453 0
M  V30 5058 H 488.441 -2.0145 -5.36741 0
M  V30 5059 H 486.838 -2.8033 -5.30599 0
M  V30 5060 H 487.908 -2.88822 -3.895 0
M  V30 5061 N 489.251 1.34841 -0.815825 0
M  V30 5062 C 490.497 1.98793 -0.401129 0
M  V30 5063 C 490.83 1.64548 1.03139 0
M  V30 5064 O 490.105 0.913487 1.71714 0
M  V30 5065 C 490.388 3.55143 -0.595409 0
M  V30 5066 C 490.241 3.99155 -2.07352 0
M  V30 5067 C 491.56 4.40092 -0.0268823 0
M  V30 5068 H 488.679 0.722146 -0.14722 0
M  V30 5069 H 491.321 1.59847 -1.02707 0
M  V30 5070 H 489.471 3.8845 -0.0625779 0
M  V30 5071 H 491.143 3.76216 -2.66945 0
M  V30 5072 H 489.386 3.49726 -2.56659 0
M  V30 5073 H 490.057 5.07971 -2.1603 0
M  V30 5074 H 492.533 4.13298 -0.482042 0
M  V30 5075 H 491.409 5.48562 -0.19267 0
M  V30 5076 H 491.67 4.29016 1.06759 0
M  V30 5077 N 490.729 0.570148 1.46925 0
M  V30 5078 C 491.954 0.0542592 2.07329 0
M  V30 5079 C 492.379 -1.23582 1.41806 0
M  V30 5080 O 491.737 -1.74341 0.497479 0
M  V30 5081 C 491.785 -0.111175 3.60429 0
M  V30 5082 O 490.889 -1.17071 3.95434 0
M  V30 5083 H 490.23 0.0571425 0.661537 0
M  V30 5084 H 492.76 0.789516 1.88753 0
M  V30 5085 H 492.77 -0.321315 4.06733 0
M  V30 5086 H 491.445 0.831012 4.07513 0
M  V30 5087 H 490.022 -0.940029 3.60857 0
M  V30 5088 N 492.207 -1.54576 0.307264 0
M  V30 5089 C 493.17 -2.22423 -0.553224 0
M  V30 5090 C 494.17 -1.21231 -1.05639 0
M  V30 5091 O 495.36 -1.45923 -0.951419 0
M  V30 5092 C 492.492 -2.91552 -1.76664 0
M  V30 5093 H 493.685 -2.99874 0.0396484 0
M  V30 5094 H 491.238 -1.56192 0.0581629 0
M  V30 5095 H 491.973 -2.18196 -2.39918 0
M  V30 5096 H 491.758 -3.65738 -1.41343 0
M  V30 5097 H 493.248 -3.43292 -2.37783 0
M  V30 5098 N 493.685 -0.035106 -1.57561 0
M  V30 5099 C 494.913 0.652258 -1.9635 0
M  V30 5100 C 495.328 1.65317 -0.911897 0
M  V30 5101 O 494.685 1.82194 0.105657 0
M  V30 5102 C 494.736 1.35337 -3.35211 0
M  V30 5103 O 494.457 0.392548 -4.36338 0
M  V30 5104 C 495.958 2.13199 -3.88666 0
M  V30 5105 H 493.178 0.179444 -0.646561 0
M  V30 5106 H 495.722 -0.0966459 -2.04271 0
M  V30 5107 H 493.877 2.05362 -3.28489 0
M  V30 5108 H 494.291 0.891097 -5.16875 0
M  V30 5109 H 495.765 2.577 -4.88154 0
M  V30 5110 H 496.242 2.97353 -3.23231 0
M  V30 5111 H 496.848 1.48118 -3.98674 0
M  V30 5112 N 495.163 1.55791 0.238111 0
M  V30 5113 C 496.126 1.90239 1.27835 0
M  V30 5114 C 497.126 0.779552 1.4064 0
M  V30 5115 O 498.316 1.04747 1.3919 0
M  V30 5116 C 495.448 2.13859 2.65475 0
M  V30 5117 H 496.641 2.83262 0.985034 0
M  V30 5118 H 494.194 1.48818 0.477799 0
M  V30 5119 H 494.929 1.23334 2.99932 0
M  V30 5120 H 494.714 2.95643 2.57561 0
M  V30 5121 H 496.204 2.41664 3.40571 0
M  V30 5122 N 496.642 -0.504142 1.49319 0
M  V30 5123 C 497.89 -1.25598 1.58334 0
M  V30 5124 C 498.211 -1.93114 0.270538 0
M  V30 5125 O 497.481 -1.82585 -0.709891 0
M  V30 5126 H 496.061 -0.466571 0.58337 0
M  V30 5127 H 498.723 -0.584547 1.85928 0
M  V30 5128 H 497.819 -2.02159 2.37778 0
M  V30 5129 N 498.12 -1.38341 -0.754957 0
M  V30 5130 C 499.348 -1.37704 -1.54419 0
M  V30 5131 C 499.763 0.0335243 -1.8877 0
M  V30 5132 O 499.12 0.999773 -1.52679 0
M  V30 5133 C 499.171 -2.23136 -2.84416 0
M  V30 5134 O 498.892 -3.58697 -2.51531 0
M  V30 5135 C 500.393 -2.30664 -3.78562 0
M  V30 5136 H 497.613 -0.471061 -0.477852 0
M  V30 5137 H 500.157 -1.81902 -0.934446 0
M  V30 5138 H 498.312 -1.82403 -3.41772 0
M  V30 5139 H 498.726 -4.03665 -3.34896 0
M  V30 5140 H 500.2 -2.9473 -4.66732 0
M  V30 5141 H 500.677 -1.3199 -4.18898 0
M  V30 5142 H 501.283 -2.71781 -3.27131 0
M  V30 5143 N 499.598 0.982988 -1.23187 0
M  V30 5144 C 500.826 1.75921 -1.08901 0
M  V30 5145 C 501.241 1.85341 0.359719 0
M  V30 5146 O 500.598 1.33072 1.24892 0
M  V30 5147 C 500.649 3.18742 -1.70545 0
M  V30 5148 O 500.37 3.09814 -3.09753 0
M  V30 5149 C 501.871 4.1277 -1.61667 0
M  V30 5150 H 499.091 0.552166 -0.381252 0
M  V30 5151 H 501.635 1.23516 -1.62985 0
M  V30 5152 H 499.79 3.68182 -1.20501 0
M  V30 5153 H 500.204 3.99703 -3.39614 0
M  V30 5154 H 501.678 5.10697 -2.09506 0
M  V30 5155 H 502.155 4.3542 -0.575009 0
M  V30 5156 H 502.761 3.69232 -2.11064 0
M  V30 5157 N 501.076 1.04316 1.18135 0
M  V30 5158 C 502.322 0.749128 1.88457 0
M  V30 5159 C 502.655 -0.72149 1.803 0
M  V30 5160 O 501.93 -1.52676 1.205 0
M  V30 5161 C 502.213 1.21905 3.38838 0
M  V30 5162 C 502.066 2.75195 3.55792 0
M  V30 5163 C 503.385 0.811085 4.32561 0
M  V30 5164 H 500.504 0.273611 0.684329 0
M  V30 5165 H 503.146 1.29561 1.38975 0
M  V30 5166 H 501.296 0.754137 3.8111 0
M  V30 5167 H 502.968 3.29743 3.22595 0
M  V30 5168 H 501.211 3.14899 2.98364 0
M  V30 5169 H 501.882 3.03135 4.61317 0
M  V30 5170 H 504.358 1.21118 3.98082 0
M  V30 5171 H 503.234 1.16761 5.36338 0
M  V30 5172 H 503.495 -0.285596 4.41177 0
M  V30 5173 N 502.554 -1.34406 0.822964 0
M  V30 5174 C 503.784 -2.02214 0.423424 0
M  V30 5175 C 504.192 -1.62124 -0.975322 0
M  V30 5176 O 503.535 -0.822452 -1.6426 0
M  V30 5177 C 503.597 -3.56721 0.446107 0
M  V30 5178 C 503.261 -4.20136 1.79819 0
M  V30 5179 C 504.258 -4.4065 2.75904 0
M  V30 5180 C 501.943 -4.56906 2.08669 0
M  V30 5181 C 503.937 -4.9706 3.99012 0
M  V30 5182 C 501.624 -5.13026 3.32036 0
M  V30 5183 C 502.622 -5.33047 4.27024 0
M  V30 5184 O 502.31 -5.87979 5.48211 0
M  V30 5185 H 502.042 -0.654748 0.168169 0
M  V30 5186 H 504.596 -1.72659 1.11257 0
M  V30 5187 H 502.826 -3.85537 -0.299734 0
M  V30 5188 H 504.515 -4.05845 0.0666114 0
M  V30 5189 H 505.281 -4.12607 2.54912 0
M  V30 5190 H 501.16 -4.40626 1.35535 0
M  V30 5191 H 504.704 -5.12603 4.73164 0
M  V30 5192 H 500.601 -5.40498 3.52891 0
M  V30 5193 H 501.369 -6.06413 5.49732 0
M  V30 5194 N 504.032 -0.577932 -1.46621 0
M  V30 5195 C 505.28 -0.061566 -2.02006 0
M  V30 5196 C 505.601 1.30117 -1.4524 0
M  V30 5197 O 504.871 1.85313 -0.63529 0
M  V30 5198 H 503.451 -0.0197692 -0.746738 0
M  V30 5199 H 506.113 -0.752631 -1.79782 0
M  V30 5200 H 505.209 0.0110238 -3.12098 0
M  V30 5201 N 505.51 1.54411 -0.315457 0
M  V30 5202 C 506.473 2.22713 0.54142 0
M  V30 5203 C 507.473 1.2179 1.04995 0
M  V30 5204 O 508.663 1.46426 0.943667 0
M  V30 5205 C 505.795 2.92485 1.75116 0
M  V30 5206 H 506.988 2.99849 -0.0555508 0
M  V30 5207 H 504.541 1.56159 -0.0664453 0
M  V30 5208 H 505.276 2.19466 2.38758 0
M  V30 5209 H 505.061 3.66483 1.39401 0
M  V30 5210 H 506.551 3.44548 2.35959 0
M  V30 5211 N 506.988 0.0434614 1.5754 0
M  V30 5212 C 508.235 -0.632035 1.92384 0
M  V30 5213 C 508.563 -1.71304 0.921157 0
M  V30 5214 O 507.818 -1.95583 -0.067744 0
M  V30 5215 C 508.117 -1.2738 3.3393 0
M  V30 5216 C 507.783 -0.321757 4.49751 0
M  V30 5217 C 506.445 -0.0597611 4.81163 0
M  V30 5218 C 508.797 0.331158 5.20147 0
M  V30 5219 C 506.125 0.862715 5.80322 0
M  V30 5220 C 508.477 1.24178 6.20292 0
M  V30 5221 C 507.141 1.51252 6.50138 0
M  V30 5222 H 506.411 -0.231278 0.703983 0
M  V30 5223 H 509.058 0.108294 1.91194 0
M  V30 5224 H 507.363 -2.08921 3.3145 0
M  V30 5225 H 509.06 -1.80326 3.58167 0
M  V30 5226 H 505.65 -0.53614 4.25233 0
M  V30 5227 H 509.834 0.141826 4.96097 0
M  V30 5228 H 505.09 1.08003 6.01785 0
M  V30 5229 H 509.264 1.75381 6.73954 0
M  V30 5230 H 506.891 2.22897 7.26788 0
M  V30 5231 N 508.466 -1.55915 -0.229846 0
M  V30 5232 C 509.743 -1.6932 -0.979295 0
M  V30 5233 C 510.123 -0.588321 -2.02736 0
M  V30 5234 O 509.471 0.40586 -2.24867 0
M  V30 5235 C 509.681 -3.10305 -1.59724 0
M  V30 5236 C 511.029 -3.6945 -2.09264 0
M  V30 5237 O 512.053 -3.13214 -1.69633 0
M  V30 5238 O 510.912 -4.68072 -2.82082 0
M  V30 5239 H 508.006 -0.689314 -0.456919 0
M  V30 5240 H 510.552 -1.68238 -0.222283 0
M  V30 5241 H 509.324 -3.82177 -0.840039 0
M  V30 5242 H 508.947 -3.1547 -2.42001 0
M  V30 5243 N 509.944 0.496216 -1.49584 0
M  V30 5244 C 511.355 1.07765 -1.52459 0
M  V30 5245 C 511.706 1.93679 -0.31353 0
M  V30 5246 O 510.831 2.08588 0.576186 0
M  V30 5247 C 511.426 1.96111 -2.76271 0
M  V30 5248 C 509.985 2.49409 -2.81908 0
M  V30 5249 C 509.132 1.27142 -2.46435 0
M  V30 5250 H 512.083 0.279914 -1.56212 0
M  V30 5251 H 512.104 2.80862 -2.56704 0
M  V30 5252 H 511.616 1.33555 -3.64396 0
M  V30 5253 H 509.717 3.1559 -1.98074 0
M  V30 5254 H 509.83 2.86234 -3.84196 0
M  V30 5255 H 508.194 1.59818 -1.98319 0
M  V30 5256 H 508.977 0.662866 -3.3684 0
M  V30 5257 N 511.423 1.38739 0.74761 0
M  V30 5258 C 512.353 1.39173 1.87492 0
M  V30 5259 C 513.334 0.256794 1.6815 0
M  V30 5260 O 514.519 0.460762 1.88655 0
M  V30 5261 C 511.649 1.22197 3.25093 0
M  V30 5262 C 510.603 2.32957 3.59047 0
M  V30 5263 C 509.929 2.01082 4.95449 0
M  V30 5264 C 511.229 3.75237 3.6331 0
M  V30 5265 H 512.923 2.3351 1.87386 0
M  V30 5266 H 510.469 1.12399 0.900134 0
M  V30 5267 H 512.422 1.21124 4.03617 0
M  V30 5268 H 511.146 0.243241 3.25693 0
M  V30 5269 H 509.805 2.33226 2.82845 0
M  V30 5270 H 509.453 1.01678 4.92616 0
M  V30 5271 H 509.153 2.75267 5.19136 0
M  V30 5272 H 510.677 2.01638 5.76346 0
M  V30 5273 H 512.091 3.76966 4.31937 0
M  V30 5274 H 510.488 4.48677 3.98509 0
M  V30 5275 H 511.558 4.07122 2.634 0
M  V30 5276 N 512.901 -0.976442 1.23707 0
M  V30 5277 C 513.831 -2.08749 1.04624 0
M  V30 5278 C 514.812 -1.70057 -0.0380956 0
M  V30 5279 O 515.997 -1.93782 0.127308 0
M  V30 5280 C 513.127 -3.41335 0.640902 0
M  V30 5281 C 512.081 -3.93947 1.67302 0
M  V30 5282 C 511.407 -5.22774 1.12301 0
M  V30 5283 C 512.707 -4.22769 3.06697 0
M  V30 5284 H 514.401 -2.24972 1.97555 0
M  V30 5285 H 511.947 -1.08108 0.951247 0
M  V30 5286 H 513.9 -4.18489 0.494434 0
M  V30 5287 H 512.624 -3.24988 -0.324099 0
M  V30 5288 H 511.283 -3.18941 1.80755 0
M  V30 5289 H 510.931 -5.0278 0.148877 0
M  V30 5290 H 510.631 -5.58942 1.81267 0
M  V30 5291 H 512.155 -6.02546 0.988479 0
M  V30 5292 H 513.569 -4.90659 2.96524 0
M  V30 5293 H 511.966 -4.70147 3.72937 0
M  V30 5294 H 513.036 -3.29885 3.55392 0
M  V30 5295 N 514.379 -1.04941 -1.1758 0
M  V30 5296 C 515.342 -0.652456 -2.19717 0
M  V30 5297 C 516.342 0.294745 -1.58076 0
M  V30 5298 O 517.532 0.0789579 -1.74021 0
M  V30 5299 C 514.664 0.0420712 -3.40874 0
M  V30 5300 H 515.857 -1.55642 -2.5635 0
M  V30 5301 H 513.41 -0.842995 -1.31618 0
M  V30 5302 H 514.145 0.95943 -3.09783 0
M  V30 5303 H 513.93 -0.638844 -3.86861 0
M  V30 5304 H 515.42 0.306 -4.16477 0
M  V30 5305 N 515.857 1.33968 -0.830081 0
M  V30 5306 C 517.103 1.98357 -0.422191 0
M  V30 5307 C 517.436 1.65633 1.01387 0
M  V30 5308 O 516.711 0.931648 1.70735 0
M  V30 5309 C 516.994 3.54492 -0.633043 0
M  V30 5310 C 516.847 3.96934 -2.11574 0
M  V30 5311 C 518.166 4.40039 -0.0735584 0
M  V30 5312 H 515.285 0.720544 -0.154871 0
M  V30 5313 H 517.927 1.58749 -1.04397 0
M  V30 5314 H 516.077 3.88361 -0.103775 0
M  V30 5315 H 517.749 3.73363 -2.7092 0
M  V30 5316 H 515.992 3.46984 -2.60354 0
M  V30 5317 H 516.663 5.05651 -2.21406 0
M  V30 5318 H 519.139 4.12764 -0.52585 0
M  V30 5319 H 518.015 5.48327 -0.250841 0
M  V30 5320 H 518.276 4.30124 1.02202 0
M  V30 5321 N 517.335 0.585699 1.46312 0
M  V30 5322 C 518.298 -0.135673 2.28798 0
M  V30 5323 C 519.298 -0.815988 1.38558 0
M  V30 5324 O 520.488 -0.667487 1.60904 0
M  V30 5325 C 517.62 -1.20163 3.1902 0
M  V30 5326 H 518.813 0.589257 2.94054 0
M  V30 5327 H 516.366 0.343794 1.52472 0
M  V30 5328 H 517.101 -1.95804 2.58517 0
M  V30 5329 H 516.886 -0.718282 3.85465 0
M  V30 5330 H 518.376 -1.70749 3.81096 0
M  V30 5331 N 518.813 -1.54241 0.323641 0
M  V30 5332 C 520.09 -1.92741 -0.333181 0
M  V30 5333 C 520.47 -1.25326 -1.69872 0
M  V30 5334 O 519.818 -0.396991 -2.25025 0
M  V30 5335 C 520.028 -3.46399 -0.425322 0
M  V30 5336 C 521.376 -4.19029 -0.68557 0
M  V30 5337 O 522.4 -3.52555 -0.50824 0
M  V30 5338 O 521.259 -5.36751 -1.02767 0
M  V30 5339 H 518.353 -0.804811 -0.190286 0
M  V30 5340 H 520.899 -1.65542 0.373361 0
M  V30 5341 H 519.671 -3.87643 0.533737 0
M  V30 5342 H 519.294 -3.79704 -1.17944 0
M  V30 5343 N 520.291 -0.0518155 -1.57515 0
M  V30 5344 C 521.54 0.621286 -1.91893 0
M  V30 5345 C 521.853 1.71966 -0.932052 0
M  V30 5346 O 523.059 2.45096 -1.16791 0
M  V30 5347 C 521.515 1.15641 -3.40816 0
M  V30 5348 C 521.123 0.0901146 -4.47909 0
M  V30 5349 C 522.867 1.80472 -3.84227 0
M  V30 5350 C 520.774 0.638154 -5.87947 0
M  V30 5351 H 519.704 0.235835 -0.716169 0
M  V30 5352 H 522.355 -0.120809 -1.83102 0
M  V30 5353 H 520.737 1.95084 -3.44613 0
M  V30 5354 H 521.911 -0.683525 -4.55702 0
M  V30 5355 H 520.226 -0.460774 -4.13843 0
M  V30 5356 H 522.823 2.22471 -4.86221 0
M  V30 5357 H 523.166 2.65669 -3.20508 0
M  V30 5358 H 523.699 1.07683 -3.82948 0
M  V30 5359 H 520.438 -0.176202 -6.55263 0
M  V30 5360 H 519.958 1.37976 -5.83714 0
M  V30 5361 H 521.637 1.12085 -6.37217 0
M  V30 5362 N 521.769 1.56035 0.221574 0
M  V30 5363 C 523.009 1.80822 0.953038 0
M  V30 5364 C 523.373 0.625316 1.81532 0
M  V30 5365 O 524.574 0.752491 2.58052 0
M  V30 5366 C 522.845 3.10503 1.76983 0
M  V30 5367 S 524.404 3.56604 2.55693 0
M  V30 5368 H 521.222 0.634849 0.320137 0
M  V30 5369 H 523.824 1.94274 0.218619 0
M  V30 5370 H 522.528 3.94636 1.12651 0
M  V30 5371 H 522.059 2.99858 2.54655 0
M  V30 5372 H 524.074 3.1994 3.79279 0
M  V30 5373 N 523.247 -0.488276 1.49845 0
M  V30 5374 C 524.194 -1.58836 1.67451 0
M  V30 5375 C 525.164 -1.57886 0.515857 0
M  V30 5376 O 526.349 -1.75679 0.744403 0
M  V30 5377 C 523.489 -2.96915 1.75885 0
M  V30 5378 C 522.602 -3.07784 3.03138 0
M  V30 5379 C 521.737 -4.36673 3.02473 0
M  V30 5380 C 520.776 -4.41222 4.24252 0
M  V30 5381 N 519.913 -5.61557 4.21424 0
M  V30 5382 H 524.753 -1.43131 2.61376 0
M  V30 5383 H 522.29 -0.696186 1.29583 0
M  V30 5384 H 524.248 -3.76965 1.78755 0
M  V30 5385 H 522.878 -3.11295 0.85414 0
M  V30 5386 H 521.93 -2.20717 3.09819 0
M  V30 5387 H 523.242 -3.07005 3.93128 0
M  V30 5388 H 522.396 -5.25055 3.03977 0
M  V30 5389 H 521.135 -4.40037 2.10283 0
M  V30 5390 H 520.14 -3.5124 4.22978 0
M  V30 5391 H 521.365 -4.39564 5.17649 0
M  V30 5392 H 519.311 -5.65738 3.32078 0
M  V30 5393 H 519.228 -5.62447 5.05163 0
M  V30 5394 H 520.496 -6.52111 4.2705 0
M  V30 5395 N 524.725 -1.39134 -0.740242 0
M  V30 5396 C 525.672 -1.37434 -1.8542 0
M  V30 5397 C 526.642 -0.234822 -1.64432 0
M  V30 5398 O 527.827 -0.429125 -1.85912 0
M  V30 5399 C 524.967 -1.21844 -3.22875 0
M  V30 5400 C 524.08 -2.45296 -3.55603 0
M  V30 5401 C 523.215 -2.22334 -4.82432 0
M  V30 5402 C 522.254 -3.41488 -5.07988 0
M  V30 5403 N 521.391 -3.17877 -6.26018 0
M  V30 5404 H 526.231 -2.3266 -1.86207 0
M  V30 5405 H 523.768 -1.15578 -0.909946 0
M  V30 5406 H 525.726 -1.10818 -4.02213 0
M  V30 5407 H 524.356 -0.3025 -3.21379 0
M  V30 5408 H 523.408 -2.66945 -2.71006 0
M  V30 5409 H 524.72 -3.34063 -3.7041 0
M  V30 5410 H 523.874 -2.0852 -5.69741 0
M  V30 5411 H 522.613 -1.30954 -4.6979 0
M  V30 5412 H 521.618 -3.55807 -4.19144 0
M  V30 5413 H 522.843 -4.33763 -5.22519 0
M  V30 5414 H 520.789 -2.29156 -6.14673 0
M  V30 5415 H 520.706 -4.00198 -6.41387 0
M  V30 5416 H 521.974 -3.07746 -7.16179 0
M  V30 5417 N 526.204 0.969867 -1.24223 0
M  V30 5418 C 527.434 1.74502 -1.106 0
M  V30 5419 C 527.842 1.86038 0.344483 0
M  V30 5420 O 527.185 1.3465 1.24961 0
M  V30 5421 C 527.247 3.18391 -1.66935 0
M  V30 5422 C 526.911 3.30334 -3.15798 0
M  V30 5423 C 527.908 3.15832 -4.12973 0
M  V30 5424 C 525.593 3.54644 -3.55715 0
M  V30 5425 C 527.587 3.25461 -5.48045 0
M  V30 5426 C 525.274 3.63912 -4.90929 0
M  V30 5427 C 526.272 3.49332 -5.86904 0
M  V30 5428 O 525.96 3.58251 -7.1966 0
M  V30 5429 H 525.692 0.554119 -0.387206 0
M  V30 5430 H 528.246 1.22646 -1.64764 0
M  V30 5431 H 526.476 3.71543 -1.07203 0
M  V30 5432 H 528.165 3.77707 -1.48634 0
M  V30 5433 H 528.931 2.96937 -3.83476 0
M  V30 5434 H 524.81 3.65059 -2.81519 0
M  V30 5435 H 528.354 3.13998 -6.22937 0
M  V30 5436 H 524.251 3.82319 -5.20098 0
M  V30 5437 H 525.019 3.7498 -7.27552 0
M  V30 5438 N 527.682 1.05563 1.17022 0
M  V30 5439 C 528.629 0.659893 2.21165 0
M  V30 5440 C 529.599 -0.339813 1.62587 0
M  V30 5441 O 530.784 -0.230378 1.89404 0
M  V30 5442 C 527.924 0.0447297 3.45071 0
M  V30 5443 C 527.037 1.09372 4.17926 0
M  V30 5444 C 526.172 0.445481 5.29329 0
M  V30 5445 C 525.211 1.47852 5.93975 0
M  V30 5446 N 524.348 0.854172 6.96885 0
M  V30 5447 H 529.188 1.55243 2.54369 0
M  V30 5448 H 526.725 0.776336 1.24946 0
M  V30 5449 H 528.683 -0.329404 4.15898 0
M  V30 5450 H 527.313 -0.811244 3.1244 0
M  V30 5451 H 526.365 1.58564 3.45777 0
M  V30 5452 H 527.677 1.87773 4.62107 0
M  V30 5453 H 526.831 0.0179688 6.06697 0
M  V30 5454 H 525.57 -0.370481 4.86291 0
M  V30 5455 H 524.575 1.91601 5.15334 0
M  V30 5456 H 525.8 2.29645 6.39093 0
M  V30 5457 H 523.746 0.0587882 6.55974 0
M  V30 5458 H 523.663 1.57567 7.39397 0
M  V30 5459 H 524.931 0.451559 7.78191 0
M  V30 5460 N 529.16 -1.33526 0.837174 0
M  V30 5461 C 530.409 -1.97098 0.428387 0
M  V30 5462 C 530.722 -1.67062 -1.01734 0
M  V30 5463 O 531.928 -2.24235 -1.53072 0
M  V30 5464 C 530.384 -3.52725 0.715075 0
M  V30 5465 C 529.992 -3.9164 2.17537 0
M  V30 5466 C 531.736 -4.22857 0.373154 0
M  V30 5467 C 529.643 -5.40237 2.40619 0
M  V30 5468 H 528.573 -0.737589 0.156455 0
M  V30 5469 H 531.224 -1.52169 1.02552 0
M  V30 5470 H 529.606 -3.95971 0.0475904 0
M  V30 5471 H 530.78 -3.59456 2.88319 0
M  V30 5472 H 529.095 -3.34485 2.4801 0
M  V30 5473 H 531.692 -5.32133 0.523264 0
M  V30 5474 H 532.035 -4.10647 -0.683708 0
M  V30 5475 H 532.568 -3.85135 0.995801 0
M  V30 5476 H 529.307 -5.57449 3.44864 0
M  V30 5477 H 528.827 -5.73887 1.74396 0
M  V30 5478 H 530.506 -6.07102 2.23688 0
M  V30 5479 N 530.638 -0.59345 -1.46 0
M  V30 5480 C 531.884 -0.0916503 -2.03193 0
M  V30 5481 C 532.239 1.25839 -1.45541 0
M  V30 5482 O 531.532 1.81455 -0.615191 0
M  V30 5483 C 531.726 0.021178 -3.57394 0
M  V30 5484 C 531.555 -1.31638 -4.30002 0
M  V30 5485 C 530.325 -1.89336 -4.68487 0
M  V30 5486 C 532.523 -2.242 -4.62859 0
M  V30 5487 N 530.505 -3.1672 -5.25891 0
M  V30 5488 C 531.876 -3.36175 -5.20948 0
M  V30 5489 C 533.931 -2.23748 -4.44794 0
M  V30 5490 C 532.634 -4.47844 -5.62875 0
M  V30 5491 C 534.66 -3.34454 -4.87744 0
M  V30 5492 C 534.022 -4.4515 -5.45913 0
M  V30 5493 H 530.121 -0.0765713 -0.778242 0
M  V30 5494 H 532.705 -0.788705 -1.7801 0
M  V30 5495 H 530.876 0.687423 -3.82268 0
M  V30 5496 H 532.608 0.528343 -4.01236 0
M  V30 5497 H 529.363 -1.42704 -4.51589 0
M  V30 5498 H 529.787 -3.81746 -5.59106 0
M  V30 5499 H 534.429 -1.39433 -3.99147 0
M  V30 5500 H 532.147 -5.32894 -6.07495 0
M  V30 5501 H 535.733 -3.35234 -4.75509 0
M  V30 5502 H 534.613 -5.29398 -5.78539 0
M  V30 5503 N 532.116 1.54067 -0.331816 0
M  V30 5504 C 533.049 2.20886 0.573127 0
M  V30 5505 C 534.027 1.18876 1.10938 0
M  V30 5506 O 535.211 1.47649 1.17184 0
M  V30 5507 C 532.338 2.87706 1.78726 0
M  V30 5508 C 531.384 4.03505 1.38152 0
M  V30 5509 S 532.217 5.33919 0.41123 0
M  V30 5510 C 533.373 6.04236 1.63246 0
M  V30 5511 H 533.606 2.97299 0.00555737 0
M  V30 5512 H 531.139 1.53964 -0.115893 0
M  V30 5513 H 533.097 3.26825 2.48386 0
M  V30 5514 H 531.758 2.1108 2.32603 0
M  V30 5515 H 530.951 4.49152 2.28645 0
M  V30 5516 H 530.553 3.66102 0.764524 0
M  V30 5517 H 532.845 6.26917 2.56869 0
M  V30 5518 H 533.788 6.97546 1.218 0
M  V30 5519 H 534.196 5.34247 1.82318 0
M  V30 5520 N 533.594 0.0601682 1.57485 0
M  V30 5521 C 534.544 -0.920969 2.08572 0
M  V30 5522 C 535.528 -1.26617 0.992827 0
M  V30 5523 O 536.72 -1.24708 1.25606 0
M  V30 5524 C 533.849 -2.19267 2.64153 0
M  V30 5525 C 532.935 -1.87447 3.80427 0
M  V30 5526 N 533.326 -1.26025 4.89848 0
M  V30 5527 C 531.624 -2.17265 3.89502 0
M  V30 5528 C 532.325 -1.12036 5.70809 0
M  V30 5529 N 531.301 -1.62624 5.18705 0
M  V30 5530 H 535.103 -0.441561 2.90564 0
M  V30 5531 H 532.617 -0.144043 1.6176 0
M  V30 5532 H 534.614 -2.90462 2.99061 0
M  V30 5533 H 533.274 -2.67806 1.83603 0
M  V30 5534 H 534.285 -0.931336 5.09457 0
M  V30 5535 H 530.962 -2.68262 3.19909 0
M  V30 5536 H 532.352 -0.642783 6.68818 0
M  V30 5537 N 535.072 -1.5615 -0.213296 0
M  V30 5538 C 536.318 -1.79812 -0.937849 0
M  V30 5539 C 536.651 -0.631201 -1.83656 0
M  V30 5540 O 535.926 0.369165 -1.90964 0
M  V30 5541 C 536.209 -3.13613 -1.76972 0
M  V30 5542 C 536.062 -4.40766 -0.89695 0
M  V30 5543 C 537.381 -3.43931 -2.7459 0
M  V30 5544 H 534.5 -0.654138 -0.339518 0
M  V30 5545 H 537.142 -1.88877 -0.20623 0
M  V30 5546 H 535.292 -3.06015 -2.39347 0
M  V30 5547 H 536.964 -4.60392 -0.289306 0
M  V30 5548 H 535.207 -4.33326 -0.202756 0
M  V30 5549 H 535.878 -5.30843 -1.51358 0
M  V30 5550 H 538.354 -3.5171 -2.22349 0
M  V30 5551 H 537.23 -4.38706 -3.29891 0
M  V30 5552 H 537.491 -2.6651 -3.52739 0
M  V30 5553 N 536.55 0.480323 -1.50102 0
M  V30 5554 C 537.827 1.24159 -1.51142 0
M  V30 5555 C 538.207 2.09605 -0.250818 0
M  V30 5556 O 537.555 2.15274 0.766118 0
M  V30 5557 C 537.765 2.08057 -2.80202 0
M  V30 5558 C 539.113 2.66556 -3.30504 0
M  V30 5559 O 540.137 2.18308 -2.81461 0
M  V30 5560 O 538.996 3.54442 -4.15973 0
M  V30 5561 H 536.09 0.562928 -0.605839 0
M  V30 5562 H 538.636 0.492899 -1.62384 0
M  V30 5563 H 537.408 1.45032 -3.6343 0
M  V30 5564 H 537.031 2.90079 -2.71919 0
M  V30 5565 N 538.028 1.39524 0.732853 0
M  V30 5566 C 538.991 1.38189 1.82857 0
M  V30 5567 C 539.991 0.278624 1.58368 0
M  V30 5568 O 541.181 0.536639 1.65728 0
M  V30 5569 C 538.313 1.15661 3.2068 0
M  V30 5570 H 539.506 2.35692 1.85444 0
M  V30 5571 H 537.059 1.2512 0.936728 0
M  V30 5572 H 537.794 0.188482 3.23752 0
M  V30 5573 H 537.579 1.95559 3.39852 0
M  V30 5574 H 539.069 1.17472 4.00737 0
M  V30 5575 N 539.506 -0.963266 1.24736 0
M  V30 5576 C 540.469 -2.04013 1.04457 0
M  V30 5577 C 541.469 -1.608 0.000335555 0
M  V30 5578 O 542.659 -1.72515 0.241719 0
M  V30 5579 C 539.791 -3.35858 0.584162 0
M  V30 5580 H 540.984 -2.23436 2.00041 0
M  V30 5581 H 538.537 -1.13914 1.07021 0
M  V30 5582 H 539.272 -3.22128 -0.374673 0
M  V30 5583 H 539.057 -3.68568 1.3379 0
M  V30 5584 H 540.547 -4.1502 0.463451 0
M  V30 5585 N 540.985 -1.06182 -1.16461 0
M  V30 5586 C 542.231 -0.788825 -1.87481 0
M  V30 5587 C 542.586 0.677298 -1.80085 0
M  V30 5588 O 541.879 1.48976 -1.20486 0
M  V30 5589 C 542.073 -1.21633 -3.36066 0
M  V30 5590 C 541.902 -2.72247 -3.57927 0
M  V30 5591 C 540.672 -3.39696 -3.74079 0
M  V30 5592 C 542.87 -3.70461 -3.56739 0
M  V30 5593 N 540.852 -4.79072 -3.83879 0
M  V30 5594 C 542.223 -4.95616 -3.72511 0
M  V30 5595 C 544.278 -3.63788 -3.39945 0
M  V30 5596 C 542.981 -6.14895 -3.73225 0
M  V30 5597 C 545.007 -4.82517 -3.41953 0
M  V30 5598 C 544.369 -6.065 -3.58242 0
M  V30 5599 H 540.468 -0.341034 -0.703719 0
M  V30 5600 H 543.052 -1.35575 -1.39741 0
M  V30 5601 H 541.223 -0.67725 -3.8245 0
M  V30 5602 H 542.955 -0.892119 -3.94745 0
M  V30 5603 H 539.71 -2.90097 -3.74354 0
M  V30 5604 H 540.134 -5.51573 -3.92551 0
M  V30 5605 H 544.776 -2.68888 -3.26281 0
M  V30 5606 H 542.494 -7.10129 -3.85672 0
M  V30 5607 H 546.08 -4.79017 -3.30203 0
M  V30 5608 H 544.96 -6.96833 -3.59712 0
M  V30 5609 N 542.463 1.3308 -0.844243 0
M  V30 5610 C 543.711 1.97215 -0.441676 0
M  V30 5611 C 544.032 1.67185 1.0037 0
M  V30 5612 O 543.302 0.973588 1.69994 0
M  V30 5613 H 541.882 0.72959 -0.160335 0
M  V30 5614 H 544.544 1.62348 -1.07838 0
M  V30 5615 H 543.64 3.06698 -0.57815 0
M  V30 5616 N 543.941 0.601185 1.45683 0
M  V30 5617 C 545.189 0.0936957 2.01883 0
M  V30 5618 C 545.51 -1.2779 1.47291 0
M  V30 5619 O 544.78 -1.84279 0.664691 0
M  V30 5620 H 543.36 0.0316466 0.746329 0
M  V30 5621 H 546.022 0.781137 1.78562 0
M  V30 5622 H 545.118 0.0386297 3.12076 0
M  V30 5623 N 545.419 -1.53889 0.339982 0
M  V30 5624 C 546.667 -2.00458 -0.257112 0
M  V30 5625 C 546.988 -1.22953 -1.51353 0
M  V30 5626 O 546.258 -0.335734 -1.93002 0
M  V30 5627 H 544.838 -0.740544 -0.0979965 0
M  V30 5628 H 547.5 -1.89386 0.460317 0
M  V30 5629 H 546.596 -3.08035 -0.502057 0
M  V30 5630 N 546.897 -0.0685191 -1.57451 0
M  V30 5631 C 547.827 0.89747 -2.15564 0
M  V30 5632 C 548.808 1.31266 -1.08181 0
M  V30 5633 O 549.993 1.38429 -1.36202 0
M  V30 5634 C 547.123 2.16623 -2.71463 0
M  V30 5635 C 546.077 1.89054 -3.83982 0
M  V30 5636 C 545.403 3.22532 -4.26471 0
M  V30 5637 C 546.703 1.1984 -5.08366 0
M  V30 5638 H 548.397 0.413373 -2.96533 0
M  V30 5639 H 545.943 0.197391 -1.42641 0
M  V30 5640 H 547.896 2.84614 -3.10761 0
M  V30 5641 H 546.62 2.67269 -1.8771 0
M  V30 5642 H 545.279 1.23469 -3.45183 0
M  V30 5643 H 544.927 3.71013 -3.39644 0
M  V30 5644 H 544.627 3.04879 -5.02317 0
M  V30 5645 H 546.151 3.91727 -4.68383 0
M  V30 5646 H 547.565 1.77896 -5.45001 0
M  V30 5647 H 545.962 1.12456 -5.89469 0
M  V30 5648 H 547.032 0.176996 -4.84577 0
M  V30 5649 N 548.375 1.56261 0.205012 0
M  V30 5650 C 549.305 1.96779 1.257 0
M  V30 5651 C 550.286 0.838309 1.48008 0
M  V30 5652 O 551.471 1.10189 1.59913 0
M  V30 5653 C 548.601 2.29876 2.60335 0
M  V30 5654 C 547.555 3.45469 2.52656 0
M  V30 5655 C 546.881 3.64215 3.91473 0
M  V30 5656 C 548.181 4.79954 2.06014 0
M  V30 5657 H 549.875 2.84904 0.920338 0
M  V30 5658 H 547.421 1.37072 0.441277 0
M  V30 5659 H 549.374 2.56814 3.34102 0
M  V30 5660 H 548.098 1.38622 2.95722 0
M  V30 5661 H 546.757 3.18605 1.81345 0
M  V30 5662 H 546.405 2.70309 4.24196 0
M  V30 5663 H 546.105 4.41973 3.87213 0
M  V30 5664 H 547.629 3.93519 4.66878 0
M  V30 5665 H 549.043 5.05989 2.69533 0
M  V30 5666 H 547.44 5.61111 2.12777 0
M  V30 5667 H 548.51 4.74201 1.01297 0
M  V30 5668 N 549.853 -0.472356 1.50355 0
M  V30 5669 C 550.786 -1.58923 1.63764 0
M  V30 5670 C 551.764 -1.55173 0.485793 0
M  V30 5671 O 552.948 -1.74815 0.705132 0
M  V30 5672 C 550.075 -2.97497 1.61905 0
M  V30 5673 C 549.121 -3.19405 2.82635 0
M  V30 5674 S 549.954 -2.99441 4.43954 0
M  V30 5675 C 551.11 -4.40359 4.44786 0
M  V30 5676 H 551.343 -1.47309 2.58239 0
M  V30 5677 H 548.876 -0.659601 1.39602 0
M  V30 5678 H 550.834 -3.77389 1.61518 0
M  V30 5679 H 549.495 -3.06502 0.686683 0
M  V30 5680 H 548.688 -4.20636 2.77636 0
M  V30 5681 H 548.29 -2.47283 2.80583 0
M  V30 5682 H 550.582 -5.32969 4.1827 0
M  V30 5683 H 551.525 -4.50403 5.46391 0
M  V30 5684 H 551.933 -4.22378 3.74509 0
M  V30 5685 N 551.331 -1.39911 -0.725443 0
M  V30 5686 C 552.556 -1.41137 -1.5197 0
M  V30 5687 C 552.981 -0.010262 -1.88097 0
M  V30 5688 O 552.339 0.979184 -1.52583 0
M  V30 5689 C 552.387 -2.2994 -2.77777 0
M  V30 5690 O 551.491 -1.73586 -3.74088 0
M  V30 5691 H 550.832 -0.480219 -0.458569 0
M  V30 5692 H 553.362 -1.84023 -0.894249 0
M  V30 5693 H 553.372 -2.44785 -3.26411 0
M  V30 5694 H 552.047 -3.31759 -2.50816 0
M  V30 5695 H 550.624 -1.68035 -3.32894 0
M  V30 5696 N 552.809 0.956637 -1.25245 0
M  V30 5697 C 554.225 1.22733 -1.02023 0
M  V30 5698 C 554.425 1.99761 0.264186 0
M  V30 5699 O 553.481 2.32814 0.977436 0
M  V30 5700 C 554.794 2.00367 -2.24217 0
M  V30 5701 C 556.342 2.13418 -2.28958 0
M  V30 5702 C 556.817 2.9445 -3.50803 0
M  V30 5703 N 558.308 3.02029 -3.51187 0
M  V30 5704 C 559.043 3.65116 -4.42129 0
M  V30 5705 N 558.539 4.2983 -5.43339 0
M  V30 5706 N 560.332 3.62237 -4.29815 0
M  V30 5707 H 552.483 0.441282 -2.07765 0
M  V30 5708 H 554.746 0.257686 -0.912306 0
M  V30 5709 H 554.452 1.51165 -3.17556 0
M  V30 5710 H 554.326 3.01077 -2.27228 0
M  V30 5711 H 556.713 2.61819 -1.36143 0
M  V30 5712 H 556.794 1.1202 -2.29968 0
M  V30 5713 H 556.438 2.46741 -4.43939 0
M  V30 5714 H 556.368 3.9607 -3.47039 0
M  V30 5715 H 558.859 2.56007 -2.77973 0
M  V30 5716 H 559.172 4.75819 -6.08947 0
M  V30 5717 H 557.517 4.28465 -5.47214 0
M  V30 5718 H 560.708 3.10863 -3.49974 0
M  V30 5719 H 560.881 4.11117 -5.00886 0
M  V30 5720 N 554.287 1.06798 1.15896 0
M  V30 5721 C 555.234 0.683314 2.20453 0
M  V30 5722 C 556.204 -0.32255 1.62938 0
M  V30 5723 O 557.389 -0.210276 1.89638 0
M  V30 5724 C 554.529 0.0813266 3.45004 0
M  V30 5725 C 553.642 1.13799 4.16742 0
M  V30 5726 C 552.777 0.501598 5.28826 0
M  V30 5727 C 551.816 1.54144 5.92373 0
M  V30 5728 N 550.953 0.928038 6.9594 0
M  V30 5729 H 555.793 1.57932 2.52708 0
M  V30 5730 H 553.33 0.789544 1.24115 0
M  V30 5731 H 555.288 -0.285274 4.16224 0
M  V30 5732 H 553.918 -0.77806 3.13283 0
M  V30 5733 H 552.97 1.62223 3.44075 0
M  V30 5734 H 554.282 1.92664 4.60089 0
M  V30 5735 H 553.436 0.0823162 6.06644 0
M  V30 5736 H 552.175 -0.318883 4.86656 0
M  V30 5737 H 551.18 1.97056 5.13273 0
M  V30 5738 H 552.405 2.3641 6.36621 0
M  V30 5739 H 550.351 0.12836 6.55874 0
M  V30 5740 H 550.268 1.65401 7.37685 0
M  V30 5741 H 551.536 0.534071 7.77668 0
M  V30 5742 N 555.766 -1.3263 0.851289 0
M  V30 5743 C 556.716 -2.26451 0.265302 0
M  V30 5744 C 557.7 -1.49814 -0.586899 0
M  V30 5745 O 558.892 -1.71525 -0.436834 0
M  V30 5746 C 556.021 -3.38895 -0.548212 0
M  V30 5747 C 555.107 -4.2292 0.316189 0
M  V30 5748 N 555.498 -4.86014 1.40084 0
M  V30 5749 C 553.796 -4.45876 0.105356 0
M  V30 5750 C 554.497 -5.48667 1.93235 0
M  V30 5751 N 553.473 -5.29455 1.232 0
M  V30 5752 H 557.275 -2.72757 1.09457 0
M  V30 5753 H 554.789 -1.4668 0.697047 0
M  V30 5754 H 556.786 -4.05111 -0.984402 0
M  V30 5755 H 555.446 -2.94135 -1.37531 0
M  V30 5756 H 556.457 -4.86212 1.78377 0
M  V30 5757 H 553.134 -4.11804 -0.687299 0
M  V30 5758 H 554.524 -6.08865 2.84135 0
M  V30 5759 N 557.244 -0.608902 -1.45362 0
M  V30 5760 C 558.191 0.109172 -2.30542 0
M  V30 5761 C 559.161 0.858704 -1.42181 0
M  V30 5762 O 560.346 0.844178 -1.71109 0
M  V30 5763 C 557.486 1.09971 -3.27109 0
M  V30 5764 C 556.599 0.350911 -4.30572 0
M  V30 5765 C 555.734 1.33129 -5.14247 0
M  V30 5766 C 554.773 0.570377 -6.09437 0
M  V30 5767 N 553.91 1.5001 -6.85887 0
M  V30 5768 H 558.75 -0.623195 -2.91411 0
M  V30 5769 H 556.287 -0.319122 -1.43597 0
M  V30 5770 H 558.245 1.68714 -3.81564 0
M  V30 5771 H 556.875 1.79947 -2.67991 0
M  V30 5772 H 555.927 -0.352054 -3.78767 0
M  V30 5773 H 557.239 -0.242725 -4.98209 0
M  V30 5774 H 556.393 1.99074 -5.73109 0
M  V30 5775 H 555.132 1.95885 -4.46632 0
M  V30 5776 H 554.137 -0.102702 -5.49704 0
M  V30 5777 H 555.362 -0.0521607 -6.7908 0
M  V30 5778 H 553.308 2.11529 -6.2096 0
M  V30 5779 H 553.225 0.959934 -7.49881 0
M  V30 5780 H 554.493 2.14909 -7.49289 0
M  V30 5781 N 558.722 1.53707 -0.348139 0
M  V30 5782 C 559.968 2.01979 0.239986 0
M  V30 5783 C 560.323 1.23141 1.47831 0
M  V30 5784 O 559.616 0.311936 1.89044 0
M  V30 5785 C 559.81 3.52292 0.602061 0
M  V30 5786 C 559.639 4.45684 -0.599625 0
M  V30 5787 C 558.409 4.9304 -1.10635 0
M  V30 5788 C 560.607 4.93156 -1.4595 0
M  V30 5789 N 558.589 5.70394 -2.26988 0
M  V30 5790 C 559.96 5.6868 -2.46988 0
M  V30 5791 C 562.015 4.75257 -1.48441 0
M  V30 5792 C 560.718 6.28208 -3.50353 0
M  V30 5793 C 562.744 5.35639 -2.50689 0
M  V30 5794 C 562.106 6.11034 -3.50453 0
M  V30 5795 H 558.205 0.780335 0.0509992 0
M  V30 5796 H 560.789 1.88466 -0.488742 0
M  V30 5797 H 558.96 3.66002 1.29989 0
M  V30 5798 H 560.692 3.87304 1.17377 0
M  V30 5799 H 557.447 4.68784 -0.67371 0
M  V30 5800 H 557.871 6.13741 -2.85747 0
M  V30 5801 H 562.513 4.16508 -0.726707 0
M  V30 5802 H 560.231 6.86064 -4.27015 0
M  V30 5803 H 563.817 5.23693 -2.53449 0
M  V30 5804 H 562.697 6.56925 -4.28275 0
M  V30 5805 N 560.2 0.0768682 1.57412 0
M  V30 5806 C 561.147 -0.888577 2.13009 0
M  V30 5807 C 562.117 -1.29198 1.0439 0
M  V30 5808 O 563.302 -1.37694 1.3208 0
M  V30 5809 C 560.442 -2.14899 2.70023 0
M  V30 5810 C 559.555 -1.79777 3.92816 0
M  V30 5811 C 558.69 -3.00467 4.38056 0
M  V30 5812 C 557.729 -2.61385 5.53484 0
M  V30 5813 N 556.866 -3.74851 5.93659 0
M  V30 5814 H 561.706 -0.407593 2.95199 0
M  V30 5815 H 559.243 -0.189534 1.45874 0
M  V30 5816 H 561.201 -2.88688 3.0119 0
M  V30 5817 H 559.831 -2.60529 1.9059 0
M  V30 5818 H 558.883 -0.960301 3.68079 0
M  V30 5819 H 560.195 -1.47027 4.76639 0
M  V30 5820 H 559.349 -3.82529 4.7091 0
M  V30 5821 H 558.088 -3.36413 3.53097 0
M  V30 5822 H 557.093 -1.77746 5.20275 0
M  V30 5823 H 558.318 -2.26603 6.40178 0
M  V30 5824 H 556.264 -4.1055 5.11649 0
M  V30 5825 H 556.181 -3.45887 6.72234 0
M  V30 5826 H 557.449 -4.57477 6.31138 0
M  V30 5827 N 561.678 -1.56367 -0.196722 0
M  V30 5828 C 562.608 -1.97442 -1.24655 0
M  V30 5829 C 563.589 -0.846147 -1.47561 0
M  V30 5830 O 564.774 -1.11035 -1.59326 0
M  V30 5831 C 561.904 -2.31253 -2.59112 0
M  V30 5832 C 560.858 -3.46804 -2.50821 0
M  V30 5833 C 560.184 -3.66286 -3.89536 0
M  V30 5834 C 561.484 -4.8104 -2.03465 0
M  V30 5835 H 563.178 -2.85388 -0.905216 0
M  V30 5836 H 560.724 -1.37304 -0.434002 0
M  V30 5837 H 562.677 -2.58583 -3.32736 0
M  V30 5838 H 561.401 -1.40188 -2.94983 0
M  V30 5839 H 560.06 -3.19563 -1.79653 0
M  V30 5840 H 559.708 -2.72555 -4.22756 0
M  V30 5841 H 559.408 -4.4402 -3.84864 0
M  V30 5842 H 560.932 -3.9599 -4.64784 0
M  V30 5843 H 562.346 -5.07411 -2.66846 0
M  V30 5844 H 560.743 -5.62232 -2.09798 0
M  V30 5845 H 561.813 -4.74732 -0.98781 0
M  V30 5846 N 563.156 0.464375 -1.50603 0
M  V30 5847 C 564.381 1.24372 -1.65971 0
M  V30 5848 C 564.806 1.84901 -0.345453 0
M  V30 5849 O 564.164 1.67596 0.691457 0
M  V30 5850 C 564.212 2.32331 -2.7578 0
M  V30 5851 O 563.316 3.37146 -2.375 0
M  V30 5852 H 562.657 0.365604 -0.554283 0
M  V30 5853 H 565.187 0.55183 -1.97018 0
M  V30 5854 H 565.197 2.77539 -2.99059 0
M  V30 5855 H 563.872 1.87648 -3.71162 0
M  V30 5856 H 562.449 2.97602 -2.24694 0
M  V30 5857 N 564.634 1.40294 0.718013 0
M  V30 5858 C 565.882 1.38167 1.47494 0
M  V30 5859 C 566.203 -0.01607 1.94993 0
M  V30 5860 O 565.473 -0.970396 1.70177 0
M  V30 5861 H 564.053 0.508505 0.547203 0
M  V30 5862 H 566.715 1.75324 0.851322 0
M  V30 5863 H 565.811 2.05503 2.34894 0
M  V30 5864 N 566.112 -0.949982 1.2575 0
M  V30 5865 C 567.358 -1.69766 1.10938 0
M  V30 5866 C 567.691 -1.91056 -0.348028 0
M  V30 5867 O 566.966 -1.48488 -1.25625 0
M  V30 5868 C 567.249 -3.07779 1.86933 0
M  V30 5869 C 567.102 -2.9387 3.4053 0
M  V30 5870 C 568.421 -4.07749 1.65616 0
M  V30 5871 H 565.54 -0.616144 0.404396 0
M  V30 5872 H 568.182 -1.10394 1.54639 0
M  V30 5873 H 566.332 -3.58462 1.4979 0
M  V30 5874 H 568.004 -2.50476 3.87375 0
M  V30 5875 H 566.247 -2.29686 3.68004 0
M  V30 5876 H 566.918 -3.91719 3.88922 0
M  V30 5877 H 569.394 -3.65994 1.97959 0
M  V30 5878 H 568.27 -5.02348 2.21218 0
M  V30 5879 H 568.531 -4.38029 0.598595 0
M  V30 5880 N 567.59 -1.07411 -1.15328 0
M  V30 5881 C 568.5 -0.706438 -2.23711 0
M  V30 5882 C 569.516 0.282586 -1.7169 0
M  V30 5883 O 570.692 0.129066 -2.00986 0
M  V30 5884 C 567.757 -0.11048 -3.46524 0
M  V30 5885 C 566.818 -1.15282 -4.13532 0
M  V30 5886 C 566.051 -0.585205 -5.30482 0
M  V30 5887 O 566.274 0.598549 -5.67251 0
M  V30 5888 O 565.208 -1.33039 -5.87013 0
M  V30 5889 H 569.034 -1.61031 -2.57493 0
M  V30 5890 H 566.619 -0.847113 -1.23062 0
M  V30 5891 H 568.501 0.21957 -4.20828 0
M  V30 5892 H 567.176 0.766703 -3.14489 0
M  V30 5893 H 566.083 -1.53523 -3.41147 0
M  V30 5894 H 567.416 -2.00192 -4.49649 0
M  V30 5895 N 569.068 1.32177 -0.85831 0
M  V30 5896 C 570.484 1.49873 -0.548656 0
M  V30 5897 C 570.684 1.79278 0.919874 0
M  V30 5898 O 569.74 1.86451 1.70271 0
M  V30 5899 C 571.053 2.64043 -1.4388 0
M  V30 5900 C 572.601 2.77928 -1.43961 0
M  V30 5901 C 573.076 3.95182 -2.31506 0
M  V30 5902 N 574.567 4.0245 -2.29321 0
M  V30 5903 C 575.302 4.9242 -2.93786 0
M  V30 5904 N 574.798 5.87373 -3.67376 0
M  V30 5905 N 576.591 4.85572 -2.83155 0
M  V30 5906 H 568.742 1.11357 -1.80868 0
M  V30 5907 H 571.005 0.549175 -0.772729 0
M  V30 5908 H 570.711 2.49055 -2.48324 0
M  V30 5909 H 570.585 3.59912 -1.12885 0
M  V30 5910 H 572.972 2.92338 -0.402813 0
M  V30 5911 H 573.053 1.82762 -1.78974 0
M  V30 5912 H 572.697 3.81531 -3.35256 0
M  V30 5913 H 572.627 4.89633 -1.93823 0
M  V30 5914 H 575.118 3.34507 -1.75822 0
M  V30 5915 H 575.431 6.52728 -4.13722 0
M  V30 5916 H 573.776 5.87388 -3.71484 0
M  V30 5917 H 576.967 4.10363 -2.25211 0
M  V30 5918 H 577.14 5.55486 -3.33676 0
M  V30 5919 N 570.547 0.616602 1.45037 0
M  V30 5920 C 571.51 -0.0871112 2.29034 0
M  V30 5921 C 572.51 -0.786414 1.40258 0
M  V30 5922 O 573.7 -0.633207 1.62284 0
M  V30 5923 C 570.832 -1.13369 3.21497 0
M  V30 5924 H 572.025 0.651497 2.92738 0
M  V30 5925 H 569.578 0.376058 1.51709 0
M  V30 5926 H 570.313 -1.90277 2.62612 0
M  V30 5927 H 570.098 -0.636358 3.86902 0
M  V30 5928 H 571.588 -1.62627 3.84633 0
M  V30 5929 N 572.025 -1.5352 0.356285 0
M  V30 5930 C 572.973 -2.26945 -0.50978 0
M  V30 5931 C 573.967 -1.29569 -1.09125 0
M  V30 5932 O 575.173 -1.47231 -1.03552 0
M  V30 5933 H 571.548 -0.729368 -0.183102 0
M  V30 5934 H 573.519 -2.98111 0.131374 0
M  V30 5935 C 572.268 -3.06466 -1.64237 0
M  V30 5936 H 571.591 -3.81233 -1.20423 0
M  V30 5937 H 573.031 -3.61035 -2.22327 0
M  V30 5938 C 571.49 -2.16737 -2.57928 0
M  V30 5939 O 572.02 -1.77195 -3.60507 0
M  V30 5940 N 570.226 -1.81558 -2.26903 0
M  V30 5941 H 569.773 -2.13913 -1.43524 0
M  V30 5942 H 569.731 -1.21806 -2.89846 0
M  V30 5943 N 573.503 -0.0852151 -1.57369 0
M  V30 5944 C 574.728 0.592872 -1.98746 0
M  V30 5945 C 575.153 1.61538 -0.963689 0
M  V30 5946 O 574.511 1.81168 0.069071 0
M  V30 5947 C 574.559 1.22599 -3.39119 0
M  V30 5948 O 573.663 2.34185 -3.39457 0
M  V30 5949 H 573.004 0.151314 -0.646529 0
M  V30 5950 H 575.534 -0.163703 -2.03944 0
M  V30 5951 H 575.544 1.56965 -3.76598 0
M  V30 5952 H 574.219 0.476831 -4.13158 0
M  V30 5953 H 572.796 2.01512 -3.13763 0
M  V30 5954 N 574.981 1.5647 0.188427 0
M  V30 5955 C 576.227 1.81281 0.909124 0
M  V30 5956 C 576.56 0.66034 1.82628 0
M  V30 5957 O 575.835 -0.338737 1.91528 0
M  V30 5958 C 576.118 3.16388 1.7196 0
M  V30 5959 C 575.971 4.42137 0.826714 0
M  V30 5960 C 577.29 3.48256 2.69083 0
M  V30 5961 H 574.409 0.659457 0.329068 0
M  V30 5962 H 577.051 1.89182 0.176156 0
M  V30 5963 H 575.201 3.09784 2.34448 0
M  V30 5964 H 576.873 4.60794 0.216025 0
M  V30 5965 H 575.116 4.33594 0.133792 0
M  V30 5966 H 575.787 5.33184 1.42893 0
M  V30 5967 H 578.263 3.55203 2.16726 0
M  V30 5968 H 577.139 4.43899 3.2287 0
M  V30 5969 H 577.4 2.72088 3.48455 0
M  V30 5970 N 576.459 -0.456382 1.50847 0
M  V30 5971 C 577.687 -1.23026 1.66349 0
M  V30 5972 C 578.102 -1.85473 0.352868 0
M  V30 5973 O 577.459 -1.69885 -0.666739 0
M  V30 5974 C 577.51 -2.32827 2.76539 0
M  V30 5975 O 577.231 -1.72938 4.02522 0
M  V30 5976 C 578.732 -3.23448 3.03144 0
M  V30 5977 H 575.952 -0.371527 0.558756 0
M  V30 5978 H 578.496 -0.543082 1.97157 0
M  V30 5979 H 576.651 -2.97294 2.48384 0
M  V30 5980 H 577.065 -2.45357 4.63573 0
M  V30 5981 H 578.539 -3.96669 3.83872 0
M  V30 5982 H 579.016 -3.83094 2.14793 0
M  V30 5983 H 579.622 -2.64702 3.32886 0
M  V30 5984 N 577.937 -1.40673 -0.710563 0
M  V30 5985 C 579.183 -1.4043 -1.47142 0
M  V30 5986 C 579.538 -0.00781557 -1.92398 0
M  V30 5987 O 578.831 0.963535 -1.6561 0
M  V30 5988 C 579.025 -2.33253 -2.70791 0
M  V30 5989 C 578.854 -3.81789 -2.37629 0
M  V30 5990 C 577.624 -4.5057 -2.28724 0
M  V30 5991 C 579.822 -4.73152 -2.01572 0
M  V30 5992 N 577.804 -5.84312 -1.88289 0
M  V30 5993 C 579.175 -5.95728 -1.71778 0
M  V30 5994 C 581.23 -4.6094 -1.88252 0
M  V30 5995 C 579.933 -7.07454 -1.30003 0
M  V30 5996 C 581.959 -5.72613 -1.47881 0
M  V30 5997 C 581.321 -6.94278 -1.18987 0
M  V30 5998 H 577.42 -0.569115 -0.536314 0
M  V30 5999 H 580.004 -1.76425 -0.823547 0
M  V30 6000 H 578.175 -1.99378 -3.33321 0
M  V30 6001 H 579.907 -2.23833 -3.37166 0
M  V30 6002 H 576.662 -4.04315 -2.46629 0
M  V30 6003 H 577.086 -6.55153 -1.70596 0
M  V30 6004 H 581.728 -3.67389 -2.09249 0
M  V30 6005 H 579.446 -8.00884 -1.07749 0
M  V30 6006 H 583.032 -5.65161 -1.38145 0
M  V30 6007 H 581.912 -7.79222 -0.88219 0
M  V30 6008 N 579.415 0.9433 -1.26252 0
M  V30 6009 C 580.363 2.06302 -1.07434 0
M  V30 6010 C 581.357 1.694 -0.00189471 0
M  V30 6011 O 582.563 1.79302 -0.158408 0
M  V30 6012 H 578.938 0.675453 -0.330556 0
M  V30 6013 H 580.909 2.19326 -2.02333 0
M  V30 6014 C 579.658 3.40125 -0.721817 0
M  V30 6015 H 578.981 3.68996 -1.5389 0
M  V30 6016 H 580.421 4.19295 -0.629922 0
M  V30 6017 C 578.88 3.31993 0.572902 0
M  V30 6018 O 579.41 3.67945 1.61182 0
M  V30 6019 N 577.616 2.85099 0.562748 0
M  V30 6020 H 577.163 2.5604 -0.283092 0
M  V30 6021 H 577.121 2.80041 1.42915 0
M  V30 6022 N 580.893 1.08022 1.14757 0
M  V30 6023 C 582.304 0.829144 1.67279 0
M  V30 6024 C 582.655 -0.644721 1.85305 0
M  V30 6025 O 581.78 -1.49838 1.56133 0
M  V30 6026 C 582.375 1.49855 3.03857 0
M  V30 6027 C 580.934 1.29482 3.53428 0
M  V30 6028 C 580.081 1.56386 2.28995 0
M  V30 6029 H 583.032 1.24134 0.988762 0
M  V30 6030 H 583.053 0.923572 3.69121 0
M  V30 6031 H 582.565 2.57123 2.90705 0
M  V30 6032 H 580.666 0.242669 3.71809 0
M  V30 6033 H 580.779 2.01974 4.34446 0
M  V30 6034 H 579.143 0.985217 2.34874 0
M  V30 6035 H 579.926 2.64851 2.18423 0
M  V30 6036 N 582.371 -1.3172 0.865308 0
M  V30 6037 C 583.321 -2.26157 0.289305 0
M  V30 6038 C 584.305 -1.50428 -0.570977 0
M  V30 6039 O 585.497 -1.71978 -0.418617 0
M  V30 6040 C 582.626 -3.39457 -0.512237 0
M  V30 6041 C 581.712 -4.22561 0.361028 0
M  V30 6042 N 582.103 -4.84501 1.45231 0
M  V30 6043 C 580.401 -4.45739 0.152641 0
M  V30 6044 C 581.102 -5.46586 1.99043 0
M  V30 6045 N 580.078 -5.28119 1.28809 0
M  V30 6046 H 583.88 -2.71581 1.12344 0
M  V30 6047 H 581.394 -1.45932 0.712565 0
M  V30 6048 H 583.391 -4.06133 -0.941379 0
M  V30 6049 H 582.051 -2.95577 -1.34404 0
M  V30 6050 H 583.062 -4.84293 1.83524 0
M  V30 6051 H 579.739 -4.1251 -0.643583 0
M  V30 6052 H 581.129 -6.05817 2.90577 0
M  V30 6053 N 583.85 -0.624285 -1.44708 0
M  V30 6054 C 584.797 0.0847135 -2.30644 0
M  V30 6055 C 585.767 0.843575 -1.43084 0
M  V30 6056 O 586.952 0.825982 -1.71995 0
M  V30 6057 C 584.091 1.06495 -3.28257 0
M  V30 6058 C 583.205 0.305224 -4.3092 0
M  V30 6059 C 582.34 1.27667 -5.1563 0
M  V30 6060 C 581.379 0.505706 -6.10007 0
M  V30 6061 N 580.516 1.42727 -6.8744 0
M  V30 6062 H 585.356 -0.654068 -2.90733 0
M  V30 6063 H 582.893 -0.334334 -1.4325 0
M  V30 6064 H 584.851 1.64658 -3.83332 0
M  V30 6065 H 583.481 1.77094 -2.69884 0
M  V30 6066 H 582.533 -0.392207 -3.78373 0
M  V30 6067 H 583.845 -0.295553 -4.97924 0
M  V30 6068 H 582.999 1.92984 -5.75189 0
M  V30 6069 H 581.738 1.91137 -4.48685 0
M  V30 6070 H 580.743 -0.160999 -5.49564 0
M  V30 6071 H 581.968 -0.124183 -6.78986 0
M  V30 6072 H 579.913 2.04931 -6.23169 0
M  V30 6073 H 579.831 0.880345 -7.50857 0
M  V30 6074 H 581.099 2.0695 -7.51526 0
M  V30 6075 N 585.328 1.53329 -0.364422 0
M  V30 6076 C 586.261 2.22052 0.526145 0
M  V30 6077 C 587.239 1.21203 1.08391 0
M  V30 6078 O 588.423 1.50101 1.14026 0
M  V30 6079 C 585.55 2.91432 1.72583 0
M  V30 6080 C 584.596 4.06345 1.29562 0
M  V30 6081 S 585.429 5.34671 0.297885 0
M  V30 6082 C 586.585 6.07563 1.50392 0
M  V30 6083 H 586.818 2.97244 -0.0575055 0
M  V30 6084 H 584.351 1.53684 -0.148525 0
M  V30 6085 H 586.309 3.3202 2.41398 0
M  V30 6086 H 584.97 2.15966 2.28073 0
M  V30 6087 H 584.163 4.53901 2.19067 0
M  V30 6088 H 583.765 3.67642 0.686696 0
M  V30 6089 H 586.057 6.32224 2.43513 0
M  V30 6090 H 587 6.99973 1.06977 0
M  V30 6091 H 587.408 5.37994 1.70945 0
M  V30 6092 N 586.806 0.0935595 1.57322 0
M  V30 6093 C 587.739 -0.902505 2.09595 0
M  V30 6094 C 588.717 -1.27732 1.00615 0
M  V30 6095 O 589.901 -1.38283 1.28102 0
M  V30 6096 C 587.028 -2.20416 2.57166 0
M  V30 6097 C 586.074 -1.97932 3.7779 0
M  V30 6098 S 586.907 -1.21873 5.21447 0
M  V30 6099 C 588.063 -2.53273 5.72367 0
M  V30 6100 H 588.296 -0.457797 2.93754 0
M  V30 6101 H 585.829 -0.119694 1.53935 0
M  V30 6102 H 587.787 -2.95217 2.85232 0
M  V30 6103 H 586.448 -2.62008 1.73235 0
M  V30 6104 H 585.641 -2.94316 4.09138 0
M  V30 6105 H 585.243 -1.3126 3.5021 0
M  V30 6106 H 587.535 -3.49256 5.8054 0
M  V30 6107 H 588.478 -2.26505 6.70896 0
M  V30 6108 H 588.886 -2.61475 5.00291 0
M  V30 6109 N 588.284 -1.56567 -0.180126 0
M  V30 6110 C 589.532 -1.81133 -0.896392 0
M  V30 6111 C 589.853 -0.669114 -1.83161 0
M  V30 6112 O 589.123 0.311616 -1.93406 0
M  V30 6113 H 587.703 -0.668172 -0.333999 0
M  V30 6114 H 590.365 -1.94048 -0.182051 0
M  V30 6115 H 589.461 -2.74854 -1.47857 0
M  V30 6116 N 589.762 0.448376 -1.51087 0
M  V30 6117 C 591.008 1.20049 -1.6345 0
M  V30 6118 C 591.341 1.91121 -0.344444 0
M  V30 6119 O 590.616 1.83125 0.655396 0
M  V30 6120 C 590.899 2.22624 -2.83038 0
M  V30 6121 C 590.752 1.55708 -4.21989 0
M  V30 6122 C 592.071 3.23718 -2.98152 0
M  V30 6123 H 589.19 0.435085 -0.59487 0
M  V30 6124 H 591.832 0.491183 -1.83541 0
M  V30 6125 H 589.982 2.83117 -2.66039 0
M  V30 6126 H 591.654 0.986367 -4.50631 0
M  V30 6127 H 589.897 0.859647 -4.25197 0
M  V30 6128 H 590.568 2.30357 -5.01637 0
M  V30 6129 H 593.044 2.73269 -3.13788 0
M  V30 6130 H 591.92 3.92795 -3.83411 0
M  V30 6131 H 592.181 3.89179 -2.09743 0
M  V30 6132 N 591.24 1.41047 0.703093 0
M  V30 6133 C 592.651 1.35657 1.28274 0
M  V30 6134 C 593.002 0.0360309 1.96167 0
M  V30 6135 O 592.127 -0.865833 1.98324 0
M  V30 6136 C 592.722 2.45707 2.33267 0
M  V30 6137 C 591.281 2.43738 2.86825 0
M  V30 6138 C 590.428 2.25941 1.60767 0
M  V30 6139 H 593.379 1.50672 0.49836 0
M  V30 6140 H 593.4 2.14333 3.14391 0
M  V30 6141 H 592.912 3.41805 1.83824 0
M  V30 6142 H 591.013 1.51375 3.40465 0
M  V30 6143 H 591.126 3.39779 3.37768 0
M  V30 6144 H 589.49 1.73681 1.86298 0
M  V30 6145 H 590.273 3.24054 1.1333 0
M  V30 6146 N 592.718 -0.936591 1.26751 0
M  V30 6147 C 593.648 -2.05315 1.11212 0
M  V30 6148 C 594.629 -1.70092 0.0160262 0
M  V30 6149 O 595.814 -1.93279 0.188894 0
M  V30 6150 C 592.944 -3.39123 0.749171 0
M  V30 6151 C 591.898 -3.88425 1.79751 0
M  V30 6152 C 591.224 -5.18936 1.28876 0
M  V30 6153 C 592.524 -4.12798 3.19992 0
M  V30 6154 H 594.218 -2.18573 2.04613 0
M  V30 6155 H 591.764 -1.05027 0.985159 0
M  V30 6156 H 593.717 -4.16704 0.627323 0
M  V30 6157 H 592.441 -3.25855 -0.220543 0
M  V30 6158 H 591.1 -3.13028 1.90811 0
M  V30 6159 H 590.748 -5.02051 0.308757 0
M  V30 6160 H 590.448 -5.52892 1.98958 0
M  V30 6161 H 591.972 -5.99096 1.17967 0
M  V30 6162 H 593.386 -4.80977 3.11983 0
M  V30 6163 H 591.783 -4.58044 3.87705 0
M  V30 6164 H 592.853 -3.18412 3.65707 0
M  V30 6165 N 594.196 -1.08629 -1.14182 0
M  V30 6166 C 595.128 -0.676189 -2.18998 0
M  V30 6167 C 596.141 0.277871 -1.60411 0
M  V30 6168 O 597.33 0.0651771 -1.78381 0
M  V30 6169 C 594.43 0.0254916 -3.3889 0
M  V30 6170 C 593.603 -0.948039 -4.27002 0
M  V30 6171 C 592.662 -0.281268 -5.25448 0
M  V30 6172 O 591.688 -0.926378 -5.61611 0
M  V30 6173 N 592.89 0.967923 -5.72374 0
M  V30 6174 H 595.655 -1.57792 -2.54798 0
M  V30 6175 H 593.216 -0.972665 -1.29425 0
M  V30 6176 H 595.208 0.482554 -4.01813 0
M  V30 6177 H 593.778 0.829348 -3.01398 0
M  V30 6178 H 592.998 -1.58388 -3.6098 0
M  V30 6179 H 594.286 -1.60765 -4.82734 0
M  V30 6180 H 593.684 1.51175 -5.45126 0
M  V30 6181 H 592.241 1.36844 -6.37273 0
M  V30 6182 N 595.674 1.31259 -0.872281 0
M  V30 6183 C 596.914 1.98418 -0.490894 0
M  V30 6184 C 597.278 1.67429 0.939755 0
M  V30 6185 O 598.479 2.27818 1.42661 0
M  V30 6186 C 596.75 3.49583 -0.743408 0
M  V30 6187 S 598.309 4.36359 -0.462226 0
M  V30 6188 H 595.127 0.687005 -0.183151 0
M  V30 6189 H 597.729 1.59619 -1.12881 0
M  V30 6190 H 596.433 3.69627 -1.78338 0
M  V30 6191 H 595.964 3.93291 -0.0925758 0
M  V30 6192 H 597.979 4.91173 0.704525 0
M  V30 6193 N 597.152 0.631951 1.44375 0
M  V30 6194 C 598.377 0.142146 2.06912 0
M  V30 6195 C 598.802 -1.17456 1.4692 0
M  V30 6196 O 598.16 -1.72074 0.570975 0
M  V30 6197 C 598.208 0.0417952 3.60576 0
M  V30 6198 O 597.312 -1.00194 4.00044 0
M  V30 6199 H 596.653 0.0851491 0.658518 0
M  V30 6200 H 599.183 0.868863 1.85235 0
M  V30 6201 H 599.193 -0.148517 4.0773 0
M  V30 6202 H 597.868 1.0031 4.03622 0
M  V30 6203 H 596.445 -0.786131 3.64519 0
M  V30 6204 N 598.631 -1.53133 0.372548 0
M  V30 6205 C 599.594 -2.24569 -0.458389 0
M  V30 6206 C 600.594 -1.25603 -1.00402 0
M  V30 6207 O 601.784 -1.49827 -0.888672 0
M  V30 6208 C 598.916 -2.98783 -1.6414 0
M  V30 6209 H 600.109 -2.99436 0.166799 0
M  V30 6210 H 597.662 -1.55805 0.124357 0
M  V30 6211 H 598.397 -2.28176 -2.30448 0
M  V30 6212 H 598.182 -3.71404 -1.25704 0
M  V30 6213 H 599.672 -3.53068 -2.23008 0
M  V30 6214 N 600.109 -0.101901 -1.5727 0
M  V30 6215 C 601.039 0.851544 -2.17419 0
M  V30 6216 C 602.02 1.28942 -1.10941 0
M  V30 6217 O 603.205 1.35509 -1.39107 0
M  V30 6218 C 600.335 2.10816 -2.75996 0
M  V30 6219 C 599.289 1.80867 -3.87906 0
M  V30 6220 C 598.615 3.13413 -4.33216 0
M  V30 6221 C 599.915 1.0903 -5.10793 0
M  V30 6222 H 601.609 0.350381 -2.97343 0
M  V30 6223 H 599.155 0.16709 -1.43027 0
M  V30 6224 H 601.108 2.77959 -3.16729 0
M  V30 6225 H 599.832 2.63227 -1.93337 0
M  V30 6226 H 598.491 1.16119 -3.47724 0
M  V30 6227 H 598.139 3.63725 -3.47438 0
M  V30 6228 H 597.839 2.94155 -5.08671 0
M  V30 6229 H 599.363 3.81704 -4.76586 0
M  V30 6230 H 600.777 1.66295 -5.48652 0
M  V30 6231 H 599.174 0.99927 -5.91722 0
M  V30 6232 H 600.244 0.0741704 -4.84843 0
M  V30 6233 N 601.587 1.56661 0.17182 0
M  V30 6234 C 602.517 1.99401 1.21498 0
M  V30 6235 C 603.498 0.869516 1.46197 0
M  V30 6236 O 604.683 1.13556 1.57539 0
M  V30 6237 C 601.813 2.35346 2.55401 0
M  V30 6238 C 600.767 3.5075 2.45272 0
M  V30 6239 C 600.093 3.72437 3.8366 0
M  V30 6240 C 601.393 4.84216 1.95787 0
M  V30 6241 H 603.087 2.86792 0.859699 0
M  V30 6242 H 600.633 1.37977 0.412103 0
M  V30 6243 H 602.586 2.63843 3.2858 0
M  V30 6244 H 601.31 1.44864 2.92715 0
M  V30 6245 H 599.969 3.2238 1.74547 0
M  V30 6246 H 599.617 2.79246 4.18367 0
M  V30 6247 H 599.317 4.50087 3.77751 0
M  V30 6248 H 600.841 4.03334 4.58426 0
M  V30 6249 H 602.255 5.11592 2.5874 0
M  V30 6250 H 600.652 5.65498 2.00827 0
M  V30 6251 H 601.722 4.76243 0.912159 0
M  V30 6252 N 603.065 -0.440357 1.51323 0
M  V30 6253 C 604.311 -1.19181 1.64085 0
M  V30 6254 C 604.644 -1.90936 0.354575 0
M  V30 6255 O 603.919 -1.8347 -0.645675 0
M  V30 6256 C 604.202 -2.2112 2.84215 0
M  V30 6257 C 604.055 -1.53468 4.22809 0
M  V30 6258 C 605.374 -3.22133 2.99864 0
M  V30 6259 H 602.493 -0.431924 0.597169 0
M  V30 6260 H 605.135 -0.481443 1.83799 0
M  V30 6261 H 603.285 -2.81703 2.67537 0
M  V30 6262 H 604.957 -0.962455 4.51148 0
M  V30 6263 H 603.2 -0.837086 4.25647 0
M  V30 6264 H 603.871 -2.27694 5.02852 0
M  V30 6265 H 606.347 -2.71601 3.15233 0
M  V30 6266 H 605.223 -3.90756 3.85488 0
M  V30 6267 H 605.484 -3.88061 2.11804 0
M  V30 6268 N 604.543 -1.41418 -0.695603 0
M  V30 6269 C 605.959 -1.23887 -1.00619 0
M  V30 6270 C 606.159 -0.128206 -2.01092 0
M  V30 6271 O 605.215 0.507408 -2.47349 0
M  V30 6272 C 606.528 -2.58816 -1.53083 0
M  V30 6273 C 608.076 -2.65998 -1.64967 0
M  V30 6274 C 608.551 -4.01244 -2.20833 0
M  V30 6275 N 610.042 -4.0309 -2.28194 0
M  V30 6276 C 610.777 -5.04539 -2.72448 0
M  V30 6277 N 610.273 -6.16378 -3.16306 0
M  V30 6278 N 612.066 -4.91901 -2.72011 0
M  V30 6279 H 604.217 -2.12379 -0.0300061 0
M  V30 6280 H 606.48 -0.944958 -0.0758797 0
M  V30 6281 H 606.186 -3.40842 -0.867147 0
M  V30 6282 H 606.06 -2.81299 -2.51298 0
M  V30 6283 H 608.447 -1.84331 -2.30448 0
M  V30 6284 H 608.528 -2.47325 -0.652982 0
M  V30 6285 H 608.172 -4.83359 -1.55968 0
M  V30 6286 H 608.102 -4.17257 -3.21254 0
M  V30 6287 H 610.593 -3.22341 -1.97242 0
M  V30 6288 H 610.906 -6.89658 -3.487 0
M  V30 6289 H 609.251 -6.19914 -3.14215 0
M  V30 6290 H 612.442 -4.03613 -2.37095 0
M  V30 6291 H 612.615 -5.71102 -3.06181 0
M  V30 6292 N 606.021 0.929856 -1.27246 0
M  V30 6293 C 606.931 2.0636 -1.11592 0
M  V30 6294 C 607.947 1.73938 -0.046496 0
M  V30 6295 O 609.123 1.9981 -0.252544 0
M  V30 6296 C 606.188 3.38213 -0.762437 0
M  V30 6297 C 605.249 3.84346 -1.9125 0
M  V30 6298 C 604.482 5.09906 -1.57579 0
M  V30 6299 O 604.705 5.68354 -0.482694 0
M  V30 6300 O 603.639 5.51359 -2.41426 0
M  V30 6301 H 607.465 2.22478 -2.0673 0
M  V30 6302 H 605.05 1.04865 -1.06413 0
M  V30 6303 H 606.932 4.1741 -0.57854 0
M  V30 6304 H 605.607 3.23307 0.159439 0
M  V30 6305 H 604.514 3.06045 -2.15144 0
M  V30 6306 H 605.847 4.0379 -2.81451 0
M  V30 6307 N 607.499 1.09233 1.13605 0
M  V30 6308 C 608.409 0.741939 2.22559 0
M  V30 6309 C 609.425 -0.255236 1.72118 0
M  V30 6310 O 610.601 -0.0970747 2.01166 0
M  V30 6311 C 607.666 0.165595 3.46304 0
M  V30 6312 C 606.727 1.21846 4.11645 0
M  V30 6313 C 605.96 0.669526 5.29484 0
M  V30 6314 O 606.183 -0.508228 5.68131 0
M  V30 6315 O 605.117 1.42361 5.84822 0
M  V30 6316 H 608.943 1.65107 2.54899 0
M  V30 6317 H 606.528 0.866584 1.21699 0
M  V30 6318 H 608.41 -0.152592 4.21124 0
M  V30 6319 H 607.085 -0.716573 3.15669 0
M  V30 6320 H 605.992 1.58931 3.38662 0
M  V30 6321 H 607.325 2.07321 4.46407 0
M  V30 6322 N 608.977 -1.30795 0.87923 0
M  V30 6323 C 610.225 -1.95974 0.493809 0
M  V30 6324 C 610.546 -1.69787 -0.959021 0
M  V30 6325 O 609.816 -1.01832 -1.67353 0
M  V30 6326 H 608.396 -0.725083 0.179622 0
M  V30 6327 H 611.058 -1.59432 1.12105 0
M  V30 6328 H 610.154 -3.05058 0.659263 0
M  V30 6329 N 610.455 -0.639598 -1.44038 0
M  V30 6330 C 611.385 0.0469443 -2.33453 0
M  V30 6331 C 612.366 0.82609 -1.48694 0
M  V30 6332 O 613.551 0.790285 -1.77393 0
M  V30 6333 C 610.681 1.02338 -3.3188 0
M  V30 6334 C 609.635 0.355284 -4.26523 0
M  V30 6335 C 608.961 1.44221 -5.14883 0
M  V30 6336 C 610.261 -0.743798 -5.16977 0
M  V30 6337 H 611.955 -0.699735 -2.91108 0
M  V30 6338 H 609.501 -0.337946 -1.39978 0
M  V30 6339 H 611.454 1.51247 -3.93322 0
M  V30 6340 H 610.178 1.80105 -2.72451 0
M  V30 6341 H 608.837 -0.113239 -3.66425 0
M  V30 6342 H 608.485 2.21097 -4.51802 0
M  V30 6343 H 608.185 1.00052 -5.79019 0
M  V30 6344 H 609.709 1.93295 -5.79197 0
M  V30 6345 H 611.123 -0.337444 -5.72306 0
M  V30 6346 H 609.52 -1.10914 -5.89761 0
M  V30 6347 H 610.59 -1.60745 -4.57481 0
M  V30 6348 N 611.933 1.52934 -0.380664 0
M  V30 6349 C 612.866 2.22597 0.502564 0
M  V30 6350 C 613.844 1.22345 1.071 0
M  V30 6351 O 615.028 1.51302 1.12428 0
M  V30 6352 C 612.155 2.93246 1.69482 0
M  V30 6353 C 611.201 4.07696 1.25244 0
M  V30 6354 S 612.034 5.34957 0.241159 0
M  V30 6355 C 613.19 6.09124 1.4394 0
M  V30 6356 H 613.423 2.97167 -0.089029 0
M  V30 6357 H 610.956 1.53518 -0.164817 0
M  V30 6358 H 612.914 3.34562 2.37863 0
M  V30 6359 H 611.575 2.18373 2.2577 0
M  V30 6360 H 610.768 4.56199 2.1424 0
M  V30 6361 H 610.37 3.68349 0.647664 0
M  V30 6362 H 612.662 6.34771 2.36794 0
M  V30 6363 H 613.605 7.01068 0.995464 0
M  V30 6364 H 614.013 5.39777 1.65229 0
M  V30 6365 N 613.412 0.11024 1.57214 0
M  V30 6366 C 614.344 -0.873497 2.11902 0
M  V30 6367 C 615.357 -1.23588 1.05971 0
M  V30 6368 O 616.546 -1.18636 1.33371 0
M  V30 6369 C 613.646 -2.17805 2.59643 0
M  V30 6370 C 612.819 -1.98869 3.89576 0
M  V30 6371 C 611.878 -3.12974 4.23006 0
M  V30 6372 O 610.904 -2.86272 4.91973 0
M  V30 6373 N 612.106 -4.39167 3.79622 0
M  V30 6374 H 614.871 -0.406317 2.96933 0
M  V30 6375 H 612.432 -0.074437 1.61729 0
M  V30 6376 H 614.424 -2.93117 2.79042 0
M  V30 6377 H 612.994 -2.55899 1.7954 0
M  V30 6378 H 612.214 -1.078 3.79174 0
M  V30 6379 H 613.502 -1.83512 4.74553 0
M  V30 6380 H 612.9 -4.63739 3.2398 0
M  V30 6381 H 611.457 -5.11379 4.04147 0
M  V30 6382 N 614.89 -1.56749 -0.16351 0
M  V30 6383 C 615.838 -1.97939 -1.22159 0
M  V30 6384 C 616.832 -0.869288 -1.45395 0
M  V30 6385 O 618.038 -1.05443 -1.45883 0
M  V30 6386 H 614.413 -0.629869 -0.410815 0
M  V30 6387 H 616.384 -2.86115 -0.847381 0
M  V30 6388 C 615.133 -2.36206 -2.55151 0
M  V30 6389 H 614.456 -3.2117 -2.38097 0
M  V30 6390 H 615.896 -2.68863 -3.27854 0
M  V30 6391 C 614.355 -1.20841 -3.14482 0
M  V30 6392 O 614.885 -0.500258 -3.98573 0
M  V30 6393 N 613.091 -0.976943 -2.73686 0
M  V30 6394 H 612.638 -1.55457 -2.05404 0
M  V30 6395 H 612.596 -0.206912 -3.13718 0
M  V30 6396 N 616.368 0.432326 -1.51554 0
M  V30 6397 C 617.608 1.19076 -1.66133 0
M  V30 6398 C 617.972 1.88364 -0.371873 0
M  V30 6399 O 619.173 2.65904 -0.39349 0
M  V30 6400 C 617.444 2.1768 -2.83461 0
M  V30 6401 S 619.003 3.01943 -3.18396 0
M  V30 6402 H 615.821 0.403735 -0.585251 0
M  V30 6403 H 618.423 0.481554 -1.89476 0
M  V30 6404 H 617.127 1.65424 -3.75583 0
M  V30 6405 H 616.658 2.93174 -2.62322 0
M  V30 6406 H 618.673 4.19373 -2.65219 0
M  V30 6407 N 617.846 1.41785 0.688094 0
M  V30 6408 C 618.794 1.44436 1.82321 0
M  V30 6409 C 619.788 0.321544 1.6632 0
M  V30 6410 O 620.994 0.493931 1.73091 0
M  V30 6411 H 617.369 0.452084 0.600936 0
M  V30 6412 H 619.34 2.40087 1.77202 0
M  V30 6413 C 618.089 1.35071 3.20392 0
M  V30 6414 H 617.412 2.2076 3.33324 0
M  V30 6415 H 618.852 1.40988 3.99873 0
M  V30 6416 C 617.311 0.0639127 3.36839 0
M  V30 6417 O 617.841 -0.888495 3.91751 0
M  V30 6418 N 616.047 -0.0146114 2.90596 0
M  V30 6419 H 615.594 0.761191 2.46097 0
M  V30 6420 H 615.552 -0.874988 3.01979 0
M  V30 6421 N 619.324 -0.923095 1.27737 0
M  V30 6422 C 620.256 -2.02871 1.06658 0
M  V30 6423 C 621.269 -1.62786 0.0212095 0
M  V30 6424 O 622.458 -1.76548 0.263267 0
M  V30 6425 C 619.558 -3.33603 0.59682 0
M  V30 6426 C 618.731 -4.02354 1.71551 0
M  V30 6427 C 617.79 -5.11364 1.24071 0
M  V30 6428 O 616.816 -5.35075 1.94123 0
M  V30 6429 N 618.018 -5.80416 0.0988444 0
M  V30 6430 H 620.783 -2.21515 2.01869 0
M  V30 6431 H 618.344 -1.09378 1.19365 0
M  V30 6432 H 620.336 -4.03845 0.262984 0
M  V30 6433 H 618.906 -3.11499 -0.262187 0
M  V30 6434 H 618.126 -3.25786 2.2194 0
M  V30 6435 H 619.414 -4.45035 2.46619 0
M  V30 6436 H 618.812 -5.63611 -0.485743 0
M  V30 6437 H 617.369 -6.51563 -0.17578 0
M  V30 6438 N 620.802 -1.09834 -1.13024 0
M  V30 6439 C 621.735 -0.685453 -2.17662 0
M  V30 6440 C 622.713 0.310142 -1.59615 0
M  V30 6441 O 623.897 0.21052 -1.87321 0
M  V30 6442 C 621.024 -0.0104476 -3.38698 0
M  V30 6443 C 620.07 -0.968522 -4.15358 0
M  V30 6444 S 620.903 -2.48272 -4.74469 0
M  V30 6445 C 622.059 -1.82025 -5.98847 0
M  V30 6446 H 622.292 -1.57187 -2.52348 0
M  V30 6447 H 619.825 -0.914728 -1.24387 0
M  V30 6448 H 621.783 0.372694 -4.08805 0
M  V30 6449 H 620.444 0.852673 -3.02305 0
M  V30 6450 H 619.637 -0.443373 -5.02046 0
M  V30 6451 H 619.239 -1.29327 -3.50928 0
M  V30 6452 H 621.531 -1.14678 -6.67724 0
M  V30 6453 H 622.474 -2.66645 -6.55977 0
M  V30 6454 H 622.882 -1.2874 -5.49624 0
M  V30 6455 N 622.28 1.30327 -0.886154 0
M  V30 6456 C 623.23 2.25668 -0.325248 0
M  V30 6457 C 624.214 1.51318 0.546972 0
M  V30 6458 O 625.406 1.72623 0.391203 0
M  V30 6459 C 622.535 3.40229 0.458167 0
M  V30 6460 C 621.621 4.21933 -0.428208 0
M  V30 6461 N 622.012 4.82129 -1.52921 0
M  V30 6462 C 620.31 4.45439 -0.223535 0
M  V30 6463 C 621.011 5.43351 -2.07714 0
M  V30 6464 N 619.987 5.26002 -1.37195 0
M  V30 6465 H 623.789 2.69759 -1.1665 0
M  V30 6466 H 621.303 1.4478 -0.735691 0
M  V30 6467 H 623.3 4.07579 0.876648 0
M  V30 6468 H 621.96 2.97678 1.29684 0
M  V30 6469 H 622.971 4.81312 -1.91205 0
M  V30 6470 H 619.648 4.13481 0.577875 0
M  V30 6471 H 621.038 6.01118 -3.00178 0
M  V30 6472 N 623.758 0.647228 1.43697 0
M  V30 6473 C 624.721 -0.0385101 2.29168 0
M  V30 6474 C 625.721 -0.756487 1.41894 0
M  V30 6475 O 626.911 -0.598641 1.63591 0
M  V30 6476 C 624.043 -1.06524 3.23829 0
M  V30 6477 H 625.236 0.713445 2.9129 0
M  V30 6478 H 622.789 0.408153 1.50877 0
M  V30 6479 H 623.524 -1.84664 2.66589 0
M  V30 6480 H 623.309 -0.554147 3.88164 0
M  V30 6481 H 624.799 -1.54432 3.87996 0
M  V30 6482 N 625.236 -1.5273 0.388769 0
M  V30 6483 C 626.461 -2.0647 -0.19621 0
M  V30 6484 C 626.886 -1.25865 -1.39784 0
M  V30 6485 O 626.244 -0.283562 -1.79069 0
M  V30 6486 C 626.292 -3.56456 -0.5451 0
M  V30 6487 O 625.396 -3.78426 -1.63912 0
M  V30 6488 H 624.737 -0.663599 -0.023067 0
M  V30 6489 H 627.267 -1.96898 0.556084 0
M  V30 6490 H 627.277 -3.99888 -0.809557 0
M  V30 6491 H 625.952 -4.14561 0.333417 0
M  V30 6492 H 624.529 -3.46884 -1.36842 0
M  V30 6493 N 626.714 -0.118576 -1.57153 0
M  V30 6494 C 627.944 0.546466 -1.99242 0
M  V30 6495 C 628.352 1.60791 -0.997148 0
M  V30 6496 O 627.695 1.83691 0.0181745 0
M  V30 6497 C 627.757 1.23167 -3.37743 0
M  V30 6498 C 627.421 0.318226 -4.55891 0
M  V30 6499 C 628.418 -0.442988 -5.18009 0
M  V30 6500 C 626.103 0.229421 -5.01776 0
M  V30 6501 C 628.097 -1.28074 -6.244 0
M  V30 6502 C 625.784 -0.611966 -6.08028 0
M  V30 6503 C 626.782 -1.36568 -6.69207 0
M  V30 6504 O 626.47 -2.1931 -7.73407 0
M  V30 6505 H 626.202 0.149297 -0.659307 0
M  V30 6506 H 628.756 -0.201603 -2.04408 0
M  V30 6507 H 626.986 2.0268 -3.29329 0
M  V30 6508 H 628.675 1.79358 -3.64123 0
M  V30 6509 H 629.441 -0.38425 -4.83475 0
M  V30 6510 H 625.32 0.805771 -4.53903 0
M  V30 6511 H 628.864 -1.86952 -6.72082 0
M  V30 6512 H 624.761 -0.6721 -6.41991 0
M  V30 6513 H 625.529 -2.12247 -7.90502 0
M  V30 6514 N 628.193 1.56834 0.155195 0
M  V30 6515 C 629.123 2.00678 1.19376 0
M  V30 6516 C 630.104 0.884973 1.45266 0
M  V30 6517 O 631.289 1.1522 1.56326 0
M  V30 6518 C 628.419 2.38042 2.5289 0
M  V30 6519 C 627.373 3.53332 2.41538 0
M  V30 6520 C 626.699 3.76485 3.79688 0
M  V30 6521 C 627.999 4.86265 1.9064 0
M  V30 6522 H 629.693 2.87688 0.829232 0
M  V30 6523 H 627.239 1.38407 0.397445 0
M  V30 6524 H 629.192 2.67314 3.25763 0
M  V30 6525 H 627.916 1.4796 2.91162 0
M  V30 6526 H 626.575 3.24213 1.71117 0
M  V30 6527 H 626.223 2.83667 4.15382 0
M  V30 6528 H 625.923 4.54068 3.72956 0
M  V30 6529 H 627.447 4.08174 4.54122 0
M  V30 6530 H 628.861 5.14308 2.53299 0
M  V30 6531 H 627.258 5.67597 1.94818 0
M  V30 6532 H 628.328 4.77184 0.861596 0
M  V30 6533 N 629.671 -0.424282 1.51781 0
M  V30 6534 C 630.918 -1.1726 1.65095 0
M  V30 6535 C 631.246 -1.90881 0.373477 0
M  V30 6536 O 630.501 -1.84835 -0.642997 0
M  V30 6537 C 630.8 -2.20418 2.81337 0
M  V30 6538 C 630.466 -1.63715 4.20129 0
M  V30 6539 C 629.128 -1.47975 4.57883 0
M  V30 6540 C 631.48 -1.22157 5.06682 0
M  V30 6541 C 628.808 -0.891703 5.79884 0
M  V30 6542 C 631.16 -0.647767 6.29275 0
M  V30 6543 C 629.824 -0.477371 6.65791 0
M  V30 6544 H 629.094 -0.429085 0.604125 0
M  V30 6545 H 631.741 -0.461852 1.85847 0
M  V30 6546 H 630.046 -2.97581 2.54859 0
M  V30 6547 H 631.743 -2.78163 2.88836 0
M  V30 6548 H 628.333 -1.76946 3.90369 0
M  V30 6549 H 632.517 -1.33133 4.7811 0
M  V30 6550 H 627.773 -0.747563 6.06813 0
M  V30 6551 H 631.947 -0.317291 6.95677 0
M  V30 6552 H 629.574 -0.0195936 7.60197 0
M  V30 6553 N 631.149 -1.42148 -0.680565 0
M  V30 6554 C 632.081 -1.41119 -1.80605 0
M  V30 6555 C 633.094 -0.311099 -1.598 0
M  V30 6556 O 634.283 -0.573813 -1.69026 0
M  V30 6557 C 631.383 -1.18204 -3.17618 0
M  V30 6558 C 630.556 -2.40537 -3.65322 0
M  V30 6559 C 629.615 -2.13254 -4.8105 0
M  V30 6560 O 628.641 -2.8641 -4.91892 0
M  V30 6561 N 629.843 -1.13208 -5.69354 0
M  V30 6562 H 632.608 -2.38128 -1.81975 0
M  V30 6563 H 630.169 -1.36953 -0.863446 0
M  V30 6564 H 632.161 -0.97878 -3.92686 0
M  V30 6565 H 630.731 -0.29738 -3.11182 0
M  V30 6566 H 629.951 -2.76468 -2.80996 0
M  V30 6567 H 631.239 -3.22012 -3.93936 0
M  V30 6568 H 630.637 -0.526893 -5.63241 0
M  V30 6569 H 629.194 -0.988699 -6.44258 0
M  V30 6570 N 632.627 0.916307 -1.28225 0
M  V30 6571 C 633.559 2.02303 -1.07732 0
M  V30 6572 C 634.572 1.62773 -0.0298421 0
M  V30 6573 O 635.761 1.76406 -0.272626 0
M  V30 6574 C 632.861 3.33282 -0.614504 0
M  V30 6575 C 632.034 4.01439 -1.73682 0
M  V30 6576 C 631.093 5.10698 -1.26781 0
M  V30 6577 O 630.119 5.34038 -1.96958 0
M  V30 6578 N 631.321 5.80355 -0.129624 0
M  V30 6579 H 634.086 2.20442 -2.03041 0
M  V30 6580 H 631.647 1.08744 -1.19943 0
M  V30 6581 H 633.639 4.03699 -0.284397 0
M  V30 6582 H 632.209 3.11633 0.245664 0
M  V30 6583 H 631.429 3.24604 -2.23665 0
M  V30 6584 H 632.717 4.43721 -2.48976 0
M  V30 6585 H 632.115 5.6386 0.455847 0
M  V30 6586 H 630.672 6.51647 0.141224 0
M  V30 6587 N 634.105 1.10431 1.1244 0
M  V30 6588 C 635.382 0.758797 1.80282 0
M  V30 6589 C 635.762 -0.754727 1.97147 0
M  V30 6590 O 635.11 -1.68094 1.54779 0
M  V30 6591 C 635.32 1.50982 3.14651 0
M  V30 6592 C 636.668 1.68232 3.8985 0
M  V30 6593 O 637.692 1.47319 3.24308 0
M  V30 6594 O 636.551 2.02905 5.07437 0
M  V30 6595 H 633.645 0.273756 0.780376 0
M  V30 6596 H 636.191 1.20713 1.19275 0
M  V30 6597 H 634.963 2.53989 2.97666 0
M  V30 6598 H 634.586 1.05435 3.83366 0
M  V30 6599 N 635.583 -1.29855 0.893053 0
M  V30 6600 C 636.53 -2.27909 0.364161 0
M  V30 6601 C 637.5 -1.56726 -0.550093 0
M  V30 6602 O 638.685 -1.84747 -0.47677 0
M  V30 6603 C 635.825 -3.42678 -0.408178 0
M  V30 6604 C 634.938 -4.28659 0.536212 0
M  V30 6605 C 634.073 -5.30599 -0.252521 0
M  V30 6606 C 633.112 -6.08234 0.686822 0
M  V30 6607 N 632.249 -7.02068 -0.0670902 0
M  V30 6608 H 637.089 -2.72531 1.20544 0
M  V30 6609 H 634.626 -1.34047 0.605779 0
M  V30 6610 H 636.584 -4.07986 -0.871962 0
M  V30 6611 H 635.214 -2.99103 -1.21397 0
M  V30 6612 H 634.266 -3.63584 1.1185 0
M  V30 6613 H 635.578 -4.8274 1.25552 0
M  V30 6614 H 634.732 -6.01694 -0.777801 0
M  V30 6615 H 633.471 -4.77233 -1.005 0
M  V30 6616 H 632.476 -5.3601 1.22366 0
M  V30 6617 H 633.701 -6.63689 1.43852 0
M  V30 6618 H 631.647 -6.5108 -0.801955 0
M  V30 6619 H 631.564 -7.53675 0.59243 0
M  V30 6620 H 632.832 -7.77392 -0.572851 0
M  V30 6621 N 637.061 -0.65484 -1.43351 0
M  V30 6622 C 638.011 0.0581325 -2.27926 0
M  V30 6623 C 638.995 0.793188 -1.3999 0
M  V30 6624 O 640.187 0.675387 -1.63608 0
M  V30 6625 C 637.316 1.02272 -3.27712 0
M  V30 6626 C 636.402 0.286048 -4.23134 0
M  V30 6627 N 636.793 -0.698298 -5.00957 0
M  V30 6628 C 635.091 0.527272 -4.42872 0
M  V30 6629 C 635.792 -1.1357 -5.70506 0
M  V30 6630 N 634.768 -0.469631 -5.41568 0
M  V30 6631 H 638.57 -0.697182 -2.85511 0
M  V30 6632 H 636.084 -0.482252 -1.55074 0
M  V30 6633 H 638.081 1.5483 -3.87083 0
M  V30 6634 H 636.741 1.77807 -2.71688 0
M  V30 6635 H 637.752 -1.07708 -5.06576 0
M  V30 6636 H 634.429 1.26367 -3.97916 0
M  V30 6637 H 635.819 -1.95027 -6.42973 0
M  V30 6638 N 638.539 1.52521 -0.396863 0
M  V30 6639 C 639.769 2.05792 0.182485 0
M  V30 6640 C 640.177 1.26784 1.40436 0
M  V30 6641 O 639.52 0.309617 1.81072 0
M  V30 6642 C 639.582 3.54291 0.609781 0
M  V30 6643 C 639.246 4.5426 -0.499674 0
M  V30 6644 C 640.243 5.01812 -1.35944 0
M  V30 6645 C 637.928 4.97827 -0.668864 0
M  V30 6646 C 639.922 5.91562 -2.37346 0
M  V30 6647 C 637.609 5.87376 -1.68621 0
M  V30 6648 C 638.607 6.34137 -2.53692 0
M  V30 6649 O 638.295 7.21915 -3.53686 0
M  V30 6650 H 638.027 0.675362 0.0293583 0
M  V30 6651 H 640.581 1.97539 -0.56281 0
M  V30 6652 H 638.811 3.60188 1.40717 0
M  V30 6653 H 640.5 3.90267 1.11565 0
M  V30 6654 H 641.266 4.68879 -1.24008 0
M  V30 6655 H 637.145 4.60997 -0.0163971 0
M  V30 6656 H 640.689 6.27983 -3.03782 0
M  V30 6657 H 636.586 6.19723 -1.80593 0
M  V30 6658 H 637.354 7.39996 -3.49784 0
M  V30 6659 N 640.017 0.126909 1.57088 0
M  V30 6660 C 641.294 -0.573152 1.87014 0
M  V30 6661 C 641.674 -1.84297 1.02945 0
M  V30 6662 O 641.022 -2.28232 0.110573 0
M  V30 6663 C 641.232 -0.857984 3.38289 0
M  V30 6664 C 642.58 -1.20759 4.07066 0
M  V30 6665 O 643.604 -0.947992 3.43353 0
M  V30 6666 O 642.463 -1.69516 5.19545 0
M  V30 6667 H 639.557 -0.290082 0.774456 0
M  V30 6668 H 642.103 0.162008 1.68925 0
M  V30 6669 H 640.875 0.0415286 3.91278 0
M  V30 6670 H 640.498 -1.64803 3.61837 0
M  V30 6671 N 641.495 -1.56914 -0.146875 0
M  V30 6672 C 642.425 -2.01308 -1.1831 0
M  V30 6673 C 643.406 -0.892664 -1.44795 0
M  V30 6674 O 644.591 -1.16048 -1.55713 0
M  V30 6675 C 641.721 -2.3938 -2.51624 0
M  V30 6676 C 640.675 -3.54608 -2.3966 0
M  V30 6677 C 640.001 -3.78493 -3.77686 0
M  V30 6678 C 641.301 -4.87269 -1.88058 0
M  V30 6679 H 642.995 -2.88123 -0.813964 0
M  V30 6680 H 640.541 -1.38615 -0.3901 0
M  V30 6681 H 642.494 -2.69037 -3.24341 0
M  V30 6682 H 641.218 -1.49502 -2.90373 0
M  V30 6683 H 639.877 -3.25116 -1.69396 0
M  V30 6684 H 639.525 -2.85866 -4.13871 0
M  V30 6685 H 639.225 -4.56039 -3.70543 0
M  V30 6686 H 640.749 -4.10576 -4.51951 0
M  V30 6687 H 642.163 -5.15644 -2.50568 0
M  V30 6688 H 640.56 -5.68622 -1.91805 0
M  V30 6689 H 641.63 -4.77634 -0.836277 0
M  V30 6690 N 642.974 0.416227 -1.52004 0
M  V30 6691 C 644.199 1.19029 -1.69843 0
M  V30 6692 C 644.624 1.83708 -0.404103 0
M  V30 6693 O 643.982 1.69711 0.637787 0
M  V30 6694 C 644.03 2.23439 -2.83032 0
M  V30 6695 O 643.134 3.29419 -2.48106 0
M  V30 6696 H 642.475 0.347785 -0.565634 0
M  V30 6697 H 645.005 0.488871 -1.98674 0
M  V30 6698 H 645.015 2.67884 -3.07737 0
M  V30 6699 H 643.69 1.75745 -3.76944 0
M  V30 6700 H 642.267 2.90303 -2.34048 0
M  V30 6701 N 644.452 1.42507 0.673017 0
M  V30 6702 C 645.682 1.46261 1.45916 0
M  V30 6703 C 646.09 0.0729724 1.89059 0
M  V30 6704 O 645.433 -0.922987 1.58829 0
M  V30 6705 C 645.495 2.32853 2.73898 0
M  V30 6706 C 645.159 3.80699 2.52819 0
M  V30 6707 C 646.156 4.72307 2.17306 0
M  V30 6708 C 643.841 4.24983 2.67758 0
M  V30 6709 C 645.835 6.06192 1.97003 0
M  V30 6710 C 643.522 5.58927 2.4707 0
M  V30 6711 C 644.52 6.49348 2.11746 0
M  V30 6712 O 644.208 7.80817 1.91259 0
M  V30 6713 H 643.94 0.499561 0.455428 0
M  V30 6714 H 646.494 1.87697 0.834196 0
M  V30 6715 H 644.724 1.86268 3.38882 0
M  V30 6716 H 646.413 2.28041 3.35786 0
M  V30 6717 H 647.179 4.39378 2.05359 0
M  V30 6718 H 643.058 3.54893 2.94231 0
M  V30 6719 H 646.602 6.76731 1.69355 0
M  V30 6720 H 642.499 5.91429 2.58615 0
M  V30 6721 H 643.267 7.92194 2.05843 0
M  V30 6722 N 645.93 -0.909495 1.28709 0
M  V30 6723 C 647.207 -1.63865 1.06806 0
M  V30 6724 C 647.587 -2.07445 -0.391143 0
M  V30 6725 O 646.935 -1.82269 -1.37805 0
M  V30 6726 C 647.145 -2.82692 2.04661 0
M  V30 6727 C 648.493 -3.5361 2.35042 0
M  V30 6728 O 649.517 -2.92847 2.02779 0
M  V30 6729 O 648.376 -4.63131 2.90124 0
M  V30 6730 H 645.47 -0.719065 0.408502 0
M  V30 6731 H 648.016 -0.958424 1.40044 0
M  V30 6732 H 646.788 -2.47614 3.0299 0
M  V30 6733 H 646.411 -3.58426 1.72095 0
M  V30 6734 N 647.408 -1.11026 -1.11852 0
M  V30 6735 C 648.636 -0.878818 -1.87308 0
M  V30 6736 C 649.051 0.57111 -1.79955 0
M  V30 6737 O 648.408 1.39409 -1.17777 0
M  V30 6738 C 648.459 -1.3264 -3.36287 0
M  V30 6739 O 648.18 -2.71948 -3.43476 0
M  V30 6740 C 649.681 -1.12974 -4.28663 0
M  V30 6741 H 646.901 -0.315015 -0.592458 0
M  V30 6742 H 649.445 -1.47649 -1.41492 0
M  V30 6743 H 647.6 -0.772269 -3.79625 0
M  V30 6744 H 648.014 -2.91241 -4.3621 0
M  V30 6745 H 649.488 -1.49198 -5.31454 0
M  V30 6746 H 649.965 -0.0689127 -4.39146 0
M  V30 6747 H 650.571 -1.67064 -3.91113 0
M  V30 6748 N 648.886 1.2938 -0.899927 0
M  V30 6749 C 650.134 1.95164 -0.524924 0
M  V30 6750 C 650.455 1.71292 0.931888 0
M  V30 6751 O 649.725 1.04481 1.65712 0
M  V30 6752 H 648.305 0.722133 -0.191135 0
M  V30 6753 H 650.967 1.57628 -1.14627 0
M  V30 6754 H 650.063 3.0397 -0.707711 0
M  V30 6755 N 650.364 0.662433 1.43002 0
M  V30 6756 C 651.641 0.109096 1.95296 0
M  V30 6757 C 652.021 -1.37313 1.60338 0
M  V30 6758 O 651.369 -2.1032 0.893187 0
M  V30 6759 C 651.579 0.365096 3.47085 0
M  V30 6760 C 652.927 0.274964 4.23709 0
M  V30 6761 O 653.951 0.29816 3.5495 0
M  V30 6762 O 652.81 0.206549 5.4611 0
M  V30 6763 H 649.904 -0.00429724 0.826989 0
M  V30 6764 H 652.45 0.736308 1.52894 0
M  V30 6765 H 651.222 1.39237 3.65689 0
M  V30 6766 H 650.845 -0.294733 3.96506 0
M  V30 6767 N 651.842 -1.52309 0.404946 0
M  V30 6768 C 652.789 -2.26898 -0.422597 0
M  V30 6769 C 653.759 -1.2914 -1.04461 0
M  V30 6770 O 654.944 -1.57996 -1.06967 0
M  V30 6771 C 652.084 -3.09053 -1.53559 0
M  V30 6772 C 651.197 -4.21762 -0.934908 0
M  V30 6773 C 650.332 -4.91283 -2.02025 0
M  V30 6774 C 649.371 -5.95962 -1.39628 0
M  V30 6775 N 648.508 -6.59017 -2.42159 0
M  V30 6776 H 653.348 -2.97188 0.219903 0
M  V30 6777 H 650.885 -1.46607 0.120282 0
M  V30 6778 H 652.843 -3.54987 -2.19181 0
M  V30 6779 H 651.473 -2.40942 -2.14818 0
M  V30 6780 H 650.525 -3.80029 -0.167854 0
M  V30 6781 H 651.837 -4.96864 -0.439073 0
M  V30 6782 H 650.991 -5.40601 -2.75383 0
M  V30 6783 H 649.73 -4.15741 -2.54973 0
M  V30 6784 H 648.735 -5.45968 -0.648023 0
M  V30 6785 H 649.96 -6.73445 -0.874553 0
M  V30 6786 H 647.906 -5.86306 -2.94247 0
M  V30 6787 H 647.823 -7.2978 -1.97376 0
M  V30 6788 H 649.091 -7.12974 -3.15099 0
M  V30 6789 N 653.32 -0.135238 -1.57019 0
M  V30 6790 C 654.283 0.794707 -2.14981 0
M  V30 6791 C 655.283 1.18342 -1.08866 0
M  V30 6792 O 656.473 1.10627 -1.34563 0
M  V30 6793 C 653.605 2.07685 -2.70333 0
M  V30 6794 H 654.798 0.290696 -2.98488 0
M  V30 6795 H 652.351 0.114128 -1.55883 0
M  V30 6796 H 653.086 2.6248 -1.9046 0
M  V30 6797 H 652.871 1.80745 -3.47957 0
M  V30 6798 H 654.361 2.74127 -3.1503 0
M  V30 6799 N 654.798 1.5699 0.138552 0
M  V30 6800 C 655.728 2.01933 1.17241 0
M  V30 6801 C 656.709 0.90033 1.44319 0
M  V30 6802 O 657.894 1.16872 1.55095 0
M  V30 6803 C 655.024 2.40711 2.50351 0
M  V30 6804 C 653.978 3.55874 2.37776 0
M  V30 6805 C 653.304 3.80491 3.75674 0
M  V30 6806 C 654.604 4.8826 1.85472 0
M  V30 6807 H 656.298 2.88551 0.798672 0
M  V30 6808 H 653.844 1.3882 0.382743 0
M  V30 6809 H 655.797 2.70754 3.22909 0
M  V30 6810 H 654.521 1.5104 2.89576 0
M  V30 6811 H 653.18 3.2601 1.67669 0
M  V30 6812 H 652.828 2.88057 4.12349 0
M  V30 6813 H 652.528 4.57998 3.68119 0
M  V30 6814 H 654.052 4.12967 4.49767 0
M  V30 6815 H 655.466 5.16965 2.4783 0
M  V30 6816 H 653.863 5.69631 1.88787 0
M  V30 6817 H 654.933 4.78071 0.810935 0
M  V30 6818 N 656.276 -0.40816 1.52223 0
M  V30 6819 C 657.208 -1.51642 1.71864 0
M  V30 6820 C 658.221 -1.51378 0.599056 0
M  V30 6821 O 659.41 -1.55626 0.874239 0
M  V30 6822 C 656.51 -2.90534 1.74481 0
M  V30 6823 C 655.683 -3.14979 3.03491 0
M  V30 6824 C 654.742 -4.33749 2.97907 0
M  V30 6825 O 653.768 -4.30982 3.71811 0
M  V30 6826 N 654.97 -5.38912 2.15764 0
M  V30 6827 H 657.735 -1.35188 2.67478 0
M  V30 6828 H 655.296 -0.597468 1.50472 0
M  V30 6829 H 657.288 -3.68056 1.68275 0
M  V30 6830 H 655.858 -3.00441 0.863363 0
M  V30 6831 H 655.078 -2.25492 3.23337 0
M  V30 6832 H 656.366 -3.28156 3.88833 0
M  V30 6833 H 655.764 -5.44008 1.55152 0
M  V30 6834 H 654.321 -6.15174 2.15415 0
M  V30 6835 N 657.755 -1.42862 -0.66545 0
M  V30 6836 C 658.995 -1.45323 -1.43738 0
M  V30 6837 C 659.359 -0.0707969 -1.91869 0
M  V30 6838 O 660.56 0.0298852 -2.68783 0
M  V30 6839 C 658.831 -2.45671 -2.59577 0
M  V30 6840 S 660.39 -2.6691 -3.48288 0
M  V30 6841 H 657.208 -0.51442 -0.490809 0
M  V30 6842 H 659.81 -1.79537 -0.773745 0
M  V30 6843 H 658.514 -3.44869 -2.22471 0
M  V30 6844 H 658.045 -2.12914 -3.30804 0
M  V30 6845 H 660.06 -1.95914 -4.55886 0
M  V30 6846 N 659.233 0.902656 -1.29189 0
M  V30 6847 C 660.481 1.6496 -1.16758 0
M  V30 6848 C 660.802 1.92952 0.28188 0
M  V30 6849 O 660.072 1.55351 1.19344 0
M  V30 6850 H 658.652 0.611447 -0.429118 0
M  V30 6851 H 661.314 1.0825 -1.62074 0
M  V30 6852 H 660.41 2.60728 -1.71544 0
M  V30 6853 N 660.711 1.11618 1.11262 0
M  V30 6854 C 662.127 0.850468 1.35053 0
M  V30 6855 C 662.327 -0.523868 1.94571 0
M  V30 6856 O 661.383 -1.2743 2.17986 0
M  V30 6857 C 662.696 1.96005 2.28041 0
M  V30 6858 C 664.244 1.98993 2.416 0
M  V30 6859 C 664.719 3.0916 3.37911 0
M  V30 6860 N 666.21 3.08547 3.45475 0
M  V30 6861 C 666.945 3.9043 4.19943 0
M  V30 6862 N 666.441 4.8228 4.97371 0
M  V30 6863 N 668.234 3.786 4.15474 0
M  V30 6864 H 660.385 2.00184 0.709932 0
M  V30 6865 H 662.648 0.870635 0.375099 0
M  V30 6866 H 662.354 2.9499 1.91503 0
M  V30 6867 H 662.228 1.85782 3.28275 0
M  V30 6868 H 664.615 1.00633 2.77411 0
M  V30 6869 H 664.696 2.13292 1.4121 0
M  V30 6870 H 664.34 4.07748 3.02827 0
M  V30 6871 H 664.27 2.92102 4.3816 0
M  V30 6872 H 666.761 2.42 2.90249 0
M  V30 6873 H 667.074 5.41289 5.51567 0
M  V30 6874 H 665.419 4.863 4.96525 0
M  V30 6875 H 668.61 3.06185 3.54074 0
M  V30 6876 H 668.783 4.42647 4.73253 0
M  V30 6877 N 662.189 -1.289 0.906776 0
M  V30 6878 C 663.139 -2.25122 0.361109 0
M  V30 6879 C 664.123 -1.52169 -0.52283 0
M  V30 6880 O 665.315 -1.73223 -0.363691 0
M  V30 6881 C 662.444 -3.40915 -0.403982 0
M  V30 6882 C 661.53 -4.21198 0.495279 0
M  V30 6883 N 661.921 -4.79636 1.60572 0
M  V30 6884 C 660.219 -4.45027 0.294372 0
M  V30 6885 C 660.92 -5.39977 2.16332 0
M  V30 6886 N 659.896 -5.23753 1.45546 0
M  V30 6887 H 663.698 -2.67869 1.20927 0
M  V30 6888 H 661.212 -1.43592 0.758632 0
M  V30 6889 H 663.209 -4.08922 -0.811695 0
M  V30 6890 H 661.869 -2.99703 -1.24932 0
M  V30 6891 H 662.88 -4.78209 1.98838 0
M  V30 6892 H 659.557 -4.14348 -0.512021 0
M  V30 6893 H 660.947 -5.96266 3.09704 0
M  V30 6894 N 663.667 -0.670007 -1.42649 0
M  V30 6895 C 664.913 -0.190568 -2.01903 0
M  V30 6896 C 665.246 1.19817 -1.52832 0
M  V30 6897 O 664.521 1.80342 -0.728485 0
M  V30 6898 C 664.804 -0.21991 -3.59428 0
M  V30 6899 C 664.657 -1.64376 -4.18689 0
M  V30 6900 C 665.976 0.434519 -4.3795 0
M  V30 6901 H 663.095 -0.0707219 -0.733599 0
M  V30 6902 H 665.737 -0.853883 -1.69732 0
M  V30 6903 H 663.887 0.344894 -3.86966 0
M  V30 6904 H 665.559 -2.26044 -4.02122 0
M  V30 6905 H 663.802 -2.18591 -3.747 0
M  V30 6906 H 664.473 -1.61601 -5.27815 0
M  V30 6907 H 666.949 -0.0462156 -4.16074 0
M  V30 6908 H 665.825 0.38333 -5.4756 0
M  V30 6909 H 666.086 1.51135 -4.15464 0
M  V30 6910 N 665.145 1.52092 -0.413018 0
M  V30 6911 C 666.422 1.94356 0.22024 0
M  V30 6912 C 666.802 1.35017 1.62277 0
M  V30 6913 O 666.15 0.527511 2.22328 0
M  V30 6914 C 666.36 3.48289 0.222638 0
M  V30 6915 C 667.708 4.22313 0.440098 0
M  V30 6916 O 668.732 3.54919 0.301826 0
M  V30 6917 O 667.591 5.41829 0.712984 0
M  V30 6918 H 664.685 0.814536 0.14304 0
M  V30 6919 H 667.231 1.63083 -0.469242 0
M  V30 6920 H 666.003 3.83872 -0.758836 0
M  V30 6921 H 665.626 3.85934 0.956057 0
M  V30 6922 N 666.623 0.143563 1.56945 0
M  V30 6923 C 667.869 -0.50916 1.96304 0
M  V30 6924 C 668.202 -1.64741 1.0283 0
M  V30 6925 O 667.477 -1.94374 0.0700361 0
M  V30 6926 C 667.76 -1.0186 3.45393 0
M  V30 6927 C 667.613 0.117923 4.49645 0
M  V30 6928 C 668.932 -1.90151 3.96901 0
M  V30 6929 H 666.051 -0.183608 0.713763 0
M  V30 6930 H 668.693 0.224095 1.88674 0
M  V30 6931 H 666.843 -1.64345 3.52027 0
M  V30 6932 H 668.515 0.754145 4.55094 0
M  V30 6933 H 666.758 0.777568 4.26774 0
M  V30 6934 H 667.429 -0.280187 5.51288 0
M  V30 6935 H 669.905 -1.375 3.92725 0
M  V30 6936 H 668.781 -2.22707 5.0169 0
M  V30 6937 H 669.042 -2.83718 3.39052 0
M  V30 6938 N 668.101 -1.57061 -0.130224 0
M  V30 6939 C 669.348 -1.84257 -0.839972 0
M  V30 6940 C 669.676 -0.726986 -1.80403 0
M  V30 6941 O 668.931 0.282632 -1.93648 0
M  V30 6942 C 669.23 -3.17878 -1.63365 0
M  V30 6943 C 668.896 -4.43475 -0.814891 0
M  V30 6944 C 667.558 -4.77581 -0.589066 0
M  V30 6945 C 669.91 -5.20631 -0.243437 0
M  V30 6946 C 667.238 -5.86292 0.218648 0
M  V30 6947 C 669.59 -6.30192 0.551408 0
M  V30 6948 C 668.254 -6.62837 0.787653 0
M  V30 6949 H 667.524 -0.674245 -0.307367 0
M  V30 6950 H 670.171 -1.91224 -0.102832 0
M  V30 6951 H 668.476 -3.06437 -2.44138 0
M  V30 6952 H 670.173 -3.3614 -2.18658 0
M  V30 6953 H 666.763 -4.16747 -1.00098 0
M  V30 6954 H 670.947 -4.94644 -0.405145 0
M  V30 6955 H 666.203 -6.10017 0.411016 0
M  V30 6956 H 670.377 -6.89165 1.00126 0
M  V30 6957 H 668.004 -7.46908 1.41537 0
M  V30 6958 N 669.579 0.400081 -1.52437 0
M  V30 6959 C 670.526 1.48803 -1.76426 0
M  V30 6960 C 671.496 1.5461 -0.607032 0
M  V30 6961 O 672.681 1.71041 -0.845563 0
M  V30 6962 C 669.821 2.86156 -1.92896 0
M  V30 6963 C 668.934 2.89587 -3.20567 0
M  V30 6964 C 668.069 4.18296 -3.27417 0
M  V30 6965 C 667.108 4.15736 -4.49255 0
M  V30 6966 N 666.245 5.36032 -4.53447 0
M  V30 6967 H 671.085 1.27649 -2.69276 0
M  V30 6968 H 668.622 0.619451 -1.33421 0
M  V30 6969 H 670.58 3.65901 -2.00429 0
M  V30 6970 H 669.21 3.05785 -1.03418 0
M  V30 6971 H 668.262 2.02278 -3.22161 0
M  V30 6972 H 669.574 2.83562 -4.10358 0
M  V30 6973 H 668.728 5.06439 -3.34072 0
M  V30 6974 H 667.467 4.27028 -2.35581 0
M  V30 6975 H 666.472 3.25982 -4.42737 0
M  V30 6976 H 667.697 4.08636 -5.42396 0
M  V30 6977 H 665.643 5.45415 -3.64498 0
M  V30 6978 H 665.56 5.32038 -5.37096 0
M  V30 6979 H 666.828 6.26104 -4.64343 0
M  V30 6980 N 671.057 1.43213 0.657864 0
M  V30 6981 C 671.987 1.50815 1.78262 0
M  V30 6982 C 672.968 0.363211 1.66177 0
M  V30 6983 O 674.153 0.579806 1.85343 0
M  V30 6984 C 671.283 1.42625 3.16663 0
M  V30 6985 C 670.237 2.5532 3.43505 0
M  V30 6986 C 669.563 2.32184 4.81658 0
M  V30 6987 C 670.863 3.97583 3.38711 0
M  V30 6988 H 672.557 2.44954 1.72157 0
M  V30 6989 H 670.103 1.17896 0.82683 0
M  V30 6990 H 672.056 1.46548 3.95097 0
M  V30 6991 H 670.78 0.449877 3.23487 0
M  V30 6992 H 669.439 2.50742 2.6744 0
M  V30 6993 H 669.087 1.32801 4.85153 0
M  V30 6994 H 668.787 3.07724 5.00579 0
M  V30 6995 H 670.311 2.37883 5.62356 0
M  V30 6996 H 671.725 4.03673 4.07089 0
M  V30 6997 H 670.122 4.73112 3.69168 0
M  V30 6998 H 671.192 4.23049 2.36976 0
M  V30 6999 N 672.536 -0.895792 1.29666 0
M  V30 7000 C 673.782 -1.64921 1.19049 0
M  V30 7001 C 674.137 -1.90707 -0.254678 0
M  V30 7002 O 673.43 -1.5092 -1.18041 0
M  V30 7003 C 673.624 -3.00075 1.94139 0
M  V30 7004 C 673.453 -2.87482 3.4581 0
M  V30 7005 C 672.223 -2.88041 4.15163 0
M  V30 7006 C 674.421 -2.64224 4.41237 0
M  V30 7007 N 672.403 -2.66226 5.5317 0
M  V30 7008 C 673.774 -2.51427 5.66732 0
M  V30 7009 C 675.829 -2.49362 4.30956 0
M  V30 7010 C 674.532 -2.25281 6.83111 0
M  V30 7011 C 676.558 -2.246 5.47091 0
M  V30 7012 C 675.92 -2.12571 6.7156 0
M  V30 7013 H 672.019 -0.608926 0.490646 0
M  V30 7014 H 674.603 -1.05648 1.63544 0
M  V30 7015 H 672.774 -3.574 1.52052 0
M  V30 7016 H 674.506 -3.64544 1.75754 0
M  V30 7017 H 671.261 -2.99471 3.66898 0
M  V30 7018 H 671.685 -2.58361 6.25762 0
M  V30 7019 H 676.327 -2.57403 3.35415 0
M  V30 7020 H 674.045 -2.15978 7.78704 0
M  V30 7021 H 677.631 -2.13939 5.41037 0
M  V30 7022 H 676.511 -1.93676 7.59907 0
M  V30 7023 N 674.014 -1.12206 -1.10668 0
M  V30 7024 C 674.944 -0.810086 -2.18997 0
M  V30 7025 C 675.925 0.225065 -1.68604 0
M  V30 7026 O 677.11 0.086783 -1.94006 0
M  V30 7027 C 674.24 -0.261262 -3.46316 0
M  V30 7028 C 673.194 -1.2292 -4.09969 0
M  V30 7029 C 672.52 -0.540713 -5.31959 0
M  V30 7030 C 673.82 -2.58295 -4.53962 0
M  V30 7031 H 675.514 -1.7159 -2.45352 0
M  V30 7032 H 673.06 -0.82646 -1.17922 0
M  V30 7033 H 675.013 -0.0307522 -4.21389 0
M  V30 7034 H 673.737 0.679879 -3.19445 0
M  V30 7035 H 672.396 -1.44548 -3.369 0
M  V30 7036 H 672.044 0.405492 -5.01363 0
M  V30 7037 H 671.744 -1.18637 -5.75499 0
M  V30 7038 H 673.268 -0.319184 -6.09765 0
M  V30 7039 H 674.682 -2.40709 -5.20319 0
M  V30 7040 H 673.079 -3.18916 -5.08343 0
M  V30 7041 H 674.149 -3.16918 -3.67002 0
M  V30 7042 N 675.492 1.28418 -0.913599 0
M  V30 7043 C 676.425 2.25557 -0.346328 0
M  V30 7044 C 677.403 1.53038 0.549366 0
M  V30 7045 O 678.587 1.81937 0.493055 0
M  V30 7046 C 675.714 3.34915 0.504961 0
M  V30 7047 C 674.76 4.25257 -0.325334 0
M  V30 7048 S 675.593 5.06718 -1.73198 0
M  V30 7049 C 676.749 6.19569 -0.887988 0
M  V30 7050 H 676.982 2.73325 -1.16965 0
M  V30 7051 H 674.515 1.36855 -0.714841 0
M  V30 7052 H 676.473 3.98376 0.990301 0
M  V30 7053 H 675.134 2.85814 1.30267 0
M  V30 7054 H 674.327 5.02947 0.325589 0
M  V30 7055 H 673.929 3.66519 -0.744321 0
M  V30 7056 H 676.221 6.77398 -0.117568 0
M  V30 7057 H 677.164 6.88908 -1.63742 0
M  V30 7058 H 677.572 5.62812 -0.436228 0
M  V30 7059 N 676.97 0.677563 1.42291 0
M  V30 7060 C 678.216 0.209962 2.02313 0
M  V30 7061 C 678.571 -1.1714 1.52631 0
M  V30 7062 O 677.864 -1.7756 0.719938 0
M  V30 7063 C 678.058 0.187229 3.56909 0
M  V30 7064 C 677.887 1.56484 4.21595 0
M  V30 7065 C 676.657 2.16329 4.56651 0
M  V30 7066 C 678.855 2.50805 4.49 0
M  V30 7067 N 676.837 3.46842 5.06531 0
M  V30 7068 C 678.208 3.65976 5.00461 0
M  V30 7069 C 680.263 2.493 4.30992 0
M  V30 7070 C 678.966 4.79899 5.35807 0
M  V30 7071 C 680.992 3.62322 4.67415 0
M  V30 7072 C 680.354 4.76221 5.19031 0
M  V30 7073 H 676.453 0.121815 0.772454 0
M  V30 7074 H 679.037 0.891148 1.73109 0
M  V30 7075 H 677.208 -0.46338 3.85626 0
M  V30 7076 H 678.94 -0.293512 4.03634 0
M  V30 7077 H 675.695 1.6879 4.42501 0
M  V30 7078 H 676.119 4.13694 5.35898 0
M  V30 7079 H 680.761 1.62467 3.90339 0
M  V30 7080 H 678.479 5.67406 5.75392 0
M  V30 7081 H 682.065 3.62388 4.55155 0
M  V30 7082 H 680.945 5.62228 5.46689 0
M  V30 7083 N 678.448 -1.51871 0.421078 0
M  V30 7084 C 679.864 -1.59435 0.0725398 0
M  V30 7085 C 680.064 -1.43315 -1.41644 0
M  V30 7086 O 679.12 -1.26614 -2.18461 0
M  V30 7087 C 680.433 -2.9509 0.578132 0
M  V30 7088 C 681.981 -3.08356 0.537149 0
M  V30 7089 C 682.456 -4.4651 1.01945 0
M  V30 7090 N 683.947 -4.52784 0.976758 0
M  V30 7091 C 684.682 -5.57976 1.32099 0
M  V30 7092 N 684.178 -6.70664 1.73727 0
M  V30 7093 N 685.971 -5.48248 1.2402 0
M  V30 7094 H 678.122 -1.60595 1.39007 0
M  V30 7095 H 680.385 -0.756138 0.571803 0
M  V30 7096 H 680.091 -3.12205 1.61929 0
M  V30 7097 H 679.965 -3.772 -0.00578374 0
M  V30 7098 H 682.352 -2.90919 -0.494991 0
M  V30 7099 H 682.433 -2.28125 1.15727 0
M  V30 7100 H 682.077 -4.64692 2.04997 0
M  V30 7101 H 682.007 -5.25256 0.376023 0
M  V30 7102 H 684.498 -3.71898 0.670851 0
M  V30 7103 H 684.811 -7.46932 1.98274 0
M  V30 7104 H 683.156 -6.71914 1.77641 0
M  V30 7105 H 686.347 -4.59095 0.913756 0
M  V30 7106 H 686.52 -6.30119 1.51176 0
M  V30 7107 N 679.926 -0.151884 -1.56866 0
M  V30 7108 C 680.889 0.771861 -2.15812 0
M  V30 7109 C 681.889 1.17181 -1.10115 0
M  V30 7110 O 683.079 1.09194 -1.35729 0
M  V30 7111 C 680.211 2.04806 -2.7252 0
M  V30 7112 H 681.404 0.259021 -2.98779 0
M  V30 7113 H 678.957 0.097588 -1.55995 0
M  V30 7114 H 679.692 2.60445 -1.93233 0
M  V30 7115 H 679.477 1.77044 -3.49854 0
M  V30 7116 H 680.967 2.70771 -3.1792 0
M  V30 7117 N 681.404 1.57128 0.121893 0
M  V30 7118 C 682.351 2.0013 1.14964 0
M  V30 7119 C 683.321 0.872959 1.4131 0
M  V30 7120 O 684.506 1.13696 1.53225 0
M  V30 7121 C 681.646 2.40824 2.4718 0
M  V30 7122 C 680.759 3.67061 2.27794 0
M  V30 7123 C 679.894 3.96749 3.53219 0
M  V30 7124 C 678.933 5.16178 3.28978 0
M  V30 7125 N 678.07 5.41751 4.46599 0
M  V30 7126 H 682.91 2.8772 0.775947 0
M  V30 7127 H 680.447 1.42328 0.371652 0
M  V30 7128 H 682.405 2.62454 3.24305 0
M  V30 7129 H 681.035 1.56279 2.82448 0
M  V30 7130 H 680.087 3.53063 1.416 0
M  V30 7131 H 681.399 4.5434 2.05857 0
M  V30 7132 H 680.553 4.19012 4.38764 0
M  V30 7133 H 679.292 3.07941 3.78185 0
M  V30 7134 H 678.297 4.93762 2.41824 0
M  V30 7135 H 679.522 6.06561 3.05386 0
M  V30 7136 H 677.468 4.55899 4.71691 0
M  V30 7137 H 677.385 6.23347 4.27756 0
M  V30 7138 H 678.653 5.68531 5.33285 0
M  V30 7139 N 682.882 -0.391992 1.52647 0
M  V30 7140 C 684.13 -1.13507 1.67214 0
M  V30 7141 C 684.451 -1.90575 0.41304 0
M  V30 7142 O 683.721 -1.87348 -0.572498 0
M  V30 7143 H 682.301 -0.422013 0.616372 0
M  V30 7144 H 684.963 -0.44502 1.89751 0
M  V30 7145 H 684.059 -1.83964 2.52118 0
M  V30 7146 N 684.36 -1.4356 -0.65026 0
M  V30 7147 C 685.588 -1.48779 -1.43779 0
M  V30 7148 C 686.003 -0.106593 -1.88499 0
M  V30 7149 O 685.36 0.883766 -1.59674 0
M  V30 7150 C 685.411 -2.43618 -2.67081 0
M  V30 7151 O 685.132 -3.76367 -2.24231 0
M  V30 7152 C 686.633 -2.5811 -3.60409 0
M  V30 7153 H 683.853 -0.50521 -0.441593 0
M  V30 7154 H 686.397 -1.88332 -0.796941 0
M  V30 7155 H 684.552 -2.07253 -3.273 0
M  V30 7156 H 684.966 -4.27394 -3.0403 0
M  V30 7157 H 686.44 -3.28539 -4.43583 0
M  V30 7158 H 686.917 -1.627 -4.07953 0
M  V30 7159 H 687.523 -2.95298 -3.0607 0
M  V30 7160 N 685.838 0.888903 -1.30139 0
M  V30 7161 C 687.066 1.67358 -1.21651 0
M  V30 7162 C 687.481 1.87499 0.221246 0
M  V30 7163 O 686.838 1.41969 1.14677 0
M  V30 7164 C 686.889 3.05213 -1.93719 0
M  V30 7165 O 686.61 2.85984 -3.31881 0
M  V30 7166 C 688.111 3.9964 -1.9184 0
M  V30 7167 H 685.331 0.522365 -0.42116 0
M  V30 7168 H 687.875 1.11086 -1.71698 0
M  V30 7169 H 686.03 3.5823 -1.4748 0
M  V30 7170 H 686.444 3.73411 -3.68327 0
M  V30 7171 H 687.918 4.93749 -2.46811 0
M  V30 7172 H 688.395 4.29955 -0.896409 0
M  V30 7173 H 689.001 3.52558 -2.37872 0
M  V30 7174 N 687.317 1.12792 1.10072 0
M  V30 7175 C 688.565 0.883796 1.81751 0
M  V30 7176 C 688.886 -0.591891 1.858 0
M  V30 7177 O 688.156 -1.43017 1.33876 0
M  V30 7178 H 686.736 0.323978 0.673088 0
M  V30 7179 H 689.398 1.42314 1.33164 0
M  V30 7180 H 688.494 1.26863 2.85153 0
M  V30 7181 N 688.795 -1.27931 0.920396 0
M  V30 7182 C 690.042 -1.94689 0.557007 0
M  V30 7183 C 690.37 -1.724 -0.900476 0
M  V30 7184 O 689.625 -1.04194 -1.65657 0
M  V30 7185 C 689.924 -3.47853 0.820558 0
M  V30 7186 C 689.59 -3.90252 2.25863 0
M  V30 7187 C 688.252 -4.01539 2.65179 0
M  V30 7188 C 690.604 -4.11853 3.19415 0
M  V30 7189 C 687.932 -4.3181 3.97187 0
M  V30 7190 C 690.284 -4.43606 4.50995 0
M  V30 7191 C 688.948 -4.53105 4.90155 0
M  V30 7192 H 688.218 -0.712416 0.203823 0
M  V30 7193 H 690.865 -1.52142 1.16298 0
M  V30 7194 H 689.17 -3.91578 0.131844 0
M  V30 7195 H 690.867 -3.97634 0.51847 0
M  V30 7196 H 687.457 -3.81999 1.94358 0
M  V30 7197 H 691.641 -4.0258 2.90246 0
M  V30 7198 H 686.897 -4.37371 4.2722 0
M  V30 7199 H 691.071 -4.59268 5.23494 0
M  V30 7200 H 688.698 -4.76315 5.92476 0
M  V30 7201 N 690.273 -0.685099 -1.4193 0
M  V30 7202 C 691.183 -0.013404 -2.34596 0
M  V30 7203 C 692.199 0.777589 -1.55658 0
M  V30 7204 O 693.375 0.717553 -1.88184 0
M  V30 7205 C 690.44 0.919031 -3.34297 0
M  V30 7206 C 689.501 0.121417 -4.29128 0
M  V30 7207 C 688.734 1.00944 -5.24067 0
M  V30 7208 O 688.957 2.24898 -5.24192 0
M  V30 7209 O 687.891 0.464724 -6.00103 0
M  V30 7210 H 691.717 -0.776978 -2.93593 0
M  V30 7211 H 689.302 -0.445379 -1.42607 0
M  V30 7212 H 691.184 1.45402 -3.9552 0
M  V30 7213 H 689.859 1.66228 -2.77759 0
M  V30 7214 H 688.766 -0.45792 -3.71287 0
M  V30 7215 H 690.099 -0.582937 -4.88736 0
M  V30 7216 N 691.751 1.51645 -0.429126 0
M  V30 7217 C 692.714 2.26116 0.374726 0
M  V30 7218 C 693.714 1.29242 0.956714 0
M  V30 7219 O 694.904 1.53022 0.832452 0
M  V30 7220 C 692.036 3.04669 1.52937 0
M  V30 7221 H 693.229 2.9861 -0.277818 0
M  V30 7222 H 690.782 1.55236 -0.182097 0
M  V30 7223 H 691.517 2.36571 2.21821 0
M  V30 7224 H 691.302 3.75814 1.11833 0
M  V30 7225 H 692.792 3.61102 2.09751 0
M  V30 7226 N 693.229 0.160201 1.56784 0
M  V30 7227 C 694.179 -0.786461 2.14007 0
M  V30 7228 C 695.163 -1.20046 1.07134 0
M  V30 7229 O 696.355 -1.16468 1.33283 0
M  V30 7230 C 693.484 -2.02024 2.77563 0
M  V30 7231 C 692.57 -1.62874 3.91578 0
M  V30 7232 N 692.961 -0.946176 4.96871 0
M  V30 7233 C 691.259 -1.92054 4.02531 0
M  V30 7234 C 691.96 -0.755084 5.76778 0
M  V30 7235 N 690.936 -1.29307 5.27997 0
M  V30 7236 H 694.738 -0.255879 2.92784 0
M  V30 7237 H 692.252 -0.0408778 1.62349 0
M  V30 7238 H 694.249 -2.70855 3.16928 0
M  V30 7239 H 692.909 -2.55587 2.00263 0
M  V30 7240 H 693.92 -0.605455 5.14349 0
M  V30 7241 H 690.597 -2.47374 3.36322 0
M  V30 7242 H 691.987 -0.216138 6.71552 0
M  V30 7243 N 694.707 -1.5719 -0.113559 0
M  V30 7244 C 695.953 -1.85412 -0.821597 0
M  V30 7245 C 696.286 -0.746722 -1.7927 0
M  V30 7246 O 695.561 0.246971 -1.92926 0
M  V30 7247 C 695.844 -3.24233 -1.56669 0
M  V30 7248 C 695.697 -4.45578 -0.614823 0
M  V30 7249 C 697.016 -3.60697 -2.52161 0
M  V30 7250 H 694.135 -0.674406 -0.29723 0
M  V30 7251 H 696.777 -1.89807 -0.085694 0
M  V30 7252 H 694.927 -3.20617 -2.19401 0
M  V30 7253 H 696.599 -4.613 0.00407137 0
M  V30 7254 H 694.842 -4.33738 0.0732332 0
M  V30 7255 H 695.513 -5.39395 -1.17292 0
M  V30 7256 H 697.989 -3.65139 -1.99532 0
M  V30 7257 H 696.865 -4.58798 -3.01323 0
M  V30 7258 H 697.126 -2.88403 -3.35076 0
M  V30 7259 N 696.185 0.383891 -1.52853 0
M  V30 7260 C 697.462 1.14296 -1.58732 0
M  V30 7261 C 697.842 2.07585 -0.383611 0
M  V30 7262 O 697.19 2.1971 0.627661 0
M  V30 7263 C 697.4 1.89816 -2.92867 0
M  V30 7264 C 698.748 2.44998 -3.46787 0
M  V30 7265 O 699.772 1.99966 -2.94774 0
M  V30 7266 O 698.631 3.2727 -4.37672 0
M  V30 7267 H 695.725 0.52326 -0.640413 0
M  V30 7268 H 698.271 0.388631 -1.6519 0
M  V30 7269 H 697.043 1.21626 -3.71918 0
M  V30 7270 H 696.666 2.72199 -2.89816 0
M  V30 7271 N 697.663 1.43903 0.642637 0
M  V30 7272 C 698.61 1.49881 1.75512 0
M  V30 7273 C 699.58 0.347538 1.62423 0
M  V30 7274 O 700.765 0.556177 1.82514 0
M  V30 7275 C 697.905 1.43797 3.13714 0
M  V30 7276 C 697.018 2.6921 3.37861 0
M  V30 7277 C 696.153 2.5504 4.6597 0
M  V30 7278 C 695.192 3.75671 4.83257 0
M  V30 7279 N 694.329 3.60247 6.02633 0
M  V30 7280 H 699.169 2.44935 1.69737 0
M  V30 7281 H 696.706 1.21572 0.828165 0
M  V30 7282 H 698.664 1.38262 3.93624 0
M  V30 7283 H 697.294 0.523173 3.18532 0
M  V30 7284 H 696.346 2.8498 2.51973 0
M  V30 7285 H 697.658 3.58786 3.46517 0
M  V30 7286 H 696.812 2.47273 5.54023 0
M  V30 7287 H 695.551 1.63006 4.59653 0
M  V30 7288 H 694.556 3.83836 3.93637 0
M  V30 7289 H 695.781 4.68728 4.91397 0
M  V30 7290 H 693.727 2.70955 5.97427 0
M  V30 7291 H 693.644 4.43431 6.12295 0
M  V30 7292 H 694.912 3.56351 6.93278 0
M  V30 7293 N 699.141 -0.881989 1.30609 0
M  V30 7294 C 700.381 -1.64817 1.20891 0
M  V30 7295 C 700.745 -1.90593 -0.232043 0
M  V30 7296 O 701.946 -2.64964 -0.452516 0
M  V30 7297 C 700.217 -2.95006 2.01758 0
M  V30 7298 S 701.776 -3.85953 2.08771 0
M  V30 7299 H 698.594 -0.565651 0.430767 0
M  V30 7300 H 701.196 -1.04665 1.65122 0
M  V30 7301 H 699.9 -2.73973 3.0556 0
M  V30 7302 H 699.431 -3.60189 1.582 0
M  V30 7303 H 701.446 -4.81037 1.21727 0
M  V30 7304 N 700.619 -1.13374 -1.09472 0
M  V30 7305 C 701.549 -0.833268 -2.18126 0
M  V30 7306 C 702.53 0.207169 -1.68834 0
M  V30 7307 O 703.715 0.0662012 -1.94087 0
M  V30 7308 C 700.845 -0.297979 -3.46019 0
M  V30 7309 C 699.799 -1.27261 -4.08642 0
M  V30 7310 C 699.125 -0.597104 -5.31356 0
M  V30 7311 C 700.425 -2.63095 -4.51197 0
M  V30 7312 H 702.119 -1.74182 -2.43518 0
M  V30 7313 H 699.665 -0.838921 -1.17039 0
M  V30 7314 H 701.618 -0.0754444 -4.21332 0
M  V30 7315 H 700.342 0.645959 -3.20148 0
M  V30 7316 H 699.001 -1.48113 -3.35348 0
M  V30 7317 H 698.649 0.352293 -5.01765 0
M  V30 7318 H 698.349 -1.24734 -5.74208 0
M  V30 7319 H 699.873 -0.38384 -6.09392 0
M  V30 7320 H 701.287 -2.46214 -5.17737 0
M  V30 7321 H 699.684 -3.2429 -5.04932 0
M  V30 7322 H 700.754 -3.20793 -3.6362 0
M  V30 7323 N 702.098 1.27442 -0.927168 0
M  V30 7324 C 703.008 2.30599 -0.431448 0
M  V30 7325 C 704.024 1.67028 0.48761 0
M  V30 7326 O 705.2 1.97962 0.370546 0
M  V30 7327 C 702.265 3.45327 0.308292 0
M  V30 7328 C 701.326 4.24418 -0.645615 0
M  V30 7329 C 700.559 5.33667 0.0589164 0
M  V30 7330 O 700.782 5.5589 1.27838 0
M  V30 7331 O 699.716 5.98774 -0.612638 0
M  V30 7332 H 703.542 2.75036 -1.28797 0
M  V30 7333 H 701.127 1.32382 -0.692495 0
M  V30 7334 H 703.009 4.15107 0.725555 0
M  V30 7335 H 701.684 3.02945 1.14043 0
M  V30 7336 H 700.591 3.57174 -1.11255 0
M  V30 7337 H 701.924 4.70512 -1.44496 0
M  V30 7338 N 703.576 0.692616 1.41565 0
M  V30 7339 C 704.506 0.0397325 2.33466 0
M  V30 7340 C 705.487 -0.770334 1.51657 0
M  V30 7341 O 706.672 -0.723903 1.80203 0
M  V30 7342 C 703.802 -0.899495 3.3545 0
M  V30 7343 C 702.756 -0.196738 4.27548 0
M  V30 7344 C 702.082 -1.25012 5.19881 0
M  V30 7345 C 703.382 0.935158 5.1386 0
M  V30 7346 H 705.076 0.807296 2.88311 0
M  V30 7347 H 702.622 0.389665 1.38628 0
M  V30 7348 H 704.575 -1.36545 3.98665 0
M  V30 7349 H 703.299 -1.69869 2.78948 0
M  V30 7350 H 701.958 0.249158 3.65752 0
M  V30 7351 H 701.606 -2.04177 4.59696 0
M  V30 7352 H 701.306 -0.784931 5.82334 0
M  V30 7353 H 702.83 -1.71665 5.85972 0
M  V30 7354 H 704.244 0.549619 5.70659 0
M  V30 7355 H 702.641 1.32726 5.85238 0
M  V30 7356 H 703.711 1.77613 4.512 0
M  V30 7357 N 705.054 -1.51416 0.437162 0
M  V30 7358 C 706.017 -2.26312 -0.362729 0
M  V30 7359 C 707.017 -1.29748 -0.949847 0
M  V30 7360 O 708.207 -1.53462 -0.824325 0
M  V30 7361 C 705.339 -3.05475 -1.5132 0
M  V30 7362 H 706.532 -2.98459 0.29365 0
M  V30 7363 H 704.085 -1.55137 0.190327 0
M  V30 7364 H 704.82 -2.37744 -2.20563 0
M  V30 7365 H 704.605 -3.76401 -1.09838 0
M  V30 7366 H 706.095 -3.62209 -2.07833 0
M  V30 7367 N 706.532 -0.168513 -1.56696 0
M  V30 7368 C 707.442 0.775435 -2.21414 0
M  V30 7369 C 708.458 1.25529 -1.20492 0
M  V30 7370 O 709.634 1.30801 -1.53144 0
M  V30 7371 C 706.699 1.9886 -2.83999 0
M  V30 7372 C 705.76 1.5559 -4.00113 0
M  V30 7373 C 704.993 2.71124 -4.59704 0
M  V30 7374 O 705.216 3.87917 -4.18182 0
M  V30 7375 O 704.15 2.4536 -5.4962 0
M  V30 7376 H 707.976 0.254416 -3.02632 0
M  V30 7377 H 705.561 0.0595507 -1.49281 0
M  V30 7378 H 707.443 2.69816 -3.23693 0
M  V30 7379 H 706.118 2.49874 -2.05779 0
M  V30 7380 H 705.025 0.815924 -3.65094 0
M  V30 7381 H 706.358 1.09271 -4.79917 0
M  V30 7382 N 708.01 1.57248 0.105221 0
M  V30 7383 C 709.24 1.89492 0.823175 0
M  V30 7384 C 709.648 0.75934 1.73294 0
M  V30 7385 O 708.991 -0.278182 1.81581 0
M  V30 7386 C 709.053 3.16891 1.69765 0
M  V30 7387 C 708.717 4.46787 0.960769 0
M  V30 7388 C 709.714 5.19061 0.295218 0
M  V30 7389 C 707.399 4.93467 0.937854 0
M  V30 7390 C 709.393 6.36246 -0.383393 0
M  V30 7391 C 707.08 6.10566 0.255452 0
M  V30 7392 C 708.078 6.81804 -0.404003 0
M  V30 7393 O 707.766 7.96673 -1.07549 0
M  V30 7394 H 707.498 0.631512 0.24118 0
M  V30 7395 H 710.052 2.05203 0.0899655 0
M  V30 7396 H 708.282 2.973 2.47285 0
M  V30 7397 H 709.971 3.35046 2.29126 0
M  V30 7398 H 710.737 4.84044 0.304448 0
M  V30 7399 H 706.616 4.37913 1.44058 0
M  V30 7400 H 710.16 6.91787 -0.898696 0
M  V30 7401 H 706.057 6.45039 0.244032 0
M  V30 7402 H 706.825 8.12596 -0.981355 0
M  V30 7403 N 709.488 -0.375779 1.53054 0
M  V30 7404 C 710.418 -1.46598 1.81745 0
M  V30 7405 C 711.399 -1.56337 0.670286 0
M  V30 7406 O 712.584 -1.71071 0.919158 0
M  V30 7407 C 709.714 -2.84058 1.99821 0
M  V30 7408 C 708.668 -2.8915 3.15557 0
M  V30 7409 C 707.994 -4.29187 3.18908 0
M  V30 7410 C 709.294 -2.57595 4.54359 0
M  V30 7411 H 710.988 -1.22837 2.73041 0
M  V30 7412 H 708.534 -0.589485 1.31381 0
M  V30 7413 H 710.487 -3.60342 2.18475 0
M  V30 7414 H 709.211 -3.09184 1.05226 0
M  V30 7415 H 707.87 -2.15316 2.96706 0
M  V30 7416 H 707.518 -4.51374 2.2197 0
M  V30 7417 H 707.218 -4.33512 3.96662 0
M  V30 7418 H 708.742 -5.07359 3.39734 0
M  V30 7419 H 710.156 -3.23595 4.73243 0
M  V30 7420 H 708.553 -2.73252 5.34279 0
M  V30 7421 H 709.623 -1.52882 4.60169 0
M  V30 7422 N 710.966 -1.44241 -0.634997 0
M  V30 7423 C 712.196 -1.50078 -1.41987 0
M  V30 7424 C 712.604 -0.123072 -1.88799 0
M  V30 7425 O 711.947 0.880552 -1.6122 0
M  V30 7426 C 712.009 -2.40033 -2.67628 0
M  V30 7427 C 711.673 -3.87268 -2.42637 0
M  V30 7428 C 712.67 -4.77902 -2.04708 0
M  V30 7429 C 710.355 -4.31933 -2.56396 0
M  V30 7430 C 712.349 -6.11202 -1.80862 0
M  V30 7431 C 710.036 -5.65281 -2.32164 0
M  V30 7432 C 711.034 -6.54734 -1.94455 0
M  V30 7433 O 710.722 -7.85613 -1.7049 0
M  V30 7434 H 710.454 -0.51146 -0.442023 0
M  V30 7435 H 713.008 -1.89843 -0.784138 0
M  V30 7436 H 711.238 -1.95188 -3.33824 0
M  V30 7437 H 712.927 -2.36863 -3.29622 0
M  V30 7438 H 713.693 -4.44668 -1.93638 0
M  V30 7439 H 709.572 -3.62569 -2.84719 0
M  V30 7440 H 713.116 -6.80983 -1.51353 0
M  V30 7441 H 709.013 -5.98078 -2.42843 0
M  V30 7442 H 709.781 -7.97373 -1.84767 0
M  V30 7443 N 712.444 0.87505 -1.31075 0
M  V30 7444 C 713.392 2.00317 -1.18219 0
M  V30 7445 C 714.386 1.69152 -0.0916872 0
M  V30 7446 O 715.592 1.7821 -0.253229 0
M  V30 7447 H 711.967 0.656981 -0.365895 0
M  V30 7448 H 713.938 2.08293 -2.13674 0
M  V30 7449 C 712.687 3.35821 -0.901095 0
M  V30 7450 H 712.01 3.6032 -1.73233 0
M  V30 7451 H 713.45 4.15366 -0.851295 0
M  V30 7452 C 711.909 3.34563 0.396114 0
M  V30 7453 O 712.439 3.75971 1.41452 0
M  V30 7454 N 710.645 2.87681 0.410832 0
M  V30 7455 H 710.192 2.54179 -0.418415 0
M  V30 7456 H 710.15 2.87223 1.27869 0
M  V30 7457 N 713.922 1.13953 1.08869 0
M  V30 7458 C 715.171 0.899431 1.80536 0
M  V30 7459 C 715.484 -0.575781 1.86933 0
M  V30 7460 O 716.69 -0.932988 2.54966 0
M  V30 7461 C 715.146 1.55963 3.24351 0
M  V30 7462 C 714.754 3.07077 3.26202 0
M  V30 7463 C 716.498 1.40046 4.00733 0
M  V30 7464 C 714.405 3.65955 4.64576 0
M  V30 7465 H 713.335 0.332849 0.676556 0
M  V30 7466 H 715.986 1.3679 1.22314 0
M  V30 7467 H 714.368 1.01883 3.82669 0
M  V30 7468 H 715.542 3.67785 2.77617 0
M  V30 7469 H 713.857 3.22576 2.63312 0
M  V30 7470 H 716.454 1.81441 5.02974 0
M  V30 7471 H 716.797 0.345993 4.1486 0
M  V30 7472 H 717.33 1.91137 3.48872 0
M  V30 7473 H 714.069 4.71234 4.55652 0
M  V30 7474 H 713.589 3.10027 5.13462 0
M  V30 7475 H 715.268 3.65968 5.33551 0
M  V30 7476 N 715.4 -1.26948 0.933913 0
M  V30 7477 C 716.649 -1.93378 0.573409 0
M  V30 7478 C 716.962 -1.74148 -0.890614 0
M  V30 7479 O 718.168 -2.34971 -1.36017 0
M  V30 7480 C 716.624 -3.46449 0.974747 0
M  V30 7481 C 716.232 -3.74425 2.45988 0
M  V30 7482 C 717.976 -4.18924 0.685791 0
M  V30 7483 C 715.883 -5.209 2.8003 0
M  V30 7484 H 714.813 -0.723952 0.210736 0
M  V30 7485 H 717.464 -1.44143 1.13557 0
M  V30 7486 H 715.846 -3.94528 0.341181 0
M  V30 7487 H 717.02 -3.37079 3.14188 0
M  V30 7488 H 715.335 -3.15167 2.72138 0
M  V30 7489 H 717.932 -5.26786 0.916546 0
M  V30 7490 H 718.275 -4.14587 -0.377217 0
M  V30 7491 H 718.808 -3.76687 1.27874 0
M  V30 7492 H 715.547 -5.30332 3.85264 0
M  V30 7493 H 715.067 -5.59369 2.16485 0
M  V30 7494 H 716.746 -5.88837 2.68105 0
M  V30 7495 N 716.879 -0.700114 -1.41195 0
M  V30 7496 C 717.826 -0.0376652 -2.30769 0
M  V30 7497 C 718.796 0.766544 -1.47354 0
M  V30 7498 O 719.981 0.73365 -1.76131 0
M  V30 7499 C 717.121 0.889452 -3.33441 0
M  V30 7500 C 716.234 0.076373 -4.31932 0
M  V30 7501 C 715.369 1.00155 -5.21673 0
M  V30 7502 C 714.408 0.181644 -6.1183 0
M  V30 7503 N 713.545 1.06087 -6.94039 0
M  V30 7504 H 718.385 -0.80726 -2.86858 0
M  V30 7505 H 715.922 -0.409798 -1.41277 0
M  V30 7506 H 717.88 1.44107 -3.91522 0
M  V30 7507 H 716.51 1.6254 -2.78892 0
M  V30 7508 H 715.562 -0.592223 -3.75762 0
M  V30 7509 H 716.874 -0.559076 -4.95657 0
M  V30 7510 H 716.028 1.62223 -5.8461 0
M  V30 7511 H 714.767 1.67085 -4.58186 0
M  V30 7512 H 713.772 -0.452085 -5.47938 0
M  V30 7513 H 714.997 -0.483925 -6.77374 0
M  V30 7514 H 712.943 1.7161 -6.33156 0
M  V30 7515 H 712.86 0.481094 -7.54468 0
M  V30 7516 H 714.128 1.66822 -7.6144 0
M  V30 7517 N 718.357 1.51182 -0.445186 0
M  V30 7518 C 719.305 2.29531 0.376597 0
M  V30 7519 C 720.299 1.35711 1.01385 0
M  V30 7520 O 721.505 1.53018 0.947922 0
M  V30 7521 H 717.88 0.738803 0.140267 0
M  V30 7522 H 719.851 2.96838 -0.304958 0
M  V30 7523 C 718.6 3.1552 1.4609 0
M  V30 7524 H 717.923 3.87605 0.979912 0
M  V30 7525 H 719.363 3.73384 2.009 0
M  V30 7526 C 717.822 2.31406 2.44852 0
M  V30 7527 O 718.352 1.97912 3.49562 0
M  V30 7528 N 716.558 1.94478 2.15932 0
M  V30 7529 H 716.105 2.21917 1.30808 0
M  V30 7530 H 716.063 1.38498 2.82251 0
M  V30 7531 N 719.835 0.176821 1.56605 0
M  V30 7532 C 721.251 -0.179278 1.5859 0
M  V30 7533 C 721.451 -1.62433 1.19238 0
M  V30 7534 O 720.507 -2.35665 0.906552 0
M  V30 7535 C 721.82 0.106524 3.00511 0
M  V30 7536 C 723.368 0.0451731 3.12967 0
M  V30 7537 C 723.843 0.304038 4.5699 0
M  V30 7538 N 725.334 0.252008 4.62514 0
M  V30 7539 C 726.069 0.426404 5.71812 0
M  V30 7540 N 725.565 0.660155 6.89648 0
M  V30 7541 N 727.358 0.361926 5.60934 0
M  V30 7542 H 719.509 1.12001 1.8047 0
M  V30 7543 H 721.772 0.445679 0.836704 0
M  V30 7544 H 721.478 1.10778 3.33798 0
M  V30 7545 H 721.352 -0.599337 3.72408 0
M  V30 7546 H 723.739 -0.946662 2.79504 0
M  V30 7547 H 723.82 0.78383 2.43495 0
M  V30 7548 H 723.464 1.29311 4.91163 0
M  V30 7549 H 723.394 -0.455294 5.24628 0
M  V30 7550 H 725.885 0.0772102 3.77821 0
M  V30 7551 H 726.198 0.782529 7.68828 0
M  V30 7552 H 724.543 0.696835 6.91498 0
M  V30 7553 H 727.734 0.17986 4.67754 0
M  V30 7554 H 727.907 0.501263 6.46058 0
M  V30 7555 N 721.313 -1.57302 -0.09688 0
M  V30 7556 C 722.223 -2.05258 -1.13606 0
M  V30 7557 C 723.239 -0.977137 -1.43972 0
M  V30 7558 O 724.415 -1.29018 -1.54649 0
M  V30 7559 C 721.48 -2.46593 -2.43706 0
M  V30 7560 C 720.541 -3.68322 -2.20538 0
M  V30 7561 C 719.774 -4.07676 -3.44435 0
M  V30 7562 O 719.997 -3.47141 -4.52603 0
M  V30 7563 O 718.931 -5.00641 -3.34129 0
M  V30 7564 H 722.757 -2.94069 -0.758752 0
M  V30 7565 H 720.342 -1.46164 -0.309263 0
M  V30 7566 H 722.224 -2.73814 -3.20318 0
M  V30 7567 H 720.899 -1.6092 -2.80867 0
M  V30 7568 H 719.806 -3.4622 -1.41713 0
M  V30 7569 H 721.139 -4.54769 -1.88271 0
M  V30 7570 N 722.791 0.367657 -1.53252 0
M  V30 7571 C 724.039 1.10832 -1.68999 0
M  V30 7572 C 724.36 1.89894 -0.443306 0
M  V30 7573 O 723.63 1.88235 0.54262 0
M  V30 7574 H 722.21 0.412153 -0.623008 0
M  V30 7575 H 724.872 0.414775 -1.90435 0
M  V30 7576 H 723.968 1.7993 -2.55013 0
M  V30 7577 N 724.269 1.44576 0.627338 0
M  V30 7578 C 725.499 1.50829 1.41189 0
M  V30 7579 C 725.907 0.133083 1.88731 0
M  V30 7580 O 725.25 -0.87199 1.61685 0
M  V30 7581 C 725.312 2.41449 2.66351 0
M  V30 7582 C 724.976 3.88549 2.40579 0
M  V30 7583 C 725.973 4.78981 2.0217 0
M  V30 7584 C 723.658 4.33287 2.54102 0
M  V30 7585 C 725.652 6.12153 1.77618 0
M  V30 7586 C 723.339 5.66505 2.29163 0
M  V30 7587 C 724.337 6.55756 1.9098 0
M  V30 7588 O 724.025 7.86506 1.66321 0
M  V30 7589 H 723.757 0.513797 0.439304 0
M  V30 7590 H 726.311 1.90256 0.774059 0
M  V30 7591 H 724.541 1.96955 3.32784 0
M  V30 7592 H 726.23 2.38608 3.28361 0
M  V30 7593 H 726.996 4.45689 1.91277 0
M  V30 7594 H 722.875 3.64074 2.82792 0
M  V30 7595 H 726.419 6.81776 1.47739 0
M  V30 7596 H 722.316 5.99358 2.39668 0
M  V30 7597 H 723.084 7.98341 1.80536 0
M  V30 7598 N 725.747 -0.868086 1.31537 0
M  V30 7599 C 726.657 -2.00801 1.21311 0
M  V30 7600 C 727.673 -1.73518 0.129431 0
M  V30 7601 O 728.849 -1.98378 0.347588 0
M  V30 7602 C 725.914 -3.3419 0.922935 0
M  V30 7603 C 724.975 -3.74783 2.0937 0
M  V30 7604 C 724.208 -5.01807 1.81728 0
M  V30 7605 O 724.431 -5.65404 0.753313 0
M  V30 7606 O 723.365 -5.39213 2.67457 0
M  V30 7607 H 727.191 -2.12361 2.17109 0
M  V30 7608 H 724.776 -0.996684 1.11295 0
M  V30 7609 H 726.658 -4.14174 0.777033 0
M  V30 7610 H 725.333 -3.237 -0.00500301 0
M  V30 7611 H 724.24 -2.95432 2.29501 0
M  V30 7612 H 725.573 -3.89902 3.00396 0
M  V30 7613 N 727.225 -1.14528 -1.08264 0
M  V30 7614 C 728.158 -0.777154 -2.14559 0
M  V30 7615 C 729.136 0.242165 -1.60787 0
M  V30 7616 O 730.32 0.130882 -1.88045 0
M  V30 7617 C 727.447 -0.154092 -3.38349 0
M  V30 7618 C 726.493 -1.14382 -4.10876 0
M  V30 7619 S 727.326 -2.68173 -4.63512 0
M  V30 7620 C 728.482 -2.0726 -5.90588 0
M  V30 7621 H 728.715 -1.67748 -2.45454 0
M  V30 7622 H 726.248 -0.966661 -1.20395 0
M  V30 7623 H 728.206 0.19897 -4.10018 0
M  V30 7624 H 726.867 0.723688 -3.05649 0
M  V30 7625 H 726.06 -0.655908 -4.99714 0
M  V30 7626 H 725.662 -1.44095 -3.45127 0
M  V30 7627 H 727.954 -1.42895 -6.62259 0
M  V30 7628 H 728.897 -2.94227 -6.44078 0
M  V30 7629 H 729.305 -1.51935 -5.43669 0
M  V30 7630 N 728.703 1.26451 -0.940633 0
M  V30 7631 C 729.949 1.94065 -0.58878 0
M  V30 7632 C 730.282 1.7363 0.869853 0
M  V30 7633 O 729.557 1.073 1.62225 0
M  V30 7634 C 729.84 3.47852 -0.931199 0
M  V30 7635 C 729.693 3.77575 -2.44453 0
M  V30 7636 C 731.012 4.37832 -0.446229 0
M  V30 7637 H 728.131 0.704827 -0.21538 0
M  V30 7638 H 730.773 1.4933 -1.17475 0
M  V30 7639 H 728.923 3.86085 -0.432539 0
M  V30 7640 H 730.595 3.49059 -3.01588 0
M  V30 7641 H 728.838 3.23671 -2.88825 0
M  V30 7642 H 729.509 4.85068 -2.63464 0
M  V30 7643 H 731.985 4.06822 -0.873778 0
M  V30 7644 H 730.861 5.44228 -0.714648 0
M  V30 7645 H 731.122 4.37239 0.653815 0
M  V30 7646 N 730.181 0.707592 1.40822 0
M  V30 7647 C 731.428 0.243671 2.01029 0
M  V30 7648 C 731.756 -1.16057 1.5608 0
M  V30 7649 O 731.011 -1.7999 0.768251 0
M  V30 7650 C 731.31 0.262892 3.56432 0
M  V30 7651 C 730.976 1.61632 4.20935 0
M  V30 7652 C 729.638 1.98682 4.38268 0
M  V30 7653 C 731.99 2.50619 4.5699 0
M  V30 7654 C 729.318 3.2428 4.88937 0
M  V30 7655 C 731.67 3.75562 5.09054 0
M  V30 7656 C 730.334 4.12739 5.24598 0
M  V30 7657 H 729.604 0.0891654 0.735616 0
M  V30 7658 H 732.251 0.909051 1.68548 0
M  V30 7659 H 730.556 -0.486052 3.88773 0
M  V30 7660 H 732.253 -0.113775 4.00839 0
M  V30 7661 H 728.843 1.31818 4.07826 0
M  V30 7662 H 733.027 2.23272 4.43242 0
M  V30 7663 H 728.283 3.53064 4.99155 0
M  V30 7664 H 732.457 4.44692 5.35931 0
M  V30 7665 H 730.084 5.10132 5.63622 0
M  V30 7666 N 731.66 -1.50943 0.453197 0
M  V30 7667 C 732.937 -1.94872 -0.168633 0
M  V30 7668 C 733.317 -1.39272 -1.5864 0
M  V30 7669 O 732.665 -0.586272 -2.20851 0
M  V30 7670 C 732.875 -3.48757 -0.130217 0
M  V30 7671 C 734.223 -4.23331 -0.327975 0
M  V30 7672 O 735.247 -3.55594 -0.207619 0
M  V30 7673 O 734.106 -5.43529 -0.569077 0
M  V30 7674 H 731.2 -0.818042 -0.121394 0
M  V30 7675 H 733.746 -1.61782 0.512316 0
M  V30 7676 H 732.518 -3.81725 0.860346 0
M  V30 7677 H 732.141 -3.88333 -0.853397 0
M  V30 7678 N 733.138 -0.185124 -1.56509 0
M  V30 7679 C 734.386 0.455357 -1.96903 0
M  V30 7680 C 734.707 1.62839 -1.07277 0
M  V30 7681 O 733.977 1.95385 -0.141966 0
M  V30 7682 H 732.557 0.171218 -0.727113 0
M  V30 7683 H 735.219 -0.26953 -1.93027 0
M  V30 7684 H 734.315 0.80616 -3.01509 0
M  V30 7685 N 734.616 1.57351 0.0885366 0
M  V30 7686 C 735.563 2.02523 1.10693 0
M  V30 7687 C 736.533 0.902736 1.39427 0
M  V30 7688 O 737.718 1.16921 1.50779 0
M  V30 7689 C 734.858 2.46013 2.42016 0
M  V30 7690 C 733.971 3.7181 2.19957 0
M  V30 7691 C 733.106 4.04152 3.44724 0
M  V30 7692 C 732.145 5.2304 3.17956 0
M  V30 7693 N 731.282 5.51102 4.35007 0
M  V30 7694 H 736.122 2.89302 0.714742 0
M  V30 7695 H 733.659 1.43084 0.341378 0
M  V30 7696 H 735.617 2.69274 3.18665 0
M  V30 7697 H 734.247 1.62235 2.79069 0
M  V30 7698 H 733.299 3.55987 1.34079 0
M  V30 7699 H 734.611 4.58604 1.96173 0
M  V30 7700 H 733.765 4.28225 4.29777 0
M  V30 7701 H 732.504 3.15893 3.71568 0
M  V30 7702 H 731.509 4.98781 2.31296 0
M  V30 7703 H 732.734 6.12902 2.92451 0
M  V30 7704 H 730.68 4.65802 4.61914 0
M  V30 7705 H 730.597 6.3228 4.14437 0
M  V30 7706 H 731.865 5.79714 5.21106 0
M  V30 7707 N 736.094 -0.359525 1.53444 0
M  V30 7708 C 737.505 -0.936009 1.61542 0
M  V30 7709 C 737.856 -1.90069 0.486633 0
M  V30 7710 O 736.981 -2.12929 -0.386047 0
M  V30 7711 C 737.576 -1.70441 2.92806 0
M  V30 7712 C 736.135 -2.23015 3.03218 0
M  V30 7713 C 735.282 -1.04438 2.56881 0
M  V30 7714 H 738.233 -0.138134 1.58098 0
M  V30 7715 H 738.254 -2.56609 2.80948 0
M  V30 7716 H 737.766 -1.00205 3.74941 0
M  V30 7717 H 735.867 -2.96475 2.25684 0
M  V30 7718 H 735.98 -2.50481 4.08407 0
M  V30 7719 H 734.344 -1.41314 2.11902 0
M  V30 7720 H 735.127 -0.356905 3.4144 0
M  V30 7721 N 737.572 -1.44907 -0.619662 0
M  V30 7722 C 738.504 -1.48652 -1.74457 0
M  V30 7723 C 739.517 -0.378596 -1.58337 0
M  V30 7724 O 740.706 -0.644987 -1.6644 0
M  V30 7725 C 737.806 -1.31568 -3.12319 0
M  V30 7726 C 736.979 -2.55816 -3.54792 0
M  V30 7727 C 736.038 -2.33465 -4.71573 0
M  V30 7728 O 735.064 -3.07015 -4.79302 0
M  V30 7729 N 736.266 -1.37254 -5.6404 0
M  V30 7730 H 739.031 -2.45632 -1.71712 0
M  V30 7731 H 736.592 -1.40492 -0.804582 0
M  V30 7732 H 738.584 -1.14445 -3.88181 0
M  V30 7733 H 737.154 -0.429095 -3.09641 0
M  V30 7734 H 736.374 -2.88137 -2.69018 0
M  V30 7735 H 737.662 -3.38431 -3.79924 0
M  V30 7736 H 737.06 -0.765309 -5.60499 0
M  V30 7737 H 735.617 -1.26106 -6.39485 0
M  V30 7738 N 739.05 0.861098 -1.31996 0
M  V30 7739 C 740 1.95703 -1.1698 0
M  V30 7740 C 740.984 1.60709 -0.0784201 0
M  V30 7741 O 742.176 1.74365 -0.304262 0
M  V30 7742 C 739.305 3.31606 -0.888388 0
M  V30 7743 C 738.391 3.7284 -2.02117 0
M  V30 7744 N 738.782 3.85957 -3.26911 0
M  V30 7745 C 737.08 4.02419 -1.92289 0
M  V30 7746 C 737.781 4.21333 -4.01065 0
M  V30 7747 N 736.757 4.32502 -3.29307 0
M  V30 7748 H 740.559 2.03968 -2.11599 0
M  V30 7749 H 738.073 1.05245 -1.23682 0
M  V30 7750 H 740.07 4.09881 -0.761782 0
M  V30 7751 H 738.73 3.24662 0.0494898 0
M  V30 7752 H 739.741 3.70449 -3.61923 0
M  V30 7753 H 736.418 4.03814 -1.06022 0
M  V30 7754 H 737.808 4.39005 -5.08649 0
M  V30 7755 N 740.528 1.15101 1.07655 0
M  V30 7756 C 741.756 0.947731 1.83918 0
M  V30 7757 C 742.171 -0.503927 1.81951 0
M  V30 7758 O 741.528 -1.34941 1.2287 0
M  V30 7759 C 741.579 1.4503 3.31132 0
M  V30 7760 O 741.3 2.84508 3.33146 0
M  V30 7761 C 742.801 1.28806 4.24174 0
M  V30 7762 H 740.021 0.336786 0.580358 0
M  V30 7763 H 742.565 1.52799 1.35914 0
M  V30 7764 H 740.72 0.912632 3.76497 0
M  V30 7765 H 741.134 3.0723 4.251 0
M  V30 7766 H 742.608 1.6882 5.25551 0
M  V30 7767 H 743.085 0.231851 4.38588 0
M  V30 7768 H 743.691 1.81465 3.84643 0
M  V30 7769 N 742.006 -1.2595 0.947325 0
M  V30 7770 C 742.954 -2.28152 0.452687 0
M  V30 7771 C 743.948 -1.62655 -0.473239 0
M  V30 7772 O 745.154 -1.76549 -0.350774 0
M  V30 7773 H 741.529 -0.741049 0.12787 0
M  V30 7774 H 743.5 -2.67267 1.32707 0
M  V30 7775 C 742.249 -3.46719 -0.26098 0
M  V30 7776 H 741.572 -3.97345 0.442352 0
M  V30 7777 H 743.012 -4.20135 -0.571208 0
M  V30 7778 C 741.471 -3.02605 -1.48094 0
M  V30 7779 O 742.001 -3.07979 -2.57899 0
M  V30 7780 N 740.207 -2.57877 -1.33969 0
M  V30 7781 H 739.754 -2.53704 -0.446295 0
M  V30 7782 H 739.712 -2.28725 -2.15713 0
M  V30 7783 N 743.484 -0.715051 -1.40445 0
M  V30 7784 C 744.73 -0.254705 -2.01194 0
M  V30 7785 C 745.063 1.14894 -1.56567 0
M  V30 7786 O 744.338 1.77933 -0.785491 0
M  V30 7787 C 744.621 -0.334148 -3.58546 0
M  V30 7788 C 744.474 -1.77613 -4.13248 0
M  V30 7789 C 745.793 0.294968 -4.3911 0
M  V30 7790 H 742.912 -0.094025 -0.730978 0
M  V30 7791 H 745.554 -0.907449 -1.66929 0
M  V30 7792 H 743.704 0.221609 -3.87867 0
M  V30 7793 H 745.376 -2.38723 -3.94727 0
M  V30 7794 H 743.619 -2.30402 -3.67556 0
M  V30 7795 H 744.29 -1.78311 -5.22407 0
M  V30 7796 H 746.766 -0.178563 -4.15717 0
M  V30 7797 H 745.642 0.208934 -5.48502 0
M  V30 7798 H 745.903 1.37841 -4.20062 0
M  V30 7799 N 744.962 1.50701 -0.461195 0
M  V30 7800 C 746.202 2.04174 0.0960673 0
M  V30 7801 C 746.566 1.33628 1.37868 0
M  V30 7802 O 747.767 1.77602 2.0177 0
M  V30 7803 C 746.038 3.56256 0.285676 0
M  V30 7804 S 747.597 4.31392 0.802917 0
M  V30 7805 H 744.415 0.710701 0.0206282 0
M  V30 7806 H 747.017 1.85204 -0.62607 0
M  V30 7807 H 745.721 4.05159 -0.653773 0
M  V30 7808 H 745.252 3.79562 1.03421 0
M  V30 7809 H 747.267 4.50611 2.07761 0
M  V30 7810 N 746.441 0.193421 1.56409 0
M  V30 7811 C 747.688 -0.445789 1.97532 0
M  V30 7812 C 748.016 -1.61744 1.08024 0
M  V30 7813 O 747.271 -1.95338 0.118982 0
M  V30 7814 C 747.57 -0.949718 3.44551 0
M  V30 7815 C 747.236 0.108383 4.5077 0
M  V30 7816 C 745.898 0.399126 4.79542 0
M  V30 7817 C 748.25 0.825423 5.14622 0
M  V30 7818 C 745.578 1.41192 5.69457 0
M  V30 7819 C 747.93 1.82735 6.05632 0
M  V30 7820 C 746.594 2.12531 6.32761 0
M  V30 7821 H 745.864 -0.163126 0.722822 0
M  V30 7822 H 748.511 0.290035 1.89291 0
M  V30 7823 H 746.816 -1.76378 3.49854 0
M  V30 7824 H 748.513 -1.45367 3.73724 0
M  V30 7825 H 745.103 -0.128392 4.28408 0
M  V30 7826 H 749.287 0.61403 4.92487 0
M  V30 7827 H 744.543 1.6487 5.88751 0
M  V30 7828 H 748.717 2.3882 6.5417 0
M  V30 7829 H 746.344 2.91155 7.02234 0
M  V30 7830 N 747.919 -1.57396 -0.0801906 0
M  V30 7831 C 749.165 -1.87979 -0.776884 0
M  V30 7832 C 749.52 -0.786098 -1.75608 0
M  V30 7833 O 748.813 0.210541 -1.9044 0
M  V30 7834 C 749.007 -3.22915 -1.53169 0
M  V30 7835 C 748.836 -4.45306 -0.627099 0
M  V30 7836 C 747.606 -5.04593 -0.267201 0
M  V30 7837 C 749.804 -5.14249 0.0724916 0
M  V30 7838 N 747.786 -6.10513 0.643995 0
M  V30 7839 C 749.157 -6.14267 0.841191 0
M  V30 7840 C 751.212 -4.97689 0.144847 0
M  V30 7841 C 749.915 -6.99514 1.67551 0
M  V30 7842 C 751.941 -5.83455 0.966112 0
M  V30 7843 C 751.303 -6.83005 1.72288 0
M  V30 7844 H 747.402 -0.737519 -0.259979 0
M  V30 7845 H 749.986 -1.94661 -0.0387512 0
M  V30 7846 H 748.157 -3.17256 -2.2406 0
M  V30 7847 H 749.889 -3.41174 -2.17675 0
M  V30 7848 H 746.644 -4.69548 -0.618194 0
M  V30 7849 H 747.068 -6.68125 1.09259 0
M  V30 7850 H 751.71 -4.20649 -0.4259 0
M  V30 7851 H 749.428 -7.75934 2.25726 0
M  V30 7852 H 753.014 -5.727 1.02497 0
M  V30 7853 H 751.894 -7.48219 2.34813 0
M  V30 7854 N 749.397 0.351382 -1.53633 0
M  V30 7855 C 750.627 1.11113 -1.74176 0
M  V30 7856 C 751.035 1.83084 -0.477154 0
M  V30 7857 O 750.378 1.74941 0.560483 0
M  V30 7858 C 750.44 2.17521 -2.86225 0
M  V30 7859 C 750.104 1.65193 -4.26099 0
M  V30 7860 C 751.101 1.10842 -5.07947 0
M  V30 7861 C 748.786 1.70277 -4.72558 0
M  V30 7862 C 750.78 0.622689 -6.34351 0
M  V30 7863 C 748.467 1.21316 -5.98937 0
M  V30 7864 C 749.465 0.674033 -6.79666 0
M  V30 7865 O 749.153 0.191696 -8.03671 0
M  V30 7866 H 748.885 0.33756 -0.585687 0
M  V30 7867 H 751.439 0.411786 -2.0123 0
M  V30 7868 H 749.669 2.90991 -2.54678 0
M  V30 7869 H 751.358 2.78999 -2.94812 0
M  V30 7870 H 752.124 1.06243 -4.7322 0
M  V30 7871 H 748.003 2.11181 -4.09785 0
M  V30 7872 H 751.547 0.201216 -6.9731 0
M  V30 7873 H 747.444 1.25613 -6.3316 0
M  V30 7874 H 748.212 0.309712 -8.17914 0
M  V30 7875 N 750.875 1.45233 0.611969 0
M  V30 7876 C 752.124 1.48296 1.36716 0
M  V30 7877 C 752.437 0.12706 1.95187 0
M  V30 7878 O 753.643 0.0353066 2.71477 0
M  V30 7879 C 752.099 2.61168 2.47627 0
M  V30 7880 C 751.707 4.03051 1.95587 0
M  V30 7881 C 753.451 2.73472 3.24674 0
M  V30 7882 C 751.358 5.07312 3.03954 0
M  V30 7883 H 750.288 0.5518 0.513841 0
M  V30 7884 H 752.939 1.7136 0.656359 0
M  V30 7885 H 751.321 2.31379 3.21372 0
M  V30 7886 H 752.495 4.42497 1.2858 0
M  V30 7887 H 750.81 3.95158 1.31298 0
M  V30 7888 H 753.407 3.48537 4.05494 0
M  V30 7889 H 753.75 1.79953 3.75397 0
M  V30 7890 H 754.283 3.02765 2.58028 0
M  V30 7891 H 751.022 6.02525 2.58154 0
M  V30 7892 H 750.542 4.7244 3.69541 0
M  V30 7893 H 752.221 5.31867 3.6841 0
M  V30 7894 N 752.353 -0.854086 1.3245 0
M  V30 7895 C 753.764 -1.42427 1.20712 0
M  V30 7896 C 754.115 -1.95371 -0.18013 0
M  V30 7897 O 753.24 -1.87587 -1.07889 0
M  V30 7898 C 753.835 -2.58897 2.18536 0
M  V30 7899 C 752.394 -3.11913 2.10683 0
M  V30 7900 C 751.541 -1.84661 2.06871 0
M  V30 7901 H 754.492 -0.661192 1.4427 0
M  V30 7902 H 754.513 -3.36074 1.78422 0
M  V30 7903 H 754.025 -2.20333 3.19492 0
M  V30 7904 H 752.126 -3.55059 1.12977 0
M  V30 7905 H 752.239 -3.73119 3.00532 0
M  V30 7906 H 750.603 -2.04285 1.52118 0
M  V30 7907 H 751.386 -1.48314 3.09609 0
M  V30 7908 N 753.831 -1.1567 -1.07043 0
M  V30 7909 C 755.242 -0.942408 -1.61169 0
M  V30 7910 C 755.593 0.515537 -1.89306 0
M  V30 7911 O 754.718 1.38726 -1.66084 0
M  V30 7912 C 755.313 -1.70431 -2.92812 0
M  V30 7913 C 753.872 -1.53521 -3.43669 0
M  V30 7914 C 753.019 -1.7179 -2.17678 0
M  V30 7915 H 755.97 -1.3065 -0.9009 0
M  V30 7916 H 755.991 -1.17566 -3.61882 0
M  V30 7917 H 755.503 -2.76538 -2.72302 0
M  V30 7918 H 753.604 -0.498224 -3.69254 0
M  V30 7919 H 753.717 -2.31422 -4.19501 0
M  V30 7920 H 752.081 -1.14468 -2.27529 0
M  V30 7921 H 752.864 -2.79269 -1.99659 0
M  V30 7922 N 755.309 1.25446 -0.953992 0
M  V30 7923 C 756.534 1.97755 -0.625129 0
M  V30 7924 C 756.959 1.70437 0.795787 0
M  V30 7925 O 756.317 0.95992 1.53803 0
M  V30 7926 C 756.365 3.49463 -0.889251 0
M  V30 7927 O 755.469 4.12387 0.0322757 0
M  V30 7928 H 754.81 0.61998 -0.237742 0
M  V30 7929 H 757.34 1.59582 -1.28041 0
M  V30 7930 H 757.35 3.99772 -0.815263 0
M  V30 7931 H 756.025 3.68676 -1.92487 0
M  V30 7932 H 754.602 3.72782 -0.0938625 0
M  V30 7933 N 756.787 0.722489 1.40064 0
M  V30 7934 C 757.717 0.0892452 2.33329 0
M  V30 7935 C 758.698 -0.737992 1.53257 0
M  V30 7936 O 759.883 -0.685516 1.81698 0
M  V30 7937 C 757.013 -0.828139 3.37282 0
M  V30 7938 C 755.967 -0.106005 4.27869 0
M  V30 7939 C 755.293 -1.13957 5.22415 0
M  V30 7940 C 756.593 1.04395 5.11761 0
M  V30 7941 H 758.287 0.868269 2.86534 0
M  V30 7942 H 755.833 0.418982 1.3777 0
M  V30 7943 H 757.786 -1.28058 4.01471 0
M  V30 7944 H 756.51 -1.63914 2.82489 0
M  V30 7945 H 755.169 0.326683 3.65142 0
M  V30 7946 H 754.817 -1.9438 4.63924 0
M  V30 7947 H 754.517 -0.661233 5.83868 0
M  V30 7948 H 756.041 -1.59197 5.89482 0
M  V30 7949 H 757.455 0.670541 5.69365 0
M  V30 7950 H 755.852 1.4511 5.82291 0
M  V30 7951 H 756.922 1.87144 4.47331 0
M  V30 7952 N 758.265 -1.50454 0.469181 0
M  V30 7953 C 759.681 -1.59124 0.123226 0
M  V30 7954 C 759.881 -1.47749 -1.37013 0
M  V30 7955 O 758.937 -1.335 -2.14322 0
M  V30 7956 C 760.25 -2.93101 0.67172 0
M  V30 7957 C 761.798 -3.06491 0.634978 0
M  V30 7958 C 762.273 -4.43041 1.16098 0
M  V30 7959 N 763.764 -4.49448 1.12031 0
M  V30 7960 C 764.499 -5.53491 1.49784 0
M  V30 7961 N 763.995 -6.64798 1.94976 0
M  V30 7962 N 765.788 -5.44025 1.41399 0
M  V30 7963 H 757.939 -1.56091 1.44046 0
M  V30 7964 H 760.202 -0.737564 0.59557 0
M  V30 7965 H 759.908 -3.06895 1.7178 0
M  V30 7966 H 759.782 -3.77027 0.114222 0
M  V30 7967 H 762.169 -2.92346 -0.402187 0
M  V30 7968 H 762.25 -2.24328 1.22926 0
M  V30 7969 H 761.894 -4.57935 2.19677 0
M  V30 7970 H 761.824 -5.23794 0.542939 0
M  V30 7971 H 764.315 -3.69575 0.788828 0
M  V30 7972 H 764.628 -7.40246 2.21936 0
M  V30 7973 H 762.973 -6.65923 1.98927 0
M  V30 7974 H 766.164 -4.55955 1.05935 0
M  V30 7975 H 766.337 -6.2499 1.71147 0
M  V30 7976 N 759.743 -0.201713 -1.56304 0
M  V30 7977 C 760.971 0.440723 -2.02152 0
M  V30 7978 C 761.386 1.54735 -1.08179 0
M  V30 7979 O 760.743 1.82289 -0.0878196 0
M  V30 7980 C 760.794 0.990884 -3.47655 0
M  V30 7981 O 760.515 -0.0715937 -4.38041 0
M  V30 7982 C 762.016 1.70854 -4.09052 0
M  V30 7983 H 759.236 0.109987 -0.661924 0
M  V30 7984 H 761.78 -0.312358 -2.021 0
M  V30 7985 H 759.935 1.69432 -3.48384 0
M  V30 7986 H 760.349 0.338892 -5.23404 0
M  V30 7987 H 761.823 2.04572 -5.12693 0
M  V30 7988 H 762.3 2.61462 -3.52894 0
M  V30 7989 H 762.906 1.0508 -4.12114 0
M  V30 7990 N 761.222 1.57436 0.0718424 0
M  V30 7991 C 762.152 2.06724 1.08571 0
M  V30 7992 C 763.133 0.960731 1.40371 0
M  V30 7993 O 764.318 1.23345 1.49999 0
M  V30 7994 C 761.448 2.51112 2.39916 0
M  V30 7995 C 760.402 3.65639 2.22469 0
M  V30 7996 C 759.728 3.96082 3.59198 0
M  V30 7997 C 761.028 4.95687 1.64596 0
M  V30 7998 H 762.722 2.91679 0.675569 0
M  V30 7999 H 760.268 1.40319 0.32352 0
M  V30 8000 H 762.221 2.84206 3.11135 0
M  V30 8001 H 760.945 1.63186 2.8291 0
M  V30 8002 H 759.604 3.32828 1.53691 0
M  V30 8003 H 759.252 3.05287 3.99761 0
M  V30 8004 H 758.952 4.73199 3.48362 0
M  V30 8005 H 760.476 4.31672 4.31847 0
M  V30 8006 H 761.89 5.27011 2.25681 0
M  V30 8007 H 760.287 5.77126 1.64457 0
M  V30 8008 H 761.357 4.8108 0.60744 0
M  V30 8009 N 762.7 -0.34323 1.53817 0
M  V30 8010 C 763.61 -1.44493 1.84821 0
M  V30 8011 C 764.626 -1.57556 0.738381 0
M  V30 8012 O 765.802 -1.73026 1.03072 0
M  V30 8013 C 762.867 -2.79478 2.05166 0
M  V30 8014 C 761.928 -2.75756 3.29025 0
M  V30 8015 C 761.161 -4.04302 3.4839 0
M  V30 8016 O 761.384 -5.01595 2.71586 0
M  V30 8017 O 760.318 -4.08754 4.41819 0
M  V30 8018 H 764.144 -1.21209 2.78464 0
M  V30 8019 H 761.729 -0.535437 1.39476 0
M  V30 8020 H 763.611 -3.59419 2.19991 0
M  V30 8021 H 762.286 -3.02692 1.14713 0
M  V30 8022 H 761.193 -1.94434 3.19603 0
M  V30 8023 H 762.526 -2.57495 4.19472 0
M  V30 8024 N 764.178 -1.45556 -0.604258 0
M  V30 8025 C 765.455 -1.40221 -1.36373 0
M  V30 8026 C 765.835 -0.0745195 -2.10968 0
M  V30 8027 O 765.183 0.943594 -2.08107 0
M  V30 8028 C 765.393 -2.61807 -2.30777 0
M  V30 8029 C 766.741 -3.07037 -2.93281 0
M  V30 8030 O 767.765 -2.62203 -2.41097 0
M  V30 8031 O 766.624 -3.8485 -3.88011 0
M  V30 8032 H 763.718 -0.556602 -0.611656 0
M  V30 8033 H 766.264 -1.57689 -0.627069 0
M  V30 8034 H 765.036 -3.50017 -1.74939 0
M  V30 8035 H 764.659 -2.46688 -3.11818 0
M  V30 8036 N 765.656 0.84705 -1.32902 0
M  V30 8037 C 766.604 1.97765 -1.22441 0
M  V30 8038 C 767.598 1.68919 -0.127546 0
M  V30 8039 O 768.804 1.77633 -0.290973 0
M  V30 8040 H 765.179 0.649072 -0.379748 0
M  V30 8041 H 767.15 2.03713 -2.18044 0
M  V30 8042 C 765.899 3.33834 -0.972125 0
M  V30 8043 H 765.222 3.56564 -1.80837 0
M  V30 8044 H 766.662 4.13467 -0.939209 0
M  V30 8045 C 765.121 3.35328 0.325059 0
M  V30 8046 O 765.651 3.78887 1.33445 0
M  V30 8047 N 763.857 2.88488 0.349718 0
M  V30 8048 H 763.404 2.53234 -0.472236 0
M  V30 8049 H 763.362 2.8987 1.21748 0
M  V30 8050 N 767.134 1.16236 1.06428 0
M  V30 8051 C 768.044 0.881976 2.1739 0
M  V30 8052 C 769.06 -0.145259 1.73393 0
M  V30 8053 O 770.236 0.0310558 2.01376 0
M  V30 8054 C 767.301 0.385496 3.4455 0
M  V30 8055 C 766.362 1.47779 4.03063 0
M  V30 8056 C 765.595 1.0049 5.24154 0
M  V30 8057 O 765.818 -0.145889 5.70213 0
M  V30 8058 O 764.752 1.79265 5.74585 0
M  V30 8059 H 768.578 1.80983 2.43883 0
M  V30 8060 H 766.163 0.942226 1.15942 0
M  V30 8061 H 768.045 0.115536 4.21242 0
M  V30 8062 H 766.72 -0.514369 3.19587 0
M  V30 8063 H 765.627 1.80147 3.27869 0
M  V30 8064 H 766.96 2.35291 4.32318 0
M  V30 8065 N 768.612 -1.24939 0.960631 0
M  V30 8066 C 769.522 -2.29374 0.492435 0
M  V30 8067 C 770.538 -1.68262 -0.443154 0
M  V30 8068 O 771.714 -1.98875 -0.31793 0
M  V30 8069 C 768.779 -3.46023 -0.216626 0
M  V30 8070 C 767.84 -4.22557 0.757915 0
M  V30 8071 C 767.073 -5.33636 0.0825969 0
M  V30 8072 O 767.296 -5.59084 -1.13054 0
M  V30 8073 O 766.23 -5.96939 0.771177 0
M  V30 8074 H 770.056 -2.71525 1.36044 0
M  V30 8075 H 767.641 -1.30499 0.72735 0
M  V30 8076 H 769.523 -4.16885 -0.615241 0
M  V30 8077 H 768.198 -3.05862 -1.05971 0
M  V30 8078 H 767.105 -3.54099 1.20685 0
M  V30 8079 H 768.438 -4.66516 1.5692 0
M  V30 8080 N 770.09 -0.729906 -1.39679 0
M  V30 8081 C 771.506 -0.404951 -1.54377 0
M  V30 8082 C 771.706 1.08476 -1.6981 0
M  V30 8083 O 770.762 1.87087 -1.69572 0
M  V30 8084 C 772.075 -1.18352 -2.76429 0
M  V30 8085 C 773.623 -1.17124 -2.9026 0
M  V30 8086 C 774.098 -1.93227 -4.15244 0
M  V30 8087 N 775.589 -1.90368 -4.22273 0
M  V30 8088 C 776.324 -2.46065 -5.17918 0
M  V30 8089 N 775.82 -3.10378 -6.19385 0
M  V30 8090 N 777.613 -2.36127 -5.10099 0
M  V30 8091 H 769.764 -1.69567 -1.27909 0
M  V30 8092 H 772.027 -0.717527 -0.619564 0
M  V30 8093 H 771.733 -2.23743 -2.71352 0
M  V30 8094 H 771.607 -0.784589 -3.6895 0
M  V30 8095 H 773.994 -0.125478 -2.94833 0
M  V30 8096 H 774.075 -1.60951 -1.98817 0
M  V30 8097 H 773.719 -2.97802 -4.11432 0
M  V30 8098 H 773.649 -1.4681 -5.05722 0
M  V30 8099 H 776.14 -1.4351 -3.4959 0
M  V30 8100 H 776.453 -3.50358 -6.88817 0
M  V30 8101 H 774.798 -3.14467 -6.19787 0
M  V30 8102 H 777.989 -1.85529 -4.29763 0
M  V30 8103 H 778.162 -2.79833 -5.84463 0
M  V30 8104 N 771.568 1.50203 -0.477153 0
M  V30 8105 C 772.501 2.25343 0.359983 0
M  V30 8106 C 773.479 1.28909 0.991022 0
M  V30 8107 O 774.663 1.58146 1.02578 0
M  V30 8108 C 771.79 3.03431 1.5049 0
M  V30 8109 C 770.836 4.14836 0.99063 0
M  V30 8110 S 771.669 5.35407 -0.0995413 0
M  V30 8111 C 772.825 6.17045 1.04911 0
M  V30 8112 H 773.058 2.95999 -0.277836 0
M  V30 8113 H 770.591 1.52159 -0.262115 0
M  V30 8114 H 772.549 3.49012 2.16105 0
M  V30 8115 H 771.21 2.32289 2.11425 0
M  V30 8116 H 770.403 4.689 1.84794 0
M  V30 8117 H 770.005 3.71723 0.412097 0
M  V30 8118 H 772.297 6.48546 1.95946 0
M  V30 8119 H 773.24 7.05979 0.547596 0
M  V30 8120 H 773.648 5.49193 1.30567 0
M  V30 8121 N 773.046 0.209999 1.56195 0
M  V30 8122 C 774.271 -0.433064 2.02828 0
M  V30 8123 C 774.696 -1.5337 1.08901 0
M  V30 8124 O 774.054 -1.81144 0.0751132 0
M  V30 8125 C 774.102 -0.952635 3.47789 0
M  V30 8126 O 773.206 -2.0647 3.56993 0
M  V30 8127 H 772.547 -0.0994594 0.656509 0
M  V30 8128 H 775.077 0.32525 2.01998 0
M  V30 8129 H 775.087 -1.26542 3.8788 0
M  V30 8130 H 773.762 -0.147007 4.1564 0
M  V30 8131 H 772.339 -1.75942 3.28784 0
M  V30 8132 N 774.524 -1.57472 -0.0634922 0
M  V30 8133 C 775.94 -1.54016 -0.418466 0
M  V30 8134 C 776.14 -0.931376 -1.78683 0
M  V30 8135 O 775.196 -0.537465 -2.46714 0
M  V30 8136 C 776.509 -2.98634 -0.351906 0
M  V30 8137 C 778.057 -3.10012 -0.431494 0
M  V30 8138 C 778.532 -4.56296 -0.394754 0
M  V30 8139 N 780.023 -4.60964 -0.454583 0
M  V30 8140 C 780.758 -5.71643 -0.448501 0
M  V30 8141 N 780.254 -6.91663 -0.396742 0
M  V30 8142 N 782.047 -5.5991 -0.495677 0
M  V30 8143 H 774.198 -1.95409 0.832408 0
M  V30 8144 H 776.461 -0.894769 0.313197 0
M  V30 8145 H 776.167 -3.46766 0.587048 0
M  V30 8146 H 776.041 -3.58955 -1.15893 0
M  V30 8147 H 778.428 -2.61848 -1.36087 0
M  V30 8148 H 778.509 -2.52585 0.404258 0
M  V30 8149 H 778.153 -5.05119 0.530811 0
M  V30 8150 H 778.083 -5.11594 -1.24815 0
M  V30 8151 H 780.574 -3.74598 -0.498496 0
M  V30 8152 H 780.887 -7.71783 -0.396256 0
M  V30 8153 H 779.232 -6.9405 -0.363304 0
M  V30 8154 H 782.423 -4.65046 -0.533864 0
M  V30 8155 H 782.596 -6.46164 -0.487469 0
M  V30 8156 N 776.003 0.335068 -1.53997 0
M  V30 8157 C 776.933 1.41727 -1.85568 0
M  V30 8158 C 777.914 1.54505 -0.7115 0
M  V30 8159 O 779.099 1.68573 -0.964191 0
M  V30 8160 C 776.229 2.7866 -2.07282 0
M  V30 8161 C 775.183 2.80682 -3.23112 0
M  V30 8162 C 774.509 4.20581 -3.30175 0
M  V30 8163 C 775.809 2.45458 -4.61029 0
M  V30 8164 H 777.503 1.15555 -2.76202 0
M  V30 8165 H 775.049 0.554445 -1.32898 0
M  V30 8166 H 777.002 3.54423 -2.27952 0
M  V30 8167 H 775.726 3.06286 -1.13387 0
M  V30 8168 H 774.385 2.07373 -3.02311 0
M  V30 8169 H 774.033 4.4533 -2.33859 0
M  V30 8170 H 773.733 4.22843 -4.08016 0
M  V30 8171 H 775.257 4.98174 -3.53066 0
M  V30 8172 H 776.671 3.10934 -4.81656 0
M  V30 8173 H 775.068 2.5899 -5.41336 0
M  V30 8174 H 776.138 1.40628 -4.6406 0
M  V30 8175 N 777.481 1.45874 0.596531 0
M  V30 8176 C 778.706 1.54247 1.38646 0
M  V30 8177 C 779.131 0.179571 1.87241 0
M  V30 8178 O 778.489 -0.837831 1.6078 0
M  V30 8179 C 778.537 2.54015 2.55946 0
M  V30 8180 O 777.641 2.06561 3.5694 0
M  V30 8181 H 776.982 0.519555 0.413471 0
M  V30 8182 H 779.512 1.91327 0.724936 0
M  V30 8183 H 779.522 2.73179 3.03047 0
M  V30 8184 H 778.197 3.52994 2.19928 0
M  V30 8185 H 776.774 1.97324 3.16414 0
M  V30 8186 N 778.959 -0.83999 1.33349 0
M  V30 8187 C 779.906 -1.94972 1.23509 0
M  V30 8188 C 780.876 -1.65709 0.113967 0
M  V30 8189 O 782.061 -1.88552 0.292045 0
M  V30 8190 C 779.201 -3.30919 0.979105 0
M  V30 8191 C 778.314 -3.72587 2.18639 0
M  V30 8192 C 777.449 -4.97397 1.86465 0
M  V30 8193 C 776.488 -5.31597 3.03432 0
M  V30 8194 N 775.625 -6.47584 2.71254 0
M  V30 8195 H 780.465 -2.0272 2.18423 0
M  V30 8196 H 778.002 -0.992017 1.08616 0
M  V30 8197 H 779.96 -4.09239 0.811126 0
M  V30 8198 H 778.59 -3.22731 0.0667099 0
M  V30 8199 H 777.642 -2.89799 2.46416 0
M  V30 8200 H 778.954 -3.93844 3.06086 0
M  V30 8201 H 778.108 -5.83462 1.66305 0
M  V30 8202 H 776.847 -4.78107 0.96254 0
M  V30 8203 H 775.852 -4.44037 3.24208 0
M  V30 8204 H 777.077 -5.52836 3.94397 0
M  V30 8205 H 775.023 -6.29783 1.836 0
M  V30 8206 H 774.94 -6.68931 3.52231 0
M  V30 8207 H 776.208 -7.36764 2.54558 0
M  V30 8208 N 780.437 -1.16799 -1.0581 0
M  V30 8209 C 781.683 -0.953935 -1.78963 0
M  V30 8210 C 782.016 0.516638 -1.87202 0
M  V30 8211 O 781.291 1.38338 -1.36721 0
M  V30 8212 C 781.574 -1.58808 -3.23191 0
M  V30 8213 C 781.427 -3.13032 -3.23003 0
M  V30 8214 C 782.746 -1.2868 -4.20867 0
M  V30 8215 H 779.865 -0.347972 -0.64968 0
M  V30 8216 H 782.507 -1.44204 -1.23715 0
M  V30 8217 H 780.657 -1.17303 -3.70368 0
M  V30 8218 H 782.329 -3.63553 -2.83949 0
M  V30 8219 H 780.572 -3.46108 -2.61518 0
M  V30 8220 H 781.243 -3.52527 -4.24769 0
M  V30 8221 H 783.719 -1.6461 -3.82155 0
M  V30 8222 H 782.595 -1.75645 -5.20038 0
M  V30 8223 H 782.856 -0.206491 -4.41618 0
M  V30 8224 N 781.915 1.24427 -0.967243 0
M  V30 8225 C 782.878 2.23637 -0.501927 0
M  V30 8226 C 783.878 1.55712 0.401283 0
M  V30 8227 O 785.068 1.73085 0.196808 0
M  V30 8228 C 782.2 3.39804 0.273176 0
M  V30 8229 H 783.393 2.66317 -1.37897 0
M  V30 8230 H 780.946 1.37033 -0.751783 0
M  V30 8231 H 781.681 3.02562 1.16733 0
M  V30 8232 H 781.466 3.90303 -0.37498 0
M  V30 8233 H 782.956 4.13443 0.587776 0
M  V30 8234 N 783.393 0.737304 1.3929 0
M  V30 8235 C 784.804 0.355966 1.83275 0
M  V30 8236 C 785.155 -1.11295 1.6158 0
M  V30 8237 O 784.28 -1.85871 1.10819 0
M  V30 8238 C 784.875 0.63931 3.32713 0
M  V30 8239 C 783.434 0.31144 3.75109 0
M  V30 8240 C 782.581 0.900765 2.62262 0
M  V30 8241 H 785.532 0.934763 1.28249 0
M  V30 8242 H 785.553 -0.0881293 3.80398 0
M  V30 8243 H 785.065 1.70847 3.48472 0
M  V30 8244 H 783.166 -0.751791 3.64937 0
M  V30 8245 H 783.279 0.795611 4.72448 0
M  V30 8246 H 781.643 0.327239 2.52589 0
M  V30 8247 H 782.426 1.97463 2.80826 0
M  V30 8248 N 784.871 -1.49948 0.485112 0
M  V30 8249 C 786.117 -2.02695 -0.0651022 0
M  V30 8250 C 786.45 -1.36534 -1.38102 0
M  V30 8251 O 785.725 -0.495677 -1.88078 0
M  V30 8252 C 786.008 -3.59337 -0.234285 0
M  V30 8253 C 785.861 -4.3605 1.10364 0
M  V30 8254 C 787.18 -4.28996 -0.982351 0
M  V30 8255 H 784.299 -0.736666 -0.0221856 0
M  V30 8256 H 786.941 -1.7913 0.633433 0
M  V30 8257 H 785.091 -3.79546 -0.829262 0
M  V30 8258 H 786.763 -4.27377 1.73627 0
M  V30 8259 H 785.006 -3.99236 1.69686 0
M  V30 8260 H 785.677 -5.43959 0.938743 0
M  V30 8261 H 788.153 -4.13346 -0.477904 0
M  V30 8262 H 787.029 -5.38379 -1.06955 0
M  V30 8263 H 787.29 -3.93135 -2.02231 0
M  V30 8264 N 786.349 -0.21828 -1.56081 0
M  V30 8265 C 787.598 0.414644 -1.97392 0
M  V30 8266 C 787.911 1.61132 -1.10887 0
M  V30 8267 O 789.117 2.31355 -1.42082 0
M  V30 8268 C 787.573 0.789099 -3.51143 0
M  V30 8269 C 787.181 -0.384578 -4.46346 0
M  V30 8270 C 788.925 1.38781 -4.01173 0
M  V30 8271 C 786.832 0.0121288 -5.91399 0
M  V30 8272 H 785.762 0.158691 -0.737111 0
M  V30 8273 H 788.413 -0.313974 -1.80794 0
M  V30 8274 H 786.795 1.57505 -3.6333 0
M  V30 8275 H 787.969 -1.16212 -4.45905 0
M  V30 8276 H 786.284 -0.896306 -4.06639 0
M  V30 8277 H 788.881 1.69746 -5.07041 0
M  V30 8278 H 789.224 2.30245 -3.46833 0
M  V30 8279 H 789.757 0.665364 -3.92196 0
M  V30 8280 H 786.496 -0.868917 -6.49715 0
M  V30 8281 H 786.016 0.754053 -5.95041 0
M  V30 8282 H 787.695 0.439949 -6.45502 0
M  V30 8283 N 787.827 1.57504 0.0551401 0
M  V30 8284 C 788.774 2.04825 1.06373 0
M  V30 8285 C 789.744 0.932108 1.37481 0
M  V30 8286 O 790.929 1.20093 1.48265 0
M  V30 8287 C 788.069 2.51091 2.36743 0
M  V30 8288 C 787.182 3.76392 2.12021 0
M  V30 8289 C 786.317 4.11373 3.36074 0
M  V30 8290 C 785.356 5.29666 3.0679 0
M  V30 8291 N 784.493 5.60205 4.2322 0
M  V30 8292 H 789.333 2.90753 0.653216 0
M  V30 8293 H 786.87 1.43776 0.310951 0
M  V30 8294 H 788.828 2.75973 3.12881 0
M  V30 8295 H 787.458 1.68118 2.75565 0
M  V30 8296 H 786.51 3.58751 1.26498 0
M  V30 8297 H 787.822 4.62662 1.86401 0
M  V30 8298 H 786.976 4.37245 4.20597 0
M  V30 8299 H 785.715 3.23704 3.64784 0
M  V30 8300 H 784.72 5.03574 2.20664 0
M  V30 8301 H 785.945 6.18968 2.79385 0
M  V30 8302 H 783.891 4.75495 4.5193 0
M  V30 8303 H 783.808 6.40928 4.00933 0
M  V30 8304 H 785.076 5.90637 5.08692 0
M  V30 8305 N 789.305 -0.326896 1.54172 0
M  V30 8306 C 790.268 -1.38515 1.8261 0
M  V30 8307 C 791.268 -1.44872 0.697771 0
M  V30 8308 O 792.458 -1.44957 0.966078 0
M  V30 8309 C 789.59 -2.77281 1.98313 0
M  V30 8310 H 790.783 -1.14556 2.77159 0
M  V30 8311 H 788.336 -0.562199 1.45839 0
M  V30 8312 H 789.071 -3.065 1.05964 0
M  V30 8313 H 788.856 -2.74061 2.80416 0
M  V30 8314 H 790.346 -3.53845 2.21773 0
M  V30 8315 N 790.784 -1.46188 -0.588786 0
M  V30 8316 C 792.2 -1.31009 -0.911524 0
M  V30 8317 C 792.4 -0.277017 -1.99587 0
M  V30 8318 O 791.456 0.322532 -2.50432 0
M  V30 8319 C 792.769 -2.69459 -1.33463 0
M  V30 8320 C 794.317 -2.77502 -1.44782 0
M  V30 8321 C 794.792 -4.1652 -1.90461 0
M  V30 8322 N 796.283 -4.18907 -1.97665 0
M  V30 8323 C 797.018 -5.23359 -2.34271 0
M  V30 8324 N 796.514 -6.38143 -2.69714 0
M  V30 8325 N 798.307 -5.10723 -2.34774 0
M  V30 8326 H 790.458 -2.12016 0.127614 0
M  V30 8327 H 792.721 -0.947984 -0.00557599 0
M  V30 8328 H 792.427 -3.46336 -0.611929 0
M  V30 8329 H 792.301 -2.99165 -2.2974 0
M  V30 8330 H 794.688 -2.00917 -2.1614 0
M  V30 8331 H 794.769 -2.51488 -0.467724 0
M  V30 8332 H 794.413 -4.93597 -1.19684 0
M  V30 8333 H 794.343 -4.39937 -2.89418 0
M  V30 8334 H 796.834 -3.36084 -1.72789 0
M  V30 8335 H 797.147 -7.13624 -2.96582 0
M  V30 8336 H 795.492 -6.41514 -2.67366 0
M  V30 8337 H 798.683 -4.20088 -2.06503 0
M  V30 8338 H 798.856 -5.9224 -2.62975 0
M  V30 8339 N 792.262 0.832906 -1.33792 0
M  V30 8340 C 793.195 1.94788 -1.18882 0
M  V30 8341 C 794.173 1.62389 -0.0828426 0
M  V30 8342 O 795.357 1.86886 -0.246175 0
M  V30 8343 C 792.484 3.28506 -0.824728 0
M  V30 8344 C 791.53 3.79872 -1.93905 0
M  V30 8345 S 792.363 4.00832 -3.55097 0
M  V30 8346 C 793.519 5.37492 -3.20708 0
M  V30 8347 H 793.752 2.07137 -2.13264 0
M  V30 8348 H 791.285 0.987362 -1.18704 0
M  V30 8349 H 793.243 4.05769 -0.621442 0
M  V30 8350 H 791.904 3.13939 0.100587 0
M  V30 8351 H 791.097 4.76647 -1.6378 0
M  V30 8352 H 790.699 3.09524 -2.09931 0
M  V30 8353 H 792.991 6.20544 -2.71903 0
M  V30 8354 H 793.934 5.72593 -4.16584 0
M  V30 8355 H 794.342 5.02529 -2.57148 0
M  V30 8356 N 793.74 1.17359 1.05189 0
M  V30 8357 C 794.673 0.833768 2.12423 0
M  V30 8358 C 795.651 -0.19945 1.61372 0
M  V30 8359 O 796.835 -0.080979 1.88326 0
M  V30 8360 C 793.962 0.243745 3.37822 0
M  V30 8361 C 793.008 1.25235 4.07699 0
M  V30 8362 S 793.841 2.80368 4.56239 0
M  V30 8363 C 794.997 2.22846 5.84885 0
M  V30 8364 H 795.23 1.74197 2.40921 0
M  V30 8365 H 792.763 0.998242 1.1779 0
M  V30 8366 H 794.721 -0.0901915 4.10401 0
M  V30 8367 H 793.382 -0.642396 3.07461 0
M  V30 8368 H 792.575 0.788168 4.97799 0
M  V30 8369 H 792.177 1.53194 3.41185 0
M  V30 8370 H 794.469 1.60403 6.58238 0
M  V30 8371 H 795.412 3.112 6.3605 0
M  V30 8372 H 795.82 1.66296 5.39449 0
M  V30 8373 N 795.218 -1.23913 0.973828 0
M  V30 8374 C 796.128 -2.28838 0.516735 0
M  V30 8375 C 797.144 -1.68723 -0.425282 0
M  V30 8376 O 798.32 -1.99201 -0.296819 0
M  V30 8377 C 795.385 -3.46233 -0.179914 0
M  V30 8378 C 794.446 -4.21729 0.80269 0
M  V30 8379 C 793.679 -5.33518 0.139191 0
M  V30 8380 O 793.902 -5.60252 -1.07118 0
M  V30 8381 O 792.836 -5.96088 0.834447 0
M  V30 8382 H 796.662 -2.70067 1.38916 0
M  V30 8383 H 794.247 -1.2972 0.74115 0
M  V30 8384 H 796.129 -4.17514 -0.570991 0
M  V30 8385 H 794.804 -3.06969 -1.02721 0
M  V30 8386 H 793.711 -3.52799 1.24434 0
M  V30 8387 H 795.044 -4.64825 1.61859 0
M  V30 8388 N 796.696 -0.74468 -1.38897 0
M  V30 8389 C 797.926 -0.306982 -2.04307 0
M  V30 8390 C 798.334 1.06652 -1.56275 0
M  V30 8391 O 797.677 1.68699 -0.72708 0
M  V30 8392 C 797.739 -0.241186 -3.5869 0
M  V30 8393 C 797.403 -1.55476 -4.2974 0
M  V30 8394 C 798.4 -2.50229 -4.55721 0
M  V30 8395 C 796.085 -1.82173 -4.68101 0
M  V30 8396 C 798.079 -3.69905 -5.19085 0
M  V30 8397 C 795.766 -3.02125 -5.31191 0
M  V30 8398 C 796.764 -3.95812 -5.56616 0
M  V30 8399 O 796.452 -5.13656 -6.18395 0
M  V30 8400 H 796.184 -0.130416 -0.663301 0
M  V30 8401 H 798.738 -1.01192 -1.78744 0
M  V30 8402 H 796.968 0.519925 -3.83189 0
M  V30 8403 H 798.657 0.165806 -4.05561 0
M  V30 8404 H 799.423 -2.30877 -4.26522 0
M  V30 8405 H 795.302 -1.10091 -4.47662 0
M  V30 8406 H 798.846 -4.43047 -5.38846 0
M  V30 8407 H 794.743 -3.21374 -5.59811 0
M  V30 8408 H 795.511 -5.14119 -6.36886 0
M  V30 8409 N 798.174 1.49689 -0.493057 0
M  V30 8410 C 799.422 2.02027 0.0541642 0
M  V30 8411 C 799.743 1.37554 1.38217 0
M  V30 8412 O 799.013 0.528174 1.88646 0
M  V30 8413 H 797.593 0.746646 0.0230069 0
M  V30 8414 H 800.255 1.83795 -0.648489 0
M  V30 8415 H 799.351 3.11523 0.189652 0
M  V30 8416 N 799.652 0.226554 1.55963 0
M  V30 8417 C 800.88 -0.408507 2.02827 0
M  V30 8418 C 801.295 -1.52994 1.10627 0
M  V30 8419 O 800.652 -1.82126 0.116809 0
M  V30 8420 C 800.703 -0.93545 3.49187 0
M  V30 8421 O 800.424 0.141273 4.37872 0
M  V30 8422 C 801.925 -1.64325 4.11719 0
M  V30 8423 H 799.145 -0.099442 0.66359 0
M  V30 8424 H 801.689 0.344471 2.01578 0
M  V30 8425 H 799.844 -1.63868 3.51036 0
M  V30 8426 H 800.258 -0.25558 5.23877 0
M  V30 8427 H 801.732 -1.9639 5.15883 0
M  V30 8428 H 802.209 -2.55815 3.57009 0
M  V30 8429 H 802.815 -0.9851 4.13734 0
M  V30 8430 N 801.13 -1.57531 -0.0467866 0
M  V30 8431 C 802.358 -1.92696 -0.753371 0
M  V30 8432 C 802.773 -0.824792 -1.69831 0
M  V30 8433 O 802.13 0.200155 -1.81399 0
M  V30 8434 C 802.181 -3.27728 -1.52566 0
M  V30 8435 O 801.902 -4.3371 -0.618674 0
M  V30 8436 C 803.403 -3.77066 -2.33101 0
M  V30 8437 H 800.623 -0.636367 -0.212788 0
M  V30 8438 H 803.167 -2.04498 -0.00959361 0
M  V30 8439 H 801.322 -3.17378 -2.22148 0
M  V30 8440 H 801.736 -5.11548 -1.15839 0
M  V30 8441 H 803.21 -4.74109 -2.82709 0
M  V30 8442 H 803.687 -3.07348 -3.13741 0
M  V30 8443 H 804.293 -3.90442 -1.68628 0
M  V30 8444 N 802.608 0.318715 -1.54344 0
M  V30 8445 C 803.541 1.41644 -1.7892 0
M  V30 8446 C 804.519 1.495 -0.639421 0
M  V30 8447 O 805.703 1.66835 -0.877404 0
M  V30 8448 C 802.83 2.79701 -1.9101 0
M  V30 8449 C 801.876 2.89354 -3.13331 0
M  V30 8450 S 802.709 2.53264 -4.71824 0
M  V30 8451 C 803.865 3.93384 -4.86826 0
M  V30 8452 H 804.098 1.20585 -2.71747 0
M  V30 8453 H 801.631 0.515828 -1.45529 0
M  V30 8454 H 803.589 3.59227 -1.98661 0
M  V30 8455 H 802.25 2.9804 -0.991516 0
M  V30 8456 H 801.443 3.90574 -3.1854 0
M  V30 8457 H 801.045 2.17805 -3.04035 0
M  V30 8458 H 803.337 4.88191 -4.69761 0
M  V30 8459 H 804.28 3.93156 -5.88926 0
M  V30 8460 H 804.688 3.82564 -4.15097 0
M  V30 8461 N 804.086 1.46499 0.581025 0
M  V30 8462 C 805.332 1.52121 1.34116 0
M  V30 8463 C 805.665 0.173031 1.93428 0
M  V30 8464 O 804.94 -0.815729 1.76568 0
M  V30 8465 C 805.223 2.62108 2.46924 0
M  V30 8466 C 805.076 4.06462 1.92636 0
M  V30 8467 C 806.395 2.68167 3.48962 0
M  V30 8468 H 803.514 0.5538 0.486287 0
M  V30 8469 H 806.156 1.78443 0.652538 0
M  V30 8470 H 804.306 2.39794 3.05665 0
M  V30 8471 H 805.978 4.40068 1.3834 0
M  V30 8472 H 804.221 4.15862 1.23455 0
M  V30 8473 H 804.892 4.79152 2.74076 0
M  V30 8474 H 807.368 2.8823 3.00104 0
M  V30 8475 H 806.244 3.46942 4.2535 0
M  V30 8476 H 806.505 1.74284 4.06297 0
M  V30 8477 N 805.565 -0.825799 1.34232 0
M  V30 8478 C 806.79 -1.61883 1.29648 0
M  V30 8479 C 807.215 -1.87669 -0.127295 0
M  V30 8480 O 806.573 -1.45016 -1.08813 0
M  V30 8481 C 806.621 -2.93846 2.09014 0
M  V30 8482 O 805.725 -3.85778 1.4577 0
M  V30 8483 H 805.066 -0.492454 0.445405 0
M  V30 8484 H 807.596 -1.02641 1.76992 0
M  V30 8485 H 807.606 -3.43435 2.20264 0
M  V30 8486 H 806.281 -2.74401 3.12533 0
M  V30 8487 H 804.858 -3.4429 1.43245 0
M  V30 8488 N 807.043 -1.17915 -1.04565 0
M  V30 8489 C 808.273 -0.994716 -1.81077 0
M  V30 8490 C 808.681 0.460146 -1.83519 0
M  V30 8491 O 808.024 1.33136 -1.26572 0
M  V30 8492 C 808.086 -1.46698 -3.28207 0
M  V30 8493 C 807.75 -2.94523 -3.49436 0
M  V30 8494 C 808.747 -3.92414 -3.41038 0
M  V30 8495 C 806.432 -3.32841 -3.76194 0
M  V30 8496 C 808.426 -5.2662 -3.59096 0
M  V30 8497 C 806.113 -4.67212 -3.93899 0
M  V30 8498 C 807.111 -5.6391 -3.8535 0
M  V30 8499 O 806.799 -6.95849 -4.02554 0
M  V30 8500 H 806.531 -0.351797 -0.577248 0
M  V30 8501 H 809.085 -1.56772 -1.32709 0
M  V30 8502 H 807.315 -0.837592 -3.7752 0
M  V30 8503 H 809.004 -1.24724 -3.86263 0
M  V30 8504 H 809.77 -3.64157 -3.20336 0
M  V30 8505 H 805.649 -2.58139 -3.81949 0
M  V30 8506 H 809.193 -6.02082 -3.52339 0
M  V30 8507 H 805.09 -4.95172 -4.14095 0
M  V30 8508 H 805.858 -7.02679 -4.19743 0
M  V30 8509 N 808.521 1.23394 -0.980386 0
M  V30 8510 C 809.453 2.24146 -0.478657 0
M  V30 8511 C 810.466 1.57303 0.419492 0
M  V30 8512 O 811.655 1.77094 0.223631 0
M  V30 8513 C 808.755 3.3732 0.326913 0
M  V30 8514 C 807.928 4.33744 -0.56436 0
M  V30 8515 C 806.987 5.25866 0.187358 0
M  V30 8516 O 806.013 5.67626 -0.423019 0
M  V30 8517 N 807.215 5.61492 1.47335 0
M  V30 8518 H 809.98 2.67826 -1.34496 0
M  V30 8519 H 807.541 1.37566 -0.853653 0
M  V30 8520 H 809.533 3.95926 0.838148 0
M  V30 8521 H 808.103 2.92823 1.09422 0
M  V30 8522 H 807.323 3.73641 -1.25642 0
M  V30 8523 H 808.611 4.95123 -1.17177 0
M  V30 8524 H 808.009 5.29514 1.99077 0
M  V30 8525 H 806.566 6.2257 1.93002 0
M  V30 8526 N 809.999 0.752036 1.385 0
M  V30 8527 C 811.41 0.375385 1.82887 0
M  V30 8528 C 811.761 -1.09575 1.62751 0
M  V30 8529 O 810.886 -1.84685 1.12785 0
M  V30 8530 C 811.481 0.674563 3.32017 0
M  V30 8531 C 810.04 0.351208 3.74758 0
M  V30 8532 C 809.187 0.928531 2.61292 0
M  V30 8533 H 812.138 0.948313 1.27251 0
M  V30 8534 H 812.159 -0.0477781 3.8047 0
M  V30 8535 H 811.671 1.74533 3.46641 0
M  V30 8536 H 809.772 -0.713042 3.65714 0
M  V30 8537 H 809.885 0.845675 4.71577 0
M  V30 8538 H 808.249 0.354012 2.52228 0
M  V30 8539 H 809.032 2.0043 2.78716 0
M  V30 8540 N 811.477 -1.49425 0.500989 0
M  V30 8541 C 812.407 -2.31971 -0.266775 0
M  V30 8542 C 813.388 -1.40245 -0.962563 0
M  V30 8543 O 814.573 -1.69154 -0.953968 0
M  V30 8544 C 811.703 -3.20757 -1.33163 0
M  V30 8545 C 810.657 -4.21275 -0.75572 0
M  V30 8546 C 809.983 -4.98997 -1.92109 0
M  V30 8547 C 811.283 -5.21686 0.253213 0
M  V30 8548 H 812.977 -2.96408 0.422237 0
M  V30 8549 H 810.523 -1.4254 0.204505 0
M  V30 8550 H 812.476 -3.77315 -1.87646 0
M  V30 8551 H 811.2 -2.54263 -2.04983 0
M  V30 8552 H 809.859 -3.65861 -0.232637 0
M  V30 8553 H 809.507 -4.28951 -2.62698 0
M  V30 8554 H 809.207 -5.67011 -1.54182 0
M  V30 8555 H 810.731 -5.584 -2.47026 0
M  V30 8556 H 812.145 -5.72939 -0.203483 0
M  V30 8557 H 810.542 -5.9759 0.548322 0
M  V30 8558 H 811.612 -4.70596 1.16909 0
M  V30 8559 N 812.955 -0.234822 -1.55841 0
M  V30 8560 C 814.203 0.392483 -1.98252 0
M  V30 8561 C 814.524 1.59344 -1.12404 0
M  V30 8562 O 813.794 1.94834 -0.204055 0
M  V30 8563 H 812.374 0.147999 -0.732192 0
M  V30 8564 H 815.036 -0.330804 -1.92072 0
M  V30 8565 H 814.132 0.709829 -3.03921 0
M  V30 8566 N 814.433 1.57553 0.0384317 0
M  V30 8567 C 815.71 1.79977 0.766002 0
M  V30 8568 C 816.09 0.830625 1.94072 0
M  V30 8569 O 815.438 -0.129243 2.28134 0
M  V30 8570 C 815.648 3.27434 1.20781 0
M  V30 8571 C 816.996 3.92167 1.62758 0
M  V30 8572 O 818.02 3.31527 1.30263 0
M  V30 8573 O 816.879 4.98917 2.23035 0
M  V30 8574 H 813.973 0.739787 0.369654 0
M  V30 8575 H 816.519 1.69693 0.0159312 0
M  V30 8576 H 815.291 3.89558 0.368792 0
M  V30 8577 H 814.914 3.42571 2.01819 0
M  V30 8578 N 815.911 -0.310526 1.54511 0
M  V30 8579 C 816.858 -1.38264 1.84802 0
M  V30 8580 C 817.828 -1.50808 0.696141 0
M  V30 8581 O 819.013 -1.6582 0.943846 0
M  V30 8582 C 816.153 -2.74422 2.09252 0
M  V30 8583 C 815.266 -2.70405 3.36906 0
M  V30 8584 C 814.401 -3.98495 3.51248 0
M  V30 8585 C 813.44 -3.88836 4.72729 0
M  V30 8586 N 812.577 -5.08683 4.83928 0
M  V30 8587 H 817.417 -1.11732 2.76261 0
M  V30 8588 H 814.954 -0.540609 1.36806 0
M  V30 8589 H 816.912 -3.53593 2.21422 0
M  V30 8590 H 815.542 -2.99235 1.2107 0
M  V30 8591 H 814.594 -1.83151 3.33406 0
M  V30 8592 H 815.906 -2.59155 4.26193 0
M  V30 8593 H 815.06 -4.861 3.63031 0
M  V30 8594 H 813.799 -4.12567 2.60077 0
M  V30 8595 H 812.804 -2.99615 4.60989 0
M  V30 8596 H 814.029 -3.76318 5.65298 0
M  V30 8597 H 811.975 -5.23236 3.95677 0
M  V30 8598 H 811.892 -4.99819 5.67201 0
M  V30 8599 H 813.16 -5.97966 5.00057 0
M  V30 8600 N 817.389 -1.46805 -0.573248 0
M  V30 8601 C 818.635 -1.5283 -1.33307 0
M  V30 8602 C 818.968 -0.183287 -1.93333 0
M  V30 8603 O 818.243 0.806354 -1.76998 0
M  V30 8604 C 818.526 -2.63414 -2.45531 0
M  V30 8605 C 818.379 -4.07478 -1.90478 0
M  V30 8606 C 819.698 -2.70014 -3.47535 0
M  V30 8607 H 816.817 -0.556371 -0.483343 0
M  V30 8608 H 819.459 -1.78787 -0.643066 0
M  V30 8609 H 817.609 -2.41412 -3.04389 0
M  V30 8610 H 819.281 -4.40795 -1.36004 0
M  V30 8611 H 817.524 -4.16511 -1.21248 0
M  V30 8612 H 818.195 -4.80598 -2.71531 0
M  V30 8613 H 820.671 -2.89817 -2.98572 0
M  V30 8614 H 819.547 -3.49192 -4.23504 0
M  V30 8615 H 819.808 -1.76436 -4.05367 0
M  V30 8616 N 818.867 0.818669 -1.34668 0
M  V30 8617 C 819.815 1.95123 -1.26609 0
M  V30 8618 C 820.809 1.68611 -0.163348 0
M  V30 8619 O 822.015 1.76975 -0.328586 0
M  V30 8620 H 818.39 0.640871 -0.393431 0
M  V30 8621 H 820.361 1.99043 -2.22316 0
M  V30 8622 C 819.11 3.31697 -1.04272 0
M  V30 8623 H 818.433 3.52648 -1.8836 0
M  V30 8624 H 819.873 4.11382 -1.0267 0
M  V30 8625 C 818.332 3.35942 0.253858 0
M  V30 8626 O 818.862 3.81632 1.25378 0
M  V30 8627 N 817.068 2.89165 0.288447 0
M  V30 8628 H 816.615 2.52176 -0.525845 0
M  V30 8629 H 816.573 2.92387 1.15572 0
M  V30 8630 N 820.346 1.18468 1.03938 0
M  V30 8631 C 821.593 0.980833 1.77161 0
M  V30 8632 C 821.921 -0.489425 1.88242 0
M  V30 8633 O 821.176 -1.37961 1.388 0
M  V30 8634 C 821.475 1.58229 3.20466 0
M  V30 8635 C 821.141 3.07889 3.29416 0
M  V30 8636 C 819.803 3.48737 3.31566 0
M  V30 8637 C 822.155 4.03903 3.29411 0
M  V30 8638 C 819.483 4.84171 3.31355 0
M  V30 8639 C 821.835 5.39253 3.3074 0
M  V30 8640 C 820.499 5.79547 3.31182 0
M  V30 8641 H 819.769 0.358912 0.648277 0
M  V30 8642 H 822.416 1.47552 1.22069 0
M  V30 8643 H 820.721 1.00964 3.78568 0
M  V30 8644 H 822.418 1.39998 3.75768 0
M  V30 8645 H 819.008 2.75335 3.28464 0
M  V30 8646 H 823.192 3.73395 3.2694 0
M  V30 8647 H 818.448 5.14685 3.30015 0
M  V30 8648 H 822.622 6.13417 3.29686 0
M  V30 8649 H 820.249 6.84466 3.30772 0
M  V30 8650 N 821.824 -1.22873 0.986916 0
M  V30 8651 C 823.071 -1.91462 0.659424 0
M  V30 8652 C 823.399 -1.76931 -0.807825 0
M  V30 8653 O 822.654 -1.12829 -1.59901 0
M  V30 8654 C 822.953 -3.43014 1.00379 0
M  V30 8655 C 822.619 -3.77731 2.46232 0
M  V30 8656 C 821.281 -3.86918 2.86091 0
M  V30 8657 C 823.633 -3.94343 3.40798 0
M  V30 8658 C 820.961 -4.10149 4.19518 0
M  V30 8659 C 823.313 -4.19076 4.73875 0
M  V30 8660 C 821.977 -4.26486 5.13484 0
M  V30 8661 H 821.247 -0.700611 0.2413 0
M  V30 8662 H 823.894 -1.45763 1.24199 0
M  V30 8663 H 822.199 -3.90329 0.339226 0
M  V30 8664 H 823.896 -3.94327 0.728518 0
M  V30 8665 H 820.486 -3.71159 2.14334 0
M  V30 8666 H 824.67 -3.86629 3.11178 0
M  V30 8667 H 819.926 -4.1411 4.49803 0
M  V30 8668 H 824.1 -4.30873 5.47102 0
M  V30 8669 H 821.727 -4.4424 6.16891 0
M  V30 8670 N 823.302 -0.75937 -1.38099 0
M  V30 8671 C 824.718 -0.437606 -1.53483 0
M  V30 8672 C 824.918 1.04849 -1.72072 0
M  V30 8673 O 823.974 1.83448 -1.73502 0
M  V30 8674 C 825.287 -1.24189 -2.73857 0
M  V30 8675 C 826.835 -1.23255 -2.8771 0
M  V30 8676 C 827.31 -2.01992 -4.11051 0
M  V30 8677 N 828.801 -1.99282 -4.1814 0
M  V30 8678 C 829.536 -2.56996 -5.12583 0
M  V30 8679 N 829.032 -3.23446 -6.12662 0
M  V30 8680 N 830.825 -2.46894 -5.04975 0
M  V30 8681 H 822.976 -1.72242 -1.24283 0
M  V30 8682 H 825.239 -0.730507 -0.604205 0
M  V30 8683 H 824.945 -2.29449 -2.66545 0
M  V30 8684 H 824.819 -0.862672 -3.67203 0
M  V30 8685 H 827.206 -0.187988 -2.94501 0
M  V30 8686 H 827.287 -1.65132 -1.95359 0
M  V30 8687 H 826.931 -3.06462 -4.05023 0
M  V30 8688 H 826.861 -1.57505 -5.02494 0
M  V30 8689 H 829.352 -1.50893 -3.46467 0
M  V30 8690 H 829.665 -3.6489 -6.81231 0
M  V30 8691 H 828.01 -3.27543 -6.12977 0
M  V30 8692 H 831.201 -1.94604 -4.25731 0
M  V30 8693 H 831.374 -2.92168 -5.78396 0
M  V30 8694 N 824.78 1.49157 -0.508906 0
M  V30 8695 C 825.713 2.26056 0.312103 0
M  V30 8696 C 826.691 1.30982 0.963456 0
M  V30 8697 O 827.875 1.60286 0.992002 0
M  V30 8698 C 825.002 3.06555 1.4402 0
M  V30 8699 C 824.048 4.16844 0.902414 0
M  V30 8700 S 824.881 5.35076 -0.213087 0
M  V30 8701 C 826.037 6.19132 0.917985 0
M  V30 8702 H 826.27 2.95343 -0.340559 0
M  V30 8703 H 823.803 1.51569 -0.294331 0
M  V30 8704 H 825.761 3.53517 2.08653 0
M  V30 8705 H 824.422 2.36722 2.0645 0
M  V30 8706 H 823.615 4.72714 1.74806 0
M  V30 8707 H 823.217 3.72513 0.333156 0
M  V30 8708 H 825.509 6.52556 1.82145 0
M  V30 8709 H 826.452 7.06982 0.397724 0
M  V30 8710 H 826.86 5.51839 1.18889 0
M  V30 8711 N 826.258 0.243083 1.55714 0
M  V30 8712 C 827.504 -0.383287 1.99145 0
M  V30 8713 C 827.837 -1.57868 1.13098 0
M  V30 8714 O 827.112 -1.93535 0.193509 0
M  V30 8715 C 827.395 -0.796879 3.51172 0
M  V30 8716 C 827.248 0.403642 4.47985 0
M  V30 8717 C 828.567 -1.64525 4.08191 0
M  V30 8718 H 825.686 -0.137843 0.723995 0
M  V30 8719 H 828.328 0.343631 1.86867 0
M  V30 8720 H 826.478 -1.41625 3.61766 0
M  V30 8721 H 828.15 1.04204 4.49376 0
M  V30 8722 H 826.393 1.04741 4.20965 0
M  V30 8723 H 827.064 0.0709794 5.51954 0
M  V30 8724 H 829.54 -1.12246 4.00674 0
M  V30 8725 H 828.416 -1.9035 5.14838 0
M  V30 8726 H 828.677 -2.61582 3.56409 0
M  V30 8727 N 827.736 -1.57571 -0.0300757 0
M  V30 8728 C 828.985 -1.88407 -0.720126 0
M  V30 8729 C 829.298 -0.841466 -1.76575 0
M  V30 8730 O 830.504 -1.03902 -2.50832 0
M  V30 8731 C 828.96 -3.34348 -1.33188 0
M  V30 8732 C 828.568 -4.46837 -0.32266 0
M  V30 8733 C 830.312 -3.74333 -2.00187 0
M  V30 8734 C 828.219 -5.83838 -0.942703 0
M  V30 8735 H 827.149 -0.702952 -0.272718 0
M  V30 8736 H 829.8 -1.83482 0.0255337 0
M  V30 8737 H 828.182 -3.34014 -2.12721 0
M  V30 8738 H 829.356 -4.58638 0.445887 0
M  V30 8739 H 827.671 -4.15678 0.245181 0
M  V30 8740 H 830.268 -4.74008 -2.47428 0
M  V30 8741 H 830.611 -3.06275 -2.81959 0
M  V30 8742 H 831.144 -3.76837 -1.2743 0
M  V30 8743 H 827.883 -6.55294 -0.164413 0
M  V30 8744 H 827.403 -5.75759 -1.68111 0
M  V30 8745 H 829.082 -6.30535 -1.45034 0
M  V30 8746 N 829.214 0.302327 -1.54673 0
M  V30 8747 C 830.439 1.06103 -1.78205 0
M  V30 8748 C 830.864 1.80204 -0.53926 0
M  V30 8749 O 830.222 1.73975 0.510142 0
M  V30 8750 C 830.27 2.01829 -2.98827 0
M  V30 8751 O 829.374 3.10108 -2.71858 0
M  V30 8752 H 828.715 0.30487 -0.589873 0
M  V30 8753 H 831.245 0.340153 -2.01753 0
M  V30 8754 H 831.255 2.44319 -3.2676 0
M  V30 8755 H 829.93 1.473 -3.88942 0
M  V30 8756 H 828.507 2.72142 -2.54937 0
M  V30 8757 N 830.692 1.47107 0.565454 0
M  V30 8758 C 831.64 1.59368 1.69424 0
M  V30 8759 C 832.634 0.461344 1.62997 0
M  V30 8760 O 833.84 0.638849 1.68282 0
M  V30 8761 H 830.215 0.501387 0.560459 0
M  V30 8762 H 832.186 2.54242 1.56217 0
M  V30 8763 C 830.935 1.61739 3.07792 0
M  V30 8764 H 830.258 2.48215 3.13416 0
M  V30 8765 H 831.698 1.7437 3.86486 0
M  V30 8766 C 830.157 0.349156 3.35086 0
M  V30 8767 O 830.687 -0.553287 3.97871 0
M  V30 8768 N 828.893 0.231723 2.89675 0
M  V30 8769 H 828.44 0.967021 2.3876 0
M  V30 8770 H 828.398 -0.615911 3.08308 0
M  V30 8771 N 832.17 -0.811516 1.35101 0
M  V30 8772 C 833.581 -1.38515 1.25182 0
M  V30 8773 C 833.932 -1.95846 -0.117883 0
M  V30 8774 O 833.057 -1.90925 -1.01866 0
M  V30 8775 C 833.652 -2.51813 2.26662 0
M  V30 8776 C 832.211 -3.05052 2.20499 0
M  V30 8777 C 831.358 -1.77987 2.12641 0
M  V30 8778 H 834.309 -0.614959 1.46301 0
M  V30 8779 H 834.33 -3.30228 1.89023 0
M  V30 8780 H 833.842 -2.10057 3.2634 0
M  V30 8781 H 831.943 -3.51285 1.24215 0
M  V30 8782 H 832.056 -3.63368 3.1225 0
M  V30 8783 H 830.42 -1.99342 1.5854 0
M  V30 8784 H 831.203 -1.38389 3.14171 0
M  V30 8785 N 833.648 -1.19017 -1.03309 0
M  V30 8786 C 834.611 -0.926076 -2.09658 0
M  V30 8787 C 835.611 0.0917077 -1.60538 0
M  V30 8788 O 836.801 -0.142574 -1.73616 0
M  V30 8789 C 833.933 -0.390958 -3.38651 0
M  V30 8790 H 835.126 -1.86923 -2.3452 0
M  V30 8791 H 832.679 -1.00325 -1.19853 0
M  V30 8792 H 833.414 0.558446 -3.19456 0
M  V30 8793 H 833.199 -1.12474 -3.75622 0
M  V30 8794 H 834.689 -0.225131 -4.16993 0
M  V30 8795 N 835.127 1.22348 -0.993418 0
M  V30 8796 C 836.09 2.22522 -0.549251 0
M  V30 8797 C 837.09 1.56529 0.368164 0
M  V30 8798 O 838.28 1.73463 0.16005 0
M  V30 8799 C 835.412 3.40307 0.201037 0
M  V30 8800 H 836.605 2.63332 -1.43515 0
M  V30 8801 H 834.158 1.35407 -0.78068 0
M  V30 8802 H 834.893 3.0497 1.10289 0
M  V30 8803 H 834.678 3.8942 -0.457685 0
M  V30 8804 H 836.168 4.14597 0.499946 0
M  V30 8805 N 836.605 0.766683 1.37694 0
M  V30 8806 C 837.833 0.339939 2.04088 0
M  V30 8807 C 838.248 -1.03617 1.57826 0
M  V30 8808 O 837.605 -1.6605 0.757214 0
M  V30 8809 C 837.656 0.368269 3.59619 0
M  V30 8810 O 837.377 1.69009 4.04188 0
M  V30 8811 C 838.878 -0.0707053 4.43244 0
M  V30 8812 H 836.098 0.143189 0.655544 0
M  V30 8813 H 838.642 1.03919 1.76128 0
M  V30 8814 H 836.797 -0.282359 3.8637 0
M  V30 8815 H 837.211 1.62523 4.98685 0
M  V30 8816 H 838.685 0.000273538 5.52 0
M  V30 8817 H 839.162 -1.1204 4.24669 0
M  V30 8818 H 839.768 0.551543 4.21709 0
M  V30 8819 N 838.083 -1.48885 0.516809 0
M  V30 8820 C 839.033 -2.26363 -0.272704 0
M  V30 8821 C 840.017 -1.31891 -0.921604 0
M  V30 8822 O 841.209 -1.56514 -0.826589 0
M  V30 8823 C 838.338 -3.16614 -1.32705 0
M  V30 8824 C 837.424 -4.18554 -0.683598 0
M  V30 8825 N 837.815 -5.05308 0.223015 0
M  V30 8826 C 836.113 -4.35931 -0.942351 0
M  V30 8827 C 836.814 -5.7867 0.592918 0
M  V30 8828 N 835.79 -5.43583 -0.042912 0
M  V30 8829 H 839.592 -2.90811 0.424971 0
M  V30 8830 H 837.106 -1.5893 0.333941 0
M  V30 8831 H 839.103 -3.70766 -1.90625 0
M  V30 8832 H 837.763 -2.5372 -2.02624 0
M  V30 8833 H 838.774 -5.14473 0.594818 0
M  V30 8834 H 835.451 -3.84234 -1.6331 0
M  V30 8835 H 836.841 -6.58493 1.33556 0
M  V30 8836 N 839.561 -0.251338 -1.55583 0
M  V30 8837 C 840.493 0.679167 -2.18906 0
M  V30 8838 C 841.506 1.13545 -1.16667 0
M  V30 8839 O 842.695 1.06146 -1.4351 0
M  V30 8840 C 839.795 1.93544 -2.78198 0
M  V30 8841 C 838.968 1.62987 -4.05899 0
M  V30 8842 C 838.027 2.73618 -4.49466 0
M  V30 8843 O 837.053 2.40815 -5.15749 0
M  V30 8844 N 838.255 4.03204 -4.1762 0
M  V30 8845 H 841.02 0.137328 -2.99385 0
M  V30 8846 H 838.581 -0.0714754 -1.61742 0
M  V30 8847 H 840.573 2.66804 -3.04299 0
M  V30 8848 H 839.143 2.38695 -2.0185 0
M  V30 8849 H 838.363 0.732237 -3.8734 0
M  V30 8850 H 839.651 1.40041 -4.89148 0
M  V30 8851 H 839.049 4.32686 -3.64416 0
M  V30 8852 H 837.606 4.72916 -4.48547 0
M  V30 8853 N 841.039 1.57585 0.0217189 0
M  V30 8854 C 842.316 1.80779 0.74687 0
M  V30 8855 C 842.696 0.851163 1.9318 0
M  V30 8856 O 842.044 -0.105039 2.28258 0
M  V30 8857 C 842.254 3.28696 1.17302 0
M  V30 8858 C 843.602 3.93871 1.58589 0
M  V30 8859 O 844.626 3.3289 1.2674 0
M  V30 8860 O 843.485 5.01254 2.1773 0
M  V30 8861 H 840.579 0.743666 0.361786 0
M  V30 8862 H 843.125 1.697 -0.00206785 0
M  V30 8863 H 841.897 3.89927 0.327453 0
M  V30 8864 H 841.52 3.44692 1.98174 0
M  V30 8865 N 842.517 -0.29412 1.54831 0
M  V30 8866 C 843.766 -1.02614 1.73647 0
M  V30 8867 C 844.079 -1.88193 0.533162 0
M  V30 8868 O 845.285 -2.64713 0.603275 0
M  V30 8869 C 843.741 -1.87417 3.07251 0
M  V30 8870 C 843.349 -1.06806 4.35082 0
M  V30 8871 C 845.093 -2.60176 3.35423 0
M  V30 8872 C 843 -1.90926 5.59733 0
M  V30 8873 H 841.93 -0.386834 0.647206 0
M  V30 8874 H 844.581 -0.282789 1.81308 0
M  V30 8875 H 842.963 -2.65765 2.93572 0
M  V30 8876 H 844.137 -0.330226 4.59615 0
M  V30 8877 H 842.452 -0.455979 4.13896 0
M  V30 8878 H 845.049 -3.23476 4.25755 0
M  V30 8879 H 845.392 -3.29365 2.54606 0
M  V30 8880 H 845.925 -1.88871 3.50103 0
M  V30 8881 H 842.664 -1.26194 6.43238 0
M  V30 8882 H 842.184 -2.62363 5.39375 0
M  V30 8883 H 843.863 -2.48807 5.97247 0
M  V30 8884 N 843.995 -1.47404 -0.557645 0
M  V30 8885 C 845.272 -1.44488 -1.31843 0
M  V30 8886 C 845.652 -0.1416 -2.10625 0
M  V30 8887 O 845 0.876908 -2.11004 0
M  V30 8888 C 845.21 -2.69016 -2.22331 0
M  V30 8889 C 846.558 -3.16212 -2.83364 0
M  V30 8890 O 847.582 -2.69741 -2.32634 0
M  V30 8891 O 846.441 -3.96999 -3.75571 0
M  V30 8892 H 843.535 -0.57578 -0.593639 0
M  V30 8893 H 846.081 -1.59605 -0.576584 0
M  V30 8894 H 844.853 -3.55406 -1.63715 0
M  V30 8895 H 844.476 -2.56484 -3.03812 0
M  V30 8896 N 845.473 0.80434 -1.35529 0
M  V30 8897 C 846.72 1.56154 -1.28927 0
M  V30 8898 C 847.048 1.94026 0.135682 0
M  V30 8899 O 846.303 1.61759 1.10148 0
M  V30 8900 C 846.602 2.85988 -2.14349 0
M  V30 8901 C 846.268 2.67323 -3.6311 0
M  V30 8902 C 844.93 2.61941 -4.03659 0
M  V30 8903 C 847.282 2.49699 -4.57493 0
M  V30 8904 C 844.61 2.3688 -5.36754 0
M  V30 8905 C 846.962 2.26168 -5.90788 0
M  V30 8906 C 845.626 2.19209 -6.30479 0
M  V30 8907 H 844.896 0.571407 -0.471779 0
M  V30 8908 H 847.543 0.929193 -1.67446 0
M  V30 8909 H 845.848 3.53612 -1.68718 0
M  V30 8910 H 847.545 3.43697 -2.06576 0
M  V30 8911 H 844.135 2.72361 -3.30934 0
M  V30 8912 H 848.319 2.52869 -4.27049 0
M  V30 8913 H 843.575 2.29964 -5.66504 0
M  V30 8914 H 847.749 2.11522 -6.63499 0
M  V30 8915 H 845.376 1.99553 -7.33541 0
M  V30 8916 N 846.951 1.19563 1.02676 0
M  V30 8917 C 847.881 0.959024 2.12897 0
M  V30 8918 C 848.862 -0.108382 1.69754 0
M  V30 8919 O 850.047 0.0470698 1.94143 0
M  V30 8920 C 847.177 0.499211 3.43693 0
M  V30 8921 C 846.131 1.5087 4.00528 0
M  V30 8922 C 845.457 0.905884 5.2697 0
M  V30 8923 C 846.757 2.88954 4.3509 0
M  V30 8924 H 848.451 1.88084 2.32948 0
M  V30 8925 H 845.997 0.905731 1.11949 0
M  V30 8926 H 847.95 0.320965 4.20176 0
M  V30 8927 H 846.674 -0.458205 3.2337 0
M  V30 8928 H 845.333 1.67413 3.26142 0
M  V30 8929 H 844.981 -0.0591506 5.02965 0
M  V30 8930 H 844.681 1.58 5.65959 0
M  V30 8931 H 846.205 0.73848 6.06118 0
M  V30 8932 H 847.619 2.75981 5.02501 0
M  V30 8933 H 846.016 3.53177 4.85166 0
M  V30 8934 H 847.086 3.41447 3.44299 0
M  V30 8935 N 848.429 -1.21819 0.999893 0
M  V30 8936 C 849.678 -1.90066 0.675108 0
M  V30 8937 C 849.991 -1.78624 -0.79705 0
M  V30 8938 O 851.197 -2.41851 -1.23371 0
M  V30 8939 C 849.653 -3.40795 1.15702 0
M  V30 8940 C 849.261 -3.60859 2.6549 0
M  V30 8941 C 851.005 -4.147 0.906889 0
M  V30 8942 C 848.912 -5.05324 3.07248 0
M  V30 8943 H 847.842 -0.711763 0.248815 0
M  V30 8944 H 850.493 -1.3792 1.21038 0
M  V30 8945 H 848.875 -3.92164 0.549832 0
M  V30 8946 H 850.049 -3.19951 3.31614 0
M  V30 8947 H 848.364 -3.00298 2.88461 0
M  V30 8948 H 850.961 -5.21187 1.1945 0
M  V30 8949 H 851.304 -4.16004 -0.156923 0
M  V30 8950 H 851.837 -3.69379 1.47662 0
M  V30 8951 H 848.576 -5.09164 4.12834 0
M  V30 8952 H 848.096 -5.47108 2.45832 0
M  V30 8953 H 849.775 -5.73797 2.98941 0
M  V30 8954 N 849.908 -0.773975 -1.37286 0
M  V30 8955 C 850.818 -0.162571 -2.34036 0
M  V30 8956 C 851.834 0.677022 -1.60289 0
M  V30 8957 O 853.01 0.596423 -1.92366 0
M  V30 8958 C 850.075 0.70457 -3.39465 0
M  V30 8959 C 849.136 -0.151738 -4.29032 0
M  V30 8960 C 848.369 0.674111 -5.29426 0
M  V30 8961 O 848.592 1.91107 -5.37433 0
M  V30 8962 O 847.526 0.0821398 -6.01844 0
M  V30 8963 H 851.352 -0.962119 -2.88057 0
M  V30 8964 H 848.937 -0.53517 -1.39486 0
M  V30 8965 H 850.819 1.19954 -4.03967 0
M  V30 8966 H 849.494 1.48227 -2.87768 0
M  V30 8967 H 848.401 -0.693118 -3.67623 0
M  V30 8968 H 849.734 -0.892575 -4.84039 0
M  V30 8969 N 851.386 1.48609 -0.524698 0
M  V30 8970 C 852.296 2.33318 0.244923 0
M  V30 8971 C 853.312 1.46153 0.944214 0
M  V30 8972 O 854.488 1.79141 0.920347 0
M  V30 8973 C 851.553 3.22149 1.28144 0
M  V30 8974 C 850.614 4.25184 0.593068 0
M  V30 8975 C 849.847 5.0977 1.5802 0
M  V30 8976 O 850.07 4.96249 2.81235 0
M  V30 8977 O 849.004 5.9134 1.1225 0
M  V30 8978 H 852.83 3.00362 -0.449066 0
M  V30 8979 H 850.415 1.46643 -0.285689 0
M  V30 8980 H 852.297 3.77111 1.88057 0
M  V30 8981 H 850.972 2.57772 1.95793 0
M  V30 8982 H 849.879 3.74071 -0.0464214 0
M  V30 8983 H 851.212 4.92183 -0.0413893 0
M  V30 8984 N 852.864 0.259585 1.55447 0
M  V30 8985 C 854.113 -0.362163 1.98422 0
M  V30 8986 C 854.426 -1.58135 1.1512 0
M  V30 8987 O 855.632 -2.27506 1.48166 0
M  V30 8988 C 854.088 -0.695722 3.53111 0
M  V30 8989 C 853.696 0.502784 4.4517 0
M  V30 8990 C 855.44 -1.28096 4.04712 0
M  V30 8991 C 853.347 0.144674 5.91223 0
M  V30 8992 H 852.277 -0.139092 0.74106 0
M  V30 8993 H 854.928 0.361798 1.79898 0
M  V30 8994 H 853.31 -1.47816 3.67378 0
M  V30 8995 H 854.484 1.27994 4.42667 0
M  V30 8996 H 852.799 1.0038 4.0412 0
M  V30 8997 H 855.396 -1.56243 5.11363 0
M  V30 8998 H 855.739 -2.20969 3.52815 0
M  V30 8999 H 856.272 -0.561146 3.93822 0
M  V30 9000 H 853.011 1.04087 6.47183 0
M  V30 9001 H 852.531 -0.596023 5.96831 0
M  V30 9002 H 854.21 -0.268651 6.46442 0
M  V30 9003 N 854.342 -1.57594 -0.0133615 0
M  V30 9004 C 855.252 -2.10991 -1.02566 0
M  V30 9005 C 856.268 -1.05208 -1.3859 0
M  V30 9006 O 857.444 -1.37034 -1.47593 0
M  V30 9007 C 854.509 -2.59165 -2.30292 0
M  V30 9008 C 853.57 -3.79495 -2.00704 0
M  V30 9009 C 852.803 -4.25361 -3.22341 0
M  V30 9010 O 853.026 -3.70645 -4.33565 0
M  V30 9011 O 851.96 -5.17649 -3.07121 0
M  V30 9012 H 855.786 -2.97678 -0.601806 0
M  V30 9013 H 853.371 -1.47598 -0.23135 0
M  V30 9014 H 855.253 -2.90409 -3.05354 0
M  V30 9015 H 853.928 -1.75582 -2.71942 0
M  V30 9016 H 852.835 -3.53245 -1.23161 0
M  V30 9017 H 854.168 -4.64109 -1.639 0
M  V30 9018 N 855.82 0.285905 -1.54985 0
M  V30 9019 C 857.236 0.632405 -1.46536 0
M  V30 9020 C 857.436 1.90074 -0.668888 0
M  V30 9021 O 856.492 2.51839 -0.182586 0
M  V30 9022 C 857.805 0.771361 -2.90638 0
M  V30 9023 C 859.353 0.866262 -3.00774 0
M  V30 9024 C 859.828 1.0371 -4.46103 0
M  V30 9025 N 861.319 1.10294 -4.49877 0
M  V30 9026 C 862.054 1.25369 -5.59527 0
M  V30 9027 N 861.55 1.37246 -6.7907 0
M  V30 9028 N 863.343 1.28377 -5.47244 0
M  V30 9029 H 855.494 -0.547226 -2.0523 0
M  V30 9030 H 857.757 -0.183298 -0.930111 0
M  V30 9031 H 857.463 -0.0899485 -3.51585 0
M  V30 9032 H 857.337 1.65569 -3.3892 0
M  V30 9033 H 859.724 1.71805 -2.39931 0
M  V30 9034 H 859.805 -0.0424049 -2.55765 0
M  V30 9035 H 859.449 0.190021 -5.07544 0
M  V30 9036 H 859.379 1.96022 -4.88757 0
M  V30 9037 H 861.87 1.02407 -3.6376 0
M  V30 9038 H 862.183 1.48546 -7.58389 0
M  V30 9039 H 860.528 1.34274 -6.81906 0
M  V30 9040 H 863.719 1.1872 -4.52795 0
M  V30 9041 H 863.892 1.39782 -6.32744 0
M  V30 9042 N 857.298 1.47698 0.54982 0
M  V30 9043 C 858.228 1.63622 1.66583 0
M  V30 9044 C 859.209 0.485477 1.63025 0
M  V30 9045 O 860.394 0.715692 1.80531 0
M  V30 9046 C 857.524 1.65721 3.05211 0
M  V30 9047 C 856.478 2.80097 3.2362 0
M  V30 9048 C 855.804 2.67272 4.63109 0
M  V30 9049 C 857.104 4.21612 3.08286 0
M  V30 9050 H 858.798 2.57049 1.53512 0
M  V30 9051 H 856.344 1.23705 0.737099 0
M  V30 9052 H 858.297 1.75451 3.83138 0
M  V30 9053 H 857.021 0.688593 3.19258 0
M  V30 9054 H 855.68 2.69889 2.48104 0
M  V30 9055 H 855.328 1.68422 4.73965 0
M  V30 9056 H 855.028 3.44008 4.76374 0
M  V30 9057 H 856.552 2.78942 5.43161 0
M  V30 9058 H 857.966 4.32758 3.76024 0
M  V30 9059 H 856.363 4.99193 3.33057 0
M  V30 9060 H 857.433 4.39462 2.04942 0
M  V30 9061 N 858.776 -0.797141 1.35954 0
M  V30 9062 C 860.024 -1.55161 1.29497 0
M  V30 9063 C 860.345 -1.94582 -0.127659 0
M  V30 9064 O 859.615 -1.64343 -1.06622 0
M  V30 9065 H 858.195 -0.575413 0.47635 0
M  V30 9066 H 860.857 -0.950282 1.70164 0
M  V30 9067 H 859.953 -2.46272 1.9172 0
M  V30 9068 N 860.254 -1.20106 -1.0204 0
M  V30 9069 C 861.186 -0.904236 -2.10609 0
M  V30 9070 C 862.199 0.106487 -1.62451 0
M  V30 9071 O 863.388 -0.124035 -1.78069 0
M  V30 9072 C 860.488 -0.333423 -3.37256 0
M  V30 9073 C 859.661 -1.39476 -4.14566 0
M  V30 9074 C 858.72 -0.835961 -5.19517 0
M  V30 9075 O 857.746 -1.51573 -5.48648 0
M  V30 9076 N 858.948 0.356531 -5.79404 0
M  V30 9077 H 861.713 -1.8388 -2.36661 0
M  V30 9078 H 859.274 -1.10422 -1.184 0
M  V30 9079 H 861.266 0.0544571 -4.04663 0
M  V30 9080 H 859.836 0.505608 -3.08484 0
M  V30 9081 H 859.056 -1.95714 -3.42184 0
M  V30 9082 H 860.344 -2.10967 -4.63001 0
M  V30 9083 H 859.742 0.926143 -5.58067 0
M  V30 9084 H 858.299 0.686093 -6.48179 0
M  V30 9085 N 861.732 1.21287 -1.00634 0
M  V30 9086 C 863.009 1.86 -0.605257 0
M  V30 9087 C 863.389 1.90139 0.917072 0
M  V30 9088 O 862.737 1.40169 1.80458 0
M  V30 9089 C 862.947 3.26183 -1.24119 0
M  V30 9090 C 864.295 4.02562 -1.35015 0
M  V30 9091 O 865.319 3.35499 -1.19661 0
M  V30 9092 O 864.178 5.22638 -1.59726 0
M  V30 9093 H 861.272 0.800549 -0.207486 0
M  V30 9094 H 863.818 1.28959 -1.10307 0
M  V30 9095 H 862.59 3.17878 -2.28186 0
M  V30 9096 H 862.213 3.90845 -0.729807 0
M  V30 9097 N 863.21 0.781244 1.36873 0
M  V30 9098 C 864.14 0.188128 2.32741 0
M  V30 9099 C 865.121 -0.672326 1.56249 0
M  V30 9100 O 866.306 -0.607835 1.84442 0
M  V30 9101 C 863.436 -0.684341 3.40491 0
M  V30 9102 C 862.39 0.0755641 4.27933 0
M  V30 9103 C 861.716 -0.916968 5.26779 0
M  V30 9104 C 863.016 1.26006 5.06873 0
M  V30 9105 H 864.71 0.989016 2.82593 0
M  V30 9106 H 862.256 0.477038 1.35869 0
M  V30 9107 H 864.209 -1.10915 4.06541 0
M  V30 9108 H 862.933 -1.51785 2.89187 0
M  V30 9109 H 861.592 0.481258 3.63427 0
M  V30 9110 H 861.24 -1.74528 4.71751 0
M  V30 9111 H 860.94 -0.413 5.86147 0
M  V30 9112 H 862.464 -1.34052 5.95703 0
M  V30 9113 H 863.878 0.911425 5.66009 0
M  V30 9114 H 862.275 1.69676 5.75613 0
M  V30 9115 H 863.345 2.05948 4.38991 0
M  V30 9116 O 864.727 -1.46767 0.67391 0
M  V30 9117 H 865.418 -1.92604 0.205809 0
M  V30 END ATOM
M  V30 BEGIN BOND
M  V30 END BOND
M  V30 END CTAB
M  END
$$$$
