drugbank_target|Q05318 RNA-directed RNA polymerase L (DB11676; DB14761; DB15686)
 OpenBabel12092121223D

  0  0  0     0  0            999 V3000
M  V30 BEGIN CTAB
M  V30 COUNTS 47573 50590 0 0 0
M  V30 BEGIN ATOM
M  V30 1 H -2.588 8.49073 -0.0679273 0
M  V30 2 O -1.492 9.37262 0.0843559 0
M  V30 3 P 0 8.791 0 0
M  V30 4 O 1.422 9.31096 0.027933 0
M  V30 5 O -0.36 7.77869 -1.04071 0
M  V30 6 O -0.323 8.09533 1.41463 0
M  V30 7 C -0.483 9.0349 2.53943 0
M  V30 8 C 0.057 8.35226 3.79016 0
M  V30 9 O -0.999 7.57992 4.15078 0
M  V30 10 C 1.275 7.45087 3.67298 0
M  V30 11 O 2.013 7.27796 4.85194 0
M  V30 12 C 0.606 6.17323 3.12027 0
M  V30 13 O 1.405 5.04231 3.47188 0
M  V30 14 C -0.731 6.19961 3.81809 0
M  V30 15 H -0.699 5.58218 4.73051 0
M  V30 16 H 0.484 6.21726 2.02589 0
M  V30 17 H 1.968 7.86112 2.9231 0
M  V30 18 H 0.274 9.11627 4.55076 0
M  V30 19 H 0.084 9.9573 2.34194 0
M  V30 20 H -1.546 9.2792 2.67832 0
M  V30 21 H 1.093 4.67702 4.28772 0
M  V30 22 P 2.95057 7.39546 4.75277 0
M  V30 23 O 4.37157 7.81861 5.05793 0
M  V30 24 O 2.59057 7.1065 3.32998 0
M  V30 25 O 2.62757 6.04542 5.56673 0
M  V30 26 C 2.46657 6.22839 7.02169 0
M  V30 27 C 3.00757 4.97725 7.70406 0
M  V30 28 O 1.95257 4.13208 7.58899 0
M  V30 29 C 4.22557 4.28231 7.11815 0
M  V30 30 O 4.96357 3.49945 8.01648 0
M  V30 31 C 3.55757 3.5063 5.96244 0
M  V30 32 O 4.35557 2.37008 5.64352 0
M  V30 33 C 2.21957 3.15122 6.56374 0
M  V30 34 N 1.17657 3.22311 5.55692 0
M  V30 35 C 1.34557 3.99655 4.46046 0
M  V30 36 N 0.31857 3.97599 3.63918 0
M  V30 37 C -0.56643 3.11159 4.25334 0
M  V30 38 C -1.83343 2.64972 3.85157 0
M  V30 39 N -2.43243 3.02132 2.69405 0
M  V30 40 N -2.39843 1.78482 4.74759 0
M  V30 41 C -1.79643 1.37463 5.90819 0
M  V30 42 N -0.61943 1.7733 6.31889 0
M  V30 43 C -0.04443 2.64393 5.43725 0
M  V30 44 H 2.25157 2.13823 6.99656 0
M  V30 45 H 3.43457 4.12931 5.06895 0
M  V30 46 H 4.91757 5.03285 6.70911 0
M  V30 47 H 3.22357 5.20001 8.76217 0
M  V30 48 H 3.03357 7.11046 7.35349 0
M  V30 49 H 1.40357 6.35815 7.26986 0
M  V30 50 H -2.33243 0.66574 6.53015 0
M  V30 51 H 2.24557 4.58037 4.27732 0
M  V30 52 H -3.36243 2.64828 2.45331 0
M  V30 53 H -1.95843 3.67472 2.05644 0
M  V30 54 H 4.04357 1.61619 6.13468 0
M  V30 55 P 5.90114 3.65191 7.99657 0
M  V30 56 O 7.32314 3.8425 8.48115 0
M  V30 57 O 5.54114 4.17805 6.64342 0
M  V30 58 O 5.57814 2.07613 7.95143 0
M  V30 59 C 5.41814 1.44328 9.27336 0
M  V30 60 C 5.95814 0.0220036 9.17197 0
M  V30 61 O 4.90214 -0.626867 8.61923 0
M  V30 62 C 7.17614 -0.24586 8.30336 0
M  V30 63 O 7.91414 -1.39011 8.63583 0
M  V30 64 C 6.50714 -0.273849 6.91158 0
M  V30 65 O 7.30614 -1.06348 6.02892 0
M  V30 66 C 5.17014 -0.897649 7.22545 0
M  V30 67 H 5.20214 -1.9841 7.04286 0
M  V30 68 H 6.38514 0.739928 6.497 0
M  V30 69 H 7.86914 0.60668 8.36503 0
M  V30 70 H 6.17514 -0.352479 10.1829 0
M  V30 71 H 5.98514 2.00611 10.0304 0
M  V30 72 H 4.35514 1.41843 9.55327 0
M  V30 73 H 6.99414 -1.95734 6.03555 0
M  V30 74 P 8.85171 -1.25109 8.70152 0
M  V30 75 O 10.2737 -1.35274 9.21221 0
M  V30 76 O 8.49171 -0.0769065 7.84762 0
M  V30 77 O 8.52871 -2.55232 7.81161 0
M  V30 78 C 8.36871 -3.79939 8.58154 0
M  V30 79 C 8.90871 -4.94023 7.72785 0
M  V30 80 O 7.85271 -5.18726 6.91205 0
M  V30 81 C 10.1267 -4.69597 6.85231 0
M  V30 82 O 10.8647 -5.83832 6.51337 0
M  V30 83 C 9.45771 -3.96706 5.66633 0
M  V30 84 O 10.2567 -4.15414 4.49689 0
M  V30 85 C 8.12071 -4.66153 5.59313 0
M  V30 86 H 8.15271 -5.47679 4.85214 0
M  V30 87 H 9.33571 -2.89008 5.86566 0
M  V30 88 H 10.8197 -4.0121 7.36511 0
M  V30 89 H 9.12571 -5.80182 8.37584 0
M  V30 90 H 8.93571 -3.73517 9.52265 0
M  V30 91 H 7.30571 -3.97163 8.80359 0
M  V30 92 H 9.94471 -4.90969 4.01921 0
M  V30 93 P 11.8023 -5.75688 6.64379 0
M  V30 94 O 13.2243 -6.11849 7.01846 0
M  V30 95 O 11.4423 -4.30744 6.56026 0
M  V30 96 O 11.4793 -6.37042 5.19165 0
M  V30 97 C 11.3193 -7.83578 5.16515 0
M  V30 98 C 11.8593 -8.33398 3.83019 0
M  V30 99 O 10.8033 -8.10074 3.01034 0
M  V30 100 C 13.0773 -7.65514 3.2257 0
M  V30 101 O 13.8153 -8.4329 2.32297 0
M  V30 102 C 12.4083 -6.40075 2.62207 0
M  V30 103 O 13.2073 -5.92589 1.53712 0
M  V30 104 C 11.0713 -6.9454 2.18503 0
M  V30 105 H 11.1033 -7.23063 1.12091 0
M  V30 106 H 12.2863 -5.6025 3.37201 0
M  V30 107 H 13.7703 -7.35707 4.02681 0
M  V30 108 H 12.0763 -9.40912 3.9095 0
M  V30 109 H 11.8863 -8.29056 5.99158 0
M  V30 110 H 10.2563 -8.10073 5.25882 0
M  V30 111 H 12.8953 -6.30324 0.726794 0
M  V30 112 P 14.7528 -8.4349 2.47671 0
M  V30 113 O 16.1748 -8.94167 2.5964 0
M  V30 114 O 14.3928 -7.1704 3.19006 0
M  V30 115 O 14.4298 -8.16596 0.923387 0
M  V30 116 C 14.2698 -9.38437 0.108857 0
M  V30 117 C 14.8098 -9.08175 -1.28353 0
M  V30 118 O 13.7538 -8.44229 -1.84713 0
M  V30 119 C 16.0278 -8.18386 -1.42505 0
M  V30 120 O 16.7659 -8.3501 -2.60497 0
M  V30 121 C 15.3588 -6.80225 -1.25468 0
M  V30 122 O 16.1578 -5.81621 -1.91066 0
M  V30 123 C 14.0218 -7.02416 -1.9168 0
M  V30 124 H 14.0538 -6.6888 -2.96621 0
M  V30 125 H 15.2368 -6.53617 -0.192223 0
M  V30 126 H 16.7208 -8.36622 -0.589963 0
M  V30 127 H 15.0268 -10.0291 -1.79807 0
M  V30 128 H 14.8368 -10.2138 0.558219 0
M  V30 129 H 13.2068 -9.6579 0.0444202 0
M  V30 130 H 15.8458 -5.69556 -2.79637 0
M  V30 131 P 17.7034 -8.4349 -2.47671 0
M  V30 132 O 19.1254 -8.92593 -2.65 0
M  V30 133 O 17.3434 -7.7568 -1.19296 0
M  V30 134 O 17.3804 -7.36886 -3.63805 0
M  V30 135 C 17.2204 -7.95349 -4.982 0
M  V30 136 C 17.7604 -6.94612 -5.98974 0
M  V30 137 O 16.7044 -6.10347 -6.11815 0
M  V30 138 C 18.9784 -6.11426 -5.62335 0
M  V30 139 O 19.7164 -5.6162 -6.70584 0
M  V30 140 C 18.3094 -5.04409 -4.73308 0
M  V30 141 O 19.1084 -3.85992 -4.75183 0
M  V30 142 C 16.9724 -4.8728 -5.41006 0
M  V30 143 H 17.0044 -4.02333 -6.11157 0
M  V30 144 H 18.1874 -5.39466 -3.69543 0
M  V30 145 H 19.6714 -6.71916 -5.01943 0
M  V30 146 H 17.9774 -7.4649 -6.93477 0
M  V30 147 H 17.7874 -8.89416 -5.05237 0
M  V30 148 H 16.1574 -8.14876 -5.18409 0
M  V30 149 H 18.7964 -3.27957 -5.4317 0
M  V30 150 P 20.654 -5.75688 -6.64379 0
M  V30 151 O 22.055 -6.14823 -7.06682 0
M  V30 152 O 20.276 -5.93957 -5.20728 0
M  V30 153 O 20.331 -4.23169 -7.04357 0
M  V30 154 C 20.171 -3.99743 -8.4911 0
M  V30 155 C 20.711 -2.60487 -8.79329 0
M  V30 156 O 19.655 -1.82663 -8.44573 0
M  V30 157 C 21.928 -2.10343 -8.03628 0
M  V30 158 O 22.667 -1.09919 -8.67766 0
M  V30 159 C 21.261 -1.68446 -6.70876 0
M  V30 160 O 22.059 -0.678026 -6.08333 0
M  V30 161 C 19.923 -1.17436 -7.18567 0
M  V30 162 N 18.88 -1.52699 -6.23988 0
M  V30 163 C 17.845 -0.643793 -6.05085 0
M  V30 164 O 17.884 0.459118 -6.64315 0
M  V30 165 N 16.833 -0.976931 -5.22038 0
M  V30 166 C 16.881 -2.14429 -4.56662 0
M  V30 167 C 17.977 -3.04203 -4.71481 0
M  V30 168 C 18.943 -2.69669 -5.56838 0
M  V30 169 H 19.955 -0.0804622 -7.31556 0
M  V30 170 H 21.138 -2.53396 -6.02698 0
M  V30 171 H 22.622 -2.9313 -7.85914 0
M  V30 172 H 20.928 -2.52078 -9.87225 0
M  V30 173 H 20.737 -4.75072 -9.05887 0
M  V30 174 H 19.107 -4.05202 -8.76577 0
M  V30 175 H 18.025 -3.97309 -4.15519 0
M  V30 176 H 19.789 -3.36869 -5.72318 0
M  V30 177 H 21.843 0.167718 -6.44882 0
M  V30 178 P 23.6046 -1.25109 -8.70152 0
M  V30 179 O 25.0266 -1.29744 -9.22016 0
M  V30 180 O 23.2446 -2.13714 -7.55141 0
M  V30 181 O 23.2816 0.248149 -8.21425 0
M  V30 182 C 23.1216 1.22779 -9.30434 0
M  V30 183 C 23.6616 2.56293 -8.80664 0
M  V30 184 O 22.6056 3.02979 -8.09349 0
M  V30 185 C 24.8796 2.57523 -7.89775 0
M  V30 186 O 25.6176 3.7668 -7.89438 0
M  V30 187 C 24.2106 2.20997 -6.55446 0
M  V30 188 O 25.0096 2.71895 -5.48509 0
M  V30 189 C 22.8736 2.89693 -6.67988 0
M  V30 190 H 22.9056 3.88793 -6.19859 0
M  V30 191 H 24.0886 1.12046 -6.44229 0
M  V30 192 H 25.5726 1.7746 -8.19711 0
M  V30 193 H 23.8786 3.20706 -9.67112 0
M  V30 194 H 23.6886 0.901032 -10.1892 0
M  V30 195 H 22.0586 1.33049 -9.56592 0
M  V30 196 H 24.6976 3.57847 -5.23962 0
M  V30 197 P 26.5551 3.65191 -7.99657 0
M  V30 198 O 27.9771 3.89332 -8.45794 0
M  V30 199 O 26.1951 2.28472 -7.50807 0
M  V30 200 O 26.2321 4.64972 -6.77611 0
M  V30 201 C 26.0721 6.06319 -7.16352 0
M  V30 202 C 26.6121 6.91731 -6.02299 0
M  V30 203 O 25.5561 6.92449 -5.17064 0
M  V30 204 C 27.8301 6.43627 -5.25174 0
M  V30 205 O 28.5681 7.43686 -4.60469 0
M  V30 206 C 27.1611 5.40275 -4.31916 0
M  V30 207 O 27.9601 5.25279 -3.14438 0
M  V30 208 C 25.8241 6.04847 -4.05327 0
M  V30 209 H 25.8561 6.62195 -3.11261 0
M  V30 210 H 27.0391 4.42556 -4.81383 0
M  V30 211 H 28.5231 5.92458 -5.93643 0
M  V30 212 H 26.8291 7.92655 -6.402 0
M  V30 213 H 26.6391 6.26671 -8.0846 0
M  V30 214 H 25.0091 6.29101 -7.32804 0
M  V30 215 H 27.6481 5.84315 -2.47318 0
M  V30 216 P 29.5057 7.39546 -4.75277 0
M  V30 217 O 30.9267 7.84882 -5.01092 0
M  V30 218 O 29.1457 5.9812 -5.08098 0
M  V30 219 O 29.1827 7.57503 -3.1866 0
M  V30 220 C 29.0217 8.97452 -2.74862 0
M  V30 221 C 29.5627 9.07548 -1.32709 0
M  V30 222 O 28.5077 8.61972 -0.606089 0
M  V30 223 C 30.7807 8.25383 -0.938334 0
M  V30 224 O 31.5187 8.74577 0.146954 0
M  V30 225 C 30.1127 6.8802 -0.712559 0
M  V30 226 O 30.9107 6.1181 0.188505 0
M  V30 227 C 28.7747 7.27966 -0.139777 0
M  V30 228 N 27.7317 6.39368 -0.623421 0
M  V30 229 C 27.9007 5.71761 -1.78245 0
M  V30 230 N 26.8737 4.962 -2.10491 0
M  V30 231 C 25.9887 5.16158 -1.0635 0
M  V30 232 C 24.7217 4.60425 -0.810266 0
M  V30 233 N 24.1227 3.7057 -1.62914 0
M  V30 234 N 24.1567 5.06 0.348685 0
M  V30 235 C 24.7587 5.94532 1.20395 0
M  V30 236 N 25.9357 6.48452 1.01191 0
M  V30 237 C 26.5107 6.04423 -0.146291 0
M  V30 238 H 28.8067 7.25255 0.961469 0
M  V30 239 H 29.9897 6.32625 -1.65044 0
M  V30 240 H 31.4727 8.19355 -1.79097 0
M  V30 241 H 29.7787 10.1305 -1.09016 0
M  V30 242 H 29.5887 9.64276 -3.41316 0
M  V30 243 H 27.9587 9.25417 -2.76357 0
M  V30 244 H 24.2227 6.21659 2.10714 0
M  V30 245 H 28.8007 5.79354 -2.38959 0
M  V30 246 H 23.1927 3.33174 -1.38982 0
M  V30 247 H 24.5967 3.39714 -2.48836 0
M  V30 248 H 30.5987 6.25169 1.0783 0
M  V30 249 P 32.4563 8.791 -9.96115e-15 0
M  V30 250 O 33.8773 9.31196 0.027936 0
M  V30 251 O 32.0963 7.77869 -1.04071 0
M  V30 252 O 32.1333 8.09533 1.41463 0
M  V30 253 C 31.9723 9.03587 2.5397 0
M  V30 254 C 32.5133 8.35226 3.79016 0
M  V30 255 O 31.4583 7.57904 4.1503 0
M  V30 256 C 33.7313 7.45087 3.67298 0
M  V30 257 O 34.4693 7.27796 4.85194 0
M  V30 258 C 33.0633 6.17323 3.12027 0
M  V30 259 O 33.8613 5.04496 3.46627 0
M  V30 260 C 31.7253 6.19961 3.81809 0
M  V30 261 N 30.6823 5.71575 2.93223 0
M  V30 262 C 30.8513 5.77362 1.59168 0
M  V30 263 N 29.8243 5.3123 0.911893 0
M  V30 264 C 28.9393 4.91717 1.89588 0
M  V30 265 C 27.6723 4.3114 1.8076 0
M  V30 266 N 27.1073 4.06823 3.02898 0
M  V30 267 C 27.7093 4.35062 4.22711 0
M  V30 268 N 28.8863 4.90805 4.35707 0
M  V30 269 C 29.4613 5.16382 3.14469 0
M  V30 270 H 32.9403 6.21428 2.0318 0
M  V30 271 H 34.4233 7.86112 2.9231 0
M  V30 272 H 32.7293 9.11171 4.55987 0
M  V30 273 H 32.5393 9.9573 2.34194 0
M  V30 274 H 30.9093 9.2792 2.67832 0
M  V30 275 H 31.7513 6.16575 1.12198 0
M  V30 276 H 33.5493 4.67628 4.28704 0
M  V30 277 P 35.4068 7.39546 4.75277 0
M  V30 278 O 36.8288 7.81777 5.05738 0
M  V30 279 O 35.0468 7.1065 3.32998 0
M  V30 280 O 35.0838 6.04542 5.56673 0
M  V30 281 C 34.9238 6.22772 7.02095 0
M  V30 282 C 35.4638 4.97725 7.70406 0
M  V30 283 O 34.4078 4.13256 7.58987 0
M  V30 284 C 36.6818 4.28231 7.11815 0
M  V30 285 O 37.4198 3.49945 8.01648 0
M  V30 286 C 36.0128 3.5063 5.96244 0
M  V30 287 O 36.8118 2.36482 5.64681 0
M  V30 288 C 34.6758 3.15122 6.56374 0
M  V30 289 H 34.7078 2.13853 6.99751 0
M  V30 290 H 35.8908 4.13501 5.06559 0
M  V30 291 H 37.3748 5.03285 6.70911 0
M  V30 292 H 35.6808 5.20877 8.75697 0
M  V30 293 H 35.4908 7.11046 7.35349 0
M  V30 294 H 33.8608 6.35815 7.26986 0
M  V30 295 H 36.4998 1.61644 6.13565 0
M  V30 296 P 38.3574 3.65191 7.99657 0
M  V30 297 O 39.7794 3.8425 8.48115 0
M  V30 298 O 37.9974 4.17805 6.64342 0
M  V30 299 O 38.0344 2.07613 7.95143 0
M  V30 300 C 37.8744 1.44328 9.27336 0
M  V30 301 C 38.4144 0.0220036 9.17197 0
M  V30 302 O 37.3584 -0.626867 8.61923 0
M  V30 303 C 39.6324 -0.24586 8.30336 0
M  V30 304 O 40.3704 -1.39011 8.63583 0
M  V30 305 C 38.9634 -0.273849 6.91158 0
M  V30 306 O 39.7624 -1.06348 6.02892 0
M  V30 307 C 37.6264 -0.897649 7.22545 0
M  V30 308 H 37.6584 -1.9841 7.04286 0
M  V30 309 H 38.8414 0.739928 6.497 0
M  V30 310 H 40.3254 0.60668 8.36503 0
M  V30 311 H 38.6314 -0.352479 10.1829 0
M  V30 312 H 38.4414 2.00611 10.0304 0
M  V30 313 H 36.8114 1.41843 9.55327 0
M  V30 314 H 39.4504 -1.95734 6.03555 0
M  V30 315 P 41.308 -1.25109 8.70152 0
M  V30 316 O 42.73 -1.35274 9.21221 0
M  V30 317 O 40.948 -0.0769065 7.84762 0
M  V30 318 O 40.985 -2.55232 7.81161 0
M  V30 319 C 40.825 -3.79939 8.58154 0
M  V30 320 C 41.365 -4.94023 7.72785 0
M  V30 321 O 40.309 -5.18726 6.91205 0
M  V30 322 C 42.583 -4.69597 6.85231 0
M  V30 323 O 43.321 -5.83832 6.51337 0
M  V30 324 C 41.914 -3.96706 5.66633 0
M  V30 325 O 42.713 -4.15414 4.49689 0
M  V30 326 C 40.577 -4.66153 5.59313 0
M  V30 327 H 40.609 -5.47679 4.85214 0
M  V30 328 H 41.792 -2.89008 5.86566 0
M  V30 329 H 43.276 -4.0121 7.36511 0
M  V30 330 H 41.582 -5.80182 8.37584 0
M  V30 331 H 41.392 -3.73517 9.52265 0
M  V30 332 H 39.762 -3.97163 8.80359 0
M  V30 333 H 42.401 -4.90969 4.01921 0
M  V30 334 P 44.2585 -5.75688 6.64379 0
M  V30 335 O 45.6805 -6.11849 7.01846 0
M  V30 336 O 43.8985 -4.30744 6.56026 0
M  V30 337 O 43.9355 -6.37042 5.19165 0
M  V30 338 C 43.7755 -7.83578 5.16515 0
M  V30 339 C 44.3155 -8.33398 3.83019 0
M  V30 340 O 43.2595 -8.10074 3.01034 0
M  V30 341 C 45.5335 -7.65514 3.2257 0
M  V30 342 O 46.2715 -8.4329 2.32297 0
M  V30 343 C 44.8645 -6.40075 2.62207 0
M  V30 344 O 45.6635 -5.92589 1.53712 0
M  V30 345 C 43.5275 -6.9454 2.18503 0
M  V30 346 H 43.5595 -7.23063 1.12091 0
M  V30 347 H 44.7425 -5.6025 3.37201 0
M  V30 348 H 46.2265 -7.35707 4.02681 0
M  V30 349 H 44.5325 -9.40912 3.9095 0
M  V30 350 H 44.3425 -8.29056 5.99158 0
M  V30 351 H 42.7125 -8.10073 5.25882 0
M  V30 352 H 45.3515 -6.30324 0.726794 0
M  V30 353 P 47.2091 -8.4349 2.47671 0
M  V30 354 O 48.6311 -8.94167 2.5964 0
M  V30 355 O 46.8491 -7.1704 3.19006 0
M  V30 356 O 46.8861 -8.16596 0.923387 0
M  V30 357 C 46.7261 -9.38437 0.108857 0
M  V30 358 C 47.2661 -9.08175 -1.28353 0
M  V30 359 O 46.2101 -8.44229 -1.84713 0
M  V30 360 C 48.4841 -8.18386 -1.42505 0
M  V30 361 O 49.2221 -8.3501 -2.60497 0
M  V30 362 C 47.8151 -6.80225 -1.25468 0
M  V30 363 O 48.6141 -5.81621 -1.91066 0
M  V30 364 C 46.4781 -7.02416 -1.9168 0
M  V30 365 H 46.5101 -6.6888 -2.96621 0
M  V30 366 H 47.6931 -6.53617 -0.192223 0
M  V30 367 H 49.1771 -8.36622 -0.589963 0
M  V30 368 H 47.4831 -10.0291 -1.79807 0
M  V30 369 H 47.2931 -10.2138 0.558219 0
M  V30 370 H 45.6631 -9.6579 0.0444202 0
M  V30 371 H 48.3021 -5.69556 -2.79637 0
M  V30 372 P 50.1597 -8.4349 -2.47671 0
M  V30 373 O 51.5817 -8.92593 -2.65 0
M  V30 374 O 49.7997 -7.7568 -1.19296 0
M  V30 375 O 49.8367 -7.36886 -3.63805 0
M  V30 376 C 49.6767 -7.95349 -4.982 0
M  V30 377 C 50.2167 -6.94612 -5.98974 0
M  V30 378 O 49.1607 -6.10347 -6.11815 0
M  V30 379 C 51.4347 -6.11426 -5.62335 0
M  V30 380 O 52.1727 -5.6162 -6.70584 0
M  V30 381 C 50.7657 -5.04409 -4.73308 0
M  V30 382 O 51.5647 -3.85992 -4.75183 0
M  V30 383 C 49.4287 -4.8728 -5.41006 0
M  V30 384 H 49.4607 -4.02333 -6.11157 0
M  V30 385 H 50.6437 -5.39466 -3.69543 0
M  V30 386 H 52.1277 -6.71916 -5.01943 0
M  V30 387 H 50.4337 -7.4649 -6.93477 0
M  V30 388 H 50.2437 -8.89416 -5.05237 0
M  V30 389 H 48.6137 -8.14876 -5.18409 0
M  V30 390 H 51.2527 -3.27957 -5.4317 0
M  V30 391 P 53.1103 -5.75688 -6.64379 0
M  V30 392 O 54.5323 -6.07627 -7.05504 0
M  V30 393 O 52.7503 -5.88047 -5.19722 0
M  V30 394 O 52.7873 -4.2322 -7.04443 0
M  V30 395 C 52.6273 -3.99743 -8.4911 0
M  V30 396 C 53.1673 -2.60516 -8.79425 0
M  V30 397 O 52.1113 -1.82684 -8.4467 0
M  V30 398 C 54.3853 -2.10343 -8.03628 0
M  V30 399 O 55.1233 -1.09919 -8.67766 0
M  V30 400 C 53.7163 -1.68446 -6.70876 0
M  V30 401 O 54.5153 -0.678137 -6.08433 0
M  V30 402 C 52.3793 -1.17436 -7.18567 0
M  V30 403 H 52.4113 -0.0804732 -7.31656 0
M  V30 404 H 53.5943 -2.54037 -6.02537 0
M  V30 405 H 55.0783 -2.93881 -7.85526 0
M  V30 406 H 53.3843 -2.53065 -9.86973 0
M  V30 407 H 53.1943 -4.75072 -9.05887 0
M  V30 408 H 51.5643 -4.05244 -8.76668 0
M  V30 409 H 54.2033 0.177647 -6.34251 0
M  V30 410 P 56.0608 -1.25109 -8.70152 0
M  V30 411 O 57.4828 -1.29744 -9.22016 0
M  V30 412 O 55.7008 -2.13714 -7.55141 0
M  V30 413 O 55.7378 0.248149 -8.21425 0
M  V30 414 C 55.5778 1.22779 -9.30434 0
M  V30 415 C 56.1178 2.56293 -8.80664 0
M  V30 416 O 55.0618 3.02979 -8.09349 0
M  V30 417 C 57.3358 2.57523 -7.89775 0
M  V30 418 O 58.0738 3.7668 -7.89438 0
M  V30 419 C 56.6668 2.20997 -6.55446 0
M  V30 420 O 57.4658 2.71895 -5.48509 0
M  V30 421 C 55.3298 2.89693 -6.67988 0
M  V30 422 H 55.3618 3.88793 -6.19859 0
M  V30 423 H 56.5448 1.12046 -6.44229 0
M  V30 424 H 58.0288 1.7746 -8.19711 0
M  V30 425 H 56.3348 3.20706 -9.67112 0
M  V30 426 H 56.1448 0.901032 -10.1892 0
M  V30 427 H 54.5148 1.33049 -9.56592 0
M  V30 428 H 57.1538 3.57847 -5.23962 0
M  V30 429 P 59.0114 3.65191 -7.99657 0
M  V30 430 O 60.4334 3.89332 -8.45794 0
M  V30 431 O 58.6514 2.28472 -7.50807 0
M  V30 432 O 58.6884 4.64972 -6.77611 0
M  V30 433 C 58.5284 6.06319 -7.16352 0
M  V30 434 C 59.0684 6.91731 -6.02299 0
M  V30 435 O 58.0124 6.92449 -5.17064 0
M  V30 436 C 60.2864 6.43627 -5.25174 0
M  V30 437 O 61.0244 7.43686 -4.60469 0
M  V30 438 C 59.6174 5.40275 -4.31916 0
M  V30 439 O 60.4164 5.25279 -3.14438 0
M  V30 440 C 58.2804 6.04847 -4.05327 0
M  V30 441 H 58.3124 6.62195 -3.11261 0
M  V30 442 H 59.4954 4.42556 -4.81383 0
M  V30 443 H 60.9794 5.92458 -5.93643 0
M  V30 444 H 59.2854 7.92655 -6.402 0
M  V30 445 H 59.0954 6.26671 -8.0846 0
M  V30 446 H 57.4654 6.29101 -7.32804 0
M  V30 447 H 60.1044 5.84315 -2.47318 0
M  V30 448 P 61.962 7.39546 -4.75277 0
M  V30 449 O 63.363 7.86988 -5.07993 0
M  V30 450 O 61.584 5.99957 -5.13804 0
M  V30 451 O 61.639 7.57411 -3.18621 0
M  V30 452 C 61.479 8.97357 -2.74833 0
M  V30 453 C 62.019 9.0745 -1.32694 0
M  V30 454 O 60.963 8.61972 -0.606089 0
M  V30 455 C 63.236 8.25383 -0.938334 0
M  V30 456 O 63.975 8.74577 0.146954 0
M  V30 457 C 62.569 6.8802 -0.712559 0
M  V30 458 O 63.367 6.11791 0.194623 0
M  V30 459 C 61.231 7.27966 -0.139777 0
M  V30 460 N 60.188 6.39368 -0.623421 0
M  V30 461 C 59.153 6.08088 0.223886 0
M  V30 462 O 59.192 6.5102 1.39986 0
M  V30 463 N 58.141 5.30627 -0.224051 0
M  V30 464 C 58.189 4.82531 -1.47257 0
M  V30 465 N 57.179 4.07328 -1.89378 0
M  V30 466 C 59.285 5.09974 -2.34008 0
M  V30 467 C 60.251 5.89548 -1.87678 0
M  V30 468 H 61.263 7.25255 0.961469 0
M  V30 469 H 62.446 6.32625 -1.65044 0
M  V30 470 H 63.93 8.19631 -1.78299 0
M  V30 471 H 62.236 10.1305 -1.09016 0
M  V30 472 H 62.045 9.64276 -3.41316 0
M  V30 473 H 60.415 9.25321 -2.76328 0
M  V30 474 H 59.333 4.67832 -3.3413 0
M  V30 475 H 61.097 6.14434 -2.51991 0
M  V30 476 H 56.389 3.87329 -1.26296 0
M  V30 477 H 57.184 3.69014 -2.84741 0
M  V30 478 H 63.151 6.35931 1.08377 0
M  V30 479 P 64.9125 8.791 -3.55383e-14 0
M  V30 480 O 66.3345 9.31096 0.027933 0
M  V30 481 O 64.5525 7.77869 -1.04071 0
M  V30 482 O 64.5895 8.09533 1.41463 0
M  V30 483 C 64.4295 9.0349 2.53943 0
M  V30 484 C 64.9695 8.35226 3.79016 0
M  V30 485 O 63.9135 7.57992 4.15078 0
M  V30 486 C 66.1875 7.45087 3.67298 0
M  V30 487 O 66.9255 7.27796 4.85194 0
M  V30 488 C 65.5185 6.17323 3.12027 0
M  V30 489 O 66.3175 5.04231 3.47188 0
M  V30 490 C 64.1815 6.19961 3.81809 0
M  V30 491 H 64.2135 5.58218 4.73051 0
M  V30 492 H 65.3965 6.21726 2.02589 0
M  V30 493 H 66.8805 7.86112 2.9231 0
M  V30 494 H 65.1865 9.11627 4.55076 0
M  V30 495 H 64.9965 9.9573 2.34194 0
M  V30 496 H 63.3665 9.2792 2.67832 0
M  V30 497 H 66.0055 4.67702 4.28772 0
M  V30 498 P 67.8631 7.39546 4.75277 0
M  V30 499 O 69.2851 7.81777 5.05738 0
M  V30 500 O 67.5031 7.1065 3.32998 0
M  V30 501 O 67.5401 6.04542 5.56673 0
M  V30 502 C 67.3801 6.22772 7.02095 0
M  V30 503 C 67.9201 4.97725 7.70406 0
M  V30 504 O 66.8641 4.13256 7.58987 0
M  V30 505 C 69.1381 4.28231 7.11815 0
M  V30 506 O 69.8761 3.49945 8.01648 0
M  V30 507 C 68.4691 3.5063 5.96244 0
M  V30 508 O 69.2681 2.36482 5.64681 0
M  V30 509 C 67.1321 3.15122 6.56374 0
M  V30 510 H 67.1641 2.13853 6.99751 0
M  V30 511 H 68.3471 4.13501 5.06559 0
M  V30 512 H 69.8311 5.03285 6.70911 0
M  V30 513 H 68.1371 5.20877 8.75697 0
M  V30 514 H 67.9471 7.11046 7.35349 0
M  V30 515 H 66.3171 6.35815 7.26986 0
M  V30 516 H 68.9561 1.61644 6.13565 0
M  V30 517 P 70.8137 3.65191 7.99657 0
M  V30 518 O 72.2357 3.8425 8.48115 0
M  V30 519 O 70.4537 4.17805 6.64342 0
M  V30 520 O 70.4907 2.07613 7.95143 0
M  V30 521 C 70.3307 1.44328 9.27336 0
M  V30 522 C 70.8707 0.0220036 9.17197 0
M  V30 523 O 69.8147 -0.626867 8.61923 0
M  V30 524 C 72.0887 -0.24586 8.30336 0
M  V30 525 O 72.8267 -1.39011 8.63583 0
M  V30 526 C 71.4197 -0.273849 6.91158 0
M  V30 527 O 72.2187 -1.06348 6.02892 0
M  V30 528 C 70.0827 -0.897649 7.22545 0
M  V30 529 H 70.1147 -1.9841 7.04286 0
M  V30 530 H 71.2977 0.739928 6.497 0
M  V30 531 H 72.7817 0.60668 8.36503 0
M  V30 532 H 71.0877 -0.352479 10.1829 0
M  V30 533 H 70.8977 2.00611 10.0304 0
M  V30 534 H 69.2677 1.41843 9.55327 0
M  V30 535 H 71.9067 -1.95734 6.03555 0
M  V30 536 P 73.7642 -1.25109 8.70152 0
M  V30 537 O 75.1862 -1.35274 9.21221 0
M  V30 538 O 73.4042 -0.0769065 7.84762 0
M  V30 539 O 73.4412 -2.55232 7.81161 0
M  V30 540 C 73.2812 -3.79939 8.58154 0
M  V30 541 C 73.8212 -4.94023 7.72785 0
M  V30 542 O 72.7652 -5.18726 6.91205 0
M  V30 543 C 75.0392 -4.69597 6.85231 0
M  V30 544 O 75.7772 -5.83832 6.51337 0
M  V30 545 C 74.3702 -3.96706 5.66633 0
M  V30 546 O 75.1692 -4.15414 4.49689 0
M  V30 547 C 73.0332 -4.66153 5.59313 0
M  V30 548 H 73.0652 -5.47679 4.85214 0
M  V30 549 H 74.2482 -2.89008 5.86566 0
M  V30 550 H 75.7322 -4.0121 7.36511 0
M  V30 551 H 74.0382 -5.80182 8.37584 0
M  V30 552 H 73.8482 -3.73517 9.52265 0
M  V30 553 H 72.2182 -3.97163 8.80359 0
M  V30 554 H 74.8572 -4.90969 4.01921 0
M  V30 555 P 76.7148 -5.75688 6.64379 0
M  V30 556 O 78.1358 -6.11915 7.01921 0
M  V30 557 O 76.3548 -4.30744 6.56026 0
M  V30 558 O 76.3918 -6.37042 5.19165 0
M  V30 559 C 76.2308 -7.83662 5.1657 0
M  V30 560 C 76.7718 -8.33398 3.83019 0
M  V30 561 O 75.7168 -8.0998 3.00999 0
M  V30 562 C 77.9898 -7.65514 3.2257 0
M  V30 563 O 78.7278 -8.4329 2.32297 0
M  V30 564 C 77.3218 -6.40075 2.62207 0
M  V30 565 O 78.1198 -5.92338 1.5428 0
M  V30 566 C 75.9838 -6.9454 2.18503 0
M  V30 567 N 74.9408 -5.95905 2.39948 0
M  V30 568 C 75.1098 -4.98383 3.32108 0
M  V30 569 N 74.0828 -4.16798 3.41761 0
M  V30 570 C 73.1978 -4.65287 2.47461 0
M  V30 571 C 71.9308 -4.18946 2.07461 0
M  V30 572 N 71.3658 -4.95327 1.09101 0
M  V30 573 C 71.9678 -6.04369 0.519812 0
M  V30 574 N 73.1448 -6.50694 0.855982 0
M  V30 575 C 73.7198 -5.75818 1.84322 0
M  V30 576 H 77.1988 -5.60502 3.36589 0
M  V30 577 H 78.6818 -7.35707 4.02681 0
M  V30 578 H 76.9878 -9.41302 3.90009 0
M  V30 579 H 76.7978 -8.29056 5.99158 0
M  V30 580 H 75.1678 -8.10073 5.25882 0
M  V30 581 H 76.0098 -4.88564 3.92502 0
M  V30 582 H 77.8078 -6.30224 0.72668 0
M  V30 583 P 79.6654 -8.4349 2.47671 0
M  V30 584 O 81.0864 -8.94263 2.59668 0
M  V30 585 O 79.3054 -7.1704 3.19006 0
M  V30 586 O 79.3424 -8.16596 0.923387 0
M  V30 587 C 79.1814 -9.38537 0.108869 0
M  V30 588 C 79.7224 -9.08175 -1.28353 0
M  V30 589 O 78.6674 -8.44131 -1.84692 0
M  V30 590 C 80.9404 -8.18386 -1.42505 0
M  V30 591 O 81.6784 -8.3501 -2.60497 0
M  V30 592 C 80.2724 -6.80225 -1.25468 0
M  V30 593 O 81.0704 -5.81716 -1.90454 0
M  V30 594 C 78.9344 -7.02416 -1.9168 0
M  V30 595 N 77.8914 -6.31033 -1.20314 0
M  V30 596 C 78.0604 -5.98817 0.0994088 0
M  V30 597 N 77.0334 -5.35403 0.621694 0
M  V30 598 C 76.1484 -5.25212 -0.43376 0
M  V30 599 C 74.8814 -4.64602 -0.519722 0
M  V30 600 N 74.2824 -4.01457 0.519136 0
M  V30 601 N 74.3164 -4.7568 -1.76013 0
M  V30 602 C 74.9184 -5.3653 -2.83017 0
M  V30 603 N 76.0954 -5.93676 -2.79782 0
M  V30 604 C 76.6704 -5.84061 -1.56249 0
M  V30 605 H 78.9664 -6.68789 -2.9658 0
M  V30 606 H 80.1494 -6.53498 -0.198729 0
M  V30 607 H 81.6324 -8.36622 -0.589963 0
M  V30 608 H 79.9384 -10.0273 -1.8081 0
M  V30 609 H 79.7484 -10.2138 0.558219 0
M  V30 610 H 78.1184 -9.6579 0.0444202 0
M  V30 611 H 74.3824 -5.37113 -3.77321 0
M  V30 612 H 78.9604 -6.23209 0.660562 0
M  V30 613 H 73.3524 -3.58834 0.394862 0
M  V30 614 H 74.7564 -3.96059 1.43048 0
M  V30 615 H 80.7584 -5.69466 -2.79593 0
M  V30 616 P 82.616 -8.4349 -2.47671 0
M  V30 617 O 84.017 -8.99283 -2.62101 0
M  V30 618 O 82.238 -7.81195 -1.16947 0
M  V30 619 O 82.293 -7.36797 -3.63761 0
M  V30 620 C 82.133 -7.95349 -4.982 0
M  V30 621 C 82.673 -6.94537 -5.98908 0
M  V30 622 O 81.617 -6.10277 -6.11744 0
M  V30 623 C 83.89 -6.11426 -5.62335 0
M  V30 624 O 84.629 -5.6162 -6.70584 0
M  V30 625 C 83.223 -5.04409 -4.73308 0
M  V30 626 O 84.021 -3.85929 -4.75106 0
M  V30 627 C 81.885 -4.8728 -5.41006 0
M  V30 628 N 80.842 -4.65812 -4.42377 0
M  V30 629 C 79.807 -3.81293 -4.74224 0
M  V30 630 O 79.846 -3.20533 -5.83679 0
M  V30 631 N 78.795 -3.6442 -3.86349 0
M  V30 632 C 78.843 -4.2728 -2.6824 0
M  V30 633 N 77.833 -4.09866 -1.83822 0
M  V30 634 C 79.939 -5.10813 -2.3217 0
M  V30 635 C 80.905 -5.27909 -3.22647 0
M  V30 636 H 81.917 -4.02278 -6.11074 0
M  V30 637 H 83.1 -5.39013 -3.70026 0
M  V30 638 H 84.584 -6.71494 -5.02675 0
M  V30 639 H 82.89 -7.45796 -6.94223 0
M  V30 640 H 82.699 -8.89416 -5.05237 0
M  V30 641 H 81.069 -8.14791 -5.18355 0
M  V30 642 H 79.987 -5.58884 -1.34755 0
M  V30 643 H 81.751 -5.92811 -2.9934 0
M  V30 644 H 77.043 -3.49095 -2.10018 0
M  V30 645 H 77.838 -4.56846 -0.924167 0
M  V30 646 H 83.805 -3.3454 -5.51577 0
M  V30 647 P 85.5665 -5.75688 -6.64379 0
M  V30 648 O 86.9885 -6.07758 -7.05656 0
M  V30 649 O 85.2065 -5.88047 -5.19722 0
M  V30 650 O 85.2435 -4.2322 -7.04443 0
M  V30 651 C 85.0835 -3.99743 -8.4911 0
M  V30 652 C 85.6235 -2.60487 -8.79329 0
M  V30 653 O 84.5685 -1.82684 -8.4467 0
M  V30 654 C 86.8415 -2.10343 -8.03628 0
M  V30 655 O 87.5795 -1.09919 -8.67766 0
M  V30 656 C 86.1735 -1.68446 -6.70876 0
M  V30 657 O 86.9715 -0.678026 -6.08333 0
M  V30 658 C 84.8355 -1.17436 -7.18567 0
M  V30 659 N 83.7925 -1.52699 -6.23988 0
M  V30 660 C 83.8545 -2.68084 -5.57824 0
M  V30 661 N 82.8095 -2.8189 -4.75643 0
M  V30 662 C 82.0755 -1.72373 -4.95155 0
M  V30 663 C 80.7695 -1.37653 -4.44996 0
M  V30 664 O 80.0365 -2.02239 -3.68445 0
M  V30 665 N 80.3395 -0.17675 -4.90782 0
M  V30 666 C 81.0885 0.645036 -5.78716 0
M  V30 667 N 80.4915 1.84214 -6.10618 0
M  V30 668 N 82.2415 0.321732 -6.30279 0
M  V30 669 C 82.6985 -0.87502 -5.86913 0
M  V30 670 H 84.8675 -0.0804732 -7.31656 0
M  V30 671 H 86.0505 -2.53998 -6.02444 0
M  V30 672 H 87.5355 -2.93095 -7.8582 0
M  V30 673 H 85.8405 -2.53065 -9.86973 0
M  V30 674 H 85.6505 -4.75072 -9.05887 0
M  V30 675 H 84.0195 -4.05244 -8.76668 0
M  V30 676 H 79.4435 0.152143 -4.60849 0
M  V30 677 H 84.6505 -3.41852 -5.69006 0
M  V30 678 H 79.5805 2.08538 -5.69521 0
M  V30 679 H 80.9565 2.4895 -6.75698 0
M  V30 680 H 86.6605 0.177619 -6.34151 0
M  V30 681 P 88.5171 -1.25109 -8.70152 0
M  V30 682 O 89.9391 -1.29744 -9.22016 0
M  V30 683 O 88.1571 -2.13714 -7.55141 0
M  V30 684 O 88.1941 0.248149 -8.21425 0
M  V30 685 C 88.0341 1.22779 -9.30434 0
M  V30 686 C 88.5741 2.56293 -8.80664 0
M  V30 687 O 87.5181 3.02979 -8.09349 0
M  V30 688 C 89.7921 2.57523 -7.89775 0
M  V30 689 O 90.5301 3.7668 -7.89438 0
M  V30 690 C 89.1231 2.20997 -6.55446 0
M  V30 691 O 89.9221 2.71895 -5.48509 0
M  V30 692 C 87.7861 2.89693 -6.67988 0
M  V30 693 H 87.8181 3.88793 -6.19859 0
M  V30 694 H 89.0011 1.12046 -6.44229 0
M  V30 695 H 90.4851 1.7746 -8.19711 0
M  V30 696 H 88.7911 3.20706 -9.67112 0
M  V30 697 H 88.6011 0.901032 -10.1892 0
M  V30 698 H 86.9711 1.33049 -9.56592 0
M  V30 699 H 89.6101 3.57847 -5.23962 0
M  V30 700 P 91.4677 3.65191 -7.99657 0
M  V30 701 O 92.8687 3.87414 -8.52829 0
M  V30 702 O 91.0897 2.26932 -7.566 0
M  V30 703 O 91.1447 4.64915 -6.77529 0
M  V30 704 C 90.9847 6.06319 -7.16352 0
M  V30 705 C 91.5247 6.91655 -6.02234 0
M  V30 706 O 90.4687 6.92369 -5.17005 0
M  V30 707 C 92.7417 6.43627 -5.25174 0
M  V30 708 O 93.4807 7.43686 -4.60469 0
M  V30 709 C 92.0747 5.40275 -4.31916 0
M  V30 710 O 92.8727 5.25193 -3.14386 0
M  V30 711 C 90.7367 6.04847 -4.05327 0
M  V30 712 N 89.6937 5.04166 -3.98114 0
M  V30 713 C 88.6587 5.2366 -3.09923 0
M  V30 714 O 88.6977 6.23355 -2.34204 0
M  V30 715 N 87.6467 4.34279 -3.05727 0
M  V30 716 C 87.6947 3.26317 -3.84756 0
M  V30 717 C 88.7907 3.02504 -4.72573 0
M  V30 718 C 89.7567 3.94493 -4.76618 0
M  V30 719 H 90.7687 6.62104 -3.11218 0
M  V30 720 H 91.9517 4.42969 -4.80867 0
M  V30 721 H 93.4357 5.93122 -5.93121 0
M  V30 722 H 91.7417 7.93295 -6.39407 0
M  V30 723 H 91.5507 6.26671 -8.0846 0
M  V30 724 H 89.9207 6.29036 -7.32728 0
M  V30 725 H 88.8387 2.12921 -5.34017 0
M  V30 726 H 90.6027 3.80658 -5.44176 0
M  V30 727 H 92.6567 5.93572 -2.52637 0
M  V30 728 P 94.4182 7.39546 -4.75277 0
M  V30 729 O 95.8402 7.84798 -5.01039 0
M  V30 730 O 94.0582 5.9812 -5.08098 0
M  V30 731 O 94.0952 7.57503 -3.1866 0
M  V30 732 C 93.9352 8.97357 -2.74833 0
M  V30 733 C 94.4752 9.07548 -1.32709 0
M  V30 734 O 93.4192 8.62072 -0.606159 0
M  V30 735 C 95.6932 8.25383 -0.938334 0
M  V30 736 O 96.4312 8.74577 0.146954 0
M  V30 737 C 95.0242 6.8802 -0.712559 0
M  V30 738 O 95.8232 6.1189 0.194655 0
M  V30 739 C 93.6872 7.27966 -0.139777 0
M  V30 740 H 93.7192 7.25354 0.961601 0
M  V30 741 H 94.9022 6.32557 -1.65702 0
M  V30 742 H 96.3862 8.19355 -1.79097 0
M  V30 743 H 94.6922 10.1294 -1.10029 0
M  V30 744 H 94.5022 9.64276 -3.41316 0
M  V30 745 H 92.8722 9.25417 -2.76357 0
M  V30 746 H 95.5112 6.25267 1.07847 0
M  V30 747 P 97.3688 8.791 -6.89233e-14 0
M  V30 748 O 98.7908 9.31096 0.027933 0
M  V30 749 O 97.0088 7.77869 -1.04071 0
M  V30 750 O 97.0458 8.09533 1.41463 0
M  V30 751 C 96.8858 9.0349 2.53943 0
M  V30 752 C 97.4258 8.35226 3.79016 0
M  V30 753 O 96.3698 7.57992 4.15078 0
M  V30 754 C 98.6438 7.45087 3.67298 0
M  V30 755 O 99.3818 7.27796 4.85194 0
M  V30 756 C 97.9748 6.17323 3.12027 0
M  V30 757 O 98.7738 5.04231 3.47188 0
M  V30 758 C 96.6378 6.19961 3.81809 0
M  V30 759 H 96.6698 5.58218 4.73051 0
M  V30 760 H 97.8528 6.21726 2.02589 0
M  V30 761 H 99.3368 7.86112 2.9231 0
M  V30 762 H 97.6428 9.11627 4.55076 0
M  V30 763 H 97.4528 9.9573 2.34194 0
M  V30 764 H 95.8228 9.2792 2.67832 0
M  V30 765 H 98.4618 4.67702 4.28772 0
M  V30 766 P 100.319 7.39546 4.75277 0
M  V30 767 O 101.72 7.89013 5.04841 0
M  V30 768 O 99.9414 7.16603 3.32298 0
M  V30 769 O 99.9964 6.04468 5.56605 0
M  V30 770 C 99.8364 6.22772 7.02095 0
M  V30 771 C 100.376 4.97671 7.70322 0
M  V30 772 O 99.3204 4.13208 7.58899 0
M  V30 773 C 101.593 4.28231 7.11815 0
M  V30 774 O 102.332 3.49945 8.01648 0
M  V30 775 C 100.926 3.5063 5.96244 0
M  V30 776 O 101.724 2.36443 5.64589 0
M  V30 777 C 99.5884 3.15122 6.56374 0
M  V30 778 N 98.5454 3.22311 5.55692 0
M  V30 779 C 97.5104 2.32244 5.62437 0
M  V30 780 O 97.5494 1.43107 6.50341 0
M  V30 781 N 96.4984 2.40811 4.73368 0
M  V30 782 C 96.5464 3.344 3.77753 0
M  V30 783 C 97.6424 4.24712 3.66679 0
M  V30 784 C 98.6084 4.15625 4.58307 0
M  V30 785 H 99.6204 2.13823 6.99656 0
M  V30 786 H 100.803 4.12931 5.06895 0
M  V30 787 H 102.287 5.02674 6.71494 0
M  V30 788 H 100.593 5.20001 8.76217 0
M  V30 789 H 100.402 7.11046 7.35349 0
M  V30 790 H 98.7724 6.35749 7.26911 0
M  V30 791 H 97.6904 4.9828 2.86753 0
M  V30 792 H 99.4544 4.84464 4.54228 0
M  V30 793 H 101.508 1.65592 6.23485 0
M  V30 794 P 103.27 3.65191 7.99657 0
M  V30 795 O 104.692 3.8425 8.48115 0
M  V30 796 O 102.91 4.17805 6.64342 0
M  V30 797 O 102.947 2.07613 7.95143 0
M  V30 798 C 102.787 1.44328 9.27336 0
M  V30 799 C 103.327 0.0220036 9.17197 0
M  V30 800 O 102.271 -0.626867 8.61923 0
M  V30 801 C 104.545 -0.24586 8.30336 0
M  V30 802 O 105.283 -1.39011 8.63583 0
M  V30 803 C 103.876 -0.273849 6.91158 0
M  V30 804 O 104.675 -1.06348 6.02892 0
M  V30 805 C 102.539 -0.897649 7.22545 0
M  V30 806 H 102.571 -1.9841 7.04286 0
M  V30 807 H 103.754 0.739928 6.497 0
M  V30 808 H 105.238 0.60668 8.36503 0
M  V30 809 H 103.544 -0.352479 10.1829 0
M  V30 810 H 103.354 2.00611 10.0304 0
M  V30 811 H 101.724 1.41843 9.55327 0
M  V30 812 H 104.363 -1.95734 6.03555 0
M  V30 813 P 106.221 -1.25109 8.70152 0
M  V30 814 O 107.643 -1.35274 9.21221 0
M  V30 815 O 105.861 -0.0769065 7.84762 0
M  V30 816 O 105.898 -2.55232 7.81161 0
M  V30 817 C 105.738 -3.79939 8.58154 0
M  V30 818 C 106.278 -4.94023 7.72785 0
M  V30 819 O 105.222 -5.18726 6.91205 0
M  V30 820 C 107.496 -4.69597 6.85231 0
M  V30 821 O 108.234 -5.83832 6.51337 0
M  V30 822 C 106.827 -3.96706 5.66633 0
M  V30 823 O 107.626 -4.15414 4.49689 0
M  V30 824 C 105.49 -4.66153 5.59313 0
M  V30 825 H 105.522 -5.47679 4.85214 0
M  V30 826 H 106.705 -2.89008 5.86566 0
M  V30 827 H 108.189 -4.0121 7.36511 0
M  V30 828 H 106.495 -5.80182 8.37584 0
M  V30 829 H 106.305 -3.73517 9.52265 0
M  V30 830 H 104.675 -3.97163 8.80359 0
M  V30 831 H 107.314 -4.90969 4.01921 0
M  V30 832 P 109.171 -5.75688 6.64379 0
M  V30 833 O 110.593 -6.11849 7.01846 0
M  V30 834 O 108.811 -4.30744 6.56026 0
M  V30 835 O 108.848 -6.37042 5.19165 0
M  V30 836 C 108.688 -7.83578 5.16515 0
M  V30 837 C 109.228 -8.33398 3.83019 0
M  V30 838 O 108.172 -8.10074 3.01034 0
M  V30 839 C 110.446 -7.65514 3.2257 0
M  V30 840 O 111.184 -8.4329 2.32297 0
M  V30 841 C 109.777 -6.40075 2.62207 0
M  V30 842 O 110.576 -5.92589 1.53712 0
M  V30 843 C 108.44 -6.9454 2.18503 0
M  V30 844 H 108.472 -7.23063 1.12091 0
M  V30 845 H 109.655 -5.6025 3.37201 0
M  V30 846 H 111.139 -7.35707 4.02681 0
M  V30 847 H 109.445 -9.40912 3.9095 0
M  V30 848 H 109.255 -8.29056 5.99158 0
M  V30 849 H 107.625 -8.10073 5.25882 0
M  V30 850 H 110.264 -6.30324 0.726794 0
M  V30 851 P 112.122 -8.4349 2.47671 0
M  V30 852 O 113.544 -8.94167 2.5964 0
M  V30 853 O 111.762 -7.1704 3.19006 0
M  V30 854 O 111.799 -8.16596 0.923387 0
M  V30 855 C 111.639 -9.38437 0.108857 0
M  V30 856 C 112.179 -9.08175 -1.28353 0
M  V30 857 O 111.123 -8.44229 -1.84713 0
M  V30 858 C 113.397 -8.18386 -1.42505 0
M  V30 859 O 114.135 -8.3501 -2.60497 0
M  V30 860 C 112.728 -6.80225 -1.25468 0
M  V30 861 O 113.527 -5.81621 -1.91066 0
M  V30 862 C 111.391 -7.02416 -1.9168 0
M  V30 863 H 111.423 -6.6888 -2.96621 0
M  V30 864 H 112.606 -6.53617 -0.192223 0
M  V30 865 H 114.09 -8.36622 -0.589963 0
M  V30 866 H 112.396 -10.0291 -1.79807 0
M  V30 867 H 112.206 -10.2138 0.558219 0
M  V30 868 H 110.576 -9.6579 0.0444202 0
M  V30 869 H 113.215 -5.69556 -2.79637 0
M  V30 870 P 115.072 -8.4349 -2.47671 0
M  V30 871 O 116.494 -8.92593 -2.65 0
M  V30 872 O 114.712 -7.7568 -1.19296 0
M  V30 873 O 114.749 -7.36886 -3.63805 0
M  V30 874 C 114.589 -7.95349 -4.982 0
M  V30 875 C 115.129 -6.94612 -5.98974 0
M  V30 876 O 114.073 -6.10347 -6.11815 0
M  V30 877 C 116.347 -6.11426 -5.62335 0
M  V30 878 O 117.085 -5.6162 -6.70584 0
M  V30 879 C 115.678 -5.04409 -4.73308 0
M  V30 880 O 116.477 -3.85992 -4.75183 0
M  V30 881 C 114.341 -4.8728 -5.41006 0
M  V30 882 H 114.373 -4.02333 -6.11157 0
M  V30 883 H 115.556 -5.39466 -3.69543 0
M  V30 884 H 117.04 -6.71916 -5.01943 0
M  V30 885 H 115.346 -7.4649 -6.93477 0
M  V30 886 H 115.156 -8.89416 -5.05237 0
M  V30 887 H 113.526 -8.14876 -5.18409 0
M  V30 888 H 116.165 -3.27957 -5.4317 0
M  V30 889 P 118.023 -5.75688 -6.64379 0
M  V30 890 O 119.445 -6.07627 -7.05504 0
M  V30 891 O 117.663 -5.88047 -5.19722 0
M  V30 892 O 117.7 -4.2322 -7.04443 0
M  V30 893 C 117.54 -3.99743 -8.4911 0
M  V30 894 C 118.08 -2.60516 -8.79425 0
M  V30 895 O 117.024 -1.82684 -8.4467 0
M  V30 896 C 119.298 -2.10343 -8.03628 0
M  V30 897 O 120.036 -1.09919 -8.67766 0
M  V30 898 C 118.629 -1.68446 -6.70876 0
M  V30 899 O 119.428 -0.678137 -6.08433 0
M  V30 900 C 117.292 -1.17436 -7.18567 0
M  V30 901 H 117.324 -0.0804732 -7.31656 0
M  V30 902 H 118.507 -2.54037 -6.02537 0
M  V30 903 H 119.991 -2.93881 -7.85526 0
M  V30 904 H 118.297 -2.53065 -9.86973 0
M  V30 905 H 118.107 -4.75072 -9.05887 0
M  V30 906 H 116.477 -4.05244 -8.76668 0
M  V30 907 H 119.116 0.177647 -6.34251 0
M  V30 908 P 120.973 -1.25109 -8.70152 0
M  V30 909 O 122.394 -1.29758 -9.22115 0
M  V30 910 O 120.613 -2.13714 -7.55141 0
M  V30 911 O 120.65 0.248149 -8.21425 0
M  V30 912 C 120.489 1.22792 -9.30533 0
M  V30 913 C 121.03 2.56293 -8.80664 0
M  V30 914 O 119.975 3.02944 -8.09255 0
M  V30 915 C 122.248 2.57523 -7.89775 0
M  V30 916 O 122.986 3.7668 -7.89438 0
M  V30 917 C 121.58 2.20997 -6.55446 0
M  V30 918 O 122.378 2.71302 -5.48691 0
M  V30 919 C 120.242 2.89693 -6.67988 0
M  V30 920 N 119.199 2.08895 -6.07487 0
M  V30 921 C 119.368 0.753809 -5.94137 0
M  V30 922 N 118.341 0.146592 -5.38801 0
M  V30 923 C 117.456 1.1768 -5.13693 0
M  V30 924 C 116.189 1.17563 -4.52477 0
M  V30 925 N 115.624 2.41918 -4.45789 0
M  V30 926 C 116.226 3.56493 -4.90792 0
M  V30 927 N 117.403 3.61423 -5.47817 0
M  V30 928 C 117.978 2.37779 -5.5588 0
M  V30 929 H 121.457 1.12673 -6.44018 0
M  V30 930 H 122.94 1.7746 -8.19711 0
M  V30 931 H 121.246 3.21673 -9.66791 0
M  V30 932 H 121.056 0.901032 -10.1892 0
M  V30 933 H 119.426 1.33049 -9.56592 0
M  V30 934 H 120.268 0.233081 -6.26266 0
M  V30 935 H 122.066 3.5779 -5.23879 0
M  V30 936 P 123.924 3.65191 -7.99657 0
M  V30 937 O 125.346 3.89332 -8.45794 0
M  V30 938 O 123.564 2.28472 -7.50807 0
M  V30 939 O 123.601 4.64972 -6.77611 0
M  V30 940 C 123.441 6.06319 -7.16352 0
M  V30 941 C 123.981 6.91731 -6.02299 0
M  V30 942 O 122.925 6.92449 -5.17064 0
M  V30 943 C 125.199 6.43627 -5.25174 0
M  V30 944 O 125.937 7.43686 -4.60469 0
M  V30 945 C 124.53 5.40275 -4.31916 0
M  V30 946 O 125.329 5.25279 -3.14438 0
M  V30 947 C 123.193 6.04847 -4.05327 0
M  V30 948 H 123.225 6.62195 -3.11261 0
M  V30 949 H 124.408 4.42556 -4.81383 0
M  V30 950 H 125.892 5.92458 -5.93643 0
M  V30 951 H 124.198 7.92655 -6.402 0
M  V30 952 H 124.008 6.26671 -8.0846 0
M  V30 953 H 122.378 6.29101 -7.32804 0
M  V30 954 H 125.017 5.84315 -2.47318 0
M  V30 955 P 126.875 7.39546 -4.75277 0
M  V30 956 O 128.276 7.86988 -5.07993 0
M  V30 957 O 126.497 5.99957 -5.13804 0
M  V30 958 O 126.552 7.57411 -3.18621 0
M  V30 959 C 126.392 8.97357 -2.74833 0
M  V30 960 C 126.932 9.0745 -1.32694 0
M  V30 961 O 125.876 8.61972 -0.606089 0
M  V30 962 C 128.149 8.25383 -0.938334 0
M  V30 963 O 128.888 8.74577 0.146954 0
M  V30 964 C 127.482 6.8802 -0.712559 0
M  V30 965 O 128.28 6.11791 0.194623 0
M  V30 966 C 126.144 7.27966 -0.139777 0
M  V30 967 N 125.101 6.39368 -0.623421 0
M  V30 968 C 124.066 6.08088 0.223886 0
M  V30 969 O 124.105 6.5102 1.39986 0
M  V30 970 N 123.054 5.30627 -0.224051 0
M  V30 971 C 123.102 4.82531 -1.47257 0
M  V30 972 N 122.092 4.07328 -1.89378 0
M  V30 973 C 124.198 5.09974 -2.34008 0
M  V30 974 C 125.164 5.89548 -1.87678 0
M  V30 975 H 126.176 7.25255 0.961469 0
M  V30 976 H 127.359 6.32625 -1.65044 0
M  V30 977 H 128.843 8.19631 -1.78299 0
M  V30 978 H 127.149 10.1305 -1.09016 0
M  V30 979 H 126.958 9.64276 -3.41316 0
M  V30 980 H 125.328 9.25321 -2.76328 0
M  V30 981 H 124.246 4.67832 -3.3413 0
M  V30 982 H 126.01 6.14434 -2.51991 0
M  V30 983 H 121.302 3.87329 -1.26296 0
M  V30 984 H 122.097 3.69014 -2.84741 0
M  V30 985 H 128.064 6.35931 1.08377 0
M  V30 986 P 129.825 8.791 -1.02308e-13 0
M  V30 987 O 131.247 9.31096 0.027933 0
M  V30 988 O 129.465 7.77869 -1.04071 0
M  V30 989 O 129.502 8.09533 1.41463 0
M  V30 990 C 129.342 9.0349 2.53943 0
M  V30 991 C 129.882 8.35226 3.79016 0
M  V30 992 O 128.826 7.57992 4.15078 0
M  V30 993 C 131.1 7.45087 3.67298 0
M  V30 994 O 131.838 7.27796 4.85194 0
M  V30 995 C 130.431 6.17323 3.12027 0
M  V30 996 O 131.23 5.04231 3.47188 0
M  V30 997 C 129.094 6.19961 3.81809 0
M  V30 998 H 129.126 5.58218 4.73051 0
M  V30 999 H 130.309 6.21726 2.02589 0
M  V30 1000 H 131.793 7.86112 2.9231 0
M  V30 1001 H 130.099 9.11627 4.55076 0
M  V30 1002 H 129.909 9.9573 2.34194 0
M  V30 1003 H 128.279 9.2792 2.67832 0
M  V30 1004 H 130.918 4.67702 4.28772 0
M  V30 1005 P 132.776 7.39546 4.75277 0
M  V30 1006 O 134.198 7.81777 5.05738 0
M  V30 1007 O 132.416 7.1065 3.32998 0
M  V30 1008 O 132.453 6.04542 5.56673 0
M  V30 1009 C 132.293 6.22772 7.02095 0
M  V30 1010 C 132.833 4.97725 7.70406 0
M  V30 1011 O 131.777 4.13256 7.58987 0
M  V30 1012 C 134.051 4.28231 7.11815 0
M  V30 1013 O 134.789 3.49945 8.01648 0
M  V30 1014 C 133.382 3.5063 5.96244 0
M  V30 1015 O 134.181 2.36482 5.64681 0
M  V30 1016 C 132.045 3.15122 6.56374 0
M  V30 1017 H 132.077 2.13853 6.99751 0
M  V30 1018 H 133.26 4.13501 5.06559 0
M  V30 1019 H 134.744 5.03285 6.70911 0
M  V30 1020 H 133.05 5.20877 8.75697 0
M  V30 1021 H 132.86 7.11046 7.35349 0
M  V30 1022 H 131.23 6.35815 7.26986 0
M  V30 1023 H 133.869 1.61644 6.13565 0
M  V30 1024 P 135.726 3.65191 7.99657 0
M  V30 1025 O 137.148 3.8425 8.48115 0
M  V30 1026 O 135.366 4.17805 6.64342 0
M  V30 1027 O 135.403 2.07613 7.95143 0
M  V30 1028 C 135.243 1.44328 9.27336 0
M  V30 1029 C 135.783 0.0220036 9.17197 0
M  V30 1030 O 134.727 -0.626867 8.61923 0
M  V30 1031 C 137.001 -0.24586 8.30336 0
M  V30 1032 O 137.739 -1.39011 8.63583 0
M  V30 1033 C 136.332 -0.273849 6.91158 0
M  V30 1034 O 137.131 -1.06348 6.02892 0
M  V30 1035 C 134.995 -0.897649 7.22545 0
M  V30 1036 H 135.027 -1.9841 7.04286 0
M  V30 1037 H 136.21 0.739928 6.497 0
M  V30 1038 H 137.694 0.60668 8.36503 0
M  V30 1039 H 136 -0.352479 10.1829 0
M  V30 1040 H 135.81 2.00611 10.0304 0
M  V30 1041 H 134.18 1.41843 9.55327 0
M  V30 1042 H 136.819 -1.95734 6.03555 0
M  V30 1043 P 138.677 -1.25109 8.70152 0
M  V30 1044 O 140.099 -1.35274 9.21221 0
M  V30 1045 O 138.317 -0.0769065 7.84762 0
M  V30 1046 O 138.354 -2.55232 7.81161 0
M  V30 1047 C 138.194 -3.79939 8.58154 0
M  V30 1048 C 138.734 -4.94023 7.72785 0
M  V30 1049 O 137.678 -5.18726 6.91205 0
M  V30 1050 C 139.952 -4.69597 6.85231 0
M  V30 1051 O 140.69 -5.83832 6.51337 0
M  V30 1052 C 139.283 -3.96706 5.66633 0
M  V30 1053 O 140.082 -4.15414 4.49689 0
M  V30 1054 C 137.946 -4.66153 5.59313 0
M  V30 1055 H 137.978 -5.47679 4.85214 0
M  V30 1056 H 139.161 -2.89008 5.86566 0
M  V30 1057 H 140.645 -4.0121 7.36511 0
M  V30 1058 H 138.951 -5.80182 8.37584 0
M  V30 1059 H 138.761 -3.73517 9.52265 0
M  V30 1060 H 137.131 -3.97163 8.80359 0
M  V30 1061 H 139.77 -4.90969 4.01921 0
M  V30 1062 P 141.627 -5.75688 6.64379 0
M  V30 1063 O 143.049 -6.11849 7.01846 0
M  V30 1064 O 141.267 -4.30744 6.56026 0
M  V30 1065 O 141.304 -6.37042 5.19165 0
M  V30 1066 C 141.144 -7.83578 5.16515 0
M  V30 1067 C 141.684 -8.33398 3.83019 0
M  V30 1068 O 140.628 -8.10074 3.01034 0
M  V30 1069 C 142.902 -7.65514 3.2257 0
M  V30 1070 O 143.64 -8.4329 2.32297 0
M  V30 1071 C 142.233 -6.40075 2.62207 0
M  V30 1072 O 143.032 -5.92589 1.53712 0
M  V30 1073 C 140.896 -6.9454 2.18503 0
M  V30 1074 H 140.928 -7.23063 1.12091 0
M  V30 1075 H 142.111 -5.6025 3.37201 0
M  V30 1076 H 143.595 -7.35707 4.02681 0
M  V30 1077 H 141.901 -9.40912 3.9095 0
M  V30 1078 H 141.711 -8.29056 5.99158 0
M  V30 1079 H 140.081 -8.10073 5.25882 0
M  V30 1080 H 142.72 -6.30324 0.726794 0
M  V30 1081 P 144.578 -8.4349 2.47671 0
M  V30 1082 O 146 -8.94167 2.5964 0
M  V30 1083 O 144.218 -7.1704 3.19006 0
M  V30 1084 O 144.255 -8.16596 0.923387 0
M  V30 1085 C 144.095 -9.38437 0.108857 0
M  V30 1086 C 144.635 -9.08175 -1.28353 0
M  V30 1087 O 143.579 -8.44229 -1.84713 0
M  V30 1088 C 145.853 -8.18386 -1.42505 0
M  V30 1089 O 146.591 -8.3501 -2.60497 0
M  V30 1090 C 145.184 -6.80225 -1.25468 0
M  V30 1091 O 145.983 -5.81621 -1.91066 0
M  V30 1092 C 143.847 -7.02416 -1.9168 0
M  V30 1093 H 143.879 -6.6888 -2.96621 0
M  V30 1094 H 145.062 -6.53617 -0.192223 0
M  V30 1095 H 146.546 -8.36622 -0.589963 0
M  V30 1096 H 144.852 -10.0291 -1.79807 0
M  V30 1097 H 144.662 -10.2138 0.558219 0
M  V30 1098 H 143.032 -9.6579 0.0444202 0
M  V30 1099 H 145.671 -5.69556 -2.79637 0
M  V30 1100 P 147.528 -8.4349 -2.47671 0
M  V30 1101 O 148.929 -8.99283 -2.62101 0
M  V30 1102 O 147.15 -7.81195 -1.16947 0
M  V30 1103 O 147.205 -7.36797 -3.63761 0
M  V30 1104 C 147.045 -7.95349 -4.982 0
M  V30 1105 C 147.585 -6.94537 -5.98908 0
M  V30 1106 O 146.529 -6.10277 -6.11744 0
M  V30 1107 C 148.802 -6.11426 -5.62335 0
M  V30 1108 O 149.541 -5.6162 -6.70584 0
M  V30 1109 C 148.135 -5.04409 -4.73308 0
M  V30 1110 O 148.933 -3.85929 -4.75106 0
M  V30 1111 C 146.797 -4.8728 -5.41006 0
M  V30 1112 N 145.754 -4.65812 -4.42377 0
M  V30 1113 C 144.719 -3.81293 -4.74224 0
M  V30 1114 O 144.758 -3.20533 -5.83679 0
M  V30 1115 N 143.707 -3.6442 -3.86349 0
M  V30 1116 C 143.755 -4.2728 -2.6824 0
M  V30 1117 C 144.851 -5.10813 -2.3217 0
M  V30 1118 C 145.817 -5.27909 -3.22647 0
M  V30 1119 H 146.829 -4.02278 -6.11074 0
M  V30 1120 H 148.012 -5.39013 -3.70026 0
M  V30 1121 H 149.496 -6.71494 -5.02675 0
M  V30 1122 H 147.802 -7.45796 -6.94223 0
M  V30 1123 H 147.611 -8.89416 -5.05237 0
M  V30 1124 H 145.981 -8.14791 -5.18355 0
M  V30 1125 H 144.899 -5.58884 -1.34755 0
M  V30 1126 H 146.663 -5.92811 -2.9934 0
M  V30 1127 H 148.717 -3.3454 -5.51577 0
M  V30 1128 P 150.479 -5.75688 -6.64379 0
M  V30 1129 O 151.9 -6.07692 -7.0558 0
M  V30 1130 O 150.119 -5.88047 -5.19722 0
M  V30 1131 O 150.156 -4.2322 -7.04443 0
M  V30 1132 C 149.995 -3.99785 -8.49201 0
M  V30 1133 C 150.536 -2.60516 -8.79425 0
M  V30 1134 O 149.481 -1.82663 -8.44573 0
M  V30 1135 C 151.754 -2.10343 -8.03628 0
M  V30 1136 O 152.492 -1.09919 -8.67766 0
M  V30 1137 C 151.086 -1.68446 -6.70876 0
M  V30 1138 O 151.884 -0.684109 -6.08265 0
M  V30 1139 C 149.748 -1.17436 -7.18567 0
M  V30 1140 N 148.705 -1.52699 -6.23988 0
M  V30 1141 C 148.874 -2.578 -5.40574 0
M  V30 1142 N 147.847 -2.78966 -4.61193 0
M  V30 1143 C 146.962 -1.78725 -4.95769 0
M  V30 1144 C 145.695 -1.45727 -4.44207 0
M  V30 1145 N 145.13 -0.374977 -5.05812 0
M  V30 1146 C 145.732 0.345585 -6.05615 0
M  V30 1147 N 146.909 0.0787651 -6.56253 0
M  V30 1148 C 147.484 -1.00499 -5.96189 0
M  V30 1149 H 150.963 -2.53396 -6.02698 0
M  V30 1150 H 152.446 -2.93881 -7.85526 0
M  V30 1151 H 150.752 -2.52078 -9.87225 0
M  V30 1152 H 150.562 -4.75072 -9.05887 0
M  V30 1153 H 148.932 -4.05244 -8.76668 0
M  V30 1154 H 149.774 -3.18977 -5.3945 0
M  V30 1155 H 151.572 0.177619 -6.34151 0
M  V30 1156 P 153.43 -1.25109 -8.70152 0
M  V30 1157 O 154.852 -1.29744 -9.22016 0
M  V30 1158 O 153.07 -2.13714 -7.55141 0
M  V30 1159 O 153.107 0.248149 -8.21425 0
M  V30 1160 C 152.947 1.22779 -9.30434 0
M  V30 1161 C 153.487 2.56293 -8.80664 0
M  V30 1162 O 152.431 3.02979 -8.09349 0
M  V30 1163 C 154.705 2.57523 -7.89775 0
M  V30 1164 O 155.443 3.7668 -7.89438 0
M  V30 1165 C 154.036 2.20997 -6.55446 0
M  V30 1166 O 154.835 2.71895 -5.48509 0
M  V30 1167 C 152.699 2.89693 -6.67988 0
M  V30 1168 H 152.731 3.88793 -6.19859 0
M  V30 1169 H 153.914 1.12046 -6.44229 0
M  V30 1170 H 155.398 1.7746 -8.19711 0
M  V30 1171 H 153.704 3.20706 -9.67112 0
M  V30 1172 H 153.514 0.901032 -10.1892 0
M  V30 1173 H 151.884 1.33049 -9.56592 0
M  V30 1174 H 154.523 3.57847 -5.23962 0
M  V30 1175 P 156.38 3.65191 -7.99657 0
M  V30 1176 O 157.802 3.89332 -8.45794 0
M  V30 1177 O 156.02 2.28472 -7.50807 0
M  V30 1178 O 156.057 4.64972 -6.77611 0
M  V30 1179 C 155.897 6.06319 -7.16352 0
M  V30 1180 C 156.437 6.91731 -6.02299 0
M  V30 1181 O 155.381 6.92449 -5.17064 0
M  V30 1182 C 157.655 6.43627 -5.25174 0
M  V30 1183 O 158.393 7.43686 -4.60469 0
M  V30 1184 C 156.986 5.40275 -4.31916 0
M  V30 1185 O 157.785 5.25279 -3.14438 0
M  V30 1186 C 155.649 6.04847 -4.05327 0
M  V30 1187 H 155.681 6.62195 -3.11261 0
M  V30 1188 H 156.864 4.42556 -4.81383 0
M  V30 1189 H 158.348 5.92458 -5.93643 0
M  V30 1190 H 156.654 7.92655 -6.402 0
M  V30 1191 H 156.464 6.26671 -8.0846 0
M  V30 1192 H 154.834 6.29101 -7.32804 0
M  V30 1193 H 157.473 5.84315 -2.47318 0
M  V30 1194 P 159.331 7.39546 -4.75277 0
M  V30 1195 O 160.732 7.86988 -5.07993 0
M  V30 1196 O 158.953 5.99957 -5.13804 0
M  V30 1197 O 159.008 7.57411 -3.18621 0
M  V30 1198 C 158.848 8.97357 -2.74833 0
M  V30 1199 C 159.388 9.0745 -1.32694 0
M  V30 1200 O 158.332 8.61972 -0.606089 0
M  V30 1201 C 160.605 8.25383 -0.938334 0
M  V30 1202 O 161.344 8.74577 0.146954 0
M  V30 1203 C 159.938 6.8802 -0.712559 0
M  V30 1204 O 160.736 6.11791 0.194623 0
M  V30 1205 C 158.6 7.27966 -0.139777 0
M  V30 1206 N 157.557 6.39368 -0.623421 0
M  V30 1207 C 156.522 6.08088 0.223886 0
M  V30 1208 O 156.561 6.5102 1.39986 0
M  V30 1209 N 155.51 5.30627 -0.224051 0
M  V30 1210 C 155.558 4.82531 -1.47257 0
M  V30 1211 C 156.654 5.09974 -2.34008 0
M  V30 1212 C 157.62 5.89548 -1.87678 0
M  V30 1213 H 158.632 7.25255 0.961469 0
M  V30 1214 H 159.815 6.32625 -1.65044 0
M  V30 1215 H 161.299 8.19631 -1.78299 0
M  V30 1216 H 159.605 10.1305 -1.09016 0
M  V30 1217 H 159.414 9.64276 -3.41316 0
M  V30 1218 H 157.784 9.25321 -2.76328 0
M  V30 1219 H 156.702 4.67832 -3.3413 0
M  V30 1220 H 158.466 6.14434 -2.51991 0
M  V30 1221 H 160.52 6.35931 1.08377 0
M  V30 1222 P 162.281 8.791 -1.35693e-13 0
M  V30 1223 O 163.703 9.31096 0.027933 0
M  V30 1224 O 161.921 7.77869 -1.04071 0
M  V30 1225 O 161.958 8.09533 1.41463 0
M  V30 1226 C 161.798 9.0349 2.53943 0
M  V30 1227 C 162.338 8.35226 3.79016 0
M  V30 1228 O 161.282 7.57992 4.15078 0
M  V30 1229 C 163.556 7.45087 3.67298 0
M  V30 1230 O 164.294 7.27796 4.85194 0
M  V30 1231 C 162.887 6.17323 3.12027 0
M  V30 1232 O 163.686 5.04231 3.47188 0
M  V30 1233 C 161.55 6.19961 3.81809 0
M  V30 1234 H 161.582 5.58218 4.73051 0
M  V30 1235 H 162.765 6.21726 2.02589 0
M  V30 1236 H 164.249 7.86112 2.9231 0
M  V30 1237 H 162.555 9.11627 4.55076 0
M  V30 1238 H 162.365 9.9573 2.34194 0
M  V30 1239 H 160.735 9.2792 2.67832 0
M  V30 1240 H 163.374 4.67702 4.28772 0
M  V30 1241 P 165.232 7.39546 4.75277 0
M  V30 1242 O 166.654 7.81777 5.05738 0
M  V30 1243 O 164.872 7.1065 3.32998 0
M  V30 1244 O 164.909 6.04542 5.56673 0
M  V30 1245 C 164.749 6.22772 7.02095 0
M  V30 1246 C 165.289 4.97725 7.70406 0
M  V30 1247 O 164.233 4.13256 7.58987 0
M  V30 1248 C 166.507 4.28231 7.11815 0
M  V30 1249 O 167.245 3.49945 8.01648 0
M  V30 1250 C 165.838 3.5063 5.96244 0
M  V30 1251 O 166.637 2.36482 5.64681 0
M  V30 1252 C 164.501 3.15122 6.56374 0
M  V30 1253 H 164.533 2.13853 6.99751 0
M  V30 1254 H 165.716 4.13501 5.06559 0
M  V30 1255 H 167.2 5.03285 6.70911 0
M  V30 1256 H 165.506 5.20877 8.75697 0
M  V30 1257 H 165.316 7.11046 7.35349 0
M  V30 1258 H 163.686 6.35815 7.26986 0
M  V30 1259 H 166.325 1.61644 6.13565 0
M  V30 1260 P 168.182 3.65191 7.99657 0
M  V30 1261 O 169.604 3.8425 8.48115 0
M  V30 1262 O 167.822 4.17805 6.64342 0
M  V30 1263 O 167.859 2.07613 7.95143 0
M  V30 1264 C 167.699 1.44328 9.27336 0
M  V30 1265 C 168.239 0.0220036 9.17197 0
M  V30 1266 O 167.183 -0.626867 8.61923 0
M  V30 1267 C 169.457 -0.24586 8.30336 0
M  V30 1268 O 170.195 -1.39011 8.63583 0
M  V30 1269 C 168.788 -0.273849 6.91158 0
M  V30 1270 O 169.587 -1.06348 6.02892 0
M  V30 1271 C 167.451 -0.897649 7.22545 0
M  V30 1272 H 167.483 -1.9841 7.04286 0
M  V30 1273 H 168.666 0.739928 6.497 0
M  V30 1274 H 170.15 0.60668 8.36503 0
M  V30 1275 H 168.456 -0.352479 10.1829 0
M  V30 1276 H 168.266 2.00611 10.0304 0
M  V30 1277 H 166.636 1.41843 9.55327 0
M  V30 1278 H 169.275 -1.95734 6.03555 0
M  V30 1279 P 171.133 -1.25109 8.70152 0
M  V30 1280 O 172.555 -1.35274 9.21221 0
M  V30 1281 O 170.773 -0.0769065 7.84762 0
M  V30 1282 O 170.81 -2.55232 7.81161 0
M  V30 1283 C 170.65 -3.79939 8.58154 0
M  V30 1284 C 171.19 -4.94023 7.72785 0
M  V30 1285 O 170.134 -5.18726 6.91205 0
M  V30 1286 C 172.408 -4.69597 6.85231 0
M  V30 1287 O 173.146 -5.83832 6.51337 0
M  V30 1288 C 171.739 -3.96706 5.66633 0
M  V30 1289 O 172.538 -4.15414 4.49689 0
M  V30 1290 C 170.402 -4.66153 5.59313 0
M  V30 1291 H 170.434 -5.47679 4.85214 0
M  V30 1292 H 171.617 -2.89008 5.86566 0
M  V30 1293 H 173.101 -4.0121 7.36511 0
M  V30 1294 H 171.407 -5.80182 8.37584 0
M  V30 1295 H 171.217 -3.73517 9.52265 0
M  V30 1296 H 169.587 -3.97163 8.80359 0
M  V30 1297 H 172.226 -4.90969 4.01921 0
M  V30 1298 P 174.084 -5.75688 6.64379 0
M  V30 1299 O 175.506 -6.11849 7.01846 0
M  V30 1300 O 173.724 -4.30744 6.56026 0
M  V30 1301 O 173.761 -6.37042 5.19165 0
M  V30 1302 C 173.601 -7.83578 5.16515 0
M  V30 1303 C 174.141 -8.33398 3.83019 0
M  V30 1304 O 173.085 -8.10074 3.01034 0
M  V30 1305 C 175.359 -7.65514 3.2257 0
M  V30 1306 O 176.097 -8.4329 2.32297 0
M  V30 1307 C 174.69 -6.40075 2.62207 0
M  V30 1308 O 175.489 -5.92589 1.53712 0
M  V30 1309 C 173.353 -6.9454 2.18503 0
M  V30 1310 H 173.385 -7.23063 1.12091 0
M  V30 1311 H 174.568 -5.6025 3.37201 0
M  V30 1312 H 176.052 -7.35707 4.02681 0
M  V30 1313 H 174.358 -9.40912 3.9095 0
M  V30 1314 H 174.168 -8.29056 5.99158 0
M  V30 1315 H 172.538 -8.10073 5.25882 0
M  V30 1316 H 175.177 -6.30324 0.726794 0
M  V30 1317 P 177.034 -8.4349 2.47671 0
M  V30 1318 O 178.456 -8.94167 2.5964 0
M  V30 1319 O 176.674 -7.1704 3.19006 0
M  V30 1320 O 176.711 -8.16596 0.923387 0
M  V30 1321 C 176.551 -9.38437 0.108857 0
M  V30 1322 C 177.091 -9.08175 -1.28353 0
M  V30 1323 O 176.035 -8.44229 -1.84713 0
M  V30 1324 C 178.309 -8.18386 -1.42505 0
M  V30 1325 O 179.047 -8.3501 -2.60497 0
M  V30 1326 C 177.64 -6.80225 -1.25468 0
M  V30 1327 O 178.439 -5.81621 -1.91066 0
M  V30 1328 C 176.303 -7.02416 -1.9168 0
M  V30 1329 H 176.335 -6.6888 -2.96621 0
M  V30 1330 H 177.518 -6.53617 -0.192223 0
M  V30 1331 H 179.002 -8.36622 -0.589963 0
M  V30 1332 H 177.308 -10.0291 -1.79807 0
M  V30 1333 H 177.118 -10.2138 0.558219 0
M  V30 1334 H 175.488 -9.6579 0.0444202 0
M  V30 1335 H 178.127 -5.69556 -2.79637 0
M  V30 1336 P 179.985 -8.4349 -2.47671 0
M  V30 1337 O 181.407 -8.92593 -2.65 0
M  V30 1338 O 179.625 -7.7568 -1.19296 0
M  V30 1339 O 179.662 -7.36886 -3.63805 0
M  V30 1340 C 179.502 -7.95349 -4.982 0
M  V30 1341 C 180.042 -6.94612 -5.98974 0
M  V30 1342 O 178.986 -6.10347 -6.11815 0
M  V30 1343 C 181.26 -6.11426 -5.62335 0
M  V30 1344 O 181.998 -5.6162 -6.70584 0
M  V30 1345 C 180.591 -5.04409 -4.73308 0
M  V30 1346 O 181.39 -3.85992 -4.75183 0
M  V30 1347 C 179.254 -4.8728 -5.41006 0
M  V30 1348 H 179.286 -4.02333 -6.11157 0
M  V30 1349 H 180.469 -5.39466 -3.69543 0
M  V30 1350 H 181.953 -6.71916 -5.01943 0
M  V30 1351 H 180.259 -7.4649 -6.93477 0
M  V30 1352 H 180.069 -8.89416 -5.05237 0
M  V30 1353 H 178.439 -8.14876 -5.18409 0
M  V30 1354 H 181.078 -3.27957 -5.4317 0
M  V30 1355 P 182.935 -5.75688 -6.64379 0
M  V30 1356 O 184.357 -6.07627 -7.05504 0
M  V30 1357 O 182.575 -5.88047 -5.19722 0
M  V30 1358 O 182.612 -4.2322 -7.04443 0
M  V30 1359 C 182.452 -3.99743 -8.4911 0
M  V30 1360 C 182.992 -2.60516 -8.79425 0
M  V30 1361 O 181.936 -1.82684 -8.4467 0
M  V30 1362 C 184.21 -2.10343 -8.03628 0
M  V30 1363 O 184.948 -1.09919 -8.67766 0
M  V30 1364 C 183.541 -1.68446 -6.70876 0
M  V30 1365 O 184.34 -0.678137 -6.08433 0
M  V30 1366 C 182.204 -1.17436 -7.18567 0
M  V30 1367 H 182.236 -0.0804732 -7.31656 0
M  V30 1368 H 183.419 -2.54037 -6.02537 0
M  V30 1369 H 184.903 -2.93881 -7.85526 0
M  V30 1370 H 183.209 -2.53065 -9.86973 0
M  V30 1371 H 183.019 -4.75072 -9.05887 0
M  V30 1372 H 181.389 -4.05244 -8.76668 0
M  V30 1373 H 184.028 0.177647 -6.34251 0
M  V30 1374 P 185.886 -1.25109 -8.70152 0
M  V30 1375 O 187.308 -1.29744 -9.22016 0
M  V30 1376 O 185.526 -2.13714 -7.55141 0
M  V30 1377 O 185.563 0.248149 -8.21425 0
M  V30 1378 C 185.403 1.22779 -9.30434 0
M  V30 1379 C 185.943 2.56293 -8.80664 0
M  V30 1380 O 184.887 3.02979 -8.09349 0
M  V30 1381 C 187.161 2.57523 -7.89775 0
M  V30 1382 O 187.899 3.7668 -7.89438 0
M  V30 1383 C 186.492 2.20997 -6.55446 0
M  V30 1384 O 187.291 2.71895 -5.48509 0
M  V30 1385 C 185.155 2.89693 -6.67988 0
M  V30 1386 H 185.187 3.88793 -6.19859 0
M  V30 1387 H 186.37 1.12046 -6.44229 0
M  V30 1388 H 187.854 1.7746 -8.19711 0
M  V30 1389 H 186.16 3.20706 -9.67112 0
M  V30 1390 H 185.97 0.901032 -10.1892 0
M  V30 1391 H 184.34 1.33049 -9.56592 0
M  V30 1392 H 186.979 3.57847 -5.23962 0
M  V30 1393 P 188.836 3.65191 -7.99657 0
M  V30 1394 O 190.258 3.89332 -8.45794 0
M  V30 1395 O 188.476 2.28472 -7.50807 0
M  V30 1396 O 188.513 4.64972 -6.77611 0
M  V30 1397 C 188.353 6.06319 -7.16352 0
M  V30 1398 C 188.893 6.91731 -6.02299 0
M  V30 1399 O 187.837 6.92449 -5.17064 0
M  V30 1400 C 190.111 6.43627 -5.25174 0
M  V30 1401 O 190.849 7.43686 -4.60469 0
M  V30 1402 C 189.442 5.40275 -4.31916 0
M  V30 1403 O 190.241 5.25279 -3.14438 0
M  V30 1404 C 188.105 6.04847 -4.05327 0
M  V30 1405 H 188.137 6.62195 -3.11261 0
M  V30 1406 H 189.32 4.42556 -4.81383 0
M  V30 1407 H 190.804 5.92458 -5.93643 0
M  V30 1408 H 189.11 7.92655 -6.402 0
M  V30 1409 H 188.92 6.26671 -8.0846 0
M  V30 1410 H 187.29 6.29101 -7.32804 0
M  V30 1411 H 189.929 5.84315 -2.47318 0
M  V30 1412 P 191.787 7.39546 -4.75277 0
M  V30 1413 O 193.209 7.84798 -5.01039 0
M  V30 1414 O 191.427 5.9812 -5.08098 0
M  V30 1415 O 191.464 7.57503 -3.1866 0
M  V30 1416 C 191.304 8.97357 -2.74833 0
M  V30 1417 C 191.844 9.07548 -1.32709 0
M  V30 1418 O 190.788 8.62072 -0.606159 0
M  V30 1419 C 193.062 8.25383 -0.938334 0
M  V30 1420 O 193.8 8.74577 0.146954 0
M  V30 1421 C 192.393 6.8802 -0.712559 0
M  V30 1422 O 193.192 6.1189 0.194655 0
M  V30 1423 C 191.056 7.27966 -0.139777 0
M  V30 1424 H 191.088 7.25354 0.961601 0
M  V30 1425 H 192.271 6.32557 -1.65702 0
M  V30 1426 H 193.755 8.19355 -1.79097 0
M  V30 1427 H 192.061 10.1294 -1.10029 0
M  V30 1428 H 191.871 9.64276 -3.41316 0
M  V30 1429 H 190.241 9.25417 -2.76357 0
M  V30 1430 H 192.88 6.25267 1.07847 0
M  V30 1431 P 194.738 8.791 1.12009e-13 0
M  V30 1432 O 196.16 9.31096 0.027933 0
M  V30 1433 O 194.378 7.77869 -1.04071 0
M  V30 1434 O 194.415 8.09533 1.41463 0
M  V30 1435 C 194.255 9.0349 2.53943 0
M  V30 1436 C 194.795 8.35226 3.79016 0
M  V30 1437 O 193.739 7.57992 4.15078 0
M  V30 1438 C 196.013 7.45087 3.67298 0
M  V30 1439 O 196.751 7.27796 4.85194 0
M  V30 1440 C 195.344 6.17323 3.12027 0
M  V30 1441 O 196.143 5.04231 3.47188 0
M  V30 1442 C 194.007 6.19961 3.81809 0
M  V30 1443 H 194.039 5.58218 4.73051 0
M  V30 1444 H 195.222 6.21726 2.02589 0
M  V30 1445 H 196.706 7.86112 2.9231 0
M  V30 1446 H 195.012 9.11627 4.55076 0
M  V30 1447 H 194.822 9.9573 2.34194 0
M  V30 1448 H 193.192 9.2792 2.67832 0
M  V30 1449 H 195.831 4.67702 4.28772 0
M  V30 1450 P 197.688 7.39546 4.75277 0
M  V30 1451 O 199.11 7.81777 5.05738 0
M  V30 1452 O 197.328 7.1065 3.32998 0
M  V30 1453 O 197.365 6.04542 5.56673 0
M  V30 1454 C 197.205 6.22772 7.02095 0
M  V30 1455 C 197.745 4.97725 7.70406 0
M  V30 1456 O 196.689 4.13256 7.58987 0
M  V30 1457 C 198.963 4.28231 7.11815 0
M  V30 1458 O 199.701 3.49945 8.01648 0
M  V30 1459 C 198.294 3.5063 5.96244 0
M  V30 1460 O 199.093 2.36482 5.64681 0
M  V30 1461 C 196.957 3.15122 6.56374 0
M  V30 1462 H 196.989 2.13853 6.99751 0
M  V30 1463 H 198.172 4.13501 5.06559 0
M  V30 1464 H 199.656 5.03285 6.70911 0
M  V30 1465 H 197.962 5.20877 8.75697 0
M  V30 1466 H 197.772 7.11046 7.35349 0
M  V30 1467 H 196.142 6.35815 7.26986 0
M  V30 1468 H 198.781 1.61644 6.13565 0
M  V30 1469 P 200.639 3.65191 7.99657 0
M  V30 1470 O 202.06 3.84292 8.48206 0
M  V30 1471 O 200.279 4.17805 6.64342 0
M  V30 1472 O 200.316 2.07613 7.95143 0
M  V30 1473 C 200.155 1.44344 9.27435 0
M  V30 1474 C 200.696 0.0220036 9.17197 0
M  V30 1475 O 199.641 -0.626794 8.61824 0
M  V30 1476 C 201.914 -0.24586 8.30336 0
M  V30 1477 O 202.652 -1.39011 8.63583 0
M  V30 1478 C 201.246 -0.273849 6.91158 0
M  V30 1479 O 202.044 -1.05728 6.029 0
M  V30 1480 C 199.908 -0.897649 7.22545 0
M  V30 1481 N 198.865 -0.292839 6.41732 0
M  V30 1482 C 199.034 0.950603 5.91308 0
M  V30 1483 N 198.007 1.37732 5.21105 0
M  V30 1484 C 197.122 0.318109 5.26039 0
M  V30 1485 C 195.855 0.146766 4.6727 0
M  V30 1486 N 195.256 1.08519 3.89983 0
M  V30 1487 N 195.29 -1.06525 4.95887 0
M  V30 1488 C 195.892 -2.0378 5.71347 0
M  V30 1489 N 197.069 -1.92445 6.27451 0
M  V30 1490 C 197.644 -0.715382 6.00353 0
M  V30 1491 H 199.94 -1.98383 7.04189 0
M  V30 1492 H 201.123 0.733318 6.49674 0
M  V30 1493 H 202.606 0.60668 8.36503 0
M  V30 1494 H 200.912 -0.362662 10.1825 0
M  V30 1495 H 200.722 2.00611 10.0304 0
M  V30 1496 H 199.092 1.41843 9.55327 0
M  V30 1497 H 195.356 -2.97041 5.85344 0
M  V30 1498 H 199.934 1.54076 6.07465 0
M  V30 1499 H 194.326 0.901517 3.49562 0
M  V30 1500 H 195.73 1.97957 3.71669 0
M  V30 1501 H 201.732 -1.95704 6.0346 0
M  V30 1502 P 203.589 -1.25109 8.70152 0
M  V30 1503 O 205.011 -1.35274 9.21221 0
M  V30 1504 O 203.229 -0.0769065 7.84762 0
M  V30 1505 O 203.266 -2.55232 7.81161 0
M  V30 1506 C 203.106 -3.79939 8.58154 0
M  V30 1507 C 203.646 -4.94023 7.72785 0
M  V30 1508 O 202.59 -5.18726 6.91205 0
M  V30 1509 C 204.864 -4.69597 6.85231 0
M  V30 1510 O 205.602 -5.83832 6.51337 0
M  V30 1511 C 204.195 -3.96706 5.66633 0
M  V30 1512 O 204.994 -4.15414 4.49689 0
M  V30 1513 C 202.858 -4.66153 5.59313 0
M  V30 1514 H 202.89 -5.47679 4.85214 0
M  V30 1515 H 204.073 -2.89008 5.86566 0
M  V30 1516 H 205.557 -4.0121 7.36511 0
M  V30 1517 H 203.863 -5.80182 8.37584 0
M  V30 1518 H 203.673 -3.73517 9.52265 0
M  V30 1519 H 202.043 -3.97163 8.80359 0
M  V30 1520 H 204.682 -4.90969 4.01921 0
M  V30 1521 P 206.54 -5.75688 6.64379 0
M  V30 1522 O 207.962 -6.11849 7.01846 0
M  V30 1523 O 206.18 -4.30744 6.56026 0
M  V30 1524 O 206.217 -6.37042 5.19165 0
M  V30 1525 C 206.057 -7.83578 5.16515 0
M  V30 1526 C 206.597 -8.33398 3.83019 0
M  V30 1527 O 205.541 -8.10074 3.01034 0
M  V30 1528 C 207.815 -7.65514 3.2257 0
M  V30 1529 O 208.553 -8.4329 2.32297 0
M  V30 1530 C 207.146 -6.40075 2.62207 0
M  V30 1531 O 207.945 -5.92589 1.53712 0
M  V30 1532 C 205.809 -6.9454 2.18503 0
M  V30 1533 H 205.841 -7.23063 1.12091 0
M  V30 1534 H 207.024 -5.6025 3.37201 0
M  V30 1535 H 208.508 -7.35707 4.02681 0
M  V30 1536 H 206.814 -9.40912 3.9095 0
M  V30 1537 H 206.624 -8.29056 5.99158 0
M  V30 1538 H 204.994 -8.10073 5.25882 0
M  V30 1539 H 207.633 -6.30324 0.726794 0
M  V30 1540 P 209.49 -8.4349 2.47671 0
M  V30 1541 O 210.912 -8.94167 2.5964 0
M  V30 1542 O 209.13 -7.1704 3.19006 0
M  V30 1543 O 209.167 -8.16596 0.923387 0
M  V30 1544 C 209.007 -9.38437 0.108857 0
M  V30 1545 C 209.547 -9.08175 -1.28353 0
M  V30 1546 O 208.491 -8.44229 -1.84713 0
M  V30 1547 C 210.765 -8.18386 -1.42505 0
M  V30 1548 O 211.503 -8.3501 -2.60497 0
M  V30 1549 C 210.096 -6.80225 -1.25468 0
M  V30 1550 O 210.895 -5.81621 -1.91066 0
M  V30 1551 C 208.759 -7.02416 -1.9168 0
M  V30 1552 H 208.791 -6.6888 -2.96621 0
M  V30 1553 H 209.974 -6.53617 -0.192223 0
M  V30 1554 H 211.458 -8.36622 -0.589963 0
M  V30 1555 H 209.764 -10.0291 -1.79807 0
M  V30 1556 H 209.574 -10.2138 0.558219 0
M  V30 1557 H 207.944 -9.6579 0.0444202 0
M  V30 1558 H 210.583 -5.69556 -2.79637 0
M  V30 1559 P 212.441 -8.4349 -2.47671 0
M  V30 1560 O 213.863 -8.92593 -2.65 0
M  V30 1561 O 212.081 -7.7568 -1.19296 0
M  V30 1562 O 212.118 -7.36886 -3.63805 0
M  V30 1563 C 211.958 -7.95349 -4.982 0
M  V30 1564 C 212.498 -6.94612 -5.98974 0
M  V30 1565 O 211.442 -6.10347 -6.11815 0
M  V30 1566 C 213.716 -6.11426 -5.62335 0
M  V30 1567 O 214.454 -5.6162 -6.70584 0
M  V30 1568 C 213.047 -5.04409 -4.73308 0
M  V30 1569 O 213.846 -3.85992 -4.75183 0
M  V30 1570 C 211.71 -4.8728 -5.41006 0
M  V30 1571 H 211.742 -4.02333 -6.11157 0
M  V30 1572 H 212.925 -5.39466 -3.69543 0
M  V30 1573 H 214.409 -6.71916 -5.01943 0
M  V30 1574 H 212.715 -7.4649 -6.93477 0
M  V30 1575 H 212.525 -8.89416 -5.05237 0
M  V30 1576 H 210.895 -8.14876 -5.18409 0
M  V30 1577 H 213.534 -3.27957 -5.4317 0
M  V30 1578 P 215.392 -5.75688 -6.64379 0
M  V30 1579 O 216.814 -6.07627 -7.05504 0
M  V30 1580 O 215.032 -5.88047 -5.19722 0
M  V30 1581 O 215.069 -4.2322 -7.04443 0
M  V30 1582 C 214.909 -3.99743 -8.4911 0
M  V30 1583 C 215.449 -2.60516 -8.79425 0
M  V30 1584 O 214.393 -1.82684 -8.4467 0
M  V30 1585 C 216.667 -2.10343 -8.03628 0
M  V30 1586 O 217.405 -1.09919 -8.67766 0
M  V30 1587 C 215.998 -1.68446 -6.70876 0
M  V30 1588 O 216.797 -0.678137 -6.08433 0
M  V30 1589 C 214.661 -1.17436 -7.18567 0
M  V30 1590 H 214.693 -0.0804732 -7.31656 0
M  V30 1591 H 215.876 -2.54037 -6.02537 0
M  V30 1592 H 217.36 -2.93881 -7.85526 0
M  V30 1593 H 215.666 -2.53065 -9.86973 0
M  V30 1594 H 215.476 -4.75072 -9.05887 0
M  V30 1595 H 213.846 -4.05244 -8.76668 0
M  V30 1596 H 216.485 0.177647 -6.34251 0
M  V30 1597 P 218.342 -1.25109 -8.70152 0
M  V30 1598 O 219.764 -1.29744 -9.22016 0
M  V30 1599 O 217.982 -2.13714 -7.55141 0
M  V30 1600 O 218.019 0.248149 -8.21425 0
M  V30 1601 C 217.859 1.22779 -9.30434 0
M  V30 1602 C 218.399 2.56293 -8.80664 0
M  V30 1603 O 217.343 3.02979 -8.09349 0
M  V30 1604 C 219.617 2.57523 -7.89775 0
M  V30 1605 O 220.355 3.7668 -7.89438 0
M  V30 1606 C 218.948 2.20997 -6.55446 0
M  V30 1607 O 219.747 2.71895 -5.48509 0
M  V30 1608 C 217.611 2.89693 -6.67988 0
M  V30 1609 H 217.643 3.88793 -6.19859 0
M  V30 1610 H 218.826 1.12046 -6.44229 0
M  V30 1611 H 220.31 1.7746 -8.19711 0
M  V30 1612 H 218.616 3.20706 -9.67112 0
M  V30 1613 H 218.426 0.901032 -10.1892 0
M  V30 1614 H 216.796 1.33049 -9.56592 0
M  V30 1615 H 219.435 3.57847 -5.23962 0
M  V30 1616 P 221.293 3.65191 -7.99657 0
M  V30 1617 O 222.715 3.89332 -8.45794 0
M  V30 1618 O 220.933 2.28472 -7.50807 0
M  V30 1619 O 220.97 4.64972 -6.77611 0
M  V30 1620 C 220.81 6.06319 -7.16352 0
M  V30 1621 C 221.35 6.91731 -6.02299 0
M  V30 1622 O 220.294 6.92449 -5.17064 0
M  V30 1623 C 222.568 6.43627 -5.25174 0
M  V30 1624 O 223.306 7.43686 -4.60469 0
M  V30 1625 C 221.899 5.40275 -4.31916 0
M  V30 1626 O 222.698 5.25279 -3.14438 0
M  V30 1627 C 220.562 6.04847 -4.05327 0
M  V30 1628 H 220.594 6.62195 -3.11261 0
M  V30 1629 H 221.777 4.42556 -4.81383 0
M  V30 1630 H 223.261 5.92458 -5.93643 0
M  V30 1631 H 221.567 7.92655 -6.402 0
M  V30 1632 H 221.377 6.26671 -8.0846 0
M  V30 1633 H 219.747 6.29101 -7.32804 0
M  V30 1634 H 222.386 5.84315 -2.47318 0
M  V30 1635 P 224.243 7.39546 -4.75277 0
M  V30 1636 O 225.665 7.84798 -5.01039 0
M  V30 1637 O 223.883 5.9812 -5.08098 0
M  V30 1638 O 223.92 7.57503 -3.1866 0
M  V30 1639 C 223.76 8.97357 -2.74833 0
M  V30 1640 C 224.3 9.07548 -1.32709 0
M  V30 1641 O 223.244 8.62072 -0.606159 0
M  V30 1642 C 225.518 8.25383 -0.938334 0
M  V30 1643 O 226.256 8.74577 0.146954 0
M  V30 1644 C 224.849 6.8802 -0.712559 0
M  V30 1645 O 225.648 6.1189 0.194655 0
M  V30 1646 C 223.512 7.27966 -0.139777 0
M  V30 1647 H 223.544 7.25354 0.961601 0
M  V30 1648 H 224.727 6.32557 -1.65702 0
M  V30 1649 H 226.211 8.19355 -1.79097 0
M  V30 1650 H 224.517 10.1294 -1.10029 0
M  V30 1651 H 224.327 9.64276 -3.41316 0
M  V30 1652 H 222.697 9.25417 -2.76357 0
M  V30 1653 H 225.336 6.25267 1.07847 0
M  V30 1654 P 227.194 8.791 4.22174e-13 0
M  V30 1655 O 228.616 9.31096 0.027933 0
M  V30 1656 O 226.834 7.77869 -1.04071 0
M  V30 1657 O 226.871 8.09533 1.41463 0
M  V30 1658 C 226.711 9.0349 2.53943 0
M  V30 1659 C 227.251 8.35226 3.79016 0
M  V30 1660 O 226.195 7.57992 4.15078 0
M  V30 1661 C 228.469 7.45087 3.67298 0
M  V30 1662 O 229.207 7.27796 4.85194 0
M  V30 1663 C 227.8 6.17323 3.12027 0
M  V30 1664 O 228.599 5.04231 3.47188 0
M  V30 1665 C 226.463 6.19961 3.81809 0
M  V30 1666 H 226.495 5.58218 4.73051 0
M  V30 1667 H 227.678 6.21726 2.02589 0
M  V30 1668 H 229.162 7.86112 2.9231 0
M  V30 1669 H 227.468 9.11627 4.55076 0
M  V30 1670 H 227.278 9.9573 2.34194 0
M  V30 1671 H 225.648 9.2792 2.67832 0
M  V30 1672 H 228.287 4.67702 4.28772 0
M  V30 1673 P 230.144 7.39546 4.75277 0
M  V30 1674 O 231.566 7.81777 5.05738 0
M  V30 1675 O 229.784 7.1065 3.32998 0
M  V30 1676 O 229.821 6.04542 5.56673 0
M  V30 1677 C 229.661 6.22772 7.02095 0
M  V30 1678 C 230.201 4.97725 7.70406 0
M  V30 1679 O 229.145 4.13256 7.58987 0
M  V30 1680 C 231.419 4.28231 7.11815 0
M  V30 1681 O 232.157 3.49945 8.01648 0
M  V30 1682 C 230.75 3.5063 5.96244 0
M  V30 1683 O 231.549 2.36482 5.64681 0
M  V30 1684 C 229.413 3.15122 6.56374 0
M  V30 1685 H 229.445 2.13853 6.99751 0
M  V30 1686 H 230.628 4.13501 5.06559 0
M  V30 1687 H 232.112 5.03285 6.70911 0
M  V30 1688 H 230.418 5.20877 8.75697 0
M  V30 1689 H 230.228 7.11046 7.35349 0
M  V30 1690 H 228.598 6.35815 7.26986 0
M  V30 1691 H 231.237 1.61644 6.13565 0
M  V30 1692 P 233.095 3.65191 7.99657 0
M  V30 1693 O 234.517 3.8425 8.48115 0
M  V30 1694 O 232.735 4.17805 6.64342 0
M  V30 1695 O 232.772 2.07613 7.95143 0
M  V30 1696 C 232.612 1.44328 9.27336 0
M  V30 1697 C 233.152 0.0220036 9.17197 0
M  V30 1698 O 232.096 -0.626867 8.61923 0
M  V30 1699 C 234.37 -0.24586 8.30336 0
M  V30 1700 O 235.108 -1.39011 8.63583 0
M  V30 1701 C 233.701 -0.273849 6.91158 0
M  V30 1702 O 234.5 -1.06348 6.02892 0
M  V30 1703 C 232.364 -0.897649 7.22545 0
M  V30 1704 H 232.396 -1.9841 7.04286 0
M  V30 1705 H 233.579 0.739928 6.497 0
M  V30 1706 H 235.063 0.60668 8.36503 0
M  V30 1707 H 233.369 -0.352479 10.1829 0
M  V30 1708 H 233.179 2.00611 10.0304 0
M  V30 1709 H 231.549 1.41843 9.55327 0
M  V30 1710 H 234.188 -1.95734 6.03555 0
M  V30 1711 P 236.046 -1.25109 8.70152 0
M  V30 1712 O 237.468 -1.35274 9.21221 0
M  V30 1713 O 235.686 -0.0769065 7.84762 0
M  V30 1714 O 235.723 -2.55232 7.81161 0
M  V30 1715 C 235.563 -3.79939 8.58154 0
M  V30 1716 C 236.103 -4.94023 7.72785 0
M  V30 1717 O 235.047 -5.18726 6.91205 0
M  V30 1718 C 237.321 -4.69597 6.85231 0
M  V30 1719 O 238.059 -5.83832 6.51337 0
M  V30 1720 C 236.652 -3.96706 5.66633 0
M  V30 1721 O 237.451 -4.15414 4.49689 0
M  V30 1722 C 235.315 -4.66153 5.59313 0
M  V30 1723 H 235.347 -5.47679 4.85214 0
M  V30 1724 H 236.53 -2.89008 5.86566 0
M  V30 1725 H 238.014 -4.0121 7.36511 0
M  V30 1726 H 236.32 -5.80182 8.37584 0
M  V30 1727 H 236.13 -3.73517 9.52265 0
M  V30 1728 H 234.5 -3.97163 8.80359 0
M  V30 1729 H 237.139 -4.90969 4.01921 0
M  V30 1730 P 238.996 -5.75688 6.64379 0
M  V30 1731 O 240.418 -6.11849 7.01846 0
M  V30 1732 O 238.636 -4.30744 6.56026 0
M  V30 1733 O 238.673 -6.37042 5.19165 0
M  V30 1734 C 238.513 -7.83578 5.16515 0
M  V30 1735 C 239.053 -8.33398 3.83019 0
M  V30 1736 O 237.997 -8.10074 3.01034 0
M  V30 1737 C 240.271 -7.65514 3.2257 0
M  V30 1738 O 241.009 -8.4329 2.32297 0
M  V30 1739 C 239.602 -6.40075 2.62207 0
M  V30 1740 O 240.401 -5.92589 1.53712 0
M  V30 1741 C 238.265 -6.9454 2.18503 0
M  V30 1742 H 238.297 -7.23063 1.12091 0
M  V30 1743 H 239.48 -5.6025 3.37201 0
M  V30 1744 H 240.964 -7.35707 4.02681 0
M  V30 1745 H 239.27 -9.40912 3.9095 0
M  V30 1746 H 239.08 -8.29056 5.99158 0
M  V30 1747 H 237.45 -8.10073 5.25882 0
M  V30 1748 H 240.089 -6.30324 0.726794 0
M  V30 1749 P 241.947 -8.4349 2.47671 0
M  V30 1750 O 243.368 -8.94263 2.59668 0
M  V30 1751 O 241.587 -7.1704 3.19006 0
M  V30 1752 O 241.624 -8.16596 0.923387 0
M  V30 1753 C 241.463 -9.38537 0.108869 0
M  V30 1754 C 242.004 -9.08175 -1.28353 0
M  V30 1755 O 240.949 -8.44131 -1.84692 0
M  V30 1756 C 243.222 -8.18386 -1.42505 0
M  V30 1757 O 243.96 -8.3501 -2.60497 0
M  V30 1758 C 242.554 -6.80225 -1.25468 0
M  V30 1759 O 243.352 -5.81716 -1.90454 0
M  V30 1760 C 241.216 -7.02416 -1.9168 0
M  V30 1761 N 240.173 -6.31033 -1.20314 0
M  V30 1762 C 240.342 -5.98817 0.0994088 0
M  V30 1763 N 239.315 -5.35403 0.621694 0
M  V30 1764 C 238.43 -5.25212 -0.43376 0
M  V30 1765 C 237.163 -4.64602 -0.519722 0
M  V30 1766 N 236.564 -4.01457 0.519136 0
M  V30 1767 N 236.598 -4.7568 -1.76013 0
M  V30 1768 C 237.2 -5.3653 -2.83017 0
M  V30 1769 N 238.377 -5.93676 -2.79782 0
M  V30 1770 C 238.952 -5.84061 -1.56249 0
M  V30 1771 H 241.248 -6.68789 -2.9658 0
M  V30 1772 H 242.431 -6.53498 -0.198729 0
M  V30 1773 H 243.914 -8.36622 -0.589963 0
M  V30 1774 H 242.22 -10.0273 -1.8081 0
M  V30 1775 H 242.03 -10.2138 0.558219 0
M  V30 1776 H 240.4 -9.6579 0.0444202 0
M  V30 1777 H 236.664 -5.37113 -3.77321 0
M  V30 1778 H 241.242 -6.23209 0.660562 0
M  V30 1779 H 235.634 -3.58834 0.394862 0
M  V30 1780 H 237.038 -3.96059 1.43048 0
M  V30 1781 H 243.04 -5.69466 -2.79593 0
M  V30 1782 P 244.897 -8.4349 -2.47671 0
M  V30 1783 O 246.319 -8.92593 -2.65 0
M  V30 1784 O 244.537 -7.7568 -1.19296 0
M  V30 1785 O 244.574 -7.36886 -3.63805 0
M  V30 1786 C 244.414 -7.95349 -4.982 0
M  V30 1787 C 244.954 -6.94612 -5.98974 0
M  V30 1788 O 243.898 -6.10347 -6.11815 0
M  V30 1789 C 246.172 -6.11426 -5.62335 0
M  V30 1790 O 246.91 -5.6162 -6.70584 0
M  V30 1791 C 245.503 -5.04409 -4.73308 0
M  V30 1792 O 246.302 -3.85992 -4.75183 0
M  V30 1793 C 244.166 -4.8728 -5.41006 0
M  V30 1794 H 244.198 -4.02333 -6.11157 0
M  V30 1795 H 245.381 -5.39466 -3.69543 0
M  V30 1796 H 246.865 -6.71916 -5.01943 0
M  V30 1797 H 245.171 -7.4649 -6.93477 0
M  V30 1798 H 244.981 -8.89416 -5.05237 0
M  V30 1799 H 243.351 -8.14876 -5.18409 0
M  V30 1800 H 245.99 -3.27957 -5.4317 0
M  V30 1801 P 247.848 -5.75688 -6.64379 0
M  V30 1802 O 249.27 -6.07627 -7.05504 0
M  V30 1803 O 247.488 -5.88047 -5.19722 0
M  V30 1804 O 247.525 -4.2322 -7.04443 0
M  V30 1805 C 247.365 -3.99743 -8.4911 0
M  V30 1806 C 247.905 -2.60516 -8.79425 0
M  V30 1807 O 246.849 -1.82684 -8.4467 0
M  V30 1808 C 249.123 -2.10343 -8.03628 0
M  V30 1809 O 249.861 -1.09919 -8.67766 0
M  V30 1810 C 248.454 -1.68446 -6.70876 0
M  V30 1811 O 249.253 -0.678137 -6.08433 0
M  V30 1812 C 247.117 -1.17436 -7.18567 0
M  V30 1813 H 247.149 -0.0804732 -7.31656 0
M  V30 1814 H 248.332 -2.54037 -6.02537 0
M  V30 1815 H 249.816 -2.93881 -7.85526 0
M  V30 1816 H 248.122 -2.53065 -9.86973 0
M  V30 1817 H 247.932 -4.75072 -9.05887 0
M  V30 1818 H 246.302 -4.05244 -8.76668 0
M  V30 1819 H 248.941 0.177647 -6.34251 0
M  V30 1820 P 250.798 -1.25109 -8.70152 0
M  V30 1821 O 252.22 -1.29772 -9.22214 0
M  V30 1822 O 250.438 -2.13714 -7.55141 0
M  V30 1823 O 250.475 0.248149 -8.21425 0
M  V30 1824 C 250.315 1.22779 -9.30434 0
M  V30 1825 C 250.855 2.56265 -8.80568 0
M  V30 1826 O 249.8 3.02979 -8.09349 0
M  V30 1827 C 252.073 2.57523 -7.89775 0
M  V30 1828 O 252.811 3.7668 -7.89438 0
M  V30 1829 C 251.405 2.20997 -6.55446 0
M  V30 1830 O 252.203 2.71851 -5.48419 0
M  V30 1831 C 250.067 2.89693 -6.67988 0
M  V30 1832 N 249.024 2.08895 -6.07487 0
M  V30 1833 C 249.086 0.760559 -6.14209 0
M  V30 1834 N 248.041 0.200108 -5.52538 0
M  V30 1835 C 247.307 1.22692 -5.09742 0
M  V30 1836 C 246.001 1.24782 -4.48775 0
M  V30 1837 O 245.268 0.290617 -4.19294 0
M  V30 1838 N 245.571 2.50468 -4.22428 0
M  V30 1839 C 246.32 3.67142 -4.51974 0
M  V30 1840 N 245.723 4.85096 -4.14091 0
M  V30 1841 N 247.473 3.67821 -5.12831 0
M  V30 1842 C 247.93 2.43698 -5.4105 0
M  V30 1843 H 250.099 3.88793 -6.19859 0
M  V30 1844 H 251.282 1.12029 -6.4413 0
M  V30 1845 H 252.767 1.78279 -8.19533 0
M  V30 1846 H 251.072 3.20706 -9.67112 0
M  V30 1847 H 250.882 0.901032 -10.1892 0
M  V30 1848 H 249.251 1.33049 -9.56592 0
M  V30 1849 H 244.675 2.61953 -3.79465 0
M  V30 1850 H 249.882 0.200439 -6.63497 0
M  V30 1851 H 244.812 4.8334 -3.66367 0
M  V30 1852 H 246.188 5.7474 -4.33841 0
M  V30 1853 H 251.892 3.5779 -5.23879 0
M  V30 1854 P 253.749 3.65191 -7.99657 0
M  V30 1855 O 255.171 3.89332 -8.45794 0
M  V30 1856 O 253.389 2.28472 -7.50807 0
M  V30 1857 O 253.426 4.64972 -6.77611 0
M  V30 1858 C 253.266 6.06319 -7.16352 0
M  V30 1859 C 253.806 6.91731 -6.02299 0
M  V30 1860 O 252.75 6.92449 -5.17064 0
M  V30 1861 C 255.024 6.43627 -5.25174 0
M  V30 1862 O 255.762 7.43686 -4.60469 0
M  V30 1863 C 254.355 5.40275 -4.31916 0
M  V30 1864 O 255.154 5.25279 -3.14438 0
M  V30 1865 C 253.018 6.04847 -4.05327 0
M  V30 1866 H 253.05 6.62195 -3.11261 0
M  V30 1867 H 254.233 4.42556 -4.81383 0
M  V30 1868 H 255.717 5.92458 -5.93643 0
M  V30 1869 H 254.023 7.92655 -6.402 0
M  V30 1870 H 253.833 6.26671 -8.0846 0
M  V30 1871 H 252.203 6.29101 -7.32804 0
M  V30 1872 H 254.842 5.84315 -2.47318 0
M  V30 1873 P 256.7 7.39546 -4.75277 0
M  V30 1874 O 258.122 7.84966 -5.01146 0
M  V30 1875 O 256.34 5.9812 -5.08098 0
M  V30 1876 O 256.377 7.57503 -3.1866 0
M  V30 1877 C 256.217 8.97357 -2.74833 0
M  V30 1878 C 256.757 9.0745 -1.32694 0
M  V30 1879 O 255.702 8.62072 -0.606159 0
M  V30 1880 C 257.975 8.25383 -0.938334 0
M  V30 1881 O 258.713 8.74577 0.146954 0
M  V30 1882 C 257.307 6.8802 -0.712559 0
M  V30 1883 O 258.105 6.11791 0.194623 0
M  V30 1884 C 255.969 7.27966 -0.139777 0
M  V30 1885 N 254.926 6.39368 -0.623421 0
M  V30 1886 C 254.988 5.90299 -1.85969 0
M  V30 1887 N 253.943 5.10919 -2.1133 0
M  V30 1888 C 253.209 5.14646 -1.0015 0
M  V30 1889 C 251.903 4.60057 -0.729219 0
M  V30 1890 O 251.17 3.93476 -1.47746 0
M  V30 1891 N 251.473 4.88302 0.523505 0
M  V30 1892 C 252.222 5.63646 1.46207 0
M  V30 1893 N 251.625 5.78186 2.69239 0
M  V30 1894 N 253.375 6.19285 1.21544 0
M  V30 1895 C 253.832 5.93392 -0.0308487 0
M  V30 1896 H 256.001 7.25354 0.961601 0
M  V30 1897 H 257.184 6.3246 -1.65676 0
M  V30 1898 H 258.669 8.19533 -1.78278 0
M  V30 1899 H 256.974 10.1294 -1.10029 0
M  V30 1900 H 256.784 9.64276 -3.41316 0
M  V30 1901 H 255.153 9.25417 -2.76357 0
M  V30 1902 H 250.577 4.53993 0.806451 0
M  V30 1903 H 255.784 6.11865 -2.57394 0
M  V30 1904 H 250.714 5.34046 2.87467 0
M  V30 1905 H 252.09 6.33391 3.42578 0
M  V30 1906 H 257.794 6.25169 1.0783 0
M  V30 1907 P 259.65 8.791 7.3234e-13 0
M  V30 1908 O 261.072 9.31096 0.027933 0
M  V30 1909 O 259.29 7.77869 -1.04071 0
M  V30 1910 O 259.327 8.09533 1.41463 0
M  V30 1911 C 259.167 9.0349 2.53943 0
M  V30 1912 C 259.707 8.35226 3.79016 0
M  V30 1913 O 258.651 7.57992 4.15078 0
M  V30 1914 C 260.925 7.45087 3.67298 0
M  V30 1915 O 261.663 7.27796 4.85194 0
M  V30 1916 C 260.256 6.17323 3.12027 0
M  V30 1917 O 261.055 5.04231 3.47188 0
M  V30 1918 C 258.919 6.19961 3.81809 0
M  V30 1919 H 258.951 5.58218 4.73051 0
M  V30 1920 H 260.134 6.21726 2.02589 0
M  V30 1921 H 261.618 7.86112 2.9231 0
M  V30 1922 H 259.924 9.11627 4.55076 0
M  V30 1923 H 259.734 9.9573 2.34194 0
M  V30 1924 H 258.104 9.2792 2.67832 0
M  V30 1925 H 260.743 4.67702 4.28772 0
M  V30 1926 P 262.601 7.39546 4.75277 0
M  V30 1927 O 264.002 7.89013 5.04841 0
M  V30 1928 O 262.223 7.16603 3.32298 0
M  V30 1929 O 262.278 6.04468 5.56605 0
M  V30 1930 C 262.118 6.22772 7.02095 0
M  V30 1931 C 262.658 4.97671 7.70322 0
M  V30 1932 O 261.602 4.13208 7.58899 0
M  V30 1933 C 263.875 4.28231 7.11815 0
M  V30 1934 O 264.614 3.49945 8.01648 0
M  V30 1935 C 263.208 3.5063 5.96244 0
M  V30 1936 O 264.006 2.36443 5.64589 0
M  V30 1937 C 261.87 3.15122 6.56374 0
M  V30 1938 N 260.827 3.22311 5.55692 0
M  V30 1939 C 259.792 2.32244 5.62437 0
M  V30 1940 O 259.831 1.43107 6.50341 0
M  V30 1941 N 258.78 2.40811 4.73368 0
M  V30 1942 C 258.828 3.344 3.77753 0
M  V30 1943 N 257.818 3.41475 2.91848 0
M  V30 1944 C 259.924 4.24712 3.66679 0
M  V30 1945 C 260.89 4.15625 4.58307 0
M  V30 1946 H 261.902 2.13823 6.99656 0
M  V30 1947 H 263.085 4.12931 5.06895 0
M  V30 1948 H 264.569 5.02674 6.71494 0
M  V30 1949 H 262.875 5.20001 8.76217 0
M  V30 1950 H 262.684 7.11046 7.35349 0
M  V30 1951 H 261.054 6.35749 7.26911 0
M  V30 1952 H 259.972 4.9828 2.86753 0
M  V30 1953 H 261.736 4.84464 4.54228 0
M  V30 1954 H 257.028 2.75785 2.99862 0
M  V30 1955 H 257.823 4.12304 2.17382 0
M  V30 1956 H 263.79 1.65592 6.23485 0
M  V30 1957 P 265.551 3.65191 7.99657 0
M  V30 1958 O 266.973 3.8425 8.48115 0
M  V30 1959 O 265.191 4.17805 6.64342 0
M  V30 1960 O 265.228 2.07613 7.95143 0
M  V30 1961 C 265.068 1.44328 9.27336 0
M  V30 1962 C 265.608 0.0220036 9.17197 0
M  V30 1963 O 264.552 -0.626867 8.61923 0
M  V30 1964 C 266.826 -0.24586 8.30336 0
M  V30 1965 O 267.564 -1.39011 8.63583 0
M  V30 1966 C 266.157 -0.273849 6.91158 0
M  V30 1967 O 266.956 -1.06348 6.02892 0
M  V30 1968 C 264.82 -0.897649 7.22545 0
M  V30 1969 H 264.852 -1.9841 7.04286 0
M  V30 1970 H 266.035 0.739928 6.497 0
M  V30 1971 H 267.519 0.60668 8.36503 0
M  V30 1972 H 265.825 -0.352479 10.1829 0
M  V30 1973 H 265.635 2.00611 10.0304 0
M  V30 1974 H 264.005 1.41843 9.55327 0
M  V30 1975 H 266.644 -1.95734 6.03555 0
M  V30 1976 P 268.502 -1.25109 8.70152 0
M  V30 1977 O 269.924 -1.35274 9.21221 0
M  V30 1978 O 268.142 -0.0769065 7.84762 0
M  V30 1979 O 268.179 -2.55232 7.81161 0
M  V30 1980 C 268.019 -3.79939 8.58154 0
M  V30 1981 C 268.559 -4.94023 7.72785 0
M  V30 1982 O 267.503 -5.18726 6.91205 0
M  V30 1983 C 269.777 -4.69597 6.85231 0
M  V30 1984 O 270.515 -5.83832 6.51337 0
M  V30 1985 C 269.108 -3.96706 5.66633 0
M  V30 1986 O 269.907 -4.15414 4.49689 0
M  V30 1987 C 267.771 -4.66153 5.59313 0
M  V30 1988 H 267.803 -5.47679 4.85214 0
M  V30 1989 H 268.986 -2.89008 5.86566 0
M  V30 1990 H 270.47 -4.0121 7.36511 0
M  V30 1991 H 268.776 -5.80182 8.37584 0
M  V30 1992 H 268.586 -3.73517 9.52265 0
M  V30 1993 H 266.956 -3.97163 8.80359 0
M  V30 1994 H 269.595 -4.90969 4.01921 0
M  V30 1995 P 271.452 -5.75688 6.64379 0
M  V30 1996 O 272.874 -6.11849 7.01846 0
M  V30 1997 O 271.092 -4.30744 6.56026 0
M  V30 1998 O 271.129 -6.37042 5.19165 0
M  V30 1999 C 270.969 -7.83578 5.16515 0
M  V30 2000 C 271.509 -8.33398 3.83019 0
M  V30 2001 O 270.453 -8.10074 3.01034 0
M  V30 2002 C 272.727 -7.65514 3.2257 0
M  V30 2003 O 273.465 -8.4329 2.32297 0
M  V30 2004 C 272.058 -6.40075 2.62207 0
M  V30 2005 O 272.857 -5.92589 1.53712 0
M  V30 2006 C 270.721 -6.9454 2.18503 0
M  V30 2007 H 270.753 -7.23063 1.12091 0
M  V30 2008 H 271.936 -5.6025 3.37201 0
M  V30 2009 H 273.42 -7.35707 4.02681 0
M  V30 2010 H 271.726 -9.40912 3.9095 0
M  V30 2011 H 271.536 -8.29056 5.99158 0
M  V30 2012 H 269.906 -8.10073 5.25882 0
M  V30 2013 H 272.545 -6.30324 0.726794 0
M  V30 2014 P 274.403 -8.4349 2.47671 0
M  V30 2015 O 275.825 -8.94167 2.5964 0
M  V30 2016 O 274.043 -7.1704 3.19006 0
M  V30 2017 O 274.08 -8.16596 0.923387 0
M  V30 2018 C 273.92 -9.38437 0.108857 0
M  V30 2019 C 274.46 -9.08175 -1.28353 0
M  V30 2020 O 273.404 -8.44229 -1.84713 0
M  V30 2021 C 275.678 -8.18386 -1.42505 0
M  V30 2022 O 276.416 -8.3501 -2.60497 0
M  V30 2023 C 275.009 -6.80225 -1.25468 0
M  V30 2024 O 275.808 -5.81621 -1.91066 0
M  V30 2025 C 273.672 -7.02416 -1.9168 0
M  V30 2026 H 273.704 -6.6888 -2.96621 0
M  V30 2027 H 274.887 -6.53617 -0.192223 0
M  V30 2028 H 276.371 -8.36622 -0.589963 0
M  V30 2029 H 274.677 -10.0291 -1.79807 0
M  V30 2030 H 274.487 -10.2138 0.558219 0
M  V30 2031 H 272.857 -9.6579 0.0444202 0
M  V30 2032 H 275.496 -5.69556 -2.79637 0
M  V30 2033 P 277.354 -8.4349 -2.47671 0
M  V30 2034 O 278.775 -8.92689 -2.65029 0
M  V30 2035 O 276.994 -7.7568 -1.19296 0
M  V30 2036 O 277.031 -7.36886 -3.63805 0
M  V30 2037 C 276.87 -7.95433 -4.98253 0
M  V30 2038 C 277.411 -6.94612 -5.98974 0
M  V30 2039 O 276.356 -6.10277 -6.11744 0
M  V30 2040 C 278.629 -6.11426 -5.62335 0
M  V30 2041 O 279.367 -5.6162 -6.70584 0
M  V30 2042 C 277.961 -5.04409 -4.73308 0
M  V30 2043 O 278.759 -3.86404 -4.74719 0
M  V30 2044 C 276.623 -4.8728 -5.41006 0
M  V30 2045 N 275.58 -4.65812 -4.42377 0
M  V30 2046 C 275.749 -5.09132 -3.15382 0
M  V30 2047 N 274.722 -4.84021 -2.3716 0
M  V30 2048 C 273.837 -4.18386 -3.20441 0
M  V30 2049 C 272.57 -3.6275 -2.94905 0
M  V30 2050 N 272.005 -3.05008 -4.05243 0
M  V30 2051 C 272.607 -2.98348 -5.28159 0
M  V30 2052 N 273.784 -3.48171 -5.56333 0
M  V30 2053 C 274.359 -4.06869 -4.47212 0
M  V30 2054 H 277.838 -5.39013 -3.70026 0
M  V30 2055 H 279.321 -6.71916 -5.01943 0
M  V30 2056 H 277.627 -7.45796 -6.94223 0
M  V30 2057 H 277.437 -8.89416 -5.05237 0
M  V30 2058 H 275.807 -8.14876 -5.18409 0
M  V30 2059 H 276.649 -5.59989 -2.81362 0
M  V30 2060 H 278.447 -3.27906 -5.43085 0
M  V30 2061 P 280.304 -5.75688 -6.64379 0
M  V30 2062 O 281.705 -6.14823 -7.06682 0
M  V30 2063 O 279.926 -5.93957 -5.20728 0
M  V30 2064 O 279.981 -4.23169 -7.04357 0
M  V30 2065 C 279.821 -3.99743 -8.4911 0
M  V30 2066 C 280.361 -2.60487 -8.79329 0
M  V30 2067 O 279.305 -1.82663 -8.44573 0
M  V30 2068 C 281.578 -2.10343 -8.03628 0
M  V30 2069 O 282.317 -1.09919 -8.67766 0
M  V30 2070 C 280.911 -1.68446 -6.70876 0
M  V30 2071 O 281.709 -0.678026 -6.08333 0
M  V30 2072 C 279.573 -1.17436 -7.18567 0
M  V30 2073 N 278.53 -1.52699 -6.23988 0
M  V30 2074 C 277.495 -0.643793 -6.05085 0
M  V30 2075 O 277.534 0.459118 -6.64315 0
M  V30 2076 N 276.483 -0.976931 -5.22038 0
M  V30 2077 C 276.531 -2.14429 -4.56662 0
M  V30 2078 N 275.521 -2.4542 -3.76231 0
M  V30 2079 C 277.627 -3.04203 -4.71481 0
M  V30 2080 C 278.593 -2.69669 -5.56838 0
M  V30 2081 H 279.605 -0.0804622 -7.31556 0
M  V30 2082 H 280.788 -2.53396 -6.02698 0
M  V30 2083 H 282.272 -2.9313 -7.85914 0
M  V30 2084 H 280.578 -2.52078 -9.87225 0
M  V30 2085 H 280.387 -4.75072 -9.05887 0
M  V30 2086 H 278.757 -4.05202 -8.76577 0
M  V30 2087 H 277.675 -3.97309 -4.15519 0
M  V30 2088 H 279.439 -3.36869 -5.72318 0
M  V30 2089 H 274.731 -1.80133 -3.65413 0
M  V30 2090 H 275.526 -3.34359 -3.24736 0
M  V30 2091 H 281.493 0.167718 -6.44882 0
M  V30 2092 P 283.255 -1.25109 -8.70152 0
M  V30 2093 O 284.677 -1.29744 -9.22016 0
M  V30 2094 O 282.895 -2.13714 -7.55141 0
M  V30 2095 O 282.932 0.248149 -8.21425 0
M  V30 2096 C 282.772 1.22779 -9.30434 0
M  V30 2097 C 283.312 2.56293 -8.80664 0
M  V30 2098 O 282.256 3.02979 -8.09349 0
M  V30 2099 C 284.53 2.57523 -7.89775 0
M  V30 2100 O 285.268 3.7668 -7.89438 0
M  V30 2101 C 283.861 2.20997 -6.55446 0
M  V30 2102 O 284.66 2.71895 -5.48509 0
M  V30 2103 C 282.524 2.89693 -6.67988 0
M  V30 2104 H 282.556 3.88793 -6.19859 0
M  V30 2105 H 283.739 1.12046 -6.44229 0
M  V30 2106 H 285.223 1.7746 -8.19711 0
M  V30 2107 H 283.529 3.20706 -9.67112 0
M  V30 2108 H 283.339 0.901032 -10.1892 0
M  V30 2109 H 281.709 1.33049 -9.56592 0
M  V30 2110 H 284.348 3.57847 -5.23962 0
M  V30 2111 P 286.205 3.65191 -7.99657 0
M  V30 2112 O 287.627 3.89332 -8.45794 0
M  V30 2113 O 285.845 2.28472 -7.50807 0
M  V30 2114 O 285.882 4.64972 -6.77611 0
M  V30 2115 C 285.722 6.06319 -7.16352 0
M  V30 2116 C 286.262 6.91731 -6.02299 0
M  V30 2117 O 285.206 6.92449 -5.17064 0
M  V30 2118 C 287.48 6.43627 -5.25174 0
M  V30 2119 O 288.218 7.43686 -4.60469 0
M  V30 2120 C 286.811 5.40275 -4.31916 0
M  V30 2121 O 287.61 5.25279 -3.14438 0
M  V30 2122 C 285.474 6.04847 -4.05327 0
M  V30 2123 H 285.506 6.62195 -3.11261 0
M  V30 2124 H 286.689 4.42556 -4.81383 0
M  V30 2125 H 288.173 5.92458 -5.93643 0
M  V30 2126 H 286.479 7.92655 -6.402 0
M  V30 2127 H 286.289 6.26671 -8.0846 0
M  V30 2128 H 284.659 6.29101 -7.32804 0
M  V30 2129 H 287.298 5.84315 -2.47318 0
M  V30 2130 P 289.156 7.39546 -4.75277 0
M  V30 2131 O 290.578 7.84798 -5.01039 0
M  V30 2132 O 288.796 5.9812 -5.08098 0
M  V30 2133 O 288.833 7.57503 -3.1866 0
M  V30 2134 C 288.673 8.97357 -2.74833 0
M  V30 2135 C 289.213 9.07548 -1.32709 0
M  V30 2136 O 288.157 8.62072 -0.606159 0
M  V30 2137 C 290.431 8.25383 -0.938334 0
M  V30 2138 O 291.169 8.74577 0.146954 0
M  V30 2139 C 289.762 6.8802 -0.712559 0
M  V30 2140 O 290.561 6.1189 0.194655 0
M  V30 2141 C 288.425 7.27966 -0.139777 0
M  V30 2142 H 288.457 7.25354 0.961601 0
M  V30 2143 H 289.64 6.32557 -1.65702 0
M  V30 2144 H 291.124 8.19355 -1.79097 0
M  V30 2145 H 289.43 10.1294 -1.10029 0
M  V30 2146 H 289.24 9.64276 -3.41316 0
M  V30 2147 H 287.61 9.25417 -2.76357 0
M  V30 2148 H 290.249 6.25267 1.07847 0
M  V30 2149 P 292.106 8.791 1.04251e-12 0
M  V30 2150 O 293.528 9.31096 0.027933 0
M  V30 2151 O 291.746 7.77869 -1.04071 0
M  V30 2152 O 291.783 8.09533 1.41463 0
M  V30 2153 C 291.623 9.0349 2.53943 0
M  V30 2154 C 292.163 8.35226 3.79016 0
M  V30 2155 O 291.107 7.57992 4.15078 0
M  V30 2156 C 293.381 7.45087 3.67298 0
M  V30 2157 O 294.119 7.27796 4.85194 0
M  V30 2158 C 292.712 6.17323 3.12027 0
M  V30 2159 O 293.511 5.04231 3.47188 0
M  V30 2160 C 291.375 6.19961 3.81809 0
M  V30 2161 H 291.407 5.58218 4.73051 0
M  V30 2162 H 292.59 6.21726 2.02589 0
M  V30 2163 H 294.074 7.86112 2.9231 0
M  V30 2164 H 292.38 9.11627 4.55076 0
M  V30 2165 H 292.19 9.9573 2.34194 0
M  V30 2166 H 290.56 9.2792 2.67832 0
M  V30 2167 H 293.199 4.67702 4.28772 0
M  V30 2168 P 295.057 7.39546 4.75277 0
M  V30 2169 O 296.479 7.81777 5.05738 0
M  V30 2170 O 294.697 7.1065 3.32998 0
M  V30 2171 O 294.734 6.04542 5.56673 0
M  V30 2172 C 294.574 6.22772 7.02095 0
M  V30 2173 C 295.114 4.97725 7.70406 0
M  V30 2174 O 294.058 4.13256 7.58987 0
M  V30 2175 C 296.332 4.28231 7.11815 0
M  V30 2176 O 297.07 3.49945 8.01648 0
M  V30 2177 C 295.663 3.5063 5.96244 0
M  V30 2178 O 296.462 2.36482 5.64681 0
M  V30 2179 C 294.326 3.15122 6.56374 0
M  V30 2180 H 294.358 2.13853 6.99751 0
M  V30 2181 H 295.541 4.13501 5.06559 0
M  V30 2182 H 297.025 5.03285 6.70911 0
M  V30 2183 H 295.331 5.20877 8.75697 0
M  V30 2184 H 295.141 7.11046 7.35349 0
M  V30 2185 H 293.511 6.35815 7.26986 0
M  V30 2186 H 296.15 1.61644 6.13565 0
M  V30 2187 P 298.008 3.65191 7.99657 0
M  V30 2188 O 299.43 3.8425 8.48115 0
M  V30 2189 O 297.648 4.17805 6.64342 0
M  V30 2190 O 297.685 2.07613 7.95143 0
M  V30 2191 C 297.525 1.44328 9.27336 0
M  V30 2192 C 298.065 0.0220036 9.17197 0
M  V30 2193 O 297.009 -0.626867 8.61923 0
M  V30 2194 C 299.283 -0.24586 8.30336 0
M  V30 2195 O 300.021 -1.39011 8.63583 0
M  V30 2196 C 298.614 -0.273849 6.91158 0
M  V30 2197 O 299.413 -1.06348 6.02892 0
M  V30 2198 C 297.277 -0.897649 7.22545 0
M  V30 2199 H 297.309 -1.9841 7.04286 0
M  V30 2200 H 298.492 0.739928 6.497 0
M  V30 2201 H 299.976 0.60668 8.36503 0
M  V30 2202 H 298.282 -0.352479 10.1829 0
M  V30 2203 H 298.092 2.00611 10.0304 0
M  V30 2204 H 296.462 1.41843 9.55327 0
M  V30 2205 H 299.101 -1.95734 6.03555 0
M  V30 2206 P 300.958 -1.25109 8.70152 0
M  V30 2207 O 302.38 -1.35274 9.21221 0
M  V30 2208 O 300.598 -0.0769065 7.84762 0
M  V30 2209 O 300.635 -2.55232 7.81161 0
M  V30 2210 C 300.475 -3.79939 8.58154 0
M  V30 2211 C 301.015 -4.94023 7.72785 0
M  V30 2212 O 299.959 -5.18726 6.91205 0
M  V30 2213 C 302.233 -4.69597 6.85231 0
M  V30 2214 O 302.971 -5.83832 6.51337 0
M  V30 2215 C 301.564 -3.96706 5.66633 0
M  V30 2216 O 302.363 -4.15414 4.49689 0
M  V30 2217 C 300.227 -4.66153 5.59313 0
M  V30 2218 H 300.259 -5.47679 4.85214 0
M  V30 2219 H 301.442 -2.89008 5.86566 0
M  V30 2220 H 302.926 -4.0121 7.36511 0
M  V30 2221 H 301.232 -5.80182 8.37584 0
M  V30 2222 H 301.042 -3.73517 9.52265 0
M  V30 2223 H 299.412 -3.97163 8.80359 0
M  V30 2224 H 302.051 -4.90969 4.01921 0
M  V30 2225 P 303.909 -5.75688 6.64379 0
M  V30 2226 O 305.331 -6.11849 7.01846 0
M  V30 2227 O 303.549 -4.30744 6.56026 0
M  V30 2228 O 303.586 -6.37042 5.19165 0
M  V30 2229 C 303.426 -7.83578 5.16515 0
M  V30 2230 C 303.966 -8.33398 3.83019 0
M  V30 2231 O 302.91 -8.10074 3.01034 0
M  V30 2232 C 305.184 -7.65514 3.2257 0
M  V30 2233 O 305.922 -8.4329 2.32297 0
M  V30 2234 C 304.515 -6.40075 2.62207 0
M  V30 2235 O 305.314 -5.92589 1.53712 0
M  V30 2236 C 303.178 -6.9454 2.18503 0
M  V30 2237 H 303.21 -7.23063 1.12091 0
M  V30 2238 H 304.393 -5.6025 3.37201 0
M  V30 2239 H 305.877 -7.35707 4.02681 0
M  V30 2240 H 304.183 -9.40912 3.9095 0
M  V30 2241 H 303.993 -8.29056 5.99158 0
M  V30 2242 H 302.363 -8.10073 5.25882 0
M  V30 2243 H 305.002 -6.30324 0.726794 0
M  V30 2244 P 306.859 -8.4349 2.47671 0
M  V30 2245 O 308.281 -8.94167 2.5964 0
M  V30 2246 O 306.499 -7.1704 3.19006 0
M  V30 2247 O 306.536 -8.16596 0.923387 0
M  V30 2248 C 306.376 -9.38437 0.108857 0
M  V30 2249 C 306.916 -9.08175 -1.28353 0
M  V30 2250 O 305.86 -8.44229 -1.84713 0
M  V30 2251 C 308.134 -8.18386 -1.42505 0
M  V30 2252 O 308.872 -8.3501 -2.60497 0
M  V30 2253 C 307.465 -6.80225 -1.25468 0
M  V30 2254 O 308.264 -5.81621 -1.91066 0
M  V30 2255 C 306.128 -7.02416 -1.9168 0
M  V30 2256 H 306.16 -6.6888 -2.96621 0
M  V30 2257 H 307.343 -6.53617 -0.192223 0
M  V30 2258 H 308.827 -8.36622 -0.589963 0
M  V30 2259 H 307.133 -10.0291 -1.79807 0
M  V30 2260 H 306.943 -10.2138 0.558219 0
M  V30 2261 H 305.313 -9.6579 0.0444202 0
M  V30 2262 H 307.952 -5.69556 -2.79637 0
M  V30 2263 P 309.81 -8.4349 -2.47671 0
M  V30 2264 O 311.211 -8.99283 -2.62101 0
M  V30 2265 O 309.432 -7.81195 -1.16947 0
M  V30 2266 O 309.487 -7.36797 -3.63761 0
M  V30 2267 C 309.327 -7.95349 -4.982 0
M  V30 2268 C 309.867 -6.94537 -5.98908 0
M  V30 2269 O 308.811 -6.10277 -6.11744 0
M  V30 2270 C 311.084 -6.11426 -5.62335 0
M  V30 2271 O 311.823 -5.6162 -6.70584 0
M  V30 2272 C 310.417 -5.04409 -4.73308 0
M  V30 2273 O 311.215 -3.85929 -4.75106 0
M  V30 2274 C 309.079 -4.8728 -5.41006 0
M  V30 2275 N 308.036 -4.65812 -4.42377 0
M  V30 2276 C 307.001 -3.81293 -4.74224 0
M  V30 2277 O 307.04 -3.20533 -5.83679 0
M  V30 2278 N 305.989 -3.6442 -3.86349 0
M  V30 2279 C 306.037 -4.2728 -2.6824 0
M  V30 2280 C 307.133 -5.10813 -2.3217 0
M  V30 2281 C 308.099 -5.27909 -3.22647 0
M  V30 2282 H 309.111 -4.02278 -6.11074 0
M  V30 2283 H 310.294 -5.39013 -3.70026 0
M  V30 2284 H 311.778 -6.71494 -5.02675 0
M  V30 2285 H 310.084 -7.45796 -6.94223 0
M  V30 2286 H 309.893 -8.89416 -5.05237 0
M  V30 2287 H 308.263 -8.14791 -5.18355 0
M  V30 2288 H 307.181 -5.58884 -1.34755 0
M  V30 2289 H 308.945 -5.92811 -2.9934 0
M  V30 2290 H 310.999 -3.3454 -5.51577 0
M  V30 2291 P 312.76 -5.75688 -6.64379 0
M  V30 2292 O 314.182 -6.07627 -7.05504 0
M  V30 2293 O 312.4 -5.88047 -5.19722 0
M  V30 2294 O 312.437 -4.2322 -7.04443 0
M  V30 2295 C 312.277 -3.99743 -8.4911 0
M  V30 2296 C 312.817 -2.60516 -8.79425 0
M  V30 2297 O 311.761 -1.82684 -8.4467 0
M  V30 2298 C 314.035 -2.10343 -8.03628 0
M  V30 2299 O 314.773 -1.09919 -8.67766 0
M  V30 2300 C 313.366 -1.68446 -6.70876 0
M  V30 2301 O 314.165 -0.678137 -6.08433 0
M  V30 2302 C 312.029 -1.17436 -7.18567 0
M  V30 2303 H 312.061 -0.0804732 -7.31656 0
M  V30 2304 H 313.244 -2.54037 -6.02537 0
M  V30 2305 H 314.728 -2.93881 -7.85526 0
M  V30 2306 H 313.034 -2.53065 -9.86973 0
M  V30 2307 H 312.844 -4.75072 -9.05887 0
M  V30 2308 H 311.214 -4.05244 -8.76668 0
M  V30 2309 H 313.853 0.177647 -6.34251 0
M  V30 2310 P 315.711 -1.25109 -8.70152 0
M  V30 2311 O 317.133 -1.29744 -9.22016 0
M  V30 2312 O 315.351 -2.13714 -7.55141 0
M  V30 2313 O 315.388 0.248149 -8.21425 0
M  V30 2314 C 315.228 1.22779 -9.30434 0
M  V30 2315 C 315.768 2.56293 -8.80664 0
M  V30 2316 O 314.712 3.02979 -8.09349 0
M  V30 2317 C 316.986 2.57523 -7.89775 0
M  V30 2318 O 317.724 3.7668 -7.89438 0
M  V30 2319 C 316.317 2.20997 -6.55446 0
M  V30 2320 O 317.116 2.71895 -5.48509 0
M  V30 2321 C 314.98 2.89693 -6.67988 0
M  V30 2322 H 315.012 3.88793 -6.19859 0
M  V30 2323 H 316.195 1.12046 -6.44229 0
M  V30 2324 H 317.679 1.7746 -8.19711 0
M  V30 2325 H 315.985 3.20706 -9.67112 0
M  V30 2326 H 315.795 0.901032 -10.1892 0
M  V30 2327 H 314.165 1.33049 -9.56592 0
M  V30 2328 H 316.804 3.57847 -5.23962 0
M  V30 2329 P 318.662 3.65191 -7.99657 0
M  V30 2330 O 320.084 3.89332 -8.45794 0
M  V30 2331 O 318.302 2.28472 -7.50807 0
M  V30 2332 O 318.339 4.64972 -6.77611 0
M  V30 2333 C 318.179 6.06319 -7.16352 0
M  V30 2334 C 318.719 6.91731 -6.02299 0
M  V30 2335 O 317.663 6.92449 -5.17064 0
M  V30 2336 C 319.937 6.43627 -5.25174 0
M  V30 2337 O 320.675 7.43686 -4.60469 0
M  V30 2338 C 319.268 5.40275 -4.31916 0
M  V30 2339 O 320.067 5.25279 -3.14438 0
M  V30 2340 C 317.931 6.04847 -4.05327 0
M  V30 2341 H 317.963 6.62195 -3.11261 0
M  V30 2342 H 319.146 4.42556 -4.81383 0
M  V30 2343 H 320.63 5.92458 -5.93643 0
M  V30 2344 H 318.936 7.92655 -6.402 0
M  V30 2345 H 318.746 6.26671 -8.0846 0
M  V30 2346 H 317.116 6.29101 -7.32804 0
M  V30 2347 H 319.755 5.84315 -2.47318 0
M  V30 2348 P 321.612 7.39546 -4.75277 0
M  V30 2349 O 323.034 7.84798 -5.01039 0
M  V30 2350 O 321.252 5.9812 -5.08098 0
M  V30 2351 O 321.289 7.57503 -3.1866 0
M  V30 2352 C 321.129 8.97357 -2.74833 0
M  V30 2353 C 321.669 9.07548 -1.32709 0
M  V30 2354 O 320.613 8.62072 -0.606159 0
M  V30 2355 C 322.887 8.25383 -0.938334 0
M  V30 2356 O 323.625 8.74577 0.146954 0
M  V30 2357 C 322.218 6.8802 -0.712559 0
M  V30 2358 O 323.017 6.1189 0.194655 0
M  V30 2359 C 320.881 7.27966 -0.139777 0
M  V30 2360 H 320.913 7.25354 0.961601 0
M  V30 2361 H 322.096 6.32557 -1.65702 0
M  V30 2362 H 323.58 8.19355 -1.79097 0
M  V30 2363 H 321.886 10.1294 -1.10029 0
M  V30 2364 H 321.696 9.64276 -3.41316 0
M  V30 2365 H 320.066 9.25417 -2.76357 0
M  V30 2366 H 322.705 6.25267 1.07847 0
M  V30 2367 P 324.563 8.791 1.35267e-12 0
M  V30 2368 O 325.984 9.31196 0.027936 0
M  V30 2369 O 324.203 7.77869 -1.04071 0
M  V30 2370 O 324.24 8.09533 1.41463 0
M  V30 2371 C 324.079 9.03587 2.5397 0
M  V30 2372 C 324.62 8.35226 3.79016 0
M  V30 2373 O 323.565 7.57904 4.1503 0
M  V30 2374 C 325.838 7.45087 3.67298 0
M  V30 2375 O 326.576 7.27796 4.85194 0
M  V30 2376 C 325.17 6.17323 3.12027 0
M  V30 2377 O 325.968 5.04496 3.46627 0
M  V30 2378 C 323.832 6.19961 3.81809 0
M  V30 2379 N 322.789 5.71575 2.93223 0
M  V30 2380 C 322.958 5.77362 1.59168 0
M  V30 2381 N 321.931 5.3123 0.911893 0
M  V30 2382 C 321.046 4.91717 1.89588 0
M  V30 2383 C 319.779 4.3114 1.8076 0
M  V30 2384 N 319.18 3.99821 0.632928 0
M  V30 2385 N 319.214 4.06823 3.02898 0
M  V30 2386 C 319.816 4.35062 4.22711 0
M  V30 2387 N 320.993 4.90805 4.35707 0
M  V30 2388 C 321.568 5.16382 3.14469 0
M  V30 2389 H 323.864 5.58142 4.72986 0
M  V30 2390 H 325.047 6.21428 2.0318 0
M  V30 2391 H 326.53 7.86112 2.9231 0
M  V30 2392 H 324.836 9.11171 4.55987 0
M  V30 2393 H 324.646 9.9573 2.34194 0
M  V30 2394 H 323.016 9.2792 2.67832 0
M  V30 2395 H 319.28 4.09052 5.13359 0
M  V30 2396 H 323.858 6.16575 1.12198 0
M  V30 2397 H 318.25 3.55423 0.632085 0
M  V30 2398 H 319.654 4.20317 -0.256712 0
M  V30 2399 H 325.656 4.67628 4.28704 0
M  V30 2400 P 327.513 7.39546 4.75277 0
M  V30 2401 O 328.935 7.81777 5.05738 0
M  V30 2402 O 327.153 7.1065 3.32998 0
M  V30 2403 O 327.19 6.04542 5.56673 0
M  V30 2404 C 327.03 6.22772 7.02095 0
M  V30 2405 C 327.57 4.97725 7.70406 0
M  V30 2406 O 326.514 4.13256 7.58987 0
M  V30 2407 C 328.788 4.28231 7.11815 0
M  V30 2408 O 329.526 3.49945 8.01648 0
M  V30 2409 C 328.119 3.5063 5.96244 0
M  V30 2410 O 328.918 2.36482 5.64681 0
M  V30 2411 C 326.782 3.15122 6.56374 0
M  V30 2412 H 326.814 2.13853 6.99751 0
M  V30 2413 H 327.997 4.13501 5.06559 0
M  V30 2414 H 329.481 5.03285 6.70911 0
M  V30 2415 H 327.787 5.20877 8.75697 0
M  V30 2416 H 327.597 7.11046 7.35349 0
M  V30 2417 H 325.967 6.35815 7.26986 0
M  V30 2418 H 328.606 1.61644 6.13565 0
M  V30 2419 P 330.464 3.65191 7.99657 0
M  V30 2420 O 331.886 3.8425 8.48115 0
M  V30 2421 O 330.104 4.17805 6.64342 0
M  V30 2422 O 330.141 2.07613 7.95143 0
M  V30 2423 C 329.981 1.44328 9.27336 0
M  V30 2424 C 330.521 0.0220036 9.17197 0
M  V30 2425 O 329.465 -0.626867 8.61923 0
M  V30 2426 C 331.739 -0.24586 8.30336 0
M  V30 2427 O 332.477 -1.39011 8.63583 0
M  V30 2428 C 331.07 -0.273849 6.91158 0
M  V30 2429 O 331.869 -1.06348 6.02892 0
M  V30 2430 C 329.733 -0.897649 7.22545 0
M  V30 2431 H 329.765 -1.9841 7.04286 0
M  V30 2432 H 330.948 0.739928 6.497 0
M  V30 2433 H 332.432 0.60668 8.36503 0
M  V30 2434 H 330.738 -0.352479 10.1829 0
M  V30 2435 H 330.548 2.00611 10.0304 0
M  V30 2436 H 328.918 1.41843 9.55327 0
M  V30 2437 H 331.557 -1.95734 6.03555 0
M  V30 2438 P 333.414 -1.25109 8.70152 0
M  V30 2439 O 334.836 -1.35274 9.21221 0
M  V30 2440 O 333.054 -0.0769065 7.84762 0
M  V30 2441 O 333.091 -2.55232 7.81161 0
M  V30 2442 C 332.931 -3.79939 8.58154 0
M  V30 2443 C 333.471 -4.94023 7.72785 0
M  V30 2444 O 332.415 -5.18726 6.91205 0
M  V30 2445 C 334.689 -4.69597 6.85231 0
M  V30 2446 O 335.427 -5.83832 6.51337 0
M  V30 2447 C 334.02 -3.96706 5.66633 0
M  V30 2448 O 334.819 -4.15414 4.49689 0
M  V30 2449 C 332.683 -4.66153 5.59313 0
M  V30 2450 H 332.715 -5.47679 4.85214 0
M  V30 2451 H 333.898 -2.89008 5.86566 0
M  V30 2452 H 335.382 -4.0121 7.36511 0
M  V30 2453 H 333.688 -5.80182 8.37584 0
M  V30 2454 H 333.498 -3.73517 9.52265 0
M  V30 2455 H 331.868 -3.97163 8.80359 0
M  V30 2456 H 334.507 -4.90969 4.01921 0
M  V30 2457 P 336.365 -5.75688 6.64379 0
M  V30 2458 O 337.787 -6.11849 7.01846 0
M  V30 2459 O 336.005 -4.30744 6.56026 0
M  V30 2460 O 336.042 -6.37042 5.19165 0
M  V30 2461 C 335.882 -7.83578 5.16515 0
M  V30 2462 C 336.422 -8.33398 3.83019 0
M  V30 2463 O 335.366 -8.10074 3.01034 0
M  V30 2464 C 337.64 -7.65514 3.2257 0
M  V30 2465 O 338.378 -8.4329 2.32297 0
M  V30 2466 C 336.971 -6.40075 2.62207 0
M  V30 2467 O 337.77 -5.92589 1.53712 0
M  V30 2468 C 335.634 -6.9454 2.18503 0
M  V30 2469 H 335.666 -7.23063 1.12091 0
M  V30 2470 H 336.849 -5.6025 3.37201 0
M  V30 2471 H 338.333 -7.35707 4.02681 0
M  V30 2472 H 336.639 -9.40912 3.9095 0
M  V30 2473 H 336.449 -8.29056 5.99158 0
M  V30 2474 H 334.819 -8.10073 5.25882 0
M  V30 2475 H 337.458 -6.30324 0.726794 0
M  V30 2476 P 339.316 -8.4349 2.47671 0
M  V30 2477 O 340.717 -8.98227 2.65696 0
M  V30 2478 O 338.938 -7.20409 3.23964 0
M  V30 2479 O 338.993 -8.16496 0.923275 0
M  V30 2480 C 338.833 -9.38437 0.108857 0
M  V30 2481 C 339.373 -9.08076 -1.28339 0
M  V30 2482 O 338.317 -8.44131 -1.84692 0
M  V30 2483 C 340.59 -8.18386 -1.42505 0
M  V30 2484 O 341.329 -8.3501 -2.60497 0
M  V30 2485 C 339.923 -6.80225 -1.25468 0
M  V30 2486 O 340.721 -5.81526 -1.91035 0
M  V30 2487 C 338.585 -7.02416 -1.9168 0
M  V30 2488 N 337.542 -6.31033 -1.20314 0
M  V30 2489 C 336.507 -5.77149 -1.928 0
M  V30 2490 O 336.546 -5.8521 -3.17729 0
M  V30 2491 N 335.495 -5.15445 -1.27997 0
M  V30 2492 C 335.543 -5.04472 0.0534726 0
M  V30 2493 C 336.639 -5.55244 0.808522 0
M  V30 2494 C 337.605 -6.18542 0.13981 0
M  V30 2495 H 338.617 -6.68789 -2.9658 0
M  V30 2496 H 339.8 -6.53498 -0.198729 0
M  V30 2497 H 341.284 -8.36663 -0.5984 0
M  V30 2498 H 339.59 -10.0273 -1.8081 0
M  V30 2499 H 339.399 -10.2138 0.558219 0
M  V30 2500 H 337.769 -9.6569 0.0444156 0
M  V30 2501 H 336.687 -5.43017 1.88792 0
M  V30 2502 H 338.451 -6.60539 0.686773 0
M  V30 2503 H 340.505 -5.79638 -2.8315 0
M  V30 2504 P 342.266 -8.4349 -2.47671 0
M  V30 2505 O 343.667 -8.99283 -2.62101 0
M  V30 2506 O 341.888 -7.81195 -1.16947 0
M  V30 2507 O 341.943 -7.36797 -3.63761 0
M  V30 2508 C 341.783 -7.95349 -4.982 0
M  V30 2509 C 342.323 -6.94537 -5.98908 0
M  V30 2510 O 341.267 -6.10277 -6.11744 0
M  V30 2511 C 343.54 -6.11426 -5.62335 0
M  V30 2512 O 344.279 -5.6162 -6.70584 0
M  V30 2513 C 342.873 -5.04409 -4.73308 0
M  V30 2514 O 343.671 -3.85929 -4.75106 0
M  V30 2515 C 341.535 -4.8728 -5.41006 0
M  V30 2516 N 340.492 -4.65812 -4.42377 0
M  V30 2517 C 339.457 -3.81293 -4.74224 0
M  V30 2518 O 339.496 -3.20533 -5.83679 0
M  V30 2519 N 338.445 -3.6442 -3.86349 0
M  V30 2520 C 338.493 -4.2728 -2.6824 0
M  V30 2521 C 339.589 -5.10813 -2.3217 0
M  V30 2522 C 340.555 -5.27909 -3.22647 0
M  V30 2523 H 341.567 -4.02278 -6.11074 0
M  V30 2524 H 342.75 -5.39013 -3.70026 0
M  V30 2525 H 344.234 -6.71494 -5.02675 0
M  V30 2526 H 342.54 -7.45796 -6.94223 0
M  V30 2527 H 342.349 -8.89416 -5.05237 0
M  V30 2528 H 340.719 -8.14791 -5.18355 0
M  V30 2529 H 339.637 -5.58884 -1.34755 0
M  V30 2530 H 341.401 -5.92811 -2.9934 0
M  V30 2531 H 343.455 -3.3454 -5.51577 0
M  V30 2532 P 345.217 -5.75688 -6.64379 0
M  V30 2533 O 346.639 -6.07627 -7.05504 0
M  V30 2534 O 344.857 -5.88047 -5.19722 0
M  V30 2535 O 344.894 -4.2322 -7.04443 0
M  V30 2536 C 344.734 -3.99743 -8.4911 0
M  V30 2537 C 345.274 -2.60516 -8.79425 0
M  V30 2538 O 344.218 -1.82684 -8.4467 0
M  V30 2539 C 346.492 -2.10343 -8.03628 0
M  V30 2540 O 347.23 -1.09919 -8.67766 0
M  V30 2541 C 345.823 -1.68446 -6.70876 0
M  V30 2542 O 346.622 -0.678137 -6.08433 0
M  V30 2543 C 344.486 -1.17436 -7.18567 0
M  V30 2544 H 344.518 -0.0804732 -7.31656 0
M  V30 2545 H 345.701 -2.54037 -6.02537 0
M  V30 2546 H 347.185 -2.93881 -7.85526 0
M  V30 2547 H 345.491 -2.53065 -9.86973 0
M  V30 2548 H 345.301 -4.75072 -9.05887 0
M  V30 2549 H 343.671 -4.05244 -8.76668 0
M  V30 2550 H 346.31 0.177647 -6.34251 0
M  V30 2551 P 348.167 -1.25109 -8.70152 0
M  V30 2552 O 349.589 -1.29744 -9.22016 0
M  V30 2553 O 347.807 -2.13714 -7.55141 0
M  V30 2554 O 347.844 0.248149 -8.21425 0
M  V30 2555 C 347.684 1.22779 -9.30434 0
M  V30 2556 C 348.224 2.56293 -8.80664 0
M  V30 2557 O 347.168 3.02979 -8.09349 0
M  V30 2558 C 349.442 2.57523 -7.89775 0
M  V30 2559 O 350.18 3.7668 -7.89438 0
M  V30 2560 C 348.773 2.20997 -6.55446 0
M  V30 2561 O 349.572 2.71895 -5.48509 0
M  V30 2562 C 347.436 2.89693 -6.67988 0
M  V30 2563 H 347.468 3.88793 -6.19859 0
M  V30 2564 H 348.651 1.12046 -6.44229 0
M  V30 2565 H 350.135 1.7746 -8.19711 0
M  V30 2566 H 348.441 3.20706 -9.67112 0
M  V30 2567 H 348.251 0.901032 -10.1892 0
M  V30 2568 H 346.621 1.33049 -9.56592 0
M  V30 2569 H 349.26 3.57847 -5.23962 0
M  V30 2570 P 351.118 3.65191 -7.99657 0
M  V30 2571 O 352.54 3.89332 -8.45794 0
M  V30 2572 O 350.758 2.28472 -7.50807 0
M  V30 2573 O 350.795 4.64972 -6.77611 0
M  V30 2574 C 350.635 6.06319 -7.16352 0
M  V30 2575 C 351.175 6.91731 -6.02299 0
M  V30 2576 O 350.119 6.92449 -5.17064 0
M  V30 2577 C 352.393 6.43627 -5.25174 0
M  V30 2578 O 353.131 7.43686 -4.60469 0
M  V30 2579 C 351.724 5.40275 -4.31916 0
M  V30 2580 O 352.523 5.25279 -3.14438 0
M  V30 2581 C 350.387 6.04847 -4.05327 0
M  V30 2582 H 350.419 6.62195 -3.11261 0
M  V30 2583 H 351.602 4.42556 -4.81383 0
M  V30 2584 H 353.086 5.92458 -5.93643 0
M  V30 2585 H 351.392 7.92655 -6.402 0
M  V30 2586 H 351.202 6.26671 -8.0846 0
M  V30 2587 H 349.572 6.29101 -7.32804 0
M  V30 2588 H 352.211 5.84315 -2.47318 0
M  V30 2589 P 354.068 7.39546 -4.75277 0
M  V30 2590 O 355.49 7.84798 -5.01039 0
M  V30 2591 O 353.708 5.9812 -5.08098 0
M  V30 2592 O 353.745 7.57503 -3.1866 0
M  V30 2593 C 353.585 8.97357 -2.74833 0
M  V30 2594 C 354.125 9.07548 -1.32709 0
M  V30 2595 O 353.069 8.62072 -0.606159 0
M  V30 2596 C 355.343 8.25383 -0.938334 0
M  V30 2597 O 356.081 8.74577 0.146954 0
M  V30 2598 C 354.674 6.8802 -0.712559 0
M  V30 2599 O 355.473 6.1189 0.194655 0
M  V30 2600 C 353.337 7.27966 -0.139777 0
M  V30 2601 H 353.369 7.25354 0.961601 0
M  V30 2602 H 354.552 6.32557 -1.65702 0
M  V30 2603 H 356.036 8.19355 -1.79097 0
M  V30 2604 H 354.342 10.1294 -1.10029 0
M  V30 2605 H 354.152 9.64276 -3.41316 0
M  V30 2606 H 352.522 9.25417 -2.76357 0
M  V30 2607 H 355.161 6.25267 1.07847 0
M  V30 2608 P 357.019 8.791 1.66284e-12 0
M  V30 2609 O 358.441 9.31296 0.027939 0
M  V30 2610 O 356.659 7.77869 -1.04071 0
M  V30 2611 O 356.696 8.09533 1.41463 0
M  V30 2612 C 356.536 9.0349 2.53943 0
M  V30 2613 C 357.076 8.35135 3.78975 0
M  V30 2614 O 356.021 7.57992 4.15078 0
M  V30 2615 C 358.294 7.45087 3.67298 0
M  V30 2616 O 359.032 7.27796 4.85194 0
M  V30 2617 C 357.626 6.17323 3.12027 0
M  V30 2618 O 358.424 5.04149 3.47132 0
M  V30 2619 C 356.288 6.19961 3.81809 0
M  V30 2620 N 355.245 5.71575 2.93223 0
M  V30 2621 C 355.307 5.97133 1.62693 0
M  V30 2622 N 354.262 5.44066 0.984414 0
M  V30 2623 C 353.528 4.87093 1.93987 0
M  V30 2624 C 352.222 4.26449 1.8738 0
M  V30 2625 O 351.489 4.1089 0.884377 0
M  V30 2626 N 351.792 3.82483 3.08036 0
M  V30 2627 C 352.541 3.95124 4.27727 0
M  V30 2628 N 351.944 3.4084 5.39089 0
M  V30 2629 N 353.694 4.55264 4.3706 0
M  V30 2630 C 354.151 5.00861 3.18217 0
M  V30 2631 H 356.32 5.58218 4.73051 0
M  V30 2632 H 357.503 6.21631 2.02558 0
M  V30 2633 H 358.988 7.85819 2.93096 0
M  V30 2634 H 357.293 9.11627 4.55076 0
M  V30 2635 H 357.103 9.9573 2.34194 0
M  V30 2636 H 355.472 9.2792 2.67832 0
M  V30 2637 H 350.896 3.38323 3.1329 0
M  V30 2638 H 356.103 6.53891 1.14265 0
M  V30 2639 H 351.033 2.93852 5.30559 0
M  V30 2640 H 352.409 3.47631 6.30632 0
M  V30 2641 H 358.113 4.67628 4.28704 0
M  V30 2642 P 359.97 7.39546 4.75277 0
M  V30 2643 O 361.391 7.81861 5.05793 0
M  V30 2644 O 359.61 7.1065 3.32998 0
M  V30 2645 O 359.647 6.04542 5.56673 0
M  V30 2646 C 359.486 6.22839 7.02169 0
M  V30 2647 C 360.027 4.97725 7.70406 0
M  V30 2648 O 358.972 4.13208 7.58899 0
M  V30 2649 C 361.245 4.28231 7.11815 0
M  V30 2650 O 361.983 3.49945 8.01648 0
M  V30 2651 C 360.577 3.5063 5.96244 0
M  V30 2652 O 361.375 2.37008 5.64352 0
M  V30 2653 C 359.239 3.15122 6.56374 0
M  V30 2654 N 358.196 3.22311 5.55692 0
M  V30 2655 C 358.365 3.99655 4.46046 0
M  V30 2656 N 357.338 3.97599 3.63918 0
M  V30 2657 C 356.453 3.11159 4.25334 0
M  V30 2658 C 355.186 2.64972 3.85157 0
M  V30 2659 N 354.587 3.02132 2.69405 0
M  V30 2660 N 354.621 1.78482 4.74759 0
M  V30 2661 C 355.223 1.37463 5.90819 0
M  V30 2662 N 356.4 1.7733 6.31889 0
M  V30 2663 C 356.975 2.64393 5.43725 0
M  V30 2664 H 359.271 2.13823 6.99656 0
M  V30 2665 H 360.454 4.12931 5.06895 0
M  V30 2666 H 361.937 5.03285 6.70911 0
M  V30 2667 H 360.243 5.20001 8.76217 0
M  V30 2668 H 360.053 7.11046 7.35349 0
M  V30 2669 H 358.423 6.35815 7.26986 0
M  V30 2670 H 354.687 0.66574 6.53015 0
M  V30 2671 H 359.265 4.58037 4.27732 0
M  V30 2672 H 353.657 2.64828 2.45331 0
M  V30 2673 H 355.061 3.67472 2.05644 0
M  V30 2674 H 361.063 1.61619 6.13468 0
M  V30 2675 P 362.92 3.65191 7.99657 0
M  V30 2676 O 364.342 3.8425 8.48115 0
M  V30 2677 O 362.56 4.17805 6.64342 0
M  V30 2678 O 362.597 2.07613 7.95143 0
M  V30 2679 C 362.437 1.44328 9.27336 0
M  V30 2680 C 362.977 0.0220036 9.17197 0
M  V30 2681 O 361.921 -0.626867 8.61923 0
M  V30 2682 C 364.195 -0.24586 8.30336 0
M  V30 2683 O 364.933 -1.39011 8.63583 0
M  V30 2684 C 363.526 -0.273849 6.91158 0
M  V30 2685 O 364.325 -1.06348 6.02892 0
M  V30 2686 C 362.189 -0.897649 7.22545 0
M  V30 2687 H 362.221 -1.9841 7.04286 0
M  V30 2688 H 363.404 0.739928 6.497 0
M  V30 2689 H 364.888 0.60668 8.36503 0
M  V30 2690 H 363.194 -0.352479 10.1829 0
M  V30 2691 H 363.004 2.00611 10.0304 0
M  V30 2692 H 361.374 1.41843 9.55327 0
M  V30 2693 H 364.013 -1.95734 6.03555 0
M  V30 2694 P 365.871 -1.25109 8.70152 0
M  V30 2695 O 367.293 -1.35274 9.21221 0
M  V30 2696 O 365.511 -0.0769065 7.84762 0
M  V30 2697 O 365.548 -2.55232 7.81161 0
M  V30 2698 C 365.388 -3.79939 8.58154 0
M  V30 2699 C 365.928 -4.94023 7.72785 0
M  V30 2700 O 364.872 -5.18726 6.91205 0
M  V30 2701 C 367.146 -4.69597 6.85231 0
M  V30 2702 O 367.884 -5.83832 6.51337 0
M  V30 2703 C 366.477 -3.96706 5.66633 0
M  V30 2704 O 367.276 -4.15414 4.49689 0
M  V30 2705 C 365.14 -4.66153 5.59313 0
M  V30 2706 H 365.172 -5.47679 4.85214 0
M  V30 2707 H 366.355 -2.89008 5.86566 0
M  V30 2708 H 367.839 -4.0121 7.36511 0
M  V30 2709 H 366.145 -5.80182 8.37584 0
M  V30 2710 H 365.955 -3.73517 9.52265 0
M  V30 2711 H 364.325 -3.97163 8.80359 0
M  V30 2712 H 366.964 -4.90969 4.01921 0
M  V30 2713 P 368.821 -5.75688 6.64379 0
M  V30 2714 O 370.243 -6.11849 7.01846 0
M  V30 2715 O 368.461 -4.30744 6.56026 0
M  V30 2716 O 368.498 -6.37042 5.19165 0
M  V30 2717 C 368.338 -7.83578 5.16515 0
M  V30 2718 C 368.878 -8.33398 3.83019 0
M  V30 2719 O 367.822 -8.10074 3.01034 0
M  V30 2720 C 370.096 -7.65514 3.2257 0
M  V30 2721 O 370.834 -8.4329 2.32297 0
M  V30 2722 C 369.427 -6.40075 2.62207 0
M  V30 2723 O 370.226 -5.92589 1.53712 0
M  V30 2724 C 368.09 -6.9454 2.18503 0
M  V30 2725 H 368.122 -7.23063 1.12091 0
M  V30 2726 H 369.305 -5.6025 3.37201 0
M  V30 2727 H 370.789 -7.35707 4.02681 0
M  V30 2728 H 369.095 -9.40912 3.9095 0
M  V30 2729 H 368.905 -8.29056 5.99158 0
M  V30 2730 H 367.275 -8.10073 5.25882 0
M  V30 2731 H 369.914 -6.30324 0.726794 0
M  V30 2732 P 371.772 -8.4349 2.47671 0
M  V30 2733 O 373.173 -8.98227 2.65696 0
M  V30 2734 O 371.394 -7.20409 3.23964 0
M  V30 2735 O 371.449 -8.16496 0.923275 0
M  V30 2736 C 371.289 -9.38437 0.108857 0
M  V30 2737 C 371.829 -9.08076 -1.28339 0
M  V30 2738 O 370.773 -8.44131 -1.84692 0
M  V30 2739 C 373.046 -8.18386 -1.42505 0
M  V30 2740 O 373.785 -8.3501 -2.60497 0
M  V30 2741 C 372.379 -6.80225 -1.25468 0
M  V30 2742 O 373.177 -5.81526 -1.91035 0
M  V30 2743 C 371.041 -7.02416 -1.9168 0
M  V30 2744 N 369.998 -6.31033 -1.20314 0
M  V30 2745 C 368.963 -5.77149 -1.928 0
M  V30 2746 O 369.002 -5.8521 -3.17729 0
M  V30 2747 N 367.951 -5.15445 -1.27997 0
M  V30 2748 C 367.999 -5.04472 0.0534726 0
M  V30 2749 N 366.989 -4.44183 0.669496 0
M  V30 2750 C 369.095 -5.55244 0.808522 0
M  V30 2751 C 370.061 -6.18542 0.13981 0
M  V30 2752 H 371.073 -6.68789 -2.9658 0
M  V30 2753 H 372.256 -6.53498 -0.198729 0
M  V30 2754 H 373.74 -8.36663 -0.5984 0
M  V30 2755 H 372.046 -10.0273 -1.8081 0
M  V30 2756 H 371.855 -10.2138 0.558219 0
M  V30 2757 H 370.225 -9.6569 0.0444156 0
M  V30 2758 H 369.143 -5.43017 1.88792 0
M  V30 2759 H 370.907 -6.60539 0.686773 0
M  V30 2760 H 366.199 -4.07222 0.12057 0
M  V30 2761 H 366.994 -4.34288 1.69244 0
M  V30 2762 H 372.961 -5.79638 -2.8315 0
M  V30 2763 P 374.722 -8.4349 -2.47671 0
M  V30 2764 O 376.144 -8.92593 -2.65 0
M  V30 2765 O 374.362 -7.7568 -1.19296 0
M  V30 2766 O 374.399 -7.36886 -3.63805 0
M  V30 2767 C 374.239 -7.95349 -4.982 0
M  V30 2768 C 374.779 -6.94612 -5.98974 0
M  V30 2769 O 373.723 -6.10347 -6.11815 0
M  V30 2770 C 375.997 -6.11426 -5.62335 0
M  V30 2771 O 376.735 -5.6162 -6.70584 0
M  V30 2772 C 375.328 -5.04409 -4.73308 0
M  V30 2773 O 376.127 -3.85992 -4.75183 0
M  V30 2774 C 373.991 -4.8728 -5.41006 0
M  V30 2775 H 374.023 -4.02333 -6.11157 0
M  V30 2776 H 375.206 -5.39466 -3.69543 0
M  V30 2777 H 376.69 -6.71916 -5.01943 0
M  V30 2778 H 374.996 -7.4649 -6.93477 0
M  V30 2779 H 374.806 -8.89416 -5.05237 0
M  V30 2780 H 373.176 -8.14876 -5.18409 0
M  V30 2781 H 375.815 -3.27957 -5.4317 0
M  V30 2782 P 377.673 -5.75688 -6.64379 0
M  V30 2783 O 379.095 -6.07627 -7.05504 0
M  V30 2784 O 377.313 -5.88047 -5.19722 0
M  V30 2785 O 377.35 -4.2322 -7.04443 0
M  V30 2786 C 377.19 -3.99743 -8.4911 0
M  V30 2787 C 377.73 -2.60516 -8.79425 0
M  V30 2788 O 376.674 -1.82684 -8.4467 0
M  V30 2789 C 378.948 -2.10343 -8.03628 0
M  V30 2790 O 379.686 -1.09919 -8.67766 0
M  V30 2791 C 378.279 -1.68446 -6.70876 0
M  V30 2792 O 379.078 -0.678137 -6.08433 0
M  V30 2793 C 376.942 -1.17436 -7.18567 0
M  V30 2794 H 376.974 -0.0804732 -7.31656 0
M  V30 2795 H 378.157 -2.54037 -6.02537 0
M  V30 2796 H 379.641 -2.93881 -7.85526 0
M  V30 2797 H 377.947 -2.53065 -9.86973 0
M  V30 2798 H 377.757 -4.75072 -9.05887 0
M  V30 2799 H 376.127 -4.05244 -8.76668 0
M  V30 2800 H 378.766 0.177647 -6.34251 0
M  V30 2801 P 380.624 -1.25109 -8.70152 0
M  V30 2802 O 382.046 -1.29744 -9.22016 0
M  V30 2803 O 380.264 -2.13714 -7.55141 0
M  V30 2804 O 380.301 0.248149 -8.21425 0
M  V30 2805 C 380.141 1.22779 -9.30434 0
M  V30 2806 C 380.681 2.56293 -8.80664 0
M  V30 2807 O 379.625 3.02979 -8.09349 0
M  V30 2808 C 381.899 2.57523 -7.89775 0
M  V30 2809 O 382.637 3.7668 -7.89438 0
M  V30 2810 C 381.23 2.20997 -6.55446 0
M  V30 2811 O 382.029 2.71895 -5.48509 0
M  V30 2812 C 379.893 2.89693 -6.67988 0
M  V30 2813 H 379.925 3.88793 -6.19859 0
M  V30 2814 H 381.108 1.12046 -6.44229 0
M  V30 2815 H 382.592 1.7746 -8.19711 0
M  V30 2816 H 380.898 3.20706 -9.67112 0
M  V30 2817 H 380.708 0.901032 -10.1892 0
M  V30 2818 H 379.078 1.33049 -9.56592 0
M  V30 2819 H 381.717 3.57847 -5.23962 0
M  V30 2820 P 383.574 3.65191 -7.99657 0
M  V30 2821 O 384.996 3.89332 -8.45794 0
M  V30 2822 O 383.214 2.28472 -7.50807 0
M  V30 2823 O 383.251 4.64972 -6.77611 0
M  V30 2824 C 383.091 6.06319 -7.16352 0
M  V30 2825 C 383.631 6.91731 -6.02299 0
M  V30 2826 O 382.575 6.92449 -5.17064 0
M  V30 2827 C 384.849 6.43627 -5.25174 0
M  V30 2828 O 385.587 7.43686 -4.60469 0
M  V30 2829 C 384.18 5.40275 -4.31916 0
M  V30 2830 O 384.979 5.25279 -3.14438 0
M  V30 2831 C 382.843 6.04847 -4.05327 0
M  V30 2832 H 382.875 6.62195 -3.11261 0
M  V30 2833 H 384.058 4.42556 -4.81383 0
M  V30 2834 H 385.542 5.92458 -5.93643 0
M  V30 2835 H 383.848 7.92655 -6.402 0
M  V30 2836 H 383.658 6.26671 -8.0846 0
M  V30 2837 H 382.028 6.29101 -7.32804 0
M  V30 2838 H 384.667 5.84315 -2.47318 0
M  V30 2839 P 386.525 7.39546 -4.75277 0
M  V30 2840 O 387.947 7.84798 -5.01039 0
M  V30 2841 O 386.165 5.9812 -5.08098 0
M  V30 2842 O 386.202 7.57503 -3.1866 0
M  V30 2843 C 386.042 8.97357 -2.74833 0
M  V30 2844 C 386.582 9.07548 -1.32709 0
M  V30 2845 O 385.526 8.62072 -0.606159 0
M  V30 2846 C 387.8 8.25383 -0.938334 0
M  V30 2847 O 388.538 8.74577 0.146954 0
M  V30 2848 C 387.131 6.8802 -0.712559 0
M  V30 2849 O 387.93 6.1189 0.194655 0
M  V30 2850 C 385.794 7.27966 -0.139777 0
M  V30 2851 H 385.826 7.25354 0.961601 0
M  V30 2852 H 387.009 6.32557 -1.65702 0
M  V30 2853 H 388.493 8.19355 -1.79097 0
M  V30 2854 H 386.799 10.1294 -1.10029 0
M  V30 2855 H 386.609 9.64276 -3.41316 0
M  V30 2856 H 384.979 9.25417 -2.76357 0
M  V30 2857 H 387.618 6.25267 1.07847 0
M  V30 2858 P 389.475 8.791 1.973e-12 0
M  V30 2859 O 390.897 9.31096 0.027933 0
M  V30 2860 O 389.115 7.77869 -1.04071 0
M  V30 2861 O 389.152 8.09533 1.41463 0
M  V30 2862 C 388.992 9.0349 2.53943 0
M  V30 2863 C 389.532 8.35226 3.79016 0
M  V30 2864 O 388.476 7.57992 4.15078 0
M  V30 2865 C 390.75 7.45087 3.67298 0
M  V30 2866 O 391.488 7.27796 4.85194 0
M  V30 2867 C 390.081 6.17323 3.12027 0
M  V30 2868 O 390.88 5.04231 3.47188 0
M  V30 2869 C 388.744 6.19961 3.81809 0
M  V30 2870 H 388.776 5.58218 4.73051 0
M  V30 2871 H 389.959 6.21726 2.02589 0
M  V30 2872 H 391.443 7.86112 2.9231 0
M  V30 2873 H 389.749 9.11627 4.55076 0
M  V30 2874 H 389.559 9.9573 2.34194 0
M  V30 2875 H 387.929 9.2792 2.67832 0
M  V30 2876 H 390.568 4.67702 4.28772 0
M  V30 2877 P 392.426 7.39546 4.75277 0
M  V30 2878 O 393.848 7.81777 5.05738 0
M  V30 2879 O 392.066 7.1065 3.32998 0
M  V30 2880 O 392.103 6.04542 5.56673 0
M  V30 2881 C 391.943 6.22772 7.02095 0
M  V30 2882 C 392.483 4.97725 7.70406 0
M  V30 2883 O 391.427 4.13256 7.58987 0
M  V30 2884 C 393.701 4.28231 7.11815 0
M  V30 2885 O 394.439 3.49945 8.01648 0
M  V30 2886 C 393.032 3.5063 5.96244 0
M  V30 2887 O 393.831 2.36482 5.64681 0
M  V30 2888 C 391.695 3.15122 6.56374 0
M  V30 2889 H 391.727 2.13853 6.99751 0
M  V30 2890 H 392.91 4.13501 5.06559 0
M  V30 2891 H 394.394 5.03285 6.70911 0
M  V30 2892 H 392.7 5.20877 8.75697 0
M  V30 2893 H 392.51 7.11046 7.35349 0
M  V30 2894 H 390.88 6.35815 7.26986 0
M  V30 2895 H 393.519 1.61644 6.13565 0
M  V30 2896 P 395.376 3.65191 7.99657 0
M  V30 2897 O 396.798 3.8425 8.48115 0
M  V30 2898 O 395.016 4.17805 6.64342 0
M  V30 2899 O 395.053 2.07613 7.95143 0
M  V30 2900 C 394.893 1.44328 9.27336 0
M  V30 2901 C 395.433 0.0220036 9.17197 0
M  V30 2902 O 394.377 -0.626867 8.61923 0
M  V30 2903 C 396.651 -0.24586 8.30336 0
M  V30 2904 O 397.389 -1.39011 8.63583 0
M  V30 2905 C 395.982 -0.273849 6.91158 0
M  V30 2906 O 396.781 -1.06348 6.02892 0
M  V30 2907 C 394.645 -0.897649 7.22545 0
M  V30 2908 H 394.677 -1.9841 7.04286 0
M  V30 2909 H 395.86 0.739928 6.497 0
M  V30 2910 H 397.344 0.60668 8.36503 0
M  V30 2911 H 395.65 -0.352479 10.1829 0
M  V30 2912 H 395.46 2.00611 10.0304 0
M  V30 2913 H 393.83 1.41843 9.55327 0
M  V30 2914 H 396.469 -1.95734 6.03555 0
M  V30 2915 P 398.327 -1.25109 8.70152 0
M  V30 2916 O 399.749 -1.35274 9.21221 0
M  V30 2917 O 397.967 -0.0769065 7.84762 0
M  V30 2918 O 398.004 -2.55232 7.81161 0
M  V30 2919 C 397.844 -3.79939 8.58154 0
M  V30 2920 C 398.384 -4.94023 7.72785 0
M  V30 2921 O 397.328 -5.18726 6.91205 0
M  V30 2922 C 399.602 -4.69597 6.85231 0
M  V30 2923 O 400.34 -5.83832 6.51337 0
M  V30 2924 C 398.933 -3.96706 5.66633 0
M  V30 2925 O 399.732 -4.15414 4.49689 0
M  V30 2926 C 397.596 -4.66153 5.59313 0
M  V30 2927 H 397.628 -5.47679 4.85214 0
M  V30 2928 H 398.811 -2.89008 5.86566 0
M  V30 2929 H 400.295 -4.0121 7.36511 0
M  V30 2930 H 398.601 -5.80182 8.37584 0
M  V30 2931 H 398.411 -3.73517 9.52265 0
M  V30 2932 H 396.781 -3.97163 8.80359 0
M  V30 2933 H 399.42 -4.90969 4.01921 0
M  V30 2934 P 401.278 -5.75688 6.64379 0
M  V30 2935 O 402.7 -6.11849 7.01846 0
M  V30 2936 O 400.918 -4.30744 6.56026 0
M  V30 2937 O 400.955 -6.37042 5.19165 0
M  V30 2938 C 400.795 -7.83578 5.16515 0
M  V30 2939 C 401.335 -8.33398 3.83019 0
M  V30 2940 O 400.279 -8.10074 3.01034 0
M  V30 2941 C 402.553 -7.65514 3.2257 0
M  V30 2942 O 403.291 -8.4329 2.32297 0
M  V30 2943 C 401.884 -6.40075 2.62207 0
M  V30 2944 O 402.683 -5.92589 1.53712 0
M  V30 2945 C 400.547 -6.9454 2.18503 0
M  V30 2946 H 400.579 -7.23063 1.12091 0
M  V30 2947 H 401.762 -5.6025 3.37201 0
M  V30 2948 H 403.246 -7.35707 4.02681 0
M  V30 2949 H 401.552 -9.40912 3.9095 0
M  V30 2950 H 401.362 -8.29056 5.99158 0
M  V30 2951 H 399.732 -8.10073 5.25882 0
M  V30 2952 H 402.371 -6.30324 0.726794 0
M  V30 2953 P 404.228 -8.4349 2.47671 0
M  V30 2954 O 405.65 -8.94167 2.5964 0
M  V30 2955 O 403.868 -7.1704 3.19006 0
M  V30 2956 O 403.905 -8.16596 0.923387 0
M  V30 2957 C 403.745 -9.38437 0.108857 0
M  V30 2958 C 404.285 -9.08175 -1.28353 0
M  V30 2959 O 403.229 -8.44229 -1.84713 0
M  V30 2960 C 405.503 -8.18386 -1.42505 0
M  V30 2961 O 406.241 -8.3501 -2.60497 0
M  V30 2962 C 404.834 -6.80225 -1.25468 0
M  V30 2963 O 405.633 -5.81621 -1.91066 0
M  V30 2964 C 403.497 -7.02416 -1.9168 0
M  V30 2965 H 403.529 -6.6888 -2.96621 0
M  V30 2966 H 404.712 -6.53617 -0.192223 0
M  V30 2967 H 406.196 -8.36622 -0.589963 0
M  V30 2968 H 404.502 -10.0291 -1.79807 0
M  V30 2969 H 404.312 -10.2138 0.558219 0
M  V30 2970 H 402.682 -9.6579 0.0444202 0
M  V30 2971 H 405.321 -5.69556 -2.79637 0
M  V30 2972 P 407.179 -8.4349 -2.47671 0
M  V30 2973 O 408.601 -8.92593 -2.65 0
M  V30 2974 O 406.819 -7.7568 -1.19296 0
M  V30 2975 O 406.856 -7.36886 -3.63805 0
M  V30 2976 C 406.696 -7.95349 -4.982 0
M  V30 2977 C 407.236 -6.94612 -5.98974 0
M  V30 2978 O 406.18 -6.10347 -6.11815 0
M  V30 2979 C 408.454 -6.11426 -5.62335 0
M  V30 2980 O 409.192 -5.6162 -6.70584 0
M  V30 2981 C 407.785 -5.04409 -4.73308 0
M  V30 2982 O 408.584 -3.85992 -4.75183 0
M  V30 2983 C 406.448 -4.8728 -5.41006 0
M  V30 2984 H 406.48 -4.02333 -6.11157 0
M  V30 2985 H 407.663 -5.39466 -3.69543 0
M  V30 2986 H 409.147 -6.71916 -5.01943 0
M  V30 2987 H 407.453 -7.4649 -6.93477 0
M  V30 2988 H 407.263 -8.89416 -5.05237 0
M  V30 2989 H 405.633 -8.14876 -5.18409 0
M  V30 2990 H 408.272 -3.27957 -5.4317 0
M  V30 2991 P 410.129 -5.75688 -6.64379 0
M  V30 2992 O 411.551 -6.07627 -7.05504 0
M  V30 2993 O 409.769 -5.88047 -5.19722 0
M  V30 2994 O 409.806 -4.2322 -7.04443 0
M  V30 2995 C 409.646 -3.99743 -8.4911 0
M  V30 2996 C 410.186 -2.60516 -8.79425 0
M  V30 2997 O 409.13 -1.82684 -8.4467 0
M  V30 2998 C 411.404 -2.10343 -8.03628 0
M  V30 2999 O 412.142 -1.09919 -8.67766 0
M  V30 3000 C 410.735 -1.68446 -6.70876 0
M  V30 3001 O 411.534 -0.678137 -6.08433 0
M  V30 3002 C 409.398 -1.17436 -7.18567 0
M  V30 3003 H 409.43 -0.0804732 -7.31656 0
M  V30 3004 H 410.613 -2.54037 -6.02537 0
M  V30 3005 H 412.097 -2.93881 -7.85526 0
M  V30 3006 H 410.403 -2.53065 -9.86973 0
M  V30 3007 H 410.213 -4.75072 -9.05887 0
M  V30 3008 H 408.583 -4.05244 -8.76668 0
M  V30 3009 H 411.222 0.177647 -6.34251 0
M  V30 3010 P 413.08 -1.25109 -8.70152 0
M  V30 3011 O 414.502 -1.29744 -9.22016 0
M  V30 3012 O 412.72 -2.13714 -7.55141 0
M  V30 3013 O 412.757 0.248149 -8.21425 0
M  V30 3014 C 412.597 1.22779 -9.30434 0
M  V30 3015 C 413.137 2.56293 -8.80664 0
M  V30 3016 O 412.081 3.02979 -8.09349 0
M  V30 3017 C 414.355 2.57523 -7.89775 0
M  V30 3018 O 415.093 3.7668 -7.89438 0
M  V30 3019 C 413.686 2.20997 -6.55446 0
M  V30 3020 O 414.485 2.71895 -5.48509 0
M  V30 3021 C 412.349 2.89693 -6.67988 0
M  V30 3022 H 412.381 3.88793 -6.19859 0
M  V30 3023 H 413.564 1.12046 -6.44229 0
M  V30 3024 H 415.048 1.7746 -8.19711 0
M  V30 3025 H 413.354 3.20706 -9.67112 0
M  V30 3026 H 413.164 0.901032 -10.1892 0
M  V30 3027 H 411.534 1.33049 -9.56592 0
M  V30 3028 H 414.173 3.57847 -5.23962 0
M  V30 3029 P 416.03 3.65191 -7.99657 0
M  V30 3030 O 417.452 3.89416 -8.45976 0
M  V30 3031 O 415.67 2.28472 -7.50807 0
M  V30 3032 O 415.707 4.64972 -6.77611 0
M  V30 3033 C 415.547 6.06319 -7.16352 0
M  V30 3034 C 416.087 6.91655 -6.02234 0
M  V30 3035 O 415.032 6.92449 -5.17064 0
M  V30 3036 C 417.305 6.43627 -5.25174 0
M  V30 3037 O 418.043 7.43686 -4.60469 0
M  V30 3038 C 416.637 5.40275 -4.31916 0
M  V30 3039 O 417.435 5.25193 -3.14386 0
M  V30 3040 C 415.299 6.04847 -4.05327 0
M  V30 3041 N 414.256 5.04166 -3.98114 0
M  V30 3042 C 414.318 3.96049 -4.75587 0
M  V30 3043 N 413.273 3.15559 -4.54006 0
M  V30 3044 C 412.539 3.78802 -3.62491 0
M  V30 3045 C 411.233 3.476 -3.10071 0
M  V30 3046 O 410.5 2.51136 -3.37021 0
M  V30 3047 N 410.803 4.39088 -2.19956 0
M  V30 3048 C 411.552 5.53215 -1.81733 0
M  V30 3049 N 410.955 6.31963 -0.860928 0
M  V30 3050 N 412.705 5.86688 -2.32562 0
M  V30 3051 C 413.162 4.97525 -3.23407 0
M  V30 3052 H 415.331 6.62195 -3.11261 0
M  V30 3053 H 416.514 4.42488 -4.8131 0
M  V30 3054 H 417.999 5.93051 -5.9305 0
M  V30 3055 H 416.304 7.92655 -6.402 0
M  V30 3056 H 416.114 6.26671 -8.0846 0
M  V30 3057 H 414.483 6.29101 -7.32804 0
M  V30 3058 H 409.907 4.25523 -1.77604 0
M  V30 3059 H 415.114 3.75576 -5.47333 0
M  V30 3060 H 410.044 6.04684 -0.468946 0
M  V30 3061 H 411.42 7.18054 -0.542422 0
M  V30 3062 H 417.124 5.84223 -2.47279 0
M  V30 3063 P 418.981 7.39546 -4.75277 0
M  V30 3064 O 420.403 7.84798 -5.01039 0
M  V30 3065 O 418.621 5.9812 -5.08098 0
M  V30 3066 O 418.658 7.57503 -3.1866 0
M  V30 3067 C 418.498 8.97357 -2.74833 0
M  V30 3068 C 419.038 9.07548 -1.32709 0
M  V30 3069 O 417.982 8.62072 -0.606159 0
M  V30 3070 C 420.256 8.25383 -0.938334 0
M  V30 3071 O 420.994 8.74577 0.146954 0
M  V30 3072 C 419.587 6.8802 -0.712559 0
M  V30 3073 O 420.386 6.1189 0.194655 0
M  V30 3074 C 418.25 7.27966 -0.139777 0
M  V30 3075 H 418.282 7.25354 0.961601 0
M  V30 3076 H 419.465 6.32557 -1.65702 0
M  V30 3077 H 420.949 8.19355 -1.79097 0
M  V30 3078 H 419.255 10.1294 -1.10029 0
M  V30 3079 H 419.065 9.64276 -3.41316 0
M  V30 3080 H 417.435 9.25417 -2.76357 0
M  V30 3081 H 420.074 6.25267 1.07847 0
M  V30 3082 P 421.932 8.791 2.28317e-12 0
M  V30 3083 O 423.354 9.31096 0.027933 0
M  V30 3084 O 421.572 7.77869 -1.04071 0
M  V30 3085 O 421.609 8.09533 1.41463 0
M  V30 3086 C 421.449 9.0349 2.53943 0
M  V30 3087 C 421.989 8.35226 3.79016 0
M  V30 3088 O 420.933 7.57992 4.15078 0
M  V30 3089 C 423.207 7.45087 3.67298 0
M  V30 3090 O 423.945 7.27796 4.85194 0
M  V30 3091 C 422.538 6.17323 3.12027 0
M  V30 3092 O 423.337 5.04231 3.47188 0
M  V30 3093 C 421.201 6.19961 3.81809 0
M  V30 3094 H 421.233 5.58218 4.73051 0
M  V30 3095 H 422.416 6.21726 2.02589 0
M  V30 3096 H 423.9 7.86112 2.9231 0
M  V30 3097 H 422.206 9.11627 4.55076 0
M  V30 3098 H 422.016 9.9573 2.34194 0
M  V30 3099 H 420.386 9.2792 2.67832 0
M  V30 3100 H 423.025 4.67702 4.28772 0
M  V30 3101 P 424.882 7.39546 4.75277 0
M  V30 3102 O 426.304 7.81777 5.05738 0
M  V30 3103 O 424.522 7.1065 3.32998 0
M  V30 3104 O 424.559 6.04542 5.56673 0
M  V30 3105 C 424.399 6.22772 7.02095 0
M  V30 3106 C 424.939 4.97725 7.70406 0
M  V30 3107 O 423.883 4.13256 7.58987 0
M  V30 3108 C 426.157 4.28231 7.11815 0
M  V30 3109 O 426.895 3.49945 8.01648 0
M  V30 3110 C 425.488 3.5063 5.96244 0
M  V30 3111 O 426.287 2.36482 5.64681 0
M  V30 3112 C 424.151 3.15122 6.56374 0
M  V30 3113 H 424.183 2.13853 6.99751 0
M  V30 3114 H 425.366 4.13501 5.06559 0
M  V30 3115 H 426.85 5.03285 6.70911 0
M  V30 3116 H 425.156 5.20877 8.75697 0
M  V30 3117 H 424.966 7.11046 7.35349 0
M  V30 3118 H 423.336 6.35815 7.26986 0
M  V30 3119 H 425.975 1.61644 6.13565 0
M  V30 3120 P 427.833 3.65191 7.99657 0
M  V30 3121 O 429.255 3.8425 8.48115 0
M  V30 3122 O 427.473 4.17805 6.64342 0
M  V30 3123 O 427.51 2.07613 7.95143 0
M  V30 3124 C 427.35 1.44328 9.27336 0
M  V30 3125 C 427.89 0.0220036 9.17197 0
M  V30 3126 O 426.834 -0.626867 8.61923 0
M  V30 3127 C 429.108 -0.24586 8.30336 0
M  V30 3128 O 429.846 -1.39011 8.63583 0
M  V30 3129 C 428.439 -0.273849 6.91158 0
M  V30 3130 O 429.238 -1.06348 6.02892 0
M  V30 3131 C 427.102 -0.897649 7.22545 0
M  V30 3132 H 427.134 -1.9841 7.04286 0
M  V30 3133 H 428.317 0.739928 6.497 0
M  V30 3134 H 429.801 0.60668 8.36503 0
M  V30 3135 H 428.107 -0.352479 10.1829 0
M  V30 3136 H 427.917 2.00611 10.0304 0
M  V30 3137 H 426.287 1.41843 9.55327 0
M  V30 3138 H 428.926 -1.95734 6.03555 0
M  V30 3139 P 430.783 -1.25109 8.70152 0
M  V30 3140 O 432.205 -1.35274 9.21221 0
M  V30 3141 O 430.423 -0.0769065 7.84762 0
M  V30 3142 O 430.46 -2.55232 7.81161 0
M  V30 3143 C 430.3 -3.79939 8.58154 0
M  V30 3144 C 430.84 -4.94023 7.72785 0
M  V30 3145 O 429.784 -5.18726 6.91205 0
M  V30 3146 C 432.058 -4.69597 6.85231 0
M  V30 3147 O 432.796 -5.83832 6.51337 0
M  V30 3148 C 431.389 -3.96706 5.66633 0
M  V30 3149 O 432.188 -4.15414 4.49689 0
M  V30 3150 C 430.052 -4.66153 5.59313 0
M  V30 3151 H 430.084 -5.47679 4.85214 0
M  V30 3152 H 431.267 -2.89008 5.86566 0
M  V30 3153 H 432.751 -4.0121 7.36511 0
M  V30 3154 H 431.057 -5.80182 8.37584 0
M  V30 3155 H 430.867 -3.73517 9.52265 0
M  V30 3156 H 429.237 -3.97163 8.80359 0
M  V30 3157 H 431.876 -4.90969 4.01921 0
M  V30 3158 P 433.734 -5.75688 6.64379 0
M  V30 3159 O 435.156 -6.11849 7.01846 0
M  V30 3160 O 433.374 -4.30744 6.56026 0
M  V30 3161 O 433.411 -6.37042 5.19165 0
M  V30 3162 C 433.251 -7.83578 5.16515 0
M  V30 3163 C 433.791 -8.33398 3.83019 0
M  V30 3164 O 432.735 -8.10074 3.01034 0
M  V30 3165 C 435.009 -7.65514 3.2257 0
M  V30 3166 O 435.747 -8.4329 2.32297 0
M  V30 3167 C 434.34 -6.40075 2.62207 0
M  V30 3168 O 435.139 -5.92589 1.53712 0
M  V30 3169 C 433.003 -6.9454 2.18503 0
M  V30 3170 H 433.035 -7.23063 1.12091 0
M  V30 3171 H 434.218 -5.6025 3.37201 0
M  V30 3172 H 435.702 -7.35707 4.02681 0
M  V30 3173 H 434.008 -9.40912 3.9095 0
M  V30 3174 H 433.818 -8.29056 5.99158 0
M  V30 3175 H 432.188 -8.10073 5.25882 0
M  V30 3176 H 434.827 -6.30324 0.726794 0
M  V30 3177 P 436.684 -8.4349 2.47671 0
M  V30 3178 O 438.106 -8.94167 2.5964 0
M  V30 3179 O 436.324 -7.1704 3.19006 0
M  V30 3180 O 436.361 -8.16596 0.923387 0
M  V30 3181 C 436.201 -9.38437 0.108857 0
M  V30 3182 C 436.741 -9.08175 -1.28353 0
M  V30 3183 O 435.685 -8.44229 -1.84713 0
M  V30 3184 C 437.959 -8.18386 -1.42505 0
M  V30 3185 O 438.697 -8.3501 -2.60497 0
M  V30 3186 C 437.29 -6.80225 -1.25468 0
M  V30 3187 O 438.089 -5.81621 -1.91066 0
M  V30 3188 C 435.953 -7.02416 -1.9168 0
M  V30 3189 H 435.985 -6.6888 -2.96621 0
M  V30 3190 H 437.168 -6.53617 -0.192223 0
M  V30 3191 H 438.652 -8.36622 -0.589963 0
M  V30 3192 H 436.958 -10.0291 -1.79807 0
M  V30 3193 H 436.768 -10.2138 0.558219 0
M  V30 3194 H 435.138 -9.6579 0.0444202 0
M  V30 3195 H 437.777 -5.69556 -2.79637 0
M  V30 3196 P 439.635 -8.4349 -2.47671 0
M  V30 3197 O 441.057 -8.92593 -2.65 0
M  V30 3198 O 439.275 -7.7568 -1.19296 0
M  V30 3199 O 439.312 -7.36886 -3.63805 0
M  V30 3200 C 439.152 -7.95349 -4.982 0
M  V30 3201 C 439.692 -6.94612 -5.98974 0
M  V30 3202 O 438.636 -6.10347 -6.11815 0
M  V30 3203 C 440.91 -6.11426 -5.62335 0
M  V30 3204 O 441.648 -5.6162 -6.70584 0
M  V30 3205 C 440.241 -5.04409 -4.73308 0
M  V30 3206 O 441.04 -3.85992 -4.75183 0
M  V30 3207 C 438.904 -4.8728 -5.41006 0
M  V30 3208 H 438.936 -4.02333 -6.11157 0
M  V30 3209 H 440.119 -5.39466 -3.69543 0
M  V30 3210 H 441.603 -6.71916 -5.01943 0
M  V30 3211 H 439.909 -7.4649 -6.93477 0
M  V30 3212 H 439.719 -8.89416 -5.05237 0
M  V30 3213 H 438.089 -8.14876 -5.18409 0
M  V30 3214 H 440.728 -3.27957 -5.4317 0
M  V30 3215 P 442.586 -5.75688 -6.64379 0
M  V30 3216 O 444.008 -6.07627 -7.05504 0
M  V30 3217 O 442.226 -5.88047 -5.19722 0
M  V30 3218 O 442.263 -4.2322 -7.04443 0
M  V30 3219 C 442.103 -3.99743 -8.4911 0
M  V30 3220 C 442.643 -2.60516 -8.79425 0
M  V30 3221 O 441.587 -1.82684 -8.4467 0
M  V30 3222 C 443.861 -2.10343 -8.03628 0
M  V30 3223 O 444.599 -1.09919 -8.67766 0
M  V30 3224 C 443.192 -1.68446 -6.70876 0
M  V30 3225 O 443.991 -0.678137 -6.08433 0
M  V30 3226 C 441.855 -1.17436 -7.18567 0
M  V30 3227 H 441.887 -0.0804732 -7.31656 0
M  V30 3228 H 443.07 -2.54037 -6.02537 0
M  V30 3229 H 444.554 -2.93881 -7.85526 0
M  V30 3230 H 442.86 -2.53065 -9.86973 0
M  V30 3231 H 442.67 -4.75072 -9.05887 0
M  V30 3232 H 441.04 -4.05244 -8.76668 0
M  V30 3233 H 443.679 0.177647 -6.34251 0
M  V30 3234 P 445.536 -1.25109 -8.70152 0
M  V30 3235 O 446.958 -1.29744 -9.22016 0
M  V30 3236 O 445.176 -2.13714 -7.55141 0
M  V30 3237 O 445.213 0.248149 -8.21425 0
M  V30 3238 C 445.053 1.22779 -9.30434 0
M  V30 3239 C 445.593 2.56293 -8.80664 0
M  V30 3240 O 444.537 3.02979 -8.09349 0
M  V30 3241 C 446.811 2.57523 -7.89775 0
M  V30 3242 O 447.549 3.7668 -7.89438 0
M  V30 3243 C 446.142 2.20997 -6.55446 0
M  V30 3244 O 446.941 2.71895 -5.48509 0
M  V30 3245 C 444.805 2.89693 -6.67988 0
M  V30 3246 H 444.837 3.88793 -6.19859 0
M  V30 3247 H 446.02 1.12046 -6.44229 0
M  V30 3248 H 447.504 1.7746 -8.19711 0
M  V30 3249 H 445.81 3.20706 -9.67112 0
M  V30 3250 H 445.62 0.901032 -10.1892 0
M  V30 3251 H 443.99 1.33049 -9.56592 0
M  V30 3252 H 446.629 3.57847 -5.23962 0
M  V30 3253 P 448.487 3.65191 -7.99657 0
M  V30 3254 O 449.888 3.87414 -8.52829 0
M  V30 3255 O 448.109 2.26932 -7.566 0
M  V30 3256 O 448.164 4.64915 -6.77529 0
M  V30 3257 C 448.004 6.06319 -7.16352 0
M  V30 3258 C 448.544 6.91655 -6.02234 0
M  V30 3259 O 447.488 6.92369 -5.17005 0
M  V30 3260 C 449.761 6.43627 -5.25174 0
M  V30 3261 O 450.5 7.43686 -4.60469 0
M  V30 3262 C 449.094 5.40275 -4.31916 0
M  V30 3263 O 449.892 5.25193 -3.14386 0
M  V30 3264 C 447.756 6.04847 -4.05327 0
M  V30 3265 N 446.713 5.04166 -3.98114 0
M  V30 3266 C 445.678 5.2366 -3.09923 0
M  V30 3267 O 445.717 6.23355 -2.34204 0
M  V30 3268 N 444.666 4.34279 -3.05727 0
M  V30 3269 C 444.714 3.26317 -3.84756 0
M  V30 3270 C 445.81 3.02504 -4.72573 0
M  V30 3271 C 446.776 3.94493 -4.76618 0
M  V30 3272 H 447.788 6.62104 -3.11218 0
M  V30 3273 H 448.971 4.42969 -4.80867 0
M  V30 3274 H 450.455 5.93122 -5.93121 0
M  V30 3275 H 448.761 7.93295 -6.39407 0
M  V30 3276 H 448.57 6.26671 -8.0846 0
M  V30 3277 H 446.94 6.29036 -7.32728 0
M  V30 3278 H 445.858 2.12921 -5.34017 0
M  V30 3279 H 447.622 3.80658 -5.44176 0
M  V30 3280 H 449.676 5.93572 -2.52637 0
M  V30 3281 P 451.437 7.39546 -4.75277 0
M  V30 3282 O 452.859 7.84798 -5.01039 0
M  V30 3283 O 451.077 5.9812 -5.08098 0
M  V30 3284 O 451.114 7.57503 -3.1866 0
M  V30 3285 C 450.954 8.97357 -2.74833 0
M  V30 3286 C 451.494 9.07548 -1.32709 0
M  V30 3287 O 450.438 8.62072 -0.606159 0
M  V30 3288 C 452.712 8.25383 -0.938334 0
M  V30 3289 O 453.45 8.74577 0.146954 0
M  V30 3290 C 452.043 6.8802 -0.712559 0
M  V30 3291 O 452.842 6.1189 0.194655 0
M  V30 3292 C 450.706 7.27966 -0.139777 0
M  V30 3293 H 450.738 7.25354 0.961601 0
M  V30 3294 H 451.921 6.32557 -1.65702 0
M  V30 3295 H 453.405 8.19355 -1.79097 0
M  V30 3296 H 451.711 10.1294 -1.10029 0
M  V30 3297 H 451.521 9.64276 -3.41316 0
M  V30 3298 H 449.891 9.25417 -2.76357 0
M  V30 3299 H 452.53 6.25267 1.07847 0
M  V30 3300 P 454.388 8.791 2.59334e-12 0
M  V30 3301 O 455.81 9.31096 0.027933 0
M  V30 3302 O 454.028 7.77869 -1.04071 0
M  V30 3303 O 454.065 8.09533 1.41463 0
M  V30 3304 C 453.905 9.0349 2.53943 0
M  V30 3305 C 454.445 8.35226 3.79016 0
M  V30 3306 O 453.389 7.57992 4.15078 0
M  V30 3307 C 455.663 7.45087 3.67298 0
M  V30 3308 O 456.401 7.27796 4.85194 0
M  V30 3309 C 454.994 6.17323 3.12027 0
M  V30 3310 O 455.793 5.04231 3.47188 0
M  V30 3311 C 453.657 6.19961 3.81809 0
M  V30 3312 H 453.689 5.58218 4.73051 0
M  V30 3313 H 454.872 6.21726 2.02589 0
M  V30 3314 H 456.356 7.86112 2.9231 0
M  V30 3315 H 454.662 9.11627 4.55076 0
M  V30 3316 H 454.472 9.9573 2.34194 0
M  V30 3317 H 452.842 9.2792 2.67832 0
M  V30 3318 H 455.481 4.67702 4.28772 0
M  V30 3319 P 457.338 7.39546 4.75277 0
M  V30 3320 O 458.759 7.81861 5.05793 0
M  V30 3321 O 456.978 7.1065 3.32998 0
M  V30 3322 O 457.015 6.04542 5.56673 0
M  V30 3323 C 456.854 6.22839 7.02169 0
M  V30 3324 C 457.395 4.97725 7.70406 0
M  V30 3325 O 456.34 4.13208 7.58899 0
M  V30 3326 C 458.613 4.28231 7.11815 0
M  V30 3327 O 459.351 3.49945 8.01648 0
M  V30 3328 C 457.945 3.5063 5.96244 0
M  V30 3329 O 458.743 2.37008 5.64352 0
M  V30 3330 C 456.607 3.15122 6.56374 0
M  V30 3331 N 455.564 3.22311 5.55692 0
M  V30 3332 C 455.733 3.99655 4.46046 0
M  V30 3333 N 454.706 3.97599 3.63918 0
M  V30 3334 C 453.821 3.11159 4.25334 0
M  V30 3335 C 452.554 2.64972 3.85157 0
M  V30 3336 N 451.955 3.02132 2.69405 0
M  V30 3337 N 451.989 1.78482 4.74759 0
M  V30 3338 C 452.591 1.37463 5.90819 0
M  V30 3339 N 453.768 1.7733 6.31889 0
M  V30 3340 C 454.343 2.64393 5.43725 0
M  V30 3341 H 456.639 2.13823 6.99656 0
M  V30 3342 H 457.822 4.12931 5.06895 0
M  V30 3343 H 459.305 5.03285 6.70911 0
M  V30 3344 H 457.611 5.20001 8.76217 0
M  V30 3345 H 457.421 7.11046 7.35349 0
M  V30 3346 H 455.791 6.35815 7.26986 0
M  V30 3347 H 452.055 0.66574 6.53015 0
M  V30 3348 H 456.633 4.58037 4.27732 0
M  V30 3349 H 451.025 2.64828 2.45331 0
M  V30 3350 H 452.429 3.67472 2.05644 0
M  V30 3351 H 458.431 1.61619 6.13468 0
M  V30 3352 P 460.289 3.65191 7.99657 0
M  V30 3353 O 461.711 3.8425 8.48115 0
M  V30 3354 O 459.929 4.17805 6.64342 0
M  V30 3355 O 459.966 2.07613 7.95143 0
M  V30 3356 C 459.806 1.44328 9.27336 0
M  V30 3357 C 460.346 0.0220036 9.17197 0
M  V30 3358 O 459.29 -0.626867 8.61923 0
M  V30 3359 C 461.564 -0.24586 8.30336 0
M  V30 3360 O 462.302 -1.39011 8.63583 0
M  V30 3361 C 460.895 -0.273849 6.91158 0
M  V30 3362 O 461.694 -1.06348 6.02892 0
M  V30 3363 C 459.558 -0.897649 7.22545 0
M  V30 3364 H 459.59 -1.9841 7.04286 0
M  V30 3365 H 460.773 0.739928 6.497 0
M  V30 3366 H 462.257 0.60668 8.36503 0
M  V30 3367 H 460.563 -0.352479 10.1829 0
M  V30 3368 H 460.373 2.00611 10.0304 0
M  V30 3369 H 458.743 1.41843 9.55327 0
M  V30 3370 H 461.382 -1.95734 6.03555 0
M  V30 3371 P 463.239 -1.25109 8.70152 0
M  V30 3372 O 464.661 -1.35274 9.21221 0
M  V30 3373 O 462.879 -0.0769065 7.84762 0
M  V30 3374 O 462.916 -2.55232 7.81161 0
M  V30 3375 C 462.756 -3.79939 8.58154 0
M  V30 3376 C 463.296 -4.94023 7.72785 0
M  V30 3377 O 462.24 -5.18726 6.91205 0
M  V30 3378 C 464.514 -4.69597 6.85231 0
M  V30 3379 O 465.252 -5.83832 6.51337 0
M  V30 3380 C 463.845 -3.96706 5.66633 0
M  V30 3381 O 464.644 -4.15414 4.49689 0
M  V30 3382 C 462.508 -4.66153 5.59313 0
M  V30 3383 H 462.54 -5.47679 4.85214 0
M  V30 3384 H 463.723 -2.89008 5.86566 0
M  V30 3385 H 465.207 -4.0121 7.36511 0
M  V30 3386 H 463.513 -5.80182 8.37584 0
M  V30 3387 H 463.323 -3.73517 9.52265 0
M  V30 3388 H 461.693 -3.97163 8.80359 0
M  V30 3389 H 464.332 -4.90969 4.01921 0
M  V30 3390 P 466.19 -5.75688 6.64379 0
M  V30 3391 O 467.612 -6.11849 7.01846 0
M  V30 3392 O 465.83 -4.30744 6.56026 0
M  V30 3393 O 465.867 -6.37042 5.19165 0
M  V30 3394 C 465.707 -7.83578 5.16515 0
M  V30 3395 C 466.247 -8.33398 3.83019 0
M  V30 3396 O 465.191 -8.10074 3.01034 0
M  V30 3397 C 467.465 -7.65514 3.2257 0
M  V30 3398 O 468.203 -8.4329 2.32297 0
M  V30 3399 C 466.796 -6.40075 2.62207 0
M  V30 3400 O 467.595 -5.92589 1.53712 0
M  V30 3401 C 465.459 -6.9454 2.18503 0
M  V30 3402 H 465.491 -7.23063 1.12091 0
M  V30 3403 H 466.674 -5.6025 3.37201 0
M  V30 3404 H 468.158 -7.35707 4.02681 0
M  V30 3405 H 466.464 -9.40912 3.9095 0
M  V30 3406 H 466.274 -8.29056 5.99158 0
M  V30 3407 H 464.644 -8.10073 5.25882 0
M  V30 3408 H 467.283 -6.30324 0.726794 0
M  V30 3409 P 469.141 -8.4349 2.47671 0
M  V30 3410 O 470.562 -8.94263 2.59668 0
M  V30 3411 O 468.781 -7.1704 3.19006 0
M  V30 3412 O 468.818 -8.16596 0.923387 0
M  V30 3413 C 468.657 -9.38537 0.108869 0
M  V30 3414 C 469.198 -9.08175 -1.28353 0
M  V30 3415 O 468.143 -8.44131 -1.84692 0
M  V30 3416 C 470.416 -8.18386 -1.42505 0
M  V30 3417 O 471.154 -8.3501 -2.60497 0
M  V30 3418 C 469.748 -6.80225 -1.25468 0
M  V30 3419 O 470.546 -5.81716 -1.90454 0
M  V30 3420 C 468.41 -7.02416 -1.9168 0
M  V30 3421 N 467.367 -6.31033 -1.20314 0
M  V30 3422 C 467.536 -5.98817 0.0994088 0
M  V30 3423 N 466.509 -5.35403 0.621694 0
M  V30 3424 C 465.624 -5.25212 -0.43376 0
M  V30 3425 C 464.357 -4.64602 -0.519722 0
M  V30 3426 N 463.792 -4.7568 -1.76013 0
M  V30 3427 C 464.394 -5.3653 -2.83017 0
M  V30 3428 N 465.571 -5.93676 -2.79782 0
M  V30 3429 C 466.146 -5.84061 -1.56249 0
M  V30 3430 H 469.625 -6.53498 -0.198729 0
M  V30 3431 H 471.108 -8.36622 -0.589963 0
M  V30 3432 H 469.414 -10.0273 -1.8081 0
M  V30 3433 H 469.224 -10.2138 0.558219 0
M  V30 3434 H 467.594 -9.6579 0.0444202 0
M  V30 3435 H 468.436 -6.23209 0.660562 0
M  V30 3436 H 470.234 -5.69466 -2.79593 0
M  V30 3437 P 472.091 -8.4349 -2.47671 0
M  V30 3438 O 473.512 -8.92689 -2.65029 0
M  V30 3439 O 471.731 -7.7568 -1.19296 0
M  V30 3440 O 471.768 -7.36886 -3.63805 0
M  V30 3441 C 471.607 -7.95433 -4.98253 0
M  V30 3442 C 472.148 -6.94612 -5.98974 0
M  V30 3443 O 471.093 -6.10277 -6.11744 0
M  V30 3444 C 473.366 -6.11426 -5.62335 0
M  V30 3445 O 474.104 -5.6162 -6.70584 0
M  V30 3446 C 472.698 -5.04409 -4.73308 0
M  V30 3447 O 473.496 -3.86404 -4.74719 0
M  V30 3448 C 471.36 -4.8728 -5.41006 0
M  V30 3449 N 470.317 -4.65812 -4.42377 0
M  V30 3450 C 470.486 -5.09132 -3.15382 0
M  V30 3451 N 469.459 -4.84021 -2.3716 0
M  V30 3452 C 468.574 -4.18386 -3.20441 0
M  V30 3453 C 467.307 -3.6275 -2.94905 0
M  V30 3454 N 466.742 -3.05008 -4.05243 0
M  V30 3455 C 467.344 -2.98348 -5.28159 0
M  V30 3456 N 468.521 -3.48171 -5.56333 0
M  V30 3457 C 469.096 -4.06869 -4.47212 0
M  V30 3458 H 472.575 -5.39013 -3.70026 0
M  V30 3459 H 474.058 -6.71916 -5.01943 0
M  V30 3460 H 472.364 -7.45796 -6.94223 0
M  V30 3461 H 472.174 -8.89416 -5.05237 0
M  V30 3462 H 470.544 -8.14876 -5.18409 0
M  V30 3463 H 471.386 -5.59989 -2.81362 0
M  V30 3464 H 473.184 -3.27906 -5.43085 0
M  V30 3465 P 475.042 -5.75688 -6.64379 0
M  V30 3466 O 476.464 -6.07758 -7.05656 0
M  V30 3467 O 474.682 -5.88047 -5.19722 0
M  V30 3468 O 474.719 -4.2322 -7.04443 0
M  V30 3469 C 474.559 -3.99743 -8.4911 0
M  V30 3470 C 475.099 -2.60487 -8.79329 0
M  V30 3471 O 474.044 -1.82684 -8.4467 0
M  V30 3472 C 476.317 -2.10343 -8.03628 0
M  V30 3473 O 477.055 -1.09919 -8.67766 0
M  V30 3474 C 475.649 -1.68446 -6.70876 0
M  V30 3475 O 476.447 -0.678026 -6.08333 0
M  V30 3476 C 474.311 -1.17436 -7.18567 0
M  V30 3477 N 473.268 -1.52699 -6.23988 0
M  V30 3478 C 473.33 -2.68084 -5.57824 0
M  V30 3479 N 472.285 -2.8189 -4.75643 0
M  V30 3480 C 471.551 -1.72373 -4.95155 0
M  V30 3481 C 470.245 -1.37653 -4.44996 0
M  V30 3482 O 469.512 -2.02239 -3.68445 0
M  V30 3483 N 469.815 -0.17675 -4.90782 0
M  V30 3484 C 470.564 0.645036 -5.78716 0
M  V30 3485 N 469.967 1.84214 -6.10618 0
M  V30 3486 N 471.717 0.321732 -6.30279 0
M  V30 3487 C 472.174 -0.87502 -5.86913 0
M  V30 3488 H 474.343 -0.0804732 -7.31656 0
M  V30 3489 H 475.526 -2.53998 -6.02444 0
M  V30 3490 H 477.011 -2.93095 -7.8582 0
M  V30 3491 H 475.316 -2.53065 -9.86973 0
M  V30 3492 H 475.126 -4.75072 -9.05887 0
M  V30 3493 H 473.495 -4.05244 -8.76668 0
M  V30 3494 H 468.919 0.152143 -4.60849 0
M  V30 3495 H 474.126 -3.41852 -5.69006 0
M  V30 3496 H 469.056 2.08538 -5.69521 0
M  V30 3497 H 470.432 2.4895 -6.75698 0
M  V30 3498 H 476.136 0.177619 -6.34151 0
M  V30 3499 P 477.992 -1.25109 -8.70152 0
M  V30 3500 O 479.413 -1.29758 -9.22115 0
M  V30 3501 O 477.632 -2.13714 -7.55141 0
M  V30 3502 O 477.669 0.248149 -8.21425 0
M  V30 3503 C 477.508 1.22792 -9.30533 0
M  V30 3504 C 478.049 2.56293 -8.80664 0
M  V30 3505 O 476.994 3.02944 -8.09255 0
M  V30 3506 C 479.267 2.57523 -7.89775 0
M  V30 3507 O 480.005 3.7668 -7.89438 0
M  V30 3508 C 478.599 2.20997 -6.55446 0
M  V30 3509 O 479.397 2.71302 -5.48691 0
M  V30 3510 C 477.261 2.89693 -6.67988 0
M  V30 3511 N 476.218 2.08895 -6.07487 0
M  V30 3512 C 476.387 0.753809 -5.94137 0
M  V30 3513 N 475.36 0.146592 -5.38801 0
M  V30 3514 C 474.475 1.1768 -5.13693 0
M  V30 3515 C 473.208 1.17563 -4.52477 0
M  V30 3516 N 472.643 2.41918 -4.45789 0
M  V30 3517 C 473.245 3.56493 -4.90792 0
M  V30 3518 N 474.422 3.61423 -5.47817 0
M  V30 3519 C 474.997 2.37779 -5.5588 0
M  V30 3520 H 478.476 1.12673 -6.44018 0
M  V30 3521 H 479.959 1.7746 -8.19711 0
M  V30 3522 H 478.265 3.21673 -9.66791 0
M  V30 3523 H 478.075 0.901032 -10.1892 0
M  V30 3524 H 476.445 1.33049 -9.56592 0
M  V30 3525 H 477.287 0.233081 -6.26266 0
M  V30 3526 H 479.085 3.5779 -5.23879 0
M  V30 3527 P 480.943 3.65191 -7.99657 0
M  V30 3528 O 482.365 3.89332 -8.45794 0
M  V30 3529 O 480.583 2.28472 -7.50807 0
M  V30 3530 O 480.62 4.64972 -6.77611 0
M  V30 3531 C 480.46 6.06319 -7.16352 0
M  V30 3532 C 481 6.91731 -6.02299 0
M  V30 3533 O 479.944 6.92449 -5.17064 0
M  V30 3534 C 482.218 6.43627 -5.25174 0
M  V30 3535 O 482.956 7.43686 -4.60469 0
M  V30 3536 C 481.549 5.40275 -4.31916 0
M  V30 3537 O 482.348 5.25279 -3.14438 0
M  V30 3538 C 480.212 6.04847 -4.05327 0
M  V30 3539 H 480.244 6.62195 -3.11261 0
M  V30 3540 H 481.427 4.42556 -4.81383 0
M  V30 3541 H 482.911 5.92458 -5.93643 0
M  V30 3542 H 481.217 7.92655 -6.402 0
M  V30 3543 H 481.027 6.26671 -8.0846 0
M  V30 3544 H 479.397 6.29101 -7.32804 0
M  V30 3545 H 482.036 5.84315 -2.47318 0
M  V30 3546 P 483.893 7.39546 -4.75277 0
M  V30 3547 O 485.315 7.84798 -5.01039 0
M  V30 3548 O 483.533 5.9812 -5.08098 0
M  V30 3549 O 483.57 7.57503 -3.1866 0
M  V30 3550 C 483.41 8.97357 -2.74833 0
M  V30 3551 C 483.95 9.07548 -1.32709 0
M  V30 3552 O 482.894 8.62072 -0.606159 0
M  V30 3553 C 485.168 8.25383 -0.938334 0
M  V30 3554 O 485.906 8.74577 0.146954 0
M  V30 3555 C 484.499 6.8802 -0.712559 0
M  V30 3556 O 485.298 6.1189 0.194655 0
M  V30 3557 C 483.162 7.27966 -0.139777 0
M  V30 3558 H 483.194 7.25354 0.961601 0
M  V30 3559 H 484.377 6.32557 -1.65702 0
M  V30 3560 H 485.861 8.19355 -1.79097 0
M  V30 3561 H 484.167 10.1294 -1.10029 0
M  V30 3562 H 483.977 9.64276 -3.41316 0
M  V30 3563 H 482.347 9.25417 -2.76357 0
M  V30 3564 H 484.986 6.25267 1.07847 0
M  V30 3565 P 486.844 8.791 2.9035e-12 0
M  V30 3566 O 488.265 9.31196 0.027936 0
M  V30 3567 O 486.484 7.77869 -1.04071 0
M  V30 3568 O 486.521 8.09533 1.41463 0
M  V30 3569 C 486.36 9.03587 2.5397 0
M  V30 3570 C 486.901 8.35226 3.79016 0
M  V30 3571 O 485.846 7.57904 4.1503 0
M  V30 3572 C 488.119 7.45087 3.67298 0
M  V30 3573 O 488.857 7.27796 4.85194 0
M  V30 3574 C 487.451 6.17323 3.12027 0
M  V30 3575 O 488.249 5.04496 3.46627 0
M  V30 3576 C 486.113 6.19961 3.81809 0
M  V30 3577 N 485.07 5.71575 2.93223 0
M  V30 3578 C 485.239 5.77362 1.59168 0
M  V30 3579 N 484.212 5.3123 0.911893 0
M  V30 3580 C 483.327 4.91717 1.89588 0
M  V30 3581 C 482.06 4.3114 1.8076 0
M  V30 3582 N 481.495 4.06823 3.02898 0
M  V30 3583 C 482.097 4.35062 4.22711 0
M  V30 3584 N 483.274 4.90805 4.35707 0
M  V30 3585 C 483.849 5.16382 3.14469 0
M  V30 3586 H 487.328 6.21428 2.0318 0
M  V30 3587 H 488.811 7.86112 2.9231 0
M  V30 3588 H 487.117 9.11171 4.55987 0
M  V30 3589 H 486.927 9.9573 2.34194 0
M  V30 3590 H 485.297 9.2792 2.67832 0
M  V30 3591 H 486.139 6.16575 1.12198 0
M  V30 3592 H 487.937 4.67628 4.28704 0
M  V30 3593 P 489.795 7.39546 4.75277 0
M  V30 3594 O 491.217 7.81945 5.05847 0
M  V30 3595 O 489.435 7.1065 3.32998 0
M  V30 3596 O 489.472 6.04542 5.56673 0
M  V30 3597 C 489.312 6.22772 7.02095 0
M  V30 3598 C 489.852 4.97671 7.70322 0
M  V30 3599 O 488.797 4.13256 7.58987 0
M  V30 3600 C 491.07 4.28231 7.11815 0
M  V30 3601 O 491.808 3.49945 8.01648 0
M  V30 3602 C 490.402 3.5063 5.96244 0
M  V30 3603 O 491.2 2.36443 5.64589 0
M  V30 3604 C 489.064 3.15122 6.56374 0
M  V30 3605 N 488.021 3.22311 5.55692 0
M  V30 3606 C 488.083 4.14382 4.59701 0
M  V30 3607 N 487.038 4.04476 3.76958 0
M  V30 3608 C 486.304 3.04892 4.26534 0
M  V30 3609 C 484.998 2.57447 3.88189 0
M  V30 3610 O 484.265 2.9785 2.96543 0
M  V30 3611 N 484.568 1.55228 4.65922 0
M  V30 3612 C 485.317 1.01152 5.73447 0
M  V30 3613 N 484.72 -0.0472117 6.37783 0
M  V30 3614 N 486.47 1.467 6.13813 0
M  V30 3615 C 486.927 2.4931 5.38487 0
M  V30 3616 H 489.096 2.13853 6.99751 0
M  V30 3617 H 490.279 4.13438 5.06482 0
M  V30 3618 H 491.764 5.02614 6.71414 0
M  V30 3619 H 490.069 5.20877 8.75697 0
M  V30 3620 H 489.879 7.11046 7.35349 0
M  V30 3621 H 488.248 6.35815 7.26986 0
M  V30 3622 H 483.672 1.15238 4.46468 0
M  V30 3623 H 488.879 4.88312 4.49647 0
M  V30 3624 H 483.809 -0.396382 6.05203 0
M  V30 3625 H 485.185 -0.484997 7.18465 0
M  V30 3626 H 490.889 1.61619 6.13468 0
M  V30 3627 P 492.745 3.65191 7.99657 0
M  V30 3628 O 494.167 3.8425 8.48115 0
M  V30 3629 O 492.385 4.17805 6.64342 0
M  V30 3630 O 492.422 2.07613 7.95143 0
M  V30 3631 C 492.262 1.44328 9.27336 0
M  V30 3632 C 492.802 0.0220036 9.17197 0
M  V30 3633 O 491.746 -0.626867 8.61923 0
M  V30 3634 C 494.02 -0.24586 8.30336 0
M  V30 3635 O 494.758 -1.39011 8.63583 0
M  V30 3636 C 493.351 -0.273849 6.91158 0
M  V30 3637 O 494.15 -1.06348 6.02892 0
M  V30 3638 C 492.014 -0.897649 7.22545 0
M  V30 3639 H 492.046 -1.9841 7.04286 0
M  V30 3640 H 493.229 0.739928 6.497 0
M  V30 3641 H 494.713 0.60668 8.36503 0
M  V30 3642 H 493.019 -0.352479 10.1829 0
M  V30 3643 H 492.829 2.00611 10.0304 0
M  V30 3644 H 491.199 1.41843 9.55327 0
M  V30 3645 H 493.838 -1.95734 6.03555 0
M  V30 3646 P 495.696 -1.25109 8.70152 0
M  V30 3647 O 497.118 -1.35274 9.21221 0
M  V30 3648 O 495.336 -0.0769065 7.84762 0
M  V30 3649 O 495.373 -2.55232 7.81161 0
M  V30 3650 C 495.213 -3.79939 8.58154 0
M  V30 3651 C 495.753 -4.94023 7.72785 0
M  V30 3652 O 494.697 -5.18726 6.91205 0
M  V30 3653 C 496.971 -4.69597 6.85231 0
M  V30 3654 O 497.709 -5.83832 6.51337 0
M  V30 3655 C 496.302 -3.96706 5.66633 0
M  V30 3656 O 497.101 -4.15414 4.49689 0
M  V30 3657 C 494.965 -4.66153 5.59313 0
M  V30 3658 H 494.997 -5.47679 4.85214 0
M  V30 3659 H 496.18 -2.89008 5.86566 0
M  V30 3660 H 497.664 -4.0121 7.36511 0
M  V30 3661 H 495.97 -5.80182 8.37584 0
M  V30 3662 H 495.78 -3.73517 9.52265 0
M  V30 3663 H 494.15 -3.97163 8.80359 0
M  V30 3664 H 496.789 -4.90969 4.01921 0
M  V30 3665 P 498.646 -5.75688 6.64379 0
M  V30 3666 O 500.067 -6.11915 7.01921 0
M  V30 3667 O 498.286 -4.30744 6.56026 0
M  V30 3668 O 498.323 -6.37042 5.19165 0
M  V30 3669 C 498.162 -7.83662 5.1657 0
M  V30 3670 C 498.703 -8.33398 3.83019 0
M  V30 3671 O 497.648 -8.0998 3.00999 0
M  V30 3672 C 499.921 -7.65514 3.2257 0
M  V30 3673 O 500.659 -8.4329 2.32297 0
M  V30 3674 C 499.253 -6.40075 2.62207 0
M  V30 3675 O 500.051 -5.92338 1.5428 0
M  V30 3676 C 497.915 -6.9454 2.18503 0
M  V30 3677 N 496.872 -5.95905 2.39948 0
M  V30 3678 C 497.041 -4.98383 3.32108 0
M  V30 3679 N 496.014 -4.16798 3.41761 0
M  V30 3680 C 495.129 -4.65287 2.47461 0
M  V30 3681 C 493.862 -4.18946 2.07461 0
M  V30 3682 N 493.297 -4.95327 1.09101 0
M  V30 3683 C 493.899 -6.04369 0.519812 0
M  V30 3684 N 495.076 -6.50694 0.855982 0
M  V30 3685 C 495.651 -5.75818 1.84322 0
M  V30 3686 H 499.13 -5.60502 3.36589 0
M  V30 3687 H 500.613 -7.35707 4.02681 0
M  V30 3688 H 498.919 -9.41302 3.90009 0
M  V30 3689 H 498.729 -8.29056 5.99158 0
M  V30 3690 H 497.099 -8.10073 5.25882 0
M  V30 3691 H 497.941 -4.88564 3.92502 0
M  V30 3692 H 499.739 -6.30224 0.72668 0
M  V30 3693 P 501.597 -8.4349 2.47671 0
M  V30 3694 O 503.019 -8.94167 2.5964 0
M  V30 3695 O 501.237 -7.1704 3.19006 0
M  V30 3696 O 501.274 -8.16596 0.923387 0
M  V30 3697 C 501.114 -9.38437 0.108857 0
M  V30 3698 C 501.654 -9.08175 -1.28353 0
M  V30 3699 O 500.598 -8.44229 -1.84713 0
M  V30 3700 C 502.872 -8.18386 -1.42505 0
M  V30 3701 O 503.61 -8.3501 -2.60497 0
M  V30 3702 C 502.203 -6.80225 -1.25468 0
M  V30 3703 O 503.002 -5.81621 -1.91066 0
M  V30 3704 C 500.866 -7.02416 -1.9168 0
M  V30 3705 H 500.898 -6.6888 -2.96621 0
M  V30 3706 H 502.081 -6.53617 -0.192223 0
M  V30 3707 H 503.565 -8.36622 -0.589963 0
M  V30 3708 H 501.871 -10.0291 -1.79807 0
M  V30 3709 H 501.681 -10.2138 0.558219 0
M  V30 3710 H 500.051 -9.6579 0.0444202 0
M  V30 3711 H 502.69 -5.69556 -2.79637 0
M  V30 3712 P 504.547 -8.4349 -2.47671 0
M  V30 3713 O 505.969 -8.92593 -2.65 0
M  V30 3714 O 504.187 -7.7568 -1.19296 0
M  V30 3715 O 504.224 -7.36886 -3.63805 0
M  V30 3716 C 504.064 -7.95349 -4.982 0
M  V30 3717 C 504.604 -6.94612 -5.98974 0
M  V30 3718 O 503.548 -6.10347 -6.11815 0
M  V30 3719 C 505.822 -6.11426 -5.62335 0
M  V30 3720 O 506.56 -5.6162 -6.70584 0
M  V30 3721 C 505.153 -5.04409 -4.73308 0
M  V30 3722 O 505.952 -3.85992 -4.75183 0
M  V30 3723 C 503.816 -4.8728 -5.41006 0
M  V30 3724 H 503.848 -4.02333 -6.11157 0
M  V30 3725 H 505.031 -5.39466 -3.69543 0
M  V30 3726 H 506.515 -6.71916 -5.01943 0
M  V30 3727 H 504.821 -7.4649 -6.93477 0
M  V30 3728 H 504.631 -8.89416 -5.05237 0
M  V30 3729 H 503.001 -8.14876 -5.18409 0
M  V30 3730 H 505.64 -3.27957 -5.4317 0
M  V30 3731 P 507.498 -5.75688 -6.64379 0
M  V30 3732 O 508.92 -6.07627 -7.05504 0
M  V30 3733 O 507.138 -5.88047 -5.19722 0
M  V30 3734 O 507.175 -4.2322 -7.04443 0
M  V30 3735 C 507.015 -3.99743 -8.4911 0
M  V30 3736 C 507.555 -2.60516 -8.79425 0
M  V30 3737 O 506.499 -1.82684 -8.4467 0
M  V30 3738 C 508.773 -2.10343 -8.03628 0
M  V30 3739 O 509.511 -1.09919 -8.67766 0
M  V30 3740 C 508.104 -1.68446 -6.70876 0
M  V30 3741 O 508.903 -0.678137 -6.08433 0
M  V30 3742 C 506.767 -1.17436 -7.18567 0
M  V30 3743 H 506.799 -0.0804732 -7.31656 0
M  V30 3744 H 507.982 -2.54037 -6.02537 0
M  V30 3745 H 509.466 -2.93881 -7.85526 0
M  V30 3746 H 507.772 -2.53065 -9.86973 0
M  V30 3747 H 507.582 -4.75072 -9.05887 0
M  V30 3748 H 505.952 -4.05244 -8.76668 0
M  V30 3749 H 508.591 0.177647 -6.34251 0
M  V30 3750 P 510.449 -1.25109 -8.70152 0
M  V30 3751 O 511.871 -1.29744 -9.22016 0
M  V30 3752 O 510.089 -2.13714 -7.55141 0
M  V30 3753 O 510.126 0.248149 -8.21425 0
M  V30 3754 C 509.966 1.22779 -9.30434 0
M  V30 3755 C 510.506 2.56293 -8.80664 0
M  V30 3756 O 509.45 3.02979 -8.09349 0
M  V30 3757 C 511.724 2.57523 -7.89775 0
M  V30 3758 O 512.462 3.7668 -7.89438 0
M  V30 3759 C 511.055 2.20997 -6.55446 0
M  V30 3760 O 511.854 2.71895 -5.48509 0
M  V30 3761 C 509.718 2.89693 -6.67988 0
M  V30 3762 H 509.75 3.88793 -6.19859 0
M  V30 3763 H 510.933 1.12046 -6.44229 0
M  V30 3764 H 512.417 1.7746 -8.19711 0
M  V30 3765 H 510.723 3.20706 -9.67112 0
M  V30 3766 H 510.533 0.901032 -10.1892 0
M  V30 3767 H 508.903 1.33049 -9.56592 0
M  V30 3768 H 511.542 3.57847 -5.23962 0
M  V30 3769 P 513.399 3.65191 -7.99657 0
M  V30 3770 O 514.821 3.89332 -8.45794 0
M  V30 3771 O 513.039 2.28472 -7.50807 0
M  V30 3772 O 513.076 4.64972 -6.77611 0
M  V30 3773 C 512.916 6.06319 -7.16352 0
M  V30 3774 C 513.456 6.91731 -6.02299 0
M  V30 3775 O 512.4 6.92449 -5.17064 0
M  V30 3776 C 514.674 6.43627 -5.25174 0
M  V30 3777 O 515.412 7.43686 -4.60469 0
M  V30 3778 C 514.005 5.40275 -4.31916 0
M  V30 3779 O 514.804 5.25279 -3.14438 0
M  V30 3780 C 512.668 6.04847 -4.05327 0
M  V30 3781 H 512.7 6.62195 -3.11261 0
M  V30 3782 H 513.883 4.42556 -4.81383 0
M  V30 3783 H 515.367 5.92458 -5.93643 0
M  V30 3784 H 513.673 7.92655 -6.402 0
M  V30 3785 H 513.483 6.26671 -8.0846 0
M  V30 3786 H 511.853 6.29101 -7.32804 0
M  V30 3787 H 514.492 5.84315 -2.47318 0
M  V30 3788 P 516.35 7.39546 -4.75277 0
M  V30 3789 O 517.772 7.84798 -5.01039 0
M  V30 3790 O 515.99 5.9812 -5.08098 0
M  V30 3791 O 516.027 7.57503 -3.1866 0
M  V30 3792 C 515.867 8.97357 -2.74833 0
M  V30 3793 C 516.407 9.07548 -1.32709 0
M  V30 3794 O 515.351 8.62072 -0.606159 0
M  V30 3795 C 517.625 8.25383 -0.938334 0
M  V30 3796 O 518.363 8.74577 0.146954 0
M  V30 3797 C 516.956 6.8802 -0.712559 0
M  V30 3798 O 517.755 6.1189 0.194655 0
M  V30 3799 C 515.619 7.27966 -0.139777 0
M  V30 3800 H 515.651 7.25354 0.961601 0
M  V30 3801 H 516.834 6.32557 -1.65702 0
M  V30 3802 H 518.318 8.19355 -1.79097 0
M  V30 3803 H 516.624 10.1294 -1.10029 0
M  V30 3804 H 516.434 9.64276 -3.41316 0
M  V30 3805 H 514.804 9.25417 -2.76357 0
M  V30 3806 H 517.443 6.25267 1.07847 0
M  V30 3807 P 519.3 8.791 3.21367e-12 0
M  V30 3808 O 520.722 9.31096 0.027933 0
M  V30 3809 O 518.94 7.77869 -1.04071 0
M  V30 3810 O 518.977 8.09533 1.41463 0
M  V30 3811 C 518.817 9.0349 2.53943 0
M  V30 3812 C 519.357 8.35226 3.79016 0
M  V30 3813 O 518.301 7.57992 4.15078 0
M  V30 3814 C 520.575 7.45087 3.67298 0
M  V30 3815 O 521.313 7.27796 4.85194 0
M  V30 3816 C 519.906 6.17323 3.12027 0
M  V30 3817 O 520.705 5.04231 3.47188 0
M  V30 3818 C 518.569 6.19961 3.81809 0
M  V30 3819 H 518.601 5.58218 4.73051 0
M  V30 3820 H 519.784 6.21726 2.02589 0
M  V30 3821 H 521.268 7.86112 2.9231 0
M  V30 3822 H 519.574 9.11627 4.55076 0
M  V30 3823 H 519.384 9.9573 2.34194 0
M  V30 3824 H 517.754 9.2792 2.67832 0
M  V30 3825 H 520.393 4.67702 4.28772 0
M  V30 3826 P 522.251 7.39546 4.75277 0
M  V30 3827 O 523.673 7.81777 5.05738 0
M  V30 3828 O 521.891 7.1065 3.32998 0
M  V30 3829 O 521.928 6.04542 5.56673 0
M  V30 3830 C 521.768 6.22772 7.02095 0
M  V30 3831 C 522.308 4.97725 7.70406 0
M  V30 3832 O 521.252 4.13256 7.58987 0
M  V30 3833 C 523.526 4.28231 7.11815 0
M  V30 3834 O 524.264 3.49945 8.01648 0
M  V30 3835 C 522.857 3.5063 5.96244 0
M  V30 3836 O 523.656 2.36482 5.64681 0
M  V30 3837 C 521.52 3.15122 6.56374 0
M  V30 3838 H 521.552 2.13853 6.99751 0
M  V30 3839 H 522.735 4.13501 5.06559 0
M  V30 3840 H 524.219 5.03285 6.70911 0
M  V30 3841 H 522.525 5.20877 8.75697 0
M  V30 3842 H 522.335 7.11046 7.35349 0
M  V30 3843 H 520.705 6.35815 7.26986 0
M  V30 3844 H 523.344 1.61644 6.13565 0
M  V30 3845 P 525.201 3.65191 7.99657 0
M  V30 3846 O 526.623 3.8425 8.48115 0
M  V30 3847 O 524.841 4.17805 6.64342 0
M  V30 3848 O 524.878 2.07613 7.95143 0
M  V30 3849 C 524.718 1.44328 9.27336 0
M  V30 3850 C 525.258 0.0220036 9.17197 0
M  V30 3851 O 524.202 -0.626867 8.61923 0
M  V30 3852 C 526.476 -0.24586 8.30336 0
M  V30 3853 O 527.214 -1.39011 8.63583 0
M  V30 3854 C 525.807 -0.273849 6.91158 0
M  V30 3855 O 526.606 -1.06348 6.02892 0
M  V30 3856 C 524.47 -0.897649 7.22545 0
M  V30 3857 H 524.502 -1.9841 7.04286 0
M  V30 3858 H 525.685 0.739928 6.497 0
M  V30 3859 H 527.169 0.60668 8.36503 0
M  V30 3860 H 525.475 -0.352479 10.1829 0
M  V30 3861 H 525.285 2.00611 10.0304 0
M  V30 3862 H 523.655 1.41843 9.55327 0
M  V30 3863 H 526.294 -1.95734 6.03555 0
M  V30 3864 P 528.152 -1.25109 8.70152 0
M  V30 3865 O 529.574 -1.35274 9.21221 0
M  V30 3866 O 527.792 -0.0769065 7.84762 0
M  V30 3867 O 527.829 -2.55232 7.81161 0
M  V30 3868 C 527.669 -3.79939 8.58154 0
M  V30 3869 C 528.209 -4.94023 7.72785 0
M  V30 3870 O 527.153 -5.18726 6.91205 0
M  V30 3871 C 529.427 -4.69597 6.85231 0
M  V30 3872 O 530.165 -5.83832 6.51337 0
M  V30 3873 C 528.758 -3.96706 5.66633 0
M  V30 3874 O 529.557 -4.15414 4.49689 0
M  V30 3875 C 527.421 -4.66153 5.59313 0
M  V30 3876 H 527.453 -5.47679 4.85214 0
M  V30 3877 H 528.636 -2.89008 5.86566 0
M  V30 3878 H 530.12 -4.0121 7.36511 0
M  V30 3879 H 528.426 -5.80182 8.37584 0
M  V30 3880 H 528.236 -3.73517 9.52265 0
M  V30 3881 H 526.606 -3.97163 8.80359 0
M  V30 3882 H 529.245 -4.90969 4.01921 0
M  V30 3883 P 531.103 -5.75688 6.64379 0
M  V30 3884 O 532.525 -6.11849 7.01846 0
M  V30 3885 O 530.743 -4.30744 6.56026 0
M  V30 3886 O 530.78 -6.37042 5.19165 0
M  V30 3887 C 530.62 -7.83578 5.16515 0
M  V30 3888 C 531.16 -8.33398 3.83019 0
M  V30 3889 O 530.104 -8.10074 3.01034 0
M  V30 3890 C 532.378 -7.65514 3.2257 0
M  V30 3891 O 533.116 -8.4329 2.32297 0
M  V30 3892 C 531.709 -6.40075 2.62207 0
M  V30 3893 O 532.508 -5.92589 1.53712 0
M  V30 3894 C 530.372 -6.9454 2.18503 0
M  V30 3895 H 530.404 -7.23063 1.12091 0
M  V30 3896 H 531.587 -5.6025 3.37201 0
M  V30 3897 H 533.071 -7.35707 4.02681 0
M  V30 3898 H 531.377 -9.40912 3.9095 0
M  V30 3899 H 531.187 -8.29056 5.99158 0
M  V30 3900 H 529.557 -8.10073 5.25882 0
M  V30 3901 H 532.196 -6.30324 0.726794 0
M  V30 3902 P 534.053 -8.4349 2.47671 0
M  V30 3903 O 535.475 -8.94167 2.5964 0
M  V30 3904 O 533.693 -7.1704 3.19006 0
M  V30 3905 O 533.73 -8.16596 0.923387 0
M  V30 3906 C 533.57 -9.38437 0.108857 0
M  V30 3907 C 534.11 -9.08175 -1.28353 0
M  V30 3908 O 533.054 -8.44229 -1.84713 0
M  V30 3909 C 535.328 -8.18386 -1.42505 0
M  V30 3910 O 536.066 -8.3501 -2.60497 0
M  V30 3911 C 534.659 -6.80225 -1.25468 0
M  V30 3912 O 535.458 -5.81621 -1.91066 0
M  V30 3913 C 533.322 -7.02416 -1.9168 0
M  V30 3914 H 533.354 -6.6888 -2.96621 0
M  V30 3915 H 534.537 -6.53617 -0.192223 0
M  V30 3916 H 536.021 -8.36622 -0.589963 0
M  V30 3917 H 534.327 -10.0291 -1.79807 0
M  V30 3918 H 534.137 -10.2138 0.558219 0
M  V30 3919 H 532.507 -9.6579 0.0444202 0
M  V30 3920 H 535.146 -5.69556 -2.79637 0
M  V30 3921 P 537.004 -8.4349 -2.47671 0
M  V30 3922 O 538.426 -8.92593 -2.65 0
M  V30 3923 O 536.644 -7.7568 -1.19296 0
M  V30 3924 O 536.681 -7.36886 -3.63805 0
M  V30 3925 C 536.521 -7.95349 -4.982 0
M  V30 3926 C 537.061 -6.94612 -5.98974 0
M  V30 3927 O 536.005 -6.10347 -6.11815 0
M  V30 3928 C 538.279 -6.11426 -5.62335 0
M  V30 3929 O 539.017 -5.6162 -6.70584 0
M  V30 3930 C 537.61 -5.04409 -4.73308 0
M  V30 3931 O 538.409 -3.85992 -4.75183 0
M  V30 3932 C 536.273 -4.8728 -5.41006 0
M  V30 3933 H 536.305 -4.02333 -6.11157 0
M  V30 3934 H 537.488 -5.39466 -3.69543 0
M  V30 3935 H 538.972 -6.71916 -5.01943 0
M  V30 3936 H 537.278 -7.4649 -6.93477 0
M  V30 3937 H 537.088 -8.89416 -5.05237 0
M  V30 3938 H 535.458 -8.14876 -5.18409 0
M  V30 3939 H 538.097 -3.27957 -5.4317 0
M  V30 3940 P 539.954 -5.75688 -6.64379 0
M  V30 3941 O 541.376 -6.07758 -7.05656 0
M  V30 3942 O 539.594 -5.88047 -5.19722 0
M  V30 3943 O 539.631 -4.2322 -7.04443 0
M  V30 3944 C 539.471 -3.99743 -8.4911 0
M  V30 3945 C 540.011 -2.60487 -8.79329 0
M  V30 3946 O 538.956 -1.82684 -8.4467 0
M  V30 3947 C 541.229 -2.10343 -8.03628 0
M  V30 3948 O 541.967 -1.09919 -8.67766 0
M  V30 3949 C 540.561 -1.68446 -6.70876 0
M  V30 3950 O 541.359 -0.678026 -6.08333 0
M  V30 3951 C 539.223 -1.17436 -7.18567 0
M  V30 3952 N 538.18 -1.52699 -6.23988 0
M  V30 3953 C 538.242 -2.68084 -5.57824 0
M  V30 3954 N 537.197 -2.8189 -4.75643 0
M  V30 3955 C 536.463 -1.72373 -4.95155 0
M  V30 3956 C 535.157 -1.37653 -4.44996 0
M  V30 3957 O 534.424 -2.02239 -3.68445 0
M  V30 3958 N 534.727 -0.17675 -4.90782 0
M  V30 3959 C 535.476 0.645036 -5.78716 0
M  V30 3960 N 534.879 1.84214 -6.10618 0
M  V30 3961 N 536.629 0.321732 -6.30279 0
M  V30 3962 C 537.086 -0.87502 -5.86913 0
M  V30 3963 H 539.255 -0.0804732 -7.31656 0
M  V30 3964 H 540.438 -2.53998 -6.02444 0
M  V30 3965 H 541.923 -2.93095 -7.8582 0
M  V30 3966 H 540.228 -2.53065 -9.86973 0
M  V30 3967 H 540.038 -4.75072 -9.05887 0
M  V30 3968 H 538.407 -4.05244 -8.76668 0
M  V30 3969 H 533.831 0.152143 -4.60849 0
M  V30 3970 H 539.038 -3.41852 -5.69006 0
M  V30 3971 H 533.968 2.08538 -5.69521 0
M  V30 3972 H 535.344 2.4895 -6.75698 0
M  V30 3973 H 541.048 0.177619 -6.34151 0
M  V30 3974 P 542.905 -1.25109 -8.70152 0
M  V30 3975 O 544.306 -1.3516 -9.26897 0
M  V30 3976 O 542.527 -2.18141 -7.59181 0
M  V30 3977 O 542.582 0.248118 -8.21325 0
M  V30 3978 C 542.422 1.22779 -9.30434 0
M  V30 3979 C 542.962 2.56265 -8.80568 0
M  V30 3980 O 541.906 3.02944 -8.09255 0
M  V30 3981 C 544.179 2.57523 -7.89775 0
M  V30 3982 O 544.918 3.7668 -7.89438 0
M  V30 3983 C 543.512 2.20997 -6.55446 0
M  V30 3984 O 544.31 2.71851 -5.48419 0
M  V30 3985 C 542.174 2.89693 -6.67988 0
M  V30 3986 N 541.131 2.08895 -6.07487 0
M  V30 3987 C 540.096 2.72974 -5.43836 0
M  V30 3988 O 540.135 3.97779 -5.34036 0
M  V30 3989 N 539.084 2.0005 -4.91983 0
M  V30 3990 C 539.132 0.66501 -5.00098 0
M  V30 3991 C 540.228 -0.0100979 -5.61099 0
M  V30 3992 C 541.194 0.74189 -6.14236 0
M  V30 3993 H 542.206 3.8874 -6.19774 0
M  V30 3994 H 543.389 1.12673 -6.44018 0
M  V30 3995 H 544.873 1.783 -8.19631 0
M  V30 3996 H 543.179 3.21673 -9.66791 0
M  V30 3997 H 542.988 0.901032 -10.1892 0
M  V30 3998 H 541.358 1.33036 -9.56493 0
M  V30 3999 H 540.276 -1.09591 -5.64358 0
M  V30 4000 H 542.04 0.260263 -6.6359 0
M  V30 4001 H 544.094 3.62759 -5.33442 0
M  V30 4002 P 545.855 3.65191 -7.99657 0
M  V30 4003 O 547.277 3.89416 -8.45976 0
M  V30 4004 O 545.495 2.28472 -7.50807 0
M  V30 4005 O 545.532 4.64972 -6.77611 0
M  V30 4006 C 545.372 6.06319 -7.16352 0
M  V30 4007 C 545.912 6.91655 -6.02234 0
M  V30 4008 O 544.857 6.92449 -5.17064 0
M  V30 4009 C 547.13 6.43627 -5.25174 0
M  V30 4010 O 547.868 7.43686 -4.60469 0
M  V30 4011 C 546.462 5.40275 -4.31916 0
M  V30 4012 O 547.26 5.25193 -3.14386 0
M  V30 4013 C 545.124 6.04847 -4.05327 0
M  V30 4014 N 544.081 5.04166 -3.98114 0
M  V30 4015 C 544.143 3.96049 -4.75587 0
M  V30 4016 N 543.098 3.15559 -4.54006 0
M  V30 4017 C 542.364 3.78802 -3.62491 0
M  V30 4018 C 541.058 3.476 -3.10071 0
M  V30 4019 O 540.325 2.51136 -3.37021 0
M  V30 4020 N 540.628 4.39088 -2.19956 0
M  V30 4021 C 541.377 5.53215 -1.81733 0
M  V30 4022 N 540.78 6.31963 -0.860928 0
M  V30 4023 N 542.53 5.86688 -2.32562 0
M  V30 4024 C 542.987 4.97525 -3.23407 0
M  V30 4025 H 545.156 6.62195 -3.11261 0
M  V30 4026 H 546.339 4.42488 -4.8131 0
M  V30 4027 H 547.824 5.93051 -5.9305 0
M  V30 4028 H 546.129 7.92655 -6.402 0
M  V30 4029 H 545.939 6.26671 -8.0846 0
M  V30 4030 H 544.308 6.29101 -7.32804 0
M  V30 4031 H 539.732 4.25523 -1.77604 0
M  V30 4032 H 544.939 3.75576 -5.47333 0
M  V30 4033 H 539.869 6.04684 -0.468946 0
M  V30 4034 H 541.245 7.18054 -0.542422 0
M  V30 4035 H 546.949 5.84223 -2.47279 0
M  V30 4036 P 548.806 7.39546 -4.75277 0
M  V30 4037 O 550.228 7.84798 -5.01039 0
M  V30 4038 O 548.446 5.9812 -5.08098 0
M  V30 4039 O 548.483 7.57503 -3.1866 0
M  V30 4040 C 548.323 8.97357 -2.74833 0
M  V30 4041 C 548.863 9.07548 -1.32709 0
M  V30 4042 O 547.807 8.62072 -0.606159 0
M  V30 4043 C 550.081 8.25383 -0.938334 0
M  V30 4044 O 550.819 8.74577 0.146954 0
M  V30 4045 C 549.412 6.8802 -0.712559 0
M  V30 4046 O 550.211 6.1189 0.194655 0
M  V30 4047 C 548.075 7.27966 -0.139777 0
M  V30 4048 H 548.107 7.25354 0.961601 0
M  V30 4049 H 549.29 6.32557 -1.65702 0
M  V30 4050 H 550.774 8.19355 -1.79097 0
M  V30 4051 H 549.08 10.1294 -1.10029 0
M  V30 4052 H 548.89 9.64276 -3.41316 0
M  V30 4053 H 547.26 9.25417 -2.76357 0
M  V30 4054 H 549.899 6.25267 1.07847 0
M  V30 4055 P 551.757 8.791 3.52383e-12 0
M  V30 4056 O 553.158 9.36698 -0.018734 0
M  V30 4057 O 551.379 7.82499 -1.07878 0
M  V30 4058 O 551.434 8.09434 1.41446 0
M  V30 4059 C 551.274 9.0349 2.53943 0
M  V30 4060 C 551.814 8.35135 3.78975 0
M  V30 4061 O 550.758 7.57904 4.1503 0
M  V30 4062 C 553.031 7.45087 3.67298 0
M  V30 4063 O 553.77 7.27796 4.85194 0
M  V30 4064 C 552.364 6.17323 3.12027 0
M  V30 4065 O 553.162 5.04149 3.47132 0
M  V30 4066 C 551.026 6.19961 3.81809 0
M  V30 4067 N 549.983 5.71575 2.93223 0
M  V30 4068 C 548.948 4.99452 3.47592 0
M  V30 4069 O 548.987 4.7199 4.69732 0
M  V30 4070 N 547.936 4.58505 2.6803 0
M  V30 4071 C 547.984 4.85544 1.36995 0
M  V30 4072 C 549.08 5.55532 0.788532 0
M  V30 4073 C 550.046 5.97426 1.60849 0
M  V30 4074 H 551.058 5.58142 4.72986 0
M  V30 4075 H 552.241 6.21428 2.0318 0
M  V30 4076 H 553.725 7.85913 2.93131 0
M  V30 4077 H 552.031 9.11171 4.55987 0
M  V30 4078 H 551.84 9.9573 2.34194 0
M  V30 4079 H 550.21 9.27824 2.67805 0
M  V30 4080 H 549.128 5.7421 -0.281588 0
M  V30 4081 H 550.892 6.53132 1.202 0
M  V30 4082 H 552.946 4.76386 4.34983 0
M  V30 4083 P 554.707 7.39546 4.75277 0
M  V30 4084 O 556.129 7.81777 5.05738 0
M  V30 4085 O 554.347 7.1065 3.32998 0
M  V30 4086 O 554.384 6.04542 5.56673 0
M  V30 4087 C 554.224 6.22772 7.02095 0
M  V30 4088 C 554.764 4.97725 7.70406 0
M  V30 4089 O 553.708 4.13256 7.58987 0
M  V30 4090 C 555.982 4.28231 7.11815 0
M  V30 4091 O 556.72 3.49945 8.01648 0
M  V30 4092 C 555.313 3.5063 5.96244 0
M  V30 4093 O 556.112 2.36482 5.64681 0
M  V30 4094 C 553.976 3.15122 6.56374 0
M  V30 4095 H 554.008 2.13853 6.99751 0
M  V30 4096 H 555.191 4.13501 5.06559 0
M  V30 4097 H 556.675 5.03285 6.70911 0
M  V30 4098 H 554.981 5.20877 8.75697 0
M  V30 4099 H 554.791 7.11046 7.35349 0
M  V30 4100 H 553.161 6.35815 7.26986 0
M  V30 4101 H 555.8 1.61644 6.13565 0
M  V30 4102 P 557.658 3.65191 7.99657 0
M  V30 4103 O 559.08 3.8425 8.48115 0
M  V30 4104 O 557.298 4.17805 6.64342 0
M  V30 4105 O 557.335 2.07613 7.95143 0
M  V30 4106 C 557.175 1.44328 9.27336 0
M  V30 4107 C 557.715 0.0220036 9.17197 0
M  V30 4108 O 556.659 -0.626867 8.61923 0
M  V30 4109 C 558.933 -0.24586 8.30336 0
M  V30 4110 O 559.671 -1.39011 8.63583 0
M  V30 4111 C 558.264 -0.273849 6.91158 0
M  V30 4112 O 559.063 -1.06348 6.02892 0
M  V30 4113 C 556.927 -0.897649 7.22545 0
M  V30 4114 H 556.959 -1.9841 7.04286 0
M  V30 4115 H 558.142 0.739928 6.497 0
M  V30 4116 H 559.626 0.60668 8.36503 0
M  V30 4117 H 557.932 -0.352479 10.1829 0
M  V30 4118 H 557.742 2.00611 10.0304 0
M  V30 4119 H 556.112 1.41843 9.55327 0
M  V30 4120 H 558.751 -1.95734 6.03555 0
M  V30 4121 P 560.608 -1.25109 8.70152 0
M  V30 4122 O 562.03 -1.35274 9.21221 0
M  V30 4123 O 560.248 -0.0769065 7.84762 0
M  V30 4124 O 560.285 -2.55232 7.81161 0
M  V30 4125 C 560.125 -3.79939 8.58154 0
M  V30 4126 C 560.665 -4.94023 7.72785 0
M  V30 4127 O 559.609 -5.18726 6.91205 0
M  V30 4128 C 561.883 -4.69597 6.85231 0
M  V30 4129 O 562.621 -5.83832 6.51337 0
M  V30 4130 C 561.214 -3.96706 5.66633 0
M  V30 4131 O 562.013 -4.15414 4.49689 0
M  V30 4132 C 559.877 -4.66153 5.59313 0
M  V30 4133 H 559.909 -5.47679 4.85214 0
M  V30 4134 H 561.092 -2.89008 5.86566 0
M  V30 4135 H 562.576 -4.0121 7.36511 0
M  V30 4136 H 560.882 -5.80182 8.37584 0
M  V30 4137 H 560.692 -3.73517 9.52265 0
M  V30 4138 H 559.062 -3.97163 8.80359 0
M  V30 4139 H 561.701 -4.90969 4.01921 0
M  V30 4140 P 563.559 -5.75688 6.64379 0
M  V30 4141 O 564.981 -6.11849 7.01846 0
M  V30 4142 O 563.199 -4.30744 6.56026 0
M  V30 4143 O 563.236 -6.37042 5.19165 0
M  V30 4144 C 563.076 -7.83578 5.16515 0
M  V30 4145 C 563.616 -8.33398 3.83019 0
M  V30 4146 O 562.56 -8.10074 3.01034 0
M  V30 4147 C 564.834 -7.65514 3.2257 0
M  V30 4148 O 565.572 -8.4329 2.32297 0
M  V30 4149 C 564.165 -6.40075 2.62207 0
M  V30 4150 O 564.964 -5.92589 1.53712 0
M  V30 4151 C 562.828 -6.9454 2.18503 0
M  V30 4152 H 562.86 -7.23063 1.12091 0
M  V30 4153 H 564.043 -5.6025 3.37201 0
M  V30 4154 H 565.527 -7.35707 4.02681 0
M  V30 4155 H 563.833 -9.40912 3.9095 0
M  V30 4156 H 563.643 -8.29056 5.99158 0
M  V30 4157 H 562.013 -8.10073 5.25882 0
M  V30 4158 H 564.652 -6.30324 0.726794 0
M  V30 4159 P 566.509 -8.4349 2.47671 0
M  V30 4160 O 567.931 -8.94167 2.5964 0
M  V30 4161 O 566.149 -7.1704 3.19006 0
M  V30 4162 O 566.186 -8.16596 0.923387 0
M  V30 4163 C 566.026 -9.38437 0.108857 0
M  V30 4164 C 566.566 -9.08175 -1.28353 0
M  V30 4165 O 565.51 -8.44229 -1.84713 0
M  V30 4166 C 567.784 -8.18386 -1.42505 0
M  V30 4167 O 568.522 -8.3501 -2.60497 0
M  V30 4168 C 567.115 -6.80225 -1.25468 0
M  V30 4169 O 567.914 -5.81621 -1.91066 0
M  V30 4170 C 565.778 -7.02416 -1.9168 0
M  V30 4171 H 565.81 -6.6888 -2.96621 0
M  V30 4172 H 566.993 -6.53617 -0.192223 0
M  V30 4173 H 568.477 -8.36622 -0.589963 0
M  V30 4174 H 566.783 -10.0291 -1.79807 0
M  V30 4175 H 566.593 -10.2138 0.558219 0
M  V30 4176 H 564.963 -9.6579 0.0444202 0
M  V30 4177 H 567.602 -5.69556 -2.79637 0
M  V30 4178 P 569.46 -8.4349 -2.47671 0
M  V30 4179 O 570.882 -8.92593 -2.65 0
M  V30 4180 O 569.1 -7.7568 -1.19296 0
M  V30 4181 O 569.137 -7.36886 -3.63805 0
M  V30 4182 C 568.977 -7.95349 -4.982 0
M  V30 4183 C 569.517 -6.94612 -5.98974 0
M  V30 4184 O 568.461 -6.10347 -6.11815 0
M  V30 4185 C 570.735 -6.11426 -5.62335 0
M  V30 4186 O 571.473 -5.6162 -6.70584 0
M  V30 4187 C 570.066 -5.04409 -4.73308 0
M  V30 4188 O 570.865 -3.85992 -4.75183 0
M  V30 4189 C 568.729 -4.8728 -5.41006 0
M  V30 4190 H 568.761 -4.02333 -6.11157 0
M  V30 4191 H 569.944 -5.39466 -3.69543 0
M  V30 4192 H 571.428 -6.71916 -5.01943 0
M  V30 4193 H 569.734 -7.4649 -6.93477 0
M  V30 4194 H 569.544 -8.89416 -5.05237 0
M  V30 4195 H 567.914 -8.14876 -5.18409 0
M  V30 4196 H 570.553 -3.27957 -5.4317 0
M  V30 4197 P 572.411 -5.75688 -6.64379 0
M  V30 4198 O 573.833 -6.07627 -7.05504 0
M  V30 4199 O 572.051 -5.88047 -5.19722 0
M  V30 4200 O 572.088 -4.2322 -7.04443 0
M  V30 4201 C 571.928 -3.99743 -8.4911 0
M  V30 4202 C 572.468 -2.60516 -8.79425 0
M  V30 4203 O 571.412 -1.82684 -8.4467 0
M  V30 4204 C 573.686 -2.10343 -8.03628 0
M  V30 4205 O 574.424 -1.09919 -8.67766 0
M  V30 4206 C 573.017 -1.68446 -6.70876 0
M  V30 4207 O 573.816 -0.678137 -6.08433 0
M  V30 4208 C 571.68 -1.17436 -7.18567 0
M  V30 4209 H 571.712 -0.0804732 -7.31656 0
M  V30 4210 H 572.895 -2.54037 -6.02537 0
M  V30 4211 H 574.379 -2.93881 -7.85526 0
M  V30 4212 H 572.685 -2.53065 -9.86973 0
M  V30 4213 H 572.495 -4.75072 -9.05887 0
M  V30 4214 H 570.865 -4.05244 -8.76668 0
M  V30 4215 H 573.504 0.177647 -6.34251 0
M  V30 4216 P 575.361 -1.25109 -8.70152 0
M  V30 4217 O 576.783 -1.29744 -9.22016 0
M  V30 4218 O 575.001 -2.13714 -7.55141 0
M  V30 4219 O 575.038 0.248149 -8.21425 0
M  V30 4220 C 574.878 1.22779 -9.30434 0
M  V30 4221 C 575.418 2.56293 -8.80664 0
M  V30 4222 O 574.362 3.02979 -8.09349 0
M  V30 4223 C 576.636 2.57523 -7.89775 0
M  V30 4224 O 577.374 3.7668 -7.89438 0
M  V30 4225 C 575.967 2.20997 -6.55446 0
M  V30 4226 O 576.766 2.71895 -5.48509 0
M  V30 4227 C 574.63 2.89693 -6.67988 0
M  V30 4228 H 574.662 3.88793 -6.19859 0
M  V30 4229 H 575.845 1.12046 -6.44229 0
M  V30 4230 H 577.329 1.7746 -8.19711 0
M  V30 4231 H 575.635 3.20706 -9.67112 0
M  V30 4232 H 575.445 0.901032 -10.1892 0
M  V30 4233 H 573.815 1.33049 -9.56592 0
M  V30 4234 H 576.454 3.57847 -5.23962 0
M  V30 4235 P 578.312 3.65191 -7.99657 0
M  V30 4236 O 579.734 3.89332 -8.45794 0
M  V30 4237 O 577.952 2.28472 -7.50807 0
M  V30 4238 O 577.989 4.64972 -6.77611 0
M  V30 4239 C 577.829 6.06319 -7.16352 0
M  V30 4240 C 578.369 6.91731 -6.02299 0
M  V30 4241 O 577.313 6.92449 -5.17064 0
M  V30 4242 C 579.587 6.43627 -5.25174 0
M  V30 4243 O 580.325 7.43686 -4.60469 0
M  V30 4244 C 578.918 5.40275 -4.31916 0
M  V30 4245 O 579.717 5.25279 -3.14438 0
M  V30 4246 C 577.581 6.04847 -4.05327 0
M  V30 4247 H 577.613 6.62195 -3.11261 0
M  V30 4248 H 578.796 4.42556 -4.81383 0
M  V30 4249 H 580.28 5.92458 -5.93643 0
M  V30 4250 H 578.586 7.92655 -6.402 0
M  V30 4251 H 578.396 6.26671 -8.0846 0
M  V30 4252 H 576.766 6.29101 -7.32804 0
M  V30 4253 H 579.405 5.84315 -2.47318 0
M  V30 4254 P 581.262 7.39546 -4.75277 0
M  V30 4255 O 582.684 7.84798 -5.01039 0
M  V30 4256 O 580.902 5.9812 -5.08098 0
M  V30 4257 O 580.939 7.57503 -3.1866 0
M  V30 4258 C 580.779 8.97357 -2.74833 0
M  V30 4259 C 581.319 9.07548 -1.32709 0
M  V30 4260 O 580.263 8.62072 -0.606159 0
M  V30 4261 C 582.537 8.25383 -0.938334 0
M  V30 4262 O 583.275 8.74577 0.146954 0
M  V30 4263 C 581.868 6.8802 -0.712559 0
M  V30 4264 O 582.667 6.1189 0.194655 0
M  V30 4265 C 580.531 7.27966 -0.139777 0
M  V30 4266 H 580.563 7.25354 0.961601 0
M  V30 4267 H 581.746 6.32557 -1.65702 0
M  V30 4268 H 583.23 8.19355 -1.79097 0
M  V30 4269 H 581.536 10.1294 -1.10029 0
M  V30 4270 H 581.346 9.64276 -3.41316 0
M  V30 4271 H 579.716 9.25417 -2.76357 0
M  V30 4272 H 582.355 6.25267 1.07847 0
M  V30 4273 P 584.213 8.791 3.834e-12 0
M  V30 4274 O 585.635 9.31096 0.027933 0
M  V30 4275 O 583.853 7.77869 -1.04071 0
M  V30 4276 O 583.89 8.09533 1.41463 0
M  V30 4277 C 583.73 9.0349 2.53943 0
M  V30 4278 C 584.27 8.35226 3.79016 0
M  V30 4279 O 583.214 7.57992 4.15078 0
M  V30 4280 C 585.488 7.45087 3.67298 0
M  V30 4281 O 586.226 7.27796 4.85194 0
M  V30 4282 C 584.819 6.17323 3.12027 0
M  V30 4283 O 585.618 5.04231 3.47188 0
M  V30 4284 C 583.482 6.19961 3.81809 0
M  V30 4285 H 583.514 5.58218 4.73051 0
M  V30 4286 H 584.697 6.21726 2.02589 0
M  V30 4287 H 586.181 7.86112 2.9231 0
M  V30 4288 H 584.487 9.11627 4.55076 0
M  V30 4289 H 584.297 9.9573 2.34194 0
M  V30 4290 H 582.667 9.2792 2.67832 0
M  V30 4291 H 585.306 4.67702 4.28772 0
M  V30 4292 P 587.163 7.39546 4.75277 0
M  V30 4293 O 588.585 7.81777 5.05738 0
M  V30 4294 O 586.803 7.1065 3.32998 0
M  V30 4295 O 586.84 6.04542 5.56673 0
M  V30 4296 C 586.68 6.22772 7.02095 0
M  V30 4297 C 587.22 4.97725 7.70406 0
M  V30 4298 O 586.164 4.13256 7.58987 0
M  V30 4299 C 588.438 4.28231 7.11815 0
M  V30 4300 O 589.176 3.49945 8.01648 0
M  V30 4301 C 587.769 3.5063 5.96244 0
M  V30 4302 O 588.568 2.36482 5.64681 0
M  V30 4303 C 586.432 3.15122 6.56374 0
M  V30 4304 H 586.464 2.13853 6.99751 0
M  V30 4305 H 587.647 4.13501 5.06559 0
M  V30 4306 H 589.131 5.03285 6.70911 0
M  V30 4307 H 587.437 5.20877 8.75697 0
M  V30 4308 H 587.247 7.11046 7.35349 0
M  V30 4309 H 585.617 6.35815 7.26986 0
M  V30 4310 H 588.256 1.61644 6.13565 0
M  V30 4311 P 590.114 3.65191 7.99657 0
M  V30 4312 O 591.536 3.8425 8.48115 0
M  V30 4313 O 589.754 4.17805 6.64342 0
M  V30 4314 O 589.791 2.07613 7.95143 0
M  V30 4315 C 589.631 1.44328 9.27336 0
M  V30 4316 C 590.171 0.0220036 9.17197 0
M  V30 4317 O 589.115 -0.626867 8.61923 0
M  V30 4318 C 591.389 -0.24586 8.30336 0
M  V30 4319 O 592.127 -1.39011 8.63583 0
M  V30 4320 C 590.72 -0.273849 6.91158 0
M  V30 4321 O 591.519 -1.06348 6.02892 0
M  V30 4322 C 589.383 -0.897649 7.22545 0
M  V30 4323 H 589.415 -1.9841 7.04286 0
M  V30 4324 H 590.598 0.739928 6.497 0
M  V30 4325 H 592.082 0.60668 8.36503 0
M  V30 4326 H 590.388 -0.352479 10.1829 0
M  V30 4327 H 590.198 2.00611 10.0304 0
M  V30 4328 H 588.568 1.41843 9.55327 0
M  V30 4329 H 591.207 -1.95734 6.03555 0
M  V30 4330 P 593.065 -1.25109 8.70152 0
M  V30 4331 O 594.487 -1.35274 9.21221 0
M  V30 4332 O 592.705 -0.0769065 7.84762 0
M  V30 4333 O 592.742 -2.55232 7.81161 0
M  V30 4334 C 592.582 -3.79939 8.58154 0
M  V30 4335 C 593.122 -4.94023 7.72785 0
M  V30 4336 O 592.066 -5.18726 6.91205 0
M  V30 4337 C 594.34 -4.69597 6.85231 0
M  V30 4338 O 595.078 -5.83832 6.51337 0
M  V30 4339 C 593.671 -3.96706 5.66633 0
M  V30 4340 O 594.47 -4.15414 4.49689 0
M  V30 4341 C 592.334 -4.66153 5.59313 0
M  V30 4342 H 592.366 -5.47679 4.85214 0
M  V30 4343 H 593.549 -2.89008 5.86566 0
M  V30 4344 H 595.033 -4.0121 7.36511 0
M  V30 4345 H 593.339 -5.80182 8.37584 0
M  V30 4346 H 593.149 -3.73517 9.52265 0
M  V30 4347 H 591.519 -3.97163 8.80359 0
M  V30 4348 H 594.158 -4.90969 4.01921 0
M  V30 4349 P 596.015 -5.75688 6.64379 0
M  V30 4350 O 597.437 -6.11849 7.01846 0
M  V30 4351 O 595.655 -4.30744 6.56026 0
M  V30 4352 O 595.692 -6.37042 5.19165 0
M  V30 4353 C 595.532 -7.83578 5.16515 0
M  V30 4354 C 596.072 -8.33398 3.83019 0
M  V30 4355 O 595.016 -8.10074 3.01034 0
M  V30 4356 C 597.29 -7.65514 3.2257 0
M  V30 4357 O 598.028 -8.4329 2.32297 0
M  V30 4358 C 596.621 -6.40075 2.62207 0
M  V30 4359 O 597.42 -5.92589 1.53712 0
M  V30 4360 C 595.284 -6.9454 2.18503 0
M  V30 4361 H 595.316 -7.23063 1.12091 0
M  V30 4362 H 596.499 -5.6025 3.37201 0
M  V30 4363 H 597.983 -7.35707 4.02681 0
M  V30 4364 H 596.289 -9.40912 3.9095 0
M  V30 4365 H 596.099 -8.29056 5.99158 0
M  V30 4366 H 594.469 -8.10073 5.25882 0
M  V30 4367 H 597.108 -6.30324 0.726794 0
M  V30 4368 P 598.966 -8.4349 2.47671 0
M  V30 4369 O 600.388 -8.94359 2.59696 0
M  V30 4370 O 598.606 -7.1704 3.19006 0
M  V30 4371 O 598.643 -8.16596 0.923387 0
M  V30 4372 C 598.483 -9.38437 0.108857 0
M  V30 4373 C 599.023 -9.08076 -1.28339 0
M  V30 4374 O 597.968 -8.44229 -1.84713 0
M  V30 4375 C 600.241 -8.18386 -1.42505 0
M  V30 4376 O 600.979 -8.3501 -2.60497 0
M  V30 4377 C 599.573 -6.80225 -1.25468 0
M  V30 4378 O 600.371 -5.81526 -1.91035 0
M  V30 4379 C 598.235 -7.02416 -1.9168 0
M  V30 4380 N 597.192 -6.31033 -1.20314 0
M  V30 4381 C 597.254 -6.18781 0.121293 0
M  V30 4382 N 596.209 -5.49762 0.588272 0
M  V30 4383 C 595.475 -5.22015 -0.488988 0
M  V30 4384 C 594.169 -4.61966 -0.596448 0
M  V30 4385 O 593.436 -4.19162 0.309059 0
M  V30 4386 N 593.739 -4.53773 -1.878 0
M  V30 4387 C 594.488 -4.99623 -2.99082 0
M  V30 4388 N 593.891 -4.78912 -4.21227 0
M  V30 4389 N 595.641 -5.59957 -2.91093 0
M  V30 4390 C 596.098 -5.70225 -1.64218 0
M  V30 4391 H 598.267 -6.6888 -2.96621 0
M  V30 4392 H 599.45 -6.53517 -0.192194 0
M  V30 4393 H 600.935 -8.36563 -0.598329 0
M  V30 4394 H 599.24 -10.0291 -1.79807 0
M  V30 4395 H 599.05 -10.2138 0.558219 0
M  V30 4396 H 597.419 -9.6579 0.0444202 0
M  V30 4397 H 592.843 -4.12883 -2.05283 0
M  V30 4398 H 598.05 -6.59596 0.745856 0
M  V30 4399 H 592.98 -4.31425 -4.2628 0
M  V30 4400 H 594.356 -5.11219 -5.07148 0
M  V30 4401 H 600.06 -5.69466 -2.79593 0
M  V30 4402 P 601.916 -8.4349 -2.47671 0
M  V30 4403 O 603.338 -8.92593 -2.65 0
M  V30 4404 O 601.556 -7.7568 -1.19296 0
M  V30 4405 O 601.593 -7.36886 -3.63805 0
M  V30 4406 C 601.433 -7.95349 -4.982 0
M  V30 4407 C 601.973 -6.94612 -5.98974 0
M  V30 4408 O 600.917 -6.10347 -6.11815 0
M  V30 4409 C 603.191 -6.11426 -5.62335 0
M  V30 4410 O 603.929 -5.6162 -6.70584 0
M  V30 4411 C 602.522 -5.04409 -4.73308 0
M  V30 4412 O 603.321 -3.85992 -4.75183 0
M  V30 4413 C 601.185 -4.8728 -5.41006 0
M  V30 4414 H 601.217 -4.02333 -6.11157 0
M  V30 4415 H 602.4 -5.39466 -3.69543 0
M  V30 4416 H 603.884 -6.71916 -5.01943 0
M  V30 4417 H 602.19 -7.4649 -6.93477 0
M  V30 4418 H 602 -8.89416 -5.05237 0
M  V30 4419 H 600.37 -8.14876 -5.18409 0
M  V30 4420 H 603.009 -3.27957 -5.4317 0
M  V30 4421 P 604.867 -5.75688 -6.64379 0
M  V30 4422 O 606.289 -6.07627 -7.05504 0
M  V30 4423 O 604.507 -5.88047 -5.19722 0
M  V30 4424 O 604.544 -4.2322 -7.04443 0
M  V30 4425 C 604.384 -3.99743 -8.4911 0
M  V30 4426 C 604.924 -2.60516 -8.79425 0
M  V30 4427 O 603.868 -1.82684 -8.4467 0
M  V30 4428 C 606.142 -2.10343 -8.03628 0
M  V30 4429 O 606.88 -1.09919 -8.67766 0
M  V30 4430 C 605.473 -1.68446 -6.70876 0
M  V30 4431 O 606.272 -0.678137 -6.08433 0
M  V30 4432 C 604.136 -1.17436 -7.18567 0
M  V30 4433 H 604.168 -0.0804732 -7.31656 0
M  V30 4434 H 605.351 -2.54037 -6.02537 0
M  V30 4435 H 606.835 -2.93881 -7.85526 0
M  V30 4436 H 605.141 -2.53065 -9.86973 0
M  V30 4437 H 604.951 -4.75072 -9.05887 0
M  V30 4438 H 603.321 -4.05244 -8.76668 0
M  V30 4439 H 605.96 0.177647 -6.34251 0
M  V30 4440 P 607.817 -1.25109 -8.70152 0
M  V30 4441 O 609.239 -1.29744 -9.22016 0
M  V30 4442 O 607.457 -2.13714 -7.55141 0
M  V30 4443 O 607.494 0.248149 -8.21425 0
M  V30 4444 C 607.334 1.22779 -9.30434 0
M  V30 4445 C 607.874 2.56293 -8.80664 0
M  V30 4446 O 606.818 3.02979 -8.09349 0
M  V30 4447 C 609.092 2.57523 -7.89775 0
M  V30 4448 O 609.83 3.7668 -7.89438 0
M  V30 4449 C 608.423 2.20997 -6.55446 0
M  V30 4450 O 609.222 2.71895 -5.48509 0
M  V30 4451 C 607.086 2.89693 -6.67988 0
M  V30 4452 H 607.118 3.88793 -6.19859 0
M  V30 4453 H 608.301 1.12046 -6.44229 0
M  V30 4454 H 609.785 1.7746 -8.19711 0
M  V30 4455 H 608.091 3.20706 -9.67112 0
M  V30 4456 H 607.901 0.901032 -10.1892 0
M  V30 4457 H 606.271 1.33049 -9.56592 0
M  V30 4458 H 608.91 3.57847 -5.23962 0
M  V30 4459 P 610.768 3.65191 -7.99657 0
M  V30 4460 O 612.189 3.89374 -8.45885 0
M  V30 4461 O 610.408 2.28472 -7.50807 0
M  V30 4462 O 610.445 4.64972 -6.77611 0
M  V30 4463 C 610.284 6.06383 -7.16428 0
M  V30 4464 C 610.825 6.91731 -6.02299 0
M  V30 4465 O 609.77 6.92369 -5.17005 0
M  V30 4466 C 612.043 6.43627 -5.25174 0
M  V30 4467 O 612.781 7.43686 -4.60469 0
M  V30 4468 C 611.375 5.40275 -4.31916 0
M  V30 4469 O 612.173 5.24878 -3.14911 0
M  V30 4470 C 610.037 6.04847 -4.05327 0
M  V30 4471 N 608.994 5.04166 -3.98114 0
M  V30 4472 C 609.163 3.84629 -4.59066 0
M  V30 4473 N 608.136 3.0363 -4.45343 0
M  V30 4474 C 607.251 3.76722 -3.68523 0
M  V30 4475 C 605.984 3.43528 -3.17088 0
M  V30 4476 N 605.385 2.23665 -3.37397 0
M  V30 4477 N 605.419 4.44526 -2.44231 0
M  V30 4478 C 606.021 5.65243 -2.20146 0
M  V30 4479 N 607.198 6.00221 -2.65453 0
M  V30 4480 C 607.773 5.00564 -3.39083 0
M  V30 4481 H 610.069 6.62104 -3.11218 0
M  V30 4482 H 611.252 4.42969 -4.80867 0
M  V30 4483 H 612.735 5.92458 -5.93643 0
M  V30 4484 H 611.041 7.93295 -6.39407 0
M  V30 4485 H 610.851 6.26671 -8.0846 0
M  V30 4486 H 609.221 6.29101 -7.32804 0
M  V30 4487 H 605.485 6.36894 -1.5883 0
M  V30 4488 H 610.063 3.58193 -5.14248 0
M  V30 4489 H 604.455 2.05145 -2.97047 0
M  V30 4490 H 605.859 1.51255 -3.92998 0
M  V30 4491 H 611.861 5.84223 -2.47279 0
M  V30 4492 P 613.719 7.39546 -4.75277 0
M  V30 4493 O 615.14 7.84882 -5.01092 0
M  V30 4494 O 613.359 5.9812 -5.08098 0
M  V30 4495 O 613.396 7.57503 -3.1866 0
M  V30 4496 C 613.235 8.97452 -2.74862 0
M  V30 4497 C 613.776 9.07548 -1.32709 0
M  V30 4498 O 612.721 8.61972 -0.606089 0
M  V30 4499 C 614.994 8.25383 -0.938334 0
M  V30 4500 O 615.732 8.74577 0.146954 0
M  V30 4501 C 614.326 6.8802 -0.712559 0
M  V30 4502 O 615.124 6.1181 0.188505 0
M  V30 4503 C 612.988 7.27966 -0.139777 0
M  V30 4504 N 611.945 6.39368 -0.623421 0
M  V30 4505 C 612.114 5.71761 -1.78245 0
M  V30 4506 N 611.087 4.962 -2.10491 0
M  V30 4507 C 610.202 5.16158 -1.0635 0
M  V30 4508 C 608.935 4.60425 -0.810266 0
M  V30 4509 N 608.336 3.7057 -1.62914 0
M  V30 4510 N 608.37 5.06 0.348685 0
M  V30 4511 C 608.972 5.94532 1.20395 0
M  V30 4512 N 610.149 6.48452 1.01191 0
M  V30 4513 C 610.724 6.04423 -0.146291 0
M  V30 4514 H 613.02 7.25255 0.961469 0
M  V30 4515 H 614.203 6.32625 -1.65044 0
M  V30 4516 H 615.686 8.19355 -1.79097 0
M  V30 4517 H 613.992 10.1305 -1.09016 0
M  V30 4518 H 613.802 9.64276 -3.41316 0
M  V30 4519 H 612.172 9.25417 -2.76357 0
M  V30 4520 H 608.436 6.21659 2.10714 0
M  V30 4521 H 613.014 5.79354 -2.38959 0
M  V30 4522 H 607.406 3.33174 -1.38982 0
M  V30 4523 H 608.81 3.39714 -2.48836 0
M  V30 4524 H 614.812 6.25169 1.0783 0
M  V30 4525 P 616.669 8.791 4.14417e-12 0
M  V30 4526 O 618.091 9.31096 0.027933 0
M  V30 4527 O 616.309 7.77869 -1.04071 0
M  V30 4528 O 616.346 8.09533 1.41463 0
M  V30 4529 C 616.186 9.0349 2.53943 0
M  V30 4530 C 616.726 8.35226 3.79016 0
M  V30 4531 O 615.67 7.57992 4.15078 0
M  V30 4532 C 617.944 7.45087 3.67298 0
M  V30 4533 O 618.682 7.27796 4.85194 0
M  V30 4534 C 617.275 6.17323 3.12027 0
M  V30 4535 O 618.074 5.04231 3.47188 0
M  V30 4536 C 615.938 6.19961 3.81809 0
M  V30 4537 H 615.97 5.58218 4.73051 0
M  V30 4538 H 617.153 6.21726 2.02589 0
M  V30 4539 H 618.637 7.86112 2.9231 0
M  V30 4540 H 616.943 9.11627 4.55076 0
M  V30 4541 H 616.753 9.9573 2.34194 0
M  V30 4542 H 615.123 9.2792 2.67832 0
M  V30 4543 H 617.762 4.67702 4.28772 0
M  V30 4544 P 619.62 7.39546 4.75277 0
M  V30 4545 O 621.042 7.81777 5.05738 0
M  V30 4546 O 619.26 7.1065 3.32998 0
M  V30 4547 O 619.297 6.04542 5.56673 0
M  V30 4548 C 619.137 6.22772 7.02095 0
M  V30 4549 C 619.677 4.97725 7.70406 0
M  V30 4550 O 618.621 4.13256 7.58987 0
M  V30 4551 C 620.895 4.28231 7.11815 0
M  V30 4552 O 621.633 3.49945 8.01648 0
M  V30 4553 C 620.226 3.5063 5.96244 0
M  V30 4554 O 621.025 2.36482 5.64681 0
M  V30 4555 C 618.889 3.15122 6.56374 0
M  V30 4556 H 618.921 2.13853 6.99751 0
M  V30 4557 H 620.104 4.13501 5.06559 0
M  V30 4558 H 621.588 5.03285 6.70911 0
M  V30 4559 H 619.894 5.20877 8.75697 0
M  V30 4560 H 619.704 7.11046 7.35349 0
M  V30 4561 H 618.074 6.35815 7.26986 0
M  V30 4562 H 620.713 1.61644 6.13565 0
M  V30 4563 P 622.57 3.65191 7.99657 0
M  V30 4564 O 623.992 3.8425 8.48115 0
M  V30 4565 O 622.21 4.17805 6.64342 0
M  V30 4566 O 622.247 2.07613 7.95143 0
M  V30 4567 C 622.087 1.44328 9.27336 0
M  V30 4568 C 622.627 0.0220036 9.17197 0
M  V30 4569 O 621.571 -0.626867 8.61923 0
M  V30 4570 C 623.845 -0.24586 8.30336 0
M  V30 4571 O 624.583 -1.39011 8.63583 0
M  V30 4572 C 623.176 -0.273849 6.91158 0
M  V30 4573 O 623.975 -1.06348 6.02892 0
M  V30 4574 C 621.839 -0.897649 7.22545 0
M  V30 4575 H 621.871 -1.9841 7.04286 0
M  V30 4576 H 623.054 0.739928 6.497 0
M  V30 4577 H 624.538 0.60668 8.36503 0
M  V30 4578 H 622.844 -0.352479 10.1829 0
M  V30 4579 H 622.654 2.00611 10.0304 0
M  V30 4580 H 621.024 1.41843 9.55327 0
M  V30 4581 H 623.663 -1.95734 6.03555 0
M  V30 4582 P 625.521 -1.25109 8.70152 0
M  V30 4583 O 626.922 -1.31452 9.27431 0
M  V30 4584 O 625.143 -0.0458113 7.89887 0
M  V30 4585 O 625.198 -2.55201 7.81066 0
M  V30 4586 C 625.038 -3.79939 8.58154 0
M  V30 4587 C 625.578 -4.93969 7.72701 0
M  V30 4588 O 624.522 -5.18666 6.91125 0
M  V30 4589 C 626.795 -4.69597 6.85231 0
M  V30 4590 O 627.534 -5.83832 6.51337 0
M  V30 4591 C 626.128 -3.96706 5.66633 0
M  V30 4592 O 626.926 -4.15346 4.49615 0
M  V30 4593 C 624.79 -4.66153 5.59313 0
M  V30 4594 N 623.747 -3.71582 5.24027 0
M  V30 4595 C 622.712 -4.15133 4.44901 0
M  V30 4596 O 622.751 -5.32122 4.00336 0
M  V30 4597 N 621.7 -3.30554 4.15693 0
M  V30 4598 C 621.748 -2.04701 4.61105 0
M  V30 4599 C 622.844 -1.57111 5.38655 0
M  V30 4600 C 623.81 -2.44234 5.68454 0
M  V30 4601 H 624.822 -5.47604 4.85148 0
M  V30 4602 H 626.005 -2.8955 5.86187 0
M  V30 4603 H 627.489 -4.01995 7.36197 0
M  V30 4604 H 625.795 -5.81019 8.37003 0
M  V30 4605 H 625.604 -3.73517 9.52265 0
M  V30 4606 H 623.974 -3.97122 8.80267 0
M  V30 4607 H 622.892 -0.538464 5.72373 0
M  V30 4608 H 624.656 -2.11927 6.29377 0
M  V30 4609 H 626.71 -4.98352 4.09633 0
M  V30 4610 P 628.471 -5.75688 6.64379 0
M  V30 4611 O 629.893 -6.11849 7.01846 0
M  V30 4612 O 628.111 -4.30744 6.56026 0
M  V30 4613 O 628.148 -6.37042 5.19165 0
M  V30 4614 C 627.988 -7.83578 5.16515 0
M  V30 4615 C 628.528 -8.33398 3.83019 0
M  V30 4616 O 627.472 -8.10074 3.01034 0
M  V30 4617 C 629.746 -7.65514 3.2257 0
M  V30 4618 O 630.484 -8.4329 2.32297 0
M  V30 4619 C 629.077 -6.40075 2.62207 0
M  V30 4620 O 629.876 -5.92589 1.53712 0
M  V30 4621 C 627.74 -6.9454 2.18503 0
M  V30 4622 H 627.772 -7.23063 1.12091 0
M  V30 4623 H 628.955 -5.6025 3.37201 0
M  V30 4624 H 630.439 -7.35707 4.02681 0
M  V30 4625 H 628.745 -9.40912 3.9095 0
M  V30 4626 H 628.555 -8.29056 5.99158 0
M  V30 4627 H 626.925 -8.10073 5.25882 0
M  V30 4628 H 629.564 -6.30324 0.726794 0
M  V30 4629 P 631.422 -8.4349 2.47671 0
M  V30 4630 O 632.843 -8.94263 2.59668 0
M  V30 4631 O 631.062 -7.1704 3.19006 0
M  V30 4632 O 631.099 -8.16596 0.923387 0
M  V30 4633 C 630.938 -9.38537 0.108869 0
M  V30 4634 C 631.479 -9.08175 -1.28353 0
M  V30 4635 O 630.424 -8.44131 -1.84692 0
M  V30 4636 C 632.697 -8.18386 -1.42505 0
M  V30 4637 O 633.435 -8.3501 -2.60497 0
M  V30 4638 C 632.029 -6.80225 -1.25468 0
M  V30 4639 O 632.827 -5.81716 -1.90454 0
M  V30 4640 C 630.691 -7.02416 -1.9168 0
M  V30 4641 N 629.648 -6.31033 -1.20314 0
M  V30 4642 C 629.817 -5.98817 0.0994088 0
M  V30 4643 N 628.79 -5.35403 0.621694 0
M  V30 4644 C 627.905 -5.25212 -0.43376 0
M  V30 4645 C 626.638 -4.64602 -0.519722 0
M  V30 4646 N 626.039 -4.01457 0.519136 0
M  V30 4647 N 626.073 -4.7568 -1.76013 0
M  V30 4648 C 626.675 -5.3653 -2.83017 0
M  V30 4649 N 627.852 -5.93676 -2.79782 0
M  V30 4650 C 628.427 -5.84061 -1.56249 0
M  V30 4651 H 630.723 -6.68789 -2.9658 0
M  V30 4652 H 631.906 -6.53498 -0.198729 0
M  V30 4653 H 633.389 -8.36622 -0.589963 0
M  V30 4654 H 631.695 -10.0273 -1.8081 0
M  V30 4655 H 631.505 -10.2138 0.558219 0
M  V30 4656 H 629.875 -9.6579 0.0444202 0
M  V30 4657 H 626.139 -5.37113 -3.77321 0
M  V30 4658 H 630.717 -6.23209 0.660562 0
M  V30 4659 H 625.109 -3.58834 0.394862 0
M  V30 4660 H 626.513 -3.96059 1.43048 0
M  V30 4661 H 632.515 -5.69466 -2.79593 0
M  V30 4662 P 634.373 -8.4349 -2.47671 0
M  V30 4663 O 635.795 -8.92593 -2.65 0
M  V30 4664 O 634.013 -7.7568 -1.19296 0
M  V30 4665 O 634.05 -7.36886 -3.63805 0
M  V30 4666 C 633.89 -7.95349 -4.982 0
M  V30 4667 C 634.43 -6.94612 -5.98974 0
M  V30 4668 O 633.374 -6.10347 -6.11815 0
M  V30 4669 C 635.648 -6.11426 -5.62335 0
M  V30 4670 O 636.386 -5.6162 -6.70584 0
M  V30 4671 C 634.979 -5.04409 -4.73308 0
M  V30 4672 O 635.778 -3.85992 -4.75183 0
M  V30 4673 C 633.642 -4.8728 -5.41006 0
M  V30 4674 H 633.674 -4.02333 -6.11157 0
M  V30 4675 H 634.857 -5.39466 -3.69543 0
M  V30 4676 H 636.341 -6.71916 -5.01943 0
M  V30 4677 H 634.647 -7.4649 -6.93477 0
M  V30 4678 H 634.457 -8.89416 -5.05237 0
M  V30 4679 H 632.827 -8.14876 -5.18409 0
M  V30 4680 H 635.466 -3.27957 -5.4317 0
M  V30 4681 P 637.323 -5.75688 -6.64379 0
M  V30 4682 O 638.745 -6.07627 -7.05504 0
M  V30 4683 O 636.963 -5.88047 -5.19722 0
M  V30 4684 O 637 -4.2322 -7.04443 0
M  V30 4685 C 636.84 -3.99743 -8.4911 0
M  V30 4686 C 637.38 -2.60516 -8.79425 0
M  V30 4687 O 636.324 -1.82684 -8.4467 0
M  V30 4688 C 638.598 -2.10343 -8.03628 0
M  V30 4689 O 639.336 -1.09919 -8.67766 0
M  V30 4690 C 637.929 -1.68446 -6.70876 0
M  V30 4691 O 638.728 -0.678137 -6.08433 0
M  V30 4692 C 636.592 -1.17436 -7.18567 0
M  V30 4693 H 636.624 -0.0804732 -7.31656 0
M  V30 4694 H 637.807 -2.54037 -6.02537 0
M  V30 4695 H 639.291 -2.93881 -7.85526 0
M  V30 4696 H 637.597 -2.53065 -9.86973 0
M  V30 4697 H 637.407 -4.75072 -9.05887 0
M  V30 4698 H 635.777 -4.05244 -8.76668 0
M  V30 4699 H 638.416 0.177647 -6.34251 0
M  V30 4700 P 640.274 -1.25109 -8.70152 0
M  V30 4701 O 641.696 -1.29744 -9.22016 0
M  V30 4702 O 639.914 -2.13714 -7.55141 0
M  V30 4703 O 639.951 0.248149 -8.21425 0
M  V30 4704 C 639.791 1.22779 -9.30434 0
M  V30 4705 C 640.331 2.56293 -8.80664 0
M  V30 4706 O 639.275 3.02979 -8.09349 0
M  V30 4707 C 641.549 2.57523 -7.89775 0
M  V30 4708 O 642.287 3.7668 -7.89438 0
M  V30 4709 C 640.88 2.20997 -6.55446 0
M  V30 4710 O 641.679 2.71895 -5.48509 0
M  V30 4711 C 639.543 2.89693 -6.67988 0
M  V30 4712 H 639.575 3.88793 -6.19859 0
M  V30 4713 H 640.758 1.12046 -6.44229 0
M  V30 4714 H 642.242 1.7746 -8.19711 0
M  V30 4715 H 640.548 3.20706 -9.67112 0
M  V30 4716 H 640.358 0.901032 -10.1892 0
M  V30 4717 H 638.728 1.33049 -9.56592 0
M  V30 4718 H 641.367 3.57847 -5.23962 0
M  V30 4719 P 643.224 3.65191 -7.99657 0
M  V30 4720 O 644.646 3.89332 -8.45794 0
M  V30 4721 O 642.864 2.28472 -7.50807 0
M  V30 4722 O 642.901 4.64972 -6.77611 0
M  V30 4723 C 642.741 6.06319 -7.16352 0
M  V30 4724 C 643.281 6.91731 -6.02299 0
M  V30 4725 O 642.225 6.92449 -5.17064 0
M  V30 4726 C 644.499 6.43627 -5.25174 0
M  V30 4727 O 645.237 7.43686 -4.60469 0
M  V30 4728 C 643.83 5.40275 -4.31916 0
M  V30 4729 O 644.629 5.25279 -3.14438 0
M  V30 4730 C 642.493 6.04847 -4.05327 0
M  V30 4731 H 642.525 6.62195 -3.11261 0
M  V30 4732 H 643.708 4.42556 -4.81383 0
M  V30 4733 H 645.192 5.92458 -5.93643 0
M  V30 4734 H 643.498 7.92655 -6.402 0
M  V30 4735 H 643.308 6.26671 -8.0846 0
M  V30 4736 H 641.678 6.29101 -7.32804 0
M  V30 4737 H 644.317 5.84315 -2.47318 0
M  V30 4738 P 646.175 7.39546 -4.75277 0
M  V30 4739 O 647.597 7.84798 -5.01039 0
M  V30 4740 O 645.815 5.9812 -5.08098 0
M  V30 4741 O 645.852 7.57503 -3.1866 0
M  V30 4742 C 645.692 8.97357 -2.74833 0
M  V30 4743 C 646.232 9.07548 -1.32709 0
M  V30 4744 O 645.176 8.62072 -0.606159 0
M  V30 4745 C 647.45 8.25383 -0.938334 0
M  V30 4746 O 648.188 8.74577 0.146954 0
M  V30 4747 C 646.781 6.8802 -0.712559 0
M  V30 4748 O 647.58 6.1189 0.194655 0
M  V30 4749 C 645.444 7.27966 -0.139777 0
M  V30 4750 H 645.476 7.25354 0.961601 0
M  V30 4751 H 646.659 6.32557 -1.65702 0
M  V30 4752 H 648.143 8.19355 -1.79097 0
M  V30 4753 H 646.449 10.1294 -1.10029 0
M  V30 4754 H 646.259 9.64276 -3.41316 0
M  V30 4755 H 644.629 9.25417 -2.76357 0
M  V30 4756 H 647.268 6.25267 1.07847 0
M  V30 4757 P 649.125 8.791 4.45433e-12 0
M  V30 4758 O 650.546 9.31196 0.027936 0
M  V30 4759 O 648.765 7.77869 -1.04071 0
M  V30 4760 O 648.802 8.09533 1.41463 0
M  V30 4761 C 648.641 9.03587 2.5397 0
M  V30 4762 C 649.182 8.35226 3.79016 0
M  V30 4763 O 648.127 7.57904 4.1503 0
M  V30 4764 C 650.4 7.45087 3.67298 0
M  V30 4765 O 651.138 7.27796 4.85194 0
M  V30 4766 C 649.732 6.17323 3.12027 0
M  V30 4767 O 650.53 5.04496 3.46627 0
M  V30 4768 C 648.394 6.19961 3.81809 0
M  V30 4769 N 647.351 5.71575 2.93223 0
M  V30 4770 C 647.52 5.77362 1.59168 0
M  V30 4771 N 646.493 5.3123 0.911893 0
M  V30 4772 C 645.608 4.91717 1.89588 0
M  V30 4773 C 644.341 4.3114 1.8076 0
M  V30 4774 N 643.742 3.99821 0.632928 0
M  V30 4775 N 643.776 4.06823 3.02898 0
M  V30 4776 C 644.378 4.35062 4.22711 0
M  V30 4777 N 645.555 4.90805 4.35707 0
M  V30 4778 C 646.13 5.16382 3.14469 0
M  V30 4779 H 648.426 5.58142 4.72986 0
M  V30 4780 H 649.609 6.21428 2.0318 0
M  V30 4781 H 651.092 7.86112 2.9231 0
M  V30 4782 H 649.398 9.11171 4.55987 0
M  V30 4783 H 649.208 9.9573 2.34194 0
M  V30 4784 H 647.578 9.2792 2.67832 0
M  V30 4785 H 643.842 4.09052 5.13359 0
M  V30 4786 H 648.42 6.16575 1.12198 0
M  V30 4787 H 642.812 3.55423 0.632085 0
M  V30 4788 H 644.216 4.20317 -0.256712 0
M  V30 4789 H 650.218 4.67628 4.28704 0
M  V30 4790 P 652.076 7.39546 4.75277 0
M  V30 4791 O 653.498 7.81777 5.05738 0
M  V30 4792 O 651.716 7.1065 3.32998 0
M  V30 4793 O 651.753 6.04542 5.56673 0
M  V30 4794 C 651.593 6.22772 7.02095 0
M  V30 4795 C 652.133 4.97725 7.70406 0
M  V30 4796 O 651.077 4.13256 7.58987 0
M  V30 4797 C 653.351 4.28231 7.11815 0
M  V30 4798 O 654.089 3.49945 8.01648 0
M  V30 4799 C 652.682 3.5063 5.96244 0
M  V30 4800 O 653.481 2.36482 5.64681 0
M  V30 4801 C 651.345 3.15122 6.56374 0
M  V30 4802 H 651.377 2.13853 6.99751 0
M  V30 4803 H 652.56 4.13501 5.06559 0
M  V30 4804 H 654.044 5.03285 6.70911 0
M  V30 4805 H 652.35 5.20877 8.75697 0
M  V30 4806 H 652.16 7.11046 7.35349 0
M  V30 4807 H 650.53 6.35815 7.26986 0
M  V30 4808 H 653.169 1.61644 6.13565 0
M  V30 4809 P 655.027 3.65191 7.99657 0
M  V30 4810 O 656.449 3.8425 8.48115 0
M  V30 4811 O 654.667 4.17805 6.64342 0
M  V30 4812 O 654.704 2.07613 7.95143 0
M  V30 4813 C 654.544 1.44328 9.27336 0
M  V30 4814 C 655.084 0.0220036 9.17197 0
M  V30 4815 O 654.028 -0.626867 8.61923 0
M  V30 4816 C 656.302 -0.24586 8.30336 0
M  V30 4817 O 657.04 -1.39011 8.63583 0
M  V30 4818 C 655.633 -0.273849 6.91158 0
M  V30 4819 O 656.432 -1.06348 6.02892 0
M  V30 4820 C 654.296 -0.897649 7.22545 0
M  V30 4821 H 654.328 -1.9841 7.04286 0
M  V30 4822 H 655.511 0.739928 6.497 0
M  V30 4823 H 656.995 0.60668 8.36503 0
M  V30 4824 H 655.301 -0.352479 10.1829 0
M  V30 4825 H 655.111 2.00611 10.0304 0
M  V30 4826 H 653.481 1.41843 9.55327 0
M  V30 4827 H 656.12 -1.95734 6.03555 0
M  V30 4828 P 657.977 -1.25109 8.70152 0
M  V30 4829 O 659.399 -1.35303 9.21419 0
M  V30 4830 O 657.617 -0.0769065 7.84762 0
M  V30 4831 O 657.654 -2.55232 7.81161 0
M  V30 4832 C 657.494 -3.79939 8.58154 0
M  V30 4833 C 658.034 -4.93969 7.72701 0
M  V30 4834 O 656.979 -5.18726 6.91205 0
M  V30 4835 C 659.252 -4.69597 6.85231 0
M  V30 4836 O 659.99 -5.83832 6.51337 0
M  V30 4837 C 658.584 -3.96706 5.66633 0
M  V30 4838 O 659.382 -4.15346 4.49615 0
M  V30 4839 C 657.246 -4.66153 5.59313 0
M  V30 4840 N 656.203 -3.71582 5.24027 0
M  V30 4841 C 656.265 -2.46018 5.67902 0
M  V30 4842 N 655.22 -1.74868 5.24518 0
M  V30 4843 C 654.486 -2.61333 4.54528 0
M  V30 4844 C 653.18 -2.46162 3.95441 0
M  V30 4845 O 652.447 -1.46013 3.94122 0
M  V30 4846 N 652.75 -3.59334 3.34752 0
M  V30 4847 C 653.499 -4.79605 3.3023 0
M  V30 4848 N 652.902 -5.82109 2.6065 0
M  V30 4849 N 654.652 -4.97402 3.8843 0
M  V30 4850 C 655.109 -3.86258 4.50476 0
M  V30 4851 H 657.278 -5.47679 4.85214 0
M  V30 4852 H 658.461 -2.88964 5.86476 0
M  V30 4853 H 659.946 -4.01947 7.36109 0
M  V30 4854 H 658.251 -5.80182 8.37584 0
M  V30 4855 H 658.061 -3.73517 9.52265 0
M  V30 4856 H 656.43 -3.97163 8.80359 0
M  V30 4857 H 651.854 -3.5825 2.90294 0
M  V30 4858 H 657.061 -2.06161 6.30974 0
M  V30 4859 H 651.991 -5.66979 2.15354 0
M  V30 4860 H 653.367 -6.73686 2.54344 0
M  V30 4861 H 659.071 -4.90891 4.01857 0
M  V30 4862 P 660.928 -5.75688 6.64379 0
M  V30 4863 O 662.35 -6.11849 7.01846 0
M  V30 4864 O 660.568 -4.30744 6.56026 0
M  V30 4865 O 660.605 -6.37042 5.19165 0
M  V30 4866 C 660.445 -7.83578 5.16515 0
M  V30 4867 C 660.985 -8.33398 3.83019 0
M  V30 4868 O 659.929 -8.10074 3.01034 0
M  V30 4869 C 662.203 -7.65514 3.2257 0
M  V30 4870 O 662.941 -8.4329 2.32297 0
M  V30 4871 C 661.534 -6.40075 2.62207 0
M  V30 4872 O 662.333 -5.92589 1.53712 0
M  V30 4873 C 660.197 -6.9454 2.18503 0
M  V30 4874 H 660.229 -7.23063 1.12091 0
M  V30 4875 H 661.412 -5.6025 3.37201 0
M  V30 4876 H 662.896 -7.35707 4.02681 0
M  V30 4877 H 661.202 -9.40912 3.9095 0
M  V30 4878 H 661.012 -8.29056 5.99158 0
M  V30 4879 H 659.382 -8.10073 5.25882 0
M  V30 4880 H 662.021 -6.30324 0.726794 0
M  V30 4881 P 663.878 -8.4349 2.47671 0
M  V30 4882 O 665.3 -8.94167 2.5964 0
M  V30 4883 O 663.518 -7.1704 3.19006 0
M  V30 4884 O 663.555 -8.16596 0.923387 0
M  V30 4885 C 663.395 -9.38437 0.108857 0
M  V30 4886 C 663.935 -9.08175 -1.28353 0
M  V30 4887 O 662.879 -8.44229 -1.84713 0
M  V30 4888 C 665.153 -8.18386 -1.42505 0
M  V30 4889 O 665.891 -8.3501 -2.60497 0
M  V30 4890 C 664.484 -6.80225 -1.25468 0
M  V30 4891 O 665.283 -5.81621 -1.91066 0
M  V30 4892 C 663.147 -7.02416 -1.9168 0
M  V30 4893 H 663.179 -6.6888 -2.96621 0
M  V30 4894 H 664.362 -6.53617 -0.192223 0
M  V30 4895 H 665.846 -8.36622 -0.589963 0
M  V30 4896 H 664.152 -10.0291 -1.79807 0
M  V30 4897 H 663.962 -10.2138 0.558219 0
M  V30 4898 H 662.332 -9.6579 0.0444202 0
M  V30 4899 H 664.971 -5.69556 -2.79637 0
M  V30 4900 P 666.829 -8.4349 -2.47671 0
M  V30 4901 O 668.251 -8.92593 -2.65 0
M  V30 4902 O 666.469 -7.7568 -1.19296 0
M  V30 4903 O 666.506 -7.36886 -3.63805 0
M  V30 4904 C 666.346 -7.95349 -4.982 0
M  V30 4905 C 666.886 -6.94612 -5.98974 0
M  V30 4906 O 665.83 -6.10347 -6.11815 0
M  V30 4907 C 668.104 -6.11426 -5.62335 0
M  V30 4908 O 668.842 -5.6162 -6.70584 0
M  V30 4909 C 667.435 -5.04409 -4.73308 0
M  V30 4910 O 668.234 -3.85992 -4.75183 0
M  V30 4911 C 666.098 -4.8728 -5.41006 0
M  V30 4912 H 666.13 -4.02333 -6.11157 0
M  V30 4913 H 667.313 -5.39466 -3.69543 0
M  V30 4914 H 668.797 -6.71916 -5.01943 0
M  V30 4915 H 667.103 -7.4649 -6.93477 0
M  V30 4916 H 666.913 -8.89416 -5.05237 0
M  V30 4917 H 665.283 -8.14876 -5.18409 0
M  V30 4918 H 667.922 -3.27957 -5.4317 0
M  V30 4919 P 669.779 -5.75688 -6.64379 0
M  V30 4920 O 671.201 -6.07627 -7.05504 0
M  V30 4921 O 669.419 -5.88047 -5.19722 0
M  V30 4922 O 669.456 -4.2322 -7.04443 0
M  V30 4923 C 669.296 -3.99743 -8.4911 0
M  V30 4924 C 669.836 -2.60516 -8.79425 0
M  V30 4925 O 668.78 -1.82684 -8.4467 0
M  V30 4926 C 671.054 -2.10343 -8.03628 0
M  V30 4927 O 671.792 -1.09919 -8.67766 0
M  V30 4928 C 670.385 -1.68446 -6.70876 0
M  V30 4929 O 671.184 -0.678137 -6.08433 0
M  V30 4930 C 669.048 -1.17436 -7.18567 0
M  V30 4931 H 669.08 -0.0804732 -7.31656 0
M  V30 4932 H 670.263 -2.54037 -6.02537 0
M  V30 4933 H 671.747 -2.93881 -7.85526 0
M  V30 4934 H 670.053 -2.53065 -9.86973 0
M  V30 4935 H 669.863 -4.75072 -9.05887 0
M  V30 4936 H 668.233 -4.05244 -8.76668 0
M  V30 4937 H 670.872 0.177647 -6.34251 0
M  V30 4938 P 672.73 -1.25109 -8.70152 0
M  V30 4939 O 674.152 -1.29744 -9.22016 0
M  V30 4940 O 672.37 -2.13714 -7.55141 0
M  V30 4941 O 672.407 0.248149 -8.21425 0
M  V30 4942 C 672.247 1.22779 -9.30434 0
M  V30 4943 C 672.787 2.56293 -8.80664 0
M  V30 4944 O 671.731 3.02979 -8.09349 0
M  V30 4945 C 674.005 2.57523 -7.89775 0
M  V30 4946 O 674.743 3.7668 -7.89438 0
M  V30 4947 C 673.336 2.20997 -6.55446 0
M  V30 4948 O 674.135 2.71895 -5.48509 0
M  V30 4949 C 671.999 2.89693 -6.67988 0
M  V30 4950 H 672.031 3.88793 -6.19859 0
M  V30 4951 H 673.214 1.12046 -6.44229 0
M  V30 4952 H 674.698 1.7746 -8.19711 0
M  V30 4953 H 673.004 3.20706 -9.67112 0
M  V30 4954 H 672.814 0.901032 -10.1892 0
M  V30 4955 H 671.184 1.33049 -9.56592 0
M  V30 4956 H 673.823 3.57847 -5.23962 0
M  V30 4957 P 675.681 3.65191 -7.99657 0
M  V30 4958 O 677.103 3.89332 -8.45794 0
M  V30 4959 O 675.321 2.28472 -7.50807 0
M  V30 4960 O 675.358 4.64972 -6.77611 0
M  V30 4961 C 675.198 6.06319 -7.16352 0
M  V30 4962 C 675.738 6.91731 -6.02299 0
M  V30 4963 O 674.682 6.92449 -5.17064 0
M  V30 4964 C 676.956 6.43627 -5.25174 0
M  V30 4965 O 677.694 7.43686 -4.60469 0
M  V30 4966 C 676.287 5.40275 -4.31916 0
M  V30 4967 O 677.086 5.25279 -3.14438 0
M  V30 4968 C 674.95 6.04847 -4.05327 0
M  V30 4969 H 674.982 6.62195 -3.11261 0
M  V30 4970 H 676.165 4.42556 -4.81383 0
M  V30 4971 H 677.649 5.92458 -5.93643 0
M  V30 4972 H 675.955 7.92655 -6.402 0
M  V30 4973 H 675.765 6.26671 -8.0846 0
M  V30 4974 H 674.135 6.29101 -7.32804 0
M  V30 4975 H 676.774 5.84315 -2.47318 0
M  V30 4976 P 678.631 7.39546 -4.75277 0
M  V30 4977 O 680.053 7.84798 -5.01039 0
M  V30 4978 O 678.271 5.9812 -5.08098 0
M  V30 4979 O 678.308 7.57503 -3.1866 0
M  V30 4980 C 678.148 8.97357 -2.74833 0
M  V30 4981 C 678.688 9.07548 -1.32709 0
M  V30 4982 O 677.632 8.62072 -0.606159 0
M  V30 4983 C 679.906 8.25383 -0.938334 0
M  V30 4984 O 680.644 8.74577 0.146954 0
M  V30 4985 C 679.237 6.8802 -0.712559 0
M  V30 4986 O 680.036 6.1189 0.194655 0
M  V30 4987 C 677.9 7.27966 -0.139777 0
M  V30 4988 H 677.932 7.25354 0.961601 0
M  V30 4989 H 679.115 6.32557 -1.65702 0
M  V30 4990 H 680.599 8.19355 -1.79097 0
M  V30 4991 H 678.905 10.1294 -1.10029 0
M  V30 4992 H 678.715 9.64276 -3.41316 0
M  V30 4993 H 677.085 9.25417 -2.76357 0
M  V30 4994 H 679.724 6.25267 1.07847 0
M  V30 4995 P 681.582 8.791 4.7645e-12 0
M  V30 4996 O 683.004 9.31096 0.027933 0
M  V30 4997 O 681.222 7.77869 -1.04071 0
M  V30 4998 O 681.259 8.09533 1.41463 0
M  V30 4999 C 681.099 9.0349 2.53943 0
M  V30 5000 C 681.639 8.35226 3.79016 0
M  V30 5001 O 680.583 7.57992 4.15078 0
M  V30 5002 C 682.857 7.45087 3.67298 0
M  V30 5003 O 683.595 7.27796 4.85194 0
M  V30 5004 C 682.188 6.17323 3.12027 0
M  V30 5005 O 682.987 5.04231 3.47188 0
M  V30 5006 C 680.851 6.19961 3.81809 0
M  V30 5007 H 680.883 5.58218 4.73051 0
M  V30 5008 H 682.066 6.21726 2.02589 0
M  V30 5009 H 683.55 7.86112 2.9231 0
M  V30 5010 H 681.856 9.11627 4.55076 0
M  V30 5011 H 681.666 9.9573 2.34194 0
M  V30 5012 H 680.036 9.2792 2.67832 0
M  V30 5013 H 682.675 4.67702 4.28772 0
M  V30 5014 P 684.532 7.39546 4.75277 0
M  V30 5015 O 685.954 7.81777 5.05738 0
M  V30 5016 O 684.172 7.1065 3.32998 0
M  V30 5017 O 684.209 6.04542 5.56673 0
M  V30 5018 C 684.049 6.22772 7.02095 0
M  V30 5019 C 684.589 4.97725 7.70406 0
M  V30 5020 O 683.533 4.13256 7.58987 0
M  V30 5021 C 685.807 4.28231 7.11815 0
M  V30 5022 O 686.545 3.49945 8.01648 0
M  V30 5023 C 685.138 3.5063 5.96244 0
M  V30 5024 O 685.937 2.36482 5.64681 0
M  V30 5025 C 683.801 3.15122 6.56374 0
M  V30 5026 H 683.833 2.13853 6.99751 0
M  V30 5027 H 685.016 4.13501 5.06559 0
M  V30 5028 H 686.5 5.03285 6.70911 0
M  V30 5029 H 684.806 5.20877 8.75697 0
M  V30 5030 H 684.616 7.11046 7.35349 0
M  V30 5031 H 682.986 6.35815 7.26986 0
M  V30 5032 H 685.625 1.61644 6.13565 0
M  V30 5033 P 687.483 3.65191 7.99657 0
M  V30 5034 O 688.904 3.84292 8.48206 0
M  V30 5035 O 687.123 4.17805 6.64342 0
M  V30 5036 O 687.16 2.07613 7.95143 0
M  V30 5037 C 686.999 1.44344 9.27435 0
M  V30 5038 C 687.54 0.0220036 9.17197 0
M  V30 5039 O 686.485 -0.626794 8.61824 0
M  V30 5040 C 688.758 -0.24586 8.30336 0
M  V30 5041 O 689.496 -1.39011 8.63583 0
M  V30 5042 C 688.09 -0.273849 6.91158 0
M  V30 5043 O 688.888 -1.05728 6.029 0
M  V30 5044 C 686.752 -0.897649 7.22545 0
M  V30 5045 N 685.709 -0.292839 6.41732 0
M  V30 5046 C 685.878 0.950603 5.91308 0
M  V30 5047 N 684.851 1.37732 5.21105 0
M  V30 5048 C 683.966 0.318109 5.26039 0
M  V30 5049 C 682.699 0.146766 4.6727 0
M  V30 5050 N 682.1 1.08519 3.89983 0
M  V30 5051 N 682.134 -1.06525 4.95887 0
M  V30 5052 C 682.736 -2.0378 5.71347 0
M  V30 5053 N 683.913 -1.92445 6.27451 0
M  V30 5054 C 684.488 -0.715382 6.00353 0
M  V30 5055 H 686.784 -1.98383 7.04189 0
M  V30 5056 H 687.967 0.733318 6.49674 0
M  V30 5057 H 689.45 0.60668 8.36503 0
M  V30 5058 H 687.756 -0.362662 10.1825 0
M  V30 5059 H 687.566 2.00611 10.0304 0
M  V30 5060 H 685.936 1.41843 9.55327 0
M  V30 5061 H 682.2 -2.97041 5.85344 0
M  V30 5062 H 686.778 1.54076 6.07465 0
M  V30 5063 H 681.17 0.901517 3.49562 0
M  V30 5064 H 682.574 1.97957 3.71669 0
M  V30 5065 H 688.576 -1.95704 6.0346 0
M  V30 5066 P 690.433 -1.25109 8.70152 0
M  V30 5067 O 691.855 -1.35274 9.21221 0
M  V30 5068 O 690.073 -0.0769065 7.84762 0
M  V30 5069 O 690.11 -2.55232 7.81161 0
M  V30 5070 C 689.95 -3.79939 8.58154 0
M  V30 5071 C 690.49 -4.94023 7.72785 0
M  V30 5072 O 689.434 -5.18726 6.91205 0
M  V30 5073 C 691.708 -4.69597 6.85231 0
M  V30 5074 O 692.446 -5.83832 6.51337 0
M  V30 5075 C 691.039 -3.96706 5.66633 0
M  V30 5076 O 691.838 -4.15414 4.49689 0
M  V30 5077 C 689.702 -4.66153 5.59313 0
M  V30 5078 H 689.734 -5.47679 4.85214 0
M  V30 5079 H 690.917 -2.89008 5.86566 0
M  V30 5080 H 692.401 -4.0121 7.36511 0
M  V30 5081 H 690.707 -5.80182 8.37584 0
M  V30 5082 H 690.517 -3.73517 9.52265 0
M  V30 5083 H 688.887 -3.97163 8.80359 0
M  V30 5084 H 691.526 -4.90969 4.01921 0
M  V30 5085 P 693.384 -5.75688 6.64379 0
M  V30 5086 O 694.806 -6.11849 7.01846 0
M  V30 5087 O 693.024 -4.30744 6.56026 0
M  V30 5088 O 693.061 -6.37042 5.19165 0
M  V30 5089 C 692.901 -7.83578 5.16515 0
M  V30 5090 C 693.441 -8.33398 3.83019 0
M  V30 5091 O 692.385 -8.10074 3.01034 0
M  V30 5092 C 694.659 -7.65514 3.2257 0
M  V30 5093 O 695.397 -8.4329 2.32297 0
M  V30 5094 C 693.99 -6.40075 2.62207 0
M  V30 5095 O 694.789 -5.92589 1.53712 0
M  V30 5096 C 692.653 -6.9454 2.18503 0
M  V30 5097 H 692.685 -7.23063 1.12091 0
M  V30 5098 H 693.868 -5.6025 3.37201 0
M  V30 5099 H 695.352 -7.35707 4.02681 0
M  V30 5100 H 693.658 -9.40912 3.9095 0
M  V30 5101 H 693.468 -8.29056 5.99158 0
M  V30 5102 H 691.838 -8.10073 5.25882 0
M  V30 5103 H 694.477 -6.30324 0.726794 0
M  V30 5104 P 696.335 -8.4349 2.47671 0
M  V30 5105 O 697.757 -8.94167 2.5964 0
M  V30 5106 O 695.975 -7.1704 3.19006 0
M  V30 5107 O 696.012 -8.16596 0.923387 0
M  V30 5108 C 695.852 -9.38437 0.108857 0
M  V30 5109 C 696.392 -9.08175 -1.28353 0
M  V30 5110 O 695.336 -8.44229 -1.84713 0
M  V30 5111 C 697.61 -8.18386 -1.42505 0
M  V30 5112 O 698.348 -8.3501 -2.60497 0
M  V30 5113 C 696.941 -6.80225 -1.25468 0
M  V30 5114 O 697.74 -5.81621 -1.91066 0
M  V30 5115 C 695.604 -7.02416 -1.9168 0
M  V30 5116 H 695.636 -6.6888 -2.96621 0
M  V30 5117 H 696.819 -6.53617 -0.192223 0
M  V30 5118 H 698.303 -8.36622 -0.589963 0
M  V30 5119 H 696.609 -10.0291 -1.79807 0
M  V30 5120 H 696.419 -10.2138 0.558219 0
M  V30 5121 H 694.789 -9.6579 0.0444202 0
M  V30 5122 H 697.428 -5.69556 -2.79637 0
M  V30 5123 P 699.285 -8.4349 -2.47671 0
M  V30 5124 O 700.707 -8.92593 -2.65 0
M  V30 5125 O 698.925 -7.7568 -1.19296 0
M  V30 5126 O 698.962 -7.36886 -3.63805 0
M  V30 5127 C 698.802 -7.95349 -4.982 0
M  V30 5128 C 699.342 -6.94612 -5.98974 0
M  V30 5129 O 698.286 -6.10347 -6.11815 0
M  V30 5130 C 700.56 -6.11426 -5.62335 0
M  V30 5131 O 701.298 -5.6162 -6.70584 0
M  V30 5132 C 699.891 -5.04409 -4.73308 0
M  V30 5133 O 700.69 -3.85992 -4.75183 0
M  V30 5134 C 698.554 -4.8728 -5.41006 0
M  V30 5135 H 698.586 -4.02333 -6.11157 0
M  V30 5136 H 699.769 -5.39466 -3.69543 0
M  V30 5137 H 701.253 -6.71916 -5.01943 0
M  V30 5138 H 699.559 -7.4649 -6.93477 0
M  V30 5139 H 699.369 -8.89416 -5.05237 0
M  V30 5140 H 697.739 -8.14876 -5.18409 0
M  V30 5141 H 700.378 -3.27957 -5.4317 0
M  V30 5142 P 702.236 -5.75688 -6.64379 0
M  V30 5143 O 703.658 -6.07627 -7.05504 0
M  V30 5144 O 701.876 -5.88047 -5.19722 0
M  V30 5145 O 701.913 -4.2322 -7.04443 0
M  V30 5146 C 701.753 -3.99743 -8.4911 0
M  V30 5147 C 702.293 -2.60516 -8.79425 0
M  V30 5148 O 701.237 -1.82684 -8.4467 0
M  V30 5149 C 703.511 -2.10343 -8.03628 0
M  V30 5150 O 704.249 -1.09919 -8.67766 0
M  V30 5151 C 702.842 -1.68446 -6.70876 0
M  V30 5152 O 703.641 -0.678137 -6.08433 0
M  V30 5153 C 701.505 -1.17436 -7.18567 0
M  V30 5154 H 701.537 -0.0804732 -7.31656 0
M  V30 5155 H 702.72 -2.54037 -6.02537 0
M  V30 5156 H 704.204 -2.93881 -7.85526 0
M  V30 5157 H 702.51 -2.53065 -9.86973 0
M  V30 5158 H 702.32 -4.75072 -9.05887 0
M  V30 5159 H 700.69 -4.05244 -8.76668 0
M  V30 5160 H 703.329 0.177647 -6.34251 0
M  V30 5161 P 705.186 -1.25109 -8.70152 0
M  V30 5162 O 706.587 -1.3516 -9.26897 0
M  V30 5163 O 704.808 -2.18141 -7.59181 0
M  V30 5164 O 704.863 0.248118 -8.21325 0
M  V30 5165 C 704.703 1.22779 -9.30434 0
M  V30 5166 C 705.243 2.56265 -8.80568 0
M  V30 5167 O 704.187 3.02944 -8.09255 0
M  V30 5168 C 706.46 2.57523 -7.89775 0
M  V30 5169 O 707.199 3.7668 -7.89438 0
M  V30 5170 C 705.793 2.20997 -6.55446 0
M  V30 5171 O 706.591 2.71851 -5.48419 0
M  V30 5172 C 704.455 2.89693 -6.67988 0
M  V30 5173 N 703.412 2.08895 -6.07487 0
M  V30 5174 C 702.377 2.72974 -5.43836 0
M  V30 5175 O 702.416 3.97779 -5.34036 0
M  V30 5176 N 701.365 2.0005 -4.91983 0
M  V30 5177 C 701.413 0.66501 -5.00098 0
M  V30 5178 N 700.403 -0.0305439 -4.4919 0
M  V30 5179 C 702.509 -0.0100979 -5.61099 0
M  V30 5180 C 703.475 0.74189 -6.14236 0
M  V30 5181 H 704.487 3.8874 -6.19774 0
M  V30 5182 H 705.67 1.12673 -6.44018 0
M  V30 5183 H 707.154 1.783 -8.19631 0
M  V30 5184 H 705.46 3.21673 -9.66791 0
M  V30 5185 H 705.269 0.901032 -10.1892 0
M  V30 5186 H 703.639 1.33036 -9.56493 0
M  V30 5187 H 702.557 -1.09591 -5.64358 0
M  V30 5188 H 704.321 0.260263 -6.6359 0
M  V30 5189 H 699.613 0.460194 -4.04793 0
M  V30 5190 H 700.408 -1.05716 -4.53953 0
M  V30 5191 H 706.375 3.62759 -5.33442 0
M  V30 5192 P 708.137 3.65191 -7.99657 0
M  V30 5193 O 709.559 3.89332 -8.45794 0
M  V30 5194 O 707.777 2.28472 -7.50807 0
M  V30 5195 O 707.814 4.64972 -6.77611 0
M  V30 5196 C 707.654 6.06319 -7.16352 0
M  V30 5197 C 708.194 6.91731 -6.02299 0
M  V30 5198 O 707.138 6.92449 -5.17064 0
M  V30 5199 C 709.412 6.43627 -5.25174 0
M  V30 5200 O 710.15 7.43686 -4.60469 0
M  V30 5201 C 708.743 5.40275 -4.31916 0
M  V30 5202 O 709.542 5.25279 -3.14438 0
M  V30 5203 C 707.406 6.04847 -4.05327 0
M  V30 5204 H 707.438 6.62195 -3.11261 0
M  V30 5205 H 708.621 4.42556 -4.81383 0
M  V30 5206 H 710.105 5.92458 -5.93643 0
M  V30 5207 H 708.411 7.92655 -6.402 0
M  V30 5208 H 708.221 6.26671 -8.0846 0
M  V30 5209 H 706.591 6.29101 -7.32804 0
M  V30 5210 H 709.23 5.84315 -2.47318 0
M  V30 5211 P 711.087 7.39546 -4.75277 0
M  V30 5212 O 712.509 7.84798 -5.01039 0
M  V30 5213 O 710.727 5.9812 -5.08098 0
M  V30 5214 O 710.764 7.57503 -3.1866 0
M  V30 5215 C 710.604 8.97357 -2.74833 0
M  V30 5216 C 711.144 9.07548 -1.32709 0
M  V30 5217 O 710.088 8.62072 -0.606159 0
M  V30 5218 C 712.362 8.25383 -0.938334 0
M  V30 5219 O 713.1 8.74577 0.146954 0
M  V30 5220 C 711.693 6.8802 -0.712559 0
M  V30 5221 O 712.492 6.1189 0.194655 0
M  V30 5222 C 710.356 7.27966 -0.139777 0
M  V30 5223 H 710.388 7.25354 0.961601 0
M  V30 5224 H 711.571 6.32557 -1.65702 0
M  V30 5225 H 713.055 8.19355 -1.79097 0
M  V30 5226 H 711.361 10.1294 -1.10029 0
M  V30 5227 H 711.171 9.64276 -3.41316 0
M  V30 5228 H 709.541 9.25417 -2.76357 0
M  V30 5229 H 712.18 6.25267 1.07847 0
M  V30 5230 P 714.038 8.791 5.07466e-12 0
M  V30 5231 O 715.46 9.31096 0.027933 0
M  V30 5232 O 713.678 7.77869 -1.04071 0
M  V30 5233 O 713.715 8.09533 1.41463 0
M  V30 5234 C 713.555 9.0349 2.53943 0
M  V30 5235 C 714.095 8.35226 3.79016 0
M  V30 5236 O 713.039 7.57992 4.15078 0
M  V30 5237 C 715.313 7.45087 3.67298 0
M  V30 5238 O 716.051 7.27796 4.85194 0
M  V30 5239 C 714.644 6.17323 3.12027 0
M  V30 5240 O 715.443 5.04231 3.47188 0
M  V30 5241 C 713.307 6.19961 3.81809 0
M  V30 5242 H 713.339 5.58218 4.73051 0
M  V30 5243 H 714.522 6.21726 2.02589 0
M  V30 5244 H 716.006 7.86112 2.9231 0
M  V30 5245 H 714.312 9.11627 4.55076 0
M  V30 5246 H 714.122 9.9573 2.34194 0
M  V30 5247 H 712.492 9.2792 2.67832 0
M  V30 5248 H 715.131 4.67702 4.28772 0
M  V30 5249 P 716.989 7.39546 4.75277 0
M  V30 5250 O 718.411 7.81777 5.05738 0
M  V30 5251 O 716.629 7.1065 3.32998 0
M  V30 5252 O 716.666 6.04542 5.56673 0
M  V30 5253 C 716.506 6.22772 7.02095 0
M  V30 5254 C 717.046 4.97725 7.70406 0
M  V30 5255 O 715.99 4.13256 7.58987 0
M  V30 5256 C 718.264 4.28231 7.11815 0
M  V30 5257 O 719.002 3.49945 8.01648 0
M  V30 5258 C 717.595 3.5063 5.96244 0
M  V30 5259 O 718.394 2.36482 5.64681 0
M  V30 5260 C 716.258 3.15122 6.56374 0
M  V30 5261 H 716.29 2.13853 6.99751 0
M  V30 5262 H 717.473 4.13501 5.06559 0
M  V30 5263 H 718.957 5.03285 6.70911 0
M  V30 5264 H 717.263 5.20877 8.75697 0
M  V30 5265 H 717.073 7.11046 7.35349 0
M  V30 5266 H 715.443 6.35815 7.26986 0
M  V30 5267 H 718.082 1.61644 6.13565 0
M  V30 5268 P 719.939 3.65191 7.99657 0
M  V30 5269 O 721.361 3.8425 8.48115 0
M  V30 5270 O 719.579 4.17805 6.64342 0
M  V30 5271 O 719.616 2.07613 7.95143 0
M  V30 5272 C 719.456 1.44328 9.27336 0
M  V30 5273 C 719.996 0.0220036 9.17197 0
M  V30 5274 O 718.94 -0.626867 8.61923 0
M  V30 5275 C 721.214 -0.24586 8.30336 0
M  V30 5276 O 721.952 -1.39011 8.63583 0
M  V30 5277 C 720.545 -0.273849 6.91158 0
M  V30 5278 O 721.344 -1.06348 6.02892 0
M  V30 5279 C 719.208 -0.897649 7.22545 0
M  V30 5280 H 719.24 -1.9841 7.04286 0
M  V30 5281 H 720.423 0.739928 6.497 0
M  V30 5282 H 721.907 0.60668 8.36503 0
M  V30 5283 H 720.213 -0.352479 10.1829 0
M  V30 5284 H 720.023 2.00611 10.0304 0
M  V30 5285 H 718.393 1.41843 9.55327 0
M  V30 5286 H 721.032 -1.95734 6.03555 0
M  V30 5287 P 722.89 -1.25109 8.70152 0
M  V30 5288 O 724.291 -1.31452 9.27431 0
M  V30 5289 O 722.512 -0.0458113 7.89887 0
M  V30 5290 O 722.567 -2.55201 7.81066 0
M  V30 5291 C 722.407 -3.79939 8.58154 0
M  V30 5292 C 722.947 -4.93969 7.72701 0
M  V30 5293 O 721.891 -5.18666 6.91125 0
M  V30 5294 C 724.164 -4.69597 6.85231 0
M  V30 5295 O 724.903 -5.83832 6.51337 0
M  V30 5296 C 723.497 -3.96706 5.66633 0
M  V30 5297 O 724.295 -4.15346 4.49615 0
M  V30 5298 C 722.159 -4.66153 5.59313 0
M  V30 5299 N 721.116 -3.71582 5.24027 0
M  V30 5300 C 720.081 -4.15133 4.44901 0
M  V30 5301 O 720.12 -5.32122 4.00336 0
M  V30 5302 N 719.069 -3.30554 4.15693 0
M  V30 5303 C 719.117 -2.04701 4.61105 0
M  V30 5304 N 718.107 -1.23621 4.31855 0
M  V30 5305 C 720.213 -1.57111 5.38655 0
M  V30 5306 C 721.179 -2.44234 5.68454 0
M  V30 5307 H 722.191 -5.47604 4.85148 0
M  V30 5308 H 723.374 -2.8955 5.86187 0
M  V30 5309 H 724.858 -4.01995 7.36197 0
M  V30 5310 H 723.164 -5.81019 8.37003 0
M  V30 5311 H 722.973 -3.73517 9.52265 0
M  V30 5312 H 721.343 -3.97122 8.80267 0
M  V30 5313 H 720.261 -0.538464 5.72373 0
M  V30 5314 H 722.025 -2.11927 6.29377 0
M  V30 5315 H 717.317 -1.58199 3.7543 0
M  V30 5316 H 718.112 -0.264601 4.65348 0
M  V30 5317 H 724.079 -4.98352 4.09633 0
M  V30 5318 P 725.84 -5.75688 6.64379 0
M  V30 5319 O 727.261 -6.11915 7.01921 0
M  V30 5320 O 725.48 -4.30744 6.56026 0
M  V30 5321 O 725.517 -6.37042 5.19165 0
M  V30 5322 C 725.356 -7.83662 5.1657 0
M  V30 5323 C 725.897 -8.33398 3.83019 0
M  V30 5324 O 724.842 -8.0998 3.00999 0
M  V30 5325 C 727.115 -7.65514 3.2257 0
M  V30 5326 O 727.853 -8.4329 2.32297 0
M  V30 5327 C 726.447 -6.40075 2.62207 0
M  V30 5328 O 727.245 -5.92338 1.5428 0
M  V30 5329 C 725.109 -6.9454 2.18503 0
M  V30 5330 N 724.066 -5.95905 2.39948 0
M  V30 5331 C 724.235 -4.98383 3.32108 0
M  V30 5332 N 723.208 -4.16798 3.41761 0
M  V30 5333 C 722.323 -4.65287 2.47461 0
M  V30 5334 C 721.056 -4.18946 2.07461 0
M  V30 5335 N 720.491 -4.95327 1.09101 0
M  V30 5336 C 721.093 -6.04369 0.519812 0
M  V30 5337 N 722.27 -6.50694 0.855982 0
M  V30 5338 C 722.845 -5.75818 1.84322 0
M  V30 5339 H 726.324 -5.60502 3.36589 0
M  V30 5340 H 727.807 -7.35707 4.02681 0
M  V30 5341 H 726.113 -9.41302 3.90009 0
M  V30 5342 H 725.923 -8.29056 5.99158 0
M  V30 5343 H 724.293 -8.10073 5.25882 0
M  V30 5344 H 725.135 -4.88564 3.92502 0
M  V30 5345 H 726.933 -6.30224 0.72668 0
M  V30 5346 P 728.791 -8.4349 2.47671 0
M  V30 5347 O 730.213 -8.94167 2.5964 0
M  V30 5348 O 728.431 -7.1704 3.19006 0
M  V30 5349 O 728.468 -8.16596 0.923387 0
M  V30 5350 C 728.308 -9.38437 0.108857 0
M  V30 5351 C 728.848 -9.08175 -1.28353 0
M  V30 5352 O 727.792 -8.44229 -1.84713 0
M  V30 5353 C 730.066 -8.18386 -1.42505 0
M  V30 5354 O 730.804 -8.3501 -2.60497 0
M  V30 5355 C 729.397 -6.80225 -1.25468 0
M  V30 5356 O 730.196 -5.81621 -1.91066 0
M  V30 5357 C 728.06 -7.02416 -1.9168 0
M  V30 5358 H 728.092 -6.6888 -2.96621 0
M  V30 5359 H 729.275 -6.53617 -0.192223 0
M  V30 5360 H 730.759 -8.36622 -0.589963 0
M  V30 5361 H 729.065 -10.0291 -1.79807 0
M  V30 5362 H 728.875 -10.2138 0.558219 0
M  V30 5363 H 727.245 -9.6579 0.0444202 0
M  V30 5364 H 729.884 -5.69556 -2.79637 0
M  V30 5365 P 731.741 -8.4349 -2.47671 0
M  V30 5366 O 733.163 -8.92593 -2.65 0
M  V30 5367 O 731.381 -7.7568 -1.19296 0
M  V30 5368 O 731.418 -7.36886 -3.63805 0
M  V30 5369 C 731.258 -7.95349 -4.982 0
M  V30 5370 C 731.798 -6.94612 -5.98974 0
M  V30 5371 O 730.742 -6.10347 -6.11815 0
M  V30 5372 C 733.016 -6.11426 -5.62335 0
M  V30 5373 O 733.754 -5.6162 -6.70584 0
M  V30 5374 C 732.347 -5.04409 -4.73308 0
M  V30 5375 O 733.146 -3.85992 -4.75183 0
M  V30 5376 C 731.01 -4.8728 -5.41006 0
M  V30 5377 H 731.042 -4.02333 -6.11157 0
M  V30 5378 H 732.225 -5.39466 -3.69543 0
M  V30 5379 H 733.709 -6.71916 -5.01943 0
M  V30 5380 H 732.015 -7.4649 -6.93477 0
M  V30 5381 H 731.825 -8.89416 -5.05237 0
M  V30 5382 H 730.195 -8.14876 -5.18409 0
M  V30 5383 H 732.834 -3.27957 -5.4317 0
M  V30 5384 P 734.692 -5.75688 -6.64379 0
M  V30 5385 O 736.114 -6.07627 -7.05504 0
M  V30 5386 O 734.332 -5.88047 -5.19722 0
M  V30 5387 O 734.369 -4.2322 -7.04443 0
M  V30 5388 C 734.209 -3.99743 -8.4911 0
M  V30 5389 C 734.749 -2.60516 -8.79425 0
M  V30 5390 O 733.693 -1.82684 -8.4467 0
M  V30 5391 C 735.967 -2.10343 -8.03628 0
M  V30 5392 O 736.705 -1.09919 -8.67766 0
M  V30 5393 C 735.298 -1.68446 -6.70876 0
M  V30 5394 O 736.097 -0.678137 -6.08433 0
M  V30 5395 C 733.961 -1.17436 -7.18567 0
M  V30 5396 H 733.993 -0.0804732 -7.31656 0
M  V30 5397 H 735.176 -2.54037 -6.02537 0
M  V30 5398 H 736.66 -2.93881 -7.85526 0
M  V30 5399 H 734.966 -2.53065 -9.86973 0
M  V30 5400 H 734.776 -4.75072 -9.05887 0
M  V30 5401 H 733.146 -4.05244 -8.76668 0
M  V30 5402 H 735.785 0.177647 -6.34251 0
M  V30 5403 P 737.643 -1.25109 -8.70152 0
M  V30 5404 O 739.065 -1.29744 -9.22016 0
M  V30 5405 O 737.283 -2.13714 -7.55141 0
M  V30 5406 O 737.32 0.248149 -8.21425 0
M  V30 5407 C 737.16 1.22779 -9.30434 0
M  V30 5408 C 737.7 2.56293 -8.80664 0
M  V30 5409 O 736.644 3.02979 -8.09349 0
M  V30 5410 C 738.918 2.57523 -7.89775 0
M  V30 5411 O 739.656 3.7668 -7.89438 0
M  V30 5412 C 738.249 2.20997 -6.55446 0
M  V30 5413 O 739.048 2.71895 -5.48509 0
M  V30 5414 C 736.912 2.89693 -6.67988 0
M  V30 5415 H 736.944 3.88793 -6.19859 0
M  V30 5416 H 738.127 1.12046 -6.44229 0
M  V30 5417 H 739.611 1.7746 -8.19711 0
M  V30 5418 H 737.917 3.20706 -9.67112 0
M  V30 5419 H 737.726 0.901032 -10.1892 0
M  V30 5420 H 736.096 1.33049 -9.56592 0
M  V30 5421 H 738.736 3.57847 -5.23962 0
M  V30 5422 P 740.593 3.65191 -7.99657 0
M  V30 5423 O 742.015 3.89332 -8.45794 0
M  V30 5424 O 740.233 2.28472 -7.50807 0
M  V30 5425 O 740.27 4.64972 -6.77611 0
M  V30 5426 C 740.11 6.06319 -7.16352 0
M  V30 5427 C 740.65 6.91731 -6.02299 0
M  V30 5428 O 739.594 6.92449 -5.17064 0
M  V30 5429 C 741.868 6.43627 -5.25174 0
M  V30 5430 O 742.606 7.43686 -4.60469 0
M  V30 5431 C 741.199 5.40275 -4.31916 0
M  V30 5432 O 741.998 5.25279 -3.14438 0
M  V30 5433 C 739.862 6.04847 -4.05327 0
M  V30 5434 H 739.894 6.62195 -3.11261 0
M  V30 5435 H 741.077 4.42556 -4.81383 0
M  V30 5436 H 742.561 5.92458 -5.93643 0
M  V30 5437 H 740.867 7.92655 -6.402 0
M  V30 5438 H 740.677 6.26671 -8.0846 0
M  V30 5439 H 739.047 6.29101 -7.32804 0
M  V30 5440 H 741.686 5.84315 -2.47318 0
M  V30 5441 P 743.544 7.39546 -4.75277 0
M  V30 5442 O 744.966 7.84798 -5.01039 0
M  V30 5443 O 743.184 5.9812 -5.08098 0
M  V30 5444 O 743.221 7.57503 -3.1866 0
M  V30 5445 C 743.061 8.97357 -2.74833 0
M  V30 5446 C 743.601 9.07548 -1.32709 0
M  V30 5447 O 742.545 8.62072 -0.606159 0
M  V30 5448 C 744.819 8.25383 -0.938334 0
M  V30 5449 O 745.557 8.74577 0.146954 0
M  V30 5450 C 744.15 6.8802 -0.712559 0
M  V30 5451 O 744.949 6.1189 0.194655 0
M  V30 5452 C 742.813 7.27966 -0.139777 0
M  V30 5453 H 742.845 7.25354 0.961601 0
M  V30 5454 H 744.028 6.32557 -1.65702 0
M  V30 5455 H 745.512 8.19355 -1.79097 0
M  V30 5456 H 743.818 10.1294 -1.10029 0
M  V30 5457 H 743.628 9.64276 -3.41316 0
M  V30 5458 H 741.998 9.25417 -2.76357 0
M  V30 5459 H 744.637 6.25267 1.07847 0
M  V30 5460 P 746.494 8.791 5.38483e-12 0
M  V30 5461 O 747.916 9.31096 0.027933 0
M  V30 5462 O 746.134 7.77869 -1.04071 0
M  V30 5463 O 746.171 8.09533 1.41463 0
M  V30 5464 C 746.011 9.0349 2.53943 0
M  V30 5465 C 746.551 8.35226 3.79016 0
M  V30 5466 O 745.495 7.57992 4.15078 0
M  V30 5467 C 747.769 7.45087 3.67298 0
M  V30 5468 O 748.507 7.27796 4.85194 0
M  V30 5469 C 747.1 6.17323 3.12027 0
M  V30 5470 O 747.899 5.04231 3.47188 0
M  V30 5471 C 745.763 6.19961 3.81809 0
M  V30 5472 H 745.795 5.58218 4.73051 0
M  V30 5473 H 746.978 6.21726 2.02589 0
M  V30 5474 H 748.462 7.86112 2.9231 0
M  V30 5475 H 746.768 9.11627 4.55076 0
M  V30 5476 H 746.578 9.9573 2.34194 0
M  V30 5477 H 744.948 9.2792 2.67832 0
M  V30 5478 H 747.587 4.67702 4.28772 0
M  V30 5479 P 749.445 7.39546 4.75277 0
M  V30 5480 O 750.867 7.81777 5.05738 0
M  V30 5481 O 749.085 7.1065 3.32998 0
M  V30 5482 O 749.122 6.04542 5.56673 0
M  V30 5483 C 748.962 6.22772 7.02095 0
M  V30 5484 C 749.502 4.97725 7.70406 0
M  V30 5485 O 748.446 4.13256 7.58987 0
M  V30 5486 C 750.72 4.28231 7.11815 0
M  V30 5487 O 751.458 3.49945 8.01648 0
M  V30 5488 C 750.051 3.5063 5.96244 0
M  V30 5489 O 750.85 2.36482 5.64681 0
M  V30 5490 C 748.714 3.15122 6.56374 0
M  V30 5491 H 748.746 2.13853 6.99751 0
M  V30 5492 H 749.929 4.13501 5.06559 0
M  V30 5493 H 751.413 5.03285 6.70911 0
M  V30 5494 H 749.719 5.20877 8.75697 0
M  V30 5495 H 749.529 7.11046 7.35349 0
M  V30 5496 H 747.899 6.35815 7.26986 0
M  V30 5497 H 750.538 1.61644 6.13565 0
M  V30 5498 P 752.395 3.65191 7.99657 0
M  V30 5499 O 753.817 3.8425 8.48115 0
M  V30 5500 O 752.035 4.17805 6.64342 0
M  V30 5501 O 752.072 2.07613 7.95143 0
M  V30 5502 C 751.912 1.44328 9.27336 0
M  V30 5503 C 752.452 0.0220036 9.17197 0
M  V30 5504 O 751.396 -0.626867 8.61923 0
M  V30 5505 C 753.67 -0.24586 8.30336 0
M  V30 5506 O 754.408 -1.39011 8.63583 0
M  V30 5507 C 753.001 -0.273849 6.91158 0
M  V30 5508 O 753.8 -1.06348 6.02892 0
M  V30 5509 C 751.664 -0.897649 7.22545 0
M  V30 5510 H 751.696 -1.9841 7.04286 0
M  V30 5511 H 752.879 0.739928 6.497 0
M  V30 5512 H 754.363 0.60668 8.36503 0
M  V30 5513 H 752.669 -0.352479 10.1829 0
M  V30 5514 H 752.479 2.00611 10.0304 0
M  V30 5515 H 750.849 1.41843 9.55327 0
M  V30 5516 H 753.488 -1.95734 6.03555 0
M  V30 5517 P 755.346 -1.25109 8.70152 0
M  V30 5518 O 756.767 -1.35288 9.2132 0
M  V30 5519 O 754.986 -0.0769065 7.84762 0
M  V30 5520 O 755.023 -2.55232 7.81161 0
M  V30 5521 C 754.862 -3.79979 8.58246 0
M  V30 5522 C 755.403 -4.94023 7.72785 0
M  V30 5523 O 754.348 -5.18666 6.91125 0
M  V30 5524 C 756.621 -4.69597 6.85231 0
M  V30 5525 O 757.359 -5.83832 6.51337 0
M  V30 5526 C 755.953 -3.96706 5.66633 0
M  V30 5527 O 756.751 -4.14896 4.5003 0
M  V30 5528 C 754.615 -4.66153 5.59313 0
M  V30 5529 N 753.572 -3.71582 5.24027 0
M  V30 5530 C 753.741 -2.39715 5.48833 0
M  V30 5531 N 752.714 -1.65863 5.12845 0
M  V30 5532 C 751.829 -2.57637 4.5973 0
M  V30 5533 C 750.562 -2.40278 4.01027 0
M  V30 5534 N 749.963 -1.19549 3.86744 0
M  V30 5535 N 749.997 -3.57711 3.59575 0
M  V30 5536 C 750.599 -4.80324 3.70476 0
M  V30 5537 N 751.776 -5.01121 4.23801 0
M  V30 5538 C 752.351 -3.84757 4.66372 0
M  V30 5539 H 754.647 -5.47604 4.85148 0
M  V30 5540 H 755.83 -2.8955 5.86187 0
M  V30 5541 H 757.313 -4.0121 7.36511 0
M  V30 5542 H 755.619 -5.81019 8.37003 0
M  V30 5543 H 755.429 -3.73517 9.52265 0
M  V30 5544 H 753.799 -3.97163 8.80359 0
M  V30 5545 H 750.063 -5.66348 3.3183 0
M  V30 5546 H 754.641 -1.98804 5.94332 0
M  V30 5547 H 749.033 -1.13147 3.4281 0
M  V30 5548 H 750.437 -0.344074 4.19692 0
M  V30 5549 H 756.439 -4.90891 4.01857 0
M  V30 5550 P 758.296 -5.75688 6.64379 0
M  V30 5551 O 759.718 -6.11849 7.01846 0
M  V30 5552 O 757.936 -4.30744 6.56026 0
M  V30 5553 O 757.973 -6.37042 5.19165 0
M  V30 5554 C 757.813 -7.83578 5.16515 0
M  V30 5555 C 758.353 -8.33398 3.83019 0
M  V30 5556 O 757.297 -8.10074 3.01034 0
M  V30 5557 C 759.571 -7.65514 3.2257 0
M  V30 5558 O 760.309 -8.4329 2.32297 0
M  V30 5559 C 758.902 -6.40075 2.62207 0
M  V30 5560 O 759.701 -5.92589 1.53712 0
M  V30 5561 C 757.565 -6.9454 2.18503 0
M  V30 5562 H 757.597 -7.23063 1.12091 0
M  V30 5563 H 758.78 -5.6025 3.37201 0
M  V30 5564 H 760.264 -7.35707 4.02681 0
M  V30 5565 H 758.57 -9.40912 3.9095 0
M  V30 5566 H 758.38 -8.29056 5.99158 0
M  V30 5567 H 756.75 -8.10073 5.25882 0
M  V30 5568 H 759.389 -6.30324 0.726794 0
M  V30 5569 P 761.247 -8.4349 2.47671 0
M  V30 5570 O 762.669 -8.94167 2.5964 0
M  V30 5571 O 760.887 -7.1704 3.19006 0
M  V30 5572 O 760.924 -8.16596 0.923387 0
M  V30 5573 C 760.764 -9.38437 0.108857 0
M  V30 5574 C 761.304 -9.08175 -1.28353 0
M  V30 5575 O 760.248 -8.44229 -1.84713 0
M  V30 5576 C 762.522 -8.18386 -1.42505 0
M  V30 5577 O 763.26 -8.3501 -2.60497 0
M  V30 5578 C 761.853 -6.80225 -1.25468 0
M  V30 5579 O 762.652 -5.81621 -1.91066 0
M  V30 5580 C 760.516 -7.02416 -1.9168 0
M  V30 5581 H 760.548 -6.6888 -2.96621 0
M  V30 5582 H 761.731 -6.53617 -0.192223 0
M  V30 5583 H 763.215 -8.36622 -0.589963 0
M  V30 5584 H 761.521 -10.0291 -1.79807 0
M  V30 5585 H 761.331 -10.2138 0.558219 0
M  V30 5586 H 759.701 -9.6579 0.0444202 0
M  V30 5587 H 762.34 -5.69556 -2.79637 0
M  V30 5588 P 764.198 -8.4349 -2.47671 0
M  V30 5589 O 765.62 -8.92593 -2.65 0
M  V30 5590 O 763.838 -7.7568 -1.19296 0
M  V30 5591 O 763.875 -7.36886 -3.63805 0
M  V30 5592 C 763.715 -7.95349 -4.982 0
M  V30 5593 C 764.255 -6.94612 -5.98974 0
M  V30 5594 O 763.199 -6.10347 -6.11815 0
M  V30 5595 C 765.473 -6.11426 -5.62335 0
M  V30 5596 O 766.211 -5.6162 -6.70584 0
M  V30 5597 C 764.804 -5.04409 -4.73308 0
M  V30 5598 O 765.603 -3.85992 -4.75183 0
M  V30 5599 C 763.467 -4.8728 -5.41006 0
M  V30 5600 H 763.499 -4.02333 -6.11157 0
M  V30 5601 H 764.682 -5.39466 -3.69543 0
M  V30 5602 H 766.166 -6.71916 -5.01943 0
M  V30 5603 H 764.472 -7.4649 -6.93477 0
M  V30 5604 H 764.282 -8.89416 -5.05237 0
M  V30 5605 H 762.652 -8.14876 -5.18409 0
M  V30 5606 H 765.291 -3.27957 -5.4317 0
M  V30 5607 P 767.148 -5.75688 -6.64379 0
M  V30 5608 O 768.57 -6.07627 -7.05504 0
M  V30 5609 O 766.788 -5.88047 -5.19722 0
M  V30 5610 O 766.825 -4.2322 -7.04443 0
M  V30 5611 C 766.665 -3.99743 -8.4911 0
M  V30 5612 C 767.205 -2.60516 -8.79425 0
M  V30 5613 O 766.149 -1.82684 -8.4467 0
M  V30 5614 C 768.423 -2.10343 -8.03628 0
M  V30 5615 O 769.161 -1.09919 -8.67766 0
M  V30 5616 C 767.754 -1.68446 -6.70876 0
M  V30 5617 O 768.553 -0.678137 -6.08433 0
M  V30 5618 C 766.417 -1.17436 -7.18567 0
M  V30 5619 H 766.449 -0.0804732 -7.31656 0
M  V30 5620 H 767.632 -2.54037 -6.02537 0
M  V30 5621 H 769.116 -2.93881 -7.85526 0
M  V30 5622 H 767.422 -2.53065 -9.86973 0
M  V30 5623 H 767.232 -4.75072 -9.05887 0
M  V30 5624 H 765.602 -4.05244 -8.76668 0
M  V30 5625 H 768.241 0.177647 -6.34251 0
M  V30 5626 P 770.099 -1.25109 -8.70152 0
M  V30 5627 O 771.521 -1.29744 -9.22016 0
M  V30 5628 O 769.739 -2.13714 -7.55141 0
M  V30 5629 O 769.776 0.248149 -8.21425 0
M  V30 5630 C 769.616 1.22779 -9.30434 0
M  V30 5631 C 770.156 2.56293 -8.80664 0
M  V30 5632 O 769.1 3.02979 -8.09349 0
M  V30 5633 C 771.374 2.57523 -7.89775 0
M  V30 5634 O 772.112 3.7668 -7.89438 0
M  V30 5635 C 770.705 2.20997 -6.55446 0
M  V30 5636 O 771.504 2.71895 -5.48509 0
M  V30 5637 C 769.368 2.89693 -6.67988 0
M  V30 5638 H 769.4 3.88793 -6.19859 0
M  V30 5639 H 770.583 1.12046 -6.44229 0
M  V30 5640 H 772.067 1.7746 -8.19711 0
M  V30 5641 H 770.373 3.20706 -9.67112 0
M  V30 5642 H 770.183 0.901032 -10.1892 0
M  V30 5643 H 768.553 1.33049 -9.56592 0
M  V30 5644 H 771.192 3.57847 -5.23962 0
M  V30 5645 P 773.049 3.65191 -7.99657 0
M  V30 5646 O 774.471 3.89332 -8.45794 0
M  V30 5647 O 772.689 2.28472 -7.50807 0
M  V30 5648 O 772.726 4.64972 -6.77611 0
M  V30 5649 C 772.566 6.06319 -7.16352 0
M  V30 5650 C 773.106 6.91731 -6.02299 0
M  V30 5651 O 772.05 6.92449 -5.17064 0
M  V30 5652 C 774.324 6.43627 -5.25174 0
M  V30 5653 O 775.062 7.43686 -4.60469 0
M  V30 5654 C 773.655 5.40275 -4.31916 0
M  V30 5655 O 774.454 5.25279 -3.14438 0
M  V30 5656 C 772.318 6.04847 -4.05327 0
M  V30 5657 H 772.35 6.62195 -3.11261 0
M  V30 5658 H 773.533 4.42556 -4.81383 0
M  V30 5659 H 775.017 5.92458 -5.93643 0
M  V30 5660 H 773.323 7.92655 -6.402 0
M  V30 5661 H 773.133 6.26671 -8.0846 0
M  V30 5662 H 771.503 6.29101 -7.32804 0
M  V30 5663 H 774.142 5.84315 -2.47318 0
M  V30 5664 P 776 7.39546 -4.75277 0
M  V30 5665 O 777.401 7.86988 -5.07993 0
M  V30 5666 O 775.622 5.99957 -5.13804 0
M  V30 5667 O 775.677 7.57411 -3.18621 0
M  V30 5668 C 775.517 8.97357 -2.74833 0
M  V30 5669 C 776.057 9.0745 -1.32694 0
M  V30 5670 O 775.001 8.61972 -0.606089 0
M  V30 5671 C 777.274 8.25383 -0.938334 0
M  V30 5672 O 778.013 8.74577 0.146954 0
M  V30 5673 C 776.607 6.8802 -0.712559 0
M  V30 5674 O 777.405 6.11791 0.194623 0
M  V30 5675 C 775.269 7.27966 -0.139777 0
M  V30 5676 N 774.226 6.39368 -0.623421 0
M  V30 5677 C 773.191 6.08088 0.223886 0
M  V30 5678 O 773.23 6.5102 1.39986 0
M  V30 5679 N 772.179 5.30627 -0.224051 0
M  V30 5680 C 772.227 4.82531 -1.47257 0
M  V30 5681 N 771.217 4.07328 -1.89378 0
M  V30 5682 C 773.323 5.09974 -2.34008 0
M  V30 5683 C 774.289 5.89548 -1.87678 0
M  V30 5684 H 775.301 7.25255 0.961469 0
M  V30 5685 H 776.484 6.32625 -1.65044 0
M  V30 5686 H 777.968 8.19631 -1.78299 0
M  V30 5687 H 776.274 10.1305 -1.09016 0
M  V30 5688 H 776.083 9.64276 -3.41316 0
M  V30 5689 H 774.453 9.25321 -2.76328 0
M  V30 5690 H 773.371 4.67832 -3.3413 0
M  V30 5691 H 775.135 6.14434 -2.51991 0
M  V30 5692 H 770.427 3.87329 -1.26296 0
M  V30 5693 H 771.222 3.69014 -2.84741 0
M  V30 5694 H 777.189 6.35931 1.08377 0
M  V30 5695 P 778.95 8.791 5.69499e-12 0
M  V30 5696 O 780.372 9.31096 0.027933 0
M  V30 5697 O 778.59 7.77869 -1.04071 0
M  V30 5698 O 778.627 8.09533 1.41463 0
M  V30 5699 C 778.467 9.0349 2.53943 0
M  V30 5700 C 779.007 8.35226 3.79016 0
M  V30 5701 O 777.951 7.57992 4.15078 0
M  V30 5702 C 780.225 7.45087 3.67298 0
M  V30 5703 O 780.963 7.27796 4.85194 0
M  V30 5704 C 779.556 6.17323 3.12027 0
M  V30 5705 O 780.355 5.04231 3.47188 0
M  V30 5706 C 778.219 6.19961 3.81809 0
M  V30 5707 H 778.251 5.58218 4.73051 0
M  V30 5708 H 779.434 6.21726 2.02589 0
M  V30 5709 H 780.918 7.86112 2.9231 0
M  V30 5710 H 779.224 9.11627 4.55076 0
M  V30 5711 H 779.034 9.9573 2.34194 0
M  V30 5712 H 777.404 9.2792 2.67832 0
M  V30 5713 H 780.043 4.67702 4.28772 0
M  V30 5714 P 781.901 7.39546 4.75277 0
M  V30 5715 O 783.323 7.81777 5.05738 0
M  V30 5716 O 781.541 7.1065 3.32998 0
M  V30 5717 O 781.578 6.04542 5.56673 0
M  V30 5718 C 781.418 6.22772 7.02095 0
M  V30 5719 C 781.958 4.97725 7.70406 0
M  V30 5720 O 780.902 4.13256 7.58987 0
M  V30 5721 C 783.176 4.28231 7.11815 0
M  V30 5722 O 783.914 3.49945 8.01648 0
M  V30 5723 C 782.507 3.5063 5.96244 0
M  V30 5724 O 783.306 2.36482 5.64681 0
M  V30 5725 C 781.17 3.15122 6.56374 0
M  V30 5726 H 781.202 2.13853 6.99751 0
M  V30 5727 H 782.385 4.13501 5.06559 0
M  V30 5728 H 783.869 5.03285 6.70911 0
M  V30 5729 H 782.175 5.20877 8.75697 0
M  V30 5730 H 781.985 7.11046 7.35349 0
M  V30 5731 H 780.355 6.35815 7.26986 0
M  V30 5732 H 782.994 1.61644 6.13565 0
M  V30 5733 P 784.852 3.65191 7.99657 0
M  V30 5734 O 786.253 3.90823 8.51272 0
M  V30 5735 O 784.474 4.23191 6.66972 0
M  V30 5736 O 784.529 2.07587 7.95046 0
M  V30 5737 C 784.369 1.44328 9.27336 0
M  V30 5738 C 784.909 0.0220012 9.17097 0
M  V30 5739 O 783.853 -0.626794 8.61824 0
M  V30 5740 C 786.126 -0.24586 8.30336 0
M  V30 5741 O 786.865 -1.39011 8.63583 0
M  V30 5742 C 785.459 -0.273849 6.91158 0
M  V30 5743 O 786.257 -1.06331 6.02794 0
M  V30 5744 C 784.121 -0.897649 7.22545 0
M  V30 5745 N 783.078 -0.292839 6.41732 0
M  V30 5746 C 782.043 -1.08701 5.98712 0
M  V30 5747 O 782.082 -2.31211 6.24471 0
M  V30 5748 N 781.031 -0.533391 5.28415 0
M  V30 5749 C 781.079 0.770866 4.98576 0
M  V30 5750 C 782.175 1.59049 5.38086 0
M  V30 5751 C 783.141 1.01866 6.10256 0
M  V30 5752 H 784.153 -1.98383 7.04189 0
M  V30 5753 H 785.336 0.733318 6.49674 0
M  V30 5754 H 786.82 0.598386 8.36663 0
M  V30 5755 H 785.126 -0.362662 10.1825 0
M  V30 5756 H 784.935 2.00611 10.0304 0
M  V30 5757 H 783.305 1.41828 9.55228 0
M  V30 5758 H 782.223 2.6415 5.10622 0
M  V30 5759 H 783.987 1.61983 6.44042 0
M  V30 5760 H 786.041 -1.97777 6.14035 0
M  V30 5761 P 787.802 -1.25109 8.70152 0
M  V30 5762 O 789.224 -1.35274 9.21221 0
M  V30 5763 O 787.442 -0.0769065 7.84762 0
M  V30 5764 O 787.479 -2.55232 7.81161 0
M  V30 5765 C 787.319 -3.79939 8.58154 0
M  V30 5766 C 787.859 -4.94023 7.72785 0
M  V30 5767 O 786.803 -5.18726 6.91205 0
M  V30 5768 C 789.077 -4.69597 6.85231 0
M  V30 5769 O 789.815 -5.83832 6.51337 0
M  V30 5770 C 788.408 -3.96706 5.66633 0
M  V30 5771 O 789.207 -4.15414 4.49689 0
M  V30 5772 C 787.071 -4.66153 5.59313 0
M  V30 5773 H 787.103 -5.47679 4.85214 0
M  V30 5774 H 788.286 -2.89008 5.86566 0
M  V30 5775 H 789.77 -4.0121 7.36511 0
M  V30 5776 H 788.076 -5.80182 8.37584 0
M  V30 5777 H 787.886 -3.73517 9.52265 0
M  V30 5778 H 786.256 -3.97163 8.80359 0
M  V30 5779 H 788.895 -4.90969 4.01921 0
M  V30 5780 P 790.753 -5.75688 6.64379 0
M  V30 5781 O 792.175 -6.11849 7.01846 0
M  V30 5782 O 790.393 -4.30744 6.56026 0
M  V30 5783 O 790.43 -6.37042 5.19165 0
M  V30 5784 C 790.27 -7.83578 5.16515 0
M  V30 5785 C 790.81 -8.33398 3.83019 0
M  V30 5786 O 789.754 -8.10074 3.01034 0
M  V30 5787 C 792.028 -7.65514 3.2257 0
M  V30 5788 O 792.766 -8.4329 2.32297 0
M  V30 5789 C 791.359 -6.40075 2.62207 0
M  V30 5790 O 792.158 -5.92589 1.53712 0
M  V30 5791 C 790.022 -6.9454 2.18503 0
M  V30 5792 H 790.054 -7.23063 1.12091 0
M  V30 5793 H 791.237 -5.6025 3.37201 0
M  V30 5794 H 792.721 -7.35707 4.02681 0
M  V30 5795 H 791.027 -9.40912 3.9095 0
M  V30 5796 H 790.837 -8.29056 5.99158 0
M  V30 5797 H 789.207 -8.10073 5.25882 0
M  V30 5798 H 791.846 -6.30324 0.726794 0
M  V30 5799 P 793.703 -8.4349 2.47671 0
M  V30 5800 O 795.125 -8.94167 2.5964 0
M  V30 5801 O 793.343 -7.1704 3.19006 0
M  V30 5802 O 793.38 -8.16596 0.923387 0
M  V30 5803 C 793.22 -9.38437 0.108857 0
M  V30 5804 C 793.76 -9.08175 -1.28353 0
M  V30 5805 O 792.704 -8.44229 -1.84713 0
M  V30 5806 C 794.978 -8.18386 -1.42505 0
M  V30 5807 O 795.716 -8.3501 -2.60497 0
M  V30 5808 C 794.309 -6.80225 -1.25468 0
M  V30 5809 O 795.108 -5.81621 -1.91066 0
M  V30 5810 C 792.972 -7.02416 -1.9168 0
M  V30 5811 H 793.004 -6.6888 -2.96621 0
M  V30 5812 H 794.187 -6.53617 -0.192223 0
M  V30 5813 H 795.671 -8.36622 -0.589963 0
M  V30 5814 H 793.977 -10.0291 -1.79807 0
M  V30 5815 H 793.787 -10.2138 0.558219 0
M  V30 5816 H 792.157 -9.6579 0.0444202 0
M  V30 5817 H 794.796 -5.69556 -2.79637 0
M  V30 5818 P 796.654 -8.4349 -2.47671 0
M  V30 5819 O 798.076 -8.92593 -2.65 0
M  V30 5820 O 796.294 -7.7568 -1.19296 0
M  V30 5821 O 796.331 -7.36886 -3.63805 0
M  V30 5822 C 796.171 -7.95349 -4.982 0
M  V30 5823 C 796.711 -6.94612 -5.98974 0
M  V30 5824 O 795.655 -6.10347 -6.11815 0
M  V30 5825 C 797.929 -6.11426 -5.62335 0
M  V30 5826 O 798.667 -5.6162 -6.70584 0
M  V30 5827 C 797.26 -5.04409 -4.73308 0
M  V30 5828 O 798.059 -3.85992 -4.75183 0
M  V30 5829 C 795.923 -4.8728 -5.41006 0
M  V30 5830 H 795.955 -4.02333 -6.11157 0
M  V30 5831 H 797.138 -5.39466 -3.69543 0
M  V30 5832 H 798.622 -6.71916 -5.01943 0
M  V30 5833 H 796.928 -7.4649 -6.93477 0
M  V30 5834 H 796.738 -8.89416 -5.05237 0
M  V30 5835 H 795.108 -8.14876 -5.18409 0
M  V30 5836 H 797.747 -3.27957 -5.4317 0
M  V30 5837 P 799.604 -5.75688 -6.64379 0
M  V30 5838 O 801.026 -6.07627 -7.05504 0
M  V30 5839 O 799.244 -5.88047 -5.19722 0
M  V30 5840 O 799.281 -4.2322 -7.04443 0
M  V30 5841 C 799.121 -3.99743 -8.4911 0
M  V30 5842 C 799.661 -2.60516 -8.79425 0
M  V30 5843 O 798.605 -1.82684 -8.4467 0
M  V30 5844 C 800.879 -2.10343 -8.03628 0
M  V30 5845 O 801.617 -1.09919 -8.67766 0
M  V30 5846 C 800.21 -1.68446 -6.70876 0
M  V30 5847 O 801.009 -0.678137 -6.08433 0
M  V30 5848 C 798.873 -1.17436 -7.18567 0
M  V30 5849 H 798.905 -0.0804732 -7.31656 0
M  V30 5850 H 800.088 -2.54037 -6.02537 0
M  V30 5851 H 801.572 -2.93881 -7.85526 0
M  V30 5852 H 799.878 -2.53065 -9.86973 0
M  V30 5853 H 799.688 -4.75072 -9.05887 0
M  V30 5854 H 798.058 -4.05244 -8.76668 0
M  V30 5855 H 800.697 0.177647 -6.34251 0
M  V30 5856 P 802.555 -1.25109 -8.70152 0
M  V30 5857 O 803.977 -1.29744 -9.22016 0
M  V30 5858 O 802.195 -2.13714 -7.55141 0
M  V30 5859 O 802.232 0.248149 -8.21425 0
M  V30 5860 C 802.072 1.22779 -9.30434 0
M  V30 5861 C 802.612 2.56293 -8.80664 0
M  V30 5862 O 801.556 3.02979 -8.09349 0
M  V30 5863 C 803.83 2.57523 -7.89775 0
M  V30 5864 O 804.568 3.7668 -7.89438 0
M  V30 5865 C 803.161 2.20997 -6.55446 0
M  V30 5866 O 803.96 2.71895 -5.48509 0
M  V30 5867 C 801.824 2.89693 -6.67988 0
M  V30 5868 H 801.856 3.88793 -6.19859 0
M  V30 5869 H 803.039 1.12046 -6.44229 0
M  V30 5870 H 804.523 1.7746 -8.19711 0
M  V30 5871 H 802.829 3.20706 -9.67112 0
M  V30 5872 H 802.639 0.901032 -10.1892 0
M  V30 5873 H 801.009 1.33049 -9.56592 0
M  V30 5874 H 803.648 3.57847 -5.23962 0
M  V30 5875 P 805.506 3.65191 -7.99657 0
M  V30 5876 O 806.928 3.89332 -8.45794 0
M  V30 5877 O 805.146 2.28472 -7.50807 0
M  V30 5878 O 805.183 4.64972 -6.77611 0
M  V30 5879 C 805.023 6.06319 -7.16352 0
M  V30 5880 C 805.563 6.91731 -6.02299 0
M  V30 5881 O 804.507 6.92449 -5.17064 0
M  V30 5882 C 806.781 6.43627 -5.25174 0
M  V30 5883 O 807.519 7.43686 -4.60469 0
M  V30 5884 C 806.112 5.40275 -4.31916 0
M  V30 5885 O 806.911 5.25279 -3.14438 0
M  V30 5886 C 804.775 6.04847 -4.05327 0
M  V30 5887 H 804.807 6.62195 -3.11261 0
M  V30 5888 H 805.99 4.42556 -4.81383 0
M  V30 5889 H 807.474 5.92458 -5.93643 0
M  V30 5890 H 805.78 7.92655 -6.402 0
M  V30 5891 H 805.59 6.26671 -8.0846 0
M  V30 5892 H 803.96 6.29101 -7.32804 0
M  V30 5893 H 806.599 5.84315 -2.47318 0
M  V30 5894 P 808.456 7.39546 -4.75277 0
M  V30 5895 O 809.878 7.84798 -5.01039 0
M  V30 5896 O 808.096 5.9812 -5.08098 0
M  V30 5897 O 808.133 7.57503 -3.1866 0
M  V30 5898 C 807.973 8.97357 -2.74833 0
M  V30 5899 C 808.513 9.07548 -1.32709 0
M  V30 5900 O 807.457 8.62072 -0.606159 0
M  V30 5901 C 809.731 8.25383 -0.938334 0
M  V30 5902 O 810.469 8.74577 0.146954 0
M  V30 5903 C 809.062 6.8802 -0.712559 0
M  V30 5904 O 809.861 6.1189 0.194655 0
M  V30 5905 C 807.725 7.27966 -0.139777 0
M  V30 5906 H 807.757 7.25354 0.961601 0
M  V30 5907 H 808.94 6.32557 -1.65702 0
M  V30 5908 H 810.424 8.19355 -1.79097 0
M  V30 5909 H 808.73 10.1294 -1.10029 0
M  V30 5910 H 808.54 9.64276 -3.41316 0
M  V30 5911 H 806.91 9.25417 -2.76357 0
M  V30 5912 H 809.549 6.25267 1.07847 0
M  V30 5913 P 811.407 8.791 6.00516e-12 0
M  V30 5914 O 812.829 9.31096 0.027933 0
M  V30 5915 O 811.047 7.77869 -1.04071 0
M  V30 5916 O 811.084 8.09533 1.41463 0
M  V30 5917 C 810.924 9.0349 2.53943 0
M  V30 5918 C 811.464 8.35226 3.79016 0
M  V30 5919 O 810.408 7.57992 4.15078 0
M  V30 5920 C 812.682 7.45087 3.67298 0
M  V30 5921 O 813.42 7.27796 4.85194 0
M  V30 5922 C 812.013 6.17323 3.12027 0
M  V30 5923 O 812.812 5.04231 3.47188 0
M  V30 5924 C 810.676 6.19961 3.81809 0
M  V30 5925 H 810.708 5.58218 4.73051 0
M  V30 5926 H 811.891 6.21726 2.02589 0
M  V30 5927 H 813.375 7.86112 2.9231 0
M  V30 5928 H 811.681 9.11627 4.55076 0
M  V30 5929 H 811.491 9.9573 2.34194 0
M  V30 5930 H 809.861 9.2792 2.67832 0
M  V30 5931 H 812.5 4.67702 4.28772 0
M  V30 5932 P 814.357 7.39546 4.75277 0
M  V30 5933 O 815.758 7.89013 5.04841 0
M  V30 5934 O 813.979 7.16603 3.32298 0
M  V30 5935 O 814.034 6.04468 5.56605 0
M  V30 5936 C 813.874 6.22772 7.02095 0
M  V30 5937 C 814.414 4.97671 7.70322 0
M  V30 5938 O 813.358 4.13208 7.58899 0
M  V30 5939 C 815.631 4.28231 7.11815 0
M  V30 5940 O 816.37 3.49945 8.01648 0
M  V30 5941 C 814.964 3.5063 5.96244 0
M  V30 5942 O 815.762 2.36443 5.64589 0
M  V30 5943 C 813.626 3.15122 6.56374 0
M  V30 5944 N 812.583 3.22311 5.55692 0
M  V30 5945 C 811.548 2.32244 5.62437 0
M  V30 5946 O 811.587 1.43107 6.50341 0
M  V30 5947 N 810.536 2.40811 4.73368 0
M  V30 5948 C 810.584 3.344 3.77753 0
M  V30 5949 C 811.68 4.24712 3.66679 0
M  V30 5950 C 812.646 4.15625 4.58307 0
M  V30 5951 H 813.658 2.13823 6.99656 0
M  V30 5952 H 814.841 4.12931 5.06895 0
M  V30 5953 H 816.325 5.02674 6.71494 0
M  V30 5954 H 814.631 5.20001 8.76217 0
M  V30 5955 H 814.44 7.11046 7.35349 0
M  V30 5956 H 812.81 6.35749 7.26911 0
M  V30 5957 H 811.728 4.9828 2.86753 0
M  V30 5958 H 813.492 4.84464 4.54228 0
M  V30 5959 H 815.546 1.65592 6.23485 0
M  V30 5960 P 817.308 3.65191 7.99657 0
M  V30 5961 O 818.73 3.8425 8.48115 0
M  V30 5962 O 816.948 4.17805 6.64342 0
M  V30 5963 O 816.985 2.07613 7.95143 0
M  V30 5964 C 816.825 1.44328 9.27336 0
M  V30 5965 C 817.365 0.0220036 9.17197 0
M  V30 5966 O 816.309 -0.626867 8.61923 0
M  V30 5967 C 818.583 -0.24586 8.30336 0
M  V30 5968 O 819.321 -1.39011 8.63583 0
M  V30 5969 C 817.914 -0.273849 6.91158 0
M  V30 5970 O 818.713 -1.06348 6.02892 0
M  V30 5971 C 816.577 -0.897649 7.22545 0
M  V30 5972 H 816.609 -1.9841 7.04286 0
M  V30 5973 H 817.792 0.739928 6.497 0
M  V30 5974 H 819.276 0.60668 8.36503 0
M  V30 5975 H 817.582 -0.352479 10.1829 0
M  V30 5976 H 817.392 2.00611 10.0304 0
M  V30 5977 H 815.762 1.41843 9.55327 0
M  V30 5978 H 818.401 -1.95734 6.03555 0
M  V30 5979 P 820.258 -1.25109 8.70152 0
M  V30 5980 O 821.68 -1.35274 9.21221 0
M  V30 5981 O 819.898 -0.0769065 7.84762 0
M  V30 5982 O 819.935 -2.55232 7.81161 0
M  V30 5983 C 819.775 -3.79939 8.58154 0
M  V30 5984 C 820.315 -4.94023 7.72785 0
M  V30 5985 O 819.259 -5.18726 6.91205 0
M  V30 5986 C 821.533 -4.69597 6.85231 0
M  V30 5987 O 822.271 -5.83832 6.51337 0
M  V30 5988 C 820.864 -3.96706 5.66633 0
M  V30 5989 O 821.663 -4.15414 4.49689 0
M  V30 5990 C 819.527 -4.66153 5.59313 0
M  V30 5991 H 819.559 -5.47679 4.85214 0
M  V30 5992 H 820.742 -2.89008 5.86566 0
M  V30 5993 H 822.226 -4.0121 7.36511 0
M  V30 5994 H 820.532 -5.80182 8.37584 0
M  V30 5995 H 820.342 -3.73517 9.52265 0
M  V30 5996 H 818.712 -3.97163 8.80359 0
M  V30 5997 H 821.351 -4.90969 4.01921 0
M  V30 5998 P 823.209 -5.75688 6.64379 0
M  V30 5999 O 824.631 -6.11981 7.01997 0
M  V30 6000 O 822.849 -4.30744 6.56026 0
M  V30 6001 O 822.886 -6.37042 5.19165 0
M  V30 6002 C 822.726 -7.83578 5.16515 0
M  V30 6003 C 823.266 -8.33307 3.82977 0
M  V30 6004 O 822.211 -8.10074 3.01034 0
M  V30 6005 C 824.484 -7.65514 3.2257 0
M  V30 6006 O 825.222 -8.4329 2.32297 0
M  V30 6007 C 823.816 -6.40075 2.62207 0
M  V30 6008 O 824.614 -5.92492 1.53687 0
M  V30 6009 C 822.478 -6.9454 2.18503 0
M  V30 6010 N 821.435 -5.95905 2.39948 0
M  V30 6011 C 821.497 -5.13994 3.44742 0
M  V30 6012 N 820.452 -4.30684 3.46712 0
M  V30 6013 C 819.718 -4.65583 2.41086 0
M  V30 6014 C 818.412 -4.20877 1.99581 0
M  V30 6015 O 817.679 -3.35913 2.52616 0
M  V30 6016 N 817.982 -4.83271 0.873406 0
M  V30 6017 C 818.731 -5.82006 0.185129 0
M  V30 6018 N 818.134 -6.30619 -0.95439 0
M  V30 6019 N 819.884 -6.28443 0.578524 0
M  V30 6020 C 820.341 -5.68486 1.70138 0
M  V30 6021 H 822.51 -7.23063 1.12091 0
M  V30 6022 H 823.693 -5.60165 3.3715 0
M  V30 6023 H 825.178 -7.3611 4.01946 0
M  V30 6024 H 823.483 -9.40912 3.9095 0
M  V30 6025 H 823.293 -8.29056 5.99158 0
M  V30 6026 H 821.662 -8.10073 5.25882 0
M  V30 6027 H 817.086 -4.58323 0.505262 0
M  V30 6028 H 822.293 -5.14564 4.1935 0
M  V30 6029 H 817.223 -5.93402 -1.25364 0
M  V30 6030 H 818.599 -7.0425 -1.50254 0
M  V30 6031 H 824.303 -6.30224 0.72668 0
M  V30 6032 P 826.16 -8.4349 2.47671 0
M  V30 6033 O 827.582 -8.94167 2.5964 0
M  V30 6034 O 825.8 -7.1704 3.19006 0
M  V30 6035 O 825.837 -8.16596 0.923387 0
M  V30 6036 C 825.677 -9.38437 0.108857 0
M  V30 6037 C 826.217 -9.08175 -1.28353 0
M  V30 6038 O 825.161 -8.44229 -1.84713 0
M  V30 6039 C 827.435 -8.18386 -1.42505 0
M  V30 6040 O 828.173 -8.3501 -2.60497 0
M  V30 6041 C 826.766 -6.80225 -1.25468 0
M  V30 6042 O 827.565 -5.81621 -1.91066 0
M  V30 6043 C 825.429 -7.02416 -1.9168 0
M  V30 6044 H 825.461 -6.6888 -2.96621 0
M  V30 6045 H 826.644 -6.53617 -0.192223 0
M  V30 6046 H 828.128 -8.36622 -0.589963 0
M  V30 6047 H 826.434 -10.0291 -1.79807 0
M  V30 6048 H 826.244 -10.2138 0.558219 0
M  V30 6049 H 824.614 -9.6579 0.0444202 0
M  V30 6050 H 827.253 -5.69556 -2.79637 0
M  V30 6051 P 829.11 -8.4349 -2.47671 0
M  V30 6052 O 830.511 -8.99283 -2.62101 0
M  V30 6053 O 828.732 -7.81195 -1.16947 0
M  V30 6054 O 828.787 -7.36797 -3.63761 0
M  V30 6055 C 828.627 -7.95349 -4.982 0
M  V30 6056 C 829.167 -6.94537 -5.98908 0
M  V30 6057 O 828.111 -6.10277 -6.11744 0
M  V30 6058 C 830.384 -6.11426 -5.62335 0
M  V30 6059 O 831.123 -5.6162 -6.70584 0
M  V30 6060 C 829.717 -5.04409 -4.73308 0
M  V30 6061 O 830.515 -3.85929 -4.75106 0
M  V30 6062 C 828.379 -4.8728 -5.41006 0
M  V30 6063 N 827.336 -4.65812 -4.42377 0
M  V30 6064 C 826.301 -3.81293 -4.74224 0
M  V30 6065 O 826.34 -3.20533 -5.83679 0
M  V30 6066 N 825.289 -3.6442 -3.86349 0
M  V30 6067 C 825.337 -4.2728 -2.6824 0
M  V30 6068 C 826.433 -5.10813 -2.3217 0
M  V30 6069 C 827.399 -5.27909 -3.22647 0
M  V30 6070 H 828.411 -4.02278 -6.11074 0
M  V30 6071 H 829.594 -5.39013 -3.70026 0
M  V30 6072 H 831.078 -6.71494 -5.02675 0
M  V30 6073 H 829.384 -7.45796 -6.94223 0
M  V30 6074 H 829.193 -8.89416 -5.05237 0
M  V30 6075 H 827.563 -8.14791 -5.18355 0
M  V30 6076 H 826.481 -5.58884 -1.34755 0
M  V30 6077 H 828.245 -5.92811 -2.9934 0
M  V30 6078 H 830.299 -3.3454 -5.51577 0
M  V30 6079 P 832.061 -5.75688 -6.64379 0
M  V30 6080 O 833.483 -6.07627 -7.05504 0
M  V30 6081 O 831.701 -5.88047 -5.19722 0
M  V30 6082 O 831.738 -4.2322 -7.04443 0
M  V30 6083 C 831.578 -3.99743 -8.4911 0
M  V30 6084 C 832.118 -2.60516 -8.79425 0
M  V30 6085 O 831.062 -1.82684 -8.4467 0
M  V30 6086 C 833.336 -2.10343 -8.03628 0
M  V30 6087 O 834.074 -1.09919 -8.67766 0
M  V30 6088 C 832.667 -1.68446 -6.70876 0
M  V30 6089 O 833.466 -0.678137 -6.08433 0
M  V30 6090 C 831.33 -1.17436 -7.18567 0
M  V30 6091 H 831.362 -0.0804732 -7.31656 0
M  V30 6092 H 832.545 -2.54037 -6.02537 0
M  V30 6093 H 834.029 -2.93881 -7.85526 0
M  V30 6094 H 832.335 -2.53065 -9.86973 0
M  V30 6095 H 832.145 -4.75072 -9.05887 0
M  V30 6096 H 830.515 -4.05244 -8.76668 0
M  V30 6097 H 833.154 0.177647 -6.34251 0
M  V30 6098 P 835.011 -1.25109 -8.70152 0
M  V30 6099 O 836.433 -1.29744 -9.22016 0
M  V30 6100 O 834.651 -2.13714 -7.55141 0
M  V30 6101 O 834.688 0.248149 -8.21425 0
M  V30 6102 C 834.528 1.22779 -9.30434 0
M  V30 6103 C 835.068 2.56293 -8.80664 0
M  V30 6104 O 834.012 3.02979 -8.09349 0
M  V30 6105 C 836.286 2.57523 -7.89775 0
M  V30 6106 O 837.024 3.7668 -7.89438 0
M  V30 6107 C 835.617 2.20997 -6.55446 0
M  V30 6108 O 836.416 2.71895 -5.48509 0
M  V30 6109 C 834.28 2.89693 -6.67988 0
M  V30 6110 H 834.312 3.88793 -6.19859 0
M  V30 6111 H 835.495 1.12046 -6.44229 0
M  V30 6112 H 836.979 1.7746 -8.19711 0
M  V30 6113 H 835.285 3.20706 -9.67112 0
M  V30 6114 H 835.095 0.901032 -10.1892 0
M  V30 6115 H 833.465 1.33049 -9.56592 0
M  V30 6116 H 836.104 3.57847 -5.23962 0
M  V30 6117 P 837.962 3.65191 -7.99657 0
M  V30 6118 O 839.384 3.89332 -8.45794 0
M  V30 6119 O 837.602 2.28472 -7.50807 0
M  V30 6120 O 837.639 4.64972 -6.77611 0
M  V30 6121 C 837.479 6.06319 -7.16352 0
M  V30 6122 C 838.019 6.91731 -6.02299 0
M  V30 6123 O 836.963 6.92449 -5.17064 0
M  V30 6124 C 839.237 6.43627 -5.25174 0
M  V30 6125 O 839.975 7.43686 -4.60469 0
M  V30 6126 C 838.568 5.40275 -4.31916 0
M  V30 6127 O 839.367 5.25279 -3.14438 0
M  V30 6128 C 837.231 6.04847 -4.05327 0
M  V30 6129 H 837.263 6.62195 -3.11261 0
M  V30 6130 H 838.446 4.42556 -4.81383 0
M  V30 6131 H 839.93 5.92458 -5.93643 0
M  V30 6132 H 838.236 7.92655 -6.402 0
M  V30 6133 H 838.046 6.26671 -8.0846 0
M  V30 6134 H 836.416 6.29101 -7.32804 0
M  V30 6135 H 839.055 5.84315 -2.47318 0
M  V30 6136 P 840.912 7.39546 -4.75277 0
M  V30 6137 O 842.334 7.84798 -5.01039 0
M  V30 6138 O 840.552 5.9812 -5.08098 0
M  V30 6139 O 840.589 7.57503 -3.1866 0
M  V30 6140 C 840.429 8.97357 -2.74833 0
M  V30 6141 C 840.969 9.07548 -1.32709 0
M  V30 6142 O 839.913 8.62072 -0.606159 0
M  V30 6143 C 842.187 8.25383 -0.938334 0
M  V30 6144 O 842.925 8.74577 0.146954 0
M  V30 6145 C 841.518 6.8802 -0.712559 0
M  V30 6146 O 842.317 6.1189 0.194655 0
M  V30 6147 C 840.181 7.27966 -0.139777 0
M  V30 6148 H 840.213 7.25354 0.961601 0
M  V30 6149 H 841.396 6.32557 -1.65702 0
M  V30 6150 H 842.88 8.19355 -1.79097 0
M  V30 6151 H 841.186 10.1294 -1.10029 0
M  V30 6152 H 840.996 9.64276 -3.41316 0
M  V30 6153 H 839.366 9.25417 -2.76357 0
M  V30 6154 H 842.005 6.25267 1.07847 0
M  V30 6155 P 843.863 8.791 6.31533e-12 0
M  V30 6156 O 845.285 9.31096 0.027933 0
M  V30 6157 O 843.503 7.77869 -1.04071 0
M  V30 6158 O 843.54 8.09533 1.41463 0
M  V30 6159 C 843.38 9.0349 2.53943 0
M  V30 6160 C 843.92 8.35226 3.79016 0
M  V30 6161 O 842.864 7.57992 4.15078 0
M  V30 6162 C 845.138 7.45087 3.67298 0
M  V30 6163 O 845.876 7.27796 4.85194 0
M  V30 6164 C 844.469 6.17323 3.12027 0
M  V30 6165 O 845.268 5.04231 3.47188 0
M  V30 6166 C 843.132 6.19961 3.81809 0
M  V30 6167 H 843.164 5.58218 4.73051 0
M  V30 6168 H 844.347 6.21726 2.02589 0
M  V30 6169 H 845.831 7.86112 2.9231 0
M  V30 6170 H 844.137 9.11627 4.55076 0
M  V30 6171 H 843.947 9.9573 2.34194 0
M  V30 6172 H 842.317 9.2792 2.67832 0
M  V30 6173 H 844.956 4.67702 4.28772 0
M  V30 6174 P 846.814 7.39546 4.75277 0
M  V30 6175 O 848.236 7.81945 5.05847 0
M  V30 6176 O 846.454 7.1065 3.32998 0
M  V30 6177 O 846.491 6.04542 5.56673 0
M  V30 6178 C 846.331 6.22772 7.02095 0
M  V30 6179 C 846.871 4.97671 7.70322 0
M  V30 6180 O 845.816 4.13256 7.58987 0
M  V30 6181 C 848.089 4.28231 7.11815 0
M  V30 6182 O 848.827 3.49945 8.01648 0
M  V30 6183 C 847.421 3.5063 5.96244 0
M  V30 6184 O 848.219 2.36443 5.64589 0
M  V30 6185 C 846.083 3.15122 6.56374 0
M  V30 6186 N 845.04 3.22311 5.55692 0
M  V30 6187 C 845.102 4.14382 4.59701 0
M  V30 6188 N 844.057 4.04476 3.76958 0
M  V30 6189 C 843.323 3.04892 4.26534 0
M  V30 6190 C 842.017 2.57447 3.88189 0
M  V30 6191 O 841.284 2.9785 2.96543 0
M  V30 6192 N 841.587 1.55228 4.65922 0
M  V30 6193 C 842.336 1.01152 5.73447 0
M  V30 6194 N 841.739 -0.0472117 6.37783 0
M  V30 6195 N 843.489 1.467 6.13813 0
M  V30 6196 C 843.946 2.4931 5.38487 0
M  V30 6197 H 846.115 2.13853 6.99751 0
M  V30 6198 H 847.298 4.13438 5.06482 0
M  V30 6199 H 848.783 5.02614 6.71414 0
M  V30 6200 H 847.088 5.20877 8.75697 0
M  V30 6201 H 846.898 7.11046 7.35349 0
M  V30 6202 H 845.267 6.35815 7.26986 0
M  V30 6203 H 840.691 1.15238 4.46468 0
M  V30 6204 H 845.898 4.88312 4.49647 0
M  V30 6205 H 840.828 -0.396382 6.05203 0
M  V30 6206 H 842.204 -0.484997 7.18465 0
M  V30 6207 H 847.908 1.61619 6.13468 0
M  V30 6208 P 849.764 3.65191 7.99657 0
M  V30 6209 O 851.186 3.8425 8.48115 0
M  V30 6210 O 849.404 4.17805 6.64342 0
M  V30 6211 O 849.441 2.07613 7.95143 0
M  V30 6212 C 849.281 1.44328 9.27336 0
M  V30 6213 C 849.821 0.0220036 9.17197 0
M  V30 6214 O 848.765 -0.626867 8.61923 0
M  V30 6215 C 851.039 -0.24586 8.30336 0
M  V30 6216 O 851.777 -1.39011 8.63583 0
M  V30 6217 C 850.37 -0.273849 6.91158 0
M  V30 6218 O 851.169 -1.06348 6.02892 0
M  V30 6219 C 849.033 -0.897649 7.22545 0
M  V30 6220 H 849.065 -1.9841 7.04286 0
M  V30 6221 H 850.248 0.739928 6.497 0
M  V30 6222 H 851.732 0.60668 8.36503 0
M  V30 6223 H 850.038 -0.352479 10.1829 0
M  V30 6224 H 849.848 2.00611 10.0304 0
M  V30 6225 H 848.218 1.41843 9.55327 0
M  V30 6226 H 850.857 -1.95734 6.03555 0
M  V30 6227 P 852.715 -1.25109 8.70152 0
M  V30 6228 O 854.137 -1.35274 9.21221 0
M  V30 6229 O 852.355 -0.0769065 7.84762 0
M  V30 6230 O 852.392 -2.55232 7.81161 0
M  V30 6231 C 852.232 -3.79939 8.58154 0
M  V30 6232 C 852.772 -4.94023 7.72785 0
M  V30 6233 O 851.716 -5.18726 6.91205 0
M  V30 6234 C 853.99 -4.69597 6.85231 0
M  V30 6235 O 854.728 -5.83832 6.51337 0
M  V30 6236 C 853.321 -3.96706 5.66633 0
M  V30 6237 O 854.12 -4.15414 4.49689 0
M  V30 6238 C 851.984 -4.66153 5.59313 0
M  V30 6239 H 852.016 -5.47679 4.85214 0
M  V30 6240 H 853.199 -2.89008 5.86566 0
M  V30 6241 H 854.683 -4.0121 7.36511 0
M  V30 6242 H 852.989 -5.80182 8.37584 0
M  V30 6243 H 852.799 -3.73517 9.52265 0
M  V30 6244 H 851.169 -3.97163 8.80359 0
M  V30 6245 H 853.808 -4.90969 4.01921 0
M  V30 6246 P 855.665 -5.75688 6.64379 0
M  V30 6247 O 857.087 -6.11981 7.01997 0
M  V30 6248 O 855.305 -4.30744 6.56026 0
M  V30 6249 O 855.342 -6.37042 5.19165 0
M  V30 6250 C 855.182 -7.83578 5.16515 0
M  V30 6251 C 855.722 -8.33307 3.82977 0
M  V30 6252 O 854.667 -8.10074 3.01034 0
M  V30 6253 C 856.94 -7.65514 3.2257 0
M  V30 6254 O 857.678 -8.4329 2.32297 0
M  V30 6255 C 856.272 -6.40075 2.62207 0
M  V30 6256 O 857.07 -5.92492 1.53687 0
M  V30 6257 C 854.934 -6.9454 2.18503 0
M  V30 6258 N 853.891 -5.95905 2.39948 0
M  V30 6259 C 853.953 -5.13994 3.44742 0
M  V30 6260 N 852.908 -4.30684 3.46712 0
M  V30 6261 C 852.174 -4.65583 2.41086 0
M  V30 6262 C 850.868 -4.20877 1.99581 0
M  V30 6263 O 850.135 -3.35913 2.52616 0
M  V30 6264 N 850.438 -4.83271 0.873406 0
M  V30 6265 C 851.187 -5.82006 0.185129 0
M  V30 6266 N 850.59 -6.30619 -0.95439 0
M  V30 6267 N 852.34 -6.28443 0.578524 0
M  V30 6268 C 852.797 -5.68486 1.70138 0
M  V30 6269 H 854.966 -7.23063 1.12091 0
M  V30 6270 H 856.149 -5.60165 3.3715 0
M  V30 6271 H 857.634 -7.3611 4.01946 0
M  V30 6272 H 855.939 -9.40912 3.9095 0
M  V30 6273 H 855.749 -8.29056 5.99158 0
M  V30 6274 H 854.118 -8.10073 5.25882 0
M  V30 6275 H 849.542 -4.58323 0.505262 0
M  V30 6276 H 854.749 -5.14564 4.1935 0
M  V30 6277 H 849.679 -5.93402 -1.25364 0
M  V30 6278 H 851.055 -7.0425 -1.50254 0
M  V30 6279 H 856.759 -6.30224 0.72668 0
M  V30 6280 P 858.616 -8.4349 2.47671 0
M  V30 6281 O 860.017 -8.98227 2.65696 0
M  V30 6282 O 858.238 -7.20409 3.23964 0
M  V30 6283 O 858.293 -8.16496 0.923275 0
M  V30 6284 C 858.133 -9.38437 0.108857 0
M  V30 6285 C 858.673 -9.08076 -1.28339 0
M  V30 6286 O 857.617 -8.44131 -1.84692 0
M  V30 6287 C 859.89 -8.18386 -1.42505 0
M  V30 6288 O 860.629 -8.3501 -2.60497 0
M  V30 6289 C 859.223 -6.80225 -1.25468 0
M  V30 6290 O 860.021 -5.81526 -1.91035 0
M  V30 6291 C 857.885 -7.02416 -1.9168 0
M  V30 6292 N 856.842 -6.31033 -1.20314 0
M  V30 6293 C 855.807 -5.77149 -1.928 0
M  V30 6294 O 855.846 -5.8521 -3.17729 0
M  V30 6295 N 854.795 -5.15445 -1.27997 0
M  V30 6296 C 854.843 -5.04472 0.0534726 0
M  V30 6297 C 855.939 -5.55244 0.808522 0
M  V30 6298 C 856.905 -6.18542 0.13981 0
M  V30 6299 H 857.917 -6.68789 -2.9658 0
M  V30 6300 H 859.1 -6.53498 -0.198729 0
M  V30 6301 H 860.584 -8.36663 -0.5984 0
M  V30 6302 H 858.89 -10.0273 -1.8081 0
M  V30 6303 H 858.699 -10.2138 0.558219 0
M  V30 6304 H 857.069 -9.6569 0.0444156 0
M  V30 6305 H 855.987 -5.43017 1.88792 0
M  V30 6306 H 857.751 -6.60539 0.686773 0
M  V30 6307 H 859.805 -5.79638 -2.8315 0
M  V30 6308 P 861.566 -8.4349 -2.47671 0
M  V30 6309 O 862.988 -8.92593 -2.65 0
M  V30 6310 O 861.206 -7.7568 -1.19296 0
M  V30 6311 O 861.243 -7.36886 -3.63805 0
M  V30 6312 C 861.083 -7.95349 -4.982 0
M  V30 6313 C 861.623 -6.94612 -5.98974 0
M  V30 6314 O 860.567 -6.10347 -6.11815 0
M  V30 6315 C 862.841 -6.11426 -5.62335 0
M  V30 6316 O 863.579 -5.6162 -6.70584 0
M  V30 6317 C 862.172 -5.04409 -4.73308 0
M  V30 6318 O 862.971 -3.85992 -4.75183 0
M  V30 6319 C 860.835 -4.8728 -5.41006 0
M  V30 6320 H 860.867 -4.02333 -6.11157 0
M  V30 6321 H 862.05 -5.39466 -3.69543 0
M  V30 6322 H 863.534 -6.71916 -5.01943 0
M  V30 6323 H 861.84 -7.4649 -6.93477 0
M  V30 6324 H 861.65 -8.89416 -5.05237 0
M  V30 6325 H 860.02 -8.14876 -5.18409 0
M  V30 6326 H 862.659 -3.27957 -5.4317 0
M  V30 6327 P 864.517 -5.75688 -6.64379 0
M  V30 6328 O 865.939 -6.07627 -7.05504 0
M  V30 6329 O 864.157 -5.88047 -5.19722 0
M  V30 6330 O 864.194 -4.2322 -7.04443 0
M  V30 6331 C 864.034 -3.99743 -8.4911 0
M  V30 6332 C 864.574 -2.60516 -8.79425 0
M  V30 6333 O 863.518 -1.82684 -8.4467 0
M  V30 6334 C 865.792 -2.10343 -8.03628 0
M  V30 6335 O 866.53 -1.09919 -8.67766 0
M  V30 6336 C 865.123 -1.68446 -6.70876 0
M  V30 6337 O 865.922 -0.678137 -6.08433 0
M  V30 6338 C 863.786 -1.17436 -7.18567 0
M  V30 6339 H 863.818 -0.0804732 -7.31656 0
M  V30 6340 H 865.001 -2.54037 -6.02537 0
M  V30 6341 H 866.485 -2.93881 -7.85526 0
M  V30 6342 H 864.791 -2.53065 -9.86973 0
M  V30 6343 H 864.601 -4.75072 -9.05887 0
M  V30 6344 H 862.971 -4.05244 -8.76668 0
M  V30 6345 H 865.61 0.177647 -6.34251 0
M  V30 6346 P 867.468 -1.25109 -8.70152 0
M  V30 6347 O 868.89 -1.29744 -9.22016 0
M  V30 6348 O 867.108 -2.13714 -7.55141 0
M  V30 6349 O 867.145 0.248149 -8.21425 0
M  V30 6350 C 866.985 1.22779 -9.30434 0
M  V30 6351 C 867.525 2.56293 -8.80664 0
M  V30 6352 O 866.469 3.02979 -8.09349 0
M  V30 6353 C 868.743 2.57523 -7.89775 0
M  V30 6354 O 869.481 3.7668 -7.89438 0
M  V30 6355 C 868.074 2.20997 -6.55446 0
M  V30 6356 O 868.873 2.71895 -5.48509 0
M  V30 6357 C 866.737 2.89693 -6.67988 0
M  V30 6358 H 866.769 3.88793 -6.19859 0
M  V30 6359 H 867.952 1.12046 -6.44229 0
M  V30 6360 H 869.436 1.7746 -8.19711 0
M  V30 6361 H 867.742 3.20706 -9.67112 0
M  V30 6362 H 867.552 0.901032 -10.1892 0
M  V30 6363 H 865.922 1.33049 -9.56592 0
M  V30 6364 H 868.561 3.57847 -5.23962 0
M  V30 6365 P 870.418 3.65191 -7.99657 0
M  V30 6366 O 871.84 3.89332 -8.45794 0
M  V30 6367 O 870.058 2.28472 -7.50807 0
M  V30 6368 O 870.095 4.64972 -6.77611 0
M  V30 6369 C 869.935 6.06319 -7.16352 0
M  V30 6370 C 870.475 6.91731 -6.02299 0
M  V30 6371 O 869.419 6.92449 -5.17064 0
M  V30 6372 C 871.693 6.43627 -5.25174 0
M  V30 6373 O 872.431 7.43686 -4.60469 0
M  V30 6374 C 871.024 5.40275 -4.31916 0
M  V30 6375 O 871.823 5.25279 -3.14438 0
M  V30 6376 C 869.687 6.04847 -4.05327 0
M  V30 6377 H 869.719 6.62195 -3.11261 0
M  V30 6378 H 870.902 4.42556 -4.81383 0
M  V30 6379 H 872.386 5.92458 -5.93643 0
M  V30 6380 H 870.692 7.92655 -6.402 0
M  V30 6381 H 870.502 6.26671 -8.0846 0
M  V30 6382 H 868.872 6.29101 -7.32804 0
M  V30 6383 H 871.511 5.84315 -2.47318 0
M  V30 6384 P 873.369 7.39546 -4.75277 0
M  V30 6385 O 874.791 7.84798 -5.01039 0
M  V30 6386 O 873.009 5.9812 -5.08098 0
M  V30 6387 O 873.046 7.57503 -3.1866 0
M  V30 6388 C 872.886 8.97357 -2.74833 0
M  V30 6389 C 873.426 9.07548 -1.32709 0
M  V30 6390 O 872.37 8.62072 -0.606159 0
M  V30 6391 C 874.644 8.25383 -0.938334 0
M  V30 6392 O 875.382 8.74577 0.146954 0
M  V30 6393 C 873.975 6.8802 -0.712559 0
M  V30 6394 O 874.774 6.1189 0.194655 0
M  V30 6395 C 872.638 7.27966 -0.139777 0
M  V30 6396 H 872.67 7.25354 0.961601 0
M  V30 6397 H 873.853 6.32557 -1.65702 0
M  V30 6398 H 875.337 8.19355 -1.79097 0
M  V30 6399 H 873.643 10.1294 -1.10029 0
M  V30 6400 H 873.453 9.64276 -3.41316 0
M  V30 6401 H 871.823 9.25417 -2.76357 0
M  V30 6402 H 874.462 6.25267 1.07847 0
M  V30 6403 P 876.319 8.791 6.62549e-12 0
M  V30 6404 O 877.741 9.31096 0.027933 0
M  V30 6405 O 875.959 7.77869 -1.04071 0
M  V30 6406 O 875.996 8.09533 1.41463 0
M  V30 6407 C 875.836 9.0349 2.53943 0
M  V30 6408 C 876.376 8.35226 3.79016 0
M  V30 6409 O 875.32 7.57992 4.15078 0
M  V30 6410 C 877.594 7.45087 3.67298 0
M  V30 6411 O 878.332 7.27796 4.85194 0
M  V30 6412 C 876.925 6.17323 3.12027 0
M  V30 6413 O 877.724 5.04231 3.47188 0
M  V30 6414 C 875.588 6.19961 3.81809 0
M  V30 6415 H 875.62 5.58218 4.73051 0
M  V30 6416 H 876.803 6.21726 2.02589 0
M  V30 6417 H 878.287 7.86112 2.9231 0
M  V30 6418 H 876.593 9.11627 4.55076 0
M  V30 6419 H 876.403 9.9573 2.34194 0
M  V30 6420 H 874.773 9.2792 2.67832 0
M  V30 6421 H 877.412 4.67702 4.28772 0
M  V30 6422 P 879.27 7.39546 4.75277 0
M  V30 6423 O 880.692 7.81777 5.05738 0
M  V30 6424 O 878.91 7.1065 3.32998 0
M  V30 6425 O 878.947 6.04542 5.56673 0
M  V30 6426 C 878.787 6.22772 7.02095 0
M  V30 6427 C 879.327 4.97725 7.70406 0
M  V30 6428 O 878.271 4.13256 7.58987 0
M  V30 6429 C 880.545 4.28231 7.11815 0
M  V30 6430 O 881.283 3.49945 8.01648 0
M  V30 6431 C 879.876 3.5063 5.96244 0
M  V30 6432 O 880.675 2.36482 5.64681 0
M  V30 6433 C 878.539 3.15122 6.56374 0
M  V30 6434 H 878.571 2.13853 6.99751 0
M  V30 6435 H 879.754 4.13501 5.06559 0
M  V30 6436 H 881.238 5.03285 6.70911 0
M  V30 6437 H 879.544 5.20877 8.75697 0
M  V30 6438 H 879.354 7.11046 7.35349 0
M  V30 6439 H 877.724 6.35815 7.26986 0
M  V30 6440 H 880.363 1.61644 6.13565 0
M  V30 6441 P 882.22 3.65191 7.99657 0
M  V30 6442 O 883.642 3.8425 8.48115 0
M  V30 6443 O 881.86 4.17805 6.64342 0
M  V30 6444 O 881.897 2.07613 7.95143 0
M  V30 6445 C 881.737 1.44328 9.27336 0
M  V30 6446 C 882.277 0.0220036 9.17197 0
M  V30 6447 O 881.221 -0.626867 8.61923 0
M  V30 6448 C 883.495 -0.24586 8.30336 0
M  V30 6449 O 884.233 -1.39011 8.63583 0
M  V30 6450 C 882.826 -0.273849 6.91158 0
M  V30 6451 O 883.625 -1.06348 6.02892 0
M  V30 6452 C 881.489 -0.897649 7.22545 0
M  V30 6453 H 881.521 -1.9841 7.04286 0
M  V30 6454 H 882.704 0.739928 6.497 0
M  V30 6455 H 884.188 0.60668 8.36503 0
M  V30 6456 H 882.494 -0.352479 10.1829 0
M  V30 6457 H 882.304 2.00611 10.0304 0
M  V30 6458 H 880.674 1.41843 9.55327 0
M  V30 6459 H 883.313 -1.95734 6.03555 0
M  V30 6460 P 885.171 -1.25109 8.70152 0
M  V30 6461 O 886.593 -1.35274 9.21221 0
M  V30 6462 O 884.811 -0.0769065 7.84762 0
M  V30 6463 O 884.848 -2.55232 7.81161 0
M  V30 6464 C 884.688 -3.79939 8.58154 0
M  V30 6465 C 885.228 -4.94023 7.72785 0
M  V30 6466 O 884.172 -5.18726 6.91205 0
M  V30 6467 C 886.446 -4.69597 6.85231 0
M  V30 6468 O 887.184 -5.83832 6.51337 0
M  V30 6469 C 885.777 -3.96706 5.66633 0
M  V30 6470 O 886.576 -4.15414 4.49689 0
M  V30 6471 C 884.44 -4.66153 5.59313 0
M  V30 6472 H 884.472 -5.47679 4.85214 0
M  V30 6473 H 885.655 -2.89008 5.86566 0
M  V30 6474 H 887.139 -4.0121 7.36511 0
M  V30 6475 H 885.445 -5.80182 8.37584 0
M  V30 6476 H 885.255 -3.73517 9.52265 0
M  V30 6477 H 883.625 -3.97163 8.80359 0
M  V30 6478 H 886.264 -4.90969 4.01921 0
M  V30 6479 P 888.122 -5.75688 6.64379 0
M  V30 6480 O 889.523 -6.11991 7.09136 0
M  V30 6481 O 887.744 -4.30899 6.62018 0
M  V30 6482 O 887.799 -6.36965 5.19102 0
M  V30 6483 C 887.639 -7.83578 5.16515 0
M  V30 6484 C 888.179 -8.33307 3.82977 0
M  V30 6485 O 887.123 -8.0998 3.00999 0
M  V30 6486 C 889.396 -7.65514 3.2257 0
M  V30 6487 O 890.135 -8.4329 2.32297 0
M  V30 6488 C 888.729 -6.40075 2.62207 0
M  V30 6489 O 889.527 -5.92492 1.53687 0
M  V30 6490 C 887.391 -6.9454 2.18503 0
M  V30 6491 N 886.348 -5.95905 2.39948 0
M  V30 6492 C 885.313 -5.89764 1.49837 0
M  V30 6493 O 885.352 -6.64088 0.490975 0
M  V30 6494 N 884.301 -5.02821 1.70992 0
M  V30 6495 C 884.349 -4.21498 2.77236 0
M  V30 6496 N 883.339 -3.37475 2.96465 0
M  V30 6497 C 885.445 -4.23389 3.68205 0
M  V30 6498 C 886.411 -5.12792 3.46171 0
M  V30 6499 H 887.423 -7.22964 1.12076 0
M  V30 6500 H 888.606 -5.60502 3.36589 0
M  V30 6501 H 890.09 -7.36197 4.01993 0
M  V30 6502 H 888.396 -9.41302 3.90009 0
M  V30 6503 H 888.205 -8.29056 5.99158 0
M  V30 6504 H 886.575 -8.09989 5.25828 0
M  V30 6505 H 885.493 -3.54747 4.52399 0
M  V30 6506 H 887.257 -5.18551 4.1489 0
M  V30 6507 H 882.549 -3.36058 2.30304 0
M  V30 6508 H 883.344 -2.73846 3.77171 0
M  V30 6509 H 889.311 -6.40705 0.751752 0
M  V30 6510 P 891.072 -8.4349 2.47671 0
M  V30 6511 O 892.494 -8.94167 2.5964 0
M  V30 6512 O 890.712 -7.1704 3.19006 0
M  V30 6513 O 890.749 -8.16596 0.923387 0
M  V30 6514 C 890.589 -9.38437 0.108857 0
M  V30 6515 C 891.129 -9.08175 -1.28353 0
M  V30 6516 O 890.073 -8.44229 -1.84713 0
M  V30 6517 C 892.347 -8.18386 -1.42505 0
M  V30 6518 O 893.085 -8.3501 -2.60497 0
M  V30 6519 C 891.678 -6.80225 -1.25468 0
M  V30 6520 O 892.477 -5.81621 -1.91066 0
M  V30 6521 C 890.341 -7.02416 -1.9168 0
M  V30 6522 H 890.373 -6.6888 -2.96621 0
M  V30 6523 H 891.556 -6.53617 -0.192223 0
M  V30 6524 H 893.04 -8.36622 -0.589963 0
M  V30 6525 H 891.346 -10.0291 -1.79807 0
M  V30 6526 H 891.156 -10.2138 0.558219 0
M  V30 6527 H 889.526 -9.6579 0.0444202 0
M  V30 6528 H 892.165 -5.69556 -2.79637 0
M  V30 6529 P 894.023 -8.4349 -2.47671 0
M  V30 6530 O 895.444 -8.92689 -2.65029 0
M  V30 6531 O 893.663 -7.7568 -1.19296 0
M  V30 6532 O 893.7 -7.36886 -3.63805 0
M  V30 6533 C 893.539 -7.95433 -4.98253 0
M  V30 6534 C 894.08 -6.94612 -5.98974 0
M  V30 6535 O 893.025 -6.10277 -6.11744 0
M  V30 6536 C 895.298 -6.11426 -5.62335 0
M  V30 6537 O 896.036 -5.6162 -6.70584 0
M  V30 6538 C 894.63 -5.04409 -4.73308 0
M  V30 6539 O 895.428 -3.86404 -4.74719 0
M  V30 6540 C 893.292 -4.8728 -5.41006 0
M  V30 6541 N 892.249 -4.65812 -4.42377 0
M  V30 6542 C 892.418 -5.09132 -3.15382 0
M  V30 6543 N 891.391 -4.84021 -2.3716 0
M  V30 6544 C 890.506 -4.18386 -3.20441 0
M  V30 6545 C 889.239 -3.6275 -2.94905 0
M  V30 6546 N 888.64 -3.65794 -1.73372 0
M  V30 6547 N 888.674 -3.05008 -4.05243 0
M  V30 6548 C 889.276 -2.98348 -5.28159 0
M  V30 6549 N 890.453 -3.48171 -5.56333 0
M  V30 6550 C 891.028 -4.06869 -4.47212 0
M  V30 6551 H 893.324 -4.02278 -6.11074 0
M  V30 6552 H 894.507 -5.39013 -3.70026 0
M  V30 6553 H 895.99 -6.71916 -5.01943 0
M  V30 6554 H 894.296 -7.45796 -6.94223 0
M  V30 6555 H 894.106 -8.89416 -5.05237 0
M  V30 6556 H 892.476 -8.14876 -5.18409 0
M  V30 6557 H 888.74 -2.47853 -6.07807 0
M  V30 6558 H 893.318 -5.59989 -2.81362 0
M  V30 6559 H 887.71 -3.23218 -1.60782 0
M  V30 6560 H 889.114 -4.10523 -0.937856 0
M  V30 6561 H 895.116 -3.27906 -5.43085 0
M  V30 6562 P 896.973 -5.75688 -6.64379 0
M  V30 6563 O 898.395 -6.07627 -7.05504 0
M  V30 6564 O 896.613 -5.88047 -5.19722 0
M  V30 6565 O 896.65 -4.2322 -7.04443 0
M  V30 6566 C 896.49 -3.99743 -8.4911 0
M  V30 6567 C 897.03 -2.60516 -8.79425 0
M  V30 6568 O 895.974 -1.82684 -8.4467 0
M  V30 6569 C 898.248 -2.10343 -8.03628 0
M  V30 6570 O 898.986 -1.09919 -8.67766 0
M  V30 6571 C 897.579 -1.68446 -6.70876 0
M  V30 6572 O 898.378 -0.678137 -6.08433 0
M  V30 6573 C 896.242 -1.17436 -7.18567 0
M  V30 6574 H 896.274 -0.0804732 -7.31656 0
M  V30 6575 H 897.457 -2.54037 -6.02537 0
M  V30 6576 H 898.941 -2.93881 -7.85526 0
M  V30 6577 H 897.247 -2.53065 -9.86973 0
M  V30 6578 H 897.057 -4.75072 -9.05887 0
M  V30 6579 H 895.427 -4.05244 -8.76668 0
M  V30 6580 H 898.066 0.177647 -6.34251 0
M  V30 6581 P 899.924 -1.25109 -8.70152 0
M  V30 6582 O 901.346 -1.29744 -9.22016 0
M  V30 6583 O 899.564 -2.13714 -7.55141 0
M  V30 6584 O 899.601 0.248149 -8.21425 0
M  V30 6585 C 899.441 1.22779 -9.30434 0
M  V30 6586 C 899.981 2.56293 -8.80664 0
M  V30 6587 O 898.925 3.02979 -8.09349 0
M  V30 6588 C 901.199 2.57523 -7.89775 0
M  V30 6589 O 901.937 3.7668 -7.89438 0
M  V30 6590 C 900.53 2.20997 -6.55446 0
M  V30 6591 O 901.329 2.71895 -5.48509 0
M  V30 6592 C 899.193 2.89693 -6.67988 0
M  V30 6593 H 899.225 3.88793 -6.19859 0
M  V30 6594 H 900.408 1.12046 -6.44229 0
M  V30 6595 H 901.892 1.7746 -8.19711 0
M  V30 6596 H 900.198 3.20706 -9.67112 0
M  V30 6597 H 900.008 0.901032 -10.1892 0
M  V30 6598 H 898.378 1.33049 -9.56592 0
M  V30 6599 H 901.017 3.57847 -5.23962 0
M  V30 6600 P 902.874 3.65191 -7.99657 0
M  V30 6601 O 904.296 3.89332 -8.45794 0
M  V30 6602 O 902.514 2.28472 -7.50807 0
M  V30 6603 O 902.551 4.64972 -6.77611 0
M  V30 6604 C 902.391 6.06319 -7.16352 0
M  V30 6605 C 902.931 6.91731 -6.02299 0
M  V30 6606 O 901.875 6.92449 -5.17064 0
M  V30 6607 C 904.149 6.43627 -5.25174 0
M  V30 6608 O 904.887 7.43686 -4.60469 0
M  V30 6609 C 903.48 5.40275 -4.31916 0
M  V30 6610 O 904.279 5.25279 -3.14438 0
M  V30 6611 C 902.143 6.04847 -4.05327 0
M  V30 6612 H 902.175 6.62195 -3.11261 0
M  V30 6613 H 903.358 4.42556 -4.81383 0
M  V30 6614 H 904.842 5.92458 -5.93643 0
M  V30 6615 H 903.148 7.92655 -6.402 0
M  V30 6616 H 902.958 6.26671 -8.0846 0
M  V30 6617 H 901.328 6.29101 -7.32804 0
M  V30 6618 H 903.967 5.84315 -2.47318 0
M  V30 6619 P 905.825 7.39546 -4.75277 0
M  V30 6620 O 907.247 7.84798 -5.01039 0
M  V30 6621 O 905.465 5.9812 -5.08098 0
M  V30 6622 O 905.502 7.57503 -3.1866 0
M  V30 6623 C 905.342 8.97357 -2.74833 0
M  V30 6624 C 905.882 9.07548 -1.32709 0
M  V30 6625 O 904.826 8.62072 -0.606159 0
M  V30 6626 C 907.1 8.25383 -0.938334 0
M  V30 6627 O 907.838 8.74577 0.146954 0
M  V30 6628 C 906.431 6.8802 -0.712559 0
M  V30 6629 O 907.23 6.1189 0.194655 0
M  V30 6630 C 905.094 7.27966 -0.139777 0
M  V30 6631 H 905.126 7.25354 0.961601 0
M  V30 6632 H 906.309 6.32557 -1.65702 0
M  V30 6633 H 907.793 8.19355 -1.79097 0
M  V30 6634 H 906.099 10.1294 -1.10029 0
M  V30 6635 H 905.909 9.64276 -3.41316 0
M  V30 6636 H 904.279 9.25417 -2.76357 0
M  V30 6637 H 906.918 6.25267 1.07847 0
M  V30 6638 P 908.776 8.791 6.93566e-12 0
M  V30 6639 O 910.177 9.36698 -0.018734 0
M  V30 6640 O 908.398 7.82499 -1.07878 0
M  V30 6641 O 908.453 8.09434 1.41446 0
M  V30 6642 C 908.293 9.0349 2.53943 0
M  V30 6643 C 908.833 8.35135 3.78975 0
M  V30 6644 O 907.777 7.57904 4.1503 0
M  V30 6645 C 910.05 7.45087 3.67298 0
M  V30 6646 O 910.789 7.27796 4.85194 0
M  V30 6647 C 909.383 6.17323 3.12027 0
M  V30 6648 O 910.181 5.04149 3.47132 0
M  V30 6649 C 908.045 6.19961 3.81809 0
M  V30 6650 N 907.002 5.71575 2.93223 0
M  V30 6651 C 905.967 4.99452 3.47592 0
M  V30 6652 O 906.006 4.7199 4.69732 0
M  V30 6653 N 904.955 4.58505 2.6803 0
M  V30 6654 C 905.003 4.85544 1.36995 0
M  V30 6655 N 903.993 4.45052 0.609031 0
M  V30 6656 C 906.099 5.55532 0.788532 0
M  V30 6657 C 907.065 5.97426 1.60849 0
M  V30 6658 H 908.077 5.58142 4.72986 0
M  V30 6659 H 909.26 6.21428 2.0318 0
M  V30 6660 H 910.744 7.85913 2.93131 0
M  V30 6661 H 909.05 9.11171 4.55987 0
M  V30 6662 H 908.859 9.9573 2.34194 0
M  V30 6663 H 907.229 9.27824 2.67805 0
M  V30 6664 H 906.147 5.7421 -0.281588 0
M  V30 6665 H 907.911 6.53132 1.202 0
M  V30 6666 H 903.203 3.94123 1.03159 0
M  V30 6667 H 903.998 4.64377 -0.400352 0
M  V30 6668 H 909.965 4.76386 4.34983 0
M  V30 6669 P 911.726 7.39546 4.75277 0
M  V30 6670 O 913.148 7.81777 5.05738 0
M  V30 6671 O 911.366 7.1065 3.32998 0
M  V30 6672 O 911.403 6.04542 5.56673 0
M  V30 6673 C 911.243 6.22772 7.02095 0
M  V30 6674 C 911.783 4.97725 7.70406 0
M  V30 6675 O 910.727 4.13256 7.58987 0
M  V30 6676 C 913.001 4.28231 7.11815 0
M  V30 6677 O 913.739 3.49945 8.01648 0
M  V30 6678 C 912.332 3.5063 5.96244 0
M  V30 6679 O 913.131 2.36482 5.64681 0
M  V30 6680 C 910.995 3.15122 6.56374 0
M  V30 6681 H 911.027 2.13853 6.99751 0
M  V30 6682 H 912.21 4.13501 5.06559 0
M  V30 6683 H 913.694 5.03285 6.70911 0
M  V30 6684 H 912 5.20877 8.75697 0
M  V30 6685 H 911.81 7.11046 7.35349 0
M  V30 6686 H 910.18 6.35815 7.26986 0
M  V30 6687 H 912.819 1.61644 6.13565 0
M  V30 6688 P 914.677 3.65191 7.99657 0
M  V30 6689 O 916.099 3.8425 8.48115 0
M  V30 6690 O 914.317 4.17805 6.64342 0
M  V30 6691 O 914.354 2.07613 7.95143 0
M  V30 6692 C 914.194 1.44328 9.27336 0
M  V30 6693 C 914.734 0.0220036 9.17197 0
M  V30 6694 O 913.678 -0.626867 8.61923 0
M  V30 6695 C 915.952 -0.24586 8.30336 0
M  V30 6696 O 916.69 -1.39011 8.63583 0
M  V30 6697 C 915.283 -0.273849 6.91158 0
M  V30 6698 O 916.082 -1.06348 6.02892 0
M  V30 6699 C 913.946 -0.897649 7.22545 0
M  V30 6700 H 913.978 -1.9841 7.04286 0
M  V30 6701 H 915.161 0.739928 6.497 0
M  V30 6702 H 916.645 0.60668 8.36503 0
M  V30 6703 H 914.951 -0.352479 10.1829 0
M  V30 6704 H 914.761 2.00611 10.0304 0
M  V30 6705 H 913.131 1.41843 9.55327 0
M  V30 6706 H 915.77 -1.95734 6.03555 0
M  V30 6707 P 917.627 -1.25109 8.70152 0
M  V30 6708 O 919.028 -1.31452 9.27431 0
M  V30 6709 O 917.249 -0.0458113 7.89887 0
M  V30 6710 O 917.304 -2.55201 7.81066 0
M  V30 6711 C 917.144 -3.79939 8.58154 0
M  V30 6712 C 917.684 -4.93969 7.72701 0
M  V30 6713 O 916.628 -5.18666 6.91125 0
M  V30 6714 C 918.901 -4.69597 6.85231 0
M  V30 6715 O 919.64 -5.83832 6.51337 0
M  V30 6716 C 918.234 -3.96706 5.66633 0
M  V30 6717 O 919.032 -4.15346 4.49615 0
M  V30 6718 C 916.896 -4.66153 5.59313 0
M  V30 6719 N 915.853 -3.71582 5.24027 0
M  V30 6720 C 914.818 -4.15133 4.44901 0
M  V30 6721 O 914.857 -5.32122 4.00336 0
M  V30 6722 N 913.806 -3.30554 4.15693 0
M  V30 6723 C 913.854 -2.04701 4.61105 0
M  V30 6724 C 914.95 -1.57111 5.38655 0
M  V30 6725 C 915.916 -2.44234 5.68454 0
M  V30 6726 H 916.928 -5.47604 4.85148 0
M  V30 6727 H 918.111 -2.8955 5.86187 0
M  V30 6728 H 919.595 -4.01995 7.36197 0
M  V30 6729 H 917.901 -5.81019 8.37003 0
M  V30 6730 H 917.71 -3.73517 9.52265 0
M  V30 6731 H 916.08 -3.97122 8.80267 0
M  V30 6732 H 914.998 -0.538464 5.72373 0
M  V30 6733 H 916.762 -2.11927 6.29377 0
M  V30 6734 H 918.816 -4.98352 4.09633 0
M  V30 6735 P 920.578 -5.75688 6.64379 0
M  V30 6736 O 922 -6.11849 7.01846 0
M  V30 6737 O 920.218 -4.30744 6.56026 0
M  V30 6738 O 920.255 -6.37042 5.19165 0
M  V30 6739 C 920.095 -7.83578 5.16515 0
M  V30 6740 C 920.635 -8.33398 3.83019 0
M  V30 6741 O 919.579 -8.10074 3.01034 0
M  V30 6742 C 921.853 -7.65514 3.2257 0
M  V30 6743 O 922.591 -8.4329 2.32297 0
M  V30 6744 C 921.184 -6.40075 2.62207 0
M  V30 6745 O 921.983 -5.92589 1.53712 0
M  V30 6746 C 919.847 -6.9454 2.18503 0
M  V30 6747 H 919.879 -7.23063 1.12091 0
M  V30 6748 H 921.062 -5.6025 3.37201 0
M  V30 6749 H 922.546 -7.35707 4.02681 0
M  V30 6750 H 920.852 -9.40912 3.9095 0
M  V30 6751 H 920.662 -8.29056 5.99158 0
M  V30 6752 H 919.032 -8.10073 5.25882 0
M  V30 6753 H 921.671 -6.30324 0.726794 0
M  V30 6754 P 923.528 -8.4349 2.47671 0
M  V30 6755 O 924.95 -8.94167 2.5964 0
M  V30 6756 O 923.168 -7.1704 3.19006 0
M  V30 6757 O 923.205 -8.16596 0.923387 0
M  V30 6758 C 923.045 -9.38437 0.108857 0
M  V30 6759 C 923.585 -9.08175 -1.28353 0
M  V30 6760 O 922.529 -8.44229 -1.84713 0
M  V30 6761 C 924.803 -8.18386 -1.42505 0
M  V30 6762 O 925.541 -8.3501 -2.60497 0
M  V30 6763 C 924.134 -6.80225 -1.25468 0
M  V30 6764 O 924.933 -5.81621 -1.91066 0
M  V30 6765 C 922.797 -7.02416 -1.9168 0
M  V30 6766 H 922.829 -6.6888 -2.96621 0
M  V30 6767 H 924.012 -6.53617 -0.192223 0
M  V30 6768 H 925.496 -8.36622 -0.589963 0
M  V30 6769 H 923.802 -10.0291 -1.79807 0
M  V30 6770 H 923.612 -10.2138 0.558219 0
M  V30 6771 H 921.982 -9.6579 0.0444202 0
M  V30 6772 H 924.621 -5.69556 -2.79637 0
M  V30 6773 P 926.479 -8.4349 -2.47671 0
M  V30 6774 O 927.9 -8.92689 -2.65029 0
M  V30 6775 O 926.119 -7.7568 -1.19296 0
M  V30 6776 O 926.156 -7.36886 -3.63805 0
M  V30 6777 C 925.995 -7.95433 -4.98253 0
M  V30 6778 C 926.536 -6.94612 -5.98974 0
M  V30 6779 O 925.481 -6.10277 -6.11744 0
M  V30 6780 C 927.754 -6.11426 -5.62335 0
M  V30 6781 O 928.492 -5.6162 -6.70584 0
M  V30 6782 C 927.086 -5.04409 -4.73308 0
M  V30 6783 O 927.884 -3.86404 -4.74719 0
M  V30 6784 C 925.748 -4.8728 -5.41006 0
M  V30 6785 N 924.705 -4.65812 -4.42377 0
M  V30 6786 C 924.874 -5.09132 -3.15382 0
M  V30 6787 N 923.847 -4.84021 -2.3716 0
M  V30 6788 C 922.962 -4.18386 -3.20441 0
M  V30 6789 C 921.695 -3.6275 -2.94905 0
M  V30 6790 N 921.13 -3.05008 -4.05243 0
M  V30 6791 C 921.732 -2.98348 -5.28159 0
M  V30 6792 N 922.909 -3.48171 -5.56333 0
M  V30 6793 C 923.484 -4.06869 -4.47212 0
M  V30 6794 H 926.963 -5.39013 -3.70026 0
M  V30 6795 H 928.446 -6.71916 -5.01943 0
M  V30 6796 H 926.752 -7.45796 -6.94223 0
M  V30 6797 H 926.562 -8.89416 -5.05237 0
M  V30 6798 H 924.932 -8.14876 -5.18409 0
M  V30 6799 H 925.774 -5.59989 -2.81362 0
M  V30 6800 H 927.572 -3.27906 -5.43085 0
M  V30 6801 P 929.43 -5.75688 -6.64379 0
M  V30 6802 O 930.852 -6.07627 -7.05504 0
M  V30 6803 O 929.07 -5.88047 -5.19722 0
M  V30 6804 O 929.107 -4.2322 -7.04443 0
M  V30 6805 C 928.947 -3.99743 -8.4911 0
M  V30 6806 C 929.487 -2.60516 -8.79425 0
M  V30 6807 O 928.431 -1.82684 -8.4467 0
M  V30 6808 C 930.705 -2.10343 -8.03628 0
M  V30 6809 O 931.443 -1.09919 -8.67766 0
M  V30 6810 C 930.036 -1.68446 -6.70876 0
M  V30 6811 O 930.835 -0.678137 -6.08433 0
M  V30 6812 C 928.699 -1.17436 -7.18567 0
M  V30 6813 H 928.731 -0.0804732 -7.31656 0
M  V30 6814 H 929.914 -2.54037 -6.02537 0
M  V30 6815 H 931.398 -2.93881 -7.85526 0
M  V30 6816 H 929.704 -2.53065 -9.86973 0
M  V30 6817 H 929.514 -4.75072 -9.05887 0
M  V30 6818 H 927.884 -4.05244 -8.76668 0
M  V30 6819 H 930.523 0.177647 -6.34251 0
M  V30 6820 P 932.38 -1.25109 -8.70152 0
M  V30 6821 O 933.802 -1.29772 -9.22214 0
M  V30 6822 O 932.02 -2.13714 -7.55141 0
M  V30 6823 O 932.057 0.248149 -8.21425 0
M  V30 6824 C 931.897 1.22779 -9.30434 0
M  V30 6825 C 932.437 2.56265 -8.80568 0
M  V30 6826 O 931.382 3.02979 -8.09349 0
M  V30 6827 C 933.655 2.57523 -7.89775 0
M  V30 6828 O 934.393 3.7668 -7.89438 0
M  V30 6829 C 932.987 2.20997 -6.55446 0
M  V30 6830 O 933.785 2.71851 -5.48419 0
M  V30 6831 C 931.649 2.89693 -6.67988 0
M  V30 6832 N 930.606 2.08895 -6.07487 0
M  V30 6833 C 930.668 0.760559 -6.14209 0
M  V30 6834 N 929.623 0.200108 -5.52538 0
M  V30 6835 C 928.889 1.22692 -5.09742 0
M  V30 6836 C 927.583 1.24782 -4.48775 0
M  V30 6837 O 926.85 0.290617 -4.19294 0
M  V30 6838 N 927.153 2.50468 -4.22428 0
M  V30 6839 C 927.902 3.67142 -4.51974 0
M  V30 6840 N 927.305 4.85096 -4.14091 0
M  V30 6841 N 929.055 3.67821 -5.12831 0
M  V30 6842 C 929.512 2.43698 -5.4105 0
M  V30 6843 H 931.681 3.88793 -6.19859 0
M  V30 6844 H 932.864 1.12029 -6.4413 0
M  V30 6845 H 934.349 1.78279 -8.19533 0
M  V30 6846 H 932.654 3.20706 -9.67112 0
M  V30 6847 H 932.464 0.901032 -10.1892 0
M  V30 6848 H 930.833 1.33049 -9.56592 0
M  V30 6849 H 926.257 2.61953 -3.79465 0
M  V30 6850 H 931.464 0.200439 -6.63497 0
M  V30 6851 H 926.394 4.8334 -3.66367 0
M  V30 6852 H 927.77 5.7474 -4.33841 0
M  V30 6853 H 933.474 3.5779 -5.23879 0
M  V30 6854 P 935.331 3.65191 -7.99657 0
M  V30 6855 O 936.752 3.89374 -8.45885 0
M  V30 6856 O 934.971 2.28472 -7.50807 0
M  V30 6857 O 935.008 4.64972 -6.77611 0
M  V30 6858 C 934.847 6.06383 -7.16428 0
M  V30 6859 C 935.388 6.91731 -6.02299 0
M  V30 6860 O 934.333 6.92369 -5.17005 0
M  V30 6861 C 936.606 6.43627 -5.25174 0
M  V30 6862 O 937.344 7.43686 -4.60469 0
M  V30 6863 C 935.938 5.40275 -4.31916 0
M  V30 6864 O 936.736 5.24878 -3.14911 0
M  V30 6865 C 934.6 6.04847 -4.05327 0
M  V30 6866 N 933.557 5.04166 -3.98114 0
M  V30 6867 C 933.726 3.84629 -4.59066 0
M  V30 6868 N 932.699 3.0363 -4.45343 0
M  V30 6869 C 931.814 3.76722 -3.68523 0
M  V30 6870 C 930.547 3.43528 -3.17088 0
M  V30 6871 N 929.982 4.44526 -2.44231 0
M  V30 6872 C 930.584 5.65243 -2.20146 0
M  V30 6873 N 931.761 6.00221 -2.65453 0
M  V30 6874 C 932.336 5.00564 -3.39083 0
M  V30 6875 H 935.815 4.42969 -4.80867 0
M  V30 6876 H 937.298 5.92458 -5.93643 0
M  V30 6877 H 935.604 7.93295 -6.39407 0
M  V30 6878 H 935.414 6.26671 -8.0846 0
M  V30 6879 H 933.784 6.29101 -7.32804 0
M  V30 6880 H 934.626 3.58193 -5.14248 0
M  V30 6881 H 936.424 5.84223 -2.47279 0
M  V30 6882 P 938.281 7.39546 -4.75277 0
M  V30 6883 O 939.703 7.84798 -5.01039 0
M  V30 6884 O 937.921 5.9812 -5.08098 0
M  V30 6885 O 937.958 7.57503 -3.1866 0
M  V30 6886 C 937.798 8.97357 -2.74833 0
M  V30 6887 C 938.338 9.07548 -1.32709 0
M  V30 6888 O 937.282 8.62072 -0.606159 0
M  V30 6889 C 939.556 8.25383 -0.938334 0
M  V30 6890 O 940.294 8.74577 0.146954 0
M  V30 6891 C 938.887 6.8802 -0.712559 0
M  V30 6892 O 939.686 6.1189 0.194655 0
M  V30 6893 C 937.55 7.27966 -0.139777 0
M  V30 6894 H 937.582 7.25354 0.961601 0
M  V30 6895 H 938.765 6.32557 -1.65702 0
M  V30 6896 H 940.249 8.19355 -1.79097 0
M  V30 6897 H 938.555 10.1294 -1.10029 0
M  V30 6898 H 938.365 9.64276 -3.41316 0
M  V30 6899 H 936.735 9.25417 -2.76357 0
M  V30 6900 H 939.374 6.25267 1.07847 0
M  V30 6901 P 941.232 8.791 7.24582e-12 0
M  V30 6902 O 942.654 9.31096 0.027933 0
M  V30 6903 O 940.872 7.77869 -1.04071 0
M  V30 6904 O 940.909 8.09533 1.41463 0
M  V30 6905 C 940.749 9.0349 2.53943 0
M  V30 6906 C 941.289 8.35226 3.79016 0
M  V30 6907 O 940.233 7.57992 4.15078 0
M  V30 6908 C 942.507 7.45087 3.67298 0
M  V30 6909 O 943.245 7.27796 4.85194 0
M  V30 6910 C 941.838 6.17323 3.12027 0
M  V30 6911 O 942.637 5.04231 3.47188 0
M  V30 6912 C 940.501 6.19961 3.81809 0
M  V30 6913 H 940.533 5.58218 4.73051 0
M  V30 6914 H 941.716 6.21726 2.02589 0
M  V30 6915 H 943.2 7.86112 2.9231 0
M  V30 6916 H 941.506 9.11627 4.55076 0
M  V30 6917 H 941.316 9.9573 2.34194 0
M  V30 6918 H 939.686 9.2792 2.67832 0
M  V30 6919 H 942.325 4.67702 4.28772 0
M  V30 6920 P 944.182 7.39546 4.75277 0
M  V30 6921 O 945.604 7.81777 5.05738 0
M  V30 6922 O 943.822 7.1065 3.32998 0
M  V30 6923 O 943.859 6.04542 5.56673 0
M  V30 6924 C 943.699 6.22772 7.02095 0
M  V30 6925 C 944.239 4.97725 7.70406 0
M  V30 6926 O 943.183 4.13256 7.58987 0
M  V30 6927 C 945.457 4.28231 7.11815 0
M  V30 6928 O 946.195 3.49945 8.01648 0
M  V30 6929 C 944.788 3.5063 5.96244 0
M  V30 6930 O 945.587 2.36482 5.64681 0
M  V30 6931 C 943.451 3.15122 6.56374 0
M  V30 6932 H 943.483 2.13853 6.99751 0
M  V30 6933 H 944.666 4.13501 5.06559 0
M  V30 6934 H 946.15 5.03285 6.70911 0
M  V30 6935 H 944.456 5.20877 8.75697 0
M  V30 6936 H 944.266 7.11046 7.35349 0
M  V30 6937 H 942.636 6.35815 7.26986 0
M  V30 6938 H 945.275 1.61644 6.13565 0
M  V30 6939 P 947.133 3.65191 7.99657 0
M  V30 6940 O 948.555 3.8425 8.48115 0
M  V30 6941 O 946.773 4.17805 6.64342 0
M  V30 6942 O 946.81 2.07613 7.95143 0
M  V30 6943 C 946.65 1.44328 9.27336 0
M  V30 6944 C 947.19 0.0220036 9.17197 0
M  V30 6945 O 946.134 -0.626867 8.61923 0
M  V30 6946 C 948.408 -0.24586 8.30336 0
M  V30 6947 O 949.146 -1.39011 8.63583 0
M  V30 6948 C 947.739 -0.273849 6.91158 0
M  V30 6949 O 948.538 -1.06348 6.02892 0
M  V30 6950 C 946.402 -0.897649 7.22545 0
M  V30 6951 H 946.434 -1.9841 7.04286 0
M  V30 6952 H 947.617 0.739928 6.497 0
M  V30 6953 H 949.101 0.60668 8.36503 0
M  V30 6954 H 947.407 -0.352479 10.1829 0
M  V30 6955 H 947.217 2.00611 10.0304 0
M  V30 6956 H 945.587 1.41843 9.55327 0
M  V30 6957 H 948.226 -1.95734 6.03555 0
M  V30 6958 P 950.084 -1.25109 8.70152 0
M  V30 6959 O 951.506 -1.35274 9.21221 0
M  V30 6960 O 949.724 -0.0769065 7.84762 0
M  V30 6961 O 949.761 -2.55232 7.81161 0
M  V30 6962 C 949.601 -3.79939 8.58154 0
M  V30 6963 C 950.141 -4.94023 7.72785 0
M  V30 6964 O 949.085 -5.18726 6.91205 0
M  V30 6965 C 951.359 -4.69597 6.85231 0
M  V30 6966 O 952.097 -5.83832 6.51337 0
M  V30 6967 C 950.69 -3.96706 5.66633 0
M  V30 6968 O 951.489 -4.15414 4.49689 0
M  V30 6969 C 949.353 -4.66153 5.59313 0
M  V30 6970 H 949.385 -5.47679 4.85214 0
M  V30 6971 H 950.568 -2.89008 5.86566 0
M  V30 6972 H 952.052 -4.0121 7.36511 0
M  V30 6973 H 950.358 -5.80182 8.37584 0
M  V30 6974 H 950.168 -3.73517 9.52265 0
M  V30 6975 H 948.538 -3.97163 8.80359 0
M  V30 6976 H 951.177 -4.90969 4.01921 0
M  V30 6977 P 953.034 -5.75688 6.64379 0
M  V30 6978 O 954.456 -6.11849 7.01846 0
M  V30 6979 O 952.674 -4.30744 6.56026 0
M  V30 6980 O 952.711 -6.37042 5.19165 0
M  V30 6981 C 952.551 -7.83578 5.16515 0
M  V30 6982 C 953.091 -8.33398 3.83019 0
M  V30 6983 O 952.035 -8.10074 3.01034 0
M  V30 6984 C 954.309 -7.65514 3.2257 0
M  V30 6985 O 955.047 -8.4329 2.32297 0
M  V30 6986 C 953.64 -6.40075 2.62207 0
M  V30 6987 O 954.439 -5.92589 1.53712 0
M  V30 6988 C 952.303 -6.9454 2.18503 0
M  V30 6989 H 952.335 -7.23063 1.12091 0
M  V30 6990 H 953.518 -5.6025 3.37201 0
M  V30 6991 H 955.002 -7.35707 4.02681 0
M  V30 6992 H 953.308 -9.40912 3.9095 0
M  V30 6993 H 953.118 -8.29056 5.99158 0
M  V30 6994 H 951.488 -8.10073 5.25882 0
M  V30 6995 H 954.127 -6.30324 0.726794 0
M  V30 6996 P 955.985 -8.4349 2.47671 0
M  V30 6997 O 957.407 -8.94167 2.5964 0
M  V30 6998 O 955.625 -7.1704 3.19006 0
M  V30 6999 O 955.662 -8.16596 0.923387 0
M  V30 7000 C 955.502 -9.38437 0.108857 0
M  V30 7001 C 956.042 -9.08175 -1.28353 0
M  V30 7002 O 954.986 -8.44229 -1.84713 0
M  V30 7003 C 957.26 -8.18386 -1.42505 0
M  V30 7004 O 957.998 -8.3501 -2.60497 0
M  V30 7005 C 956.591 -6.80225 -1.25468 0
M  V30 7006 O 957.39 -5.81621 -1.91066 0
M  V30 7007 C 955.254 -7.02416 -1.9168 0
M  V30 7008 H 955.286 -6.6888 -2.96621 0
M  V30 7009 H 956.469 -6.53617 -0.192223 0
M  V30 7010 H 957.953 -8.36622 -0.589963 0
M  V30 7011 H 956.259 -10.0291 -1.79807 0
M  V30 7012 H 956.069 -10.2138 0.558219 0
M  V30 7013 H 954.439 -9.6579 0.0444202 0
M  V30 7014 H 957.078 -5.69556 -2.79637 0
M  V30 7015 P 958.935 -8.4349 -2.47671 0
M  V30 7016 O 960.356 -8.92689 -2.65029 0
M  V30 7017 O 958.575 -7.7568 -1.19296 0
M  V30 7018 O 958.612 -7.36886 -3.63805 0
M  V30 7019 C 958.451 -7.95433 -4.98253 0
M  V30 7020 C 958.992 -6.94612 -5.98974 0
M  V30 7021 O 957.937 -6.10277 -6.11744 0
M  V30 7022 C 960.21 -6.11426 -5.62335 0
M  V30 7023 O 960.948 -5.6162 -6.70584 0
M  V30 7024 C 959.542 -5.04409 -4.73308 0
M  V30 7025 O 960.34 -3.86404 -4.74719 0
M  V30 7026 C 958.204 -4.8728 -5.41006 0
M  V30 7027 N 957.161 -4.65812 -4.42377 0
M  V30 7028 C 957.33 -5.09132 -3.15382 0
M  V30 7029 N 956.303 -4.84021 -2.3716 0
M  V30 7030 C 955.418 -4.18386 -3.20441 0
M  V30 7031 C 954.151 -3.6275 -2.94905 0
M  V30 7032 N 953.552 -3.65794 -1.73372 0
M  V30 7033 N 953.586 -3.05008 -4.05243 0
M  V30 7034 C 954.188 -2.98348 -5.28159 0
M  V30 7035 N 955.365 -3.48171 -5.56333 0
M  V30 7036 C 955.94 -4.06869 -4.47212 0
M  V30 7037 H 958.236 -4.02278 -6.11074 0
M  V30 7038 H 959.419 -5.39013 -3.70026 0
M  V30 7039 H 960.902 -6.71916 -5.01943 0
M  V30 7040 H 959.208 -7.45796 -6.94223 0
M  V30 7041 H 959.018 -8.89416 -5.05237 0
M  V30 7042 H 957.388 -8.14876 -5.18409 0
M  V30 7043 H 953.652 -2.47853 -6.07807 0
M  V30 7044 H 958.23 -5.59989 -2.81362 0
M  V30 7045 H 952.622 -3.23218 -1.60782 0
M  V30 7046 H 954.026 -4.10523 -0.937856 0
M  V30 7047 H 960.028 -3.27906 -5.43085 0
M  V30 7048 P 961.886 -5.75688 -6.64379 0
M  V30 7049 O 963.308 -6.07627 -7.05504 0
M  V30 7050 O 961.526 -5.88047 -5.19722 0
M  V30 7051 O 961.563 -4.2322 -7.04443 0
M  V30 7052 C 961.403 -3.99743 -8.4911 0
M  V30 7053 C 961.943 -2.60516 -8.79425 0
M  V30 7054 O 960.887 -1.82684 -8.4467 0
M  V30 7055 C 963.161 -2.10343 -8.03628 0
M  V30 7056 O 963.899 -1.09919 -8.67766 0
M  V30 7057 C 962.492 -1.68446 -6.70876 0
M  V30 7058 O 963.291 -0.678137 -6.08433 0
M  V30 7059 C 961.155 -1.17436 -7.18567 0
M  V30 7060 H 961.187 -0.0804732 -7.31656 0
M  V30 7061 H 962.37 -2.54037 -6.02537 0
M  V30 7062 H 963.854 -2.93881 -7.85526 0
M  V30 7063 H 962.16 -2.53065 -9.86973 0
M  V30 7064 H 961.97 -4.75072 -9.05887 0
M  V30 7065 H 960.34 -4.05244 -8.76668 0
M  V30 7066 H 962.979 0.177647 -6.34251 0
M  V30 7067 P 964.836 -1.25109 -8.70152 0
M  V30 7068 O 966.258 -1.29744 -9.22016 0
M  V30 7069 O 964.476 -2.13714 -7.55141 0
M  V30 7070 O 964.513 0.248149 -8.21425 0
M  V30 7071 C 964.353 1.22779 -9.30434 0
M  V30 7072 C 964.893 2.56293 -8.80664 0
M  V30 7073 O 963.837 3.02979 -8.09349 0
M  V30 7074 C 966.111 2.57523 -7.89775 0
M  V30 7075 O 966.849 3.7668 -7.89438 0
M  V30 7076 C 965.442 2.20997 -6.55446 0
M  V30 7077 O 966.241 2.71895 -5.48509 0
M  V30 7078 C 964.105 2.89693 -6.67988 0
M  V30 7079 H 964.137 3.88793 -6.19859 0
M  V30 7080 H 965.32 1.12046 -6.44229 0
M  V30 7081 H 966.804 1.7746 -8.19711 0
M  V30 7082 H 965.11 3.20706 -9.67112 0
M  V30 7083 H 964.92 0.901032 -10.1892 0
M  V30 7084 H 963.29 1.33049 -9.56592 0
M  V30 7085 H 965.929 3.57847 -5.23962 0
M  V30 7086 P 967.787 3.65191 -7.99657 0
M  V30 7087 O 969.209 3.89332 -8.45794 0
M  V30 7088 O 967.427 2.28472 -7.50807 0
M  V30 7089 O 967.464 4.64972 -6.77611 0
M  V30 7090 C 967.304 6.06319 -7.16352 0
M  V30 7091 C 967.844 6.91731 -6.02299 0
M  V30 7092 O 966.788 6.92449 -5.17064 0
M  V30 7093 C 969.062 6.43627 -5.25174 0
M  V30 7094 O 969.8 7.43686 -4.60469 0
M  V30 7095 C 968.393 5.40275 -4.31916 0
M  V30 7096 O 969.192 5.25279 -3.14438 0
M  V30 7097 C 967.056 6.04847 -4.05327 0
M  V30 7098 H 967.088 6.62195 -3.11261 0
M  V30 7099 H 968.271 4.42556 -4.81383 0
M  V30 7100 H 969.755 5.92458 -5.93643 0
M  V30 7101 H 968.061 7.92655 -6.402 0
M  V30 7102 H 967.871 6.26671 -8.0846 0
M  V30 7103 H 966.241 6.29101 -7.32804 0
M  V30 7104 H 968.88 5.84315 -2.47318 0
M  V30 7105 P 970.738 7.39546 -4.75277 0
M  V30 7106 O 972.16 7.84798 -5.01039 0
M  V30 7107 O 970.378 5.9812 -5.08098 0
M  V30 7108 O 970.415 7.57503 -3.1866 0
M  V30 7109 C 970.255 8.97357 -2.74833 0
M  V30 7110 C 970.795 9.07548 -1.32709 0
M  V30 7111 O 969.739 8.62072 -0.606159 0
M  V30 7112 C 972.013 8.25383 -0.938334 0
M  V30 7113 O 972.751 8.74577 0.146954 0
M  V30 7114 C 971.344 6.8802 -0.712559 0
M  V30 7115 O 972.143 6.1189 0.194655 0
M  V30 7116 C 970.007 7.27966 -0.139777 0
M  V30 7117 H 970.039 7.25354 0.961601 0
M  V30 7118 H 971.222 6.32557 -1.65702 0
M  V30 7119 H 972.706 8.19355 -1.79097 0
M  V30 7120 H 971.012 10.1294 -1.10029 0
M  V30 7121 H 970.822 9.64276 -3.41316 0
M  V30 7122 H 969.192 9.25417 -2.76357 0
M  V30 7123 H 971.831 6.25267 1.07847 0
M  V30 7124 P 973.688 8.791 7.55599e-12 0
M  V30 7125 O 975.11 9.31096 0.027933 0
M  V30 7126 O 973.328 7.77869 -1.04071 0
M  V30 7127 O 973.365 8.09533 1.41463 0
M  V30 7128 C 973.205 9.0349 2.53943 0
M  V30 7129 C 973.745 8.35226 3.79016 0
M  V30 7130 O 972.689 7.57992 4.15078 0
M  V30 7131 C 974.963 7.45087 3.67298 0
M  V30 7132 O 975.701 7.27796 4.85194 0
M  V30 7133 C 974.294 6.17323 3.12027 0
M  V30 7134 O 975.093 5.04231 3.47188 0
M  V30 7135 C 972.957 6.19961 3.81809 0
M  V30 7136 H 972.989 5.58218 4.73051 0
M  V30 7137 H 974.172 6.21726 2.02589 0
M  V30 7138 H 975.656 7.86112 2.9231 0
M  V30 7139 H 973.962 9.11627 4.55076 0
M  V30 7140 H 973.772 9.9573 2.34194 0
M  V30 7141 H 972.142 9.2792 2.67832 0
M  V30 7142 H 974.781 4.67702 4.28772 0
M  V30 7143 P 976.639 7.39546 4.75277 0
M  V30 7144 O 978.061 7.81777 5.05738 0
M  V30 7145 O 976.279 7.1065 3.32998 0
M  V30 7146 O 976.316 6.04542 5.56673 0
M  V30 7147 C 976.156 6.22772 7.02095 0
M  V30 7148 C 976.696 4.97725 7.70406 0
M  V30 7149 O 975.64 4.13256 7.58987 0
M  V30 7150 C 977.914 4.28231 7.11815 0
M  V30 7151 O 978.652 3.49945 8.01648 0
M  V30 7152 C 977.245 3.5063 5.96244 0
M  V30 7153 O 978.044 2.36482 5.64681 0
M  V30 7154 C 975.908 3.15122 6.56374 0
M  V30 7155 H 975.94 2.13853 6.99751 0
M  V30 7156 H 977.123 4.13501 5.06559 0
M  V30 7157 H 978.607 5.03285 6.70911 0
M  V30 7158 H 976.913 5.20877 8.75697 0
M  V30 7159 H 976.723 7.11046 7.35349 0
M  V30 7160 H 975.093 6.35815 7.26986 0
M  V30 7161 H 977.732 1.61644 6.13565 0
M  V30 7162 P 979.589 3.65191 7.99657 0
M  V30 7163 O 981.011 3.8425 8.48115 0
M  V30 7164 O 979.229 4.17805 6.64342 0
M  V30 7165 O 979.266 2.07613 7.95143 0
M  V30 7166 C 979.106 1.44328 9.27336 0
M  V30 7167 C 979.646 0.0220036 9.17197 0
M  V30 7168 O 978.59 -0.626867 8.61923 0
M  V30 7169 C 980.864 -0.24586 8.30336 0
M  V30 7170 O 981.602 -1.39011 8.63583 0
M  V30 7171 C 980.195 -0.273849 6.91158 0
M  V30 7172 O 980.994 -1.06348 6.02892 0
M  V30 7173 C 978.858 -0.897649 7.22545 0
M  V30 7174 H 978.89 -1.9841 7.04286 0
M  V30 7175 H 980.073 0.739928 6.497 0
M  V30 7176 H 981.557 0.60668 8.36503 0
M  V30 7177 H 979.863 -0.352479 10.1829 0
M  V30 7178 H 979.673 2.00611 10.0304 0
M  V30 7179 H 978.043 1.41843 9.55327 0
M  V30 7180 H 980.682 -1.95734 6.03555 0
M  V30 7181 P 982.54 -1.25109 8.70152 0
M  V30 7182 O 983.962 -1.35274 9.21221 0
M  V30 7183 O 982.18 -0.0769065 7.84762 0
M  V30 7184 O 982.217 -2.55232 7.81161 0
M  V30 7185 C 982.057 -3.79939 8.58154 0
M  V30 7186 C 982.597 -4.94023 7.72785 0
M  V30 7187 O 981.541 -5.18726 6.91205 0
M  V30 7188 C 983.815 -4.69597 6.85231 0
M  V30 7189 O 984.553 -5.83832 6.51337 0
M  V30 7190 C 983.146 -3.96706 5.66633 0
M  V30 7191 O 983.945 -4.15414 4.49689 0
M  V30 7192 C 981.809 -4.66153 5.59313 0
M  V30 7193 H 981.841 -5.47679 4.85214 0
M  V30 7194 H 983.024 -2.89008 5.86566 0
M  V30 7195 H 984.508 -4.0121 7.36511 0
M  V30 7196 H 982.814 -5.80182 8.37584 0
M  V30 7197 H 982.624 -3.73517 9.52265 0
M  V30 7198 H 980.994 -3.97163 8.80359 0
M  V30 7199 H 983.633 -4.90969 4.01921 0
M  V30 7200 P 985.49 -5.75688 6.64379 0
M  V30 7201 O 986.912 -6.11849 7.01846 0
M  V30 7202 O 985.13 -4.30744 6.56026 0
M  V30 7203 O 985.167 -6.37042 5.19165 0
M  V30 7204 C 985.007 -7.83578 5.16515 0
M  V30 7205 C 985.547 -8.33398 3.83019 0
M  V30 7206 O 984.491 -8.10074 3.01034 0
M  V30 7207 C 986.765 -7.65514 3.2257 0
M  V30 7208 O 987.503 -8.4329 2.32297 0
M  V30 7209 C 986.096 -6.40075 2.62207 0
M  V30 7210 O 986.895 -5.92589 1.53712 0
M  V30 7211 C 984.759 -6.9454 2.18503 0
M  V30 7212 H 984.791 -7.23063 1.12091 0
M  V30 7213 H 985.974 -5.6025 3.37201 0
M  V30 7214 H 987.458 -7.35707 4.02681 0
M  V30 7215 H 985.764 -9.40912 3.9095 0
M  V30 7216 H 985.574 -8.29056 5.99158 0
M  V30 7217 H 983.944 -8.10073 5.25882 0
M  V30 7218 H 986.583 -6.30324 0.726794 0
M  V30 7219 P 988.441 -8.4349 2.47671 0
M  V30 7220 O 989.863 -8.94167 2.5964 0
M  V30 7221 O 988.081 -7.1704 3.19006 0
M  V30 7222 O 988.118 -8.16596 0.923387 0
M  V30 7223 C 987.958 -9.38437 0.108857 0
M  V30 7224 C 988.498 -9.08175 -1.28353 0
M  V30 7225 O 987.442 -8.44229 -1.84713 0
M  V30 7226 C 989.716 -8.18386 -1.42505 0
M  V30 7227 O 990.454 -8.3501 -2.60497 0
M  V30 7228 C 989.047 -6.80225 -1.25468 0
M  V30 7229 O 989.846 -5.81621 -1.91066 0
M  V30 7230 C 987.71 -7.02416 -1.9168 0
M  V30 7231 H 987.742 -6.6888 -2.96621 0
M  V30 7232 H 988.925 -6.53617 -0.192223 0
M  V30 7233 H 990.409 -8.36622 -0.589963 0
M  V30 7234 H 988.715 -10.0291 -1.79807 0
M  V30 7235 H 988.525 -10.2138 0.558219 0
M  V30 7236 H 986.895 -9.6579 0.0444202 0
M  V30 7237 H 989.534 -5.69556 -2.79637 0
M  V30 7238 P 991.392 -8.4349 -2.47671 0
M  V30 7239 O 992.814 -8.92593 -2.65 0
M  V30 7240 O 991.032 -7.7568 -1.19296 0
M  V30 7241 O 991.069 -7.36886 -3.63805 0
M  V30 7242 C 990.909 -7.95349 -4.982 0
M  V30 7243 C 991.449 -6.94612 -5.98974 0
M  V30 7244 O 990.393 -6.10347 -6.11815 0
M  V30 7245 C 992.667 -6.11426 -5.62335 0
M  V30 7246 O 993.405 -5.6162 -6.70584 0
M  V30 7247 C 991.998 -5.04409 -4.73308 0
M  V30 7248 O 992.797 -3.85992 -4.75183 0
M  V30 7249 C 990.661 -4.8728 -5.41006 0
M  V30 7250 H 990.693 -4.02333 -6.11157 0
M  V30 7251 H 991.876 -5.39466 -3.69543 0
M  V30 7252 H 993.36 -6.71916 -5.01943 0
M  V30 7253 H 991.666 -7.4649 -6.93477 0
M  V30 7254 H 991.476 -8.89416 -5.05237 0
M  V30 7255 H 989.846 -8.14876 -5.18409 0
M  V30 7256 H 992.485 -3.27957 -5.4317 0
M  V30 7257 P 994.342 -5.75688 -6.64379 0
M  V30 7258 O 995.763 -6.07692 -7.0558 0
M  V30 7259 O 993.982 -5.88047 -5.19722 0
M  V30 7260 O 994.019 -4.2322 -7.04443 0
M  V30 7261 C 993.858 -3.99785 -8.49201 0
M  V30 7262 C 994.399 -2.60516 -8.79425 0
M  V30 7263 O 993.344 -1.82663 -8.44573 0
M  V30 7264 C 995.617 -2.10343 -8.03628 0
M  V30 7265 O 996.355 -1.09919 -8.67766 0
M  V30 7266 C 994.949 -1.68446 -6.70876 0
M  V30 7267 O 995.747 -0.684109 -6.08265 0
M  V30 7268 C 993.611 -1.17436 -7.18567 0
M  V30 7269 N 992.568 -1.52699 -6.23988 0
M  V30 7270 C 992.737 -2.578 -5.40574 0
M  V30 7271 N 991.71 -2.78966 -4.61193 0
M  V30 7272 C 990.825 -1.78725 -4.95769 0
M  V30 7273 C 989.558 -1.45727 -4.44207 0
M  V30 7274 N 988.993 -0.374977 -5.05812 0
M  V30 7275 C 989.595 0.345585 -6.05615 0
M  V30 7276 N 990.772 0.0787651 -6.56253 0
M  V30 7277 C 991.347 -1.00499 -5.96189 0
M  V30 7278 H 994.826 -2.53396 -6.02698 0
M  V30 7279 H 996.309 -2.93881 -7.85526 0
M  V30 7280 H 994.615 -2.52078 -9.87225 0
M  V30 7281 H 994.425 -4.75072 -9.05887 0
M  V30 7282 H 992.795 -4.05244 -8.76668 0
M  V30 7283 H 993.637 -3.18977 -5.3945 0
M  V30 7284 H 995.435 0.177619 -6.34151 0
M  V30 7285 P 997.293 -1.25109 -8.70152 0
M  V30 7286 O 998.714 -1.29758 -9.22115 0
M  V30 7287 O 996.933 -2.13714 -7.55141 0
M  V30 7288 O 996.97 0.248149 -8.21425 0
M  V30 7289 C 996.809 1.22792 -9.30533 0
M  V30 7290 C 997.35 2.56293 -8.80664 0
M  V30 7291 O 996.295 3.02944 -8.09255 0
M  V30 7292 C 998.568 2.57523 -7.89775 0
M  V30 7293 O 999.306 3.7668 -7.89438 0
M  V30 7294 C 997.9 2.20997 -6.55446 0
M  V30 7295 O 998.698 2.71302 -5.48691 0
M  V30 7296 C 996.562 2.89693 -6.67988 0
M  V30 7297 N 995.519 2.08895 -6.07487 0
M  V30 7298 C 995.688 0.753809 -5.94137 0
M  V30 7299 N 994.661 0.146592 -5.38801 0
M  V30 7300 C 993.776 1.1768 -5.13693 0
M  V30 7301 C 992.509 1.17563 -4.52477 0
M  V30 7302 N 991.91 0.057481 -4.04759 0
M  V30 7303 N 991.944 2.41918 -4.45789 0
M  V30 7304 C 992.546 3.56493 -4.90792 0
M  V30 7305 N 993.723 3.61423 -5.47817 0
M  V30 7306 C 994.298 2.37779 -5.5588 0
M  V30 7307 H 996.594 3.8874 -6.19774 0
M  V30 7308 H 997.777 1.12673 -6.44018 0
M  V30 7309 H 999.26 1.7746 -8.19711 0
M  V30 7310 H 997.566 3.21673 -9.66791 0
M  V30 7311 H 997.376 0.901032 -10.1892 0
M  V30 7312 H 995.746 1.33049 -9.56592 0
M  V30 7313 H 992.01 4.49919 -4.77947 0
M  V30 7314 H 996.588 0.233081 -6.26266 0
M  V30 7315 H 990.98 0.119831 -3.60801 0
M  V30 7316 H 992.384 -0.852272 -4.12385 0
M  V30 7317 H 998.386 3.5779 -5.23879 0
M  V30 7318 P 1000.24 3.65191 -7.99657 0
M  V30 7319 O 1001.67 3.89332 -8.45794 0
M  V30 7320 O 999.883 2.28472 -7.50807 0
M  V30 7321 O 999.92 4.64972 -6.77611 0
M  V30 7322 C 999.76 6.06319 -7.16352 0
M  V30 7323 C 1000.3 6.91731 -6.02299 0
M  V30 7324 O 999.244 6.92449 -5.17064 0
M  V30 7325 C 1001.52 6.43627 -5.25174 0
M  V30 7326 O 1002.26 7.43686 -4.60469 0
M  V30 7327 C 1000.85 5.40275 -4.31916 0
M  V30 7328 O 1001.65 5.25279 -3.14438 0
M  V30 7329 C 999.512 6.04847 -4.05327 0
M  V30 7330 H 999.544 6.62195 -3.11261 0
M  V30 7331 H 1000.73 4.42556 -4.81383 0
M  V30 7332 H 1002.21 5.92458 -5.93643 0
M  V30 7333 H 1000.52 7.92655 -6.402 0
M  V30 7334 H 1000.33 6.26671 -8.0846 0
M  V30 7335 H 998.697 6.29101 -7.32804 0
M  V30 7336 H 1001.34 5.84315 -2.47318 0
M  V30 7337 P 1003.19 7.39546 -4.75277 0
M  V30 7338 O 1004.62 7.84798 -5.01039 0
M  V30 7339 O 1002.83 5.9812 -5.08098 0
M  V30 7340 O 1002.87 7.57503 -3.1866 0
M  V30 7341 C 1002.71 8.97357 -2.74833 0
M  V30 7342 C 1003.25 9.07548 -1.32709 0
M  V30 7343 O 1002.19 8.62072 -0.606159 0
M  V30 7344 C 1004.47 8.25383 -0.938334 0
M  V30 7345 O 1005.21 8.74577 0.146954 0
M  V30 7346 C 1003.8 6.8802 -0.712559 0
M  V30 7347 O 1004.6 6.1189 0.194655 0
M  V30 7348 C 1002.46 7.27966 -0.139777 0
M  V30 7349 H 1002.49 7.25354 0.961601 0
M  V30 7350 H 1003.68 6.32557 -1.65702 0
M  V30 7351 H 1005.16 8.19355 -1.79097 0
M  V30 7352 H 1003.47 10.1294 -1.10029 0
M  V30 7353 H 1003.28 9.64276 -3.41316 0
M  V30 7354 H 1001.65 9.25417 -2.76357 0
M  V30 7355 H 1004.29 6.25267 1.07847 0
M  V30 7356 P 1006.14 8.791 7.86616e-12 0
M  V30 7357 O 1007.57 9.31096 0.027933 0
M  V30 7358 O 1005.78 7.77869 -1.04071 0
M  V30 7359 O 1005.82 8.09533 1.41463 0
M  V30 7360 C 1005.66 9.0349 2.53943 0
M  V30 7361 C 1006.2 8.35226 3.79016 0
M  V30 7362 O 1005.15 7.57992 4.15078 0
M  V30 7363 C 1007.42 7.45087 3.67298 0
M  V30 7364 O 1008.16 7.27796 4.85194 0
M  V30 7365 C 1006.75 6.17323 3.12027 0
M  V30 7366 O 1007.55 5.04231 3.47188 0
M  V30 7367 C 1005.41 6.19961 3.81809 0
M  V30 7368 H 1005.45 5.58218 4.73051 0
M  V30 7369 H 1006.63 6.21726 2.02589 0
M  V30 7370 H 1008.11 7.86112 2.9231 0
M  V30 7371 H 1006.42 9.11627 4.55076 0
M  V30 7372 H 1006.23 9.9573 2.34194 0
M  V30 7373 H 1004.6 9.2792 2.67832 0
M  V30 7374 H 1007.24 4.67702 4.28772 0
M  V30 7375 P 1009.09 7.39546 4.75277 0
M  V30 7376 O 1010.52 7.81777 5.05738 0
M  V30 7377 O 1008.73 7.1065 3.32998 0
M  V30 7378 O 1008.77 6.04542 5.56673 0
M  V30 7379 C 1008.61 6.22772 7.02095 0
M  V30 7380 C 1009.15 4.97725 7.70406 0
M  V30 7381 O 1008.1 4.13256 7.58987 0
M  V30 7382 C 1010.37 4.28231 7.11815 0
M  V30 7383 O 1011.11 3.49945 8.01648 0
M  V30 7384 C 1009.7 3.5063 5.96244 0
M  V30 7385 O 1010.5 2.36482 5.64681 0
M  V30 7386 C 1008.36 3.15122 6.56374 0
M  V30 7387 H 1008.4 2.13853 6.99751 0
M  V30 7388 H 1009.58 4.13501 5.06559 0
M  V30 7389 H 1011.06 5.03285 6.70911 0
M  V30 7390 H 1009.37 5.20877 8.75697 0
M  V30 7391 H 1009.18 7.11046 7.35349 0
M  V30 7392 H 1007.55 6.35815 7.26986 0
M  V30 7393 H 1010.19 1.61644 6.13565 0
M  V30 7394 P 1012.05 3.65191 7.99657 0
M  V30 7395 O 1013.47 3.8425 8.48115 0
M  V30 7396 O 1011.69 4.17805 6.64342 0
M  V30 7397 O 1011.72 2.07613 7.95143 0
M  V30 7398 C 1011.56 1.44328 9.27336 0
M  V30 7399 C 1012.1 0.0220036 9.17197 0
M  V30 7400 O 1011.05 -0.626867 8.61923 0
M  V30 7401 C 1013.32 -0.24586 8.30336 0
M  V30 7402 O 1014.06 -1.39011 8.63583 0
M  V30 7403 C 1012.65 -0.273849 6.91158 0
M  V30 7404 O 1013.45 -1.06348 6.02892 0
M  V30 7405 C 1011.31 -0.897649 7.22545 0
M  V30 7406 H 1011.35 -1.9841 7.04286 0
M  V30 7407 H 1012.53 0.739928 6.497 0
M  V30 7408 H 1014.01 0.60668 8.36503 0
M  V30 7409 H 1012.32 -0.352479 10.1829 0
M  V30 7410 H 1012.13 2.00611 10.0304 0
M  V30 7411 H 1010.5 1.41843 9.55327 0
M  V30 7412 H 1013.14 -1.95734 6.03555 0
M  V30 7413 P 1015 -1.25109 8.70152 0
M  V30 7414 O 1016.42 -1.35288 9.2132 0
M  V30 7415 O 1014.64 -0.0769065 7.84762 0
M  V30 7416 O 1014.67 -2.55232 7.81161 0
M  V30 7417 C 1014.51 -3.79979 8.58246 0
M  V30 7418 C 1015.05 -4.94023 7.72785 0
M  V30 7419 O 1014 -5.18666 6.91125 0
M  V30 7420 C 1016.27 -4.69597 6.85231 0
M  V30 7421 O 1017.01 -5.83832 6.51337 0
M  V30 7422 C 1015.6 -3.96706 5.66633 0
M  V30 7423 O 1016.4 -4.14896 4.5003 0
M  V30 7424 C 1014.27 -4.66153 5.59313 0
M  V30 7425 N 1013.22 -3.71582 5.24027 0
M  V30 7426 C 1013.39 -2.39715 5.48833 0
M  V30 7427 N 1012.36 -1.65863 5.12845 0
M  V30 7428 C 1011.48 -2.57637 4.5973 0
M  V30 7429 C 1010.21 -2.40278 4.01027 0
M  V30 7430 N 1009.61 -1.19549 3.86744 0
M  V30 7431 N 1009.65 -3.57711 3.59575 0
M  V30 7432 C 1010.25 -4.80324 3.70476 0
M  V30 7433 N 1011.43 -5.01121 4.23801 0
M  V30 7434 C 1012 -3.84757 4.66372 0
M  V30 7435 H 1014.3 -5.47604 4.85148 0
M  V30 7436 H 1015.48 -2.8955 5.86187 0
M  V30 7437 H 1016.96 -4.0121 7.36511 0
M  V30 7438 H 1015.27 -5.81019 8.37003 0
M  V30 7439 H 1015.08 -3.73517 9.52265 0
M  V30 7440 H 1013.45 -3.97163 8.80359 0
M  V30 7441 H 1009.71 -5.66348 3.3183 0
M  V30 7442 H 1014.29 -1.98804 5.94332 0
M  V30 7443 H 1008.68 -1.13147 3.4281 0
M  V30 7444 H 1010.09 -0.344074 4.19692 0
M  V30 7445 H 1016.09 -4.90891 4.01857 0
M  V30 7446 P 1017.95 -5.75688 6.64379 0
M  V30 7447 O 1019.37 -6.11849 7.01846 0
M  V30 7448 O 1017.59 -4.30744 6.56026 0
M  V30 7449 O 1017.62 -6.37042 5.19165 0
M  V30 7450 C 1017.46 -7.83578 5.16515 0
M  V30 7451 C 1018 -8.33398 3.83019 0
M  V30 7452 O 1016.95 -8.10074 3.01034 0
M  V30 7453 C 1019.22 -7.65514 3.2257 0
M  V30 7454 O 1019.96 -8.4329 2.32297 0
M  V30 7455 C 1018.55 -6.40075 2.62207 0
M  V30 7456 O 1019.35 -5.92589 1.53712 0
M  V30 7457 C 1017.22 -6.9454 2.18503 0
M  V30 7458 H 1017.25 -7.23063 1.12091 0
M  V30 7459 H 1018.43 -5.6025 3.37201 0
M  V30 7460 H 1019.91 -7.35707 4.02681 0
M  V30 7461 H 1018.22 -9.40912 3.9095 0
M  V30 7462 H 1018.03 -8.29056 5.99158 0
M  V30 7463 H 1016.4 -8.10073 5.25882 0
M  V30 7464 H 1019.04 -6.30324 0.726794 0
M  V30 7465 P 1020.9 -8.4349 2.47671 0
M  V30 7466 O 1022.32 -8.94167 2.5964 0
M  V30 7467 O 1020.54 -7.1704 3.19006 0
M  V30 7468 O 1020.57 -8.16596 0.923387 0
M  V30 7469 C 1020.41 -9.38437 0.108857 0
M  V30 7470 C 1020.95 -9.08175 -1.28353 0
M  V30 7471 O 1019.9 -8.44229 -1.84713 0
M  V30 7472 C 1022.17 -8.18386 -1.42505 0
M  V30 7473 O 1022.91 -8.3501 -2.60497 0
M  V30 7474 C 1021.5 -6.80225 -1.25468 0
M  V30 7475 O 1022.3 -5.81621 -1.91066 0
M  V30 7476 C 1020.17 -7.02416 -1.9168 0
M  V30 7477 H 1020.2 -6.6888 -2.96621 0
M  V30 7478 H 1021.38 -6.53617 -0.192223 0
M  V30 7479 H 1022.87 -8.36622 -0.589963 0
M  V30 7480 H 1021.17 -10.0291 -1.79807 0
M  V30 7481 H 1020.98 -10.2138 0.558219 0
M  V30 7482 H 1019.35 -9.6579 0.0444202 0
M  V30 7483 H 1021.99 -5.69556 -2.79637 0
M  V30 7484 P 1023.85 -8.4349 -2.47671 0
M  V30 7485 O 1025.27 -8.92593 -2.65 0
M  V30 7486 O 1023.49 -7.7568 -1.19296 0
M  V30 7487 O 1023.52 -7.36886 -3.63805 0
M  V30 7488 C 1023.36 -7.95349 -4.982 0
M  V30 7489 C 1023.9 -6.94612 -5.98974 0
M  V30 7490 O 1022.85 -6.10347 -6.11815 0
M  V30 7491 C 1025.12 -6.11426 -5.62335 0
M  V30 7492 O 1025.86 -5.6162 -6.70584 0
M  V30 7493 C 1024.45 -5.04409 -4.73308 0
M  V30 7494 O 1025.25 -3.85992 -4.75183 0
M  V30 7495 C 1023.12 -4.8728 -5.41006 0
M  V30 7496 H 1023.15 -4.02333 -6.11157 0
M  V30 7497 H 1024.33 -5.39466 -3.69543 0
M  V30 7498 H 1025.82 -6.71916 -5.01943 0
M  V30 7499 H 1024.12 -7.4649 -6.93477 0
M  V30 7500 H 1023.93 -8.89416 -5.05237 0
M  V30 7501 H 1022.3 -8.14876 -5.18409 0
M  V30 7502 H 1024.94 -3.27957 -5.4317 0
M  V30 7503 P 1026.8 -5.75688 -6.64379 0
M  V30 7504 O 1028.22 -6.07692 -7.0558 0
M  V30 7505 O 1026.44 -5.88047 -5.19722 0
M  V30 7506 O 1026.48 -4.2322 -7.04443 0
M  V30 7507 C 1026.31 -3.99785 -8.49201 0
M  V30 7508 C 1026.86 -2.60516 -8.79425 0
M  V30 7509 O 1025.8 -1.82663 -8.44573 0
M  V30 7510 C 1028.07 -2.10343 -8.03628 0
M  V30 7511 O 1028.81 -1.09919 -8.67766 0
M  V30 7512 C 1027.41 -1.68446 -6.70876 0
M  V30 7513 O 1028.2 -0.684109 -6.08265 0
M  V30 7514 C 1026.07 -1.17436 -7.18567 0
M  V30 7515 N 1025.02 -1.52699 -6.23988 0
M  V30 7516 C 1025.19 -2.578 -5.40574 0
M  V30 7517 N 1024.17 -2.78966 -4.61193 0
M  V30 7518 C 1023.28 -1.78725 -4.95769 0
M  V30 7519 C 1022.01 -1.45727 -4.44207 0
M  V30 7520 N 1021.45 -0.374977 -5.05812 0
M  V30 7521 C 1022.05 0.345585 -6.05615 0
M  V30 7522 N 1023.23 0.0787651 -6.56253 0
M  V30 7523 C 1023.8 -1.00499 -5.96189 0
M  V30 7524 H 1027.28 -2.53396 -6.02698 0
M  V30 7525 H 1028.77 -2.93881 -7.85526 0
M  V30 7526 H 1027.07 -2.52078 -9.87225 0
M  V30 7527 H 1026.88 -4.75072 -9.05887 0
M  V30 7528 H 1025.25 -4.05244 -8.76668 0
M  V30 7529 H 1026.09 -3.18977 -5.3945 0
M  V30 7530 H 1027.89 0.177619 -6.34151 0
M  V30 7531 P 1029.75 -1.25109 -8.70152 0
M  V30 7532 O 1031.17 -1.29744 -9.22016 0
M  V30 7533 O 1029.39 -2.13714 -7.55141 0
M  V30 7534 O 1029.43 0.248149 -8.21425 0
M  V30 7535 C 1029.27 1.22779 -9.30434 0
M  V30 7536 C 1029.81 2.56293 -8.80664 0
M  V30 7537 O 1028.75 3.02979 -8.09349 0
M  V30 7538 C 1031.02 2.57523 -7.89775 0
M  V30 7539 O 1031.76 3.7668 -7.89438 0
M  V30 7540 C 1030.35 2.20997 -6.55446 0
M  V30 7541 O 1031.15 2.71895 -5.48509 0
M  V30 7542 C 1029.02 2.89693 -6.67988 0
M  V30 7543 H 1029.05 3.88793 -6.19859 0
M  V30 7544 H 1030.23 1.12046 -6.44229 0
M  V30 7545 H 1031.72 1.7746 -8.19711 0
M  V30 7546 H 1030.02 3.20706 -9.67112 0
M  V30 7547 H 1029.83 0.901032 -10.1892 0
M  V30 7548 H 1028.2 1.33049 -9.56592 0
M  V30 7549 H 1030.84 3.57847 -5.23962 0
M  V30 7550 P 1032.7 3.65191 -7.99657 0
M  V30 7551 O 1034.12 3.89332 -8.45794 0
M  V30 7552 O 1032.34 2.28472 -7.50807 0
M  V30 7553 O 1032.38 4.64972 -6.77611 0
M  V30 7554 C 1032.22 6.06319 -7.16352 0
M  V30 7555 C 1032.76 6.91731 -6.02299 0
M  V30 7556 O 1031.7 6.92449 -5.17064 0
M  V30 7557 C 1033.97 6.43627 -5.25174 0
M  V30 7558 O 1034.71 7.43686 -4.60469 0
M  V30 7559 C 1033.31 5.40275 -4.31916 0
M  V30 7560 O 1034.1 5.25279 -3.14438 0
M  V30 7561 C 1031.97 6.04847 -4.05327 0
M  V30 7562 H 1032 6.62195 -3.11261 0
M  V30 7563 H 1033.18 4.42556 -4.81383 0
M  V30 7564 H 1034.67 5.92458 -5.93643 0
M  V30 7565 H 1032.97 7.92655 -6.402 0
M  V30 7566 H 1032.78 6.26671 -8.0846 0
M  V30 7567 H 1031.15 6.29101 -7.32804 0
M  V30 7568 H 1033.79 5.84315 -2.47318 0
M  V30 7569 P 1035.65 7.39546 -4.75277 0
M  V30 7570 O 1037.07 7.84798 -5.01039 0
M  V30 7571 O 1035.29 5.9812 -5.08098 0
M  V30 7572 O 1035.33 7.57503 -3.1866 0
M  V30 7573 C 1035.17 8.97357 -2.74833 0
M  V30 7574 C 1035.71 9.07548 -1.32709 0
M  V30 7575 O 1034.65 8.62072 -0.606159 0
M  V30 7576 C 1036.93 8.25383 -0.938334 0
M  V30 7577 O 1037.66 8.74577 0.146954 0
M  V30 7578 C 1036.26 6.8802 -0.712559 0
M  V30 7579 O 1037.06 6.1189 0.194655 0
M  V30 7580 C 1034.92 7.27966 -0.139777 0
M  V30 7581 H 1034.95 7.25354 0.961601 0
M  V30 7582 H 1036.13 6.32557 -1.65702 0
M  V30 7583 H 1037.62 8.19355 -1.79097 0
M  V30 7584 H 1035.92 10.1294 -1.10029 0
M  V30 7585 H 1035.73 9.64276 -3.41316 0
M  V30 7586 H 1034.1 9.25417 -2.76357 0
M  V30 7587 H 1036.74 6.25267 1.07847 0
M  V30 7588 P 1038.6 8.791 8.17632e-12 0
M  V30 7589 O 1040.02 9.31196 0.027936 0
M  V30 7590 O 1038.24 7.77869 -1.04071 0
M  V30 7591 O 1038.28 8.09533 1.41463 0
M  V30 7592 C 1038.12 9.03587 2.5397 0
M  V30 7593 C 1038.66 8.35226 3.79016 0
M  V30 7594 O 1037.6 7.57904 4.1503 0
M  V30 7595 C 1039.88 7.45087 3.67298 0
M  V30 7596 O 1040.61 7.27796 4.85194 0
M  V30 7597 C 1039.21 6.17323 3.12027 0
M  V30 7598 O 1040.01 5.04496 3.46627 0
M  V30 7599 C 1037.87 6.19961 3.81809 0
M  V30 7600 N 1036.83 5.71575 2.93223 0
M  V30 7601 C 1037 5.77362 1.59168 0
M  V30 7602 N 1035.97 5.3123 0.911893 0
M  V30 7603 C 1035.08 4.91717 1.89588 0
M  V30 7604 C 1033.82 4.3114 1.8076 0
M  V30 7605 N 1033.25 4.06823 3.02898 0
M  V30 7606 C 1033.85 4.35062 4.22711 0
M  V30 7607 N 1035.03 4.90805 4.35707 0
M  V30 7608 C 1035.61 5.16382 3.14469 0
M  V30 7609 H 1039.08 6.21428 2.0318 0
M  V30 7610 H 1040.57 7.86112 2.9231 0
M  V30 7611 H 1038.87 9.11171 4.55987 0
M  V30 7612 H 1038.68 9.9573 2.34194 0
M  V30 7613 H 1037.05 9.2792 2.67832 0
M  V30 7614 H 1037.9 6.16575 1.12198 0
M  V30 7615 H 1039.69 4.67628 4.28704 0
M  V30 7616 P 1041.55 7.39546 4.75277 0
M  V30 7617 O 1042.97 7.81777 5.05738 0
M  V30 7618 O 1041.19 7.1065 3.32998 0
M  V30 7619 O 1041.23 6.04542 5.56673 0
M  V30 7620 C 1041.07 6.22772 7.02095 0
M  V30 7621 C 1041.61 4.97725 7.70406 0
M  V30 7622 O 1040.55 4.13256 7.58987 0
M  V30 7623 C 1042.83 4.28231 7.11815 0
M  V30 7624 O 1043.56 3.49945 8.01648 0
M  V30 7625 C 1042.16 3.5063 5.96244 0
M  V30 7626 O 1042.96 2.36482 5.64681 0
M  V30 7627 C 1040.82 3.15122 6.56374 0
M  V30 7628 H 1040.85 2.13853 6.99751 0
M  V30 7629 H 1042.04 4.13501 5.06559 0
M  V30 7630 H 1043.52 5.03285 6.70911 0
M  V30 7631 H 1041.83 5.20877 8.75697 0
M  V30 7632 H 1041.64 7.11046 7.35349 0
M  V30 7633 H 1040.01 6.35815 7.26986 0
M  V30 7634 H 1042.64 1.61644 6.13565 0
M  V30 7635 P 1044.5 3.65191 7.99657 0
M  V30 7636 O 1045.92 3.8425 8.48115 0
M  V30 7637 O 1044.14 4.17805 6.64342 0
M  V30 7638 O 1044.18 2.07613 7.95143 0
M  V30 7639 C 1044.02 1.44328 9.27336 0
M  V30 7640 C 1044.56 0.0220036 9.17197 0
M  V30 7641 O 1043.5 -0.626867 8.61923 0
M  V30 7642 C 1045.78 -0.24586 8.30336 0
M  V30 7643 O 1046.51 -1.39011 8.63583 0
M  V30 7644 C 1045.11 -0.273849 6.91158 0
M  V30 7645 O 1045.91 -1.06348 6.02892 0
M  V30 7646 C 1043.77 -0.897649 7.22545 0
M  V30 7647 H 1043.8 -1.9841 7.04286 0
M  V30 7648 H 1044.99 0.739928 6.497 0
M  V30 7649 H 1046.47 0.60668 8.36503 0
M  V30 7650 H 1044.78 -0.352479 10.1829 0
M  V30 7651 H 1044.59 2.00611 10.0304 0
M  V30 7652 H 1042.96 1.41843 9.55327 0
M  V30 7653 H 1045.59 -1.95734 6.03555 0
M  V30 7654 P 1047.45 -1.25109 8.70152 0
M  V30 7655 O 1048.87 -1.35274 9.21221 0
M  V30 7656 O 1047.09 -0.0769065 7.84762 0
M  V30 7657 O 1047.13 -2.55232 7.81161 0
M  V30 7658 C 1046.97 -3.79939 8.58154 0
M  V30 7659 C 1047.51 -4.94023 7.72785 0
M  V30 7660 O 1046.45 -5.18726 6.91205 0
M  V30 7661 C 1048.73 -4.69597 6.85231 0
M  V30 7662 O 1049.47 -5.83832 6.51337 0
M  V30 7663 C 1048.06 -3.96706 5.66633 0
M  V30 7664 O 1048.86 -4.15414 4.49689 0
M  V30 7665 C 1046.72 -4.66153 5.59313 0
M  V30 7666 H 1046.75 -5.47679 4.85214 0
M  V30 7667 H 1047.94 -2.89008 5.86566 0
M  V30 7668 H 1049.42 -4.0121 7.36511 0
M  V30 7669 H 1047.73 -5.80182 8.37584 0
M  V30 7670 H 1047.54 -3.73517 9.52265 0
M  V30 7671 H 1045.91 -3.97163 8.80359 0
M  V30 7672 H 1048.55 -4.90969 4.01921 0
M  V30 7673 P 1050.4 -5.75688 6.64379 0
M  V30 7674 O 1051.82 -6.11915 7.01921 0
M  V30 7675 O 1050.04 -4.30744 6.56026 0
M  V30 7676 O 1050.08 -6.37042 5.19165 0
M  V30 7677 C 1049.92 -7.83662 5.1657 0
M  V30 7678 C 1050.46 -8.33398 3.83019 0
M  V30 7679 O 1049.4 -8.0998 3.00999 0
M  V30 7680 C 1051.68 -7.65514 3.2257 0
M  V30 7681 O 1052.42 -8.4329 2.32297 0
M  V30 7682 C 1051.01 -6.40075 2.62207 0
M  V30 7683 O 1051.81 -5.92338 1.5428 0
M  V30 7684 C 1049.67 -6.9454 2.18503 0
M  V30 7685 N 1048.63 -5.95905 2.39948 0
M  V30 7686 C 1048.8 -4.98383 3.32108 0
M  V30 7687 N 1047.77 -4.16798 3.41761 0
M  V30 7688 C 1046.89 -4.65287 2.47461 0
M  V30 7689 C 1045.62 -4.18946 2.07461 0
M  V30 7690 N 1045.05 -4.95327 1.09101 0
M  V30 7691 C 1045.66 -6.04369 0.519812 0
M  V30 7692 N 1046.83 -6.50694 0.855982 0
M  V30 7693 C 1047.41 -5.75818 1.84322 0
M  V30 7694 H 1050.89 -5.60502 3.36589 0
M  V30 7695 H 1052.37 -7.35707 4.02681 0
M  V30 7696 H 1050.68 -9.41302 3.90009 0
M  V30 7697 H 1050.49 -8.29056 5.99158 0
M  V30 7698 H 1048.86 -8.10073 5.25882 0
M  V30 7699 H 1049.7 -4.88564 3.92502 0
M  V30 7700 H 1051.5 -6.30224 0.72668 0
M  V30 7701 P 1053.35 -8.4349 2.47671 0
M  V30 7702 O 1054.78 -8.94167 2.5964 0
M  V30 7703 O 1052.99 -7.1704 3.19006 0
M  V30 7704 O 1053.03 -8.16596 0.923387 0
M  V30 7705 C 1052.87 -9.38437 0.108857 0
M  V30 7706 C 1053.41 -9.08175 -1.28353 0
M  V30 7707 O 1052.35 -8.44229 -1.84713 0
M  V30 7708 C 1054.63 -8.18386 -1.42505 0
M  V30 7709 O 1055.37 -8.3501 -2.60497 0
M  V30 7710 C 1053.96 -6.80225 -1.25468 0
M  V30 7711 O 1054.76 -5.81621 -1.91066 0
M  V30 7712 C 1052.62 -7.02416 -1.9168 0
M  V30 7713 H 1052.65 -6.6888 -2.96621 0
M  V30 7714 H 1053.84 -6.53617 -0.192223 0
M  V30 7715 H 1055.32 -8.36622 -0.589963 0
M  V30 7716 H 1053.63 -10.0291 -1.79807 0
M  V30 7717 H 1053.44 -10.2138 0.558219 0
M  V30 7718 H 1051.81 -9.6579 0.0444202 0
M  V30 7719 H 1054.45 -5.69556 -2.79637 0
M  V30 7720 P 1056.3 -8.4349 -2.47671 0
M  V30 7721 O 1057.73 -8.92593 -2.65 0
M  V30 7722 O 1055.94 -7.7568 -1.19296 0
M  V30 7723 O 1055.98 -7.36886 -3.63805 0
M  V30 7724 C 1055.82 -7.95349 -4.982 0
M  V30 7725 C 1056.36 -6.94612 -5.98974 0
M  V30 7726 O 1055.31 -6.10347 -6.11815 0
M  V30 7727 C 1057.58 -6.11426 -5.62335 0
M  V30 7728 O 1058.32 -5.6162 -6.70584 0
M  V30 7729 C 1056.91 -5.04409 -4.73308 0
M  V30 7730 O 1057.71 -3.85992 -4.75183 0
M  V30 7731 C 1055.57 -4.8728 -5.41006 0
M  V30 7732 H 1055.61 -4.02333 -6.11157 0
M  V30 7733 H 1056.79 -5.39466 -3.69543 0
M  V30 7734 H 1058.27 -6.71916 -5.01943 0
M  V30 7735 H 1056.58 -7.4649 -6.93477 0
M  V30 7736 H 1056.39 -8.89416 -5.05237 0
M  V30 7737 H 1054.76 -8.14876 -5.18409 0
M  V30 7738 H 1057.4 -3.27957 -5.4317 0
M  V30 7739 P 1059.25 -5.75688 -6.64379 0
M  V30 7740 O 1060.68 -6.07627 -7.05504 0
M  V30 7741 O 1058.89 -5.88047 -5.19722 0
M  V30 7742 O 1058.93 -4.2322 -7.04443 0
M  V30 7743 C 1058.77 -3.99743 -8.4911 0
M  V30 7744 C 1059.31 -2.60516 -8.79425 0
M  V30 7745 O 1058.26 -1.82684 -8.4467 0
M  V30 7746 C 1060.53 -2.10343 -8.03628 0
M  V30 7747 O 1061.27 -1.09919 -8.67766 0
M  V30 7748 C 1059.86 -1.68446 -6.70876 0
M  V30 7749 O 1060.66 -0.678137 -6.08433 0
M  V30 7750 C 1058.52 -1.17436 -7.18567 0
M  V30 7751 H 1058.56 -0.0804732 -7.31656 0
M  V30 7752 H 1059.74 -2.54037 -6.02537 0
M  V30 7753 H 1061.22 -2.93881 -7.85526 0
M  V30 7754 H 1059.53 -2.53065 -9.86973 0
M  V30 7755 H 1059.34 -4.75072 -9.05887 0
M  V30 7756 H 1057.71 -4.05244 -8.76668 0
M  V30 7757 H 1060.35 0.177647 -6.34251 0
M  V30 7758 P 1062.21 -1.25109 -8.70152 0
M  V30 7759 O 1063.63 -1.29744 -9.22016 0
M  V30 7760 O 1061.85 -2.13714 -7.55141 0
M  V30 7761 O 1061.88 0.248149 -8.21425 0
M  V30 7762 C 1061.72 1.22779 -9.30434 0
M  V30 7763 C 1062.26 2.56293 -8.80664 0
M  V30 7764 O 1061.21 3.02979 -8.09349 0
M  V30 7765 C 1063.48 2.57523 -7.89775 0
M  V30 7766 O 1064.22 3.7668 -7.89438 0
M  V30 7767 C 1062.81 2.20997 -6.55446 0
M  V30 7768 O 1063.61 2.71895 -5.48509 0
M  V30 7769 C 1061.47 2.89693 -6.67988 0
M  V30 7770 H 1061.51 3.88793 -6.19859 0
M  V30 7771 H 1062.69 1.12046 -6.44229 0
M  V30 7772 H 1064.17 1.7746 -8.19711 0
M  V30 7773 H 1062.48 3.20706 -9.67112 0
M  V30 7774 H 1062.29 0.901032 -10.1892 0
M  V30 7775 H 1060.66 1.33049 -9.56592 0
M  V30 7776 H 1063.3 3.57847 -5.23962 0
M  V30 7777 P 1065.16 3.65191 -7.99657 0
M  V30 7778 O 1066.58 3.89332 -8.45794 0
M  V30 7779 O 1064.8 2.28472 -7.50807 0
M  V30 7780 O 1064.83 4.64972 -6.77611 0
M  V30 7781 C 1064.67 6.06319 -7.16352 0
M  V30 7782 C 1065.21 6.91731 -6.02299 0
M  V30 7783 O 1064.16 6.92449 -5.17064 0
M  V30 7784 C 1066.43 6.43627 -5.25174 0
M  V30 7785 O 1067.17 7.43686 -4.60469 0
M  V30 7786 C 1065.76 5.40275 -4.31916 0
M  V30 7787 O 1066.56 5.25279 -3.14438 0
M  V30 7788 C 1064.42 6.04847 -4.05327 0
M  V30 7789 H 1064.46 6.62195 -3.11261 0
M  V30 7790 H 1065.64 4.42556 -4.81383 0
M  V30 7791 H 1067.12 5.92458 -5.93643 0
M  V30 7792 H 1065.43 7.92655 -6.402 0
M  V30 7793 H 1065.24 6.26671 -8.0846 0
M  V30 7794 H 1063.61 6.29101 -7.32804 0
M  V30 7795 H 1066.25 5.84315 -2.47318 0
M  V30 7796 P 1068.11 7.39546 -4.75277 0
M  V30 7797 O 1069.53 7.84798 -5.01039 0
M  V30 7798 O 1067.75 5.9812 -5.08098 0
M  V30 7799 O 1067.78 7.57503 -3.1866 0
M  V30 7800 C 1067.62 8.97357 -2.74833 0
M  V30 7801 C 1068.16 9.07548 -1.32709 0
M  V30 7802 O 1067.11 8.62072 -0.606159 0
M  V30 7803 C 1069.38 8.25383 -0.938334 0
M  V30 7804 O 1070.12 8.74577 0.146954 0
M  V30 7805 C 1068.71 6.8802 -0.712559 0
M  V30 7806 O 1069.51 6.1189 0.194655 0
M  V30 7807 C 1067.38 7.27966 -0.139777 0
M  V30 7808 H 1067.41 7.25354 0.961601 0
M  V30 7809 H 1068.59 6.32557 -1.65702 0
M  V30 7810 H 1070.07 8.19355 -1.79097 0
M  V30 7811 H 1068.38 10.1294 -1.10029 0
M  V30 7812 H 1068.19 9.64276 -3.41316 0
M  V30 7813 H 1066.56 9.25417 -2.76357 0
M  V30 7814 H 1069.2 6.25267 1.07847 0
M  V30 7815 P 1071.06 8.791 8.48649e-12 0
M  V30 7816 O 1072.48 9.31096 0.027933 0
M  V30 7817 O 1070.7 7.77869 -1.04071 0
M  V30 7818 O 1070.73 8.09533 1.41463 0
M  V30 7819 C 1070.57 9.0349 2.53943 0
M  V30 7820 C 1071.11 8.35226 3.79016 0
M  V30 7821 O 1070.06 7.57992 4.15078 0
M  V30 7822 C 1072.33 7.45087 3.67298 0
M  V30 7823 O 1073.07 7.27796 4.85194 0
M  V30 7824 C 1071.66 6.17323 3.12027 0
M  V30 7825 O 1072.46 5.04231 3.47188 0
M  V30 7826 C 1070.33 6.19961 3.81809 0
M  V30 7827 H 1070.36 5.58218 4.73051 0
M  V30 7828 H 1071.54 6.21726 2.02589 0
M  V30 7829 H 1073.02 7.86112 2.9231 0
M  V30 7830 H 1071.33 9.11627 4.55076 0
M  V30 7831 H 1071.14 9.9573 2.34194 0
M  V30 7832 H 1069.51 9.2792 2.67832 0
M  V30 7833 H 1072.15 4.67702 4.28772 0
M  V30 7834 P 1074.01 7.39546 4.75277 0
M  V30 7835 O 1075.43 7.81777 5.05738 0
M  V30 7836 O 1073.65 7.1065 3.32998 0
M  V30 7837 O 1073.68 6.04542 5.56673 0
M  V30 7838 C 1073.52 6.22772 7.02095 0
M  V30 7839 C 1074.06 4.97725 7.70406 0
M  V30 7840 O 1073.01 4.13256 7.58987 0
M  V30 7841 C 1075.28 4.28231 7.11815 0
M  V30 7842 O 1076.02 3.49945 8.01648 0
M  V30 7843 C 1074.61 3.5063 5.96244 0
M  V30 7844 O 1075.41 2.36482 5.64681 0
M  V30 7845 C 1073.28 3.15122 6.56374 0
M  V30 7846 H 1073.31 2.13853 6.99751 0
M  V30 7847 H 1074.49 4.13501 5.06559 0
M  V30 7848 H 1075.98 5.03285 6.70911 0
M  V30 7849 H 1074.28 5.20877 8.75697 0
M  V30 7850 H 1074.09 7.11046 7.35349 0
M  V30 7851 H 1072.46 6.35815 7.26986 0
M  V30 7852 H 1075.1 1.61644 6.13565 0
M  V30 7853 P 1076.96 3.65191 7.99657 0
M  V30 7854 O 1078.36 3.90823 8.51272 0
M  V30 7855 O 1076.58 4.23191 6.66972 0
M  V30 7856 O 1076.64 2.07587 7.95046 0
M  V30 7857 C 1076.48 1.44328 9.27336 0
M  V30 7858 C 1077.02 0.0220012 9.17097 0
M  V30 7859 O 1075.96 -0.626794 8.61824 0
M  V30 7860 C 1078.23 -0.24586 8.30336 0
M  V30 7861 O 1078.97 -1.39011 8.63583 0
M  V30 7862 C 1077.57 -0.273849 6.91158 0
M  V30 7863 O 1078.36 -1.06331 6.02794 0
M  V30 7864 C 1076.23 -0.897649 7.22545 0
M  V30 7865 N 1075.18 -0.292839 6.41732 0
M  V30 7866 C 1074.15 -1.08701 5.98712 0
M  V30 7867 O 1074.19 -2.31211 6.24471 0
M  V30 7868 N 1073.14 -0.533391 5.28415 0
M  V30 7869 C 1073.19 0.770866 4.98576 0
M  V30 7870 N 1072.18 1.29482 4.30134 0
M  V30 7871 C 1074.28 1.59049 5.38086 0
M  V30 7872 C 1075.25 1.01866 6.10256 0
M  V30 7873 H 1076.26 -1.98383 7.04189 0
M  V30 7874 H 1077.44 0.733318 6.49674 0
M  V30 7875 H 1078.93 0.598386 8.36663 0
M  V30 7876 H 1077.23 -0.362662 10.1825 0
M  V30 7877 H 1077.04 2.00611 10.0304 0
M  V30 7878 H 1075.41 1.41828 9.55228 0
M  V30 7879 H 1074.33 2.6415 5.10622 0
M  V30 7880 H 1076.09 1.61983 6.44042 0
M  V30 7881 H 1071.39 0.69888 4.01361 0
M  V30 7882 H 1072.18 2.29327 4.05781 0
M  V30 7883 H 1078.15 -1.97777 6.14035 0
M  V30 7884 P 1079.91 -1.25109 8.70152 0
M  V30 7885 O 1081.33 -1.35274 9.21221 0
M  V30 7886 O 1079.55 -0.0769065 7.84762 0
M  V30 7887 O 1079.59 -2.55232 7.81161 0
M  V30 7888 C 1079.43 -3.79939 8.58154 0
M  V30 7889 C 1079.97 -4.94023 7.72785 0
M  V30 7890 O 1078.91 -5.18726 6.91205 0
M  V30 7891 C 1081.18 -4.69597 6.85231 0
M  V30 7892 O 1081.92 -5.83832 6.51337 0
M  V30 7893 C 1080.51 -3.96706 5.66633 0
M  V30 7894 O 1081.31 -4.15414 4.49689 0
M  V30 7895 C 1079.18 -4.66153 5.59313 0
M  V30 7896 H 1079.21 -5.47679 4.85214 0
M  V30 7897 H 1080.39 -2.89008 5.86566 0
M  V30 7898 H 1081.88 -4.0121 7.36511 0
M  V30 7899 H 1080.18 -5.80182 8.37584 0
M  V30 7900 H 1079.99 -3.73517 9.52265 0
M  V30 7901 H 1078.36 -3.97163 8.80359 0
M  V30 7902 H 1081 -4.90969 4.01921 0
M  V30 7903 P 1082.86 -5.75688 6.64379 0
M  V30 7904 O 1084.28 -6.11849 7.01846 0
M  V30 7905 O 1082.5 -4.30744 6.56026 0
M  V30 7906 O 1082.54 -6.37042 5.19165 0
M  V30 7907 C 1082.38 -7.83578 5.16515 0
M  V30 7908 C 1082.92 -8.33398 3.83019 0
M  V30 7909 O 1081.86 -8.10074 3.01034 0
M  V30 7910 C 1084.13 -7.65514 3.2257 0
M  V30 7911 O 1084.87 -8.4329 2.32297 0
M  V30 7912 C 1083.47 -6.40075 2.62207 0
M  V30 7913 O 1084.26 -5.92589 1.53712 0
M  V30 7914 C 1082.13 -6.9454 2.18503 0
M  V30 7915 H 1082.16 -7.23063 1.12091 0
M  V30 7916 H 1083.34 -5.6025 3.37201 0
M  V30 7917 H 1084.83 -7.35707 4.02681 0
M  V30 7918 H 1083.13 -9.40912 3.9095 0
M  V30 7919 H 1082.94 -8.29056 5.99158 0
M  V30 7920 H 1081.31 -8.10073 5.25882 0
M  V30 7921 H 1083.95 -6.30324 0.726794 0
M  V30 7922 P 1085.81 -8.4349 2.47671 0
M  V30 7923 O 1087.23 -8.94167 2.5964 0
M  V30 7924 O 1085.45 -7.1704 3.19006 0
M  V30 7925 O 1085.49 -8.16596 0.923387 0
M  V30 7926 C 1085.33 -9.38437 0.108857 0
M  V30 7927 C 1085.87 -9.08175 -1.28353 0
M  V30 7928 O 1084.81 -8.44229 -1.84713 0
M  V30 7929 C 1087.08 -8.18386 -1.42505 0
M  V30 7930 O 1087.82 -8.3501 -2.60497 0
M  V30 7931 C 1086.42 -6.80225 -1.25468 0
M  V30 7932 O 1087.21 -5.81621 -1.91066 0
M  V30 7933 C 1085.08 -7.02416 -1.9168 0
M  V30 7934 H 1085.11 -6.6888 -2.96621 0
M  V30 7935 H 1086.29 -6.53617 -0.192223 0
M  V30 7936 H 1087.78 -8.36622 -0.589963 0
M  V30 7937 H 1086.08 -10.0291 -1.79807 0
M  V30 7938 H 1085.89 -10.2138 0.558219 0
M  V30 7939 H 1084.26 -9.6579 0.0444202 0
M  V30 7940 H 1086.9 -5.69556 -2.79637 0
M  V30 7941 P 1088.76 -8.4349 -2.47671 0
M  V30 7942 O 1090.18 -8.92593 -2.65 0
M  V30 7943 O 1088.4 -7.7568 -1.19296 0
M  V30 7944 O 1088.44 -7.36886 -3.63805 0
M  V30 7945 C 1088.28 -7.95349 -4.982 0
M  V30 7946 C 1088.82 -6.94612 -5.98974 0
M  V30 7947 O 1087.76 -6.10347 -6.11815 0
M  V30 7948 C 1090.04 -6.11426 -5.62335 0
M  V30 7949 O 1090.77 -5.6162 -6.70584 0
M  V30 7950 C 1089.37 -5.04409 -4.73308 0
M  V30 7951 O 1090.17 -3.85992 -4.75183 0
M  V30 7952 C 1088.03 -4.8728 -5.41006 0
M  V30 7953 H 1088.06 -4.02333 -6.11157 0
M  V30 7954 H 1089.24 -5.39466 -3.69543 0
M  V30 7955 H 1090.73 -6.71916 -5.01943 0
M  V30 7956 H 1089.03 -7.4649 -6.93477 0
M  V30 7957 H 1088.84 -8.89416 -5.05237 0
M  V30 7958 H 1087.21 -8.14876 -5.18409 0
M  V30 7959 H 1089.85 -3.27957 -5.4317 0
M  V30 7960 P 1091.71 -5.75688 -6.64379 0
M  V30 7961 O 1093.13 -6.07627 -7.05504 0
M  V30 7962 O 1091.35 -5.88047 -5.19722 0
M  V30 7963 O 1091.39 -4.2322 -7.04443 0
M  V30 7964 C 1091.23 -3.99743 -8.4911 0
M  V30 7965 C 1091.77 -2.60516 -8.79425 0
M  V30 7966 O 1090.71 -1.82684 -8.4467 0
M  V30 7967 C 1092.99 -2.10343 -8.03628 0
M  V30 7968 O 1093.72 -1.09919 -8.67766 0
M  V30 7969 C 1092.32 -1.68446 -6.70876 0
M  V30 7970 O 1093.12 -0.678137 -6.08433 0
M  V30 7971 C 1090.98 -1.17436 -7.18567 0
M  V30 7972 H 1091.01 -0.0804732 -7.31656 0
M  V30 7973 H 1092.19 -2.54037 -6.02537 0
M  V30 7974 H 1093.68 -2.93881 -7.85526 0
M  V30 7975 H 1091.98 -2.53065 -9.86973 0
M  V30 7976 H 1091.79 -4.75072 -9.05887 0
M  V30 7977 H 1090.16 -4.05244 -8.76668 0
M  V30 7978 H 1092.8 0.177647 -6.34251 0
M  V30 7979 P 1094.66 -1.25109 -8.70152 0
M  V30 7980 O 1096.08 -1.29744 -9.22016 0
M  V30 7981 O 1094.3 -2.13714 -7.55141 0
M  V30 7982 O 1094.34 0.248149 -8.21425 0
M  V30 7983 C 1094.18 1.22779 -9.30434 0
M  V30 7984 C 1094.72 2.56293 -8.80664 0
M  V30 7985 O 1093.66 3.02979 -8.09349 0
M  V30 7986 C 1095.94 2.57523 -7.89775 0
M  V30 7987 O 1096.67 3.7668 -7.89438 0
M  V30 7988 C 1095.27 2.20997 -6.55446 0
M  V30 7989 O 1096.07 2.71895 -5.48509 0
M  V30 7990 C 1093.93 2.89693 -6.67988 0
M  V30 7991 H 1093.96 3.88793 -6.19859 0
M  V30 7992 H 1095.15 1.12046 -6.44229 0
M  V30 7993 H 1096.63 1.7746 -8.19711 0
M  V30 7994 H 1094.94 3.20706 -9.67112 0
M  V30 7995 H 1094.75 0.901032 -10.1892 0
M  V30 7996 H 1093.12 1.33049 -9.56592 0
M  V30 7997 H 1095.75 3.57847 -5.23962 0
M  V30 7998 P 1097.61 3.65191 -7.99657 0
M  V30 7999 O 1099.03 3.89332 -8.45794 0
M  V30 8000 O 1097.25 2.28472 -7.50807 0
M  V30 8001 O 1097.29 4.64972 -6.77611 0
M  V30 8002 C 1097.13 6.06319 -7.16352 0
M  V30 8003 C 1097.67 6.91731 -6.02299 0
M  V30 8004 O 1096.61 6.92449 -5.17064 0
M  V30 8005 C 1098.89 6.43627 -5.25174 0
M  V30 8006 O 1099.63 7.43686 -4.60469 0
M  V30 8007 C 1098.22 5.40275 -4.31916 0
M  V30 8008 O 1099.02 5.25279 -3.14438 0
M  V30 8009 C 1096.88 6.04847 -4.05327 0
M  V30 8010 H 1096.91 6.62195 -3.11261 0
M  V30 8011 H 1098.1 4.42556 -4.81383 0
M  V30 8012 H 1099.58 5.92458 -5.93643 0
M  V30 8013 H 1097.89 7.92655 -6.402 0
M  V30 8014 H 1097.7 6.26671 -8.0846 0
M  V30 8015 H 1096.07 6.29101 -7.32804 0
M  V30 8016 H 1098.71 5.84315 -2.47318 0
M  V30 8017 P 1100.56 7.39546 -4.75277 0
M  V30 8018 O 1101.98 7.84798 -5.01039 0
M  V30 8019 O 1100.2 5.9812 -5.08098 0
M  V30 8020 O 1100.24 7.57503 -3.1866 0
M  V30 8021 C 1100.08 8.97357 -2.74833 0
M  V30 8022 C 1100.62 9.07548 -1.32709 0
M  V30 8023 O 1099.56 8.62072 -0.606159 0
M  V30 8024 C 1101.84 8.25383 -0.938334 0
M  V30 8025 O 1102.58 8.74577 0.146954 0
M  V30 8026 C 1101.17 6.8802 -0.712559 0
M  V30 8027 O 1101.97 6.1189 0.194655 0
M  V30 8028 C 1099.83 7.27966 -0.139777 0
M  V30 8029 H 1099.86 7.25354 0.961601 0
M  V30 8030 H 1101.05 6.32557 -1.65702 0
M  V30 8031 H 1102.53 8.19355 -1.79097 0
M  V30 8032 H 1100.84 10.1294 -1.10029 0
M  V30 8033 H 1100.65 9.64276 -3.41316 0
M  V30 8034 H 1099.02 9.25417 -2.76357 0
M  V30 8035 H 1101.66 6.25267 1.07847 0
M  V30 8036 P 1103.51 8.791 8.79665e-12 0
M  V30 8037 O 1104.94 9.31096 0.027933 0
M  V30 8038 O 1103.15 7.77869 -1.04071 0
M  V30 8039 O 1103.19 8.09533 1.41463 0
M  V30 8040 C 1103.03 9.0349 2.53943 0
M  V30 8041 C 1103.57 8.35226 3.79016 0
M  V30 8042 O 1102.51 7.57992 4.15078 0
M  V30 8043 C 1104.79 7.45087 3.67298 0
M  V30 8044 O 1105.53 7.27796 4.85194 0
M  V30 8045 C 1104.12 6.17323 3.12027 0
M  V30 8046 O 1104.92 5.04231 3.47188 0
M  V30 8047 C 1102.78 6.19961 3.81809 0
M  V30 8048 H 1102.81 5.58218 4.73051 0
M  V30 8049 H 1104 6.21726 2.02589 0
M  V30 8050 H 1105.48 7.86112 2.9231 0
M  V30 8051 H 1103.79 9.11627 4.55076 0
M  V30 8052 H 1103.6 9.9573 2.34194 0
M  V30 8053 H 1101.97 9.2792 2.67832 0
M  V30 8054 H 1104.61 4.67702 4.28772 0
M  V30 8055 P 1106.46 7.39546 4.75277 0
M  V30 8056 O 1107.89 7.81945 5.05847 0
M  V30 8057 O 1106.1 7.1065 3.32998 0
M  V30 8058 O 1106.14 6.04542 5.56673 0
M  V30 8059 C 1105.98 6.22772 7.02095 0
M  V30 8060 C 1106.52 4.97671 7.70322 0
M  V30 8061 O 1105.47 4.13256 7.58987 0
M  V30 8062 C 1107.74 4.28231 7.11815 0
M  V30 8063 O 1108.48 3.49945 8.01648 0
M  V30 8064 C 1107.07 3.5063 5.96244 0
M  V30 8065 O 1107.87 2.36443 5.64589 0
M  V30 8066 C 1105.73 3.15122 6.56374 0
M  V30 8067 N 1104.69 3.22311 5.55692 0
M  V30 8068 C 1104.75 4.14382 4.59701 0
M  V30 8069 N 1103.71 4.04476 3.76958 0
M  V30 8070 C 1102.97 3.04892 4.26534 0
M  V30 8071 C 1101.67 2.57447 3.88189 0
M  V30 8072 O 1100.93 2.9785 2.96543 0
M  V30 8073 N 1101.24 1.55228 4.65922 0
M  V30 8074 C 1101.99 1.01152 5.73447 0
M  V30 8075 N 1101.39 -0.0472117 6.37783 0
M  V30 8076 N 1103.14 1.467 6.13813 0
M  V30 8077 C 1103.6 2.4931 5.38487 0
M  V30 8078 H 1105.76 2.13853 6.99751 0
M  V30 8079 H 1106.95 4.13438 5.06482 0
M  V30 8080 H 1108.43 5.02614 6.71414 0
M  V30 8081 H 1106.74 5.20877 8.75697 0
M  V30 8082 H 1106.55 7.11046 7.35349 0
M  V30 8083 H 1104.92 6.35815 7.26986 0
M  V30 8084 H 1100.34 1.15238 4.46468 0
M  V30 8085 H 1105.55 4.88312 4.49647 0
M  V30 8086 H 1100.48 -0.396382 6.05203 0
M  V30 8087 H 1101.85 -0.484997 7.18465 0
M  V30 8088 H 1107.56 1.61619 6.13468 0
M  V30 8089 P 1109.41 3.65191 7.99657 0
M  V30 8090 O 1110.84 3.8425 8.48115 0
M  V30 8091 O 1109.05 4.17805 6.64342 0
M  V30 8092 O 1109.09 2.07613 7.95143 0
M  V30 8093 C 1108.93 1.44328 9.27336 0
M  V30 8094 C 1109.47 0.0220036 9.17197 0
M  V30 8095 O 1108.42 -0.626867 8.61923 0
M  V30 8096 C 1110.69 -0.24586 8.30336 0
M  V30 8097 O 1111.43 -1.39011 8.63583 0
M  V30 8098 C 1110.02 -0.273849 6.91158 0
M  V30 8099 O 1110.82 -1.06348 6.02892 0
M  V30 8100 C 1108.68 -0.897649 7.22545 0
M  V30 8101 H 1108.72 -1.9841 7.04286 0
M  V30 8102 H 1109.9 0.739928 6.497 0
M  V30 8103 H 1111.38 0.60668 8.36503 0
M  V30 8104 H 1109.69 -0.352479 10.1829 0
M  V30 8105 H 1109.5 2.00611 10.0304 0
M  V30 8106 H 1107.87 1.41843 9.55327 0
M  V30 8107 H 1110.51 -1.95734 6.03555 0
M  V30 8108 P 1112.36 -1.25109 8.70152 0
M  V30 8109 O 1113.79 -1.35274 9.21221 0
M  V30 8110 O 1112 -0.0769065 7.84762 0
M  V30 8111 O 1112.04 -2.55232 7.81161 0
M  V30 8112 C 1111.88 -3.79939 8.58154 0
M  V30 8113 C 1112.42 -4.94023 7.72785 0
M  V30 8114 O 1111.37 -5.18726 6.91205 0
M  V30 8115 C 1113.64 -4.69597 6.85231 0
M  V30 8116 O 1114.38 -5.83832 6.51337 0
M  V30 8117 C 1112.97 -3.96706 5.66633 0
M  V30 8118 O 1113.77 -4.15414 4.49689 0
M  V30 8119 C 1111.63 -4.66153 5.59313 0
M  V30 8120 H 1111.67 -5.47679 4.85214 0
M  V30 8121 H 1112.85 -2.89008 5.86566 0
M  V30 8122 H 1114.33 -4.0121 7.36511 0
M  V30 8123 H 1112.64 -5.80182 8.37584 0
M  V30 8124 H 1112.45 -3.73517 9.52265 0
M  V30 8125 H 1110.82 -3.97163 8.80359 0
M  V30 8126 H 1113.46 -4.90969 4.01921 0
M  V30 8127 P 1115.32 -5.75688 6.64379 0
M  V30 8128 O 1116.74 -6.11849 7.01846 0
M  V30 8129 O 1114.96 -4.30744 6.56026 0
M  V30 8130 O 1114.99 -6.37042 5.19165 0
M  V30 8131 C 1114.83 -7.83578 5.16515 0
M  V30 8132 C 1115.37 -8.33398 3.83019 0
M  V30 8133 O 1114.32 -8.10074 3.01034 0
M  V30 8134 C 1116.59 -7.65514 3.2257 0
M  V30 8135 O 1117.33 -8.4329 2.32297 0
M  V30 8136 C 1115.92 -6.40075 2.62207 0
M  V30 8137 O 1116.72 -5.92589 1.53712 0
M  V30 8138 C 1114.58 -6.9454 2.18503 0
M  V30 8139 H 1114.62 -7.23063 1.12091 0
M  V30 8140 H 1115.8 -5.6025 3.37201 0
M  V30 8141 H 1117.28 -7.35707 4.02681 0
M  V30 8142 H 1115.59 -9.40912 3.9095 0
M  V30 8143 H 1115.4 -8.29056 5.99158 0
M  V30 8144 H 1113.77 -8.10073 5.25882 0
M  V30 8145 H 1116.41 -6.30324 0.726794 0
M  V30 8146 P 1118.27 -8.4349 2.47671 0
M  V30 8147 O 1119.69 -8.94167 2.5964 0
M  V30 8148 O 1117.91 -7.1704 3.19006 0
M  V30 8149 O 1117.94 -8.16596 0.923387 0
M  V30 8150 C 1117.78 -9.38437 0.108857 0
M  V30 8151 C 1118.32 -9.08175 -1.28353 0
M  V30 8152 O 1117.27 -8.44229 -1.84713 0
M  V30 8153 C 1119.54 -8.18386 -1.42505 0
M  V30 8154 O 1120.28 -8.3501 -2.60497 0
M  V30 8155 C 1118.87 -6.80225 -1.25468 0
M  V30 8156 O 1119.67 -5.81621 -1.91066 0
M  V30 8157 C 1117.54 -7.02416 -1.9168 0
M  V30 8158 H 1117.57 -6.6888 -2.96621 0
M  V30 8159 H 1118.75 -6.53617 -0.192223 0
M  V30 8160 H 1120.23 -8.36622 -0.589963 0
M  V30 8161 H 1118.54 -10.0291 -1.79807 0
M  V30 8162 H 1118.35 -10.2138 0.558219 0
M  V30 8163 H 1116.72 -9.6579 0.0444202 0
M  V30 8164 H 1119.36 -5.69556 -2.79637 0
M  V30 8165 P 1121.22 -8.4349 -2.47671 0
M  V30 8166 O 1122.64 -8.92593 -2.65 0
M  V30 8167 O 1120.86 -7.7568 -1.19296 0
M  V30 8168 O 1120.89 -7.36886 -3.63805 0
M  V30 8169 C 1120.73 -7.95349 -4.982 0
M  V30 8170 C 1121.27 -6.94612 -5.98974 0
M  V30 8171 O 1120.22 -6.10347 -6.11815 0
M  V30 8172 C 1122.49 -6.11426 -5.62335 0
M  V30 8173 O 1123.23 -5.6162 -6.70584 0
M  V30 8174 C 1121.82 -5.04409 -4.73308 0
M  V30 8175 O 1122.62 -3.85992 -4.75183 0
M  V30 8176 C 1120.49 -4.8728 -5.41006 0
M  V30 8177 H 1120.52 -4.02333 -6.11157 0
M  V30 8178 H 1121.7 -5.39466 -3.69543 0
M  V30 8179 H 1123.18 -6.71916 -5.01943 0
M  V30 8180 H 1121.49 -7.4649 -6.93477 0
M  V30 8181 H 1121.3 -8.89416 -5.05237 0
M  V30 8182 H 1119.67 -8.14876 -5.18409 0
M  V30 8183 H 1122.31 -3.27957 -5.4317 0
M  V30 8184 P 1124.17 -5.75688 -6.64379 0
M  V30 8185 O 1125.59 -6.07627 -7.05504 0
M  V30 8186 O 1123.81 -5.88047 -5.19722 0
M  V30 8187 O 1123.84 -4.2322 -7.04443 0
M  V30 8188 C 1123.68 -3.99743 -8.4911 0
M  V30 8189 C 1124.22 -2.60516 -8.79425 0
M  V30 8190 O 1123.17 -1.82684 -8.4467 0
M  V30 8191 C 1125.44 -2.10343 -8.03628 0
M  V30 8192 O 1126.18 -1.09919 -8.67766 0
M  V30 8193 C 1124.77 -1.68446 -6.70876 0
M  V30 8194 O 1125.57 -0.678137 -6.08433 0
M  V30 8195 C 1123.44 -1.17436 -7.18567 0
M  V30 8196 H 1123.47 -0.0804732 -7.31656 0
M  V30 8197 H 1124.65 -2.54037 -6.02537 0
M  V30 8198 H 1126.14 -2.93881 -7.85526 0
M  V30 8199 H 1124.44 -2.53065 -9.86973 0
M  V30 8200 H 1124.25 -4.75072 -9.05887 0
M  V30 8201 H 1122.62 -4.05244 -8.76668 0
M  V30 8202 H 1125.26 0.177647 -6.34251 0
M  V30 8203 P 1127.12 -1.25109 -8.70152 0
M  V30 8204 O 1128.54 -1.29744 -9.22016 0
M  V30 8205 O 1126.76 -2.13714 -7.55141 0
M  V30 8206 O 1126.79 0.248149 -8.21425 0
M  V30 8207 C 1126.63 1.22779 -9.30434 0
M  V30 8208 C 1127.17 2.56293 -8.80664 0
M  V30 8209 O 1126.12 3.02979 -8.09349 0
M  V30 8210 C 1128.39 2.57523 -7.89775 0
M  V30 8211 O 1129.13 3.7668 -7.89438 0
M  V30 8212 C 1127.72 2.20997 -6.55446 0
M  V30 8213 O 1128.52 2.71895 -5.48509 0
M  V30 8214 C 1126.39 2.89693 -6.67988 0
M  V30 8215 H 1126.42 3.88793 -6.19859 0
M  V30 8216 H 1127.6 1.12046 -6.44229 0
M  V30 8217 H 1129.09 1.7746 -8.19711 0
M  V30 8218 H 1127.39 3.20706 -9.67112 0
M  V30 8219 H 1127.2 0.901032 -10.1892 0
M  V30 8220 H 1125.57 1.33049 -9.56592 0
M  V30 8221 H 1128.21 3.57847 -5.23962 0
M  V30 8222 P 1130.07 3.65191 -7.99657 0
M  V30 8223 O 1131.49 3.89332 -8.45794 0
M  V30 8224 O 1129.71 2.28472 -7.50807 0
M  V30 8225 O 1129.75 4.64972 -6.77611 0
M  V30 8226 C 1129.59 6.06319 -7.16352 0
M  V30 8227 C 1130.13 6.91731 -6.02299 0
M  V30 8228 O 1129.07 6.92449 -5.17064 0
M  V30 8229 C 1131.34 6.43627 -5.25174 0
M  V30 8230 O 1132.08 7.43686 -4.60469 0
M  V30 8231 C 1130.67 5.40275 -4.31916 0
M  V30 8232 O 1131.47 5.25279 -3.14438 0
M  V30 8233 C 1129.34 6.04847 -4.05327 0
M  V30 8234 H 1129.37 6.62195 -3.11261 0
M  V30 8235 H 1130.55 4.42556 -4.81383 0
M  V30 8236 H 1132.04 5.92458 -5.93643 0
M  V30 8237 H 1130.34 7.92655 -6.402 0
M  V30 8238 H 1130.15 6.26671 -8.0846 0
M  V30 8239 H 1128.52 6.29101 -7.32804 0
M  V30 8240 H 1131.16 5.84315 -2.47318 0
M  V30 8241 P 1133.02 7.39546 -4.75277 0
M  V30 8242 O 1134.44 7.84882 -5.01092 0
M  V30 8243 O 1132.66 5.9812 -5.08098 0
M  V30 8244 O 1132.7 7.57503 -3.1866 0
M  V30 8245 C 1132.53 8.97452 -2.74862 0
M  V30 8246 C 1133.08 9.07548 -1.32709 0
M  V30 8247 O 1132.02 8.61972 -0.606089 0
M  V30 8248 C 1134.29 8.25383 -0.938334 0
M  V30 8249 O 1135.03 8.74577 0.146954 0
M  V30 8250 C 1133.63 6.8802 -0.712559 0
M  V30 8251 O 1134.42 6.1181 0.188505 0
M  V30 8252 C 1132.29 7.27966 -0.139777 0
M  V30 8253 N 1131.24 6.39368 -0.623421 0
M  V30 8254 C 1131.41 5.71761 -1.78245 0
M  V30 8255 N 1130.39 4.962 -2.10491 0
M  V30 8256 C 1129.5 5.16158 -1.0635 0
M  V30 8257 C 1128.23 4.60425 -0.810266 0
M  V30 8258 N 1127.64 3.7057 -1.62914 0
M  V30 8259 N 1127.67 5.06 0.348685 0
M  V30 8260 C 1128.27 5.94532 1.20395 0
M  V30 8261 N 1129.45 6.48452 1.01191 0
M  V30 8262 C 1130.02 6.04423 -0.146291 0
M  V30 8263 H 1132.32 7.25255 0.961469 0
M  V30 8264 H 1133.5 6.32625 -1.65044 0
M  V30 8265 H 1134.99 8.19355 -1.79097 0
M  V30 8266 H 1133.29 10.1305 -1.09016 0
M  V30 8267 H 1133.1 9.64276 -3.41316 0
M  V30 8268 H 1131.47 9.25417 -2.76357 0
M  V30 8269 H 1127.74 6.21659 2.10714 0
M  V30 8270 H 1132.31 5.79354 -2.38959 0
M  V30 8271 H 1126.71 3.33174 -1.38982 0
M  V30 8272 H 1128.11 3.39714 -2.48836 0
M  V30 8273 H 1134.11 6.25169 1.0783 0
M  V30 8274 P 1135.97 8.791 9.10682e-12 0
M  V30 8275 O 1137.39 9.31096 0.027933 0
M  V30 8276 O 1135.61 7.77869 -1.04071 0
M  V30 8277 O 1135.65 8.09533 1.41463 0
M  V30 8278 C 1135.49 9.0349 2.53943 0
M  V30 8279 C 1136.03 8.35226 3.79016 0
M  V30 8280 O 1134.97 7.57992 4.15078 0
M  V30 8281 C 1137.24 7.45087 3.67298 0
M  V30 8282 O 1137.98 7.27796 4.85194 0
M  V30 8283 C 1136.58 6.17323 3.12027 0
M  V30 8284 O 1137.37 5.04231 3.47188 0
M  V30 8285 C 1135.24 6.19961 3.81809 0
M  V30 8286 H 1135.27 5.58218 4.73051 0
M  V30 8287 H 1136.45 6.21726 2.02589 0
M  V30 8288 H 1137.94 7.86112 2.9231 0
M  V30 8289 H 1136.24 9.11627 4.55076 0
M  V30 8290 H 1136.05 9.9573 2.34194 0
M  V30 8291 H 1134.42 9.2792 2.67832 0
M  V30 8292 H 1137.06 4.67702 4.28772 0
M  V30 8293 P 1138.92 7.39546 4.75277 0
M  V30 8294 O 1140.34 7.81777 5.05738 0
M  V30 8295 O 1138.56 7.1065 3.32998 0
M  V30 8296 O 1138.6 6.04542 5.56673 0
M  V30 8297 C 1138.44 6.22772 7.02095 0
M  V30 8298 C 1138.98 4.97725 7.70406 0
M  V30 8299 O 1137.92 4.13256 7.58987 0
M  V30 8300 C 1140.2 4.28231 7.11815 0
M  V30 8301 O 1140.93 3.49945 8.01648 0
M  V30 8302 C 1139.53 3.5063 5.96244 0
M  V30 8303 O 1140.33 2.36482 5.64681 0
M  V30 8304 C 1138.19 3.15122 6.56374 0
M  V30 8305 H 1138.22 2.13853 6.99751 0
M  V30 8306 H 1139.4 4.13501 5.06559 0
M  V30 8307 H 1140.89 5.03285 6.70911 0
M  V30 8308 H 1139.19 5.20877 8.75697 0
M  V30 8309 H 1139 7.11046 7.35349 0
M  V30 8310 H 1137.37 6.35815 7.26986 0
M  V30 8311 H 1140.01 1.61644 6.13565 0
M  V30 8312 P 1141.87 3.65191 7.99657 0
M  V30 8313 O 1143.29 3.8425 8.48115 0
M  V30 8314 O 1141.51 4.17805 6.64342 0
M  V30 8315 O 1141.55 2.07613 7.95143 0
M  V30 8316 C 1141.39 1.44328 9.27336 0
M  V30 8317 C 1141.93 0.0220036 9.17197 0
M  V30 8318 O 1140.87 -0.626867 8.61923 0
M  V30 8319 C 1143.15 -0.24586 8.30336 0
M  V30 8320 O 1143.88 -1.39011 8.63583 0
M  V30 8321 C 1142.48 -0.273849 6.91158 0
M  V30 8322 O 1143.28 -1.06348 6.02892 0
M  V30 8323 C 1141.14 -0.897649 7.22545 0
M  V30 8324 H 1141.17 -1.9841 7.04286 0
M  V30 8325 H 1142.35 0.739928 6.497 0
M  V30 8326 H 1143.84 0.60668 8.36503 0
M  V30 8327 H 1142.14 -0.352479 10.1829 0
M  V30 8328 H 1141.95 2.00611 10.0304 0
M  V30 8329 H 1140.32 1.41843 9.55327 0
M  V30 8330 H 1142.96 -1.95734 6.03555 0
M  V30 8331 P 1144.82 -1.25109 8.70152 0
M  V30 8332 O 1146.24 -1.35274 9.21221 0
M  V30 8333 O 1144.46 -0.0769065 7.84762 0
M  V30 8334 O 1144.5 -2.55232 7.81161 0
M  V30 8335 C 1144.34 -3.79939 8.58154 0
M  V30 8336 C 1144.88 -4.94023 7.72785 0
M  V30 8337 O 1143.82 -5.18726 6.91205 0
M  V30 8338 C 1146.1 -4.69597 6.85231 0
M  V30 8339 O 1146.83 -5.83832 6.51337 0
M  V30 8340 C 1145.43 -3.96706 5.66633 0
M  V30 8341 O 1146.23 -4.15414 4.49689 0
M  V30 8342 C 1144.09 -4.66153 5.59313 0
M  V30 8343 H 1144.12 -5.47679 4.85214 0
M  V30 8344 H 1145.31 -2.89008 5.86566 0
M  V30 8345 H 1146.79 -4.0121 7.36511 0
M  V30 8346 H 1145.1 -5.80182 8.37584 0
M  V30 8347 H 1144.91 -3.73517 9.52265 0
M  V30 8348 H 1143.28 -3.97163 8.80359 0
M  V30 8349 H 1145.91 -4.90969 4.01921 0
M  V30 8350 P 1147.77 -5.75688 6.64379 0
M  V30 8351 O 1149.19 -6.11849 7.01846 0
M  V30 8352 O 1147.41 -4.30744 6.56026 0
M  V30 8353 O 1147.45 -6.37042 5.19165 0
M  V30 8354 C 1147.29 -7.83578 5.16515 0
M  V30 8355 C 1147.83 -8.33398 3.83019 0
M  V30 8356 O 1146.77 -8.10074 3.01034 0
M  V30 8357 C 1149.05 -7.65514 3.2257 0
M  V30 8358 O 1149.78 -8.4329 2.32297 0
M  V30 8359 C 1148.38 -6.40075 2.62207 0
M  V30 8360 O 1149.18 -5.92589 1.53712 0
M  V30 8361 C 1147.04 -6.9454 2.18503 0
M  V30 8362 H 1147.07 -7.23063 1.12091 0
M  V30 8363 H 1148.26 -5.6025 3.37201 0
M  V30 8364 H 1149.74 -7.35707 4.02681 0
M  V30 8365 H 1148.05 -9.40912 3.9095 0
M  V30 8366 H 1147.86 -8.29056 5.99158 0
M  V30 8367 H 1146.23 -8.10073 5.25882 0
M  V30 8368 H 1148.86 -6.30324 0.726794 0
M  V30 8369 P 1150.72 -8.4349 2.47671 0
M  V30 8370 O 1152.14 -8.94167 2.5964 0
M  V30 8371 O 1150.36 -7.1704 3.19006 0
M  V30 8372 O 1150.4 -8.16596 0.923387 0
M  V30 8373 C 1150.24 -9.38437 0.108857 0
M  V30 8374 C 1150.78 -9.08175 -1.28353 0
M  V30 8375 O 1149.72 -8.44229 -1.84713 0
M  V30 8376 C 1152 -8.18386 -1.42505 0
M  V30 8377 O 1152.74 -8.3501 -2.60497 0
M  V30 8378 C 1151.33 -6.80225 -1.25468 0
M  V30 8379 O 1152.13 -5.81621 -1.91066 0
M  V30 8380 C 1149.99 -7.02416 -1.9168 0
M  V30 8381 H 1150.02 -6.6888 -2.96621 0
M  V30 8382 H 1151.21 -6.53617 -0.192223 0
M  V30 8383 H 1152.69 -8.36622 -0.589963 0
M  V30 8384 H 1151 -10.0291 -1.79807 0
M  V30 8385 H 1150.81 -10.2138 0.558219 0
M  V30 8386 H 1149.18 -9.6579 0.0444202 0
M  V30 8387 H 1151.82 -5.69556 -2.79637 0
M  V30 8388 P 1153.67 -8.4349 -2.47671 0
M  V30 8389 O 1155.09 -8.92593 -2.65 0
M  V30 8390 O 1153.31 -7.7568 -1.19296 0
M  V30 8391 O 1153.35 -7.36886 -3.63805 0
M  V30 8392 C 1153.19 -7.95349 -4.982 0
M  V30 8393 C 1153.73 -6.94612 -5.98974 0
M  V30 8394 O 1152.67 -6.10347 -6.11815 0
M  V30 8395 C 1154.95 -6.11426 -5.62335 0
M  V30 8396 O 1155.69 -5.6162 -6.70584 0
M  V30 8397 C 1154.28 -5.04409 -4.73308 0
M  V30 8398 O 1155.08 -3.85992 -4.75183 0
M  V30 8399 C 1152.94 -4.8728 -5.41006 0
M  V30 8400 H 1152.97 -4.02333 -6.11157 0
M  V30 8401 H 1154.16 -5.39466 -3.69543 0
M  V30 8402 H 1155.64 -6.71916 -5.01943 0
M  V30 8403 H 1153.95 -7.4649 -6.93477 0
M  V30 8404 H 1153.76 -8.89416 -5.05237 0
M  V30 8405 H 1152.13 -8.14876 -5.18409 0
M  V30 8406 H 1154.77 -3.27957 -5.4317 0
M  V30 8407 P 1156.62 -5.75688 -6.64379 0
M  V30 8408 O 1158.04 -6.07692 -7.0558 0
M  V30 8409 O 1156.26 -5.88047 -5.19722 0
M  V30 8410 O 1156.3 -4.2322 -7.04443 0
M  V30 8411 C 1156.14 -3.99785 -8.49201 0
M  V30 8412 C 1156.68 -2.60516 -8.79425 0
M  V30 8413 O 1155.63 -1.82663 -8.44573 0
M  V30 8414 C 1157.9 -2.10343 -8.03628 0
M  V30 8415 O 1158.64 -1.09919 -8.67766 0
M  V30 8416 C 1157.23 -1.68446 -6.70876 0
M  V30 8417 O 1158.03 -0.684109 -6.08265 0
M  V30 8418 C 1155.89 -1.17436 -7.18567 0
M  V30 8419 N 1154.85 -1.52699 -6.23988 0
M  V30 8420 C 1155.02 -2.578 -5.40574 0
M  V30 8421 N 1153.99 -2.78966 -4.61193 0
M  V30 8422 C 1153.11 -1.78725 -4.95769 0
M  V30 8423 C 1151.84 -1.45727 -4.44207 0
M  V30 8424 N 1151.24 -2.13994 -3.43613 0
M  V30 8425 N 1151.27 -0.374977 -5.05812 0
M  V30 8426 C 1151.88 0.345585 -6.05615 0
M  V30 8427 N 1153.05 0.0787651 -6.56253 0
M  V30 8428 C 1153.63 -1.00499 -5.96189 0
M  V30 8429 H 1155.92 -0.0804622 -7.31556 0
M  V30 8430 H 1157.11 -2.53396 -6.02698 0
M  V30 8431 H 1158.59 -2.93881 -7.85526 0
M  V30 8432 H 1156.9 -2.52078 -9.87225 0
M  V30 8433 H 1156.71 -4.75072 -9.05887 0
M  V30 8434 H 1155.08 -4.05244 -8.76668 0
M  V30 8435 H 1151.34 1.20098 -6.4532 0
M  V30 8436 H 1155.92 -3.18977 -5.3945 0
M  V30 8437 H 1150.31 -1.84983 -3.10004 0
M  V30 8438 H 1151.71 -2.9465 -3.00843 0
M  V30 8439 H 1157.72 0.177619 -6.34151 0
M  V30 8440 P 1159.57 -1.25109 -8.70152 0
M  V30 8441 O 1161 -1.29744 -9.22016 0
M  V30 8442 O 1159.21 -2.13714 -7.55141 0
M  V30 8443 O 1159.25 0.248149 -8.21425 0
M  V30 8444 C 1159.09 1.22779 -9.30434 0
M  V30 8445 C 1159.63 2.56293 -8.80664 0
M  V30 8446 O 1158.58 3.02979 -8.09349 0
M  V30 8447 C 1160.85 2.57523 -7.89775 0
M  V30 8448 O 1161.59 3.7668 -7.89438 0
M  V30 8449 C 1160.18 2.20997 -6.55446 0
M  V30 8450 O 1160.98 2.71895 -5.48509 0
M  V30 8451 C 1158.84 2.89693 -6.67988 0
M  V30 8452 H 1158.88 3.88793 -6.19859 0
M  V30 8453 H 1160.06 1.12046 -6.44229 0
M  V30 8454 H 1161.54 1.7746 -8.19711 0
M  V30 8455 H 1159.85 3.20706 -9.67112 0
M  V30 8456 H 1159.66 0.901032 -10.1892 0
M  V30 8457 H 1158.03 1.33049 -9.56592 0
M  V30 8458 H 1160.67 3.57847 -5.23962 0
M  V30 8459 P 1162.52 3.65191 -7.99657 0
M  V30 8460 O 1163.95 3.89332 -8.45794 0
M  V30 8461 O 1162.16 2.28472 -7.50807 0
M  V30 8462 O 1162.2 4.64972 -6.77611 0
M  V30 8463 C 1162.04 6.06319 -7.16352 0
M  V30 8464 C 1162.58 6.91731 -6.02299 0
M  V30 8465 O 1161.53 6.92449 -5.17064 0
M  V30 8466 C 1163.8 6.43627 -5.25174 0
M  V30 8467 O 1164.54 7.43686 -4.60469 0
M  V30 8468 C 1163.13 5.40275 -4.31916 0
M  V30 8469 O 1163.93 5.25279 -3.14438 0
M  V30 8470 C 1161.79 6.04847 -4.05327 0
M  V30 8471 H 1161.83 6.62195 -3.11261 0
M  V30 8472 H 1163.01 4.42556 -4.81383 0
M  V30 8473 H 1164.49 5.92458 -5.93643 0
M  V30 8474 H 1162.8 7.92655 -6.402 0
M  V30 8475 H 1162.61 6.26671 -8.0846 0
M  V30 8476 H 1160.98 6.29101 -7.32804 0
M  V30 8477 H 1163.62 5.84315 -2.47318 0
M  V30 8478 P 1165.48 7.39546 -4.75277 0
M  V30 8479 O 1166.9 7.84798 -5.01039 0
M  V30 8480 O 1165.12 5.9812 -5.08098 0
M  V30 8481 O 1165.15 7.57503 -3.1866 0
M  V30 8482 C 1164.99 8.97357 -2.74833 0
M  V30 8483 C 1165.53 9.07548 -1.32709 0
M  V30 8484 O 1164.48 8.62072 -0.606159 0
M  V30 8485 C 1166.75 8.25383 -0.938334 0
M  V30 8486 O 1167.49 8.74577 0.146954 0
M  V30 8487 C 1166.08 6.8802 -0.712559 0
M  V30 8488 O 1166.88 6.1189 0.194655 0
M  V30 8489 C 1164.74 7.27966 -0.139777 0
M  V30 8490 H 1164.78 7.25354 0.961601 0
M  V30 8491 H 1165.96 6.32557 -1.65702 0
M  V30 8492 H 1167.44 8.19355 -1.79097 0
M  V30 8493 H 1165.75 10.1294 -1.10029 0
M  V30 8494 H 1165.56 9.64276 -3.41316 0
M  V30 8495 H 1163.93 9.25417 -2.76357 0
M  V30 8496 H 1166.57 6.25267 1.07847 0
M  V30 8497 P 1168.43 8.791 9.41699e-12 0
M  V30 8498 O 1169.85 9.31096 0.027933 0
M  V30 8499 O 1168.07 7.77869 -1.04071 0
M  V30 8500 O 1168.1 8.09533 1.41463 0
M  V30 8501 C 1167.94 9.0349 2.53943 0
M  V30 8502 C 1168.48 8.35226 3.79016 0
M  V30 8503 O 1167.43 7.57992 4.15078 0
M  V30 8504 C 1169.7 7.45087 3.67298 0
M  V30 8505 O 1170.44 7.27796 4.85194 0
M  V30 8506 C 1169.03 6.17323 3.12027 0
M  V30 8507 O 1169.83 5.04231 3.47188 0
M  V30 8508 C 1167.69 6.19961 3.81809 0
M  V30 8509 H 1167.73 5.58218 4.73051 0
M  V30 8510 H 1168.91 6.21726 2.02589 0
M  V30 8511 H 1170.39 7.86112 2.9231 0
M  V30 8512 H 1168.7 9.11627 4.55076 0
M  V30 8513 H 1168.51 9.9573 2.34194 0
M  V30 8514 H 1166.88 9.2792 2.67832 0
M  V30 8515 H 1169.52 4.67702 4.28772 0
M  V30 8516 P 1171.38 7.39546 4.75277 0
M  V30 8517 O 1172.8 7.81861 5.05793 0
M  V30 8518 O 1171.02 7.1065 3.32998 0
M  V30 8519 O 1171.05 6.04542 5.56673 0
M  V30 8520 C 1170.89 6.22839 7.02169 0
M  V30 8521 C 1171.43 4.97725 7.70406 0
M  V30 8522 O 1170.38 4.13208 7.58899 0
M  V30 8523 C 1172.65 4.28231 7.11815 0
M  V30 8524 O 1173.39 3.49945 8.01648 0
M  V30 8525 C 1171.98 3.5063 5.96244 0
M  V30 8526 O 1172.78 2.37008 5.64352 0
M  V30 8527 C 1170.65 3.15122 6.56374 0
M  V30 8528 N 1169.6 3.22311 5.55692 0
M  V30 8529 C 1169.77 3.99655 4.46046 0
M  V30 8530 N 1168.74 3.97599 3.63918 0
M  V30 8531 C 1167.86 3.11159 4.25334 0
M  V30 8532 C 1166.59 2.64972 3.85157 0
M  V30 8533 N 1165.99 3.02132 2.69405 0
M  V30 8534 N 1166.03 1.78482 4.74759 0
M  V30 8535 C 1166.63 1.37463 5.90819 0
M  V30 8536 N 1167.81 1.7733 6.31889 0
M  V30 8537 C 1168.38 2.64393 5.43725 0
M  V30 8538 H 1170.68 2.13823 6.99656 0
M  V30 8539 H 1171.86 4.12931 5.06895 0
M  V30 8540 H 1173.34 5.03285 6.70911 0
M  V30 8541 H 1171.65 5.20001 8.76217 0
M  V30 8542 H 1171.46 7.11046 7.35349 0
M  V30 8543 H 1169.83 6.35815 7.26986 0
M  V30 8544 H 1166.09 0.66574 6.53015 0
M  V30 8545 H 1170.67 4.58037 4.27732 0
M  V30 8546 H 1165.06 2.64828 2.45331 0
M  V30 8547 H 1166.47 3.67472 2.05644 0
M  V30 8548 H 1172.47 1.61619 6.13468 0
M  V30 8549 P 1174.33 3.65191 7.99657 0
M  V30 8550 O 1175.75 3.8425 8.48115 0
M  V30 8551 O 1173.97 4.17805 6.64342 0
M  V30 8552 O 1174 2.07613 7.95143 0
M  V30 8553 C 1173.84 1.44328 9.27336 0
M  V30 8554 C 1174.38 0.0220036 9.17197 0
M  V30 8555 O 1173.33 -0.626867 8.61923 0
M  V30 8556 C 1175.6 -0.24586 8.30336 0
M  V30 8557 O 1176.34 -1.39011 8.63583 0
M  V30 8558 C 1174.93 -0.273849 6.91158 0
M  V30 8559 O 1175.73 -1.06348 6.02892 0
M  V30 8560 C 1173.6 -0.897649 7.22545 0
M  V30 8561 H 1173.63 -1.9841 7.04286 0
M  V30 8562 H 1174.81 0.739928 6.497 0
M  V30 8563 H 1176.29 0.60668 8.36503 0
M  V30 8564 H 1174.6 -0.352479 10.1829 0
M  V30 8565 H 1174.41 2.00611 10.0304 0
M  V30 8566 H 1172.78 1.41843 9.55327 0
M  V30 8567 H 1175.42 -1.95734 6.03555 0
M  V30 8568 P 1177.28 -1.25109 8.70152 0
M  V30 8569 O 1178.7 -1.35288 9.2132 0
M  V30 8570 O 1176.92 -0.0769065 7.84762 0
M  V30 8571 O 1176.95 -2.55232 7.81161 0
M  V30 8572 C 1176.79 -3.79979 8.58246 0
M  V30 8573 C 1177.33 -4.94023 7.72785 0
M  V30 8574 O 1176.28 -5.18666 6.91125 0
M  V30 8575 C 1178.55 -4.69597 6.85231 0
M  V30 8576 O 1179.29 -5.83832 6.51337 0
M  V30 8577 C 1177.88 -3.96706 5.66633 0
M  V30 8578 O 1178.68 -4.14896 4.5003 0
M  V30 8579 C 1176.55 -4.66153 5.59313 0
M  V30 8580 N 1175.5 -3.71582 5.24027 0
M  V30 8581 C 1175.67 -2.39715 5.48833 0
M  V30 8582 N 1174.65 -1.65863 5.12845 0
M  V30 8583 C 1173.76 -2.57637 4.5973 0
M  V30 8584 C 1172.49 -2.40278 4.01027 0
M  V30 8585 N 1171.93 -3.57711 3.59575 0
M  V30 8586 C 1172.53 -4.80324 3.70476 0
M  V30 8587 N 1173.71 -5.01121 4.23801 0
M  V30 8588 C 1174.28 -3.84757 4.66372 0
M  V30 8589 H 1177.76 -2.8955 5.86187 0
M  V30 8590 H 1179.24 -4.0121 7.36511 0
M  V30 8591 H 1177.55 -5.81019 8.37003 0
M  V30 8592 H 1177.36 -3.73517 9.52265 0
M  V30 8593 H 1175.73 -3.97163 8.80359 0
M  V30 8594 H 1176.57 -1.98804 5.94332 0
M  V30 8595 H 1178.37 -4.90891 4.01857 0
M  V30 8596 P 1180.23 -5.75688 6.64379 0
M  V30 8597 O 1181.65 -6.11849 7.01846 0
M  V30 8598 O 1179.87 -4.30744 6.56026 0
M  V30 8599 O 1179.9 -6.37042 5.19165 0
M  V30 8600 C 1179.74 -7.83578 5.16515 0
M  V30 8601 C 1180.28 -8.33398 3.83019 0
M  V30 8602 O 1179.23 -8.10074 3.01034 0
M  V30 8603 C 1181.5 -7.65514 3.2257 0
M  V30 8604 O 1182.24 -8.4329 2.32297 0
M  V30 8605 C 1180.83 -6.40075 2.62207 0
M  V30 8606 O 1181.63 -5.92589 1.53712 0
M  V30 8607 C 1179.5 -6.9454 2.18503 0
M  V30 8608 H 1179.53 -7.23063 1.12091 0
M  V30 8609 H 1180.71 -5.6025 3.37201 0
M  V30 8610 H 1182.2 -7.35707 4.02681 0
M  V30 8611 H 1180.5 -9.40912 3.9095 0
M  V30 8612 H 1180.31 -8.29056 5.99158 0
M  V30 8613 H 1178.68 -8.10073 5.25882 0
M  V30 8614 H 1181.32 -6.30324 0.726794 0
M  V30 8615 P 1183.18 -8.4349 2.47671 0
M  V30 8616 O 1184.6 -8.94167 2.5964 0
M  V30 8617 O 1182.82 -7.1704 3.19006 0
M  V30 8618 O 1182.86 -8.16596 0.923387 0
M  V30 8619 C 1182.7 -9.38437 0.108857 0
M  V30 8620 C 1183.24 -9.08175 -1.28353 0
M  V30 8621 O 1182.18 -8.44229 -1.84713 0
M  V30 8622 C 1184.45 -8.18386 -1.42505 0
M  V30 8623 O 1185.19 -8.3501 -2.60497 0
M  V30 8624 C 1183.78 -6.80225 -1.25468 0
M  V30 8625 O 1184.58 -5.81621 -1.91066 0
M  V30 8626 C 1182.45 -7.02416 -1.9168 0
M  V30 8627 H 1182.48 -6.6888 -2.96621 0
M  V30 8628 H 1183.66 -6.53617 -0.192223 0
M  V30 8629 H 1185.15 -8.36622 -0.589963 0
M  V30 8630 H 1183.45 -10.0291 -1.79807 0
M  V30 8631 H 1183.26 -10.2138 0.558219 0
M  V30 8632 H 1181.63 -9.6579 0.0444202 0
M  V30 8633 H 1184.27 -5.69556 -2.79637 0
M  V30 8634 P 1186.13 -8.4349 -2.47671 0
M  V30 8635 O 1187.55 -8.92593 -2.65 0
M  V30 8636 O 1185.77 -7.7568 -1.19296 0
M  V30 8637 O 1185.81 -7.36886 -3.63805 0
M  V30 8638 C 1185.65 -7.95349 -4.982 0
M  V30 8639 C 1186.19 -6.94612 -5.98974 0
M  V30 8640 O 1185.13 -6.10347 -6.11815 0
M  V30 8641 C 1187.4 -6.11426 -5.62335 0
M  V30 8642 O 1188.14 -5.6162 -6.70584 0
M  V30 8643 C 1186.74 -5.04409 -4.73308 0
M  V30 8644 O 1187.53 -3.85992 -4.75183 0
M  V30 8645 C 1185.4 -4.8728 -5.41006 0
M  V30 8646 H 1185.43 -4.02333 -6.11157 0
M  V30 8647 H 1186.61 -5.39466 -3.69543 0
M  V30 8648 H 1188.1 -6.71916 -5.01943 0
M  V30 8649 H 1186.4 -7.4649 -6.93477 0
M  V30 8650 H 1186.21 -8.89416 -5.05237 0
M  V30 8651 H 1184.58 -8.14876 -5.18409 0
M  V30 8652 H 1187.22 -3.27957 -5.4317 0
M  V30 8653 P 1189.08 -5.75688 -6.64379 0
M  V30 8654 O 1190.5 -6.07627 -7.05504 0
M  V30 8655 O 1188.72 -5.88047 -5.19722 0
M  V30 8656 O 1188.76 -4.2322 -7.04443 0
M  V30 8657 C 1188.6 -3.99743 -8.4911 0
M  V30 8658 C 1189.14 -2.60516 -8.79425 0
M  V30 8659 O 1188.08 -1.82684 -8.4467 0
M  V30 8660 C 1190.35 -2.10343 -8.03628 0
M  V30 8661 O 1191.09 -1.09919 -8.67766 0
M  V30 8662 C 1189.69 -1.68446 -6.70876 0
M  V30 8663 O 1190.48 -0.678137 -6.08433 0
M  V30 8664 C 1188.35 -1.17436 -7.18567 0
M  V30 8665 H 1188.38 -0.0804732 -7.31656 0
M  V30 8666 H 1189.56 -2.54037 -6.02537 0
M  V30 8667 H 1191.05 -2.93881 -7.85526 0
M  V30 8668 H 1189.35 -2.53065 -9.86973 0
M  V30 8669 H 1189.16 -4.75072 -9.05887 0
M  V30 8670 H 1187.53 -4.05244 -8.76668 0
M  V30 8671 H 1190.17 0.177647 -6.34251 0
M  V30 8672 P 1192.03 -1.25109 -8.70152 0
M  V30 8673 O 1193.45 -1.29744 -9.22016 0
M  V30 8674 O 1191.67 -2.13714 -7.55141 0
M  V30 8675 O 1191.71 0.248149 -8.21425 0
M  V30 8676 C 1191.55 1.22779 -9.30434 0
M  V30 8677 C 1192.09 2.56293 -8.80664 0
M  V30 8678 O 1191.03 3.02979 -8.09349 0
M  V30 8679 C 1193.31 2.57523 -7.89775 0
M  V30 8680 O 1194.04 3.7668 -7.89438 0
M  V30 8681 C 1192.64 2.20997 -6.55446 0
M  V30 8682 O 1193.44 2.71895 -5.48509 0
M  V30 8683 C 1191.3 2.89693 -6.67988 0
M  V30 8684 H 1191.33 3.88793 -6.19859 0
M  V30 8685 H 1192.51 1.12046 -6.44229 0
M  V30 8686 H 1194 1.7746 -8.19711 0
M  V30 8687 H 1192.3 3.20706 -9.67112 0
M  V30 8688 H 1192.11 0.901032 -10.1892 0
M  V30 8689 H 1190.48 1.33049 -9.56592 0
M  V30 8690 H 1193.12 3.57847 -5.23962 0
M  V30 8691 P 1194.98 3.65191 -7.99657 0
M  V30 8692 O 1196.4 3.89332 -8.45794 0
M  V30 8693 O 1194.62 2.28472 -7.50807 0
M  V30 8694 O 1194.66 4.64972 -6.77611 0
M  V30 8695 C 1194.5 6.06319 -7.16352 0
M  V30 8696 C 1195.04 6.91731 -6.02299 0
M  V30 8697 O 1193.98 6.92449 -5.17064 0
M  V30 8698 C 1196.26 6.43627 -5.25174 0
M  V30 8699 O 1196.99 7.43686 -4.60469 0
M  V30 8700 C 1195.59 5.40275 -4.31916 0
M  V30 8701 O 1196.39 5.25279 -3.14438 0
M  V30 8702 C 1194.25 6.04847 -4.05327 0
M  V30 8703 H 1194.28 6.62195 -3.11261 0
M  V30 8704 H 1195.46 4.42556 -4.81383 0
M  V30 8705 H 1196.95 5.92458 -5.93643 0
M  V30 8706 H 1195.25 7.92655 -6.402 0
M  V30 8707 H 1195.06 6.26671 -8.0846 0
M  V30 8708 H 1193.43 6.29101 -7.32804 0
M  V30 8709 H 1196.07 5.84315 -2.47318 0
M  V30 8710 P 1197.93 7.39546 -4.75277 0
M  V30 8711 O 1199.35 7.84798 -5.01039 0
M  V30 8712 O 1197.57 5.9812 -5.08098 0
M  V30 8713 O 1197.61 7.57503 -3.1866 0
M  V30 8714 C 1197.45 8.97357 -2.74833 0
M  V30 8715 C 1197.99 9.07548 -1.32709 0
M  V30 8716 O 1196.93 8.62072 -0.606159 0
M  V30 8717 C 1199.21 8.25383 -0.938334 0
M  V30 8718 O 1199.94 8.74577 0.146954 0
M  V30 8719 C 1198.54 6.8802 -0.712559 0
M  V30 8720 O 1199.34 6.1189 0.194655 0
M  V30 8721 C 1197.2 7.27966 -0.139777 0
M  V30 8722 H 1197.23 7.25354 0.961601 0
M  V30 8723 H 1198.42 6.32557 -1.65702 0
M  V30 8724 H 1199.9 8.19355 -1.79097 0
M  V30 8725 H 1198.21 10.1294 -1.10029 0
M  V30 8726 H 1198.02 9.64276 -3.41316 0
M  V30 8727 H 1196.39 9.25417 -2.76357 0
M  V30 8728 H 1199.02 6.25267 1.07847 0
M  V30 8729 P 1200.88 8.791 9.72715e-12 0
M  V30 8730 O 1202.28 9.36698 -0.018734 0
M  V30 8731 O 1200.5 7.82499 -1.07878 0
M  V30 8732 O 1200.56 8.09434 1.41446 0
M  V30 8733 C 1200.4 9.0349 2.53943 0
M  V30 8734 C 1200.94 8.35135 3.78975 0
M  V30 8735 O 1199.88 7.57904 4.1503 0
M  V30 8736 C 1202.16 7.45087 3.67298 0
M  V30 8737 O 1202.89 7.27796 4.85194 0
M  V30 8738 C 1201.49 6.17323 3.12027 0
M  V30 8739 O 1202.29 5.04149 3.47132 0
M  V30 8740 C 1200.15 6.19961 3.81809 0
M  V30 8741 N 1199.11 5.71575 2.93223 0
M  V30 8742 C 1198.07 4.99452 3.47592 0
M  V30 8743 O 1198.11 4.7199 4.69732 0
M  V30 8744 N 1197.06 4.58505 2.6803 0
M  V30 8745 C 1197.11 4.85544 1.36995 0
M  V30 8746 C 1198.2 5.55532 0.788532 0
M  V30 8747 C 1199.17 5.97426 1.60849 0
M  V30 8748 H 1200.18 5.58142 4.72986 0
M  V30 8749 H 1201.37 6.21428 2.0318 0
M  V30 8750 H 1202.85 7.85913 2.93131 0
M  V30 8751 H 1201.16 9.11171 4.55987 0
M  V30 8752 H 1200.96 9.9573 2.34194 0
M  V30 8753 H 1199.33 9.27824 2.67805 0
M  V30 8754 H 1198.25 5.7421 -0.281588 0
M  V30 8755 H 1200.02 6.53132 1.202 0
M  V30 8756 H 1202.07 4.76386 4.34983 0
M  V30 8757 P 1203.83 7.39546 4.75277 0
M  V30 8758 O 1205.23 7.89013 5.04841 0
M  V30 8759 O 1203.45 7.16603 3.32298 0
M  V30 8760 O 1203.51 6.04468 5.56605 0
M  V30 8761 C 1203.35 6.22772 7.02095 0
M  V30 8762 C 1203.89 4.97671 7.70322 0
M  V30 8763 O 1202.83 4.13208 7.58899 0
M  V30 8764 C 1205.11 4.28231 7.11815 0
M  V30 8765 O 1205.85 3.49945 8.01648 0
M  V30 8766 C 1204.44 3.5063 5.96244 0
M  V30 8767 O 1205.24 2.36443 5.64589 0
M  V30 8768 C 1203.1 3.15122 6.56374 0
M  V30 8769 N 1202.06 3.22311 5.55692 0
M  V30 8770 C 1201.02 2.32244 5.62437 0
M  V30 8771 O 1201.06 1.43107 6.50341 0
M  V30 8772 N 1200.01 2.40811 4.73368 0
M  V30 8773 C 1200.06 3.344 3.77753 0
M  V30 8774 N 1199.05 3.41475 2.91848 0
M  V30 8775 C 1201.16 4.24712 3.66679 0
M  V30 8776 C 1202.12 4.15625 4.58307 0
M  V30 8777 H 1203.13 2.13823 6.99656 0
M  V30 8778 H 1204.32 4.12931 5.06895 0
M  V30 8779 H 1205.8 5.02674 6.71494 0
M  V30 8780 H 1204.11 5.20001 8.76217 0
M  V30 8781 H 1203.92 7.11046 7.35349 0
M  V30 8782 H 1202.29 6.35749 7.26911 0
M  V30 8783 H 1201.2 4.9828 2.86753 0
M  V30 8784 H 1202.97 4.84464 4.54228 0
M  V30 8785 H 1198.26 2.75785 2.99862 0
M  V30 8786 H 1199.05 4.12304 2.17382 0
M  V30 8787 H 1205.02 1.65592 6.23485 0
M  V30 8788 P 1206.78 3.65191 7.99657 0
M  V30 8789 O 1208.21 3.8425 8.48115 0
M  V30 8790 O 1206.42 4.17805 6.64342 0
M  V30 8791 O 1206.46 2.07613 7.95143 0
M  V30 8792 C 1206.3 1.44328 9.27336 0
M  V30 8793 C 1206.84 0.0220036 9.17197 0
M  V30 8794 O 1205.78 -0.626867 8.61923 0
M  V30 8795 C 1208.06 -0.24586 8.30336 0
M  V30 8796 O 1208.8 -1.39011 8.63583 0
M  V30 8797 C 1207.39 -0.273849 6.91158 0
M  V30 8798 O 1208.19 -1.06348 6.02892 0
M  V30 8799 C 1206.05 -0.897649 7.22545 0
M  V30 8800 H 1206.08 -1.9841 7.04286 0
M  V30 8801 H 1207.27 0.739928 6.497 0
M  V30 8802 H 1208.75 0.60668 8.36503 0
M  V30 8803 H 1207.06 -0.352479 10.1829 0
M  V30 8804 H 1206.87 2.00611 10.0304 0
M  V30 8805 H 1205.24 1.41843 9.55327 0
M  V30 8806 H 1207.88 -1.95734 6.03555 0
M  V30 8807 P 1209.73 -1.25109 8.70152 0
M  V30 8808 O 1211.16 -1.35274 9.21221 0
M  V30 8809 O 1209.37 -0.0769065 7.84762 0
M  V30 8810 O 1209.41 -2.55232 7.81161 0
M  V30 8811 C 1209.25 -3.79939 8.58154 0
M  V30 8812 C 1209.79 -4.94023 7.72785 0
M  V30 8813 O 1208.73 -5.18726 6.91205 0
M  V30 8814 C 1211.01 -4.69597 6.85231 0
M  V30 8815 O 1211.75 -5.83832 6.51337 0
M  V30 8816 C 1210.34 -3.96706 5.66633 0
M  V30 8817 O 1211.14 -4.15414 4.49689 0
M  V30 8818 C 1209 -4.66153 5.59313 0
M  V30 8819 H 1209.03 -5.47679 4.85214 0
M  V30 8820 H 1210.22 -2.89008 5.86566 0
M  V30 8821 H 1211.7 -4.0121 7.36511 0
M  V30 8822 H 1210.01 -5.80182 8.37584 0
M  V30 8823 H 1209.82 -3.73517 9.52265 0
M  V30 8824 H 1208.19 -3.97163 8.80359 0
M  V30 8825 H 1210.83 -4.90969 4.01921 0
M  V30 8826 P 1212.68 -5.75688 6.64379 0
M  V30 8827 O 1214.11 -6.11849 7.01846 0
M  V30 8828 O 1212.32 -4.30744 6.56026 0
M  V30 8829 O 1212.36 -6.37042 5.19165 0
M  V30 8830 C 1212.2 -7.83578 5.16515 0
M  V30 8831 C 1212.74 -8.33398 3.83019 0
M  V30 8832 O 1211.69 -8.10074 3.01034 0
M  V30 8833 C 1213.96 -7.65514 3.2257 0
M  V30 8834 O 1214.7 -8.4329 2.32297 0
M  V30 8835 C 1213.29 -6.40075 2.62207 0
M  V30 8836 O 1214.09 -5.92589 1.53712 0
M  V30 8837 C 1211.95 -6.9454 2.18503 0
M  V30 8838 H 1211.99 -7.23063 1.12091 0
M  V30 8839 H 1213.17 -5.6025 3.37201 0
M  V30 8840 H 1214.65 -7.35707 4.02681 0
M  V30 8841 H 1212.96 -9.40912 3.9095 0
M  V30 8842 H 1212.77 -8.29056 5.99158 0
M  V30 8843 H 1211.14 -8.10073 5.25882 0
M  V30 8844 H 1213.78 -6.30324 0.726794 0
M  V30 8845 P 1215.63 -8.4349 2.47671 0
M  V30 8846 O 1217.04 -8.98227 2.65696 0
M  V30 8847 O 1215.26 -7.20409 3.23964 0
M  V30 8848 O 1215.31 -8.16496 0.923275 0
M  V30 8849 C 1215.15 -9.38437 0.108857 0
M  V30 8850 C 1215.69 -9.08076 -1.28339 0
M  V30 8851 O 1214.64 -8.44131 -1.84692 0
M  V30 8852 C 1216.91 -8.18386 -1.42505 0
M  V30 8853 O 1217.65 -8.3501 -2.60497 0
M  V30 8854 C 1216.24 -6.80225 -1.25468 0
M  V30 8855 O 1217.04 -5.81526 -1.91035 0
M  V30 8856 C 1214.9 -7.02416 -1.9168 0
M  V30 8857 N 1213.86 -6.31033 -1.20314 0
M  V30 8858 C 1212.83 -5.77149 -1.928 0
M  V30 8859 O 1212.86 -5.8521 -3.17729 0
M  V30 8860 N 1211.81 -5.15445 -1.27997 0
M  V30 8861 C 1211.86 -5.04472 0.0534726 0
M  V30 8862 C 1212.96 -5.55244 0.808522 0
M  V30 8863 C 1213.92 -6.18542 0.13981 0
M  V30 8864 H 1214.94 -6.68789 -2.9658 0
M  V30 8865 H 1216.12 -6.53498 -0.198729 0
M  V30 8866 H 1217.6 -8.36663 -0.5984 0
M  V30 8867 H 1215.91 -10.0273 -1.8081 0
M  V30 8868 H 1215.72 -10.2138 0.558219 0
M  V30 8869 H 1214.09 -9.6569 0.0444156 0
M  V30 8870 H 1213.01 -5.43017 1.88792 0
M  V30 8871 H 1214.77 -6.60539 0.686773 0
M  V30 8872 H 1216.82 -5.79638 -2.8315 0
M  V30 8873 P 1218.59 -8.4349 -2.47671 0
M  V30 8874 O 1220.01 -8.92593 -2.65 0
M  V30 8875 O 1218.23 -7.7568 -1.19296 0
M  V30 8876 O 1218.26 -7.36886 -3.63805 0
M  V30 8877 C 1218.1 -7.95349 -4.982 0
M  V30 8878 C 1218.64 -6.94612 -5.98974 0
M  V30 8879 O 1217.59 -6.10347 -6.11815 0
M  V30 8880 C 1219.86 -6.11426 -5.62335 0
M  V30 8881 O 1220.6 -5.6162 -6.70584 0
M  V30 8882 C 1219.19 -5.04409 -4.73308 0
M  V30 8883 O 1219.99 -3.85992 -4.75183 0
M  V30 8884 C 1217.85 -4.8728 -5.41006 0
M  V30 8885 H 1217.89 -4.02333 -6.11157 0
M  V30 8886 H 1219.07 -5.39466 -3.69543 0
M  V30 8887 H 1220.55 -6.71916 -5.01943 0
M  V30 8888 H 1218.86 -7.4649 -6.93477 0
M  V30 8889 H 1218.67 -8.89416 -5.05237 0
M  V30 8890 H 1217.04 -8.14876 -5.18409 0
M  V30 8891 H 1219.68 -3.27957 -5.4317 0
M  V30 8892 P 1221.54 -5.75688 -6.64379 0
M  V30 8893 O 1222.96 -6.07627 -7.05504 0
M  V30 8894 O 1221.18 -5.88047 -5.19722 0
M  V30 8895 O 1221.21 -4.2322 -7.04443 0
M  V30 8896 C 1221.05 -3.99743 -8.4911 0
M  V30 8897 C 1221.59 -2.60516 -8.79425 0
M  V30 8898 O 1220.54 -1.82684 -8.4467 0
M  V30 8899 C 1222.81 -2.10343 -8.03628 0
M  V30 8900 O 1223.55 -1.09919 -8.67766 0
M  V30 8901 C 1222.14 -1.68446 -6.70876 0
M  V30 8902 O 1222.94 -0.678137 -6.08433 0
M  V30 8903 C 1220.8 -1.17436 -7.18567 0
M  V30 8904 H 1220.84 -0.0804732 -7.31656 0
M  V30 8905 H 1222.02 -2.54037 -6.02537 0
M  V30 8906 H 1223.5 -2.93881 -7.85526 0
M  V30 8907 H 1221.81 -2.53065 -9.86973 0
M  V30 8908 H 1221.62 -4.75072 -9.05887 0
M  V30 8909 H 1219.99 -4.05244 -8.76668 0
M  V30 8910 H 1222.63 0.177647 -6.34251 0
M  V30 8911 P 1224.49 -1.25109 -8.70152 0
M  V30 8912 O 1225.91 -1.29758 -9.22115 0
M  V30 8913 O 1224.13 -2.13714 -7.55141 0
M  V30 8914 O 1224.16 0.248149 -8.21425 0
M  V30 8915 C 1224 1.22792 -9.30533 0
M  V30 8916 C 1224.54 2.56293 -8.80664 0
M  V30 8917 O 1223.49 3.02944 -8.09255 0
M  V30 8918 C 1225.76 2.57523 -7.89775 0
M  V30 8919 O 1226.5 3.7668 -7.89438 0
M  V30 8920 C 1225.09 2.20997 -6.55446 0
M  V30 8921 O 1225.89 2.71302 -5.48691 0
M  V30 8922 C 1223.76 2.89693 -6.67988 0
M  V30 8923 N 1222.71 2.08895 -6.07487 0
M  V30 8924 C 1222.88 0.753809 -5.94137 0
M  V30 8925 N 1221.85 0.146592 -5.38801 0
M  V30 8926 C 1220.97 1.1768 -5.13693 0
M  V30 8927 C 1219.7 1.17563 -4.52477 0
M  V30 8928 N 1219.1 0.057481 -4.04759 0
M  V30 8929 N 1219.14 2.41918 -4.45789 0
M  V30 8930 C 1219.74 3.56493 -4.90792 0
M  V30 8931 N 1220.92 3.61423 -5.47817 0
M  V30 8932 C 1221.49 2.37779 -5.5588 0
M  V30 8933 H 1223.79 3.8874 -6.19774 0
M  V30 8934 H 1224.97 1.12673 -6.44018 0
M  V30 8935 H 1226.45 1.7746 -8.19711 0
M  V30 8936 H 1224.76 3.21673 -9.66791 0
M  V30 8937 H 1224.57 0.901032 -10.1892 0
M  V30 8938 H 1222.94 1.33049 -9.56592 0
M  V30 8939 H 1219.2 4.49919 -4.77947 0
M  V30 8940 H 1223.78 0.233081 -6.26266 0
M  V30 8941 H 1218.17 0.119831 -3.60801 0
M  V30 8942 H 1219.58 -0.852272 -4.12385 0
M  V30 8943 H 1225.58 3.5779 -5.23879 0
M  V30 8944 P 1227.44 3.65191 -7.99657 0
M  V30 8945 O 1228.86 3.89332 -8.45794 0
M  V30 8946 O 1227.08 2.28472 -7.50807 0
M  V30 8947 O 1227.11 4.64972 -6.77611 0
M  V30 8948 C 1226.95 6.06319 -7.16352 0
M  V30 8949 C 1227.49 6.91731 -6.02299 0
M  V30 8950 O 1226.44 6.92449 -5.17064 0
M  V30 8951 C 1228.71 6.43627 -5.25174 0
M  V30 8952 O 1229.45 7.43686 -4.60469 0
M  V30 8953 C 1228.04 5.40275 -4.31916 0
M  V30 8954 O 1228.84 5.25279 -3.14438 0
M  V30 8955 C 1226.71 6.04847 -4.05327 0
M  V30 8956 H 1226.74 6.62195 -3.11261 0
M  V30 8957 H 1227.92 4.42556 -4.81383 0
M  V30 8958 H 1229.41 5.92458 -5.93643 0
M  V30 8959 H 1227.71 7.92655 -6.402 0
M  V30 8960 H 1227.52 6.26671 -8.0846 0
M  V30 8961 H 1225.89 6.29101 -7.32804 0
M  V30 8962 H 1228.53 5.84315 -2.47318 0
M  V30 8963 P 1230.39 7.39546 -4.75277 0
M  V30 8964 O 1231.81 7.84798 -5.01039 0
M  V30 8965 O 1230.03 5.9812 -5.08098 0
M  V30 8966 O 1230.06 7.57503 -3.1866 0
M  V30 8967 C 1229.9 8.97357 -2.74833 0
M  V30 8968 C 1230.44 9.07548 -1.32709 0
M  V30 8969 O 1229.39 8.62072 -0.606159 0
M  V30 8970 C 1231.66 8.25383 -0.938334 0
M  V30 8971 O 1232.4 8.74577 0.146954 0
M  V30 8972 C 1230.99 6.8802 -0.712559 0
M  V30 8973 O 1231.79 6.1189 0.194655 0
M  V30 8974 C 1229.66 7.27966 -0.139777 0
M  V30 8975 H 1229.69 7.25354 0.961601 0
M  V30 8976 H 1230.87 6.32557 -1.65702 0
M  V30 8977 H 1232.36 8.19355 -1.79097 0
M  V30 8978 H 1230.66 10.1294 -1.10029 0
M  V30 8979 H 1230.47 9.64276 -3.41316 0
M  V30 8980 H 1228.84 9.25417 -2.76357 0
M  V30 8981 H 1231.48 6.25267 1.07847 0
M  V30 8982 P 1233.34 8.791 1.00373e-11 0
M  V30 8983 O 1234.74 9.36698 -0.018734 0
M  V30 8984 O 1232.96 7.82499 -1.07878 0
M  V30 8985 O 1233.02 8.09434 1.41446 0
M  V30 8986 C 1232.86 9.0349 2.53943 0
M  V30 8987 C 1233.4 8.35135 3.78975 0
M  V30 8988 O 1232.34 7.57904 4.1503 0
M  V30 8989 C 1234.61 7.45087 3.67298 0
M  V30 8990 O 1235.35 7.27796 4.85194 0
M  V30 8991 C 1233.95 6.17323 3.12027 0
M  V30 8992 O 1234.74 5.04149 3.47132 0
M  V30 8993 C 1232.61 6.19961 3.81809 0
M  V30 8994 N 1231.56 5.71575 2.93223 0
M  V30 8995 C 1230.53 4.99452 3.47592 0
M  V30 8996 O 1230.57 4.7199 4.69732 0
M  V30 8997 N 1229.52 4.58505 2.6803 0
M  V30 8998 C 1229.57 4.85544 1.36995 0
M  V30 8999 C 1230.66 5.55532 0.788532 0
M  V30 9000 C 1231.63 5.97426 1.60849 0
M  V30 9001 H 1232.64 5.58142 4.72986 0
M  V30 9002 H 1233.82 6.21428 2.0318 0
M  V30 9003 H 1235.31 7.85913 2.93131 0
M  V30 9004 H 1233.61 9.11171 4.55987 0
M  V30 9005 H 1233.42 9.9573 2.34194 0
M  V30 9006 H 1231.79 9.27824 2.67805 0
M  V30 9007 H 1230.71 5.7421 -0.281588 0
M  V30 9008 H 1232.47 6.53132 1.202 0
M  V30 9009 H 1234.53 4.76386 4.34983 0
M  V30 9010 P 1236.29 7.39546 4.75277 0
M  V30 9011 O 1237.71 7.81777 5.05738 0
M  V30 9012 O 1235.93 7.1065 3.32998 0
M  V30 9013 O 1235.97 6.04542 5.56673 0
M  V30 9014 C 1235.81 6.22772 7.02095 0
M  V30 9015 C 1236.35 4.97725 7.70406 0
M  V30 9016 O 1235.29 4.13256 7.58987 0
M  V30 9017 C 1237.56 4.28231 7.11815 0
M  V30 9018 O 1238.3 3.49945 8.01648 0
M  V30 9019 C 1236.89 3.5063 5.96244 0
M  V30 9020 O 1237.69 2.36482 5.64681 0
M  V30 9021 C 1235.56 3.15122 6.56374 0
M  V30 9022 H 1235.59 2.13853 6.99751 0
M  V30 9023 H 1236.77 4.13501 5.06559 0
M  V30 9024 H 1238.26 5.03285 6.70911 0
M  V30 9025 H 1236.56 5.20877 8.75697 0
M  V30 9026 H 1236.37 7.11046 7.35349 0
M  V30 9027 H 1234.74 6.35815 7.26986 0
M  V30 9028 H 1237.38 1.61644 6.13565 0
M  V30 9029 P 1239.24 3.65191 7.99657 0
M  V30 9030 O 1240.66 3.8425 8.48115 0
M  V30 9031 O 1238.88 4.17805 6.64342 0
M  V30 9032 O 1238.92 2.07613 7.95143 0
M  V30 9033 C 1238.76 1.44328 9.27336 0
M  V30 9034 C 1239.3 0.0220036 9.17197 0
M  V30 9035 O 1238.24 -0.626867 8.61923 0
M  V30 9036 C 1240.51 -0.24586 8.30336 0
M  V30 9037 O 1241.25 -1.39011 8.63583 0
M  V30 9038 C 1239.85 -0.273849 6.91158 0
M  V30 9039 O 1240.64 -1.06348 6.02892 0
M  V30 9040 C 1238.51 -0.897649 7.22545 0
M  V30 9041 H 1238.54 -1.9841 7.04286 0
M  V30 9042 H 1239.72 0.739928 6.497 0
M  V30 9043 H 1241.21 0.60668 8.36503 0
M  V30 9044 H 1239.51 -0.352479 10.1829 0
M  V30 9045 H 1239.32 2.00611 10.0304 0
M  V30 9046 H 1237.69 1.41843 9.55327 0
M  V30 9047 H 1240.33 -1.95734 6.03555 0
M  V30 9048 P 1242.19 -1.25109 8.70152 0
M  V30 9049 O 1243.61 -1.35274 9.21221 0
M  V30 9050 O 1241.83 -0.0769065 7.84762 0
M  V30 9051 O 1241.87 -2.55232 7.81161 0
M  V30 9052 C 1241.71 -3.79939 8.58154 0
M  V30 9053 C 1242.25 -4.94023 7.72785 0
M  V30 9054 O 1241.19 -5.18726 6.91205 0
M  V30 9055 C 1243.46 -4.69597 6.85231 0
M  V30 9056 O 1244.2 -5.83832 6.51337 0
M  V30 9057 C 1242.8 -3.96706 5.66633 0
M  V30 9058 O 1243.59 -4.15414 4.49689 0
M  V30 9059 C 1241.46 -4.66153 5.59313 0
M  V30 9060 H 1241.49 -5.47679 4.85214 0
M  V30 9061 H 1242.67 -2.89008 5.86566 0
M  V30 9062 H 1244.16 -4.0121 7.36511 0
M  V30 9063 H 1242.46 -5.80182 8.37584 0
M  V30 9064 H 1242.27 -3.73517 9.52265 0
M  V30 9065 H 1240.64 -3.97163 8.80359 0
M  V30 9066 H 1243.28 -4.90969 4.01921 0
M  V30 9067 P 1245.14 -5.75688 6.64379 0
M  V30 9068 O 1246.56 -6.11849 7.01846 0
M  V30 9069 O 1244.78 -4.30744 6.56026 0
M  V30 9070 O 1244.82 -6.37042 5.19165 0
M  V30 9071 C 1244.66 -7.83578 5.16515 0
M  V30 9072 C 1245.2 -8.33398 3.83019 0
M  V30 9073 O 1244.14 -8.10074 3.01034 0
M  V30 9074 C 1246.42 -7.65514 3.2257 0
M  V30 9075 O 1247.15 -8.4329 2.32297 0
M  V30 9076 C 1245.75 -6.40075 2.62207 0
M  V30 9077 O 1246.55 -5.92589 1.53712 0
M  V30 9078 C 1244.41 -6.9454 2.18503 0
M  V30 9079 H 1244.44 -7.23063 1.12091 0
M  V30 9080 H 1245.62 -5.6025 3.37201 0
M  V30 9081 H 1247.11 -7.35707 4.02681 0
M  V30 9082 H 1245.41 -9.40912 3.9095 0
M  V30 9083 H 1245.22 -8.29056 5.99158 0
M  V30 9084 H 1243.59 -8.10073 5.25882 0
M  V30 9085 H 1246.23 -6.30324 0.726794 0
M  V30 9086 P 1248.09 -8.4349 2.47671 0
M  V30 9087 O 1249.51 -8.94359 2.59696 0
M  V30 9088 O 1247.73 -7.1704 3.19006 0
M  V30 9089 O 1247.77 -8.16596 0.923387 0
M  V30 9090 C 1247.61 -9.38437 0.108857 0
M  V30 9091 C 1248.15 -9.08076 -1.28339 0
M  V30 9092 O 1247.09 -8.44229 -1.84713 0
M  V30 9093 C 1249.37 -8.18386 -1.42505 0
M  V30 9094 O 1250.1 -8.3501 -2.60497 0
M  V30 9095 C 1248.7 -6.80225 -1.25468 0
M  V30 9096 O 1249.5 -5.81526 -1.91035 0
M  V30 9097 C 1247.36 -7.02416 -1.9168 0
M  V30 9098 N 1246.32 -6.31033 -1.20314 0
M  V30 9099 C 1246.38 -6.18781 0.121293 0
M  V30 9100 N 1245.33 -5.49762 0.588272 0
M  V30 9101 C 1244.6 -5.22015 -0.488988 0
M  V30 9102 C 1243.29 -4.61966 -0.596448 0
M  V30 9103 O 1242.56 -4.19162 0.309059 0
M  V30 9104 N 1242.86 -4.53773 -1.878 0
M  V30 9105 C 1243.61 -4.99623 -2.99082 0
M  V30 9106 N 1243.02 -4.78912 -4.21227 0
M  V30 9107 N 1244.77 -5.59957 -2.91093 0
M  V30 9108 C 1245.22 -5.70225 -1.64218 0
M  V30 9109 H 1247.39 -6.6888 -2.96621 0
M  V30 9110 H 1248.58 -6.53517 -0.192194 0
M  V30 9111 H 1250.06 -8.36563 -0.598329 0
M  V30 9112 H 1248.37 -10.0291 -1.79807 0
M  V30 9113 H 1248.18 -10.2138 0.558219 0
M  V30 9114 H 1246.54 -9.6579 0.0444202 0
M  V30 9115 H 1241.97 -4.12883 -2.05283 0
M  V30 9116 H 1247.18 -6.59596 0.745856 0
M  V30 9117 H 1242.11 -4.31425 -4.2628 0
M  V30 9118 H 1243.48 -5.11219 -5.07148 0
M  V30 9119 H 1249.19 -5.69466 -2.79593 0
M  V30 9120 P 1251.04 -8.4349 -2.47671 0
M  V30 9121 O 1252.46 -8.92593 -2.65 0
M  V30 9122 O 1250.68 -7.7568 -1.19296 0
M  V30 9123 O 1250.72 -7.36886 -3.63805 0
M  V30 9124 C 1250.56 -7.95349 -4.982 0
M  V30 9125 C 1251.1 -6.94612 -5.98974 0
M  V30 9126 O 1250.04 -6.10347 -6.11815 0
M  V30 9127 C 1252.32 -6.11426 -5.62335 0
M  V30 9128 O 1253.05 -5.6162 -6.70584 0
M  V30 9129 C 1251.65 -5.04409 -4.73308 0
M  V30 9130 O 1252.45 -3.85992 -4.75183 0
M  V30 9131 C 1250.31 -4.8728 -5.41006 0
M  V30 9132 H 1250.34 -4.02333 -6.11157 0
M  V30 9133 H 1251.53 -5.39466 -3.69543 0
M  V30 9134 H 1253.01 -6.71916 -5.01943 0
M  V30 9135 H 1251.32 -7.4649 -6.93477 0
M  V30 9136 H 1251.13 -8.89416 -5.05237 0
M  V30 9137 H 1249.5 -8.14876 -5.18409 0
M  V30 9138 H 1252.13 -3.27957 -5.4317 0
M  V30 9139 P 1253.99 -5.75688 -6.64379 0
M  V30 9140 O 1255.41 -6.07627 -7.05504 0
M  V30 9141 O 1253.63 -5.88047 -5.19722 0
M  V30 9142 O 1253.67 -4.2322 -7.04443 0
M  V30 9143 C 1253.51 -3.99743 -8.4911 0
M  V30 9144 C 1254.05 -2.60516 -8.79425 0
M  V30 9145 O 1252.99 -1.82684 -8.4467 0
M  V30 9146 C 1255.27 -2.10343 -8.03628 0
M  V30 9147 O 1256.01 -1.09919 -8.67766 0
M  V30 9148 C 1254.6 -1.68446 -6.70876 0
M  V30 9149 O 1255.4 -0.678137 -6.08433 0
M  V30 9150 C 1253.26 -1.17436 -7.18567 0
M  V30 9151 H 1253.29 -0.0804732 -7.31656 0
M  V30 9152 H 1254.48 -2.54037 -6.02537 0
M  V30 9153 H 1255.96 -2.93881 -7.85526 0
M  V30 9154 H 1254.27 -2.53065 -9.86973 0
M  V30 9155 H 1254.08 -4.75072 -9.05887 0
M  V30 9156 H 1252.45 -4.05244 -8.76668 0
M  V30 9157 H 1255.09 0.177647 -6.34251 0
M  V30 9158 P 1256.94 -1.25109 -8.70152 0
M  V30 9159 O 1258.34 -1.3516 -9.26897 0
M  V30 9160 O 1256.56 -2.18141 -7.59181 0
M  V30 9161 O 1256.62 0.248118 -8.21325 0
M  V30 9162 C 1256.46 1.22779 -9.30434 0
M  V30 9163 C 1257 2.56265 -8.80568 0
M  V30 9164 O 1255.94 3.02944 -8.09255 0
M  V30 9165 C 1258.22 2.57523 -7.89775 0
M  V30 9166 O 1258.96 3.7668 -7.89438 0
M  V30 9167 C 1257.55 2.20997 -6.55446 0
M  V30 9168 O 1258.35 2.71851 -5.48419 0
M  V30 9169 C 1256.21 2.89693 -6.67988 0
M  V30 9170 N 1255.17 2.08895 -6.07487 0
M  V30 9171 C 1254.13 2.72974 -5.43836 0
M  V30 9172 O 1254.17 3.97779 -5.34036 0
M  V30 9173 N 1253.12 2.0005 -4.91983 0
M  V30 9174 C 1253.17 0.66501 -5.00098 0
M  V30 9175 C 1254.27 -0.0100979 -5.61099 0
M  V30 9176 C 1255.23 0.74189 -6.14236 0
M  V30 9177 H 1256.24 3.8874 -6.19774 0
M  V30 9178 H 1257.43 1.12673 -6.44018 0
M  V30 9179 H 1258.91 1.783 -8.19631 0
M  V30 9180 H 1257.22 3.21673 -9.66791 0
M  V30 9181 H 1257.03 0.901032 -10.1892 0
M  V30 9182 H 1255.4 1.33036 -9.56493 0
M  V30 9183 H 1254.31 -1.09591 -5.64358 0
M  V30 9184 H 1256.08 0.260263 -6.6359 0
M  V30 9185 H 1258.13 3.62759 -5.33442 0
M  V30 9186 P 1259.89 3.65191 -7.99657 0
M  V30 9187 O 1261.32 3.89332 -8.45794 0
M  V30 9188 O 1259.53 2.28472 -7.50807 0
M  V30 9189 O 1259.57 4.64972 -6.77611 0
M  V30 9190 C 1259.41 6.06319 -7.16352 0
M  V30 9191 C 1259.95 6.91731 -6.02299 0
M  V30 9192 O 1258.89 6.92449 -5.17064 0
M  V30 9193 C 1261.17 6.43627 -5.25174 0
M  V30 9194 O 1261.91 7.43686 -4.60469 0
M  V30 9195 C 1260.5 5.40275 -4.31916 0
M  V30 9196 O 1261.3 5.25279 -3.14438 0
M  V30 9197 C 1259.16 6.04847 -4.05327 0
M  V30 9198 H 1259.19 6.62195 -3.11261 0
M  V30 9199 H 1260.38 4.42556 -4.81383 0
M  V30 9200 H 1261.86 5.92458 -5.93643 0
M  V30 9201 H 1260.17 7.92655 -6.402 0
M  V30 9202 H 1259.98 6.26671 -8.0846 0
M  V30 9203 H 1258.35 6.29101 -7.32804 0
M  V30 9204 H 1260.99 5.84315 -2.47318 0
M  V30 9205 P 1262.84 7.39546 -4.75277 0
M  V30 9206 O 1264.27 7.84798 -5.01039 0
M  V30 9207 O 1262.48 5.9812 -5.08098 0
M  V30 9208 O 1262.52 7.57503 -3.1866 0
M  V30 9209 C 1262.36 8.97357 -2.74833 0
M  V30 9210 C 1262.9 9.07548 -1.32709 0
M  V30 9211 O 1261.84 8.62072 -0.606159 0
M  V30 9212 C 1264.12 8.25383 -0.938334 0
M  V30 9213 O 1264.86 8.74577 0.146954 0
M  V30 9214 C 1263.45 6.8802 -0.712559 0
M  V30 9215 O 1264.25 6.1189 0.194655 0
M  V30 9216 C 1262.11 7.27966 -0.139777 0
M  V30 9217 H 1262.14 7.25354 0.961601 0
M  V30 9218 H 1263.33 6.32557 -1.65702 0
M  V30 9219 H 1264.81 8.19355 -1.79097 0
M  V30 9220 H 1263.12 10.1294 -1.10029 0
M  V30 9221 H 1262.93 9.64276 -3.41316 0
M  V30 9222 H 1261.3 9.25417 -2.76357 0
M  V30 9223 H 1263.94 6.25267 1.07847 0
M  V30 9224 P 1265.79 8.791 1.03475e-11 0
M  V30 9225 O 1267.22 9.31096 0.027933 0
M  V30 9226 O 1265.43 7.77869 -1.04071 0
M  V30 9227 O 1265.47 8.09533 1.41463 0
M  V30 9228 C 1265.31 9.0349 2.53943 0
M  V30 9229 C 1265.85 8.35226 3.79016 0
M  V30 9230 O 1264.8 7.57992 4.15078 0
M  V30 9231 C 1267.07 7.45087 3.67298 0
M  V30 9232 O 1267.81 7.27796 4.85194 0
M  V30 9233 C 1266.4 6.17323 3.12027 0
M  V30 9234 O 1267.2 5.04231 3.47188 0
M  V30 9235 C 1265.06 6.19961 3.81809 0
M  V30 9236 H 1265.1 5.58218 4.73051 0
M  V30 9237 H 1266.28 6.21726 2.02589 0
M  V30 9238 H 1267.76 7.86112 2.9231 0
M  V30 9239 H 1266.07 9.11627 4.55076 0
M  V30 9240 H 1265.88 9.9573 2.34194 0
M  V30 9241 H 1264.25 9.2792 2.67832 0
M  V30 9242 H 1266.89 4.67702 4.28772 0
M  V30 9243 P 1268.75 7.39546 4.75277 0
M  V30 9244 O 1270.17 7.81777 5.05738 0
M  V30 9245 O 1268.39 7.1065 3.32998 0
M  V30 9246 O 1268.42 6.04542 5.56673 0
M  V30 9247 C 1268.26 6.22772 7.02095 0
M  V30 9248 C 1268.8 4.97725 7.70406 0
M  V30 9249 O 1267.75 4.13256 7.58987 0
M  V30 9250 C 1270.02 4.28231 7.11815 0
M  V30 9251 O 1270.76 3.49945 8.01648 0
M  V30 9252 C 1269.35 3.5063 5.96244 0
M  V30 9253 O 1270.15 2.36482 5.64681 0
M  V30 9254 C 1268.01 3.15122 6.56374 0
M  V30 9255 H 1268.05 2.13853 6.99751 0
M  V30 9256 H 1269.23 4.13501 5.06559 0
M  V30 9257 H 1270.71 5.03285 6.70911 0
M  V30 9258 H 1269.02 5.20877 8.75697 0
M  V30 9259 H 1268.83 7.11046 7.35349 0
M  V30 9260 H 1267.2 6.35815 7.26986 0
M  V30 9261 H 1269.84 1.61644 6.13565 0
M  V30 9262 P 1271.7 3.65191 7.99657 0
M  V30 9263 O 1273.12 3.8425 8.48115 0
M  V30 9264 O 1271.34 4.17805 6.64342 0
M  V30 9265 O 1271.37 2.07613 7.95143 0
M  V30 9266 C 1271.21 1.44328 9.27336 0
M  V30 9267 C 1271.75 0.0220036 9.17197 0
M  V30 9268 O 1270.7 -0.626867 8.61923 0
M  V30 9269 C 1272.97 -0.24586 8.30336 0
M  V30 9270 O 1273.71 -1.39011 8.63583 0
M  V30 9271 C 1272.3 -0.273849 6.91158 0
M  V30 9272 O 1273.1 -1.06348 6.02892 0
M  V30 9273 C 1270.96 -0.897649 7.22545 0
M  V30 9274 H 1271 -1.9841 7.04286 0
M  V30 9275 H 1272.18 0.739928 6.497 0
M  V30 9276 H 1273.66 0.60668 8.36503 0
M  V30 9277 H 1271.97 -0.352479 10.1829 0
M  V30 9278 H 1271.78 2.00611 10.0304 0
M  V30 9279 H 1270.15 1.41843 9.55327 0
M  V30 9280 H 1272.79 -1.95734 6.03555 0
M  V30 9281 P 1274.65 -1.25109 8.70152 0
M  V30 9282 O 1276.07 -1.35288 9.2132 0
M  V30 9283 O 1274.29 -0.0769065 7.84762 0
M  V30 9284 O 1274.32 -2.55232 7.81161 0
M  V30 9285 C 1274.16 -3.79979 8.58246 0
M  V30 9286 C 1274.7 -4.94023 7.72785 0
M  V30 9287 O 1273.65 -5.18666 6.91125 0
M  V30 9288 C 1275.92 -4.69597 6.85231 0
M  V30 9289 O 1276.66 -5.83832 6.51337 0
M  V30 9290 C 1275.25 -3.96706 5.66633 0
M  V30 9291 O 1276.05 -4.14896 4.5003 0
M  V30 9292 C 1273.92 -4.66153 5.59313 0
M  V30 9293 N 1272.87 -3.71582 5.24027 0
M  V30 9294 C 1273.04 -2.39715 5.48833 0
M  V30 9295 N 1272.01 -1.65863 5.12845 0
M  V30 9296 C 1271.13 -2.57637 4.5973 0
M  V30 9297 C 1269.86 -2.40278 4.01027 0
M  V30 9298 N 1269.3 -3.57711 3.59575 0
M  V30 9299 C 1269.9 -4.80324 3.70476 0
M  V30 9300 N 1271.08 -5.01121 4.23801 0
M  V30 9301 C 1271.65 -3.84757 4.66372 0
M  V30 9302 H 1275.13 -2.8955 5.86187 0
M  V30 9303 H 1276.61 -4.0121 7.36511 0
M  V30 9304 H 1274.92 -5.81019 8.37003 0
M  V30 9305 H 1274.73 -3.73517 9.52265 0
M  V30 9306 H 1273.1 -3.97163 8.80359 0
M  V30 9307 H 1273.94 -1.98804 5.94332 0
M  V30 9308 H 1275.74 -4.90891 4.01857 0
M  V30 9309 P 1277.6 -5.75688 6.64379 0
M  V30 9310 O 1279.02 -6.11849 7.01846 0
M  V30 9311 O 1277.24 -4.30744 6.56026 0
M  V30 9312 O 1277.27 -6.37042 5.19165 0
M  V30 9313 C 1277.11 -7.83578 5.16515 0
M  V30 9314 C 1277.65 -8.33398 3.83019 0
M  V30 9315 O 1276.6 -8.10074 3.01034 0
M  V30 9316 C 1278.87 -7.65514 3.2257 0
M  V30 9317 O 1279.61 -8.4329 2.32297 0
M  V30 9318 C 1278.2 -6.40075 2.62207 0
M  V30 9319 O 1279 -5.92589 1.53712 0
M  V30 9320 C 1276.87 -6.9454 2.18503 0
M  V30 9321 H 1276.9 -7.23063 1.12091 0
M  V30 9322 H 1278.08 -5.6025 3.37201 0
M  V30 9323 H 1279.56 -7.35707 4.02681 0
M  V30 9324 H 1277.87 -9.40912 3.9095 0
M  V30 9325 H 1277.68 -8.29056 5.99158 0
M  V30 9326 H 1276.05 -8.10073 5.25882 0
M  V30 9327 H 1278.69 -6.30324 0.726794 0
M  V30 9328 P 1280.55 -8.4349 2.47671 0
M  V30 9329 O 1281.97 -8.94167 2.5964 0
M  V30 9330 O 1280.19 -7.1704 3.19006 0
M  V30 9331 O 1280.22 -8.16596 0.923387 0
M  V30 9332 C 1280.06 -9.38437 0.108857 0
M  V30 9333 C 1280.6 -9.08175 -1.28353 0
M  V30 9334 O 1279.55 -8.44229 -1.84713 0
M  V30 9335 C 1281.82 -8.18386 -1.42505 0
M  V30 9336 O 1282.56 -8.3501 -2.60497 0
M  V30 9337 C 1281.15 -6.80225 -1.25468 0
M  V30 9338 O 1281.95 -5.81621 -1.91066 0
M  V30 9339 C 1279.82 -7.02416 -1.9168 0
M  V30 9340 H 1279.85 -6.6888 -2.96621 0
M  V30 9341 H 1281.03 -6.53617 -0.192223 0
M  V30 9342 H 1282.52 -8.36622 -0.589963 0
M  V30 9343 H 1280.82 -10.0291 -1.79807 0
M  V30 9344 H 1280.63 -10.2138 0.558219 0
M  V30 9345 H 1279 -9.6579 0.0444202 0
M  V30 9346 H 1281.64 -5.69556 -2.79637 0
M  V30 9347 P 1283.5 -8.4349 -2.47671 0
M  V30 9348 O 1284.92 -8.92593 -2.65 0
M  V30 9349 O 1283.14 -7.7568 -1.19296 0
M  V30 9350 O 1283.17 -7.36886 -3.63805 0
M  V30 9351 C 1283.01 -7.95349 -4.982 0
M  V30 9352 C 1283.55 -6.94612 -5.98974 0
M  V30 9353 O 1282.5 -6.10347 -6.11815 0
M  V30 9354 C 1284.77 -6.11426 -5.62335 0
M  V30 9355 O 1285.51 -5.6162 -6.70584 0
M  V30 9356 C 1284.1 -5.04409 -4.73308 0
M  V30 9357 O 1284.9 -3.85992 -4.75183 0
M  V30 9358 C 1282.77 -4.8728 -5.41006 0
M  V30 9359 H 1282.8 -4.02333 -6.11157 0
M  V30 9360 H 1283.98 -5.39466 -3.69543 0
M  V30 9361 H 1285.47 -6.71916 -5.01943 0
M  V30 9362 H 1283.77 -7.4649 -6.93477 0
M  V30 9363 H 1283.58 -8.89416 -5.05237 0
M  V30 9364 H 1281.95 -8.14876 -5.18409 0
M  V30 9365 H 1284.59 -3.27957 -5.4317 0
M  V30 9366 P 1286.45 -5.75688 -6.64379 0
M  V30 9367 O 1287.87 -6.07627 -7.05504 0
M  V30 9368 O 1286.09 -5.88047 -5.19722 0
M  V30 9369 O 1286.13 -4.2322 -7.04443 0
M  V30 9370 C 1285.97 -3.99743 -8.4911 0
M  V30 9371 C 1286.51 -2.60516 -8.79425 0
M  V30 9372 O 1285.45 -1.82684 -8.4467 0
M  V30 9373 C 1287.72 -2.10343 -8.03628 0
M  V30 9374 O 1288.46 -1.09919 -8.67766 0
M  V30 9375 C 1287.05 -1.68446 -6.70876 0
M  V30 9376 O 1287.85 -0.678137 -6.08433 0
M  V30 9377 C 1285.72 -1.17436 -7.18567 0
M  V30 9378 H 1285.75 -0.0804732 -7.31656 0
M  V30 9379 H 1286.93 -2.54037 -6.02537 0
M  V30 9380 H 1288.42 -2.93881 -7.85526 0
M  V30 9381 H 1286.72 -2.53065 -9.86973 0
M  V30 9382 H 1286.53 -4.75072 -9.05887 0
M  V30 9383 H 1284.9 -4.05244 -8.76668 0
M  V30 9384 H 1287.54 0.177647 -6.34251 0
M  V30 9385 P 1289.4 -1.25109 -8.70152 0
M  V30 9386 O 1290.82 -1.29772 -9.22214 0
M  V30 9387 O 1289.04 -2.13714 -7.55141 0
M  V30 9388 O 1289.08 0.248149 -8.21425 0
M  V30 9389 C 1288.92 1.22779 -9.30434 0
M  V30 9390 C 1289.46 2.56265 -8.80568 0
M  V30 9391 O 1288.4 3.02979 -8.09349 0
M  V30 9392 C 1290.67 2.57523 -7.89775 0
M  V30 9393 O 1291.41 3.7668 -7.89438 0
M  V30 9394 C 1290.01 2.20997 -6.55446 0
M  V30 9395 O 1290.8 2.71851 -5.48419 0
M  V30 9396 C 1288.67 2.89693 -6.67988 0
M  V30 9397 N 1287.63 2.08895 -6.07487 0
M  V30 9398 C 1287.69 0.760559 -6.14209 0
M  V30 9399 N 1286.64 0.200108 -5.52538 0
M  V30 9400 C 1285.91 1.22692 -5.09742 0
M  V30 9401 C 1284.6 1.24782 -4.48775 0
M  V30 9402 O 1283.87 0.290617 -4.19294 0
M  V30 9403 N 1284.17 2.50468 -4.22428 0
M  V30 9404 C 1284.92 3.67142 -4.51974 0
M  V30 9405 N 1284.32 4.85096 -4.14091 0
M  V30 9406 N 1286.07 3.67821 -5.12831 0
M  V30 9407 C 1286.53 2.43698 -5.4105 0
M  V30 9408 H 1288.7 3.88793 -6.19859 0
M  V30 9409 H 1289.88 1.12029 -6.4413 0
M  V30 9410 H 1291.37 1.78279 -8.19533 0
M  V30 9411 H 1289.67 3.20706 -9.67112 0
M  V30 9412 H 1289.48 0.901032 -10.1892 0
M  V30 9413 H 1287.85 1.33049 -9.56592 0
M  V30 9414 H 1283.28 2.61953 -3.79465 0
M  V30 9415 H 1288.48 0.200439 -6.63497 0
M  V30 9416 H 1283.41 4.8334 -3.66367 0
M  V30 9417 H 1284.79 5.7474 -4.33841 0
M  V30 9418 H 1290.49 3.5779 -5.23879 0
M  V30 9419 P 1292.35 3.65191 -7.99657 0
M  V30 9420 O 1293.77 3.89332 -8.45794 0
M  V30 9421 O 1291.99 2.28472 -7.50807 0
M  V30 9422 O 1292.03 4.64972 -6.77611 0
M  V30 9423 C 1291.87 6.06319 -7.16352 0
M  V30 9424 C 1292.41 6.91731 -6.02299 0
M  V30 9425 O 1291.35 6.92449 -5.17064 0
M  V30 9426 C 1293.62 6.43627 -5.25174 0
M  V30 9427 O 1294.36 7.43686 -4.60469 0
M  V30 9428 C 1292.96 5.40275 -4.31916 0
M  V30 9429 O 1293.75 5.25279 -3.14438 0
M  V30 9430 C 1291.62 6.04847 -4.05327 0
M  V30 9431 H 1291.65 6.62195 -3.11261 0
M  V30 9432 H 1292.83 4.42556 -4.81383 0
M  V30 9433 H 1294.32 5.92458 -5.93643 0
M  V30 9434 H 1292.62 7.92655 -6.402 0
M  V30 9435 H 1292.43 6.26671 -8.0846 0
M  V30 9436 H 1290.8 6.29101 -7.32804 0
M  V30 9437 H 1293.44 5.84315 -2.47318 0
M  V30 9438 P 1295.3 7.39546 -4.75277 0
M  V30 9439 O 1296.72 7.84798 -5.01039 0
M  V30 9440 O 1294.94 5.9812 -5.08098 0
M  V30 9441 O 1294.98 7.57503 -3.1866 0
M  V30 9442 C 1294.82 8.97357 -2.74833 0
M  V30 9443 C 1295.36 9.07548 -1.32709 0
M  V30 9444 O 1294.3 8.62072 -0.606159 0
M  V30 9445 C 1296.58 8.25383 -0.938334 0
M  V30 9446 O 1297.31 8.74577 0.146954 0
M  V30 9447 C 1295.91 6.8802 -0.712559 0
M  V30 9448 O 1296.71 6.1189 0.194655 0
M  V30 9449 C 1294.57 7.27966 -0.139777 0
M  V30 9450 H 1294.6 7.25354 0.961601 0
M  V30 9451 H 1295.78 6.32557 -1.65702 0
M  V30 9452 H 1297.27 8.19355 -1.79097 0
M  V30 9453 H 1295.57 10.1294 -1.10029 0
M  V30 9454 H 1295.38 9.64276 -3.41316 0
M  V30 9455 H 1293.75 9.25417 -2.76357 0
M  V30 9456 H 1296.39 6.25267 1.07847 0
M  V30 9457 P 1298.25 8.791 1.06576e-11 0
M  V30 9458 O 1299.67 9.31096 0.027933 0
M  V30 9459 O 1297.89 7.77869 -1.04071 0
M  V30 9460 O 1297.93 8.09533 1.41463 0
M  V30 9461 C 1297.77 9.0349 2.53943 0
M  V30 9462 C 1298.31 8.35226 3.79016 0
M  V30 9463 O 1297.25 7.57992 4.15078 0
M  V30 9464 C 1299.53 7.45087 3.67298 0
M  V30 9465 O 1300.26 7.27796 4.85194 0
M  V30 9466 C 1298.86 6.17323 3.12027 0
M  V30 9467 O 1299.66 5.04231 3.47188 0
M  V30 9468 C 1297.52 6.19961 3.81809 0
M  V30 9469 H 1297.55 5.58218 4.73051 0
M  V30 9470 H 1298.73 6.21726 2.02589 0
M  V30 9471 H 1300.22 7.86112 2.9231 0
M  V30 9472 H 1298.52 9.11627 4.55076 0
M  V30 9473 H 1298.33 9.9573 2.34194 0
M  V30 9474 H 1296.7 9.2792 2.67832 0
M  V30 9475 H 1299.34 4.67702 4.28772 0
M  V30 9476 P 1301.2 7.39546 4.75277 0
M  V30 9477 O 1302.6 7.89013 5.04841 0
M  V30 9478 O 1300.82 7.16603 3.32298 0
M  V30 9479 O 1300.88 6.04468 5.56605 0
M  V30 9480 C 1300.72 6.22772 7.02095 0
M  V30 9481 C 1301.26 4.97671 7.70322 0
M  V30 9482 O 1300.2 4.13208 7.58899 0
M  V30 9483 C 1302.48 4.28231 7.11815 0
M  V30 9484 O 1303.21 3.49945 8.01648 0
M  V30 9485 C 1301.81 3.5063 5.96244 0
M  V30 9486 O 1302.61 2.36443 5.64589 0
M  V30 9487 C 1300.47 3.15122 6.56374 0
M  V30 9488 N 1299.43 3.22311 5.55692 0
M  V30 9489 C 1298.39 2.32244 5.62437 0
M  V30 9490 O 1298.43 1.43107 6.50341 0
M  V30 9491 N 1297.38 2.40811 4.73368 0
M  V30 9492 C 1297.43 3.344 3.77753 0
M  V30 9493 C 1298.52 4.24712 3.66679 0
M  V30 9494 C 1299.49 4.15625 4.58307 0
M  V30 9495 H 1300.5 2.13823 6.99656 0
M  V30 9496 H 1301.69 4.12931 5.06895 0
M  V30 9497 H 1303.17 5.02674 6.71494 0
M  V30 9498 H 1301.48 5.20001 8.76217 0
M  V30 9499 H 1301.28 7.11046 7.35349 0
M  V30 9500 H 1299.65 6.35749 7.26911 0
M  V30 9501 H 1298.57 4.9828 2.86753 0
M  V30 9502 H 1300.34 4.84464 4.54228 0
M  V30 9503 H 1302.39 1.65592 6.23485 0
M  V30 9504 P 1304.15 3.65191 7.99657 0
M  V30 9505 O 1305.57 3.8425 8.48115 0
M  V30 9506 O 1303.79 4.17805 6.64342 0
M  V30 9507 O 1303.83 2.07613 7.95143 0
M  V30 9508 C 1303.67 1.44328 9.27336 0
M  V30 9509 C 1304.21 0.0220036 9.17197 0
M  V30 9510 O 1303.15 -0.626867 8.61923 0
M  V30 9511 C 1305.43 -0.24586 8.30336 0
M  V30 9512 O 1306.16 -1.39011 8.63583 0
M  V30 9513 C 1304.76 -0.273849 6.91158 0
M  V30 9514 O 1305.56 -1.06348 6.02892 0
M  V30 9515 C 1303.42 -0.897649 7.22545 0
M  V30 9516 H 1303.45 -1.9841 7.04286 0
M  V30 9517 H 1304.64 0.739928 6.497 0
M  V30 9518 H 1306.12 0.60668 8.36503 0
M  V30 9519 H 1304.43 -0.352479 10.1829 0
M  V30 9520 H 1304.24 2.00611 10.0304 0
M  V30 9521 H 1302.61 1.41843 9.55327 0
M  V30 9522 H 1305.24 -1.95734 6.03555 0
M  V30 9523 P 1307.1 -1.25109 8.70152 0
M  V30 9524 O 1308.52 -1.35274 9.21221 0
M  V30 9525 O 1306.74 -0.0769065 7.84762 0
M  V30 9526 O 1306.78 -2.55232 7.81161 0
M  V30 9527 C 1306.62 -3.79939 8.58154 0
M  V30 9528 C 1307.16 -4.94023 7.72785 0
M  V30 9529 O 1306.1 -5.18726 6.91205 0
M  V30 9530 C 1308.38 -4.69597 6.85231 0
M  V30 9531 O 1309.12 -5.83832 6.51337 0
M  V30 9532 C 1307.71 -3.96706 5.66633 0
M  V30 9533 O 1308.51 -4.15414 4.49689 0
M  V30 9534 C 1306.37 -4.66153 5.59313 0
M  V30 9535 H 1306.4 -5.47679 4.85214 0
M  V30 9536 H 1307.59 -2.89008 5.86566 0
M  V30 9537 H 1309.07 -4.0121 7.36511 0
M  V30 9538 H 1307.38 -5.80182 8.37584 0
M  V30 9539 H 1307.19 -3.73517 9.52265 0
M  V30 9540 H 1305.56 -3.97163 8.80359 0
M  V30 9541 H 1308.2 -4.90969 4.01921 0
M  V30 9542 P 1310.05 -5.75688 6.64379 0
M  V30 9543 O 1311.47 -6.11915 7.01921 0
M  V30 9544 O 1309.69 -4.30744 6.56026 0
M  V30 9545 O 1309.73 -6.37042 5.19165 0
M  V30 9546 C 1309.57 -7.83662 5.1657 0
M  V30 9547 C 1310.11 -8.33398 3.83019 0
M  V30 9548 O 1309.06 -8.0998 3.00999 0
M  V30 9549 C 1311.33 -7.65514 3.2257 0
M  V30 9550 O 1312.07 -8.4329 2.32297 0
M  V30 9551 C 1310.66 -6.40075 2.62207 0
M  V30 9552 O 1311.46 -5.92338 1.5428 0
M  V30 9553 C 1309.32 -6.9454 2.18503 0
M  V30 9554 N 1308.28 -5.95905 2.39948 0
M  V30 9555 C 1308.45 -4.98383 3.32108 0
M  V30 9556 N 1307.42 -4.16798 3.41761 0
M  V30 9557 C 1306.54 -4.65287 2.47461 0
M  V30 9558 C 1305.27 -4.18946 2.07461 0
M  V30 9559 N 1304.7 -4.95327 1.09101 0
M  V30 9560 C 1305.31 -6.04369 0.519812 0
M  V30 9561 N 1306.48 -6.50694 0.855982 0
M  V30 9562 C 1307.06 -5.75818 1.84322 0
M  V30 9563 H 1310.54 -5.60502 3.36589 0
M  V30 9564 H 1312.02 -7.35707 4.02681 0
M  V30 9565 H 1310.33 -9.41302 3.90009 0
M  V30 9566 H 1310.14 -8.29056 5.99158 0
M  V30 9567 H 1308.51 -8.10073 5.25882 0
M  V30 9568 H 1309.35 -4.88564 3.92502 0
M  V30 9569 H 1311.15 -6.30224 0.72668 0
M  V30 9570 P 1313 -8.4349 2.47671 0
M  V30 9571 O 1314.43 -8.94167 2.5964 0
M  V30 9572 O 1312.64 -7.1704 3.19006 0
M  V30 9573 O 1312.68 -8.16596 0.923387 0
M  V30 9574 C 1312.52 -9.38437 0.108857 0
M  V30 9575 C 1313.06 -9.08175 -1.28353 0
M  V30 9576 O 1312 -8.44229 -1.84713 0
M  V30 9577 C 1314.28 -8.18386 -1.42505 0
M  V30 9578 O 1315.02 -8.3501 -2.60497 0
M  V30 9579 C 1313.61 -6.80225 -1.25468 0
M  V30 9580 O 1314.41 -5.81621 -1.91066 0
M  V30 9581 C 1312.27 -7.02416 -1.9168 0
M  V30 9582 H 1312.3 -6.6888 -2.96621 0
M  V30 9583 H 1313.49 -6.53617 -0.192223 0
M  V30 9584 H 1314.97 -8.36622 -0.589963 0
M  V30 9585 H 1313.28 -10.0291 -1.79807 0
M  V30 9586 H 1313.09 -10.2138 0.558219 0
M  V30 9587 H 1311.46 -9.6579 0.0444202 0
M  V30 9588 H 1314.1 -5.69556 -2.79637 0
M  V30 9589 P 1315.95 -8.4349 -2.47671 0
M  V30 9590 O 1317.38 -8.92593 -2.65 0
M  V30 9591 O 1315.59 -7.7568 -1.19296 0
M  V30 9592 O 1315.63 -7.36886 -3.63805 0
M  V30 9593 C 1315.47 -7.95349 -4.982 0
M  V30 9594 C 1316.01 -6.94612 -5.98974 0
M  V30 9595 O 1314.96 -6.10347 -6.11815 0
M  V30 9596 C 1317.23 -6.11426 -5.62335 0
M  V30 9597 O 1317.97 -5.6162 -6.70584 0
M  V30 9598 C 1316.56 -5.04409 -4.73308 0
M  V30 9599 O 1317.36 -3.85992 -4.75183 0
M  V30 9600 C 1315.22 -4.8728 -5.41006 0
M  V30 9601 H 1315.26 -4.02333 -6.11157 0
M  V30 9602 H 1316.44 -5.39466 -3.69543 0
M  V30 9603 H 1317.92 -6.71916 -5.01943 0
M  V30 9604 H 1316.23 -7.4649 -6.93477 0
M  V30 9605 H 1316.04 -8.89416 -5.05237 0
M  V30 9606 H 1314.41 -8.14876 -5.18409 0
M  V30 9607 H 1317.05 -3.27957 -5.4317 0
M  V30 9608 P 1318.9 -5.75688 -6.64379 0
M  V30 9609 O 1320.33 -6.07627 -7.05504 0
M  V30 9610 O 1318.54 -5.88047 -5.19722 0
M  V30 9611 O 1318.58 -4.2322 -7.04443 0
M  V30 9612 C 1318.42 -3.99743 -8.4911 0
M  V30 9613 C 1318.96 -2.60516 -8.79425 0
M  V30 9614 O 1317.91 -1.82684 -8.4467 0
M  V30 9615 C 1320.18 -2.10343 -8.03628 0
M  V30 9616 O 1320.92 -1.09919 -8.67766 0
M  V30 9617 C 1319.51 -1.68446 -6.70876 0
M  V30 9618 O 1320.31 -0.678137 -6.08433 0
M  V30 9619 C 1318.17 -1.17436 -7.18567 0
M  V30 9620 H 1318.21 -0.0804732 -7.31656 0
M  V30 9621 H 1319.39 -2.54037 -6.02537 0
M  V30 9622 H 1320.87 -2.93881 -7.85526 0
M  V30 9623 H 1319.18 -2.53065 -9.86973 0
M  V30 9624 H 1318.99 -4.75072 -9.05887 0
M  V30 9625 H 1317.36 -4.05244 -8.76668 0
M  V30 9626 H 1320 0.177647 -6.34251 0
M  V30 9627 P 1321.86 -1.25109 -8.70152 0
M  V30 9628 O 1323.28 -1.29744 -9.22016 0
M  V30 9629 O 1321.5 -2.13714 -7.55141 0
M  V30 9630 O 1321.53 0.248149 -8.21425 0
M  V30 9631 C 1321.37 1.22779 -9.30434 0
M  V30 9632 C 1321.91 2.56293 -8.80664 0
M  V30 9633 O 1320.86 3.02979 -8.09349 0
M  V30 9634 C 1323.13 2.57523 -7.89775 0
M  V30 9635 O 1323.87 3.7668 -7.89438 0
M  V30 9636 C 1322.46 2.20997 -6.55446 0
M  V30 9637 O 1323.26 2.71895 -5.48509 0
M  V30 9638 C 1321.12 2.89693 -6.67988 0
M  V30 9639 H 1321.16 3.88793 -6.19859 0
M  V30 9640 H 1322.34 1.12046 -6.44229 0
M  V30 9641 H 1323.82 1.7746 -8.19711 0
M  V30 9642 H 1322.13 3.20706 -9.67112 0
M  V30 9643 H 1321.94 0.901032 -10.1892 0
M  V30 9644 H 1320.31 1.33049 -9.56592 0
M  V30 9645 H 1322.95 3.57847 -5.23962 0
M  V30 9646 P 1324.81 3.65191 -7.99657 0
M  V30 9647 O 1326.23 3.89332 -8.45794 0
M  V30 9648 O 1324.45 2.28472 -7.50807 0
M  V30 9649 O 1324.48 4.64972 -6.77611 0
M  V30 9650 C 1324.32 6.06319 -7.16352 0
M  V30 9651 C 1324.86 6.91731 -6.02299 0
M  V30 9652 O 1323.81 6.92449 -5.17064 0
M  V30 9653 C 1326.08 6.43627 -5.25174 0
M  V30 9654 O 1326.82 7.43686 -4.60469 0
M  V30 9655 C 1325.41 5.40275 -4.31916 0
M  V30 9656 O 1326.21 5.25279 -3.14438 0
M  V30 9657 C 1324.07 6.04847 -4.05327 0
M  V30 9658 H 1324.11 6.62195 -3.11261 0
M  V30 9659 H 1325.29 4.42556 -4.81383 0
M  V30 9660 H 1326.77 5.92458 -5.93643 0
M  V30 9661 H 1325.08 7.92655 -6.402 0
M  V30 9662 H 1324.89 6.26671 -8.0846 0
M  V30 9663 H 1323.26 6.29101 -7.32804 0
M  V30 9664 H 1325.9 5.84315 -2.47318 0
M  V30 9665 P 1327.76 7.39546 -4.75277 0
M  V30 9666 O 1329.18 7.84798 -5.01039 0
M  V30 9667 O 1327.4 5.9812 -5.08098 0
M  V30 9668 O 1327.43 7.57503 -3.1866 0
M  V30 9669 C 1327.27 8.97357 -2.74833 0
M  V30 9670 C 1327.81 9.07548 -1.32709 0
M  V30 9671 O 1326.76 8.62072 -0.606159 0
M  V30 9672 C 1329.03 8.25383 -0.938334 0
M  V30 9673 O 1329.77 8.74577 0.146954 0
M  V30 9674 C 1328.36 6.8802 -0.712559 0
M  V30 9675 O 1329.16 6.1189 0.194655 0
M  V30 9676 C 1327.03 7.27966 -0.139777 0
M  V30 9677 H 1327.06 7.25354 0.961601 0
M  V30 9678 H 1328.24 6.32557 -1.65702 0
M  V30 9679 H 1329.72 8.19355 -1.79097 0
M  V30 9680 H 1328.03 10.1294 -1.10029 0
M  V30 9681 H 1327.84 9.64276 -3.41316 0
M  V30 9682 H 1326.21 9.25417 -2.76357 0
M  V30 9683 H 1328.85 6.25267 1.07847 0
M  V30 9684 P 1330.71 8.791 1.0718e-11 0
M  V30 9685 O 1332.13 9.31096 0.027933 0
M  V30 9686 O 1330.35 7.77869 -1.04071 0
M  V30 9687 O 1330.38 8.09533 1.41463 0
M  V30 9688 C 1330.22 9.0349 2.53943 0
M  V30 9689 C 1330.76 8.35226 3.79016 0
M  V30 9690 O 1329.71 7.57992 4.15078 0
M  V30 9691 C 1331.98 7.45087 3.67298 0
M  V30 9692 O 1332.72 7.27796 4.85194 0
M  V30 9693 C 1331.31 6.17323 3.12027 0
M  V30 9694 O 1332.11 5.04231 3.47188 0
M  V30 9695 C 1329.98 6.19961 3.81809 0
M  V30 9696 H 1330.01 5.58218 4.73051 0
M  V30 9697 H 1331.19 6.21726 2.02589 0
M  V30 9698 H 1332.68 7.86112 2.9231 0
M  V30 9699 H 1330.98 9.11627 4.55076 0
M  V30 9700 H 1330.79 9.9573 2.34194 0
M  V30 9701 H 1329.16 9.2792 2.67832 0
M  V30 9702 H 1331.8 4.67702 4.28772 0
M  V30 9703 P 1333.66 7.39546 4.75277 0
M  V30 9704 O 1335.08 7.81777 5.05738 0
M  V30 9705 O 1333.3 7.1065 3.32998 0
M  V30 9706 O 1333.33 6.04542 5.56673 0
M  V30 9707 C 1333.17 6.22772 7.02095 0
M  V30 9708 C 1333.71 4.97725 7.70406 0
M  V30 9709 O 1332.66 4.13256 7.58987 0
M  V30 9710 C 1334.93 4.28231 7.11815 0
M  V30 9711 O 1335.67 3.49945 8.01648 0
M  V30 9712 C 1334.26 3.5063 5.96244 0
M  V30 9713 O 1335.06 2.36482 5.64681 0
M  V30 9714 C 1332.93 3.15122 6.56374 0
M  V30 9715 H 1332.96 2.13853 6.99751 0
M  V30 9716 H 1334.14 4.13501 5.06559 0
M  V30 9717 H 1335.63 5.03285 6.70911 0
M  V30 9718 H 1333.93 5.20877 8.75697 0
M  V30 9719 H 1333.74 7.11046 7.35349 0
M  V30 9720 H 1332.11 6.35815 7.26986 0
M  V30 9721 H 1334.75 1.61644 6.13565 0
M  V30 9722 P 1336.61 3.65191 7.99657 0
M  V30 9723 O 1338.03 3.8425 8.48115 0
M  V30 9724 O 1336.25 4.17805 6.64342 0
M  V30 9725 O 1336.29 2.07613 7.95143 0
M  V30 9726 C 1336.13 1.44328 9.27336 0
M  V30 9727 C 1336.67 0.0220036 9.17197 0
M  V30 9728 O 1335.61 -0.626867 8.61923 0
M  V30 9729 C 1337.88 -0.24586 8.30336 0
M  V30 9730 O 1338.62 -1.39011 8.63583 0
M  V30 9731 C 1337.21 -0.273849 6.91158 0
M  V30 9732 O 1338.01 -1.06348 6.02892 0
M  V30 9733 C 1335.88 -0.897649 7.22545 0
M  V30 9734 H 1335.91 -1.9841 7.04286 0
M  V30 9735 H 1337.09 0.739928 6.497 0
M  V30 9736 H 1338.58 0.60668 8.36503 0
M  V30 9737 H 1336.88 -0.352479 10.1829 0
M  V30 9738 H 1336.69 2.00611 10.0304 0
M  V30 9739 H 1335.06 1.41843 9.55327 0
M  V30 9740 H 1337.7 -1.95734 6.03555 0
M  V30 9741 P 1339.56 -1.25109 8.70152 0
M  V30 9742 O 1340.98 -1.35274 9.21221 0
M  V30 9743 O 1339.2 -0.0769065 7.84762 0
M  V30 9744 O 1339.24 -2.55232 7.81161 0
M  V30 9745 C 1339.08 -3.79939 8.58154 0
M  V30 9746 C 1339.62 -4.94023 7.72785 0
M  V30 9747 O 1338.56 -5.18726 6.91205 0
M  V30 9748 C 1340.83 -4.69597 6.85231 0
M  V30 9749 O 1341.57 -5.83832 6.51337 0
M  V30 9750 C 1340.16 -3.96706 5.66633 0
M  V30 9751 O 1340.96 -4.15414 4.49689 0
M  V30 9752 C 1338.83 -4.66153 5.59313 0
M  V30 9753 H 1338.86 -5.47679 4.85214 0
M  V30 9754 H 1340.04 -2.89008 5.86566 0
M  V30 9755 H 1341.53 -4.0121 7.36511 0
M  V30 9756 H 1339.83 -5.80182 8.37584 0
M  V30 9757 H 1339.64 -3.73517 9.52265 0
M  V30 9758 H 1338.01 -3.97163 8.80359 0
M  V30 9759 H 1340.65 -4.90969 4.01921 0
M  V30 9760 P 1342.51 -5.75688 6.64379 0
M  V30 9761 O 1343.93 -6.11849 7.01846 0
M  V30 9762 O 1342.15 -4.30744 6.56026 0
M  V30 9763 O 1342.19 -6.37042 5.19165 0
M  V30 9764 C 1342.03 -7.83578 5.16515 0
M  V30 9765 C 1342.57 -8.33398 3.83019 0
M  V30 9766 O 1341.51 -8.10074 3.01034 0
M  V30 9767 C 1343.78 -7.65514 3.2257 0
M  V30 9768 O 1344.52 -8.4329 2.32297 0
M  V30 9769 C 1343.12 -6.40075 2.62207 0
M  V30 9770 O 1343.91 -5.92589 1.53712 0
M  V30 9771 C 1341.78 -6.9454 2.18503 0
M  V30 9772 H 1341.81 -7.23063 1.12091 0
M  V30 9773 H 1342.99 -5.6025 3.37201 0
M  V30 9774 H 1344.48 -7.35707 4.02681 0
M  V30 9775 H 1342.78 -9.40912 3.9095 0
M  V30 9776 H 1342.59 -8.29056 5.99158 0
M  V30 9777 H 1340.96 -8.10073 5.25882 0
M  V30 9778 H 1343.6 -6.30324 0.726794 0
M  V30 9779 P 1345.46 -8.4349 2.47671 0
M  V30 9780 O 1346.88 -8.94167 2.5964 0
M  V30 9781 O 1345.1 -7.1704 3.19006 0
M  V30 9782 O 1345.14 -8.16596 0.923387 0
M  V30 9783 C 1344.98 -9.38437 0.108857 0
M  V30 9784 C 1345.52 -9.08175 -1.28353 0
M  V30 9785 O 1344.46 -8.44229 -1.84713 0
M  V30 9786 C 1346.73 -8.18386 -1.42505 0
M  V30 9787 O 1347.47 -8.3501 -2.60497 0
M  V30 9788 C 1346.07 -6.80225 -1.25468 0
M  V30 9789 O 1346.86 -5.81621 -1.91066 0
M  V30 9790 C 1344.73 -7.02416 -1.9168 0
M  V30 9791 H 1344.76 -6.6888 -2.96621 0
M  V30 9792 H 1345.94 -6.53617 -0.192223 0
M  V30 9793 H 1347.43 -8.36622 -0.589963 0
M  V30 9794 H 1345.73 -10.0291 -1.79807 0
M  V30 9795 H 1345.54 -10.2138 0.558219 0
M  V30 9796 H 1343.91 -9.6579 0.0444202 0
M  V30 9797 H 1346.55 -5.69556 -2.79637 0
M  V30 9798 P 1348.41 -8.4349 -2.47671 0
M  V30 9799 O 1349.83 -8.92593 -2.65 0
M  V30 9800 O 1348.05 -7.7568 -1.19296 0
M  V30 9801 O 1348.09 -7.36886 -3.63805 0
M  V30 9802 C 1347.93 -7.95349 -4.982 0
M  V30 9803 C 1348.47 -6.94612 -5.98974 0
M  V30 9804 O 1347.41 -6.10347 -6.11815 0
M  V30 9805 C 1349.69 -6.11426 -5.62335 0
M  V30 9806 O 1350.42 -5.6162 -6.70584 0
M  V30 9807 C 1349.02 -5.04409 -4.73308 0
M  V30 9808 O 1349.82 -3.85992 -4.75183 0
M  V30 9809 C 1347.68 -4.8728 -5.41006 0
M  V30 9810 H 1347.71 -4.02333 -6.11157 0
M  V30 9811 H 1348.89 -5.39466 -3.69543 0
M  V30 9812 H 1350.38 -6.71916 -5.01943 0
M  V30 9813 H 1348.68 -7.4649 -6.93477 0
M  V30 9814 H 1348.49 -8.89416 -5.05237 0
M  V30 9815 H 1346.86 -8.14876 -5.18409 0
M  V30 9816 H 1349.5 -3.27957 -5.4317 0
M  V30 9817 P 1351.36 -5.75688 -6.64379 0
M  V30 9818 O 1352.78 -6.07627 -7.05504 0
M  V30 9819 O 1351 -5.88047 -5.19722 0
M  V30 9820 O 1351.04 -4.2322 -7.04443 0
M  V30 9821 C 1350.88 -3.99743 -8.4911 0
M  V30 9822 C 1351.42 -2.60516 -8.79425 0
M  V30 9823 O 1350.36 -1.82684 -8.4467 0
M  V30 9824 C 1352.64 -2.10343 -8.03628 0
M  V30 9825 O 1353.37 -1.09919 -8.67766 0
M  V30 9826 C 1351.97 -1.68446 -6.70876 0
M  V30 9827 O 1352.77 -0.678137 -6.08433 0
M  V30 9828 C 1350.63 -1.17436 -7.18567 0
M  V30 9829 H 1350.66 -0.0804732 -7.31656 0
M  V30 9830 H 1351.85 -2.54037 -6.02537 0
M  V30 9831 H 1353.33 -2.93881 -7.85526 0
M  V30 9832 H 1351.64 -2.53065 -9.86973 0
M  V30 9833 H 1351.45 -4.75072 -9.05887 0
M  V30 9834 H 1349.82 -4.05244 -8.76668 0
M  V30 9835 H 1352.45 0.177647 -6.34251 0
M  V30 9836 P 1354.31 -1.25109 -8.70152 0
M  V30 9837 O 1355.73 -1.29744 -9.22016 0
M  V30 9838 O 1353.95 -2.13714 -7.55141 0
M  V30 9839 O 1353.99 0.248149 -8.21425 0
M  V30 9840 C 1353.83 1.22779 -9.30434 0
M  V30 9841 C 1354.37 2.56293 -8.80664 0
M  V30 9842 O 1353.31 3.02979 -8.09349 0
M  V30 9843 C 1355.59 2.57523 -7.89775 0
M  V30 9844 O 1356.32 3.7668 -7.89438 0
M  V30 9845 C 1354.92 2.20997 -6.55446 0
M  V30 9846 O 1355.72 2.71895 -5.48509 0
M  V30 9847 C 1353.58 2.89693 -6.67988 0
M  V30 9848 H 1353.61 3.88793 -6.19859 0
M  V30 9849 H 1354.8 1.12046 -6.44229 0
M  V30 9850 H 1356.28 1.7746 -8.19711 0
M  V30 9851 H 1354.59 3.20706 -9.67112 0
M  V30 9852 H 1354.4 0.901032 -10.1892 0
M  V30 9853 H 1352.77 1.33049 -9.56592 0
M  V30 9854 H 1355.4 3.57847 -5.23962 0
M  V30 9855 P 1357.26 3.65191 -7.99657 0
M  V30 9856 O 1358.68 3.89332 -8.45794 0
M  V30 9857 O 1356.9 2.28472 -7.50807 0
M  V30 9858 O 1356.94 4.64972 -6.77611 0
M  V30 9859 C 1356.78 6.06319 -7.16352 0
M  V30 9860 C 1357.32 6.91731 -6.02299 0
M  V30 9861 O 1356.26 6.92449 -5.17064 0
M  V30 9862 C 1358.54 6.43627 -5.25174 0
M  V30 9863 O 1359.28 7.43686 -4.60469 0
M  V30 9864 C 1357.87 5.40275 -4.31916 0
M  V30 9865 O 1358.67 5.25279 -3.14438 0
M  V30 9866 C 1356.53 6.04847 -4.05327 0
M  V30 9867 H 1356.56 6.62195 -3.11261 0
M  V30 9868 H 1357.75 4.42556 -4.81383 0
M  V30 9869 H 1359.23 5.92458 -5.93643 0
M  V30 9870 H 1357.54 7.92655 -6.402 0
M  V30 9871 H 1357.35 6.26671 -8.0846 0
M  V30 9872 H 1355.72 6.29101 -7.32804 0
M  V30 9873 H 1358.36 5.84315 -2.47318 0
M  V30 9874 P 1360.21 7.39546 -4.75277 0
M  V30 9875 O 1361.61 7.86988 -5.07993 0
M  V30 9876 O 1359.83 5.99957 -5.13804 0
M  V30 9877 O 1359.89 7.57411 -3.18621 0
M  V30 9878 C 1359.73 8.97357 -2.74833 0
M  V30 9879 C 1360.27 9.0745 -1.32694 0
M  V30 9880 O 1359.21 8.61972 -0.606089 0
M  V30 9881 C 1361.49 8.25383 -0.938334 0
M  V30 9882 O 1362.23 8.74577 0.146954 0
M  V30 9883 C 1360.82 6.8802 -0.712559 0
M  V30 9884 O 1361.62 6.11791 0.194623 0
M  V30 9885 C 1359.48 7.27966 -0.139777 0
M  V30 9886 N 1358.44 6.39368 -0.623421 0
M  V30 9887 C 1357.4 6.08088 0.223886 0
M  V30 9888 O 1357.44 6.5102 1.39986 0
M  V30 9889 N 1356.39 5.30627 -0.224051 0
M  V30 9890 C 1356.44 4.82531 -1.47257 0
M  V30 9891 C 1357.54 5.09974 -2.34008 0
M  V30 9892 C 1358.5 5.89548 -1.87678 0
M  V30 9893 H 1359.51 7.25255 0.961469 0
M  V30 9894 H 1360.7 6.32625 -1.65044 0
M  V30 9895 H 1362.18 8.19631 -1.78299 0
M  V30 9896 H 1360.49 10.1305 -1.09016 0
M  V30 9897 H 1360.3 9.64276 -3.41316 0
M  V30 9898 H 1358.67 9.25321 -2.76328 0
M  V30 9899 H 1357.58 4.67832 -3.3413 0
M  V30 9900 H 1359.35 6.14434 -2.51991 0
M  V30 9901 H 1361.4 6.35931 1.08377 0
M  V30 9902 P 1363.16 8.791 1.10281e-11 0
M  V30 9903 O 1364.59 9.31096 0.027933 0
M  V30 9904 O 1362.8 7.77869 -1.04071 0
M  V30 9905 O 1362.84 8.09533 1.41463 0
M  V30 9906 C 1362.68 9.0349 2.53943 0
M  V30 9907 C 1363.22 8.35226 3.79016 0
M  V30 9908 O 1362.16 7.57992 4.15078 0
M  V30 9909 C 1364.44 7.45087 3.67298 0
M  V30 9910 O 1365.18 7.27796 4.85194 0
M  V30 9911 C 1363.77 6.17323 3.12027 0
M  V30 9912 O 1364.57 5.04231 3.47188 0
M  V30 9913 C 1362.43 6.19961 3.81809 0
M  V30 9914 H 1362.46 5.58218 4.73051 0
M  V30 9915 H 1363.65 6.21726 2.02589 0
M  V30 9916 H 1365.13 7.86112 2.9231 0
M  V30 9917 H 1363.44 9.11627 4.55076 0
M  V30 9918 H 1363.25 9.9573 2.34194 0
M  V30 9919 H 1361.62 9.2792 2.67832 0
M  V30 9920 H 1364.26 4.67702 4.28772 0
M  V30 9921 P 1366.11 7.39546 4.75277 0
M  V30 9922 O 1367.54 7.81777 5.05738 0
M  V30 9923 O 1365.75 7.1065 3.32998 0
M  V30 9924 O 1365.79 6.04542 5.56673 0
M  V30 9925 C 1365.63 6.22772 7.02095 0
M  V30 9926 C 1366.17 4.97725 7.70406 0
M  V30 9927 O 1365.11 4.13256 7.58987 0
M  V30 9928 C 1367.39 4.28231 7.11815 0
M  V30 9929 O 1368.13 3.49945 8.01648 0
M  V30 9930 C 1366.72 3.5063 5.96244 0
M  V30 9931 O 1367.52 2.36482 5.64681 0
M  V30 9932 C 1365.38 3.15122 6.56374 0
M  V30 9933 H 1365.41 2.13853 6.99751 0
M  V30 9934 H 1366.6 4.13501 5.06559 0
M  V30 9935 H 1368.08 5.03285 6.70911 0
M  V30 9936 H 1366.39 5.20877 8.75697 0
M  V30 9937 H 1366.2 7.11046 7.35349 0
M  V30 9938 H 1364.57 6.35815 7.26986 0
M  V30 9939 H 1367.21 1.61644 6.13565 0
M  V30 9940 P 1369.06 3.65191 7.99657 0
M  V30 9941 O 1370.49 3.8425 8.48115 0
M  V30 9942 O 1368.7 4.17805 6.64342 0
M  V30 9943 O 1368.74 2.07613 7.95143 0
M  V30 9944 C 1368.58 1.44328 9.27336 0
M  V30 9945 C 1369.12 0.0220036 9.17197 0
M  V30 9946 O 1368.07 -0.626867 8.61923 0
M  V30 9947 C 1370.34 -0.24586 8.30336 0
M  V30 9948 O 1371.08 -1.39011 8.63583 0
M  V30 9949 C 1369.67 -0.273849 6.91158 0
M  V30 9950 O 1370.47 -1.06348 6.02892 0
M  V30 9951 C 1368.33 -0.897649 7.22545 0
M  V30 9952 H 1368.37 -1.9841 7.04286 0
M  V30 9953 H 1369.55 0.739928 6.497 0
M  V30 9954 H 1371.03 0.60668 8.36503 0
M  V30 9955 H 1369.34 -0.352479 10.1829 0
M  V30 9956 H 1369.15 2.00611 10.0304 0
M  V30 9957 H 1367.52 1.41843 9.55327 0
M  V30 9958 H 1370.16 -1.95734 6.03555 0
M  V30 9959 P 1372.02 -1.25109 8.70152 0
M  V30 9960 O 1373.44 -1.35274 9.21221 0
M  V30 9961 O 1371.66 -0.0769065 7.84762 0
M  V30 9962 O 1371.69 -2.55232 7.81161 0
M  V30 9963 C 1371.53 -3.79939 8.58154 0
M  V30 9964 C 1372.07 -4.94023 7.72785 0
M  V30 9965 O 1371.02 -5.18726 6.91205 0
M  V30 9966 C 1373.29 -4.69597 6.85231 0
M  V30 9967 O 1374.03 -5.83832 6.51337 0
M  V30 9968 C 1372.62 -3.96706 5.66633 0
M  V30 9969 O 1373.42 -4.15414 4.49689 0
M  V30 9970 C 1371.28 -4.66153 5.59313 0
M  V30 9971 H 1371.32 -5.47679 4.85214 0
M  V30 9972 H 1372.5 -2.89008 5.86566 0
M  V30 9973 H 1373.98 -4.0121 7.36511 0
M  V30 9974 H 1372.29 -5.80182 8.37584 0
M  V30 9975 H 1372.1 -3.73517 9.52265 0
M  V30 9976 H 1370.47 -3.97163 8.80359 0
M  V30 9977 H 1373.11 -4.90969 4.01921 0
M  V30 9978 P 1374.97 -5.75688 6.64379 0
M  V30 9979 O 1376.39 -6.11849 7.01846 0
M  V30 9980 O 1374.61 -4.30744 6.56026 0
M  V30 9981 O 1374.64 -6.37042 5.19165 0
M  V30 9982 C 1374.48 -7.83578 5.16515 0
M  V30 9983 C 1375.02 -8.33398 3.83019 0
M  V30 9984 O 1373.97 -8.10074 3.01034 0
M  V30 9985 C 1376.24 -7.65514 3.2257 0
M  V30 9986 O 1376.98 -8.4329 2.32297 0
M  V30 9987 C 1375.57 -6.40075 2.62207 0
M  V30 9988 O 1376.37 -5.92589 1.53712 0
M  V30 9989 C 1374.23 -6.9454 2.18503 0
M  V30 9990 H 1374.27 -7.23063 1.12091 0
M  V30 9991 H 1375.45 -5.6025 3.37201 0
M  V30 9992 H 1376.93 -7.35707 4.02681 0
M  V30 9993 H 1375.24 -9.40912 3.9095 0
M  V30 9994 H 1375.05 -8.29056 5.99158 0
M  V30 9995 H 1373.42 -8.10073 5.25882 0
M  V30 9996 H 1376.06 -6.30324 0.726794 0
M  V30 9997 P 1377.92 -8.4349 2.47671 0
M  V30 9998 O 1379.34 -8.94167 2.5964 0
M  V30 9999 O 1377.56 -7.1704 3.19006 0
M  V30 10000 O 1377.59 -8.16596 0.923387 0
M  V30 10001 C 1377.43 -9.38437 0.108857 0
M  V30 10002 C 1377.97 -9.08175 -1.28353 0
M  V30 10003 O 1376.92 -8.44229 -1.84713 0
M  V30 10004 C 1379.19 -8.18386 -1.42505 0
M  V30 10005 O 1379.93 -8.3501 -2.60497 0
M  V30 10006 C 1378.52 -6.80225 -1.25468 0
M  V30 10007 O 1379.32 -5.81621 -1.91066 0
M  V30 10008 C 1377.19 -7.02416 -1.9168 0
M  V30 10009 H 1377.22 -6.6888 -2.96621 0
M  V30 10010 H 1378.4 -6.53617 -0.192223 0
M  V30 10011 H 1379.88 -8.36622 -0.589963 0
M  V30 10012 H 1378.19 -10.0291 -1.79807 0
M  V30 10013 H 1378 -10.2138 0.558219 0
M  V30 10014 H 1376.37 -9.6579 0.0444202 0
M  V30 10015 H 1379.01 -5.69556 -2.79637 0
M  V30 10016 P 1380.87 -8.4349 -2.47671 0
M  V30 10017 O 1382.29 -8.92593 -2.65 0
M  V30 10018 O 1380.51 -7.7568 -1.19296 0
M  V30 10019 O 1380.54 -7.36886 -3.63805 0
M  V30 10020 C 1380.38 -7.95349 -4.982 0
M  V30 10021 C 1380.92 -6.94612 -5.98974 0
M  V30 10022 O 1379.87 -6.10347 -6.11815 0
M  V30 10023 C 1382.14 -6.11426 -5.62335 0
M  V30 10024 O 1382.88 -5.6162 -6.70584 0
M  V30 10025 C 1381.47 -5.04409 -4.73308 0
M  V30 10026 O 1382.27 -3.85992 -4.75183 0
M  V30 10027 C 1380.14 -4.8728 -5.41006 0
M  V30 10028 H 1380.17 -4.02333 -6.11157 0
M  V30 10029 H 1381.35 -5.39466 -3.69543 0
M  V30 10030 H 1382.83 -6.71916 -5.01943 0
M  V30 10031 H 1381.14 -7.4649 -6.93477 0
M  V30 10032 H 1380.95 -8.89416 -5.05237 0
M  V30 10033 H 1379.32 -8.14876 -5.18409 0
M  V30 10034 H 1381.96 -3.27957 -5.4317 0
M  V30 10035 P 1383.82 -5.75688 -6.64379 0
M  V30 10036 O 1385.24 -6.07627 -7.05504 0
M  V30 10037 O 1383.46 -5.88047 -5.19722 0
M  V30 10038 O 1383.49 -4.2322 -7.04443 0
M  V30 10039 C 1383.33 -3.99743 -8.4911 0
M  V30 10040 C 1383.87 -2.60516 -8.79425 0
M  V30 10041 O 1382.82 -1.82684 -8.4467 0
M  V30 10042 C 1385.09 -2.10343 -8.03628 0
M  V30 10043 O 1385.83 -1.09919 -8.67766 0
M  V30 10044 C 1384.42 -1.68446 -6.70876 0
M  V30 10045 O 1385.22 -0.678137 -6.08433 0
M  V30 10046 C 1383.09 -1.17436 -7.18567 0
M  V30 10047 H 1383.12 -0.0804732 -7.31656 0
M  V30 10048 H 1384.3 -2.54037 -6.02537 0
M  V30 10049 H 1385.79 -2.93881 -7.85526 0
M  V30 10050 H 1384.09 -2.53065 -9.86973 0
M  V30 10051 H 1383.9 -4.75072 -9.05887 0
M  V30 10052 H 1382.27 -4.05244 -8.76668 0
M  V30 10053 H 1384.91 0.177647 -6.34251 0
M  V30 10054 P 1386.77 -1.25109 -8.70152 0
M  V30 10055 O 1388.19 -1.29744 -9.22016 0
M  V30 10056 O 1386.41 -2.13714 -7.55141 0
M  V30 10057 O 1386.44 0.248149 -8.21425 0
M  V30 10058 C 1386.28 1.22779 -9.30434 0
M  V30 10059 C 1386.82 2.56293 -8.80664 0
M  V30 10060 O 1385.77 3.02979 -8.09349 0
M  V30 10061 C 1388.04 2.57523 -7.89775 0
M  V30 10062 O 1388.78 3.7668 -7.89438 0
M  V30 10063 C 1387.37 2.20997 -6.55446 0
M  V30 10064 O 1388.17 2.71895 -5.48509 0
M  V30 10065 C 1386.04 2.89693 -6.67988 0
M  V30 10066 H 1386.07 3.88793 -6.19859 0
M  V30 10067 H 1387.25 1.12046 -6.44229 0
M  V30 10068 H 1388.74 1.7746 -8.19711 0
M  V30 10069 H 1387.04 3.20706 -9.67112 0
M  V30 10070 H 1386.85 0.901032 -10.1892 0
M  V30 10071 H 1385.22 1.33049 -9.56592 0
M  V30 10072 H 1387.86 3.57847 -5.23962 0
M  V30 10073 P 1389.72 3.65191 -7.99657 0
M  V30 10074 O 1391.14 3.89332 -8.45794 0
M  V30 10075 O 1389.36 2.28472 -7.50807 0
M  V30 10076 O 1389.4 4.64972 -6.77611 0
M  V30 10077 C 1389.24 6.06319 -7.16352 0
M  V30 10078 C 1389.78 6.91731 -6.02299 0
M  V30 10079 O 1388.72 6.92449 -5.17064 0
M  V30 10080 C 1390.99 6.43627 -5.25174 0
M  V30 10081 O 1391.73 7.43686 -4.60469 0
M  V30 10082 C 1390.32 5.40275 -4.31916 0
M  V30 10083 O 1391.12 5.25279 -3.14438 0
M  V30 10084 C 1388.99 6.04847 -4.05327 0
M  V30 10085 H 1389.02 6.62195 -3.11261 0
M  V30 10086 H 1390.2 4.42556 -4.81383 0
M  V30 10087 H 1391.69 5.92458 -5.93643 0
M  V30 10088 H 1389.99 7.92655 -6.402 0
M  V30 10089 H 1389.8 6.26671 -8.0846 0
M  V30 10090 H 1388.17 6.29101 -7.32804 0
M  V30 10091 H 1390.81 5.84315 -2.47318 0
M  V30 10092 P 1392.67 7.39546 -4.75277 0
M  V30 10093 O 1394.09 7.84798 -5.01039 0
M  V30 10094 O 1392.31 5.9812 -5.08098 0
M  V30 10095 O 1392.35 7.57503 -3.1866 0
M  V30 10096 C 1392.19 8.97357 -2.74833 0
M  V30 10097 C 1392.73 9.07548 -1.32709 0
M  V30 10098 O 1391.67 8.62072 -0.606159 0
M  V30 10099 C 1393.94 8.25383 -0.938334 0
M  V30 10100 O 1394.68 8.74577 0.146954 0
M  V30 10101 C 1393.28 6.8802 -0.712559 0
M  V30 10102 O 1394.07 6.1189 0.194655 0
M  V30 10103 C 1391.94 7.27966 -0.139777 0
M  V30 10104 H 1391.97 7.25354 0.961601 0
M  V30 10105 H 1393.15 6.32557 -1.65702 0
M  V30 10106 H 1394.64 8.19355 -1.79097 0
M  V30 10107 H 1392.94 10.1294 -1.10029 0
M  V30 10108 H 1392.75 9.64276 -3.41316 0
M  V30 10109 H 1391.12 9.25417 -2.76357 0
M  V30 10110 H 1393.76 6.25267 1.07847 0
M  V30 10111 P 1395.62 8.791 1.13383e-11 0
M  V30 10112 O 1397.04 9.31096 0.027933 0
M  V30 10113 O 1395.26 7.77869 -1.04071 0
M  V30 10114 O 1395.3 8.09533 1.41463 0
M  V30 10115 C 1395.14 9.0349 2.53943 0
M  V30 10116 C 1395.68 8.35226 3.79016 0
M  V30 10117 O 1394.62 7.57992 4.15078 0
M  V30 10118 C 1396.89 7.45087 3.67298 0
M  V30 10119 O 1397.63 7.27796 4.85194 0
M  V30 10120 C 1396.23 6.17323 3.12027 0
M  V30 10121 O 1397.02 5.04231 3.47188 0
M  V30 10122 C 1394.89 6.19961 3.81809 0
M  V30 10123 H 1394.92 5.58218 4.73051 0
M  V30 10124 H 1396.1 6.21726 2.02589 0
M  V30 10125 H 1397.59 7.86112 2.9231 0
M  V30 10126 H 1395.89 9.11627 4.55076 0
M  V30 10127 H 1395.7 9.9573 2.34194 0
M  V30 10128 H 1394.07 9.2792 2.67832 0
M  V30 10129 H 1396.71 4.67702 4.28772 0
M  V30 10130 P 1398.57 7.39546 4.75277 0
M  V30 10131 O 1399.99 7.81777 5.05738 0
M  V30 10132 O 1398.21 7.1065 3.32998 0
M  V30 10133 O 1398.25 6.04542 5.56673 0
M  V30 10134 C 1398.09 6.22772 7.02095 0
M  V30 10135 C 1398.63 4.97725 7.70406 0
M  V30 10136 O 1397.57 4.13256 7.58987 0
M  V30 10137 C 1399.85 4.28231 7.11815 0
M  V30 10138 O 1400.58 3.49945 8.01648 0
M  V30 10139 C 1399.18 3.5063 5.96244 0
M  V30 10140 O 1399.98 2.36482 5.64681 0
M  V30 10141 C 1397.84 3.15122 6.56374 0
M  V30 10142 H 1397.87 2.13853 6.99751 0
M  V30 10143 H 1399.05 4.13501 5.06559 0
M  V30 10144 H 1400.54 5.03285 6.70911 0
M  V30 10145 H 1398.84 5.20877 8.75697 0
M  V30 10146 H 1398.65 7.11046 7.35349 0
M  V30 10147 H 1397.02 6.35815 7.26986 0
M  V30 10148 H 1399.66 1.61644 6.13565 0
M  V30 10149 P 1401.52 3.65191 7.99657 0
M  V30 10150 O 1402.94 3.8425 8.48115 0
M  V30 10151 O 1401.16 4.17805 6.64342 0
M  V30 10152 O 1401.2 2.07613 7.95143 0
M  V30 10153 C 1401.04 1.44328 9.27336 0
M  V30 10154 C 1401.58 0.0220036 9.17197 0
M  V30 10155 O 1400.52 -0.626867 8.61923 0
M  V30 10156 C 1402.8 -0.24586 8.30336 0
M  V30 10157 O 1403.53 -1.39011 8.63583 0
M  V30 10158 C 1402.13 -0.273849 6.91158 0
M  V30 10159 O 1402.93 -1.06348 6.02892 0
M  V30 10160 C 1400.79 -0.897649 7.22545 0
M  V30 10161 H 1400.82 -1.9841 7.04286 0
M  V30 10162 H 1402 0.739928 6.497 0
M  V30 10163 H 1403.49 0.60668 8.36503 0
M  V30 10164 H 1401.79 -0.352479 10.1829 0
M  V30 10165 H 1401.6 2.00611 10.0304 0
M  V30 10166 H 1399.97 1.41843 9.55327 0
M  V30 10167 H 1402.61 -1.95734 6.03555 0
M  V30 10168 P 1404.47 -1.25109 8.70152 0
M  V30 10169 O 1405.89 -1.35274 9.21221 0
M  V30 10170 O 1404.11 -0.0769065 7.84762 0
M  V30 10171 O 1404.15 -2.55232 7.81161 0
M  V30 10172 C 1403.99 -3.79939 8.58154 0
M  V30 10173 C 1404.53 -4.94023 7.72785 0
M  V30 10174 O 1403.47 -5.18726 6.91205 0
M  V30 10175 C 1405.75 -4.69597 6.85231 0
M  V30 10176 O 1406.48 -5.83832 6.51337 0
M  V30 10177 C 1405.08 -3.96706 5.66633 0
M  V30 10178 O 1405.88 -4.15414 4.49689 0
M  V30 10179 C 1403.74 -4.66153 5.59313 0
M  V30 10180 H 1403.77 -5.47679 4.85214 0
M  V30 10181 H 1404.96 -2.89008 5.86566 0
M  V30 10182 H 1406.44 -4.0121 7.36511 0
M  V30 10183 H 1404.75 -5.80182 8.37584 0
M  V30 10184 H 1404.56 -3.73517 9.52265 0
M  V30 10185 H 1402.93 -3.97163 8.80359 0
M  V30 10186 H 1405.56 -4.90969 4.01921 0
M  V30 10187 P 1407.42 -5.75688 6.64379 0
M  V30 10188 O 1408.84 -6.11849 7.01846 0
M  V30 10189 O 1407.06 -4.30744 6.56026 0
M  V30 10190 O 1407.1 -6.37042 5.19165 0
M  V30 10191 C 1406.94 -7.83578 5.16515 0
M  V30 10192 C 1407.48 -8.33398 3.83019 0
M  V30 10193 O 1406.42 -8.10074 3.01034 0
M  V30 10194 C 1408.7 -7.65514 3.2257 0
M  V30 10195 O 1409.43 -8.4329 2.32297 0
M  V30 10196 C 1408.03 -6.40075 2.62207 0
M  V30 10197 O 1408.83 -5.92589 1.53712 0
M  V30 10198 C 1406.69 -6.9454 2.18503 0
M  V30 10199 H 1406.72 -7.23063 1.12091 0
M  V30 10200 H 1407.91 -5.6025 3.37201 0
M  V30 10201 H 1409.39 -7.35707 4.02681 0
M  V30 10202 H 1407.7 -9.40912 3.9095 0
M  V30 10203 H 1407.51 -8.29056 5.99158 0
M  V30 10204 H 1405.88 -8.10073 5.25882 0
M  V30 10205 H 1408.51 -6.30324 0.726794 0
M  V30 10206 P 1410.37 -8.4349 2.47671 0
M  V30 10207 O 1411.79 -8.94167 2.5964 0
M  V30 10208 O 1410.01 -7.1704 3.19006 0
M  V30 10209 O 1410.05 -8.16596 0.923387 0
M  V30 10210 C 1409.89 -9.38437 0.108857 0
M  V30 10211 C 1410.43 -9.08175 -1.28353 0
M  V30 10212 O 1409.37 -8.44229 -1.84713 0
M  V30 10213 C 1411.65 -8.18386 -1.42505 0
M  V30 10214 O 1412.39 -8.3501 -2.60497 0
M  V30 10215 C 1410.98 -6.80225 -1.25468 0
M  V30 10216 O 1411.78 -5.81621 -1.91066 0
M  V30 10217 C 1409.64 -7.02416 -1.9168 0
M  V30 10218 H 1409.67 -6.6888 -2.96621 0
M  V30 10219 H 1410.86 -6.53617 -0.192223 0
M  V30 10220 H 1412.34 -8.36622 -0.589963 0
M  V30 10221 H 1410.65 -10.0291 -1.79807 0
M  V30 10222 H 1410.46 -10.2138 0.558219 0
M  V30 10223 H 1408.83 -9.6579 0.0444202 0
M  V30 10224 H 1411.47 -5.69556 -2.79637 0
M  V30 10225 P 1413.32 -8.4349 -2.47671 0
M  V30 10226 O 1414.75 -8.92593 -2.65 0
M  V30 10227 O 1412.96 -7.7568 -1.19296 0
M  V30 10228 O 1413 -7.36886 -3.63805 0
M  V30 10229 C 1412.84 -7.95349 -4.982 0
M  V30 10230 C 1413.38 -6.94612 -5.98974 0
M  V30 10231 O 1412.32 -6.10347 -6.11815 0
M  V30 10232 C 1414.6 -6.11426 -5.62335 0
M  V30 10233 O 1415.34 -5.6162 -6.70584 0
M  V30 10234 C 1413.93 -5.04409 -4.73308 0
M  V30 10235 O 1414.73 -3.85992 -4.75183 0
M  V30 10236 C 1412.59 -4.8728 -5.41006 0
M  V30 10237 H 1412.62 -4.02333 -6.11157 0
M  V30 10238 H 1413.81 -5.39466 -3.69543 0
M  V30 10239 H 1415.29 -6.71916 -5.01943 0
M  V30 10240 H 1413.6 -7.4649 -6.93477 0
M  V30 10241 H 1413.41 -8.89416 -5.05237 0
M  V30 10242 H 1411.78 -8.14876 -5.18409 0
M  V30 10243 H 1414.42 -3.27957 -5.4317 0
M  V30 10244 P 1416.27 -5.75688 -6.64379 0
M  V30 10245 O 1417.7 -6.07627 -7.05504 0
M  V30 10246 O 1415.91 -5.88047 -5.19722 0
M  V30 10247 O 1415.95 -4.2322 -7.04443 0
M  V30 10248 C 1415.79 -3.99743 -8.4911 0
M  V30 10249 C 1416.33 -2.60516 -8.79425 0
M  V30 10250 O 1415.27 -1.82684 -8.4467 0
M  V30 10251 C 1417.55 -2.10343 -8.03628 0
M  V30 10252 O 1418.29 -1.09919 -8.67766 0
M  V30 10253 C 1416.88 -1.68446 -6.70876 0
M  V30 10254 O 1417.68 -0.678137 -6.08433 0
M  V30 10255 C 1415.54 -1.17436 -7.18567 0
M  V30 10256 H 1415.57 -0.0804732 -7.31656 0
M  V30 10257 H 1416.76 -2.54037 -6.02537 0
M  V30 10258 H 1418.24 -2.93881 -7.85526 0
M  V30 10259 H 1416.55 -2.53065 -9.86973 0
M  V30 10260 H 1416.36 -4.75072 -9.05887 0
M  V30 10261 H 1414.73 -4.05244 -8.76668 0
M  V30 10262 H 1417.37 0.177647 -6.34251 0
M  V30 10263 P 1419.22 -1.25109 -8.70152 0
M  V30 10264 O 1420.65 -1.29744 -9.22016 0
M  V30 10265 O 1418.86 -2.13714 -7.55141 0
M  V30 10266 O 1418.9 0.248149 -8.21425 0
M  V30 10267 C 1418.74 1.22779 -9.30434 0
M  V30 10268 C 1419.28 2.56293 -8.80664 0
M  V30 10269 O 1418.23 3.02979 -8.09349 0
M  V30 10270 C 1420.5 2.57523 -7.89775 0
M  V30 10271 O 1421.24 3.7668 -7.89438 0
M  V30 10272 C 1419.83 2.20997 -6.55446 0
M  V30 10273 O 1420.63 2.71895 -5.48509 0
M  V30 10274 C 1418.49 2.89693 -6.67988 0
M  V30 10275 H 1418.53 3.88793 -6.19859 0
M  V30 10276 H 1419.71 1.12046 -6.44229 0
M  V30 10277 H 1421.19 1.7746 -8.19711 0
M  V30 10278 H 1419.5 3.20706 -9.67112 0
M  V30 10279 H 1419.31 0.901032 -10.1892 0
M  V30 10280 H 1417.68 1.33049 -9.56592 0
M  V30 10281 H 1420.32 3.57847 -5.23962 0
M  V30 10282 P 1422.17 3.65191 -7.99657 0
M  V30 10283 O 1423.6 3.89332 -8.45794 0
M  V30 10284 O 1421.81 2.28472 -7.50807 0
M  V30 10285 O 1421.85 4.64972 -6.77611 0
M  V30 10286 C 1421.69 6.06319 -7.16352 0
M  V30 10287 C 1422.23 6.91731 -6.02299 0
M  V30 10288 O 1421.18 6.92449 -5.17064 0
M  V30 10289 C 1423.45 6.43627 -5.25174 0
M  V30 10290 O 1424.19 7.43686 -4.60469 0
M  V30 10291 C 1422.78 5.40275 -4.31916 0
M  V30 10292 O 1423.58 5.25279 -3.14438 0
M  V30 10293 C 1421.44 6.04847 -4.05327 0
M  V30 10294 H 1421.48 6.62195 -3.11261 0
M  V30 10295 H 1422.66 4.42556 -4.81383 0
M  V30 10296 H 1424.14 5.92458 -5.93643 0
M  V30 10297 H 1422.45 7.92655 -6.402 0
M  V30 10298 H 1422.26 6.26671 -8.0846 0
M  V30 10299 H 1420.63 6.29101 -7.32804 0
M  V30 10300 H 1423.27 5.84315 -2.47318 0
M  V30 10301 P 1425.13 7.39546 -4.75277 0
M  V30 10302 O 1426.55 7.84798 -5.01039 0
M  V30 10303 O 1424.77 5.9812 -5.08098 0
M  V30 10304 O 1424.8 7.57503 -3.1866 0
M  V30 10305 C 1424.64 8.97357 -2.74833 0
M  V30 10306 C 1425.18 9.07548 -1.32709 0
M  V30 10307 O 1424.13 8.62072 -0.606159 0
M  V30 10308 C 1426.4 8.25383 -0.938334 0
M  V30 10309 O 1427.14 8.74577 0.146954 0
M  V30 10310 C 1425.73 6.8802 -0.712559 0
M  V30 10311 O 1426.53 6.1189 0.194655 0
M  V30 10312 C 1424.39 7.27966 -0.139777 0
M  V30 10313 H 1424.43 7.25354 0.961601 0
M  V30 10314 H 1425.61 6.32557 -1.65702 0
M  V30 10315 H 1427.09 8.19355 -1.79097 0
M  V30 10316 H 1425.4 10.1294 -1.10029 0
M  V30 10317 H 1425.21 9.64276 -3.41316 0
M  V30 10318 H 1423.58 9.25417 -2.76357 0
M  V30 10319 H 1426.22 6.25267 1.07847 0
M  V30 10320 P 1428.08 8.791 1.16485e-11 0
M  V30 10321 O 1429.5 9.31196 0.027936 0
M  V30 10322 O 1427.72 7.77869 -1.04071 0
M  V30 10323 O 1427.75 8.09533 1.41463 0
M  V30 10324 C 1427.59 9.03587 2.5397 0
M  V30 10325 C 1428.13 8.35226 3.79016 0
M  V30 10326 O 1427.08 7.57904 4.1503 0
M  V30 10327 C 1429.35 7.45087 3.67298 0
M  V30 10328 O 1430.09 7.27796 4.85194 0
M  V30 10329 C 1428.68 6.17323 3.12027 0
M  V30 10330 O 1429.48 5.04496 3.46627 0
M  V30 10331 C 1427.34 6.19961 3.81809 0
M  V30 10332 N 1426.3 5.71575 2.93223 0
M  V30 10333 C 1426.47 5.77362 1.59168 0
M  V30 10334 N 1425.44 5.3123 0.911893 0
M  V30 10335 C 1424.56 4.91717 1.89588 0
M  V30 10336 C 1423.29 4.3114 1.8076 0
M  V30 10337 N 1422.73 4.06823 3.02898 0
M  V30 10338 C 1423.33 4.35062 4.22711 0
M  V30 10339 N 1424.51 4.90805 4.35707 0
M  V30 10340 C 1425.08 5.16382 3.14469 0
M  V30 10341 H 1428.56 6.21428 2.0318 0
M  V30 10342 H 1430.04 7.86112 2.9231 0
M  V30 10343 H 1428.35 9.11171 4.55987 0
M  V30 10344 H 1428.16 9.9573 2.34194 0
M  V30 10345 H 1426.53 9.2792 2.67832 0
M  V30 10346 H 1427.37 6.16575 1.12198 0
M  V30 10347 H 1429.17 4.67628 4.28704 0
M  V30 10348 P 1431.03 7.39546 4.75277 0
M  V30 10349 O 1432.45 7.81861 5.05793 0
M  V30 10350 O 1430.67 7.1065 3.32998 0
M  V30 10351 O 1430.7 6.04542 5.56673 0
M  V30 10352 C 1430.54 6.22839 7.02169 0
M  V30 10353 C 1431.08 4.97725 7.70406 0
M  V30 10354 O 1430.03 4.13208 7.58899 0
M  V30 10355 C 1432.3 4.28231 7.11815 0
M  V30 10356 O 1433.04 3.49945 8.01648 0
M  V30 10357 C 1431.63 3.5063 5.96244 0
M  V30 10358 O 1432.43 2.37008 5.64352 0
M  V30 10359 C 1430.3 3.15122 6.56374 0
M  V30 10360 N 1429.25 3.22311 5.55692 0
M  V30 10361 C 1429.42 3.99655 4.46046 0
M  V30 10362 N 1428.39 3.97599 3.63918 0
M  V30 10363 C 1427.51 3.11159 4.25334 0
M  V30 10364 C 1426.24 2.64972 3.85157 0
M  V30 10365 N 1425.64 3.02132 2.69405 0
M  V30 10366 N 1425.68 1.78482 4.74759 0
M  V30 10367 C 1426.28 1.37463 5.90819 0
M  V30 10368 N 1427.46 1.7733 6.31889 0
M  V30 10369 C 1428.03 2.64393 5.43725 0
M  V30 10370 H 1430.33 2.13823 6.99656 0
M  V30 10371 H 1431.51 4.12931 5.06895 0
M  V30 10372 H 1432.99 5.03285 6.70911 0
M  V30 10373 H 1431.3 5.20001 8.76217 0
M  V30 10374 H 1431.11 7.11046 7.35349 0
M  V30 10375 H 1429.48 6.35815 7.26986 0
M  V30 10376 H 1425.74 0.66574 6.53015 0
M  V30 10377 H 1430.32 4.58037 4.27732 0
M  V30 10378 H 1424.71 2.64828 2.45331 0
M  V30 10379 H 1426.12 3.67472 2.05644 0
M  V30 10380 H 1432.12 1.61619 6.13468 0
M  V30 10381 P 1433.98 3.65191 7.99657 0
M  V30 10382 O 1435.4 3.8425 8.48115 0
M  V30 10383 O 1433.62 4.17805 6.64342 0
M  V30 10384 O 1433.65 2.07613 7.95143 0
M  V30 10385 C 1433.49 1.44328 9.27336 0
M  V30 10386 C 1434.03 0.0220036 9.17197 0
M  V30 10387 O 1432.98 -0.626867 8.61923 0
M  V30 10388 C 1435.25 -0.24586 8.30336 0
M  V30 10389 O 1435.99 -1.39011 8.63583 0
M  V30 10390 C 1434.58 -0.273849 6.91158 0
M  V30 10391 O 1435.38 -1.06348 6.02892 0
M  V30 10392 C 1433.25 -0.897649 7.22545 0
M  V30 10393 H 1433.28 -1.9841 7.04286 0
M  V30 10394 H 1434.46 0.739928 6.497 0
M  V30 10395 H 1435.95 0.60668 8.36503 0
M  V30 10396 H 1434.25 -0.352479 10.1829 0
M  V30 10397 H 1434.06 2.00611 10.0304 0
M  V30 10398 H 1432.43 1.41843 9.55327 0
M  V30 10399 H 1435.07 -1.95734 6.03555 0
M  V30 10400 P 1436.93 -1.25109 8.70152 0
M  V30 10401 O 1438.35 -1.35288 9.2132 0
M  V30 10402 O 1436.57 -0.0769065 7.84762 0
M  V30 10403 O 1436.6 -2.55232 7.81161 0
M  V30 10404 C 1436.44 -3.79979 8.58246 0
M  V30 10405 C 1436.98 -4.94023 7.72785 0
M  V30 10406 O 1435.93 -5.18666 6.91125 0
M  V30 10407 C 1438.2 -4.69597 6.85231 0
M  V30 10408 O 1438.94 -5.83832 6.51337 0
M  V30 10409 C 1437.53 -3.96706 5.66633 0
M  V30 10410 O 1438.33 -4.14896 4.5003 0
M  V30 10411 C 1436.2 -4.66153 5.59313 0
M  V30 10412 N 1435.15 -3.71582 5.24027 0
M  V30 10413 C 1435.32 -2.39715 5.48833 0
M  V30 10414 N 1434.3 -1.65863 5.12845 0
M  V30 10415 C 1433.41 -2.57637 4.5973 0
M  V30 10416 C 1432.14 -2.40278 4.01027 0
M  V30 10417 N 1431.54 -1.19549 3.86744 0
M  V30 10418 N 1431.58 -3.57711 3.59575 0
M  V30 10419 C 1432.18 -4.80324 3.70476 0
M  V30 10420 N 1433.36 -5.01121 4.23801 0
M  V30 10421 C 1433.93 -3.84757 4.66372 0
M  V30 10422 H 1436.23 -5.47604 4.85148 0
M  V30 10423 H 1437.41 -2.8955 5.86187 0
M  V30 10424 H 1438.89 -4.0121 7.36511 0
M  V30 10425 H 1437.2 -5.81019 8.37003 0
M  V30 10426 H 1437.01 -3.73517 9.52265 0
M  V30 10427 H 1435.38 -3.97163 8.80359 0
M  V30 10428 H 1431.64 -5.66348 3.3183 0
M  V30 10429 H 1436.22 -1.98804 5.94332 0
M  V30 10430 H 1430.61 -1.13147 3.4281 0
M  V30 10431 H 1432.02 -0.344074 4.19692 0
M  V30 10432 H 1438.02 -4.90891 4.01857 0
M  V30 10433 P 1439.88 -5.75688 6.64379 0
M  V30 10434 O 1441.3 -6.11849 7.01846 0
M  V30 10435 O 1439.52 -4.30744 6.56026 0
M  V30 10436 O 1439.56 -6.37042 5.19165 0
M  V30 10437 C 1439.4 -7.83578 5.16515 0
M  V30 10438 C 1439.94 -8.33398 3.83019 0
M  V30 10439 O 1438.88 -8.10074 3.01034 0
M  V30 10440 C 1441.15 -7.65514 3.2257 0
M  V30 10441 O 1441.89 -8.4329 2.32297 0
M  V30 10442 C 1440.48 -6.40075 2.62207 0
M  V30 10443 O 1441.28 -5.92589 1.53712 0
M  V30 10444 C 1439.15 -6.9454 2.18503 0
M  V30 10445 H 1439.18 -7.23063 1.12091 0
M  V30 10446 H 1440.36 -5.6025 3.37201 0
M  V30 10447 H 1441.85 -7.35707 4.02681 0
M  V30 10448 H 1440.15 -9.40912 3.9095 0
M  V30 10449 H 1439.96 -8.29056 5.99158 0
M  V30 10450 H 1438.33 -8.10073 5.25882 0
M  V30 10451 H 1440.97 -6.30324 0.726794 0
M  V30 10452 P 1442.83 -8.4349 2.47671 0
M  V30 10453 O 1444.25 -8.94167 2.5964 0
M  V30 10454 O 1442.47 -7.1704 3.19006 0
M  V30 10455 O 1442.51 -8.16596 0.923387 0
M  V30 10456 C 1442.35 -9.38437 0.108857 0
M  V30 10457 C 1442.89 -9.08175 -1.28353 0
M  V30 10458 O 1441.83 -8.44229 -1.84713 0
M  V30 10459 C 1444.1 -8.18386 -1.42505 0
M  V30 10460 O 1444.84 -8.3501 -2.60497 0
M  V30 10461 C 1443.43 -6.80225 -1.25468 0
M  V30 10462 O 1444.23 -5.81621 -1.91066 0
M  V30 10463 C 1442.1 -7.02416 -1.9168 0
M  V30 10464 H 1442.13 -6.6888 -2.96621 0
M  V30 10465 H 1443.31 -6.53617 -0.192223 0
M  V30 10466 H 1444.8 -8.36622 -0.589963 0
M  V30 10467 H 1443.1 -10.0291 -1.79807 0
M  V30 10468 H 1442.91 -10.2138 0.558219 0
M  V30 10469 H 1441.28 -9.6579 0.0444202 0
M  V30 10470 H 1443.92 -5.69556 -2.79637 0
M  V30 10471 P 1445.78 -8.4349 -2.47671 0
M  V30 10472 O 1447.2 -8.92689 -2.65029 0
M  V30 10473 O 1445.42 -7.7568 -1.19296 0
M  V30 10474 O 1445.46 -7.36886 -3.63805 0
M  V30 10475 C 1445.3 -7.95433 -4.98253 0
M  V30 10476 C 1445.84 -6.94612 -5.98974 0
M  V30 10477 O 1444.78 -6.10277 -6.11744 0
M  V30 10478 C 1447.05 -6.11426 -5.62335 0
M  V30 10479 O 1447.79 -5.6162 -6.70584 0
M  V30 10480 C 1446.39 -5.04409 -4.73308 0
M  V30 10481 O 1447.18 -3.86404 -4.74719 0
M  V30 10482 C 1445.05 -4.8728 -5.41006 0
M  V30 10483 N 1444.01 -4.65812 -4.42377 0
M  V30 10484 C 1444.17 -5.09132 -3.15382 0
M  V30 10485 N 1443.15 -4.84021 -2.3716 0
M  V30 10486 C 1442.26 -4.18386 -3.20441 0
M  V30 10487 C 1441 -3.6275 -2.94905 0
M  V30 10488 N 1440.43 -3.05008 -4.05243 0
M  V30 10489 C 1441.03 -2.98348 -5.28159 0
M  V30 10490 N 1442.21 -3.48171 -5.56333 0
M  V30 10491 C 1442.78 -4.06869 -4.47212 0
M  V30 10492 H 1446.26 -5.39013 -3.70026 0
M  V30 10493 H 1447.75 -6.71916 -5.01943 0
M  V30 10494 H 1446.05 -7.45796 -6.94223 0
M  V30 10495 H 1445.86 -8.89416 -5.05237 0
M  V30 10496 H 1444.23 -8.14876 -5.18409 0
M  V30 10497 H 1445.07 -5.59989 -2.81362 0
M  V30 10498 H 1446.87 -3.27906 -5.43085 0
M  V30 10499 P 1448.73 -5.75688 -6.64379 0
M  V30 10500 O 1450.15 -6.07627 -7.05504 0
M  V30 10501 O 1448.37 -5.88047 -5.19722 0
M  V30 10502 O 1448.41 -4.2322 -7.04443 0
M  V30 10503 C 1448.25 -3.99743 -8.4911 0
M  V30 10504 C 1448.79 -2.60516 -8.79425 0
M  V30 10505 O 1447.73 -1.82684 -8.4467 0
M  V30 10506 C 1450 -2.10343 -8.03628 0
M  V30 10507 O 1450.74 -1.09919 -8.67766 0
M  V30 10508 C 1449.34 -1.68446 -6.70876 0
M  V30 10509 O 1450.13 -0.678137 -6.08433 0
M  V30 10510 C 1448 -1.17436 -7.18567 0
M  V30 10511 H 1448.03 -0.0804732 -7.31656 0
M  V30 10512 H 1449.21 -2.54037 -6.02537 0
M  V30 10513 H 1450.7 -2.93881 -7.85526 0
M  V30 10514 H 1449 -2.53065 -9.86973 0
M  V30 10515 H 1448.81 -4.75072 -9.05887 0
M  V30 10516 H 1447.18 -4.05244 -8.76668 0
M  V30 10517 H 1449.82 0.177647 -6.34251 0
M  V30 10518 P 1451.68 -1.25109 -8.70152 0
M  V30 10519 O 1453.08 -1.3516 -9.26897 0
M  V30 10520 O 1451.3 -2.18141 -7.59181 0
M  V30 10521 O 1451.36 0.248118 -8.21325 0
M  V30 10522 C 1451.2 1.22779 -9.30434 0
M  V30 10523 C 1451.74 2.56265 -8.80568 0
M  V30 10524 O 1450.68 3.02944 -8.09255 0
M  V30 10525 C 1452.95 2.57523 -7.89775 0
M  V30 10526 O 1453.69 3.7668 -7.89438 0
M  V30 10527 C 1452.29 2.20997 -6.55446 0
M  V30 10528 O 1453.09 2.71851 -5.48419 0
M  V30 10529 C 1450.95 2.89693 -6.67988 0
M  V30 10530 N 1449.91 2.08895 -6.07487 0
M  V30 10531 C 1448.87 2.72974 -5.43836 0
M  V30 10532 O 1448.91 3.97779 -5.34036 0
M  V30 10533 N 1447.86 2.0005 -4.91983 0
M  V30 10534 C 1447.91 0.66501 -5.00098 0
M  V30 10535 N 1446.9 -0.0305439 -4.4919 0
M  V30 10536 C 1449 -0.0100979 -5.61099 0
M  V30 10537 C 1449.97 0.74189 -6.14236 0
M  V30 10538 H 1450.98 3.8874 -6.19774 0
M  V30 10539 H 1452.16 1.12673 -6.44018 0
M  V30 10540 H 1453.65 1.783 -8.19631 0
M  V30 10541 H 1451.95 3.21673 -9.66791 0
M  V30 10542 H 1451.76 0.901032 -10.1892 0
M  V30 10543 H 1450.13 1.33036 -9.56493 0
M  V30 10544 H 1449.05 -1.09591 -5.64358 0
M  V30 10545 H 1450.82 0.260263 -6.6359 0
M  V30 10546 H 1446.11 0.460194 -4.04793 0
M  V30 10547 H 1446.9 -1.05716 -4.53953 0
M  V30 10548 H 1452.87 3.62759 -5.33442 0
M  V30 10549 P 1454.63 3.65191 -7.99657 0
M  V30 10550 O 1456.05 3.89332 -8.45794 0
M  V30 10551 O 1454.27 2.28472 -7.50807 0
M  V30 10552 O 1454.31 4.64972 -6.77611 0
M  V30 10553 C 1454.15 6.06319 -7.16352 0
M  V30 10554 C 1454.69 6.91731 -6.02299 0
M  V30 10555 O 1453.63 6.92449 -5.17064 0
M  V30 10556 C 1455.91 6.43627 -5.25174 0
M  V30 10557 O 1456.64 7.43686 -4.60469 0
M  V30 10558 C 1455.24 5.40275 -4.31916 0
M  V30 10559 O 1456.04 5.25279 -3.14438 0
M  V30 10560 C 1453.9 6.04847 -4.05327 0
M  V30 10561 H 1453.93 6.62195 -3.11261 0
M  V30 10562 H 1455.12 4.42556 -4.81383 0
M  V30 10563 H 1456.6 5.92458 -5.93643 0
M  V30 10564 H 1454.91 7.92655 -6.402 0
M  V30 10565 H 1454.72 6.26671 -8.0846 0
M  V30 10566 H 1453.09 6.29101 -7.32804 0
M  V30 10567 H 1455.72 5.84315 -2.47318 0
M  V30 10568 P 1457.58 7.39546 -4.75277 0
M  V30 10569 O 1459 7.84798 -5.01039 0
M  V30 10570 O 1457.22 5.9812 -5.08098 0
M  V30 10571 O 1457.26 7.57503 -3.1866 0
M  V30 10572 C 1457.1 8.97357 -2.74833 0
M  V30 10573 C 1457.64 9.07548 -1.32709 0
M  V30 10574 O 1456.58 8.62072 -0.606159 0
M  V30 10575 C 1458.86 8.25383 -0.938334 0
M  V30 10576 O 1459.59 8.74577 0.146954 0
M  V30 10577 C 1458.19 6.8802 -0.712559 0
M  V30 10578 O 1458.99 6.1189 0.194655 0
M  V30 10579 C 1456.85 7.27966 -0.139777 0
M  V30 10580 H 1456.88 7.25354 0.961601 0
M  V30 10581 H 1458.07 6.32557 -1.65702 0
M  V30 10582 H 1459.55 8.19355 -1.79097 0
M  V30 10583 H 1457.86 10.1294 -1.10029 0
M  V30 10584 H 1457.67 9.64276 -3.41316 0
M  V30 10585 H 1456.04 9.25417 -2.76357 0
M  V30 10586 H 1458.67 6.25267 1.07847 0
M  V30 10587 P 1460.53 8.791 1.19586e-11 0
M  V30 10588 O 1461.95 9.31196 0.027936 0
M  V30 10589 O 1460.17 7.77869 -1.04071 0
M  V30 10590 O 1460.21 8.09533 1.41463 0
M  V30 10591 C 1460.05 9.03587 2.5397 0
M  V30 10592 C 1460.59 8.35226 3.79016 0
M  V30 10593 O 1459.53 7.57904 4.1503 0
M  V30 10594 C 1461.81 7.45087 3.67298 0
M  V30 10595 O 1462.55 7.27796 4.85194 0
M  V30 10596 C 1461.14 6.17323 3.12027 0
M  V30 10597 O 1461.94 5.04496 3.46627 0
M  V30 10598 C 1459.8 6.19961 3.81809 0
M  V30 10599 N 1458.76 5.71575 2.93223 0
M  V30 10600 C 1458.93 5.77362 1.59168 0
M  V30 10601 N 1457.9 5.3123 0.911893 0
M  V30 10602 C 1457.02 4.91717 1.89588 0
M  V30 10603 C 1455.75 4.3114 1.8076 0
M  V30 10604 N 1455.15 3.99821 0.632928 0
M  V30 10605 N 1455.18 4.06823 3.02898 0
M  V30 10606 C 1455.79 4.35062 4.22711 0
M  V30 10607 N 1456.96 4.90805 4.35707 0
M  V30 10608 C 1457.54 5.16382 3.14469 0
M  V30 10609 H 1459.83 5.58142 4.72986 0
M  V30 10610 H 1461.02 6.21428 2.0318 0
M  V30 10611 H 1462.5 7.86112 2.9231 0
M  V30 10612 H 1460.81 9.11171 4.55987 0
M  V30 10613 H 1460.62 9.9573 2.34194 0
M  V30 10614 H 1458.99 9.2792 2.67832 0
M  V30 10615 H 1455.25 4.09052 5.13359 0
M  V30 10616 H 1459.83 6.16575 1.12198 0
M  V30 10617 H 1454.22 3.55423 0.632085 0
M  V30 10618 H 1455.62 4.20317 -0.256712 0
M  V30 10619 H 1461.63 4.67628 4.28704 0
M  V30 10620 P 1463.48 7.39546 4.75277 0
M  V30 10621 O 1464.9 7.81777 5.05738 0
M  V30 10622 O 1463.12 7.1065 3.32998 0
M  V30 10623 O 1463.16 6.04542 5.56673 0
M  V30 10624 C 1463 6.22772 7.02095 0
M  V30 10625 C 1463.54 4.97725 7.70406 0
M  V30 10626 O 1462.48 4.13256 7.58987 0
M  V30 10627 C 1464.76 4.28231 7.11815 0
M  V30 10628 O 1465.5 3.49945 8.01648 0
M  V30 10629 C 1464.09 3.5063 5.96244 0
M  V30 10630 O 1464.89 2.36482 5.64681 0
M  V30 10631 C 1462.75 3.15122 6.56374 0
M  V30 10632 H 1462.78 2.13853 6.99751 0
M  V30 10633 H 1463.97 4.13501 5.06559 0
M  V30 10634 H 1465.45 5.03285 6.70911 0
M  V30 10635 H 1463.76 5.20877 8.75697 0
M  V30 10636 H 1463.57 7.11046 7.35349 0
M  V30 10637 H 1461.94 6.35815 7.26986 0
M  V30 10638 H 1464.58 1.61644 6.13565 0
M  V30 10639 P 1466.43 3.65191 7.99657 0
M  V30 10640 O 1467.86 3.8425 8.48115 0
M  V30 10641 O 1466.07 4.17805 6.64342 0
M  V30 10642 O 1466.11 2.07613 7.95143 0
M  V30 10643 C 1465.95 1.44328 9.27336 0
M  V30 10644 C 1466.49 0.0220036 9.17197 0
M  V30 10645 O 1465.43 -0.626867 8.61923 0
M  V30 10646 C 1467.71 -0.24586 8.30336 0
M  V30 10647 O 1468.45 -1.39011 8.63583 0
M  V30 10648 C 1467.04 -0.273849 6.91158 0
M  V30 10649 O 1467.84 -1.06348 6.02892 0
M  V30 10650 C 1465.7 -0.897649 7.22545 0
M  V30 10651 H 1465.73 -1.9841 7.04286 0
M  V30 10652 H 1466.92 0.739928 6.497 0
M  V30 10653 H 1468.4 0.60668 8.36503 0
M  V30 10654 H 1466.71 -0.352479 10.1829 0
M  V30 10655 H 1466.52 2.00611 10.0304 0
M  V30 10656 H 1464.89 1.41843 9.55327 0
M  V30 10657 H 1467.53 -1.95734 6.03555 0
M  V30 10658 P 1469.38 -1.25109 8.70152 0
M  V30 10659 O 1470.81 -1.35274 9.21221 0
M  V30 10660 O 1469.02 -0.0769065 7.84762 0
M  V30 10661 O 1469.06 -2.55232 7.81161 0
M  V30 10662 C 1468.9 -3.79939 8.58154 0
M  V30 10663 C 1469.44 -4.94023 7.72785 0
M  V30 10664 O 1468.38 -5.18726 6.91205 0
M  V30 10665 C 1470.66 -4.69597 6.85231 0
M  V30 10666 O 1471.4 -5.83832 6.51337 0
M  V30 10667 C 1469.99 -3.96706 5.66633 0
M  V30 10668 O 1470.79 -4.15414 4.49689 0
M  V30 10669 C 1468.65 -4.66153 5.59313 0
M  V30 10670 H 1468.68 -5.47679 4.85214 0
M  V30 10671 H 1469.87 -2.89008 5.86566 0
M  V30 10672 H 1471.35 -4.0121 7.36511 0
M  V30 10673 H 1469.66 -5.80182 8.37584 0
M  V30 10674 H 1469.47 -3.73517 9.52265 0
M  V30 10675 H 1467.84 -3.97163 8.80359 0
M  V30 10676 H 1470.48 -4.90969 4.01921 0
M  V30 10677 P 1472.33 -5.75688 6.64379 0
M  V30 10678 O 1473.76 -6.11849 7.01846 0
M  V30 10679 O 1471.97 -4.30744 6.56026 0
M  V30 10680 O 1472.01 -6.37042 5.19165 0
M  V30 10681 C 1471.85 -7.83578 5.16515 0
M  V30 10682 C 1472.39 -8.33398 3.83019 0
M  V30 10683 O 1471.34 -8.10074 3.01034 0
M  V30 10684 C 1473.61 -7.65514 3.2257 0
M  V30 10685 O 1474.35 -8.4329 2.32297 0
M  V30 10686 C 1472.94 -6.40075 2.62207 0
M  V30 10687 O 1473.74 -5.92589 1.53712 0
M  V30 10688 C 1471.6 -6.9454 2.18503 0
M  V30 10689 H 1471.64 -7.23063 1.12091 0
M  V30 10690 H 1472.82 -5.6025 3.37201 0
M  V30 10691 H 1474.3 -7.35707 4.02681 0
M  V30 10692 H 1472.61 -9.40912 3.9095 0
M  V30 10693 H 1472.42 -8.29056 5.99158 0
M  V30 10694 H 1470.79 -8.10073 5.25882 0
M  V30 10695 H 1473.43 -6.30324 0.726794 0
M  V30 10696 P 1475.28 -8.4349 2.47671 0
M  V30 10697 O 1476.71 -8.94167 2.5964 0
M  V30 10698 O 1474.92 -7.1704 3.19006 0
M  V30 10699 O 1474.96 -8.16596 0.923387 0
M  V30 10700 C 1474.8 -9.38437 0.108857 0
M  V30 10701 C 1475.34 -9.08175 -1.28353 0
M  V30 10702 O 1474.29 -8.44229 -1.84713 0
M  V30 10703 C 1476.56 -8.18386 -1.42505 0
M  V30 10704 O 1477.3 -8.3501 -2.60497 0
M  V30 10705 C 1475.89 -6.80225 -1.25468 0
M  V30 10706 O 1476.69 -5.81621 -1.91066 0
M  V30 10707 C 1474.55 -7.02416 -1.9168 0
M  V30 10708 H 1474.59 -6.6888 -2.96621 0
M  V30 10709 H 1475.77 -6.53617 -0.192223 0
M  V30 10710 H 1477.25 -8.36622 -0.589963 0
M  V30 10711 H 1475.56 -10.0291 -1.79807 0
M  V30 10712 H 1475.37 -10.2138 0.558219 0
M  V30 10713 H 1473.74 -9.6579 0.0444202 0
M  V30 10714 H 1476.38 -5.69556 -2.79637 0
M  V30 10715 P 1478.24 -8.4349 -2.47671 0
M  V30 10716 O 1479.66 -8.92593 -2.65 0
M  V30 10717 O 1477.88 -7.7568 -1.19296 0
M  V30 10718 O 1477.91 -7.36886 -3.63805 0
M  V30 10719 C 1477.75 -7.95349 -4.982 0
M  V30 10720 C 1478.29 -6.94612 -5.98974 0
M  V30 10721 O 1477.24 -6.10347 -6.11815 0
M  V30 10722 C 1479.51 -6.11426 -5.62335 0
M  V30 10723 O 1480.25 -5.6162 -6.70584 0
M  V30 10724 C 1478.84 -5.04409 -4.73308 0
M  V30 10725 O 1479.64 -3.85992 -4.75183 0
M  V30 10726 C 1477.5 -4.8728 -5.41006 0
M  V30 10727 H 1477.54 -4.02333 -6.11157 0
M  V30 10728 H 1478.72 -5.39466 -3.69543 0
M  V30 10729 H 1480.2 -6.71916 -5.01943 0
M  V30 10730 H 1478.51 -7.4649 -6.93477 0
M  V30 10731 H 1478.32 -8.89416 -5.05237 0
M  V30 10732 H 1476.69 -8.14876 -5.18409 0
M  V30 10733 H 1479.33 -3.27957 -5.4317 0
M  V30 10734 P 1481.19 -5.75688 -6.64379 0
M  V30 10735 O 1482.61 -6.07627 -7.05504 0
M  V30 10736 O 1480.83 -5.88047 -5.19722 0
M  V30 10737 O 1480.86 -4.2322 -7.04443 0
M  V30 10738 C 1480.7 -3.99743 -8.4911 0
M  V30 10739 C 1481.24 -2.60516 -8.79425 0
M  V30 10740 O 1480.19 -1.82684 -8.4467 0
M  V30 10741 C 1482.46 -2.10343 -8.03628 0
M  V30 10742 O 1483.2 -1.09919 -8.67766 0
M  V30 10743 C 1481.79 -1.68446 -6.70876 0
M  V30 10744 O 1482.59 -0.678137 -6.08433 0
M  V30 10745 C 1480.46 -1.17436 -7.18567 0
M  V30 10746 H 1480.49 -0.0804732 -7.31656 0
M  V30 10747 H 1481.67 -2.54037 -6.02537 0
M  V30 10748 H 1483.15 -2.93881 -7.85526 0
M  V30 10749 H 1481.46 -2.53065 -9.86973 0
M  V30 10750 H 1481.27 -4.75072 -9.05887 0
M  V30 10751 H 1479.64 -4.05244 -8.76668 0
M  V30 10752 H 1482.28 0.177647 -6.34251 0
M  V30 10753 P 1484.14 -1.25109 -8.70152 0
M  V30 10754 O 1485.56 -1.29772 -9.22214 0
M  V30 10755 O 1483.78 -2.13714 -7.55141 0
M  V30 10756 O 1483.81 0.248149 -8.21425 0
M  V30 10757 C 1483.65 1.22779 -9.30434 0
M  V30 10758 C 1484.19 2.56265 -8.80568 0
M  V30 10759 O 1483.14 3.02979 -8.09349 0
M  V30 10760 C 1485.41 2.57523 -7.89775 0
M  V30 10761 O 1486.15 3.7668 -7.89438 0
M  V30 10762 C 1484.74 2.20997 -6.55446 0
M  V30 10763 O 1485.54 2.71851 -5.48419 0
M  V30 10764 C 1483.41 2.89693 -6.67988 0
M  V30 10765 N 1482.36 2.08895 -6.07487 0
M  V30 10766 C 1482.42 0.760559 -6.14209 0
M  V30 10767 N 1481.38 0.200108 -5.52538 0
M  V30 10768 C 1480.65 1.22692 -5.09742 0
M  V30 10769 C 1479.34 1.24782 -4.48775 0
M  V30 10770 O 1478.61 0.290617 -4.19294 0
M  V30 10771 N 1478.91 2.50468 -4.22428 0
M  V30 10772 C 1479.66 3.67142 -4.51974 0
M  V30 10773 N 1479.06 4.85096 -4.14091 0
M  V30 10774 N 1480.81 3.67821 -5.12831 0
M  V30 10775 C 1481.27 2.43698 -5.4105 0
M  V30 10776 H 1483.44 3.88793 -6.19859 0
M  V30 10777 H 1484.62 1.12029 -6.4413 0
M  V30 10778 H 1486.11 1.78279 -8.19533 0
M  V30 10779 H 1484.41 3.20706 -9.67112 0
M  V30 10780 H 1484.22 0.901032 -10.1892 0
M  V30 10781 H 1482.59 1.33049 -9.56592 0
M  V30 10782 H 1478.01 2.61953 -3.79465 0
M  V30 10783 H 1483.22 0.200439 -6.63497 0
M  V30 10784 H 1478.15 4.8334 -3.66367 0
M  V30 10785 H 1479.53 5.7474 -4.33841 0
M  V30 10786 H 1485.23 3.5779 -5.23879 0
M  V30 10787 P 1487.09 3.65191 -7.99657 0
M  V30 10788 O 1488.49 3.87414 -8.52829 0
M  V30 10789 O 1486.71 2.26932 -7.566 0
M  V30 10790 O 1486.76 4.64915 -6.77529 0
M  V30 10791 C 1486.6 6.06319 -7.16352 0
M  V30 10792 C 1487.14 6.91655 -6.02234 0
M  V30 10793 O 1486.09 6.92369 -5.17005 0
M  V30 10794 C 1488.36 6.43627 -5.25174 0
M  V30 10795 O 1489.1 7.43686 -4.60469 0
M  V30 10796 C 1487.69 5.40275 -4.31916 0
M  V30 10797 O 1488.49 5.25193 -3.14386 0
M  V30 10798 C 1486.36 6.04847 -4.05327 0
M  V30 10799 N 1485.31 5.04166 -3.98114 0
M  V30 10800 C 1484.28 5.2366 -3.09923 0
M  V30 10801 O 1484.32 6.23355 -2.34204 0
M  V30 10802 N 1483.27 4.34279 -3.05727 0
M  V30 10803 C 1483.31 3.26317 -3.84756 0
M  V30 10804 C 1484.41 3.02504 -4.72573 0
M  V30 10805 C 1485.38 3.94493 -4.76618 0
M  V30 10806 H 1486.39 6.62104 -3.11218 0
M  V30 10807 H 1487.57 4.42969 -4.80867 0
M  V30 10808 H 1489.06 5.93122 -5.93121 0
M  V30 10809 H 1487.36 7.93295 -6.39407 0
M  V30 10810 H 1487.17 6.26671 -8.0846 0
M  V30 10811 H 1485.54 6.29036 -7.32728 0
M  V30 10812 H 1484.46 2.12921 -5.34017 0
M  V30 10813 H 1486.22 3.80658 -5.44176 0
M  V30 10814 H 1488.28 5.93572 -2.52637 0
M  V30 10815 P 1490.04 7.39546 -4.75277 0
M  V30 10816 O 1491.46 7.84798 -5.01039 0
M  V30 10817 O 1489.68 5.9812 -5.08098 0
M  V30 10818 O 1489.71 7.57503 -3.1866 0
M  V30 10819 C 1489.55 8.97357 -2.74833 0
M  V30 10820 C 1490.09 9.07548 -1.32709 0
M  V30 10821 O 1489.04 8.62072 -0.606159 0
M  V30 10822 C 1491.31 8.25383 -0.938334 0
M  V30 10823 O 1492.05 8.74577 0.146954 0
M  V30 10824 C 1490.64 6.8802 -0.712559 0
M  V30 10825 O 1491.44 6.1189 0.194655 0
M  V30 10826 C 1489.31 7.27966 -0.139777 0
M  V30 10827 H 1489.34 7.25354 0.961601 0
M  V30 10828 H 1490.52 6.32557 -1.65702 0
M  V30 10829 H 1492.01 8.19355 -1.79097 0
M  V30 10830 H 1490.31 10.1294 -1.10029 0
M  V30 10831 H 1490.12 9.64276 -3.41316 0
M  V30 10832 H 1488.49 9.25417 -2.76357 0
M  V30 10833 H 1491.13 6.25267 1.07847 0
M  V30 10834 P 1492.99 8.791 1.22688e-11 0
M  V30 10835 O 1494.41 9.31096 0.027933 0
M  V30 10836 O 1492.63 7.77869 -1.04071 0
M  V30 10837 O 1492.67 8.09533 1.41463 0
M  V30 10838 C 1492.51 9.0349 2.53943 0
M  V30 10839 C 1493.05 8.35226 3.79016 0
M  V30 10840 O 1491.99 7.57992 4.15078 0
M  V30 10841 C 1494.26 7.45087 3.67298 0
M  V30 10842 O 1495 7.27796 4.85194 0
M  V30 10843 C 1493.59 6.17323 3.12027 0
M  V30 10844 O 1494.39 5.04231 3.47188 0
M  V30 10845 C 1492.26 6.19961 3.81809 0
M  V30 10846 H 1492.29 5.58218 4.73051 0
M  V30 10847 H 1493.47 6.21726 2.02589 0
M  V30 10848 H 1494.96 7.86112 2.9231 0
M  V30 10849 H 1493.26 9.11627 4.55076 0
M  V30 10850 H 1493.07 9.9573 2.34194 0
M  V30 10851 H 1491.44 9.2792 2.67832 0
M  V30 10852 H 1494.08 4.67702 4.28772 0
M  V30 10853 P 1495.94 7.39546 4.75277 0
M  V30 10854 O 1497.36 7.81777 5.05738 0
M  V30 10855 O 1495.58 7.1065 3.32998 0
M  V30 10856 O 1495.62 6.04542 5.56673 0
M  V30 10857 C 1495.46 6.22772 7.02095 0
M  V30 10858 C 1496 4.97725 7.70406 0
M  V30 10859 O 1494.94 4.13256 7.58987 0
M  V30 10860 C 1497.21 4.28231 7.11815 0
M  V30 10861 O 1497.95 3.49945 8.01648 0
M  V30 10862 C 1496.54 3.5063 5.96244 0
M  V30 10863 O 1497.34 2.36482 5.64681 0
M  V30 10864 C 1495.21 3.15122 6.56374 0
M  V30 10865 H 1495.24 2.13853 6.99751 0
M  V30 10866 H 1496.42 4.13501 5.06559 0
M  V30 10867 H 1497.91 5.03285 6.70911 0
M  V30 10868 H 1496.21 5.20877 8.75697 0
M  V30 10869 H 1496.02 7.11046 7.35349 0
M  V30 10870 H 1494.39 6.35815 7.26986 0
M  V30 10871 H 1497.03 1.61644 6.13565 0
M  V30 10872 P 1498.89 3.65191 7.99657 0
M  V30 10873 O 1500.31 3.8425 8.48115 0
M  V30 10874 O 1498.53 4.17805 6.64342 0
M  V30 10875 O 1498.57 2.07613 7.95143 0
M  V30 10876 C 1498.41 1.44328 9.27336 0
M  V30 10877 C 1498.95 0.0220036 9.17197 0
M  V30 10878 O 1497.89 -0.626867 8.61923 0
M  V30 10879 C 1500.16 -0.24586 8.30336 0
M  V30 10880 O 1500.9 -1.39011 8.63583 0
M  V30 10881 C 1499.5 -0.273849 6.91158 0
M  V30 10882 O 1500.29 -1.06348 6.02892 0
M  V30 10883 C 1498.16 -0.897649 7.22545 0
M  V30 10884 H 1498.19 -1.9841 7.04286 0
M  V30 10885 H 1499.37 0.739928 6.497 0
M  V30 10886 H 1500.86 0.60668 8.36503 0
M  V30 10887 H 1499.16 -0.352479 10.1829 0
M  V30 10888 H 1498.97 2.00611 10.0304 0
M  V30 10889 H 1497.34 1.41843 9.55327 0
M  V30 10890 H 1499.98 -1.95734 6.03555 0
M  V30 10891 P 1501.84 -1.25109 8.70152 0
M  V30 10892 O 1503.26 -1.35274 9.21221 0
M  V30 10893 O 1501.48 -0.0769065 7.84762 0
M  V30 10894 O 1501.52 -2.55232 7.81161 0
M  V30 10895 C 1501.36 -3.79939 8.58154 0
M  V30 10896 C 1501.9 -4.94023 7.72785 0
M  V30 10897 O 1500.84 -5.18726 6.91205 0
M  V30 10898 C 1503.12 -4.69597 6.85231 0
M  V30 10899 O 1503.85 -5.83832 6.51337 0
M  V30 10900 C 1502.45 -3.96706 5.66633 0
M  V30 10901 O 1503.25 -4.15414 4.49689 0
M  V30 10902 C 1501.11 -4.66153 5.59313 0
M  V30 10903 H 1501.14 -5.47679 4.85214 0
M  V30 10904 H 1502.32 -2.89008 5.86566 0
M  V30 10905 H 1503.81 -4.0121 7.36511 0
M  V30 10906 H 1502.11 -5.80182 8.37584 0
M  V30 10907 H 1501.92 -3.73517 9.52265 0
M  V30 10908 H 1500.29 -3.97163 8.80359 0
M  V30 10909 H 1502.93 -4.90969 4.01921 0
M  V30 10910 P 1504.79 -5.75688 6.64379 0
M  V30 10911 O 1506.21 -6.11849 7.01846 0
M  V30 10912 O 1504.43 -4.30744 6.56026 0
M  V30 10913 O 1504.47 -6.37042 5.19165 0
M  V30 10914 C 1504.31 -7.83578 5.16515 0
M  V30 10915 C 1504.85 -8.33398 3.83019 0
M  V30 10916 O 1503.79 -8.10074 3.01034 0
M  V30 10917 C 1506.07 -7.65514 3.2257 0
M  V30 10918 O 1506.8 -8.4329 2.32297 0
M  V30 10919 C 1505.4 -6.40075 2.62207 0
M  V30 10920 O 1506.2 -5.92589 1.53712 0
M  V30 10921 C 1504.06 -6.9454 2.18503 0
M  V30 10922 H 1504.09 -7.23063 1.12091 0
M  V30 10923 H 1505.27 -5.6025 3.37201 0
M  V30 10924 H 1506.76 -7.35707 4.02681 0
M  V30 10925 H 1505.06 -9.40912 3.9095 0
M  V30 10926 H 1504.87 -8.29056 5.99158 0
M  V30 10927 H 1503.24 -8.10073 5.25882 0
M  V30 10928 H 1505.88 -6.30324 0.726794 0
M  V30 10929 P 1507.74 -8.4349 2.47671 0
M  V30 10930 O 1509.16 -8.94167 2.5964 0
M  V30 10931 O 1507.38 -7.1704 3.19006 0
M  V30 10932 O 1507.42 -8.16596 0.923387 0
M  V30 10933 C 1507.26 -9.38437 0.108857 0
M  V30 10934 C 1507.8 -9.08175 -1.28353 0
M  V30 10935 O 1506.74 -8.44229 -1.84713 0
M  V30 10936 C 1509.02 -8.18386 -1.42505 0
M  V30 10937 O 1509.75 -8.3501 -2.60497 0
M  V30 10938 C 1508.35 -6.80225 -1.25468 0
M  V30 10939 O 1509.15 -5.81621 -1.91066 0
M  V30 10940 C 1507.01 -7.02416 -1.9168 0
M  V30 10941 H 1507.04 -6.6888 -2.96621 0
M  V30 10942 H 1508.23 -6.53617 -0.192223 0
M  V30 10943 H 1509.71 -8.36622 -0.589963 0
M  V30 10944 H 1508.02 -10.0291 -1.79807 0
M  V30 10945 H 1507.83 -10.2138 0.558219 0
M  V30 10946 H 1506.2 -9.6579 0.0444202 0
M  V30 10947 H 1508.83 -5.69556 -2.79637 0
M  V30 10948 P 1510.69 -8.4349 -2.47671 0
M  V30 10949 O 1512.11 -8.92593 -2.65 0
M  V30 10950 O 1510.33 -7.7568 -1.19296 0
M  V30 10951 O 1510.37 -7.36886 -3.63805 0
M  V30 10952 C 1510.21 -7.95349 -4.982 0
M  V30 10953 C 1510.75 -6.94612 -5.98974 0
M  V30 10954 O 1509.69 -6.10347 -6.11815 0
M  V30 10955 C 1511.97 -6.11426 -5.62335 0
M  V30 10956 O 1512.7 -5.6162 -6.70584 0
M  V30 10957 C 1511.3 -5.04409 -4.73308 0
M  V30 10958 O 1512.1 -3.85992 -4.75183 0
M  V30 10959 C 1509.96 -4.8728 -5.41006 0
M  V30 10960 H 1509.99 -4.02333 -6.11157 0
M  V30 10961 H 1511.18 -5.39466 -3.69543 0
M  V30 10962 H 1512.66 -6.71916 -5.01943 0
M  V30 10963 H 1510.97 -7.4649 -6.93477 0
M  V30 10964 H 1510.78 -8.89416 -5.05237 0
M  V30 10965 H 1509.15 -8.14876 -5.18409 0
M  V30 10966 H 1511.78 -3.27957 -5.4317 0
M  V30 10967 P 1513.64 -5.75688 -6.64379 0
M  V30 10968 O 1515.06 -6.07627 -7.05504 0
M  V30 10969 O 1513.28 -5.88047 -5.19722 0
M  V30 10970 O 1513.32 -4.2322 -7.04443 0
M  V30 10971 C 1513.16 -3.99743 -8.4911 0
M  V30 10972 C 1513.7 -2.60516 -8.79425 0
M  V30 10973 O 1512.64 -1.82684 -8.4467 0
M  V30 10974 C 1514.92 -2.10343 -8.03628 0
M  V30 10975 O 1515.66 -1.09919 -8.67766 0
M  V30 10976 C 1514.25 -1.68446 -6.70876 0
M  V30 10977 O 1515.05 -0.678137 -6.08433 0
M  V30 10978 C 1512.91 -1.17436 -7.18567 0
M  V30 10979 H 1512.94 -0.0804732 -7.31656 0
M  V30 10980 H 1514.13 -2.54037 -6.02537 0
M  V30 10981 H 1515.61 -2.93881 -7.85526 0
M  V30 10982 H 1513.92 -2.53065 -9.86973 0
M  V30 10983 H 1513.73 -4.75072 -9.05887 0
M  V30 10984 H 1512.1 -4.05244 -8.76668 0
M  V30 10985 H 1514.74 0.177647 -6.34251 0
M  V30 10986 P 1516.59 -1.25109 -8.70152 0
M  V30 10987 O 1518.01 -1.29758 -9.22115 0
M  V30 10988 O 1516.23 -2.13714 -7.55141 0
M  V30 10989 O 1516.27 0.248149 -8.21425 0
M  V30 10990 C 1516.11 1.22792 -9.30533 0
M  V30 10991 C 1516.65 2.56293 -8.80664 0
M  V30 10992 O 1515.59 3.02944 -8.09255 0
M  V30 10993 C 1517.87 2.57523 -7.89775 0
M  V30 10994 O 1518.61 3.7668 -7.89438 0
M  V30 10995 C 1517.2 2.20997 -6.55446 0
M  V30 10996 O 1518 2.71302 -5.48691 0
M  V30 10997 C 1515.86 2.89693 -6.67988 0
M  V30 10998 N 1514.82 2.08895 -6.07487 0
M  V30 10999 C 1514.99 0.753809 -5.94137 0
M  V30 11000 N 1513.96 0.146592 -5.38801 0
M  V30 11001 C 1513.08 1.1768 -5.13693 0
M  V30 11002 C 1511.81 1.17563 -4.52477 0
M  V30 11003 N 1511.24 2.41918 -4.45789 0
M  V30 11004 C 1511.85 3.56493 -4.90792 0
M  V30 11005 N 1513.02 3.61423 -5.47817 0
M  V30 11006 C 1513.6 2.37779 -5.5588 0
M  V30 11007 H 1517.08 1.12673 -6.44018 0
M  V30 11008 H 1518.56 1.7746 -8.19711 0
M  V30 11009 H 1516.87 3.21673 -9.66791 0
M  V30 11010 H 1516.68 0.901032 -10.1892 0
M  V30 11011 H 1515.05 1.33049 -9.56592 0
M  V30 11012 H 1515.89 0.233081 -6.26266 0
M  V30 11013 H 1517.69 3.5779 -5.23879 0
M  V30 11014 P 1519.54 3.65191 -7.99657 0
M  V30 11015 O 1520.97 3.89332 -8.45794 0
M  V30 11016 O 1519.18 2.28472 -7.50807 0
M  V30 11017 O 1519.22 4.64972 -6.77611 0
M  V30 11018 C 1519.06 6.06319 -7.16352 0
M  V30 11019 C 1519.6 6.91731 -6.02299 0
M  V30 11020 O 1518.54 6.92449 -5.17064 0
M  V30 11021 C 1520.82 6.43627 -5.25174 0
M  V30 11022 O 1521.56 7.43686 -4.60469 0
M  V30 11023 C 1520.15 5.40275 -4.31916 0
M  V30 11024 O 1520.95 5.25279 -3.14438 0
M  V30 11025 C 1518.81 6.04847 -4.05327 0
M  V30 11026 H 1518.84 6.62195 -3.11261 0
M  V30 11027 H 1520.03 4.42556 -4.81383 0
M  V30 11028 H 1521.51 5.92458 -5.93643 0
M  V30 11029 H 1519.82 7.92655 -6.402 0
M  V30 11030 H 1519.63 6.26671 -8.0846 0
M  V30 11031 H 1518 6.29101 -7.32804 0
M  V30 11032 H 1520.64 5.84315 -2.47318 0
M  V30 11033 P 1522.49 7.39546 -4.75277 0
M  V30 11034 O 1523.92 7.84798 -5.01039 0
M  V30 11035 O 1522.13 5.9812 -5.08098 0
M  V30 11036 O 1522.17 7.57503 -3.1866 0
M  V30 11037 C 1522.01 8.97357 -2.74833 0
M  V30 11038 C 1522.55 9.07548 -1.32709 0
M  V30 11039 O 1521.5 8.62072 -0.606159 0
M  V30 11040 C 1523.77 8.25383 -0.938334 0
M  V30 11041 O 1524.51 8.74577 0.146954 0
M  V30 11042 C 1523.1 6.8802 -0.712559 0
M  V30 11043 O 1523.9 6.1189 0.194655 0
M  V30 11044 C 1521.76 7.27966 -0.139777 0
M  V30 11045 H 1521.8 7.25354 0.961601 0
M  V30 11046 H 1522.98 6.32557 -1.65702 0
M  V30 11047 H 1524.46 8.19355 -1.79097 0
M  V30 11048 H 1522.77 10.1294 -1.10029 0
M  V30 11049 H 1522.58 9.64276 -3.41316 0
M  V30 11050 H 1520.95 9.25417 -2.76357 0
M  V30 11051 H 1523.59 6.25267 1.07847 0
M  V30 11052 P 1525.44 8.791 1.2579e-11 0
M  V30 11053 O 1526.87 9.31096 0.027933 0
M  V30 11054 O 1525.08 7.77869 -1.04071 0
M  V30 11055 O 1525.12 8.09533 1.41463 0
M  V30 11056 C 1524.96 9.0349 2.53943 0
M  V30 11057 C 1525.5 8.35226 3.79016 0
M  V30 11058 O 1524.45 7.57992 4.15078 0
M  V30 11059 C 1526.72 7.45087 3.67298 0
M  V30 11060 O 1527.46 7.27796 4.85194 0
M  V30 11061 C 1526.05 6.17323 3.12027 0
M  V30 11062 O 1526.85 5.04231 3.47188 0
M  V30 11063 C 1524.71 6.19961 3.81809 0
M  V30 11064 H 1524.75 5.58218 4.73051 0
M  V30 11065 H 1525.93 6.21726 2.02589 0
M  V30 11066 H 1527.41 7.86112 2.9231 0
M  V30 11067 H 1525.72 9.11627 4.55076 0
M  V30 11068 H 1525.53 9.9573 2.34194 0
M  V30 11069 H 1523.9 9.2792 2.67832 0
M  V30 11070 H 1526.54 4.67702 4.28772 0
M  V30 11071 P 1528.4 7.39546 4.75277 0
M  V30 11072 O 1529.82 7.81777 5.05738 0
M  V30 11073 O 1528.04 7.1065 3.32998 0
M  V30 11074 O 1528.07 6.04542 5.56673 0
M  V30 11075 C 1527.91 6.22772 7.02095 0
M  V30 11076 C 1528.45 4.97725 7.70406 0
M  V30 11077 O 1527.4 4.13256 7.58987 0
M  V30 11078 C 1529.67 4.28231 7.11815 0
M  V30 11079 O 1530.41 3.49945 8.01648 0
M  V30 11080 C 1529 3.5063 5.96244 0
M  V30 11081 O 1529.8 2.36482 5.64681 0
M  V30 11082 C 1527.66 3.15122 6.56374 0
M  V30 11083 H 1527.7 2.13853 6.99751 0
M  V30 11084 H 1528.88 4.13501 5.06559 0
M  V30 11085 H 1530.36 5.03285 6.70911 0
M  V30 11086 H 1528.67 5.20877 8.75697 0
M  V30 11087 H 1528.48 7.11046 7.35349 0
M  V30 11088 H 1526.85 6.35815 7.26986 0
M  V30 11089 H 1529.49 1.61644 6.13565 0
M  V30 11090 P 1531.35 3.65191 7.99657 0
M  V30 11091 O 1532.77 3.8425 8.48115 0
M  V30 11092 O 1530.99 4.17805 6.64342 0
M  V30 11093 O 1531.02 2.07613 7.95143 0
M  V30 11094 C 1530.86 1.44328 9.27336 0
M  V30 11095 C 1531.4 0.0220036 9.17197 0
M  V30 11096 O 1530.35 -0.626867 8.61923 0
M  V30 11097 C 1532.62 -0.24586 8.30336 0
M  V30 11098 O 1533.36 -1.39011 8.63583 0
M  V30 11099 C 1531.95 -0.273849 6.91158 0
M  V30 11100 O 1532.75 -1.06348 6.02892 0
M  V30 11101 C 1530.61 -0.897649 7.22545 0
M  V30 11102 H 1530.65 -1.9841 7.04286 0
M  V30 11103 H 1531.83 0.739928 6.497 0
M  V30 11104 H 1533.31 0.60668 8.36503 0
M  V30 11105 H 1531.62 -0.352479 10.1829 0
M  V30 11106 H 1531.43 2.00611 10.0304 0
M  V30 11107 H 1529.8 1.41843 9.55327 0
M  V30 11108 H 1532.44 -1.95734 6.03555 0
M  V30 11109 P 1534.3 -1.25109 8.70152 0
M  V30 11110 O 1535.72 -1.35274 9.21221 0
M  V30 11111 O 1533.94 -0.0769065 7.84762 0
M  V30 11112 O 1533.97 -2.55232 7.81161 0
M  V30 11113 C 1533.81 -3.79939 8.58154 0
M  V30 11114 C 1534.35 -4.94023 7.72785 0
M  V30 11115 O 1533.3 -5.18726 6.91205 0
M  V30 11116 C 1535.57 -4.69597 6.85231 0
M  V30 11117 O 1536.31 -5.83832 6.51337 0
M  V30 11118 C 1534.9 -3.96706 5.66633 0
M  V30 11119 O 1535.7 -4.15414 4.49689 0
M  V30 11120 C 1533.57 -4.66153 5.59313 0
M  V30 11121 H 1533.6 -5.47679 4.85214 0
M  V30 11122 H 1534.78 -2.89008 5.86566 0
M  V30 11123 H 1536.26 -4.0121 7.36511 0
M  V30 11124 H 1534.57 -5.80182 8.37584 0
M  V30 11125 H 1534.38 -3.73517 9.52265 0
M  V30 11126 H 1532.75 -3.97163 8.80359 0
M  V30 11127 H 1535.39 -4.90969 4.01921 0
M  V30 11128 P 1537.25 -5.75688 6.64379 0
M  V30 11129 O 1538.67 -6.11849 7.01846 0
M  V30 11130 O 1536.89 -4.30744 6.56026 0
M  V30 11131 O 1536.92 -6.37042 5.19165 0
M  V30 11132 C 1536.76 -7.83578 5.16515 0
M  V30 11133 C 1537.3 -8.33398 3.83019 0
M  V30 11134 O 1536.25 -8.10074 3.01034 0
M  V30 11135 C 1538.52 -7.65514 3.2257 0
M  V30 11136 O 1539.26 -8.4329 2.32297 0
M  V30 11137 C 1537.85 -6.40075 2.62207 0
M  V30 11138 O 1538.65 -5.92589 1.53712 0
M  V30 11139 C 1536.52 -6.9454 2.18503 0
M  V30 11140 H 1536.55 -7.23063 1.12091 0
M  V30 11141 H 1537.73 -5.6025 3.37201 0
M  V30 11142 H 1539.21 -7.35707 4.02681 0
M  V30 11143 H 1537.52 -9.40912 3.9095 0
M  V30 11144 H 1537.33 -8.29056 5.99158 0
M  V30 11145 H 1535.7 -8.10073 5.25882 0
M  V30 11146 H 1538.34 -6.30324 0.726794 0
M  V30 11147 P 1540.2 -8.4349 2.47671 0
M  V30 11148 O 1541.62 -8.94167 2.5964 0
M  V30 11149 O 1539.84 -7.1704 3.19006 0
M  V30 11150 O 1539.87 -8.16596 0.923387 0
M  V30 11151 C 1539.71 -9.38437 0.108857 0
M  V30 11152 C 1540.25 -9.08175 -1.28353 0
M  V30 11153 O 1539.2 -8.44229 -1.84713 0
M  V30 11154 C 1541.47 -8.18386 -1.42505 0
M  V30 11155 O 1542.21 -8.3501 -2.60497 0
M  V30 11156 C 1540.8 -6.80225 -1.25468 0
M  V30 11157 O 1541.6 -5.81621 -1.91066 0
M  V30 11158 C 1539.47 -7.02416 -1.9168 0
M  V30 11159 H 1539.5 -6.6888 -2.96621 0
M  V30 11160 H 1540.68 -6.53617 -0.192223 0
M  V30 11161 H 1542.17 -8.36622 -0.589963 0
M  V30 11162 H 1540.47 -10.0291 -1.79807 0
M  V30 11163 H 1540.28 -10.2138 0.558219 0
M  V30 11164 H 1538.65 -9.6579 0.0444202 0
M  V30 11165 H 1541.29 -5.69556 -2.79637 0
M  V30 11166 P 1543.15 -8.4349 -2.47671 0
M  V30 11167 O 1544.57 -8.92593 -2.65 0
M  V30 11168 O 1542.79 -7.7568 -1.19296 0
M  V30 11169 O 1542.83 -7.36886 -3.63805 0
M  V30 11170 C 1542.67 -7.95349 -4.982 0
M  V30 11171 C 1543.21 -6.94612 -5.98974 0
M  V30 11172 O 1542.15 -6.10347 -6.11815 0
M  V30 11173 C 1544.42 -6.11426 -5.62335 0
M  V30 11174 O 1545.16 -5.6162 -6.70584 0
M  V30 11175 C 1543.75 -5.04409 -4.73308 0
M  V30 11176 O 1544.55 -3.85992 -4.75183 0
M  V30 11177 C 1542.42 -4.8728 -5.41006 0
M  V30 11178 H 1542.45 -4.02333 -6.11157 0
M  V30 11179 H 1543.63 -5.39466 -3.69543 0
M  V30 11180 H 1545.12 -6.71916 -5.01943 0
M  V30 11181 H 1543.42 -7.4649 -6.93477 0
M  V30 11182 H 1543.23 -8.89416 -5.05237 0
M  V30 11183 H 1541.6 -8.14876 -5.18409 0
M  V30 11184 H 1544.24 -3.27957 -5.4317 0
M  V30 11185 P 1546.1 -5.75688 -6.64379 0
M  V30 11186 O 1547.52 -6.07627 -7.05504 0
M  V30 11187 O 1545.74 -5.88047 -5.19722 0
M  V30 11188 O 1545.78 -4.2322 -7.04443 0
M  V30 11189 C 1545.62 -3.99743 -8.4911 0
M  V30 11190 C 1546.16 -2.60516 -8.79425 0
M  V30 11191 O 1545.1 -1.82684 -8.4467 0
M  V30 11192 C 1547.37 -2.10343 -8.03628 0
M  V30 11193 O 1548.11 -1.09919 -8.67766 0
M  V30 11194 C 1546.7 -1.68446 -6.70876 0
M  V30 11195 O 1547.5 -0.678137 -6.08433 0
M  V30 11196 C 1545.37 -1.17436 -7.18567 0
M  V30 11197 H 1545.4 -0.0804732 -7.31656 0
M  V30 11198 H 1546.58 -2.54037 -6.02537 0
M  V30 11199 H 1548.07 -2.93881 -7.85526 0
M  V30 11200 H 1546.37 -2.53065 -9.86973 0
M  V30 11201 H 1546.18 -4.75072 -9.05887 0
M  V30 11202 H 1544.55 -4.05244 -8.76668 0
M  V30 11203 H 1547.19 0.177647 -6.34251 0
M  V30 11204 P 1549.05 -1.25109 -8.70152 0
M  V30 11205 O 1550.47 -1.29744 -9.22016 0
M  V30 11206 O 1548.69 -2.13714 -7.55141 0
M  V30 11207 O 1548.73 0.248149 -8.21425 0
M  V30 11208 C 1548.57 1.22779 -9.30434 0
M  V30 11209 C 1549.11 2.56293 -8.80664 0
M  V30 11210 O 1548.05 3.02979 -8.09349 0
M  V30 11211 C 1550.32 2.57523 -7.89775 0
M  V30 11212 O 1551.06 3.7668 -7.89438 0
M  V30 11213 C 1549.66 2.20997 -6.55446 0
M  V30 11214 O 1550.45 2.71895 -5.48509 0
M  V30 11215 C 1548.32 2.89693 -6.67988 0
M  V30 11216 H 1548.35 3.88793 -6.19859 0
M  V30 11217 H 1549.53 1.12046 -6.44229 0
M  V30 11218 H 1551.02 1.7746 -8.19711 0
M  V30 11219 H 1549.32 3.20706 -9.67112 0
M  V30 11220 H 1549.13 0.901032 -10.1892 0
M  V30 11221 H 1547.5 1.33049 -9.56592 0
M  V30 11222 H 1550.14 3.57847 -5.23962 0
M  V30 11223 P 1552 3.65191 -7.99657 0
M  V30 11224 O 1553.42 3.89332 -8.45794 0
M  V30 11225 O 1551.64 2.28472 -7.50807 0
M  V30 11226 O 1551.68 4.64972 -6.77611 0
M  V30 11227 C 1551.52 6.06319 -7.16352 0
M  V30 11228 C 1552.06 6.91731 -6.02299 0
M  V30 11229 O 1551 6.92449 -5.17064 0
M  V30 11230 C 1553.27 6.43627 -5.25174 0
M  V30 11231 O 1554.01 7.43686 -4.60469 0
M  V30 11232 C 1552.61 5.40275 -4.31916 0
M  V30 11233 O 1553.4 5.25279 -3.14438 0
M  V30 11234 C 1551.27 6.04847 -4.05327 0
M  V30 11235 H 1551.3 6.62195 -3.11261 0
M  V30 11236 H 1552.48 4.42556 -4.81383 0
M  V30 11237 H 1553.97 5.92458 -5.93643 0
M  V30 11238 H 1552.27 7.92655 -6.402 0
M  V30 11239 H 1552.08 6.26671 -8.0846 0
M  V30 11240 H 1550.45 6.29101 -7.32804 0
M  V30 11241 H 1553.09 5.84315 -2.47318 0
M  V30 11242 P 1554.95 7.39546 -4.75277 0
M  V30 11243 O 1556.37 7.84798 -5.01039 0
M  V30 11244 O 1554.59 5.9812 -5.08098 0
M  V30 11245 O 1554.63 7.57503 -3.1866 0
M  V30 11246 C 1554.47 8.97357 -2.74833 0
M  V30 11247 C 1555.01 9.07548 -1.32709 0
M  V30 11248 O 1553.95 8.62072 -0.606159 0
M  V30 11249 C 1556.23 8.25383 -0.938334 0
M  V30 11250 O 1556.96 8.74577 0.146954 0
M  V30 11251 C 1555.56 6.8802 -0.712559 0
M  V30 11252 O 1556.36 6.1189 0.194655 0
M  V30 11253 C 1554.22 7.27966 -0.139777 0
M  V30 11254 H 1554.25 7.25354 0.961601 0
M  V30 11255 H 1555.43 6.32557 -1.65702 0
M  V30 11256 H 1556.92 8.19355 -1.79097 0
M  V30 11257 H 1555.22 10.1294 -1.10029 0
M  V30 11258 H 1555.03 9.64276 -3.41316 0
M  V30 11259 H 1553.4 9.25417 -2.76357 0
M  V30 11260 H 1556.04 6.25267 1.07847 0
M  V30 11261 P 1557.9 8.791 1.28891e-11 0
M  V30 11262 O 1559.32 9.31096 0.027933 0
M  V30 11263 O 1557.54 7.77869 -1.04071 0
M  V30 11264 O 1557.58 8.09533 1.41463 0
M  V30 11265 C 1557.42 9.0349 2.53943 0
M  V30 11266 C 1557.96 8.35226 3.79016 0
M  V30 11267 O 1556.9 7.57992 4.15078 0
M  V30 11268 C 1559.18 7.45087 3.67298 0
M  V30 11269 O 1559.91 7.27796 4.85194 0
M  V30 11270 C 1558.51 6.17323 3.12027 0
M  V30 11271 O 1559.31 5.04231 3.47188 0
M  V30 11272 C 1557.17 6.19961 3.81809 0
M  V30 11273 H 1557.2 5.58218 4.73051 0
M  V30 11274 H 1558.38 6.21726 2.02589 0
M  V30 11275 H 1559.87 7.86112 2.9231 0
M  V30 11276 H 1558.17 9.11627 4.55076 0
M  V30 11277 H 1557.98 9.9573 2.34194 0
M  V30 11278 H 1556.35 9.2792 2.67832 0
M  V30 11279 H 1558.99 4.67702 4.28772 0
M  V30 11280 P 1560.85 7.39546 4.75277 0
M  V30 11281 O 1562.27 7.81777 5.05738 0
M  V30 11282 O 1560.49 7.1065 3.32998 0
M  V30 11283 O 1560.53 6.04542 5.56673 0
M  V30 11284 C 1560.37 6.22772 7.02095 0
M  V30 11285 C 1560.91 4.97725 7.70406 0
M  V30 11286 O 1559.85 4.13256 7.58987 0
M  V30 11287 C 1562.13 4.28231 7.11815 0
M  V30 11288 O 1562.86 3.49945 8.01648 0
M  V30 11289 C 1561.46 3.5063 5.96244 0
M  V30 11290 O 1562.26 2.36482 5.64681 0
M  V30 11291 C 1560.12 3.15122 6.56374 0
M  V30 11292 H 1560.15 2.13853 6.99751 0
M  V30 11293 H 1561.34 4.13501 5.06559 0
M  V30 11294 H 1562.82 5.03285 6.70911 0
M  V30 11295 H 1561.13 5.20877 8.75697 0
M  V30 11296 H 1560.94 7.11046 7.35349 0
M  V30 11297 H 1559.31 6.35815 7.26986 0
M  V30 11298 H 1561.94 1.61644 6.13565 0
M  V30 11299 P 1563.8 3.65191 7.99657 0
M  V30 11300 O 1565.22 3.8425 8.48115 0
M  V30 11301 O 1563.44 4.17805 6.64342 0
M  V30 11302 O 1563.48 2.07613 7.95143 0
M  V30 11303 C 1563.32 1.44328 9.27336 0
M  V30 11304 C 1563.86 0.0220036 9.17197 0
M  V30 11305 O 1562.8 -0.626867 8.61923 0
M  V30 11306 C 1565.08 -0.24586 8.30336 0
M  V30 11307 O 1565.82 -1.39011 8.63583 0
M  V30 11308 C 1564.41 -0.273849 6.91158 0
M  V30 11309 O 1565.21 -1.06348 6.02892 0
M  V30 11310 C 1563.07 -0.897649 7.22545 0
M  V30 11311 H 1563.1 -1.9841 7.04286 0
M  V30 11312 H 1564.29 0.739928 6.497 0
M  V30 11313 H 1565.77 0.60668 8.36503 0
M  V30 11314 H 1564.08 -0.352479 10.1829 0
M  V30 11315 H 1563.89 2.00611 10.0304 0
M  V30 11316 H 1562.26 1.41843 9.55327 0
M  V30 11317 H 1564.9 -1.95734 6.03555 0
M  V30 11318 P 1566.75 -1.25109 8.70152 0
M  V30 11319 O 1568.17 -1.35274 9.21221 0
M  V30 11320 O 1566.39 -0.0769065 7.84762 0
M  V30 11321 O 1566.43 -2.55232 7.81161 0
M  V30 11322 C 1566.27 -3.79939 8.58154 0
M  V30 11323 C 1566.81 -4.94023 7.72785 0
M  V30 11324 O 1565.75 -5.18726 6.91205 0
M  V30 11325 C 1568.03 -4.69597 6.85231 0
M  V30 11326 O 1568.77 -5.83832 6.51337 0
M  V30 11327 C 1567.36 -3.96706 5.66633 0
M  V30 11328 O 1568.16 -4.15414 4.49689 0
M  V30 11329 C 1566.02 -4.66153 5.59313 0
M  V30 11330 H 1566.05 -5.47679 4.85214 0
M  V30 11331 H 1567.24 -2.89008 5.86566 0
M  V30 11332 H 1568.72 -4.0121 7.36511 0
M  V30 11333 H 1567.03 -5.80182 8.37584 0
M  V30 11334 H 1566.84 -3.73517 9.52265 0
M  V30 11335 H 1565.21 -3.97163 8.80359 0
M  V30 11336 H 1567.85 -4.90969 4.01921 0
M  V30 11337 P 1569.7 -5.75688 6.64379 0
M  V30 11338 O 1571.13 -6.11849 7.01846 0
M  V30 11339 O 1569.34 -4.30744 6.56026 0
M  V30 11340 O 1569.38 -6.37042 5.19165 0
M  V30 11341 C 1569.22 -7.83578 5.16515 0
M  V30 11342 C 1569.76 -8.33398 3.83019 0
M  V30 11343 O 1568.7 -8.10074 3.01034 0
M  V30 11344 C 1570.98 -7.65514 3.2257 0
M  V30 11345 O 1571.72 -8.4329 2.32297 0
M  V30 11346 C 1570.31 -6.40075 2.62207 0
M  V30 11347 O 1571.11 -5.92589 1.53712 0
M  V30 11348 C 1568.97 -6.9454 2.18503 0
M  V30 11349 H 1569 -7.23063 1.12091 0
M  V30 11350 H 1570.19 -5.6025 3.37201 0
M  V30 11351 H 1571.67 -7.35707 4.02681 0
M  V30 11352 H 1569.98 -9.40912 3.9095 0
M  V30 11353 H 1569.79 -8.29056 5.99158 0
M  V30 11354 H 1568.16 -8.10073 5.25882 0
M  V30 11355 H 1570.8 -6.30324 0.726794 0
M  V30 11356 P 1572.65 -8.4349 2.47671 0
M  V30 11357 O 1574.05 -8.98227 2.65696 0
M  V30 11358 O 1572.28 -7.20409 3.23964 0
M  V30 11359 O 1572.33 -8.16496 0.923275 0
M  V30 11360 C 1572.17 -9.38437 0.108857 0
M  V30 11361 C 1572.71 -9.08076 -1.28339 0
M  V30 11362 O 1571.65 -8.44131 -1.84692 0
M  V30 11363 C 1573.93 -8.18386 -1.42505 0
M  V30 11364 O 1574.67 -8.3501 -2.60497 0
M  V30 11365 C 1573.26 -6.80225 -1.25468 0
M  V30 11366 O 1574.06 -5.81526 -1.91035 0
M  V30 11367 C 1571.92 -7.02416 -1.9168 0
M  V30 11368 N 1570.88 -6.31033 -1.20314 0
M  V30 11369 C 1569.84 -5.77149 -1.928 0
M  V30 11370 O 1569.88 -5.8521 -3.17729 0
M  V30 11371 N 1568.83 -5.15445 -1.27997 0
M  V30 11372 C 1568.88 -5.04472 0.0534726 0
M  V30 11373 C 1569.98 -5.55244 0.808522 0
M  V30 11374 C 1570.94 -6.18542 0.13981 0
M  V30 11375 H 1571.95 -6.68789 -2.9658 0
M  V30 11376 H 1573.14 -6.53498 -0.198729 0
M  V30 11377 H 1574.62 -8.36663 -0.5984 0
M  V30 11378 H 1572.93 -10.0273 -1.8081 0
M  V30 11379 H 1572.74 -10.2138 0.558219 0
M  V30 11380 H 1571.11 -9.6569 0.0444156 0
M  V30 11381 H 1570.02 -5.43017 1.88792 0
M  V30 11382 H 1571.79 -6.60539 0.686773 0
M  V30 11383 H 1573.84 -5.79638 -2.8315 0
M  V30 11384 P 1575.6 -8.4349 -2.47671 0
M  V30 11385 O 1577.03 -8.92689 -2.65029 0
M  V30 11386 O 1575.24 -7.7568 -1.19296 0
M  V30 11387 O 1575.28 -7.36886 -3.63805 0
M  V30 11388 C 1575.12 -7.95433 -4.98253 0
M  V30 11389 C 1575.66 -6.94612 -5.98974 0
M  V30 11390 O 1574.61 -6.10277 -6.11744 0
M  V30 11391 C 1576.88 -6.11426 -5.62335 0
M  V30 11392 O 1577.62 -5.6162 -6.70584 0
M  V30 11393 C 1576.21 -5.04409 -4.73308 0
M  V30 11394 O 1577.01 -3.86404 -4.74719 0
M  V30 11395 C 1574.87 -4.8728 -5.41006 0
M  V30 11396 N 1573.83 -4.65812 -4.42377 0
M  V30 11397 C 1574 -5.09132 -3.15382 0
M  V30 11398 N 1572.97 -4.84021 -2.3716 0
M  V30 11399 C 1572.09 -4.18386 -3.20441 0
M  V30 11400 C 1570.82 -3.6275 -2.94905 0
M  V30 11401 N 1570.22 -3.65794 -1.73372 0
M  V30 11402 N 1570.26 -3.05008 -4.05243 0
M  V30 11403 C 1570.86 -2.98348 -5.28159 0
M  V30 11404 N 1572.03 -3.48171 -5.56333 0
M  V30 11405 C 1572.61 -4.06869 -4.47212 0
M  V30 11406 H 1574.91 -4.02278 -6.11074 0
M  V30 11407 H 1576.09 -5.39013 -3.70026 0
M  V30 11408 H 1577.57 -6.71916 -5.01943 0
M  V30 11409 H 1575.88 -7.45796 -6.94223 0
M  V30 11410 H 1575.69 -8.89416 -5.05237 0
M  V30 11411 H 1574.06 -8.14876 -5.18409 0
M  V30 11412 H 1570.32 -2.47853 -6.07807 0
M  V30 11413 H 1574.9 -5.59989 -2.81362 0
M  V30 11414 H 1569.29 -3.23218 -1.60782 0
M  V30 11415 H 1570.7 -4.10523 -0.937856 0
M  V30 11416 H 1576.7 -3.27906 -5.43085 0
M  V30 11417 P 1578.55 -5.75688 -6.64379 0
M  V30 11418 O 1579.98 -6.07627 -7.05504 0
M  V30 11419 O 1578.19 -5.88047 -5.19722 0
M  V30 11420 O 1578.23 -4.2322 -7.04443 0
M  V30 11421 C 1578.07 -3.99743 -8.4911 0
M  V30 11422 C 1578.61 -2.60516 -8.79425 0
M  V30 11423 O 1577.56 -1.82684 -8.4467 0
M  V30 11424 C 1579.83 -2.10343 -8.03628 0
M  V30 11425 O 1580.57 -1.09919 -8.67766 0
M  V30 11426 C 1579.16 -1.68446 -6.70876 0
M  V30 11427 O 1579.96 -0.678137 -6.08433 0
M  V30 11428 C 1577.82 -1.17436 -7.18567 0
M  V30 11429 H 1577.86 -0.0804732 -7.31656 0
M  V30 11430 H 1579.04 -2.54037 -6.02537 0
M  V30 11431 H 1580.52 -2.93881 -7.85526 0
M  V30 11432 H 1578.83 -2.53065 -9.86973 0
M  V30 11433 H 1578.64 -4.75072 -9.05887 0
M  V30 11434 H 1577.01 -4.05244 -8.76668 0
M  V30 11435 H 1579.65 0.177647 -6.34251 0
M  V30 11436 P 1581.51 -1.25109 -8.70152 0
M  V30 11437 O 1582.93 -1.29744 -9.22016 0
M  V30 11438 O 1581.15 -2.13714 -7.55141 0
M  V30 11439 O 1581.18 0.248149 -8.21425 0
M  V30 11440 C 1581.02 1.22779 -9.30434 0
M  V30 11441 C 1581.56 2.56293 -8.80664 0
M  V30 11442 O 1580.51 3.02979 -8.09349 0
M  V30 11443 C 1582.78 2.57523 -7.89775 0
M  V30 11444 O 1583.52 3.7668 -7.89438 0
M  V30 11445 C 1582.11 2.20997 -6.55446 0
M  V30 11446 O 1582.91 2.71895 -5.48509 0
M  V30 11447 C 1580.77 2.89693 -6.67988 0
M  V30 11448 H 1580.81 3.88793 -6.19859 0
M  V30 11449 H 1581.99 1.12046 -6.44229 0
M  V30 11450 H 1583.47 1.7746 -8.19711 0
M  V30 11451 H 1581.78 3.20706 -9.67112 0
M  V30 11452 H 1581.59 0.901032 -10.1892 0
M  V30 11453 H 1579.96 1.33049 -9.56592 0
M  V30 11454 H 1582.6 3.57847 -5.23962 0
M  V30 11455 P 1584.46 3.65191 -7.99657 0
M  V30 11456 O 1585.88 3.89332 -8.45794 0
M  V30 11457 O 1584.1 2.28472 -7.50807 0
M  V30 11458 O 1584.13 4.64972 -6.77611 0
M  V30 11459 C 1583.97 6.06319 -7.16352 0
M  V30 11460 C 1584.51 6.91731 -6.02299 0
M  V30 11461 O 1583.46 6.92449 -5.17064 0
M  V30 11462 C 1585.73 6.43627 -5.25174 0
M  V30 11463 O 1586.47 7.43686 -4.60469 0
M  V30 11464 C 1585.06 5.40275 -4.31916 0
M  V30 11465 O 1585.86 5.25279 -3.14438 0
M  V30 11466 C 1583.73 6.04847 -4.05327 0
M  V30 11467 H 1583.76 6.62195 -3.11261 0
M  V30 11468 H 1584.94 4.42556 -4.81383 0
M  V30 11469 H 1586.42 5.92458 -5.93643 0
M  V30 11470 H 1584.73 7.92655 -6.402 0
M  V30 11471 H 1584.54 6.26671 -8.0846 0
M  V30 11472 H 1582.91 6.29101 -7.32804 0
M  V30 11473 H 1585.55 5.84315 -2.47318 0
M  V30 11474 P 1587.41 7.39546 -4.75277 0
M  V30 11475 O 1588.83 7.84798 -5.01039 0
M  V30 11476 O 1587.05 5.9812 -5.08098 0
M  V30 11477 O 1587.08 7.57503 -3.1866 0
M  V30 11478 C 1586.92 8.97357 -2.74833 0
M  V30 11479 C 1587.46 9.07548 -1.32709 0
M  V30 11480 O 1586.41 8.62072 -0.606159 0
M  V30 11481 C 1588.68 8.25383 -0.938334 0
M  V30 11482 O 1589.42 8.74577 0.146954 0
M  V30 11483 C 1588.01 6.8802 -0.712559 0
M  V30 11484 O 1588.81 6.1189 0.194655 0
M  V30 11485 C 1586.68 7.27966 -0.139777 0
M  V30 11486 H 1586.71 7.25354 0.961601 0
M  V30 11487 H 1587.89 6.32557 -1.65702 0
M  V30 11488 H 1589.37 8.19355 -1.79097 0
M  V30 11489 H 1587.68 10.1294 -1.10029 0
M  V30 11490 H 1587.49 9.64276 -3.41316 0
M  V30 11491 H 1585.86 9.25417 -2.76357 0
M  V30 11492 H 1588.5 6.25267 1.07847 0
M  V30 11493 P 1590.36 8.791 1.31993e-11 0
M  V30 11494 O 1591.76 9.36698 -0.018734 0
M  V30 11495 O 1589.98 7.82499 -1.07878 0
M  V30 11496 O 1590.03 8.09434 1.41446 0
M  V30 11497 C 1589.87 9.0349 2.53943 0
M  V30 11498 C 1590.41 8.35135 3.78975 0
M  V30 11499 O 1589.36 7.57904 4.1503 0
M  V30 11500 C 1591.63 7.45087 3.67298 0
M  V30 11501 O 1592.37 7.27796 4.85194 0
M  V30 11502 C 1590.96 6.17323 3.12027 0
M  V30 11503 O 1591.76 5.04149 3.47132 0
M  V30 11504 C 1589.63 6.19961 3.81809 0
M  V30 11505 N 1588.58 5.71575 2.93223 0
M  V30 11506 C 1587.55 4.99452 3.47592 0
M  V30 11507 O 1587.59 4.7199 4.69732 0
M  V30 11508 N 1586.54 4.58505 2.6803 0
M  V30 11509 C 1586.58 4.85544 1.36995 0
M  V30 11510 C 1587.68 5.55532 0.788532 0
M  V30 11511 C 1588.65 5.97426 1.60849 0
M  V30 11512 H 1589.66 5.58142 4.72986 0
M  V30 11513 H 1590.84 6.21428 2.0318 0
M  V30 11514 H 1592.33 7.85913 2.93131 0
M  V30 11515 H 1590.63 9.11171 4.55987 0
M  V30 11516 H 1590.44 9.9573 2.34194 0
M  V30 11517 H 1588.81 9.27824 2.67805 0
M  V30 11518 H 1587.73 5.7421 -0.281588 0
M  V30 11519 H 1589.49 6.53132 1.202 0
M  V30 11520 H 1591.55 4.76386 4.34983 0
M  V30 11521 P 1593.31 7.39546 4.75277 0
M  V30 11522 O 1594.73 7.81777 5.05738 0
M  V30 11523 O 1592.95 7.1065 3.32998 0
M  V30 11524 O 1592.98 6.04542 5.56673 0
M  V30 11525 C 1592.82 6.22772 7.02095 0
M  V30 11526 C 1593.36 4.97725 7.70406 0
M  V30 11527 O 1592.31 4.13256 7.58987 0
M  V30 11528 C 1594.58 4.28231 7.11815 0
M  V30 11529 O 1595.32 3.49945 8.01648 0
M  V30 11530 C 1593.91 3.5063 5.96244 0
M  V30 11531 O 1594.71 2.36482 5.64681 0
M  V30 11532 C 1592.58 3.15122 6.56374 0
M  V30 11533 H 1592.61 2.13853 6.99751 0
M  V30 11534 H 1593.79 4.13501 5.06559 0
M  V30 11535 H 1595.28 5.03285 6.70911 0
M  V30 11536 H 1593.58 5.20877 8.75697 0
M  V30 11537 H 1593.39 7.11046 7.35349 0
M  V30 11538 H 1591.76 6.35815 7.26986 0
M  V30 11539 H 1594.4 1.61644 6.13565 0
M  V30 11540 P 1596.26 3.65191 7.99657 0
M  V30 11541 O 1597.68 3.8425 8.48115 0
M  V30 11542 O 1595.9 4.17805 6.64342 0
M  V30 11543 O 1595.94 2.07613 7.95143 0
M  V30 11544 C 1595.78 1.44328 9.27336 0
M  V30 11545 C 1596.32 0.0220036 9.17197 0
M  V30 11546 O 1595.26 -0.626867 8.61923 0
M  V30 11547 C 1597.53 -0.24586 8.30336 0
M  V30 11548 O 1598.27 -1.39011 8.63583 0
M  V30 11549 C 1596.86 -0.273849 6.91158 0
M  V30 11550 O 1597.66 -1.06348 6.02892 0
M  V30 11551 C 1595.53 -0.897649 7.22545 0
M  V30 11552 H 1595.56 -1.9841 7.04286 0
M  V30 11553 H 1596.74 0.739928 6.497 0
M  V30 11554 H 1598.23 0.60668 8.36503 0
M  V30 11555 H 1596.53 -0.352479 10.1829 0
M  V30 11556 H 1596.34 2.00611 10.0304 0
M  V30 11557 H 1594.71 1.41843 9.55327 0
M  V30 11558 H 1597.35 -1.95734 6.03555 0
M  V30 11559 P 1599.21 -1.25109 8.70152 0
M  V30 11560 O 1600.63 -1.35274 9.21221 0
M  V30 11561 O 1598.85 -0.0769065 7.84762 0
M  V30 11562 O 1598.89 -2.55232 7.81161 0
M  V30 11563 C 1598.73 -3.79939 8.58154 0
M  V30 11564 C 1599.27 -4.94023 7.72785 0
M  V30 11565 O 1598.21 -5.18726 6.91205 0
M  V30 11566 C 1600.48 -4.69597 6.85231 0
M  V30 11567 O 1601.22 -5.83832 6.51337 0
M  V30 11568 C 1599.81 -3.96706 5.66633 0
M  V30 11569 O 1600.61 -4.15414 4.49689 0
M  V30 11570 C 1598.48 -4.66153 5.59313 0
M  V30 11571 H 1598.51 -5.47679 4.85214 0
M  V30 11572 H 1599.69 -2.89008 5.86566 0
M  V30 11573 H 1601.18 -4.0121 7.36511 0
M  V30 11574 H 1599.48 -5.80182 8.37584 0
M  V30 11575 H 1599.29 -3.73517 9.52265 0
M  V30 11576 H 1597.66 -3.97163 8.80359 0
M  V30 11577 H 1600.3 -4.90969 4.01921 0
M  V30 11578 P 1602.16 -5.75688 6.64379 0
M  V30 11579 O 1603.58 -6.11849 7.01846 0
M  V30 11580 O 1601.8 -4.30744 6.56026 0
M  V30 11581 O 1601.84 -6.37042 5.19165 0
M  V30 11582 C 1601.68 -7.83578 5.16515 0
M  V30 11583 C 1602.22 -8.33398 3.83019 0
M  V30 11584 O 1601.16 -8.10074 3.01034 0
M  V30 11585 C 1603.43 -7.65514 3.2257 0
M  V30 11586 O 1604.17 -8.4329 2.32297 0
M  V30 11587 C 1602.77 -6.40075 2.62207 0
M  V30 11588 O 1603.56 -5.92589 1.53712 0
M  V30 11589 C 1601.43 -6.9454 2.18503 0
M  V30 11590 H 1601.46 -7.23063 1.12091 0
M  V30 11591 H 1602.64 -5.6025 3.37201 0
M  V30 11592 H 1604.13 -7.35707 4.02681 0
M  V30 11593 H 1602.43 -9.40912 3.9095 0
M  V30 11594 H 1602.24 -8.29056 5.99158 0
M  V30 11595 H 1600.61 -8.10073 5.25882 0
M  V30 11596 H 1603.25 -6.30324 0.726794 0
M  V30 11597 P 1605.11 -8.4349 2.47671 0
M  V30 11598 O 1606.51 -8.98227 2.65696 0
M  V30 11599 O 1604.73 -7.20409 3.23964 0
M  V30 11600 O 1604.79 -8.16496 0.923275 0
M  V30 11601 C 1604.63 -9.38437 0.108857 0
M  V30 11602 C 1605.17 -9.08076 -1.28339 0
M  V30 11603 O 1604.11 -8.44131 -1.84692 0
M  V30 11604 C 1606.38 -8.18386 -1.42505 0
M  V30 11605 O 1607.12 -8.3501 -2.60497 0
M  V30 11606 C 1605.72 -6.80225 -1.25468 0
M  V30 11607 O 1606.52 -5.81526 -1.91035 0
M  V30 11608 C 1604.38 -7.02416 -1.9168 0
M  V30 11609 N 1603.34 -6.31033 -1.20314 0
M  V30 11610 C 1602.3 -5.77149 -1.928 0
M  V30 11611 O 1602.34 -5.8521 -3.17729 0
M  V30 11612 N 1601.29 -5.15445 -1.27997 0
M  V30 11613 C 1601.34 -5.04472 0.0534726 0
M  V30 11614 C 1602.43 -5.55244 0.808522 0
M  V30 11615 C 1603.4 -6.18542 0.13981 0
M  V30 11616 H 1604.41 -6.68789 -2.9658 0
M  V30 11617 H 1605.59 -6.53498 -0.198729 0
M  V30 11618 H 1607.08 -8.36663 -0.5984 0
M  V30 11619 H 1605.38 -10.0273 -1.8081 0
M  V30 11620 H 1605.19 -10.2138 0.558219 0
M  V30 11621 H 1603.56 -9.6569 0.0444156 0
M  V30 11622 H 1602.48 -5.43017 1.88792 0
M  V30 11623 H 1604.25 -6.60539 0.686773 0
M  V30 11624 H 1606.3 -5.79638 -2.8315 0
M  V30 11625 P 1608.06 -8.4349 -2.47671 0
M  V30 11626 O 1609.48 -8.92689 -2.65029 0
M  V30 11627 O 1607.7 -7.7568 -1.19296 0
M  V30 11628 O 1607.74 -7.36886 -3.63805 0
M  V30 11629 C 1607.58 -7.95433 -4.98253 0
M  V30 11630 C 1608.12 -6.94612 -5.98974 0
M  V30 11631 O 1607.06 -6.10277 -6.11744 0
M  V30 11632 C 1609.34 -6.11426 -5.62335 0
M  V30 11633 O 1610.07 -5.6162 -6.70584 0
M  V30 11634 C 1608.67 -5.04409 -4.73308 0
M  V30 11635 O 1609.47 -3.86404 -4.74719 0
M  V30 11636 C 1607.33 -4.8728 -5.41006 0
M  V30 11637 N 1606.29 -4.65812 -4.42377 0
M  V30 11638 C 1606.46 -5.09132 -3.15382 0
M  V30 11639 N 1605.43 -4.84021 -2.3716 0
M  V30 11640 C 1604.54 -4.18386 -3.20441 0
M  V30 11641 C 1603.28 -3.6275 -2.94905 0
M  V30 11642 N 1602.71 -3.05008 -4.05243 0
M  V30 11643 C 1603.31 -2.98348 -5.28159 0
M  V30 11644 N 1604.49 -3.48171 -5.56333 0
M  V30 11645 C 1605.07 -4.06869 -4.47212 0
M  V30 11646 H 1608.54 -5.39013 -3.70026 0
M  V30 11647 H 1610.03 -6.71916 -5.01943 0
M  V30 11648 H 1608.33 -7.45796 -6.94223 0
M  V30 11649 H 1608.14 -8.89416 -5.05237 0
M  V30 11650 H 1606.51 -8.14876 -5.18409 0
M  V30 11651 H 1607.36 -5.59989 -2.81362 0
M  V30 11652 H 1609.15 -3.27906 -5.43085 0
M  V30 11653 P 1611.01 -5.75688 -6.64379 0
M  V30 11654 O 1612.43 -6.07627 -7.05504 0
M  V30 11655 O 1610.65 -5.88047 -5.19722 0
M  V30 11656 O 1610.69 -4.2322 -7.04443 0
M  V30 11657 C 1610.53 -3.99743 -8.4911 0
M  V30 11658 C 1611.07 -2.60516 -8.79425 0
M  V30 11659 O 1610.01 -1.82684 -8.4467 0
M  V30 11660 C 1612.29 -2.10343 -8.03628 0
M  V30 11661 O 1613.02 -1.09919 -8.67766 0
M  V30 11662 C 1611.62 -1.68446 -6.70876 0
M  V30 11663 O 1612.42 -0.678137 -6.08433 0
M  V30 11664 C 1610.28 -1.17436 -7.18567 0
M  V30 11665 H 1610.31 -0.0804732 -7.31656 0
M  V30 11666 H 1611.5 -2.54037 -6.02537 0
M  V30 11667 H 1612.98 -2.93881 -7.85526 0
M  V30 11668 H 1611.29 -2.53065 -9.86973 0
M  V30 11669 H 1611.1 -4.75072 -9.05887 0
M  V30 11670 H 1609.47 -4.05244 -8.76668 0
M  V30 11671 H 1612.1 0.177647 -6.34251 0
M  V30 11672 P 1613.96 -1.25109 -8.70152 0
M  V30 11673 O 1615.38 -1.29744 -9.22016 0
M  V30 11674 O 1613.6 -2.13714 -7.55141 0
M  V30 11675 O 1613.64 0.248149 -8.21425 0
M  V30 11676 C 1613.48 1.22779 -9.30434 0
M  V30 11677 C 1614.02 2.56293 -8.80664 0
M  V30 11678 O 1612.96 3.02979 -8.09349 0
M  V30 11679 C 1615.24 2.57523 -7.89775 0
M  V30 11680 O 1615.97 3.7668 -7.89438 0
M  V30 11681 C 1614.57 2.20997 -6.55446 0
M  V30 11682 O 1615.37 2.71895 -5.48509 0
M  V30 11683 C 1613.23 2.89693 -6.67988 0
M  V30 11684 H 1613.26 3.88793 -6.19859 0
M  V30 11685 H 1614.45 1.12046 -6.44229 0
M  V30 11686 H 1615.93 1.7746 -8.19711 0
M  V30 11687 H 1614.24 3.20706 -9.67112 0
M  V30 11688 H 1614.05 0.901032 -10.1892 0
M  V30 11689 H 1612.42 1.33049 -9.56592 0
M  V30 11690 H 1615.05 3.57847 -5.23962 0
M  V30 11691 P 1616.91 3.65191 -7.99657 0
M  V30 11692 O 1618.33 3.89332 -8.45794 0
M  V30 11693 O 1616.55 2.28472 -7.50807 0
M  V30 11694 O 1616.59 4.64972 -6.77611 0
M  V30 11695 C 1616.43 6.06319 -7.16352 0
M  V30 11696 C 1616.97 6.91731 -6.02299 0
M  V30 11697 O 1615.91 6.92449 -5.17064 0
M  V30 11698 C 1618.19 6.43627 -5.25174 0
M  V30 11699 O 1618.93 7.43686 -4.60469 0
M  V30 11700 C 1617.52 5.40275 -4.31916 0
M  V30 11701 O 1618.32 5.25279 -3.14438 0
M  V30 11702 C 1616.18 6.04847 -4.05327 0
M  V30 11703 H 1616.21 6.62195 -3.11261 0
M  V30 11704 H 1617.4 4.42556 -4.81383 0
M  V30 11705 H 1618.88 5.92458 -5.93643 0
M  V30 11706 H 1617.19 7.92655 -6.402 0
M  V30 11707 H 1617 6.26671 -8.0846 0
M  V30 11708 H 1615.37 6.29101 -7.32804 0
M  V30 11709 H 1618.01 5.84315 -2.47318 0
M  V30 11710 P 1619.86 7.39546 -4.75277 0
M  V30 11711 O 1621.28 7.84798 -5.01039 0
M  V30 11712 O 1619.5 5.9812 -5.08098 0
M  V30 11713 O 1619.54 7.57503 -3.1866 0
M  V30 11714 C 1619.38 8.97357 -2.74833 0
M  V30 11715 C 1619.92 9.07548 -1.32709 0
M  V30 11716 O 1618.86 8.62072 -0.606159 0
M  V30 11717 C 1621.14 8.25383 -0.938334 0
M  V30 11718 O 1621.88 8.74577 0.146954 0
M  V30 11719 C 1620.47 6.8802 -0.712559 0
M  V30 11720 O 1621.27 6.1189 0.194655 0
M  V30 11721 C 1619.13 7.27966 -0.139777 0
M  V30 11722 H 1619.16 7.25354 0.961601 0
M  V30 11723 H 1620.35 6.32557 -1.65702 0
M  V30 11724 H 1621.83 8.19355 -1.79097 0
M  V30 11725 H 1620.14 10.1294 -1.10029 0
M  V30 11726 H 1619.95 9.64276 -3.41316 0
M  V30 11727 H 1618.32 9.25417 -2.76357 0
M  V30 11728 H 1620.96 6.25267 1.07847 0
M  V30 11729 P 1622.81 8.791 1.35095e-11 0
M  V30 11730 O 1624.24 9.31096 0.027933 0
M  V30 11731 O 1622.45 7.77869 -1.04071 0
M  V30 11732 O 1622.49 8.09533 1.41463 0
M  V30 11733 C 1622.33 9.0349 2.53943 0
M  V30 11734 C 1622.87 8.35226 3.79016 0
M  V30 11735 O 1621.81 7.57992 4.15078 0
M  V30 11736 C 1624.09 7.45087 3.67298 0
M  V30 11737 O 1624.83 7.27796 4.85194 0
M  V30 11738 C 1623.42 6.17323 3.12027 0
M  V30 11739 O 1624.22 5.04231 3.47188 0
M  V30 11740 C 1622.08 6.19961 3.81809 0
M  V30 11741 H 1622.11 5.58218 4.73051 0
M  V30 11742 H 1623.3 6.21726 2.02589 0
M  V30 11743 H 1624.78 7.86112 2.9231 0
M  V30 11744 H 1623.09 9.11627 4.55076 0
M  V30 11745 H 1622.9 9.9573 2.34194 0
M  V30 11746 H 1621.27 9.2792 2.67832 0
M  V30 11747 H 1623.91 4.67702 4.28772 0
M  V30 11748 P 1625.76 7.39546 4.75277 0
M  V30 11749 O 1627.19 7.81777 5.05738 0
M  V30 11750 O 1625.4 7.1065 3.32998 0
M  V30 11751 O 1625.44 6.04542 5.56673 0
M  V30 11752 C 1625.28 6.22772 7.02095 0
M  V30 11753 C 1625.82 4.97725 7.70406 0
M  V30 11754 O 1624.77 4.13256 7.58987 0
M  V30 11755 C 1627.04 4.28231 7.11815 0
M  V30 11756 O 1627.78 3.49945 8.01648 0
M  V30 11757 C 1626.37 3.5063 5.96244 0
M  V30 11758 O 1627.17 2.36482 5.64681 0
M  V30 11759 C 1625.03 3.15122 6.56374 0
M  V30 11760 H 1625.07 2.13853 6.99751 0
M  V30 11761 H 1626.25 4.13501 5.06559 0
M  V30 11762 H 1627.73 5.03285 6.70911 0
M  V30 11763 H 1626.04 5.20877 8.75697 0
M  V30 11764 H 1625.85 7.11046 7.35349 0
M  V30 11765 H 1624.22 6.35815 7.26986 0
M  V30 11766 H 1626.86 1.61644 6.13565 0
M  V30 11767 P 1628.71 3.65191 7.99657 0
M  V30 11768 O 1630.14 3.8425 8.48115 0
M  V30 11769 O 1628.35 4.17805 6.64342 0
M  V30 11770 O 1628.39 2.07613 7.95143 0
M  V30 11771 C 1628.23 1.44328 9.27336 0
M  V30 11772 C 1628.77 0.0220036 9.17197 0
M  V30 11773 O 1627.72 -0.626867 8.61923 0
M  V30 11774 C 1629.99 -0.24586 8.30336 0
M  V30 11775 O 1630.73 -1.39011 8.63583 0
M  V30 11776 C 1629.32 -0.273849 6.91158 0
M  V30 11777 O 1630.12 -1.06348 6.02892 0
M  V30 11778 C 1627.98 -0.897649 7.22545 0
M  V30 11779 H 1628.02 -1.9841 7.04286 0
M  V30 11780 H 1629.2 0.739928 6.497 0
M  V30 11781 H 1630.68 0.60668 8.36503 0
M  V30 11782 H 1628.99 -0.352479 10.1829 0
M  V30 11783 H 1628.8 2.00611 10.0304 0
M  V30 11784 H 1627.17 1.41843 9.55327 0
M  V30 11785 H 1629.81 -1.95734 6.03555 0
M  V30 11786 P 1631.67 -1.25109 8.70152 0
M  V30 11787 O 1633.09 -1.35274 9.21221 0
M  V30 11788 O 1631.31 -0.0769065 7.84762 0
M  V30 11789 O 1631.34 -2.55232 7.81161 0
M  V30 11790 C 1631.18 -3.79939 8.58154 0
M  V30 11791 C 1631.72 -4.94023 7.72785 0
M  V30 11792 O 1630.67 -5.18726 6.91205 0
M  V30 11793 C 1632.94 -4.69597 6.85231 0
M  V30 11794 O 1633.68 -5.83832 6.51337 0
M  V30 11795 C 1632.27 -3.96706 5.66633 0
M  V30 11796 O 1633.07 -4.15414 4.49689 0
M  V30 11797 C 1630.93 -4.66153 5.59313 0
M  V30 11798 H 1630.97 -5.47679 4.85214 0
M  V30 11799 H 1632.15 -2.89008 5.86566 0
M  V30 11800 H 1633.63 -4.0121 7.36511 0
M  V30 11801 H 1631.94 -5.80182 8.37584 0
M  V30 11802 H 1631.75 -3.73517 9.52265 0
M  V30 11803 H 1630.12 -3.97163 8.80359 0
M  V30 11804 H 1632.76 -4.90969 4.01921 0
M  V30 11805 P 1634.62 -5.75688 6.64379 0
M  V30 11806 O 1636.04 -6.11849 7.01846 0
M  V30 11807 O 1634.26 -4.30744 6.56026 0
M  V30 11808 O 1634.29 -6.37042 5.19165 0
M  V30 11809 C 1634.13 -7.83578 5.16515 0
M  V30 11810 C 1634.67 -8.33398 3.83019 0
M  V30 11811 O 1633.62 -8.10074 3.01034 0
M  V30 11812 C 1635.89 -7.65514 3.2257 0
M  V30 11813 O 1636.63 -8.4329 2.32297 0
M  V30 11814 C 1635.22 -6.40075 2.62207 0
M  V30 11815 O 1636.02 -5.92589 1.53712 0
M  V30 11816 C 1633.88 -6.9454 2.18503 0
M  V30 11817 H 1633.92 -7.23063 1.12091 0
M  V30 11818 H 1635.1 -5.6025 3.37201 0
M  V30 11819 H 1636.58 -7.35707 4.02681 0
M  V30 11820 H 1634.89 -9.40912 3.9095 0
M  V30 11821 H 1634.7 -8.29056 5.99158 0
M  V30 11822 H 1633.07 -8.10073 5.25882 0
M  V30 11823 H 1635.71 -6.30324 0.726794 0
M  V30 11824 P 1637.57 -8.4349 2.47671 0
M  V30 11825 O 1638.99 -8.94167 2.5964 0
M  V30 11826 O 1637.21 -7.1704 3.19006 0
M  V30 11827 O 1637.24 -8.16596 0.923387 0
M  V30 11828 C 1637.08 -9.38437 0.108857 0
M  V30 11829 C 1637.62 -9.08175 -1.28353 0
M  V30 11830 O 1636.57 -8.44229 -1.84713 0
M  V30 11831 C 1638.84 -8.18386 -1.42505 0
M  V30 11832 O 1639.58 -8.3501 -2.60497 0
M  V30 11833 C 1638.17 -6.80225 -1.25468 0
M  V30 11834 O 1638.97 -5.81621 -1.91066 0
M  V30 11835 C 1636.84 -7.02416 -1.9168 0
M  V30 11836 H 1636.87 -6.6888 -2.96621 0
M  V30 11837 H 1638.05 -6.53617 -0.192223 0
M  V30 11838 H 1639.53 -8.36622 -0.589963 0
M  V30 11839 H 1637.84 -10.0291 -1.79807 0
M  V30 11840 H 1637.65 -10.2138 0.558219 0
M  V30 11841 H 1636.02 -9.6579 0.0444202 0
M  V30 11842 H 1638.66 -5.69556 -2.79637 0
M  V30 11843 P 1640.52 -8.4349 -2.47671 0
M  V30 11844 O 1641.94 -8.92593 -2.65 0
M  V30 11845 O 1640.16 -7.7568 -1.19296 0
M  V30 11846 O 1640.19 -7.36886 -3.63805 0
M  V30 11847 C 1640.03 -7.95349 -4.982 0
M  V30 11848 C 1640.57 -6.94612 -5.98974 0
M  V30 11849 O 1639.52 -6.10347 -6.11815 0
M  V30 11850 C 1641.79 -6.11426 -5.62335 0
M  V30 11851 O 1642.53 -5.6162 -6.70584 0
M  V30 11852 C 1641.12 -5.04409 -4.73308 0
M  V30 11853 O 1641.92 -3.85992 -4.75183 0
M  V30 11854 C 1639.79 -4.8728 -5.41006 0
M  V30 11855 H 1639.82 -4.02333 -6.11157 0
M  V30 11856 H 1641 -5.39466 -3.69543 0
M  V30 11857 H 1642.48 -6.71916 -5.01943 0
M  V30 11858 H 1640.79 -7.4649 -6.93477 0
M  V30 11859 H 1640.6 -8.89416 -5.05237 0
M  V30 11860 H 1638.97 -8.14876 -5.18409 0
M  V30 11861 H 1641.61 -3.27957 -5.4317 0
M  V30 11862 P 1643.47 -5.75688 -6.64379 0
M  V30 11863 O 1644.89 -6.07627 -7.05504 0
M  V30 11864 O 1643.11 -5.88047 -5.19722 0
M  V30 11865 O 1643.14 -4.2322 -7.04443 0
M  V30 11866 C 1642.98 -3.99743 -8.4911 0
M  V30 11867 C 1643.52 -2.60516 -8.79425 0
M  V30 11868 O 1642.47 -1.82684 -8.4467 0
M  V30 11869 C 1644.74 -2.10343 -8.03628 0
M  V30 11870 O 1645.48 -1.09919 -8.67766 0
M  V30 11871 C 1644.07 -1.68446 -6.70876 0
M  V30 11872 O 1644.87 -0.678137 -6.08433 0
M  V30 11873 C 1642.74 -1.17436 -7.18567 0
M  V30 11874 H 1642.77 -0.0804732 -7.31656 0
M  V30 11875 H 1643.95 -2.54037 -6.02537 0
M  V30 11876 H 1645.44 -2.93881 -7.85526 0
M  V30 11877 H 1643.74 -2.53065 -9.86973 0
M  V30 11878 H 1643.55 -4.75072 -9.05887 0
M  V30 11879 H 1641.92 -4.05244 -8.76668 0
M  V30 11880 H 1644.56 0.177647 -6.34251 0
M  V30 11881 P 1646.42 -1.25109 -8.70152 0
M  V30 11882 O 1647.84 -1.29744 -9.22016 0
M  V30 11883 O 1646.06 -2.13714 -7.55141 0
M  V30 11884 O 1646.1 0.248149 -8.21425 0
M  V30 11885 C 1645.94 1.22779 -9.30434 0
M  V30 11886 C 1646.48 2.56293 -8.80664 0
M  V30 11887 O 1645.42 3.02979 -8.09349 0
M  V30 11888 C 1647.69 2.57523 -7.89775 0
M  V30 11889 O 1648.43 3.7668 -7.89438 0
M  V30 11890 C 1647.02 2.20997 -6.55446 0
M  V30 11891 O 1647.82 2.71895 -5.48509 0
M  V30 11892 C 1645.69 2.89693 -6.67988 0
M  V30 11893 H 1645.72 3.88793 -6.19859 0
M  V30 11894 H 1646.9 1.12046 -6.44229 0
M  V30 11895 H 1648.39 1.7746 -8.19711 0
M  V30 11896 H 1646.69 3.20706 -9.67112 0
M  V30 11897 H 1646.5 0.901032 -10.1892 0
M  V30 11898 H 1644.87 1.33049 -9.56592 0
M  V30 11899 H 1647.51 3.57847 -5.23962 0
M  V30 11900 P 1649.37 3.65191 -7.99657 0
M  V30 11901 O 1650.79 3.89416 -8.45976 0
M  V30 11902 O 1649.01 2.28472 -7.50807 0
M  V30 11903 O 1649.05 4.64972 -6.77611 0
M  V30 11904 C 1648.89 6.06319 -7.16352 0
M  V30 11905 C 1649.43 6.91655 -6.02234 0
M  V30 11906 O 1648.37 6.92449 -5.17064 0
M  V30 11907 C 1650.64 6.43627 -5.25174 0
M  V30 11908 O 1651.38 7.43686 -4.60469 0
M  V30 11909 C 1649.98 5.40275 -4.31916 0
M  V30 11910 O 1650.77 5.25193 -3.14386 0
M  V30 11911 C 1648.64 6.04847 -4.05327 0
M  V30 11912 N 1647.59 5.04166 -3.98114 0
M  V30 11913 C 1647.66 3.96049 -4.75587 0
M  V30 11914 N 1646.61 3.15559 -4.54006 0
M  V30 11915 C 1645.88 3.78802 -3.62491 0
M  V30 11916 C 1644.57 3.476 -3.10071 0
M  V30 11917 O 1643.84 2.51136 -3.37021 0
M  V30 11918 N 1644.14 4.39088 -2.19956 0
M  V30 11919 C 1644.89 5.53215 -1.81733 0
M  V30 11920 N 1644.29 6.31963 -0.860928 0
M  V30 11921 N 1646.04 5.86688 -2.32562 0
M  V30 11922 C 1646.5 4.97525 -3.23407 0
M  V30 11923 H 1648.67 6.62195 -3.11261 0
M  V30 11924 H 1649.85 4.42488 -4.8131 0
M  V30 11925 H 1651.34 5.93051 -5.9305 0
M  V30 11926 H 1649.64 7.92655 -6.402 0
M  V30 11927 H 1649.45 6.26671 -8.0846 0
M  V30 11928 H 1647.82 6.29101 -7.32804 0
M  V30 11929 H 1643.25 4.25523 -1.77604 0
M  V30 11930 H 1648.45 3.75576 -5.47333 0
M  V30 11931 H 1643.38 6.04684 -0.468946 0
M  V30 11932 H 1644.76 7.18054 -0.542422 0
M  V30 11933 H 1650.46 5.84223 -2.47279 0
M  V30 11934 P 1652.32 7.39546 -4.75277 0
M  V30 11935 O 1653.74 7.84882 -5.01092 0
M  V30 11936 O 1651.96 5.9812 -5.08098 0
M  V30 11937 O 1652 7.57503 -3.1866 0
M  V30 11938 C 1651.84 8.97452 -2.74862 0
M  V30 11939 C 1652.38 9.07548 -1.32709 0
M  V30 11940 O 1651.32 8.61972 -0.606089 0
M  V30 11941 C 1653.59 8.25383 -0.938334 0
M  V30 11942 O 1654.33 8.74577 0.146954 0
M  V30 11943 C 1652.93 6.8802 -0.712559 0
M  V30 11944 O 1653.72 6.1181 0.188505 0
M  V30 11945 C 1651.59 7.27966 -0.139777 0
M  V30 11946 N 1650.55 6.39368 -0.623421 0
M  V30 11947 C 1650.71 5.71761 -1.78245 0
M  V30 11948 N 1649.69 4.962 -2.10491 0
M  V30 11949 C 1648.8 5.16158 -1.0635 0
M  V30 11950 C 1647.54 4.60425 -0.810266 0
M  V30 11951 N 1646.97 5.06 0.348685 0
M  V30 11952 C 1647.57 5.94532 1.20395 0
M  V30 11953 N 1648.75 6.48452 1.01191 0
M  V30 11954 C 1649.32 6.04423 -0.146291 0
M  V30 11955 H 1652.8 6.32625 -1.65044 0
M  V30 11956 H 1654.29 8.19355 -1.79097 0
M  V30 11957 H 1652.59 10.1305 -1.09016 0
M  V30 11958 H 1652.4 9.64276 -3.41316 0
M  V30 11959 H 1650.77 9.25417 -2.76357 0
M  V30 11960 H 1651.61 5.79354 -2.38959 0
M  V30 11961 H 1653.41 6.25169 1.0783 0
M  V30 11962 P 1655.27 8.791 1.38196e-11 0
M  V30 11963 O 1656.69 9.31096 0.027933 0
M  V30 11964 O 1654.91 7.77869 -1.04071 0
M  V30 11965 O 1654.95 8.09533 1.41463 0
M  V30 11966 C 1654.79 9.0349 2.53943 0
M  V30 11967 C 1655.33 8.35226 3.79016 0
M  V30 11968 O 1654.27 7.57992 4.15078 0
M  V30 11969 C 1656.54 7.45087 3.67298 0
M  V30 11970 O 1657.28 7.27796 4.85194 0
M  V30 11971 C 1655.88 6.17323 3.12027 0
M  V30 11972 O 1656.67 5.04231 3.47188 0
M  V30 11973 C 1654.54 6.19961 3.81809 0
M  V30 11974 H 1654.57 5.58218 4.73051 0
M  V30 11975 H 1655.75 6.21726 2.02589 0
M  V30 11976 H 1657.24 7.86112 2.9231 0
M  V30 11977 H 1655.54 9.11627 4.55076 0
M  V30 11978 H 1655.35 9.9573 2.34194 0
M  V30 11979 H 1653.72 9.2792 2.67832 0
M  V30 11980 H 1656.36 4.67702 4.28772 0
M  V30 11981 P 1658.22 7.39546 4.75277 0
M  V30 11982 O 1659.64 7.81777 5.05738 0
M  V30 11983 O 1657.86 7.1065 3.32998 0
M  V30 11984 O 1657.9 6.04542 5.56673 0
M  V30 11985 C 1657.74 6.22772 7.02095 0
M  V30 11986 C 1658.28 4.97725 7.70406 0
M  V30 11987 O 1657.22 4.13256 7.58987 0
M  V30 11988 C 1659.5 4.28231 7.11815 0
M  V30 11989 O 1660.23 3.49945 8.01648 0
M  V30 11990 C 1658.83 3.5063 5.96244 0
M  V30 11991 O 1659.63 2.36482 5.64681 0
M  V30 11992 C 1657.49 3.15122 6.56374 0
M  V30 11993 H 1657.52 2.13853 6.99751 0
M  V30 11994 H 1658.7 4.13501 5.06559 0
M  V30 11995 H 1660.19 5.03285 6.70911 0
M  V30 11996 H 1658.49 5.20877 8.75697 0
M  V30 11997 H 1658.3 7.11046 7.35349 0
M  V30 11998 H 1656.67 6.35815 7.26986 0
M  V30 11999 H 1659.31 1.61644 6.13565 0
M  V30 12000 P 1661.17 3.65191 7.99657 0
M  V30 12001 O 1662.59 3.84333 8.48297 0
M  V30 12002 O 1660.81 4.17805 6.64342 0
M  V30 12003 O 1660.85 2.07613 7.95143 0
M  V30 12004 C 1660.69 1.44328 9.27336 0
M  V30 12005 C 1661.23 0.0220012 9.17097 0
M  V30 12006 O 1660.17 -0.626867 8.61923 0
M  V30 12007 C 1662.45 -0.24586 8.30336 0
M  V30 12008 O 1663.18 -1.39011 8.63583 0
M  V30 12009 C 1661.78 -0.273849 6.91158 0
M  V30 12010 O 1662.58 -1.06331 6.02794 0
M  V30 12011 C 1660.44 -0.897649 7.22545 0
M  V30 12012 N 1659.4 -0.292839 6.41732 0
M  V30 12013 C 1659.46 1.00068 6.10757 0
M  V30 12014 N 1658.41 1.36468 5.35794 0
M  V30 12015 C 1657.68 0.258894 5.2366 0
M  V30 12016 C 1656.37 0.0670682 4.65752 0
M  V30 12017 O 1655.64 0.902443 4.10497 0
M  V30 12018 N 1655.94 -1.2131 4.75881 0
M  V30 12019 C 1656.69 -2.24934 5.37101 0
M  V30 12020 N 1656.1 -3.48783 5.33984 0
M  V30 12021 N 1657.85 -2.0844 5.95684 0
M  V30 12022 C 1658.3 -0.81395 5.87791 0
M  V30 12023 H 1660.47 -1.9841 7.04286 0
M  V30 12024 H 1661.65 0.739815 6.49601 0
M  V30 12025 H 1663.14 0.598315 8.36563 0
M  V30 12026 H 1661.44 -0.352479 10.1829 0
M  V30 12027 H 1661.25 2.00611 10.0304 0
M  V30 12028 H 1659.62 1.41843 9.55327 0
M  V30 12029 H 1655.05 -1.44434 4.37895 0
M  V30 12030 H 1660.25 1.67697 6.42268 0
M  V30 12031 H 1655.18 -3.60543 4.87699 0
M  V30 12032 H 1656.56 -4.29232 5.7819 0
M  V30 12033 H 1662.26 -1.95704 6.0346 0
M  V30 12034 P 1664.12 -1.25109 8.70152 0
M  V30 12035 O 1665.54 -1.35274 9.21221 0
M  V30 12036 O 1663.76 -0.0769065 7.84762 0
M  V30 12037 O 1663.8 -2.55232 7.81161 0
M  V30 12038 C 1663.64 -3.79939 8.58154 0
M  V30 12039 C 1664.18 -4.94023 7.72785 0
M  V30 12040 O 1663.12 -5.18726 6.91205 0
M  V30 12041 C 1665.4 -4.69597 6.85231 0
M  V30 12042 O 1666.13 -5.83832 6.51337 0
M  V30 12043 C 1664.73 -3.96706 5.66633 0
M  V30 12044 O 1665.53 -4.15414 4.49689 0
M  V30 12045 C 1663.39 -4.66153 5.59313 0
M  V30 12046 H 1663.42 -5.47679 4.85214 0
M  V30 12047 H 1664.61 -2.89008 5.86566 0
M  V30 12048 H 1666.09 -4.0121 7.36511 0
M  V30 12049 H 1664.4 -5.80182 8.37584 0
M  V30 12050 H 1664.21 -3.73517 9.52265 0
M  V30 12051 H 1662.58 -3.97163 8.80359 0
M  V30 12052 H 1665.21 -4.90969 4.01921 0
M  V30 12053 P 1667.07 -5.75688 6.64379 0
M  V30 12054 O 1668.49 -6.11849 7.01846 0
M  V30 12055 O 1666.71 -4.30744 6.56026 0
M  V30 12056 O 1666.75 -6.37042 5.19165 0
M  V30 12057 C 1666.59 -7.83578 5.16515 0
M  V30 12058 C 1667.13 -8.33398 3.83019 0
M  V30 12059 O 1666.07 -8.10074 3.01034 0
M  V30 12060 C 1668.35 -7.65514 3.2257 0
M  V30 12061 O 1669.09 -8.4329 2.32297 0
M  V30 12062 C 1667.68 -6.40075 2.62207 0
M  V30 12063 O 1668.48 -5.92589 1.53712 0
M  V30 12064 C 1666.34 -6.9454 2.18503 0
M  V30 12065 H 1666.37 -7.23063 1.12091 0
M  V30 12066 H 1667.56 -5.6025 3.37201 0
M  V30 12067 H 1669.04 -7.35707 4.02681 0
M  V30 12068 H 1667.35 -9.40912 3.9095 0
M  V30 12069 H 1667.16 -8.29056 5.99158 0
M  V30 12070 H 1665.53 -8.10073 5.25882 0
M  V30 12071 H 1668.17 -6.30324 0.726794 0
M  V30 12072 P 1670.02 -8.4349 2.47671 0
M  V30 12073 O 1671.44 -8.94167 2.5964 0
M  V30 12074 O 1669.66 -7.1704 3.19006 0
M  V30 12075 O 1669.7 -8.16596 0.923387 0
M  V30 12076 C 1669.54 -9.38437 0.108857 0
M  V30 12077 C 1670.08 -9.08175 -1.28353 0
M  V30 12078 O 1669.02 -8.44229 -1.84713 0
M  V30 12079 C 1671.3 -8.18386 -1.42505 0
M  V30 12080 O 1672.04 -8.3501 -2.60497 0
M  V30 12081 C 1670.63 -6.80225 -1.25468 0
M  V30 12082 O 1671.43 -5.81621 -1.91066 0
M  V30 12083 C 1669.29 -7.02416 -1.9168 0
M  V30 12084 H 1669.32 -6.6888 -2.96621 0
M  V30 12085 H 1670.51 -6.53617 -0.192223 0
M  V30 12086 H 1671.99 -8.36622 -0.589963 0
M  V30 12087 H 1670.3 -10.0291 -1.79807 0
M  V30 12088 H 1670.11 -10.2138 0.558219 0
M  V30 12089 H 1668.48 -9.6579 0.0444202 0
M  V30 12090 H 1671.12 -5.69556 -2.79637 0
M  V30 12091 P 1672.97 -8.4349 -2.47671 0
M  V30 12092 O 1674.37 -8.99283 -2.62101 0
M  V30 12093 O 1672.6 -7.81195 -1.16947 0
M  V30 12094 O 1672.65 -7.36797 -3.63761 0
M  V30 12095 C 1672.49 -7.95349 -4.982 0
M  V30 12096 C 1673.03 -6.94537 -5.98908 0
M  V30 12097 O 1671.97 -6.10277 -6.11744 0
M  V30 12098 C 1674.25 -6.11426 -5.62335 0
M  V30 12099 O 1674.99 -5.6162 -6.70584 0
M  V30 12100 C 1673.58 -5.04409 -4.73308 0
M  V30 12101 O 1674.38 -3.85929 -4.75106 0
M  V30 12102 C 1672.24 -4.8728 -5.41006 0
M  V30 12103 N 1671.2 -4.65812 -4.42377 0
M  V30 12104 C 1670.16 -3.81293 -4.74224 0
M  V30 12105 O 1670.2 -3.20533 -5.83679 0
M  V30 12106 N 1669.15 -3.6442 -3.86349 0
M  V30 12107 C 1669.2 -4.2728 -2.6824 0
M  V30 12108 C 1670.3 -5.10813 -2.3217 0
M  V30 12109 C 1671.26 -5.27909 -3.22647 0
M  V30 12110 H 1672.27 -4.02278 -6.11074 0
M  V30 12111 H 1673.46 -5.39013 -3.70026 0
M  V30 12112 H 1674.94 -6.71494 -5.02675 0
M  V30 12113 H 1673.25 -7.45796 -6.94223 0
M  V30 12114 H 1673.06 -8.89416 -5.05237 0
M  V30 12115 H 1671.43 -8.14791 -5.18355 0
M  V30 12116 H 1670.34 -5.58884 -1.34755 0
M  V30 12117 H 1672.11 -5.92811 -2.9934 0
M  V30 12118 H 1674.16 -3.3454 -5.51577 0
M  V30 12119 P 1675.92 -5.75688 -6.64379 0
M  V30 12120 O 1677.35 -6.07627 -7.05504 0
M  V30 12121 O 1675.56 -5.88047 -5.19722 0
M  V30 12122 O 1675.6 -4.2322 -7.04443 0
M  V30 12123 C 1675.44 -3.99743 -8.4911 0
M  V30 12124 C 1675.98 -2.60516 -8.79425 0
M  V30 12125 O 1674.92 -1.82684 -8.4467 0
M  V30 12126 C 1677.2 -2.10343 -8.03628 0
M  V30 12127 O 1677.94 -1.09919 -8.67766 0
M  V30 12128 C 1676.53 -1.68446 -6.70876 0
M  V30 12129 O 1677.33 -0.678137 -6.08433 0
M  V30 12130 C 1675.19 -1.17436 -7.18567 0
M  V30 12131 H 1675.22 -0.0804732 -7.31656 0
M  V30 12132 H 1676.41 -2.54037 -6.02537 0
M  V30 12133 H 1677.89 -2.93881 -7.85526 0
M  V30 12134 H 1676.2 -2.53065 -9.86973 0
M  V30 12135 H 1676.01 -4.75072 -9.05887 0
M  V30 12136 H 1674.38 -4.05244 -8.76668 0
M  V30 12137 H 1677.02 0.177647 -6.34251 0
M  V30 12138 P 1678.87 -1.25109 -8.70152 0
M  V30 12139 O 1680.3 -1.29744 -9.22016 0
M  V30 12140 O 1678.51 -2.13714 -7.55141 0
M  V30 12141 O 1678.55 0.248149 -8.21425 0
M  V30 12142 C 1678.39 1.22779 -9.30434 0
M  V30 12143 C 1678.93 2.56293 -8.80664 0
M  V30 12144 O 1677.88 3.02979 -8.09349 0
M  V30 12145 C 1680.15 2.57523 -7.89775 0
M  V30 12146 O 1680.89 3.7668 -7.89438 0
M  V30 12147 C 1679.48 2.20997 -6.55446 0
M  V30 12148 O 1680.28 2.71895 -5.48509 0
M  V30 12149 C 1678.14 2.89693 -6.67988 0
M  V30 12150 H 1678.18 3.88793 -6.19859 0
M  V30 12151 H 1679.36 1.12046 -6.44229 0
M  V30 12152 H 1680.84 1.7746 -8.19711 0
M  V30 12153 H 1679.15 3.20706 -9.67112 0
M  V30 12154 H 1678.96 0.901032 -10.1892 0
M  V30 12155 H 1677.33 1.33049 -9.56592 0
M  V30 12156 H 1679.97 3.57847 -5.23962 0
M  V30 12157 P 1681.82 3.65191 -7.99657 0
M  V30 12158 O 1683.25 3.89374 -8.45885 0
M  V30 12159 O 1681.46 2.28472 -7.50807 0
M  V30 12160 O 1681.5 4.64972 -6.77611 0
M  V30 12161 C 1681.34 6.06383 -7.16428 0
M  V30 12162 C 1681.88 6.91731 -6.02299 0
M  V30 12163 O 1680.83 6.92369 -5.17005 0
M  V30 12164 C 1683.1 6.43627 -5.25174 0
M  V30 12165 O 1683.84 7.43686 -4.60469 0
M  V30 12166 C 1682.43 5.40275 -4.31916 0
M  V30 12167 O 1683.23 5.24878 -3.14911 0
M  V30 12168 C 1681.09 6.04847 -4.05327 0
M  V30 12169 N 1680.05 5.04166 -3.98114 0
M  V30 12170 C 1680.22 3.84629 -4.59066 0
M  V30 12171 N 1679.19 3.0363 -4.45343 0
M  V30 12172 C 1678.31 3.76722 -3.68523 0
M  V30 12173 C 1677.04 3.43528 -3.17088 0
M  V30 12174 N 1676.48 4.44526 -2.44231 0
M  V30 12175 C 1677.08 5.65243 -2.20146 0
M  V30 12176 N 1678.25 6.00221 -2.65453 0
M  V30 12177 C 1678.83 5.00564 -3.39083 0
M  V30 12178 H 1682.31 4.42969 -4.80867 0
M  V30 12179 H 1683.79 5.92458 -5.93643 0
M  V30 12180 H 1682.1 7.93295 -6.39407 0
M  V30 12181 H 1681.91 6.26671 -8.0846 0
M  V30 12182 H 1680.28 6.29101 -7.32804 0
M  V30 12183 H 1681.12 3.58193 -5.14248 0
M  V30 12184 H 1682.92 5.84223 -2.47279 0
M  V30 12185 P 1684.78 7.39546 -4.75277 0
M  V30 12186 O 1686.2 7.84798 -5.01039 0
M  V30 12187 O 1684.42 5.9812 -5.08098 0
M  V30 12188 O 1684.45 7.57503 -3.1866 0
M  V30 12189 C 1684.29 8.97357 -2.74833 0
M  V30 12190 C 1684.83 9.07548 -1.32709 0
M  V30 12191 O 1683.78 8.62072 -0.606159 0
M  V30 12192 C 1686.05 8.25383 -0.938334 0
M  V30 12193 O 1686.79 8.74577 0.146954 0
M  V30 12194 C 1685.38 6.8802 -0.712559 0
M  V30 12195 O 1686.18 6.1189 0.194655 0
M  V30 12196 C 1684.04 7.27966 -0.139777 0
M  V30 12197 H 1684.08 7.25354 0.961601 0
M  V30 12198 H 1685.26 6.32557 -1.65702 0
M  V30 12199 H 1686.74 8.19355 -1.79097 0
M  V30 12200 H 1685.05 10.1294 -1.10029 0
M  V30 12201 H 1684.86 9.64276 -3.41316 0
M  V30 12202 H 1683.23 9.25417 -2.76357 0
M  V30 12203 H 1685.87 6.25267 1.07847 0
M  V30 12204 P 1687.73 8.791 1.41298e-11 0
M  V30 12205 O 1689.15 9.31096 0.027933 0
M  V30 12206 O 1687.37 7.77869 -1.04071 0
M  V30 12207 O 1687.4 8.09533 1.41463 0
M  V30 12208 C 1687.24 9.0349 2.53943 0
M  V30 12209 C 1687.78 8.35226 3.79016 0
M  V30 12210 O 1686.73 7.57992 4.15078 0
M  V30 12211 C 1689 7.45087 3.67298 0
M  V30 12212 O 1689.74 7.27796 4.85194 0
M  V30 12213 C 1688.33 6.17323 3.12027 0
M  V30 12214 O 1689.13 5.04231 3.47188 0
M  V30 12215 C 1687 6.19961 3.81809 0
M  V30 12216 H 1687.03 5.58218 4.73051 0
M  V30 12217 H 1688.21 6.21726 2.02589 0
M  V30 12218 H 1689.69 7.86112 2.9231 0
M  V30 12219 H 1688 9.11627 4.55076 0
M  V30 12220 H 1687.81 9.9573 2.34194 0
M  V30 12221 H 1686.18 9.2792 2.67832 0
M  V30 12222 H 1688.82 4.67702 4.28772 0
M  V30 12223 P 1690.68 7.39546 4.75277 0
M  V30 12224 O 1692.1 7.81777 5.05738 0
M  V30 12225 O 1690.32 7.1065 3.32998 0
M  V30 12226 O 1690.35 6.04542 5.56673 0
M  V30 12227 C 1690.19 6.22772 7.02095 0
M  V30 12228 C 1690.73 4.97725 7.70406 0
M  V30 12229 O 1689.68 4.13256 7.58987 0
M  V30 12230 C 1691.95 4.28231 7.11815 0
M  V30 12231 O 1692.69 3.49945 8.01648 0
M  V30 12232 C 1691.28 3.5063 5.96244 0
M  V30 12233 O 1692.08 2.36482 5.64681 0
M  V30 12234 C 1689.95 3.15122 6.56374 0
M  V30 12235 H 1689.98 2.13853 6.99751 0
M  V30 12236 H 1691.16 4.13501 5.06559 0
M  V30 12237 H 1692.64 5.03285 6.70911 0
M  V30 12238 H 1690.95 5.20877 8.75697 0
M  V30 12239 H 1690.76 7.11046 7.35349 0
M  V30 12240 H 1689.13 6.35815 7.26986 0
M  V30 12241 H 1691.77 1.61644 6.13565 0
M  V30 12242 P 1693.63 3.65191 7.99657 0
M  V30 12243 O 1695.05 3.8425 8.48115 0
M  V30 12244 O 1693.27 4.17805 6.64342 0
M  V30 12245 O 1693.3 2.07613 7.95143 0
M  V30 12246 C 1693.14 1.44328 9.27336 0
M  V30 12247 C 1693.68 0.0220036 9.17197 0
M  V30 12248 O 1692.63 -0.626867 8.61923 0
M  V30 12249 C 1694.9 -0.24586 8.30336 0
M  V30 12250 O 1695.64 -1.39011 8.63583 0
M  V30 12251 C 1694.23 -0.273849 6.91158 0
M  V30 12252 O 1695.03 -1.06348 6.02892 0
M  V30 12253 C 1692.9 -0.897649 7.22545 0
M  V30 12254 H 1692.93 -1.9841 7.04286 0
M  V30 12255 H 1694.11 0.739928 6.497 0
M  V30 12256 H 1695.6 0.60668 8.36503 0
M  V30 12257 H 1693.9 -0.352479 10.1829 0
M  V30 12258 H 1693.71 2.00611 10.0304 0
M  V30 12259 H 1692.08 1.41843 9.55327 0
M  V30 12260 H 1694.72 -1.95734 6.03555 0
M  V30 12261 P 1696.58 -1.25109 8.70152 0
M  V30 12262 O 1698 -1.35274 9.21221 0
M  V30 12263 O 1696.22 -0.0769065 7.84762 0
M  V30 12264 O 1696.25 -2.55232 7.81161 0
M  V30 12265 C 1696.09 -3.79939 8.58154 0
M  V30 12266 C 1696.63 -4.94023 7.72785 0
M  V30 12267 O 1695.58 -5.18726 6.91205 0
M  V30 12268 C 1697.85 -4.69597 6.85231 0
M  V30 12269 O 1698.59 -5.83832 6.51337 0
M  V30 12270 C 1697.18 -3.96706 5.66633 0
M  V30 12271 O 1697.98 -4.15414 4.49689 0
M  V30 12272 C 1695.85 -4.66153 5.59313 0
M  V30 12273 H 1695.88 -5.47679 4.85214 0
M  V30 12274 H 1697.06 -2.89008 5.86566 0
M  V30 12275 H 1698.55 -4.0121 7.36511 0
M  V30 12276 H 1696.85 -5.80182 8.37584 0
M  V30 12277 H 1696.66 -3.73517 9.52265 0
M  V30 12278 H 1695.03 -3.97163 8.80359 0
M  V30 12279 H 1697.67 -4.90969 4.01921 0
M  V30 12280 P 1699.53 -5.75688 6.64379 0
M  V30 12281 O 1700.93 -6.11991 7.09136 0
M  V30 12282 O 1699.15 -4.30899 6.62018 0
M  V30 12283 O 1699.21 -6.36965 5.19102 0
M  V30 12284 C 1699.05 -7.83578 5.16515 0
M  V30 12285 C 1699.59 -8.33307 3.82977 0
M  V30 12286 O 1698.53 -8.0998 3.00999 0
M  V30 12287 C 1700.8 -7.65514 3.2257 0
M  V30 12288 O 1701.54 -8.4329 2.32297 0
M  V30 12289 C 1700.14 -6.40075 2.62207 0
M  V30 12290 O 1700.93 -5.92492 1.53687 0
M  V30 12291 C 1698.8 -6.9454 2.18503 0
M  V30 12292 N 1697.75 -5.95905 2.39948 0
M  V30 12293 C 1696.72 -5.89764 1.49837 0
M  V30 12294 O 1696.76 -6.64088 0.490975 0
M  V30 12295 N 1695.71 -5.02821 1.70992 0
M  V30 12296 C 1695.76 -4.21498 2.77236 0
M  V30 12297 N 1694.75 -3.37475 2.96465 0
M  V30 12298 C 1696.85 -4.23389 3.68205 0
M  V30 12299 C 1697.82 -5.12792 3.46171 0
M  V30 12300 H 1698.83 -7.22964 1.12076 0
M  V30 12301 H 1700.01 -5.60502 3.36589 0
M  V30 12302 H 1701.5 -7.36197 4.01993 0
M  V30 12303 H 1699.8 -9.41302 3.90009 0
M  V30 12304 H 1699.61 -8.29056 5.99158 0
M  V30 12305 H 1697.98 -8.09989 5.25828 0
M  V30 12306 H 1696.9 -3.54747 4.52399 0
M  V30 12307 H 1698.66 -5.18551 4.1489 0
M  V30 12308 H 1693.96 -3.36058 2.30304 0
M  V30 12309 H 1694.75 -2.73846 3.77171 0
M  V30 12310 H 1700.72 -6.40705 0.751752 0
M  V30 12311 P 1702.48 -8.4349 2.47671 0
M  V30 12312 O 1703.9 -8.94167 2.5964 0
M  V30 12313 O 1702.12 -7.1704 3.19006 0
M  V30 12314 O 1702.16 -8.16596 0.923387 0
M  V30 12315 C 1702 -9.38437 0.108857 0
M  V30 12316 C 1702.54 -9.08175 -1.28353 0
M  V30 12317 O 1701.48 -8.44229 -1.84713 0
M  V30 12318 C 1703.75 -8.18386 -1.42505 0
M  V30 12319 O 1704.49 -8.3501 -2.60497 0
M  V30 12320 C 1703.08 -6.80225 -1.25468 0
M  V30 12321 O 1703.88 -5.81621 -1.91066 0
M  V30 12322 C 1701.75 -7.02416 -1.9168 0
M  V30 12323 H 1701.78 -6.6888 -2.96621 0
M  V30 12324 H 1702.96 -6.53617 -0.192223 0
M  V30 12325 H 1704.45 -8.36622 -0.589963 0
M  V30 12326 H 1702.75 -10.0291 -1.79807 0
M  V30 12327 H 1702.56 -10.2138 0.558219 0
M  V30 12328 H 1700.93 -9.6579 0.0444202 0
M  V30 12329 H 1703.57 -5.69556 -2.79637 0
M  V30 12330 P 1705.43 -8.4349 -2.47671 0
M  V30 12331 O 1706.85 -8.92689 -2.65029 0
M  V30 12332 O 1705.07 -7.7568 -1.19296 0
M  V30 12333 O 1705.11 -7.36886 -3.63805 0
M  V30 12334 C 1704.95 -7.95433 -4.98253 0
M  V30 12335 C 1705.49 -6.94612 -5.98974 0
M  V30 12336 O 1704.43 -6.10277 -6.11744 0
M  V30 12337 C 1706.7 -6.11426 -5.62335 0
M  V30 12338 O 1707.44 -5.6162 -6.70584 0
M  V30 12339 C 1706.04 -5.04409 -4.73308 0
M  V30 12340 O 1706.83 -3.86404 -4.74719 0
M  V30 12341 C 1704.7 -4.8728 -5.41006 0
M  V30 12342 N 1703.66 -4.65812 -4.42377 0
M  V30 12343 C 1703.82 -5.09132 -3.15382 0
M  V30 12344 N 1702.8 -4.84021 -2.3716 0
M  V30 12345 C 1701.91 -4.18386 -3.20441 0
M  V30 12346 C 1700.65 -3.6275 -2.94905 0
M  V30 12347 N 1700.05 -3.65794 -1.73372 0
M  V30 12348 N 1700.08 -3.05008 -4.05243 0
M  V30 12349 C 1700.68 -2.98348 -5.28159 0
M  V30 12350 N 1701.86 -3.48171 -5.56333 0
M  V30 12351 C 1702.43 -4.06869 -4.47212 0
M  V30 12352 H 1704.73 -4.02278 -6.11074 0
M  V30 12353 H 1705.91 -5.39013 -3.70026 0
M  V30 12354 H 1707.4 -6.71916 -5.01943 0
M  V30 12355 H 1705.7 -7.45796 -6.94223 0
M  V30 12356 H 1705.51 -8.89416 -5.05237 0
M  V30 12357 H 1703.88 -8.14876 -5.18409 0
M  V30 12358 H 1700.15 -2.47853 -6.07807 0
M  V30 12359 H 1704.72 -5.59989 -2.81362 0
M  V30 12360 H 1699.12 -3.23218 -1.60782 0
M  V30 12361 H 1700.52 -4.10523 -0.937856 0
M  V30 12362 H 1706.52 -3.27906 -5.43085 0
M  V30 12363 P 1708.38 -5.75688 -6.64379 0
M  V30 12364 O 1709.8 -6.07627 -7.05504 0
M  V30 12365 O 1708.02 -5.88047 -5.19722 0
M  V30 12366 O 1708.06 -4.2322 -7.04443 0
M  V30 12367 C 1707.9 -3.99743 -8.4911 0
M  V30 12368 C 1708.44 -2.60516 -8.79425 0
M  V30 12369 O 1707.38 -1.82684 -8.4467 0
M  V30 12370 C 1709.66 -2.10343 -8.03628 0
M  V30 12371 O 1710.39 -1.09919 -8.67766 0
M  V30 12372 C 1708.99 -1.68446 -6.70876 0
M  V30 12373 O 1709.79 -0.678137 -6.08433 0
M  V30 12374 C 1707.65 -1.17436 -7.18567 0
M  V30 12375 H 1707.68 -0.0804732 -7.31656 0
M  V30 12376 H 1708.86 -2.54037 -6.02537 0
M  V30 12377 H 1710.35 -2.93881 -7.85526 0
M  V30 12378 H 1708.65 -2.53065 -9.86973 0
M  V30 12379 H 1708.46 -4.75072 -9.05887 0
M  V30 12380 H 1706.83 -4.05244 -8.76668 0
M  V30 12381 H 1709.47 0.177647 -6.34251 0
M  V30 12382 P 1711.33 -1.25109 -8.70152 0
M  V30 12383 O 1712.75 -1.29744 -9.22016 0
M  V30 12384 O 1710.97 -2.13714 -7.55141 0
M  V30 12385 O 1711.01 0.248149 -8.21425 0
M  V30 12386 C 1710.85 1.22779 -9.30434 0
M  V30 12387 C 1711.39 2.56293 -8.80664 0
M  V30 12388 O 1710.33 3.02979 -8.09349 0
M  V30 12389 C 1712.61 2.57523 -7.89775 0
M  V30 12390 O 1713.34 3.7668 -7.89438 0
M  V30 12391 C 1711.94 2.20997 -6.55446 0
M  V30 12392 O 1712.74 2.71895 -5.48509 0
M  V30 12393 C 1710.6 2.89693 -6.67988 0
M  V30 12394 H 1710.63 3.88793 -6.19859 0
M  V30 12395 H 1711.81 1.12046 -6.44229 0
M  V30 12396 H 1713.3 1.7746 -8.19711 0
M  V30 12397 H 1711.6 3.20706 -9.67112 0
M  V30 12398 H 1711.41 0.901032 -10.1892 0
M  V30 12399 H 1709.78 1.33049 -9.56592 0
M  V30 12400 H 1712.42 3.57847 -5.23962 0
M  V30 12401 P 1714.28 3.65191 -7.99657 0
M  V30 12402 O 1715.7 3.89374 -8.45885 0
M  V30 12403 O 1713.92 2.28472 -7.50807 0
M  V30 12404 O 1713.96 4.64972 -6.77611 0
M  V30 12405 C 1713.8 6.06383 -7.16428 0
M  V30 12406 C 1714.34 6.91731 -6.02299 0
M  V30 12407 O 1713.28 6.92369 -5.17005 0
M  V30 12408 C 1715.56 6.43627 -5.25174 0
M  V30 12409 O 1716.29 7.43686 -4.60469 0
M  V30 12410 C 1714.89 5.40275 -4.31916 0
M  V30 12411 O 1715.69 5.24878 -3.14911 0
M  V30 12412 C 1713.55 6.04847 -4.05327 0
M  V30 12413 N 1712.51 5.04166 -3.98114 0
M  V30 12414 C 1712.68 3.84629 -4.59066 0
M  V30 12415 N 1711.65 3.0363 -4.45343 0
M  V30 12416 C 1710.76 3.76722 -3.68523 0
M  V30 12417 C 1709.5 3.43528 -3.17088 0
M  V30 12418 N 1708.9 2.23665 -3.37397 0
M  V30 12419 N 1708.93 4.44526 -2.44231 0
M  V30 12420 C 1709.53 5.65243 -2.20146 0
M  V30 12421 N 1710.71 6.00221 -2.65453 0
M  V30 12422 C 1711.29 5.00564 -3.39083 0
M  V30 12423 H 1713.58 6.62104 -3.11218 0
M  V30 12424 H 1714.77 4.42969 -4.80867 0
M  V30 12425 H 1716.25 5.92458 -5.93643 0
M  V30 12426 H 1714.55 7.93295 -6.39407 0
M  V30 12427 H 1714.36 6.26671 -8.0846 0
M  V30 12428 H 1712.73 6.29101 -7.32804 0
M  V30 12429 H 1709 6.36894 -1.5883 0
M  V30 12430 H 1713.58 3.58193 -5.14248 0
M  V30 12431 H 1707.97 2.05145 -2.97047 0
M  V30 12432 H 1709.37 1.51255 -3.92998 0
M  V30 12433 H 1715.37 5.84223 -2.47279 0
M  V30 12434 P 1717.23 7.39546 -4.75277 0
M  V30 12435 O 1718.65 7.84798 -5.01039 0
M  V30 12436 O 1716.87 5.9812 -5.08098 0
M  V30 12437 O 1716.91 7.57503 -3.1866 0
M  V30 12438 C 1716.75 8.97357 -2.74833 0
M  V30 12439 C 1717.29 9.07548 -1.32709 0
M  V30 12440 O 1716.23 8.62072 -0.606159 0
M  V30 12441 C 1718.51 8.25383 -0.938334 0
M  V30 12442 O 1719.24 8.74577 0.146954 0
M  V30 12443 C 1717.84 6.8802 -0.712559 0
M  V30 12444 O 1718.64 6.1189 0.194655 0
M  V30 12445 C 1716.5 7.27966 -0.139777 0
M  V30 12446 H 1716.53 7.25354 0.961601 0
M  V30 12447 H 1717.72 6.32557 -1.65702 0
M  V30 12448 H 1719.2 8.19355 -1.79097 0
M  V30 12449 H 1717.51 10.1294 -1.10029 0
M  V30 12450 H 1717.32 9.64276 -3.41316 0
M  V30 12451 H 1715.69 9.25417 -2.76357 0
M  V30 12452 H 1718.32 6.25267 1.07847 0
M  V30 12453 P 1720.18 8.791 1.44399e-11 0
M  V30 12454 O 1721.6 9.31296 0.027939 0
M  V30 12455 O 1719.82 7.77869 -1.04071 0
M  V30 12456 O 1719.86 8.09533 1.41463 0
M  V30 12457 C 1719.7 9.0349 2.53943 0
M  V30 12458 C 1720.24 8.35135 3.78975 0
M  V30 12459 O 1719.18 7.57992 4.15078 0
M  V30 12460 C 1721.46 7.45087 3.67298 0
M  V30 12461 O 1722.2 7.27796 4.85194 0
M  V30 12462 C 1720.79 6.17323 3.12027 0
M  V30 12463 O 1721.59 5.04149 3.47132 0
M  V30 12464 C 1719.45 6.19961 3.81809 0
M  V30 12465 N 1718.41 5.71575 2.93223 0
M  V30 12466 C 1718.47 5.97133 1.62693 0
M  V30 12467 N 1717.43 5.44066 0.984414 0
M  V30 12468 C 1716.69 4.87093 1.93987 0
M  V30 12469 C 1715.39 4.26449 1.8738 0
M  V30 12470 O 1714.65 4.1089 0.884377 0
M  V30 12471 N 1714.96 3.82483 3.08036 0
M  V30 12472 C 1715.7 3.95124 4.27727 0
M  V30 12473 N 1715.11 3.4084 5.39089 0
M  V30 12474 N 1716.86 4.55264 4.3706 0
M  V30 12475 C 1717.31 5.00861 3.18217 0
M  V30 12476 H 1719.48 5.58218 4.73051 0
M  V30 12477 H 1720.67 6.21631 2.02558 0
M  V30 12478 H 1722.15 7.85819 2.93096 0
M  V30 12479 H 1720.46 9.11627 4.55076 0
M  V30 12480 H 1720.27 9.9573 2.34194 0
M  V30 12481 H 1718.64 9.2792 2.67832 0
M  V30 12482 H 1714.06 3.38323 3.1329 0
M  V30 12483 H 1719.27 6.53891 1.14265 0
M  V30 12484 H 1714.2 2.93852 5.30559 0
M  V30 12485 H 1715.57 3.47631 6.30632 0
M  V30 12486 H 1721.28 4.67628 4.28704 0
M  V30 12487 P 1723.13 7.39546 4.75277 0
M  V30 12488 O 1724.55 7.81777 5.05738 0
M  V30 12489 O 1722.77 7.1065 3.32998 0
M  V30 12490 O 1722.81 6.04542 5.56673 0
M  V30 12491 C 1722.65 6.22772 7.02095 0
M  V30 12492 C 1723.19 4.97725 7.70406 0
M  V30 12493 O 1722.13 4.13256 7.58987 0
M  V30 12494 C 1724.41 4.28231 7.11815 0
M  V30 12495 O 1725.15 3.49945 8.01648 0
M  V30 12496 C 1723.74 3.5063 5.96244 0
M  V30 12497 O 1724.54 2.36482 5.64681 0
M  V30 12498 C 1722.4 3.15122 6.56374 0
M  V30 12499 H 1722.43 2.13853 6.99751 0
M  V30 12500 H 1723.62 4.13501 5.06559 0
M  V30 12501 H 1725.1 5.03285 6.70911 0
M  V30 12502 H 1723.41 5.20877 8.75697 0
M  V30 12503 H 1723.22 7.11046 7.35349 0
M  V30 12504 H 1721.59 6.35815 7.26986 0
M  V30 12505 H 1724.23 1.61644 6.13565 0
M  V30 12506 P 1726.08 3.65191 7.99657 0
M  V30 12507 O 1727.5 3.84292 8.48206 0
M  V30 12508 O 1725.72 4.17805 6.64342 0
M  V30 12509 O 1725.76 2.07613 7.95143 0
M  V30 12510 C 1725.6 1.44344 9.27435 0
M  V30 12511 C 1726.14 0.0220036 9.17197 0
M  V30 12512 O 1725.09 -0.626794 8.61824 0
M  V30 12513 C 1727.36 -0.24586 8.30336 0
M  V30 12514 O 1728.1 -1.39011 8.63583 0
M  V30 12515 C 1726.69 -0.273849 6.91158 0
M  V30 12516 O 1727.49 -1.05728 6.029 0
M  V30 12517 C 1725.35 -0.897649 7.22545 0
M  V30 12518 N 1724.31 -0.292839 6.41732 0
M  V30 12519 C 1724.48 0.950603 5.91308 0
M  V30 12520 N 1723.45 1.37732 5.21105 0
M  V30 12521 C 1722.57 0.318109 5.26039 0
M  V30 12522 C 1721.3 0.146766 4.6727 0
M  V30 12523 N 1720.7 1.08519 3.89983 0
M  V30 12524 N 1720.73 -1.06525 4.95887 0
M  V30 12525 C 1721.34 -2.0378 5.71347 0
M  V30 12526 N 1722.51 -1.92445 6.27451 0
M  V30 12527 C 1723.09 -0.715382 6.00353 0
M  V30 12528 H 1725.38 -1.98383 7.04189 0
M  V30 12529 H 1726.57 0.733318 6.49674 0
M  V30 12530 H 1728.05 0.60668 8.36503 0
M  V30 12531 H 1726.36 -0.362662 10.1825 0
M  V30 12532 H 1726.17 2.00611 10.0304 0
M  V30 12533 H 1724.54 1.41843 9.55327 0
M  V30 12534 H 1720.8 -2.97041 5.85344 0
M  V30 12535 H 1725.38 1.54076 6.07465 0
M  V30 12536 H 1719.77 0.901517 3.49562 0
M  V30 12537 H 1721.17 1.97957 3.71669 0
M  V30 12538 H 1727.18 -1.95704 6.0346 0
M  V30 12539 P 1729.03 -1.25109 8.70152 0
M  V30 12540 O 1730.46 -1.35274 9.21221 0
M  V30 12541 O 1728.67 -0.0769065 7.84762 0
M  V30 12542 O 1728.71 -2.55232 7.81161 0
M  V30 12543 C 1728.55 -3.79939 8.58154 0
M  V30 12544 C 1729.09 -4.94023 7.72785 0
M  V30 12545 O 1728.04 -5.18726 6.91205 0
M  V30 12546 C 1730.31 -4.69597 6.85231 0
M  V30 12547 O 1731.05 -5.83832 6.51337 0
M  V30 12548 C 1729.64 -3.96706 5.66633 0
M  V30 12549 O 1730.44 -4.15414 4.49689 0
M  V30 12550 C 1728.3 -4.66153 5.59313 0
M  V30 12551 H 1728.34 -5.47679 4.85214 0
M  V30 12552 H 1729.52 -2.89008 5.86566 0
M  V30 12553 H 1731 -4.0121 7.36511 0
M  V30 12554 H 1729.31 -5.80182 8.37584 0
M  V30 12555 H 1729.12 -3.73517 9.52265 0
M  V30 12556 H 1727.49 -3.97163 8.80359 0
M  V30 12557 H 1730.13 -4.90969 4.01921 0
M  V30 12558 P 1731.98 -5.75688 6.64379 0
M  V30 12559 O 1733.41 -6.11915 7.01921 0
M  V30 12560 O 1731.62 -4.30744 6.56026 0
M  V30 12561 O 1731.66 -6.37042 5.19165 0
M  V30 12562 C 1731.5 -7.83662 5.1657 0
M  V30 12563 C 1732.04 -8.33398 3.83019 0
M  V30 12564 O 1730.99 -8.0998 3.00999 0
M  V30 12565 C 1733.26 -7.65514 3.2257 0
M  V30 12566 O 1734 -8.4329 2.32297 0
M  V30 12567 C 1732.59 -6.40075 2.62207 0
M  V30 12568 O 1733.39 -5.92338 1.5428 0
M  V30 12569 C 1731.25 -6.9454 2.18503 0
M  V30 12570 N 1730.21 -5.95905 2.39948 0
M  V30 12571 C 1730.38 -4.98383 3.32108 0
M  V30 12572 N 1729.35 -4.16798 3.41761 0
M  V30 12573 C 1728.47 -4.65287 2.47461 0
M  V30 12574 C 1727.2 -4.18946 2.07461 0
M  V30 12575 N 1726.6 -3.09661 2.60717 0
M  V30 12576 N 1726.64 -4.95327 1.09101 0
M  V30 12577 C 1727.24 -6.04369 0.519812 0
M  V30 12578 N 1728.41 -6.50694 0.855982 0
M  V30 12579 C 1728.99 -5.75818 1.84322 0
M  V30 12580 H 1731.29 -7.22964 1.12076 0
M  V30 12581 H 1732.47 -5.60502 3.36589 0
M  V30 12582 H 1733.95 -7.35707 4.02681 0
M  V30 12583 H 1732.26 -9.41302 3.90009 0
M  V30 12584 H 1732.07 -8.29056 5.99158 0
M  V30 12585 H 1730.44 -8.10073 5.25882 0
M  V30 12586 H 1726.7 -6.55843 -0.270373 0
M  V30 12587 H 1731.28 -4.88564 3.92502 0
M  V30 12588 H 1725.67 -2.80523 2.27218 0
M  V30 12589 H 1727.08 -2.55848 3.34465 0
M  V30 12590 H 1733.08 -6.30224 0.72668 0
M  V30 12591 P 1734.94 -8.4349 2.47671 0
M  V30 12592 O 1736.36 -8.94167 2.5964 0
M  V30 12593 O 1734.58 -7.1704 3.19006 0
M  V30 12594 O 1734.61 -8.16596 0.923387 0
M  V30 12595 C 1734.45 -9.38437 0.108857 0
M  V30 12596 C 1734.99 -9.08175 -1.28353 0
M  V30 12597 O 1733.94 -8.44229 -1.84713 0
M  V30 12598 C 1736.21 -8.18386 -1.42505 0
M  V30 12599 O 1736.95 -8.3501 -2.60497 0
M  V30 12600 C 1735.54 -6.80225 -1.25468 0
M  V30 12601 O 1736.34 -5.81621 -1.91066 0
M  V30 12602 C 1734.2 -7.02416 -1.9168 0
M  V30 12603 H 1734.24 -6.6888 -2.96621 0
M  V30 12604 H 1735.42 -6.53617 -0.192223 0
M  V30 12605 H 1736.9 -8.36622 -0.589963 0
M  V30 12606 H 1735.21 -10.0291 -1.79807 0
M  V30 12607 H 1735.02 -10.2138 0.558219 0
M  V30 12608 H 1733.39 -9.6579 0.0444202 0
M  V30 12609 H 1736.03 -5.69556 -2.79637 0
M  V30 12610 P 1737.89 -8.4349 -2.47671 0
M  V30 12611 O 1739.31 -8.92593 -2.65 0
M  V30 12612 O 1737.53 -7.7568 -1.19296 0
M  V30 12613 O 1737.56 -7.36886 -3.63805 0
M  V30 12614 C 1737.4 -7.95349 -4.982 0
M  V30 12615 C 1737.94 -6.94612 -5.98974 0
M  V30 12616 O 1736.89 -6.10347 -6.11815 0
M  V30 12617 C 1739.16 -6.11426 -5.62335 0
M  V30 12618 O 1739.9 -5.6162 -6.70584 0
M  V30 12619 C 1738.49 -5.04409 -4.73308 0
M  V30 12620 O 1739.29 -3.85992 -4.75183 0
M  V30 12621 C 1737.15 -4.8728 -5.41006 0
M  V30 12622 H 1737.19 -4.02333 -6.11157 0
M  V30 12623 H 1738.37 -5.39466 -3.69543 0
M  V30 12624 H 1739.85 -6.71916 -5.01943 0
M  V30 12625 H 1738.16 -7.4649 -6.93477 0
M  V30 12626 H 1737.97 -8.89416 -5.05237 0
M  V30 12627 H 1736.34 -8.14876 -5.18409 0
M  V30 12628 H 1738.98 -3.27957 -5.4317 0
M  V30 12629 P 1740.84 -5.75688 -6.64379 0
M  V30 12630 O 1742.26 -6.07627 -7.05504 0
M  V30 12631 O 1740.48 -5.88047 -5.19722 0
M  V30 12632 O 1740.51 -4.2322 -7.04443 0
M  V30 12633 C 1740.35 -3.99743 -8.4911 0
M  V30 12634 C 1740.89 -2.60516 -8.79425 0
M  V30 12635 O 1739.84 -1.82684 -8.4467 0
M  V30 12636 C 1742.11 -2.10343 -8.03628 0
M  V30 12637 O 1742.85 -1.09919 -8.67766 0
M  V30 12638 C 1741.44 -1.68446 -6.70876 0
M  V30 12639 O 1742.24 -0.678137 -6.08433 0
M  V30 12640 C 1740.11 -1.17436 -7.18567 0
M  V30 12641 H 1740.14 -0.0804732 -7.31656 0
M  V30 12642 H 1741.32 -2.54037 -6.02537 0
M  V30 12643 H 1742.8 -2.93881 -7.85526 0
M  V30 12644 H 1741.11 -2.53065 -9.86973 0
M  V30 12645 H 1740.92 -4.75072 -9.05887 0
M  V30 12646 H 1739.29 -4.05244 -8.76668 0
M  V30 12647 H 1741.93 0.177647 -6.34251 0
M  V30 12648 P 1743.79 -1.25109 -8.70152 0
M  V30 12649 O 1745.21 -1.29744 -9.22016 0
M  V30 12650 O 1743.43 -2.13714 -7.55141 0
M  V30 12651 O 1743.46 0.248149 -8.21425 0
M  V30 12652 C 1743.3 1.22779 -9.30434 0
M  V30 12653 C 1743.84 2.56293 -8.80664 0
M  V30 12654 O 1742.79 3.02979 -8.09349 0
M  V30 12655 C 1745.06 2.57523 -7.89775 0
M  V30 12656 O 1745.8 3.7668 -7.89438 0
M  V30 12657 C 1744.39 2.20997 -6.55446 0
M  V30 12658 O 1745.19 2.71895 -5.48509 0
M  V30 12659 C 1743.06 2.89693 -6.67988 0
M  V30 12660 H 1743.09 3.88793 -6.19859 0
M  V30 12661 H 1744.27 1.12046 -6.44229 0
M  V30 12662 H 1745.75 1.7746 -8.19711 0
M  V30 12663 H 1744.06 3.20706 -9.67112 0
M  V30 12664 H 1743.87 0.901032 -10.1892 0
M  V30 12665 H 1742.24 1.33049 -9.56592 0
M  V30 12666 H 1744.88 3.57847 -5.23962 0
M  V30 12667 P 1746.74 3.65191 -7.99657 0
M  V30 12668 O 1748.16 3.89332 -8.45794 0
M  V30 12669 O 1746.38 2.28472 -7.50807 0
M  V30 12670 O 1746.41 4.64972 -6.77611 0
M  V30 12671 C 1746.25 6.06319 -7.16352 0
M  V30 12672 C 1746.79 6.91731 -6.02299 0
M  V30 12673 O 1745.74 6.92449 -5.17064 0
M  V30 12674 C 1748.01 6.43627 -5.25174 0
M  V30 12675 O 1748.75 7.43686 -4.60469 0
M  V30 12676 C 1747.34 5.40275 -4.31916 0
M  V30 12677 O 1748.14 5.25279 -3.14438 0
M  V30 12678 C 1746.01 6.04847 -4.05327 0
M  V30 12679 H 1746.04 6.62195 -3.11261 0
M  V30 12680 H 1747.22 4.42556 -4.81383 0
M  V30 12681 H 1748.71 5.92458 -5.93643 0
M  V30 12682 H 1747.01 7.92655 -6.402 0
M  V30 12683 H 1746.82 6.26671 -8.0846 0
M  V30 12684 H 1745.19 6.29101 -7.32804 0
M  V30 12685 H 1747.83 5.84315 -2.47318 0
M  V30 12686 P 1749.69 7.39546 -4.75277 0
M  V30 12687 O 1751.11 7.84798 -5.01039 0
M  V30 12688 O 1749.33 5.9812 -5.08098 0
M  V30 12689 O 1749.37 7.57503 -3.1866 0
M  V30 12690 C 1749.21 8.97357 -2.74833 0
M  V30 12691 C 1749.75 9.07548 -1.32709 0
M  V30 12692 O 1748.69 8.62072 -0.606159 0
M  V30 12693 C 1750.96 8.25383 -0.938334 0
M  V30 12694 O 1751.7 8.74577 0.146954 0
M  V30 12695 C 1750.29 6.8802 -0.712559 0
M  V30 12696 O 1751.09 6.1189 0.194655 0
M  V30 12697 C 1748.96 7.27966 -0.139777 0
M  V30 12698 H 1748.99 7.25354 0.961601 0
M  V30 12699 H 1750.17 6.32557 -1.65702 0
M  V30 12700 H 1751.66 8.19355 -1.79097 0
M  V30 12701 H 1749.96 10.1294 -1.10029 0
M  V30 12702 H 1749.77 9.64276 -3.41316 0
M  V30 12703 H 1748.14 9.25417 -2.76357 0
M  V30 12704 H 1750.78 6.25267 1.07847 0
M  V30 12705 P 1752.64 8.791 1.47501e-11 0
M  V30 12706 O 1754.06 9.31096 0.027933 0
M  V30 12707 O 1752.28 7.77869 -1.04071 0
M  V30 12708 O 1752.32 8.09533 1.41463 0
M  V30 12709 C 1752.16 9.0349 2.53943 0
M  V30 12710 C 1752.7 8.35226 3.79016 0
M  V30 12711 O 1751.64 7.57992 4.15078 0
M  V30 12712 C 1753.91 7.45087 3.67298 0
M  V30 12713 O 1754.65 7.27796 4.85194 0
M  V30 12714 C 1753.24 6.17323 3.12027 0
M  V30 12715 O 1754.04 5.04231 3.47188 0
M  V30 12716 C 1751.91 6.19961 3.81809 0
M  V30 12717 H 1751.94 5.58218 4.73051 0
M  V30 12718 H 1753.12 6.21726 2.02589 0
M  V30 12719 H 1754.61 7.86112 2.9231 0
M  V30 12720 H 1752.91 9.11627 4.55076 0
M  V30 12721 H 1752.72 9.9573 2.34194 0
M  V30 12722 H 1751.09 9.2792 2.67832 0
M  V30 12723 H 1753.73 4.67702 4.28772 0
M  V30 12724 P 1755.59 7.39546 4.75277 0
M  V30 12725 O 1757.01 7.81777 5.05738 0
M  V30 12726 O 1755.23 7.1065 3.32998 0
M  V30 12727 O 1755.27 6.04542 5.56673 0
M  V30 12728 C 1755.11 6.22772 7.02095 0
M  V30 12729 C 1755.65 4.97725 7.70406 0
M  V30 12730 O 1754.59 4.13256 7.58987 0
M  V30 12731 C 1756.86 4.28231 7.11815 0
M  V30 12732 O 1757.6 3.49945 8.01648 0
M  V30 12733 C 1756.2 3.5063 5.96244 0
M  V30 12734 O 1756.99 2.36482 5.64681 0
M  V30 12735 C 1754.86 3.15122 6.56374 0
M  V30 12736 H 1754.89 2.13853 6.99751 0
M  V30 12737 H 1756.07 4.13501 5.06559 0
M  V30 12738 H 1757.56 5.03285 6.70911 0
M  V30 12739 H 1755.86 5.20877 8.75697 0
M  V30 12740 H 1755.67 7.11046 7.35349 0
M  V30 12741 H 1754.04 6.35815 7.26986 0
M  V30 12742 H 1756.68 1.61644 6.13565 0
M  V30 12743 P 1758.54 3.65191 7.99657 0
M  V30 12744 O 1759.96 3.8425 8.48115 0
M  V30 12745 O 1758.18 4.17805 6.64342 0
M  V30 12746 O 1758.22 2.07613 7.95143 0
M  V30 12747 C 1758.06 1.44328 9.27336 0
M  V30 12748 C 1758.6 0.0220036 9.17197 0
M  V30 12749 O 1757.54 -0.626867 8.61923 0
M  V30 12750 C 1759.81 -0.24586 8.30336 0
M  V30 12751 O 1760.55 -1.39011 8.63583 0
M  V30 12752 C 1759.15 -0.273849 6.91158 0
M  V30 12753 O 1759.94 -1.06348 6.02892 0
M  V30 12754 C 1757.81 -0.897649 7.22545 0
M  V30 12755 H 1757.84 -1.9841 7.04286 0
M  V30 12756 H 1759.02 0.739928 6.497 0
M  V30 12757 H 1760.51 0.60668 8.36503 0
M  V30 12758 H 1758.81 -0.352479 10.1829 0
M  V30 12759 H 1758.62 2.00611 10.0304 0
M  V30 12760 H 1756.99 1.41843 9.55327 0
M  V30 12761 H 1759.63 -1.95734 6.03555 0
M  V30 12762 P 1761.49 -1.25109 8.70152 0
M  V30 12763 O 1762.91 -1.35274 9.21221 0
M  V30 12764 O 1761.13 -0.0769065 7.84762 0
M  V30 12765 O 1761.17 -2.55232 7.81161 0
M  V30 12766 C 1761.01 -3.79939 8.58154 0
M  V30 12767 C 1761.55 -4.94023 7.72785 0
M  V30 12768 O 1760.49 -5.18726 6.91205 0
M  V30 12769 C 1762.77 -4.69597 6.85231 0
M  V30 12770 O 1763.5 -5.83832 6.51337 0
M  V30 12771 C 1762.1 -3.96706 5.66633 0
M  V30 12772 O 1762.9 -4.15414 4.49689 0
M  V30 12773 C 1760.76 -4.66153 5.59313 0
M  V30 12774 H 1760.79 -5.47679 4.85214 0
M  V30 12775 H 1761.97 -2.89008 5.86566 0
M  V30 12776 H 1763.46 -4.0121 7.36511 0
M  V30 12777 H 1761.76 -5.80182 8.37584 0
M  V30 12778 H 1761.57 -3.73517 9.52265 0
M  V30 12779 H 1759.94 -3.97163 8.80359 0
M  V30 12780 H 1762.58 -4.90969 4.01921 0
M  V30 12781 P 1764.44 -5.75688 6.64379 0
M  V30 12782 O 1765.86 -6.11915 7.01921 0
M  V30 12783 O 1764.08 -4.30744 6.56026 0
M  V30 12784 O 1764.12 -6.37042 5.19165 0
M  V30 12785 C 1763.96 -7.83662 5.1657 0
M  V30 12786 C 1764.5 -8.33398 3.83019 0
M  V30 12787 O 1763.44 -8.0998 3.00999 0
M  V30 12788 C 1765.72 -7.65514 3.2257 0
M  V30 12789 O 1766.45 -8.4329 2.32297 0
M  V30 12790 C 1765.05 -6.40075 2.62207 0
M  V30 12791 O 1765.85 -5.92338 1.5428 0
M  V30 12792 C 1763.71 -6.9454 2.18503 0
M  V30 12793 N 1762.67 -5.95905 2.39948 0
M  V30 12794 C 1762.84 -4.98383 3.32108 0
M  V30 12795 N 1761.81 -4.16798 3.41761 0
M  V30 12796 C 1760.92 -4.65287 2.47461 0
M  V30 12797 C 1759.66 -4.18946 2.07461 0
M  V30 12798 N 1759.09 -4.95327 1.09101 0
M  V30 12799 C 1759.69 -6.04369 0.519812 0
M  V30 12800 N 1760.87 -6.50694 0.855982 0
M  V30 12801 C 1761.45 -5.75818 1.84322 0
M  V30 12802 H 1764.92 -5.60502 3.36589 0
M  V30 12803 H 1766.41 -7.35707 4.02681 0
M  V30 12804 H 1764.71 -9.41302 3.90009 0
M  V30 12805 H 1764.52 -8.29056 5.99158 0
M  V30 12806 H 1762.89 -8.10073 5.25882 0
M  V30 12807 H 1763.74 -4.88564 3.92502 0
M  V30 12808 H 1765.53 -6.30224 0.72668 0
M  V30 12809 P 1767.39 -8.4349 2.47671 0
M  V30 12810 O 1768.81 -8.94167 2.5964 0
M  V30 12811 O 1767.03 -7.1704 3.19006 0
M  V30 12812 O 1767.07 -8.16596 0.923387 0
M  V30 12813 C 1766.91 -9.38437 0.108857 0
M  V30 12814 C 1767.45 -9.08175 -1.28353 0
M  V30 12815 O 1766.39 -8.44229 -1.84713 0
M  V30 12816 C 1768.67 -8.18386 -1.42505 0
M  V30 12817 O 1769.4 -8.3501 -2.60497 0
M  V30 12818 C 1768 -6.80225 -1.25468 0
M  V30 12819 O 1768.8 -5.81621 -1.91066 0
M  V30 12820 C 1766.66 -7.02416 -1.9168 0
M  V30 12821 H 1766.69 -6.6888 -2.96621 0
M  V30 12822 H 1767.88 -6.53617 -0.192223 0
M  V30 12823 H 1769.36 -8.36622 -0.589963 0
M  V30 12824 H 1767.67 -10.0291 -1.79807 0
M  V30 12825 H 1767.48 -10.2138 0.558219 0
M  V30 12826 H 1765.85 -9.6579 0.0444202 0
M  V30 12827 H 1768.48 -5.69556 -2.79637 0
M  V30 12828 P 1770.34 -8.4349 -2.47671 0
M  V30 12829 O 1771.76 -8.92593 -2.65 0
M  V30 12830 O 1769.98 -7.7568 -1.19296 0
M  V30 12831 O 1770.02 -7.36886 -3.63805 0
M  V30 12832 C 1769.86 -7.95349 -4.982 0
M  V30 12833 C 1770.4 -6.94612 -5.98974 0
M  V30 12834 O 1769.34 -6.10347 -6.11815 0
M  V30 12835 C 1771.62 -6.11426 -5.62335 0
M  V30 12836 O 1772.35 -5.6162 -6.70584 0
M  V30 12837 C 1770.95 -5.04409 -4.73308 0
M  V30 12838 O 1771.75 -3.85992 -4.75183 0
M  V30 12839 C 1769.61 -4.8728 -5.41006 0
M  V30 12840 H 1769.64 -4.02333 -6.11157 0
M  V30 12841 H 1770.83 -5.39466 -3.69543 0
M  V30 12842 H 1772.31 -6.71916 -5.01943 0
M  V30 12843 H 1770.62 -7.4649 -6.93477 0
M  V30 12844 H 1770.43 -8.89416 -5.05237 0
M  V30 12845 H 1768.8 -8.14876 -5.18409 0
M  V30 12846 H 1771.43 -3.27957 -5.4317 0
M  V30 12847 P 1773.29 -5.75688 -6.64379 0
M  V30 12848 O 1774.71 -6.07627 -7.05504 0
M  V30 12849 O 1772.93 -5.88047 -5.19722 0
M  V30 12850 O 1772.97 -4.2322 -7.04443 0
M  V30 12851 C 1772.81 -3.99743 -8.4911 0
M  V30 12852 C 1773.35 -2.60516 -8.79425 0
M  V30 12853 O 1772.29 -1.82684 -8.4467 0
M  V30 12854 C 1774.57 -2.10343 -8.03628 0
M  V30 12855 O 1775.31 -1.09919 -8.67766 0
M  V30 12856 C 1773.9 -1.68446 -6.70876 0
M  V30 12857 O 1774.7 -0.678137 -6.08433 0
M  V30 12858 C 1772.56 -1.17436 -7.18567 0
M  V30 12859 H 1772.59 -0.0804732 -7.31656 0
M  V30 12860 H 1773.78 -2.54037 -6.02537 0
M  V30 12861 H 1775.26 -2.93881 -7.85526 0
M  V30 12862 H 1773.57 -2.53065 -9.86973 0
M  V30 12863 H 1773.38 -4.75072 -9.05887 0
M  V30 12864 H 1771.75 -4.05244 -8.76668 0
M  V30 12865 H 1774.39 0.177647 -6.34251 0
M  V30 12866 P 1776.24 -1.25109 -8.70152 0
M  V30 12867 O 1777.67 -1.29744 -9.22016 0
M  V30 12868 O 1775.88 -2.13714 -7.55141 0
M  V30 12869 O 1775.92 0.248149 -8.21425 0
M  V30 12870 C 1775.76 1.22779 -9.30434 0
M  V30 12871 C 1776.3 2.56293 -8.80664 0
M  V30 12872 O 1775.24 3.02979 -8.09349 0
M  V30 12873 C 1777.52 2.57523 -7.89775 0
M  V30 12874 O 1778.26 3.7668 -7.89438 0
M  V30 12875 C 1776.85 2.20997 -6.55446 0
M  V30 12876 O 1777.65 2.71895 -5.48509 0
M  V30 12877 C 1775.51 2.89693 -6.67988 0
M  V30 12878 H 1775.54 3.88793 -6.19859 0
M  V30 12879 H 1776.73 1.12046 -6.44229 0
M  V30 12880 H 1778.21 1.7746 -8.19711 0
M  V30 12881 H 1776.52 3.20706 -9.67112 0
M  V30 12882 H 1776.33 0.901032 -10.1892 0
M  V30 12883 H 1774.7 1.33049 -9.56592 0
M  V30 12884 H 1777.34 3.57847 -5.23962 0
M  V30 12885 P 1779.19 3.65191 -7.99657 0
M  V30 12886 O 1780.62 3.89332 -8.45794 0
M  V30 12887 O 1778.83 2.28472 -7.50807 0
M  V30 12888 O 1778.87 4.64972 -6.77611 0
M  V30 12889 C 1778.71 6.06319 -7.16352 0
M  V30 12890 C 1779.25 6.91731 -6.02299 0
M  V30 12891 O 1778.19 6.92449 -5.17064 0
M  V30 12892 C 1780.47 6.43627 -5.25174 0
M  V30 12893 O 1781.21 7.43686 -4.60469 0
M  V30 12894 C 1779.8 5.40275 -4.31916 0
M  V30 12895 O 1780.6 5.25279 -3.14438 0
M  V30 12896 C 1778.46 6.04847 -4.05327 0
M  V30 12897 H 1778.49 6.62195 -3.11261 0
M  V30 12898 H 1779.68 4.42556 -4.81383 0
M  V30 12899 H 1781.16 5.92458 -5.93643 0
M  V30 12900 H 1779.47 7.92655 -6.402 0
M  V30 12901 H 1779.28 6.26671 -8.0846 0
M  V30 12902 H 1777.65 6.29101 -7.32804 0
M  V30 12903 H 1780.29 5.84315 -2.47318 0
M  V30 12904 P 1782.14 7.39546 -4.75277 0
M  V30 12905 O 1783.57 7.84798 -5.01039 0
M  V30 12906 O 1781.78 5.9812 -5.08098 0
M  V30 12907 O 1781.82 7.57503 -3.1866 0
M  V30 12908 C 1781.66 8.97357 -2.74833 0
M  V30 12909 C 1782.2 9.07548 -1.32709 0
M  V30 12910 O 1781.15 8.62072 -0.606159 0
M  V30 12911 C 1783.42 8.25383 -0.938334 0
M  V30 12912 O 1784.16 8.74577 0.146954 0
M  V30 12913 C 1782.75 6.8802 -0.712559 0
M  V30 12914 O 1783.55 6.1189 0.194655 0
M  V30 12915 C 1781.41 7.27966 -0.139777 0
M  V30 12916 H 1781.45 7.25354 0.961601 0
M  V30 12917 H 1782.63 6.32557 -1.65702 0
M  V30 12918 H 1784.11 8.19355 -1.79097 0
M  V30 12919 H 1782.42 10.1294 -1.10029 0
M  V30 12920 H 1782.23 9.64276 -3.41316 0
M  V30 12921 H 1780.6 9.25417 -2.76357 0
M  V30 12922 H 1783.24 6.25267 1.07847 0
M  V30 12923 P 1785.09 8.791 1.50603e-11 0
M  V30 12924 O 1786.52 9.31096 0.027933 0
M  V30 12925 O 1784.73 7.77869 -1.04071 0
M  V30 12926 O 1784.77 8.09533 1.41463 0
M  V30 12927 C 1784.61 9.0349 2.53943 0
M  V30 12928 C 1785.15 8.35226 3.79016 0
M  V30 12929 O 1784.1 7.57992 4.15078 0
M  V30 12930 C 1786.37 7.45087 3.67298 0
M  V30 12931 O 1787.11 7.27796 4.85194 0
M  V30 12932 C 1785.7 6.17323 3.12027 0
M  V30 12933 O 1786.5 5.04231 3.47188 0
M  V30 12934 C 1784.36 6.19961 3.81809 0
M  V30 12935 H 1784.4 5.58218 4.73051 0
M  V30 12936 H 1785.58 6.21726 2.02589 0
M  V30 12937 H 1787.06 7.86112 2.9231 0
M  V30 12938 H 1785.37 9.11627 4.55076 0
M  V30 12939 H 1785.18 9.9573 2.34194 0
M  V30 12940 H 1783.55 9.2792 2.67832 0
M  V30 12941 H 1786.19 4.67702 4.28772 0
M  V30 12942 P 1788.05 7.39546 4.75277 0
M  V30 12943 O 1789.47 7.81777 5.05738 0
M  V30 12944 O 1787.69 7.1065 3.32998 0
M  V30 12945 O 1787.72 6.04542 5.56673 0
M  V30 12946 C 1787.56 6.22772 7.02095 0
M  V30 12947 C 1788.1 4.97725 7.70406 0
M  V30 12948 O 1787.05 4.13256 7.58987 0
M  V30 12949 C 1789.32 4.28231 7.11815 0
M  V30 12950 O 1790.06 3.49945 8.01648 0
M  V30 12951 C 1788.65 3.5063 5.96244 0
M  V30 12952 O 1789.45 2.36482 5.64681 0
M  V30 12953 C 1787.31 3.15122 6.56374 0
M  V30 12954 H 1787.35 2.13853 6.99751 0
M  V30 12955 H 1788.53 4.13501 5.06559 0
M  V30 12956 H 1790.01 5.03285 6.70911 0
M  V30 12957 H 1788.32 5.20877 8.75697 0
M  V30 12958 H 1788.13 7.11046 7.35349 0
M  V30 12959 H 1786.5 6.35815 7.26986 0
M  V30 12960 H 1789.14 1.61644 6.13565 0
M  V30 12961 P 1791 3.65191 7.99657 0
M  V30 12962 O 1792.42 3.8425 8.48115 0
M  V30 12963 O 1790.64 4.17805 6.64342 0
M  V30 12964 O 1790.67 2.07613 7.95143 0
M  V30 12965 C 1790.51 1.44328 9.27336 0
M  V30 12966 C 1791.05 0.0220036 9.17197 0
M  V30 12967 O 1790 -0.626867 8.61923 0
M  V30 12968 C 1792.27 -0.24586 8.30336 0
M  V30 12969 O 1793.01 -1.39011 8.63583 0
M  V30 12970 C 1791.6 -0.273849 6.91158 0
M  V30 12971 O 1792.4 -1.06348 6.02892 0
M  V30 12972 C 1790.26 -0.897649 7.22545 0
M  V30 12973 H 1790.3 -1.9841 7.04286 0
M  V30 12974 H 1791.48 0.739928 6.497 0
M  V30 12975 H 1792.96 0.60668 8.36503 0
M  V30 12976 H 1791.27 -0.352479 10.1829 0
M  V30 12977 H 1791.08 2.00611 10.0304 0
M  V30 12978 H 1789.45 1.41843 9.55327 0
M  V30 12979 H 1792.09 -1.95734 6.03555 0
M  V30 12980 P 1793.95 -1.25109 8.70152 0
M  V30 12981 O 1795.37 -1.35288 9.2132 0
M  V30 12982 O 1793.59 -0.0769065 7.84762 0
M  V30 12983 O 1793.62 -2.55232 7.81161 0
M  V30 12984 C 1793.46 -3.79979 8.58246 0
M  V30 12985 C 1794 -4.94023 7.72785 0
M  V30 12986 O 1792.95 -5.18666 6.91125 0
M  V30 12987 C 1795.22 -4.69597 6.85231 0
M  V30 12988 O 1795.96 -5.83832 6.51337 0
M  V30 12989 C 1794.55 -3.96706 5.66633 0
M  V30 12990 O 1795.35 -4.14896 4.5003 0
M  V30 12991 C 1793.22 -4.66153 5.59313 0
M  V30 12992 N 1792.17 -3.71582 5.24027 0
M  V30 12993 C 1792.34 -2.39715 5.48833 0
M  V30 12994 N 1791.31 -1.65863 5.12845 0
M  V30 12995 C 1790.43 -2.57637 4.5973 0
M  V30 12996 C 1789.16 -2.40278 4.01027 0
M  V30 12997 N 1788.56 -1.19549 3.86744 0
M  V30 12998 N 1788.6 -3.57711 3.59575 0
M  V30 12999 C 1789.2 -4.80324 3.70476 0
M  V30 13000 N 1790.38 -5.01121 4.23801 0
M  V30 13001 C 1790.95 -3.84757 4.66372 0
M  V30 13002 H 1793.25 -5.47604 4.85148 0
M  V30 13003 H 1794.43 -2.8955 5.86187 0
M  V30 13004 H 1795.91 -4.0121 7.36511 0
M  V30 13005 H 1794.22 -5.81019 8.37003 0
M  V30 13006 H 1794.03 -3.73517 9.52265 0
M  V30 13007 H 1792.4 -3.97163 8.80359 0
M  V30 13008 H 1788.66 -5.66348 3.3183 0
M  V30 13009 H 1793.24 -1.98804 5.94332 0
M  V30 13010 H 1787.63 -1.13147 3.4281 0
M  V30 13011 H 1789.04 -0.344074 4.19692 0
M  V30 13012 H 1795.04 -4.90891 4.01857 0
M  V30 13013 P 1796.9 -5.75688 6.64379 0
M  V30 13014 O 1798.32 -6.11849 7.01846 0
M  V30 13015 O 1796.54 -4.30744 6.56026 0
M  V30 13016 O 1796.57 -6.37042 5.19165 0
M  V30 13017 C 1796.41 -7.83578 5.16515 0
M  V30 13018 C 1796.95 -8.33398 3.83019 0
M  V30 13019 O 1795.9 -8.10074 3.01034 0
M  V30 13020 C 1798.17 -7.65514 3.2257 0
M  V30 13021 O 1798.91 -8.4329 2.32297 0
M  V30 13022 C 1797.5 -6.40075 2.62207 0
M  V30 13023 O 1798.3 -5.92589 1.53712 0
M  V30 13024 C 1796.17 -6.9454 2.18503 0
M  V30 13025 H 1796.2 -7.23063 1.12091 0
M  V30 13026 H 1797.38 -5.6025 3.37201 0
M  V30 13027 H 1798.87 -7.35707 4.02681 0
M  V30 13028 H 1797.17 -9.40912 3.9095 0
M  V30 13029 H 1796.98 -8.29056 5.99158 0
M  V30 13030 H 1795.35 -8.10073 5.25882 0
M  V30 13031 H 1797.99 -6.30324 0.726794 0
M  V30 13032 P 1799.85 -8.4349 2.47671 0
M  V30 13033 O 1801.27 -8.94167 2.5964 0
M  V30 13034 O 1799.49 -7.1704 3.19006 0
M  V30 13035 O 1799.52 -8.16596 0.923387 0
M  V30 13036 C 1799.36 -9.38437 0.108857 0
M  V30 13037 C 1799.9 -9.08175 -1.28353 0
M  V30 13038 O 1798.85 -8.44229 -1.84713 0
M  V30 13039 C 1801.12 -8.18386 -1.42505 0
M  V30 13040 O 1801.86 -8.3501 -2.60497 0
M  V30 13041 C 1800.45 -6.80225 -1.25468 0
M  V30 13042 O 1801.25 -5.81621 -1.91066 0
M  V30 13043 C 1799.12 -7.02416 -1.9168 0
M  V30 13044 H 1799.15 -6.6888 -2.96621 0
M  V30 13045 H 1800.33 -6.53617 -0.192223 0
M  V30 13046 H 1801.82 -8.36622 -0.589963 0
M  V30 13047 H 1800.12 -10.0291 -1.79807 0
M  V30 13048 H 1799.93 -10.2138 0.558219 0
M  V30 13049 H 1798.3 -9.6579 0.0444202 0
M  V30 13050 H 1800.94 -5.69556 -2.79637 0
M  V30 13051 P 1802.8 -8.4349 -2.47671 0
M  V30 13052 O 1804.22 -8.92593 -2.65 0
M  V30 13053 O 1802.44 -7.7568 -1.19296 0
M  V30 13054 O 1802.48 -7.36886 -3.63805 0
M  V30 13055 C 1802.32 -7.95349 -4.982 0
M  V30 13056 C 1802.86 -6.94612 -5.98974 0
M  V30 13057 O 1801.8 -6.10347 -6.11815 0
M  V30 13058 C 1804.07 -6.11426 -5.62335 0
M  V30 13059 O 1804.81 -5.6162 -6.70584 0
M  V30 13060 C 1803.4 -5.04409 -4.73308 0
M  V30 13061 O 1804.2 -3.85992 -4.75183 0
M  V30 13062 C 1802.07 -4.8728 -5.41006 0
M  V30 13063 H 1802.1 -4.02333 -6.11157 0
M  V30 13064 H 1803.28 -5.39466 -3.69543 0
M  V30 13065 H 1804.77 -6.71916 -5.01943 0
M  V30 13066 H 1803.07 -7.4649 -6.93477 0
M  V30 13067 H 1802.88 -8.89416 -5.05237 0
M  V30 13068 H 1801.25 -8.14876 -5.18409 0
M  V30 13069 H 1803.89 -3.27957 -5.4317 0
M  V30 13070 P 1805.75 -5.75688 -6.64379 0
M  V30 13071 O 1807.17 -6.07627 -7.05504 0
M  V30 13072 O 1805.39 -5.88047 -5.19722 0
M  V30 13073 O 1805.43 -4.2322 -7.04443 0
M  V30 13074 C 1805.27 -3.99743 -8.4911 0
M  V30 13075 C 1805.81 -2.60516 -8.79425 0
M  V30 13076 O 1804.75 -1.82684 -8.4467 0
M  V30 13077 C 1807.02 -2.10343 -8.03628 0
M  V30 13078 O 1807.76 -1.09919 -8.67766 0
M  V30 13079 C 1806.35 -1.68446 -6.70876 0
M  V30 13080 O 1807.15 -0.678137 -6.08433 0
M  V30 13081 C 1805.02 -1.17436 -7.18567 0
M  V30 13082 H 1805.05 -0.0804732 -7.31656 0
M  V30 13083 H 1806.23 -2.54037 -6.02537 0
M  V30 13084 H 1807.72 -2.93881 -7.85526 0
M  V30 13085 H 1806.02 -2.53065 -9.86973 0
M  V30 13086 H 1805.83 -4.75072 -9.05887 0
M  V30 13087 H 1804.2 -4.05244 -8.76668 0
M  V30 13088 H 1806.84 0.177647 -6.34251 0
M  V30 13089 P 1808.7 -1.25109 -8.70152 0
M  V30 13090 O 1810.12 -1.29744 -9.22016 0
M  V30 13091 O 1808.34 -2.13714 -7.55141 0
M  V30 13092 O 1808.38 0.248149 -8.21425 0
M  V30 13093 C 1808.22 1.22779 -9.30434 0
M  V30 13094 C 1808.76 2.56293 -8.80664 0
M  V30 13095 O 1807.7 3.02979 -8.09349 0
M  V30 13096 C 1809.97 2.57523 -7.89775 0
M  V30 13097 O 1810.71 3.7668 -7.89438 0
M  V30 13098 C 1809.31 2.20997 -6.55446 0
M  V30 13099 O 1810.1 2.71895 -5.48509 0
M  V30 13100 C 1807.97 2.89693 -6.67988 0
M  V30 13101 H 1808 3.88793 -6.19859 0
M  V30 13102 H 1809.18 1.12046 -6.44229 0
M  V30 13103 H 1810.67 1.7746 -8.19711 0
M  V30 13104 H 1808.97 3.20706 -9.67112 0
M  V30 13105 H 1808.78 0.901032 -10.1892 0
M  V30 13106 H 1807.15 1.33049 -9.56592 0
M  V30 13107 H 1809.79 3.57847 -5.23962 0
M  V30 13108 P 1811.65 3.65191 -7.99657 0
M  V30 13109 O 1813.07 3.89332 -8.45794 0
M  V30 13110 O 1811.29 2.28472 -7.50807 0
M  V30 13111 O 1811.33 4.64972 -6.77611 0
M  V30 13112 C 1811.17 6.06319 -7.16352 0
M  V30 13113 C 1811.71 6.91731 -6.02299 0
M  V30 13114 O 1810.65 6.92449 -5.17064 0
M  V30 13115 C 1812.92 6.43627 -5.25174 0
M  V30 13116 O 1813.66 7.43686 -4.60469 0
M  V30 13117 C 1812.26 5.40275 -4.31916 0
M  V30 13118 O 1813.05 5.25279 -3.14438 0
M  V30 13119 C 1810.92 6.04847 -4.05327 0
M  V30 13120 H 1810.95 6.62195 -3.11261 0
M  V30 13121 H 1812.13 4.42556 -4.81383 0
M  V30 13122 H 1813.62 5.92458 -5.93643 0
M  V30 13123 H 1811.92 7.92655 -6.402 0
M  V30 13124 H 1811.73 6.26671 -8.0846 0
M  V30 13125 H 1810.1 6.29101 -7.32804 0
M  V30 13126 H 1812.74 5.84315 -2.47318 0
M  V30 13127 P 1814.6 7.39546 -4.75277 0
M  V30 13128 O 1816.02 7.84798 -5.01039 0
M  V30 13129 O 1814.24 5.9812 -5.08098 0
M  V30 13130 O 1814.28 7.57503 -3.1866 0
M  V30 13131 C 1814.12 8.97357 -2.74833 0
M  V30 13132 C 1814.66 9.07548 -1.32709 0
M  V30 13133 O 1813.6 8.62072 -0.606159 0
M  V30 13134 C 1815.88 8.25383 -0.938334 0
M  V30 13135 O 1816.61 8.74577 0.146954 0
M  V30 13136 C 1815.21 6.8802 -0.712559 0
M  V30 13137 O 1816.01 6.1189 0.194655 0
M  V30 13138 C 1813.87 7.27966 -0.139777 0
M  V30 13139 H 1813.9 7.25354 0.961601 0
M  V30 13140 H 1815.08 6.32557 -1.65702 0
M  V30 13141 H 1816.57 8.19355 -1.79097 0
M  V30 13142 H 1814.87 10.1294 -1.10029 0
M  V30 13143 H 1814.68 9.64276 -3.41316 0
M  V30 13144 H 1813.05 9.25417 -2.76357 0
M  V30 13145 H 1815.69 6.25267 1.07847 0
M  V30 13146 P 1817.55 8.791 1.53704e-11 0
M  V30 13147 O 1818.97 9.31096 0.027933 0
M  V30 13148 O 1817.19 7.77869 -1.04071 0
M  V30 13149 O 1817.23 8.09533 1.41463 0
M  V30 13150 C 1817.07 9.0349 2.53943 0
M  V30 13151 C 1817.61 8.35226 3.79016 0
M  V30 13152 O 1816.55 7.57992 4.15078 0
M  V30 13153 C 1818.83 7.45087 3.67298 0
M  V30 13154 O 1819.56 7.27796 4.85194 0
M  V30 13155 C 1818.16 6.17323 3.12027 0
M  V30 13156 O 1818.96 5.04231 3.47188 0
M  V30 13157 C 1816.82 6.19961 3.81809 0
M  V30 13158 H 1816.85 5.58218 4.73051 0
M  V30 13159 H 1818.04 6.21726 2.02589 0
M  V30 13160 H 1819.52 7.86112 2.9231 0
M  V30 13161 H 1817.83 9.11627 4.55076 0
M  V30 13162 H 1817.64 9.9573 2.34194 0
M  V30 13163 H 1816.01 9.2792 2.67832 0
M  V30 13164 H 1818.64 4.67702 4.28772 0
M  V30 13165 P 1820.5 7.39546 4.75277 0
M  V30 13166 O 1821.92 7.81777 5.05738 0
M  V30 13167 O 1820.14 7.1065 3.32998 0
M  V30 13168 O 1820.18 6.04542 5.56673 0
M  V30 13169 C 1820.02 6.22772 7.02095 0
M  V30 13170 C 1820.56 4.97725 7.70406 0
M  V30 13171 O 1819.5 4.13256 7.58987 0
M  V30 13172 C 1821.78 4.28231 7.11815 0
M  V30 13173 O 1822.51 3.49945 8.01648 0
M  V30 13174 C 1821.11 3.5063 5.96244 0
M  V30 13175 O 1821.91 2.36482 5.64681 0
M  V30 13176 C 1819.77 3.15122 6.56374 0
M  V30 13177 H 1819.8 2.13853 6.99751 0
M  V30 13178 H 1820.99 4.13501 5.06559 0
M  V30 13179 H 1822.47 5.03285 6.70911 0
M  V30 13180 H 1820.78 5.20877 8.75697 0
M  V30 13181 H 1820.59 7.11046 7.35349 0
M  V30 13182 H 1818.96 6.35815 7.26986 0
M  V30 13183 H 1821.59 1.61644 6.13565 0
M  V30 13184 P 1823.45 3.65191 7.99657 0
M  V30 13185 O 1824.87 3.84333 8.48297 0
M  V30 13186 O 1823.09 4.17805 6.64342 0
M  V30 13187 O 1823.13 2.07613 7.95143 0
M  V30 13188 C 1822.97 1.44328 9.27336 0
M  V30 13189 C 1823.51 0.0220012 9.17097 0
M  V30 13190 O 1822.45 -0.626867 8.61923 0
M  V30 13191 C 1824.73 -0.24586 8.30336 0
M  V30 13192 O 1825.47 -1.39011 8.63583 0
M  V30 13193 C 1824.06 -0.273849 6.91158 0
M  V30 13194 O 1824.86 -1.06331 6.02794 0
M  V30 13195 C 1822.72 -0.897649 7.22545 0
M  V30 13196 N 1821.68 -0.292839 6.41732 0
M  V30 13197 C 1821.74 1.00068 6.10757 0
M  V30 13198 N 1820.7 1.36468 5.35794 0
M  V30 13199 C 1819.96 0.258894 5.2366 0
M  V30 13200 C 1818.66 0.0670682 4.65752 0
M  V30 13201 O 1817.92 0.902443 4.10497 0
M  V30 13202 N 1818.23 -1.2131 4.75881 0
M  V30 13203 C 1818.97 -2.24934 5.37101 0
M  V30 13204 N 1818.38 -3.48783 5.33984 0
M  V30 13205 N 1820.13 -2.0844 5.95684 0
M  V30 13206 C 1820.58 -0.81395 5.87791 0
M  V30 13207 H 1822.75 -1.9841 7.04286 0
M  V30 13208 H 1823.94 0.739815 6.49601 0
M  V30 13209 H 1825.42 0.598315 8.36563 0
M  V30 13210 H 1823.73 -0.352479 10.1829 0
M  V30 13211 H 1823.54 2.00611 10.0304 0
M  V30 13212 H 1821.91 1.41843 9.55327 0
M  V30 13213 H 1817.33 -1.44434 4.37895 0
M  V30 13214 H 1822.54 1.67697 6.42268 0
M  V30 13215 H 1817.47 -3.60543 4.87699 0
M  V30 13216 H 1818.84 -4.29232 5.7819 0
M  V30 13217 H 1824.55 -1.95704 6.0346 0
M  V30 13218 P 1826.4 -1.25109 8.70152 0
M  V30 13219 O 1827.82 -1.35274 9.21221 0
M  V30 13220 O 1826.04 -0.0769065 7.84762 0
M  V30 13221 O 1826.08 -2.55232 7.81161 0
M  V30 13222 C 1825.92 -3.79939 8.58154 0
M  V30 13223 C 1826.46 -4.94023 7.72785 0
M  V30 13224 O 1825.4 -5.18726 6.91205 0
M  V30 13225 C 1827.68 -4.69597 6.85231 0
M  V30 13226 O 1828.42 -5.83832 6.51337 0
M  V30 13227 C 1827.01 -3.96706 5.66633 0
M  V30 13228 O 1827.81 -4.15414 4.49689 0
M  V30 13229 C 1825.67 -4.66153 5.59313 0
M  V30 13230 H 1825.7 -5.47679 4.85214 0
M  V30 13231 H 1826.89 -2.89008 5.86566 0
M  V30 13232 H 1828.37 -4.0121 7.36511 0
M  V30 13233 H 1826.68 -5.80182 8.37584 0
M  V30 13234 H 1826.49 -3.73517 9.52265 0
M  V30 13235 H 1824.86 -3.97163 8.80359 0
M  V30 13236 H 1827.5 -4.90969 4.01921 0
M  V30 13237 P 1829.35 -5.75688 6.64379 0
M  V30 13238 O 1830.78 -6.11849 7.01846 0
M  V30 13239 O 1828.99 -4.30744 6.56026 0
M  V30 13240 O 1829.03 -6.37042 5.19165 0
M  V30 13241 C 1828.87 -7.83578 5.16515 0
M  V30 13242 C 1829.41 -8.33398 3.83019 0
M  V30 13243 O 1828.35 -8.10074 3.01034 0
M  V30 13244 C 1830.63 -7.65514 3.2257 0
M  V30 13245 O 1831.37 -8.4329 2.32297 0
M  V30 13246 C 1829.96 -6.40075 2.62207 0
M  V30 13247 O 1830.76 -5.92589 1.53712 0
M  V30 13248 C 1828.62 -6.9454 2.18503 0
M  V30 13249 H 1828.65 -7.23063 1.12091 0
M  V30 13250 H 1829.84 -5.6025 3.37201 0
M  V30 13251 H 1831.32 -7.35707 4.02681 0
M  V30 13252 H 1829.63 -9.40912 3.9095 0
M  V30 13253 H 1829.44 -8.29056 5.99158 0
M  V30 13254 H 1827.81 -8.10073 5.25882 0
M  V30 13255 H 1830.45 -6.30324 0.726794 0
M  V30 13256 P 1832.3 -8.4349 2.47671 0
M  V30 13257 O 1833.72 -8.94263 2.59668 0
M  V30 13258 O 1831.94 -7.1704 3.19006 0
M  V30 13259 O 1831.98 -8.16596 0.923387 0
M  V30 13260 C 1831.82 -9.38537 0.108869 0
M  V30 13261 C 1832.36 -9.08175 -1.28353 0
M  V30 13262 O 1831.31 -8.44131 -1.84692 0
M  V30 13263 C 1833.58 -8.18386 -1.42505 0
M  V30 13264 O 1834.32 -8.3501 -2.60497 0
M  V30 13265 C 1832.91 -6.80225 -1.25468 0
M  V30 13266 O 1833.71 -5.81716 -1.90454 0
M  V30 13267 C 1831.57 -7.02416 -1.9168 0
M  V30 13268 N 1830.53 -6.31033 -1.20314 0
M  V30 13269 C 1830.7 -5.98817 0.0994088 0
M  V30 13270 N 1829.67 -5.35403 0.621694 0
M  V30 13271 C 1828.79 -5.25212 -0.43376 0
M  V30 13272 C 1827.52 -4.64602 -0.519722 0
M  V30 13273 N 1826.92 -4.01457 0.519136 0
M  V30 13274 N 1826.95 -4.7568 -1.76013 0
M  V30 13275 C 1827.56 -5.3653 -2.83017 0
M  V30 13276 N 1828.73 -5.93676 -2.79782 0
M  V30 13277 C 1829.31 -5.84061 -1.56249 0
M  V30 13278 H 1831.6 -6.68789 -2.9658 0
M  V30 13279 H 1832.79 -6.53498 -0.198729 0
M  V30 13280 H 1834.27 -8.36622 -0.589963 0
M  V30 13281 H 1832.58 -10.0273 -1.8081 0
M  V30 13282 H 1832.39 -10.2138 0.558219 0
M  V30 13283 H 1830.76 -9.6579 0.0444202 0
M  V30 13284 H 1827.02 -5.37113 -3.77321 0
M  V30 13285 H 1831.6 -6.23209 0.660562 0
M  V30 13286 H 1825.99 -3.58834 0.394862 0
M  V30 13287 H 1827.39 -3.96059 1.43048 0
M  V30 13288 H 1833.4 -5.69466 -2.79593 0
M  V30 13289 P 1835.25 -8.4349 -2.47671 0
M  V30 13290 O 1836.68 -8.92593 -2.65 0
M  V30 13291 O 1834.89 -7.7568 -1.19296 0
M  V30 13292 O 1834.93 -7.36886 -3.63805 0
M  V30 13293 C 1834.77 -7.95349 -4.982 0
M  V30 13294 C 1835.31 -6.94612 -5.98974 0
M  V30 13295 O 1834.26 -6.10347 -6.11815 0
M  V30 13296 C 1836.53 -6.11426 -5.62335 0
M  V30 13297 O 1837.27 -5.6162 -6.70584 0
M  V30 13298 C 1835.86 -5.04409 -4.73308 0
M  V30 13299 O 1836.66 -3.85992 -4.75183 0
M  V30 13300 C 1834.52 -4.8728 -5.41006 0
M  V30 13301 H 1834.56 -4.02333 -6.11157 0
M  V30 13302 H 1835.74 -5.39466 -3.69543 0
M  V30 13303 H 1837.22 -6.71916 -5.01943 0
M  V30 13304 H 1835.53 -7.4649 -6.93477 0
M  V30 13305 H 1835.34 -8.89416 -5.05237 0
M  V30 13306 H 1833.71 -8.14876 -5.18409 0
M  V30 13307 H 1836.35 -3.27957 -5.4317 0
M  V30 13308 P 1838.21 -5.75688 -6.64379 0
M  V30 13309 O 1839.63 -6.07627 -7.05504 0
M  V30 13310 O 1837.85 -5.88047 -5.19722 0
M  V30 13311 O 1837.88 -4.2322 -7.04443 0
M  V30 13312 C 1837.72 -3.99743 -8.4911 0
M  V30 13313 C 1838.26 -2.60516 -8.79425 0
M  V30 13314 O 1837.21 -1.82684 -8.4467 0
M  V30 13315 C 1839.48 -2.10343 -8.03628 0
M  V30 13316 O 1840.22 -1.09919 -8.67766 0
M  V30 13317 C 1838.81 -1.68446 -6.70876 0
M  V30 13318 O 1839.61 -0.678137 -6.08433 0
M  V30 13319 C 1837.47 -1.17436 -7.18567 0
M  V30 13320 H 1837.51 -0.0804732 -7.31656 0
M  V30 13321 H 1838.69 -2.54037 -6.02537 0
M  V30 13322 H 1840.17 -2.93881 -7.85526 0
M  V30 13323 H 1838.48 -2.53065 -9.86973 0
M  V30 13324 H 1838.29 -4.75072 -9.05887 0
M  V30 13325 H 1836.66 -4.05244 -8.76668 0
M  V30 13326 H 1839.3 0.177647 -6.34251 0
M  V30 13327 P 1841.16 -1.25109 -8.70152 0
M  V30 13328 O 1842.58 -1.29758 -9.22115 0
M  V30 13329 O 1840.8 -2.13714 -7.55141 0
M  V30 13330 O 1840.83 0.248149 -8.21425 0
M  V30 13331 C 1840.67 1.22792 -9.30533 0
M  V30 13332 C 1841.21 2.56293 -8.80664 0
M  V30 13333 O 1840.16 3.02944 -8.09255 0
M  V30 13334 C 1842.43 2.57523 -7.89775 0
M  V30 13335 O 1843.17 3.7668 -7.89438 0
M  V30 13336 C 1841.76 2.20997 -6.55446 0
M  V30 13337 O 1842.56 2.71302 -5.48691 0
M  V30 13338 C 1840.42 2.89693 -6.67988 0
M  V30 13339 N 1839.38 2.08895 -6.07487 0
M  V30 13340 C 1839.55 0.753809 -5.94137 0
M  V30 13341 N 1838.52 0.146592 -5.38801 0
M  V30 13342 C 1837.64 1.1768 -5.13693 0
M  V30 13343 C 1836.37 1.17563 -4.52477 0
M  V30 13344 N 1835.81 2.41918 -4.45789 0
M  V30 13345 C 1836.41 3.56493 -4.90792 0
M  V30 13346 N 1837.59 3.61423 -5.47817 0
M  V30 13347 C 1838.16 2.37779 -5.5588 0
M  V30 13348 H 1841.64 1.12673 -6.44018 0
M  V30 13349 H 1843.12 1.7746 -8.19711 0
M  V30 13350 H 1841.43 3.21673 -9.66791 0
M  V30 13351 H 1841.24 0.901032 -10.1892 0
M  V30 13352 H 1839.61 1.33049 -9.56592 0
M  V30 13353 H 1840.45 0.233081 -6.26266 0
M  V30 13354 H 1842.25 3.5779 -5.23879 0
M  V30 13355 P 1844.11 3.65191 -7.99657 0
M  V30 13356 O 1845.53 3.89416 -8.45976 0
M  V30 13357 O 1843.75 2.28472 -7.50807 0
M  V30 13358 O 1843.78 4.64972 -6.77611 0
M  V30 13359 C 1843.62 6.06319 -7.16352 0
M  V30 13360 C 1844.16 6.91655 -6.02234 0
M  V30 13361 O 1843.11 6.92449 -5.17064 0
M  V30 13362 C 1845.38 6.43627 -5.25174 0
M  V30 13363 O 1846.12 7.43686 -4.60469 0
M  V30 13364 C 1844.71 5.40275 -4.31916 0
M  V30 13365 O 1845.51 5.25193 -3.14386 0
M  V30 13366 C 1843.38 6.04847 -4.05327 0
M  V30 13367 N 1842.33 5.04166 -3.98114 0
M  V30 13368 C 1842.39 3.96049 -4.75587 0
M  V30 13369 N 1841.35 3.15559 -4.54006 0
M  V30 13370 C 1840.62 3.78802 -3.62491 0
M  V30 13371 C 1839.31 3.476 -3.10071 0
M  V30 13372 O 1838.58 2.51136 -3.37021 0
M  V30 13373 N 1838.88 4.39088 -2.19956 0
M  V30 13374 C 1839.63 5.53215 -1.81733 0
M  V30 13375 N 1839.03 6.31963 -0.860928 0
M  V30 13376 N 1840.78 5.86688 -2.32562 0
M  V30 13377 C 1841.24 4.97525 -3.23407 0
M  V30 13378 H 1843.41 6.62195 -3.11261 0
M  V30 13379 H 1844.59 4.42488 -4.8131 0
M  V30 13380 H 1846.08 5.93051 -5.9305 0
M  V30 13381 H 1844.38 7.92655 -6.402 0
M  V30 13382 H 1844.19 6.26671 -8.0846 0
M  V30 13383 H 1842.56 6.29101 -7.32804 0
M  V30 13384 H 1837.98 4.25523 -1.77604 0
M  V30 13385 H 1843.19 3.75576 -5.47333 0
M  V30 13386 H 1838.12 6.04684 -0.468946 0
M  V30 13387 H 1839.5 7.18054 -0.542422 0
M  V30 13388 H 1845.2 5.84223 -2.47279 0
M  V30 13389 P 1847.06 7.39546 -4.75277 0
M  V30 13390 O 1848.48 7.84798 -5.01039 0
M  V30 13391 O 1846.7 5.9812 -5.08098 0
M  V30 13392 O 1846.73 7.57503 -3.1866 0
M  V30 13393 C 1846.57 8.97357 -2.74833 0
M  V30 13394 C 1847.11 9.07548 -1.32709 0
M  V30 13395 O 1846.06 8.62072 -0.606159 0
M  V30 13396 C 1848.33 8.25383 -0.938334 0
M  V30 13397 O 1849.07 8.74577 0.146954 0
M  V30 13398 C 1847.66 6.8802 -0.712559 0
M  V30 13399 O 1848.46 6.1189 0.194655 0
M  V30 13400 C 1846.33 7.27966 -0.139777 0
M  V30 13401 H 1846.36 7.25354 0.961601 0
M  V30 13402 H 1847.54 6.32557 -1.65702 0
M  V30 13403 H 1849.02 8.19355 -1.79097 0
M  V30 13404 H 1847.33 10.1294 -1.10029 0
M  V30 13405 H 1847.14 9.64276 -3.41316 0
M  V30 13406 H 1845.51 9.25417 -2.76357 0
M  V30 13407 H 1848.15 6.25267 1.07847 0
M  V30 13408 P 1850.01 8.791 1.56806e-11 0
M  V30 13409 O 1851.43 9.31096 0.027933 0
M  V30 13410 O 1849.65 7.77869 -1.04071 0
M  V30 13411 O 1849.68 8.09533 1.41463 0
M  V30 13412 C 1849.52 9.0349 2.53943 0
M  V30 13413 C 1850.06 8.35226 3.79016 0
M  V30 13414 O 1849.01 7.57992 4.15078 0
M  V30 13415 C 1851.28 7.45087 3.67298 0
M  V30 13416 O 1852.02 7.27796 4.85194 0
M  V30 13417 C 1850.61 6.17323 3.12027 0
M  V30 13418 O 1851.41 5.04231 3.47188 0
M  V30 13419 C 1849.28 6.19961 3.81809 0
M  V30 13420 H 1849.31 5.58218 4.73051 0
M  V30 13421 H 1850.49 6.21726 2.02589 0
M  V30 13422 H 1851.98 7.86112 2.9231 0
M  V30 13423 H 1850.28 9.11627 4.55076 0
M  V30 13424 H 1850.09 9.9573 2.34194 0
M  V30 13425 H 1848.46 9.2792 2.67832 0
M  V30 13426 H 1851.1 4.67702 4.28772 0
M  V30 13427 P 1852.96 7.39546 4.75277 0
M  V30 13428 O 1854.38 7.81777 5.05738 0
M  V30 13429 O 1852.6 7.1065 3.32998 0
M  V30 13430 O 1852.63 6.04542 5.56673 0
M  V30 13431 C 1852.47 6.22772 7.02095 0
M  V30 13432 C 1853.01 4.97725 7.70406 0
M  V30 13433 O 1851.96 4.13256 7.58987 0
M  V30 13434 C 1854.23 4.28231 7.11815 0
M  V30 13435 O 1854.97 3.49945 8.01648 0
M  V30 13436 C 1853.56 3.5063 5.96244 0
M  V30 13437 O 1854.36 2.36482 5.64681 0
M  V30 13438 C 1852.23 3.15122 6.56374 0
M  V30 13439 H 1852.26 2.13853 6.99751 0
M  V30 13440 H 1853.44 4.13501 5.06559 0
M  V30 13441 H 1854.93 5.03285 6.70911 0
M  V30 13442 H 1853.23 5.20877 8.75697 0
M  V30 13443 H 1853.04 7.11046 7.35349 0
M  V30 13444 H 1851.41 6.35815 7.26986 0
M  V30 13445 H 1854.05 1.61644 6.13565 0
M  V30 13446 P 1855.91 3.65191 7.99657 0
M  V30 13447 O 1857.33 3.8425 8.48115 0
M  V30 13448 O 1855.55 4.17805 6.64342 0
M  V30 13449 O 1855.59 2.07613 7.95143 0
M  V30 13450 C 1855.43 1.44328 9.27336 0
M  V30 13451 C 1855.97 0.0220036 9.17197 0
M  V30 13452 O 1854.91 -0.626867 8.61923 0
M  V30 13453 C 1857.18 -0.24586 8.30336 0
M  V30 13454 O 1857.92 -1.39011 8.63583 0
M  V30 13455 C 1856.51 -0.273849 6.91158 0
M  V30 13456 O 1857.31 -1.06348 6.02892 0
M  V30 13457 C 1855.18 -0.897649 7.22545 0
M  V30 13458 H 1855.21 -1.9841 7.04286 0
M  V30 13459 H 1856.39 0.739928 6.497 0
M  V30 13460 H 1857.88 0.60668 8.36503 0
M  V30 13461 H 1856.18 -0.352479 10.1829 0
M  V30 13462 H 1855.99 2.00611 10.0304 0
M  V30 13463 H 1854.36 1.41843 9.55327 0
M  V30 13464 H 1857 -1.95734 6.03555 0
M  V30 13465 P 1858.86 -1.25109 8.70152 0
M  V30 13466 O 1860.28 -1.35274 9.21221 0
M  V30 13467 O 1858.5 -0.0769065 7.84762 0
M  V30 13468 O 1858.54 -2.55232 7.81161 0
M  V30 13469 C 1858.38 -3.79939 8.58154 0
M  V30 13470 C 1858.92 -4.94023 7.72785 0
M  V30 13471 O 1857.86 -5.18726 6.91205 0
M  V30 13472 C 1860.13 -4.69597 6.85231 0
M  V30 13473 O 1860.87 -5.83832 6.51337 0
M  V30 13474 C 1859.47 -3.96706 5.66633 0
M  V30 13475 O 1860.26 -4.15414 4.49689 0
M  V30 13476 C 1858.13 -4.66153 5.59313 0
M  V30 13477 H 1858.16 -5.47679 4.85214 0
M  V30 13478 H 1859.34 -2.89008 5.86566 0
M  V30 13479 H 1860.83 -4.0121 7.36511 0
M  V30 13480 H 1859.13 -5.80182 8.37584 0
M  V30 13481 H 1858.94 -3.73517 9.52265 0
M  V30 13482 H 1857.31 -3.97163 8.80359 0
M  V30 13483 H 1859.95 -4.90969 4.01921 0
M  V30 13484 P 1861.81 -5.75688 6.64379 0
M  V30 13485 O 1863.23 -6.11849 7.01846 0
M  V30 13486 O 1861.45 -4.30744 6.56026 0
M  V30 13487 O 1861.49 -6.37042 5.19165 0
M  V30 13488 C 1861.33 -7.83578 5.16515 0
M  V30 13489 C 1861.87 -8.33398 3.83019 0
M  V30 13490 O 1860.81 -8.10074 3.01034 0
M  V30 13491 C 1863.08 -7.65514 3.2257 0
M  V30 13492 O 1863.82 -8.4329 2.32297 0
M  V30 13493 C 1862.42 -6.40075 2.62207 0
M  V30 13494 O 1863.21 -5.92589 1.53712 0
M  V30 13495 C 1861.08 -6.9454 2.18503 0
M  V30 13496 H 1861.11 -7.23063 1.12091 0
M  V30 13497 H 1862.29 -5.6025 3.37201 0
M  V30 13498 H 1863.78 -7.35707 4.02681 0
M  V30 13499 H 1862.08 -9.40912 3.9095 0
M  V30 13500 H 1861.89 -8.29056 5.99158 0
M  V30 13501 H 1860.26 -8.10073 5.25882 0
M  V30 13502 H 1862.9 -6.30324 0.726794 0
M  V30 13503 P 1864.76 -8.4349 2.47671 0
M  V30 13504 O 1866.18 -8.94167 2.5964 0
M  V30 13505 O 1864.4 -7.1704 3.19006 0
M  V30 13506 O 1864.44 -8.16596 0.923387 0
M  V30 13507 C 1864.28 -9.38437 0.108857 0
M  V30 13508 C 1864.82 -9.08175 -1.28353 0
M  V30 13509 O 1863.76 -8.44229 -1.84713 0
M  V30 13510 C 1866.04 -8.18386 -1.42505 0
M  V30 13511 O 1866.77 -8.3501 -2.60497 0
M  V30 13512 C 1865.37 -6.80225 -1.25468 0
M  V30 13513 O 1866.17 -5.81621 -1.91066 0
M  V30 13514 C 1864.03 -7.02416 -1.9168 0
M  V30 13515 H 1864.06 -6.6888 -2.96621 0
M  V30 13516 H 1865.24 -6.53617 -0.192223 0
M  V30 13517 H 1866.73 -8.36622 -0.589963 0
M  V30 13518 H 1865.03 -10.0291 -1.79807 0
M  V30 13519 H 1864.84 -10.2138 0.558219 0
M  V30 13520 H 1863.21 -9.6579 0.0444202 0
M  V30 13521 H 1865.85 -5.69556 -2.79637 0
M  V30 13522 P 1867.71 -8.4349 -2.47671 0
M  V30 13523 O 1869.13 -8.92593 -2.65 0
M  V30 13524 O 1867.35 -7.7568 -1.19296 0
M  V30 13525 O 1867.39 -7.36886 -3.63805 0
M  V30 13526 C 1867.23 -7.95349 -4.982 0
M  V30 13527 C 1867.77 -6.94612 -5.98974 0
M  V30 13528 O 1866.71 -6.10347 -6.11815 0
M  V30 13529 C 1868.99 -6.11426 -5.62335 0
M  V30 13530 O 1869.72 -5.6162 -6.70584 0
M  V30 13531 C 1868.32 -5.04409 -4.73308 0
M  V30 13532 O 1869.12 -3.85992 -4.75183 0
M  V30 13533 C 1866.98 -4.8728 -5.41006 0
M  V30 13534 H 1867.01 -4.02333 -6.11157 0
M  V30 13535 H 1868.19 -5.39466 -3.69543 0
M  V30 13536 H 1869.68 -6.71916 -5.01943 0
M  V30 13537 H 1867.98 -7.4649 -6.93477 0
M  V30 13538 H 1867.79 -8.89416 -5.05237 0
M  V30 13539 H 1866.16 -8.14876 -5.18409 0
M  V30 13540 H 1868.8 -3.27957 -5.4317 0
M  V30 13541 P 1870.66 -5.75688 -6.64379 0
M  V30 13542 O 1872.08 -6.07627 -7.05504 0
M  V30 13543 O 1870.3 -5.88047 -5.19722 0
M  V30 13544 O 1870.34 -4.2322 -7.04443 0
M  V30 13545 C 1870.18 -3.99743 -8.4911 0
M  V30 13546 C 1870.72 -2.60516 -8.79425 0
M  V30 13547 O 1869.66 -1.82684 -8.4467 0
M  V30 13548 C 1871.94 -2.10343 -8.03628 0
M  V30 13549 O 1872.67 -1.09919 -8.67766 0
M  V30 13550 C 1871.27 -1.68446 -6.70876 0
M  V30 13551 O 1872.07 -0.678137 -6.08433 0
M  V30 13552 C 1869.93 -1.17436 -7.18567 0
M  V30 13553 H 1869.96 -0.0804732 -7.31656 0
M  V30 13554 H 1871.15 -2.54037 -6.02537 0
M  V30 13555 H 1872.63 -2.93881 -7.85526 0
M  V30 13556 H 1870.94 -2.53065 -9.86973 0
M  V30 13557 H 1870.75 -4.75072 -9.05887 0
M  V30 13558 H 1869.12 -4.05244 -8.76668 0
M  V30 13559 H 1871.75 0.177647 -6.34251 0
M  V30 13560 P 1873.61 -1.25109 -8.70152 0
M  V30 13561 O 1875.01 -1.3516 -9.26897 0
M  V30 13562 O 1873.23 -2.18141 -7.59181 0
M  V30 13563 O 1873.29 0.248118 -8.21325 0
M  V30 13564 C 1873.13 1.22779 -9.30434 0
M  V30 13565 C 1873.67 2.56265 -8.80568 0
M  V30 13566 O 1872.61 3.02944 -8.09255 0
M  V30 13567 C 1874.89 2.57523 -7.89775 0
M  V30 13568 O 1875.62 3.7668 -7.89438 0
M  V30 13569 C 1874.22 2.20997 -6.55446 0
M  V30 13570 O 1875.02 2.71851 -5.48419 0
M  V30 13571 C 1872.88 2.89693 -6.67988 0
M  V30 13572 N 1871.84 2.08895 -6.07487 0
M  V30 13573 C 1870.8 2.72974 -5.43836 0
M  V30 13574 O 1870.84 3.97779 -5.34036 0
M  V30 13575 N 1869.79 2.0005 -4.91983 0
M  V30 13576 C 1869.84 0.66501 -5.00098 0
M  V30 13577 C 1870.93 -0.0100979 -5.61099 0
M  V30 13578 C 1871.9 0.74189 -6.14236 0
M  V30 13579 H 1872.91 3.8874 -6.19774 0
M  V30 13580 H 1874.1 1.12673 -6.44018 0
M  V30 13581 H 1875.58 1.783 -8.19631 0
M  V30 13582 H 1873.89 3.21673 -9.66791 0
M  V30 13583 H 1873.69 0.901032 -10.1892 0
M  V30 13584 H 1872.06 1.33036 -9.56493 0
M  V30 13585 H 1870.98 -1.09591 -5.64358 0
M  V30 13586 H 1872.75 0.260263 -6.6359 0
M  V30 13587 H 1874.8 3.62759 -5.33442 0
M  V30 13588 P 1876.56 3.65191 -7.99657 0
M  V30 13589 O 1877.98 3.89332 -8.45794 0
M  V30 13590 O 1876.2 2.28472 -7.50807 0
M  V30 13591 O 1876.24 4.64972 -6.77611 0
M  V30 13592 C 1876.08 6.06319 -7.16352 0
M  V30 13593 C 1876.62 6.91731 -6.02299 0
M  V30 13594 O 1875.56 6.92449 -5.17064 0
M  V30 13595 C 1877.84 6.43627 -5.25174 0
M  V30 13596 O 1878.58 7.43686 -4.60469 0
M  V30 13597 C 1877.17 5.40275 -4.31916 0
M  V30 13598 O 1877.97 5.25279 -3.14438 0
M  V30 13599 C 1875.83 6.04847 -4.05327 0
M  V30 13600 H 1875.86 6.62195 -3.11261 0
M  V30 13601 H 1877.05 4.42556 -4.81383 0
M  V30 13602 H 1878.53 5.92458 -5.93643 0
M  V30 13603 H 1876.84 7.92655 -6.402 0
M  V30 13604 H 1876.65 6.26671 -8.0846 0
M  V30 13605 H 1875.02 6.29101 -7.32804 0
M  V30 13606 H 1877.66 5.84315 -2.47318 0
M  V30 13607 P 1879.51 7.39546 -4.75277 0
M  V30 13608 O 1880.94 7.84798 -5.01039 0
M  V30 13609 O 1879.15 5.9812 -5.08098 0
M  V30 13610 O 1879.19 7.57503 -3.1866 0
M  V30 13611 C 1879.03 8.97357 -2.74833 0
M  V30 13612 C 1879.57 9.07548 -1.32709 0
M  V30 13613 O 1878.51 8.62072 -0.606159 0
M  V30 13614 C 1880.79 8.25383 -0.938334 0
M  V30 13615 O 1881.53 8.74577 0.146954 0
M  V30 13616 C 1880.12 6.8802 -0.712559 0
M  V30 13617 O 1880.92 6.1189 0.194655 0
M  V30 13618 C 1878.78 7.27966 -0.139777 0
M  V30 13619 H 1878.81 7.25354 0.961601 0
M  V30 13620 H 1880 6.32557 -1.65702 0
M  V30 13621 H 1881.48 8.19355 -1.79097 0
M  V30 13622 H 1879.79 10.1294 -1.10029 0
M  V30 13623 H 1879.6 9.64276 -3.41316 0
M  V30 13624 H 1877.97 9.25417 -2.76357 0
M  V30 13625 H 1880.61 6.25267 1.07847 0
M  V30 13626 P 1882.46 8.791 1.59908e-11 0
M  V30 13627 O 1883.88 9.31196 0.027936 0
M  V30 13628 O 1882.1 7.77869 -1.04071 0
M  V30 13629 O 1882.14 8.09533 1.41463 0
M  V30 13630 C 1881.98 9.03587 2.5397 0
M  V30 13631 C 1882.52 8.35226 3.79016 0
M  V30 13632 O 1881.47 7.57904 4.1503 0
M  V30 13633 C 1883.74 7.45087 3.67298 0
M  V30 13634 O 1884.48 7.27796 4.85194 0
M  V30 13635 C 1883.07 6.17323 3.12027 0
M  V30 13636 O 1883.87 5.04496 3.46627 0
M  V30 13637 C 1881.73 6.19961 3.81809 0
M  V30 13638 N 1880.69 5.71575 2.93223 0
M  V30 13639 C 1880.86 5.77362 1.59168 0
M  V30 13640 N 1879.83 5.3123 0.911893 0
M  V30 13641 C 1878.95 4.91717 1.89588 0
M  V30 13642 C 1877.68 4.3114 1.8076 0
M  V30 13643 N 1877.08 3.99821 0.632928 0
M  V30 13644 N 1877.11 4.06823 3.02898 0
M  V30 13645 C 1877.72 4.35062 4.22711 0
M  V30 13646 N 1878.89 4.90805 4.35707 0
M  V30 13647 C 1879.47 5.16382 3.14469 0
M  V30 13648 H 1881.76 5.58142 4.72986 0
M  V30 13649 H 1882.95 6.21428 2.0318 0
M  V30 13650 H 1884.43 7.86112 2.9231 0
M  V30 13651 H 1882.74 9.11171 4.55987 0
M  V30 13652 H 1882.55 9.9573 2.34194 0
M  V30 13653 H 1880.92 9.2792 2.67832 0
M  V30 13654 H 1877.18 4.09052 5.13359 0
M  V30 13655 H 1881.76 6.16575 1.12198 0
M  V30 13656 H 1876.15 3.55423 0.632085 0
M  V30 13657 H 1877.55 4.20317 -0.256712 0
M  V30 13658 H 1883.56 4.67628 4.28704 0
M  V30 13659 P 1885.41 7.39546 4.75277 0
M  V30 13660 O 1886.84 7.81777 5.05738 0
M  V30 13661 O 1885.05 7.1065 3.32998 0
M  V30 13662 O 1885.09 6.04542 5.56673 0
M  V30 13663 C 1884.93 6.22772 7.02095 0
M  V30 13664 C 1885.47 4.97725 7.70406 0
M  V30 13665 O 1884.42 4.13256 7.58987 0
M  V30 13666 C 1886.69 4.28231 7.11815 0
M  V30 13667 O 1887.43 3.49945 8.01648 0
M  V30 13668 C 1886.02 3.5063 5.96244 0
M  V30 13669 O 1886.82 2.36482 5.64681 0
M  V30 13670 C 1884.68 3.15122 6.56374 0
M  V30 13671 H 1884.72 2.13853 6.99751 0
M  V30 13672 H 1885.9 4.13501 5.06559 0
M  V30 13673 H 1887.38 5.03285 6.70911 0
M  V30 13674 H 1885.69 5.20877 8.75697 0
M  V30 13675 H 1885.5 7.11046 7.35349 0
M  V30 13676 H 1883.87 6.35815 7.26986 0
M  V30 13677 H 1886.51 1.61644 6.13565 0
M  V30 13678 P 1888.36 3.65191 7.99657 0
M  V30 13679 O 1889.79 3.84292 8.48206 0
M  V30 13680 O 1888 4.17805 6.64342 0
M  V30 13681 O 1888.04 2.07613 7.95143 0
M  V30 13682 C 1887.88 1.44344 9.27435 0
M  V30 13683 C 1888.42 0.0220036 9.17197 0
M  V30 13684 O 1887.37 -0.626794 8.61824 0
M  V30 13685 C 1889.64 -0.24586 8.30336 0
M  V30 13686 O 1890.38 -1.39011 8.63583 0
M  V30 13687 C 1888.97 -0.273849 6.91158 0
M  V30 13688 O 1889.77 -1.05728 6.029 0
M  V30 13689 C 1887.63 -0.897649 7.22545 0
M  V30 13690 N 1886.59 -0.292839 6.41732 0
M  V30 13691 C 1886.76 0.950603 5.91308 0
M  V30 13692 N 1885.73 1.37732 5.21105 0
M  V30 13693 C 1884.85 0.318109 5.26039 0
M  V30 13694 C 1883.58 0.146766 4.6727 0
M  V30 13695 N 1883.02 -1.06525 4.95887 0
M  V30 13696 C 1883.62 -2.0378 5.71347 0
M  V30 13697 N 1884.79 -1.92445 6.27451 0
M  V30 13698 C 1885.37 -0.715382 6.00353 0
M  V30 13699 H 1888.85 0.733318 6.49674 0
M  V30 13700 H 1890.33 0.60668 8.36503 0
M  V30 13701 H 1888.64 -0.362662 10.1825 0
M  V30 13702 H 1888.45 2.00611 10.0304 0
M  V30 13703 H 1886.82 1.41843 9.55327 0
M  V30 13704 H 1887.66 1.54076 6.07465 0
M  V30 13705 H 1889.46 -1.95704 6.0346 0
M  V30 13706 P 1891.32 -1.25109 8.70152 0
M  V30 13707 O 1892.72 -1.31452 9.27431 0
M  V30 13708 O 1890.94 -0.0458113 7.89887 0
M  V30 13709 O 1890.99 -2.55201 7.81066 0
M  V30 13710 C 1890.83 -3.79939 8.58154 0
M  V30 13711 C 1891.37 -4.93969 7.72701 0
M  V30 13712 O 1890.32 -5.18666 6.91125 0
M  V30 13713 C 1892.59 -4.69597 6.85231 0
M  V30 13714 O 1893.33 -5.83832 6.51337 0
M  V30 13715 C 1891.92 -3.96706 5.66633 0
M  V30 13716 O 1892.72 -4.15346 4.49615 0
M  V30 13717 C 1890.58 -4.66153 5.59313 0
M  V30 13718 N 1889.54 -3.71582 5.24027 0
M  V30 13719 C 1888.51 -4.15133 4.44901 0
M  V30 13720 O 1888.55 -5.32122 4.00336 0
M  V30 13721 N 1887.49 -3.30554 4.15693 0
M  V30 13722 C 1887.54 -2.04701 4.61105 0
M  V30 13723 C 1888.64 -1.57111 5.38655 0
M  V30 13724 C 1889.6 -2.44234 5.68454 0
M  V30 13725 H 1890.62 -5.47604 4.85148 0
M  V30 13726 H 1891.8 -2.8955 5.86187 0
M  V30 13727 H 1893.28 -4.01995 7.36197 0
M  V30 13728 H 1891.59 -5.81019 8.37003 0
M  V30 13729 H 1891.4 -3.73517 9.52265 0
M  V30 13730 H 1889.77 -3.97122 8.80267 0
M  V30 13731 H 1888.69 -0.538464 5.72373 0
M  V30 13732 H 1890.45 -2.11927 6.29377 0
M  V30 13733 H 1892.5 -4.98352 4.09633 0
M  V30 13734 P 1894.27 -5.75688 6.64379 0
M  V30 13735 O 1895.69 -6.11849 7.01846 0
M  V30 13736 O 1893.91 -4.30744 6.56026 0
M  V30 13737 O 1893.94 -6.37042 5.19165 0
M  V30 13738 C 1893.78 -7.83578 5.16515 0
M  V30 13739 C 1894.32 -8.33398 3.83019 0
M  V30 13740 O 1893.27 -8.10074 3.01034 0
M  V30 13741 C 1895.54 -7.65514 3.2257 0
M  V30 13742 O 1896.28 -8.4329 2.32297 0
M  V30 13743 C 1894.87 -6.40075 2.62207 0
M  V30 13744 O 1895.67 -5.92589 1.53712 0
M  V30 13745 C 1893.53 -6.9454 2.18503 0
M  V30 13746 H 1893.57 -7.23063 1.12091 0
M  V30 13747 H 1894.75 -5.6025 3.37201 0
M  V30 13748 H 1896.23 -7.35707 4.02681 0
M  V30 13749 H 1894.54 -9.40912 3.9095 0
M  V30 13750 H 1894.35 -8.29056 5.99158 0
M  V30 13751 H 1892.72 -8.10073 5.25882 0
M  V30 13752 H 1895.36 -6.30324 0.726794 0
M  V30 13753 P 1897.22 -8.4349 2.47671 0
M  V30 13754 O 1898.64 -8.94167 2.5964 0
M  V30 13755 O 1896.86 -7.1704 3.19006 0
M  V30 13756 O 1896.89 -8.16596 0.923387 0
M  V30 13757 C 1896.73 -9.38437 0.108857 0
M  V30 13758 C 1897.27 -9.08175 -1.28353 0
M  V30 13759 O 1896.22 -8.44229 -1.84713 0
M  V30 13760 C 1898.49 -8.18386 -1.42505 0
M  V30 13761 O 1899.23 -8.3501 -2.60497 0
M  V30 13762 C 1897.82 -6.80225 -1.25468 0
M  V30 13763 O 1898.62 -5.81621 -1.91066 0
M  V30 13764 C 1896.49 -7.02416 -1.9168 0
M  V30 13765 H 1896.52 -6.6888 -2.96621 0
M  V30 13766 H 1897.7 -6.53617 -0.192223 0
M  V30 13767 H 1899.18 -8.36622 -0.589963 0
M  V30 13768 H 1897.49 -10.0291 -1.79807 0
M  V30 13769 H 1897.3 -10.2138 0.558219 0
M  V30 13770 H 1895.67 -9.6579 0.0444202 0
M  V30 13771 H 1898.31 -5.69556 -2.79637 0
M  V30 13772 P 1900.17 -8.4349 -2.47671 0
M  V30 13773 O 1901.59 -8.92593 -2.65 0
M  V30 13774 O 1899.81 -7.7568 -1.19296 0
M  V30 13775 O 1899.84 -7.36886 -3.63805 0
M  V30 13776 C 1899.68 -7.95349 -4.982 0
M  V30 13777 C 1900.22 -6.94612 -5.98974 0
M  V30 13778 O 1899.17 -6.10347 -6.11815 0
M  V30 13779 C 1901.44 -6.11426 -5.62335 0
M  V30 13780 O 1902.18 -5.6162 -6.70584 0
M  V30 13781 C 1900.77 -5.04409 -4.73308 0
M  V30 13782 O 1901.57 -3.85992 -4.75183 0
M  V30 13783 C 1899.44 -4.8728 -5.41006 0
M  V30 13784 H 1899.47 -4.02333 -6.11157 0
M  V30 13785 H 1900.65 -5.39466 -3.69543 0
M  V30 13786 H 1902.14 -6.71916 -5.01943 0
M  V30 13787 H 1900.44 -7.4649 -6.93477 0
M  V30 13788 H 1900.25 -8.89416 -5.05237 0
M  V30 13789 H 1898.62 -8.14876 -5.18409 0
M  V30 13790 H 1901.26 -3.27957 -5.4317 0
M  V30 13791 P 1903.12 -5.75688 -6.64379 0
M  V30 13792 O 1904.54 -6.07692 -7.0558 0
M  V30 13793 O 1902.76 -5.88047 -5.19722 0
M  V30 13794 O 1902.79 -4.2322 -7.04443 0
M  V30 13795 C 1902.63 -3.99785 -8.49201 0
M  V30 13796 C 1903.17 -2.60516 -8.79425 0
M  V30 13797 O 1902.12 -1.82663 -8.44573 0
M  V30 13798 C 1904.39 -2.10343 -8.03628 0
M  V30 13799 O 1905.13 -1.09919 -8.67766 0
M  V30 13800 C 1903.72 -1.68446 -6.70876 0
M  V30 13801 O 1904.52 -0.684109 -6.08265 0
M  V30 13802 C 1902.39 -1.17436 -7.18567 0
M  V30 13803 N 1901.34 -1.52699 -6.23988 0
M  V30 13804 C 1901.51 -2.578 -5.40574 0
M  V30 13805 N 1900.49 -2.78966 -4.61193 0
M  V30 13806 C 1899.6 -1.78725 -4.95769 0
M  V30 13807 C 1898.33 -1.45727 -4.44207 0
M  V30 13808 N 1897.73 -2.13994 -3.43613 0
M  V30 13809 N 1897.77 -0.374977 -5.05812 0
M  V30 13810 C 1898.37 0.345585 -6.05615 0
M  V30 13811 N 1899.55 0.0787651 -6.56253 0
M  V30 13812 C 1900.12 -1.00499 -5.96189 0
M  V30 13813 H 1902.42 -0.0804622 -7.31556 0
M  V30 13814 H 1903.6 -2.53396 -6.02698 0
M  V30 13815 H 1905.08 -2.93881 -7.85526 0
M  V30 13816 H 1903.39 -2.52078 -9.87225 0
M  V30 13817 H 1903.2 -4.75072 -9.05887 0
M  V30 13818 H 1901.57 -4.05244 -8.76668 0
M  V30 13819 H 1897.83 1.20098 -6.4532 0
M  V30 13820 H 1902.41 -3.18977 -5.3945 0
M  V30 13821 H 1896.8 -1.84983 -3.10004 0
M  V30 13822 H 1898.21 -2.9465 -3.00843 0
M  V30 13823 H 1904.21 0.177619 -6.34151 0
M  V30 13824 P 1906.07 -1.25109 -8.70152 0
M  V30 13825 O 1907.49 -1.29744 -9.22016 0
M  V30 13826 O 1905.71 -2.13714 -7.55141 0
M  V30 13827 O 1905.75 0.248149 -8.21425 0
M  V30 13828 C 1905.59 1.22779 -9.30434 0
M  V30 13829 C 1906.13 2.56293 -8.80664 0
M  V30 13830 O 1905.07 3.02979 -8.09349 0
M  V30 13831 C 1907.34 2.57523 -7.89775 0
M  V30 13832 O 1908.08 3.7668 -7.89438 0
M  V30 13833 C 1906.67 2.20997 -6.55446 0
M  V30 13834 O 1907.47 2.71895 -5.48509 0
M  V30 13835 C 1905.34 2.89693 -6.67988 0
M  V30 13836 H 1905.37 3.88793 -6.19859 0
M  V30 13837 H 1906.55 1.12046 -6.44229 0
M  V30 13838 H 1908.04 1.7746 -8.19711 0
M  V30 13839 H 1906.34 3.20706 -9.67112 0
M  V30 13840 H 1906.15 0.901032 -10.1892 0
M  V30 13841 H 1904.52 1.33049 -9.56592 0
M  V30 13842 H 1907.16 3.57847 -5.23962 0
M  V30 13843 P 1909.02 3.65191 -7.99657 0
M  V30 13844 O 1910.44 3.89332 -8.45794 0
M  V30 13845 O 1908.66 2.28472 -7.50807 0
M  V30 13846 O 1908.7 4.64972 -6.77611 0
M  V30 13847 C 1908.54 6.06319 -7.16352 0
M  V30 13848 C 1909.08 6.91731 -6.02299 0
M  V30 13849 O 1908.02 6.92449 -5.17064 0
M  V30 13850 C 1910.29 6.43627 -5.25174 0
M  V30 13851 O 1911.03 7.43686 -4.60469 0
M  V30 13852 C 1909.62 5.40275 -4.31916 0
M  V30 13853 O 1910.42 5.25279 -3.14438 0
M  V30 13854 C 1908.29 6.04847 -4.05327 0
M  V30 13855 H 1908.32 6.62195 -3.11261 0
M  V30 13856 H 1909.5 4.42556 -4.81383 0
M  V30 13857 H 1910.99 5.92458 -5.93643 0
M  V30 13858 H 1909.29 7.92655 -6.402 0
M  V30 13859 H 1909.1 6.26671 -8.0846 0
M  V30 13860 H 1907.47 6.29101 -7.32804 0
M  V30 13861 H 1910.11 5.84315 -2.47318 0
M  V30 13862 P 1911.97 7.39546 -4.75277 0
M  V30 13863 O 1913.39 7.84798 -5.01039 0
M  V30 13864 O 1911.61 5.9812 -5.08098 0
M  V30 13865 O 1911.65 7.57503 -3.1866 0
M  V30 13866 C 1911.49 8.97357 -2.74833 0
M  V30 13867 C 1912.03 9.07548 -1.32709 0
M  V30 13868 O 1910.97 8.62072 -0.606159 0
M  V30 13869 C 1913.24 8.25383 -0.938334 0
M  V30 13870 O 1913.98 8.74577 0.146954 0
M  V30 13871 C 1912.58 6.8802 -0.712559 0
M  V30 13872 O 1913.37 6.1189 0.194655 0
M  V30 13873 C 1911.24 7.27966 -0.139777 0
M  V30 13874 H 1911.27 7.25354 0.961601 0
M  V30 13875 H 1912.45 6.32557 -1.65702 0
M  V30 13876 H 1913.94 8.19355 -1.79097 0
M  V30 13877 H 1912.24 10.1294 -1.10029 0
M  V30 13878 H 1912.05 9.64276 -3.41316 0
M  V30 13879 H 1910.42 9.25417 -2.76357 0
M  V30 13880 H 1913.06 6.25267 1.07847 0
M  V30 13881 P 1914.92 8.791 1.63009e-11 0
M  V30 13882 O 1916.34 9.31096 0.027933 0
M  V30 13883 O 1914.56 7.77869 -1.04071 0
M  V30 13884 O 1914.6 8.09533 1.41463 0
M  V30 13885 C 1914.44 9.0349 2.53943 0
M  V30 13886 C 1914.98 8.35226 3.79016 0
M  V30 13887 O 1913.92 7.57992 4.15078 0
M  V30 13888 C 1916.19 7.45087 3.67298 0
M  V30 13889 O 1916.93 7.27796 4.85194 0
M  V30 13890 C 1915.53 6.17323 3.12027 0
M  V30 13891 O 1916.32 5.04231 3.47188 0
M  V30 13892 C 1914.19 6.19961 3.81809 0
M  V30 13893 H 1914.22 5.58218 4.73051 0
M  V30 13894 H 1915.4 6.21726 2.02589 0
M  V30 13895 H 1916.89 7.86112 2.9231 0
M  V30 13896 H 1915.19 9.11627 4.55076 0
M  V30 13897 H 1915 9.9573 2.34194 0
M  V30 13898 H 1913.37 9.2792 2.67832 0
M  V30 13899 H 1916.01 4.67702 4.28772 0
M  V30 13900 P 1917.87 7.39546 4.75277 0
M  V30 13901 O 1919.27 7.89013 5.04841 0
M  V30 13902 O 1917.49 7.16603 3.32298 0
M  V30 13903 O 1917.55 6.04468 5.56605 0
M  V30 13904 C 1917.39 6.22772 7.02095 0
M  V30 13905 C 1917.93 4.97671 7.70322 0
M  V30 13906 O 1916.87 4.13208 7.58899 0
M  V30 13907 C 1919.14 4.28231 7.11815 0
M  V30 13908 O 1919.88 3.49945 8.01648 0
M  V30 13909 C 1918.48 3.5063 5.96244 0
M  V30 13910 O 1919.28 2.36443 5.64589 0
M  V30 13911 C 1917.14 3.15122 6.56374 0
M  V30 13912 N 1916.1 3.22311 5.55692 0
M  V30 13913 C 1915.06 2.32244 5.62437 0
M  V30 13914 O 1915.1 1.43107 6.50341 0
M  V30 13915 N 1914.05 2.40811 4.73368 0
M  V30 13916 C 1914.1 3.344 3.77753 0
M  V30 13917 C 1915.19 4.24712 3.66679 0
M  V30 13918 C 1916.16 4.15625 4.58307 0
M  V30 13919 H 1917.17 2.13823 6.99656 0
M  V30 13920 H 1918.35 4.12931 5.06895 0
M  V30 13921 H 1919.84 5.02674 6.71494 0
M  V30 13922 H 1918.14 5.20001 8.76217 0
M  V30 13923 H 1917.95 7.11046 7.35349 0
M  V30 13924 H 1916.32 6.35749 7.26911 0
M  V30 13925 H 1915.24 4.9828 2.86753 0
M  V30 13926 H 1917.01 4.84464 4.54228 0
M  V30 13927 H 1919.06 1.65592 6.23485 0
M  V30 13928 P 1920.82 3.65191 7.99657 0
M  V30 13929 O 1922.22 3.90823 8.51272 0
M  V30 13930 O 1920.44 4.23191 6.66972 0
M  V30 13931 O 1920.5 2.07587 7.95046 0
M  V30 13932 C 1920.34 1.44328 9.27336 0
M  V30 13933 C 1920.88 0.0220012 9.17097 0
M  V30 13934 O 1919.82 -0.626794 8.61824 0
M  V30 13935 C 1922.1 -0.24586 8.30336 0
M  V30 13936 O 1922.83 -1.39011 8.63583 0
M  V30 13937 C 1921.43 -0.273849 6.91158 0
M  V30 13938 O 1922.23 -1.06331 6.02794 0
M  V30 13939 C 1920.09 -0.897649 7.22545 0
M  V30 13940 N 1919.05 -0.292839 6.41732 0
M  V30 13941 C 1918.01 -1.08701 5.98712 0
M  V30 13942 O 1918.05 -2.31211 6.24471 0
M  V30 13943 N 1917 -0.533391 5.28415 0
M  V30 13944 C 1917.05 0.770866 4.98576 0
M  V30 13945 N 1916.04 1.29482 4.30134 0
M  V30 13946 C 1918.14 1.59049 5.38086 0
M  V30 13947 C 1919.11 1.01866 6.10256 0
M  V30 13948 H 1920.12 -1.98383 7.04189 0
M  V30 13949 H 1921.31 0.733318 6.49674 0
M  V30 13950 H 1922.79 0.598386 8.36663 0
M  V30 13951 H 1921.1 -0.362662 10.1825 0
M  V30 13952 H 1920.9 2.00611 10.0304 0
M  V30 13953 H 1919.27 1.41828 9.55228 0
M  V30 13954 H 1918.19 2.6415 5.10622 0
M  V30 13955 H 1919.96 1.61983 6.44042 0
M  V30 13956 H 1915.25 0.69888 4.01361 0
M  V30 13957 H 1916.04 2.29327 4.05781 0
M  V30 13958 H 1922.01 -1.97777 6.14035 0
M  V30 13959 P 1923.77 -1.25109 8.70152 0
M  V30 13960 O 1925.19 -1.35274 9.21221 0
M  V30 13961 O 1923.41 -0.0769065 7.84762 0
M  V30 13962 O 1923.45 -2.55232 7.81161 0
M  V30 13963 C 1923.29 -3.79939 8.58154 0
M  V30 13964 C 1923.83 -4.94023 7.72785 0
M  V30 13965 O 1922.77 -5.18726 6.91205 0
M  V30 13966 C 1925.05 -4.69597 6.85231 0
M  V30 13967 O 1925.78 -5.83832 6.51337 0
M  V30 13968 C 1924.38 -3.96706 5.66633 0
M  V30 13969 O 1925.18 -4.15414 4.49689 0
M  V30 13970 C 1923.04 -4.66153 5.59313 0
M  V30 13971 H 1923.07 -5.47679 4.85214 0
M  V30 13972 H 1924.26 -2.89008 5.86566 0
M  V30 13973 H 1925.74 -4.0121 7.36511 0
M  V30 13974 H 1924.05 -5.80182 8.37584 0
M  V30 13975 H 1923.86 -3.73517 9.52265 0
M  V30 13976 H 1922.23 -3.97163 8.80359 0
M  V30 13977 H 1924.86 -4.90969 4.01921 0
M  V30 13978 P 1926.72 -5.75688 6.64379 0
M  V30 13979 O 1928.14 -6.11915 7.01921 0
M  V30 13980 O 1926.36 -4.30744 6.56026 0
M  V30 13981 O 1926.4 -6.37042 5.19165 0
M  V30 13982 C 1926.24 -7.83662 5.1657 0
M  V30 13983 C 1926.78 -8.33398 3.83019 0
M  V30 13984 O 1925.72 -8.0998 3.00999 0
M  V30 13985 C 1928 -7.65514 3.2257 0
M  V30 13986 O 1928.74 -8.4329 2.32297 0
M  V30 13987 C 1927.33 -6.40075 2.62207 0
M  V30 13988 O 1928.13 -5.92338 1.5428 0
M  V30 13989 C 1925.99 -6.9454 2.18503 0
M  V30 13990 N 1924.95 -5.95905 2.39948 0
M  V30 13991 C 1925.12 -4.98383 3.32108 0
M  V30 13992 N 1924.09 -4.16798 3.41761 0
M  V30 13993 C 1923.21 -4.65287 2.47461 0
M  V30 13994 C 1921.94 -4.18946 2.07461 0
M  V30 13995 N 1921.37 -4.95327 1.09101 0
M  V30 13996 C 1921.98 -6.04369 0.519812 0
M  V30 13997 N 1923.15 -6.50694 0.855982 0
M  V30 13998 C 1923.73 -5.75818 1.84322 0
M  V30 13999 H 1927.21 -5.60502 3.36589 0
M  V30 14000 H 1928.69 -7.35707 4.02681 0
M  V30 14001 H 1927 -9.41302 3.90009 0
M  V30 14002 H 1926.81 -8.29056 5.99158 0
M  V30 14003 H 1925.18 -8.10073 5.25882 0
M  V30 14004 H 1926.02 -4.88564 3.92502 0
M  V30 14005 H 1927.82 -6.30224 0.72668 0
M  V30 14006 P 1929.67 -8.4349 2.47671 0
M  V30 14007 O 1931.07 -8.98227 2.65696 0
M  V30 14008 O 1929.29 -7.20409 3.23964 0
M  V30 14009 O 1929.35 -8.16496 0.923275 0
M  V30 14010 C 1929.19 -9.38437 0.108857 0
M  V30 14011 C 1929.73 -9.08076 -1.28339 0
M  V30 14012 O 1928.67 -8.44131 -1.84692 0
M  V30 14013 C 1930.95 -8.18386 -1.42505 0
M  V30 14014 O 1931.69 -8.3501 -2.60497 0
M  V30 14015 C 1930.28 -6.80225 -1.25468 0
M  V30 14016 O 1931.08 -5.81526 -1.91035 0
M  V30 14017 C 1928.94 -7.02416 -1.9168 0
M  V30 14018 N 1927.9 -6.31033 -1.20314 0
M  V30 14019 C 1926.86 -5.77149 -1.928 0
M  V30 14020 O 1926.9 -5.8521 -3.17729 0
M  V30 14021 N 1925.85 -5.15445 -1.27997 0
M  V30 14022 C 1925.9 -5.04472 0.0534726 0
M  V30 14023 N 1924.89 -4.44183 0.669496 0
M  V30 14024 C 1927 -5.55244 0.808522 0
M  V30 14025 C 1927.96 -6.18542 0.13981 0
M  V30 14026 H 1928.97 -6.68789 -2.9658 0
M  V30 14027 H 1930.16 -6.53498 -0.198729 0
M  V30 14028 H 1931.64 -8.36663 -0.5984 0
M  V30 14029 H 1929.95 -10.0273 -1.8081 0
M  V30 14030 H 1929.76 -10.2138 0.558219 0
M  V30 14031 H 1928.13 -9.6569 0.0444156 0
M  V30 14032 H 1927.04 -5.43017 1.88792 0
M  V30 14033 H 1928.81 -6.60539 0.686773 0
M  V30 14034 H 1924.1 -4.07222 0.12057 0
M  V30 14035 H 1924.89 -4.34288 1.69244 0
M  V30 14036 H 1930.86 -5.79638 -2.8315 0
M  V30 14037 P 1932.62 -8.4349 -2.47671 0
M  V30 14038 O 1934.02 -8.99283 -2.62101 0
M  V30 14039 O 1932.25 -7.81195 -1.16947 0
M  V30 14040 O 1932.3 -7.36797 -3.63761 0
M  V30 14041 C 1932.14 -7.95349 -4.982 0
M  V30 14042 C 1932.68 -6.94537 -5.98908 0
M  V30 14043 O 1931.62 -6.10277 -6.11744 0
M  V30 14044 C 1933.9 -6.11426 -5.62335 0
M  V30 14045 O 1934.64 -5.6162 -6.70584 0
M  V30 14046 C 1933.23 -5.04409 -4.73308 0
M  V30 14047 O 1934.03 -3.85929 -4.75106 0
M  V30 14048 C 1931.89 -4.8728 -5.41006 0
M  V30 14049 N 1930.85 -4.65812 -4.42377 0
M  V30 14050 C 1929.81 -3.81293 -4.74224 0
M  V30 14051 O 1929.85 -3.20533 -5.83679 0
M  V30 14052 N 1928.8 -3.6442 -3.86349 0
M  V30 14053 C 1928.85 -4.2728 -2.6824 0
M  V30 14054 C 1929.95 -5.10813 -2.3217 0
M  V30 14055 C 1930.91 -5.27909 -3.22647 0
M  V30 14056 H 1931.92 -4.02278 -6.11074 0
M  V30 14057 H 1933.11 -5.39013 -3.70026 0
M  V30 14058 H 1934.59 -6.71494 -5.02675 0
M  V30 14059 H 1932.9 -7.45796 -6.94223 0
M  V30 14060 H 1932.71 -8.89416 -5.05237 0
M  V30 14061 H 1931.08 -8.14791 -5.18355 0
M  V30 14062 H 1929.99 -5.58884 -1.34755 0
M  V30 14063 H 1931.76 -5.92811 -2.9934 0
M  V30 14064 H 1933.81 -3.3454 -5.51577 0
M  V30 14065 P 1935.57 -5.75688 -6.64379 0
M  V30 14066 O 1937 -6.07758 -7.05656 0
M  V30 14067 O 1935.21 -5.88047 -5.19722 0
M  V30 14068 O 1935.25 -4.2322 -7.04443 0
M  V30 14069 C 1935.09 -3.99743 -8.4911 0
M  V30 14070 C 1935.63 -2.60487 -8.79329 0
M  V30 14071 O 1934.58 -1.82684 -8.4467 0
M  V30 14072 C 1936.85 -2.10343 -8.03628 0
M  V30 14073 O 1937.59 -1.09919 -8.67766 0
M  V30 14074 C 1936.18 -1.68446 -6.70876 0
M  V30 14075 O 1936.98 -0.678026 -6.08333 0
M  V30 14076 C 1934.84 -1.17436 -7.18567 0
M  V30 14077 N 1933.8 -1.52699 -6.23988 0
M  V30 14078 C 1933.86 -2.68084 -5.57824 0
M  V30 14079 N 1932.82 -2.8189 -4.75643 0
M  V30 14080 C 1932.08 -1.72373 -4.95155 0
M  V30 14081 C 1930.78 -1.37653 -4.44996 0
M  V30 14082 O 1930.04 -2.02239 -3.68445 0
M  V30 14083 N 1930.35 -0.17675 -4.90782 0
M  V30 14084 C 1931.1 0.645036 -5.78716 0
M  V30 14085 N 1930.5 1.84214 -6.10618 0
M  V30 14086 N 1932.25 0.321732 -6.30279 0
M  V30 14087 C 1932.71 -0.87502 -5.86913 0
M  V30 14088 H 1934.87 -0.0804732 -7.31656 0
M  V30 14089 H 1936.06 -2.53998 -6.02444 0
M  V30 14090 H 1937.54 -2.93095 -7.8582 0
M  V30 14091 H 1935.85 -2.53065 -9.86973 0
M  V30 14092 H 1935.66 -4.75072 -9.05887 0
M  V30 14093 H 1934.03 -4.05244 -8.76668 0
M  V30 14094 H 1929.45 0.152143 -4.60849 0
M  V30 14095 H 1934.66 -3.41852 -5.69006 0
M  V30 14096 H 1929.59 2.08538 -5.69521 0
M  V30 14097 H 1930.96 2.4895 -6.75698 0
M  V30 14098 H 1936.67 0.177619 -6.34151 0
M  V30 14099 P 1938.52 -1.25109 -8.70152 0
M  V30 14100 O 1939.95 -1.29744 -9.22016 0
M  V30 14101 O 1938.16 -2.13714 -7.55141 0
M  V30 14102 O 1938.2 0.248149 -8.21425 0
M  V30 14103 C 1938.04 1.22779 -9.30434 0
M  V30 14104 C 1938.58 2.56293 -8.80664 0
M  V30 14105 O 1937.53 3.02979 -8.09349 0
M  V30 14106 C 1939.8 2.57523 -7.89775 0
M  V30 14107 O 1940.54 3.7668 -7.89438 0
M  V30 14108 C 1939.13 2.20997 -6.55446 0
M  V30 14109 O 1939.93 2.71895 -5.48509 0
M  V30 14110 C 1937.79 2.89693 -6.67988 0
M  V30 14111 H 1937.83 3.88793 -6.19859 0
M  V30 14112 H 1939.01 1.12046 -6.44229 0
M  V30 14113 H 1940.49 1.7746 -8.19711 0
M  V30 14114 H 1938.8 3.20706 -9.67112 0
M  V30 14115 H 1938.61 0.901032 -10.1892 0
M  V30 14116 H 1936.98 1.33049 -9.56592 0
M  V30 14117 H 1939.62 3.57847 -5.23962 0
M  V30 14118 P 1941.48 3.65191 -7.99657 0
M  V30 14119 O 1942.9 3.89332 -8.45794 0
M  V30 14120 O 1941.12 2.28472 -7.50807 0
M  V30 14121 O 1941.15 4.64972 -6.77611 0
M  V30 14122 C 1940.99 6.06319 -7.16352 0
M  V30 14123 C 1941.53 6.91731 -6.02299 0
M  V30 14124 O 1940.48 6.92449 -5.17064 0
M  V30 14125 C 1942.75 6.43627 -5.25174 0
M  V30 14126 O 1943.49 7.43686 -4.60469 0
M  V30 14127 C 1942.08 5.40275 -4.31916 0
M  V30 14128 O 1942.88 5.25279 -3.14438 0
M  V30 14129 C 1940.74 6.04847 -4.05327 0
M  V30 14130 H 1940.78 6.62195 -3.11261 0
M  V30 14131 H 1941.96 4.42556 -4.81383 0
M  V30 14132 H 1943.44 5.92458 -5.93643 0
M  V30 14133 H 1941.75 7.92655 -6.402 0
M  V30 14134 H 1941.56 6.26671 -8.0846 0
M  V30 14135 H 1939.93 6.29101 -7.32804 0
M  V30 14136 H 1942.57 5.84315 -2.47318 0
M  V30 14137 P 1944.43 7.39546 -4.75277 0
M  V30 14138 O 1945.85 7.84798 -5.01039 0
M  V30 14139 O 1944.07 5.9812 -5.08098 0
M  V30 14140 O 1944.1 7.57503 -3.1866 0
M  V30 14141 C 1943.94 8.97357 -2.74833 0
M  V30 14142 C 1944.48 9.07548 -1.32709 0
M  V30 14143 O 1943.43 8.62072 -0.606159 0
M  V30 14144 C 1945.7 8.25383 -0.938334 0
M  V30 14145 O 1946.44 8.74577 0.146954 0
M  V30 14146 C 1945.03 6.8802 -0.712559 0
M  V30 14147 O 1945.83 6.1189 0.194655 0
M  V30 14148 C 1943.69 7.27966 -0.139777 0
M  V30 14149 H 1943.73 7.25354 0.961601 0
M  V30 14150 H 1944.91 6.32557 -1.65702 0
M  V30 14151 H 1946.39 8.19355 -1.79097 0
M  V30 14152 H 1944.7 10.1294 -1.10029 0
M  V30 14153 H 1944.51 9.64276 -3.41316 0
M  V30 14154 H 1942.88 9.25417 -2.76357 0
M  V30 14155 H 1945.52 6.25267 1.07847 0
M  V30 14156 P 1947.38 8.791 1.66111e-11 0
M  V30 14157 O 1948.8 9.31096 0.027933 0
M  V30 14158 O 1947.02 7.77869 -1.04071 0
M  V30 14159 O 1947.05 8.09533 1.41463 0
M  V30 14160 C 1946.89 9.0349 2.53943 0
M  V30 14161 C 1947.43 8.35226 3.79016 0
M  V30 14162 O 1946.38 7.57992 4.15078 0
M  V30 14163 C 1948.65 7.45087 3.67298 0
M  V30 14164 O 1949.39 7.27796 4.85194 0
M  V30 14165 C 1947.98 6.17323 3.12027 0
M  V30 14166 O 1948.78 5.04231 3.47188 0
M  V30 14167 C 1946.65 6.19961 3.81809 0
M  V30 14168 H 1946.68 5.58218 4.73051 0
M  V30 14169 H 1947.86 6.21726 2.02589 0
M  V30 14170 H 1949.34 7.86112 2.9231 0
M  V30 14171 H 1947.65 9.11627 4.55076 0
M  V30 14172 H 1947.46 9.9573 2.34194 0
M  V30 14173 H 1945.83 9.2792 2.67832 0
M  V30 14174 H 1948.47 4.67702 4.28772 0
M  V30 14175 P 1950.33 7.39546 4.75277 0
M  V30 14176 O 1951.75 7.81777 5.05738 0
M  V30 14177 O 1949.97 7.1065 3.32998 0
M  V30 14178 O 1950 6.04542 5.56673 0
M  V30 14179 C 1949.84 6.22772 7.02095 0
M  V30 14180 C 1950.38 4.97725 7.70406 0
M  V30 14181 O 1949.33 4.13256 7.58987 0
M  V30 14182 C 1951.6 4.28231 7.11815 0
M  V30 14183 O 1952.34 3.49945 8.01648 0
M  V30 14184 C 1950.93 3.5063 5.96244 0
M  V30 14185 O 1951.73 2.36482 5.64681 0
M  V30 14186 C 1949.6 3.15122 6.56374 0
M  V30 14187 H 1949.63 2.13853 6.99751 0
M  V30 14188 H 1950.81 4.13501 5.06559 0
M  V30 14189 H 1952.29 5.03285 6.70911 0
M  V30 14190 H 1950.6 5.20877 8.75697 0
M  V30 14191 H 1950.41 7.11046 7.35349 0
M  V30 14192 H 1948.78 6.35815 7.26986 0
M  V30 14193 H 1951.42 1.61644 6.13565 0
M  V30 14194 P 1953.28 3.65191 7.99657 0
M  V30 14195 O 1954.7 3.8425 8.48115 0
M  V30 14196 O 1952.92 4.17805 6.64342 0
M  V30 14197 O 1952.95 2.07613 7.95143 0
M  V30 14198 C 1952.79 1.44328 9.27336 0
M  V30 14199 C 1953.33 0.0220036 9.17197 0
M  V30 14200 O 1952.28 -0.626867 8.61923 0
M  V30 14201 C 1954.55 -0.24586 8.30336 0
M  V30 14202 O 1955.29 -1.39011 8.63583 0
M  V30 14203 C 1953.88 -0.273849 6.91158 0
M  V30 14204 O 1954.68 -1.06348 6.02892 0
M  V30 14205 C 1952.55 -0.897649 7.22545 0
M  V30 14206 H 1952.58 -1.9841 7.04286 0
M  V30 14207 H 1953.76 0.739928 6.497 0
M  V30 14208 H 1955.25 0.60668 8.36503 0
M  V30 14209 H 1953.55 -0.352479 10.1829 0
M  V30 14210 H 1953.36 2.00611 10.0304 0
M  V30 14211 H 1951.73 1.41843 9.55327 0
M  V30 14212 H 1954.37 -1.95734 6.03555 0
M  V30 14213 P 1956.23 -1.25109 8.70152 0
M  V30 14214 O 1957.65 -1.35274 9.21221 0
M  V30 14215 O 1955.87 -0.0769065 7.84762 0
M  V30 14216 O 1955.9 -2.55232 7.81161 0
M  V30 14217 C 1955.74 -3.79939 8.58154 0
M  V30 14218 C 1956.28 -4.94023 7.72785 0
M  V30 14219 O 1955.23 -5.18726 6.91205 0
M  V30 14220 C 1957.5 -4.69597 6.85231 0
M  V30 14221 O 1958.24 -5.83832 6.51337 0
M  V30 14222 C 1956.83 -3.96706 5.66633 0
M  V30 14223 O 1957.63 -4.15414 4.49689 0
M  V30 14224 C 1955.5 -4.66153 5.59313 0
M  V30 14225 H 1955.53 -5.47679 4.85214 0
M  V30 14226 H 1956.71 -2.89008 5.86566 0
M  V30 14227 H 1958.2 -4.0121 7.36511 0
M  V30 14228 H 1956.5 -5.80182 8.37584 0
M  V30 14229 H 1956.31 -3.73517 9.52265 0
M  V30 14230 H 1954.68 -3.97163 8.80359 0
M  V30 14231 H 1957.32 -4.90969 4.01921 0
M  V30 14232 P 1959.18 -5.75688 6.64379 0
M  V30 14233 O 1960.6 -6.11849 7.01846 0
M  V30 14234 O 1958.82 -4.30744 6.56026 0
M  V30 14235 O 1958.86 -6.37042 5.19165 0
M  V30 14236 C 1958.7 -7.83578 5.16515 0
M  V30 14237 C 1959.24 -8.33398 3.83019 0
M  V30 14238 O 1958.18 -8.10074 3.01034 0
M  V30 14239 C 1960.45 -7.65514 3.2257 0
M  V30 14240 O 1961.19 -8.4329 2.32297 0
M  V30 14241 C 1959.78 -6.40075 2.62207 0
M  V30 14242 O 1960.58 -5.92589 1.53712 0
M  V30 14243 C 1958.45 -6.9454 2.18503 0
M  V30 14244 H 1958.48 -7.23063 1.12091 0
M  V30 14245 H 1959.66 -5.6025 3.37201 0
M  V30 14246 H 1961.15 -7.35707 4.02681 0
M  V30 14247 H 1959.45 -9.40912 3.9095 0
M  V30 14248 H 1959.26 -8.29056 5.99158 0
M  V30 14249 H 1957.63 -8.10073 5.25882 0
M  V30 14250 H 1960.27 -6.30324 0.726794 0
M  V30 14251 P 1962.13 -8.4349 2.47671 0
M  V30 14252 O 1963.55 -8.94167 2.5964 0
M  V30 14253 O 1961.77 -7.1704 3.19006 0
M  V30 14254 O 1961.81 -8.16596 0.923387 0
M  V30 14255 C 1961.65 -9.38437 0.108857 0
M  V30 14256 C 1962.19 -9.08175 -1.28353 0
M  V30 14257 O 1961.13 -8.44229 -1.84713 0
M  V30 14258 C 1963.4 -8.18386 -1.42505 0
M  V30 14259 O 1964.14 -8.3501 -2.60497 0
M  V30 14260 C 1962.74 -6.80225 -1.25468 0
M  V30 14261 O 1963.53 -5.81621 -1.91066 0
M  V30 14262 C 1961.4 -7.02416 -1.9168 0
M  V30 14263 H 1961.43 -6.6888 -2.96621 0
M  V30 14264 H 1962.61 -6.53617 -0.192223 0
M  V30 14265 H 1964.1 -8.36622 -0.589963 0
M  V30 14266 H 1962.4 -10.0291 -1.79807 0
M  V30 14267 H 1962.21 -10.2138 0.558219 0
M  V30 14268 H 1960.58 -9.6579 0.0444202 0
M  V30 14269 H 1963.22 -5.69556 -2.79637 0
M  V30 14270 P 1965.08 -8.4349 -2.47671 0
M  V30 14271 O 1966.48 -8.99283 -2.62101 0
M  V30 14272 O 1964.7 -7.81195 -1.16947 0
M  V30 14273 O 1964.76 -7.36797 -3.63761 0
M  V30 14274 C 1964.6 -7.95349 -4.982 0
M  V30 14275 C 1965.14 -6.94537 -5.98908 0
M  V30 14276 O 1964.08 -6.10277 -6.11744 0
M  V30 14277 C 1966.35 -6.11426 -5.62335 0
M  V30 14278 O 1967.09 -5.6162 -6.70584 0
M  V30 14279 C 1965.69 -5.04409 -4.73308 0
M  V30 14280 O 1966.48 -3.85929 -4.75106 0
M  V30 14281 C 1964.35 -4.8728 -5.41006 0
M  V30 14282 N 1963.31 -4.65812 -4.42377 0
M  V30 14283 C 1962.27 -3.81293 -4.74224 0
M  V30 14284 O 1962.31 -3.20533 -5.83679 0
M  V30 14285 N 1961.26 -3.6442 -3.86349 0
M  V30 14286 C 1961.31 -4.2728 -2.6824 0
M  V30 14287 C 1962.4 -5.10813 -2.3217 0
M  V30 14288 C 1963.37 -5.27909 -3.22647 0
M  V30 14289 H 1964.38 -4.02278 -6.11074 0
M  V30 14290 H 1965.56 -5.39013 -3.70026 0
M  V30 14291 H 1967.05 -6.71494 -5.02675 0
M  V30 14292 H 1965.35 -7.45796 -6.94223 0
M  V30 14293 H 1965.16 -8.89416 -5.05237 0
M  V30 14294 H 1963.53 -8.14791 -5.18355 0
M  V30 14295 H 1962.45 -5.58884 -1.34755 0
M  V30 14296 H 1964.21 -5.92811 -2.9934 0
M  V30 14297 H 1966.27 -3.3454 -5.51577 0
M  V30 14298 P 1968.03 -5.75688 -6.64379 0
M  V30 14299 O 1969.45 -6.07627 -7.05504 0
M  V30 14300 O 1967.67 -5.88047 -5.19722 0
M  V30 14301 O 1967.71 -4.2322 -7.04443 0
M  V30 14302 C 1967.55 -3.99743 -8.4911 0
M  V30 14303 C 1968.09 -2.60516 -8.79425 0
M  V30 14304 O 1967.03 -1.82684 -8.4467 0
M  V30 14305 C 1969.31 -2.10343 -8.03628 0
M  V30 14306 O 1970.04 -1.09919 -8.67766 0
M  V30 14307 C 1968.64 -1.68446 -6.70876 0
M  V30 14308 O 1969.44 -0.678137 -6.08433 0
M  V30 14309 C 1967.3 -1.17436 -7.18567 0
M  V30 14310 H 1967.33 -0.0804732 -7.31656 0
M  V30 14311 H 1968.51 -2.54037 -6.02537 0
M  V30 14312 H 1970 -2.93881 -7.85526 0
M  V30 14313 H 1968.3 -2.53065 -9.86973 0
M  V30 14314 H 1968.11 -4.75072 -9.05887 0
M  V30 14315 H 1966.48 -4.05244 -8.76668 0
M  V30 14316 H 1969.12 0.177647 -6.34251 0
M  V30 14317 P 1970.98 -1.25109 -8.70152 0
M  V30 14318 O 1972.4 -1.29744 -9.22016 0
M  V30 14319 O 1970.62 -2.13714 -7.55141 0
M  V30 14320 O 1970.66 0.248149 -8.21425 0
M  V30 14321 C 1970.5 1.22779 -9.30434 0
M  V30 14322 C 1971.04 2.56293 -8.80664 0
M  V30 14323 O 1969.98 3.02979 -8.09349 0
M  V30 14324 C 1972.26 2.57523 -7.89775 0
M  V30 14325 O 1972.99 3.7668 -7.89438 0
M  V30 14326 C 1971.59 2.20997 -6.55446 0
M  V30 14327 O 1972.39 2.71895 -5.48509 0
M  V30 14328 C 1970.25 2.89693 -6.67988 0
M  V30 14329 H 1970.28 3.88793 -6.19859 0
M  V30 14330 H 1971.46 1.12046 -6.44229 0
M  V30 14331 H 1972.95 1.7746 -8.19711 0
M  V30 14332 H 1971.25 3.20706 -9.67112 0
M  V30 14333 H 1971.06 0.901032 -10.1892 0
M  V30 14334 H 1969.43 1.33049 -9.56592 0
M  V30 14335 H 1972.07 3.57847 -5.23962 0
M  V30 14336 P 1973.93 3.65191 -7.99657 0
M  V30 14337 O 1975.35 3.89332 -8.45794 0
M  V30 14338 O 1973.57 2.28472 -7.50807 0
M  V30 14339 O 1973.61 4.64972 -6.77611 0
M  V30 14340 C 1973.45 6.06319 -7.16352 0
M  V30 14341 C 1973.99 6.91731 -6.02299 0
M  V30 14342 O 1972.93 6.92449 -5.17064 0
M  V30 14343 C 1975.21 6.43627 -5.25174 0
M  V30 14344 O 1975.94 7.43686 -4.60469 0
M  V30 14345 C 1974.54 5.40275 -4.31916 0
M  V30 14346 O 1975.34 5.25279 -3.14438 0
M  V30 14347 C 1973.2 6.04847 -4.05327 0
M  V30 14348 H 1973.23 6.62195 -3.11261 0
M  V30 14349 H 1974.42 4.42556 -4.81383 0
M  V30 14350 H 1975.9 5.92458 -5.93643 0
M  V30 14351 H 1974.21 7.92655 -6.402 0
M  V30 14352 H 1974.02 6.26671 -8.0846 0
M  V30 14353 H 1972.39 6.29101 -7.32804 0
M  V30 14354 H 1975.02 5.84315 -2.47318 0
M  V30 14355 P 1976.88 7.39546 -4.75277 0
M  V30 14356 O 1978.3 7.84798 -5.01039 0
M  V30 14357 O 1976.52 5.9812 -5.08098 0
M  V30 14358 O 1976.56 7.57503 -3.1866 0
M  V30 14359 C 1976.4 8.97357 -2.74833 0
M  V30 14360 C 1976.94 9.07548 -1.32709 0
M  V30 14361 O 1975.88 8.62072 -0.606159 0
M  V30 14362 C 1978.16 8.25383 -0.938334 0
M  V30 14363 O 1978.89 8.74577 0.146954 0
M  V30 14364 C 1977.49 6.8802 -0.712559 0
M  V30 14365 O 1978.29 6.1189 0.194655 0
M  V30 14366 C 1976.15 7.27966 -0.139777 0
M  V30 14367 H 1976.18 7.25354 0.961601 0
M  V30 14368 H 1977.37 6.32557 -1.65702 0
M  V30 14369 H 1978.85 8.19355 -1.79097 0
M  V30 14370 H 1977.16 10.1294 -1.10029 0
M  V30 14371 H 1976.97 9.64276 -3.41316 0
M  V30 14372 H 1975.34 9.25417 -2.76357 0
M  V30 14373 H 1977.97 6.25267 1.07847 0
M  V30 14374 P 1979.83 8.791 1.69213e-11 0
M  V30 14375 O 1981.23 9.36698 -0.018734 0
M  V30 14376 O 1979.45 7.82499 -1.07878 0
M  V30 14377 O 1979.51 8.09434 1.41446 0
M  V30 14378 C 1979.35 9.0349 2.53943 0
M  V30 14379 C 1979.89 8.35135 3.78975 0
M  V30 14380 O 1978.83 7.57904 4.1503 0
M  V30 14381 C 1981.11 7.45087 3.67298 0
M  V30 14382 O 1981.85 7.27796 4.85194 0
M  V30 14383 C 1980.44 6.17323 3.12027 0
M  V30 14384 O 1981.24 5.04149 3.47132 0
M  V30 14385 C 1979.1 6.19961 3.81809 0
M  V30 14386 N 1978.06 5.71575 2.93223 0
M  V30 14387 C 1977.02 4.99452 3.47592 0
M  V30 14388 O 1977.06 4.7199 4.69732 0
M  V30 14389 N 1976.01 4.58505 2.6803 0
M  V30 14390 C 1976.06 4.85544 1.36995 0
M  V30 14391 N 1975.05 4.45052 0.609031 0
M  V30 14392 C 1977.16 5.55532 0.788532 0
M  V30 14393 C 1978.12 5.97426 1.60849 0
M  V30 14394 H 1979.13 5.58142 4.72986 0
M  V30 14395 H 1980.32 6.21428 2.0318 0
M  V30 14396 H 1981.8 7.85913 2.93131 0
M  V30 14397 H 1980.11 9.11171 4.55987 0
M  V30 14398 H 1979.92 9.9573 2.34194 0
M  V30 14399 H 1978.29 9.27824 2.67805 0
M  V30 14400 H 1977.2 5.7421 -0.281588 0
M  V30 14401 H 1978.97 6.53132 1.202 0
M  V30 14402 H 1974.26 3.94123 1.03159 0
M  V30 14403 H 1975.05 4.64377 -0.400352 0
M  V30 14404 H 1981.02 4.76386 4.34983 0
M  V30 14405 P 1982.78 7.39546 4.75277 0
M  V30 14406 O 1984.18 7.89013 5.04841 0
M  V30 14407 O 1982.41 7.16603 3.32298 0
M  V30 14408 O 1982.46 6.04468 5.56605 0
M  V30 14409 C 1982.3 6.22772 7.02095 0
M  V30 14410 C 1982.84 4.97671 7.70322 0
M  V30 14411 O 1981.78 4.13208 7.58899 0
M  V30 14412 C 1984.06 4.28231 7.11815 0
M  V30 14413 O 1984.8 3.49945 8.01648 0
M  V30 14414 C 1983.39 3.5063 5.96244 0
M  V30 14415 O 1984.19 2.36443 5.64589 0
M  V30 14416 C 1982.05 3.15122 6.56374 0
M  V30 14417 N 1981.01 3.22311 5.55692 0
M  V30 14418 C 1979.97 2.32244 5.62437 0
M  V30 14419 O 1980.01 1.43107 6.50341 0
M  V30 14420 N 1978.96 2.40811 4.73368 0
M  V30 14421 C 1979.01 3.344 3.77753 0
M  V30 14422 C 1980.11 4.24712 3.66679 0
M  V30 14423 C 1981.07 4.15625 4.58307 0
M  V30 14424 H 1982.08 2.13823 6.99656 0
M  V30 14425 H 1983.27 4.12931 5.06895 0
M  V30 14426 H 1984.75 5.02674 6.71494 0
M  V30 14427 H 1983.06 5.20001 8.76217 0
M  V30 14428 H 1982.87 7.11046 7.35349 0
M  V30 14429 H 1981.24 6.35749 7.26911 0
M  V30 14430 H 1980.15 4.9828 2.86753 0
M  V30 14431 H 1981.92 4.84464 4.54228 0
M  V30 14432 H 1983.97 1.65592 6.23485 0
M  V30 14433 P 1985.73 3.65191 7.99657 0
M  V30 14434 O 1987.16 3.8425 8.48115 0
M  V30 14435 O 1985.37 4.17805 6.64342 0
M  V30 14436 O 1985.41 2.07613 7.95143 0
M  V30 14437 C 1985.25 1.44328 9.27336 0
M  V30 14438 C 1985.79 0.0220036 9.17197 0
M  V30 14439 O 1984.73 -0.626867 8.61923 0
M  V30 14440 C 1987.01 -0.24586 8.30336 0
M  V30 14441 O 1987.75 -1.39011 8.63583 0
M  V30 14442 C 1986.34 -0.273849 6.91158 0
M  V30 14443 O 1987.14 -1.06348 6.02892 0
M  V30 14444 C 1985 -0.897649 7.22545 0
M  V30 14445 H 1985.03 -1.9841 7.04286 0
M  V30 14446 H 1986.22 0.739928 6.497 0
M  V30 14447 H 1987.7 0.60668 8.36503 0
M  V30 14448 H 1986.01 -0.352479 10.1829 0
M  V30 14449 H 1985.82 2.00611 10.0304 0
M  V30 14450 H 1984.19 1.41843 9.55327 0
M  V30 14451 H 1986.83 -1.95734 6.03555 0
M  V30 14452 P 1988.68 -1.25109 8.70152 0
M  V30 14453 O 1990.11 -1.35274 9.21221 0
M  V30 14454 O 1988.32 -0.0769065 7.84762 0
M  V30 14455 O 1988.36 -2.55232 7.81161 0
M  V30 14456 C 1988.2 -3.79939 8.58154 0
M  V30 14457 C 1988.74 -4.94023 7.72785 0
M  V30 14458 O 1987.69 -5.18726 6.91205 0
M  V30 14459 C 1989.96 -4.69597 6.85231 0
M  V30 14460 O 1990.7 -5.83832 6.51337 0
M  V30 14461 C 1989.29 -3.96706 5.66633 0
M  V30 14462 O 1990.09 -4.15414 4.49689 0
M  V30 14463 C 1987.95 -4.66153 5.59313 0
M  V30 14464 H 1987.99 -5.47679 4.85214 0
M  V30 14465 H 1989.17 -2.89008 5.86566 0
M  V30 14466 H 1990.65 -4.0121 7.36511 0
M  V30 14467 H 1988.96 -5.80182 8.37584 0
M  V30 14468 H 1988.77 -3.73517 9.52265 0
M  V30 14469 H 1987.14 -3.97163 8.80359 0
M  V30 14470 H 1989.78 -4.90969 4.01921 0
M  V30 14471 P 1991.63 -5.75688 6.64379 0
M  V30 14472 O 1993.06 -6.11849 7.01846 0
M  V30 14473 O 1991.27 -4.30744 6.56026 0
M  V30 14474 O 1991.31 -6.37042 5.19165 0
M  V30 14475 C 1991.15 -7.83578 5.16515 0
M  V30 14476 C 1991.69 -8.33398 3.83019 0
M  V30 14477 O 1990.64 -8.10074 3.01034 0
M  V30 14478 C 1992.91 -7.65514 3.2257 0
M  V30 14479 O 1993.65 -8.4329 2.32297 0
M  V30 14480 C 1992.24 -6.40075 2.62207 0
M  V30 14481 O 1993.04 -5.92589 1.53712 0
M  V30 14482 C 1990.9 -6.9454 2.18503 0
M  V30 14483 H 1990.94 -7.23063 1.12091 0
M  V30 14484 H 1992.12 -5.6025 3.37201 0
M  V30 14485 H 1993.6 -7.35707 4.02681 0
M  V30 14486 H 1991.91 -9.40912 3.9095 0
M  V30 14487 H 1991.72 -8.29056 5.99158 0
M  V30 14488 H 1990.09 -8.10073 5.25882 0
M  V30 14489 H 1992.73 -6.30324 0.726794 0
M  V30 14490 P 1994.59 -8.4349 2.47671 0
M  V30 14491 O 1996.01 -8.94167 2.5964 0
M  V30 14492 O 1994.23 -7.1704 3.19006 0
M  V30 14493 O 1994.26 -8.16596 0.923387 0
M  V30 14494 C 1994.1 -9.38437 0.108857 0
M  V30 14495 C 1994.64 -9.08175 -1.28353 0
M  V30 14496 O 1993.59 -8.44229 -1.84713 0
M  V30 14497 C 1995.86 -8.18386 -1.42505 0
M  V30 14498 O 1996.6 -8.3501 -2.60497 0
M  V30 14499 C 1995.19 -6.80225 -1.25468 0
M  V30 14500 O 1995.99 -5.81621 -1.91066 0
M  V30 14501 C 1993.85 -7.02416 -1.9168 0
M  V30 14502 H 1993.89 -6.6888 -2.96621 0
M  V30 14503 H 1995.07 -6.53617 -0.192223 0
M  V30 14504 H 1996.55 -8.36622 -0.589963 0
M  V30 14505 H 1994.86 -10.0291 -1.79807 0
M  V30 14506 H 1994.67 -10.2138 0.558219 0
M  V30 14507 H 1993.04 -9.6579 0.0444202 0
M  V30 14508 H 1995.68 -5.69556 -2.79637 0
M  V30 14509 P 1997.54 -8.4349 -2.47671 0
M  V30 14510 O 1998.96 -8.92593 -2.65 0
M  V30 14511 O 1997.18 -7.7568 -1.19296 0
M  V30 14512 O 1997.21 -7.36886 -3.63805 0
M  V30 14513 C 1997.05 -7.95349 -4.982 0
M  V30 14514 C 1997.59 -6.94612 -5.98974 0
M  V30 14515 O 1996.54 -6.10347 -6.11815 0
M  V30 14516 C 1998.81 -6.11426 -5.62335 0
M  V30 14517 O 1999.55 -5.6162 -6.70584 0
M  V30 14518 C 1998.14 -5.04409 -4.73308 0
M  V30 14519 O 1998.94 -3.85992 -4.75183 0
M  V30 14520 C 1996.8 -4.8728 -5.41006 0
M  V30 14521 H 1996.84 -4.02333 -6.11157 0
M  V30 14522 H 1998.02 -5.39466 -3.69543 0
M  V30 14523 H 1999.5 -6.71916 -5.01943 0
M  V30 14524 H 1997.81 -7.4649 -6.93477 0
M  V30 14525 H 1997.62 -8.89416 -5.05237 0
M  V30 14526 H 1995.99 -8.14876 -5.18409 0
M  V30 14527 H 1998.63 -3.27957 -5.4317 0
M  V30 14528 P 2000.49 -5.75688 -6.64379 0
M  V30 14529 O 2001.89 -6.14823 -7.06682 0
M  V30 14530 O 2000.11 -5.93957 -5.20728 0
M  V30 14531 O 2000.16 -4.23169 -7.04357 0
M  V30 14532 C 2000 -3.99743 -8.4911 0
M  V30 14533 C 2000.54 -2.60487 -8.79329 0
M  V30 14534 O 1999.49 -1.82663 -8.44573 0
M  V30 14535 C 2001.76 -2.10343 -8.03628 0
M  V30 14536 O 2002.5 -1.09919 -8.67766 0
M  V30 14537 C 2001.09 -1.68446 -6.70876 0
M  V30 14538 O 2001.89 -0.678026 -6.08333 0
M  V30 14539 C 1999.76 -1.17436 -7.18567 0
M  V30 14540 N 1998.71 -1.52699 -6.23988 0
M  V30 14541 C 1997.68 -0.643793 -6.05085 0
M  V30 14542 O 1997.72 0.459118 -6.64315 0
M  V30 14543 N 1996.67 -0.976931 -5.22038 0
M  V30 14544 C 1996.71 -2.14429 -4.56662 0
M  V30 14545 C 1997.81 -3.04203 -4.71481 0
M  V30 14546 C 1998.78 -2.69669 -5.56838 0
M  V30 14547 H 1999.79 -0.0804622 -7.31556 0
M  V30 14548 H 2000.97 -2.53396 -6.02698 0
M  V30 14549 H 2002.45 -2.9313 -7.85914 0
M  V30 14550 H 2000.76 -2.52078 -9.87225 0
M  V30 14551 H 2000.57 -4.75072 -9.05887 0
M  V30 14552 H 1998.94 -4.05202 -8.76577 0
M  V30 14553 H 1997.86 -3.97309 -4.15519 0
M  V30 14554 H 1999.62 -3.36869 -5.72318 0
M  V30 14555 H 2001.68 0.167718 -6.44882 0
M  V30 14556 P 2003.44 -1.25109 -8.70152 0
M  V30 14557 O 2004.84 -1.3516 -9.26897 0
M  V30 14558 O 2003.06 -2.18141 -7.59181 0
M  V30 14559 O 2003.11 0.248118 -8.21325 0
M  V30 14560 C 2002.95 1.22779 -9.30434 0
M  V30 14561 C 2003.49 2.56265 -8.80568 0
M  V30 14562 O 2002.44 3.02944 -8.09255 0
M  V30 14563 C 2004.71 2.57523 -7.89775 0
M  V30 14564 O 2005.45 3.7668 -7.89438 0
M  V30 14565 C 2004.04 2.20997 -6.55446 0
M  V30 14566 O 2004.84 2.71851 -5.48419 0
M  V30 14567 C 2002.71 2.89693 -6.67988 0
M  V30 14568 N 2001.66 2.08895 -6.07487 0
M  V30 14569 C 2000.63 2.72974 -5.43836 0
M  V30 14570 O 2000.67 3.97779 -5.34036 0
M  V30 14571 N 1999.62 2.0005 -4.91983 0
M  V30 14572 C 1999.66 0.66501 -5.00098 0
M  V30 14573 C 2000.76 -0.0100979 -5.61099 0
M  V30 14574 C 2001.73 0.74189 -6.14236 0
M  V30 14575 H 2002.74 3.8874 -6.19774 0
M  V30 14576 H 2003.92 1.12673 -6.44018 0
M  V30 14577 H 2005.41 1.783 -8.19631 0
M  V30 14578 H 2003.71 3.21673 -9.66791 0
M  V30 14579 H 2003.52 0.901032 -10.1892 0
M  V30 14580 H 2001.89 1.33036 -9.56493 0
M  V30 14581 H 2000.81 -1.09591 -5.64358 0
M  V30 14582 H 2002.57 0.260263 -6.6359 0
M  V30 14583 H 2004.63 3.62759 -5.33442 0
M  V30 14584 P 2006.39 3.65191 -7.99657 0
M  V30 14585 O 2007.81 3.89332 -8.45794 0
M  V30 14586 O 2006.03 2.28472 -7.50807 0
M  V30 14587 O 2006.06 4.64972 -6.77611 0
M  V30 14588 C 2005.9 6.06319 -7.16352 0
M  V30 14589 C 2006.44 6.91731 -6.02299 0
M  V30 14590 O 2005.39 6.92449 -5.17064 0
M  V30 14591 C 2007.66 6.43627 -5.25174 0
M  V30 14592 O 2008.4 7.43686 -4.60469 0
M  V30 14593 C 2006.99 5.40275 -4.31916 0
M  V30 14594 O 2007.79 5.25279 -3.14438 0
M  V30 14595 C 2005.66 6.04847 -4.05327 0
M  V30 14596 H 2005.69 6.62195 -3.11261 0
M  V30 14597 H 2006.87 4.42556 -4.81383 0
M  V30 14598 H 2008.36 5.92458 -5.93643 0
M  V30 14599 H 2006.66 7.92655 -6.402 0
M  V30 14600 H 2006.47 6.26671 -8.0846 0
M  V30 14601 H 2004.84 6.29101 -7.32804 0
M  V30 14602 H 2007.48 5.84315 -2.47318 0
M  V30 14603 P 2009.34 7.39546 -4.75277 0
M  V30 14604 O 2010.76 7.84798 -5.01039 0
M  V30 14605 O 2008.98 5.9812 -5.08098 0
M  V30 14606 O 2009.02 7.57503 -3.1866 0
M  V30 14607 C 2008.86 8.97357 -2.74833 0
M  V30 14608 C 2009.4 9.07548 -1.32709 0
M  V30 14609 O 2008.34 8.62072 -0.606159 0
M  V30 14610 C 2010.61 8.25383 -0.938334 0
M  V30 14611 O 2011.35 8.74577 0.146954 0
M  V30 14612 C 2009.94 6.8802 -0.712559 0
M  V30 14613 O 2010.74 6.1189 0.194655 0
M  V30 14614 C 2008.61 7.27966 -0.139777 0
M  V30 14615 H 2008.64 7.25354 0.961601 0
M  V30 14616 H 2009.82 6.32557 -1.65702 0
M  V30 14617 H 2011.31 8.19355 -1.79097 0
M  V30 14618 H 2009.61 10.1294 -1.10029 0
M  V30 14619 H 2009.42 9.64276 -3.41316 0
M  V30 14620 H 2007.79 9.25417 -2.76357 0
M  V30 14621 H 2010.43 6.25267 1.07847 0
M  V30 14622 P 2012.29 8.791 1.72314e-11 0
M  V30 14623 O 2013.71 9.31096 0.027933 0
M  V30 14624 O 2011.93 7.77869 -1.04071 0
M  V30 14625 O 2011.97 8.09533 1.41463 0
M  V30 14626 C 2011.81 9.0349 2.53943 0
M  V30 14627 C 2012.35 8.35226 3.79016 0
M  V30 14628 O 2011.29 7.57992 4.15078 0
M  V30 14629 C 2013.56 7.45087 3.67298 0
M  V30 14630 O 2014.3 7.27796 4.85194 0
M  V30 14631 C 2012.89 6.17323 3.12027 0
M  V30 14632 O 2013.69 5.04231 3.47188 0
M  V30 14633 C 2011.56 6.19961 3.81809 0
M  V30 14634 H 2011.59 5.58218 4.73051 0
M  V30 14635 H 2012.77 6.21726 2.02589 0
M  V30 14636 H 2014.26 7.86112 2.9231 0
M  V30 14637 H 2012.56 9.11627 4.55076 0
M  V30 14638 H 2012.37 9.9573 2.34194 0
M  V30 14639 H 2010.74 9.2792 2.67832 0
M  V30 14640 H 2013.38 4.67702 4.28772 0
M  V30 14641 P 2015.24 7.39546 4.75277 0
M  V30 14642 O 2016.66 7.81777 5.05738 0
M  V30 14643 O 2014.88 7.1065 3.32998 0
M  V30 14644 O 2014.92 6.04542 5.56673 0
M  V30 14645 C 2014.76 6.22772 7.02095 0
M  V30 14646 C 2015.3 4.97725 7.70406 0
M  V30 14647 O 2014.24 4.13256 7.58987 0
M  V30 14648 C 2016.51 4.28231 7.11815 0
M  V30 14649 O 2017.25 3.49945 8.01648 0
M  V30 14650 C 2015.85 3.5063 5.96244 0
M  V30 14651 O 2016.64 2.36482 5.64681 0
M  V30 14652 C 2014.51 3.15122 6.56374 0
M  V30 14653 H 2014.54 2.13853 6.99751 0
M  V30 14654 H 2015.72 4.13501 5.06559 0
M  V30 14655 H 2017.21 5.03285 6.70911 0
M  V30 14656 H 2015.51 5.20877 8.75697 0
M  V30 14657 H 2015.32 7.11046 7.35349 0
M  V30 14658 H 2013.69 6.35815 7.26986 0
M  V30 14659 H 2016.33 1.61644 6.13565 0
M  V30 14660 P 2018.19 3.65191 7.99657 0
M  V30 14661 O 2019.61 3.8425 8.48115 0
M  V30 14662 O 2017.83 4.17805 6.64342 0
M  V30 14663 O 2017.87 2.07613 7.95143 0
M  V30 14664 C 2017.71 1.44328 9.27336 0
M  V30 14665 C 2018.25 0.0220036 9.17197 0
M  V30 14666 O 2017.19 -0.626867 8.61923 0
M  V30 14667 C 2019.46 -0.24586 8.30336 0
M  V30 14668 O 2020.2 -1.39011 8.63583 0
M  V30 14669 C 2018.8 -0.273849 6.91158 0
M  V30 14670 O 2019.59 -1.06348 6.02892 0
M  V30 14671 C 2017.46 -0.897649 7.22545 0
M  V30 14672 H 2017.49 -1.9841 7.04286 0
M  V30 14673 H 2018.67 0.739928 6.497 0
M  V30 14674 H 2020.16 0.60668 8.36503 0
M  V30 14675 H 2018.46 -0.352479 10.1829 0
M  V30 14676 H 2018.27 2.00611 10.0304 0
M  V30 14677 H 2016.64 1.41843 9.55327 0
M  V30 14678 H 2019.28 -1.95734 6.03555 0
M  V30 14679 P 2021.14 -1.25109 8.70152 0
M  V30 14680 O 2022.56 -1.35274 9.21221 0
M  V30 14681 O 2020.78 -0.0769065 7.84762 0
M  V30 14682 O 2020.82 -2.55232 7.81161 0
M  V30 14683 C 2020.66 -3.79939 8.58154 0
M  V30 14684 C 2021.2 -4.94023 7.72785 0
M  V30 14685 O 2020.14 -5.18726 6.91205 0
M  V30 14686 C 2022.42 -4.69597 6.85231 0
M  V30 14687 O 2023.15 -5.83832 6.51337 0
M  V30 14688 C 2021.75 -3.96706 5.66633 0
M  V30 14689 O 2022.55 -4.15414 4.49689 0
M  V30 14690 C 2020.41 -4.66153 5.59313 0
M  V30 14691 H 2020.44 -5.47679 4.85214 0
M  V30 14692 H 2021.62 -2.89008 5.86566 0
M  V30 14693 H 2023.11 -4.0121 7.36511 0
M  V30 14694 H 2021.41 -5.80182 8.37584 0
M  V30 14695 H 2021.22 -3.73517 9.52265 0
M  V30 14696 H 2019.59 -3.97163 8.80359 0
M  V30 14697 H 2022.23 -4.90969 4.01921 0
M  V30 14698 P 2024.09 -5.75688 6.64379 0
M  V30 14699 O 2025.51 -6.11849 7.01846 0
M  V30 14700 O 2023.73 -4.30744 6.56026 0
M  V30 14701 O 2023.77 -6.37042 5.19165 0
M  V30 14702 C 2023.61 -7.83578 5.16515 0
M  V30 14703 C 2024.15 -8.33398 3.83019 0
M  V30 14704 O 2023.09 -8.10074 3.01034 0
M  V30 14705 C 2025.37 -7.65514 3.2257 0
M  V30 14706 O 2026.1 -8.4329 2.32297 0
M  V30 14707 C 2024.7 -6.40075 2.62207 0
M  V30 14708 O 2025.5 -5.92589 1.53712 0
M  V30 14709 C 2023.36 -6.9454 2.18503 0
M  V30 14710 H 2023.39 -7.23063 1.12091 0
M  V30 14711 H 2024.58 -5.6025 3.37201 0
M  V30 14712 H 2026.06 -7.35707 4.02681 0
M  V30 14713 H 2024.37 -9.40912 3.9095 0
M  V30 14714 H 2024.18 -8.29056 5.99158 0
M  V30 14715 H 2022.55 -8.10073 5.25882 0
M  V30 14716 H 2025.18 -6.30324 0.726794 0
M  V30 14717 P 2027.04 -8.4349 2.47671 0
M  V30 14718 O 2028.46 -8.94167 2.5964 0
M  V30 14719 O 2026.68 -7.1704 3.19006 0
M  V30 14720 O 2026.72 -8.16596 0.923387 0
M  V30 14721 C 2026.56 -9.38437 0.108857 0
M  V30 14722 C 2027.1 -9.08175 -1.28353 0
M  V30 14723 O 2026.04 -8.44229 -1.84713 0
M  V30 14724 C 2028.32 -8.18386 -1.42505 0
M  V30 14725 O 2029.05 -8.3501 -2.60497 0
M  V30 14726 C 2027.65 -6.80225 -1.25468 0
M  V30 14727 O 2028.45 -5.81621 -1.91066 0
M  V30 14728 C 2026.31 -7.02416 -1.9168 0
M  V30 14729 H 2026.34 -6.6888 -2.96621 0
M  V30 14730 H 2027.53 -6.53617 -0.192223 0
M  V30 14731 H 2029.01 -8.36622 -0.589963 0
M  V30 14732 H 2027.32 -10.0291 -1.79807 0
M  V30 14733 H 2027.13 -10.2138 0.558219 0
M  V30 14734 H 2025.5 -9.6579 0.0444202 0
M  V30 14735 H 2028.13 -5.69556 -2.79637 0
M  V30 14736 P 2029.99 -8.4349 -2.47671 0
M  V30 14737 O 2031.41 -8.92593 -2.65 0
M  V30 14738 O 2029.63 -7.7568 -1.19296 0
M  V30 14739 O 2029.67 -7.36886 -3.63805 0
M  V30 14740 C 2029.51 -7.95349 -4.982 0
M  V30 14741 C 2030.05 -6.94612 -5.98974 0
M  V30 14742 O 2028.99 -6.10347 -6.11815 0
M  V30 14743 C 2031.27 -6.11426 -5.62335 0
M  V30 14744 O 2032.01 -5.6162 -6.70584 0
M  V30 14745 C 2030.6 -5.04409 -4.73308 0
M  V30 14746 O 2031.4 -3.85992 -4.75183 0
M  V30 14747 C 2029.26 -4.8728 -5.41006 0
M  V30 14748 H 2029.29 -4.02333 -6.11157 0
M  V30 14749 H 2030.48 -5.39466 -3.69543 0
M  V30 14750 H 2031.96 -6.71916 -5.01943 0
M  V30 14751 H 2030.27 -7.4649 -6.93477 0
M  V30 14752 H 2030.08 -8.89416 -5.05237 0
M  V30 14753 H 2028.45 -8.14876 -5.18409 0
M  V30 14754 H 2031.09 -3.27957 -5.4317 0
M  V30 14755 P 2032.94 -5.75688 -6.64379 0
M  V30 14756 O 2034.36 -6.07627 -7.05504 0
M  V30 14757 O 2032.58 -5.88047 -5.19722 0
M  V30 14758 O 2032.62 -4.2322 -7.04443 0
M  V30 14759 C 2032.46 -3.99743 -8.4911 0
M  V30 14760 C 2033 -2.60516 -8.79425 0
M  V30 14761 O 2031.94 -1.82684 -8.4467 0
M  V30 14762 C 2034.22 -2.10343 -8.03628 0
M  V30 14763 O 2034.96 -1.09919 -8.67766 0
M  V30 14764 C 2033.55 -1.68446 -6.70876 0
M  V30 14765 O 2034.35 -0.678137 -6.08433 0
M  V30 14766 C 2032.21 -1.17436 -7.18567 0
M  V30 14767 H 2032.24 -0.0804732 -7.31656 0
M  V30 14768 H 2033.43 -2.54037 -6.02537 0
M  V30 14769 H 2034.91 -2.93881 -7.85526 0
M  V30 14770 H 2033.22 -2.53065 -9.86973 0
M  V30 14771 H 2033.03 -4.75072 -9.05887 0
M  V30 14772 H 2031.4 -4.05244 -8.76668 0
M  V30 14773 H 2034.04 0.177647 -6.34251 0
M  V30 14774 P 2035.89 -1.25109 -8.70152 0
M  V30 14775 O 2037.31 -1.29758 -9.22115 0
M  V30 14776 O 2035.53 -2.13714 -7.55141 0
M  V30 14777 O 2035.57 0.248149 -8.21425 0
M  V30 14778 C 2035.41 1.22792 -9.30533 0
M  V30 14779 C 2035.95 2.56293 -8.80664 0
M  V30 14780 O 2034.9 3.02944 -8.09255 0
M  V30 14781 C 2037.17 2.57523 -7.89775 0
M  V30 14782 O 2037.91 3.7668 -7.89438 0
M  V30 14783 C 2036.5 2.20997 -6.55446 0
M  V30 14784 O 2037.3 2.71302 -5.48691 0
M  V30 14785 C 2035.16 2.89693 -6.67988 0
M  V30 14786 N 2034.12 2.08895 -6.07487 0
M  V30 14787 C 2034.29 0.753809 -5.94137 0
M  V30 14788 N 2033.26 0.146592 -5.38801 0
M  V30 14789 C 2032.38 1.1768 -5.13693 0
M  V30 14790 C 2031.11 1.17563 -4.52477 0
M  V30 14791 N 2030.54 2.41918 -4.45789 0
M  V30 14792 C 2031.15 3.56493 -4.90792 0
M  V30 14793 N 2032.32 3.61423 -5.47817 0
M  V30 14794 C 2032.9 2.37779 -5.5588 0
M  V30 14795 H 2036.38 1.12673 -6.44018 0
M  V30 14796 H 2037.86 1.7746 -8.19711 0
M  V30 14797 H 2036.17 3.21673 -9.66791 0
M  V30 14798 H 2035.98 0.901032 -10.1892 0
M  V30 14799 H 2034.35 1.33049 -9.56592 0
M  V30 14800 H 2035.19 0.233081 -6.26266 0
M  V30 14801 H 2036.99 3.5779 -5.23879 0
M  V30 14802 P 2038.84 3.65191 -7.99657 0
M  V30 14803 O 2040.27 3.89332 -8.45794 0
M  V30 14804 O 2038.48 2.28472 -7.50807 0
M  V30 14805 O 2038.52 4.64972 -6.77611 0
M  V30 14806 C 2038.36 6.06319 -7.16352 0
M  V30 14807 C 2038.9 6.91731 -6.02299 0
M  V30 14808 O 2037.84 6.92449 -5.17064 0
M  V30 14809 C 2040.12 6.43627 -5.25174 0
M  V30 14810 O 2040.86 7.43686 -4.60469 0
M  V30 14811 C 2039.45 5.40275 -4.31916 0
M  V30 14812 O 2040.25 5.25279 -3.14438 0
M  V30 14813 C 2038.11 6.04847 -4.05327 0
M  V30 14814 H 2038.14 6.62195 -3.11261 0
M  V30 14815 H 2039.33 4.42556 -4.81383 0
M  V30 14816 H 2040.81 5.92458 -5.93643 0
M  V30 14817 H 2039.12 7.92655 -6.402 0
M  V30 14818 H 2038.93 6.26671 -8.0846 0
M  V30 14819 H 2037.3 6.29101 -7.32804 0
M  V30 14820 H 2039.94 5.84315 -2.47318 0
M  V30 14821 P 2041.79 7.39546 -4.75277 0
M  V30 14822 O 2043.22 7.84798 -5.01039 0
M  V30 14823 O 2041.43 5.9812 -5.08098 0
M  V30 14824 O 2041.47 7.57503 -3.1866 0
M  V30 14825 C 2041.31 8.97357 -2.74833 0
M  V30 14826 C 2041.85 9.07548 -1.32709 0
M  V30 14827 O 2040.8 8.62072 -0.606159 0
M  V30 14828 C 2043.07 8.25383 -0.938334 0
M  V30 14829 O 2043.81 8.74577 0.146954 0
M  V30 14830 C 2042.4 6.8802 -0.712559 0
M  V30 14831 O 2043.2 6.1189 0.194655 0
M  V30 14832 C 2041.06 7.27966 -0.139777 0
M  V30 14833 H 2041.1 7.25354 0.961601 0
M  V30 14834 H 2042.28 6.32557 -1.65702 0
M  V30 14835 H 2043.76 8.19355 -1.79097 0
M  V30 14836 H 2042.07 10.1294 -1.10029 0
M  V30 14837 H 2041.88 9.64276 -3.41316 0
M  V30 14838 H 2040.25 9.25417 -2.76357 0
M  V30 14839 H 2042.89 6.25267 1.07847 0
M  V30 14840 P 2044.75 8.791 1.75416e-11 0
M  V30 14841 O 2046.17 9.31096 0.027933 0
M  V30 14842 O 2044.39 7.77869 -1.04071 0
M  V30 14843 O 2044.42 8.09533 1.41463 0
M  V30 14844 C 2044.26 9.0349 2.53943 0
M  V30 14845 C 2044.8 8.35226 3.79016 0
M  V30 14846 O 2043.75 7.57992 4.15078 0
M  V30 14847 C 2046.02 7.45087 3.67298 0
M  V30 14848 O 2046.76 7.27796 4.85194 0
M  V30 14849 C 2045.35 6.17323 3.12027 0
M  V30 14850 O 2046.15 5.04231 3.47188 0
M  V30 14851 C 2044.01 6.19961 3.81809 0
M  V30 14852 H 2044.05 5.58218 4.73051 0
M  V30 14853 H 2045.23 6.21726 2.02589 0
M  V30 14854 H 2046.71 7.86112 2.9231 0
M  V30 14855 H 2045.02 9.11627 4.55076 0
M  V30 14856 H 2044.83 9.9573 2.34194 0
M  V30 14857 H 2043.2 9.2792 2.67832 0
M  V30 14858 H 2045.84 4.67702 4.28772 0
M  V30 14859 P 2047.7 7.39546 4.75277 0
M  V30 14860 O 2049.12 7.81777 5.05738 0
M  V30 14861 O 2047.34 7.1065 3.32998 0
M  V30 14862 O 2047.37 6.04542 5.56673 0
M  V30 14863 C 2047.21 6.22772 7.02095 0
M  V30 14864 C 2047.75 4.97725 7.70406 0
M  V30 14865 O 2046.7 4.13256 7.58987 0
M  V30 14866 C 2048.97 4.28231 7.11815 0
M  V30 14867 O 2049.71 3.49945 8.01648 0
M  V30 14868 C 2048.3 3.5063 5.96244 0
M  V30 14869 O 2049.1 2.36482 5.64681 0
M  V30 14870 C 2046.96 3.15122 6.56374 0
M  V30 14871 H 2047 2.13853 6.99751 0
M  V30 14872 H 2048.18 4.13501 5.06559 0
M  V30 14873 H 2049.66 5.03285 6.70911 0
M  V30 14874 H 2047.97 5.20877 8.75697 0
M  V30 14875 H 2047.78 7.11046 7.35349 0
M  V30 14876 H 2046.15 6.35815 7.26986 0
M  V30 14877 H 2048.79 1.61644 6.13565 0
M  V30 14878 P 2050.65 3.65191 7.99657 0
M  V30 14879 O 2052.07 3.8425 8.48115 0
M  V30 14880 O 2050.29 4.17805 6.64342 0
M  V30 14881 O 2050.32 2.07613 7.95143 0
M  V30 14882 C 2050.16 1.44328 9.27336 0
M  V30 14883 C 2050.7 0.0220036 9.17197 0
M  V30 14884 O 2049.65 -0.626867 8.61923 0
M  V30 14885 C 2051.92 -0.24586 8.30336 0
M  V30 14886 O 2052.66 -1.39011 8.63583 0
M  V30 14887 C 2051.25 -0.273849 6.91158 0
M  V30 14888 O 2052.05 -1.06348 6.02892 0
M  V30 14889 C 2049.92 -0.897649 7.22545 0
M  V30 14890 H 2049.95 -1.9841 7.04286 0
M  V30 14891 H 2051.13 0.739928 6.497 0
M  V30 14892 H 2052.61 0.60668 8.36503 0
M  V30 14893 H 2050.92 -0.352479 10.1829 0
M  V30 14894 H 2050.73 2.00611 10.0304 0
M  V30 14895 H 2049.1 1.41843 9.55327 0
M  V30 14896 H 2051.74 -1.95734 6.03555 0
M  V30 14897 P 2053.6 -1.25109 8.70152 0
M  V30 14898 O 2055.02 -1.35303 9.21419 0
M  V30 14899 O 2053.24 -0.0769065 7.84762 0
M  V30 14900 O 2053.27 -2.55232 7.81161 0
M  V30 14901 C 2053.11 -3.79939 8.58154 0
M  V30 14902 C 2053.65 -4.93969 7.72701 0
M  V30 14903 O 2052.6 -5.18726 6.91205 0
M  V30 14904 C 2054.87 -4.69597 6.85231 0
M  V30 14905 O 2055.61 -5.83832 6.51337 0
M  V30 14906 C 2054.2 -3.96706 5.66633 0
M  V30 14907 O 2055 -4.15346 4.49615 0
M  V30 14908 C 2052.87 -4.66153 5.59313 0
M  V30 14909 N 2051.82 -3.71582 5.24027 0
M  V30 14910 C 2051.88 -2.46018 5.67902 0
M  V30 14911 N 2050.84 -1.74868 5.24518 0
M  V30 14912 C 2050.11 -2.61333 4.54528 0
M  V30 14913 C 2048.8 -2.46162 3.95441 0
M  V30 14914 O 2048.07 -1.46013 3.94122 0
M  V30 14915 N 2048.37 -3.59334 3.34752 0
M  V30 14916 C 2049.12 -4.79605 3.3023 0
M  V30 14917 N 2048.52 -5.82109 2.6065 0
M  V30 14918 N 2050.27 -4.97402 3.8843 0
M  V30 14919 C 2050.73 -3.86258 4.50476 0
M  V30 14920 H 2052.9 -5.47679 4.85214 0
M  V30 14921 H 2054.08 -2.88964 5.86476 0
M  V30 14922 H 2055.57 -4.01947 7.36109 0
M  V30 14923 H 2053.87 -5.80182 8.37584 0
M  V30 14924 H 2053.68 -3.73517 9.52265 0
M  V30 14925 H 2052.05 -3.97163 8.80359 0
M  V30 14926 H 2047.47 -3.5825 2.90294 0
M  V30 14927 H 2052.68 -2.06161 6.30974 0
M  V30 14928 H 2047.61 -5.66979 2.15354 0
M  V30 14929 H 2048.99 -6.73686 2.54344 0
M  V30 14930 H 2054.69 -4.90891 4.01857 0
M  V30 14931 P 2056.55 -5.75688 6.64379 0
M  V30 14932 O 2057.97 -6.11849 7.01846 0
M  V30 14933 O 2056.19 -4.30744 6.56026 0
M  V30 14934 O 2056.22 -6.37042 5.19165 0
M  V30 14935 C 2056.06 -7.83578 5.16515 0
M  V30 14936 C 2056.6 -8.33398 3.83019 0
M  V30 14937 O 2055.55 -8.10074 3.01034 0
M  V30 14938 C 2057.82 -7.65514 3.2257 0
M  V30 14939 O 2058.56 -8.4329 2.32297 0
M  V30 14940 C 2057.15 -6.40075 2.62207 0
M  V30 14941 O 2057.95 -5.92589 1.53712 0
M  V30 14942 C 2055.82 -6.9454 2.18503 0
M  V30 14943 H 2055.85 -7.23063 1.12091 0
M  V30 14944 H 2057.03 -5.6025 3.37201 0
M  V30 14945 H 2058.52 -7.35707 4.02681 0
M  V30 14946 H 2056.82 -9.40912 3.9095 0
M  V30 14947 H 2056.63 -8.29056 5.99158 0
M  V30 14948 H 2055 -8.10073 5.25882 0
M  V30 14949 H 2057.64 -6.30324 0.726794 0
M  V30 14950 P 2059.5 -8.4349 2.47671 0
M  V30 14951 O 2060.92 -8.94167 2.5964 0
M  V30 14952 O 2059.14 -7.1704 3.19006 0
M  V30 14953 O 2059.17 -8.16596 0.923387 0
M  V30 14954 C 2059.01 -9.38437 0.108857 0
M  V30 14955 C 2059.55 -9.08175 -1.28353 0
M  V30 14956 O 2058.5 -8.44229 -1.84713 0
M  V30 14957 C 2060.77 -8.18386 -1.42505 0
M  V30 14958 O 2061.51 -8.3501 -2.60497 0
M  V30 14959 C 2060.1 -6.80225 -1.25468 0
M  V30 14960 O 2060.9 -5.81621 -1.91066 0
M  V30 14961 C 2058.77 -7.02416 -1.9168 0
M  V30 14962 H 2058.8 -6.6888 -2.96621 0
M  V30 14963 H 2059.98 -6.53617 -0.192223 0
M  V30 14964 H 2061.47 -8.36622 -0.589963 0
M  V30 14965 H 2059.77 -10.0291 -1.79807 0
M  V30 14966 H 2059.58 -10.2138 0.558219 0
M  V30 14967 H 2057.95 -9.6579 0.0444202 0
M  V30 14968 H 2060.59 -5.69556 -2.79637 0
M  V30 14969 P 2062.45 -8.4349 -2.47671 0
M  V30 14970 O 2063.87 -8.92593 -2.65 0
M  V30 14971 O 2062.09 -7.7568 -1.19296 0
M  V30 14972 O 2062.13 -7.36886 -3.63805 0
M  V30 14973 C 2061.97 -7.95349 -4.982 0
M  V30 14974 C 2062.51 -6.94612 -5.98974 0
M  V30 14975 O 2061.45 -6.10347 -6.11815 0
M  V30 14976 C 2063.72 -6.11426 -5.62335 0
M  V30 14977 O 2064.46 -5.6162 -6.70584 0
M  V30 14978 C 2063.05 -5.04409 -4.73308 0
M  V30 14979 O 2063.85 -3.85992 -4.75183 0
M  V30 14980 C 2061.72 -4.8728 -5.41006 0
M  V30 14981 H 2061.75 -4.02333 -6.11157 0
M  V30 14982 H 2062.93 -5.39466 -3.69543 0
M  V30 14983 H 2064.42 -6.71916 -5.01943 0
M  V30 14984 H 2062.72 -7.4649 -6.93477 0
M  V30 14985 H 2062.53 -8.89416 -5.05237 0
M  V30 14986 H 2060.9 -8.14876 -5.18409 0
M  V30 14987 H 2063.54 -3.27957 -5.4317 0
M  V30 14988 P 2065.4 -5.75688 -6.64379 0
M  V30 14989 O 2066.8 -6.14823 -7.06682 0
M  V30 14990 O 2065.02 -5.93957 -5.20728 0
M  V30 14991 O 2065.08 -4.23169 -7.04357 0
M  V30 14992 C 2064.92 -3.99743 -8.4911 0
M  V30 14993 C 2065.46 -2.60487 -8.79329 0
M  V30 14994 O 2064.4 -1.82663 -8.44573 0
M  V30 14995 C 2066.67 -2.10343 -8.03628 0
M  V30 14996 O 2067.41 -1.09919 -8.67766 0
M  V30 14997 C 2066.01 -1.68446 -6.70876 0
M  V30 14998 O 2066.8 -0.678026 -6.08333 0
M  V30 14999 C 2064.67 -1.17436 -7.18567 0
M  V30 15000 N 2063.62 -1.52699 -6.23988 0
M  V30 15001 C 2062.59 -0.643793 -6.05085 0
M  V30 15002 O 2062.63 0.459118 -6.64315 0
M  V30 15003 N 2061.58 -0.976931 -5.22038 0
M  V30 15004 C 2061.63 -2.14429 -4.56662 0
M  V30 15005 C 2062.72 -3.04203 -4.71481 0
M  V30 15006 C 2063.69 -2.69669 -5.56838 0
M  V30 15007 H 2064.7 -0.0804622 -7.31556 0
M  V30 15008 H 2065.88 -2.53396 -6.02698 0
M  V30 15009 H 2067.37 -2.9313 -7.85914 0
M  V30 15010 H 2065.67 -2.52078 -9.87225 0
M  V30 15011 H 2065.48 -4.75072 -9.05887 0
M  V30 15012 H 2063.85 -4.05202 -8.76577 0
M  V30 15013 H 2062.77 -3.97309 -4.15519 0
M  V30 15014 H 2064.53 -3.36869 -5.72318 0
M  V30 15015 H 2066.59 0.167718 -6.44882 0
M  V30 15016 P 2068.35 -1.25109 -8.70152 0
M  V30 15017 O 2069.77 -1.29758 -9.22115 0
M  V30 15018 O 2067.99 -2.13714 -7.55141 0
M  V30 15019 O 2068.03 0.248149 -8.21425 0
M  V30 15020 C 2067.87 1.22792 -9.30533 0
M  V30 15021 C 2068.41 2.56293 -8.80664 0
M  V30 15022 O 2067.35 3.02944 -8.09255 0
M  V30 15023 C 2069.62 2.57523 -7.89775 0
M  V30 15024 O 2070.36 3.7668 -7.89438 0
M  V30 15025 C 2068.96 2.20997 -6.55446 0
M  V30 15026 O 2069.75 2.71302 -5.48691 0
M  V30 15027 C 2067.62 2.89693 -6.67988 0
M  V30 15028 N 2066.58 2.08895 -6.07487 0
M  V30 15029 C 2066.74 0.753809 -5.94137 0
M  V30 15030 N 2065.72 0.146592 -5.38801 0
M  V30 15031 C 2064.83 1.1768 -5.13693 0
M  V30 15032 C 2063.57 1.17563 -4.52477 0
M  V30 15033 N 2063 2.41918 -4.45789 0
M  V30 15034 C 2063.6 3.56493 -4.90792 0
M  V30 15035 N 2064.78 3.61423 -5.47817 0
M  V30 15036 C 2065.35 2.37779 -5.5588 0
M  V30 15037 H 2068.83 1.12673 -6.44018 0
M  V30 15038 H 2070.32 1.7746 -8.19711 0
M  V30 15039 H 2068.62 3.21673 -9.66791 0
M  V30 15040 H 2068.43 0.901032 -10.1892 0
M  V30 15041 H 2066.8 1.33049 -9.56592 0
M  V30 15042 H 2067.64 0.233081 -6.26266 0
M  V30 15043 H 2069.44 3.5779 -5.23879 0
M  V30 15044 P 2071.3 3.65191 -7.99657 0
M  V30 15045 O 2072.72 3.89416 -8.45976 0
M  V30 15046 O 2070.94 2.28472 -7.50807 0
M  V30 15047 O 2070.98 4.64972 -6.77611 0
M  V30 15048 C 2070.82 6.06319 -7.16352 0
M  V30 15049 C 2071.36 6.91655 -6.02234 0
M  V30 15050 O 2070.3 6.92449 -5.17064 0
M  V30 15051 C 2072.58 6.43627 -5.25174 0
M  V30 15052 O 2073.31 7.43686 -4.60469 0
M  V30 15053 C 2071.91 5.40275 -4.31916 0
M  V30 15054 O 2072.71 5.25193 -3.14386 0
M  V30 15055 C 2070.57 6.04847 -4.05327 0
M  V30 15056 N 2069.53 5.04166 -3.98114 0
M  V30 15057 C 2069.59 3.96049 -4.75587 0
M  V30 15058 N 2068.54 3.15559 -4.54006 0
M  V30 15059 C 2067.81 3.78802 -3.62491 0
M  V30 15060 C 2066.5 3.476 -3.10071 0
M  V30 15061 O 2065.77 2.51136 -3.37021 0
M  V30 15062 N 2066.07 4.39088 -2.19956 0
M  V30 15063 C 2066.82 5.53215 -1.81733 0
M  V30 15064 N 2066.23 6.31963 -0.860928 0
M  V30 15065 N 2067.98 5.86688 -2.32562 0
M  V30 15066 C 2068.43 4.97525 -3.23407 0
M  V30 15067 H 2070.6 6.62195 -3.11261 0
M  V30 15068 H 2071.78 4.42488 -4.8131 0
M  V30 15069 H 2073.27 5.93051 -5.9305 0
M  V30 15070 H 2071.57 7.92655 -6.402 0
M  V30 15071 H 2071.38 6.26671 -8.0846 0
M  V30 15072 H 2069.75 6.29101 -7.32804 0
M  V30 15073 H 2065.18 4.25523 -1.77604 0
M  V30 15074 H 2070.38 3.75576 -5.47333 0
M  V30 15075 H 2065.31 6.04684 -0.468946 0
M  V30 15076 H 2066.69 7.18054 -0.542422 0
M  V30 15077 H 2072.39 5.84223 -2.47279 0
M  V30 15078 P 2074.25 7.39546 -4.75277 0
M  V30 15079 O 2075.67 7.84798 -5.01039 0
M  V30 15080 O 2073.89 5.9812 -5.08098 0
M  V30 15081 O 2073.93 7.57503 -3.1866 0
M  V30 15082 C 2073.77 8.97357 -2.74833 0
M  V30 15083 C 2074.31 9.07548 -1.32709 0
M  V30 15084 O 2073.25 8.62072 -0.606159 0
M  V30 15085 C 2075.53 8.25383 -0.938334 0
M  V30 15086 O 2076.26 8.74577 0.146954 0
M  V30 15087 C 2074.86 6.8802 -0.712559 0
M  V30 15088 O 2075.66 6.1189 0.194655 0
M  V30 15089 C 2073.52 7.27966 -0.139777 0
M  V30 15090 H 2073.55 7.25354 0.961601 0
M  V30 15091 H 2074.73 6.32557 -1.65702 0
M  V30 15092 H 2076.22 8.19355 -1.79097 0
M  V30 15093 H 2074.52 10.1294 -1.10029 0
M  V30 15094 H 2074.33 9.64276 -3.41316 0
M  V30 15095 H 2072.7 9.25417 -2.76357 0
M  V30 15096 H 2075.34 6.25267 1.07847 0
M  V30 15097 P 2077.2 8.791 1.78518e-11 0
M  V30 15098 O 2078.62 9.31096 0.027933 0
M  V30 15099 O 2076.84 7.77869 -1.04071 0
M  V30 15100 O 2076.88 8.09533 1.41463 0
M  V30 15101 C 2076.72 9.0349 2.53943 0
M  V30 15102 C 2077.26 8.35226 3.79016 0
M  V30 15103 O 2076.2 7.57992 4.15078 0
M  V30 15104 C 2078.48 7.45087 3.67298 0
M  V30 15105 O 2079.21 7.27796 4.85194 0
M  V30 15106 C 2077.81 6.17323 3.12027 0
M  V30 15107 O 2078.61 5.04231 3.47188 0
M  V30 15108 C 2076.47 6.19961 3.81809 0
M  V30 15109 H 2076.5 5.58218 4.73051 0
M  V30 15110 H 2077.69 6.21726 2.02589 0
M  V30 15111 H 2079.17 7.86112 2.9231 0
M  V30 15112 H 2077.48 9.11627 4.55076 0
M  V30 15113 H 2077.29 9.9573 2.34194 0
M  V30 15114 H 2075.66 9.2792 2.67832 0
M  V30 15115 H 2078.29 4.67702 4.28772 0
M  V30 15116 P 2080.15 7.39546 4.75277 0
M  V30 15117 O 2081.57 7.81945 5.05847 0
M  V30 15118 O 2079.79 7.1065 3.32998 0
M  V30 15119 O 2079.83 6.04542 5.56673 0
M  V30 15120 C 2079.67 6.22772 7.02095 0
M  V30 15121 C 2080.21 4.97671 7.70322 0
M  V30 15122 O 2079.15 4.13256 7.58987 0
M  V30 15123 C 2081.43 4.28231 7.11815 0
M  V30 15124 O 2082.16 3.49945 8.01648 0
M  V30 15125 C 2080.76 3.5063 5.96244 0
M  V30 15126 O 2081.56 2.36443 5.64589 0
M  V30 15127 C 2079.42 3.15122 6.56374 0
M  V30 15128 N 2078.38 3.22311 5.55692 0
M  V30 15129 C 2078.44 4.14382 4.59701 0
M  V30 15130 N 2077.39 4.04476 3.76958 0
M  V30 15131 C 2076.66 3.04892 4.26534 0
M  V30 15132 C 2075.35 2.57447 3.88189 0
M  V30 15133 O 2074.62 2.9785 2.96543 0
M  V30 15134 N 2074.92 1.55228 4.65922 0
M  V30 15135 C 2075.67 1.01152 5.73447 0
M  V30 15136 N 2075.08 -0.0472117 6.37783 0
M  V30 15137 N 2076.83 1.467 6.13813 0
M  V30 15138 C 2077.28 2.4931 5.38487 0
M  V30 15139 H 2079.45 2.13853 6.99751 0
M  V30 15140 H 2080.64 4.13438 5.06482 0
M  V30 15141 H 2082.12 5.02614 6.71414 0
M  V30 15142 H 2080.43 5.20877 8.75697 0
M  V30 15143 H 2080.24 7.11046 7.35349 0
M  V30 15144 H 2078.6 6.35815 7.26986 0
M  V30 15145 H 2074.03 1.15238 4.46468 0
M  V30 15146 H 2079.24 4.88312 4.49647 0
M  V30 15147 H 2074.17 -0.396382 6.05203 0
M  V30 15148 H 2075.54 -0.484997 7.18465 0
M  V30 15149 H 2081.25 1.61619 6.13468 0
M  V30 15150 P 2083.1 3.65191 7.99657 0
M  V30 15151 O 2084.52 3.84333 8.48297 0
M  V30 15152 O 2082.74 4.17805 6.64342 0
M  V30 15153 O 2082.78 2.07613 7.95143 0
M  V30 15154 C 2082.62 1.44328 9.27336 0
M  V30 15155 C 2083.16 0.0220012 9.17097 0
M  V30 15156 O 2082.1 -0.626867 8.61923 0
M  V30 15157 C 2084.38 -0.24586 8.30336 0
M  V30 15158 O 2085.12 -1.39011 8.63583 0
M  V30 15159 C 2083.71 -0.273849 6.91158 0
M  V30 15160 O 2084.51 -1.06331 6.02794 0
M  V30 15161 C 2082.37 -0.897649 7.22545 0
M  V30 15162 N 2081.33 -0.292839 6.41732 0
M  V30 15163 C 2081.39 1.00068 6.10757 0
M  V30 15164 N 2080.35 1.36468 5.35794 0
M  V30 15165 C 2079.61 0.258894 5.2366 0
M  V30 15166 C 2078.31 0.0670682 4.65752 0
M  V30 15167 O 2077.57 0.902443 4.10497 0
M  V30 15168 N 2077.88 -1.2131 4.75881 0
M  V30 15169 C 2078.62 -2.24934 5.37101 0
M  V30 15170 N 2078.03 -3.48783 5.33984 0
M  V30 15171 N 2079.78 -2.0844 5.95684 0
M  V30 15172 C 2080.23 -0.81395 5.87791 0
M  V30 15173 H 2082.4 -1.9841 7.04286 0
M  V30 15174 H 2083.59 0.739815 6.49601 0
M  V30 15175 H 2085.07 0.598315 8.36563 0
M  V30 15176 H 2083.38 -0.352479 10.1829 0
M  V30 15177 H 2083.19 2.00611 10.0304 0
M  V30 15178 H 2081.56 1.41843 9.55327 0
M  V30 15179 H 2076.98 -1.44434 4.37895 0
M  V30 15180 H 2082.19 1.67697 6.42268 0
M  V30 15181 H 2077.12 -3.60543 4.87699 0
M  V30 15182 H 2078.49 -4.29232 5.7819 0
M  V30 15183 H 2084.2 -1.95704 6.0346 0
M  V30 15184 P 2086.05 -1.25109 8.70152 0
M  V30 15185 O 2087.47 -1.35274 9.21221 0
M  V30 15186 O 2085.69 -0.0769065 7.84762 0
M  V30 15187 O 2085.73 -2.55232 7.81161 0
M  V30 15188 C 2085.57 -3.79939 8.58154 0
M  V30 15189 C 2086.11 -4.94023 7.72785 0
M  V30 15190 O 2085.05 -5.18726 6.91205 0
M  V30 15191 C 2087.33 -4.69597 6.85231 0
M  V30 15192 O 2088.07 -5.83832 6.51337 0
M  V30 15193 C 2086.66 -3.96706 5.66633 0
M  V30 15194 O 2087.46 -4.15414 4.49689 0
M  V30 15195 C 2085.32 -4.66153 5.59313 0
M  V30 15196 H 2085.35 -5.47679 4.85214 0
M  V30 15197 H 2086.54 -2.89008 5.86566 0
M  V30 15198 H 2088.02 -4.0121 7.36511 0
M  V30 15199 H 2086.33 -5.80182 8.37584 0
M  V30 15200 H 2086.14 -3.73517 9.52265 0
M  V30 15201 H 2084.51 -3.97163 8.80359 0
M  V30 15202 H 2087.15 -4.90969 4.01921 0
M  V30 15203 P 2089 -5.75688 6.64379 0
M  V30 15204 O 2090.43 -6.11849 7.01846 0
M  V30 15205 O 2088.64 -4.30744 6.56026 0
M  V30 15206 O 2088.68 -6.37042 5.19165 0
M  V30 15207 C 2088.52 -7.83578 5.16515 0
M  V30 15208 C 2089.06 -8.33398 3.83019 0
M  V30 15209 O 2088 -8.10074 3.01034 0
M  V30 15210 C 2090.28 -7.65514 3.2257 0
M  V30 15211 O 2091.02 -8.4329 2.32297 0
M  V30 15212 C 2089.61 -6.40075 2.62207 0
M  V30 15213 O 2090.41 -5.92589 1.53712 0
M  V30 15214 C 2088.27 -6.9454 2.18503 0
M  V30 15215 H 2088.3 -7.23063 1.12091 0
M  V30 15216 H 2089.49 -5.6025 3.37201 0
M  V30 15217 H 2090.97 -7.35707 4.02681 0
M  V30 15218 H 2089.28 -9.40912 3.9095 0
M  V30 15219 H 2089.09 -8.29056 5.99158 0
M  V30 15220 H 2087.46 -8.10073 5.25882 0
M  V30 15221 H 2090.1 -6.30324 0.726794 0
M  V30 15222 P 2091.95 -8.4349 2.47671 0
M  V30 15223 O 2093.38 -8.94359 2.59696 0
M  V30 15224 O 2091.59 -7.1704 3.19006 0
M  V30 15225 O 2091.63 -8.16596 0.923387 0
M  V30 15226 C 2091.47 -9.38437 0.108857 0
M  V30 15227 C 2092.01 -9.08076 -1.28339 0
M  V30 15228 O 2090.96 -8.44229 -1.84713 0
M  V30 15229 C 2093.23 -8.18386 -1.42505 0
M  V30 15230 O 2093.97 -8.3501 -2.60497 0
M  V30 15231 C 2092.56 -6.80225 -1.25468 0
M  V30 15232 O 2093.36 -5.81526 -1.91035 0
M  V30 15233 C 2091.22 -7.02416 -1.9168 0
M  V30 15234 N 2090.18 -6.31033 -1.20314 0
M  V30 15235 C 2090.24 -6.18781 0.121293 0
M  V30 15236 N 2089.2 -5.49762 0.588272 0
M  V30 15237 C 2088.46 -5.22015 -0.488988 0
M  V30 15238 C 2087.16 -4.61966 -0.596448 0
M  V30 15239 O 2086.42 -4.19162 0.309059 0
M  V30 15240 N 2086.73 -4.53773 -1.878 0
M  V30 15241 C 2087.48 -4.99623 -2.99082 0
M  V30 15242 N 2086.88 -4.78912 -4.21227 0
M  V30 15243 N 2088.63 -5.59957 -2.91093 0
M  V30 15244 C 2089.09 -5.70225 -1.64218 0
M  V30 15245 H 2091.26 -6.6888 -2.96621 0
M  V30 15246 H 2092.44 -6.53517 -0.192194 0
M  V30 15247 H 2093.92 -8.36563 -0.598329 0
M  V30 15248 H 2092.23 -10.0291 -1.79807 0
M  V30 15249 H 2092.04 -10.2138 0.558219 0
M  V30 15250 H 2090.41 -9.6579 0.0444202 0
M  V30 15251 H 2085.83 -4.12883 -2.05283 0
M  V30 15252 H 2091.04 -6.59596 0.745856 0
M  V30 15253 H 2085.97 -4.31425 -4.2628 0
M  V30 15254 H 2087.34 -5.11219 -5.07148 0
M  V30 15255 H 2093.05 -5.69466 -2.79593 0
M  V30 15256 P 2094.9 -8.4349 -2.47671 0
M  V30 15257 O 2096.33 -8.92593 -2.65 0
M  V30 15258 O 2094.54 -7.7568 -1.19296 0
M  V30 15259 O 2094.58 -7.36886 -3.63805 0
M  V30 15260 C 2094.42 -7.95349 -4.982 0
M  V30 15261 C 2094.96 -6.94612 -5.98974 0
M  V30 15262 O 2093.91 -6.10347 -6.11815 0
M  V30 15263 C 2096.18 -6.11426 -5.62335 0
M  V30 15264 O 2096.92 -5.6162 -6.70584 0
M  V30 15265 C 2095.51 -5.04409 -4.73308 0
M  V30 15266 O 2096.31 -3.85992 -4.75183 0
M  V30 15267 C 2094.17 -4.8728 -5.41006 0
M  V30 15268 H 2094.21 -4.02333 -6.11157 0
M  V30 15269 H 2095.39 -5.39466 -3.69543 0
M  V30 15270 H 2096.87 -6.71916 -5.01943 0
M  V30 15271 H 2095.18 -7.4649 -6.93477 0
M  V30 15272 H 2094.99 -8.89416 -5.05237 0
M  V30 15273 H 2093.36 -8.14876 -5.18409 0
M  V30 15274 H 2096 -3.27957 -5.4317 0
M  V30 15275 P 2097.86 -5.75688 -6.64379 0
M  V30 15276 O 2099.28 -6.07627 -7.05504 0
M  V30 15277 O 2097.5 -5.88047 -5.19722 0
M  V30 15278 O 2097.53 -4.2322 -7.04443 0
M  V30 15279 C 2097.37 -3.99743 -8.4911 0
M  V30 15280 C 2097.91 -2.60516 -8.79425 0
M  V30 15281 O 2096.86 -1.82684 -8.4467 0
M  V30 15282 C 2099.13 -2.10343 -8.03628 0
M  V30 15283 O 2099.87 -1.09919 -8.67766 0
M  V30 15284 C 2098.46 -1.68446 -6.70876 0
M  V30 15285 O 2099.26 -0.678137 -6.08433 0
M  V30 15286 C 2097.12 -1.17436 -7.18567 0
M  V30 15287 H 2097.16 -0.0804732 -7.31656 0
M  V30 15288 H 2098.34 -2.54037 -6.02537 0
M  V30 15289 H 2099.82 -2.93881 -7.85526 0
M  V30 15290 H 2098.13 -2.53065 -9.86973 0
M  V30 15291 H 2097.94 -4.75072 -9.05887 0
M  V30 15292 H 2096.31 -4.05244 -8.76668 0
M  V30 15293 H 2098.95 0.177647 -6.34251 0
M  V30 15294 P 2100.81 -1.25109 -8.70152 0
M  V30 15295 O 2102.23 -1.29744 -9.22016 0
M  V30 15296 O 2100.45 -2.13714 -7.55141 0
M  V30 15297 O 2100.48 0.248149 -8.21425 0
M  V30 15298 C 2100.32 1.22779 -9.30434 0
M  V30 15299 C 2100.86 2.56293 -8.80664 0
M  V30 15300 O 2099.81 3.02979 -8.09349 0
M  V30 15301 C 2102.08 2.57523 -7.89775 0
M  V30 15302 O 2102.82 3.7668 -7.89438 0
M  V30 15303 C 2101.41 2.20997 -6.55446 0
M  V30 15304 O 2102.21 2.71895 -5.48509 0
M  V30 15305 C 2100.07 2.89693 -6.67988 0
M  V30 15306 H 2100.11 3.88793 -6.19859 0
M  V30 15307 H 2101.29 1.12046 -6.44229 0
M  V30 15308 H 2102.77 1.7746 -8.19711 0
M  V30 15309 H 2101.08 3.20706 -9.67112 0
M  V30 15310 H 2100.89 0.901032 -10.1892 0
M  V30 15311 H 2099.26 1.33049 -9.56592 0
M  V30 15312 H 2101.9 3.57847 -5.23962 0
M  V30 15313 P 2103.76 3.65191 -7.99657 0
M  V30 15314 O 2105.18 3.89332 -8.45794 0
M  V30 15315 O 2103.4 2.28472 -7.50807 0
M  V30 15316 O 2103.43 4.64972 -6.77611 0
M  V30 15317 C 2103.27 6.06319 -7.16352 0
M  V30 15318 C 2103.81 6.91731 -6.02299 0
M  V30 15319 O 2102.76 6.92449 -5.17064 0
M  V30 15320 C 2105.03 6.43627 -5.25174 0
M  V30 15321 O 2105.77 7.43686 -4.60469 0
M  V30 15322 C 2104.36 5.40275 -4.31916 0
M  V30 15323 O 2105.16 5.25279 -3.14438 0
M  V30 15324 C 2103.03 6.04847 -4.05327 0
M  V30 15325 H 2103.06 6.62195 -3.11261 0
M  V30 15326 H 2104.24 4.42556 -4.81383 0
M  V30 15327 H 2105.72 5.92458 -5.93643 0
M  V30 15328 H 2104.03 7.92655 -6.402 0
M  V30 15329 H 2103.84 6.26671 -8.0846 0
M  V30 15330 H 2102.21 6.29101 -7.32804 0
M  V30 15331 H 2104.85 5.84315 -2.47318 0
M  V30 15332 P 2106.71 7.39546 -4.75277 0
M  V30 15333 O 2108.13 7.84798 -5.01039 0
M  V30 15334 O 2106.35 5.9812 -5.08098 0
M  V30 15335 O 2106.38 7.57503 -3.1866 0
M  V30 15336 C 2106.22 8.97357 -2.74833 0
M  V30 15337 C 2106.76 9.07548 -1.32709 0
M  V30 15338 O 2105.71 8.62072 -0.606159 0
M  V30 15339 C 2107.98 8.25383 -0.938334 0
M  V30 15340 O 2108.72 8.74577 0.146954 0
M  V30 15341 C 2107.31 6.8802 -0.712559 0
M  V30 15342 O 2108.11 6.1189 0.194655 0
M  V30 15343 C 2105.98 7.27966 -0.139777 0
M  V30 15344 H 2106.01 7.25354 0.961601 0
M  V30 15345 H 2107.19 6.32557 -1.65702 0
M  V30 15346 H 2108.67 8.19355 -1.79097 0
M  V30 15347 H 2106.98 10.1294 -1.10029 0
M  V30 15348 H 2106.79 9.64276 -3.41316 0
M  V30 15349 H 2105.16 9.25417 -2.76357 0
M  V30 15350 H 2107.8 6.25267 1.07847 0
M  V30 15351 P 2109.66 8.791 1.81619e-11 0
M  V30 15352 O 2111.08 9.31096 0.027933 0
M  V30 15353 O 2109.3 7.77869 -1.04071 0
M  V30 15354 O 2109.33 8.09533 1.41463 0
M  V30 15355 C 2109.17 9.0349 2.53943 0
M  V30 15356 C 2109.71 8.35226 3.79016 0
M  V30 15357 O 2108.66 7.57992 4.15078 0
M  V30 15358 C 2110.93 7.45087 3.67298 0
M  V30 15359 O 2111.67 7.27796 4.85194 0
M  V30 15360 C 2110.26 6.17323 3.12027 0
M  V30 15361 O 2111.06 5.04231 3.47188 0
M  V30 15362 C 2108.93 6.19961 3.81809 0
M  V30 15363 H 2108.96 5.58218 4.73051 0
M  V30 15364 H 2110.14 6.21726 2.02589 0
M  V30 15365 H 2111.63 7.86112 2.9231 0
M  V30 15366 H 2109.93 9.11627 4.55076 0
M  V30 15367 H 2109.74 9.9573 2.34194 0
M  V30 15368 H 2108.11 9.2792 2.67832 0
M  V30 15369 H 2110.75 4.67702 4.28772 0
M  V30 15370 P 2112.61 7.39546 4.75277 0
M  V30 15371 O 2114.03 7.81777 5.05738 0
M  V30 15372 O 2112.25 7.1065 3.32998 0
M  V30 15373 O 2112.29 6.04542 5.56673 0
M  V30 15374 C 2112.13 6.22772 7.02095 0
M  V30 15375 C 2112.67 4.97725 7.70406 0
M  V30 15376 O 2111.61 4.13256 7.58987 0
M  V30 15377 C 2113.88 4.28231 7.11815 0
M  V30 15378 O 2114.62 3.49945 8.01648 0
M  V30 15379 C 2113.21 3.5063 5.96244 0
M  V30 15380 O 2114.01 2.36482 5.64681 0
M  V30 15381 C 2111.88 3.15122 6.56374 0
M  V30 15382 H 2111.91 2.13853 6.99751 0
M  V30 15383 H 2113.09 4.13501 5.06559 0
M  V30 15384 H 2114.58 5.03285 6.70911 0
M  V30 15385 H 2112.88 5.20877 8.75697 0
M  V30 15386 H 2112.69 7.11046 7.35349 0
M  V30 15387 H 2111.06 6.35815 7.26986 0
M  V30 15388 H 2113.7 1.61644 6.13565 0
M  V30 15389 P 2115.56 3.65191 7.99657 0
M  V30 15390 O 2116.98 3.8425 8.48115 0
M  V30 15391 O 2115.2 4.17805 6.64342 0
M  V30 15392 O 2115.24 2.07613 7.95143 0
M  V30 15393 C 2115.08 1.44328 9.27336 0
M  V30 15394 C 2115.62 0.0220036 9.17197 0
M  V30 15395 O 2114.56 -0.626867 8.61923 0
M  V30 15396 C 2116.83 -0.24586 8.30336 0
M  V30 15397 O 2117.57 -1.39011 8.63583 0
M  V30 15398 C 2116.16 -0.273849 6.91158 0
M  V30 15399 O 2116.96 -1.06348 6.02892 0
M  V30 15400 C 2114.83 -0.897649 7.22545 0
M  V30 15401 H 2114.86 -1.9841 7.04286 0
M  V30 15402 H 2116.04 0.739928 6.497 0
M  V30 15403 H 2117.53 0.60668 8.36503 0
M  V30 15404 H 2115.83 -0.352479 10.1829 0
M  V30 15405 H 2115.64 2.00611 10.0304 0
M  V30 15406 H 2114.01 1.41843 9.55327 0
M  V30 15407 H 2116.65 -1.95734 6.03555 0
M  V30 15408 P 2118.51 -1.25109 8.70152 0
M  V30 15409 O 2119.93 -1.35274 9.21221 0
M  V30 15410 O 2118.15 -0.0769065 7.84762 0
M  V30 15411 O 2118.19 -2.55232 7.81161 0
M  V30 15412 C 2118.03 -3.79939 8.58154 0
M  V30 15413 C 2118.57 -4.94023 7.72785 0
M  V30 15414 O 2117.51 -5.18726 6.91205 0
M  V30 15415 C 2119.78 -4.69597 6.85231 0
M  V30 15416 O 2120.52 -5.83832 6.51337 0
M  V30 15417 C 2119.12 -3.96706 5.66633 0
M  V30 15418 O 2119.91 -4.15414 4.49689 0
M  V30 15419 C 2117.78 -4.66153 5.59313 0
M  V30 15420 H 2117.81 -5.47679 4.85214 0
M  V30 15421 H 2118.99 -2.89008 5.86566 0
M  V30 15422 H 2120.48 -4.0121 7.36511 0
M  V30 15423 H 2118.78 -5.80182 8.37584 0
M  V30 15424 H 2118.59 -3.73517 9.52265 0
M  V30 15425 H 2116.96 -3.97163 8.80359 0
M  V30 15426 H 2119.6 -4.90969 4.01921 0
M  V30 15427 P 2121.46 -5.75688 6.64379 0
M  V30 15428 O 2122.88 -6.11849 7.01846 0
M  V30 15429 O 2121.1 -4.30744 6.56026 0
M  V30 15430 O 2121.14 -6.37042 5.19165 0
M  V30 15431 C 2120.98 -7.83578 5.16515 0
M  V30 15432 C 2121.52 -8.33398 3.83019 0
M  V30 15433 O 2120.46 -8.10074 3.01034 0
M  V30 15434 C 2122.73 -7.65514 3.2257 0
M  V30 15435 O 2123.47 -8.4329 2.32297 0
M  V30 15436 C 2122.07 -6.40075 2.62207 0
M  V30 15437 O 2122.86 -5.92589 1.53712 0
M  V30 15438 C 2120.73 -6.9454 2.18503 0
M  V30 15439 H 2120.76 -7.23063 1.12091 0
M  V30 15440 H 2121.94 -5.6025 3.37201 0
M  V30 15441 H 2123.43 -7.35707 4.02681 0
M  V30 15442 H 2121.73 -9.40912 3.9095 0
M  V30 15443 H 2121.54 -8.29056 5.99158 0
M  V30 15444 H 2119.91 -8.10073 5.25882 0
M  V30 15445 H 2122.55 -6.30324 0.726794 0
M  V30 15446 P 2124.41 -8.4349 2.47671 0
M  V30 15447 O 2125.81 -8.98227 2.65696 0
M  V30 15448 O 2124.03 -7.20409 3.23964 0
M  V30 15449 O 2124.09 -8.16496 0.923275 0
M  V30 15450 C 2123.93 -9.38437 0.108857 0
M  V30 15451 C 2124.47 -9.08076 -1.28339 0
M  V30 15452 O 2123.41 -8.44131 -1.84692 0
M  V30 15453 C 2125.68 -8.18386 -1.42505 0
M  V30 15454 O 2126.42 -8.3501 -2.60497 0
M  V30 15455 C 2125.02 -6.80225 -1.25468 0
M  V30 15456 O 2125.82 -5.81526 -1.91035 0
M  V30 15457 C 2123.68 -7.02416 -1.9168 0
M  V30 15458 N 2122.64 -6.31033 -1.20314 0
M  V30 15459 C 2121.6 -5.77149 -1.928 0
M  V30 15460 O 2121.64 -5.8521 -3.17729 0
M  V30 15461 N 2120.59 -5.15445 -1.27997 0
M  V30 15462 C 2120.64 -5.04472 0.0534726 0
M  V30 15463 N 2119.63 -4.44183 0.669496 0
M  V30 15464 C 2121.73 -5.55244 0.808522 0
M  V30 15465 C 2122.7 -6.18542 0.13981 0
M  V30 15466 H 2123.71 -6.68789 -2.9658 0
M  V30 15467 H 2124.89 -6.53498 -0.198729 0
M  V30 15468 H 2126.38 -8.36663 -0.5984 0
M  V30 15469 H 2124.68 -10.0273 -1.8081 0
M  V30 15470 H 2124.49 -10.2138 0.558219 0
M  V30 15471 H 2122.86 -9.6569 0.0444156 0
M  V30 15472 H 2121.78 -5.43017 1.88792 0
M  V30 15473 H 2123.55 -6.60539 0.686773 0
M  V30 15474 H 2118.84 -4.07222 0.12057 0
M  V30 15475 H 2119.63 -4.34288 1.69244 0
M  V30 15476 H 2125.6 -5.79638 -2.8315 0
M  V30 15477 P 2127.36 -8.4349 -2.47671 0
M  V30 15478 O 2128.78 -8.92689 -2.65029 0
M  V30 15479 O 2127 -7.7568 -1.19296 0
M  V30 15480 O 2127.04 -7.36886 -3.63805 0
M  V30 15481 C 2126.88 -7.95433 -4.98253 0
M  V30 15482 C 2127.42 -6.94612 -5.98974 0
M  V30 15483 O 2126.36 -6.10277 -6.11744 0
M  V30 15484 C 2128.64 -6.11426 -5.62335 0
M  V30 15485 O 2129.37 -5.6162 -6.70584 0
M  V30 15486 C 2127.97 -5.04409 -4.73308 0
M  V30 15487 O 2128.77 -3.86404 -4.74719 0
M  V30 15488 C 2126.63 -4.8728 -5.41006 0
M  V30 15489 N 2125.59 -4.65812 -4.42377 0
M  V30 15490 C 2125.76 -5.09132 -3.15382 0
M  V30 15491 N 2124.73 -4.84021 -2.3716 0
M  V30 15492 C 2123.84 -4.18386 -3.20441 0
M  V30 15493 C 2122.58 -3.6275 -2.94905 0
M  V30 15494 N 2121.98 -3.65794 -1.73372 0
M  V30 15495 N 2122.01 -3.05008 -4.05243 0
M  V30 15496 C 2122.61 -2.98348 -5.28159 0
M  V30 15497 N 2123.79 -3.48171 -5.56333 0
M  V30 15498 C 2124.37 -4.06869 -4.47212 0
M  V30 15499 H 2126.66 -4.02278 -6.11074 0
M  V30 15500 H 2127.84 -5.39013 -3.70026 0
M  V30 15501 H 2129.33 -6.71916 -5.01943 0
M  V30 15502 H 2127.63 -7.45796 -6.94223 0
M  V30 15503 H 2127.44 -8.89416 -5.05237 0
M  V30 15504 H 2125.81 -8.14876 -5.18409 0
M  V30 15505 H 2122.08 -2.47853 -6.07807 0
M  V30 15506 H 2126.66 -5.59989 -2.81362 0
M  V30 15507 H 2121.05 -3.23218 -1.60782 0
M  V30 15508 H 2122.45 -4.10523 -0.937856 0
M  V30 15509 H 2128.45 -3.27906 -5.43085 0
M  V30 15510 P 2130.31 -5.75688 -6.64379 0
M  V30 15511 O 2131.73 -6.07627 -7.05504 0
M  V30 15512 O 2129.95 -5.88047 -5.19722 0
M  V30 15513 O 2129.99 -4.2322 -7.04443 0
M  V30 15514 C 2129.83 -3.99743 -8.4911 0
M  V30 15515 C 2130.37 -2.60516 -8.79425 0
M  V30 15516 O 2129.31 -1.82684 -8.4467 0
M  V30 15517 C 2131.59 -2.10343 -8.03628 0
M  V30 15518 O 2132.32 -1.09919 -8.67766 0
M  V30 15519 C 2130.92 -1.68446 -6.70876 0
M  V30 15520 O 2131.72 -0.678137 -6.08433 0
M  V30 15521 C 2129.58 -1.17436 -7.18567 0
M  V30 15522 H 2129.61 -0.0804732 -7.31656 0
M  V30 15523 H 2130.8 -2.54037 -6.02537 0
M  V30 15524 H 2132.28 -2.93881 -7.85526 0
M  V30 15525 H 2130.59 -2.53065 -9.86973 0
M  V30 15526 H 2130.4 -4.75072 -9.05887 0
M  V30 15527 H 2128.77 -4.05244 -8.76668 0
M  V30 15528 H 2131.4 0.177647 -6.34251 0
M  V30 15529 P 2133.26 -1.25109 -8.70152 0
M  V30 15530 O 2134.68 -1.29744 -9.22016 0
M  V30 15531 O 2132.9 -2.13714 -7.55141 0
M  V30 15532 O 2132.94 0.248149 -8.21425 0
M  V30 15533 C 2132.78 1.22779 -9.30434 0
M  V30 15534 C 2133.32 2.56293 -8.80664 0
M  V30 15535 O 2132.26 3.02979 -8.09349 0
M  V30 15536 C 2134.54 2.57523 -7.89775 0
M  V30 15537 O 2135.28 3.7668 -7.89438 0
M  V30 15538 C 2133.87 2.20997 -6.55446 0
M  V30 15539 O 2134.67 2.71895 -5.48509 0
M  V30 15540 C 2132.53 2.89693 -6.67988 0
M  V30 15541 H 2132.56 3.88793 -6.19859 0
M  V30 15542 H 2133.75 1.12046 -6.44229 0
M  V30 15543 H 2135.23 1.7746 -8.19711 0
M  V30 15544 H 2133.54 3.20706 -9.67112 0
M  V30 15545 H 2133.35 0.901032 -10.1892 0
M  V30 15546 H 2131.72 1.33049 -9.56592 0
M  V30 15547 H 2134.36 3.57847 -5.23962 0
M  V30 15548 P 2136.21 3.65191 -7.99657 0
M  V30 15549 O 2137.63 3.89332 -8.45794 0
M  V30 15550 O 2135.85 2.28472 -7.50807 0
M  V30 15551 O 2135.89 4.64972 -6.77611 0
M  V30 15552 C 2135.73 6.06319 -7.16352 0
M  V30 15553 C 2136.27 6.91731 -6.02299 0
M  V30 15554 O 2135.21 6.92449 -5.17064 0
M  V30 15555 C 2137.49 6.43627 -5.25174 0
M  V30 15556 O 2138.23 7.43686 -4.60469 0
M  V30 15557 C 2136.82 5.40275 -4.31916 0
M  V30 15558 O 2137.62 5.25279 -3.14438 0
M  V30 15559 C 2135.48 6.04847 -4.05327 0
M  V30 15560 H 2135.51 6.62195 -3.11261 0
M  V30 15561 H 2136.7 4.42556 -4.81383 0
M  V30 15562 H 2138.18 5.92458 -5.93643 0
M  V30 15563 H 2136.49 7.92655 -6.402 0
M  V30 15564 H 2136.3 6.26671 -8.0846 0
M  V30 15565 H 2134.67 6.29101 -7.32804 0
M  V30 15566 H 2137.31 5.84315 -2.47318 0
M  V30 15567 P 2139.16 7.39546 -4.75277 0
M  V30 15568 O 2140.59 7.84798 -5.01039 0
M  V30 15569 O 2138.8 5.9812 -5.08098 0
M  V30 15570 O 2138.84 7.57503 -3.1866 0
M  V30 15571 C 2138.68 8.97357 -2.74833 0
M  V30 15572 C 2139.22 9.07548 -1.32709 0
M  V30 15573 O 2138.16 8.62072 -0.606159 0
M  V30 15574 C 2140.44 8.25383 -0.938334 0
M  V30 15575 O 2141.18 8.74577 0.146954 0
M  V30 15576 C 2139.77 6.8802 -0.712559 0
M  V30 15577 O 2140.57 6.1189 0.194655 0
M  V30 15578 C 2138.43 7.27966 -0.139777 0
M  V30 15579 H 2138.46 7.25354 0.961601 0
M  V30 15580 H 2139.65 6.32557 -1.65702 0
M  V30 15581 H 2141.13 8.19355 -1.79097 0
M  V30 15582 H 2139.44 10.1294 -1.10029 0
M  V30 15583 H 2139.25 9.64276 -3.41316 0
M  V30 15584 H 2137.62 9.25417 -2.76357 0
M  V30 15585 H 2140.26 6.25267 1.07847 0
M  V30 15586 P 2142.11 8.791 1.84721e-11 0
M  V30 15587 O 2143.54 9.31096 0.027933 0
M  V30 15588 O 2141.75 7.77869 -1.04071 0
M  V30 15589 O 2141.79 8.09533 1.41463 0
M  V30 15590 C 2141.63 9.0349 2.53943 0
M  V30 15591 C 2142.17 8.35226 3.79016 0
M  V30 15592 O 2141.11 7.57992 4.15078 0
M  V30 15593 C 2143.39 7.45087 3.67298 0
M  V30 15594 O 2144.13 7.27796 4.85194 0
M  V30 15595 C 2142.72 6.17323 3.12027 0
M  V30 15596 O 2143.52 5.04231 3.47188 0
M  V30 15597 C 2141.38 6.19961 3.81809 0
M  V30 15598 H 2141.41 5.58218 4.73051 0
M  V30 15599 H 2142.6 6.21726 2.02589 0
M  V30 15600 H 2144.08 7.86112 2.9231 0
M  V30 15601 H 2142.39 9.11627 4.55076 0
M  V30 15602 H 2142.2 9.9573 2.34194 0
M  V30 15603 H 2140.57 9.2792 2.67832 0
M  V30 15604 H 2143.21 4.67702 4.28772 0
M  V30 15605 P 2145.06 7.39546 4.75277 0
M  V30 15606 O 2146.49 7.81777 5.05738 0
M  V30 15607 O 2144.7 7.1065 3.32998 0
M  V30 15608 O 2144.74 6.04542 5.56673 0
M  V30 15609 C 2144.58 6.22772 7.02095 0
M  V30 15610 C 2145.12 4.97725 7.70406 0
M  V30 15611 O 2144.07 4.13256 7.58987 0
M  V30 15612 C 2146.34 4.28231 7.11815 0
M  V30 15613 O 2147.08 3.49945 8.01648 0
M  V30 15614 C 2145.67 3.5063 5.96244 0
M  V30 15615 O 2146.47 2.36482 5.64681 0
M  V30 15616 C 2144.33 3.15122 6.56374 0
M  V30 15617 H 2144.37 2.13853 6.99751 0
M  V30 15618 H 2145.55 4.13501 5.06559 0
M  V30 15619 H 2147.03 5.03285 6.70911 0
M  V30 15620 H 2145.34 5.20877 8.75697 0
M  V30 15621 H 2145.15 7.11046 7.35349 0
M  V30 15622 H 2143.52 6.35815 7.26986 0
M  V30 15623 H 2146.16 1.61644 6.13565 0
M  V30 15624 P 2148.01 3.65191 7.99657 0
M  V30 15625 O 2149.44 3.8425 8.48115 0
M  V30 15626 O 2147.65 4.17805 6.64342 0
M  V30 15627 O 2147.69 2.07613 7.95143 0
M  V30 15628 C 2147.53 1.44328 9.27336 0
M  V30 15629 C 2148.07 0.0220036 9.17197 0
M  V30 15630 O 2147.02 -0.626867 8.61923 0
M  V30 15631 C 2149.29 -0.24586 8.30336 0
M  V30 15632 O 2150.03 -1.39011 8.63583 0
M  V30 15633 C 2148.62 -0.273849 6.91158 0
M  V30 15634 O 2149.42 -1.06348 6.02892 0
M  V30 15635 C 2147.28 -0.897649 7.22545 0
M  V30 15636 H 2147.32 -1.9841 7.04286 0
M  V30 15637 H 2148.5 0.739928 6.497 0
M  V30 15638 H 2149.98 0.60668 8.36503 0
M  V30 15639 H 2148.29 -0.352479 10.1829 0
M  V30 15640 H 2148.1 2.00611 10.0304 0
M  V30 15641 H 2146.47 1.41843 9.55327 0
M  V30 15642 H 2149.11 -1.95734 6.03555 0
M  V30 15643 P 2150.97 -1.25109 8.70152 0
M  V30 15644 O 2152.39 -1.35274 9.21221 0
M  V30 15645 O 2150.61 -0.0769065 7.84762 0
M  V30 15646 O 2150.64 -2.55232 7.81161 0
M  V30 15647 C 2150.48 -3.79939 8.58154 0
M  V30 15648 C 2151.02 -4.94023 7.72785 0
M  V30 15649 O 2149.97 -5.18726 6.91205 0
M  V30 15650 C 2152.24 -4.69597 6.85231 0
M  V30 15651 O 2152.98 -5.83832 6.51337 0
M  V30 15652 C 2151.57 -3.96706 5.66633 0
M  V30 15653 O 2152.37 -4.15414 4.49689 0
M  V30 15654 C 2150.23 -4.66153 5.59313 0
M  V30 15655 H 2150.27 -5.47679 4.85214 0
M  V30 15656 H 2151.45 -2.89008 5.86566 0
M  V30 15657 H 2152.93 -4.0121 7.36511 0
M  V30 15658 H 2151.24 -5.80182 8.37584 0
M  V30 15659 H 2151.05 -3.73517 9.52265 0
M  V30 15660 H 2149.42 -3.97163 8.80359 0
M  V30 15661 H 2152.06 -4.90969 4.01921 0
M  V30 15662 P 2153.92 -5.75688 6.64379 0
M  V30 15663 O 2155.34 -6.11849 7.01846 0
M  V30 15664 O 2153.56 -4.30744 6.56026 0
M  V30 15665 O 2153.59 -6.37042 5.19165 0
M  V30 15666 C 2153.43 -7.83578 5.16515 0
M  V30 15667 C 2153.97 -8.33398 3.83019 0
M  V30 15668 O 2152.92 -8.10074 3.01034 0
M  V30 15669 C 2155.19 -7.65514 3.2257 0
M  V30 15670 O 2155.93 -8.4329 2.32297 0
M  V30 15671 C 2154.52 -6.40075 2.62207 0
M  V30 15672 O 2155.32 -5.92589 1.53712 0
M  V30 15673 C 2153.19 -6.9454 2.18503 0
M  V30 15674 H 2153.22 -7.23063 1.12091 0
M  V30 15675 H 2154.4 -5.6025 3.37201 0
M  V30 15676 H 2155.88 -7.35707 4.02681 0
M  V30 15677 H 2154.19 -9.40912 3.9095 0
M  V30 15678 H 2154 -8.29056 5.99158 0
M  V30 15679 H 2152.37 -8.10073 5.25882 0
M  V30 15680 H 2155.01 -6.30324 0.726794 0
M  V30 15681 P 2156.87 -8.4349 2.47671 0
M  V30 15682 O 2158.29 -8.94359 2.59696 0
M  V30 15683 O 2156.51 -7.1704 3.19006 0
M  V30 15684 O 2156.54 -8.16596 0.923387 0
M  V30 15685 C 2156.38 -9.38437 0.108857 0
M  V30 15686 C 2156.92 -9.08076 -1.28339 0
M  V30 15687 O 2155.87 -8.44229 -1.84713 0
M  V30 15688 C 2158.14 -8.18386 -1.42505 0
M  V30 15689 O 2158.88 -8.3501 -2.60497 0
M  V30 15690 C 2157.47 -6.80225 -1.25468 0
M  V30 15691 O 2158.27 -5.81526 -1.91035 0
M  V30 15692 C 2156.14 -7.02416 -1.9168 0
M  V30 15693 N 2155.09 -6.31033 -1.20314 0
M  V30 15694 C 2155.15 -6.18781 0.121293 0
M  V30 15695 N 2154.11 -5.49762 0.588272 0
M  V30 15696 C 2153.38 -5.22015 -0.488988 0
M  V30 15697 C 2152.07 -4.61966 -0.596448 0
M  V30 15698 O 2151.34 -4.19162 0.309059 0
M  V30 15699 N 2151.64 -4.53773 -1.878 0
M  V30 15700 C 2152.39 -4.99623 -2.99082 0
M  V30 15701 N 2151.79 -4.78912 -4.21227 0
M  V30 15702 N 2153.54 -5.59957 -2.91093 0
M  V30 15703 C 2154 -5.70225 -1.64218 0
M  V30 15704 H 2156.17 -6.6888 -2.96621 0
M  V30 15705 H 2157.35 -6.53517 -0.192194 0
M  V30 15706 H 2158.84 -8.36563 -0.598329 0
M  V30 15707 H 2157.14 -10.0291 -1.79807 0
M  V30 15708 H 2156.95 -10.2138 0.558219 0
M  V30 15709 H 2155.32 -9.6579 0.0444202 0
M  V30 15710 H 2150.74 -4.12883 -2.05283 0
M  V30 15711 H 2155.95 -6.59596 0.745856 0
M  V30 15712 H 2150.88 -4.31425 -4.2628 0
M  V30 15713 H 2152.26 -5.11219 -5.07148 0
M  V30 15714 H 2157.96 -5.69466 -2.79593 0
M  V30 15715 P 2159.82 -8.4349 -2.47671 0
M  V30 15716 O 2161.24 -8.92593 -2.65 0
M  V30 15717 O 2159.46 -7.7568 -1.19296 0
M  V30 15718 O 2159.49 -7.36886 -3.63805 0
M  V30 15719 C 2159.33 -7.95349 -4.982 0
M  V30 15720 C 2159.87 -6.94612 -5.98974 0
M  V30 15721 O 2158.82 -6.10347 -6.11815 0
M  V30 15722 C 2161.09 -6.11426 -5.62335 0
M  V30 15723 O 2161.83 -5.6162 -6.70584 0
M  V30 15724 C 2160.42 -5.04409 -4.73308 0
M  V30 15725 O 2161.22 -3.85992 -4.75183 0
M  V30 15726 C 2159.09 -4.8728 -5.41006 0
M  V30 15727 H 2159.12 -4.02333 -6.11157 0
M  V30 15728 H 2160.3 -5.39466 -3.69543 0
M  V30 15729 H 2161.79 -6.71916 -5.01943 0
M  V30 15730 H 2160.09 -7.4649 -6.93477 0
M  V30 15731 H 2159.9 -8.89416 -5.05237 0
M  V30 15732 H 2158.27 -8.14876 -5.18409 0
M  V30 15733 H 2160.91 -3.27957 -5.4317 0
M  V30 15734 P 2162.77 -5.75688 -6.64379 0
M  V30 15735 O 2164.19 -6.07627 -7.05504 0
M  V30 15736 O 2162.41 -5.88047 -5.19722 0
M  V30 15737 O 2162.44 -4.2322 -7.04443 0
M  V30 15738 C 2162.28 -3.99743 -8.4911 0
M  V30 15739 C 2162.82 -2.60516 -8.79425 0
M  V30 15740 O 2161.77 -1.82684 -8.4467 0
M  V30 15741 C 2164.04 -2.10343 -8.03628 0
M  V30 15742 O 2164.78 -1.09919 -8.67766 0
M  V30 15743 C 2163.37 -1.68446 -6.70876 0
M  V30 15744 O 2164.17 -0.678137 -6.08433 0
M  V30 15745 C 2162.04 -1.17436 -7.18567 0
M  V30 15746 H 2162.07 -0.0804732 -7.31656 0
M  V30 15747 H 2163.25 -2.54037 -6.02537 0
M  V30 15748 H 2164.74 -2.93881 -7.85526 0
M  V30 15749 H 2163.04 -2.53065 -9.86973 0
M  V30 15750 H 2162.85 -4.75072 -9.05887 0
M  V30 15751 H 2161.22 -4.05244 -8.76668 0
M  V30 15752 H 2163.86 0.177647 -6.34251 0
M  V30 15753 P 2165.72 -1.25109 -8.70152 0
M  V30 15754 O 2167.14 -1.29744 -9.22016 0
M  V30 15755 O 2165.36 -2.13714 -7.55141 0
M  V30 15756 O 2165.4 0.248149 -8.21425 0
M  V30 15757 C 2165.24 1.22779 -9.30434 0
M  V30 15758 C 2165.78 2.56293 -8.80664 0
M  V30 15759 O 2164.72 3.02979 -8.09349 0
M  V30 15760 C 2166.99 2.57523 -7.89775 0
M  V30 15761 O 2167.73 3.7668 -7.89438 0
M  V30 15762 C 2166.32 2.20997 -6.55446 0
M  V30 15763 O 2167.12 2.71895 -5.48509 0
M  V30 15764 C 2164.99 2.89693 -6.67988 0
M  V30 15765 H 2165.02 3.88793 -6.19859 0
M  V30 15766 H 2166.2 1.12046 -6.44229 0
M  V30 15767 H 2167.69 1.7746 -8.19711 0
M  V30 15768 H 2165.99 3.20706 -9.67112 0
M  V30 15769 H 2165.8 0.901032 -10.1892 0
M  V30 15770 H 2164.17 1.33049 -9.56592 0
M  V30 15771 H 2166.81 3.57847 -5.23962 0
M  V30 15772 P 2168.67 3.65191 -7.99657 0
M  V30 15773 O 2170.09 3.89374 -8.45885 0
M  V30 15774 O 2168.31 2.28472 -7.50807 0
M  V30 15775 O 2168.35 4.64972 -6.77611 0
M  V30 15776 C 2168.18 6.06383 -7.16428 0
M  V30 15777 C 2168.73 6.91731 -6.02299 0
M  V30 15778 O 2167.67 6.92369 -5.17005 0
M  V30 15779 C 2169.94 6.43627 -5.25174 0
M  V30 15780 O 2170.68 7.43686 -4.60469 0
M  V30 15781 C 2169.28 5.40275 -4.31916 0
M  V30 15782 O 2170.07 5.24878 -3.14911 0
M  V30 15783 C 2167.94 6.04847 -4.05327 0
M  V30 15784 N 2166.89 5.04166 -3.98114 0
M  V30 15785 C 2167.06 3.84629 -4.59066 0
M  V30 15786 N 2166.04 3.0363 -4.45343 0
M  V30 15787 C 2165.15 3.76722 -3.68523 0
M  V30 15788 C 2163.88 3.43528 -3.17088 0
M  V30 15789 N 2163.32 4.44526 -2.44231 0
M  V30 15790 C 2163.92 5.65243 -2.20146 0
M  V30 15791 N 2165.1 6.00221 -2.65453 0
M  V30 15792 C 2165.67 5.00564 -3.39083 0
M  V30 15793 H 2169.15 4.42969 -4.80867 0
M  V30 15794 H 2170.64 5.92458 -5.93643 0
M  V30 15795 H 2168.94 7.93295 -6.39407 0
M  V30 15796 H 2168.75 6.26671 -8.0846 0
M  V30 15797 H 2167.12 6.29101 -7.32804 0
M  V30 15798 H 2167.96 3.58193 -5.14248 0
M  V30 15799 H 2169.76 5.84223 -2.47279 0
M  V30 15800 P 2171.62 7.39546 -4.75277 0
M  V30 15801 O 2173.04 7.84798 -5.01039 0
M  V30 15802 O 2171.26 5.9812 -5.08098 0
M  V30 15803 O 2171.3 7.57503 -3.1866 0
M  V30 15804 C 2171.14 8.97357 -2.74833 0
M  V30 15805 C 2171.68 9.07548 -1.32709 0
M  V30 15806 O 2170.62 8.62072 -0.606159 0
M  V30 15807 C 2172.89 8.25383 -0.938334 0
M  V30 15808 O 2173.63 8.74577 0.146954 0
M  V30 15809 C 2172.23 6.8802 -0.712559 0
M  V30 15810 O 2173.02 6.1189 0.194655 0
M  V30 15811 C 2170.89 7.27966 -0.139777 0
M  V30 15812 H 2170.92 7.25354 0.961601 0
M  V30 15813 H 2172.1 6.32557 -1.65702 0
M  V30 15814 H 2173.59 8.19355 -1.79097 0
M  V30 15815 H 2171.89 10.1294 -1.10029 0
M  V30 15816 H 2171.7 9.64276 -3.41316 0
M  V30 15817 H 2170.07 9.25417 -2.76357 0
M  V30 15818 H 2172.71 6.25267 1.07847 0
M  V30 15819 P 2174.57 8.791 1.87823e-11 0
M  V30 15820 O 2175.99 9.31196 0.027936 0
M  V30 15821 O 2174.21 7.77869 -1.04071 0
M  V30 15822 O 2174.25 8.09533 1.41463 0
M  V30 15823 C 2174.09 9.03587 2.5397 0
M  V30 15824 C 2174.63 8.35226 3.79016 0
M  V30 15825 O 2173.57 7.57904 4.1503 0
M  V30 15826 C 2175.85 7.45087 3.67298 0
M  V30 15827 O 2176.58 7.27796 4.85194 0
M  V30 15828 C 2175.18 6.17323 3.12027 0
M  V30 15829 O 2175.98 5.04496 3.46627 0
M  V30 15830 C 2173.84 6.19961 3.81809 0
M  V30 15831 N 2172.8 5.71575 2.93223 0
M  V30 15832 C 2172.97 5.77362 1.59168 0
M  V30 15833 N 2171.94 5.3123 0.911893 0
M  V30 15834 C 2171.05 4.91717 1.89588 0
M  V30 15835 C 2169.79 4.3114 1.8076 0
M  V30 15836 N 2169.19 3.99821 0.632928 0
M  V30 15837 N 2169.22 4.06823 3.02898 0
M  V30 15838 C 2169.82 4.35062 4.22711 0
M  V30 15839 N 2171 4.90805 4.35707 0
M  V30 15840 C 2171.58 5.16382 3.14469 0
M  V30 15841 H 2173.87 5.58142 4.72986 0
M  V30 15842 H 2175.05 6.21428 2.0318 0
M  V30 15843 H 2176.54 7.86112 2.9231 0
M  V30 15844 H 2174.84 9.11171 4.55987 0
M  V30 15845 H 2174.65 9.9573 2.34194 0
M  V30 15846 H 2173.02 9.2792 2.67832 0
M  V30 15847 H 2169.29 4.09052 5.13359 0
M  V30 15848 H 2173.87 6.16575 1.12198 0
M  V30 15849 H 2168.26 3.55423 0.632085 0
M  V30 15850 H 2169.66 4.20317 -0.256712 0
M  V30 15851 H 2175.66 4.67628 4.28704 0
M  V30 15852 P 2177.52 7.39546 4.75277 0
M  V30 15853 O 2178.94 7.81777 5.05738 0
M  V30 15854 O 2177.16 7.1065 3.32998 0
M  V30 15855 O 2177.2 6.04542 5.56673 0
M  V30 15856 C 2177.04 6.22772 7.02095 0
M  V30 15857 C 2177.58 4.97725 7.70406 0
M  V30 15858 O 2176.52 4.13256 7.58987 0
M  V30 15859 C 2178.8 4.28231 7.11815 0
M  V30 15860 O 2179.53 3.49945 8.01648 0
M  V30 15861 C 2178.13 3.5063 5.96244 0
M  V30 15862 O 2178.93 2.36482 5.64681 0
M  V30 15863 C 2176.79 3.15122 6.56374 0
M  V30 15864 H 2176.82 2.13853 6.99751 0
M  V30 15865 H 2178 4.13501 5.06559 0
M  V30 15866 H 2179.49 5.03285 6.70911 0
M  V30 15867 H 2177.79 5.20877 8.75697 0
M  V30 15868 H 2177.6 7.11046 7.35349 0
M  V30 15869 H 2175.97 6.35815 7.26986 0
M  V30 15870 H 2178.61 1.61644 6.13565 0
M  V30 15871 P 2180.47 3.65191 7.99657 0
M  V30 15872 O 2181.89 3.8425 8.48115 0
M  V30 15873 O 2180.11 4.17805 6.64342 0
M  V30 15874 O 2180.15 2.07613 7.95143 0
M  V30 15875 C 2179.99 1.44328 9.27336 0
M  V30 15876 C 2180.53 0.0220036 9.17197 0
M  V30 15877 O 2179.47 -0.626867 8.61923 0
M  V30 15878 C 2181.75 -0.24586 8.30336 0
M  V30 15879 O 2182.48 -1.39011 8.63583 0
M  V30 15880 C 2181.08 -0.273849 6.91158 0
M  V30 15881 O 2181.88 -1.06348 6.02892 0
M  V30 15882 C 2179.74 -0.897649 7.22545 0
M  V30 15883 H 2179.77 -1.9841 7.04286 0
M  V30 15884 H 2180.96 0.739928 6.497 0
M  V30 15885 H 2182.44 0.60668 8.36503 0
M  V30 15886 H 2180.75 -0.352479 10.1829 0
M  V30 15887 H 2180.56 2.00611 10.0304 0
M  V30 15888 H 2178.93 1.41843 9.55327 0
M  V30 15889 H 2181.56 -1.95734 6.03555 0
M  V30 15890 P 2183.42 -1.25109 8.70152 0
M  V30 15891 O 2184.84 -1.35303 9.21419 0
M  V30 15892 O 2183.06 -0.0769065 7.84762 0
M  V30 15893 O 2183.1 -2.55232 7.81161 0
M  V30 15894 C 2182.94 -3.79939 8.58154 0
M  V30 15895 C 2183.48 -4.93969 7.72701 0
M  V30 15896 O 2182.42 -5.18726 6.91205 0
M  V30 15897 C 2184.7 -4.69597 6.85231 0
M  V30 15898 O 2185.43 -5.83832 6.51337 0
M  V30 15899 C 2184.03 -3.96706 5.66633 0
M  V30 15900 O 2184.83 -4.15346 4.49615 0
M  V30 15901 C 2182.69 -4.66153 5.59313 0
M  V30 15902 N 2181.65 -3.71582 5.24027 0
M  V30 15903 C 2181.71 -2.46018 5.67902 0
M  V30 15904 N 2180.66 -1.74868 5.24518 0
M  V30 15905 C 2179.93 -2.61333 4.54528 0
M  V30 15906 C 2178.62 -2.46162 3.95441 0
M  V30 15907 O 2177.89 -1.46013 3.94122 0
M  V30 15908 N 2178.19 -3.59334 3.34752 0
M  V30 15909 C 2178.94 -4.79605 3.3023 0
M  V30 15910 N 2178.35 -5.82109 2.6065 0
M  V30 15911 N 2180.1 -4.97402 3.8843 0
M  V30 15912 C 2180.55 -3.86258 4.50476 0
M  V30 15913 H 2182.72 -5.47679 4.85214 0
M  V30 15914 H 2183.91 -2.88964 5.86476 0
M  V30 15915 H 2185.39 -4.01947 7.36109 0
M  V30 15916 H 2183.7 -5.80182 8.37584 0
M  V30 15917 H 2183.51 -3.73517 9.52265 0
M  V30 15918 H 2181.87 -3.97163 8.80359 0
M  V30 15919 H 2177.3 -3.5825 2.90294 0
M  V30 15920 H 2182.51 -2.06161 6.30974 0
M  V30 15921 H 2177.44 -5.66979 2.15354 0
M  V30 15922 H 2178.81 -6.73686 2.54344 0
M  V30 15923 H 2184.52 -4.90891 4.01857 0
M  V30 15924 P 2186.37 -5.75688 6.64379 0
M  V30 15925 O 2187.79 -6.11849 7.01846 0
M  V30 15926 O 2186.01 -4.30744 6.56026 0
M  V30 15927 O 2186.05 -6.37042 5.19165 0
M  V30 15928 C 2185.89 -7.83578 5.16515 0
M  V30 15929 C 2186.43 -8.33398 3.83019 0
M  V30 15930 O 2185.37 -8.10074 3.01034 0
M  V30 15931 C 2187.65 -7.65514 3.2257 0
M  V30 15932 O 2188.39 -8.4329 2.32297 0
M  V30 15933 C 2186.98 -6.40075 2.62207 0
M  V30 15934 O 2187.78 -5.92589 1.53712 0
M  V30 15935 C 2185.64 -6.9454 2.18503 0
M  V30 15936 H 2185.67 -7.23063 1.12091 0
M  V30 15937 H 2186.86 -5.6025 3.37201 0
M  V30 15938 H 2188.34 -7.35707 4.02681 0
M  V30 15939 H 2186.65 -9.40912 3.9095 0
M  V30 15940 H 2186.46 -8.29056 5.99158 0
M  V30 15941 H 2184.83 -8.10073 5.25882 0
M  V30 15942 H 2187.47 -6.30324 0.726794 0
M  V30 15943 P 2189.32 -8.4349 2.47671 0
M  V30 15944 O 2190.74 -8.94167 2.5964 0
M  V30 15945 O 2188.96 -7.1704 3.19006 0
M  V30 15946 O 2189 -8.16596 0.923387 0
M  V30 15947 C 2188.84 -9.38437 0.108857 0
M  V30 15948 C 2189.38 -9.08175 -1.28353 0
M  V30 15949 O 2188.32 -8.44229 -1.84713 0
M  V30 15950 C 2190.6 -8.18386 -1.42505 0
M  V30 15951 O 2191.34 -8.3501 -2.60497 0
M  V30 15952 C 2189.93 -6.80225 -1.25468 0
M  V30 15953 O 2190.73 -5.81621 -1.91066 0
M  V30 15954 C 2188.59 -7.02416 -1.9168 0
M  V30 15955 H 2188.62 -6.6888 -2.96621 0
M  V30 15956 H 2189.81 -6.53617 -0.192223 0
M  V30 15957 H 2191.29 -8.36622 -0.589963 0
M  V30 15958 H 2189.6 -10.0291 -1.79807 0
M  V30 15959 H 2189.41 -10.2138 0.558219 0
M  V30 15960 H 2187.78 -9.6579 0.0444202 0
M  V30 15961 H 2190.42 -5.69556 -2.79637 0
M  V30 15962 P 2192.27 -8.4349 -2.47671 0
M  V30 15963 O 2193.7 -8.92593 -2.65 0
M  V30 15964 O 2191.91 -7.7568 -1.19296 0
M  V30 15965 O 2191.95 -7.36886 -3.63805 0
M  V30 15966 C 2191.79 -7.95349 -4.982 0
M  V30 15967 C 2192.33 -6.94612 -5.98974 0
M  V30 15968 O 2191.27 -6.10347 -6.11815 0
M  V30 15969 C 2193.55 -6.11426 -5.62335 0
M  V30 15970 O 2194.29 -5.6162 -6.70584 0
M  V30 15971 C 2192.88 -5.04409 -4.73308 0
M  V30 15972 O 2193.68 -3.85992 -4.75183 0
M  V30 15973 C 2191.54 -4.8728 -5.41006 0
M  V30 15974 H 2191.57 -4.02333 -6.11157 0
M  V30 15975 H 2192.76 -5.39466 -3.69543 0
M  V30 15976 H 2194.24 -6.71916 -5.01943 0
M  V30 15977 H 2192.55 -7.4649 -6.93477 0
M  V30 15978 H 2192.36 -8.89416 -5.05237 0
M  V30 15979 H 2190.73 -8.14876 -5.18409 0
M  V30 15980 H 2193.37 -3.27957 -5.4317 0
M  V30 15981 P 2195.22 -5.75688 -6.64379 0
M  V30 15982 O 2196.63 -6.14823 -7.06682 0
M  V30 15983 O 2194.85 -5.93957 -5.20728 0
M  V30 15984 O 2194.9 -4.23169 -7.04357 0
M  V30 15985 C 2194.74 -3.99743 -8.4911 0
M  V30 15986 C 2195.28 -2.60487 -8.79329 0
M  V30 15987 O 2194.23 -1.82663 -8.44573 0
M  V30 15988 C 2196.5 -2.10343 -8.03628 0
M  V30 15989 O 2197.24 -1.09919 -8.67766 0
M  V30 15990 C 2195.83 -1.68446 -6.70876 0
M  V30 15991 O 2196.63 -0.678026 -6.08333 0
M  V30 15992 C 2194.49 -1.17436 -7.18567 0
M  V30 15993 N 2193.45 -1.52699 -6.23988 0
M  V30 15994 C 2192.42 -0.643793 -6.05085 0
M  V30 15995 O 2192.45 0.459118 -6.64315 0
M  V30 15996 N 2191.4 -0.976931 -5.22038 0
M  V30 15997 C 2191.45 -2.14429 -4.56662 0
M  V30 15998 N 2190.44 -2.4542 -3.76231 0
M  V30 15999 C 2192.55 -3.04203 -4.71481 0
M  V30 16000 C 2193.51 -2.69669 -5.56838 0
M  V30 16001 H 2194.53 -0.0804622 -7.31556 0
M  V30 16002 H 2195.71 -2.53396 -6.02698 0
M  V30 16003 H 2197.19 -2.9313 -7.85914 0
M  V30 16004 H 2195.5 -2.52078 -9.87225 0
M  V30 16005 H 2195.31 -4.75072 -9.05887 0
M  V30 16006 H 2193.68 -4.05202 -8.76577 0
M  V30 16007 H 2192.6 -3.97309 -4.15519 0
M  V30 16008 H 2194.36 -3.36869 -5.72318 0
M  V30 16009 H 2189.65 -1.80133 -3.65413 0
M  V30 16010 H 2190.45 -3.34359 -3.24736 0
M  V30 16011 H 2196.41 0.167718 -6.44882 0
M  V30 16012 P 2198.17 -1.25109 -8.70152 0
M  V30 16013 O 2199.6 -1.29744 -9.22016 0
M  V30 16014 O 2197.81 -2.13714 -7.55141 0
M  V30 16015 O 2197.85 0.248149 -8.21425 0
M  V30 16016 C 2197.69 1.22779 -9.30434 0
M  V30 16017 C 2198.23 2.56293 -8.80664 0
M  V30 16018 O 2197.18 3.02979 -8.09349 0
M  V30 16019 C 2199.45 2.57523 -7.89775 0
M  V30 16020 O 2200.19 3.7668 -7.89438 0
M  V30 16021 C 2198.78 2.20997 -6.55446 0
M  V30 16022 O 2199.58 2.71895 -5.48509 0
M  V30 16023 C 2197.44 2.89693 -6.67988 0
M  V30 16024 H 2197.48 3.88793 -6.19859 0
M  V30 16025 H 2198.66 1.12046 -6.44229 0
M  V30 16026 H 2200.14 1.7746 -8.19711 0
M  V30 16027 H 2198.45 3.20706 -9.67112 0
M  V30 16028 H 2198.26 0.901032 -10.1892 0
M  V30 16029 H 2196.63 1.33049 -9.56592 0
M  V30 16030 H 2199.27 3.57847 -5.23962 0
M  V30 16031 P 2201.13 3.65191 -7.99657 0
M  V30 16032 O 2202.55 3.89332 -8.45794 0
M  V30 16033 O 2200.77 2.28472 -7.50807 0
M  V30 16034 O 2200.8 4.64972 -6.77611 0
M  V30 16035 C 2200.64 6.06319 -7.16352 0
M  V30 16036 C 2201.18 6.91731 -6.02299 0
M  V30 16037 O 2200.13 6.92449 -5.17064 0
M  V30 16038 C 2202.4 6.43627 -5.25174 0
M  V30 16039 O 2203.14 7.43686 -4.60469 0
M  V30 16040 C 2201.73 5.40275 -4.31916 0
M  V30 16041 O 2202.53 5.25279 -3.14438 0
M  V30 16042 C 2200.39 6.04847 -4.05327 0
M  V30 16043 H 2200.43 6.62195 -3.11261 0
M  V30 16044 H 2201.61 4.42556 -4.81383 0
M  V30 16045 H 2203.09 5.92458 -5.93643 0
M  V30 16046 H 2201.4 7.92655 -6.402 0
M  V30 16047 H 2201.21 6.26671 -8.0846 0
M  V30 16048 H 2199.58 6.29101 -7.32804 0
M  V30 16049 H 2202.22 5.84315 -2.47318 0
M  V30 16050 P 2204.08 7.39546 -4.75277 0
M  V30 16051 O 2205.5 7.84798 -5.01039 0
M  V30 16052 O 2203.72 5.9812 -5.08098 0
M  V30 16053 O 2203.75 7.57503 -3.1866 0
M  V30 16054 C 2203.59 8.97357 -2.74833 0
M  V30 16055 C 2204.13 9.07548 -1.32709 0
M  V30 16056 O 2203.08 8.62072 -0.606159 0
M  V30 16057 C 2205.35 8.25383 -0.938334 0
M  V30 16058 O 2206.09 8.74577 0.146954 0
M  V30 16059 C 2204.68 6.8802 -0.712559 0
M  V30 16060 O 2205.48 6.1189 0.194655 0
M  V30 16061 C 2203.34 7.27966 -0.139777 0
M  V30 16062 H 2203.38 7.25354 0.961601 0
M  V30 16063 H 2204.56 6.32557 -1.65702 0
M  V30 16064 H 2206.04 8.19355 -1.79097 0
M  V30 16065 H 2204.35 10.1294 -1.10029 0
M  V30 16066 H 2204.16 9.64276 -3.41316 0
M  V30 16067 H 2202.53 9.25417 -2.76357 0
M  V30 16068 H 2205.17 6.25267 1.07847 0
M  V30 16069 P 2207.03 8.791 1.90924e-11 0
M  V30 16070 O 2208.45 9.31096 0.027933 0
M  V30 16071 O 2206.67 7.77869 -1.04071 0
M  V30 16072 O 2206.7 8.09533 1.41463 0
M  V30 16073 C 2206.54 9.0349 2.53943 0
M  V30 16074 C 2207.08 8.35226 3.79016 0
M  V30 16075 O 2206.03 7.57992 4.15078 0
M  V30 16076 C 2208.3 7.45087 3.67298 0
M  V30 16077 O 2209.04 7.27796 4.85194 0
M  V30 16078 C 2207.63 6.17323 3.12027 0
M  V30 16079 O 2208.43 5.04231 3.47188 0
M  V30 16080 C 2206.3 6.19961 3.81809 0
M  V30 16081 H 2206.33 5.58218 4.73051 0
M  V30 16082 H 2207.51 6.21726 2.02589 0
M  V30 16083 H 2208.99 7.86112 2.9231 0
M  V30 16084 H 2207.3 9.11627 4.55076 0
M  V30 16085 H 2207.11 9.9573 2.34194 0
M  V30 16086 H 2205.48 9.2792 2.67832 0
M  V30 16087 H 2208.12 4.67702 4.28772 0
M  V30 16088 P 2209.98 7.39546 4.75277 0
M  V30 16089 O 2211.4 7.81777 5.05738 0
M  V30 16090 O 2209.62 7.1065 3.32998 0
M  V30 16091 O 2209.65 6.04542 5.56673 0
M  V30 16092 C 2209.49 6.22772 7.02095 0
M  V30 16093 C 2210.03 4.97725 7.70406 0
M  V30 16094 O 2208.98 4.13256 7.58987 0
M  V30 16095 C 2211.25 4.28231 7.11815 0
M  V30 16096 O 2211.99 3.49945 8.01648 0
M  V30 16097 C 2210.58 3.5063 5.96244 0
M  V30 16098 O 2211.38 2.36482 5.64681 0
M  V30 16099 C 2209.25 3.15122 6.56374 0
M  V30 16100 H 2209.28 2.13853 6.99751 0
M  V30 16101 H 2210.46 4.13501 5.06559 0
M  V30 16102 H 2211.94 5.03285 6.70911 0
M  V30 16103 H 2210.25 5.20877 8.75697 0
M  V30 16104 H 2210.06 7.11046 7.35349 0
M  V30 16105 H 2208.43 6.35815 7.26986 0
M  V30 16106 H 2211.07 1.61644 6.13565 0
M  V30 16107 P 2212.93 3.65191 7.99657 0
M  V30 16108 O 2214.35 3.8425 8.48115 0
M  V30 16109 O 2212.57 4.17805 6.64342 0
M  V30 16110 O 2212.6 2.07613 7.95143 0
M  V30 16111 C 2212.44 1.44328 9.27336 0
M  V30 16112 C 2212.98 0.0220036 9.17197 0
M  V30 16113 O 2211.93 -0.626867 8.61923 0
M  V30 16114 C 2214.2 -0.24586 8.30336 0
M  V30 16115 O 2214.94 -1.39011 8.63583 0
M  V30 16116 C 2213.53 -0.273849 6.91158 0
M  V30 16117 O 2214.33 -1.06348 6.02892 0
M  V30 16118 C 2212.2 -0.897649 7.22545 0
M  V30 16119 H 2212.23 -1.9841 7.04286 0
M  V30 16120 H 2213.41 0.739928 6.497 0
M  V30 16121 H 2214.9 0.60668 8.36503 0
M  V30 16122 H 2213.2 -0.352479 10.1829 0
M  V30 16123 H 2213.01 2.00611 10.0304 0
M  V30 16124 H 2211.38 1.41843 9.55327 0
M  V30 16125 H 2214.02 -1.95734 6.03555 0
M  V30 16126 P 2215.88 -1.25109 8.70152 0
M  V30 16127 O 2217.3 -1.35274 9.21221 0
M  V30 16128 O 2215.52 -0.0769065 7.84762 0
M  V30 16129 O 2215.56 -2.55232 7.81161 0
M  V30 16130 C 2215.4 -3.79939 8.58154 0
M  V30 16131 C 2215.94 -4.94023 7.72785 0
M  V30 16132 O 2214.88 -5.18726 6.91205 0
M  V30 16133 C 2217.15 -4.69597 6.85231 0
M  V30 16134 O 2217.89 -5.83832 6.51337 0
M  V30 16135 C 2216.48 -3.96706 5.66633 0
M  V30 16136 O 2217.28 -4.15414 4.49689 0
M  V30 16137 C 2215.15 -4.66153 5.59313 0
M  V30 16138 H 2215.18 -5.47679 4.85214 0
M  V30 16139 H 2216.36 -2.89008 5.86566 0
M  V30 16140 H 2217.85 -4.0121 7.36511 0
M  V30 16141 H 2216.15 -5.80182 8.37584 0
M  V30 16142 H 2215.96 -3.73517 9.52265 0
M  V30 16143 H 2214.33 -3.97163 8.80359 0
M  V30 16144 H 2216.97 -4.90969 4.01921 0
M  V30 16145 P 2218.83 -5.75688 6.64379 0
M  V30 16146 O 2220.25 -6.11849 7.01846 0
M  V30 16147 O 2218.47 -4.30744 6.56026 0
M  V30 16148 O 2218.51 -6.37042 5.19165 0
M  V30 16149 C 2218.35 -7.83578 5.16515 0
M  V30 16150 C 2218.89 -8.33398 3.83019 0
M  V30 16151 O 2217.83 -8.10074 3.01034 0
M  V30 16152 C 2220.1 -7.65514 3.2257 0
M  V30 16153 O 2220.84 -8.4329 2.32297 0
M  V30 16154 C 2219.43 -6.40075 2.62207 0
M  V30 16155 O 2220.23 -5.92589 1.53712 0
M  V30 16156 C 2218.1 -6.9454 2.18503 0
M  V30 16157 H 2218.13 -7.23063 1.12091 0
M  V30 16158 H 2219.31 -5.6025 3.37201 0
M  V30 16159 H 2220.8 -7.35707 4.02681 0
M  V30 16160 H 2219.1 -9.40912 3.9095 0
M  V30 16161 H 2218.91 -8.29056 5.99158 0
M  V30 16162 H 2217.28 -8.10073 5.25882 0
M  V30 16163 H 2219.92 -6.30324 0.726794 0
M  V30 16164 P 2221.78 -8.4349 2.47671 0
M  V30 16165 O 2223.2 -8.94167 2.5964 0
M  V30 16166 O 2221.42 -7.1704 3.19006 0
M  V30 16167 O 2221.46 -8.16596 0.923387 0
M  V30 16168 C 2221.3 -9.38437 0.108857 0
M  V30 16169 C 2221.84 -9.08175 -1.28353 0
M  V30 16170 O 2220.78 -8.44229 -1.84713 0
M  V30 16171 C 2223.05 -8.18386 -1.42505 0
M  V30 16172 O 2223.79 -8.3501 -2.60497 0
M  V30 16173 C 2222.39 -6.80225 -1.25468 0
M  V30 16174 O 2223.18 -5.81621 -1.91066 0
M  V30 16175 C 2221.05 -7.02416 -1.9168 0
M  V30 16176 H 2221.08 -6.6888 -2.96621 0
M  V30 16177 H 2222.26 -6.53617 -0.192223 0
M  V30 16178 H 2223.75 -8.36622 -0.589963 0
M  V30 16179 H 2222.05 -10.0291 -1.79807 0
M  V30 16180 H 2221.86 -10.2138 0.558219 0
M  V30 16181 H 2220.23 -9.6579 0.0444202 0
M  V30 16182 H 2222.87 -5.69556 -2.79637 0
M  V30 16183 P 2224.73 -8.4349 -2.47671 0
M  V30 16184 O 2226.15 -8.92593 -2.65 0
M  V30 16185 O 2224.37 -7.7568 -1.19296 0
M  V30 16186 O 2224.41 -7.36886 -3.63805 0
M  V30 16187 C 2224.25 -7.95349 -4.982 0
M  V30 16188 C 2224.79 -6.94612 -5.98974 0
M  V30 16189 O 2223.73 -6.10347 -6.11815 0
M  V30 16190 C 2226 -6.11426 -5.62335 0
M  V30 16191 O 2226.74 -5.6162 -6.70584 0
M  V30 16192 C 2225.34 -5.04409 -4.73308 0
M  V30 16193 O 2226.13 -3.85992 -4.75183 0
M  V30 16194 C 2224 -4.8728 -5.41006 0
M  V30 16195 H 2224.03 -4.02333 -6.11157 0
M  V30 16196 H 2225.21 -5.39466 -3.69543 0
M  V30 16197 H 2226.7 -6.71916 -5.01943 0
M  V30 16198 H 2225 -7.4649 -6.93477 0
M  V30 16199 H 2224.81 -8.89416 -5.05237 0
M  V30 16200 H 2223.18 -8.14876 -5.18409 0
M  V30 16201 H 2225.82 -3.27957 -5.4317 0
M  V30 16202 P 2227.68 -5.75688 -6.64379 0
M  V30 16203 O 2229.1 -6.07627 -7.05504 0
M  V30 16204 O 2227.32 -5.88047 -5.19722 0
M  V30 16205 O 2227.36 -4.2322 -7.04443 0
M  V30 16206 C 2227.2 -3.99743 -8.4911 0
M  V30 16207 C 2227.74 -2.60516 -8.79425 0
M  V30 16208 O 2226.68 -1.82684 -8.4467 0
M  V30 16209 C 2228.96 -2.10343 -8.03628 0
M  V30 16210 O 2229.69 -1.09919 -8.67766 0
M  V30 16211 C 2228.29 -1.68446 -6.70876 0
M  V30 16212 O 2229.09 -0.678137 -6.08433 0
M  V30 16213 C 2226.95 -1.17436 -7.18567 0
M  V30 16214 H 2226.98 -0.0804732 -7.31656 0
M  V30 16215 H 2228.16 -2.54037 -6.02537 0
M  V30 16216 H 2229.65 -2.93881 -7.85526 0
M  V30 16217 H 2227.95 -2.53065 -9.86973 0
M  V30 16218 H 2227.76 -4.75072 -9.05887 0
M  V30 16219 H 2226.13 -4.05244 -8.76668 0
M  V30 16220 H 2228.77 0.177647 -6.34251 0
M  V30 16221 P 2230.63 -1.25109 -8.70152 0
M  V30 16222 O 2232.05 -1.29744 -9.22016 0
M  V30 16223 O 2230.27 -2.13714 -7.55141 0
M  V30 16224 O 2230.31 0.248149 -8.21425 0
M  V30 16225 C 2230.15 1.22779 -9.30434 0
M  V30 16226 C 2230.69 2.56293 -8.80664 0
M  V30 16227 O 2229.63 3.02979 -8.09349 0
M  V30 16228 C 2231.91 2.57523 -7.89775 0
M  V30 16229 O 2232.64 3.7668 -7.89438 0
M  V30 16230 C 2231.24 2.20997 -6.55446 0
M  V30 16231 O 2232.04 2.71895 -5.48509 0
M  V30 16232 C 2229.9 2.89693 -6.67988 0
M  V30 16233 H 2229.93 3.88793 -6.19859 0
M  V30 16234 H 2231.11 1.12046 -6.44229 0
M  V30 16235 H 2232.6 1.7746 -8.19711 0
M  V30 16236 H 2230.9 3.20706 -9.67112 0
M  V30 16237 H 2230.71 0.901032 -10.1892 0
M  V30 16238 H 2229.08 1.33049 -9.56592 0
M  V30 16239 H 2231.72 3.57847 -5.23962 0
M  V30 16240 P 2233.58 3.65191 -7.99657 0
M  V30 16241 O 2235 3.89374 -8.45885 0
M  V30 16242 O 2233.22 2.28472 -7.50807 0
M  V30 16243 O 2233.26 4.64972 -6.77611 0
M  V30 16244 C 2233.1 6.06383 -7.16428 0
M  V30 16245 C 2233.64 6.91731 -6.02299 0
M  V30 16246 O 2232.58 6.92369 -5.17005 0
M  V30 16247 C 2234.86 6.43627 -5.25174 0
M  V30 16248 O 2235.59 7.43686 -4.60469 0
M  V30 16249 C 2234.19 5.40275 -4.31916 0
M  V30 16250 O 2234.99 5.24878 -3.14911 0
M  V30 16251 C 2232.85 6.04847 -4.05327 0
M  V30 16252 N 2231.81 5.04166 -3.98114 0
M  V30 16253 C 2231.98 3.84629 -4.59066 0
M  V30 16254 N 2230.95 3.0363 -4.45343 0
M  V30 16255 C 2230.06 3.76722 -3.68523 0
M  V30 16256 C 2228.8 3.43528 -3.17088 0
M  V30 16257 N 2228.2 2.23665 -3.37397 0
M  V30 16258 N 2228.23 4.44526 -2.44231 0
M  V30 16259 C 2228.83 5.65243 -2.20146 0
M  V30 16260 N 2230.01 6.00221 -2.65453 0
M  V30 16261 C 2230.59 5.00564 -3.39083 0
M  V30 16262 H 2232.88 6.62104 -3.11218 0
M  V30 16263 H 2234.07 4.42969 -4.80867 0
M  V30 16264 H 2235.55 5.92458 -5.93643 0
M  V30 16265 H 2233.85 7.93295 -6.39407 0
M  V30 16266 H 2233.66 6.26671 -8.0846 0
M  V30 16267 H 2232.03 6.29101 -7.32804 0
M  V30 16268 H 2228.3 6.36894 -1.5883 0
M  V30 16269 H 2232.88 3.58193 -5.14248 0
M  V30 16270 H 2227.27 2.05145 -2.97047 0
M  V30 16271 H 2228.67 1.51255 -3.92998 0
M  V30 16272 H 2234.67 5.84223 -2.47279 0
M  V30 16273 P 2236.53 7.39546 -4.75277 0
M  V30 16274 O 2237.95 7.84798 -5.01039 0
M  V30 16275 O 2236.17 5.9812 -5.08098 0
M  V30 16276 O 2236.21 7.57503 -3.1866 0
M  V30 16277 C 2236.05 8.97357 -2.74833 0
M  V30 16278 C 2236.59 9.07548 -1.32709 0
M  V30 16279 O 2235.53 8.62072 -0.606159 0
M  V30 16280 C 2237.81 8.25383 -0.938334 0
M  V30 16281 O 2238.55 8.74577 0.146954 0
M  V30 16282 C 2237.14 6.8802 -0.712559 0
M  V30 16283 O 2237.94 6.1189 0.194655 0
M  V30 16284 C 2235.8 7.27966 -0.139777 0
M  V30 16285 H 2235.83 7.25354 0.961601 0
M  V30 16286 H 2237.02 6.32557 -1.65702 0
M  V30 16287 H 2238.5 8.19355 -1.79097 0
M  V30 16288 H 2236.81 10.1294 -1.10029 0
M  V30 16289 H 2236.62 9.64276 -3.41316 0
M  V30 16290 H 2234.99 9.25417 -2.76357 0
M  V30 16291 H 2237.63 6.25267 1.07847 0
M  V30 16292 P 2239.48 8.791 1.94026e-11 0
M  V30 16293 O 2240.9 9.31096 0.027933 0
M  V30 16294 O 2239.12 7.77869 -1.04071 0
M  V30 16295 O 2239.16 8.09533 1.41463 0
M  V30 16296 C 2239 9.0349 2.53943 0
M  V30 16297 C 2239.54 8.35226 3.79016 0
M  V30 16298 O 2238.48 7.57992 4.15078 0
M  V30 16299 C 2240.76 7.45087 3.67298 0
M  V30 16300 O 2241.5 7.27796 4.85194 0
M  V30 16301 C 2240.09 6.17323 3.12027 0
M  V30 16302 O 2240.89 5.04231 3.47188 0
M  V30 16303 C 2238.75 6.19961 3.81809 0
M  V30 16304 H 2238.78 5.58218 4.73051 0
M  V30 16305 H 2239.97 6.21726 2.02589 0
M  V30 16306 H 2241.45 7.86112 2.9231 0
M  V30 16307 H 2239.76 9.11627 4.55076 0
M  V30 16308 H 2239.57 9.9573 2.34194 0
M  V30 16309 H 2237.94 9.2792 2.67832 0
M  V30 16310 H 2240.58 4.67702 4.28772 0
M  V30 16311 P 2242.43 7.39546 4.75277 0
M  V30 16312 O 2243.86 7.81777 5.05738 0
M  V30 16313 O 2242.07 7.1065 3.32998 0
M  V30 16314 O 2242.11 6.04542 5.56673 0
M  V30 16315 C 2241.95 6.22772 7.02095 0
M  V30 16316 C 2242.49 4.97725 7.70406 0
M  V30 16317 O 2241.43 4.13256 7.58987 0
M  V30 16318 C 2243.71 4.28231 7.11815 0
M  V30 16319 O 2244.45 3.49945 8.01648 0
M  V30 16320 C 2243.04 3.5063 5.96244 0
M  V30 16321 O 2243.84 2.36482 5.64681 0
M  V30 16322 C 2241.7 3.15122 6.56374 0
M  V30 16323 H 2241.73 2.13853 6.99751 0
M  V30 16324 H 2242.92 4.13501 5.06559 0
M  V30 16325 H 2244.4 5.03285 6.70911 0
M  V30 16326 H 2242.71 5.20877 8.75697 0
M  V30 16327 H 2242.52 7.11046 7.35349 0
M  V30 16328 H 2240.89 6.35815 7.26986 0
M  V30 16329 H 2243.53 1.61644 6.13565 0
M  V30 16330 P 2245.38 3.65191 7.99657 0
M  V30 16331 O 2246.81 3.8425 8.48115 0
M  V30 16332 O 2245.02 4.17805 6.64342 0
M  V30 16333 O 2245.06 2.07613 7.95143 0
M  V30 16334 C 2244.9 1.44328 9.27336 0
M  V30 16335 C 2245.44 0.0220036 9.17197 0
M  V30 16336 O 2244.38 -0.626867 8.61923 0
M  V30 16337 C 2246.66 -0.24586 8.30336 0
M  V30 16338 O 2247.4 -1.39011 8.63583 0
M  V30 16339 C 2245.99 -0.273849 6.91158 0
M  V30 16340 O 2246.79 -1.06348 6.02892 0
M  V30 16341 C 2244.65 -0.897649 7.22545 0
M  V30 16342 H 2244.68 -1.9841 7.04286 0
M  V30 16343 H 2245.87 0.739928 6.497 0
M  V30 16344 H 2247.35 0.60668 8.36503 0
M  V30 16345 H 2245.66 -0.352479 10.1829 0
M  V30 16346 H 2245.47 2.00611 10.0304 0
M  V30 16347 H 2243.84 1.41843 9.55327 0
M  V30 16348 H 2246.48 -1.95734 6.03555 0
M  V30 16349 P 2248.33 -1.25109 8.70152 0
M  V30 16350 O 2249.76 -1.35274 9.21221 0
M  V30 16351 O 2247.97 -0.0769065 7.84762 0
M  V30 16352 O 2248.01 -2.55232 7.81161 0
M  V30 16353 C 2247.85 -3.79939 8.58154 0
M  V30 16354 C 2248.39 -4.94023 7.72785 0
M  V30 16355 O 2247.34 -5.18726 6.91205 0
M  V30 16356 C 2249.61 -4.69597 6.85231 0
M  V30 16357 O 2250.35 -5.83832 6.51337 0
M  V30 16358 C 2248.94 -3.96706 5.66633 0
M  V30 16359 O 2249.74 -4.15414 4.49689 0
M  V30 16360 C 2247.6 -4.66153 5.59313 0
M  V30 16361 H 2247.64 -5.47679 4.85214 0
M  V30 16362 H 2248.82 -2.89008 5.86566 0
M  V30 16363 H 2250.3 -4.0121 7.36511 0
M  V30 16364 H 2248.61 -5.80182 8.37584 0
M  V30 16365 H 2248.42 -3.73517 9.52265 0
M  V30 16366 H 2246.79 -3.97163 8.80359 0
M  V30 16367 H 2249.43 -4.90969 4.01921 0
M  V30 16368 P 2251.28 -5.75688 6.64379 0
M  V30 16369 O 2252.71 -6.11849 7.01846 0
M  V30 16370 O 2250.92 -4.30744 6.56026 0
M  V30 16371 O 2250.96 -6.37042 5.19165 0
M  V30 16372 C 2250.8 -7.83578 5.16515 0
M  V30 16373 C 2251.34 -8.33398 3.83019 0
M  V30 16374 O 2250.29 -8.10074 3.01034 0
M  V30 16375 C 2252.56 -7.65514 3.2257 0
M  V30 16376 O 2253.3 -8.4329 2.32297 0
M  V30 16377 C 2251.89 -6.40075 2.62207 0
M  V30 16378 O 2252.69 -5.92589 1.53712 0
M  V30 16379 C 2250.55 -6.9454 2.18503 0
M  V30 16380 H 2250.59 -7.23063 1.12091 0
M  V30 16381 H 2251.77 -5.6025 3.37201 0
M  V30 16382 H 2253.25 -7.35707 4.02681 0
M  V30 16383 H 2251.56 -9.40912 3.9095 0
M  V30 16384 H 2251.37 -8.29056 5.99158 0
M  V30 16385 H 2249.74 -8.10073 5.25882 0
M  V30 16386 H 2252.38 -6.30324 0.726794 0
M  V30 16387 P 2254.24 -8.4349 2.47671 0
M  V30 16388 O 2255.66 -8.94263 2.59668 0
M  V30 16389 O 2253.88 -7.1704 3.19006 0
M  V30 16390 O 2253.91 -8.16596 0.923387 0
M  V30 16391 C 2253.75 -9.38537 0.108869 0
M  V30 16392 C 2254.29 -9.08175 -1.28353 0
M  V30 16393 O 2253.24 -8.44131 -1.84692 0
M  V30 16394 C 2255.51 -8.18386 -1.42505 0
M  V30 16395 O 2256.25 -8.3501 -2.60497 0
M  V30 16396 C 2254.84 -6.80225 -1.25468 0
M  V30 16397 O 2255.64 -5.81716 -1.90454 0
M  V30 16398 C 2253.5 -7.02416 -1.9168 0
M  V30 16399 N 2252.46 -6.31033 -1.20314 0
M  V30 16400 C 2252.63 -5.98817 0.0994088 0
M  V30 16401 N 2251.6 -5.35403 0.621694 0
M  V30 16402 C 2250.72 -5.25212 -0.43376 0
M  V30 16403 C 2249.45 -4.64602 -0.519722 0
M  V30 16404 N 2248.85 -4.01457 0.519136 0
M  V30 16405 N 2248.89 -4.7568 -1.76013 0
M  V30 16406 C 2249.49 -5.3653 -2.83017 0
M  V30 16407 N 2250.67 -5.93676 -2.79782 0
M  V30 16408 C 2251.24 -5.84061 -1.56249 0
M  V30 16409 H 2253.54 -6.68789 -2.9658 0
M  V30 16410 H 2254.72 -6.53498 -0.198729 0
M  V30 16411 H 2256.2 -8.36622 -0.589963 0
M  V30 16412 H 2254.51 -10.0273 -1.8081 0
M  V30 16413 H 2254.32 -10.2138 0.558219 0
M  V30 16414 H 2252.69 -9.6579 0.0444202 0
M  V30 16415 H 2248.95 -5.37113 -3.77321 0
M  V30 16416 H 2253.53 -6.23209 0.660562 0
M  V30 16417 H 2247.92 -3.58834 0.394862 0
M  V30 16418 H 2249.33 -3.96059 1.43048 0
M  V30 16419 H 2255.33 -5.69466 -2.79593 0
M  V30 16420 P 2257.19 -8.4349 -2.47671 0
M  V30 16421 O 2258.61 -8.92593 -2.65 0
M  V30 16422 O 2256.83 -7.7568 -1.19296 0
M  V30 16423 O 2256.86 -7.36886 -3.63805 0
M  V30 16424 C 2256.7 -7.95349 -4.982 0
M  V30 16425 C 2257.24 -6.94612 -5.98974 0
M  V30 16426 O 2256.19 -6.10347 -6.11815 0
M  V30 16427 C 2258.46 -6.11426 -5.62335 0
M  V30 16428 O 2259.2 -5.6162 -6.70584 0
M  V30 16429 C 2257.79 -5.04409 -4.73308 0
M  V30 16430 O 2258.59 -3.85992 -4.75183 0
M  V30 16431 C 2256.46 -4.8728 -5.41006 0
M  V30 16432 H 2256.49 -4.02333 -6.11157 0
M  V30 16433 H 2257.67 -5.39466 -3.69543 0
M  V30 16434 H 2259.15 -6.71916 -5.01943 0
M  V30 16435 H 2257.46 -7.4649 -6.93477 0
M  V30 16436 H 2257.27 -8.89416 -5.05237 0
M  V30 16437 H 2255.64 -8.14876 -5.18409 0
M  V30 16438 H 2258.28 -3.27957 -5.4317 0
M  V30 16439 P 2260.14 -5.75688 -6.64379 0
M  V30 16440 O 2261.56 -6.07627 -7.05504 0
M  V30 16441 O 2259.78 -5.88047 -5.19722 0
M  V30 16442 O 2259.81 -4.2322 -7.04443 0
M  V30 16443 C 2259.65 -3.99743 -8.4911 0
M  V30 16444 C 2260.19 -2.60516 -8.79425 0
M  V30 16445 O 2259.14 -1.82684 -8.4467 0
M  V30 16446 C 2261.41 -2.10343 -8.03628 0
M  V30 16447 O 2262.15 -1.09919 -8.67766 0
M  V30 16448 C 2260.74 -1.68446 -6.70876 0
M  V30 16449 O 2261.54 -0.678137 -6.08433 0
M  V30 16450 C 2259.41 -1.17436 -7.18567 0
M  V30 16451 H 2259.44 -0.0804732 -7.31656 0
M  V30 16452 H 2260.62 -2.54037 -6.02537 0
M  V30 16453 H 2262.1 -2.93881 -7.85526 0
M  V30 16454 H 2260.41 -2.53065 -9.86973 0
M  V30 16455 H 2260.22 -4.75072 -9.05887 0
M  V30 16456 H 2258.59 -4.05244 -8.76668 0
M  V30 16457 H 2261.23 0.177647 -6.34251 0
M  V30 16458 P 2263.09 -1.25109 -8.70152 0
M  V30 16459 O 2264.51 -1.29744 -9.22016 0
M  V30 16460 O 2262.73 -2.13714 -7.55141 0
M  V30 16461 O 2262.76 0.248149 -8.21425 0
M  V30 16462 C 2262.6 1.22779 -9.30434 0
M  V30 16463 C 2263.14 2.56293 -8.80664 0
M  V30 16464 O 2262.09 3.02979 -8.09349 0
M  V30 16465 C 2264.36 2.57523 -7.89775 0
M  V30 16466 O 2265.1 3.7668 -7.89438 0
M  V30 16467 C 2263.69 2.20997 -6.55446 0
M  V30 16468 O 2264.49 2.71895 -5.48509 0
M  V30 16469 C 2262.36 2.89693 -6.67988 0
M  V30 16470 H 2262.39 3.88793 -6.19859 0
M  V30 16471 H 2263.57 1.12046 -6.44229 0
M  V30 16472 H 2265.06 1.7746 -8.19711 0
M  V30 16473 H 2263.36 3.20706 -9.67112 0
M  V30 16474 H 2263.17 0.901032 -10.1892 0
M  V30 16475 H 2261.54 1.33049 -9.56592 0
M  V30 16476 H 2264.18 3.57847 -5.23962 0
M  V30 16477 P 2266.04 3.65191 -7.99657 0
M  V30 16478 O 2267.46 3.89374 -8.45885 0
M  V30 16479 O 2265.68 2.28472 -7.50807 0
M  V30 16480 O 2265.71 4.64972 -6.77611 0
M  V30 16481 C 2265.55 6.06383 -7.16428 0
M  V30 16482 C 2266.09 6.91731 -6.02299 0
M  V30 16483 O 2265.04 6.92369 -5.17005 0
M  V30 16484 C 2267.31 6.43627 -5.25174 0
M  V30 16485 O 2268.05 7.43686 -4.60469 0
M  V30 16486 C 2266.64 5.40275 -4.31916 0
M  V30 16487 O 2267.44 5.24878 -3.14911 0
M  V30 16488 C 2265.31 6.04847 -4.05327 0
M  V30 16489 N 2264.26 5.04166 -3.98114 0
M  V30 16490 C 2264.43 3.84629 -4.59066 0
M  V30 16491 N 2263.41 3.0363 -4.45343 0
M  V30 16492 C 2262.52 3.76722 -3.68523 0
M  V30 16493 C 2261.25 3.43528 -3.17088 0
M  V30 16494 N 2260.65 2.23665 -3.37397 0
M  V30 16495 N 2260.69 4.44526 -2.44231 0
M  V30 16496 C 2261.29 5.65243 -2.20146 0
M  V30 16497 N 2262.47 6.00221 -2.65453 0
M  V30 16498 C 2263.04 5.00564 -3.39083 0
M  V30 16499 H 2265.34 6.62104 -3.11218 0
M  V30 16500 H 2266.52 4.42969 -4.80867 0
M  V30 16501 H 2268 5.92458 -5.93643 0
M  V30 16502 H 2266.31 7.93295 -6.39407 0
M  V30 16503 H 2266.12 6.26671 -8.0846 0
M  V30 16504 H 2264.49 6.29101 -7.32804 0
M  V30 16505 H 2260.75 6.36894 -1.5883 0
M  V30 16506 H 2265.33 3.58193 -5.14248 0
M  V30 16507 H 2259.72 2.05145 -2.97047 0
M  V30 16508 H 2261.13 1.51255 -3.92998 0
M  V30 16509 H 2267.13 5.84223 -2.47279 0
M  V30 16510 P 2268.99 7.39546 -4.75277 0
M  V30 16511 O 2270.41 7.84882 -5.01092 0
M  V30 16512 O 2268.63 5.9812 -5.08098 0
M  V30 16513 O 2268.67 7.57503 -3.1866 0
M  V30 16514 C 2268.5 8.97452 -2.74862 0
M  V30 16515 C 2269.05 9.07548 -1.32709 0
M  V30 16516 O 2267.99 8.61972 -0.606089 0
M  V30 16517 C 2270.26 8.25383 -0.938334 0
M  V30 16518 O 2271 8.74577 0.146954 0
M  V30 16519 C 2269.6 6.8802 -0.712559 0
M  V30 16520 O 2270.39 6.1181 0.188505 0
M  V30 16521 C 2268.26 7.27966 -0.139777 0
M  V30 16522 N 2267.21 6.39368 -0.623421 0
M  V30 16523 C 2267.38 5.71761 -1.78245 0
M  V30 16524 N 2266.36 4.962 -2.10491 0
M  V30 16525 C 2265.47 5.16158 -1.0635 0
M  V30 16526 C 2264.2 4.60425 -0.810266 0
M  V30 16527 N 2263.61 3.7057 -1.62914 0
M  V30 16528 N 2263.64 5.06 0.348685 0
M  V30 16529 C 2264.24 5.94532 1.20395 0
M  V30 16530 N 2265.42 6.48452 1.01191 0
M  V30 16531 C 2265.99 6.04423 -0.146291 0
M  V30 16532 H 2268.29 7.25255 0.961469 0
M  V30 16533 H 2269.47 6.32625 -1.65044 0
M  V30 16534 H 2270.96 8.19355 -1.79097 0
M  V30 16535 H 2269.26 10.1305 -1.09016 0
M  V30 16536 H 2269.07 9.64276 -3.41316 0
M  V30 16537 H 2267.44 9.25417 -2.76357 0
M  V30 16538 H 2263.71 6.21659 2.10714 0
M  V30 16539 H 2268.28 5.79354 -2.38959 0
M  V30 16540 H 2262.68 3.33174 -1.38982 0
M  V30 16541 H 2264.08 3.39714 -2.48836 0
M  V30 16542 H 2270.08 6.25169 1.0783 0
M  V30 16543 P 2271.94 8.791 1.97128e-11 0
M  V30 16544 O 2273.36 9.31196 0.027936 0
M  V30 16545 O 2271.58 7.77869 -1.04071 0
M  V30 16546 O 2271.62 8.09533 1.41463 0
M  V30 16547 C 2271.45 9.03587 2.5397 0
M  V30 16548 C 2272 8.35226 3.79016 0
M  V30 16549 O 2270.94 7.57904 4.1503 0
M  V30 16550 C 2273.21 7.45087 3.67298 0
M  V30 16551 O 2273.95 7.27796 4.85194 0
M  V30 16552 C 2272.55 6.17323 3.12027 0
M  V30 16553 O 2273.34 5.04496 3.46627 0
M  V30 16554 C 2271.21 6.19961 3.81809 0
M  V30 16555 N 2270.16 5.71575 2.93223 0
M  V30 16556 C 2270.33 5.77362 1.59168 0
M  V30 16557 N 2269.31 5.3123 0.911893 0
M  V30 16558 C 2268.42 4.91717 1.89588 0
M  V30 16559 C 2267.15 4.3114 1.8076 0
M  V30 16560 N 2266.59 4.06823 3.02898 0
M  V30 16561 C 2267.19 4.35062 4.22711 0
M  V30 16562 N 2268.37 4.90805 4.35707 0
M  V30 16563 C 2268.94 5.16382 3.14469 0
M  V30 16564 H 2272.42 6.21428 2.0318 0
M  V30 16565 H 2273.91 7.86112 2.9231 0
M  V30 16566 H 2272.21 9.11171 4.55987 0
M  V30 16567 H 2272.02 9.9573 2.34194 0
M  V30 16568 H 2270.39 9.2792 2.67832 0
M  V30 16569 H 2271.23 6.16575 1.12198 0
M  V30 16570 H 2273.03 4.67628 4.28704 0
M  V30 16571 P 2274.89 7.39546 4.75277 0
M  V30 16572 O 2276.31 7.81777 5.05738 0
M  V30 16573 O 2274.53 7.1065 3.32998 0
M  V30 16574 O 2274.57 6.04542 5.56673 0
M  V30 16575 C 2274.41 6.22772 7.02095 0
M  V30 16576 C 2274.95 4.97725 7.70406 0
M  V30 16577 O 2273.89 4.13256 7.58987 0
M  V30 16578 C 2276.16 4.28231 7.11815 0
M  V30 16579 O 2276.9 3.49945 8.01648 0
M  V30 16580 C 2275.5 3.5063 5.96244 0
M  V30 16581 O 2276.29 2.36482 5.64681 0
M  V30 16582 C 2274.16 3.15122 6.56374 0
M  V30 16583 H 2274.19 2.13853 6.99751 0
M  V30 16584 H 2275.37 4.13501 5.06559 0
M  V30 16585 H 2276.86 5.03285 6.70911 0
M  V30 16586 H 2275.16 5.20877 8.75697 0
M  V30 16587 H 2274.97 7.11046 7.35349 0
M  V30 16588 H 2273.34 6.35815 7.26986 0
M  V30 16589 H 2275.98 1.61644 6.13565 0
M  V30 16590 P 2277.84 3.65191 7.99657 0
M  V30 16591 O 2279.26 3.84292 8.48206 0
M  V30 16592 O 2277.48 4.17805 6.64342 0
M  V30 16593 O 2277.52 2.07613 7.95143 0
M  V30 16594 C 2277.36 1.44344 9.27435 0
M  V30 16595 C 2277.9 0.0220036 9.17197 0
M  V30 16596 O 2276.84 -0.626794 8.61824 0
M  V30 16597 C 2279.12 -0.24586 8.30336 0
M  V30 16598 O 2279.85 -1.39011 8.63583 0
M  V30 16599 C 2278.45 -0.273849 6.91158 0
M  V30 16600 O 2279.25 -1.05728 6.029 0
M  V30 16601 C 2277.11 -0.897649 7.22545 0
M  V30 16602 N 2276.07 -0.292839 6.41732 0
M  V30 16603 C 2276.24 0.950603 5.91308 0
M  V30 16604 N 2275.21 1.37732 5.21105 0
M  V30 16605 C 2274.32 0.318109 5.26039 0
M  V30 16606 C 2273.06 0.146766 4.6727 0
M  V30 16607 N 2272.46 1.08519 3.89983 0
M  V30 16608 N 2272.49 -1.06525 4.95887 0
M  V30 16609 C 2273.09 -2.0378 5.71347 0
M  V30 16610 N 2274.27 -1.92445 6.27451 0
M  V30 16611 C 2274.85 -0.715382 6.00353 0
M  V30 16612 H 2277.14 -1.98383 7.04189 0
M  V30 16613 H 2278.32 0.733318 6.49674 0
M  V30 16614 H 2279.81 0.60668 8.36503 0
M  V30 16615 H 2278.11 -0.362662 10.1825 0
M  V30 16616 H 2277.92 2.00611 10.0304 0
M  V30 16617 H 2276.29 1.41843 9.55327 0
M  V30 16618 H 2272.56 -2.97041 5.85344 0
M  V30 16619 H 2277.14 1.54076 6.07465 0
M  V30 16620 H 2271.53 0.901517 3.49562 0
M  V30 16621 H 2272.93 1.97957 3.71669 0
M  V30 16622 H 2278.93 -1.95704 6.0346 0
M  V30 16623 P 2280.79 -1.25109 8.70152 0
M  V30 16624 O 2282.21 -1.35288 9.2132 0
M  V30 16625 O 2280.43 -0.0769065 7.84762 0
M  V30 16626 O 2280.47 -2.55232 7.81161 0
M  V30 16627 C 2280.31 -3.79979 8.58246 0
M  V30 16628 C 2280.85 -4.94023 7.72785 0
M  V30 16629 O 2279.79 -5.18666 6.91125 0
M  V30 16630 C 2282.07 -4.69597 6.85231 0
M  V30 16631 O 2282.8 -5.83832 6.51337 0
M  V30 16632 C 2281.4 -3.96706 5.66633 0
M  V30 16633 O 2282.2 -4.14896 4.5003 0
M  V30 16634 C 2280.06 -4.66153 5.59313 0
M  V30 16635 N 2279.02 -3.71582 5.24027 0
M  V30 16636 C 2279.19 -2.39715 5.48833 0
M  V30 16637 N 2278.16 -1.65863 5.12845 0
M  V30 16638 C 2277.27 -2.57637 4.5973 0
M  V30 16639 C 2276.01 -2.40278 4.01027 0
M  V30 16640 N 2275.41 -1.19549 3.86744 0
M  V30 16641 N 2275.44 -3.57711 3.59575 0
M  V30 16642 C 2276.04 -4.80324 3.70476 0
M  V30 16643 N 2277.22 -5.01121 4.23801 0
M  V30 16644 C 2277.8 -3.84757 4.66372 0
M  V30 16645 H 2280.09 -5.47604 4.85148 0
M  V30 16646 H 2281.27 -2.8955 5.86187 0
M  V30 16647 H 2282.76 -4.0121 7.36511 0
M  V30 16648 H 2281.06 -5.81019 8.37003 0
M  V30 16649 H 2280.87 -3.73517 9.52265 0
M  V30 16650 H 2279.24 -3.97163 8.80359 0
M  V30 16651 H 2275.51 -5.66348 3.3183 0
M  V30 16652 H 2280.09 -1.98804 5.94332 0
M  V30 16653 H 2274.48 -1.13147 3.4281 0
M  V30 16654 H 2275.88 -0.344074 4.19692 0
M  V30 16655 H 2281.88 -4.90891 4.01857 0
M  V30 16656 P 2283.74 -5.75688 6.64379 0
M  V30 16657 O 2285.16 -6.11849 7.01846 0
M  V30 16658 O 2283.38 -4.30744 6.56026 0
M  V30 16659 O 2283.42 -6.37042 5.19165 0
M  V30 16660 C 2283.26 -7.83578 5.16515 0
M  V30 16661 C 2283.8 -8.33398 3.83019 0
M  V30 16662 O 2282.74 -8.10074 3.01034 0
M  V30 16663 C 2285.02 -7.65514 3.2257 0
M  V30 16664 O 2285.75 -8.4329 2.32297 0
M  V30 16665 C 2284.35 -6.40075 2.62207 0
M  V30 16666 O 2285.15 -5.92589 1.53712 0
M  V30 16667 C 2283.01 -6.9454 2.18503 0
M  V30 16668 H 2283.04 -7.23063 1.12091 0
M  V30 16669 H 2284.23 -5.6025 3.37201 0
M  V30 16670 H 2285.71 -7.35707 4.02681 0
M  V30 16671 H 2284.02 -9.40912 3.9095 0
M  V30 16672 H 2283.83 -8.29056 5.99158 0
M  V30 16673 H 2282.2 -8.10073 5.25882 0
M  V30 16674 H 2284.83 -6.30324 0.726794 0
M  V30 16675 P 2286.69 -8.4349 2.47671 0
M  V30 16676 O 2288.11 -8.94167 2.5964 0
M  V30 16677 O 2286.33 -7.1704 3.19006 0
M  V30 16678 O 2286.37 -8.16596 0.923387 0
M  V30 16679 C 2286.21 -9.38437 0.108857 0
M  V30 16680 C 2286.75 -9.08175 -1.28353 0
M  V30 16681 O 2285.69 -8.44229 -1.84713 0
M  V30 16682 C 2287.97 -8.18386 -1.42505 0
M  V30 16683 O 2288.7 -8.3501 -2.60497 0
M  V30 16684 C 2287.3 -6.80225 -1.25468 0
M  V30 16685 O 2288.1 -5.81621 -1.91066 0
M  V30 16686 C 2285.96 -7.02416 -1.9168 0
M  V30 16687 H 2285.99 -6.6888 -2.96621 0
M  V30 16688 H 2287.18 -6.53617 -0.192223 0
M  V30 16689 H 2288.66 -8.36622 -0.589963 0
M  V30 16690 H 2286.97 -10.0291 -1.79807 0
M  V30 16691 H 2286.78 -10.2138 0.558219 0
M  V30 16692 H 2285.15 -9.6579 0.0444202 0
M  V30 16693 H 2287.78 -5.69556 -2.79637 0
M  V30 16694 P 2289.64 -8.4349 -2.47671 0
M  V30 16695 O 2291.06 -8.92689 -2.65029 0
M  V30 16696 O 2289.28 -7.7568 -1.19296 0
M  V30 16697 O 2289.32 -7.36886 -3.63805 0
M  V30 16698 C 2289.16 -7.95433 -4.98253 0
M  V30 16699 C 2289.7 -6.94612 -5.98974 0
M  V30 16700 O 2288.64 -6.10277 -6.11744 0
M  V30 16701 C 2290.92 -6.11426 -5.62335 0
M  V30 16702 O 2291.66 -5.6162 -6.70584 0
M  V30 16703 C 2290.25 -5.04409 -4.73308 0
M  V30 16704 O 2291.05 -3.86404 -4.74719 0
M  V30 16705 C 2288.91 -4.8728 -5.41006 0
M  V30 16706 N 2287.87 -4.65812 -4.42377 0
M  V30 16707 C 2288.04 -5.09132 -3.15382 0
M  V30 16708 N 2287.01 -4.84021 -2.3716 0
M  V30 16709 C 2286.13 -4.18386 -3.20441 0
M  V30 16710 C 2284.86 -3.6275 -2.94905 0
M  V30 16711 N 2284.26 -3.65794 -1.73372 0
M  V30 16712 N 2284.29 -3.05008 -4.05243 0
M  V30 16713 C 2284.9 -2.98348 -5.28159 0
M  V30 16714 N 2286.07 -3.48171 -5.56333 0
M  V30 16715 C 2286.65 -4.06869 -4.47212 0
M  V30 16716 H 2288.94 -4.02278 -6.11074 0
M  V30 16717 H 2290.13 -5.39013 -3.70026 0
M  V30 16718 H 2291.61 -6.71916 -5.01943 0
M  V30 16719 H 2289.92 -7.45796 -6.94223 0
M  V30 16720 H 2289.73 -8.89416 -5.05237 0
M  V30 16721 H 2288.1 -8.14876 -5.18409 0
M  V30 16722 H 2284.36 -2.47853 -6.07807 0
M  V30 16723 H 2288.94 -5.59989 -2.81362 0
M  V30 16724 H 2283.33 -3.23218 -1.60782 0
M  V30 16725 H 2284.73 -4.10523 -0.937856 0
M  V30 16726 H 2290.74 -3.27906 -5.43085 0
M  V30 16727 P 2292.59 -5.75688 -6.64379 0
M  V30 16728 O 2294.01 -6.07627 -7.05504 0
M  V30 16729 O 2292.23 -5.88047 -5.19722 0
M  V30 16730 O 2292.27 -4.2322 -7.04443 0
M  V30 16731 C 2292.11 -3.99743 -8.4911 0
M  V30 16732 C 2292.65 -2.60516 -8.79425 0
M  V30 16733 O 2291.59 -1.82684 -8.4467 0
M  V30 16734 C 2293.87 -2.10343 -8.03628 0
M  V30 16735 O 2294.61 -1.09919 -8.67766 0
M  V30 16736 C 2293.2 -1.68446 -6.70876 0
M  V30 16737 O 2294 -0.678137 -6.08433 0
M  V30 16738 C 2291.86 -1.17436 -7.18567 0
M  V30 16739 H 2291.89 -0.0804732 -7.31656 0
M  V30 16740 H 2293.08 -2.54037 -6.02537 0
M  V30 16741 H 2294.56 -2.93881 -7.85526 0
M  V30 16742 H 2292.87 -2.53065 -9.86973 0
M  V30 16743 H 2292.68 -4.75072 -9.05887 0
M  V30 16744 H 2291.05 -4.05244 -8.76668 0
M  V30 16745 H 2293.69 0.177647 -6.34251 0
M  V30 16746 P 2295.54 -1.25109 -8.70152 0
M  V30 16747 O 2296.97 -1.29744 -9.22016 0
M  V30 16748 O 2295.18 -2.13714 -7.55141 0
M  V30 16749 O 2295.22 0.248149 -8.21425 0
M  V30 16750 C 2295.06 1.22779 -9.30434 0
M  V30 16751 C 2295.6 2.56293 -8.80664 0
M  V30 16752 O 2294.54 3.02979 -8.09349 0
M  V30 16753 C 2296.82 2.57523 -7.89775 0
M  V30 16754 O 2297.56 3.7668 -7.89438 0
M  V30 16755 C 2296.15 2.20997 -6.55446 0
M  V30 16756 O 2296.95 2.71895 -5.48509 0
M  V30 16757 C 2294.81 2.89693 -6.67988 0
M  V30 16758 H 2294.84 3.88793 -6.19859 0
M  V30 16759 H 2296.03 1.12046 -6.44229 0
M  V30 16760 H 2297.51 1.7746 -8.19711 0
M  V30 16761 H 2295.82 3.20706 -9.67112 0
M  V30 16762 H 2295.63 0.901032 -10.1892 0
M  V30 16763 H 2294 1.33049 -9.56592 0
M  V30 16764 H 2296.64 3.57847 -5.23962 0
M  V30 16765 P 2298.49 3.65191 -7.99657 0
M  V30 16766 O 2299.92 3.89332 -8.45794 0
M  V30 16767 O 2298.13 2.28472 -7.50807 0
M  V30 16768 O 2298.17 4.64972 -6.77611 0
M  V30 16769 C 2298.01 6.06319 -7.16352 0
M  V30 16770 C 2298.55 6.91731 -6.02299 0
M  V30 16771 O 2297.5 6.92449 -5.17064 0
M  V30 16772 C 2299.77 6.43627 -5.25174 0
M  V30 16773 O 2300.51 7.43686 -4.60469 0
M  V30 16774 C 2299.1 5.40275 -4.31916 0
M  V30 16775 O 2299.9 5.25279 -3.14438 0
M  V30 16776 C 2297.76 6.04847 -4.05327 0
M  V30 16777 H 2297.8 6.62195 -3.11261 0
M  V30 16778 H 2298.98 4.42556 -4.81383 0
M  V30 16779 H 2300.46 5.92458 -5.93643 0
M  V30 16780 H 2298.77 7.92655 -6.402 0
M  V30 16781 H 2298.58 6.26671 -8.0846 0
M  V30 16782 H 2296.95 6.29101 -7.32804 0
M  V30 16783 H 2299.59 5.84315 -2.47318 0
M  V30 16784 P 2301.44 7.39546 -4.75277 0
M  V30 16785 O 2302.87 7.84798 -5.01039 0
M  V30 16786 O 2301.08 5.9812 -5.08098 0
M  V30 16787 O 2301.12 7.57503 -3.1866 0
M  V30 16788 C 2300.96 8.97357 -2.74833 0
M  V30 16789 C 2301.5 9.07548 -1.32709 0
M  V30 16790 O 2300.45 8.62072 -0.606159 0
M  V30 16791 C 2302.72 8.25383 -0.938334 0
M  V30 16792 O 2303.46 8.74577 0.146954 0
M  V30 16793 C 2302.05 6.8802 -0.712559 0
M  V30 16794 O 2302.85 6.1189 0.194655 0
M  V30 16795 C 2300.71 7.27966 -0.139777 0
M  V30 16796 H 2300.75 7.25354 0.961601 0
M  V30 16797 H 2301.93 6.32557 -1.65702 0
M  V30 16798 H 2303.41 8.19355 -1.79097 0
M  V30 16799 H 2301.72 10.1294 -1.10029 0
M  V30 16800 H 2301.53 9.64276 -3.41316 0
M  V30 16801 H 2299.9 9.25417 -2.76357 0
M  V30 16802 H 2302.54 6.25267 1.07847 0
M  V30 16803 P 2304.4 8.791 2.00229e-11 0
M  V30 16804 O 2305.82 9.31196 0.027936 0
M  V30 16805 O 2304.04 7.77869 -1.04071 0
M  V30 16806 O 2304.07 8.09533 1.41463 0
M  V30 16807 C 2303.91 9.03587 2.5397 0
M  V30 16808 C 2304.45 8.35226 3.79016 0
M  V30 16809 O 2303.4 7.57904 4.1503 0
M  V30 16810 C 2305.67 7.45087 3.67298 0
M  V30 16811 O 2306.41 7.27796 4.85194 0
M  V30 16812 C 2305 6.17323 3.12027 0
M  V30 16813 O 2305.8 5.04496 3.46627 0
M  V30 16814 C 2303.66 6.19961 3.81809 0
M  V30 16815 N 2302.62 5.71575 2.93223 0
M  V30 16816 C 2302.79 5.77362 1.59168 0
M  V30 16817 N 2301.76 5.3123 0.911893 0
M  V30 16818 C 2300.88 4.91717 1.89588 0
M  V30 16819 C 2299.61 4.3114 1.8076 0
M  V30 16820 N 2299.01 3.99821 0.632928 0
M  V30 16821 N 2299.05 4.06823 3.02898 0
M  V30 16822 C 2299.65 4.35062 4.22711 0
M  V30 16823 N 2300.83 4.90805 4.35707 0
M  V30 16824 C 2301.4 5.16382 3.14469 0
M  V30 16825 H 2303.7 5.58142 4.72986 0
M  V30 16826 H 2304.88 6.21428 2.0318 0
M  V30 16827 H 2306.36 7.86112 2.9231 0
M  V30 16828 H 2304.67 9.11171 4.55987 0
M  V30 16829 H 2304.48 9.9573 2.34194 0
M  V30 16830 H 2302.85 9.2792 2.67832 0
M  V30 16831 H 2299.11 4.09052 5.13359 0
M  V30 16832 H 2303.69 6.16575 1.12198 0
M  V30 16833 H 2298.08 3.55423 0.632085 0
M  V30 16834 H 2299.49 4.20317 -0.256712 0
M  V30 16835 H 2305.49 4.67628 4.28704 0
M  V30 16836 P 2307.35 7.39546 4.75277 0
M  V30 16837 O 2308.75 7.89013 5.04841 0
M  V30 16838 O 2306.97 7.16603 3.32298 0
M  V30 16839 O 2307.02 6.04468 5.56605 0
M  V30 16840 C 2306.86 6.22772 7.02095 0
M  V30 16841 C 2307.4 4.97671 7.70322 0
M  V30 16842 O 2306.35 4.13208 7.58899 0
M  V30 16843 C 2308.62 4.28231 7.11815 0
M  V30 16844 O 2309.36 3.49945 8.01648 0
M  V30 16845 C 2307.95 3.5063 5.96244 0
M  V30 16846 O 2308.75 2.36443 5.64589 0
M  V30 16847 C 2306.61 3.15122 6.56374 0
M  V30 16848 N 2305.57 3.22311 5.55692 0
M  V30 16849 C 2304.54 2.32244 5.62437 0
M  V30 16850 O 2304.58 1.43107 6.50341 0
M  V30 16851 N 2303.52 2.40811 4.73368 0
M  V30 16852 C 2303.57 3.344 3.77753 0
M  V30 16853 N 2302.56 3.41475 2.91848 0
M  V30 16854 C 2304.67 4.24712 3.66679 0
M  V30 16855 C 2305.63 4.15625 4.58307 0
M  V30 16856 H 2306.65 2.13823 6.99656 0
M  V30 16857 H 2307.83 4.12931 5.06895 0
M  V30 16858 H 2309.31 5.02674 6.71494 0
M  V30 16859 H 2307.62 5.20001 8.76217 0
M  V30 16860 H 2307.43 7.11046 7.35349 0
M  V30 16861 H 2305.8 6.35749 7.26911 0
M  V30 16862 H 2304.72 4.9828 2.86753 0
M  V30 16863 H 2306.48 4.84464 4.54228 0
M  V30 16864 H 2301.77 2.75785 2.99862 0
M  V30 16865 H 2302.57 4.12304 2.17382 0
M  V30 16866 H 2308.53 1.65592 6.23485 0
M  V30 16867 P 2310.3 3.65191 7.99657 0
M  V30 16868 O 2311.72 3.84333 8.48297 0
M  V30 16869 O 2309.94 4.17805 6.64342 0
M  V30 16870 O 2309.97 2.07613 7.95143 0
M  V30 16871 C 2309.81 1.44328 9.27336 0
M  V30 16872 C 2310.35 0.0220012 9.17097 0
M  V30 16873 O 2309.3 -0.626867 8.61923 0
M  V30 16874 C 2311.57 -0.24586 8.30336 0
M  V30 16875 O 2312.31 -1.39011 8.63583 0
M  V30 16876 C 2310.9 -0.273849 6.91158 0
M  V30 16877 O 2311.7 -1.06331 6.02794 0
M  V30 16878 C 2309.57 -0.897649 7.22545 0
M  V30 16879 N 2308.52 -0.292839 6.41732 0
M  V30 16880 C 2308.58 1.00068 6.10757 0
M  V30 16881 N 2307.54 1.36468 5.35794 0
M  V30 16882 C 2306.81 0.258894 5.2366 0
M  V30 16883 C 2305.5 0.0670682 4.65752 0
M  V30 16884 O 2304.77 0.902443 4.10497 0
M  V30 16885 N 2305.07 -1.2131 4.75881 0
M  V30 16886 C 2305.82 -2.24934 5.37101 0
M  V30 16887 N 2305.22 -3.48783 5.33984 0
M  V30 16888 N 2306.97 -2.0844 5.95684 0
M  V30 16889 C 2307.43 -0.81395 5.87791 0
M  V30 16890 H 2309.6 -1.9841 7.04286 0
M  V30 16891 H 2310.78 0.739815 6.49601 0
M  V30 16892 H 2312.27 0.598315 8.36563 0
M  V30 16893 H 2310.57 -0.352479 10.1829 0
M  V30 16894 H 2310.38 2.00611 10.0304 0
M  V30 16895 H 2308.75 1.41843 9.55327 0
M  V30 16896 H 2304.17 -1.44434 4.37895 0
M  V30 16897 H 2309.38 1.67697 6.42268 0
M  V30 16898 H 2304.31 -3.60543 4.87699 0
M  V30 16899 H 2305.69 -4.29232 5.7819 0
M  V30 16900 H 2311.39 -1.95704 6.0346 0
M  V30 16901 P 2313.25 -1.25109 8.70152 0
M  V30 16902 O 2314.67 -1.35274 9.21221 0
M  V30 16903 O 2312.89 -0.0769065 7.84762 0
M  V30 16904 O 2312.92 -2.55232 7.81161 0
M  V30 16905 C 2312.76 -3.79939 8.58154 0
M  V30 16906 C 2313.3 -4.94023 7.72785 0
M  V30 16907 O 2312.25 -5.18726 6.91205 0
M  V30 16908 C 2314.52 -4.69597 6.85231 0
M  V30 16909 O 2315.26 -5.83832 6.51337 0
M  V30 16910 C 2313.85 -3.96706 5.66633 0
M  V30 16911 O 2314.65 -4.15414 4.49689 0
M  V30 16912 C 2312.52 -4.66153 5.59313 0
M  V30 16913 H 2312.55 -5.47679 4.85214 0
M  V30 16914 H 2313.73 -2.89008 5.86566 0
M  V30 16915 H 2315.21 -4.0121 7.36511 0
M  V30 16916 H 2313.52 -5.80182 8.37584 0
M  V30 16917 H 2313.33 -3.73517 9.52265 0
M  V30 16918 H 2311.7 -3.97163 8.80359 0
M  V30 16919 H 2314.34 -4.90969 4.01921 0
M  V30 16920 P 2316.2 -5.75688 6.64379 0
M  V30 16921 O 2317.62 -6.11849 7.01846 0
M  V30 16922 O 2315.84 -4.30744 6.56026 0
M  V30 16923 O 2315.87 -6.37042 5.19165 0
M  V30 16924 C 2315.71 -7.83578 5.16515 0
M  V30 16925 C 2316.25 -8.33398 3.83019 0
M  V30 16926 O 2315.2 -8.10074 3.01034 0
M  V30 16927 C 2317.47 -7.65514 3.2257 0
M  V30 16928 O 2318.21 -8.4329 2.32297 0
M  V30 16929 C 2316.8 -6.40075 2.62207 0
M  V30 16930 O 2317.6 -5.92589 1.53712 0
M  V30 16931 C 2315.47 -6.9454 2.18503 0
M  V30 16932 H 2315.5 -7.23063 1.12091 0
M  V30 16933 H 2316.68 -5.6025 3.37201 0
M  V30 16934 H 2318.17 -7.35707 4.02681 0
M  V30 16935 H 2316.47 -9.40912 3.9095 0
M  V30 16936 H 2316.28 -8.29056 5.99158 0
M  V30 16937 H 2314.65 -8.10073 5.25882 0
M  V30 16938 H 2317.29 -6.30324 0.726794 0
M  V30 16939 P 2319.15 -8.4349 2.47671 0
M  V30 16940 O 2320.57 -8.94167 2.5964 0
M  V30 16941 O 2318.79 -7.1704 3.19006 0
M  V30 16942 O 2318.83 -8.16596 0.923387 0
M  V30 16943 C 2318.67 -9.38437 0.108857 0
M  V30 16944 C 2319.21 -9.08175 -1.28353 0
M  V30 16945 O 2318.15 -8.44229 -1.84713 0
M  V30 16946 C 2320.42 -8.18386 -1.42505 0
M  V30 16947 O 2321.16 -8.3501 -2.60497 0
M  V30 16948 C 2319.75 -6.80225 -1.25468 0
M  V30 16949 O 2320.55 -5.81621 -1.91066 0
M  V30 16950 C 2318.42 -7.02416 -1.9168 0
M  V30 16951 H 2318.45 -6.6888 -2.96621 0
M  V30 16952 H 2319.63 -6.53617 -0.192223 0
M  V30 16953 H 2321.12 -8.36622 -0.589963 0
M  V30 16954 H 2319.42 -10.0291 -1.79807 0
M  V30 16955 H 2319.23 -10.2138 0.558219 0
M  V30 16956 H 2317.6 -9.6579 0.0444202 0
M  V30 16957 H 2320.24 -5.69556 -2.79637 0
M  V30 16958 P 2322.1 -8.4349 -2.47671 0
M  V30 16959 O 2323.52 -8.92593 -2.65 0
M  V30 16960 O 2321.74 -7.7568 -1.19296 0
M  V30 16961 O 2321.78 -7.36886 -3.63805 0
M  V30 16962 C 2321.62 -7.95349 -4.982 0
M  V30 16963 C 2322.16 -6.94612 -5.98974 0
M  V30 16964 O 2321.1 -6.10347 -6.11815 0
M  V30 16965 C 2323.37 -6.11426 -5.62335 0
M  V30 16966 O 2324.11 -5.6162 -6.70584 0
M  V30 16967 C 2322.7 -5.04409 -4.73308 0
M  V30 16968 O 2323.5 -3.85992 -4.75183 0
M  V30 16969 C 2321.37 -4.8728 -5.41006 0
M  V30 16970 H 2321.4 -4.02333 -6.11157 0
M  V30 16971 H 2322.58 -5.39466 -3.69543 0
M  V30 16972 H 2324.07 -6.71916 -5.01943 0
M  V30 16973 H 2322.37 -7.4649 -6.93477 0
M  V30 16974 H 2322.18 -8.89416 -5.05237 0
M  V30 16975 H 2320.55 -8.14876 -5.18409 0
M  V30 16976 H 2323.19 -3.27957 -5.4317 0
M  V30 16977 P 2325.05 -5.75688 -6.64379 0
M  V30 16978 O 2326.47 -6.07627 -7.05504 0
M  V30 16979 O 2324.69 -5.88047 -5.19722 0
M  V30 16980 O 2324.73 -4.2322 -7.04443 0
M  V30 16981 C 2324.57 -3.99743 -8.4911 0
M  V30 16982 C 2325.11 -2.60516 -8.79425 0
M  V30 16983 O 2324.05 -1.82684 -8.4467 0
M  V30 16984 C 2326.32 -2.10343 -8.03628 0
M  V30 16985 O 2327.06 -1.09919 -8.67766 0
M  V30 16986 C 2325.66 -1.68446 -6.70876 0
M  V30 16987 O 2326.45 -0.678137 -6.08433 0
M  V30 16988 C 2324.32 -1.17436 -7.18567 0
M  V30 16989 H 2324.35 -0.0804732 -7.31656 0
M  V30 16990 H 2325.53 -2.54037 -6.02537 0
M  V30 16991 H 2327.02 -2.93881 -7.85526 0
M  V30 16992 H 2325.32 -2.53065 -9.86973 0
M  V30 16993 H 2325.13 -4.75072 -9.05887 0
M  V30 16994 H 2323.5 -4.05244 -8.76668 0
M  V30 16995 H 2326.14 0.177647 -6.34251 0
M  V30 16996 P 2328 -1.25109 -8.70152 0
M  V30 16997 O 2329.42 -1.29744 -9.22016 0
M  V30 16998 O 2327.64 -2.13714 -7.55141 0
M  V30 16999 O 2327.68 0.248149 -8.21425 0
M  V30 17000 C 2327.52 1.22779 -9.30434 0
M  V30 17001 C 2328.06 2.56293 -8.80664 0
M  V30 17002 O 2327 3.02979 -8.09349 0
M  V30 17003 C 2329.27 2.57523 -7.89775 0
M  V30 17004 O 2330.01 3.7668 -7.89438 0
M  V30 17005 C 2328.61 2.20997 -6.55446 0
M  V30 17006 O 2329.4 2.71895 -5.48509 0
M  V30 17007 C 2327.27 2.89693 -6.67988 0
M  V30 17008 H 2327.3 3.88793 -6.19859 0
M  V30 17009 H 2328.48 1.12046 -6.44229 0
M  V30 17010 H 2329.97 1.7746 -8.19711 0
M  V30 17011 H 2328.27 3.20706 -9.67112 0
M  V30 17012 H 2328.08 0.901032 -10.1892 0
M  V30 17013 H 2326.45 1.33049 -9.56592 0
M  V30 17014 H 2329.09 3.57847 -5.23962 0
M  V30 17015 P 2330.95 3.65191 -7.99657 0
M  V30 17016 O 2332.37 3.89332 -8.45794 0
M  V30 17017 O 2330.59 2.28472 -7.50807 0
M  V30 17018 O 2330.63 4.64972 -6.77611 0
M  V30 17019 C 2330.47 6.06319 -7.16352 0
M  V30 17020 C 2331.01 6.91731 -6.02299 0
M  V30 17021 O 2329.95 6.92449 -5.17064 0
M  V30 17022 C 2332.23 6.43627 -5.25174 0
M  V30 17023 O 2332.96 7.43686 -4.60469 0
M  V30 17024 C 2331.56 5.40275 -4.31916 0
M  V30 17025 O 2332.36 5.25279 -3.14438 0
M  V30 17026 C 2330.22 6.04847 -4.05327 0
M  V30 17027 H 2330.25 6.62195 -3.11261 0
M  V30 17028 H 2331.43 4.42556 -4.81383 0
M  V30 17029 H 2332.92 5.92458 -5.93643 0
M  V30 17030 H 2331.22 7.92655 -6.402 0
M  V30 17031 H 2331.03 6.26671 -8.0846 0
M  V30 17032 H 2329.4 6.29101 -7.32804 0
M  V30 17033 H 2332.04 5.84315 -2.47318 0
M  V30 17034 P 2333.9 7.39546 -4.75277 0
M  V30 17035 O 2335.32 7.84798 -5.01039 0
M  V30 17036 O 2333.54 5.9812 -5.08098 0
M  V30 17037 O 2333.58 7.57503 -3.1866 0
M  V30 17038 C 2333.42 8.97357 -2.74833 0
M  V30 17039 C 2333.96 9.07548 -1.32709 0
M  V30 17040 O 2332.9 8.62072 -0.606159 0
M  V30 17041 C 2335.18 8.25383 -0.938334 0
M  V30 17042 O 2335.91 8.74577 0.146954 0
M  V30 17043 C 2334.51 6.8802 -0.712559 0
M  V30 17044 O 2335.31 6.1189 0.194655 0
M  V30 17045 C 2333.17 7.27966 -0.139777 0
M  V30 17046 H 2333.2 7.25354 0.961601 0
M  V30 17047 H 2334.38 6.32557 -1.65702 0
M  V30 17048 H 2335.87 8.19355 -1.79097 0
M  V30 17049 H 2334.17 10.1294 -1.10029 0
M  V30 17050 H 2333.98 9.64276 -3.41316 0
M  V30 17051 H 2332.35 9.25417 -2.76357 0
M  V30 17052 H 2334.99 6.25267 1.07847 0
M  V30 17053 P 2336.85 8.791 2.03331e-11 0
M  V30 17054 O 2338.27 9.31096 0.027933 0
M  V30 17055 O 2336.49 7.77869 -1.04071 0
M  V30 17056 O 2336.53 8.09533 1.41463 0
M  V30 17057 C 2336.37 9.0349 2.53943 0
M  V30 17058 C 2336.91 8.35226 3.79016 0
M  V30 17059 O 2335.85 7.57992 4.15078 0
M  V30 17060 C 2338.13 7.45087 3.67298 0
M  V30 17061 O 2338.86 7.27796 4.85194 0
M  V30 17062 C 2337.46 6.17323 3.12027 0
M  V30 17063 O 2338.26 5.04231 3.47188 0
M  V30 17064 C 2336.12 6.19961 3.81809 0
M  V30 17065 H 2336.15 5.58218 4.73051 0
M  V30 17066 H 2337.34 6.21726 2.02589 0
M  V30 17067 H 2338.82 7.86112 2.9231 0
M  V30 17068 H 2337.13 9.11627 4.55076 0
M  V30 17069 H 2336.94 9.9573 2.34194 0
M  V30 17070 H 2335.31 9.2792 2.67832 0
M  V30 17071 H 2337.94 4.67702 4.28772 0
M  V30 17072 P 2339.8 7.39546 4.75277 0
M  V30 17073 O 2341.22 7.81777 5.05738 0
M  V30 17074 O 2339.44 7.1065 3.32998 0
M  V30 17075 O 2339.48 6.04542 5.56673 0
M  V30 17076 C 2339.32 6.22772 7.02095 0
M  V30 17077 C 2339.86 4.97725 7.70406 0
M  V30 17078 O 2338.8 4.13256 7.58987 0
M  V30 17079 C 2341.08 4.28231 7.11815 0
M  V30 17080 O 2341.82 3.49945 8.01648 0
M  V30 17081 C 2340.41 3.5063 5.96244 0
M  V30 17082 O 2341.21 2.36482 5.64681 0
M  V30 17083 C 2339.07 3.15122 6.56374 0
M  V30 17084 H 2339.1 2.13853 6.99751 0
M  V30 17085 H 2340.29 4.13501 5.06559 0
M  V30 17086 H 2341.77 5.03285 6.70911 0
M  V30 17087 H 2340.08 5.20877 8.75697 0
M  V30 17088 H 2339.89 7.11046 7.35349 0
M  V30 17089 H 2338.26 6.35815 7.26986 0
M  V30 17090 H 2340.9 1.61644 6.13565 0
M  V30 17091 P 2342.75 3.65191 7.99657 0
M  V30 17092 O 2344.17 3.8425 8.48115 0
M  V30 17093 O 2342.39 4.17805 6.64342 0
M  V30 17094 O 2342.43 2.07613 7.95143 0
M  V30 17095 C 2342.27 1.44328 9.27336 0
M  V30 17096 C 2342.81 0.0220036 9.17197 0
M  V30 17097 O 2341.75 -0.626867 8.61923 0
M  V30 17098 C 2344.03 -0.24586 8.30336 0
M  V30 17099 O 2344.77 -1.39011 8.63583 0
M  V30 17100 C 2343.36 -0.273849 6.91158 0
M  V30 17101 O 2344.16 -1.06348 6.02892 0
M  V30 17102 C 2342.02 -0.897649 7.22545 0
M  V30 17103 H 2342.05 -1.9841 7.04286 0
M  V30 17104 H 2343.24 0.739928 6.497 0
M  V30 17105 H 2344.72 0.60668 8.36503 0
M  V30 17106 H 2343.03 -0.352479 10.1829 0
M  V30 17107 H 2342.84 2.00611 10.0304 0
M  V30 17108 H 2341.21 1.41843 9.55327 0
M  V30 17109 H 2343.85 -1.95734 6.03555 0
M  V30 17110 P 2345.7 -1.25109 8.70152 0
M  V30 17111 O 2347.13 -1.35274 9.21221 0
M  V30 17112 O 2345.34 -0.0769065 7.84762 0
M  V30 17113 O 2345.38 -2.55232 7.81161 0
M  V30 17114 C 2345.22 -3.79939 8.58154 0
M  V30 17115 C 2345.76 -4.94023 7.72785 0
M  V30 17116 O 2344.7 -5.18726 6.91205 0
M  V30 17117 C 2346.98 -4.69597 6.85231 0
M  V30 17118 O 2347.72 -5.83832 6.51337 0
M  V30 17119 C 2346.31 -3.96706 5.66633 0
M  V30 17120 O 2347.11 -4.15414 4.49689 0
M  V30 17121 C 2344.97 -4.66153 5.59313 0
M  V30 17122 H 2345 -5.47679 4.85214 0
M  V30 17123 H 2346.19 -2.89008 5.86566 0
M  V30 17124 H 2347.67 -4.0121 7.36511 0
M  V30 17125 H 2345.98 -5.80182 8.37584 0
M  V30 17126 H 2345.79 -3.73517 9.52265 0
M  V30 17127 H 2344.16 -3.97163 8.80359 0
M  V30 17128 H 2346.8 -4.90969 4.01921 0
M  V30 17129 P 2348.65 -5.75688 6.64379 0
M  V30 17130 O 2350.08 -6.11981 7.01997 0
M  V30 17131 O 2348.29 -4.30744 6.56026 0
M  V30 17132 O 2348.33 -6.37042 5.19165 0
M  V30 17133 C 2348.17 -7.83578 5.16515 0
M  V30 17134 C 2348.71 -8.33307 3.82977 0
M  V30 17135 O 2347.66 -8.10074 3.01034 0
M  V30 17136 C 2349.93 -7.65514 3.2257 0
M  V30 17137 O 2350.67 -8.4329 2.32297 0
M  V30 17138 C 2349.26 -6.40075 2.62207 0
M  V30 17139 O 2350.06 -5.92492 1.53687 0
M  V30 17140 C 2347.92 -6.9454 2.18503 0
M  V30 17141 N 2346.88 -5.95905 2.39948 0
M  V30 17142 C 2346.94 -5.13994 3.44742 0
M  V30 17143 N 2345.9 -4.30684 3.46712 0
M  V30 17144 C 2345.16 -4.65583 2.41086 0
M  V30 17145 C 2343.86 -4.20877 1.99581 0
M  V30 17146 O 2343.12 -3.35913 2.52616 0
M  V30 17147 N 2343.43 -4.83271 0.873406 0
M  V30 17148 C 2344.18 -5.82006 0.185129 0
M  V30 17149 N 2343.58 -6.30619 -0.95439 0
M  V30 17150 N 2345.33 -6.28443 0.578524 0
M  V30 17151 C 2345.79 -5.68486 1.70138 0
M  V30 17152 H 2347.95 -7.23063 1.12091 0
M  V30 17153 H 2349.14 -5.60165 3.3715 0
M  V30 17154 H 2350.62 -7.3611 4.01946 0
M  V30 17155 H 2348.93 -9.40912 3.9095 0
M  V30 17156 H 2348.74 -8.29056 5.99158 0
M  V30 17157 H 2347.11 -8.10073 5.25882 0
M  V30 17158 H 2342.53 -4.58323 0.505262 0
M  V30 17159 H 2347.74 -5.14564 4.1935 0
M  V30 17160 H 2342.67 -5.93402 -1.25364 0
M  V30 17161 H 2344.04 -7.0425 -1.50254 0
M  V30 17162 H 2349.75 -6.30224 0.72668 0
M  V30 17163 P 2351.6 -8.4349 2.47671 0
M  V30 17164 O 2353.03 -8.94167 2.5964 0
M  V30 17165 O 2351.24 -7.1704 3.19006 0
M  V30 17166 O 2351.28 -8.16596 0.923387 0
M  V30 17167 C 2351.12 -9.38437 0.108857 0
M  V30 17168 C 2351.66 -9.08175 -1.28353 0
M  V30 17169 O 2350.61 -8.44229 -1.84713 0
M  V30 17170 C 2352.88 -8.18386 -1.42505 0
M  V30 17171 O 2353.62 -8.3501 -2.60497 0
M  V30 17172 C 2352.21 -6.80225 -1.25468 0
M  V30 17173 O 2353.01 -5.81621 -1.91066 0
M  V30 17174 C 2350.87 -7.02416 -1.9168 0
M  V30 17175 H 2350.91 -6.6888 -2.96621 0
M  V30 17176 H 2352.09 -6.53617 -0.192223 0
M  V30 17177 H 2353.57 -8.36622 -0.589963 0
M  V30 17178 H 2351.88 -10.0291 -1.79807 0
M  V30 17179 H 2351.69 -10.2138 0.558219 0
M  V30 17180 H 2350.06 -9.6579 0.0444202 0
M  V30 17181 H 2352.7 -5.69556 -2.79637 0
M  V30 17182 P 2354.55 -8.4349 -2.47671 0
M  V30 17183 O 2355.98 -8.92593 -2.65 0
M  V30 17184 O 2354.19 -7.7568 -1.19296 0
M  V30 17185 O 2354.23 -7.36886 -3.63805 0
M  V30 17186 C 2354.07 -7.95349 -4.982 0
M  V30 17187 C 2354.61 -6.94612 -5.98974 0
M  V30 17188 O 2353.56 -6.10347 -6.11815 0
M  V30 17189 C 2355.83 -6.11426 -5.62335 0
M  V30 17190 O 2356.57 -5.6162 -6.70584 0
M  V30 17191 C 2355.16 -5.04409 -4.73308 0
M  V30 17192 O 2355.96 -3.85992 -4.75183 0
M  V30 17193 C 2353.82 -4.8728 -5.41006 0
M  V30 17194 H 2353.86 -4.02333 -6.11157 0
M  V30 17195 H 2355.04 -5.39466 -3.69543 0
M  V30 17196 H 2356.52 -6.71916 -5.01943 0
M  V30 17197 H 2354.83 -7.4649 -6.93477 0
M  V30 17198 H 2354.64 -8.89416 -5.05237 0
M  V30 17199 H 2353.01 -8.14876 -5.18409 0
M  V30 17200 H 2355.65 -3.27957 -5.4317 0
M  V30 17201 P 2357.51 -5.75688 -6.64379 0
M  V30 17202 O 2358.91 -6.14823 -7.06682 0
M  V30 17203 O 2357.13 -5.93957 -5.20728 0
M  V30 17204 O 2357.18 -4.23169 -7.04357 0
M  V30 17205 C 2357.02 -3.99743 -8.4911 0
M  V30 17206 C 2357.56 -2.60487 -8.79329 0
M  V30 17207 O 2356.51 -1.82663 -8.44573 0
M  V30 17208 C 2358.78 -2.10343 -8.03628 0
M  V30 17209 O 2359.52 -1.09919 -8.67766 0
M  V30 17210 C 2358.11 -1.68446 -6.70876 0
M  V30 17211 O 2358.91 -0.678026 -6.08333 0
M  V30 17212 C 2356.77 -1.17436 -7.18567 0
M  V30 17213 N 2355.73 -1.52699 -6.23988 0
M  V30 17214 C 2354.7 -0.643793 -6.05085 0
M  V30 17215 O 2354.74 0.459118 -6.64315 0
M  V30 17216 N 2353.68 -0.976931 -5.22038 0
M  V30 17217 C 2353.73 -2.14429 -4.56662 0
M  V30 17218 C 2354.83 -3.04203 -4.71481 0
M  V30 17219 C 2355.79 -2.69669 -5.56838 0
M  V30 17220 H 2356.81 -0.0804622 -7.31556 0
M  V30 17221 H 2357.99 -2.53396 -6.02698 0
M  V30 17222 H 2359.47 -2.9313 -7.85914 0
M  V30 17223 H 2357.78 -2.52078 -9.87225 0
M  V30 17224 H 2357.59 -4.75072 -9.05887 0
M  V30 17225 H 2355.96 -4.05202 -8.76577 0
M  V30 17226 H 2354.88 -3.97309 -4.15519 0
M  V30 17227 H 2356.64 -3.36869 -5.72318 0
M  V30 17228 H 2358.69 0.167718 -6.44882 0
M  V30 17229 P 2360.46 -1.25109 -8.70152 0
M  V30 17230 O 2361.88 -1.29744 -9.22016 0
M  V30 17231 O 2360.1 -2.13714 -7.55141 0
M  V30 17232 O 2360.13 0.248149 -8.21425 0
M  V30 17233 C 2359.97 1.22779 -9.30434 0
M  V30 17234 C 2360.51 2.56293 -8.80664 0
M  V30 17235 O 2359.46 3.02979 -8.09349 0
M  V30 17236 C 2361.73 2.57523 -7.89775 0
M  V30 17237 O 2362.47 3.7668 -7.89438 0
M  V30 17238 C 2361.06 2.20997 -6.55446 0
M  V30 17239 O 2361.86 2.71895 -5.48509 0
M  V30 17240 C 2359.72 2.89693 -6.67988 0
M  V30 17241 H 2359.76 3.88793 -6.19859 0
M  V30 17242 H 2360.94 1.12046 -6.44229 0
M  V30 17243 H 2362.42 1.7746 -8.19711 0
M  V30 17244 H 2360.73 3.20706 -9.67112 0
M  V30 17245 H 2360.54 0.901032 -10.1892 0
M  V30 17246 H 2358.91 1.33049 -9.56592 0
M  V30 17247 H 2361.55 3.57847 -5.23962 0
M  V30 17248 P 2363.41 3.65191 -7.99657 0
M  V30 17249 O 2364.83 3.89416 -8.45976 0
M  V30 17250 O 2363.05 2.28472 -7.50807 0
M  V30 17251 O 2363.08 4.64972 -6.77611 0
M  V30 17252 C 2362.92 6.06319 -7.16352 0
M  V30 17253 C 2363.46 6.91655 -6.02234 0
M  V30 17254 O 2362.41 6.92449 -5.17064 0
M  V30 17255 C 2364.68 6.43627 -5.25174 0
M  V30 17256 O 2365.42 7.43686 -4.60469 0
M  V30 17257 C 2364.01 5.40275 -4.31916 0
M  V30 17258 O 2364.81 5.25193 -3.14386 0
M  V30 17259 C 2362.68 6.04847 -4.05327 0
M  V30 17260 N 2361.63 5.04166 -3.98114 0
M  V30 17261 C 2361.69 3.96049 -4.75587 0
M  V30 17262 N 2360.65 3.15559 -4.54006 0
M  V30 17263 C 2359.92 3.78802 -3.62491 0
M  V30 17264 C 2358.61 3.476 -3.10071 0
M  V30 17265 O 2357.88 2.51136 -3.37021 0
M  V30 17266 N 2358.18 4.39088 -2.19956 0
M  V30 17267 C 2358.93 5.53215 -1.81733 0
M  V30 17268 N 2358.33 6.31963 -0.860928 0
M  V30 17269 N 2360.08 5.86688 -2.32562 0
M  V30 17270 C 2360.54 4.97525 -3.23407 0
M  V30 17271 H 2362.71 6.62195 -3.11261 0
M  V30 17272 H 2363.89 4.42488 -4.8131 0
M  V30 17273 H 2365.38 5.93051 -5.9305 0
M  V30 17274 H 2363.68 7.92655 -6.402 0
M  V30 17275 H 2363.49 6.26671 -8.0846 0
M  V30 17276 H 2361.86 6.29101 -7.32804 0
M  V30 17277 H 2357.28 4.25523 -1.77604 0
M  V30 17278 H 2362.49 3.75576 -5.47333 0
M  V30 17279 H 2357.42 6.04684 -0.468946 0
M  V30 17280 H 2358.8 7.18054 -0.542422 0
M  V30 17281 H 2364.5 5.84223 -2.47279 0
M  V30 17282 P 2366.36 7.39546 -4.75277 0
M  V30 17283 O 2367.78 7.84798 -5.01039 0
M  V30 17284 O 2366 5.9812 -5.08098 0
M  V30 17285 O 2366.03 7.57503 -3.1866 0
M  V30 17286 C 2365.87 8.97357 -2.74833 0
M  V30 17287 C 2366.41 9.07548 -1.32709 0
M  V30 17288 O 2365.36 8.62072 -0.606159 0
M  V30 17289 C 2367.63 8.25383 -0.938334 0
M  V30 17290 O 2368.37 8.74577 0.146954 0
M  V30 17291 C 2366.96 6.8802 -0.712559 0
M  V30 17292 O 2367.76 6.1189 0.194655 0
M  V30 17293 C 2365.63 7.27966 -0.139777 0
M  V30 17294 H 2365.66 7.25354 0.961601 0
M  V30 17295 H 2366.84 6.32557 -1.65702 0
M  V30 17296 H 2368.33 8.19355 -1.79097 0
M  V30 17297 H 2366.63 10.1294 -1.10029 0
M  V30 17298 H 2366.44 9.64276 -3.41316 0
M  V30 17299 H 2364.81 9.25417 -2.76357 0
M  V30 17300 H 2367.45 6.25267 1.07847 0
M  V30 17301 P 2369.31 8.791 2.06433e-11 0
M  V30 17302 O 2370.73 9.31096 0.027933 0
M  V30 17303 O 2368.95 7.77869 -1.04071 0
M  V30 17304 O 2368.98 8.09533 1.41463 0
M  V30 17305 C 2368.82 9.0349 2.53943 0
M  V30 17306 C 2369.36 8.35226 3.79016 0
M  V30 17307 O 2368.31 7.57992 4.15078 0
M  V30 17308 C 2370.58 7.45087 3.67298 0
M  V30 17309 O 2371.32 7.27796 4.85194 0
M  V30 17310 C 2369.91 6.17323 3.12027 0
M  V30 17311 O 2370.71 5.04231 3.47188 0
M  V30 17312 C 2368.58 6.19961 3.81809 0
M  V30 17313 H 2368.61 5.58218 4.73051 0
M  V30 17314 H 2369.79 6.21726 2.02589 0
M  V30 17315 H 2371.28 7.86112 2.9231 0
M  V30 17316 H 2369.58 9.11627 4.55076 0
M  V30 17317 H 2369.39 9.9573 2.34194 0
M  V30 17318 H 2367.76 9.2792 2.67832 0
M  V30 17319 H 2370.4 4.67702 4.28772 0
M  V30 17320 P 2372.26 7.39546 4.75277 0
M  V30 17321 O 2373.68 7.81777 5.05738 0
M  V30 17322 O 2371.9 7.1065 3.32998 0
M  V30 17323 O 2371.94 6.04542 5.56673 0
M  V30 17324 C 2371.78 6.22772 7.02095 0
M  V30 17325 C 2372.32 4.97725 7.70406 0
M  V30 17326 O 2371.26 4.13256 7.58987 0
M  V30 17327 C 2373.53 4.28231 7.11815 0
M  V30 17328 O 2374.27 3.49945 8.01648 0
M  V30 17329 C 2372.86 3.5063 5.96244 0
M  V30 17330 O 2373.66 2.36482 5.64681 0
M  V30 17331 C 2371.53 3.15122 6.56374 0
M  V30 17332 H 2371.56 2.13853 6.99751 0
M  V30 17333 H 2372.74 4.13501 5.06559 0
M  V30 17334 H 2374.23 5.03285 6.70911 0
M  V30 17335 H 2372.53 5.20877 8.75697 0
M  V30 17336 H 2372.34 7.11046 7.35349 0
M  V30 17337 H 2370.71 6.35815 7.26986 0
M  V30 17338 H 2373.35 1.61644 6.13565 0
M  V30 17339 P 2375.21 3.65191 7.99657 0
M  V30 17340 O 2376.61 3.90823 8.51272 0
M  V30 17341 O 2374.83 4.23191 6.66972 0
M  V30 17342 O 2374.89 2.07587 7.95046 0
M  V30 17343 C 2374.73 1.44328 9.27336 0
M  V30 17344 C 2375.27 0.0220012 9.17097 0
M  V30 17345 O 2374.21 -0.626794 8.61824 0
M  V30 17346 C 2376.48 -0.24586 8.30336 0
M  V30 17347 O 2377.22 -1.39011 8.63583 0
M  V30 17348 C 2375.82 -0.273849 6.91158 0
M  V30 17349 O 2376.61 -1.06331 6.02794 0
M  V30 17350 C 2374.48 -0.897649 7.22545 0
M  V30 17351 N 2373.43 -0.292839 6.41732 0
M  V30 17352 C 2372.4 -1.08701 5.98712 0
M  V30 17353 O 2372.44 -2.31211 6.24471 0
M  V30 17354 N 2371.39 -0.533391 5.28415 0
M  V30 17355 C 2371.44 0.770866 4.98576 0
M  V30 17356 C 2372.53 1.59049 5.38086 0
M  V30 17357 C 2373.5 1.01866 6.10256 0
M  V30 17358 H 2374.51 -1.98383 7.04189 0
M  V30 17359 H 2375.69 0.733318 6.49674 0
M  V30 17360 H 2377.18 0.598386 8.36663 0
M  V30 17361 H 2375.48 -0.362662 10.1825 0
M  V30 17362 H 2375.29 2.00611 10.0304 0
M  V30 17363 H 2373.66 1.41828 9.55228 0
M  V30 17364 H 2372.58 2.6415 5.10622 0
M  V30 17365 H 2374.34 1.61983 6.44042 0
M  V30 17366 H 2376.4 -1.97777 6.14035 0
M  V30 17367 P 2378.16 -1.25109 8.70152 0
M  V30 17368 O 2379.58 -1.35274 9.21221 0
M  V30 17369 O 2377.8 -0.0769065 7.84762 0
M  V30 17370 O 2377.84 -2.55232 7.81161 0
M  V30 17371 C 2377.68 -3.79939 8.58154 0
M  V30 17372 C 2378.22 -4.94023 7.72785 0
M  V30 17373 O 2377.16 -5.18726 6.91205 0
M  V30 17374 C 2379.43 -4.69597 6.85231 0
M  V30 17375 O 2380.17 -5.83832 6.51337 0
M  V30 17376 C 2378.77 -3.96706 5.66633 0
M  V30 17377 O 2379.56 -4.15414 4.49689 0
M  V30 17378 C 2377.43 -4.66153 5.59313 0
M  V30 17379 H 2377.46 -5.47679 4.85214 0
M  V30 17380 H 2378.64 -2.89008 5.86566 0
M  V30 17381 H 2380.13 -4.0121 7.36511 0
M  V30 17382 H 2378.43 -5.80182 8.37584 0
M  V30 17383 H 2378.24 -3.73517 9.52265 0
M  V30 17384 H 2376.61 -3.97163 8.80359 0
M  V30 17385 H 2379.25 -4.90969 4.01921 0
M  V30 17386 P 2381.11 -5.75688 6.64379 0
M  V30 17387 O 2382.53 -6.11849 7.01846 0
M  V30 17388 O 2380.75 -4.30744 6.56026 0
M  V30 17389 O 2380.79 -6.37042 5.19165 0
M  V30 17390 C 2380.63 -7.83578 5.16515 0
M  V30 17391 C 2381.17 -8.33398 3.83019 0
M  V30 17392 O 2380.11 -8.10074 3.01034 0
M  V30 17393 C 2382.38 -7.65514 3.2257 0
M  V30 17394 O 2383.12 -8.4329 2.32297 0
M  V30 17395 C 2381.72 -6.40075 2.62207 0
M  V30 17396 O 2382.51 -5.92589 1.53712 0
M  V30 17397 C 2380.38 -6.9454 2.18503 0
M  V30 17398 H 2380.41 -7.23063 1.12091 0
M  V30 17399 H 2381.59 -5.6025 3.37201 0
M  V30 17400 H 2383.08 -7.35707 4.02681 0
M  V30 17401 H 2381.38 -9.40912 3.9095 0
M  V30 17402 H 2381.19 -8.29056 5.99158 0
M  V30 17403 H 2379.56 -8.10073 5.25882 0
M  V30 17404 H 2382.2 -6.30324 0.726794 0
M  V30 17405 P 2384.06 -8.4349 2.47671 0
M  V30 17406 O 2385.48 -8.94359 2.59696 0
M  V30 17407 O 2383.7 -7.1704 3.19006 0
M  V30 17408 O 2383.74 -8.16596 0.923387 0
M  V30 17409 C 2383.58 -9.38437 0.108857 0
M  V30 17410 C 2384.12 -9.08076 -1.28339 0
M  V30 17411 O 2383.06 -8.44229 -1.84713 0
M  V30 17412 C 2385.34 -8.18386 -1.42505 0
M  V30 17413 O 2386.07 -8.3501 -2.60497 0
M  V30 17414 C 2384.67 -6.80225 -1.25468 0
M  V30 17415 O 2385.47 -5.81526 -1.91035 0
M  V30 17416 C 2383.33 -7.02416 -1.9168 0
M  V30 17417 N 2382.29 -6.31033 -1.20314 0
M  V30 17418 C 2382.35 -6.18781 0.121293 0
M  V30 17419 N 2381.3 -5.49762 0.588272 0
M  V30 17420 C 2380.57 -5.22015 -0.488988 0
M  V30 17421 C 2379.26 -4.61966 -0.596448 0
M  V30 17422 O 2378.53 -4.19162 0.309059 0
M  V30 17423 N 2378.83 -4.53773 -1.878 0
M  V30 17424 C 2379.58 -4.99623 -2.99082 0
M  V30 17425 N 2378.99 -4.78912 -4.21227 0
M  V30 17426 N 2380.74 -5.59957 -2.91093 0
M  V30 17427 C 2381.19 -5.70225 -1.64218 0
M  V30 17428 H 2383.36 -6.6888 -2.96621 0
M  V30 17429 H 2384.54 -6.53517 -0.192194 0
M  V30 17430 H 2386.03 -8.36563 -0.598329 0
M  V30 17431 H 2384.33 -10.0291 -1.79807 0
M  V30 17432 H 2384.14 -10.2138 0.558219 0
M  V30 17433 H 2382.51 -9.6579 0.0444202 0
M  V30 17434 H 2377.94 -4.12883 -2.05283 0
M  V30 17435 H 2383.14 -6.59596 0.745856 0
M  V30 17436 H 2378.07 -4.31425 -4.2628 0
M  V30 17437 H 2379.45 -5.11219 -5.07148 0
M  V30 17438 H 2385.15 -5.69466 -2.79593 0
M  V30 17439 P 2387.01 -8.4349 -2.47671 0
M  V30 17440 O 2388.43 -8.92593 -2.65 0
M  V30 17441 O 2386.65 -7.7568 -1.19296 0
M  V30 17442 O 2386.69 -7.36886 -3.63805 0
M  V30 17443 C 2386.53 -7.95349 -4.982 0
M  V30 17444 C 2387.07 -6.94612 -5.98974 0
M  V30 17445 O 2386.01 -6.10347 -6.11815 0
M  V30 17446 C 2388.29 -6.11426 -5.62335 0
M  V30 17447 O 2389.02 -5.6162 -6.70584 0
M  V30 17448 C 2387.62 -5.04409 -4.73308 0
M  V30 17449 O 2388.42 -3.85992 -4.75183 0
M  V30 17450 C 2386.28 -4.8728 -5.41006 0
M  V30 17451 H 2386.31 -4.02333 -6.11157 0
M  V30 17452 H 2387.5 -5.39466 -3.69543 0
M  V30 17453 H 2388.98 -6.71916 -5.01943 0
M  V30 17454 H 2387.29 -7.4649 -6.93477 0
M  V30 17455 H 2387.1 -8.89416 -5.05237 0
M  V30 17456 H 2385.47 -8.14876 -5.18409 0
M  V30 17457 H 2388.1 -3.27957 -5.4317 0
M  V30 17458 P 2389.96 -5.75688 -6.64379 0
M  V30 17459 O 2391.38 -6.07627 -7.05504 0
M  V30 17460 O 2389.6 -5.88047 -5.19722 0
M  V30 17461 O 2389.64 -4.2322 -7.04443 0
M  V30 17462 C 2389.48 -3.99743 -8.4911 0
M  V30 17463 C 2390.02 -2.60516 -8.79425 0
M  V30 17464 O 2388.96 -1.82684 -8.4467 0
M  V30 17465 C 2391.24 -2.10343 -8.03628 0
M  V30 17466 O 2391.97 -1.09919 -8.67766 0
M  V30 17467 C 2390.57 -1.68446 -6.70876 0
M  V30 17468 O 2391.37 -0.678137 -6.08433 0
M  V30 17469 C 2389.23 -1.17436 -7.18567 0
M  V30 17470 H 2389.26 -0.0804732 -7.31656 0
M  V30 17471 H 2390.45 -2.54037 -6.02537 0
M  V30 17472 H 2391.93 -2.93881 -7.85526 0
M  V30 17473 H 2390.24 -2.53065 -9.86973 0
M  V30 17474 H 2390.05 -4.75072 -9.05887 0
M  V30 17475 H 2388.42 -4.05244 -8.76668 0
M  V30 17476 H 2391.05 0.177647 -6.34251 0
M  V30 17477 P 2392.91 -1.25109 -8.70152 0
M  V30 17478 O 2394.33 -1.29744 -9.22016 0
M  V30 17479 O 2392.55 -2.13714 -7.55141 0
M  V30 17480 O 2392.59 0.248149 -8.21425 0
M  V30 17481 C 2392.43 1.22779 -9.30434 0
M  V30 17482 C 2392.97 2.56293 -8.80664 0
M  V30 17483 O 2391.91 3.02979 -8.09349 0
M  V30 17484 C 2394.19 2.57523 -7.89775 0
M  V30 17485 O 2394.93 3.7668 -7.89438 0
M  V30 17486 C 2393.52 2.20997 -6.55446 0
M  V30 17487 O 2394.32 2.71895 -5.48509 0
M  V30 17488 C 2392.18 2.89693 -6.67988 0
M  V30 17489 H 2392.21 3.88793 -6.19859 0
M  V30 17490 H 2393.4 1.12046 -6.44229 0
M  V30 17491 H 2394.88 1.7746 -8.19711 0
M  V30 17492 H 2393.19 3.20706 -9.67112 0
M  V30 17493 H 2393 0.901032 -10.1892 0
M  V30 17494 H 2391.37 1.33049 -9.56592 0
M  V30 17495 H 2394.01 3.57847 -5.23962 0
M  V30 17496 P 2395.86 3.65191 -7.99657 0
M  V30 17497 O 2397.28 3.89332 -8.45794 0
M  V30 17498 O 2395.5 2.28472 -7.50807 0
M  V30 17499 O 2395.54 4.64972 -6.77611 0
M  V30 17500 C 2395.38 6.06319 -7.16352 0
M  V30 17501 C 2395.92 6.91731 -6.02299 0
M  V30 17502 O 2394.86 6.92449 -5.17064 0
M  V30 17503 C 2397.14 6.43627 -5.25174 0
M  V30 17504 O 2397.88 7.43686 -4.60469 0
M  V30 17505 C 2396.47 5.40275 -4.31916 0
M  V30 17506 O 2397.27 5.25279 -3.14438 0
M  V30 17507 C 2395.13 6.04847 -4.05327 0
M  V30 17508 H 2395.16 6.62195 -3.11261 0
M  V30 17509 H 2396.35 4.42556 -4.81383 0
M  V30 17510 H 2397.83 5.92458 -5.93643 0
M  V30 17511 H 2396.14 7.92655 -6.402 0
M  V30 17512 H 2395.95 6.26671 -8.0846 0
M  V30 17513 H 2394.32 6.29101 -7.32804 0
M  V30 17514 H 2396.96 5.84315 -2.47318 0
M  V30 17515 P 2398.81 7.39546 -4.75277 0
M  V30 17516 O 2400.24 7.84798 -5.01039 0
M  V30 17517 O 2398.45 5.9812 -5.08098 0
M  V30 17518 O 2398.49 7.57503 -3.1866 0
M  V30 17519 C 2398.33 8.97357 -2.74833 0
M  V30 17520 C 2398.87 9.07548 -1.32709 0
M  V30 17521 O 2397.81 8.62072 -0.606159 0
M  V30 17522 C 2400.09 8.25383 -0.938334 0
M  V30 17523 O 2400.83 8.74577 0.146954 0
M  V30 17524 C 2399.42 6.8802 -0.712559 0
M  V30 17525 O 2400.22 6.1189 0.194655 0
M  V30 17526 C 2398.08 7.27966 -0.139777 0
M  V30 17527 H 2398.11 7.25354 0.961601 0
M  V30 17528 H 2399.3 6.32557 -1.65702 0
M  V30 17529 H 2400.78 8.19355 -1.79097 0
M  V30 17530 H 2399.09 10.1294 -1.10029 0
M  V30 17531 H 2398.9 9.64276 -3.41316 0
M  V30 17532 H 2397.27 9.25417 -2.76357 0
M  V30 17533 H 2399.91 6.25267 1.07847 0
M  V30 17534 P 2401.76 8.791 2.09534e-11 0
M  V30 17535 O 2403.19 9.31096 0.027933 0
M  V30 17536 O 2401.4 7.77869 -1.04071 0
M  V30 17537 O 2401.44 8.09533 1.41463 0
M  V30 17538 C 2401.28 9.0349 2.53943 0
M  V30 17539 C 2401.82 8.35226 3.79016 0
M  V30 17540 O 2400.76 7.57992 4.15078 0
M  V30 17541 C 2403.04 7.45087 3.67298 0
M  V30 17542 O 2403.78 7.27796 4.85194 0
M  V30 17543 C 2402.37 6.17323 3.12027 0
M  V30 17544 O 2403.17 5.04231 3.47188 0
M  V30 17545 C 2401.03 6.19961 3.81809 0
M  V30 17546 H 2401.06 5.58218 4.73051 0
M  V30 17547 H 2402.25 6.21726 2.02589 0
M  V30 17548 H 2403.73 7.86112 2.9231 0
M  V30 17549 H 2402.04 9.11627 4.55076 0
M  V30 17550 H 2401.85 9.9573 2.34194 0
M  V30 17551 H 2400.22 9.2792 2.67832 0
M  V30 17552 H 2402.86 4.67702 4.28772 0
M  V30 17553 P 2404.71 7.39546 4.75277 0
M  V30 17554 O 2406.14 7.81777 5.05738 0
M  V30 17555 O 2404.35 7.1065 3.32998 0
M  V30 17556 O 2404.39 6.04542 5.56673 0
M  V30 17557 C 2404.23 6.22772 7.02095 0
M  V30 17558 C 2404.77 4.97725 7.70406 0
M  V30 17559 O 2403.72 4.13256 7.58987 0
M  V30 17560 C 2405.99 4.28231 7.11815 0
M  V30 17561 O 2406.73 3.49945 8.01648 0
M  V30 17562 C 2405.32 3.5063 5.96244 0
M  V30 17563 O 2406.12 2.36482 5.64681 0
M  V30 17564 C 2403.98 3.15122 6.56374 0
M  V30 17565 H 2404.02 2.13853 6.99751 0
M  V30 17566 H 2405.2 4.13501 5.06559 0
M  V30 17567 H 2406.68 5.03285 6.70911 0
M  V30 17568 H 2404.99 5.20877 8.75697 0
M  V30 17569 H 2404.8 7.11046 7.35349 0
M  V30 17570 H 2403.17 6.35815 7.26986 0
M  V30 17571 H 2405.81 1.61644 6.13565 0
M  V30 17572 P 2407.67 3.65191 7.99657 0
M  V30 17573 O 2409.09 3.8425 8.48115 0
M  V30 17574 O 2407.31 4.17805 6.64342 0
M  V30 17575 O 2407.34 2.07613 7.95143 0
M  V30 17576 C 2407.18 1.44328 9.27336 0
M  V30 17577 C 2407.72 0.0220036 9.17197 0
M  V30 17578 O 2406.67 -0.626867 8.61923 0
M  V30 17579 C 2408.94 -0.24586 8.30336 0
M  V30 17580 O 2409.68 -1.39011 8.63583 0
M  V30 17581 C 2408.27 -0.273849 6.91158 0
M  V30 17582 O 2409.07 -1.06348 6.02892 0
M  V30 17583 C 2406.93 -0.897649 7.22545 0
M  V30 17584 H 2406.97 -1.9841 7.04286 0
M  V30 17585 H 2408.15 0.739928 6.497 0
M  V30 17586 H 2409.63 0.60668 8.36503 0
M  V30 17587 H 2407.94 -0.352479 10.1829 0
M  V30 17588 H 2407.75 2.00611 10.0304 0
M  V30 17589 H 2406.12 1.41843 9.55327 0
M  V30 17590 H 2408.76 -1.95734 6.03555 0
M  V30 17591 P 2410.62 -1.25109 8.70152 0
M  V30 17592 O 2412.04 -1.35274 9.21221 0
M  V30 17593 O 2410.26 -0.0769065 7.84762 0
M  V30 17594 O 2410.29 -2.55232 7.81161 0
M  V30 17595 C 2410.13 -3.79939 8.58154 0
M  V30 17596 C 2410.67 -4.94023 7.72785 0
M  V30 17597 O 2409.62 -5.18726 6.91205 0
M  V30 17598 C 2411.89 -4.69597 6.85231 0
M  V30 17599 O 2412.63 -5.83832 6.51337 0
M  V30 17600 C 2411.22 -3.96706 5.66633 0
M  V30 17601 O 2412.02 -4.15414 4.49689 0
M  V30 17602 C 2409.88 -4.66153 5.59313 0
M  V30 17603 H 2409.92 -5.47679 4.85214 0
M  V30 17604 H 2411.1 -2.89008 5.86566 0
M  V30 17605 H 2412.58 -4.0121 7.36511 0
M  V30 17606 H 2410.89 -5.80182 8.37584 0
M  V30 17607 H 2410.7 -3.73517 9.52265 0
M  V30 17608 H 2409.07 -3.97163 8.80359 0
M  V30 17609 H 2411.71 -4.90969 4.01921 0
M  V30 17610 P 2413.57 -5.75688 6.64379 0
M  V30 17611 O 2414.99 -6.11915 7.01921 0
M  V30 17612 O 2413.21 -4.30744 6.56026 0
M  V30 17613 O 2413.24 -6.37042 5.19165 0
M  V30 17614 C 2413.08 -7.83662 5.1657 0
M  V30 17615 C 2413.62 -8.33398 3.83019 0
M  V30 17616 O 2412.57 -8.0998 3.00999 0
M  V30 17617 C 2414.84 -7.65514 3.2257 0
M  V30 17618 O 2415.58 -8.4329 2.32297 0
M  V30 17619 C 2414.17 -6.40075 2.62207 0
M  V30 17620 O 2414.97 -5.92338 1.5428 0
M  V30 17621 C 2412.84 -6.9454 2.18503 0
M  V30 17622 N 2411.79 -5.95905 2.39948 0
M  V30 17623 C 2411.96 -4.98383 3.32108 0
M  V30 17624 N 2410.93 -4.16798 3.41761 0
M  V30 17625 C 2410.05 -4.65287 2.47461 0
M  V30 17626 C 2408.78 -4.18946 2.07461 0
M  V30 17627 N 2408.18 -3.09661 2.60717 0
M  V30 17628 N 2408.22 -4.95327 1.09101 0
M  V30 17629 C 2408.82 -6.04369 0.519812 0
M  V30 17630 N 2410 -6.50694 0.855982 0
M  V30 17631 C 2410.57 -5.75818 1.84322 0
M  V30 17632 H 2412.87 -7.22964 1.12076 0
M  V30 17633 H 2414.05 -5.60502 3.36589 0
M  V30 17634 H 2415.53 -7.35707 4.02681 0
M  V30 17635 H 2413.84 -9.41302 3.90009 0
M  V30 17636 H 2413.65 -8.29056 5.99158 0
M  V30 17637 H 2412.02 -8.10073 5.25882 0
M  V30 17638 H 2408.28 -6.55843 -0.270373 0
M  V30 17639 H 2412.86 -4.88564 3.92502 0
M  V30 17640 H 2407.25 -2.80523 2.27218 0
M  V30 17641 H 2408.66 -2.55848 3.34465 0
M  V30 17642 H 2414.66 -6.30224 0.72668 0
M  V30 17643 P 2416.52 -8.4349 2.47671 0
M  V30 17644 O 2417.94 -8.94167 2.5964 0
M  V30 17645 O 2416.16 -7.1704 3.19006 0
M  V30 17646 O 2416.19 -8.16596 0.923387 0
M  V30 17647 C 2416.03 -9.38437 0.108857 0
M  V30 17648 C 2416.57 -9.08175 -1.28353 0
M  V30 17649 O 2415.52 -8.44229 -1.84713 0
M  V30 17650 C 2417.79 -8.18386 -1.42505 0
M  V30 17651 O 2418.53 -8.3501 -2.60497 0
M  V30 17652 C 2417.12 -6.80225 -1.25468 0
M  V30 17653 O 2417.92 -5.81621 -1.91066 0
M  V30 17654 C 2415.79 -7.02416 -1.9168 0
M  V30 17655 H 2415.82 -6.6888 -2.96621 0
M  V30 17656 H 2417 -6.53617 -0.192223 0
M  V30 17657 H 2418.48 -8.36622 -0.589963 0
M  V30 17658 H 2416.79 -10.0291 -1.79807 0
M  V30 17659 H 2416.6 -10.2138 0.558219 0
M  V30 17660 H 2414.97 -9.6579 0.0444202 0
M  V30 17661 H 2417.61 -5.69556 -2.79637 0
M  V30 17662 P 2419.47 -8.4349 -2.47671 0
M  V30 17663 O 2420.89 -8.92689 -2.65029 0
M  V30 17664 O 2419.11 -7.7568 -1.19296 0
M  V30 17665 O 2419.14 -7.36886 -3.63805 0
M  V30 17666 C 2418.98 -7.95433 -4.98253 0
M  V30 17667 C 2419.52 -6.94612 -5.98974 0
M  V30 17668 O 2418.47 -6.10277 -6.11744 0
M  V30 17669 C 2420.74 -6.11426 -5.62335 0
M  V30 17670 O 2421.48 -5.6162 -6.70584 0
M  V30 17671 C 2420.07 -5.04409 -4.73308 0
M  V30 17672 O 2420.87 -3.86404 -4.74719 0
M  V30 17673 C 2418.74 -4.8728 -5.41006 0
M  V30 17674 N 2417.69 -4.65812 -4.42377 0
M  V30 17675 C 2417.86 -5.09132 -3.15382 0
M  V30 17676 N 2416.84 -4.84021 -2.3716 0
M  V30 17677 C 2415.95 -4.18386 -3.20441 0
M  V30 17678 C 2414.68 -3.6275 -2.94905 0
M  V30 17679 N 2414.12 -3.05008 -4.05243 0
M  V30 17680 C 2414.72 -2.98348 -5.28159 0
M  V30 17681 N 2415.9 -3.48171 -5.56333 0
M  V30 17682 C 2416.47 -4.06869 -4.47212 0
M  V30 17683 H 2419.95 -5.39013 -3.70026 0
M  V30 17684 H 2421.43 -6.71916 -5.01943 0
M  V30 17685 H 2419.74 -7.45796 -6.94223 0
M  V30 17686 H 2419.55 -8.89416 -5.05237 0
M  V30 17687 H 2417.92 -8.14876 -5.18409 0
M  V30 17688 H 2418.76 -5.59989 -2.81362 0
M  V30 17689 H 2420.56 -3.27906 -5.43085 0
M  V30 17690 P 2422.42 -5.75688 -6.64379 0
M  V30 17691 O 2423.84 -6.07627 -7.05504 0
M  V30 17692 O 2422.06 -5.88047 -5.19722 0
M  V30 17693 O 2422.09 -4.2322 -7.04443 0
M  V30 17694 C 2421.93 -3.99743 -8.4911 0
M  V30 17695 C 2422.47 -2.60516 -8.79425 0
M  V30 17696 O 2421.42 -1.82684 -8.4467 0
M  V30 17697 C 2423.69 -2.10343 -8.03628 0
M  V30 17698 O 2424.43 -1.09919 -8.67766 0
M  V30 17699 C 2423.02 -1.68446 -6.70876 0
M  V30 17700 O 2423.82 -0.678137 -6.08433 0
M  V30 17701 C 2421.69 -1.17436 -7.18567 0
M  V30 17702 H 2421.72 -0.0804732 -7.31656 0
M  V30 17703 H 2422.9 -2.54037 -6.02537 0
M  V30 17704 H 2424.39 -2.93881 -7.85526 0
M  V30 17705 H 2422.69 -2.53065 -9.86973 0
M  V30 17706 H 2422.5 -4.75072 -9.05887 0
M  V30 17707 H 2420.87 -4.05244 -8.76668 0
M  V30 17708 H 2423.51 0.177647 -6.34251 0
M  V30 17709 P 2425.37 -1.25109 -8.70152 0
M  V30 17710 O 2426.79 -1.29758 -9.22115 0
M  V30 17711 O 2425.01 -2.13714 -7.55141 0
M  V30 17712 O 2425.05 0.248149 -8.21425 0
M  V30 17713 C 2424.88 1.22792 -9.30533 0
M  V30 17714 C 2425.43 2.56293 -8.80664 0
M  V30 17715 O 2424.37 3.02944 -8.09255 0
M  V30 17716 C 2426.64 2.57523 -7.89775 0
M  V30 17717 O 2427.38 3.7668 -7.89438 0
M  V30 17718 C 2425.98 2.20997 -6.55446 0
M  V30 17719 O 2426.77 2.71302 -5.48691 0
M  V30 17720 C 2424.64 2.89693 -6.67988 0
M  V30 17721 N 2423.59 2.08895 -6.07487 0
M  V30 17722 C 2423.76 0.753809 -5.94137 0
M  V30 17723 N 2422.74 0.146592 -5.38801 0
M  V30 17724 C 2421.85 1.1768 -5.13693 0
M  V30 17725 C 2420.58 1.17563 -4.52477 0
M  V30 17726 N 2419.99 0.057481 -4.04759 0
M  V30 17727 N 2420.02 2.41918 -4.45789 0
M  V30 17728 C 2420.62 3.56493 -4.90792 0
M  V30 17729 N 2421.8 3.61423 -5.47817 0
M  V30 17730 C 2422.37 2.37779 -5.5588 0
M  V30 17731 H 2424.67 3.8874 -6.19774 0
M  V30 17732 H 2425.85 1.12673 -6.44018 0
M  V30 17733 H 2427.34 1.7746 -8.19711 0
M  V30 17734 H 2425.64 3.21673 -9.66791 0
M  V30 17735 H 2425.45 0.901032 -10.1892 0
M  V30 17736 H 2423.82 1.33049 -9.56592 0
M  V30 17737 H 2420.09 4.49919 -4.77947 0
M  V30 17738 H 2424.66 0.233081 -6.26266 0
M  V30 17739 H 2419.06 0.119831 -3.60801 0
M  V30 17740 H 2420.46 -0.852272 -4.12385 0
M  V30 17741 H 2426.46 3.5779 -5.23879 0
M  V30 17742 P 2428.32 3.65191 -7.99657 0
M  V30 17743 O 2429.74 3.89332 -8.45794 0
M  V30 17744 O 2427.96 2.28472 -7.50807 0
M  V30 17745 O 2428 4.64972 -6.77611 0
M  V30 17746 C 2427.84 6.06319 -7.16352 0
M  V30 17747 C 2428.38 6.91731 -6.02299 0
M  V30 17748 O 2427.32 6.92449 -5.17064 0
M  V30 17749 C 2429.59 6.43627 -5.25174 0
M  V30 17750 O 2430.33 7.43686 -4.60469 0
M  V30 17751 C 2428.93 5.40275 -4.31916 0
M  V30 17752 O 2429.72 5.25279 -3.14438 0
M  V30 17753 C 2427.59 6.04847 -4.05327 0
M  V30 17754 H 2427.62 6.62195 -3.11261 0
M  V30 17755 H 2428.8 4.42556 -4.81383 0
M  V30 17756 H 2430.29 5.92458 -5.93643 0
M  V30 17757 H 2428.59 7.92655 -6.402 0
M  V30 17758 H 2428.4 6.26671 -8.0846 0
M  V30 17759 H 2426.77 6.29101 -7.32804 0
M  V30 17760 H 2429.41 5.84315 -2.47318 0
M  V30 17761 P 2431.27 7.39546 -4.75277 0
M  V30 17762 O 2432.69 7.84798 -5.01039 0
M  V30 17763 O 2430.91 5.9812 -5.08098 0
M  V30 17764 O 2430.95 7.57503 -3.1866 0
M  V30 17765 C 2430.79 8.97357 -2.74833 0
M  V30 17766 C 2431.33 9.07548 -1.32709 0
M  V30 17767 O 2430.27 8.62072 -0.606159 0
M  V30 17768 C 2432.54 8.25383 -0.938334 0
M  V30 17769 O 2433.28 8.74577 0.146954 0
M  V30 17770 C 2431.88 6.8802 -0.712559 0
M  V30 17771 O 2432.67 6.1189 0.194655 0
M  V30 17772 C 2430.54 7.27966 -0.139777 0
M  V30 17773 H 2430.57 7.25354 0.961601 0
M  V30 17774 H 2431.75 6.32557 -1.65702 0
M  V30 17775 H 2433.24 8.19355 -1.79097 0
M  V30 17776 H 2431.54 10.1294 -1.10029 0
M  V30 17777 H 2431.35 9.64276 -3.41316 0
M  V30 17778 H 2429.72 9.25417 -2.76357 0
M  V30 17779 H 2432.36 6.25267 1.07847 0
M  V30 17780 P 2434.22 8.791 2.12636e-11 0
M  V30 17781 O 2435.64 9.31096 0.027933 0
M  V30 17782 O 2433.86 7.77869 -1.04071 0
M  V30 17783 O 2433.9 8.09533 1.41463 0
M  V30 17784 C 2433.74 9.0349 2.53943 0
M  V30 17785 C 2434.28 8.35226 3.79016 0
M  V30 17786 O 2433.22 7.57992 4.15078 0
M  V30 17787 C 2435.5 7.45087 3.67298 0
M  V30 17788 O 2436.23 7.27796 4.85194 0
M  V30 17789 C 2434.83 6.17323 3.12027 0
M  V30 17790 O 2435.63 5.04231 3.47188 0
M  V30 17791 C 2433.49 6.19961 3.81809 0
M  V30 17792 H 2433.52 5.58218 4.73051 0
M  V30 17793 H 2434.7 6.21726 2.02589 0
M  V30 17794 H 2436.19 7.86112 2.9231 0
M  V30 17795 H 2434.49 9.11627 4.55076 0
M  V30 17796 H 2434.3 9.9573 2.34194 0
M  V30 17797 H 2432.67 9.2792 2.67832 0
M  V30 17798 H 2435.31 4.67702 4.28772 0
M  V30 17799 P 2437.17 7.39546 4.75277 0
M  V30 17800 O 2438.59 7.81777 5.05738 0
M  V30 17801 O 2436.81 7.1065 3.32998 0
M  V30 17802 O 2436.85 6.04542 5.56673 0
M  V30 17803 C 2436.69 6.22772 7.02095 0
M  V30 17804 C 2437.23 4.97725 7.70406 0
M  V30 17805 O 2436.17 4.13256 7.58987 0
M  V30 17806 C 2438.45 4.28231 7.11815 0
M  V30 17807 O 2439.18 3.49945 8.01648 0
M  V30 17808 C 2437.78 3.5063 5.96244 0
M  V30 17809 O 2438.58 2.36482 5.64681 0
M  V30 17810 C 2436.44 3.15122 6.56374 0
M  V30 17811 H 2436.47 2.13853 6.99751 0
M  V30 17812 H 2437.65 4.13501 5.06559 0
M  V30 17813 H 2439.14 5.03285 6.70911 0
M  V30 17814 H 2437.44 5.20877 8.75697 0
M  V30 17815 H 2437.25 7.11046 7.35349 0
M  V30 17816 H 2435.62 6.35815 7.26986 0
M  V30 17817 H 2438.26 1.61644 6.13565 0
M  V30 17818 P 2440.12 3.65191 7.99657 0
M  V30 17819 O 2441.54 3.84292 8.48206 0
M  V30 17820 O 2439.76 4.17805 6.64342 0
M  V30 17821 O 2439.8 2.07613 7.95143 0
M  V30 17822 C 2439.64 1.44344 9.27435 0
M  V30 17823 C 2440.18 0.0220036 9.17197 0
M  V30 17824 O 2439.12 -0.626794 8.61824 0
M  V30 17825 C 2441.4 -0.24586 8.30336 0
M  V30 17826 O 2442.13 -1.39011 8.63583 0
M  V30 17827 C 2440.73 -0.273849 6.91158 0
M  V30 17828 O 2441.53 -1.05728 6.029 0
M  V30 17829 C 2439.39 -0.897649 7.22545 0
M  V30 17830 N 2438.35 -0.292839 6.41732 0
M  V30 17831 C 2438.52 0.950603 5.91308 0
M  V30 17832 N 2437.49 1.37732 5.21105 0
M  V30 17833 C 2436.6 0.318109 5.26039 0
M  V30 17834 C 2435.34 0.146766 4.6727 0
M  V30 17835 N 2434.74 1.08519 3.89983 0
M  V30 17836 N 2434.77 -1.06525 4.95887 0
M  V30 17837 C 2435.37 -2.0378 5.71347 0
M  V30 17838 N 2436.55 -1.92445 6.27451 0
M  V30 17839 C 2437.13 -0.715382 6.00353 0
M  V30 17840 H 2439.42 -1.98383 7.04189 0
M  V30 17841 H 2440.61 0.733318 6.49674 0
M  V30 17842 H 2442.09 0.60668 8.36503 0
M  V30 17843 H 2440.39 -0.362662 10.1825 0
M  V30 17844 H 2440.2 2.00611 10.0304 0
M  V30 17845 H 2438.57 1.41843 9.55327 0
M  V30 17846 H 2434.84 -2.97041 5.85344 0
M  V30 17847 H 2439.42 1.54076 6.07465 0
M  V30 17848 H 2433.81 0.901517 3.49562 0
M  V30 17849 H 2435.21 1.97957 3.71669 0
M  V30 17850 H 2441.21 -1.95704 6.0346 0
M  V30 17851 P 2443.07 -1.25109 8.70152 0
M  V30 17852 O 2444.49 -1.35274 9.21221 0
M  V30 17853 O 2442.71 -0.0769065 7.84762 0
M  V30 17854 O 2442.75 -2.55232 7.81161 0
M  V30 17855 C 2442.59 -3.79939 8.58154 0
M  V30 17856 C 2443.13 -4.94023 7.72785 0
M  V30 17857 O 2442.07 -5.18726 6.91205 0
M  V30 17858 C 2444.35 -4.69597 6.85231 0
M  V30 17859 O 2445.08 -5.83832 6.51337 0
M  V30 17860 C 2443.68 -3.96706 5.66633 0
M  V30 17861 O 2444.48 -4.15414 4.49689 0
M  V30 17862 C 2442.34 -4.66153 5.59313 0
M  V30 17863 H 2442.37 -5.47679 4.85214 0
M  V30 17864 H 2443.56 -2.89008 5.86566 0
M  V30 17865 H 2445.04 -4.0121 7.36511 0
M  V30 17866 H 2443.35 -5.80182 8.37584 0
M  V30 17867 H 2443.16 -3.73517 9.52265 0
M  V30 17868 H 2441.53 -3.97163 8.80359 0
M  V30 17869 H 2444.16 -4.90969 4.01921 0
M  V30 17870 P 2446.02 -5.75688 6.64379 0
M  V30 17871 O 2447.44 -6.11849 7.01846 0
M  V30 17872 O 2445.66 -4.30744 6.56026 0
M  V30 17873 O 2445.7 -6.37042 5.19165 0
M  V30 17874 C 2445.54 -7.83578 5.16515 0
M  V30 17875 C 2446.08 -8.33398 3.83019 0
M  V30 17876 O 2445.02 -8.10074 3.01034 0
M  V30 17877 C 2447.3 -7.65514 3.2257 0
M  V30 17878 O 2448.04 -8.4329 2.32297 0
M  V30 17879 C 2446.63 -6.40075 2.62207 0
M  V30 17880 O 2447.43 -5.92589 1.53712 0
M  V30 17881 C 2445.29 -6.9454 2.18503 0
M  V30 17882 H 2445.32 -7.23063 1.12091 0
M  V30 17883 H 2446.51 -5.6025 3.37201 0
M  V30 17884 H 2447.99 -7.35707 4.02681 0
M  V30 17885 H 2446.3 -9.40912 3.9095 0
M  V30 17886 H 2446.11 -8.29056 5.99158 0
M  V30 17887 H 2444.48 -8.10073 5.25882 0
M  V30 17888 H 2447.12 -6.30324 0.726794 0
M  V30 17889 P 2448.97 -8.4349 2.47671 0
M  V30 17890 O 2450.4 -8.94167 2.5964 0
M  V30 17891 O 2448.61 -7.1704 3.19006 0
M  V30 17892 O 2448.65 -8.16596 0.923387 0
M  V30 17893 C 2448.49 -9.38437 0.108857 0
M  V30 17894 C 2449.03 -9.08175 -1.28353 0
M  V30 17895 O 2447.97 -8.44229 -1.84713 0
M  V30 17896 C 2450.25 -8.18386 -1.42505 0
M  V30 17897 O 2450.99 -8.3501 -2.60497 0
M  V30 17898 C 2449.58 -6.80225 -1.25468 0
M  V30 17899 O 2450.38 -5.81621 -1.91066 0
M  V30 17900 C 2448.24 -7.02416 -1.9168 0
M  V30 17901 H 2448.27 -6.6888 -2.96621 0
M  V30 17902 H 2449.46 -6.53617 -0.192223 0
M  V30 17903 H 2450.94 -8.36622 -0.589963 0
M  V30 17904 H 2449.25 -10.0291 -1.79807 0
M  V30 17905 H 2449.06 -10.2138 0.558219 0
M  V30 17906 H 2447.43 -9.6579 0.0444202 0
M  V30 17907 H 2450.07 -5.69556 -2.79637 0
M  V30 17908 P 2451.92 -8.4349 -2.47671 0
M  V30 17909 O 2453.35 -8.92593 -2.65 0
M  V30 17910 O 2451.56 -7.7568 -1.19296 0
M  V30 17911 O 2451.6 -7.36886 -3.63805 0
M  V30 17912 C 2451.44 -7.95349 -4.982 0
M  V30 17913 C 2451.98 -6.94612 -5.98974 0
M  V30 17914 O 2450.92 -6.10347 -6.11815 0
M  V30 17915 C 2453.2 -6.11426 -5.62335 0
M  V30 17916 O 2453.94 -5.6162 -6.70584 0
M  V30 17917 C 2452.53 -5.04409 -4.73308 0
M  V30 17918 O 2453.33 -3.85992 -4.75183 0
M  V30 17919 C 2451.19 -4.8728 -5.41006 0
M  V30 17920 H 2451.22 -4.02333 -6.11157 0
M  V30 17921 H 2452.41 -5.39466 -3.69543 0
M  V30 17922 H 2453.89 -6.71916 -5.01943 0
M  V30 17923 H 2452.2 -7.4649 -6.93477 0
M  V30 17924 H 2452.01 -8.89416 -5.05237 0
M  V30 17925 H 2450.38 -8.14876 -5.18409 0
M  V30 17926 H 2453.02 -3.27957 -5.4317 0
M  V30 17927 P 2454.87 -5.75688 -6.64379 0
M  V30 17928 O 2456.3 -6.07627 -7.05504 0
M  V30 17929 O 2454.51 -5.88047 -5.19722 0
M  V30 17930 O 2454.55 -4.2322 -7.04443 0
M  V30 17931 C 2454.39 -3.99743 -8.4911 0
M  V30 17932 C 2454.93 -2.60516 -8.79425 0
M  V30 17933 O 2453.88 -1.82684 -8.4467 0
M  V30 17934 C 2456.15 -2.10343 -8.03628 0
M  V30 17935 O 2456.89 -1.09919 -8.67766 0
M  V30 17936 C 2455.48 -1.68446 -6.70876 0
M  V30 17937 O 2456.28 -0.678137 -6.08433 0
M  V30 17938 C 2454.14 -1.17436 -7.18567 0
M  V30 17939 H 2454.18 -0.0804732 -7.31656 0
M  V30 17940 H 2455.36 -2.54037 -6.02537 0
M  V30 17941 H 2456.84 -2.93881 -7.85526 0
M  V30 17942 H 2455.15 -2.53065 -9.86973 0
M  V30 17943 H 2454.96 -4.75072 -9.05887 0
M  V30 17944 H 2453.33 -4.05244 -8.76668 0
M  V30 17945 H 2455.97 0.177647 -6.34251 0
M  V30 17946 P 2457.82 -1.25109 -8.70152 0
M  V30 17947 O 2459.25 -1.29744 -9.22016 0
M  V30 17948 O 2457.46 -2.13714 -7.55141 0
M  V30 17949 O 2457.5 0.248149 -8.21425 0
M  V30 17950 C 2457.34 1.22779 -9.30434 0
M  V30 17951 C 2457.88 2.56293 -8.80664 0
M  V30 17952 O 2456.83 3.02979 -8.09349 0
M  V30 17953 C 2459.1 2.57523 -7.89775 0
M  V30 17954 O 2459.84 3.7668 -7.89438 0
M  V30 17955 C 2458.43 2.20997 -6.55446 0
M  V30 17956 O 2459.23 2.71895 -5.48509 0
M  V30 17957 C 2457.09 2.89693 -6.67988 0
M  V30 17958 H 2457.13 3.88793 -6.19859 0
M  V30 17959 H 2458.31 1.12046 -6.44229 0
M  V30 17960 H 2459.79 1.7746 -8.19711 0
M  V30 17961 H 2458.1 3.20706 -9.67112 0
M  V30 17962 H 2457.91 0.901032 -10.1892 0
M  V30 17963 H 2456.28 1.33049 -9.56592 0
M  V30 17964 H 2458.92 3.57847 -5.23962 0
M  V30 17965 P 2460.78 3.65191 -7.99657 0
M  V30 17966 O 2462.2 3.89416 -8.45976 0
M  V30 17967 O 2460.42 2.28472 -7.50807 0
M  V30 17968 O 2460.45 4.64972 -6.77611 0
M  V30 17969 C 2460.29 6.06319 -7.16352 0
M  V30 17970 C 2460.83 6.91655 -6.02234 0
M  V30 17971 O 2459.78 6.92449 -5.17064 0
M  V30 17972 C 2462.05 6.43627 -5.25174 0
M  V30 17973 O 2462.79 7.43686 -4.60469 0
M  V30 17974 C 2461.38 5.40275 -4.31916 0
M  V30 17975 O 2462.18 5.25193 -3.14386 0
M  V30 17976 C 2460.04 6.04847 -4.05327 0
M  V30 17977 N 2459 5.04166 -3.98114 0
M  V30 17978 C 2459.06 3.96049 -4.75587 0
M  V30 17979 N 2458.02 3.15559 -4.54006 0
M  V30 17980 C 2457.28 3.78802 -3.62491 0
M  V30 17981 C 2455.98 3.476 -3.10071 0
M  V30 17982 O 2455.25 2.51136 -3.37021 0
M  V30 17983 N 2455.55 4.39088 -2.19956 0
M  V30 17984 C 2456.3 5.53215 -1.81733 0
M  V30 17985 N 2455.7 6.31963 -0.860928 0
M  V30 17986 N 2457.45 5.86688 -2.32562 0
M  V30 17987 C 2457.91 4.97525 -3.23407 0
M  V30 17988 H 2460.08 6.62195 -3.11261 0
M  V30 17989 H 2461.26 4.42488 -4.8131 0
M  V30 17990 H 2462.74 5.93051 -5.9305 0
M  V30 17991 H 2461.05 7.92655 -6.402 0
M  V30 17992 H 2460.86 6.26671 -8.0846 0
M  V30 17993 H 2459.23 6.29101 -7.32804 0
M  V30 17994 H 2454.65 4.25523 -1.77604 0
M  V30 17995 H 2459.86 3.75576 -5.47333 0
M  V30 17996 H 2454.79 6.04684 -0.468946 0
M  V30 17997 H 2456.17 7.18054 -0.542422 0
M  V30 17998 H 2461.87 5.84223 -2.47279 0
M  V30 17999 P 2463.73 7.39546 -4.75277 0
M  V30 18000 O 2465.15 7.84798 -5.01039 0
M  V30 18001 O 2463.37 5.9812 -5.08098 0
M  V30 18002 O 2463.4 7.57503 -3.1866 0
M  V30 18003 C 2463.24 8.97357 -2.74833 0
M  V30 18004 C 2463.78 9.07548 -1.32709 0
M  V30 18005 O 2462.73 8.62072 -0.606159 0
M  V30 18006 C 2465 8.25383 -0.938334 0
M  V30 18007 O 2465.74 8.74577 0.146954 0
M  V30 18008 C 2464.33 6.8802 -0.712559 0
M  V30 18009 O 2465.13 6.1189 0.194655 0
M  V30 18010 C 2462.99 7.27966 -0.139777 0
M  V30 18011 H 2463.03 7.25354 0.961601 0
M  V30 18012 H 2464.21 6.32557 -1.65702 0
M  V30 18013 H 2465.69 8.19355 -1.79097 0
M  V30 18014 H 2464 10.1294 -1.10029 0
M  V30 18015 H 2463.81 9.64276 -3.41316 0
M  V30 18016 H 2462.18 9.25417 -2.76357 0
M  V30 18017 H 2464.82 6.25267 1.07847 0
M  V30 18018 P 2466.68 8.791 2.15738e-11 0
M  V30 18019 O 2468.1 9.31096 0.027933 0
M  V30 18020 O 2466.32 7.77869 -1.04071 0
M  V30 18021 O 2466.35 8.09533 1.41463 0
M  V30 18022 C 2466.19 9.0349 2.53943 0
M  V30 18023 C 2466.73 8.35226 3.79016 0
M  V30 18024 O 2465.68 7.57992 4.15078 0
M  V30 18025 C 2467.95 7.45087 3.67298 0
M  V30 18026 O 2468.69 7.27796 4.85194 0
M  V30 18027 C 2467.28 6.17323 3.12027 0
M  V30 18028 O 2468.08 5.04231 3.47188 0
M  V30 18029 C 2465.95 6.19961 3.81809 0
M  V30 18030 H 2465.98 5.58218 4.73051 0
M  V30 18031 H 2467.16 6.21726 2.02589 0
M  V30 18032 H 2468.64 7.86112 2.9231 0
M  V30 18033 H 2466.95 9.11627 4.55076 0
M  V30 18034 H 2466.76 9.9573 2.34194 0
M  V30 18035 H 2465.13 9.2792 2.67832 0
M  V30 18036 H 2467.77 4.67702 4.28772 0
M  V30 18037 P 2469.63 7.39546 4.75277 0
M  V30 18038 O 2471.05 7.81861 5.05793 0
M  V30 18039 O 2469.27 7.1065 3.32998 0
M  V30 18040 O 2469.3 6.04542 5.56673 0
M  V30 18041 C 2469.14 6.22839 7.02169 0
M  V30 18042 C 2469.68 4.97725 7.70406 0
M  V30 18043 O 2468.63 4.13208 7.58899 0
M  V30 18044 C 2470.9 4.28231 7.11815 0
M  V30 18045 O 2471.64 3.49945 8.01648 0
M  V30 18046 C 2470.23 3.5063 5.96244 0
M  V30 18047 O 2471.03 2.37008 5.64352 0
M  V30 18048 C 2468.9 3.15122 6.56374 0
M  V30 18049 N 2467.85 3.22311 5.55692 0
M  V30 18050 C 2468.02 3.99655 4.46046 0
M  V30 18051 N 2467 3.97599 3.63918 0
M  V30 18052 C 2466.11 3.11159 4.25334 0
M  V30 18053 C 2464.84 2.64972 3.85157 0
M  V30 18054 N 2464.24 3.02132 2.69405 0
M  V30 18055 N 2464.28 1.78482 4.74759 0
M  V30 18056 C 2464.88 1.37463 5.90819 0
M  V30 18057 N 2466.06 1.7733 6.31889 0
M  V30 18058 C 2466.63 2.64393 5.43725 0
M  V30 18059 H 2468.93 2.13823 6.99656 0
M  V30 18060 H 2470.11 4.12931 5.06895 0
M  V30 18061 H 2471.59 5.03285 6.70911 0
M  V30 18062 H 2469.9 5.20001 8.76217 0
M  V30 18063 H 2469.71 7.11046 7.35349 0
M  V30 18064 H 2468.08 6.35815 7.26986 0
M  V30 18065 H 2464.34 0.66574 6.53015 0
M  V30 18066 H 2468.92 4.58037 4.27732 0
M  V30 18067 H 2463.31 2.64828 2.45331 0
M  V30 18068 H 2464.72 3.67472 2.05644 0
M  V30 18069 H 2470.72 1.61619 6.13468 0
M  V30 18070 P 2472.58 3.65191 7.99657 0
M  V30 18071 O 2474 3.8425 8.48115 0
M  V30 18072 O 2472.22 4.17805 6.64342 0
M  V30 18073 O 2472.25 2.07613 7.95143 0
M  V30 18074 C 2472.09 1.44328 9.27336 0
M  V30 18075 C 2472.63 0.0220036 9.17197 0
M  V30 18076 O 2471.58 -0.626867 8.61923 0
M  V30 18077 C 2473.85 -0.24586 8.30336 0
M  V30 18078 O 2474.59 -1.39011 8.63583 0
M  V30 18079 C 2473.18 -0.273849 6.91158 0
M  V30 18080 O 2473.98 -1.06348 6.02892 0
M  V30 18081 C 2471.85 -0.897649 7.22545 0
M  V30 18082 H 2471.88 -1.9841 7.04286 0
M  V30 18083 H 2473.06 0.739928 6.497 0
M  V30 18084 H 2474.55 0.60668 8.36503 0
M  V30 18085 H 2472.85 -0.352479 10.1829 0
M  V30 18086 H 2472.66 2.00611 10.0304 0
M  V30 18087 H 2471.03 1.41843 9.55327 0
M  V30 18088 H 2473.67 -1.95734 6.03555 0
M  V30 18089 P 2475.53 -1.25109 8.70152 0
M  V30 18090 O 2476.95 -1.35274 9.21221 0
M  V30 18091 O 2475.17 -0.0769065 7.84762 0
M  V30 18092 O 2475.21 -2.55232 7.81161 0
M  V30 18093 C 2475.05 -3.79939 8.58154 0
M  V30 18094 C 2475.59 -4.94023 7.72785 0
M  V30 18095 O 2474.53 -5.18726 6.91205 0
M  V30 18096 C 2476.8 -4.69597 6.85231 0
M  V30 18097 O 2477.54 -5.83832 6.51337 0
M  V30 18098 C 2476.13 -3.96706 5.66633 0
M  V30 18099 O 2476.93 -4.15414 4.49689 0
M  V30 18100 C 2474.8 -4.66153 5.59313 0
M  V30 18101 H 2474.83 -5.47679 4.85214 0
M  V30 18102 H 2476.01 -2.89008 5.86566 0
M  V30 18103 H 2477.5 -4.0121 7.36511 0
M  V30 18104 H 2475.8 -5.80182 8.37584 0
M  V30 18105 H 2475.61 -3.73517 9.52265 0
M  V30 18106 H 2473.98 -3.97163 8.80359 0
M  V30 18107 H 2476.62 -4.90969 4.01921 0
M  V30 18108 P 2478.48 -5.75688 6.64379 0
M  V30 18109 O 2479.9 -6.11981 7.01997 0
M  V30 18110 O 2478.12 -4.30744 6.56026 0
M  V30 18111 O 2478.16 -6.37042 5.19165 0
M  V30 18112 C 2478 -7.83578 5.16515 0
M  V30 18113 C 2478.54 -8.33307 3.82977 0
M  V30 18114 O 2477.48 -8.10074 3.01034 0
M  V30 18115 C 2479.75 -7.65514 3.2257 0
M  V30 18116 O 2480.49 -8.4329 2.32297 0
M  V30 18117 C 2479.09 -6.40075 2.62207 0
M  V30 18118 O 2479.88 -5.92492 1.53687 0
M  V30 18119 C 2477.75 -6.9454 2.18503 0
M  V30 18120 N 2476.7 -5.95905 2.39948 0
M  V30 18121 C 2476.77 -5.13994 3.44742 0
M  V30 18122 N 2475.72 -4.30684 3.46712 0
M  V30 18123 C 2474.99 -4.65583 2.41086 0
M  V30 18124 C 2473.68 -4.20877 1.99581 0
M  V30 18125 O 2472.95 -3.35913 2.52616 0
M  V30 18126 N 2473.25 -4.83271 0.873406 0
M  V30 18127 C 2474 -5.82006 0.185129 0
M  V30 18128 N 2473.4 -6.30619 -0.95439 0
M  V30 18129 N 2475.15 -6.28443 0.578524 0
M  V30 18130 C 2475.61 -5.68486 1.70138 0
M  V30 18131 H 2477.78 -7.23063 1.12091 0
M  V30 18132 H 2478.96 -5.60165 3.3715 0
M  V30 18133 H 2480.45 -7.3611 4.01946 0
M  V30 18134 H 2478.75 -9.40912 3.9095 0
M  V30 18135 H 2478.56 -8.29056 5.99158 0
M  V30 18136 H 2476.93 -8.10073 5.25882 0
M  V30 18137 H 2472.36 -4.58323 0.505262 0
M  V30 18138 H 2477.56 -5.14564 4.1935 0
M  V30 18139 H 2472.49 -5.93402 -1.25364 0
M  V30 18140 H 2473.87 -7.0425 -1.50254 0
M  V30 18141 H 2479.57 -6.30224 0.72668 0
M  V30 18142 P 2481.43 -8.4349 2.47671 0
M  V30 18143 O 2482.85 -8.94167 2.5964 0
M  V30 18144 O 2481.07 -7.1704 3.19006 0
M  V30 18145 O 2481.11 -8.16596 0.923387 0
M  V30 18146 C 2480.95 -9.38437 0.108857 0
M  V30 18147 C 2481.49 -9.08175 -1.28353 0
M  V30 18148 O 2480.43 -8.44229 -1.84713 0
M  V30 18149 C 2482.7 -8.18386 -1.42505 0
M  V30 18150 O 2483.44 -8.3501 -2.60497 0
M  V30 18151 C 2482.04 -6.80225 -1.25468 0
M  V30 18152 O 2482.83 -5.81621 -1.91066 0
M  V30 18153 C 2480.7 -7.02416 -1.9168 0
M  V30 18154 H 2480.73 -6.6888 -2.96621 0
M  V30 18155 H 2481.91 -6.53617 -0.192223 0
M  V30 18156 H 2483.4 -8.36622 -0.589963 0
M  V30 18157 H 2481.7 -10.0291 -1.79807 0
M  V30 18158 H 2481.51 -10.2138 0.558219 0
M  V30 18159 H 2479.88 -9.6579 0.0444202 0
M  V30 18160 H 2482.52 -5.69556 -2.79637 0
M  V30 18161 P 2484.38 -8.4349 -2.47671 0
M  V30 18162 O 2485.8 -8.92689 -2.65029 0
M  V30 18163 O 2484.02 -7.7568 -1.19296 0
M  V30 18164 O 2484.06 -7.36886 -3.63805 0
M  V30 18165 C 2483.9 -7.95433 -4.98253 0
M  V30 18166 C 2484.44 -6.94612 -5.98974 0
M  V30 18167 O 2483.38 -6.10277 -6.11744 0
M  V30 18168 C 2485.65 -6.11426 -5.62335 0
M  V30 18169 O 2486.39 -5.6162 -6.70584 0
M  V30 18170 C 2484.99 -5.04409 -4.73308 0
M  V30 18171 O 2485.78 -3.86404 -4.74719 0
M  V30 18172 C 2483.65 -4.8728 -5.41006 0
M  V30 18173 N 2482.61 -4.65812 -4.42377 0
M  V30 18174 C 2482.77 -5.09132 -3.15382 0
M  V30 18175 N 2481.75 -4.84021 -2.3716 0
M  V30 18176 C 2480.86 -4.18386 -3.20441 0
M  V30 18177 C 2479.6 -3.6275 -2.94905 0
M  V30 18178 N 2479 -3.65794 -1.73372 0
M  V30 18179 N 2479.03 -3.05008 -4.05243 0
M  V30 18180 C 2479.63 -2.98348 -5.28159 0
M  V30 18181 N 2480.81 -3.48171 -5.56333 0
M  V30 18182 C 2481.38 -4.06869 -4.47212 0
M  V30 18183 H 2483.68 -4.02278 -6.11074 0
M  V30 18184 H 2484.86 -5.39013 -3.70026 0
M  V30 18185 H 2486.35 -6.71916 -5.01943 0
M  V30 18186 H 2484.65 -7.45796 -6.94223 0
M  V30 18187 H 2484.46 -8.89416 -5.05237 0
M  V30 18188 H 2482.83 -8.14876 -5.18409 0
M  V30 18189 H 2479.1 -2.47853 -6.07807 0
M  V30 18190 H 2483.67 -5.59989 -2.81362 0
M  V30 18191 H 2478.07 -3.23218 -1.60782 0
M  V30 18192 H 2479.47 -4.10523 -0.937856 0
M  V30 18193 H 2485.47 -3.27906 -5.43085 0
M  V30 18194 P 2487.33 -5.75688 -6.64379 0
M  V30 18195 O 2488.75 -6.07627 -7.05504 0
M  V30 18196 O 2486.97 -5.88047 -5.19722 0
M  V30 18197 O 2487.01 -4.2322 -7.04443 0
M  V30 18198 C 2486.85 -3.99743 -8.4911 0
M  V30 18199 C 2487.39 -2.60516 -8.79425 0
M  V30 18200 O 2486.33 -1.82684 -8.4467 0
M  V30 18201 C 2488.61 -2.10343 -8.03628 0
M  V30 18202 O 2489.34 -1.09919 -8.67766 0
M  V30 18203 C 2487.94 -1.68446 -6.70876 0
M  V30 18204 O 2488.74 -0.678137 -6.08433 0
M  V30 18205 C 2486.6 -1.17436 -7.18567 0
M  V30 18206 H 2486.63 -0.0804732 -7.31656 0
M  V30 18207 H 2487.81 -2.54037 -6.02537 0
M  V30 18208 H 2489.3 -2.93881 -7.85526 0
M  V30 18209 H 2487.6 -2.53065 -9.86973 0
M  V30 18210 H 2487.41 -4.75072 -9.05887 0
M  V30 18211 H 2485.78 -4.05244 -8.76668 0
M  V30 18212 H 2488.42 0.177647 -6.34251 0
M  V30 18213 P 2490.28 -1.25109 -8.70152 0
M  V30 18214 O 2491.7 -1.29744 -9.22016 0
M  V30 18215 O 2489.92 -2.13714 -7.55141 0
M  V30 18216 O 2489.96 0.248149 -8.21425 0
M  V30 18217 C 2489.8 1.22779 -9.30434 0
M  V30 18218 C 2490.34 2.56293 -8.80664 0
M  V30 18219 O 2489.28 3.02979 -8.09349 0
M  V30 18220 C 2491.56 2.57523 -7.89775 0
M  V30 18221 O 2492.29 3.7668 -7.89438 0
M  V30 18222 C 2490.89 2.20997 -6.55446 0
M  V30 18223 O 2491.69 2.71895 -5.48509 0
M  V30 18224 C 2489.55 2.89693 -6.67988 0
M  V30 18225 H 2489.58 3.88793 -6.19859 0
M  V30 18226 H 2490.77 1.12046 -6.44229 0
M  V30 18227 H 2492.25 1.7746 -8.19711 0
M  V30 18228 H 2490.56 3.20706 -9.67112 0
M  V30 18229 H 2490.37 0.901032 -10.1892 0
M  V30 18230 H 2488.74 1.33049 -9.56592 0
M  V30 18231 H 2491.37 3.57847 -5.23962 0
M  V30 18232 P 2493.23 3.65191 -7.99657 0
M  V30 18233 O 2494.65 3.89374 -8.45885 0
M  V30 18234 O 2492.87 2.28472 -7.50807 0
M  V30 18235 O 2492.91 4.64972 -6.77611 0
M  V30 18236 C 2492.75 6.06383 -7.16428 0
M  V30 18237 C 2493.29 6.91731 -6.02299 0
M  V30 18238 O 2492.23 6.92369 -5.17005 0
M  V30 18239 C 2494.51 6.43627 -5.25174 0
M  V30 18240 O 2495.24 7.43686 -4.60469 0
M  V30 18241 C 2493.84 5.40275 -4.31916 0
M  V30 18242 O 2494.64 5.24878 -3.14911 0
M  V30 18243 C 2492.5 6.04847 -4.05327 0
M  V30 18244 N 2491.46 5.04166 -3.98114 0
M  V30 18245 C 2491.63 3.84629 -4.59066 0
M  V30 18246 N 2490.6 3.0363 -4.45343 0
M  V30 18247 C 2489.71 3.76722 -3.68523 0
M  V30 18248 C 2488.45 3.43528 -3.17088 0
M  V30 18249 N 2487.88 4.44526 -2.44231 0
M  V30 18250 C 2488.48 5.65243 -2.20146 0
M  V30 18251 N 2489.66 6.00221 -2.65453 0
M  V30 18252 C 2490.24 5.00564 -3.39083 0
M  V30 18253 H 2493.72 4.42969 -4.80867 0
M  V30 18254 H 2495.2 5.92458 -5.93643 0
M  V30 18255 H 2493.5 7.93295 -6.39407 0
M  V30 18256 H 2493.31 6.26671 -8.0846 0
M  V30 18257 H 2491.68 6.29101 -7.32804 0
M  V30 18258 H 2492.53 3.58193 -5.14248 0
M  V30 18259 H 2494.32 5.84223 -2.47279 0
M  V30 18260 P 2496.18 7.39546 -4.75277 0
M  V30 18261 O 2497.6 7.84798 -5.01039 0
M  V30 18262 O 2495.82 5.9812 -5.08098 0
M  V30 18263 O 2495.86 7.57503 -3.1866 0
M  V30 18264 C 2495.7 8.97357 -2.74833 0
M  V30 18265 C 2496.24 9.07548 -1.32709 0
M  V30 18266 O 2495.18 8.62072 -0.606159 0
M  V30 18267 C 2497.46 8.25383 -0.938334 0
M  V30 18268 O 2498.2 8.74577 0.146954 0
M  V30 18269 C 2496.79 6.8802 -0.712559 0
M  V30 18270 O 2497.59 6.1189 0.194655 0
M  V30 18271 C 2495.45 7.27966 -0.139777 0
M  V30 18272 H 2495.48 7.25354 0.961601 0
M  V30 18273 H 2496.67 6.32557 -1.65702 0
M  V30 18274 H 2498.15 8.19355 -1.79097 0
M  V30 18275 H 2496.46 10.1294 -1.10029 0
M  V30 18276 H 2496.27 9.64276 -3.41316 0
M  V30 18277 H 2494.64 9.25417 -2.76357 0
M  V30 18278 H 2497.28 6.25267 1.07847 0
M  V30 18279 P 2499.13 8.791 2.18839e-11 0
M  V30 18280 O 2500.55 9.31096 0.027933 0
M  V30 18281 O 2498.77 7.77869 -1.04071 0
M  V30 18282 O 2498.81 8.09533 1.41463 0
M  V30 18283 C 2498.65 9.0349 2.53943 0
M  V30 18284 C 2499.19 8.35226 3.79016 0
M  V30 18285 O 2498.13 7.57992 4.15078 0
M  V30 18286 C 2500.41 7.45087 3.67298 0
M  V30 18287 O 2501.15 7.27796 4.85194 0
M  V30 18288 C 2499.74 6.17323 3.12027 0
M  V30 18289 O 2500.54 5.04231 3.47188 0
M  V30 18290 C 2498.4 6.19961 3.81809 0
M  V30 18291 H 2498.43 5.58218 4.73051 0
M  V30 18292 H 2499.62 6.21726 2.02589 0
M  V30 18293 H 2501.1 7.86112 2.9231 0
M  V30 18294 H 2499.41 9.11627 4.55076 0
M  V30 18295 H 2499.22 9.9573 2.34194 0
M  V30 18296 H 2497.59 9.2792 2.67832 0
M  V30 18297 H 2500.23 4.67702 4.28772 0
M  V30 18298 P 2502.08 7.39546 4.75277 0
M  V30 18299 O 2503.51 7.81777 5.05738 0
M  V30 18300 O 2501.72 7.1065 3.32998 0
M  V30 18301 O 2501.76 6.04542 5.56673 0
M  V30 18302 C 2501.6 6.22772 7.02095 0
M  V30 18303 C 2502.14 4.97725 7.70406 0
M  V30 18304 O 2501.08 4.13256 7.58987 0
M  V30 18305 C 2503.36 4.28231 7.11815 0
M  V30 18306 O 2504.1 3.49945 8.01648 0
M  V30 18307 C 2502.69 3.5063 5.96244 0
M  V30 18308 O 2503.49 2.36482 5.64681 0
M  V30 18309 C 2501.35 3.15122 6.56374 0
M  V30 18310 H 2501.38 2.13853 6.99751 0
M  V30 18311 H 2502.57 4.13501 5.06559 0
M  V30 18312 H 2504.05 5.03285 6.70911 0
M  V30 18313 H 2502.36 5.20877 8.75697 0
M  V30 18314 H 2502.17 7.11046 7.35349 0
M  V30 18315 H 2500.54 6.35815 7.26986 0
M  V30 18316 H 2503.18 1.61644 6.13565 0
M  V30 18317 P 2505.03 3.65191 7.99657 0
M  V30 18318 O 2506.46 3.8425 8.48115 0
M  V30 18319 O 2504.67 4.17805 6.64342 0
M  V30 18320 O 2504.71 2.07613 7.95143 0
M  V30 18321 C 2504.55 1.44328 9.27336 0
M  V30 18322 C 2505.09 0.0220036 9.17197 0
M  V30 18323 O 2504.03 -0.626867 8.61923 0
M  V30 18324 C 2506.31 -0.24586 8.30336 0
M  V30 18325 O 2507.05 -1.39011 8.63583 0
M  V30 18326 C 2505.64 -0.273849 6.91158 0
M  V30 18327 O 2506.44 -1.06348 6.02892 0
M  V30 18328 C 2504.3 -0.897649 7.22545 0
M  V30 18329 H 2504.33 -1.9841 7.04286 0
M  V30 18330 H 2505.52 0.739928 6.497 0
M  V30 18331 H 2507 0.60668 8.36503 0
M  V30 18332 H 2505.31 -0.352479 10.1829 0
M  V30 18333 H 2505.12 2.00611 10.0304 0
M  V30 18334 H 2503.49 1.41843 9.55327 0
M  V30 18335 H 2506.13 -1.95734 6.03555 0
M  V30 18336 P 2507.98 -1.25109 8.70152 0
M  V30 18337 O 2509.41 -1.35274 9.21221 0
M  V30 18338 O 2507.62 -0.0769065 7.84762 0
M  V30 18339 O 2507.66 -2.55232 7.81161 0
M  V30 18340 C 2507.5 -3.79939 8.58154 0
M  V30 18341 C 2508.04 -4.94023 7.72785 0
M  V30 18342 O 2506.99 -5.18726 6.91205 0
M  V30 18343 C 2509.26 -4.69597 6.85231 0
M  V30 18344 O 2510 -5.83832 6.51337 0
M  V30 18345 C 2508.59 -3.96706 5.66633 0
M  V30 18346 O 2509.39 -4.15414 4.49689 0
M  V30 18347 C 2507.25 -4.66153 5.59313 0
M  V30 18348 H 2507.29 -5.47679 4.85214 0
M  V30 18349 H 2508.47 -2.89008 5.86566 0
M  V30 18350 H 2509.95 -4.0121 7.36511 0
M  V30 18351 H 2508.26 -5.80182 8.37584 0
M  V30 18352 H 2508.07 -3.73517 9.52265 0
M  V30 18353 H 2506.44 -3.97163 8.80359 0
M  V30 18354 H 2509.08 -4.90969 4.01921 0
M  V30 18355 P 2510.94 -5.75688 6.64379 0
M  V30 18356 O 2512.36 -6.11915 7.01921 0
M  V30 18357 O 2510.58 -4.30744 6.56026 0
M  V30 18358 O 2510.61 -6.37042 5.19165 0
M  V30 18359 C 2510.45 -7.83662 5.1657 0
M  V30 18360 C 2510.99 -8.33398 3.83019 0
M  V30 18361 O 2509.94 -8.0998 3.00999 0
M  V30 18362 C 2512.21 -7.65514 3.2257 0
M  V30 18363 O 2512.95 -8.4329 2.32297 0
M  V30 18364 C 2511.54 -6.40075 2.62207 0
M  V30 18365 O 2512.34 -5.92338 1.5428 0
M  V30 18366 C 2510.2 -6.9454 2.18503 0
M  V30 18367 N 2509.16 -5.95905 2.39948 0
M  V30 18368 C 2509.33 -4.98383 3.32108 0
M  V30 18369 N 2508.3 -4.16798 3.41761 0
M  V30 18370 C 2507.42 -4.65287 2.47461 0
M  V30 18371 C 2506.15 -4.18946 2.07461 0
M  V30 18372 N 2505.59 -4.95327 1.09101 0
M  V30 18373 C 2506.19 -6.04369 0.519812 0
M  V30 18374 N 2507.37 -6.50694 0.855982 0
M  V30 18375 C 2507.94 -5.75818 1.84322 0
M  V30 18376 H 2511.42 -5.60502 3.36589 0
M  V30 18377 H 2512.9 -7.35707 4.02681 0
M  V30 18378 H 2511.21 -9.41302 3.90009 0
M  V30 18379 H 2511.02 -8.29056 5.99158 0
M  V30 18380 H 2509.39 -8.10073 5.25882 0
M  V30 18381 H 2510.23 -4.88564 3.92502 0
M  V30 18382 H 2512.03 -6.30224 0.72668 0
M  V30 18383 P 2513.89 -8.4349 2.47671 0
M  V30 18384 O 2515.31 -8.94167 2.5964 0
M  V30 18385 O 2513.53 -7.1704 3.19006 0
M  V30 18386 O 2513.56 -8.16596 0.923387 0
M  V30 18387 C 2513.4 -9.38437 0.108857 0
M  V30 18388 C 2513.94 -9.08175 -1.28353 0
M  V30 18389 O 2512.89 -8.44229 -1.84713 0
M  V30 18390 C 2515.16 -8.18386 -1.42505 0
M  V30 18391 O 2515.9 -8.3501 -2.60497 0
M  V30 18392 C 2514.49 -6.80225 -1.25468 0
M  V30 18393 O 2515.29 -5.81621 -1.91066 0
M  V30 18394 C 2513.15 -7.02416 -1.9168 0
M  V30 18395 H 2513.19 -6.6888 -2.96621 0
M  V30 18396 H 2514.37 -6.53617 -0.192223 0
M  V30 18397 H 2515.85 -8.36622 -0.589963 0
M  V30 18398 H 2514.16 -10.0291 -1.79807 0
M  V30 18399 H 2513.97 -10.2138 0.558219 0
M  V30 18400 H 2512.34 -9.6579 0.0444202 0
M  V30 18401 H 2514.98 -5.69556 -2.79637 0
M  V30 18402 P 2516.84 -8.4349 -2.47671 0
M  V30 18403 O 2518.26 -8.92593 -2.65 0
M  V30 18404 O 2516.48 -7.7568 -1.19296 0
M  V30 18405 O 2516.51 -7.36886 -3.63805 0
M  V30 18406 C 2516.35 -7.95349 -4.982 0
M  V30 18407 C 2516.89 -6.94612 -5.98974 0
M  V30 18408 O 2515.84 -6.10347 -6.11815 0
M  V30 18409 C 2518.11 -6.11426 -5.62335 0
M  V30 18410 O 2518.85 -5.6162 -6.70584 0
M  V30 18411 C 2517.44 -5.04409 -4.73308 0
M  V30 18412 O 2518.24 -3.85992 -4.75183 0
M  V30 18413 C 2516.11 -4.8728 -5.41006 0
M  V30 18414 H 2516.14 -4.02333 -6.11157 0
M  V30 18415 H 2517.32 -5.39466 -3.69543 0
M  V30 18416 H 2518.8 -6.71916 -5.01943 0
M  V30 18417 H 2517.11 -7.4649 -6.93477 0
M  V30 18418 H 2516.92 -8.89416 -5.05237 0
M  V30 18419 H 2515.29 -8.14876 -5.18409 0
M  V30 18420 H 2517.93 -3.27957 -5.4317 0
M  V30 18421 P 2519.79 -5.75688 -6.64379 0
M  V30 18422 O 2521.21 -6.07627 -7.05504 0
M  V30 18423 O 2519.43 -5.88047 -5.19722 0
M  V30 18424 O 2519.46 -4.2322 -7.04443 0
M  V30 18425 C 2519.3 -3.99743 -8.4911 0
M  V30 18426 C 2519.84 -2.60516 -8.79425 0
M  V30 18427 O 2518.79 -1.82684 -8.4467 0
M  V30 18428 C 2521.06 -2.10343 -8.03628 0
M  V30 18429 O 2521.8 -1.09919 -8.67766 0
M  V30 18430 C 2520.39 -1.68446 -6.70876 0
M  V30 18431 O 2521.19 -0.678137 -6.08433 0
M  V30 18432 C 2519.06 -1.17436 -7.18567 0
M  V30 18433 H 2519.09 -0.0804732 -7.31656 0
M  V30 18434 H 2520.27 -2.54037 -6.02537 0
M  V30 18435 H 2521.75 -2.93881 -7.85526 0
M  V30 18436 H 2520.06 -2.53065 -9.86973 0
M  V30 18437 H 2519.87 -4.75072 -9.05887 0
M  V30 18438 H 2518.24 -4.05244 -8.76668 0
M  V30 18439 H 2520.88 0.177647 -6.34251 0
M  V30 18440 P 2522.74 -1.25109 -8.70152 0
M  V30 18441 O 2524.16 -1.29744 -9.22016 0
M  V30 18442 O 2522.38 -2.13714 -7.55141 0
M  V30 18443 O 2522.41 0.248149 -8.21425 0
M  V30 18444 C 2522.25 1.22779 -9.30434 0
M  V30 18445 C 2522.79 2.56293 -8.80664 0
M  V30 18446 O 2521.74 3.02979 -8.09349 0
M  V30 18447 C 2524.01 2.57523 -7.89775 0
M  V30 18448 O 2524.75 3.7668 -7.89438 0
M  V30 18449 C 2523.34 2.20997 -6.55446 0
M  V30 18450 O 2524.14 2.71895 -5.48509 0
M  V30 18451 C 2522.01 2.89693 -6.67988 0
M  V30 18452 H 2522.04 3.88793 -6.19859 0
M  V30 18453 H 2523.22 1.12046 -6.44229 0
M  V30 18454 H 2524.71 1.7746 -8.19711 0
M  V30 18455 H 2523.01 3.20706 -9.67112 0
M  V30 18456 H 2522.82 0.901032 -10.1892 0
M  V30 18457 H 2521.19 1.33049 -9.56592 0
M  V30 18458 H 2523.83 3.57847 -5.23962 0
M  V30 18459 P 2525.69 3.65191 -7.99657 0
M  V30 18460 O 2527.09 3.87414 -8.52829 0
M  V30 18461 O 2525.31 2.26932 -7.566 0
M  V30 18462 O 2525.36 4.64915 -6.77529 0
M  V30 18463 C 2525.2 6.06319 -7.16352 0
M  V30 18464 C 2525.74 6.91655 -6.02234 0
M  V30 18465 O 2524.69 6.92369 -5.17005 0
M  V30 18466 C 2526.96 6.43627 -5.25174 0
M  V30 18467 O 2527.7 7.43686 -4.60469 0
M  V30 18468 C 2526.29 5.40275 -4.31916 0
M  V30 18469 O 2527.09 5.25193 -3.14386 0
M  V30 18470 C 2524.96 6.04847 -4.05327 0
M  V30 18471 N 2523.91 5.04166 -3.98114 0
M  V30 18472 C 2522.88 5.2366 -3.09923 0
M  V30 18473 O 2522.92 6.23355 -2.34204 0
M  V30 18474 N 2521.87 4.34279 -3.05727 0
M  V30 18475 C 2521.91 3.26317 -3.84756 0
M  V30 18476 N 2520.9 2.40281 -3.79534 0
M  V30 18477 C 2523.01 3.02504 -4.72573 0
M  V30 18478 C 2523.98 3.94493 -4.76618 0
M  V30 18479 H 2524.99 6.62104 -3.11218 0
M  V30 18480 H 2526.17 4.42969 -4.80867 0
M  V30 18481 H 2527.66 5.93122 -5.93121 0
M  V30 18482 H 2525.96 7.93295 -6.39407 0
M  V30 18483 H 2525.77 6.26671 -8.0846 0
M  V30 18484 H 2524.14 6.29036 -7.32728 0
M  V30 18485 H 2523.06 2.12921 -5.34017 0
M  V30 18486 H 2524.82 3.80658 -5.44176 0
M  V30 18487 H 2520.11 2.57561 -3.15653 0
M  V30 18488 H 2520.91 1.56492 -4.39044 0
M  V30 18489 H 2526.88 5.93572 -2.52637 0
M  V30 18490 P 2528.64 7.39546 -4.75277 0
M  V30 18491 O 2530.06 7.84882 -5.01092 0
M  V30 18492 O 2528.28 5.9812 -5.08098 0
M  V30 18493 O 2528.32 7.57503 -3.1866 0
M  V30 18494 C 2528.15 8.97452 -2.74862 0
M  V30 18495 C 2528.7 9.07548 -1.32709 0
M  V30 18496 O 2527.64 8.61972 -0.606089 0
M  V30 18497 C 2529.91 8.25383 -0.938334 0
M  V30 18498 O 2530.65 8.74577 0.146954 0
M  V30 18499 C 2529.25 6.8802 -0.712559 0
M  V30 18500 O 2530.04 6.1181 0.188505 0
M  V30 18501 C 2527.91 7.27966 -0.139777 0
M  V30 18502 N 2526.86 6.39368 -0.623421 0
M  V30 18503 C 2527.03 5.71761 -1.78245 0
M  V30 18504 N 2526.01 4.962 -2.10491 0
M  V30 18505 C 2525.12 5.16158 -1.0635 0
M  V30 18506 C 2523.85 4.60425 -0.810266 0
M  V30 18507 N 2523.29 5.06 0.348685 0
M  V30 18508 C 2523.89 5.94532 1.20395 0
M  V30 18509 N 2525.07 6.48452 1.01191 0
M  V30 18510 C 2525.64 6.04423 -0.146291 0
M  V30 18511 H 2529.12 6.32625 -1.65044 0
M  V30 18512 H 2530.61 8.19355 -1.79097 0
M  V30 18513 H 2528.91 10.1305 -1.09016 0
M  V30 18514 H 2528.72 9.64276 -3.41316 0
M  V30 18515 H 2527.09 9.25417 -2.76357 0
M  V30 18516 H 2527.93 5.79354 -2.38959 0
M  V30 18517 H 2529.73 6.25169 1.0783 0
M  V30 18518 P 2531.59 8.791 2.21941e-11 0
M  V30 18519 O 2533.01 9.31096 0.027933 0
M  V30 18520 O 2531.23 7.77869 -1.04071 0
M  V30 18521 O 2531.27 8.09533 1.41463 0
M  V30 18522 C 2531.11 9.0349 2.53943 0
M  V30 18523 C 2531.65 8.35226 3.79016 0
M  V30 18524 O 2530.59 7.57992 4.15078 0
M  V30 18525 C 2532.86 7.45087 3.67298 0
M  V30 18526 O 2533.6 7.27796 4.85194 0
M  V30 18527 C 2532.2 6.17323 3.12027 0
M  V30 18528 O 2532.99 5.04231 3.47188 0
M  V30 18529 C 2530.86 6.19961 3.81809 0
M  V30 18530 H 2530.89 5.58218 4.73051 0
M  V30 18531 H 2532.07 6.21726 2.02589 0
M  V30 18532 H 2533.56 7.86112 2.9231 0
M  V30 18533 H 2531.86 9.11627 4.55076 0
M  V30 18534 H 2531.67 9.9573 2.34194 0
M  V30 18535 H 2530.04 9.2792 2.67832 0
M  V30 18536 H 2532.68 4.67702 4.28772 0
M  V30 18537 P 2534.54 7.39546 4.75277 0
M  V30 18538 O 2535.96 7.81777 5.05738 0
M  V30 18539 O 2534.18 7.1065 3.32998 0
M  V30 18540 O 2534.22 6.04542 5.56673 0
M  V30 18541 C 2534.06 6.22772 7.02095 0
M  V30 18542 C 2534.6 4.97725 7.70406 0
M  V30 18543 O 2533.54 4.13256 7.58987 0
M  V30 18544 C 2535.81 4.28231 7.11815 0
M  V30 18545 O 2536.55 3.49945 8.01648 0
M  V30 18546 C 2535.15 3.5063 5.96244 0
M  V30 18547 O 2535.94 2.36482 5.64681 0
M  V30 18548 C 2533.81 3.15122 6.56374 0
M  V30 18549 H 2533.84 2.13853 6.99751 0
M  V30 18550 H 2535.02 4.13501 5.06559 0
M  V30 18551 H 2536.51 5.03285 6.70911 0
M  V30 18552 H 2534.81 5.20877 8.75697 0
M  V30 18553 H 2534.62 7.11046 7.35349 0
M  V30 18554 H 2532.99 6.35815 7.26986 0
M  V30 18555 H 2535.63 1.61644 6.13565 0
M  V30 18556 P 2537.49 3.65191 7.99657 0
M  V30 18557 O 2538.91 3.84292 8.48206 0
M  V30 18558 O 2537.13 4.17805 6.64342 0
M  V30 18559 O 2537.17 2.07613 7.95143 0
M  V30 18560 C 2537.01 1.44344 9.27435 0
M  V30 18561 C 2537.55 0.0220036 9.17197 0
M  V30 18562 O 2536.49 -0.626794 8.61824 0
M  V30 18563 C 2538.77 -0.24586 8.30336 0
M  V30 18564 O 2539.5 -1.39011 8.63583 0
M  V30 18565 C 2538.1 -0.273849 6.91158 0
M  V30 18566 O 2538.9 -1.05728 6.029 0
M  V30 18567 C 2536.76 -0.897649 7.22545 0
M  V30 18568 N 2535.72 -0.292839 6.41732 0
M  V30 18569 C 2535.89 0.950603 5.91308 0
M  V30 18570 N 2534.86 1.37732 5.21105 0
M  V30 18571 C 2533.97 0.318109 5.26039 0
M  V30 18572 C 2532.71 0.146766 4.6727 0
M  V30 18573 N 2532.11 1.08519 3.89983 0
M  V30 18574 N 2532.14 -1.06525 4.95887 0
M  V30 18575 C 2532.74 -2.0378 5.71347 0
M  V30 18576 N 2533.92 -1.92445 6.27451 0
M  V30 18577 C 2534.5 -0.715382 6.00353 0
M  V30 18578 H 2536.79 -1.98383 7.04189 0
M  V30 18579 H 2537.97 0.733318 6.49674 0
M  V30 18580 H 2539.46 0.60668 8.36503 0
M  V30 18581 H 2537.76 -0.362662 10.1825 0
M  V30 18582 H 2537.57 2.00611 10.0304 0
M  V30 18583 H 2535.94 1.41843 9.55327 0
M  V30 18584 H 2532.21 -2.97041 5.85344 0
M  V30 18585 H 2536.79 1.54076 6.07465 0
M  V30 18586 H 2531.18 0.901517 3.49562 0
M  V30 18587 H 2532.58 1.97957 3.71669 0
M  V30 18588 H 2538.58 -1.95704 6.0346 0
M  V30 18589 P 2540.44 -1.25109 8.70152 0
M  V30 18590 O 2541.86 -1.35288 9.2132 0
M  V30 18591 O 2540.08 -0.0769065 7.84762 0
M  V30 18592 O 2540.12 -2.55232 7.81161 0
M  V30 18593 C 2539.96 -3.79979 8.58246 0
M  V30 18594 C 2540.5 -4.94023 7.72785 0
M  V30 18595 O 2539.44 -5.18666 6.91125 0
M  V30 18596 C 2541.72 -4.69597 6.85231 0
M  V30 18597 O 2542.45 -5.83832 6.51337 0
M  V30 18598 C 2541.05 -3.96706 5.66633 0
M  V30 18599 O 2541.85 -4.14896 4.5003 0
M  V30 18600 C 2539.71 -4.66153 5.59313 0
M  V30 18601 N 2538.67 -3.71582 5.24027 0
M  V30 18602 C 2538.84 -2.39715 5.48833 0
M  V30 18603 N 2537.81 -1.65863 5.12845 0
M  V30 18604 C 2536.92 -2.57637 4.5973 0
M  V30 18605 C 2535.66 -2.40278 4.01027 0
M  V30 18606 N 2535.06 -1.19549 3.86744 0
M  V30 18607 N 2535.09 -3.57711 3.59575 0
M  V30 18608 C 2535.69 -4.80324 3.70476 0
M  V30 18609 N 2536.87 -5.01121 4.23801 0
M  V30 18610 C 2537.45 -3.84757 4.66372 0
M  V30 18611 H 2539.74 -5.47604 4.85148 0
M  V30 18612 H 2540.92 -2.8955 5.86187 0
M  V30 18613 H 2542.41 -4.0121 7.36511 0
M  V30 18614 H 2540.71 -5.81019 8.37003 0
M  V30 18615 H 2540.52 -3.73517 9.52265 0
M  V30 18616 H 2538.89 -3.97163 8.80359 0
M  V30 18617 H 2535.16 -5.66348 3.3183 0
M  V30 18618 H 2539.74 -1.98804 5.94332 0
M  V30 18619 H 2534.13 -1.13147 3.4281 0
M  V30 18620 H 2535.53 -0.344074 4.19692 0
M  V30 18621 H 2541.53 -4.90891 4.01857 0
M  V30 18622 P 2543.39 -5.75688 6.64379 0
M  V30 18623 O 2544.81 -6.11849 7.01846 0
M  V30 18624 O 2543.03 -4.30744 6.56026 0
M  V30 18625 O 2543.07 -6.37042 5.19165 0
M  V30 18626 C 2542.91 -7.83578 5.16515 0
M  V30 18627 C 2543.45 -8.33398 3.83019 0
M  V30 18628 O 2542.39 -8.10074 3.01034 0
M  V30 18629 C 2544.67 -7.65514 3.2257 0
M  V30 18630 O 2545.4 -8.4329 2.32297 0
M  V30 18631 C 2544 -6.40075 2.62207 0
M  V30 18632 O 2544.8 -5.92589 1.53712 0
M  V30 18633 C 2542.66 -6.9454 2.18503 0
M  V30 18634 H 2542.69 -7.23063 1.12091 0
M  V30 18635 H 2543.88 -5.6025 3.37201 0
M  V30 18636 H 2545.36 -7.35707 4.02681 0
M  V30 18637 H 2543.67 -9.40912 3.9095 0
M  V30 18638 H 2543.48 -8.29056 5.99158 0
M  V30 18639 H 2541.85 -8.10073 5.25882 0
M  V30 18640 H 2544.48 -6.30324 0.726794 0
M  V30 18641 P 2546.34 -8.4349 2.47671 0
M  V30 18642 O 2547.76 -8.94167 2.5964 0
M  V30 18643 O 2545.98 -7.1704 3.19006 0
M  V30 18644 O 2546.02 -8.16596 0.923387 0
M  V30 18645 C 2545.86 -9.38437 0.108857 0
M  V30 18646 C 2546.4 -9.08175 -1.28353 0
M  V30 18647 O 2545.34 -8.44229 -1.84713 0
M  V30 18648 C 2547.62 -8.18386 -1.42505 0
M  V30 18649 O 2548.35 -8.3501 -2.60497 0
M  V30 18650 C 2546.95 -6.80225 -1.25468 0
M  V30 18651 O 2547.75 -5.81621 -1.91066 0
M  V30 18652 C 2545.61 -7.02416 -1.9168 0
M  V30 18653 H 2545.64 -6.6888 -2.96621 0
M  V30 18654 H 2546.83 -6.53617 -0.192223 0
M  V30 18655 H 2548.31 -8.36622 -0.589963 0
M  V30 18656 H 2546.62 -10.0291 -1.79807 0
M  V30 18657 H 2546.43 -10.2138 0.558219 0
M  V30 18658 H 2544.8 -9.6579 0.0444202 0
M  V30 18659 H 2547.43 -5.69556 -2.79637 0
M  V30 18660 P 2549.29 -8.4349 -2.47671 0
M  V30 18661 O 2550.71 -8.92593 -2.65 0
M  V30 18662 O 2548.93 -7.7568 -1.19296 0
M  V30 18663 O 2548.97 -7.36886 -3.63805 0
M  V30 18664 C 2548.81 -7.95349 -4.982 0
M  V30 18665 C 2549.35 -6.94612 -5.98974 0
M  V30 18666 O 2548.29 -6.10347 -6.11815 0
M  V30 18667 C 2550.57 -6.11426 -5.62335 0
M  V30 18668 O 2551.31 -5.6162 -6.70584 0
M  V30 18669 C 2549.9 -5.04409 -4.73308 0
M  V30 18670 O 2550.7 -3.85992 -4.75183 0
M  V30 18671 C 2548.56 -4.8728 -5.41006 0
M  V30 18672 H 2548.59 -4.02333 -6.11157 0
M  V30 18673 H 2549.78 -5.39466 -3.69543 0
M  V30 18674 H 2551.26 -6.71916 -5.01943 0
M  V30 18675 H 2549.57 -7.4649 -6.93477 0
M  V30 18676 H 2549.38 -8.89416 -5.05237 0
M  V30 18677 H 2547.75 -8.14876 -5.18409 0
M  V30 18678 H 2550.39 -3.27957 -5.4317 0
M  V30 18679 P 2552.24 -5.75688 -6.64379 0
M  V30 18680 O 2553.67 -6.07627 -7.05504 0
M  V30 18681 O 2551.88 -5.88047 -5.19722 0
M  V30 18682 O 2551.92 -4.2322 -7.04443 0
M  V30 18683 C 2551.76 -3.99743 -8.4911 0
M  V30 18684 C 2552.3 -2.60516 -8.79425 0
M  V30 18685 O 2551.24 -1.82684 -8.4467 0
M  V30 18686 C 2553.52 -2.10343 -8.03628 0
M  V30 18687 O 2554.26 -1.09919 -8.67766 0
M  V30 18688 C 2552.85 -1.68446 -6.70876 0
M  V30 18689 O 2553.65 -0.678137 -6.08433 0
M  V30 18690 C 2551.51 -1.17436 -7.18567 0
M  V30 18691 H 2551.54 -0.0804732 -7.31656 0
M  V30 18692 H 2552.73 -2.54037 -6.02537 0
M  V30 18693 H 2554.21 -2.93881 -7.85526 0
M  V30 18694 H 2552.52 -2.53065 -9.86973 0
M  V30 18695 H 2552.33 -4.75072 -9.05887 0
M  V30 18696 H 2550.7 -4.05244 -8.76668 0
M  V30 18697 H 2553.34 0.177647 -6.34251 0
M  V30 18698 P 2555.19 -1.25109 -8.70152 0
M  V30 18699 O 2556.62 -1.29744 -9.22016 0
M  V30 18700 O 2554.83 -2.13714 -7.55141 0
M  V30 18701 O 2554.87 0.248149 -8.21425 0
M  V30 18702 C 2554.71 1.22779 -9.30434 0
M  V30 18703 C 2555.25 2.56293 -8.80664 0
M  V30 18704 O 2554.19 3.02979 -8.09349 0
M  V30 18705 C 2556.47 2.57523 -7.89775 0
M  V30 18706 O 2557.21 3.7668 -7.89438 0
M  V30 18707 C 2555.8 2.20997 -6.55446 0
M  V30 18708 O 2556.6 2.71895 -5.48509 0
M  V30 18709 C 2554.46 2.89693 -6.67988 0
M  V30 18710 H 2554.49 3.88793 -6.19859 0
M  V30 18711 H 2555.68 1.12046 -6.44229 0
M  V30 18712 H 2557.16 1.7746 -8.19711 0
M  V30 18713 H 2555.47 3.20706 -9.67112 0
M  V30 18714 H 2555.28 0.901032 -10.1892 0
M  V30 18715 H 2553.65 1.33049 -9.56592 0
M  V30 18716 H 2556.29 3.57847 -5.23962 0
M  V30 18717 P 2558.14 3.65191 -7.99657 0
M  V30 18718 O 2559.57 3.89332 -8.45794 0
M  V30 18719 O 2557.78 2.28472 -7.50807 0
M  V30 18720 O 2557.82 4.64972 -6.77611 0
M  V30 18721 C 2557.66 6.06319 -7.16352 0
M  V30 18722 C 2558.2 6.91731 -6.02299 0
M  V30 18723 O 2557.15 6.92449 -5.17064 0
M  V30 18724 C 2559.42 6.43627 -5.25174 0
M  V30 18725 O 2560.16 7.43686 -4.60469 0
M  V30 18726 C 2558.75 5.40275 -4.31916 0
M  V30 18727 O 2559.55 5.25279 -3.14438 0
M  V30 18728 C 2557.41 6.04847 -4.05327 0
M  V30 18729 H 2557.45 6.62195 -3.11261 0
M  V30 18730 H 2558.63 4.42556 -4.81383 0
M  V30 18731 H 2560.11 5.92458 -5.93643 0
M  V30 18732 H 2558.42 7.92655 -6.402 0
M  V30 18733 H 2558.23 6.26671 -8.0846 0
M  V30 18734 H 2556.6 6.29101 -7.32804 0
M  V30 18735 H 2559.24 5.84315 -2.47318 0
M  V30 18736 P 2561.09 7.39546 -4.75277 0
M  V30 18737 O 2562.52 7.84798 -5.01039 0
M  V30 18738 O 2560.73 5.9812 -5.08098 0
M  V30 18739 O 2560.77 7.57503 -3.1866 0
M  V30 18740 C 2560.61 8.97357 -2.74833 0
M  V30 18741 C 2561.15 9.07548 -1.32709 0
M  V30 18742 O 2560.1 8.62072 -0.606159 0
M  V30 18743 C 2562.37 8.25383 -0.938334 0
M  V30 18744 O 2563.11 8.74577 0.146954 0
M  V30 18745 C 2561.7 6.8802 -0.712559 0
M  V30 18746 O 2562.5 6.1189 0.194655 0
M  V30 18747 C 2560.36 7.27966 -0.139777 0
M  V30 18748 H 2560.4 7.25354 0.961601 0
M  V30 18749 H 2561.58 6.32557 -1.65702 0
M  V30 18750 H 2563.06 8.19355 -1.79097 0
M  V30 18751 H 2561.37 10.1294 -1.10029 0
M  V30 18752 H 2561.18 9.64276 -3.41316 0
M  V30 18753 H 2559.55 9.25417 -2.76357 0
M  V30 18754 H 2562.19 6.25267 1.07847 0
M  V30 18755 P 2564.05 8.791 2.25043e-11 0
M  V30 18756 O 2565.47 9.31196 0.027936 0
M  V30 18757 O 2563.69 7.77869 -1.04071 0
M  V30 18758 O 2563.72 8.09533 1.41463 0
M  V30 18759 C 2563.56 9.03587 2.5397 0
M  V30 18760 C 2564.1 8.35226 3.79016 0
M  V30 18761 O 2563.05 7.57904 4.1503 0
M  V30 18762 C 2565.32 7.45087 3.67298 0
M  V30 18763 O 2566.06 7.27796 4.85194 0
M  V30 18764 C 2564.65 6.17323 3.12027 0
M  V30 18765 O 2565.45 5.04496 3.46627 0
M  V30 18766 C 2563.31 6.19961 3.81809 0
M  V30 18767 N 2562.27 5.71575 2.93223 0
M  V30 18768 C 2562.44 5.77362 1.59168 0
M  V30 18769 N 2561.41 5.3123 0.911893 0
M  V30 18770 C 2560.53 4.91717 1.89588 0
M  V30 18771 C 2559.26 4.3114 1.8076 0
M  V30 18772 N 2558.7 4.06823 3.02898 0
M  V30 18773 C 2559.3 4.35062 4.22711 0
M  V30 18774 N 2560.48 4.90805 4.35707 0
M  V30 18775 C 2561.05 5.16382 3.14469 0
M  V30 18776 H 2564.53 6.21428 2.0318 0
M  V30 18777 H 2566.01 7.86112 2.9231 0
M  V30 18778 H 2564.32 9.11171 4.55987 0
M  V30 18779 H 2564.13 9.9573 2.34194 0
M  V30 18780 H 2562.5 9.2792 2.67832 0
M  V30 18781 H 2563.34 6.16575 1.12198 0
M  V30 18782 H 2565.14 4.67628 4.28704 0
M  V30 18783 P 2567 7.39546 4.75277 0
M  V30 18784 O 2568.42 7.81777 5.05738 0
M  V30 18785 O 2566.64 7.1065 3.32998 0
M  V30 18786 O 2566.67 6.04542 5.56673 0
M  V30 18787 C 2566.51 6.22772 7.02095 0
M  V30 18788 C 2567.05 4.97725 7.70406 0
M  V30 18789 O 2566 4.13256 7.58987 0
M  V30 18790 C 2568.27 4.28231 7.11815 0
M  V30 18791 O 2569.01 3.49945 8.01648 0
M  V30 18792 C 2567.6 3.5063 5.96244 0
M  V30 18793 O 2568.4 2.36482 5.64681 0
M  V30 18794 C 2566.26 3.15122 6.56374 0
M  V30 18795 H 2566.3 2.13853 6.99751 0
M  V30 18796 H 2567.48 4.13501 5.06559 0
M  V30 18797 H 2568.96 5.03285 6.70911 0
M  V30 18798 H 2567.27 5.20877 8.75697 0
M  V30 18799 H 2567.08 7.11046 7.35349 0
M  V30 18800 H 2565.45 6.35815 7.26986 0
M  V30 18801 H 2568.09 1.61644 6.13565 0
M  V30 18802 P 2569.95 3.65191 7.99657 0
M  V30 18803 O 2571.37 3.8425 8.48115 0
M  V30 18804 O 2569.59 4.17805 6.64342 0
M  V30 18805 O 2569.62 2.07613 7.95143 0
M  V30 18806 C 2569.46 1.44328 9.27336 0
M  V30 18807 C 2570 0.0220036 9.17197 0
M  V30 18808 O 2568.95 -0.626867 8.61923 0
M  V30 18809 C 2571.22 -0.24586 8.30336 0
M  V30 18810 O 2571.96 -1.39011 8.63583 0
M  V30 18811 C 2570.55 -0.273849 6.91158 0
M  V30 18812 O 2571.35 -1.06348 6.02892 0
M  V30 18813 C 2569.22 -0.897649 7.22545 0
M  V30 18814 H 2569.25 -1.9841 7.04286 0
M  V30 18815 H 2570.43 0.739928 6.497 0
M  V30 18816 H 2571.91 0.60668 8.36503 0
M  V30 18817 H 2570.22 -0.352479 10.1829 0
M  V30 18818 H 2570.03 2.00611 10.0304 0
M  V30 18819 H 2568.4 1.41843 9.55327 0
M  V30 18820 H 2571.04 -1.95734 6.03555 0
M  V30 18821 P 2572.9 -1.25109 8.70152 0
M  V30 18822 O 2574.32 -1.35274 9.21221 0
M  V30 18823 O 2572.54 -0.0769065 7.84762 0
M  V30 18824 O 2572.57 -2.55232 7.81161 0
M  V30 18825 C 2572.41 -3.79939 8.58154 0
M  V30 18826 C 2572.95 -4.94023 7.72785 0
M  V30 18827 O 2571.9 -5.18726 6.91205 0
M  V30 18828 C 2574.17 -4.69597 6.85231 0
M  V30 18829 O 2574.91 -5.83832 6.51337 0
M  V30 18830 C 2573.5 -3.96706 5.66633 0
M  V30 18831 O 2574.3 -4.15414 4.49689 0
M  V30 18832 C 2572.17 -4.66153 5.59313 0
M  V30 18833 H 2572.2 -5.47679 4.85214 0
M  V30 18834 H 2573.38 -2.89008 5.86566 0
M  V30 18835 H 2574.87 -4.0121 7.36511 0
M  V30 18836 H 2573.17 -5.80182 8.37584 0
M  V30 18837 H 2572.98 -3.73517 9.52265 0
M  V30 18838 H 2571.35 -3.97163 8.80359 0
M  V30 18839 H 2573.99 -4.90969 4.01921 0
M  V30 18840 P 2575.85 -5.75688 6.64379 0
M  V30 18841 O 2577.25 -6.11991 7.09136 0
M  V30 18842 O 2575.47 -4.30899 6.62018 0
M  V30 18843 O 2575.52 -6.36965 5.19102 0
M  V30 18844 C 2575.36 -7.83578 5.16515 0
M  V30 18845 C 2575.9 -8.33307 3.82977 0
M  V30 18846 O 2574.85 -8.0998 3.00999 0
M  V30 18847 C 2577.12 -7.65514 3.2257 0
M  V30 18848 O 2577.86 -8.4329 2.32297 0
M  V30 18849 C 2576.45 -6.40075 2.62207 0
M  V30 18850 O 2577.25 -5.92492 1.53687 0
M  V30 18851 C 2575.12 -6.9454 2.18503 0
M  V30 18852 N 2574.07 -5.95905 2.39948 0
M  V30 18853 C 2573.04 -5.89764 1.49837 0
M  V30 18854 O 2573.08 -6.64088 0.490975 0
M  V30 18855 N 2572.03 -5.02821 1.70992 0
M  V30 18856 C 2572.07 -4.21498 2.77236 0
M  V30 18857 C 2573.17 -4.23389 3.68205 0
M  V30 18858 C 2574.14 -5.12792 3.46171 0
M  V30 18859 H 2575.15 -7.22964 1.12076 0
M  V30 18860 H 2576.33 -5.60502 3.36589 0
M  V30 18861 H 2577.82 -7.36197 4.01993 0
M  V30 18862 H 2576.12 -9.41302 3.90009 0
M  V30 18863 H 2575.93 -8.29056 5.99158 0
M  V30 18864 H 2574.3 -8.09989 5.25828 0
M  V30 18865 H 2573.22 -3.54747 4.52399 0
M  V30 18866 H 2574.98 -5.18551 4.1489 0
M  V30 18867 H 2577.04 -6.40705 0.751752 0
M  V30 18868 P 2578.8 -8.4349 2.47671 0
M  V30 18869 O 2580.22 -8.94167 2.5964 0
M  V30 18870 O 2578.44 -7.1704 3.19006 0
M  V30 18871 O 2578.48 -8.16596 0.923387 0
M  V30 18872 C 2578.32 -9.38437 0.108857 0
M  V30 18873 C 2578.86 -9.08175 -1.28353 0
M  V30 18874 O 2577.8 -8.44229 -1.84713 0
M  V30 18875 C 2580.07 -8.18386 -1.42505 0
M  V30 18876 O 2580.81 -8.3501 -2.60497 0
M  V30 18877 C 2579.4 -6.80225 -1.25468 0
M  V30 18878 O 2580.2 -5.81621 -1.91066 0
M  V30 18879 C 2578.07 -7.02416 -1.9168 0
M  V30 18880 H 2578.1 -6.6888 -2.96621 0
M  V30 18881 H 2579.28 -6.53617 -0.192223 0
M  V30 18882 H 2580.77 -8.36622 -0.589963 0
M  V30 18883 H 2579.07 -10.0291 -1.79807 0
M  V30 18884 H 2578.88 -10.2138 0.558219 0
M  V30 18885 H 2577.25 -9.6579 0.0444202 0
M  V30 18886 H 2579.89 -5.69556 -2.79637 0
M  V30 18887 P 2581.75 -8.4349 -2.47671 0
M  V30 18888 O 2583.17 -8.92593 -2.65 0
M  V30 18889 O 2581.39 -7.7568 -1.19296 0
M  V30 18890 O 2581.43 -7.36886 -3.63805 0
M  V30 18891 C 2581.27 -7.95349 -4.982 0
M  V30 18892 C 2581.81 -6.94612 -5.98974 0
M  V30 18893 O 2580.75 -6.10347 -6.11815 0
M  V30 18894 C 2583.02 -6.11426 -5.62335 0
M  V30 18895 O 2583.76 -5.6162 -6.70584 0
M  V30 18896 C 2582.35 -5.04409 -4.73308 0
M  V30 18897 O 2583.15 -3.85992 -4.75183 0
M  V30 18898 C 2581.02 -4.8728 -5.41006 0
M  V30 18899 H 2581.05 -4.02333 -6.11157 0
M  V30 18900 H 2582.23 -5.39466 -3.69543 0
M  V30 18901 H 2583.72 -6.71916 -5.01943 0
M  V30 18902 H 2582.02 -7.4649 -6.93477 0
M  V30 18903 H 2581.83 -8.89416 -5.05237 0
M  V30 18904 H 2580.2 -8.14876 -5.18409 0
M  V30 18905 H 2582.84 -3.27957 -5.4317 0
M  V30 18906 P 2584.7 -5.75688 -6.64379 0
M  V30 18907 O 2586.12 -6.07627 -7.05504 0
M  V30 18908 O 2584.34 -5.88047 -5.19722 0
M  V30 18909 O 2584.38 -4.2322 -7.04443 0
M  V30 18910 C 2584.22 -3.99743 -8.4911 0
M  V30 18911 C 2584.76 -2.60516 -8.79425 0
M  V30 18912 O 2583.7 -1.82684 -8.4467 0
M  V30 18913 C 2585.97 -2.10343 -8.03628 0
M  V30 18914 O 2586.71 -1.09919 -8.67766 0
M  V30 18915 C 2585.31 -1.68446 -6.70876 0
M  V30 18916 O 2586.1 -0.678137 -6.08433 0
M  V30 18917 C 2583.97 -1.17436 -7.18567 0
M  V30 18918 H 2584 -0.0804732 -7.31656 0
M  V30 18919 H 2585.18 -2.54037 -6.02537 0
M  V30 18920 H 2586.67 -2.93881 -7.85526 0
M  V30 18921 H 2584.97 -2.53065 -9.86973 0
M  V30 18922 H 2584.78 -4.75072 -9.05887 0
M  V30 18923 H 2583.15 -4.05244 -8.76668 0
M  V30 18924 H 2585.79 0.177647 -6.34251 0
M  V30 18925 P 2587.65 -1.25109 -8.70152 0
M  V30 18926 O 2589.07 -1.29772 -9.22214 0
M  V30 18927 O 2587.29 -2.13714 -7.55141 0
M  V30 18928 O 2587.33 0.248149 -8.21425 0
M  V30 18929 C 2587.17 1.22779 -9.30434 0
M  V30 18930 C 2587.71 2.56265 -8.80568 0
M  V30 18931 O 2586.65 3.02979 -8.09349 0
M  V30 18932 C 2588.92 2.57523 -7.89775 0
M  V30 18933 O 2589.66 3.7668 -7.89438 0
M  V30 18934 C 2588.26 2.20997 -6.55446 0
M  V30 18935 O 2589.05 2.71851 -5.48419 0
M  V30 18936 C 2586.92 2.89693 -6.67988 0
M  V30 18937 N 2585.88 2.08895 -6.07487 0
M  V30 18938 C 2585.94 0.760559 -6.14209 0
M  V30 18939 N 2584.89 0.200108 -5.52538 0
M  V30 18940 C 2584.16 1.22692 -5.09742 0
M  V30 18941 C 2582.85 1.24782 -4.48775 0
M  V30 18942 O 2582.12 0.290617 -4.19294 0
M  V30 18943 N 2582.42 2.50468 -4.22428 0
M  V30 18944 C 2583.17 3.67142 -4.51974 0
M  V30 18945 N 2582.57 4.85096 -4.14091 0
M  V30 18946 N 2584.32 3.67821 -5.12831 0
M  V30 18947 C 2584.78 2.43698 -5.4105 0
M  V30 18948 H 2586.95 3.88793 -6.19859 0
M  V30 18949 H 2588.13 1.12029 -6.4413 0
M  V30 18950 H 2589.62 1.78279 -8.19533 0
M  V30 18951 H 2587.92 3.20706 -9.67112 0
M  V30 18952 H 2587.73 0.901032 -10.1892 0
M  V30 18953 H 2586.1 1.33049 -9.56592 0
M  V30 18954 H 2581.53 2.61953 -3.79465 0
M  V30 18955 H 2586.73 0.200439 -6.63497 0
M  V30 18956 H 2581.66 4.8334 -3.66367 0
M  V30 18957 H 2583.04 5.7474 -4.33841 0
M  V30 18958 H 2588.74 3.5779 -5.23879 0
M  V30 18959 P 2590.6 3.65191 -7.99657 0
M  V30 18960 O 2592.02 3.89332 -8.45794 0
M  V30 18961 O 2590.24 2.28472 -7.50807 0
M  V30 18962 O 2590.28 4.64972 -6.77611 0
M  V30 18963 C 2590.12 6.06319 -7.16352 0
M  V30 18964 C 2590.66 6.91731 -6.02299 0
M  V30 18965 O 2589.6 6.92449 -5.17064 0
M  V30 18966 C 2591.88 6.43627 -5.25174 0
M  V30 18967 O 2592.61 7.43686 -4.60469 0
M  V30 18968 C 2591.21 5.40275 -4.31916 0
M  V30 18969 O 2592.01 5.25279 -3.14438 0
M  V30 18970 C 2589.87 6.04847 -4.05327 0
M  V30 18971 H 2589.9 6.62195 -3.11261 0
M  V30 18972 H 2591.08 4.42556 -4.81383 0
M  V30 18973 H 2592.57 5.92458 -5.93643 0
M  V30 18974 H 2590.87 7.92655 -6.402 0
M  V30 18975 H 2590.68 6.26671 -8.0846 0
M  V30 18976 H 2589.05 6.29101 -7.32804 0
M  V30 18977 H 2591.69 5.84315 -2.47318 0
M  V30 18978 P 2593.55 7.39546 -4.75277 0
M  V30 18979 O 2594.97 7.84798 -5.01039 0
M  V30 18980 O 2593.19 5.9812 -5.08098 0
M  V30 18981 O 2593.23 7.57503 -3.1866 0
M  V30 18982 C 2593.07 8.97357 -2.74833 0
M  V30 18983 C 2593.61 9.07548 -1.32709 0
M  V30 18984 O 2592.55 8.62072 -0.606159 0
M  V30 18985 C 2594.83 8.25383 -0.938334 0
M  V30 18986 O 2595.56 8.74577 0.146954 0
M  V30 18987 C 2594.16 6.8802 -0.712559 0
M  V30 18988 O 2594.96 6.1189 0.194655 0
M  V30 18989 C 2592.82 7.27966 -0.139777 0
M  V30 18990 H 2592.85 7.25354 0.961601 0
M  V30 18991 H 2594.04 6.32557 -1.65702 0
M  V30 18992 H 2595.52 8.19355 -1.79097 0
M  V30 18993 H 2593.83 10.1294 -1.10029 0
M  V30 18994 H 2593.64 9.64276 -3.41316 0
M  V30 18995 H 2592.01 9.25417 -2.76357 0
M  V30 18996 H 2594.64 6.25267 1.07847 0
M  V30 18997 P 2596.5 8.791 2.28144e-11 0
M  V30 18998 O 2597.92 9.31096 0.027933 0
M  V30 18999 O 2596.14 7.77869 -1.04071 0
M  V30 19000 O 2596.18 8.09533 1.41463 0
M  V30 19001 C 2596.02 9.0349 2.53943 0
M  V30 19002 C 2596.56 8.35226 3.79016 0
M  V30 19003 O 2595.5 7.57992 4.15078 0
M  V30 19004 C 2597.78 7.45087 3.67298 0
M  V30 19005 O 2598.51 7.27796 4.85194 0
M  V30 19006 C 2597.11 6.17323 3.12027 0
M  V30 19007 O 2597.91 5.04231 3.47188 0
M  V30 19008 C 2595.77 6.19961 3.81809 0
M  V30 19009 H 2595.8 5.58218 4.73051 0
M  V30 19010 H 2596.99 6.21726 2.02589 0
M  V30 19011 H 2598.47 7.86112 2.9231 0
M  V30 19012 H 2596.78 9.11627 4.55076 0
M  V30 19013 H 2596.59 9.9573 2.34194 0
M  V30 19014 H 2594.96 9.2792 2.67832 0
M  V30 19015 H 2597.59 4.67702 4.28772 0
M  V30 19016 P 2599.45 7.39546 4.75277 0
M  V30 19017 O 2600.87 7.81945 5.05847 0
M  V30 19018 O 2599.09 7.1065 3.32998 0
M  V30 19019 O 2599.13 6.04542 5.56673 0
M  V30 19020 C 2598.97 6.22772 7.02095 0
M  V30 19021 C 2599.51 4.97671 7.70322 0
M  V30 19022 O 2598.45 4.13256 7.58987 0
M  V30 19023 C 2600.73 4.28231 7.11815 0
M  V30 19024 O 2601.47 3.49945 8.01648 0
M  V30 19025 C 2600.06 3.5063 5.96244 0
M  V30 19026 O 2600.86 2.36443 5.64589 0
M  V30 19027 C 2598.72 3.15122 6.56374 0
M  V30 19028 N 2597.68 3.22311 5.55692 0
M  V30 19029 C 2597.74 4.14382 4.59701 0
M  V30 19030 N 2596.7 4.04476 3.76958 0
M  V30 19031 C 2595.96 3.04892 4.26534 0
M  V30 19032 C 2594.66 2.57447 3.88189 0
M  V30 19033 O 2593.92 2.9785 2.96543 0
M  V30 19034 N 2594.23 1.55228 4.65922 0
M  V30 19035 C 2594.97 1.01152 5.73447 0
M  V30 19036 N 2594.38 -0.0472117 6.37783 0
M  V30 19037 N 2596.13 1.467 6.13813 0
M  V30 19038 C 2596.58 2.4931 5.38487 0
M  V30 19039 H 2598.75 2.13853 6.99751 0
M  V30 19040 H 2599.94 4.13438 5.06482 0
M  V30 19041 H 2601.42 5.02614 6.71414 0
M  V30 19042 H 2599.73 5.20877 8.75697 0
M  V30 19043 H 2599.54 7.11046 7.35349 0
M  V30 19044 H 2597.91 6.35815 7.26986 0
M  V30 19045 H 2593.33 1.15238 4.46468 0
M  V30 19046 H 2598.54 4.88312 4.49647 0
M  V30 19047 H 2593.47 -0.396382 6.05203 0
M  V30 19048 H 2594.84 -0.484997 7.18465 0
M  V30 19049 H 2600.55 1.61619 6.13468 0
M  V30 19050 P 2602.4 3.65191 7.99657 0
M  V30 19051 O 2603.82 3.8425 8.48115 0
M  V30 19052 O 2602.04 4.17805 6.64342 0
M  V30 19053 O 2602.08 2.07613 7.95143 0
M  V30 19054 C 2601.92 1.44328 9.27336 0
M  V30 19055 C 2602.46 0.0220036 9.17197 0
M  V30 19056 O 2601.4 -0.626867 8.61923 0
M  V30 19057 C 2603.68 -0.24586 8.30336 0
M  V30 19058 O 2604.42 -1.39011 8.63583 0
M  V30 19059 C 2603.01 -0.273849 6.91158 0
M  V30 19060 O 2603.81 -1.06348 6.02892 0
M  V30 19061 C 2601.67 -0.897649 7.22545 0
M  V30 19062 H 2601.7 -1.9841 7.04286 0
M  V30 19063 H 2602.89 0.739928 6.497 0
M  V30 19064 H 2604.37 0.60668 8.36503 0
M  V30 19065 H 2602.68 -0.352479 10.1829 0
M  V30 19066 H 2602.49 2.00611 10.0304 0
M  V30 19067 H 2600.86 1.41843 9.55327 0
M  V30 19068 H 2603.5 -1.95734 6.03555 0
M  V30 19069 P 2605.35 -1.25109 8.70152 0
M  V30 19070 O 2606.78 -1.35274 9.21221 0
M  V30 19071 O 2604.99 -0.0769065 7.84762 0
M  V30 19072 O 2605.03 -2.55232 7.81161 0
M  V30 19073 C 2604.87 -3.79939 8.58154 0
M  V30 19074 C 2605.41 -4.94023 7.72785 0
M  V30 19075 O 2604.35 -5.18726 6.91205 0
M  V30 19076 C 2606.63 -4.69597 6.85231 0
M  V30 19077 O 2607.37 -5.83832 6.51337 0
M  V30 19078 C 2605.96 -3.96706 5.66633 0
M  V30 19079 O 2606.76 -4.15414 4.49689 0
M  V30 19080 C 2604.62 -4.66153 5.59313 0
M  V30 19081 H 2604.65 -5.47679 4.85214 0
M  V30 19082 H 2605.84 -2.89008 5.86566 0
M  V30 19083 H 2607.32 -4.0121 7.36511 0
M  V30 19084 H 2605.63 -5.80182 8.37584 0
M  V30 19085 H 2605.44 -3.73517 9.52265 0
M  V30 19086 H 2603.81 -3.97163 8.80359 0
M  V30 19087 H 2606.45 -4.90969 4.01921 0
M  V30 19088 P 2608.3 -5.75688 6.64379 0
M  V30 19089 O 2609.73 -6.11849 7.01846 0
M  V30 19090 O 2607.94 -4.30744 6.56026 0
M  V30 19091 O 2607.98 -6.37042 5.19165 0
M  V30 19092 C 2607.82 -7.83578 5.16515 0
M  V30 19093 C 2608.36 -8.33398 3.83019 0
M  V30 19094 O 2607.3 -8.10074 3.01034 0
M  V30 19095 C 2609.58 -7.65514 3.2257 0
M  V30 19096 O 2610.32 -8.4329 2.32297 0
M  V30 19097 C 2608.91 -6.40075 2.62207 0
M  V30 19098 O 2609.71 -5.92589 1.53712 0
M  V30 19099 C 2607.57 -6.9454 2.18503 0
M  V30 19100 H 2607.6 -7.23063 1.12091 0
M  V30 19101 H 2608.79 -5.6025 3.37201 0
M  V30 19102 H 2610.27 -7.35707 4.02681 0
M  V30 19103 H 2608.58 -9.40912 3.9095 0
M  V30 19104 H 2608.39 -8.29056 5.99158 0
M  V30 19105 H 2606.76 -8.10073 5.25882 0
M  V30 19106 H 2609.4 -6.30324 0.726794 0
M  V30 19107 P 2611.25 -8.4349 2.47671 0
M  V30 19108 O 2612.68 -8.94359 2.59696 0
M  V30 19109 O 2610.89 -7.1704 3.19006 0
M  V30 19110 O 2610.93 -8.16596 0.923387 0
M  V30 19111 C 2610.77 -9.38437 0.108857 0
M  V30 19112 C 2611.31 -9.08076 -1.28339 0
M  V30 19113 O 2610.26 -8.44229 -1.84713 0
M  V30 19114 C 2612.53 -8.18386 -1.42505 0
M  V30 19115 O 2613.27 -8.3501 -2.60497 0
M  V30 19116 C 2611.86 -6.80225 -1.25468 0
M  V30 19117 O 2612.66 -5.81526 -1.91035 0
M  V30 19118 C 2610.52 -7.02416 -1.9168 0
M  V30 19119 N 2609.48 -6.31033 -1.20314 0
M  V30 19120 C 2609.54 -6.18781 0.121293 0
M  V30 19121 N 2608.5 -5.49762 0.588272 0
M  V30 19122 C 2607.76 -5.22015 -0.488988 0
M  V30 19123 C 2606.46 -4.61966 -0.596448 0
M  V30 19124 O 2605.72 -4.19162 0.309059 0
M  V30 19125 N 2606.03 -4.53773 -1.878 0
M  V30 19126 C 2606.78 -4.99623 -2.99082 0
M  V30 19127 N 2606.18 -4.78912 -4.21227 0
M  V30 19128 N 2607.93 -5.59957 -2.91093 0
M  V30 19129 C 2608.39 -5.70225 -1.64218 0
M  V30 19130 H 2610.56 -6.6888 -2.96621 0
M  V30 19131 H 2611.74 -6.53517 -0.192194 0
M  V30 19132 H 2613.22 -8.36563 -0.598329 0
M  V30 19133 H 2611.53 -10.0291 -1.79807 0
M  V30 19134 H 2611.34 -10.2138 0.558219 0
M  V30 19135 H 2609.71 -9.6579 0.0444202 0
M  V30 19136 H 2605.13 -4.12883 -2.05283 0
M  V30 19137 H 2610.34 -6.59596 0.745856 0
M  V30 19138 H 2605.27 -4.31425 -4.2628 0
M  V30 19139 H 2606.64 -5.11219 -5.07148 0
M  V30 19140 H 2612.35 -5.69466 -2.79593 0
M  V30 19141 P 2614.21 -8.4349 -2.47671 0
M  V30 19142 O 2615.63 -8.92593 -2.65 0
M  V30 19143 O 2613.85 -7.7568 -1.19296 0
M  V30 19144 O 2613.88 -7.36886 -3.63805 0
M  V30 19145 C 2613.72 -7.95349 -4.982 0
M  V30 19146 C 2614.26 -6.94612 -5.98974 0
M  V30 19147 O 2613.21 -6.10347 -6.11815 0
M  V30 19148 C 2615.48 -6.11426 -5.62335 0
M  V30 19149 O 2616.22 -5.6162 -6.70584 0
M  V30 19150 C 2614.81 -5.04409 -4.73308 0
M  V30 19151 O 2615.61 -3.85992 -4.75183 0
M  V30 19152 C 2613.47 -4.8728 -5.41006 0
M  V30 19153 H 2613.51 -4.02333 -6.11157 0
M  V30 19154 H 2614.69 -5.39466 -3.69543 0
M  V30 19155 H 2616.17 -6.71916 -5.01943 0
M  V30 19156 H 2614.48 -7.4649 -6.93477 0
M  V30 19157 H 2614.29 -8.89416 -5.05237 0
M  V30 19158 H 2612.66 -8.14876 -5.18409 0
M  V30 19159 H 2615.3 -3.27957 -5.4317 0
M  V30 19160 P 2617.16 -5.75688 -6.64379 0
M  V30 19161 O 2618.58 -6.07627 -7.05504 0
M  V30 19162 O 2616.8 -5.88047 -5.19722 0
M  V30 19163 O 2616.83 -4.2322 -7.04443 0
M  V30 19164 C 2616.67 -3.99743 -8.4911 0
M  V30 19165 C 2617.21 -2.60516 -8.79425 0
M  V30 19166 O 2616.16 -1.82684 -8.4467 0
M  V30 19167 C 2618.43 -2.10343 -8.03628 0
M  V30 19168 O 2619.17 -1.09919 -8.67766 0
M  V30 19169 C 2617.76 -1.68446 -6.70876 0
M  V30 19170 O 2618.56 -0.678137 -6.08433 0
M  V30 19171 C 2616.42 -1.17436 -7.18567 0
M  V30 19172 H 2616.46 -0.0804732 -7.31656 0
M  V30 19173 H 2617.64 -2.54037 -6.02537 0
M  V30 19174 H 2619.12 -2.93881 -7.85526 0
M  V30 19175 H 2617.43 -2.53065 -9.86973 0
M  V30 19176 H 2617.24 -4.75072 -9.05887 0
M  V30 19177 H 2615.61 -4.05244 -8.76668 0
M  V30 19178 H 2618.25 0.177647 -6.34251 0
M  V30 19179 P 2620.11 -1.25109 -8.70152 0
M  V30 19180 O 2621.53 -1.29744 -9.22016 0
M  V30 19181 O 2619.75 -2.13714 -7.55141 0
M  V30 19182 O 2619.78 0.248149 -8.21425 0
M  V30 19183 C 2619.62 1.22779 -9.30434 0
M  V30 19184 C 2620.16 2.56293 -8.80664 0
M  V30 19185 O 2619.11 3.02979 -8.09349 0
M  V30 19186 C 2621.38 2.57523 -7.89775 0
M  V30 19187 O 2622.12 3.7668 -7.89438 0
M  V30 19188 C 2620.71 2.20997 -6.55446 0
M  V30 19189 O 2621.51 2.71895 -5.48509 0
M  V30 19190 C 2619.38 2.89693 -6.67988 0
M  V30 19191 H 2619.41 3.88793 -6.19859 0
M  V30 19192 H 2620.59 1.12046 -6.44229 0
M  V30 19193 H 2622.07 1.7746 -8.19711 0
M  V30 19194 H 2620.38 3.20706 -9.67112 0
M  V30 19195 H 2620.19 0.901032 -10.1892 0
M  V30 19196 H 2618.56 1.33049 -9.56592 0
M  V30 19197 H 2621.2 3.57847 -5.23962 0
M  V30 19198 P 2623.06 3.65191 -7.99657 0
M  V30 19199 O 2624.48 3.89332 -8.45794 0
M  V30 19200 O 2622.7 2.28472 -7.50807 0
M  V30 19201 O 2622.73 4.64972 -6.77611 0
M  V30 19202 C 2622.57 6.06319 -7.16352 0
M  V30 19203 C 2623.11 6.91731 -6.02299 0
M  V30 19204 O 2622.06 6.92449 -5.17064 0
M  V30 19205 C 2624.33 6.43627 -5.25174 0
M  V30 19206 O 2625.07 7.43686 -4.60469 0
M  V30 19207 C 2623.66 5.40275 -4.31916 0
M  V30 19208 O 2624.46 5.25279 -3.14438 0
M  V30 19209 C 2622.33 6.04847 -4.05327 0
M  V30 19210 H 2622.36 6.62195 -3.11261 0
M  V30 19211 H 2623.54 4.42556 -4.81383 0
M  V30 19212 H 2625.02 5.92458 -5.93643 0
M  V30 19213 H 2623.33 7.92655 -6.402 0
M  V30 19214 H 2623.14 6.26671 -8.0846 0
M  V30 19215 H 2621.51 6.29101 -7.32804 0
M  V30 19216 H 2624.15 5.84315 -2.47318 0
M  V30 19217 P 2626.01 7.39546 -4.75277 0
M  V30 19218 O 2627.43 7.84966 -5.01146 0
M  V30 19219 O 2625.65 5.9812 -5.08098 0
M  V30 19220 O 2625.68 7.57503 -3.1866 0
M  V30 19221 C 2625.52 8.97357 -2.74833 0
M  V30 19222 C 2626.06 9.0745 -1.32694 0
M  V30 19223 O 2625.01 8.62072 -0.606159 0
M  V30 19224 C 2627.28 8.25383 -0.938334 0
M  V30 19225 O 2628.02 8.74577 0.146954 0
M  V30 19226 C 2626.61 6.8802 -0.712559 0
M  V30 19227 O 2627.41 6.11791 0.194623 0
M  V30 19228 C 2625.28 7.27966 -0.139777 0
M  V30 19229 N 2624.23 6.39368 -0.623421 0
M  V30 19230 C 2624.3 5.90299 -1.85969 0
M  V30 19231 N 2623.25 5.10919 -2.1133 0
M  V30 19232 C 2622.52 5.14646 -1.0015 0
M  V30 19233 C 2621.21 4.60057 -0.729219 0
M  V30 19234 O 2620.48 3.93476 -1.47746 0
M  V30 19235 N 2620.78 4.88302 0.523505 0
M  V30 19236 C 2621.53 5.63646 1.46207 0
M  V30 19237 N 2620.93 5.78186 2.69239 0
M  V30 19238 N 2622.68 6.19285 1.21544 0
M  V30 19239 C 2623.14 5.93392 -0.0308487 0
M  V30 19240 H 2625.31 7.25354 0.961601 0
M  V30 19241 H 2626.49 6.3246 -1.65676 0
M  V30 19242 H 2627.98 8.19533 -1.78278 0
M  V30 19243 H 2626.28 10.1294 -1.10029 0
M  V30 19244 H 2626.09 9.64276 -3.41316 0
M  V30 19245 H 2624.46 9.25417 -2.76357 0
M  V30 19246 H 2619.88 4.53993 0.806451 0
M  V30 19247 H 2625.09 6.11865 -2.57394 0
M  V30 19248 H 2620.02 5.34046 2.87467 0
M  V30 19249 H 2621.4 6.33391 3.42578 0
M  V30 19250 H 2627.1 6.25169 1.0783 0
M  V30 19251 P 2628.96 8.791 2.31246e-11 0
M  V30 19252 O 2630.38 9.31096 0.027933 0
M  V30 19253 O 2628.6 7.77869 -1.04071 0
M  V30 19254 O 2628.63 8.09533 1.41463 0
M  V30 19255 C 2628.47 9.0349 2.53943 0
M  V30 19256 C 2629.01 8.35226 3.79016 0
M  V30 19257 O 2627.96 7.57992 4.15078 0
M  V30 19258 C 2630.23 7.45087 3.67298 0
M  V30 19259 O 2630.97 7.27796 4.85194 0
M  V30 19260 C 2629.56 6.17323 3.12027 0
M  V30 19261 O 2630.36 5.04231 3.47188 0
M  V30 19262 C 2628.23 6.19961 3.81809 0
M  V30 19263 H 2628.26 5.58218 4.73051 0
M  V30 19264 H 2629.44 6.21726 2.02589 0
M  V30 19265 H 2630.93 7.86112 2.9231 0
M  V30 19266 H 2629.23 9.11627 4.55076 0
M  V30 19267 H 2629.04 9.9573 2.34194 0
M  V30 19268 H 2627.41 9.2792 2.67832 0
M  V30 19269 H 2630.05 4.67702 4.28772 0
M  V30 19270 P 2631.91 7.39546 4.75277 0
M  V30 19271 O 2633.33 7.81777 5.05738 0
M  V30 19272 O 2631.55 7.1065 3.32998 0
M  V30 19273 O 2631.59 6.04542 5.56673 0
M  V30 19274 C 2631.43 6.22772 7.02095 0
M  V30 19275 C 2631.97 4.97725 7.70406 0
M  V30 19276 O 2630.91 4.13256 7.58987 0
M  V30 19277 C 2633.18 4.28231 7.11815 0
M  V30 19278 O 2633.92 3.49945 8.01648 0
M  V30 19279 C 2632.51 3.5063 5.96244 0
M  V30 19280 O 2633.31 2.36482 5.64681 0
M  V30 19281 C 2631.18 3.15122 6.56374 0
M  V30 19282 H 2631.21 2.13853 6.99751 0
M  V30 19283 H 2632.39 4.13501 5.06559 0
M  V30 19284 H 2633.88 5.03285 6.70911 0
M  V30 19285 H 2632.18 5.20877 8.75697 0
M  V30 19286 H 2631.99 7.11046 7.35349 0
M  V30 19287 H 2630.36 6.35815 7.26986 0
M  V30 19288 H 2633 1.61644 6.13565 0
M  V30 19289 P 2634.86 3.65191 7.99657 0
M  V30 19290 O 2636.28 3.8425 8.48115 0
M  V30 19291 O 2634.5 4.17805 6.64342 0
M  V30 19292 O 2634.54 2.07613 7.95143 0
M  V30 19293 C 2634.38 1.44328 9.27336 0
M  V30 19294 C 2634.92 0.0220036 9.17197 0
M  V30 19295 O 2633.86 -0.626867 8.61923 0
M  V30 19296 C 2636.13 -0.24586 8.30336 0
M  V30 19297 O 2636.87 -1.39011 8.63583 0
M  V30 19298 C 2635.47 -0.273849 6.91158 0
M  V30 19299 O 2636.26 -1.06348 6.02892 0
M  V30 19300 C 2634.13 -0.897649 7.22545 0
M  V30 19301 H 2634.16 -1.9841 7.04286 0
M  V30 19302 H 2635.34 0.739928 6.497 0
M  V30 19303 H 2636.83 0.60668 8.36503 0
M  V30 19304 H 2635.13 -0.352479 10.1829 0
M  V30 19305 H 2634.94 2.00611 10.0304 0
M  V30 19306 H 2633.31 1.41843 9.55327 0
M  V30 19307 H 2635.95 -1.95734 6.03555 0
M  V30 19308 P 2637.81 -1.25109 8.70152 0
M  V30 19309 O 2639.23 -1.35274 9.21221 0
M  V30 19310 O 2637.45 -0.0769065 7.84762 0
M  V30 19311 O 2637.49 -2.55232 7.81161 0
M  V30 19312 C 2637.33 -3.79939 8.58154 0
M  V30 19313 C 2637.87 -4.94023 7.72785 0
M  V30 19314 O 2636.81 -5.18726 6.91205 0
M  V30 19315 C 2639.08 -4.69597 6.85231 0
M  V30 19316 O 2639.82 -5.83832 6.51337 0
M  V30 19317 C 2638.42 -3.96706 5.66633 0
M  V30 19318 O 2639.21 -4.15414 4.49689 0
M  V30 19319 C 2637.08 -4.66153 5.59313 0
M  V30 19320 H 2637.11 -5.47679 4.85214 0
M  V30 19321 H 2638.29 -2.89008 5.86566 0
M  V30 19322 H 2639.78 -4.0121 7.36511 0
M  V30 19323 H 2638.08 -5.80182 8.37584 0
M  V30 19324 H 2637.89 -3.73517 9.52265 0
M  V30 19325 H 2636.26 -3.97163 8.80359 0
M  V30 19326 H 2638.9 -4.90969 4.01921 0
M  V30 19327 P 2640.76 -5.75688 6.64379 0
M  V30 19328 O 2642.18 -6.11849 7.01846 0
M  V30 19329 O 2640.4 -4.30744 6.56026 0
M  V30 19330 O 2640.44 -6.37042 5.19165 0
M  V30 19331 C 2640.28 -7.83578 5.16515 0
M  V30 19332 C 2640.82 -8.33398 3.83019 0
M  V30 19333 O 2639.76 -8.10074 3.01034 0
M  V30 19334 C 2642.04 -7.65514 3.2257 0
M  V30 19335 O 2642.77 -8.4329 2.32297 0
M  V30 19336 C 2641.37 -6.40075 2.62207 0
M  V30 19337 O 2642.17 -5.92589 1.53712 0
M  V30 19338 C 2640.03 -6.9454 2.18503 0
M  V30 19339 H 2640.06 -7.23063 1.12091 0
M  V30 19340 H 2641.24 -5.6025 3.37201 0
M  V30 19341 H 2642.73 -7.35707 4.02681 0
M  V30 19342 H 2641.03 -9.40912 3.9095 0
M  V30 19343 H 2640.84 -8.29056 5.99158 0
M  V30 19344 H 2639.21 -8.10073 5.25882 0
M  V30 19345 H 2641.85 -6.30324 0.726794 0
M  V30 19346 P 2643.71 -8.4349 2.47671 0
M  V30 19347 O 2645.13 -8.94359 2.59696 0
M  V30 19348 O 2643.35 -7.1704 3.19006 0
M  V30 19349 O 2643.39 -8.16596 0.923387 0
M  V30 19350 C 2643.23 -9.38437 0.108857 0
M  V30 19351 C 2643.77 -9.08076 -1.28339 0
M  V30 19352 O 2642.71 -8.44229 -1.84713 0
M  V30 19353 C 2644.99 -8.18386 -1.42505 0
M  V30 19354 O 2645.72 -8.3501 -2.60497 0
M  V30 19355 C 2644.32 -6.80225 -1.25468 0
M  V30 19356 O 2645.12 -5.81526 -1.91035 0
M  V30 19357 C 2642.98 -7.02416 -1.9168 0
M  V30 19358 N 2641.94 -6.31033 -1.20314 0
M  V30 19359 C 2642 -6.18781 0.121293 0
M  V30 19360 N 2640.95 -5.49762 0.588272 0
M  V30 19361 C 2640.22 -5.22015 -0.488988 0
M  V30 19362 C 2638.91 -4.61966 -0.596448 0
M  V30 19363 O 2638.18 -4.19162 0.309059 0
M  V30 19364 N 2638.48 -4.53773 -1.878 0
M  V30 19365 C 2639.23 -4.99623 -2.99082 0
M  V30 19366 N 2638.64 -4.78912 -4.21227 0
M  V30 19367 N 2640.39 -5.59957 -2.91093 0
M  V30 19368 C 2640.84 -5.70225 -1.64218 0
M  V30 19369 H 2643.01 -6.6888 -2.96621 0
M  V30 19370 H 2644.19 -6.53517 -0.192194 0
M  V30 19371 H 2645.68 -8.36563 -0.598329 0
M  V30 19372 H 2643.98 -10.0291 -1.79807 0
M  V30 19373 H 2643.79 -10.2138 0.558219 0
M  V30 19374 H 2642.16 -9.6579 0.0444202 0
M  V30 19375 H 2637.59 -4.12883 -2.05283 0
M  V30 19376 H 2642.79 -6.59596 0.745856 0
M  V30 19377 H 2637.72 -4.31425 -4.2628 0
M  V30 19378 H 2639.1 -5.11219 -5.07148 0
M  V30 19379 H 2644.8 -5.69466 -2.79593 0
M  V30 19380 P 2646.66 -8.4349 -2.47671 0
M  V30 19381 O 2648.08 -8.92593 -2.65 0
M  V30 19382 O 2646.3 -7.7568 -1.19296 0
M  V30 19383 O 2646.34 -7.36886 -3.63805 0
M  V30 19384 C 2646.18 -7.95349 -4.982 0
M  V30 19385 C 2646.72 -6.94612 -5.98974 0
M  V30 19386 O 2645.66 -6.10347 -6.11815 0
M  V30 19387 C 2647.94 -6.11426 -5.62335 0
M  V30 19388 O 2648.67 -5.6162 -6.70584 0
M  V30 19389 C 2647.27 -5.04409 -4.73308 0
M  V30 19390 O 2648.07 -3.85992 -4.75183 0
M  V30 19391 C 2645.93 -4.8728 -5.41006 0
M  V30 19392 H 2645.96 -4.02333 -6.11157 0
M  V30 19393 H 2647.15 -5.39466 -3.69543 0
M  V30 19394 H 2648.63 -6.71916 -5.01943 0
M  V30 19395 H 2646.94 -7.4649 -6.93477 0
M  V30 19396 H 2646.75 -8.89416 -5.05237 0
M  V30 19397 H 2645.12 -8.14876 -5.18409 0
M  V30 19398 H 2647.75 -3.27957 -5.4317 0
M  V30 19399 P 2649.61 -5.75688 -6.64379 0
M  V30 19400 O 2651.03 -6.07627 -7.05504 0
M  V30 19401 O 2649.25 -5.88047 -5.19722 0
M  V30 19402 O 2649.29 -4.2322 -7.04443 0
M  V30 19403 C 2649.13 -3.99743 -8.4911 0
M  V30 19404 C 2649.67 -2.60516 -8.79425 0
M  V30 19405 O 2648.61 -1.82684 -8.4467 0
M  V30 19406 C 2650.89 -2.10343 -8.03628 0
M  V30 19407 O 2651.62 -1.09919 -8.67766 0
M  V30 19408 C 2650.22 -1.68446 -6.70876 0
M  V30 19409 O 2651.02 -0.678137 -6.08433 0
M  V30 19410 C 2648.88 -1.17436 -7.18567 0
M  V30 19411 H 2648.91 -0.0804732 -7.31656 0
M  V30 19412 H 2650.1 -2.54037 -6.02537 0
M  V30 19413 H 2651.58 -2.93881 -7.85526 0
M  V30 19414 H 2649.89 -2.53065 -9.86973 0
M  V30 19415 H 2649.7 -4.75072 -9.05887 0
M  V30 19416 H 2648.07 -4.05244 -8.76668 0
M  V30 19417 H 2650.7 0.177647 -6.34251 0
M  V30 19418 P 2652.56 -1.25109 -8.70152 0
M  V30 19419 O 2653.98 -1.29744 -9.22016 0
M  V30 19420 O 2652.2 -2.13714 -7.55141 0
M  V30 19421 O 2652.24 0.248149 -8.21425 0
M  V30 19422 C 2652.08 1.22779 -9.30434 0
M  V30 19423 C 2652.62 2.56293 -8.80664 0
M  V30 19424 O 2651.56 3.02979 -8.09349 0
M  V30 19425 C 2653.84 2.57523 -7.89775 0
M  V30 19426 O 2654.58 3.7668 -7.89438 0
M  V30 19427 C 2653.17 2.20997 -6.55446 0
M  V30 19428 O 2653.97 2.71895 -5.48509 0
M  V30 19429 C 2651.83 2.89693 -6.67988 0
M  V30 19430 H 2651.86 3.88793 -6.19859 0
M  V30 19431 H 2653.05 1.12046 -6.44229 0
M  V30 19432 H 2654.53 1.7746 -8.19711 0
M  V30 19433 H 2652.84 3.20706 -9.67112 0
M  V30 19434 H 2652.65 0.901032 -10.1892 0
M  V30 19435 H 2651.02 1.33049 -9.56592 0
M  V30 19436 H 2653.66 3.57847 -5.23962 0
M  V30 19437 P 2655.51 3.65191 -7.99657 0
M  V30 19438 O 2656.93 3.89332 -8.45794 0
M  V30 19439 O 2655.15 2.28472 -7.50807 0
M  V30 19440 O 2655.19 4.64972 -6.77611 0
M  V30 19441 C 2655.03 6.06319 -7.16352 0
M  V30 19442 C 2655.57 6.91731 -6.02299 0
M  V30 19443 O 2654.51 6.92449 -5.17064 0
M  V30 19444 C 2656.79 6.43627 -5.25174 0
M  V30 19445 O 2657.53 7.43686 -4.60469 0
M  V30 19446 C 2656.12 5.40275 -4.31916 0
M  V30 19447 O 2656.92 5.25279 -3.14438 0
M  V30 19448 C 2654.78 6.04847 -4.05327 0
M  V30 19449 H 2654.81 6.62195 -3.11261 0
M  V30 19450 H 2656 4.42556 -4.81383 0
M  V30 19451 H 2657.48 5.92458 -5.93643 0
M  V30 19452 H 2655.79 7.92655 -6.402 0
M  V30 19453 H 2655.6 6.26671 -8.0846 0
M  V30 19454 H 2653.97 6.29101 -7.32804 0
M  V30 19455 H 2656.61 5.84315 -2.47318 0
M  V30 19456 P 2658.46 7.39546 -4.75277 0
M  V30 19457 O 2659.88 7.84882 -5.01092 0
M  V30 19458 O 2658.1 5.9812 -5.08098 0
M  V30 19459 O 2658.14 7.57503 -3.1866 0
M  V30 19460 C 2657.98 8.97452 -2.74862 0
M  V30 19461 C 2658.52 9.07548 -1.32709 0
M  V30 19462 O 2657.47 8.61972 -0.606089 0
M  V30 19463 C 2659.74 8.25383 -0.938334 0
M  V30 19464 O 2660.48 8.74577 0.146954 0
M  V30 19465 C 2659.07 6.8802 -0.712559 0
M  V30 19466 O 2659.87 6.1181 0.188505 0
M  V30 19467 C 2657.73 7.27966 -0.139777 0
M  V30 19468 N 2656.69 6.39368 -0.623421 0
M  V30 19469 C 2656.86 5.71761 -1.78245 0
M  V30 19470 N 2655.83 4.962 -2.10491 0
M  V30 19471 C 2654.95 5.16158 -1.0635 0
M  V30 19472 C 2653.68 4.60425 -0.810266 0
M  V30 19473 N 2653.08 3.7057 -1.62914 0
M  V30 19474 N 2653.11 5.06 0.348685 0
M  V30 19475 C 2653.72 5.94532 1.20395 0
M  V30 19476 N 2654.89 6.48452 1.01191 0
M  V30 19477 C 2655.47 6.04423 -0.146291 0
M  V30 19478 H 2657.76 7.25255 0.961469 0
M  V30 19479 H 2658.95 6.32625 -1.65044 0
M  V30 19480 H 2660.43 8.19355 -1.79097 0
M  V30 19481 H 2658.74 10.1305 -1.09016 0
M  V30 19482 H 2658.55 9.64276 -3.41316 0
M  V30 19483 H 2656.92 9.25417 -2.76357 0
M  V30 19484 H 2653.18 6.21659 2.10714 0
M  V30 19485 H 2657.76 5.79354 -2.38959 0
M  V30 19486 H 2652.15 3.33174 -1.38982 0
M  V30 19487 H 2653.55 3.39714 -2.48836 0
M  V30 19488 H 2659.56 6.25169 1.0783 0
M  V30 19489 P 2661.41 8.791 2.04365e-11 0
M  V30 19490 O 2662.84 9.31096 0.027933 0
M  V30 19491 O 2661.05 7.77869 -1.04071 0
M  V30 19492 O 2661.09 8.09533 1.41463 0
M  V30 19493 C 2660.93 9.0349 2.53943 0
M  V30 19494 C 2661.47 8.35226 3.79016 0
M  V30 19495 O 2660.42 7.57992 4.15078 0
M  V30 19496 C 2662.69 7.45087 3.67298 0
M  V30 19497 O 2663.43 7.27796 4.85194 0
M  V30 19498 C 2662.02 6.17323 3.12027 0
M  V30 19499 O 2662.82 5.04231 3.47188 0
M  V30 19500 C 2660.68 6.19961 3.81809 0
M  V30 19501 H 2660.72 5.58218 4.73051 0
M  V30 19502 H 2661.9 6.21726 2.02589 0
M  V30 19503 H 2663.38 7.86112 2.9231 0
M  V30 19504 H 2661.69 9.11627 4.55076 0
M  V30 19505 H 2661.5 9.9573 2.34194 0
M  V30 19506 H 2659.87 9.2792 2.67832 0
M  V30 19507 H 2662.51 4.67702 4.28772 0
M  V30 19508 P 2664.36 7.39546 4.75277 0
M  V30 19509 O 2665.79 7.81861 5.05793 0
M  V30 19510 O 2664 7.1065 3.32998 0
M  V30 19511 O 2664.04 6.04542 5.56673 0
M  V30 19512 C 2663.88 6.22839 7.02169 0
M  V30 19513 C 2664.42 4.97725 7.70406 0
M  V30 19514 O 2663.37 4.13208 7.58899 0
M  V30 19515 C 2665.64 4.28231 7.11815 0
M  V30 19516 O 2666.38 3.49945 8.01648 0
M  V30 19517 C 2664.97 3.5063 5.96244 0
M  V30 19518 O 2665.77 2.37008 5.64352 0
M  V30 19519 C 2663.63 3.15122 6.56374 0
M  V30 19520 N 2662.59 3.22311 5.55692 0
M  V30 19521 C 2662.76 3.99655 4.46046 0
M  V30 19522 N 2661.73 3.97599 3.63918 0
M  V30 19523 C 2660.85 3.11159 4.25334 0
M  V30 19524 C 2659.58 2.64972 3.85157 0
M  V30 19525 N 2658.98 3.02132 2.69405 0
M  V30 19526 N 2659.02 1.78482 4.74759 0
M  V30 19527 C 2659.62 1.37463 5.90819 0
M  V30 19528 N 2660.79 1.7733 6.31889 0
M  V30 19529 C 2661.37 2.64393 5.43725 0
M  V30 19530 H 2663.67 2.13823 6.99656 0
M  V30 19531 H 2664.85 4.12931 5.06895 0
M  V30 19532 H 2666.33 5.03285 6.70911 0
M  V30 19533 H 2664.64 5.20001 8.76217 0
M  V30 19534 H 2664.45 7.11046 7.35349 0
M  V30 19535 H 2662.82 6.35815 7.26986 0
M  V30 19536 H 2659.08 0.66574 6.53015 0
M  V30 19537 H 2663.66 4.58037 4.27732 0
M  V30 19538 H 2658.05 2.64828 2.45331 0
M  V30 19539 H 2659.46 3.67472 2.05644 0
M  V30 19540 H 2665.46 1.61619 6.13468 0
M  V30 19541 P 2667.32 3.65191 7.99657 0
M  V30 19542 O 2668.74 3.8425 8.48115 0
M  V30 19543 O 2666.96 4.17805 6.64342 0
M  V30 19544 O 2666.99 2.07613 7.95143 0
M  V30 19545 C 2666.83 1.44328 9.27336 0
M  V30 19546 C 2667.37 0.0220036 9.17197 0
M  V30 19547 O 2666.32 -0.626867 8.61923 0
M  V30 19548 C 2668.59 -0.24586 8.30336 0
M  V30 19549 O 2669.33 -1.39011 8.63583 0
M  V30 19550 C 2667.92 -0.273849 6.91158 0
M  V30 19551 O 2668.72 -1.06348 6.02892 0
M  V30 19552 C 2666.58 -0.897649 7.22545 0
M  V30 19553 H 2666.62 -1.9841 7.04286 0
M  V30 19554 H 2667.8 0.739928 6.497 0
M  V30 19555 H 2669.28 0.60668 8.36503 0
M  V30 19556 H 2667.59 -0.352479 10.1829 0
M  V30 19557 H 2667.4 2.00611 10.0304 0
M  V30 19558 H 2665.77 1.41843 9.55327 0
M  V30 19559 H 2668.41 -1.95734 6.03555 0
M  V30 19560 P 2670.27 -1.25109 8.70152 0
M  V30 19561 O 2671.69 -1.35274 9.21221 0
M  V30 19562 O 2669.91 -0.0769065 7.84762 0
M  V30 19563 O 2669.94 -2.55232 7.81161 0
M  V30 19564 C 2669.78 -3.79939 8.58154 0
M  V30 19565 C 2670.32 -4.94023 7.72785 0
M  V30 19566 O 2669.27 -5.18726 6.91205 0
M  V30 19567 C 2671.54 -4.69597 6.85231 0
M  V30 19568 O 2672.28 -5.83832 6.51337 0
M  V30 19569 C 2670.87 -3.96706 5.66633 0
M  V30 19570 O 2671.67 -4.15414 4.49689 0
M  V30 19571 C 2669.53 -4.66153 5.59313 0
M  V30 19572 H 2669.57 -5.47679 4.85214 0
M  V30 19573 H 2670.75 -2.89008 5.86566 0
M  V30 19574 H 2672.23 -4.0121 7.36511 0
M  V30 19575 H 2670.54 -5.80182 8.37584 0
M  V30 19576 H 2670.35 -3.73517 9.52265 0
M  V30 19577 H 2668.72 -3.97163 8.80359 0
M  V30 19578 H 2671.36 -4.90969 4.01921 0
M  V30 19579 P 2673.22 -5.75688 6.64379 0
M  V30 19580 O 2674.64 -6.11849 7.01846 0
M  V30 19581 O 2672.86 -4.30744 6.56026 0
M  V30 19582 O 2672.89 -6.37042 5.19165 0
M  V30 19583 C 2672.73 -7.83578 5.16515 0
M  V30 19584 C 2673.27 -8.33398 3.83019 0
M  V30 19585 O 2672.22 -8.10074 3.01034 0
M  V30 19586 C 2674.49 -7.65514 3.2257 0
M  V30 19587 O 2675.23 -8.4329 2.32297 0
M  V30 19588 C 2673.82 -6.40075 2.62207 0
M  V30 19589 O 2674.62 -5.92589 1.53712 0
M  V30 19590 C 2672.49 -6.9454 2.18503 0
M  V30 19591 H 2672.52 -7.23063 1.12091 0
M  V30 19592 H 2673.7 -5.6025 3.37201 0
M  V30 19593 H 2675.18 -7.35707 4.02681 0
M  V30 19594 H 2673.49 -9.40912 3.9095 0
M  V30 19595 H 2673.3 -8.29056 5.99158 0
M  V30 19596 H 2671.67 -8.10073 5.25882 0
M  V30 19597 H 2674.31 -6.30324 0.726794 0
M  V30 19598 P 2676.17 -8.4349 2.47671 0
M  V30 19599 O 2677.59 -8.94167 2.5964 0
M  V30 19600 O 2675.81 -7.1704 3.19006 0
M  V30 19601 O 2675.84 -8.16596 0.923387 0
M  V30 19602 C 2675.68 -9.38437 0.108857 0
M  V30 19603 C 2676.22 -9.08175 -1.28353 0
M  V30 19604 O 2675.17 -8.44229 -1.84713 0
M  V30 19605 C 2677.44 -8.18386 -1.42505 0
M  V30 19606 O 2678.18 -8.3501 -2.60497 0
M  V30 19607 C 2676.77 -6.80225 -1.25468 0
M  V30 19608 O 2677.57 -5.81621 -1.91066 0
M  V30 19609 C 2675.44 -7.02416 -1.9168 0
M  V30 19610 H 2675.47 -6.6888 -2.96621 0
M  V30 19611 H 2676.65 -6.53617 -0.192223 0
M  V30 19612 H 2678.13 -8.36622 -0.589963 0
M  V30 19613 H 2676.44 -10.0291 -1.79807 0
M  V30 19614 H 2676.25 -10.2138 0.558219 0
M  V30 19615 H 2674.62 -9.6579 0.0444202 0
M  V30 19616 H 2677.26 -5.69556 -2.79637 0
M  V30 19617 P 2679.12 -8.4349 -2.47671 0
M  V30 19618 O 2680.54 -8.92593 -2.65 0
M  V30 19619 O 2678.76 -7.7568 -1.19296 0
M  V30 19620 O 2678.79 -7.36886 -3.63805 0
M  V30 19621 C 2678.63 -7.95349 -4.982 0
M  V30 19622 C 2679.17 -6.94612 -5.98974 0
M  V30 19623 O 2678.12 -6.10347 -6.11815 0
M  V30 19624 C 2680.39 -6.11426 -5.62335 0
M  V30 19625 O 2681.13 -5.6162 -6.70584 0
M  V30 19626 C 2679.72 -5.04409 -4.73308 0
M  V30 19627 O 2680.52 -3.85992 -4.75183 0
M  V30 19628 C 2678.39 -4.8728 -5.41006 0
M  V30 19629 H 2678.42 -4.02333 -6.11157 0
M  V30 19630 H 2679.6 -5.39466 -3.69543 0
M  V30 19631 H 2681.09 -6.71916 -5.01943 0
M  V30 19632 H 2679.39 -7.4649 -6.93477 0
M  V30 19633 H 2679.2 -8.89416 -5.05237 0
M  V30 19634 H 2677.57 -8.14876 -5.18409 0
M  V30 19635 H 2680.21 -3.27957 -5.4317 0
M  V30 19636 P 2682.07 -5.75688 -6.64379 0
M  V30 19637 O 2683.49 -6.07758 -7.05656 0
M  V30 19638 O 2681.71 -5.88047 -5.19722 0
M  V30 19639 O 2681.75 -4.2322 -7.04443 0
M  V30 19640 C 2681.59 -3.99743 -8.4911 0
M  V30 19641 C 2682.13 -2.60487 -8.79329 0
M  V30 19642 O 2681.07 -1.82684 -8.4467 0
M  V30 19643 C 2683.34 -2.10343 -8.03628 0
M  V30 19644 O 2684.08 -1.09919 -8.67766 0
M  V30 19645 C 2682.68 -1.68446 -6.70876 0
M  V30 19646 O 2683.47 -0.678026 -6.08333 0
M  V30 19647 C 2681.34 -1.17436 -7.18567 0
M  V30 19648 N 2680.29 -1.52699 -6.23988 0
M  V30 19649 C 2680.36 -2.68084 -5.57824 0
M  V30 19650 N 2679.31 -2.8189 -4.75643 0
M  V30 19651 C 2678.58 -1.72373 -4.95155 0
M  V30 19652 C 2677.27 -1.37653 -4.44996 0
M  V30 19653 O 2676.54 -2.02239 -3.68445 0
M  V30 19654 N 2676.84 -0.17675 -4.90782 0
M  V30 19655 C 2677.59 0.645036 -5.78716 0
M  V30 19656 N 2676.99 1.84214 -6.10618 0
M  V30 19657 N 2678.74 0.321732 -6.30279 0
M  V30 19658 C 2679.2 -0.87502 -5.86913 0
M  V30 19659 H 2681.37 -0.0804732 -7.31656 0
M  V30 19660 H 2682.55 -2.53998 -6.02444 0
M  V30 19661 H 2684.04 -2.93095 -7.8582 0
M  V30 19662 H 2682.34 -2.53065 -9.86973 0
M  V30 19663 H 2682.15 -4.75072 -9.05887 0
M  V30 19664 H 2680.52 -4.05244 -8.76668 0
M  V30 19665 H 2675.95 0.152143 -4.60849 0
M  V30 19666 H 2681.15 -3.41852 -5.69006 0
M  V30 19667 H 2676.08 2.08538 -5.69521 0
M  V30 19668 H 2677.46 2.4895 -6.75698 0
M  V30 19669 H 2683.16 0.177619 -6.34151 0
M  V30 19670 P 2685.02 -1.25109 -8.70152 0
M  V30 19671 O 2686.44 -1.29772 -9.22214 0
M  V30 19672 O 2684.66 -2.13714 -7.55141 0
M  V30 19673 O 2684.7 0.248149 -8.21425 0
M  V30 19674 C 2684.54 1.22779 -9.30434 0
M  V30 19675 C 2685.08 2.56265 -8.80568 0
M  V30 19676 O 2684.02 3.02979 -8.09349 0
M  V30 19677 C 2686.29 2.57523 -7.89775 0
M  V30 19678 O 2687.03 3.7668 -7.89438 0
M  V30 19679 C 2685.63 2.20997 -6.55446 0
M  V30 19680 O 2686.42 2.71851 -5.48419 0
M  V30 19681 C 2684.29 2.89693 -6.67988 0
M  V30 19682 N 2683.24 2.08895 -6.07487 0
M  V30 19683 C 2683.31 0.760559 -6.14209 0
M  V30 19684 N 2682.26 0.200108 -5.52538 0
M  V30 19685 C 2681.53 1.22692 -5.09742 0
M  V30 19686 C 2680.22 1.24782 -4.48775 0
M  V30 19687 O 2679.49 0.290617 -4.19294 0
M  V30 19688 N 2679.79 2.50468 -4.22428 0
M  V30 19689 C 2680.54 3.67142 -4.51974 0
M  V30 19690 N 2679.94 4.85096 -4.14091 0
M  V30 19691 N 2681.69 3.67821 -5.12831 0
M  V30 19692 C 2682.15 2.43698 -5.4105 0
M  V30 19693 H 2684.32 3.88793 -6.19859 0
M  V30 19694 H 2685.5 1.12029 -6.4413 0
M  V30 19695 H 2686.99 1.78279 -8.19533 0
M  V30 19696 H 2685.29 3.20706 -9.67112 0
M  V30 19697 H 2685.1 0.901032 -10.1892 0
M  V30 19698 H 2683.47 1.33049 -9.56592 0
M  V30 19699 H 2678.9 2.61953 -3.79465 0
M  V30 19700 H 2684.1 0.200439 -6.63497 0
M  V30 19701 H 2679.03 4.8334 -3.66367 0
M  V30 19702 H 2680.41 5.7474 -4.33841 0
M  V30 19703 H 2686.11 3.5779 -5.23879 0
M  V30 19704 P 2687.97 3.65191 -7.99657 0
M  V30 19705 O 2689.39 3.89332 -8.45794 0
M  V30 19706 O 2687.61 2.28472 -7.50807 0
M  V30 19707 O 2687.65 4.64972 -6.77611 0
M  V30 19708 C 2687.49 6.06319 -7.16352 0
M  V30 19709 C 2688.03 6.91731 -6.02299 0
M  V30 19710 O 2686.97 6.92449 -5.17064 0
M  V30 19711 C 2689.24 6.43627 -5.25174 0
M  V30 19712 O 2689.98 7.43686 -4.60469 0
M  V30 19713 C 2688.58 5.40275 -4.31916 0
M  V30 19714 O 2689.37 5.25279 -3.14438 0
M  V30 19715 C 2687.24 6.04847 -4.05327 0
M  V30 19716 H 2687.27 6.62195 -3.11261 0
M  V30 19717 H 2688.45 4.42556 -4.81383 0
M  V30 19718 H 2689.94 5.92458 -5.93643 0
M  V30 19719 H 2688.24 7.92655 -6.402 0
M  V30 19720 H 2688.05 6.26671 -8.0846 0
M  V30 19721 H 2686.42 6.29101 -7.32804 0
M  V30 19722 H 2689.06 5.84315 -2.47318 0
M  V30 19723 P 2690.92 7.39546 -4.75277 0
M  V30 19724 O 2692.34 7.84798 -5.01039 0
M  V30 19725 O 2690.56 5.9812 -5.08098 0
M  V30 19726 O 2690.6 7.57503 -3.1866 0
M  V30 19727 C 2690.44 8.97357 -2.74833 0
M  V30 19728 C 2690.98 9.07548 -1.32709 0
M  V30 19729 O 2689.92 8.62072 -0.606159 0
M  V30 19730 C 2692.19 8.25383 -0.938334 0
M  V30 19731 O 2692.93 8.74577 0.146954 0
M  V30 19732 C 2691.53 6.8802 -0.712559 0
M  V30 19733 O 2692.32 6.1189 0.194655 0
M  V30 19734 C 2690.19 7.27966 -0.139777 0
M  V30 19735 H 2690.22 7.25354 0.961601 0
M  V30 19736 H 2691.4 6.32557 -1.65702 0
M  V30 19737 H 2692.89 8.19355 -1.79097 0
M  V30 19738 H 2691.19 10.1294 -1.10029 0
M  V30 19739 H 2691 9.64276 -3.41316 0
M  V30 19740 H 2689.37 9.25417 -2.76357 0
M  V30 19741 H 2692.01 6.25267 1.07847 0
M  V30 19742 P 2693.87 8.791 1.52498e-11 0
M  V30 19743 O 2695.29 9.31096 0.027933 0
M  V30 19744 O 2693.51 7.77869 -1.04071 0
M  V30 19745 O 2693.55 8.09533 1.41463 0
M  V30 19746 C 2693.39 9.0349 2.53943 0
M  V30 19747 C 2693.93 8.35226 3.79016 0
M  V30 19748 O 2692.87 7.57992 4.15078 0
M  V30 19749 C 2695.15 7.45087 3.67298 0
M  V30 19750 O 2695.88 7.27796 4.85194 0
M  V30 19751 C 2694.48 6.17323 3.12027 0
M  V30 19752 O 2695.28 5.04231 3.47188 0
M  V30 19753 C 2693.14 6.19961 3.81809 0
M  V30 19754 H 2693.17 5.58218 4.73051 0
M  V30 19755 H 2694.35 6.21726 2.02589 0
M  V30 19756 H 2695.84 7.86112 2.9231 0
M  V30 19757 H 2694.14 9.11627 4.55076 0
M  V30 19758 H 2693.95 9.9573 2.34194 0
M  V30 19759 H 2692.32 9.2792 2.67832 0
M  V30 19760 H 2694.96 4.67702 4.28772 0
M  V30 19761 P 2696.82 7.39546 4.75277 0
M  V30 19762 O 2698.24 7.81777 5.05738 0
M  V30 19763 O 2696.46 7.1065 3.32998 0
M  V30 19764 O 2696.5 6.04542 5.56673 0
M  V30 19765 C 2696.34 6.22772 7.02095 0
M  V30 19766 C 2696.88 4.97725 7.70406 0
M  V30 19767 O 2695.82 4.13256 7.58987 0
M  V30 19768 C 2698.1 4.28231 7.11815 0
M  V30 19769 O 2698.83 3.49945 8.01648 0
M  V30 19770 C 2697.43 3.5063 5.96244 0
M  V30 19771 O 2698.23 2.36482 5.64681 0
M  V30 19772 C 2696.09 3.15122 6.56374 0
M  V30 19773 H 2696.12 2.13853 6.99751 0
M  V30 19774 H 2697.3 4.13501 5.06559 0
M  V30 19775 H 2698.79 5.03285 6.70911 0
M  V30 19776 H 2697.09 5.20877 8.75697 0
M  V30 19777 H 2696.9 7.11046 7.35349 0
M  V30 19778 H 2695.27 6.35815 7.26986 0
M  V30 19779 H 2697.91 1.61644 6.13565 0
M  V30 19780 P 2699.77 3.65191 7.99657 0
M  V30 19781 O 2701.19 3.8425 8.48115 0
M  V30 19782 O 2699.41 4.17805 6.64342 0
M  V30 19783 O 2699.45 2.07613 7.95143 0
M  V30 19784 C 2699.29 1.44328 9.27336 0
M  V30 19785 C 2699.83 0.0220036 9.17197 0
M  V30 19786 O 2698.77 -0.626867 8.61923 0
M  V30 19787 C 2701.05 -0.24586 8.30336 0
M  V30 19788 O 2701.78 -1.39011 8.63583 0
M  V30 19789 C 2700.38 -0.273849 6.91158 0
M  V30 19790 O 2701.18 -1.06348 6.02892 0
M  V30 19791 C 2699.04 -0.897649 7.22545 0
M  V30 19792 H 2699.07 -1.9841 7.04286 0
M  V30 19793 H 2700.26 0.739928 6.497 0
M  V30 19794 H 2701.74 0.60668 8.36503 0
M  V30 19795 H 2700.05 -0.352479 10.1829 0
M  V30 19796 H 2699.86 2.00611 10.0304 0
M  V30 19797 H 2698.23 1.41843 9.55327 0
M  V30 19798 H 2700.86 -1.95734 6.03555 0
M  V30 19799 P 2702.72 -1.25109 8.70152 0
M  V30 19800 O 2704.14 -1.35274 9.21221 0
M  V30 19801 O 2702.36 -0.0769065 7.84762 0
M  V30 19802 O 2702.4 -2.55232 7.81161 0
M  V30 19803 C 2702.24 -3.79939 8.58154 0
M  V30 19804 C 2702.78 -4.94023 7.72785 0
M  V30 19805 O 2701.72 -5.18726 6.91205 0
M  V30 19806 C 2704 -4.69597 6.85231 0
M  V30 19807 O 2704.74 -5.83832 6.51337 0
M  V30 19808 C 2703.33 -3.96706 5.66633 0
M  V30 19809 O 2704.13 -4.15414 4.49689 0
M  V30 19810 C 2701.99 -4.66153 5.59313 0
M  V30 19811 H 2702.02 -5.47679 4.85214 0
M  V30 19812 H 2703.21 -2.89008 5.86566 0
M  V30 19813 H 2704.69 -4.0121 7.36511 0
M  V30 19814 H 2703 -5.80182 8.37584 0
M  V30 19815 H 2702.81 -3.73517 9.52265 0
M  V30 19816 H 2701.18 -3.97163 8.80359 0
M  V30 19817 H 2703.82 -4.90969 4.01921 0
M  V30 19818 P 2705.67 -5.75688 6.64379 0
M  V30 19819 O 2707.09 -6.11849 7.01846 0
M  V30 19820 O 2705.31 -4.30744 6.56026 0
M  V30 19821 O 2705.35 -6.37042 5.19165 0
M  V30 19822 C 2705.19 -7.83578 5.16515 0
M  V30 19823 C 2705.73 -8.33398 3.83019 0
M  V30 19824 O 2704.67 -8.10074 3.01034 0
M  V30 19825 C 2706.95 -7.65514 3.2257 0
M  V30 19826 O 2707.69 -8.4329 2.32297 0
M  V30 19827 C 2706.28 -6.40075 2.62207 0
M  V30 19828 O 2707.08 -5.92589 1.53712 0
M  V30 19829 C 2704.94 -6.9454 2.18503 0
M  V30 19830 H 2704.97 -7.23063 1.12091 0
M  V30 19831 H 2706.16 -5.6025 3.37201 0
M  V30 19832 H 2707.64 -7.35707 4.02681 0
M  V30 19833 H 2705.95 -9.40912 3.9095 0
M  V30 19834 H 2705.76 -8.29056 5.99158 0
M  V30 19835 H 2704.13 -8.10073 5.25882 0
M  V30 19836 H 2706.77 -6.30324 0.726794 0
M  V30 19837 P 2708.62 -8.4349 2.47671 0
M  V30 19838 O 2710.05 -8.94167 2.5964 0
M  V30 19839 O 2708.26 -7.1704 3.19006 0
M  V30 19840 O 2708.3 -8.16596 0.923387 0
M  V30 19841 C 2708.14 -9.38437 0.108857 0
M  V30 19842 C 2708.68 -9.08175 -1.28353 0
M  V30 19843 O 2707.62 -8.44229 -1.84713 0
M  V30 19844 C 2709.9 -8.18386 -1.42505 0
M  V30 19845 O 2710.64 -8.3501 -2.60497 0
M  V30 19846 C 2709.23 -6.80225 -1.25468 0
M  V30 19847 O 2710.03 -5.81621 -1.91066 0
M  V30 19848 C 2707.89 -7.02416 -1.9168 0
M  V30 19849 H 2707.92 -6.6888 -2.96621 0
M  V30 19850 H 2709.11 -6.53617 -0.192223 0
M  V30 19851 H 2710.59 -8.36622 -0.589963 0
M  V30 19852 H 2708.9 -10.0291 -1.79807 0
M  V30 19853 H 2708.71 -10.2138 0.558219 0
M  V30 19854 H 2707.08 -9.6579 0.0444202 0
M  V30 19855 H 2709.72 -5.69556 -2.79637 0
M  V30 19856 P 2711.57 -8.4349 -2.47671 0
M  V30 19857 O 2712.97 -8.99283 -2.62101 0
M  V30 19858 O 2711.2 -7.81195 -1.16947 0
M  V30 19859 O 2711.25 -7.36797 -3.63761 0
M  V30 19860 C 2711.09 -7.95349 -4.982 0
M  V30 19861 C 2711.63 -6.94537 -5.98908 0
M  V30 19862 O 2710.57 -6.10277 -6.11744 0
M  V30 19863 C 2712.85 -6.11426 -5.62335 0
M  V30 19864 O 2713.59 -5.6162 -6.70584 0
M  V30 19865 C 2712.18 -5.04409 -4.73308 0
M  V30 19866 O 2712.98 -3.85929 -4.75106 0
M  V30 19867 C 2710.84 -4.8728 -5.41006 0
M  V30 19868 N 2709.8 -4.65812 -4.42377 0
M  V30 19869 C 2708.76 -3.81293 -4.74224 0
M  V30 19870 O 2708.8 -3.20533 -5.83679 0
M  V30 19871 N 2707.75 -3.6442 -3.86349 0
M  V30 19872 C 2707.8 -4.2728 -2.6824 0
M  V30 19873 N 2706.79 -4.09866 -1.83822 0
M  V30 19874 C 2708.9 -5.10813 -2.3217 0
M  V30 19875 C 2709.86 -5.27909 -3.22647 0
M  V30 19876 H 2710.87 -4.02278 -6.11074 0
M  V30 19877 H 2712.06 -5.39013 -3.70026 0
M  V30 19878 H 2713.54 -6.71494 -5.02675 0
M  V30 19879 H 2711.85 -7.45796 -6.94223 0
M  V30 19880 H 2711.66 -8.89416 -5.05237 0
M  V30 19881 H 2710.03 -8.14791 -5.18355 0
M  V30 19882 H 2708.94 -5.58884 -1.34755 0
M  V30 19883 H 2710.71 -5.92811 -2.9934 0
M  V30 19884 H 2706 -3.49095 -2.10018 0
M  V30 19885 H 2706.8 -4.56846 -0.924167 0
M  V30 19886 H 2712.76 -3.3454 -5.51577 0
M  V30 19887 P 2714.52 -5.75688 -6.64379 0
M  V30 19888 O 2715.95 -6.07627 -7.05504 0
M  V30 19889 O 2714.16 -5.88047 -5.19722 0
M  V30 19890 O 2714.2 -4.2322 -7.04443 0
M  V30 19891 C 2714.04 -3.99743 -8.4911 0
M  V30 19892 C 2714.58 -2.60516 -8.79425 0
M  V30 19893 O 2713.53 -1.82684 -8.4467 0
M  V30 19894 C 2715.8 -2.10343 -8.03628 0
M  V30 19895 O 2716.54 -1.09919 -8.67766 0
M  V30 19896 C 2715.13 -1.68446 -6.70876 0
M  V30 19897 O 2715.93 -0.678137 -6.08433 0
M  V30 19898 C 2713.79 -1.17436 -7.18567 0
M  V30 19899 H 2713.83 -0.0804732 -7.31656 0
M  V30 19900 H 2715.01 -2.54037 -6.02537 0
M  V30 19901 H 2716.49 -2.93881 -7.85526 0
M  V30 19902 H 2714.8 -2.53065 -9.86973 0
M  V30 19903 H 2714.61 -4.75072 -9.05887 0
M  V30 19904 H 2712.98 -4.05244 -8.76668 0
M  V30 19905 H 2715.62 0.177647 -6.34251 0
M  V30 19906 P 2717.47 -1.25109 -8.70152 0
M  V30 19907 O 2718.88 -1.3516 -9.26897 0
M  V30 19908 O 2717.1 -2.18141 -7.59181 0
M  V30 19909 O 2717.15 0.248118 -8.21325 0
M  V30 19910 C 2716.99 1.22779 -9.30434 0
M  V30 19911 C 2717.53 2.56265 -8.80568 0
M  V30 19912 O 2716.48 3.02944 -8.09255 0
M  V30 19913 C 2718.75 2.57523 -7.89775 0
M  V30 19914 O 2719.49 3.7668 -7.89438 0
M  V30 19915 C 2718.08 2.20997 -6.55446 0
M  V30 19916 O 2718.88 2.71851 -5.48419 0
M  V30 19917 C 2716.74 2.89693 -6.67988 0
M  V30 19918 N 2715.7 2.08895 -6.07487 0
M  V30 19919 C 2714.67 2.72974 -5.43836 0
M  V30 19920 O 2714.7 3.97779 -5.34036 0
M  V30 19921 N 2713.65 2.0005 -4.91983 0
M  V30 19922 C 2713.7 0.66501 -5.00098 0
M  V30 19923 C 2714.8 -0.0100979 -5.61099 0
M  V30 19924 C 2715.76 0.74189 -6.14236 0
M  V30 19925 H 2716.78 3.8874 -6.19774 0
M  V30 19926 H 2717.96 1.12673 -6.44018 0
M  V30 19927 H 2719.44 1.783 -8.19631 0
M  V30 19928 H 2717.75 3.21673 -9.66791 0
M  V30 19929 H 2717.56 0.901032 -10.1892 0
M  V30 19930 H 2715.93 1.33036 -9.56493 0
M  V30 19931 H 2714.85 -1.09591 -5.64358 0
M  V30 19932 H 2716.61 0.260263 -6.6359 0
M  V30 19933 H 2718.66 3.62759 -5.33442 0
M  V30 19934 P 2720.43 3.65191 -7.99657 0
M  V30 19935 O 2721.85 3.89374 -8.45885 0
M  V30 19936 O 2720.07 2.28472 -7.50807 0
M  V30 19937 O 2720.1 4.64972 -6.77611 0
M  V30 19938 C 2719.94 6.06383 -7.16428 0
M  V30 19939 C 2720.48 6.91731 -6.02299 0
M  V30 19940 O 2719.43 6.92369 -5.17005 0
M  V30 19941 C 2721.7 6.43627 -5.25174 0
M  V30 19942 O 2722.44 7.43686 -4.60469 0
M  V30 19943 C 2721.03 5.40275 -4.31916 0
M  V30 19944 O 2721.83 5.24878 -3.14911 0
M  V30 19945 C 2719.69 6.04847 -4.05327 0
M  V30 19946 N 2718.65 5.04166 -3.98114 0
M  V30 19947 C 2718.82 3.84629 -4.59066 0
M  V30 19948 N 2717.79 3.0363 -4.45343 0
M  V30 19949 C 2716.91 3.76722 -3.68523 0
M  V30 19950 C 2715.64 3.43528 -3.17088 0
M  V30 19951 N 2715.08 4.44526 -2.44231 0
M  V30 19952 C 2715.68 5.65243 -2.20146 0
M  V30 19953 N 2716.86 6.00221 -2.65453 0
M  V30 19954 C 2717.43 5.00564 -3.39083 0
M  V30 19955 H 2720.91 4.42969 -4.80867 0
M  V30 19956 H 2722.39 5.92458 -5.93643 0
M  V30 19957 H 2720.7 7.93295 -6.39407 0
M  V30 19958 H 2720.51 6.26671 -8.0846 0
M  V30 19959 H 2718.88 6.29101 -7.32804 0
M  V30 19960 H 2719.72 3.58193 -5.14248 0
M  V30 19961 H 2721.52 5.84223 -2.47279 0
M  V30 19962 P 2723.38 7.39546 -4.75277 0
M  V30 19963 O 2724.8 7.84798 -5.01039 0
M  V30 19964 O 2723.02 5.9812 -5.08098 0
M  V30 19965 O 2723.05 7.57503 -3.1866 0
M  V30 19966 C 2722.89 8.97357 -2.74833 0
M  V30 19967 C 2723.43 9.07548 -1.32709 0
M  V30 19968 O 2722.38 8.62072 -0.606159 0
M  V30 19969 C 2724.65 8.25383 -0.938334 0
M  V30 19970 O 2725.39 8.74577 0.146954 0
M  V30 19971 C 2723.98 6.8802 -0.712559 0
M  V30 19972 O 2724.78 6.1189 0.194655 0
M  V30 19973 C 2722.65 7.27966 -0.139777 0
M  V30 19974 H 2722.68 7.25354 0.961601 0
M  V30 19975 H 2723.86 6.32557 -1.65702 0
M  V30 19976 H 2725.34 8.19355 -1.79097 0
M  V30 19977 H 2723.65 10.1294 -1.10029 0
M  V30 19978 H 2723.46 9.64276 -3.41316 0
M  V30 19979 H 2721.83 9.25417 -2.76357 0
M  V30 19980 H 2724.47 6.25267 1.07847 0
M  V30 19981 P 2726.33 8.791 1.00632e-11 0
M  V30 19982 O 2727.75 9.31096 0.027933 0
M  V30 19983 O 2725.97 7.77869 -1.04071 0
M  V30 19984 O 2726 8.09533 1.41463 0
M  V30 19985 C 2725.84 9.0349 2.53943 0
M  V30 19986 C 2726.38 8.35226 3.79016 0
M  V30 19987 O 2725.33 7.57992 4.15078 0
M  V30 19988 C 2727.6 7.45087 3.67298 0
M  V30 19989 O 2728.34 7.27796 4.85194 0
M  V30 19990 C 2726.93 6.17323 3.12027 0
M  V30 19991 O 2727.73 5.04231 3.47188 0
M  V30 19992 C 2725.6 6.19961 3.81809 0
M  V30 19993 H 2725.63 5.58218 4.73051 0
M  V30 19994 H 2726.81 6.21726 2.02589 0
M  V30 19995 H 2728.29 7.86112 2.9231 0
M  V30 19996 H 2726.6 9.11627 4.55076 0
M  V30 19997 H 2726.41 9.9573 2.34194 0
M  V30 19998 H 2724.78 9.2792 2.67832 0
M  V30 19999 H 2727.42 4.67702 4.28772 0
M  V30 20000 P 2729.28 7.39546 4.75277 0
M  V30 20001 O 2730.7 7.81945 5.05847 0
M  V30 20002 O 2728.92 7.1065 3.32998 0
M  V30 20003 O 2728.95 6.04542 5.56673 0
M  V30 20004 C 2728.79 6.22772 7.02095 0
M  V30 20005 C 2729.33 4.97671 7.70322 0
M  V30 20006 O 2728.28 4.13256 7.58987 0
M  V30 20007 C 2730.55 4.28231 7.11815 0
M  V30 20008 O 2731.29 3.49945 8.01648 0
M  V30 20009 C 2729.88 3.5063 5.96244 0
M  V30 20010 O 2730.68 2.36443 5.64589 0
M  V30 20011 C 2728.55 3.15122 6.56374 0
M  V30 20012 N 2727.5 3.22311 5.55692 0
M  V30 20013 C 2727.57 4.14382 4.59701 0
M  V30 20014 N 2726.52 4.04476 3.76958 0
M  V30 20015 C 2725.79 3.04892 4.26534 0
M  V30 20016 C 2724.48 2.57447 3.88189 0
M  V30 20017 O 2723.75 2.9785 2.96543 0
M  V30 20018 N 2724.05 1.55228 4.65922 0
M  V30 20019 C 2724.8 1.01152 5.73447 0
M  V30 20020 N 2724.2 -0.0472117 6.37783 0
M  V30 20021 N 2725.95 1.467 6.13813 0
M  V30 20022 C 2726.41 2.4931 5.38487 0
M  V30 20023 H 2728.58 2.13853 6.99751 0
M  V30 20024 H 2729.76 4.13438 5.06482 0
M  V30 20025 H 2731.25 5.02614 6.71414 0
M  V30 20026 H 2729.55 5.20877 8.75697 0
M  V30 20027 H 2729.36 7.11046 7.35349 0
M  V30 20028 H 2727.73 6.35815 7.26986 0
M  V30 20029 H 2723.15 1.15238 4.46468 0
M  V30 20030 H 2728.36 4.88312 4.49647 0
M  V30 20031 H 2723.29 -0.396382 6.05203 0
M  V30 20032 H 2724.67 -0.484997 7.18465 0
M  V30 20033 H 2730.37 1.61619 6.13468 0
M  V30 20034 P 2732.23 3.65191 7.99657 0
M  V30 20035 O 2733.65 3.8425 8.48115 0
M  V30 20036 O 2731.87 4.17805 6.64342 0
M  V30 20037 O 2731.9 2.07613 7.95143 0
M  V30 20038 C 2731.74 1.44328 9.27336 0
M  V30 20039 C 2732.28 0.0220036 9.17197 0
M  V30 20040 O 2731.23 -0.626867 8.61923 0
M  V30 20041 C 2733.5 -0.24586 8.30336 0
M  V30 20042 O 2734.24 -1.39011 8.63583 0
M  V30 20043 C 2732.83 -0.273849 6.91158 0
M  V30 20044 O 2733.63 -1.06348 6.02892 0
M  V30 20045 C 2731.5 -0.897649 7.22545 0
M  V30 20046 H 2731.53 -1.9841 7.04286 0
M  V30 20047 H 2732.71 0.739928 6.497 0
M  V30 20048 H 2734.2 0.60668 8.36503 0
M  V30 20049 H 2732.5 -0.352479 10.1829 0
M  V30 20050 H 2732.31 2.00611 10.0304 0
M  V30 20051 H 2730.68 1.41843 9.55327 0
M  V30 20052 H 2733.32 -1.95734 6.03555 0
M  V30 20053 P 2735.18 -1.25109 8.70152 0
M  V30 20054 O 2736.6 -1.35274 9.21221 0
M  V30 20055 O 2734.82 -0.0769065 7.84762 0
M  V30 20056 O 2734.86 -2.55232 7.81161 0
M  V30 20057 C 2734.7 -3.79939 8.58154 0
M  V30 20058 C 2735.24 -4.94023 7.72785 0
M  V30 20059 O 2734.18 -5.18726 6.91205 0
M  V30 20060 C 2736.45 -4.69597 6.85231 0
M  V30 20061 O 2737.19 -5.83832 6.51337 0
M  V30 20062 C 2735.78 -3.96706 5.66633 0
M  V30 20063 O 2736.58 -4.15414 4.49689 0
M  V30 20064 C 2734.45 -4.66153 5.59313 0
M  V30 20065 H 2734.48 -5.47679 4.85214 0
M  V30 20066 H 2735.66 -2.89008 5.86566 0
M  V30 20067 H 2737.15 -4.0121 7.36511 0
M  V30 20068 H 2735.45 -5.80182 8.37584 0
M  V30 20069 H 2735.26 -3.73517 9.52265 0
M  V30 20070 H 2733.63 -3.97163 8.80359 0
M  V30 20071 H 2736.27 -4.90969 4.01921 0
M  V30 20072 P 2738.13 -5.75688 6.64379 0
M  V30 20073 O 2739.55 -6.11849 7.01846 0
M  V30 20074 O 2737.77 -4.30744 6.56026 0
M  V30 20075 O 2737.81 -6.37042 5.19165 0
M  V30 20076 C 2737.65 -7.83578 5.16515 0
M  V30 20077 C 2738.19 -8.33398 3.83019 0
M  V30 20078 O 2737.13 -8.10074 3.01034 0
M  V30 20079 C 2739.4 -7.65514 3.2257 0
M  V30 20080 O 2740.14 -8.4329 2.32297 0
M  V30 20081 C 2738.73 -6.40075 2.62207 0
M  V30 20082 O 2739.53 -5.92589 1.53712 0
M  V30 20083 C 2737.4 -6.9454 2.18503 0
M  V30 20084 H 2737.43 -7.23063 1.12091 0
M  V30 20085 H 2738.61 -5.6025 3.37201 0
M  V30 20086 H 2740.1 -7.35707 4.02681 0
M  V30 20087 H 2738.4 -9.40912 3.9095 0
M  V30 20088 H 2738.21 -8.29056 5.99158 0
M  V30 20089 H 2736.58 -8.10073 5.25882 0
M  V30 20090 H 2739.22 -6.30324 0.726794 0
M  V30 20091 P 2741.08 -8.4349 2.47671 0
M  V30 20092 O 2742.5 -8.94167 2.5964 0
M  V30 20093 O 2740.72 -7.1704 3.19006 0
M  V30 20094 O 2740.76 -8.16596 0.923387 0
M  V30 20095 C 2740.6 -9.38437 0.108857 0
M  V30 20096 C 2741.14 -9.08175 -1.28353 0
M  V30 20097 O 2740.08 -8.44229 -1.84713 0
M  V30 20098 C 2742.35 -8.18386 -1.42505 0
M  V30 20099 O 2743.09 -8.3501 -2.60497 0
M  V30 20100 C 2741.69 -6.80225 -1.25468 0
M  V30 20101 O 2742.48 -5.81621 -1.91066 0
M  V30 20102 C 2740.35 -7.02416 -1.9168 0
M  V30 20103 H 2740.38 -6.6888 -2.96621 0
M  V30 20104 H 2741.56 -6.53617 -0.192223 0
M  V30 20105 H 2743.05 -8.36622 -0.589963 0
M  V30 20106 H 2741.35 -10.0291 -1.79807 0
M  V30 20107 H 2741.16 -10.2138 0.558219 0
M  V30 20108 H 2739.53 -9.6579 0.0444202 0
M  V30 20109 H 2742.17 -5.69556 -2.79637 0
M  V30 20110 P 2744.03 -8.4349 -2.47671 0
M  V30 20111 O 2745.45 -8.92593 -2.65 0
M  V30 20112 O 2743.67 -7.7568 -1.19296 0
M  V30 20113 O 2743.71 -7.36886 -3.63805 0
M  V30 20114 C 2743.55 -7.95349 -4.982 0
M  V30 20115 C 2744.09 -6.94612 -5.98974 0
M  V30 20116 O 2743.03 -6.10347 -6.11815 0
M  V30 20117 C 2745.31 -6.11426 -5.62335 0
M  V30 20118 O 2746.04 -5.6162 -6.70584 0
M  V30 20119 C 2744.64 -5.04409 -4.73308 0
M  V30 20120 O 2745.44 -3.85992 -4.75183 0
M  V30 20121 C 2743.3 -4.8728 -5.41006 0
M  V30 20122 H 2743.33 -4.02333 -6.11157 0
M  V30 20123 H 2744.51 -5.39466 -3.69543 0
M  V30 20124 H 2746 -6.71916 -5.01943 0
M  V30 20125 H 2744.3 -7.4649 -6.93477 0
M  V30 20126 H 2744.11 -8.89416 -5.05237 0
M  V30 20127 H 2742.48 -8.14876 -5.18409 0
M  V30 20128 H 2745.12 -3.27957 -5.4317 0
M  V30 20129 P 2746.98 -5.75688 -6.64379 0
M  V30 20130 O 2748.4 -6.07758 -7.05656 0
M  V30 20131 O 2746.62 -5.88047 -5.19722 0
M  V30 20132 O 2746.66 -4.2322 -7.04443 0
M  V30 20133 C 2746.5 -3.99743 -8.4911 0
M  V30 20134 C 2747.04 -2.60487 -8.79329 0
M  V30 20135 O 2745.98 -1.82684 -8.4467 0
M  V30 20136 C 2748.26 -2.10343 -8.03628 0
M  V30 20137 O 2748.99 -1.09919 -8.67766 0
M  V30 20138 C 2747.59 -1.68446 -6.70876 0
M  V30 20139 O 2748.39 -0.678026 -6.08333 0
M  V30 20140 C 2746.25 -1.17436 -7.18567 0
M  V30 20141 N 2745.21 -1.52699 -6.23988 0
M  V30 20142 C 2745.27 -2.68084 -5.57824 0
M  V30 20143 N 2744.22 -2.8189 -4.75643 0
M  V30 20144 C 2743.49 -1.72373 -4.95155 0
M  V30 20145 C 2742.18 -1.37653 -4.44996 0
M  V30 20146 O 2741.45 -2.02239 -3.68445 0
M  V30 20147 N 2741.75 -0.17675 -4.90782 0
M  V30 20148 C 2742.5 0.645036 -5.78716 0
M  V30 20149 N 2741.91 1.84214 -6.10618 0
M  V30 20150 N 2743.66 0.321732 -6.30279 0
M  V30 20151 C 2744.11 -0.87502 -5.86913 0
M  V30 20152 H 2746.28 -0.0804732 -7.31656 0
M  V30 20153 H 2747.46 -2.53998 -6.02444 0
M  V30 20154 H 2748.95 -2.93095 -7.8582 0
M  V30 20155 H 2747.25 -2.53065 -9.86973 0
M  V30 20156 H 2747.06 -4.75072 -9.05887 0
M  V30 20157 H 2745.43 -4.05244 -8.76668 0
M  V30 20158 H 2740.86 0.152143 -4.60849 0
M  V30 20159 H 2746.06 -3.41852 -5.69006 0
M  V30 20160 H 2740.99 2.08538 -5.69521 0
M  V30 20161 H 2742.37 2.4895 -6.75698 0
M  V30 20162 H 2748.07 0.177619 -6.34151 0
M  V30 20163 P 2749.93 -1.25109 -8.70152 0
M  V30 20164 O 2751.35 -1.29744 -9.22016 0
M  V30 20165 O 2749.57 -2.13714 -7.55141 0
M  V30 20166 O 2749.61 0.248149 -8.21425 0
M  V30 20167 C 2749.45 1.22779 -9.30434 0
M  V30 20168 C 2749.99 2.56293 -8.80664 0
M  V30 20169 O 2748.93 3.02979 -8.09349 0
M  V30 20170 C 2751.21 2.57523 -7.89775 0
M  V30 20171 O 2751.94 3.7668 -7.89438 0
M  V30 20172 C 2750.54 2.20997 -6.55446 0
M  V30 20173 O 2751.34 2.71895 -5.48509 0
M  V30 20174 C 2749.2 2.89693 -6.67988 0
M  V30 20175 H 2749.23 3.88793 -6.19859 0
M  V30 20176 H 2750.42 1.12046 -6.44229 0
M  V30 20177 H 2751.9 1.7746 -8.19711 0
M  V30 20178 H 2750.21 3.20706 -9.67112 0
M  V30 20179 H 2750.02 0.901032 -10.1892 0
M  V30 20180 H 2748.39 1.33049 -9.56592 0
M  V30 20181 H 2751.02 3.57847 -5.23962 0
M  V30 20182 P 2752.88 3.65191 -7.99657 0
M  V30 20183 O 2754.3 3.89332 -8.45794 0
M  V30 20184 O 2752.52 2.28472 -7.50807 0
M  V30 20185 O 2752.56 4.64972 -6.77611 0
M  V30 20186 C 2752.4 6.06319 -7.16352 0
M  V30 20187 C 2752.94 6.91731 -6.02299 0
M  V30 20188 O 2751.88 6.92449 -5.17064 0
M  V30 20189 C 2754.16 6.43627 -5.25174 0
M  V30 20190 O 2754.89 7.43686 -4.60469 0
M  V30 20191 C 2753.49 5.40275 -4.31916 0
M  V30 20192 O 2754.29 5.25279 -3.14438 0
M  V30 20193 C 2752.15 6.04847 -4.05327 0
M  V30 20194 H 2752.18 6.62195 -3.11261 0
M  V30 20195 H 2753.37 4.42556 -4.81383 0
M  V30 20196 H 2754.85 5.92458 -5.93643 0
M  V30 20197 H 2753.16 7.92655 -6.402 0
M  V30 20198 H 2752.97 6.26671 -8.0846 0
M  V30 20199 H 2751.34 6.29101 -7.32804 0
M  V30 20200 H 2753.97 5.84315 -2.47318 0
M  V30 20201 P 2755.83 7.39546 -4.75277 0
M  V30 20202 O 2757.25 7.84798 -5.01039 0
M  V30 20203 O 2755.47 5.9812 -5.08098 0
M  V30 20204 O 2755.51 7.57503 -3.1866 0
M  V30 20205 C 2755.35 8.97357 -2.74833 0
M  V30 20206 C 2755.89 9.07548 -1.32709 0
M  V30 20207 O 2754.83 8.62072 -0.606159 0
M  V30 20208 C 2757.11 8.25383 -0.938334 0
M  V30 20209 O 2757.85 8.74577 0.146954 0
M  V30 20210 C 2756.44 6.8802 -0.712559 0
M  V30 20211 O 2757.24 6.1189 0.194655 0
M  V30 20212 C 2755.1 7.27966 -0.139777 0
M  V30 20213 H 2755.13 7.25354 0.961601 0
M  V30 20214 H 2756.32 6.32557 -1.65702 0
M  V30 20215 H 2757.8 8.19355 -1.79097 0
M  V30 20216 H 2756.11 10.1294 -1.10029 0
M  V30 20217 H 2755.92 9.64276 -3.41316 0
M  V30 20218 H 2754.29 9.25417 -2.76357 0
M  V30 20219 H 2756.93 6.25267 1.07847 0
M  V30 20220 P 2758.78 8.791 4.87655e-12 0
M  V30 20221 O 2760.2 9.31096 0.027933 0
M  V30 20222 O 2758.42 7.77869 -1.04071 0
M  V30 20223 O 2758.46 8.09533 1.41463 0
M  V30 20224 C 2758.3 9.0349 2.53943 0
M  V30 20225 C 2758.84 8.35226 3.79016 0
M  V30 20226 O 2757.78 7.57992 4.15078 0
M  V30 20227 C 2760.06 7.45087 3.67298 0
M  V30 20228 O 2760.8 7.27796 4.85194 0
M  V30 20229 C 2759.39 6.17323 3.12027 0
M  V30 20230 O 2760.19 5.04231 3.47188 0
M  V30 20231 C 2758.05 6.19961 3.81809 0
M  V30 20232 H 2758.08 5.58218 4.73051 0
M  V30 20233 H 2759.27 6.21726 2.02589 0
M  V30 20234 H 2760.75 7.86112 2.9231 0
M  V30 20235 H 2759.06 9.11627 4.55076 0
M  V30 20236 H 2758.87 9.9573 2.34194 0
M  V30 20237 H 2757.24 9.2792 2.67832 0
M  V30 20238 H 2759.88 4.67702 4.28772 0
M  V30 20239 P 2761.73 7.39546 4.75277 0
M  V30 20240 O 2763.16 7.81777 5.05738 0
M  V30 20241 O 2761.37 7.1065 3.32998 0
M  V30 20242 O 2761.41 6.04542 5.56673 0
M  V30 20243 C 2761.25 6.22772 7.02095 0
M  V30 20244 C 2761.79 4.97725 7.70406 0
M  V30 20245 O 2760.73 4.13256 7.58987 0
M  V30 20246 C 2763.01 4.28231 7.11815 0
M  V30 20247 O 2763.75 3.49945 8.01648 0
M  V30 20248 C 2762.34 3.5063 5.96244 0
M  V30 20249 O 2763.14 2.36482 5.64681 0
M  V30 20250 C 2761 3.15122 6.56374 0
M  V30 20251 H 2761.03 2.13853 6.99751 0
M  V30 20252 H 2762.22 4.13501 5.06559 0
M  V30 20253 H 2763.7 5.03285 6.70911 0
M  V30 20254 H 2762.01 5.20877 8.75697 0
M  V30 20255 H 2761.82 7.11046 7.35349 0
M  V30 20256 H 2760.19 6.35815 7.26986 0
M  V30 20257 H 2762.83 1.61644 6.13565 0
M  V30 20258 P 2764.68 3.65191 7.99657 0
M  V30 20259 O 2766.11 3.8425 8.48115 0
M  V30 20260 O 2764.32 4.17805 6.64342 0
M  V30 20261 O 2764.36 2.07613 7.95143 0
M  V30 20262 C 2764.2 1.44328 9.27336 0
M  V30 20263 C 2764.74 0.0220036 9.17197 0
M  V30 20264 O 2763.69 -0.626867 8.61923 0
M  V30 20265 C 2765.96 -0.24586 8.30336 0
M  V30 20266 O 2766.7 -1.39011 8.63583 0
M  V30 20267 C 2765.29 -0.273849 6.91158 0
M  V30 20268 O 2766.09 -1.06348 6.02892 0
M  V30 20269 C 2763.95 -0.897649 7.22545 0
M  V30 20270 H 2763.99 -1.9841 7.04286 0
M  V30 20271 H 2765.17 0.739928 6.497 0
M  V30 20272 H 2766.65 0.60668 8.36503 0
M  V30 20273 H 2764.96 -0.352479 10.1829 0
M  V30 20274 H 2764.77 2.00611 10.0304 0
M  V30 20275 H 2763.14 1.41843 9.55327 0
M  V30 20276 H 2765.78 -1.95734 6.03555 0
M  V30 20277 P 2767.63 -1.25109 8.70152 0
M  V30 20278 O 2769.04 -1.31452 9.27431 0
M  V30 20279 O 2767.26 -0.0458113 7.89887 0
M  V30 20280 O 2767.31 -2.55201 7.81066 0
M  V30 20281 C 2767.15 -3.79939 8.58154 0
M  V30 20282 C 2767.69 -4.93969 7.72701 0
M  V30 20283 O 2766.64 -5.18666 6.91125 0
M  V30 20284 C 2768.91 -4.69597 6.85231 0
M  V30 20285 O 2769.65 -5.83832 6.51337 0
M  V30 20286 C 2768.24 -3.96706 5.66633 0
M  V30 20287 O 2769.04 -4.15346 4.49615 0
M  V30 20288 C 2766.9 -4.66153 5.59313 0
M  V30 20289 N 2765.86 -3.71582 5.24027 0
M  V30 20290 C 2764.83 -4.15133 4.44901 0
M  V30 20291 O 2764.86 -5.32122 4.00336 0
M  V30 20292 N 2763.81 -3.30554 4.15693 0
M  V30 20293 C 2763.86 -2.04701 4.61105 0
M  V30 20294 C 2764.96 -1.57111 5.38655 0
M  V30 20295 C 2765.92 -2.44234 5.68454 0
M  V30 20296 H 2766.94 -5.47604 4.85148 0
M  V30 20297 H 2768.12 -2.8955 5.86187 0
M  V30 20298 H 2769.6 -4.01995 7.36197 0
M  V30 20299 H 2767.91 -5.81019 8.37003 0
M  V30 20300 H 2767.72 -3.73517 9.52265 0
M  V30 20301 H 2766.09 -3.97122 8.80267 0
M  V30 20302 H 2765.01 -0.538464 5.72373 0
M  V30 20303 H 2766.77 -2.11927 6.29377 0
M  V30 20304 H 2768.82 -4.98352 4.09633 0
M  V30 20305 P 2770.59 -5.75688 6.64379 0
M  V30 20306 O 2772.01 -6.11849 7.01846 0
M  V30 20307 O 2770.23 -4.30744 6.56026 0
M  V30 20308 O 2770.26 -6.37042 5.19165 0
M  V30 20309 C 2770.1 -7.83578 5.16515 0
M  V30 20310 C 2770.64 -8.33398 3.83019 0
M  V30 20311 O 2769.59 -8.10074 3.01034 0
M  V30 20312 C 2771.86 -7.65514 3.2257 0
M  V30 20313 O 2772.6 -8.4329 2.32297 0
M  V30 20314 C 2771.19 -6.40075 2.62207 0
M  V30 20315 O 2771.99 -5.92589 1.53712 0
M  V30 20316 C 2769.85 -6.9454 2.18503 0
M  V30 20317 H 2769.89 -7.23063 1.12091 0
M  V30 20318 H 2771.07 -5.6025 3.37201 0
M  V30 20319 H 2772.55 -7.35707 4.02681 0
M  V30 20320 H 2770.86 -9.40912 3.9095 0
M  V30 20321 H 2770.67 -8.29056 5.99158 0
M  V30 20322 H 2769.04 -8.10073 5.25882 0
M  V30 20323 H 2771.68 -6.30324 0.726794 0
M  V30 20324 P 2773.54 -8.4349 2.47671 0
M  V30 20325 O 2774.96 -8.94263 2.59668 0
M  V30 20326 O 2773.18 -7.1704 3.19006 0
M  V30 20327 O 2773.21 -8.16596 0.923387 0
M  V30 20328 C 2773.05 -9.38537 0.108869 0
M  V30 20329 C 2773.59 -9.08175 -1.28353 0
M  V30 20330 O 2772.54 -8.44131 -1.84692 0
M  V30 20331 C 2774.81 -8.18386 -1.42505 0
M  V30 20332 O 2775.55 -8.3501 -2.60497 0
M  V30 20333 C 2774.14 -6.80225 -1.25468 0
M  V30 20334 O 2774.94 -5.81716 -1.90454 0
M  V30 20335 C 2772.8 -7.02416 -1.9168 0
M  V30 20336 N 2771.76 -6.31033 -1.20314 0
M  V30 20337 C 2771.93 -5.98817 0.0994088 0
M  V30 20338 N 2770.9 -5.35403 0.621694 0
M  V30 20339 C 2770.02 -5.25212 -0.43376 0
M  V30 20340 C 2768.75 -4.64602 -0.519722 0
M  V30 20341 N 2768.19 -4.7568 -1.76013 0
M  V30 20342 C 2768.79 -5.3653 -2.83017 0
M  V30 20343 N 2769.97 -5.93676 -2.79782 0
M  V30 20344 C 2770.54 -5.84061 -1.56249 0
M  V30 20345 H 2774.02 -6.53498 -0.198729 0
M  V30 20346 H 2775.5 -8.36622 -0.589963 0
M  V30 20347 H 2773.81 -10.0273 -1.8081 0
M  V30 20348 H 2773.62 -10.2138 0.558219 0
M  V30 20349 H 2771.99 -9.6579 0.0444202 0
M  V30 20350 H 2772.83 -6.23209 0.660562 0
M  V30 20351 H 2774.63 -5.69466 -2.79593 0
M  V30 20352 P 2776.49 -8.4349 -2.47671 0
M  V30 20353 O 2777.91 -8.92593 -2.65 0
M  V30 20354 O 2776.13 -7.7568 -1.19296 0
M  V30 20355 O 2776.16 -7.36886 -3.63805 0
M  V30 20356 C 2776 -7.95349 -4.982 0
M  V30 20357 C 2776.54 -6.94612 -5.98974 0
M  V30 20358 O 2775.49 -6.10347 -6.11815 0
M  V30 20359 C 2777.76 -6.11426 -5.62335 0
M  V30 20360 O 2778.5 -5.6162 -6.70584 0
M  V30 20361 C 2777.09 -5.04409 -4.73308 0
M  V30 20362 O 2777.89 -3.85992 -4.75183 0
M  V30 20363 C 2775.76 -4.8728 -5.41006 0
M  V30 20364 H 2775.79 -4.02333 -6.11157 0
M  V30 20365 H 2776.97 -5.39466 -3.69543 0
M  V30 20366 H 2778.45 -6.71916 -5.01943 0
M  V30 20367 H 2776.76 -7.4649 -6.93477 0
M  V30 20368 H 2776.57 -8.89416 -5.05237 0
M  V30 20369 H 2774.94 -8.14876 -5.18409 0
M  V30 20370 H 2777.58 -3.27957 -5.4317 0
M  V30 20371 P 2779.44 -5.75688 -6.64379 0
M  V30 20372 O 2780.86 -6.07627 -7.05504 0
M  V30 20373 O 2779.08 -5.88047 -5.19722 0
M  V30 20374 O 2779.11 -4.2322 -7.04443 0
M  V30 20375 C 2778.95 -3.99743 -8.4911 0
M  V30 20376 C 2779.49 -2.60516 -8.79425 0
M  V30 20377 O 2778.44 -1.82684 -8.4467 0
M  V30 20378 C 2780.71 -2.10343 -8.03628 0
M  V30 20379 O 2781.45 -1.09919 -8.67766 0
M  V30 20380 C 2780.04 -1.68446 -6.70876 0
M  V30 20381 O 2780.84 -0.678137 -6.08433 0
M  V30 20382 C 2778.71 -1.17436 -7.18567 0
M  V30 20383 H 2778.74 -0.0804732 -7.31656 0
M  V30 20384 H 2779.92 -2.54037 -6.02537 0
M  V30 20385 H 2781.4 -2.93881 -7.85526 0
M  V30 20386 H 2779.71 -2.53065 -9.86973 0
M  V30 20387 H 2779.52 -4.75072 -9.05887 0
M  V30 20388 H 2777.89 -4.05244 -8.76668 0
M  V30 20389 H 2780.53 0.177647 -6.34251 0
M  V30 20390 P 2782.39 -1.25109 -8.70152 0
M  V30 20391 O 2783.81 -1.29744 -9.22016 0
M  V30 20392 O 2782.03 -2.13714 -7.55141 0
M  V30 20393 O 2782.06 0.248149 -8.21425 0
M  V30 20394 C 2781.9 1.22779 -9.30434 0
M  V30 20395 C 2782.44 2.56293 -8.80664 0
M  V30 20396 O 2781.39 3.02979 -8.09349 0
M  V30 20397 C 2783.66 2.57523 -7.89775 0
M  V30 20398 O 2784.4 3.7668 -7.89438 0
M  V30 20399 C 2782.99 2.20997 -6.55446 0
M  V30 20400 O 2783.79 2.71895 -5.48509 0
M  V30 20401 C 2781.66 2.89693 -6.67988 0
M  V30 20402 H 2781.69 3.88793 -6.19859 0
M  V30 20403 H 2782.87 1.12046 -6.44229 0
M  V30 20404 H 2784.36 1.7746 -8.19711 0
M  V30 20405 H 2782.66 3.20706 -9.67112 0
M  V30 20406 H 2782.47 0.901032 -10.1892 0
M  V30 20407 H 2780.84 1.33049 -9.56592 0
M  V30 20408 H 2783.48 3.57847 -5.23962 0
M  V30 20409 P 2785.34 3.65191 -7.99657 0
M  V30 20410 O 2786.76 3.89332 -8.45794 0
M  V30 20411 O 2784.98 2.28472 -7.50807 0
M  V30 20412 O 2785.02 4.64972 -6.77611 0
M  V30 20413 C 2784.86 6.06319 -7.16352 0
M  V30 20414 C 2785.4 6.91731 -6.02299 0
M  V30 20415 O 2784.34 6.92449 -5.17064 0
M  V30 20416 C 2786.61 6.43627 -5.25174 0
M  V30 20417 O 2787.35 7.43686 -4.60469 0
M  V30 20418 C 2785.94 5.40275 -4.31916 0
M  V30 20419 O 2786.74 5.25279 -3.14438 0
M  V30 20420 C 2784.61 6.04847 -4.05327 0
M  V30 20421 H 2784.64 6.62195 -3.11261 0
M  V30 20422 H 2785.82 4.42556 -4.81383 0
M  V30 20423 H 2787.31 5.92458 -5.93643 0
M  V30 20424 H 2785.61 7.92655 -6.402 0
M  V30 20425 H 2785.42 6.26671 -8.0846 0
M  V30 20426 H 2783.79 6.29101 -7.32804 0
M  V30 20427 H 2786.43 5.84315 -2.47318 0
M  V30 20428 P 2788.29 7.39546 -4.75277 0
M  V30 20429 O 2789.71 7.84798 -5.01039 0
M  V30 20430 O 2787.93 5.9812 -5.08098 0
M  V30 20431 O 2787.97 7.57503 -3.1866 0
M  V30 20432 C 2787.81 8.97357 -2.74833 0
M  V30 20433 C 2788.35 9.07548 -1.32709 0
M  V30 20434 O 2787.29 8.62072 -0.606159 0
M  V30 20435 C 2789.56 8.25383 -0.938334 0
M  V30 20436 O 2790.3 8.74577 0.146954 0
M  V30 20437 C 2788.89 6.8802 -0.712559 0
M  V30 20438 O 2789.69 6.1189 0.194655 0
M  V30 20439 C 2787.56 7.27966 -0.139777 0
M  V30 20440 H 2787.59 7.25354 0.961601 0
M  V30 20441 H 2788.77 6.32557 -1.65702 0
M  V30 20442 H 2790.26 8.19355 -1.79097 0
M  V30 20443 H 2788.56 10.1294 -1.10029 0
M  V30 20444 H 2788.37 9.64276 -3.41316 0
M  V30 20445 H 2786.74 9.25417 -2.76357 0
M  V30 20446 H 2789.38 6.25267 1.07847 0
M  V30 20447 P 2791.24 8.791 -3.10101e-13 0
M  V30 20448 O 2792.66 9.31096 0.027933 0
M  V30 20449 O 2790.88 7.77869 -1.04071 0
M  V30 20450 O 2790.92 8.09533 1.41463 0
M  V30 20451 C 2790.76 9.0349 2.53943 0
M  V30 20452 C 2791.3 8.35226 3.79016 0
M  V30 20453 O 2790.24 7.57992 4.15078 0
M  V30 20454 C 2792.51 7.45087 3.67298 0
M  V30 20455 O 2793.25 7.27796 4.85194 0
M  V30 20456 C 2791.85 6.17323 3.12027 0
M  V30 20457 O 2792.64 5.04231 3.47188 0
M  V30 20458 C 2790.51 6.19961 3.81809 0
M  V30 20459 H 2790.54 5.58218 4.73051 0
M  V30 20460 H 2791.72 6.21726 2.02589 0
M  V30 20461 H 2793.21 7.86112 2.9231 0
M  V30 20462 H 2791.51 9.11627 4.55076 0
M  V30 20463 H 2791.32 9.9573 2.34194 0
M  V30 20464 H 2789.69 9.2792 2.67832 0
M  V30 20465 H 2792.33 4.67702 4.28772 0
M  V30 20466 P 2794.19 7.39546 4.75277 0
M  V30 20467 O 2795.61 7.81777 5.05738 0
M  V30 20468 O 2793.83 7.1065 3.32998 0
M  V30 20469 O 2793.87 6.04542 5.56673 0
M  V30 20470 C 2793.71 6.22772 7.02095 0
M  V30 20471 C 2794.25 4.97725 7.70406 0
M  V30 20472 O 2793.19 4.13256 7.58987 0
M  V30 20473 C 2795.46 4.28231 7.11815 0
M  V30 20474 O 2796.2 3.49945 8.01648 0
M  V30 20475 C 2794.8 3.5063 5.96244 0
M  V30 20476 O 2795.59 2.36482 5.64681 0
M  V30 20477 C 2793.46 3.15122 6.56374 0
M  V30 20478 H 2793.49 2.13853 6.99751 0
M  V30 20479 H 2794.67 4.13501 5.06559 0
M  V30 20480 H 2796.16 5.03285 6.70911 0
M  V30 20481 H 2794.46 5.20877 8.75697 0
M  V30 20482 H 2794.27 7.11046 7.35349 0
M  V30 20483 H 2792.64 6.35815 7.26986 0
M  V30 20484 H 2795.28 1.61644 6.13565 0
M  V30 20485 P 2797.14 3.65191 7.99657 0
M  V30 20486 O 2798.56 3.8425 8.48115 0
M  V30 20487 O 2796.78 4.17805 6.64342 0
M  V30 20488 O 2796.82 2.07613 7.95143 0
M  V30 20489 C 2796.66 1.44328 9.27336 0
M  V30 20490 C 2797.2 0.0220036 9.17197 0
M  V30 20491 O 2796.14 -0.626867 8.61923 0
M  V30 20492 C 2798.42 -0.24586 8.30336 0
M  V30 20493 O 2799.15 -1.39011 8.63583 0
M  V30 20494 C 2797.75 -0.273849 6.91158 0
M  V30 20495 O 2798.55 -1.06348 6.02892 0
M  V30 20496 C 2796.41 -0.897649 7.22545 0
M  V30 20497 H 2796.44 -1.9841 7.04286 0
M  V30 20498 H 2797.62 0.739928 6.497 0
M  V30 20499 H 2799.11 0.60668 8.36503 0
M  V30 20500 H 2797.41 -0.352479 10.1829 0
M  V30 20501 H 2797.22 2.00611 10.0304 0
M  V30 20502 H 2795.59 1.41843 9.55327 0
M  V30 20503 H 2798.23 -1.95734 6.03555 0
M  V30 20504 P 2800.09 -1.25109 8.70152 0
M  V30 20505 O 2801.51 -1.35274 9.21221 0
M  V30 20506 O 2799.73 -0.0769065 7.84762 0
M  V30 20507 O 2799.77 -2.55232 7.81161 0
M  V30 20508 C 2799.61 -3.79939 8.58154 0
M  V30 20509 C 2800.15 -4.94023 7.72785 0
M  V30 20510 O 2799.09 -5.18726 6.91205 0
M  V30 20511 C 2801.37 -4.69597 6.85231 0
M  V30 20512 O 2802.1 -5.83832 6.51337 0
M  V30 20513 C 2800.7 -3.96706 5.66633 0
M  V30 20514 O 2801.5 -4.15414 4.49689 0
M  V30 20515 C 2799.36 -4.66153 5.59313 0
M  V30 20516 H 2799.39 -5.47679 4.85214 0
M  V30 20517 H 2800.57 -2.89008 5.86566 0
M  V30 20518 H 2802.06 -4.0121 7.36511 0
M  V30 20519 H 2800.36 -5.80182 8.37584 0
M  V30 20520 H 2800.17 -3.73517 9.52265 0
M  V30 20521 H 2798.54 -3.97163 8.80359 0
M  V30 20522 H 2801.18 -4.90969 4.01921 0
M  V30 20523 P 2803.04 -5.75688 6.64379 0
M  V30 20524 O 2804.46 -6.11849 7.01846 0
M  V30 20525 O 2802.68 -4.30744 6.56026 0
M  V30 20526 O 2802.72 -6.37042 5.19165 0
M  V30 20527 C 2802.56 -7.83578 5.16515 0
M  V30 20528 C 2803.1 -8.33398 3.83019 0
M  V30 20529 O 2802.04 -8.10074 3.01034 0
M  V30 20530 C 2804.32 -7.65514 3.2257 0
M  V30 20531 O 2805.05 -8.4329 2.32297 0
M  V30 20532 C 2803.65 -6.40075 2.62207 0
M  V30 20533 O 2804.45 -5.92589 1.53712 0
M  V30 20534 C 2802.31 -6.9454 2.18503 0
M  V30 20535 H 2802.34 -7.23063 1.12091 0
M  V30 20536 H 2803.53 -5.6025 3.37201 0
M  V30 20537 H 2805.01 -7.35707 4.02681 0
M  V30 20538 H 2803.32 -9.40912 3.9095 0
M  V30 20539 H 2803.13 -8.29056 5.99158 0
M  V30 20540 H 2801.5 -8.10073 5.25882 0
M  V30 20541 H 2804.13 -6.30324 0.726794 0
M  V30 20542 P 2805.99 -8.4349 2.47671 0
M  V30 20543 O 2807.41 -8.94167 2.5964 0
M  V30 20544 O 2805.63 -7.1704 3.19006 0
M  V30 20545 O 2805.67 -8.16596 0.923387 0
M  V30 20546 C 2805.51 -9.38437 0.108857 0
M  V30 20547 C 2806.05 -9.08175 -1.28353 0
M  V30 20548 O 2804.99 -8.44229 -1.84713 0
M  V30 20549 C 2807.27 -8.18386 -1.42505 0
M  V30 20550 O 2808.01 -8.3501 -2.60497 0
M  V30 20551 C 2806.6 -6.80225 -1.25468 0
M  V30 20552 O 2807.4 -5.81621 -1.91066 0
M  V30 20553 C 2805.26 -7.02416 -1.9168 0
M  V30 20554 H 2805.29 -6.6888 -2.96621 0
M  V30 20555 H 2806.48 -6.53617 -0.192223 0
M  V30 20556 H 2807.96 -8.36622 -0.589963 0
M  V30 20557 H 2806.27 -10.0291 -1.79807 0
M  V30 20558 H 2806.08 -10.2138 0.558219 0
M  V30 20559 H 2804.45 -9.6579 0.0444202 0
M  V30 20560 H 2807.09 -5.69556 -2.79637 0
M  V30 20561 P 2808.94 -8.4349 -2.47671 0
M  V30 20562 O 2810.36 -8.92593 -2.65 0
M  V30 20563 O 2808.58 -7.7568 -1.19296 0
M  V30 20564 O 2808.62 -7.36886 -3.63805 0
M  V30 20565 C 2808.46 -7.95349 -4.982 0
M  V30 20566 C 2809 -6.94612 -5.98974 0
M  V30 20567 O 2807.94 -6.10347 -6.11815 0
M  V30 20568 C 2810.22 -6.11426 -5.62335 0
M  V30 20569 O 2810.96 -5.6162 -6.70584 0
M  V30 20570 C 2809.55 -5.04409 -4.73308 0
M  V30 20571 O 2810.35 -3.85992 -4.75183 0
M  V30 20572 C 2808.21 -4.8728 -5.41006 0
M  V30 20573 H 2808.24 -4.02333 -6.11157 0
M  V30 20574 H 2809.43 -5.39466 -3.69543 0
M  V30 20575 H 2810.91 -6.71916 -5.01943 0
M  V30 20576 H 2809.22 -7.4649 -6.93477 0
M  V30 20577 H 2809.03 -8.89416 -5.05237 0
M  V30 20578 H 2807.4 -8.14876 -5.18409 0
M  V30 20579 H 2810.04 -3.27957 -5.4317 0
M  V30 20580 P 2811.89 -5.75688 -6.64379 0
M  V30 20581 O 2813.31 -6.07692 -7.0558 0
M  V30 20582 O 2811.53 -5.88047 -5.19722 0
M  V30 20583 O 2811.57 -4.2322 -7.04443 0
M  V30 20584 C 2811.41 -3.99785 -8.49201 0
M  V30 20585 C 2811.95 -2.60516 -8.79425 0
M  V30 20586 O 2810.9 -1.82663 -8.44573 0
M  V30 20587 C 2813.17 -2.10343 -8.03628 0
M  V30 20588 O 2813.91 -1.09919 -8.67766 0
M  V30 20589 C 2812.5 -1.68446 -6.70876 0
M  V30 20590 O 2813.3 -0.684109 -6.08265 0
M  V30 20591 C 2811.16 -1.17436 -7.18567 0
M  V30 20592 N 2810.12 -1.52699 -6.23988 0
M  V30 20593 C 2810.29 -2.578 -5.40574 0
M  V30 20594 N 2809.26 -2.78966 -4.61193 0
M  V30 20595 C 2808.38 -1.78725 -4.95769 0
M  V30 20596 C 2807.11 -1.45727 -4.44207 0
M  V30 20597 N 2806.51 -2.13994 -3.43613 0
M  V30 20598 N 2806.54 -0.374977 -5.05812 0
M  V30 20599 C 2807.15 0.345585 -6.05615 0
M  V30 20600 N 2808.32 0.0787651 -6.56253 0
M  V30 20601 C 2808.9 -1.00499 -5.96189 0
M  V30 20602 H 2811.19 -0.0804622 -7.31556 0
M  V30 20603 H 2812.38 -2.53396 -6.02698 0
M  V30 20604 H 2813.86 -2.93881 -7.85526 0
M  V30 20605 H 2812.17 -2.52078 -9.87225 0
M  V30 20606 H 2811.98 -4.75072 -9.05887 0
M  V30 20607 H 2810.35 -4.05244 -8.76668 0
M  V30 20608 H 2806.61 1.20098 -6.4532 0
M  V30 20609 H 2811.19 -3.18977 -5.3945 0
M  V30 20610 H 2805.58 -1.84983 -3.10004 0
M  V30 20611 H 2806.98 -2.9465 -3.00843 0
M  V30 20612 H 2812.99 0.177619 -6.34151 0
M  V30 20613 P 2814.84 -1.25109 -8.70152 0
M  V30 20614 O 2816.27 -1.29744 -9.22016 0
M  V30 20615 O 2814.48 -2.13714 -7.55141 0
M  V30 20616 O 2814.52 0.248149 -8.21425 0
M  V30 20617 C 2814.36 1.22779 -9.30434 0
M  V30 20618 C 2814.9 2.56293 -8.80664 0
M  V30 20619 O 2813.84 3.02979 -8.09349 0
M  V30 20620 C 2816.12 2.57523 -7.89775 0
M  V30 20621 O 2816.86 3.7668 -7.89438 0
M  V30 20622 C 2815.45 2.20997 -6.55446 0
M  V30 20623 O 2816.25 2.71895 -5.48509 0
M  V30 20624 C 2814.11 2.89693 -6.67988 0
M  V30 20625 H 2814.14 3.88793 -6.19859 0
M  V30 20626 H 2815.33 1.12046 -6.44229 0
M  V30 20627 H 2816.81 1.7746 -8.19711 0
M  V30 20628 H 2815.12 3.20706 -9.67112 0
M  V30 20629 H 2814.93 0.901032 -10.1892 0
M  V30 20630 H 2813.3 1.33049 -9.56592 0
M  V30 20631 H 2815.94 3.57847 -5.23962 0
M  V30 20632 P 2817.79 3.65191 -7.99657 0
M  V30 20633 O 2819.22 3.89332 -8.45794 0
M  V30 20634 O 2817.43 2.28472 -7.50807 0
M  V30 20635 O 2817.47 4.64972 -6.77611 0
M  V30 20636 C 2817.31 6.06319 -7.16352 0
M  V30 20637 C 2817.85 6.91731 -6.02299 0
M  V30 20638 O 2816.8 6.92449 -5.17064 0
M  V30 20639 C 2819.07 6.43627 -5.25174 0
M  V30 20640 O 2819.81 7.43686 -4.60469 0
M  V30 20641 C 2818.4 5.40275 -4.31916 0
M  V30 20642 O 2819.2 5.25279 -3.14438 0
M  V30 20643 C 2817.06 6.04847 -4.05327 0
M  V30 20644 H 2817.1 6.62195 -3.11261 0
M  V30 20645 H 2818.28 4.42556 -4.81383 0
M  V30 20646 H 2819.76 5.92458 -5.93643 0
M  V30 20647 H 2818.07 7.92655 -6.402 0
M  V30 20648 H 2817.88 6.26671 -8.0846 0
M  V30 20649 H 2816.25 6.29101 -7.32804 0
M  V30 20650 H 2818.89 5.84315 -2.47318 0
M  V30 20651 P 2820.74 7.39546 -4.75277 0
M  V30 20652 O 2822.17 7.84798 -5.01039 0
M  V30 20653 O 2820.38 5.9812 -5.08098 0
M  V30 20654 O 2820.42 7.57503 -3.1866 0
M  V30 20655 C 2820.26 8.97357 -2.74833 0
M  V30 20656 C 2820.8 9.07548 -1.32709 0
M  V30 20657 O 2819.75 8.62072 -0.606159 0
M  V30 20658 C 2822.02 8.25383 -0.938334 0
M  V30 20659 O 2822.76 8.74577 0.146954 0
M  V30 20660 C 2821.35 6.8802 -0.712559 0
M  V30 20661 O 2822.15 6.1189 0.194655 0
M  V30 20662 C 2820.01 7.27966 -0.139777 0
M  V30 20663 H 2820.05 7.25354 0.961601 0
M  V30 20664 H 2821.23 6.32557 -1.65702 0
M  V30 20665 H 2822.71 8.19355 -1.79097 0
M  V30 20666 H 2821.02 10.1294 -1.10029 0
M  V30 20667 H 2820.83 9.64276 -3.41316 0
M  V30 20668 H 2819.2 9.25417 -2.76357 0
M  V30 20669 H 2821.84 6.25267 1.07847 0
M  V30 20670 P 2823.7 8.791 -5.49675e-12 0
M  V30 20671 O 2825.12 9.31296 0.027939 0
M  V30 20672 O 2823.34 7.77869 -1.04071 0
M  V30 20673 O 2823.37 8.09533 1.41463 0
M  V30 20674 C 2823.21 9.0349 2.53943 0
M  V30 20675 C 2823.75 8.35135 3.78975 0
M  V30 20676 O 2822.7 7.57992 4.15078 0
M  V30 20677 C 2824.97 7.45087 3.67298 0
M  V30 20678 O 2825.71 7.27796 4.85194 0
M  V30 20679 C 2824.3 6.17323 3.12027 0
M  V30 20680 O 2825.1 5.04149 3.47132 0
M  V30 20681 C 2822.96 6.19961 3.81809 0
M  V30 20682 N 2821.92 5.71575 2.93223 0
M  V30 20683 C 2821.98 5.97133 1.62693 0
M  V30 20684 N 2820.94 5.44066 0.984414 0
M  V30 20685 C 2820.2 4.87093 1.93987 0
M  V30 20686 C 2818.9 4.26449 1.8738 0
M  V30 20687 O 2818.17 4.1089 0.884377 0
M  V30 20688 N 2818.47 3.82483 3.08036 0
M  V30 20689 C 2819.22 3.95124 4.27727 0
M  V30 20690 N 2818.62 3.4084 5.39089 0
M  V30 20691 N 2820.37 4.55264 4.3706 0
M  V30 20692 C 2820.83 5.00861 3.18217 0
M  V30 20693 H 2823 5.58218 4.73051 0
M  V30 20694 H 2824.18 6.21631 2.02558 0
M  V30 20695 H 2825.66 7.85819 2.93096 0
M  V30 20696 H 2823.97 9.11627 4.55076 0
M  V30 20697 H 2823.78 9.9573 2.34194 0
M  V30 20698 H 2822.15 9.2792 2.67832 0
M  V30 20699 H 2817.57 3.38323 3.1329 0
M  V30 20700 H 2822.78 6.53891 1.14265 0
M  V30 20701 H 2817.71 2.93852 5.30559 0
M  V30 20702 H 2819.09 3.47631 6.30632 0
M  V30 20703 H 2824.79 4.67628 4.28704 0
M  V30 20704 P 2826.65 7.39546 4.75277 0
M  V30 20705 O 2828.07 7.81777 5.05738 0
M  V30 20706 O 2826.29 7.1065 3.32998 0
M  V30 20707 O 2826.32 6.04542 5.56673 0
M  V30 20708 C 2826.16 6.22772 7.02095 0
M  V30 20709 C 2826.7 4.97725 7.70406 0
M  V30 20710 O 2825.65 4.13256 7.58987 0
M  V30 20711 C 2827.92 4.28231 7.11815 0
M  V30 20712 O 2828.66 3.49945 8.01648 0
M  V30 20713 C 2827.25 3.5063 5.96244 0
M  V30 20714 O 2828.05 2.36482 5.64681 0
M  V30 20715 C 2825.92 3.15122 6.56374 0
M  V30 20716 H 2825.95 2.13853 6.99751 0
M  V30 20717 H 2827.13 4.13501 5.06559 0
M  V30 20718 H 2828.61 5.03285 6.70911 0
M  V30 20719 H 2826.92 5.20877 8.75697 0
M  V30 20720 H 2826.73 7.11046 7.35349 0
M  V30 20721 H 2825.1 6.35815 7.26986 0
M  V30 20722 H 2827.74 1.61644 6.13565 0
M  V30 20723 P 2829.6 3.65191 7.99657 0
M  V30 20724 O 2831 3.90823 8.51272 0
M  V30 20725 O 2829.22 4.23191 6.66972 0
M  V30 20726 O 2829.27 2.07587 7.95046 0
M  V30 20727 C 2829.11 1.44328 9.27336 0
M  V30 20728 C 2829.65 0.0220012 9.17097 0
M  V30 20729 O 2828.6 -0.626794 8.61824 0
M  V30 20730 C 2830.87 -0.24586 8.30336 0
M  V30 20731 O 2831.61 -1.39011 8.63583 0
M  V30 20732 C 2830.2 -0.273849 6.91158 0
M  V30 20733 O 2831 -1.06331 6.02794 0
M  V30 20734 C 2828.87 -0.897649 7.22545 0
M  V30 20735 N 2827.82 -0.292839 6.41732 0
M  V30 20736 C 2826.79 -1.08701 5.98712 0
M  V30 20737 O 2826.83 -2.31211 6.24471 0
M  V30 20738 N 2825.78 -0.533391 5.28415 0
M  V30 20739 C 2825.82 0.770866 4.98576 0
M  V30 20740 N 2824.81 1.29482 4.30134 0
M  V30 20741 C 2826.92 1.59049 5.38086 0
M  V30 20742 C 2827.89 1.01866 6.10256 0
M  V30 20743 H 2828.9 -1.98383 7.04189 0
M  V30 20744 H 2830.08 0.733318 6.49674 0
M  V30 20745 H 2831.56 0.598386 8.36663 0
M  V30 20746 H 2829.87 -0.362662 10.1825 0
M  V30 20747 H 2829.68 2.00611 10.0304 0
M  V30 20748 H 2828.05 1.41828 9.55228 0
M  V30 20749 H 2826.97 2.6415 5.10622 0
M  V30 20750 H 2828.73 1.61983 6.44042 0
M  V30 20751 H 2824.02 0.69888 4.01361 0
M  V30 20752 H 2824.82 2.29327 4.05781 0
M  V30 20753 H 2830.79 -1.97777 6.14035 0
M  V30 20754 P 2832.55 -1.25109 8.70152 0
M  V30 20755 O 2833.97 -1.35274 9.21221 0
M  V30 20756 O 2832.19 -0.0769065 7.84762 0
M  V30 20757 O 2832.22 -2.55232 7.81161 0
M  V30 20758 C 2832.06 -3.79939 8.58154 0
M  V30 20759 C 2832.6 -4.94023 7.72785 0
M  V30 20760 O 2831.55 -5.18726 6.91205 0
M  V30 20761 C 2833.82 -4.69597 6.85231 0
M  V30 20762 O 2834.56 -5.83832 6.51337 0
M  V30 20763 C 2833.15 -3.96706 5.66633 0
M  V30 20764 O 2833.95 -4.15414 4.49689 0
M  V30 20765 C 2831.82 -4.66153 5.59313 0
M  V30 20766 H 2831.85 -5.47679 4.85214 0
M  V30 20767 H 2833.03 -2.89008 5.86566 0
M  V30 20768 H 2834.52 -4.0121 7.36511 0
M  V30 20769 H 2832.82 -5.80182 8.37584 0
M  V30 20770 H 2832.63 -3.73517 9.52265 0
M  V30 20771 H 2831 -3.97163 8.80359 0
M  V30 20772 H 2833.64 -4.90969 4.01921 0
M  V30 20773 P 2835.5 -5.75688 6.64379 0
M  V30 20774 O 2836.92 -6.11915 7.01921 0
M  V30 20775 O 2835.14 -4.30744 6.56026 0
M  V30 20776 O 2835.17 -6.37042 5.19165 0
M  V30 20777 C 2835.01 -7.83662 5.1657 0
M  V30 20778 C 2835.55 -8.33398 3.83019 0
M  V30 20779 O 2834.5 -8.0998 3.00999 0
M  V30 20780 C 2836.77 -7.65514 3.2257 0
M  V30 20781 O 2837.51 -8.4329 2.32297 0
M  V30 20782 C 2836.1 -6.40075 2.62207 0
M  V30 20783 O 2836.9 -5.92338 1.5428 0
M  V30 20784 C 2834.77 -6.9454 2.18503 0
M  V30 20785 N 2833.72 -5.95905 2.39948 0
M  V30 20786 C 2833.89 -4.98383 3.32108 0
M  V30 20787 N 2832.87 -4.16798 3.41761 0
M  V30 20788 C 2831.98 -4.65287 2.47461 0
M  V30 20789 C 2830.71 -4.18946 2.07461 0
M  V30 20790 N 2830.11 -3.09661 2.60717 0
M  V30 20791 N 2830.15 -4.95327 1.09101 0
M  V30 20792 C 2830.75 -6.04369 0.519812 0
M  V30 20793 N 2831.93 -6.50694 0.855982 0
M  V30 20794 C 2832.5 -5.75818 1.84322 0
M  V30 20795 H 2834.8 -7.22964 1.12076 0
M  V30 20796 H 2835.98 -5.60502 3.36589 0
M  V30 20797 H 2837.46 -7.35707 4.02681 0
M  V30 20798 H 2835.77 -9.41302 3.90009 0
M  V30 20799 H 2835.58 -8.29056 5.99158 0
M  V30 20800 H 2833.95 -8.10073 5.25882 0
M  V30 20801 H 2830.21 -6.55843 -0.270373 0
M  V30 20802 H 2834.79 -4.88564 3.92502 0
M  V30 20803 H 2829.18 -2.80523 2.27218 0
M  V30 20804 H 2830.59 -2.55848 3.34465 0
M  V30 20805 H 2836.59 -6.30224 0.72668 0
M  V30 20806 P 2838.45 -8.4349 2.47671 0
M  V30 20807 O 2839.87 -8.94167 2.5964 0
M  V30 20808 O 2838.09 -7.1704 3.19006 0
M  V30 20809 O 2838.13 -8.16596 0.923387 0
M  V30 20810 C 2837.97 -9.38437 0.108857 0
M  V30 20811 C 2838.51 -9.08175 -1.28353 0
M  V30 20812 O 2837.45 -8.44229 -1.84713 0
M  V30 20813 C 2839.72 -8.18386 -1.42505 0
M  V30 20814 O 2840.46 -8.3501 -2.60497 0
M  V30 20815 C 2839.05 -6.80225 -1.25468 0
M  V30 20816 O 2839.85 -5.81621 -1.91066 0
M  V30 20817 C 2837.72 -7.02416 -1.9168 0
M  V30 20818 H 2837.75 -6.6888 -2.96621 0
M  V30 20819 H 2838.93 -6.53617 -0.192223 0
M  V30 20820 H 2840.42 -8.36622 -0.589963 0
M  V30 20821 H 2838.72 -10.0291 -1.79807 0
M  V30 20822 H 2838.53 -10.2138 0.558219 0
M  V30 20823 H 2836.9 -9.6579 0.0444202 0
M  V30 20824 H 2839.54 -5.69556 -2.79637 0
M  V30 20825 P 2841.4 -8.4349 -2.47671 0
M  V30 20826 O 2842.82 -8.92593 -2.65 0
M  V30 20827 O 2841.04 -7.7568 -1.19296 0
M  V30 20828 O 2841.08 -7.36886 -3.63805 0
M  V30 20829 C 2840.92 -7.95349 -4.982 0
M  V30 20830 C 2841.46 -6.94612 -5.98974 0
M  V30 20831 O 2840.4 -6.10347 -6.11815 0
M  V30 20832 C 2842.67 -6.11426 -5.62335 0
M  V30 20833 O 2843.41 -5.6162 -6.70584 0
M  V30 20834 C 2842 -5.04409 -4.73308 0
M  V30 20835 O 2842.8 -3.85992 -4.75183 0
M  V30 20836 C 2840.67 -4.8728 -5.41006 0
M  V30 20837 H 2840.7 -4.02333 -6.11157 0
M  V30 20838 H 2841.88 -5.39466 -3.69543 0
M  V30 20839 H 2843.37 -6.71916 -5.01943 0
M  V30 20840 H 2841.67 -7.4649 -6.93477 0
M  V30 20841 H 2841.48 -8.89416 -5.05237 0
M  V30 20842 H 2839.85 -8.14876 -5.18409 0
M  V30 20843 H 2842.49 -3.27957 -5.4317 0
M  V30 20844 P 2844.35 -5.75688 -6.64379 0
M  V30 20845 O 2845.77 -6.07627 -7.05504 0
M  V30 20846 O 2843.99 -5.88047 -5.19722 0
M  V30 20847 O 2844.03 -4.2322 -7.04443 0
M  V30 20848 C 2843.87 -3.99743 -8.4911 0
M  V30 20849 C 2844.41 -2.60516 -8.79425 0
M  V30 20850 O 2843.35 -1.82684 -8.4467 0
M  V30 20851 C 2845.62 -2.10343 -8.03628 0
M  V30 20852 O 2846.36 -1.09919 -8.67766 0
M  V30 20853 C 2844.96 -1.68446 -6.70876 0
M  V30 20854 O 2845.75 -0.678137 -6.08433 0
M  V30 20855 C 2843.62 -1.17436 -7.18567 0
M  V30 20856 H 2843.65 -0.0804732 -7.31656 0
M  V30 20857 H 2844.83 -2.54037 -6.02537 0
M  V30 20858 H 2846.32 -2.93881 -7.85526 0
M  V30 20859 H 2844.62 -2.53065 -9.86973 0
M  V30 20860 H 2844.43 -4.75072 -9.05887 0
M  V30 20861 H 2842.8 -4.05244 -8.76668 0
M  V30 20862 H 2845.44 0.177647 -6.34251 0
M  V30 20863 P 2847.3 -1.25109 -8.70152 0
M  V30 20864 O 2848.72 -1.29744 -9.22016 0
M  V30 20865 O 2846.94 -2.13714 -7.55141 0
M  V30 20866 O 2846.98 0.248149 -8.21425 0
M  V30 20867 C 2846.82 1.22779 -9.30434 0
M  V30 20868 C 2847.36 2.56293 -8.80664 0
M  V30 20869 O 2846.3 3.02979 -8.09349 0
M  V30 20870 C 2848.58 2.57523 -7.89775 0
M  V30 20871 O 2849.31 3.7668 -7.89438 0
M  V30 20872 C 2847.91 2.20997 -6.55446 0
M  V30 20873 O 2848.71 2.71895 -5.48509 0
M  V30 20874 C 2846.57 2.89693 -6.67988 0
M  V30 20875 H 2846.6 3.88793 -6.19859 0
M  V30 20876 H 2847.78 1.12046 -6.44229 0
M  V30 20877 H 2849.27 1.7746 -8.19711 0
M  V30 20878 H 2847.57 3.20706 -9.67112 0
M  V30 20879 H 2847.38 0.901032 -10.1892 0
M  V30 20880 H 2845.75 1.33049 -9.56592 0
M  V30 20881 H 2848.39 3.57847 -5.23962 0
M  V30 20882 P 2850.25 3.65191 -7.99657 0
M  V30 20883 O 2851.67 3.89332 -8.45794 0
M  V30 20884 O 2849.89 2.28472 -7.50807 0
M  V30 20885 O 2849.93 4.64972 -6.77611 0
M  V30 20886 C 2849.77 6.06319 -7.16352 0
M  V30 20887 C 2850.31 6.91731 -6.02299 0
M  V30 20888 O 2849.25 6.92449 -5.17064 0
M  V30 20889 C 2851.53 6.43627 -5.25174 0
M  V30 20890 O 2852.26 7.43686 -4.60469 0
M  V30 20891 C 2850.86 5.40275 -4.31916 0
M  V30 20892 O 2851.66 5.25279 -3.14438 0
M  V30 20893 C 2849.52 6.04847 -4.05327 0
M  V30 20894 H 2849.55 6.62195 -3.11261 0
M  V30 20895 H 2850.73 4.42556 -4.81383 0
M  V30 20896 H 2852.22 5.92458 -5.93643 0
M  V30 20897 H 2850.52 7.92655 -6.402 0
M  V30 20898 H 2850.33 6.26671 -8.0846 0
M  V30 20899 H 2848.7 6.29101 -7.32804 0
M  V30 20900 H 2851.34 5.84315 -2.47318 0
M  V30 20901 P 2853.2 7.39546 -4.75277 0
M  V30 20902 O 2854.62 7.84798 -5.01039 0
M  V30 20903 O 2852.84 5.9812 -5.08098 0
M  V30 20904 O 2852.88 7.57503 -3.1866 0
M  V30 20905 C 2852.72 8.97357 -2.74833 0
M  V30 20906 C 2853.26 9.07548 -1.32709 0
M  V30 20907 O 2852.2 8.62072 -0.606159 0
M  V30 20908 C 2854.48 8.25383 -0.938334 0
M  V30 20909 O 2855.21 8.74577 0.146954 0
M  V30 20910 C 2853.81 6.8802 -0.712559 0
M  V30 20911 O 2854.61 6.1189 0.194655 0
M  V30 20912 C 2852.47 7.27966 -0.139777 0
M  V30 20913 H 2852.5 7.25354 0.961601 0
M  V30 20914 H 2853.69 6.32557 -1.65702 0
M  V30 20915 H 2855.17 8.19355 -1.79097 0
M  V30 20916 H 2853.48 10.1294 -1.10029 0
M  V30 20917 H 2853.29 9.64276 -3.41316 0
M  V30 20918 H 2851.66 9.25417 -2.76357 0
M  V30 20919 H 2854.29 6.25267 1.07847 0
M  V30 20920 P 2856.15 8.791 -1.06834e-11 0
M  V30 20921 O 2857.57 9.31096 0.027933 0
M  V30 20922 O 2855.79 7.77869 -1.04071 0
M  V30 20923 O 2855.83 8.09533 1.41463 0
M  V30 20924 C 2855.67 9.0349 2.53943 0
M  V30 20925 C 2856.21 8.35226 3.79016 0
M  V30 20926 O 2855.15 7.57992 4.15078 0
M  V30 20927 C 2857.43 7.45087 3.67298 0
M  V30 20928 O 2858.16 7.27796 4.85194 0
M  V30 20929 C 2856.76 6.17323 3.12027 0
M  V30 20930 O 2857.56 5.04231 3.47188 0
M  V30 20931 C 2855.42 6.19961 3.81809 0
M  V30 20932 H 2855.45 5.58218 4.73051 0
M  V30 20933 H 2856.64 6.21726 2.02589 0
M  V30 20934 H 2858.12 7.86112 2.9231 0
M  V30 20935 H 2856.43 9.11627 4.55076 0
M  V30 20936 H 2856.24 9.9573 2.34194 0
M  V30 20937 H 2854.61 9.2792 2.67832 0
M  V30 20938 H 2857.24 4.67702 4.28772 0
M  V30 20939 P 2859.1 7.39546 4.75277 0
M  V30 20940 O 2860.52 7.81777 5.05738 0
M  V30 20941 O 2858.74 7.1065 3.32998 0
M  V30 20942 O 2858.78 6.04542 5.56673 0
M  V30 20943 C 2858.62 6.22772 7.02095 0
M  V30 20944 C 2859.16 4.97725 7.70406 0
M  V30 20945 O 2858.1 4.13256 7.58987 0
M  V30 20946 C 2860.38 4.28231 7.11815 0
M  V30 20947 O 2861.12 3.49945 8.01648 0
M  V30 20948 C 2859.71 3.5063 5.96244 0
M  V30 20949 O 2860.51 2.36482 5.64681 0
M  V30 20950 C 2858.37 3.15122 6.56374 0
M  V30 20951 H 2858.4 2.13853 6.99751 0
M  V30 20952 H 2859.59 4.13501 5.06559 0
M  V30 20953 H 2861.07 5.03285 6.70911 0
M  V30 20954 H 2859.38 5.20877 8.75697 0
M  V30 20955 H 2859.19 7.11046 7.35349 0
M  V30 20956 H 2857.56 6.35815 7.26986 0
M  V30 20957 H 2860.2 1.61644 6.13565 0
M  V30 20958 P 2862.05 3.65191 7.99657 0
M  V30 20959 O 2863.47 3.84333 8.48297 0
M  V30 20960 O 2861.69 4.17805 6.64342 0
M  V30 20961 O 2861.73 2.07613 7.95143 0
M  V30 20962 C 2861.57 1.44328 9.27336 0
M  V30 20963 C 2862.11 0.0220012 9.17097 0
M  V30 20964 O 2861.05 -0.626867 8.61923 0
M  V30 20965 C 2863.33 -0.24586 8.30336 0
M  V30 20966 O 2864.07 -1.39011 8.63583 0
M  V30 20967 C 2862.66 -0.273849 6.91158 0
M  V30 20968 O 2863.46 -1.06331 6.02794 0
M  V30 20969 C 2861.32 -0.897649 7.22545 0
M  V30 20970 N 2860.28 -0.292839 6.41732 0
M  V30 20971 C 2860.34 1.00068 6.10757 0
M  V30 20972 N 2859.3 1.36468 5.35794 0
M  V30 20973 C 2858.56 0.258894 5.2366 0
M  V30 20974 C 2857.26 0.0670682 4.65752 0
M  V30 20975 O 2856.52 0.902443 4.10497 0
M  V30 20976 N 2856.83 -1.2131 4.75881 0
M  V30 20977 C 2857.57 -2.24934 5.37101 0
M  V30 20978 N 2856.98 -3.48783 5.33984 0
M  V30 20979 N 2858.73 -2.0844 5.95684 0
M  V30 20980 C 2859.18 -0.81395 5.87791 0
M  V30 20981 H 2861.35 -1.9841 7.04286 0
M  V30 20982 H 2862.54 0.739815 6.49601 0
M  V30 20983 H 2864.02 0.598315 8.36563 0
M  V30 20984 H 2862.33 -0.352479 10.1829 0
M  V30 20985 H 2862.14 2.00611 10.0304 0
M  V30 20986 H 2860.51 1.41843 9.55327 0
M  V30 20987 H 2855.93 -1.44434 4.37895 0
M  V30 20988 H 2861.14 1.67697 6.42268 0
M  V30 20989 H 2856.07 -3.60543 4.87699 0
M  V30 20990 H 2857.44 -4.29232 5.7819 0
M  V30 20991 H 2863.15 -1.95704 6.0346 0
M  V30 20992 P 2865 -1.25109 8.70152 0
M  V30 20993 O 2866.43 -1.35274 9.21221 0
M  V30 20994 O 2864.64 -0.0769065 7.84762 0
M  V30 20995 O 2864.68 -2.55232 7.81161 0
M  V30 20996 C 2864.52 -3.79939 8.58154 0
M  V30 20997 C 2865.06 -4.94023 7.72785 0
M  V30 20998 O 2864 -5.18726 6.91205 0
M  V30 20999 C 2866.28 -4.69597 6.85231 0
M  V30 21000 O 2867.02 -5.83832 6.51337 0
M  V30 21001 C 2865.61 -3.96706 5.66633 0
M  V30 21002 O 2866.41 -4.15414 4.49689 0
M  V30 21003 C 2864.27 -4.66153 5.59313 0
M  V30 21004 H 2864.3 -5.47679 4.85214 0
M  V30 21005 H 2865.49 -2.89008 5.86566 0
M  V30 21006 H 2866.97 -4.0121 7.36511 0
M  V30 21007 H 2865.28 -5.80182 8.37584 0
M  V30 21008 H 2865.09 -3.73517 9.52265 0
M  V30 21009 H 2863.46 -3.97163 8.80359 0
M  V30 21010 H 2866.1 -4.90969 4.01921 0
M  V30 21011 P 2867.95 -5.75688 6.64379 0
M  V30 21012 O 2869.38 -6.11849 7.01846 0
M  V30 21013 O 2867.59 -4.30744 6.56026 0
M  V30 21014 O 2867.63 -6.37042 5.19165 0
M  V30 21015 C 2867.47 -7.83578 5.16515 0
M  V30 21016 C 2868.01 -8.33398 3.83019 0
M  V30 21017 O 2866.96 -8.10074 3.01034 0
M  V30 21018 C 2869.23 -7.65514 3.2257 0
M  V30 21019 O 2869.97 -8.4329 2.32297 0
M  V30 21020 C 2868.56 -6.40075 2.62207 0
M  V30 21021 O 2869.36 -5.92589 1.53712 0
M  V30 21022 C 2867.22 -6.9454 2.18503 0
M  V30 21023 H 2867.26 -7.23063 1.12091 0
M  V30 21024 H 2868.44 -5.6025 3.37201 0
M  V30 21025 H 2869.92 -7.35707 4.02681 0
M  V30 21026 H 2868.23 -9.40912 3.9095 0
M  V30 21027 H 2868.04 -8.29056 5.99158 0
M  V30 21028 H 2866.41 -8.10073 5.25882 0
M  V30 21029 H 2869.05 -6.30324 0.726794 0
M  V30 21030 P 2870.9 -8.4349 2.47671 0
M  V30 21031 O 2872.33 -8.94167 2.5964 0
M  V30 21032 O 2870.54 -7.1704 3.19006 0
M  V30 21033 O 2870.58 -8.16596 0.923387 0
M  V30 21034 C 2870.42 -9.38437 0.108857 0
M  V30 21035 C 2870.96 -9.08175 -1.28353 0
M  V30 21036 O 2869.91 -8.44229 -1.84713 0
M  V30 21037 C 2872.18 -8.18386 -1.42505 0
M  V30 21038 O 2872.92 -8.3501 -2.60497 0
M  V30 21039 C 2871.51 -6.80225 -1.25468 0
M  V30 21040 O 2872.31 -5.81621 -1.91066 0
M  V30 21041 C 2870.17 -7.02416 -1.9168 0
M  V30 21042 H 2870.21 -6.6888 -2.96621 0
M  V30 21043 H 2871.39 -6.53617 -0.192223 0
M  V30 21044 H 2872.87 -8.36622 -0.589963 0
M  V30 21045 H 2871.18 -10.0291 -1.79807 0
M  V30 21046 H 2870.99 -10.2138 0.558219 0
M  V30 21047 H 2869.36 -9.6579 0.0444202 0
M  V30 21048 H 2872 -5.69556 -2.79637 0
M  V30 21049 P 2873.86 -8.4349 -2.47671 0
M  V30 21050 O 2875.28 -8.92593 -2.65 0
M  V30 21051 O 2873.5 -7.7568 -1.19296 0
M  V30 21052 O 2873.53 -7.36886 -3.63805 0
M  V30 21053 C 2873.37 -7.95349 -4.982 0
M  V30 21054 C 2873.91 -6.94612 -5.98974 0
M  V30 21055 O 2872.86 -6.10347 -6.11815 0
M  V30 21056 C 2875.13 -6.11426 -5.62335 0
M  V30 21057 O 2875.87 -5.6162 -6.70584 0
M  V30 21058 C 2874.46 -5.04409 -4.73308 0
M  V30 21059 O 2875.26 -3.85992 -4.75183 0
M  V30 21060 C 2873.12 -4.8728 -5.41006 0
M  V30 21061 H 2873.16 -4.02333 -6.11157 0
M  V30 21062 H 2874.34 -5.39466 -3.69543 0
M  V30 21063 H 2875.82 -6.71916 -5.01943 0
M  V30 21064 H 2874.13 -7.4649 -6.93477 0
M  V30 21065 H 2873.94 -8.89416 -5.05237 0
M  V30 21066 H 2872.31 -8.14876 -5.18409 0
M  V30 21067 H 2874.95 -3.27957 -5.4317 0
M  V30 21068 P 2876.81 -5.75688 -6.64379 0
M  V30 21069 O 2878.23 -6.07758 -7.05656 0
M  V30 21070 O 2876.45 -5.88047 -5.19722 0
M  V30 21071 O 2876.48 -4.2322 -7.04443 0
M  V30 21072 C 2876.32 -3.99743 -8.4911 0
M  V30 21073 C 2876.86 -2.60487 -8.79329 0
M  V30 21074 O 2875.81 -1.82684 -8.4467 0
M  V30 21075 C 2878.08 -2.10343 -8.03628 0
M  V30 21076 O 2878.82 -1.09919 -8.67766 0
M  V30 21077 C 2877.41 -1.68446 -6.70876 0
M  V30 21078 O 2878.21 -0.678026 -6.08333 0
M  V30 21079 C 2876.07 -1.17436 -7.18567 0
M  V30 21080 N 2875.03 -1.52699 -6.23988 0
M  V30 21081 C 2875.09 -2.68084 -5.57824 0
M  V30 21082 N 2874.05 -2.8189 -4.75643 0
M  V30 21083 C 2873.31 -1.72373 -4.95155 0
M  V30 21084 C 2872.01 -1.37653 -4.44996 0
M  V30 21085 O 2871.28 -2.02239 -3.68445 0
M  V30 21086 N 2871.58 -0.17675 -4.90782 0
M  V30 21087 C 2872.33 0.645036 -5.78716 0
M  V30 21088 N 2871.73 1.84214 -6.10618 0
M  V30 21089 N 2873.48 0.321732 -6.30279 0
M  V30 21090 C 2873.94 -0.87502 -5.86913 0
M  V30 21091 H 2876.11 -0.0804732 -7.31656 0
M  V30 21092 H 2877.29 -2.53998 -6.02444 0
M  V30 21093 H 2878.77 -2.93095 -7.8582 0
M  V30 21094 H 2877.08 -2.53065 -9.86973 0
M  V30 21095 H 2876.89 -4.75072 -9.05887 0
M  V30 21096 H 2875.26 -4.05244 -8.76668 0
M  V30 21097 H 2870.68 0.152143 -4.60849 0
M  V30 21098 H 2875.89 -3.41852 -5.69006 0
M  V30 21099 H 2870.82 2.08538 -5.69521 0
M  V30 21100 H 2872.2 2.4895 -6.75698 0
M  V30 21101 H 2877.9 0.177619 -6.34151 0
M  V30 21102 P 2879.76 -1.25109 -8.70152 0
M  V30 21103 O 2881.18 -1.29744 -9.22016 0
M  V30 21104 O 2879.4 -2.13714 -7.55141 0
M  V30 21105 O 2879.43 0.248149 -8.21425 0
M  V30 21106 C 2879.27 1.22779 -9.30434 0
M  V30 21107 C 2879.81 2.56293 -8.80664 0
M  V30 21108 O 2878.76 3.02979 -8.09349 0
M  V30 21109 C 2881.03 2.57523 -7.89775 0
M  V30 21110 O 2881.77 3.7668 -7.89438 0
M  V30 21111 C 2880.36 2.20997 -6.55446 0
M  V30 21112 O 2881.16 2.71895 -5.48509 0
M  V30 21113 C 2879.03 2.89693 -6.67988 0
M  V30 21114 H 2879.06 3.88793 -6.19859 0
M  V30 21115 H 2880.24 1.12046 -6.44229 0
M  V30 21116 H 2881.72 1.7746 -8.19711 0
M  V30 21117 H 2880.03 3.20706 -9.67112 0
M  V30 21118 H 2879.84 0.901032 -10.1892 0
M  V30 21119 H 2878.21 1.33049 -9.56592 0
M  V30 21120 H 2880.85 3.57847 -5.23962 0
M  V30 21121 P 2882.71 3.65191 -7.99657 0
M  V30 21122 O 2884.13 3.89332 -8.45794 0
M  V30 21123 O 2882.35 2.28472 -7.50807 0
M  V30 21124 O 2882.38 4.64972 -6.77611 0
M  V30 21125 C 2882.22 6.06319 -7.16352 0
M  V30 21126 C 2882.76 6.91731 -6.02299 0
M  V30 21127 O 2881.71 6.92449 -5.17064 0
M  V30 21128 C 2883.98 6.43627 -5.25174 0
M  V30 21129 O 2884.72 7.43686 -4.60469 0
M  V30 21130 C 2883.31 5.40275 -4.31916 0
M  V30 21131 O 2884.11 5.25279 -3.14438 0
M  V30 21132 C 2881.98 6.04847 -4.05327 0
M  V30 21133 H 2882.01 6.62195 -3.11261 0
M  V30 21134 H 2883.19 4.42556 -4.81383 0
M  V30 21135 H 2884.67 5.92458 -5.93643 0
M  V30 21136 H 2882.98 7.92655 -6.402 0
M  V30 21137 H 2882.79 6.26671 -8.0846 0
M  V30 21138 H 2881.16 6.29101 -7.32804 0
M  V30 21139 H 2883.8 5.84315 -2.47318 0
M  V30 21140 P 2885.66 7.39546 -4.75277 0
M  V30 21141 O 2887.08 7.84798 -5.01039 0
M  V30 21142 O 2885.3 5.9812 -5.08098 0
M  V30 21143 O 2885.33 7.57503 -3.1866 0
M  V30 21144 C 2885.17 8.97357 -2.74833 0
M  V30 21145 C 2885.71 9.07548 -1.32709 0
M  V30 21146 O 2884.66 8.62072 -0.606159 0
M  V30 21147 C 2886.93 8.25383 -0.938334 0
M  V30 21148 O 2887.67 8.74577 0.146954 0
M  V30 21149 C 2886.26 6.8802 -0.712559 0
M  V30 21150 O 2887.06 6.1189 0.194655 0
M  V30 21151 C 2884.93 7.27966 -0.139777 0
M  V30 21152 H 2884.96 7.25354 0.961601 0
M  V30 21153 H 2886.14 6.32557 -1.65702 0
M  V30 21154 H 2887.63 8.19355 -1.79097 0
M  V30 21155 H 2885.93 10.1294 -1.10029 0
M  V30 21156 H 2885.74 9.64276 -3.41316 0
M  V30 21157 H 2884.11 9.25417 -2.76357 0
M  V30 21158 H 2886.75 6.25267 1.07847 0
M  V30 21159 P 2888.61 8.791 -1.587e-11 0
M  V30 21160 O 2890.03 9.31096 0.027933 0
M  V30 21161 O 2888.25 7.77869 -1.04071 0
M  V30 21162 O 2888.29 8.09533 1.41463 0
M  V30 21163 C 2888.13 9.0349 2.53943 0
M  V30 21164 C 2888.67 8.35226 3.79016 0
M  V30 21165 O 2887.61 7.57992 4.15078 0
M  V30 21166 C 2889.88 7.45087 3.67298 0
M  V30 21167 O 2890.62 7.27796 4.85194 0
M  V30 21168 C 2889.21 6.17323 3.12027 0
M  V30 21169 O 2890.01 5.04231 3.47188 0
M  V30 21170 C 2887.88 6.19961 3.81809 0
M  V30 21171 H 2887.91 5.58218 4.73051 0
M  V30 21172 H 2889.09 6.21726 2.02589 0
M  V30 21173 H 2890.58 7.86112 2.9231 0
M  V30 21174 H 2888.88 9.11627 4.55076 0
M  V30 21175 H 2888.69 9.9573 2.34194 0
M  V30 21176 H 2887.06 9.2792 2.67832 0
M  V30 21177 H 2889.7 4.67702 4.28772 0
M  V30 21178 P 2891.56 7.39546 4.75277 0
M  V30 21179 O 2892.98 7.81777 5.05738 0
M  V30 21180 O 2891.2 7.1065 3.32998 0
M  V30 21181 O 2891.24 6.04542 5.56673 0
M  V30 21182 C 2891.08 6.22772 7.02095 0
M  V30 21183 C 2891.62 4.97725 7.70406 0
M  V30 21184 O 2890.56 4.13256 7.58987 0
M  V30 21185 C 2892.83 4.28231 7.11815 0
M  V30 21186 O 2893.57 3.49945 8.01648 0
M  V30 21187 C 2892.16 3.5063 5.96244 0
M  V30 21188 O 2892.96 2.36482 5.64681 0
M  V30 21189 C 2890.83 3.15122 6.56374 0
M  V30 21190 H 2890.86 2.13853 6.99751 0
M  V30 21191 H 2892.04 4.13501 5.06559 0
M  V30 21192 H 2893.53 5.03285 6.70911 0
M  V30 21193 H 2891.83 5.20877 8.75697 0
M  V30 21194 H 2891.64 7.11046 7.35349 0
M  V30 21195 H 2890.01 6.35815 7.26986 0
M  V30 21196 H 2892.65 1.61644 6.13565 0
M  V30 21197 P 2894.51 3.65191 7.99657 0
M  V30 21198 O 2895.93 3.8425 8.48115 0
M  V30 21199 O 2894.15 4.17805 6.64342 0
M  V30 21200 O 2894.19 2.07613 7.95143 0
M  V30 21201 C 2894.03 1.44328 9.27336 0
M  V30 21202 C 2894.57 0.0220036 9.17197 0
M  V30 21203 O 2893.51 -0.626867 8.61923 0
M  V30 21204 C 2895.78 -0.24586 8.30336 0
M  V30 21205 O 2896.52 -1.39011 8.63583 0
M  V30 21206 C 2895.12 -0.273849 6.91158 0
M  V30 21207 O 2895.91 -1.06348 6.02892 0
M  V30 21208 C 2893.78 -0.897649 7.22545 0
M  V30 21209 H 2893.81 -1.9841 7.04286 0
M  V30 21210 H 2894.99 0.739928 6.497 0
M  V30 21211 H 2896.48 0.60668 8.36503 0
M  V30 21212 H 2894.78 -0.352479 10.1829 0
M  V30 21213 H 2894.59 2.00611 10.0304 0
M  V30 21214 H 2892.96 1.41843 9.55327 0
M  V30 21215 H 2895.6 -1.95734 6.03555 0
M  V30 21216 P 2897.46 -1.25109 8.70152 0
M  V30 21217 O 2898.88 -1.35274 9.21221 0
M  V30 21218 O 2897.1 -0.0769065 7.84762 0
M  V30 21219 O 2897.14 -2.55232 7.81161 0
M  V30 21220 C 2896.98 -3.79939 8.58154 0
M  V30 21221 C 2897.52 -4.94023 7.72785 0
M  V30 21222 O 2896.46 -5.18726 6.91205 0
M  V30 21223 C 2898.73 -4.69597 6.85231 0
M  V30 21224 O 2899.47 -5.83832 6.51337 0
M  V30 21225 C 2898.07 -3.96706 5.66633 0
M  V30 21226 O 2898.86 -4.15414 4.49689 0
M  V30 21227 C 2896.73 -4.66153 5.59313 0
M  V30 21228 H 2896.76 -5.47679 4.85214 0
M  V30 21229 H 2897.94 -2.89008 5.86566 0
M  V30 21230 H 2899.43 -4.0121 7.36511 0
M  V30 21231 H 2897.73 -5.80182 8.37584 0
M  V30 21232 H 2897.54 -3.73517 9.52265 0
M  V30 21233 H 2895.91 -3.97163 8.80359 0
M  V30 21234 H 2898.55 -4.90969 4.01921 0
M  V30 21235 P 2900.41 -5.75688 6.64379 0
M  V30 21236 O 2901.83 -6.11849 7.01846 0
M  V30 21237 O 2900.05 -4.30744 6.56026 0
M  V30 21238 O 2900.09 -6.37042 5.19165 0
M  V30 21239 C 2899.93 -7.83578 5.16515 0
M  V30 21240 C 2900.47 -8.33398 3.83019 0
M  V30 21241 O 2899.41 -8.10074 3.01034 0
M  V30 21242 C 2901.69 -7.65514 3.2257 0
M  V30 21243 O 2902.42 -8.4329 2.32297 0
M  V30 21244 C 2901.02 -6.40075 2.62207 0
M  V30 21245 O 2901.82 -5.92589 1.53712 0
M  V30 21246 C 2899.68 -6.9454 2.18503 0
M  V30 21247 H 2899.71 -7.23063 1.12091 0
M  V30 21248 H 2900.89 -5.6025 3.37201 0
M  V30 21249 H 2902.38 -7.35707 4.02681 0
M  V30 21250 H 2900.68 -9.40912 3.9095 0
M  V30 21251 H 2900.49 -8.29056 5.99158 0
M  V30 21252 H 2898.86 -8.10073 5.25882 0
M  V30 21253 H 2901.5 -6.30324 0.726794 0
M  V30 21254 P 2903.36 -8.4349 2.47671 0
M  V30 21255 O 2904.78 -8.94263 2.59668 0
M  V30 21256 O 2903 -7.1704 3.19006 0
M  V30 21257 O 2903.04 -8.16596 0.923387 0
M  V30 21258 C 2902.88 -9.38537 0.108869 0
M  V30 21259 C 2903.42 -9.08175 -1.28353 0
M  V30 21260 O 2902.36 -8.44131 -1.84692 0
M  V30 21261 C 2904.64 -8.18386 -1.42505 0
M  V30 21262 O 2905.37 -8.3501 -2.60497 0
M  V30 21263 C 2903.97 -6.80225 -1.25468 0
M  V30 21264 O 2904.77 -5.81716 -1.90454 0
M  V30 21265 C 2902.63 -7.02416 -1.9168 0
M  V30 21266 N 2901.59 -6.31033 -1.20314 0
M  V30 21267 C 2901.76 -5.98817 0.0994088 0
M  V30 21268 N 2900.73 -5.35403 0.621694 0
M  V30 21269 C 2899.84 -5.25212 -0.43376 0
M  V30 21270 C 2898.58 -4.64602 -0.519722 0
M  V30 21271 N 2898.01 -4.7568 -1.76013 0
M  V30 21272 C 2898.61 -5.3653 -2.83017 0
M  V30 21273 N 2899.79 -5.93676 -2.79782 0
M  V30 21274 C 2900.37 -5.84061 -1.56249 0
M  V30 21275 H 2903.84 -6.53498 -0.198729 0
M  V30 21276 H 2905.33 -8.36622 -0.589963 0
M  V30 21277 H 2903.63 -10.0273 -1.8081 0
M  V30 21278 H 2903.44 -10.2138 0.558219 0
M  V30 21279 H 2901.81 -9.6579 0.0444202 0
M  V30 21280 H 2902.66 -6.23209 0.660562 0
M  V30 21281 H 2904.45 -5.69466 -2.79593 0
M  V30 21282 P 2906.31 -8.4349 -2.47671 0
M  V30 21283 O 2907.73 -8.92593 -2.65 0
M  V30 21284 O 2905.95 -7.7568 -1.19296 0
M  V30 21285 O 2905.99 -7.36886 -3.63805 0
M  V30 21286 C 2905.83 -7.95349 -4.982 0
M  V30 21287 C 2906.37 -6.94612 -5.98974 0
M  V30 21288 O 2905.31 -6.10347 -6.11815 0
M  V30 21289 C 2907.59 -6.11426 -5.62335 0
M  V30 21290 O 2908.32 -5.6162 -6.70584 0
M  V30 21291 C 2906.92 -5.04409 -4.73308 0
M  V30 21292 O 2907.72 -3.85992 -4.75183 0
M  V30 21293 C 2905.58 -4.8728 -5.41006 0
M  V30 21294 H 2905.61 -4.02333 -6.11157 0
M  V30 21295 H 2906.8 -5.39466 -3.69543 0
M  V30 21296 H 2908.28 -6.71916 -5.01943 0
M  V30 21297 H 2906.59 -7.4649 -6.93477 0
M  V30 21298 H 2906.4 -8.89416 -5.05237 0
M  V30 21299 H 2904.77 -8.14876 -5.18409 0
M  V30 21300 H 2907.4 -3.27957 -5.4317 0
M  V30 21301 P 2909.26 -5.75688 -6.64379 0
M  V30 21302 O 2910.68 -6.07627 -7.05504 0
M  V30 21303 O 2908.9 -5.88047 -5.19722 0
M  V30 21304 O 2908.94 -4.2322 -7.04443 0
M  V30 21305 C 2908.78 -3.99743 -8.4911 0
M  V30 21306 C 2909.32 -2.60516 -8.79425 0
M  V30 21307 O 2908.26 -1.82684 -8.4467 0
M  V30 21308 C 2910.54 -2.10343 -8.03628 0
M  V30 21309 O 2911.28 -1.09919 -8.67766 0
M  V30 21310 C 2909.87 -1.68446 -6.70876 0
M  V30 21311 O 2910.67 -0.678137 -6.08433 0
M  V30 21312 C 2908.53 -1.17436 -7.18567 0
M  V30 21313 H 2908.56 -0.0804732 -7.31656 0
M  V30 21314 H 2909.75 -2.54037 -6.02537 0
M  V30 21315 H 2911.23 -2.93881 -7.85526 0
M  V30 21316 H 2909.54 -2.53065 -9.86973 0
M  V30 21317 H 2909.35 -4.75072 -9.05887 0
M  V30 21318 H 2907.72 -4.05244 -8.76668 0
M  V30 21319 H 2910.36 0.177647 -6.34251 0
M  V30 21320 P 2912.21 -1.25109 -8.70152 0
M  V30 21321 O 2913.63 -1.29744 -9.22016 0
M  V30 21322 O 2911.85 -2.13714 -7.55141 0
M  V30 21323 O 2911.89 0.248149 -8.21425 0
M  V30 21324 C 2911.73 1.22779 -9.30434 0
M  V30 21325 C 2912.27 2.56293 -8.80664 0
M  V30 21326 O 2911.21 3.02979 -8.09349 0
M  V30 21327 C 2913.49 2.57523 -7.89775 0
M  V30 21328 O 2914.23 3.7668 -7.89438 0
M  V30 21329 C 2912.82 2.20997 -6.55446 0
M  V30 21330 O 2913.62 2.71895 -5.48509 0
M  V30 21331 C 2911.48 2.89693 -6.67988 0
M  V30 21332 H 2911.51 3.88793 -6.19859 0
M  V30 21333 H 2912.7 1.12046 -6.44229 0
M  V30 21334 H 2914.18 1.7746 -8.19711 0
M  V30 21335 H 2912.49 3.20706 -9.67112 0
M  V30 21336 H 2912.3 0.901032 -10.1892 0
M  V30 21337 H 2910.67 1.33049 -9.56592 0
M  V30 21338 H 2913.31 3.57847 -5.23962 0
M  V30 21339 P 2915.16 3.65191 -7.99657 0
M  V30 21340 O 2916.58 3.89374 -8.45885 0
M  V30 21341 O 2914.8 2.28472 -7.50807 0
M  V30 21342 O 2914.84 4.64972 -6.77611 0
M  V30 21343 C 2914.68 6.06383 -7.16428 0
M  V30 21344 C 2915.22 6.91731 -6.02299 0
M  V30 21345 O 2914.17 6.92369 -5.17005 0
M  V30 21346 C 2916.44 6.43627 -5.25174 0
M  V30 21347 O 2917.18 7.43686 -4.60469 0
M  V30 21348 C 2915.77 5.40275 -4.31916 0
M  V30 21349 O 2916.57 5.24878 -3.14911 0
M  V30 21350 C 2914.43 6.04847 -4.05327 0
M  V30 21351 N 2913.39 5.04166 -3.98114 0
M  V30 21352 C 2913.56 3.84629 -4.59066 0
M  V30 21353 N 2912.53 3.0363 -4.45343 0
M  V30 21354 C 2911.65 3.76722 -3.68523 0
M  V30 21355 C 2910.38 3.43528 -3.17088 0
M  V30 21356 N 2909.81 4.44526 -2.44231 0
M  V30 21357 C 2910.42 5.65243 -2.20146 0
M  V30 21358 N 2911.59 6.00221 -2.65453 0
M  V30 21359 C 2912.17 5.00564 -3.39083 0
M  V30 21360 H 2915.65 4.42969 -4.80867 0
M  V30 21361 H 2917.13 5.92458 -5.93643 0
M  V30 21362 H 2915.44 7.93295 -6.39407 0
M  V30 21363 H 2915.25 6.26671 -8.0846 0
M  V30 21364 H 2913.62 6.29101 -7.32804 0
M  V30 21365 H 2914.46 3.58193 -5.14248 0
M  V30 21366 H 2916.26 5.84223 -2.47279 0
M  V30 21367 P 2918.11 7.39546 -4.75277 0
M  V30 21368 O 2919.53 7.84882 -5.01092 0
M  V30 21369 O 2917.75 5.9812 -5.08098 0
M  V30 21370 O 2917.79 7.57503 -3.1866 0
M  V30 21371 C 2917.63 8.97452 -2.74862 0
M  V30 21372 C 2918.17 9.07548 -1.32709 0
M  V30 21373 O 2917.12 8.61972 -0.606089 0
M  V30 21374 C 2919.39 8.25383 -0.938334 0
M  V30 21375 O 2920.13 8.74577 0.146954 0
M  V30 21376 C 2918.72 6.8802 -0.712559 0
M  V30 21377 O 2919.52 6.1181 0.188505 0
M  V30 21378 C 2917.38 7.27966 -0.139777 0
M  V30 21379 N 2916.34 6.39368 -0.623421 0
M  V30 21380 C 2916.51 5.71761 -1.78245 0
M  V30 21381 N 2915.48 4.962 -2.10491 0
M  V30 21382 C 2914.6 5.16158 -1.0635 0
M  V30 21383 C 2913.33 4.60425 -0.810266 0
M  V30 21384 N 2912.76 5.06 0.348685 0
M  V30 21385 C 2913.37 5.94532 1.20395 0
M  V30 21386 N 2914.54 6.48452 1.01191 0
M  V30 21387 C 2915.12 6.04423 -0.146291 0
M  V30 21388 H 2918.6 6.32625 -1.65044 0
M  V30 21389 H 2920.08 8.19355 -1.79097 0
M  V30 21390 H 2918.39 10.1305 -1.09016 0
M  V30 21391 H 2918.2 9.64276 -3.41316 0
M  V30 21392 H 2916.57 9.25417 -2.76357 0
M  V30 21393 H 2917.41 5.79354 -2.38959 0
M  V30 21394 H 2919.21 6.25169 1.0783 0
M  V30 21395 P 2921.06 8.791 -2.10567e-11 0
M  V30 21396 O 2922.49 9.31096 0.027933 0
M  V30 21397 O 2920.7 7.77869 -1.04071 0
M  V30 21398 O 2920.74 8.09533 1.41463 0
M  V30 21399 C 2920.58 9.0349 2.53943 0
M  V30 21400 C 2921.12 8.35226 3.79016 0
M  V30 21401 O 2920.07 7.57992 4.15078 0
M  V30 21402 C 2922.34 7.45087 3.67298 0
M  V30 21403 O 2923.08 7.27796 4.85194 0
M  V30 21404 C 2921.67 6.17323 3.12027 0
M  V30 21405 O 2922.47 5.04231 3.47188 0
M  V30 21406 C 2920.33 6.19961 3.81809 0
M  V30 21407 H 2920.37 5.58218 4.73051 0
M  V30 21408 H 2921.55 6.21726 2.02589 0
M  V30 21409 H 2923.03 7.86112 2.9231 0
M  V30 21410 H 2921.34 9.11627 4.55076 0
M  V30 21411 H 2921.15 9.9573 2.34194 0
M  V30 21412 H 2919.52 9.2792 2.67832 0
M  V30 21413 H 2922.16 4.67702 4.28772 0
M  V30 21414 P 2924.01 7.39546 4.75277 0
M  V30 21415 O 2925.44 7.81777 5.05738 0
M  V30 21416 O 2923.65 7.1065 3.32998 0
M  V30 21417 O 2923.69 6.04542 5.56673 0
M  V30 21418 C 2923.53 6.22772 7.02095 0
M  V30 21419 C 2924.07 4.97725 7.70406 0
M  V30 21420 O 2923.02 4.13256 7.58987 0
M  V30 21421 C 2925.29 4.28231 7.11815 0
M  V30 21422 O 2926.03 3.49945 8.01648 0
M  V30 21423 C 2924.62 3.5063 5.96244 0
M  V30 21424 O 2925.42 2.36482 5.64681 0
M  V30 21425 C 2923.28 3.15122 6.56374 0
M  V30 21426 H 2923.32 2.13853 6.99751 0
M  V30 21427 H 2924.5 4.13501 5.06559 0
M  V30 21428 H 2925.98 5.03285 6.70911 0
M  V30 21429 H 2924.29 5.20877 8.75697 0
M  V30 21430 H 2924.1 7.11046 7.35349 0
M  V30 21431 H 2922.47 6.35815 7.26986 0
M  V30 21432 H 2925.11 1.61644 6.13565 0
M  V30 21433 P 2926.97 3.65191 7.99657 0
M  V30 21434 O 2928.39 3.8425 8.48115 0
M  V30 21435 O 2926.61 4.17805 6.64342 0
M  V30 21436 O 2926.64 2.07613 7.95143 0
M  V30 21437 C 2926.48 1.44328 9.27336 0
M  V30 21438 C 2927.02 0.0220036 9.17197 0
M  V30 21439 O 2925.97 -0.626867 8.61923 0
M  V30 21440 C 2928.24 -0.24586 8.30336 0
M  V30 21441 O 2928.98 -1.39011 8.63583 0
M  V30 21442 C 2927.57 -0.273849 6.91158 0
M  V30 21443 O 2928.37 -1.06348 6.02892 0
M  V30 21444 C 2926.23 -0.897649 7.22545 0
M  V30 21445 H 2926.27 -1.9841 7.04286 0
M  V30 21446 H 2927.45 0.739928 6.497 0
M  V30 21447 H 2928.93 0.60668 8.36503 0
M  V30 21448 H 2927.24 -0.352479 10.1829 0
M  V30 21449 H 2927.05 2.00611 10.0304 0
M  V30 21450 H 2925.42 1.41843 9.55327 0
M  V30 21451 H 2928.06 -1.95734 6.03555 0
M  V30 21452 P 2929.92 -1.25109 8.70152 0
M  V30 21453 O 2931.34 -1.35274 9.21221 0
M  V30 21454 O 2929.56 -0.0769065 7.84762 0
M  V30 21455 O 2929.59 -2.55232 7.81161 0
M  V30 21456 C 2929.43 -3.79939 8.58154 0
M  V30 21457 C 2929.97 -4.94023 7.72785 0
M  V30 21458 O 2928.92 -5.18726 6.91205 0
M  V30 21459 C 2931.19 -4.69597 6.85231 0
M  V30 21460 O 2931.93 -5.83832 6.51337 0
M  V30 21461 C 2930.52 -3.96706 5.66633 0
M  V30 21462 O 2931.32 -4.15414 4.49689 0
M  V30 21463 C 2929.19 -4.66153 5.59313 0
M  V30 21464 H 2929.22 -5.47679 4.85214 0
M  V30 21465 H 2930.4 -2.89008 5.86566 0
M  V30 21466 H 2931.88 -4.0121 7.36511 0
M  V30 21467 H 2930.19 -5.80182 8.37584 0
M  V30 21468 H 2930 -3.73517 9.52265 0
M  V30 21469 H 2928.37 -3.97163 8.80359 0
M  V30 21470 H 2931.01 -4.90969 4.01921 0
M  V30 21471 P 2932.87 -5.75688 6.64379 0
M  V30 21472 O 2934.29 -6.11849 7.01846 0
M  V30 21473 O 2932.51 -4.30744 6.56026 0
M  V30 21474 O 2932.54 -6.37042 5.19165 0
M  V30 21475 C 2932.38 -7.83578 5.16515 0
M  V30 21476 C 2932.92 -8.33398 3.83019 0
M  V30 21477 O 2931.87 -8.10074 3.01034 0
M  V30 21478 C 2934.14 -7.65514 3.2257 0
M  V30 21479 O 2934.88 -8.4329 2.32297 0
M  V30 21480 C 2933.47 -6.40075 2.62207 0
M  V30 21481 O 2934.27 -5.92589 1.53712 0
M  V30 21482 C 2932.14 -6.9454 2.18503 0
M  V30 21483 H 2932.17 -7.23063 1.12091 0
M  V30 21484 H 2933.35 -5.6025 3.37201 0
M  V30 21485 H 2934.83 -7.35707 4.02681 0
M  V30 21486 H 2933.14 -9.40912 3.9095 0
M  V30 21487 H 2932.95 -8.29056 5.99158 0
M  V30 21488 H 2931.32 -8.10073 5.25882 0
M  V30 21489 H 2933.96 -6.30324 0.726794 0
M  V30 21490 P 2935.82 -8.4349 2.47671 0
M  V30 21491 O 2937.24 -8.94263 2.59668 0
M  V30 21492 O 2935.46 -7.1704 3.19006 0
M  V30 21493 O 2935.49 -8.16596 0.923387 0
M  V30 21494 C 2935.33 -9.38537 0.108869 0
M  V30 21495 C 2935.87 -9.08175 -1.28353 0
M  V30 21496 O 2934.82 -8.44131 -1.84692 0
M  V30 21497 C 2937.09 -8.18386 -1.42505 0
M  V30 21498 O 2937.83 -8.3501 -2.60497 0
M  V30 21499 C 2936.42 -6.80225 -1.25468 0
M  V30 21500 O 2937.22 -5.81716 -1.90454 0
M  V30 21501 C 2935.09 -7.02416 -1.9168 0
M  V30 21502 N 2934.04 -6.31033 -1.20314 0
M  V30 21503 C 2934.21 -5.98817 0.0994088 0
M  V30 21504 N 2933.19 -5.35403 0.621694 0
M  V30 21505 C 2932.3 -5.25212 -0.43376 0
M  V30 21506 C 2931.03 -4.64602 -0.519722 0
M  V30 21507 N 2930.43 -4.01457 0.519136 0
M  V30 21508 N 2930.47 -4.7568 -1.76013 0
M  V30 21509 C 2931.07 -5.3653 -2.83017 0
M  V30 21510 N 2932.25 -5.93676 -2.79782 0
M  V30 21511 C 2932.82 -5.84061 -1.56249 0
M  V30 21512 H 2935.12 -6.68789 -2.9658 0
M  V30 21513 H 2936.3 -6.53498 -0.198729 0
M  V30 21514 H 2937.78 -8.36622 -0.589963 0
M  V30 21515 H 2936.09 -10.0273 -1.8081 0
M  V30 21516 H 2935.9 -10.2138 0.558219 0
M  V30 21517 H 2934.27 -9.6579 0.0444202 0
M  V30 21518 H 2930.53 -5.37113 -3.77321 0
M  V30 21519 H 2935.11 -6.23209 0.660562 0
M  V30 21520 H 2929.5 -3.58834 0.394862 0
M  V30 21521 H 2930.91 -3.96059 1.43048 0
M  V30 21522 H 2936.91 -5.69466 -2.79593 0
M  V30 21523 P 2938.77 -8.4349 -2.47671 0
M  V30 21524 O 2940.19 -8.92593 -2.65 0
M  V30 21525 O 2938.41 -7.7568 -1.19296 0
M  V30 21526 O 2938.44 -7.36886 -3.63805 0
M  V30 21527 C 2938.28 -7.95349 -4.982 0
M  V30 21528 C 2938.82 -6.94612 -5.98974 0
M  V30 21529 O 2937.77 -6.10347 -6.11815 0
M  V30 21530 C 2940.04 -6.11426 -5.62335 0
M  V30 21531 O 2940.78 -5.6162 -6.70584 0
M  V30 21532 C 2939.37 -5.04409 -4.73308 0
M  V30 21533 O 2940.17 -3.85992 -4.75183 0
M  V30 21534 C 2938.04 -4.8728 -5.41006 0
M  V30 21535 H 2938.07 -4.02333 -6.11157 0
M  V30 21536 H 2939.25 -5.39466 -3.69543 0
M  V30 21537 H 2940.74 -6.71916 -5.01943 0
M  V30 21538 H 2939.04 -7.4649 -6.93477 0
M  V30 21539 H 2938.85 -8.89416 -5.05237 0
M  V30 21540 H 2937.22 -8.14876 -5.18409 0
M  V30 21541 H 2939.86 -3.27957 -5.4317 0
M  V30 21542 P 2941.72 -5.75688 -6.64379 0
M  V30 21543 O 2943.14 -6.07627 -7.05504 0
M  V30 21544 O 2941.36 -5.88047 -5.19722 0
M  V30 21545 O 2941.4 -4.2322 -7.04443 0
M  V30 21546 C 2941.24 -3.99743 -8.4911 0
M  V30 21547 C 2941.78 -2.60516 -8.79425 0
M  V30 21548 O 2940.72 -1.82684 -8.4467 0
M  V30 21549 C 2942.99 -2.10343 -8.03628 0
M  V30 21550 O 2943.73 -1.09919 -8.67766 0
M  V30 21551 C 2942.32 -1.68446 -6.70876 0
M  V30 21552 O 2943.12 -0.678137 -6.08433 0
M  V30 21553 C 2940.99 -1.17436 -7.18567 0
M  V30 21554 H 2941.02 -0.0804732 -7.31656 0
M  V30 21555 H 2942.2 -2.54037 -6.02537 0
M  V30 21556 H 2943.69 -2.93881 -7.85526 0
M  V30 21557 H 2941.99 -2.53065 -9.86973 0
M  V30 21558 H 2941.8 -4.75072 -9.05887 0
M  V30 21559 H 2940.17 -4.05244 -8.76668 0
M  V30 21560 H 2942.81 0.177647 -6.34251 0
M  V30 21561 P 2944.67 -1.25109 -8.70152 0
M  V30 21562 O 2946.09 -1.29744 -9.22016 0
M  V30 21563 O 2944.31 -2.13714 -7.55141 0
M  V30 21564 O 2944.35 0.248149 -8.21425 0
M  V30 21565 C 2944.19 1.22779 -9.30434 0
M  V30 21566 C 2944.73 2.56293 -8.80664 0
M  V30 21567 O 2943.67 3.02979 -8.09349 0
M  V30 21568 C 2945.94 2.57523 -7.89775 0
M  V30 21569 O 2946.68 3.7668 -7.89438 0
M  V30 21570 C 2945.27 2.20997 -6.55446 0
M  V30 21571 O 2946.07 2.71895 -5.48509 0
M  V30 21572 C 2943.94 2.89693 -6.67988 0
M  V30 21573 H 2943.97 3.88793 -6.19859 0
M  V30 21574 H 2945.15 1.12046 -6.44229 0
M  V30 21575 H 2946.64 1.7746 -8.19711 0
M  V30 21576 H 2944.94 3.20706 -9.67112 0
M  V30 21577 H 2944.75 0.901032 -10.1892 0
M  V30 21578 H 2943.12 1.33049 -9.56592 0
M  V30 21579 H 2945.76 3.57847 -5.23962 0
M  V30 21580 P 2947.62 3.65191 -7.99657 0
M  V30 21581 O 2949.04 3.89332 -8.45794 0
M  V30 21582 O 2947.26 2.28472 -7.50807 0
M  V30 21583 O 2947.3 4.64972 -6.77611 0
M  V30 21584 C 2947.14 6.06319 -7.16352 0
M  V30 21585 C 2947.68 6.91731 -6.02299 0
M  V30 21586 O 2946.62 6.92449 -5.17064 0
M  V30 21587 C 2948.89 6.43627 -5.25174 0
M  V30 21588 O 2949.63 7.43686 -4.60469 0
M  V30 21589 C 2948.23 5.40275 -4.31916 0
M  V30 21590 O 2949.02 5.25279 -3.14438 0
M  V30 21591 C 2946.89 6.04847 -4.05327 0
M  V30 21592 H 2946.92 6.62195 -3.11261 0
M  V30 21593 H 2948.1 4.42556 -4.81383 0
M  V30 21594 H 2949.59 5.92458 -5.93643 0
M  V30 21595 H 2947.89 7.92655 -6.402 0
M  V30 21596 H 2947.7 6.26671 -8.0846 0
M  V30 21597 H 2946.07 6.29101 -7.32804 0
M  V30 21598 H 2948.71 5.84315 -2.47318 0
M  V30 21599 P 2950.57 7.39546 -4.75277 0
M  V30 21600 O 2951.99 7.84798 -5.01039 0
M  V30 21601 O 2950.21 5.9812 -5.08098 0
M  V30 21602 O 2950.25 7.57503 -3.1866 0
M  V30 21603 C 2950.09 8.97357 -2.74833 0
M  V30 21604 C 2950.63 9.07548 -1.32709 0
M  V30 21605 O 2949.57 8.62072 -0.606159 0
M  V30 21606 C 2951.84 8.25383 -0.938334 0
M  V30 21607 O 2952.58 8.74577 0.146954 0
M  V30 21608 C 2951.18 6.8802 -0.712559 0
M  V30 21609 O 2951.97 6.1189 0.194655 0
M  V30 21610 C 2949.84 7.27966 -0.139777 0
M  V30 21611 H 2949.87 7.25354 0.961601 0
M  V30 21612 H 2951.05 6.32557 -1.65702 0
M  V30 21613 H 2952.54 8.19355 -1.79097 0
M  V30 21614 H 2950.84 10.1294 -1.10029 0
M  V30 21615 H 2950.65 9.64276 -3.41316 0
M  V30 21616 H 2949.02 9.25417 -2.76357 0
M  V30 21617 H 2951.66 6.25267 1.07847 0
M  V30 21618 P 2953.52 8.791 -2.62433e-11 0
M  V30 21619 O 2954.94 9.31096 0.027933 0
M  V30 21620 O 2953.16 7.77869 -1.04071 0
M  V30 21621 O 2953.2 8.09533 1.41463 0
M  V30 21622 C 2953.04 9.0349 2.53943 0
M  V30 21623 C 2953.58 8.35226 3.79016 0
M  V30 21624 O 2952.52 7.57992 4.15078 0
M  V30 21625 C 2954.8 7.45087 3.67298 0
M  V30 21626 O 2955.53 7.27796 4.85194 0
M  V30 21627 C 2954.13 6.17323 3.12027 0
M  V30 21628 O 2954.93 5.04231 3.47188 0
M  V30 21629 C 2952.79 6.19961 3.81809 0
M  V30 21630 H 2952.82 5.58218 4.73051 0
M  V30 21631 H 2954 6.21726 2.02589 0
M  V30 21632 H 2955.49 7.86112 2.9231 0
M  V30 21633 H 2953.79 9.11627 4.55076 0
M  V30 21634 H 2953.6 9.9573 2.34194 0
M  V30 21635 H 2951.97 9.2792 2.67832 0
M  V30 21636 H 2954.61 4.67702 4.28772 0
M  V30 21637 P 2956.47 7.39546 4.75277 0
M  V30 21638 O 2957.89 7.81777 5.05738 0
M  V30 21639 O 2956.11 7.1065 3.32998 0
M  V30 21640 O 2956.15 6.04542 5.56673 0
M  V30 21641 C 2955.99 6.22772 7.02095 0
M  V30 21642 C 2956.53 4.97725 7.70406 0
M  V30 21643 O 2955.47 4.13256 7.58987 0
M  V30 21644 C 2957.75 4.28231 7.11815 0
M  V30 21645 O 2958.48 3.49945 8.01648 0
M  V30 21646 C 2957.08 3.5063 5.96244 0
M  V30 21647 O 2957.88 2.36482 5.64681 0
M  V30 21648 C 2955.74 3.15122 6.56374 0
M  V30 21649 H 2955.77 2.13853 6.99751 0
M  V30 21650 H 2956.96 4.13501 5.06559 0
M  V30 21651 H 2958.44 5.03285 6.70911 0
M  V30 21652 H 2956.75 5.20877 8.75697 0
M  V30 21653 H 2956.56 7.11046 7.35349 0
M  V30 21654 H 2954.93 6.35815 7.26986 0
M  V30 21655 H 2957.56 1.61644 6.13565 0
M  V30 21656 P 2959.42 3.65191 7.99657 0
M  V30 21657 O 2960.84 3.8425 8.48115 0
M  V30 21658 O 2959.06 4.17805 6.64342 0
M  V30 21659 O 2959.1 2.07613 7.95143 0
M  V30 21660 C 2958.94 1.44328 9.27336 0
M  V30 21661 C 2959.48 0.0220036 9.17197 0
M  V30 21662 O 2958.42 -0.626867 8.61923 0
M  V30 21663 C 2960.7 -0.24586 8.30336 0
M  V30 21664 O 2961.43 -1.39011 8.63583 0
M  V30 21665 C 2960.03 -0.273849 6.91158 0
M  V30 21666 O 2960.83 -1.06348 6.02892 0
M  V30 21667 C 2958.69 -0.897649 7.22545 0
M  V30 21668 H 2958.72 -1.9841 7.04286 0
M  V30 21669 H 2959.91 0.739928 6.497 0
M  V30 21670 H 2961.39 0.60668 8.36503 0
M  V30 21671 H 2959.7 -0.352479 10.1829 0
M  V30 21672 H 2959.51 2.00611 10.0304 0
M  V30 21673 H 2957.88 1.41843 9.55327 0
M  V30 21674 H 2960.51 -1.95734 6.03555 0
M  V30 21675 P 2962.37 -1.25109 8.70152 0
M  V30 21676 O 2963.79 -1.35274 9.21221 0
M  V30 21677 O 2962.01 -0.0769065 7.84762 0
M  V30 21678 O 2962.05 -2.55232 7.81161 0
M  V30 21679 C 2961.89 -3.79939 8.58154 0
M  V30 21680 C 2962.43 -4.94023 7.72785 0
M  V30 21681 O 2961.37 -5.18726 6.91205 0
M  V30 21682 C 2963.65 -4.69597 6.85231 0
M  V30 21683 O 2964.39 -5.83832 6.51337 0
M  V30 21684 C 2962.98 -3.96706 5.66633 0
M  V30 21685 O 2963.78 -4.15414 4.49689 0
M  V30 21686 C 2961.64 -4.66153 5.59313 0
M  V30 21687 H 2961.67 -5.47679 4.85214 0
M  V30 21688 H 2962.86 -2.89008 5.86566 0
M  V30 21689 H 2964.34 -4.0121 7.36511 0
M  V30 21690 H 2962.65 -5.80182 8.37584 0
M  V30 21691 H 2962.46 -3.73517 9.52265 0
M  V30 21692 H 2960.83 -3.97163 8.80359 0
M  V30 21693 H 2963.47 -4.90969 4.01921 0
M  V30 21694 P 2965.32 -5.75688 6.64379 0
M  V30 21695 O 2966.74 -6.11849 7.01846 0
M  V30 21696 O 2964.96 -4.30744 6.56026 0
M  V30 21697 O 2965 -6.37042 5.19165 0
M  V30 21698 C 2964.84 -7.83578 5.16515 0
M  V30 21699 C 2965.38 -8.33398 3.83019 0
M  V30 21700 O 2964.32 -8.10074 3.01034 0
M  V30 21701 C 2966.6 -7.65514 3.2257 0
M  V30 21702 O 2967.34 -8.4329 2.32297 0
M  V30 21703 C 2965.93 -6.40075 2.62207 0
M  V30 21704 O 2966.73 -5.92589 1.53712 0
M  V30 21705 C 2964.59 -6.9454 2.18503 0
M  V30 21706 H 2964.62 -7.23063 1.12091 0
M  V30 21707 H 2965.81 -5.6025 3.37201 0
M  V30 21708 H 2967.29 -7.35707 4.02681 0
M  V30 21709 H 2965.6 -9.40912 3.9095 0
M  V30 21710 H 2965.41 -8.29056 5.99158 0
M  V30 21711 H 2963.78 -8.10073 5.25882 0
M  V30 21712 H 2966.42 -6.30324 0.726794 0
M  V30 21713 P 2968.27 -8.4349 2.47671 0
M  V30 21714 O 2969.69 -8.94263 2.59668 0
M  V30 21715 O 2967.91 -7.1704 3.19006 0
M  V30 21716 O 2967.95 -8.16596 0.923387 0
M  V30 21717 C 2967.79 -9.38537 0.108869 0
M  V30 21718 C 2968.33 -9.08175 -1.28353 0
M  V30 21719 O 2967.28 -8.44131 -1.84692 0
M  V30 21720 C 2969.55 -8.18386 -1.42505 0
M  V30 21721 O 2970.29 -8.3501 -2.60497 0
M  V30 21722 C 2968.88 -6.80225 -1.25468 0
M  V30 21723 O 2969.68 -5.81716 -1.90454 0
M  V30 21724 C 2967.54 -7.02416 -1.9168 0
M  V30 21725 N 2966.5 -6.31033 -1.20314 0
M  V30 21726 C 2966.67 -5.98817 0.0994088 0
M  V30 21727 N 2965.64 -5.35403 0.621694 0
M  V30 21728 C 2964.76 -5.25212 -0.43376 0
M  V30 21729 C 2963.49 -4.64602 -0.519722 0
M  V30 21730 N 2962.89 -4.01457 0.519136 0
M  V30 21731 N 2962.92 -4.7568 -1.76013 0
M  V30 21732 C 2963.53 -5.3653 -2.83017 0
M  V30 21733 N 2964.7 -5.93676 -2.79782 0
M  V30 21734 C 2965.28 -5.84061 -1.56249 0
M  V30 21735 H 2967.57 -6.68789 -2.9658 0
M  V30 21736 H 2968.76 -6.53498 -0.198729 0
M  V30 21737 H 2970.24 -8.36622 -0.589963 0
M  V30 21738 H 2968.55 -10.0273 -1.8081 0
M  V30 21739 H 2968.36 -10.2138 0.558219 0
M  V30 21740 H 2966.73 -9.6579 0.0444202 0
M  V30 21741 H 2962.99 -5.37113 -3.77321 0
M  V30 21742 H 2967.57 -6.23209 0.660562 0
M  V30 21743 H 2961.96 -3.58834 0.394862 0
M  V30 21744 H 2963.36 -3.96059 1.43048 0
M  V30 21745 H 2969.37 -5.69466 -2.79593 0
M  V30 21746 P 2971.22 -8.4349 -2.47671 0
M  V30 21747 O 2972.65 -8.92593 -2.65 0
M  V30 21748 O 2970.86 -7.7568 -1.19296 0
M  V30 21749 O 2970.9 -7.36886 -3.63805 0
M  V30 21750 C 2970.74 -7.95349 -4.982 0
M  V30 21751 C 2971.28 -6.94612 -5.98974 0
M  V30 21752 O 2970.22 -6.10347 -6.11815 0
M  V30 21753 C 2972.5 -6.11426 -5.62335 0
M  V30 21754 O 2973.24 -5.6162 -6.70584 0
M  V30 21755 C 2971.83 -5.04409 -4.73308 0
M  V30 21756 O 2972.63 -3.85992 -4.75183 0
M  V30 21757 C 2970.49 -4.8728 -5.41006 0
M  V30 21758 H 2970.52 -4.02333 -6.11157 0
M  V30 21759 H 2971.71 -5.39466 -3.69543 0
M  V30 21760 H 2973.19 -6.71916 -5.01943 0
M  V30 21761 H 2971.5 -7.4649 -6.93477 0
M  V30 21762 H 2971.31 -8.89416 -5.05237 0
M  V30 21763 H 2969.68 -8.14876 -5.18409 0
M  V30 21764 H 2972.32 -3.27957 -5.4317 0
M  V30 21765 P 2974.17 -5.75688 -6.64379 0
M  V30 21766 O 2975.6 -6.07692 -7.0558 0
M  V30 21767 O 2973.81 -5.88047 -5.19722 0
M  V30 21768 O 2973.85 -4.2322 -7.04443 0
M  V30 21769 C 2973.69 -3.99785 -8.49201 0
M  V30 21770 C 2974.23 -2.60516 -8.79425 0
M  V30 21771 O 2973.18 -1.82663 -8.44573 0
M  V30 21772 C 2975.45 -2.10343 -8.03628 0
M  V30 21773 O 2976.19 -1.09919 -8.67766 0
M  V30 21774 C 2974.78 -1.68446 -6.70876 0
M  V30 21775 O 2975.58 -0.684109 -6.08265 0
M  V30 21776 C 2973.44 -1.17436 -7.18567 0
M  V30 21777 N 2972.4 -1.52699 -6.23988 0
M  V30 21778 C 2972.57 -2.578 -5.40574 0
M  V30 21779 N 2971.54 -2.78966 -4.61193 0
M  V30 21780 C 2970.66 -1.78725 -4.95769 0
M  V30 21781 C 2969.39 -1.45727 -4.44207 0
M  V30 21782 N 2968.79 -2.13994 -3.43613 0
M  V30 21783 N 2968.83 -0.374977 -5.05812 0
M  V30 21784 C 2969.43 0.345585 -6.05615 0
M  V30 21785 N 2970.6 0.0787651 -6.56253 0
M  V30 21786 C 2971.18 -1.00499 -5.96189 0
M  V30 21787 H 2973.48 -0.0804622 -7.31556 0
M  V30 21788 H 2974.66 -2.53396 -6.02698 0
M  V30 21789 H 2976.14 -2.93881 -7.85526 0
M  V30 21790 H 2974.45 -2.52078 -9.87225 0
M  V30 21791 H 2974.26 -4.75072 -9.05887 0
M  V30 21792 H 2972.63 -4.05244 -8.76668 0
M  V30 21793 H 2968.89 1.20098 -6.4532 0
M  V30 21794 H 2973.47 -3.18977 -5.3945 0
M  V30 21795 H 2967.86 -1.84983 -3.10004 0
M  V30 21796 H 2969.27 -2.9465 -3.00843 0
M  V30 21797 H 2975.27 0.177619 -6.34151 0
M  V30 21798 P 2977.13 -1.25109 -8.70152 0
M  V30 21799 O 2978.55 -1.29744 -9.22016 0
M  V30 21800 O 2976.77 -2.13714 -7.55141 0
M  V30 21801 O 2976.8 0.248149 -8.21425 0
M  V30 21802 C 2976.64 1.22779 -9.30434 0
M  V30 21803 C 2977.18 2.56293 -8.80664 0
M  V30 21804 O 2976.13 3.02979 -8.09349 0
M  V30 21805 C 2978.4 2.57523 -7.89775 0
M  V30 21806 O 2979.14 3.7668 -7.89438 0
M  V30 21807 C 2977.73 2.20997 -6.55446 0
M  V30 21808 O 2978.53 2.71895 -5.48509 0
M  V30 21809 C 2976.39 2.89693 -6.67988 0
M  V30 21810 H 2976.43 3.88793 -6.19859 0
M  V30 21811 H 2977.61 1.12046 -6.44229 0
M  V30 21812 H 2979.09 1.7746 -8.19711 0
M  V30 21813 H 2977.4 3.20706 -9.67112 0
M  V30 21814 H 2977.21 0.901032 -10.1892 0
M  V30 21815 H 2975.58 1.33049 -9.56592 0
M  V30 21816 H 2978.22 3.57847 -5.23962 0
M  V30 21817 P 2980.08 3.65191 -7.99657 0
M  V30 21818 O 2981.5 3.89332 -8.45794 0
M  V30 21819 O 2979.72 2.28472 -7.50807 0
M  V30 21820 O 2979.75 4.64972 -6.77611 0
M  V30 21821 C 2979.59 6.06319 -7.16352 0
M  V30 21822 C 2980.13 6.91731 -6.02299 0
M  V30 21823 O 2979.08 6.92449 -5.17064 0
M  V30 21824 C 2981.35 6.43627 -5.25174 0
M  V30 21825 O 2982.09 7.43686 -4.60469 0
M  V30 21826 C 2980.68 5.40275 -4.31916 0
M  V30 21827 O 2981.48 5.25279 -3.14438 0
M  V30 21828 C 2979.34 6.04847 -4.05327 0
M  V30 21829 H 2979.38 6.62195 -3.11261 0
M  V30 21830 H 2980.56 4.42556 -4.81383 0
M  V30 21831 H 2982.04 5.92458 -5.93643 0
M  V30 21832 H 2980.35 7.92655 -6.402 0
M  V30 21833 H 2980.16 6.26671 -8.0846 0
M  V30 21834 H 2978.53 6.29101 -7.32804 0
M  V30 21835 H 2981.17 5.84315 -2.47318 0
M  V30 21836 P 2983.03 7.39546 -4.75277 0
M  V30 21837 O 2984.45 7.84798 -5.01039 0
M  V30 21838 O 2982.67 5.9812 -5.08098 0
M  V30 21839 O 2982.7 7.57503 -3.1866 0
M  V30 21840 C 2982.54 8.97357 -2.74833 0
M  V30 21841 C 2983.08 9.07548 -1.32709 0
M  V30 21842 O 2982.03 8.62072 -0.606159 0
M  V30 21843 C 2984.3 8.25383 -0.938334 0
M  V30 21844 O 2985.04 8.74577 0.146954 0
M  V30 21845 C 2983.63 6.8802 -0.712559 0
M  V30 21846 O 2984.43 6.1189 0.194655 0
M  V30 21847 C 2982.3 7.27966 -0.139777 0
M  V30 21848 H 2982.33 7.25354 0.961601 0
M  V30 21849 H 2983.51 6.32557 -1.65702 0
M  V30 21850 H 2984.99 8.19355 -1.79097 0
M  V30 21851 H 2983.3 10.1294 -1.10029 0
M  V30 21852 H 2983.11 9.64276 -3.41316 0
M  V30 21853 H 2981.48 9.25417 -2.76357 0
M  V30 21854 H 2984.12 6.25267 1.07847 0
M  V30 21855 P 2985.98 8.791 -3.143e-11 0
M  V30 21856 O 2987.4 9.31096 0.027933 0
M  V30 21857 O 2985.62 7.77869 -1.04071 0
M  V30 21858 O 2985.65 8.09533 1.41463 0
M  V30 21859 C 2985.49 9.0349 2.53943 0
M  V30 21860 C 2986.03 8.35226 3.79016 0
M  V30 21861 O 2984.98 7.57992 4.15078 0
M  V30 21862 C 2987.25 7.45087 3.67298 0
M  V30 21863 O 2987.99 7.27796 4.85194 0
M  V30 21864 C 2986.58 6.17323 3.12027 0
M  V30 21865 O 2987.38 5.04231 3.47188 0
M  V30 21866 C 2985.25 6.19961 3.81809 0
M  V30 21867 H 2985.28 5.58218 4.73051 0
M  V30 21868 H 2986.46 6.21726 2.02589 0
M  V30 21869 H 2987.94 7.86112 2.9231 0
M  V30 21870 H 2986.25 9.11627 4.55076 0
M  V30 21871 H 2986.06 9.9573 2.34194 0
M  V30 21872 H 2984.43 9.2792 2.67832 0
M  V30 21873 H 2987.07 4.67702 4.28772 0
M  V30 21874 P 2988.93 7.39546 4.75277 0
M  V30 21875 O 2990.35 7.81777 5.05738 0
M  V30 21876 O 2988.57 7.1065 3.32998 0
M  V30 21877 O 2988.6 6.04542 5.56673 0
M  V30 21878 C 2988.44 6.22772 7.02095 0
M  V30 21879 C 2988.98 4.97725 7.70406 0
M  V30 21880 O 2987.93 4.13256 7.58987 0
M  V30 21881 C 2990.2 4.28231 7.11815 0
M  V30 21882 O 2990.94 3.49945 8.01648 0
M  V30 21883 C 2989.53 3.5063 5.96244 0
M  V30 21884 O 2990.33 2.36482 5.64681 0
M  V30 21885 C 2988.2 3.15122 6.56374 0
M  V30 21886 H 2988.23 2.13853 6.99751 0
M  V30 21887 H 2989.41 4.13501 5.06559 0
M  V30 21888 H 2990.9 5.03285 6.70911 0
M  V30 21889 H 2989.2 5.20877 8.75697 0
M  V30 21890 H 2989.01 7.11046 7.35349 0
M  V30 21891 H 2987.38 6.35815 7.26986 0
M  V30 21892 H 2990.02 1.61644 6.13565 0
M  V30 21893 P 2991.88 3.65191 7.99657 0
M  V30 21894 O 2993.3 3.8425 8.48115 0
M  V30 21895 O 2991.52 4.17805 6.64342 0
M  V30 21896 O 2991.55 2.07613 7.95143 0
M  V30 21897 C 2991.39 1.44328 9.27336 0
M  V30 21898 C 2991.93 0.0220036 9.17197 0
M  V30 21899 O 2990.88 -0.626867 8.61923 0
M  V30 21900 C 2993.15 -0.24586 8.30336 0
M  V30 21901 O 2993.89 -1.39011 8.63583 0
M  V30 21902 C 2992.48 -0.273849 6.91158 0
M  V30 21903 O 2993.28 -1.06348 6.02892 0
M  V30 21904 C 2991.15 -0.897649 7.22545 0
M  V30 21905 H 2991.18 -1.9841 7.04286 0
M  V30 21906 H 2992.36 0.739928 6.497 0
M  V30 21907 H 2993.85 0.60668 8.36503 0
M  V30 21908 H 2992.15 -0.352479 10.1829 0
M  V30 21909 H 2991.96 2.00611 10.0304 0
M  V30 21910 H 2990.33 1.41843 9.55327 0
M  V30 21911 H 2992.97 -1.95734 6.03555 0
M  V30 21912 P 2994.83 -1.25109 8.70152 0
M  V30 21913 O 2996.25 -1.35274 9.21221 0
M  V30 21914 O 2994.47 -0.0769065 7.84762 0
M  V30 21915 O 2994.51 -2.55232 7.81161 0
M  V30 21916 C 2994.35 -3.79939 8.58154 0
M  V30 21917 C 2994.89 -4.94023 7.72785 0
M  V30 21918 O 2993.83 -5.18726 6.91205 0
M  V30 21919 C 2996.1 -4.69597 6.85231 0
M  V30 21920 O 2996.84 -5.83832 6.51337 0
M  V30 21921 C 2995.43 -3.96706 5.66633 0
M  V30 21922 O 2996.23 -4.15414 4.49689 0
M  V30 21923 C 2994.1 -4.66153 5.59313 0
M  V30 21924 H 2994.13 -5.47679 4.85214 0
M  V30 21925 H 2995.31 -2.89008 5.86566 0
M  V30 21926 H 2996.8 -4.0121 7.36511 0
M  V30 21927 H 2995.1 -5.80182 8.37584 0
M  V30 21928 H 2994.91 -3.73517 9.52265 0
M  V30 21929 H 2993.28 -3.97163 8.80359 0
M  V30 21930 H 2995.92 -4.90969 4.01921 0
M  V30 21931 P 2997.78 -5.75688 6.64379 0
M  V30 21932 O 2999.18 -6.11991 7.09136 0
M  V30 21933 O 2997.4 -4.30899 6.62018 0
M  V30 21934 O 2997.46 -6.36965 5.19102 0
M  V30 21935 C 2997.3 -7.83578 5.16515 0
M  V30 21936 C 2997.84 -8.33307 3.82977 0
M  V30 21937 O 2996.78 -8.0998 3.00999 0
M  V30 21938 C 2999.05 -7.65514 3.2257 0
M  V30 21939 O 2999.79 -8.4329 2.32297 0
M  V30 21940 C 2998.39 -6.40075 2.62207 0
M  V30 21941 O 2999.18 -5.92492 1.53687 0
M  V30 21942 C 2997.05 -6.9454 2.18503 0
M  V30 21943 N 2996.01 -5.95905 2.39948 0
M  V30 21944 C 2994.97 -5.89764 1.49837 0
M  V30 21945 O 2995.01 -6.64088 0.490975 0
M  V30 21946 N 2993.96 -5.02821 1.70992 0
M  V30 21947 C 2994.01 -4.21498 2.77236 0
M  V30 21948 N 2993 -3.37475 2.96465 0
M  V30 21949 C 2995.1 -4.23389 3.68205 0
M  V30 21950 C 2996.07 -5.12792 3.46171 0
M  V30 21951 H 2997.08 -7.22964 1.12076 0
M  V30 21952 H 2998.26 -5.60502 3.36589 0
M  V30 21953 H 2999.75 -7.36197 4.01993 0
M  V30 21954 H 2998.05 -9.41302 3.90009 0
M  V30 21955 H 2997.86 -8.29056 5.99158 0
M  V30 21956 H 2996.23 -8.09989 5.25828 0
M  V30 21957 H 2995.15 -3.54747 4.52399 0
M  V30 21958 H 2996.91 -5.18551 4.1489 0
M  V30 21959 H 2992.21 -3.36058 2.30304 0
M  V30 21960 H 2993 -2.73846 3.77171 0
M  V30 21961 H 2998.97 -6.40705 0.751752 0
M  V30 21962 P 3000.73 -8.4349 2.47671 0
M  V30 21963 O 3002.15 -8.94167 2.5964 0
M  V30 21964 O 3000.37 -7.1704 3.19006 0
M  V30 21965 O 3000.41 -8.16596 0.923387 0
M  V30 21966 C 3000.25 -9.38437 0.108857 0
M  V30 21967 C 3000.79 -9.08175 -1.28353 0
M  V30 21968 O 2999.73 -8.44229 -1.84713 0
M  V30 21969 C 3002 -8.18386 -1.42505 0
M  V30 21970 O 3002.74 -8.3501 -2.60497 0
M  V30 21971 C 3001.34 -6.80225 -1.25468 0
M  V30 21972 O 3002.13 -5.81621 -1.91066 0
M  V30 21973 C 3000 -7.02416 -1.9168 0
M  V30 21974 H 3000.03 -6.6888 -2.96621 0
M  V30 21975 H 3001.21 -6.53617 -0.192223 0
M  V30 21976 H 3002.7 -8.36622 -0.589963 0
M  V30 21977 H 3001 -10.0291 -1.79807 0
M  V30 21978 H 3000.81 -10.2138 0.558219 0
M  V30 21979 H 2999.18 -9.6579 0.0444202 0
M  V30 21980 H 3001.82 -5.69556 -2.79637 0
M  V30 21981 P 3003.68 -8.4349 -2.47671 0
M  V30 21982 O 3005.1 -8.92593 -2.65 0
M  V30 21983 O 3003.32 -7.7568 -1.19296 0
M  V30 21984 O 3003.36 -7.36886 -3.63805 0
M  V30 21985 C 3003.2 -7.95349 -4.982 0
M  V30 21986 C 3003.74 -6.94612 -5.98974 0
M  V30 21987 O 3002.68 -6.10347 -6.11815 0
M  V30 21988 C 3004.96 -6.11426 -5.62335 0
M  V30 21989 O 3005.69 -5.6162 -6.70584 0
M  V30 21990 C 3004.29 -5.04409 -4.73308 0
M  V30 21991 O 3005.09 -3.85992 -4.75183 0
M  V30 21992 C 3002.95 -4.8728 -5.41006 0
M  V30 21993 H 3002.98 -4.02333 -6.11157 0
M  V30 21994 H 3004.16 -5.39466 -3.69543 0
M  V30 21995 H 3005.65 -6.71916 -5.01943 0
M  V30 21996 H 3003.95 -7.4649 -6.93477 0
M  V30 21997 H 3003.76 -8.89416 -5.05237 0
M  V30 21998 H 3002.13 -8.14876 -5.18409 0
M  V30 21999 H 3004.77 -3.27957 -5.4317 0
M  V30 22000 P 3006.63 -5.75688 -6.64379 0
M  V30 22001 O 3008.05 -6.07627 -7.05504 0
M  V30 22002 O 3006.27 -5.88047 -5.19722 0
M  V30 22003 O 3006.31 -4.2322 -7.04443 0
M  V30 22004 C 3006.15 -3.99743 -8.4911 0
M  V30 22005 C 3006.69 -2.60516 -8.79425 0
M  V30 22006 O 3005.63 -1.82684 -8.4467 0
M  V30 22007 C 3007.91 -2.10343 -8.03628 0
M  V30 22008 O 3008.64 -1.09919 -8.67766 0
M  V30 22009 C 3007.24 -1.68446 -6.70876 0
M  V30 22010 O 3008.04 -0.678137 -6.08433 0
M  V30 22011 C 3005.9 -1.17436 -7.18567 0
M  V30 22012 H 3005.93 -0.0804732 -7.31656 0
M  V30 22013 H 3007.11 -2.54037 -6.02537 0
M  V30 22014 H 3008.6 -2.93881 -7.85526 0
M  V30 22015 H 3006.9 -2.53065 -9.86973 0
M  V30 22016 H 3006.71 -4.75072 -9.05887 0
M  V30 22017 H 3005.08 -4.05244 -8.76668 0
M  V30 22018 H 3007.72 0.177647 -6.34251 0
M  V30 22019 P 3009.58 -1.25109 -8.70152 0
M  V30 22020 O 3011 -1.29744 -9.22016 0
M  V30 22021 O 3009.22 -2.13714 -7.55141 0
M  V30 22022 O 3009.26 0.248149 -8.21425 0
M  V30 22023 C 3009.1 1.22779 -9.30434 0
M  V30 22024 C 3009.64 2.56293 -8.80664 0
M  V30 22025 O 3008.58 3.02979 -8.09349 0
M  V30 22026 C 3010.86 2.57523 -7.89775 0
M  V30 22027 O 3011.59 3.7668 -7.89438 0
M  V30 22028 C 3010.19 2.20997 -6.55446 0
M  V30 22029 O 3010.99 2.71895 -5.48509 0
M  V30 22030 C 3008.85 2.89693 -6.67988 0
M  V30 22031 H 3008.88 3.88793 -6.19859 0
M  V30 22032 H 3010.07 1.12046 -6.44229 0
M  V30 22033 H 3011.55 1.7746 -8.19711 0
M  V30 22034 H 3009.86 3.20706 -9.67112 0
M  V30 22035 H 3009.67 0.901032 -10.1892 0
M  V30 22036 H 3008.04 1.33049 -9.56592 0
M  V30 22037 H 3010.67 3.57847 -5.23962 0
M  V30 22038 P 3012.53 3.65191 -7.99657 0
M  V30 22039 O 3013.95 3.89332 -8.45794 0
M  V30 22040 O 3012.17 2.28472 -7.50807 0
M  V30 22041 O 3012.21 4.64972 -6.77611 0
M  V30 22042 C 3012.05 6.06319 -7.16352 0
M  V30 22043 C 3012.59 6.91731 -6.02299 0
M  V30 22044 O 3011.53 6.92449 -5.17064 0
M  V30 22045 C 3013.81 6.43627 -5.25174 0
M  V30 22046 O 3014.54 7.43686 -4.60469 0
M  V30 22047 C 3013.14 5.40275 -4.31916 0
M  V30 22048 O 3013.94 5.25279 -3.14438 0
M  V30 22049 C 3011.8 6.04847 -4.05327 0
M  V30 22050 H 3011.83 6.62195 -3.11261 0
M  V30 22051 H 3013.02 4.42556 -4.81383 0
M  V30 22052 H 3014.5 5.92458 -5.93643 0
M  V30 22053 H 3012.81 7.92655 -6.402 0
M  V30 22054 H 3012.62 6.26671 -8.0846 0
M  V30 22055 H 3010.99 6.29101 -7.32804 0
M  V30 22056 H 3013.62 5.84315 -2.47318 0
M  V30 22057 P 3015.48 7.39546 -4.75277 0
M  V30 22058 O 3016.9 7.84798 -5.01039 0
M  V30 22059 O 3015.12 5.9812 -5.08098 0
M  V30 22060 O 3015.16 7.57503 -3.1866 0
M  V30 22061 C 3015 8.97357 -2.74833 0
M  V30 22062 C 3015.54 9.07548 -1.32709 0
M  V30 22063 O 3014.48 8.62072 -0.606159 0
M  V30 22064 C 3016.76 8.25383 -0.938334 0
M  V30 22065 O 3017.5 8.74577 0.146954 0
M  V30 22066 C 3016.09 6.8802 -0.712559 0
M  V30 22067 O 3016.89 6.1189 0.194655 0
M  V30 22068 C 3014.75 7.27966 -0.139777 0
M  V30 22069 H 3014.78 7.25354 0.961601 0
M  V30 22070 H 3015.97 6.32557 -1.65702 0
M  V30 22071 H 3017.45 8.19355 -1.79097 0
M  V30 22072 H 3015.76 10.1294 -1.10029 0
M  V30 22073 H 3015.57 9.64276 -3.41316 0
M  V30 22074 H 3013.94 9.25417 -2.76357 0
M  V30 22075 H 3016.58 6.25267 1.07847 0
M  V30 22076 P 3018.43 8.791 -3.66166e-11 0
M  V30 22077 O 3019.86 9.31096 0.027933 0
M  V30 22078 O 3018.07 7.77869 -1.04071 0
M  V30 22079 O 3018.11 8.09533 1.41463 0
M  V30 22080 C 3017.95 9.0349 2.53943 0
M  V30 22081 C 3018.49 8.35226 3.79016 0
M  V30 22082 O 3017.43 7.57992 4.15078 0
M  V30 22083 C 3019.71 7.45087 3.67298 0
M  V30 22084 O 3020.45 7.27796 4.85194 0
M  V30 22085 C 3019.04 6.17323 3.12027 0
M  V30 22086 O 3019.84 5.04231 3.47188 0
M  V30 22087 C 3017.7 6.19961 3.81809 0
M  V30 22088 H 3017.73 5.58218 4.73051 0
M  V30 22089 H 3018.92 6.21726 2.02589 0
M  V30 22090 H 3020.4 7.86112 2.9231 0
M  V30 22091 H 3018.71 9.11627 4.55076 0
M  V30 22092 H 3018.52 9.9573 2.34194 0
M  V30 22093 H 3016.89 9.2792 2.67832 0
M  V30 22094 H 3019.53 4.67702 4.28772 0
M  V30 22095 P 3021.38 7.39546 4.75277 0
M  V30 22096 O 3022.81 7.81777 5.05738 0
M  V30 22097 O 3021.02 7.1065 3.32998 0
M  V30 22098 O 3021.06 6.04542 5.56673 0
M  V30 22099 C 3020.9 6.22772 7.02095 0
M  V30 22100 C 3021.44 4.97725 7.70406 0
M  V30 22101 O 3020.38 4.13256 7.58987 0
M  V30 22102 C 3022.66 4.28231 7.11815 0
M  V30 22103 O 3023.4 3.49945 8.01648 0
M  V30 22104 C 3021.99 3.5063 5.96244 0
M  V30 22105 O 3022.79 2.36482 5.64681 0
M  V30 22106 C 3020.65 3.15122 6.56374 0
M  V30 22107 H 3020.68 2.13853 6.99751 0
M  V30 22108 H 3021.87 4.13501 5.06559 0
M  V30 22109 H 3023.35 5.03285 6.70911 0
M  V30 22110 H 3021.66 5.20877 8.75697 0
M  V30 22111 H 3021.47 7.11046 7.35349 0
M  V30 22112 H 3019.84 6.35815 7.26986 0
M  V30 22113 H 3022.48 1.61644 6.13565 0
M  V30 22114 P 3024.33 3.65191 7.99657 0
M  V30 22115 O 3025.76 3.8425 8.48115 0
M  V30 22116 O 3023.97 4.17805 6.64342 0
M  V30 22117 O 3024.01 2.07613 7.95143 0
M  V30 22118 C 3023.85 1.44328 9.27336 0
M  V30 22119 C 3024.39 0.0220036 9.17197 0
M  V30 22120 O 3023.34 -0.626867 8.61923 0
M  V30 22121 C 3025.61 -0.24586 8.30336 0
M  V30 22122 O 3026.35 -1.39011 8.63583 0
M  V30 22123 C 3024.94 -0.273849 6.91158 0
M  V30 22124 O 3025.74 -1.06348 6.02892 0
M  V30 22125 C 3023.6 -0.897649 7.22545 0
M  V30 22126 H 3023.64 -1.9841 7.04286 0
M  V30 22127 H 3024.82 0.739928 6.497 0
M  V30 22128 H 3026.3 0.60668 8.36503 0
M  V30 22129 H 3024.61 -0.352479 10.1829 0
M  V30 22130 H 3024.42 2.00611 10.0304 0
M  V30 22131 H 3022.79 1.41843 9.55327 0
M  V30 22132 H 3025.43 -1.95734 6.03555 0
M  V30 22133 P 3027.28 -1.25109 8.70152 0
M  V30 22134 O 3028.71 -1.35274 9.21221 0
M  V30 22135 O 3026.92 -0.0769065 7.84762 0
M  V30 22136 O 3026.96 -2.55232 7.81161 0
M  V30 22137 C 3026.8 -3.79939 8.58154 0
M  V30 22138 C 3027.34 -4.94023 7.72785 0
M  V30 22139 O 3026.29 -5.18726 6.91205 0
M  V30 22140 C 3028.56 -4.69597 6.85231 0
M  V30 22141 O 3029.3 -5.83832 6.51337 0
M  V30 22142 C 3027.89 -3.96706 5.66633 0
M  V30 22143 O 3028.69 -4.15414 4.49689 0
M  V30 22144 C 3026.55 -4.66153 5.59313 0
M  V30 22145 H 3026.59 -5.47679 4.85214 0
M  V30 22146 H 3027.77 -2.89008 5.86566 0
M  V30 22147 H 3029.25 -4.0121 7.36511 0
M  V30 22148 H 3027.56 -5.80182 8.37584 0
M  V30 22149 H 3027.37 -3.73517 9.52265 0
M  V30 22150 H 3025.74 -3.97163 8.80359 0
M  V30 22151 H 3028.38 -4.90969 4.01921 0
M  V30 22152 P 3030.24 -5.75688 6.64379 0
M  V30 22153 O 3031.66 -6.11849 7.01846 0
M  V30 22154 O 3029.88 -4.30744 6.56026 0
M  V30 22155 O 3029.91 -6.37042 5.19165 0
M  V30 22156 C 3029.75 -7.83578 5.16515 0
M  V30 22157 C 3030.29 -8.33398 3.83019 0
M  V30 22158 O 3029.24 -8.10074 3.01034 0
M  V30 22159 C 3031.51 -7.65514 3.2257 0
M  V30 22160 O 3032.25 -8.4329 2.32297 0
M  V30 22161 C 3030.84 -6.40075 2.62207 0
M  V30 22162 O 3031.64 -5.92589 1.53712 0
M  V30 22163 C 3029.5 -6.9454 2.18503 0
M  V30 22164 H 3029.54 -7.23063 1.12091 0
M  V30 22165 H 3030.72 -5.6025 3.37201 0
M  V30 22166 H 3032.2 -7.35707 4.02681 0
M  V30 22167 H 3030.51 -9.40912 3.9095 0
M  V30 22168 H 3030.32 -8.29056 5.99158 0
M  V30 22169 H 3028.69 -8.10073 5.25882 0
M  V30 22170 H 3031.33 -6.30324 0.726794 0
M  V30 22171 P 3033.19 -8.4349 2.47671 0
M  V30 22172 O 3034.61 -8.94263 2.59668 0
M  V30 22173 O 3032.83 -7.1704 3.19006 0
M  V30 22174 O 3032.86 -8.16596 0.923387 0
M  V30 22175 C 3032.7 -9.38537 0.108869 0
M  V30 22176 C 3033.24 -9.08175 -1.28353 0
M  V30 22177 O 3032.19 -8.44131 -1.84692 0
M  V30 22178 C 3034.46 -8.18386 -1.42505 0
M  V30 22179 O 3035.2 -8.3501 -2.60497 0
M  V30 22180 C 3033.79 -6.80225 -1.25468 0
M  V30 22181 O 3034.59 -5.81716 -1.90454 0
M  V30 22182 C 3032.45 -7.02416 -1.9168 0
M  V30 22183 N 3031.41 -6.31033 -1.20314 0
M  V30 22184 C 3031.58 -5.98817 0.0994088 0
M  V30 22185 N 3030.55 -5.35403 0.621694 0
M  V30 22186 C 3029.67 -5.25212 -0.43376 0
M  V30 22187 C 3028.4 -4.64602 -0.519722 0
M  V30 22188 N 3027.84 -4.7568 -1.76013 0
M  V30 22189 C 3028.44 -5.3653 -2.83017 0
M  V30 22190 N 3029.62 -5.93676 -2.79782 0
M  V30 22191 C 3030.19 -5.84061 -1.56249 0
M  V30 22192 H 3033.67 -6.53498 -0.198729 0
M  V30 22193 H 3035.15 -8.36622 -0.589963 0
M  V30 22194 H 3033.46 -10.0273 -1.8081 0
M  V30 22195 H 3033.27 -10.2138 0.558219 0
M  V30 22196 H 3031.64 -9.6579 0.0444202 0
M  V30 22197 H 3032.48 -6.23209 0.660562 0
M  V30 22198 H 3034.28 -5.69466 -2.79593 0
M  V30 22199 P 3036.14 -8.4349 -2.47671 0
M  V30 22200 O 3037.56 -8.92593 -2.65 0
M  V30 22201 O 3035.78 -7.7568 -1.19296 0
M  V30 22202 O 3035.81 -7.36886 -3.63805 0
M  V30 22203 C 3035.65 -7.95349 -4.982 0
M  V30 22204 C 3036.19 -6.94612 -5.98974 0
M  V30 22205 O 3035.14 -6.10347 -6.11815 0
M  V30 22206 C 3037.41 -6.11426 -5.62335 0
M  V30 22207 O 3038.15 -5.6162 -6.70584 0
M  V30 22208 C 3036.74 -5.04409 -4.73308 0
M  V30 22209 O 3037.54 -3.85992 -4.75183 0
M  V30 22210 C 3035.41 -4.8728 -5.41006 0
M  V30 22211 H 3035.44 -4.02333 -6.11157 0
M  V30 22212 H 3036.62 -5.39466 -3.69543 0
M  V30 22213 H 3038.1 -6.71916 -5.01943 0
M  V30 22214 H 3036.41 -7.4649 -6.93477 0
M  V30 22215 H 3036.22 -8.89416 -5.05237 0
M  V30 22216 H 3034.59 -8.14876 -5.18409 0
M  V30 22217 H 3037.23 -3.27957 -5.4317 0
M  V30 22218 P 3039.09 -5.75688 -6.64379 0
M  V30 22219 O 3040.51 -6.07692 -7.0558 0
M  V30 22220 O 3038.73 -5.88047 -5.19722 0
M  V30 22221 O 3038.76 -4.2322 -7.04443 0
M  V30 22222 C 3038.6 -3.99785 -8.49201 0
M  V30 22223 C 3039.14 -2.60516 -8.79425 0
M  V30 22224 O 3038.09 -1.82663 -8.44573 0
M  V30 22225 C 3040.36 -2.10343 -8.03628 0
M  V30 22226 O 3041.1 -1.09919 -8.67766 0
M  V30 22227 C 3039.69 -1.68446 -6.70876 0
M  V30 22228 O 3040.49 -0.684109 -6.08265 0
M  V30 22229 C 3038.36 -1.17436 -7.18567 0
M  V30 22230 N 3037.31 -1.52699 -6.23988 0
M  V30 22231 C 3037.48 -2.578 -5.40574 0
M  V30 22232 N 3036.46 -2.78966 -4.61193 0
M  V30 22233 C 3035.57 -1.78725 -4.95769 0
M  V30 22234 C 3034.3 -1.45727 -4.44207 0
M  V30 22235 N 3033.7 -2.13994 -3.43613 0
M  V30 22236 N 3033.74 -0.374977 -5.05812 0
M  V30 22237 C 3034.34 0.345585 -6.05615 0
M  V30 22238 N 3035.52 0.0787651 -6.56253 0
M  V30 22239 C 3036.09 -1.00499 -5.96189 0
M  V30 22240 H 3038.39 -0.0804622 -7.31556 0
M  V30 22241 H 3039.57 -2.53396 -6.02698 0
M  V30 22242 H 3041.05 -2.93881 -7.85526 0
M  V30 22243 H 3039.36 -2.52078 -9.87225 0
M  V30 22244 H 3039.17 -4.75072 -9.05887 0
M  V30 22245 H 3037.54 -4.05244 -8.76668 0
M  V30 22246 H 3033.8 1.20098 -6.4532 0
M  V30 22247 H 3038.38 -3.18977 -5.3945 0
M  V30 22248 H 3032.77 -1.84983 -3.10004 0
M  V30 22249 H 3034.18 -2.9465 -3.00843 0
M  V30 22250 H 3040.18 0.177619 -6.34151 0
M  V30 22251 P 3042.04 -1.25109 -8.70152 0
M  V30 22252 O 3043.46 -1.29758 -9.22115 0
M  V30 22253 O 3041.68 -2.13714 -7.55141 0
M  V30 22254 O 3041.71 0.248149 -8.21425 0
M  V30 22255 C 3041.55 1.22792 -9.30533 0
M  V30 22256 C 3042.09 2.56293 -8.80664 0
M  V30 22257 O 3041.04 3.02944 -8.09255 0
M  V30 22258 C 3043.31 2.57523 -7.89775 0
M  V30 22259 O 3044.05 3.7668 -7.89438 0
M  V30 22260 C 3042.64 2.20997 -6.55446 0
M  V30 22261 O 3043.44 2.71302 -5.48691 0
M  V30 22262 C 3041.31 2.89693 -6.67988 0
M  V30 22263 N 3040.26 2.08895 -6.07487 0
M  V30 22264 C 3040.43 0.753809 -5.94137 0
M  V30 22265 N 3039.41 0.146592 -5.38801 0
M  V30 22266 C 3038.52 1.1768 -5.13693 0
M  V30 22267 C 3037.25 1.17563 -4.52477 0
M  V30 22268 N 3036.65 0.057481 -4.04759 0
M  V30 22269 N 3036.69 2.41918 -4.45789 0
M  V30 22270 C 3037.29 3.56493 -4.90792 0
M  V30 22271 N 3038.47 3.61423 -5.47817 0
M  V30 22272 C 3039.04 2.37779 -5.5588 0
M  V30 22273 H 3041.34 3.8874 -6.19774 0
M  V30 22274 H 3042.52 1.12673 -6.44018 0
M  V30 22275 H 3044 1.7746 -8.19711 0
M  V30 22276 H 3042.31 3.21673 -9.66791 0
M  V30 22277 H 3042.12 0.901032 -10.1892 0
M  V30 22278 H 3040.49 1.33049 -9.56592 0
M  V30 22279 H 3036.75 4.49919 -4.77947 0
M  V30 22280 H 3041.33 0.233081 -6.26266 0
M  V30 22281 H 3035.72 0.119831 -3.60801 0
M  V30 22282 H 3037.13 -0.852272 -4.12385 0
M  V30 22283 H 3043.13 3.5779 -5.23879 0
M  V30 22284 P 3044.99 3.65191 -7.99657 0
M  V30 22285 O 3046.41 3.89332 -8.45794 0
M  V30 22286 O 3044.63 2.28472 -7.50807 0
M  V30 22287 O 3044.67 4.64972 -6.77611 0
M  V30 22288 C 3044.51 6.06319 -7.16352 0
M  V30 22289 C 3045.05 6.91731 -6.02299 0
M  V30 22290 O 3043.99 6.92449 -5.17064 0
M  V30 22291 C 3046.26 6.43627 -5.25174 0
M  V30 22292 O 3047 7.43686 -4.60469 0
M  V30 22293 C 3045.59 5.40275 -4.31916 0
M  V30 22294 O 3046.39 5.25279 -3.14438 0
M  V30 22295 C 3044.26 6.04847 -4.05327 0
M  V30 22296 H 3044.29 6.62195 -3.11261 0
M  V30 22297 H 3045.47 4.42556 -4.81383 0
M  V30 22298 H 3046.96 5.92458 -5.93643 0
M  V30 22299 H 3045.26 7.92655 -6.402 0
M  V30 22300 H 3045.07 6.26671 -8.0846 0
M  V30 22301 H 3043.44 6.29101 -7.32804 0
M  V30 22302 H 3046.08 5.84315 -2.47318 0
M  V30 22303 P 3047.94 7.39546 -4.75277 0
M  V30 22304 O 3049.36 7.84798 -5.01039 0
M  V30 22305 O 3047.58 5.9812 -5.08098 0
M  V30 22306 O 3047.62 7.57503 -3.1866 0
M  V30 22307 C 3047.46 8.97357 -2.74833 0
M  V30 22308 C 3048 9.07548 -1.32709 0
M  V30 22309 O 3046.94 8.62072 -0.606159 0
M  V30 22310 C 3049.21 8.25383 -0.938334 0
M  V30 22311 O 3049.95 8.74577 0.146954 0
M  V30 22312 C 3048.54 6.8802 -0.712559 0
M  V30 22313 O 3049.34 6.1189 0.194655 0
M  V30 22314 C 3047.21 7.27966 -0.139777 0
M  V30 22315 H 3047.24 7.25354 0.961601 0
M  V30 22316 H 3048.42 6.32557 -1.65702 0
M  V30 22317 H 3049.91 8.19355 -1.79097 0
M  V30 22318 H 3048.21 10.1294 -1.10029 0
M  V30 22319 H 3048.02 9.64276 -3.41316 0
M  V30 22320 H 3046.39 9.25417 -2.76357 0
M  V30 22321 H 3049.03 6.25267 1.07847 0
M  V30 22322 P 3050.89 8.791 -4.18033e-11 0
M  V30 22323 O 3052.31 9.31096 0.027933 0
M  V30 22324 O 3050.53 7.77869 -1.04071 0
M  V30 22325 O 3050.57 8.09533 1.41463 0
M  V30 22326 C 3050.41 9.0349 2.53943 0
M  V30 22327 C 3050.95 8.35226 3.79016 0
M  V30 22328 O 3049.89 7.57992 4.15078 0
M  V30 22329 C 3052.16 7.45087 3.67298 0
M  V30 22330 O 3052.9 7.27796 4.85194 0
M  V30 22331 C 3051.5 6.17323 3.12027 0
M  V30 22332 O 3052.29 5.04231 3.47188 0
M  V30 22333 C 3050.16 6.19961 3.81809 0
M  V30 22334 H 3050.19 5.58218 4.73051 0
M  V30 22335 H 3051.37 6.21726 2.02589 0
M  V30 22336 H 3052.86 7.86112 2.9231 0
M  V30 22337 H 3051.16 9.11627 4.55076 0
M  V30 22338 H 3050.97 9.9573 2.34194 0
M  V30 22339 H 3049.34 9.2792 2.67832 0
M  V30 22340 H 3051.98 4.67702 4.28772 0
M  V30 22341 P 3053.84 7.39546 4.75277 0
M  V30 22342 O 3055.26 7.81777 5.05738 0
M  V30 22343 O 3053.48 7.1065 3.32998 0
M  V30 22344 O 3053.52 6.04542 5.56673 0
M  V30 22345 C 3053.36 6.22772 7.02095 0
M  V30 22346 C 3053.9 4.97725 7.70406 0
M  V30 22347 O 3052.84 4.13256 7.58987 0
M  V30 22348 C 3055.11 4.28231 7.11815 0
M  V30 22349 O 3055.85 3.49945 8.01648 0
M  V30 22350 C 3054.45 3.5063 5.96244 0
M  V30 22351 O 3055.24 2.36482 5.64681 0
M  V30 22352 C 3053.11 3.15122 6.56374 0
M  V30 22353 H 3053.14 2.13853 6.99751 0
M  V30 22354 H 3054.32 4.13501 5.06559 0
M  V30 22355 H 3055.81 5.03285 6.70911 0
M  V30 22356 H 3054.11 5.20877 8.75697 0
M  V30 22357 H 3053.92 7.11046 7.35349 0
M  V30 22358 H 3052.29 6.35815 7.26986 0
M  V30 22359 H 3054.93 1.61644 6.13565 0
M  V30 22360 P 3056.79 3.65191 7.99657 0
M  V30 22361 O 3058.21 3.84292 8.48206 0
M  V30 22362 O 3056.43 4.17805 6.64342 0
M  V30 22363 O 3056.47 2.07613 7.95143 0
M  V30 22364 C 3056.31 1.44344 9.27435 0
M  V30 22365 C 3056.85 0.0220036 9.17197 0
M  V30 22366 O 3055.79 -0.626794 8.61824 0
M  V30 22367 C 3058.07 -0.24586 8.30336 0
M  V30 22368 O 3058.8 -1.39011 8.63583 0
M  V30 22369 C 3057.4 -0.273849 6.91158 0
M  V30 22370 O 3058.2 -1.05728 6.029 0
M  V30 22371 C 3056.06 -0.897649 7.22545 0
M  V30 22372 N 3055.02 -0.292839 6.41732 0
M  V30 22373 C 3055.19 0.950603 5.91308 0
M  V30 22374 N 3054.16 1.37732 5.21105 0
M  V30 22375 C 3053.27 0.318109 5.26039 0
M  V30 22376 C 3052.01 0.146766 4.6727 0
M  V30 22377 N 3051.44 -1.06525 4.95887 0
M  V30 22378 C 3052.04 -2.0378 5.71347 0
M  V30 22379 N 3053.22 -1.92445 6.27451 0
M  V30 22380 C 3053.8 -0.715382 6.00353 0
M  V30 22381 H 3057.27 0.733318 6.49674 0
M  V30 22382 H 3058.76 0.60668 8.36503 0
M  V30 22383 H 3057.06 -0.362662 10.1825 0
M  V30 22384 H 3056.87 2.00611 10.0304 0
M  V30 22385 H 3055.24 1.41843 9.55327 0
M  V30 22386 H 3056.09 1.54076 6.07465 0
M  V30 22387 H 3057.88 -1.95704 6.0346 0
M  V30 22388 P 3059.74 -1.25109 8.70152 0
M  V30 22389 O 3061.16 -1.35274 9.21221 0
M  V30 22390 O 3059.38 -0.0769065 7.84762 0
M  V30 22391 O 3059.42 -2.55232 7.81161 0
M  V30 22392 C 3059.26 -3.79939 8.58154 0
M  V30 22393 C 3059.8 -4.94023 7.72785 0
M  V30 22394 O 3058.74 -5.18726 6.91205 0
M  V30 22395 C 3061.02 -4.69597 6.85231 0
M  V30 22396 O 3061.75 -5.83832 6.51337 0
M  V30 22397 C 3060.35 -3.96706 5.66633 0
M  V30 22398 O 3061.15 -4.15414 4.49689 0
M  V30 22399 C 3059.01 -4.66153 5.59313 0
M  V30 22400 H 3059.04 -5.47679 4.85214 0
M  V30 22401 H 3060.23 -2.89008 5.86566 0
M  V30 22402 H 3061.71 -4.0121 7.36511 0
M  V30 22403 H 3060.02 -5.80182 8.37584 0
M  V30 22404 H 3059.83 -3.73517 9.52265 0
M  V30 22405 H 3058.2 -3.97163 8.80359 0
M  V30 22406 H 3060.83 -4.90969 4.01921 0
M  V30 22407 P 3062.69 -5.75688 6.64379 0
M  V30 22408 O 3064.11 -6.11849 7.01846 0
M  V30 22409 O 3062.33 -4.30744 6.56026 0
M  V30 22410 O 3062.37 -6.37042 5.19165 0
M  V30 22411 C 3062.21 -7.83578 5.16515 0
M  V30 22412 C 3062.75 -8.33398 3.83019 0
M  V30 22413 O 3061.69 -8.10074 3.01034 0
M  V30 22414 C 3063.97 -7.65514 3.2257 0
M  V30 22415 O 3064.7 -8.4329 2.32297 0
M  V30 22416 C 3063.3 -6.40075 2.62207 0
M  V30 22417 O 3064.1 -5.92589 1.53712 0
M  V30 22418 C 3061.96 -6.9454 2.18503 0
M  V30 22419 H 3061.99 -7.23063 1.12091 0
M  V30 22420 H 3063.18 -5.6025 3.37201 0
M  V30 22421 H 3064.66 -7.35707 4.02681 0
M  V30 22422 H 3062.97 -9.40912 3.9095 0
M  V30 22423 H 3062.78 -8.29056 5.99158 0
M  V30 22424 H 3061.15 -8.10073 5.25882 0
M  V30 22425 H 3063.78 -6.30324 0.726794 0
M  V30 22426 P 3065.64 -8.4349 2.47671 0
M  V30 22427 O 3067.06 -8.94167 2.5964 0
M  V30 22428 O 3065.28 -7.1704 3.19006 0
M  V30 22429 O 3065.32 -8.16596 0.923387 0
M  V30 22430 C 3065.16 -9.38437 0.108857 0
M  V30 22431 C 3065.7 -9.08175 -1.28353 0
M  V30 22432 O 3064.64 -8.44229 -1.84713 0
M  V30 22433 C 3066.92 -8.18386 -1.42505 0
M  V30 22434 O 3067.66 -8.3501 -2.60497 0
M  V30 22435 C 3066.25 -6.80225 -1.25468 0
M  V30 22436 O 3067.05 -5.81621 -1.91066 0
M  V30 22437 C 3064.91 -7.02416 -1.9168 0
M  V30 22438 H 3064.94 -6.6888 -2.96621 0
M  V30 22439 H 3066.13 -6.53617 -0.192223 0
M  V30 22440 H 3067.61 -8.36622 -0.589963 0
M  V30 22441 H 3065.92 -10.0291 -1.79807 0
M  V30 22442 H 3065.73 -10.2138 0.558219 0
M  V30 22443 H 3064.1 -9.6579 0.0444202 0
M  V30 22444 H 3066.74 -5.69556 -2.79637 0
M  V30 22445 P 3068.59 -8.4349 -2.47671 0
M  V30 22446 O 3070.01 -8.92785 -2.65057 0
M  V30 22447 O 3068.23 -7.7568 -1.19296 0
M  V30 22448 O 3068.27 -7.36886 -3.63805 0
M  V30 22449 C 3068.11 -7.95349 -4.982 0
M  V30 22450 C 3068.65 -6.94537 -5.98908 0
M  V30 22451 O 3067.59 -6.10347 -6.11815 0
M  V30 22452 C 3069.87 -6.11426 -5.62335 0
M  V30 22453 O 3070.61 -5.6162 -6.70584 0
M  V30 22454 C 3069.2 -5.04409 -4.73308 0
M  V30 22455 O 3070 -3.85929 -4.75106 0
M  V30 22456 C 3067.86 -4.8728 -5.41006 0
M  V30 22457 N 3066.82 -4.65812 -4.42377 0
M  V30 22458 C 3066.88 -5.27109 -3.24335 0
M  V30 22459 N 3065.84 -4.94293 -2.47735 0
M  V30 22460 C 3065.1 -4.1271 -3.23359 0
M  V30 22461 C 3063.8 -3.56384 -2.99934 0
M  V30 22462 O 3063.06 -3.69331 -2.00616 0
M  V30 22463 N 3063.37 -2.80206 -4.03316 0
M  V30 22464 C 3064.11 -2.58614 -5.2172 0
M  V30 22465 N 3063.52 -1.75154 -6.13278 0
M  V30 22466 N 3065.27 -3.13689 -5.47619 0
M  V30 22467 C 3065.72 -3.90921 -4.46436 0
M  V30 22468 H 3067.89 -4.02333 -6.11157 0
M  V30 22469 H 3069.08 -5.39383 -3.69487 0
M  V30 22470 H 3070.56 -6.71414 -5.02615 0
M  V30 22471 H 3068.87 -7.4649 -6.93477 0
M  V30 22472 H 3068.68 -8.89416 -5.05237 0
M  V30 22473 H 3067.05 -8.14876 -5.18409 0
M  V30 22474 H 3062.47 -2.36355 -3.95916 0
M  V30 22475 H 3067.68 -5.95212 -2.93859 0
M  V30 22476 H 3062.61 -1.32473 -5.91856 0
M  V30 22477 H 3063.98 -1.5588 -7.03026 0
M  V30 22478 H 3069.69 -3.27906 -5.43085 0
M  V30 22479 P 3071.54 -5.75688 -6.64379 0
M  V30 22480 O 3072.97 -6.07627 -7.05504 0
M  V30 22481 O 3071.18 -5.88047 -5.19722 0
M  V30 22482 O 3071.22 -4.2322 -7.04443 0
M  V30 22483 C 3071.06 -3.99743 -8.4911 0
M  V30 22484 C 3071.6 -2.60516 -8.79425 0
M  V30 22485 O 3070.54 -1.82684 -8.4467 0
M  V30 22486 C 3072.82 -2.10343 -8.03628 0
M  V30 22487 O 3073.56 -1.09919 -8.67766 0
M  V30 22488 C 3072.15 -1.68446 -6.70876 0
M  V30 22489 O 3072.95 -0.678137 -6.08433 0
M  V30 22490 C 3070.81 -1.17436 -7.18567 0
M  V30 22491 H 3070.84 -0.0804732 -7.31656 0
M  V30 22492 H 3072.03 -2.54037 -6.02537 0
M  V30 22493 H 3073.51 -2.93881 -7.85526 0
M  V30 22494 H 3071.82 -2.53065 -9.86973 0
M  V30 22495 H 3071.63 -4.75072 -9.05887 0
M  V30 22496 H 3070 -4.05244 -8.76668 0
M  V30 22497 H 3072.64 0.177647 -6.34251 0
M  V30 22498 P 3074.49 -1.25109 -8.70152 0
M  V30 22499 O 3075.91 -1.29758 -9.22115 0
M  V30 22500 O 3074.13 -2.13714 -7.55141 0
M  V30 22501 O 3074.17 0.248149 -8.21425 0
M  V30 22502 C 3074.01 1.22792 -9.30533 0
M  V30 22503 C 3074.55 2.56293 -8.80664 0
M  V30 22504 O 3073.5 3.02944 -8.09255 0
M  V30 22505 C 3075.77 2.57523 -7.89775 0
M  V30 22506 O 3076.51 3.7668 -7.89438 0
M  V30 22507 C 3075.1 2.20997 -6.55446 0
M  V30 22508 O 3075.9 2.71302 -5.48691 0
M  V30 22509 C 3073.76 2.89693 -6.67988 0
M  V30 22510 N 3072.72 2.08895 -6.07487 0
M  V30 22511 C 3072.89 0.753809 -5.94137 0
M  V30 22512 N 3071.86 0.146592 -5.38801 0
M  V30 22513 C 3070.98 1.1768 -5.13693 0
M  V30 22514 C 3069.71 1.17563 -4.52477 0
M  V30 22515 N 3069.14 2.41918 -4.45789 0
M  V30 22516 C 3069.75 3.56493 -4.90792 0
M  V30 22517 N 3070.92 3.61423 -5.47817 0
M  V30 22518 C 3071.5 2.37779 -5.5588 0
M  V30 22519 H 3074.98 1.12673 -6.44018 0
M  V30 22520 H 3076.46 1.7746 -8.19711 0
M  V30 22521 H 3074.77 3.21673 -9.66791 0
M  V30 22522 H 3074.58 0.901032 -10.1892 0
M  V30 22523 H 3072.95 1.33049 -9.56592 0
M  V30 22524 H 3073.79 0.233081 -6.26266 0
M  V30 22525 H 3075.59 3.5779 -5.23879 0
M  V30 22526 P 3077.44 3.65191 -7.99657 0
M  V30 22527 O 3078.87 3.89332 -8.45794 0
M  V30 22528 O 3077.08 2.28472 -7.50807 0
M  V30 22529 O 3077.12 4.64972 -6.77611 0
M  V30 22530 C 3076.96 6.06319 -7.16352 0
M  V30 22531 C 3077.5 6.91731 -6.02299 0
M  V30 22532 O 3076.45 6.92449 -5.17064 0
M  V30 22533 C 3078.72 6.43627 -5.25174 0
M  V30 22534 O 3079.46 7.43686 -4.60469 0
M  V30 22535 C 3078.05 5.40275 -4.31916 0
M  V30 22536 O 3078.85 5.25279 -3.14438 0
M  V30 22537 C 3076.71 6.04847 -4.05327 0
M  V30 22538 H 3076.75 6.62195 -3.11261 0
M  V30 22539 H 3077.93 4.42556 -4.81383 0
M  V30 22540 H 3079.41 5.92458 -5.93643 0
M  V30 22541 H 3077.72 7.92655 -6.402 0
M  V30 22542 H 3077.53 6.26671 -8.0846 0
M  V30 22543 H 3075.9 6.29101 -7.32804 0
M  V30 22544 H 3078.54 5.84315 -2.47318 0
M  V30 22545 P 3080.4 7.39546 -4.75277 0
M  V30 22546 O 3081.82 7.84798 -5.01039 0
M  V30 22547 O 3080.04 5.9812 -5.08098 0
M  V30 22548 O 3080.07 7.57503 -3.1866 0
M  V30 22549 C 3079.91 8.97357 -2.74833 0
M  V30 22550 C 3080.45 9.07548 -1.32709 0
M  V30 22551 O 3079.4 8.62072 -0.606159 0
M  V30 22552 C 3081.67 8.25383 -0.938334 0
M  V30 22553 O 3082.41 8.74577 0.146954 0
M  V30 22554 C 3081 6.8802 -0.712559 0
M  V30 22555 O 3081.8 6.1189 0.194655 0
M  V30 22556 C 3079.66 7.27966 -0.139777 0
M  V30 22557 H 3079.7 7.25354 0.961601 0
M  V30 22558 H 3080.88 6.32557 -1.65702 0
M  V30 22559 H 3082.36 8.19355 -1.79097 0
M  V30 22560 H 3080.67 10.1294 -1.10029 0
M  V30 22561 H 3080.48 9.64276 -3.41316 0
M  V30 22562 H 3078.85 9.25417 -2.76357 0
M  V30 22563 H 3081.49 6.25267 1.07847 0
M  V30 22564 P 3083.35 8.791 -4.69899e-11 0
M  V30 22565 O 3084.77 9.31096 0.027933 0
M  V30 22566 O 3082.99 7.77869 -1.04071 0
M  V30 22567 O 3083.02 8.09533 1.41463 0
M  V30 22568 C 3082.86 9.0349 2.53943 0
M  V30 22569 C 3083.4 8.35226 3.79016 0
M  V30 22570 O 3082.35 7.57992 4.15078 0
M  V30 22571 C 3084.62 7.45087 3.67298 0
M  V30 22572 O 3085.36 7.27796 4.85194 0
M  V30 22573 C 3083.95 6.17323 3.12027 0
M  V30 22574 O 3084.75 5.04231 3.47188 0
M  V30 22575 C 3082.61 6.19961 3.81809 0
M  V30 22576 H 3082.65 5.58218 4.73051 0
M  V30 22577 H 3083.83 6.21726 2.02589 0
M  V30 22578 H 3085.31 7.86112 2.9231 0
M  V30 22579 H 3083.62 9.11627 4.55076 0
M  V30 22580 H 3083.43 9.9573 2.34194 0
M  V30 22581 H 3081.8 9.2792 2.67832 0
M  V30 22582 H 3084.44 4.67702 4.28772 0
M  V30 22583 P 3086.3 7.39546 4.75277 0
M  V30 22584 O 3087.72 7.81777 5.05738 0
M  V30 22585 O 3085.94 7.1065 3.32998 0
M  V30 22586 O 3085.97 6.04542 5.56673 0
M  V30 22587 C 3085.81 6.22772 7.02095 0
M  V30 22588 C 3086.35 4.97725 7.70406 0
M  V30 22589 O 3085.3 4.13256 7.58987 0
M  V30 22590 C 3087.57 4.28231 7.11815 0
M  V30 22591 O 3088.31 3.49945 8.01648 0
M  V30 22592 C 3086.9 3.5063 5.96244 0
M  V30 22593 O 3087.7 2.36482 5.64681 0
M  V30 22594 C 3085.57 3.15122 6.56374 0
M  V30 22595 H 3085.6 2.13853 6.99751 0
M  V30 22596 H 3086.78 4.13501 5.06559 0
M  V30 22597 H 3088.26 5.03285 6.70911 0
M  V30 22598 H 3086.57 5.20877 8.75697 0
M  V30 22599 H 3086.38 7.11046 7.35349 0
M  V30 22600 H 3084.75 6.35815 7.26986 0
M  V30 22601 H 3087.39 1.61644 6.13565 0
M  V30 22602 P 3089.25 3.65191 7.99657 0
M  V30 22603 O 3090.67 3.84333 8.48297 0
M  V30 22604 O 3088.89 4.17805 6.64342 0
M  V30 22605 O 3088.92 2.07613 7.95143 0
M  V30 22606 C 3088.76 1.44328 9.27336 0
M  V30 22607 C 3089.3 0.0220012 9.17097 0
M  V30 22608 O 3088.25 -0.626867 8.61923 0
M  V30 22609 C 3090.52 -0.24586 8.30336 0
M  V30 22610 O 3091.26 -1.39011 8.63583 0
M  V30 22611 C 3089.85 -0.273849 6.91158 0
M  V30 22612 O 3090.65 -1.06331 6.02794 0
M  V30 22613 C 3088.52 -0.897649 7.22545 0
M  V30 22614 N 3087.47 -0.292839 6.41732 0
M  V30 22615 C 3087.53 1.00068 6.10757 0
M  V30 22616 N 3086.49 1.36468 5.35794 0
M  V30 22617 C 3085.76 0.258894 5.2366 0
M  V30 22618 C 3084.45 0.0670682 4.65752 0
M  V30 22619 O 3083.72 0.902443 4.10497 0
M  V30 22620 N 3084.02 -1.2131 4.75881 0
M  V30 22621 C 3084.77 -2.24934 5.37101 0
M  V30 22622 N 3084.17 -3.48783 5.33984 0
M  V30 22623 N 3085.92 -2.0844 5.95684 0
M  V30 22624 C 3086.38 -0.81395 5.87791 0
M  V30 22625 H 3088.55 -1.9841 7.04286 0
M  V30 22626 H 3089.73 0.739815 6.49601 0
M  V30 22627 H 3091.22 0.598315 8.36563 0
M  V30 22628 H 3089.52 -0.352479 10.1829 0
M  V30 22629 H 3089.33 2.00611 10.0304 0
M  V30 22630 H 3087.7 1.41843 9.55327 0
M  V30 22631 H 3083.12 -1.44434 4.37895 0
M  V30 22632 H 3088.33 1.67697 6.42268 0
M  V30 22633 H 3083.26 -3.60543 4.87699 0
M  V30 22634 H 3084.64 -4.29232 5.7819 0
M  V30 22635 H 3090.34 -1.95704 6.0346 0
M  V30 22636 P 3092.2 -1.25109 8.70152 0
M  V30 22637 O 3093.6 -1.31452 9.27431 0
M  V30 22638 O 3091.82 -0.0458113 7.89887 0
M  V30 22639 O 3091.87 -2.55201 7.81066 0
M  V30 22640 C 3091.71 -3.79939 8.58154 0
M  V30 22641 C 3092.25 -4.93969 7.72701 0
M  V30 22642 O 3091.2 -5.18666 6.91125 0
M  V30 22643 C 3093.47 -4.69597 6.85231 0
M  V30 22644 O 3094.21 -5.83832 6.51337 0
M  V30 22645 C 3092.8 -3.96706 5.66633 0
M  V30 22646 O 3093.6 -4.15346 4.49615 0
M  V30 22647 C 3091.47 -4.66153 5.59313 0
M  V30 22648 N 3090.42 -3.71582 5.24027 0
M  V30 22649 C 3089.39 -4.15133 4.44901 0
M  V30 22650 O 3089.43 -5.32122 4.00336 0
M  V30 22651 N 3088.38 -3.30554 4.15693 0
M  V30 22652 C 3088.42 -2.04701 4.61105 0
M  V30 22653 C 3089.52 -1.57111 5.38655 0
M  V30 22654 C 3090.49 -2.44234 5.68454 0
M  V30 22655 H 3091.5 -5.47604 4.85148 0
M  V30 22656 H 3092.68 -2.8955 5.86187 0
M  V30 22657 H 3094.17 -4.01995 7.36197 0
M  V30 22658 H 3092.47 -5.81019 8.37003 0
M  V30 22659 H 3092.28 -3.73517 9.52265 0
M  V30 22660 H 3090.65 -3.97122 8.80267 0
M  V30 22661 H 3089.57 -0.538464 5.72373 0
M  V30 22662 H 3091.33 -2.11927 6.29377 0
M  V30 22663 H 3093.39 -4.98352 4.09633 0
M  V30 22664 P 3095.15 -5.75688 6.64379 0
M  V30 22665 O 3096.57 -6.11849 7.01846 0
M  V30 22666 O 3094.79 -4.30744 6.56026 0
M  V30 22667 O 3094.82 -6.37042 5.19165 0
M  V30 22668 C 3094.66 -7.83578 5.16515 0
M  V30 22669 C 3095.2 -8.33398 3.83019 0
M  V30 22670 O 3094.15 -8.10074 3.01034 0
M  V30 22671 C 3096.42 -7.65514 3.2257 0
M  V30 22672 O 3097.16 -8.4329 2.32297 0
M  V30 22673 C 3095.75 -6.40075 2.62207 0
M  V30 22674 O 3096.55 -5.92589 1.53712 0
M  V30 22675 C 3094.42 -6.9454 2.18503 0
M  V30 22676 H 3094.45 -7.23063 1.12091 0
M  V30 22677 H 3095.63 -5.6025 3.37201 0
M  V30 22678 H 3097.12 -7.35707 4.02681 0
M  V30 22679 H 3095.42 -9.40912 3.9095 0
M  V30 22680 H 3095.23 -8.29056 5.99158 0
M  V30 22681 H 3093.6 -8.10073 5.25882 0
M  V30 22682 H 3096.24 -6.30324 0.726794 0
M  V30 22683 P 3098.1 -8.4349 2.47671 0
M  V30 22684 O 3099.52 -8.94167 2.5964 0
M  V30 22685 O 3097.74 -7.1704 3.19006 0
M  V30 22686 O 3097.78 -8.16596 0.923387 0
M  V30 22687 C 3097.62 -9.38437 0.108857 0
M  V30 22688 C 3098.16 -9.08175 -1.28353 0
M  V30 22689 O 3097.1 -8.44229 -1.84713 0
M  V30 22690 C 3099.37 -8.18386 -1.42505 0
M  V30 22691 O 3100.11 -8.3501 -2.60497 0
M  V30 22692 C 3098.7 -6.80225 -1.25468 0
M  V30 22693 O 3099.5 -5.81621 -1.91066 0
M  V30 22694 C 3097.37 -7.02416 -1.9168 0
M  V30 22695 H 3097.4 -6.6888 -2.96621 0
M  V30 22696 H 3098.58 -6.53617 -0.192223 0
M  V30 22697 H 3100.07 -8.36622 -0.589963 0
M  V30 22698 H 3098.37 -10.0291 -1.79807 0
M  V30 22699 H 3098.18 -10.2138 0.558219 0
M  V30 22700 H 3096.55 -9.6579 0.0444202 0
M  V30 22701 H 3099.19 -5.69556 -2.79637 0
M  V30 22702 P 3101.05 -8.4349 -2.47671 0
M  V30 22703 O 3102.47 -8.92785 -2.65057 0
M  V30 22704 O 3100.69 -7.7568 -1.19296 0
M  V30 22705 O 3100.73 -7.36886 -3.63805 0
M  V30 22706 C 3100.57 -7.95349 -4.982 0
M  V30 22707 C 3101.11 -6.94537 -5.98908 0
M  V30 22708 O 3100.05 -6.10347 -6.11815 0
M  V30 22709 C 3102.32 -6.11426 -5.62335 0
M  V30 22710 O 3103.06 -5.6162 -6.70584 0
M  V30 22711 C 3101.66 -5.04409 -4.73308 0
M  V30 22712 O 3102.45 -3.85929 -4.75106 0
M  V30 22713 C 3100.32 -4.8728 -5.41006 0
M  V30 22714 N 3099.28 -4.65812 -4.42377 0
M  V30 22715 C 3099.34 -5.27109 -3.24335 0
M  V30 22716 N 3098.29 -4.94293 -2.47735 0
M  V30 22717 C 3097.56 -4.1271 -3.23359 0
M  V30 22718 C 3096.25 -3.56384 -2.99934 0
M  V30 22719 O 3095.52 -3.69331 -2.00616 0
M  V30 22720 N 3095.82 -2.80206 -4.03316 0
M  V30 22721 C 3096.57 -2.58614 -5.2172 0
M  V30 22722 N 3095.97 -1.75154 -6.13278 0
M  V30 22723 N 3097.72 -3.13689 -5.47619 0
M  V30 22724 C 3098.18 -3.90921 -4.46436 0
M  V30 22725 H 3100.35 -4.02333 -6.11157 0
M  V30 22726 H 3101.53 -5.39383 -3.69487 0
M  V30 22727 H 3103.02 -6.71414 -5.02615 0
M  V30 22728 H 3101.32 -7.4649 -6.93477 0
M  V30 22729 H 3101.13 -8.89416 -5.05237 0
M  V30 22730 H 3099.5 -8.14876 -5.18409 0
M  V30 22731 H 3094.93 -2.36355 -3.95916 0
M  V30 22732 H 3100.13 -5.95212 -2.93859 0
M  V30 22733 H 3095.06 -1.32473 -5.91856 0
M  V30 22734 H 3096.44 -1.5588 -7.03026 0
M  V30 22735 H 3102.14 -3.27906 -5.43085 0
M  V30 22736 P 3104 -5.75688 -6.64379 0
M  V30 22737 O 3105.42 -6.07627 -7.05504 0
M  V30 22738 O 3103.64 -5.88047 -5.19722 0
M  V30 22739 O 3103.68 -4.2322 -7.04443 0
M  V30 22740 C 3103.52 -3.99743 -8.4911 0
M  V30 22741 C 3104.06 -2.60516 -8.79425 0
M  V30 22742 O 3103 -1.82684 -8.4467 0
M  V30 22743 C 3105.27 -2.10343 -8.03628 0
M  V30 22744 O 3106.01 -1.09919 -8.67766 0
M  V30 22745 C 3104.61 -1.68446 -6.70876 0
M  V30 22746 O 3105.4 -0.678137 -6.08433 0
M  V30 22747 C 3103.27 -1.17436 -7.18567 0
M  V30 22748 H 3103.3 -0.0804732 -7.31656 0
M  V30 22749 H 3104.48 -2.54037 -6.02537 0
M  V30 22750 H 3105.97 -2.93881 -7.85526 0
M  V30 22751 H 3104.27 -2.53065 -9.86973 0
M  V30 22752 H 3104.08 -4.75072 -9.05887 0
M  V30 22753 H 3102.45 -4.05244 -8.76668 0
M  V30 22754 H 3105.09 0.177647 -6.34251 0
M  V30 22755 P 3106.95 -1.25109 -8.70152 0
M  V30 22756 O 3108.37 -1.29758 -9.22115 0
M  V30 22757 O 3106.59 -2.13714 -7.55141 0
M  V30 22758 O 3106.63 0.248149 -8.21425 0
M  V30 22759 C 3106.47 1.22792 -9.30533 0
M  V30 22760 C 3107.01 2.56293 -8.80664 0
M  V30 22761 O 3105.95 3.02944 -8.09255 0
M  V30 22762 C 3108.23 2.57523 -7.89775 0
M  V30 22763 O 3108.96 3.7668 -7.89438 0
M  V30 22764 C 3107.56 2.20997 -6.55446 0
M  V30 22765 O 3108.36 2.71302 -5.48691 0
M  V30 22766 C 3106.22 2.89693 -6.67988 0
M  V30 22767 N 3105.18 2.08895 -6.07487 0
M  V30 22768 C 3105.35 0.753809 -5.94137 0
M  V30 22769 N 3104.32 0.146592 -5.38801 0
M  V30 22770 C 3103.43 1.1768 -5.13693 0
M  V30 22771 C 3102.17 1.17563 -4.52477 0
M  V30 22772 N 3101.6 2.41918 -4.45789 0
M  V30 22773 C 3102.2 3.56493 -4.90792 0
M  V30 22774 N 3103.38 3.61423 -5.47817 0
M  V30 22775 C 3103.96 2.37779 -5.5588 0
M  V30 22776 H 3107.43 1.12673 -6.44018 0
M  V30 22777 H 3108.92 1.7746 -8.19711 0
M  V30 22778 H 3107.22 3.21673 -9.66791 0
M  V30 22779 H 3107.03 0.901032 -10.1892 0
M  V30 22780 H 3105.4 1.33049 -9.56592 0
M  V30 22781 H 3106.25 0.233081 -6.26266 0
M  V30 22782 H 3108.04 3.5779 -5.23879 0
M  V30 22783 P 3109.9 3.65191 -7.99657 0
M  V30 22784 O 3111.32 3.89332 -8.45794 0
M  V30 22785 O 3109.54 2.28472 -7.50807 0
M  V30 22786 O 3109.58 4.64972 -6.77611 0
M  V30 22787 C 3109.42 6.06319 -7.16352 0
M  V30 22788 C 3109.96 6.91731 -6.02299 0
M  V30 22789 O 3108.9 6.92449 -5.17064 0
M  V30 22790 C 3111.18 6.43627 -5.25174 0
M  V30 22791 O 3111.91 7.43686 -4.60469 0
M  V30 22792 C 3110.51 5.40275 -4.31916 0
M  V30 22793 O 3111.31 5.25279 -3.14438 0
M  V30 22794 C 3109.17 6.04847 -4.05327 0
M  V30 22795 H 3109.2 6.62195 -3.11261 0
M  V30 22796 H 3110.38 4.42556 -4.81383 0
M  V30 22797 H 3111.87 5.92458 -5.93643 0
M  V30 22798 H 3110.17 7.92655 -6.402 0
M  V30 22799 H 3109.98 6.26671 -8.0846 0
M  V30 22800 H 3108.35 6.29101 -7.32804 0
M  V30 22801 H 3110.99 5.84315 -2.47318 0
M  V30 22802 P 3112.85 7.39546 -4.75277 0
M  V30 22803 O 3114.27 7.84798 -5.01039 0
M  V30 22804 O 3112.49 5.9812 -5.08098 0
M  V30 22805 O 3112.53 7.57503 -3.1866 0
M  V30 22806 C 3112.37 8.97357 -2.74833 0
M  V30 22807 C 3112.91 9.07548 -1.32709 0
M  V30 22808 O 3111.85 8.62072 -0.606159 0
M  V30 22809 C 3114.13 8.25383 -0.938334 0
M  V30 22810 O 3114.86 8.74577 0.146954 0
M  V30 22811 C 3113.46 6.8802 -0.712559 0
M  V30 22812 O 3114.26 6.1189 0.194655 0
M  V30 22813 C 3112.12 7.27966 -0.139777 0
M  V30 22814 H 3112.15 7.25354 0.961601 0
M  V30 22815 H 3113.34 6.32557 -1.65702 0
M  V30 22816 H 3114.82 8.19355 -1.79097 0
M  V30 22817 H 3113.13 10.1294 -1.10029 0
M  V30 22818 H 3112.94 9.64276 -3.41316 0
M  V30 22819 H 3111.31 9.25417 -2.76357 0
M  V30 22820 H 3113.94 6.25267 1.07847 0
M  V30 22821 P 3115.8 8.791 -5.21766e-11 0
M  V30 22822 O 3117.22 9.31096 0.027933 0
M  V30 22823 O 3115.44 7.77869 -1.04071 0
M  V30 22824 O 3115.48 8.09533 1.41463 0
M  V30 22825 C 3115.32 9.0349 2.53943 0
M  V30 22826 C 3115.86 8.35226 3.79016 0
M  V30 22827 O 3114.8 7.57992 4.15078 0
M  V30 22828 C 3117.08 7.45087 3.67298 0
M  V30 22829 O 3117.81 7.27796 4.85194 0
M  V30 22830 C 3116.41 6.17323 3.12027 0
M  V30 22831 O 3117.21 5.04231 3.47188 0
M  V30 22832 C 3115.07 6.19961 3.81809 0
M  V30 22833 H 3115.1 5.58218 4.73051 0
M  V30 22834 H 3116.29 6.21726 2.02589 0
M  V30 22835 H 3117.77 7.86112 2.9231 0
M  V30 22836 H 3116.08 9.11627 4.55076 0
M  V30 22837 H 3115.89 9.9573 2.34194 0
M  V30 22838 H 3114.26 9.2792 2.67832 0
M  V30 22839 H 3116.89 4.67702 4.28772 0
M  V30 22840 P 3118.75 7.39546 4.75277 0
M  V30 22841 O 3120.17 7.81861 5.05793 0
M  V30 22842 O 3118.39 7.1065 3.32998 0
M  V30 22843 O 3118.43 6.04542 5.56673 0
M  V30 22844 C 3118.27 6.22839 7.02169 0
M  V30 22845 C 3118.81 4.97725 7.70406 0
M  V30 22846 O 3117.75 4.13208 7.58899 0
M  V30 22847 C 3120.03 4.28231 7.11815 0
M  V30 22848 O 3120.77 3.49945 8.01648 0
M  V30 22849 C 3119.36 3.5063 5.96244 0
M  V30 22850 O 3120.16 2.37008 5.64352 0
M  V30 22851 C 3118.02 3.15122 6.56374 0
M  V30 22852 N 3116.98 3.22311 5.55692 0
M  V30 22853 C 3117.15 3.99655 4.46046 0
M  V30 22854 N 3116.12 3.97599 3.63918 0
M  V30 22855 C 3115.24 3.11159 4.25334 0
M  V30 22856 C 3113.97 2.64972 3.85157 0
M  V30 22857 N 3113.37 3.02132 2.69405 0
M  V30 22858 N 3113.4 1.78482 4.74759 0
M  V30 22859 C 3114.01 1.37463 5.90819 0
M  V30 22860 N 3115.18 1.7733 6.31889 0
M  V30 22861 C 3115.76 2.64393 5.43725 0
M  V30 22862 H 3118.05 2.13823 6.99656 0
M  V30 22863 H 3119.24 4.12931 5.06895 0
M  V30 22864 H 3120.72 5.03285 6.70911 0
M  V30 22865 H 3119.03 5.20001 8.76217 0
M  V30 22866 H 3118.84 7.11046 7.35349 0
M  V30 22867 H 3117.21 6.35815 7.26986 0
M  V30 22868 H 3113.47 0.66574 6.53015 0
M  V30 22869 H 3118.05 4.58037 4.27732 0
M  V30 22870 H 3112.44 2.64828 2.45331 0
M  V30 22871 H 3113.84 3.67472 2.05644 0
M  V30 22872 H 3119.85 1.61619 6.13468 0
M  V30 22873 P 3121.7 3.65191 7.99657 0
M  V30 22874 O 3123.13 3.8425 8.48115 0
M  V30 22875 O 3121.34 4.17805 6.64342 0
M  V30 22876 O 3121.38 2.07613 7.95143 0
M  V30 22877 C 3121.22 1.44328 9.27336 0
M  V30 22878 C 3121.76 0.0220036 9.17197 0
M  V30 22879 O 3120.7 -0.626867 8.61923 0
M  V30 22880 C 3122.98 -0.24586 8.30336 0
M  V30 22881 O 3123.72 -1.39011 8.63583 0
M  V30 22882 C 3122.31 -0.273849 6.91158 0
M  V30 22883 O 3123.11 -1.06348 6.02892 0
M  V30 22884 C 3120.97 -0.897649 7.22545 0
M  V30 22885 H 3121 -1.9841 7.04286 0
M  V30 22886 H 3122.19 0.739928 6.497 0
M  V30 22887 H 3123.67 0.60668 8.36503 0
M  V30 22888 H 3121.98 -0.352479 10.1829 0
M  V30 22889 H 3121.79 2.00611 10.0304 0
M  V30 22890 H 3120.16 1.41843 9.55327 0
M  V30 22891 H 3122.8 -1.95734 6.03555 0
M  V30 22892 P 3124.65 -1.25109 8.70152 0
M  V30 22893 O 3126.08 -1.35274 9.21221 0
M  V30 22894 O 3124.29 -0.0769065 7.84762 0
M  V30 22895 O 3124.33 -2.55232 7.81161 0
M  V30 22896 C 3124.17 -3.79939 8.58154 0
M  V30 22897 C 3124.71 -4.94023 7.72785 0
M  V30 22898 O 3123.65 -5.18726 6.91205 0
M  V30 22899 C 3125.93 -4.69597 6.85231 0
M  V30 22900 O 3126.67 -5.83832 6.51337 0
M  V30 22901 C 3125.26 -3.96706 5.66633 0
M  V30 22902 O 3126.06 -4.15414 4.49689 0
M  V30 22903 C 3123.92 -4.66153 5.59313 0
M  V30 22904 H 3123.95 -5.47679 4.85214 0
M  V30 22905 H 3125.14 -2.89008 5.86566 0
M  V30 22906 H 3126.62 -4.0121 7.36511 0
M  V30 22907 H 3124.93 -5.80182 8.37584 0
M  V30 22908 H 3124.74 -3.73517 9.52265 0
M  V30 22909 H 3123.11 -3.97163 8.80359 0
M  V30 22910 H 3125.75 -4.90969 4.01921 0
M  V30 22911 P 3127.6 -5.75688 6.64379 0
M  V30 22912 O 3129.03 -6.11849 7.01846 0
M  V30 22913 O 3127.24 -4.30744 6.56026 0
M  V30 22914 O 3127.28 -6.37042 5.19165 0
M  V30 22915 C 3127.12 -7.83578 5.16515 0
M  V30 22916 C 3127.66 -8.33398 3.83019 0
M  V30 22917 O 3126.61 -8.10074 3.01034 0
M  V30 22918 C 3128.88 -7.65514 3.2257 0
M  V30 22919 O 3129.62 -8.4329 2.32297 0
M  V30 22920 C 3128.21 -6.40075 2.62207 0
M  V30 22921 O 3129.01 -5.92589 1.53712 0
M  V30 22922 C 3126.87 -6.9454 2.18503 0
M  V30 22923 H 3126.91 -7.23063 1.12091 0
M  V30 22924 H 3128.09 -5.6025 3.37201 0
M  V30 22925 H 3129.57 -7.35707 4.02681 0
M  V30 22926 H 3127.88 -9.40912 3.9095 0
M  V30 22927 H 3127.69 -8.29056 5.99158 0
M  V30 22928 H 3126.06 -8.10073 5.25882 0
M  V30 22929 H 3128.7 -6.30324 0.726794 0
M  V30 22930 P 3130.55 -8.4349 2.47671 0
M  V30 22931 O 3131.98 -8.94167 2.5964 0
M  V30 22932 O 3130.19 -7.1704 3.19006 0
M  V30 22933 O 3130.23 -8.16596 0.923387 0
M  V30 22934 C 3130.07 -9.38437 0.108857 0
M  V30 22935 C 3130.61 -9.08175 -1.28353 0
M  V30 22936 O 3129.56 -8.44229 -1.84713 0
M  V30 22937 C 3131.83 -8.18386 -1.42505 0
M  V30 22938 O 3132.57 -8.3501 -2.60497 0
M  V30 22939 C 3131.16 -6.80225 -1.25468 0
M  V30 22940 O 3131.96 -5.81621 -1.91066 0
M  V30 22941 C 3129.82 -7.02416 -1.9168 0
M  V30 22942 H 3129.86 -6.6888 -2.96621 0
M  V30 22943 H 3131.04 -6.53617 -0.192223 0
M  V30 22944 H 3132.52 -8.36622 -0.589963 0
M  V30 22945 H 3130.83 -10.0291 -1.79807 0
M  V30 22946 H 3130.64 -10.2138 0.558219 0
M  V30 22947 H 3129.01 -9.6579 0.0444202 0
M  V30 22948 H 3131.65 -5.69556 -2.79637 0
M  V30 22949 P 3133.51 -8.4349 -2.47671 0
M  V30 22950 O 3134.93 -8.92593 -2.65 0
M  V30 22951 O 3133.15 -7.7568 -1.19296 0
M  V30 22952 O 3133.18 -7.36886 -3.63805 0
M  V30 22953 C 3133.02 -7.95349 -4.982 0
M  V30 22954 C 3133.56 -6.94612 -5.98974 0
M  V30 22955 O 3132.51 -6.10347 -6.11815 0
M  V30 22956 C 3134.78 -6.11426 -5.62335 0
M  V30 22957 O 3135.52 -5.6162 -6.70584 0
M  V30 22958 C 3134.11 -5.04409 -4.73308 0
M  V30 22959 O 3134.91 -3.85992 -4.75183 0
M  V30 22960 C 3132.77 -4.8728 -5.41006 0
M  V30 22961 H 3132.81 -4.02333 -6.11157 0
M  V30 22962 H 3133.99 -5.39466 -3.69543 0
M  V30 22963 H 3135.47 -6.71916 -5.01943 0
M  V30 22964 H 3133.78 -7.4649 -6.93477 0
M  V30 22965 H 3133.59 -8.89416 -5.05237 0
M  V30 22966 H 3131.96 -8.14876 -5.18409 0
M  V30 22967 H 3134.6 -3.27957 -5.4317 0
M  V30 22968 P 3136.46 -5.75688 -6.64379 0
M  V30 22969 O 3137.88 -6.07627 -7.05504 0
M  V30 22970 O 3136.1 -5.88047 -5.19722 0
M  V30 22971 O 3136.13 -4.2322 -7.04443 0
M  V30 22972 C 3135.97 -3.99743 -8.4911 0
M  V30 22973 C 3136.51 -2.60516 -8.79425 0
M  V30 22974 O 3135.46 -1.82684 -8.4467 0
M  V30 22975 C 3137.73 -2.10343 -8.03628 0
M  V30 22976 O 3138.47 -1.09919 -8.67766 0
M  V30 22977 C 3137.06 -1.68446 -6.70876 0
M  V30 22978 O 3137.86 -0.678137 -6.08433 0
M  V30 22979 C 3135.72 -1.17436 -7.18567 0
M  V30 22980 H 3135.76 -0.0804732 -7.31656 0
M  V30 22981 H 3136.94 -2.54037 -6.02537 0
M  V30 22982 H 3138.42 -2.93881 -7.85526 0
M  V30 22983 H 3136.73 -2.53065 -9.86973 0
M  V30 22984 H 3136.54 -4.75072 -9.05887 0
M  V30 22985 H 3134.91 -4.05244 -8.76668 0
M  V30 22986 H 3137.55 0.177647 -6.34251 0
M  V30 22987 P 3139.41 -1.25109 -8.70152 0
M  V30 22988 O 3140.83 -1.29744 -9.22016 0
M  V30 22989 O 3139.05 -2.13714 -7.55141 0
M  V30 22990 O 3139.08 0.248149 -8.21425 0
M  V30 22991 C 3138.92 1.22779 -9.30434 0
M  V30 22992 C 3139.46 2.56293 -8.80664 0
M  V30 22993 O 3138.41 3.02979 -8.09349 0
M  V30 22994 C 3140.68 2.57523 -7.89775 0
M  V30 22995 O 3141.42 3.7668 -7.89438 0
M  V30 22996 C 3140.01 2.20997 -6.55446 0
M  V30 22997 O 3140.81 2.71895 -5.48509 0
M  V30 22998 C 3138.68 2.89693 -6.67988 0
M  V30 22999 H 3138.71 3.88793 -6.19859 0
M  V30 23000 H 3139.89 1.12046 -6.44229 0
M  V30 23001 H 3141.37 1.7746 -8.19711 0
M  V30 23002 H 3139.68 3.20706 -9.67112 0
M  V30 23003 H 3139.49 0.901032 -10.1892 0
M  V30 23004 H 3137.86 1.33049 -9.56592 0
M  V30 23005 H 3140.5 3.57847 -5.23962 0
M  V30 23006 P 3142.36 3.65191 -7.99657 0
M  V30 23007 O 3143.78 3.89332 -8.45794 0
M  V30 23008 O 3142 2.28472 -7.50807 0
M  V30 23009 O 3142.03 4.64972 -6.77611 0
M  V30 23010 C 3141.87 6.06319 -7.16352 0
M  V30 23011 C 3142.41 6.91731 -6.02299 0
M  V30 23012 O 3141.36 6.92449 -5.17064 0
M  V30 23013 C 3143.63 6.43627 -5.25174 0
M  V30 23014 O 3144.37 7.43686 -4.60469 0
M  V30 23015 C 3142.96 5.40275 -4.31916 0
M  V30 23016 O 3143.76 5.25279 -3.14438 0
M  V30 23017 C 3141.63 6.04847 -4.05327 0
M  V30 23018 H 3141.66 6.62195 -3.11261 0
M  V30 23019 H 3142.84 4.42556 -4.81383 0
M  V30 23020 H 3144.33 5.92458 -5.93643 0
M  V30 23021 H 3142.63 7.92655 -6.402 0
M  V30 23022 H 3142.44 6.26671 -8.0846 0
M  V30 23023 H 3140.81 6.29101 -7.32804 0
M  V30 23024 H 3143.45 5.84315 -2.47318 0
M  V30 23025 P 3145.31 7.39546 -4.75277 0
M  V30 23026 O 3146.73 7.84798 -5.01039 0
M  V30 23027 O 3144.95 5.9812 -5.08098 0
M  V30 23028 O 3144.98 7.57503 -3.1866 0
M  V30 23029 C 3144.82 8.97357 -2.74833 0
M  V30 23030 C 3145.36 9.07548 -1.32709 0
M  V30 23031 O 3144.31 8.62072 -0.606159 0
M  V30 23032 C 3146.58 8.25383 -0.938334 0
M  V30 23033 O 3147.32 8.74577 0.146954 0
M  V30 23034 C 3145.91 6.8802 -0.712559 0
M  V30 23035 O 3146.71 6.1189 0.194655 0
M  V30 23036 C 3144.58 7.27966 -0.139777 0
M  V30 23037 H 3144.61 7.25354 0.961601 0
M  V30 23038 H 3145.79 6.32557 -1.65702 0
M  V30 23039 H 3147.28 8.19355 -1.79097 0
M  V30 23040 H 3145.58 10.1294 -1.10029 0
M  V30 23041 H 3145.39 9.64276 -3.41316 0
M  V30 23042 H 3143.76 9.25417 -2.76357 0
M  V30 23043 H 3146.4 6.25267 1.07847 0
M  V30 23044 P 3148.26 8.791 -5.73632e-11 0
M  V30 23045 O 3149.68 9.31096 0.027933 0
M  V30 23046 O 3147.9 7.77869 -1.04071 0
M  V30 23047 O 3147.94 8.09533 1.41463 0
M  V30 23048 C 3147.78 9.0349 2.53943 0
M  V30 23049 C 3148.32 8.35226 3.79016 0
M  V30 23050 O 3147.26 7.57992 4.15078 0
M  V30 23051 C 3149.53 7.45087 3.67298 0
M  V30 23052 O 3150.27 7.27796 4.85194 0
M  V30 23053 C 3148.86 6.17323 3.12027 0
M  V30 23054 O 3149.66 5.04231 3.47188 0
M  V30 23055 C 3147.53 6.19961 3.81809 0
M  V30 23056 H 3147.56 5.58218 4.73051 0
M  V30 23057 H 3148.74 6.21726 2.02589 0
M  V30 23058 H 3150.23 7.86112 2.9231 0
M  V30 23059 H 3148.53 9.11627 4.55076 0
M  V30 23060 H 3148.34 9.9573 2.34194 0
M  V30 23061 H 3146.71 9.2792 2.67832 0
M  V30 23062 H 3149.35 4.67702 4.28772 0
M  V30 23063 P 3151.21 7.39546 4.75277 0
M  V30 23064 O 3152.63 7.81777 5.05738 0
M  V30 23065 O 3150.85 7.1065 3.32998 0
M  V30 23066 O 3150.89 6.04542 5.56673 0
M  V30 23067 C 3150.73 6.22772 7.02095 0
M  V30 23068 C 3151.27 4.97725 7.70406 0
M  V30 23069 O 3150.21 4.13256 7.58987 0
M  V30 23070 C 3152.48 4.28231 7.11815 0
M  V30 23071 O 3153.22 3.49945 8.01648 0
M  V30 23072 C 3151.81 3.5063 5.96244 0
M  V30 23073 O 3152.61 2.36482 5.64681 0
M  V30 23074 C 3150.48 3.15122 6.56374 0
M  V30 23075 H 3150.51 2.13853 6.99751 0
M  V30 23076 H 3151.69 4.13501 5.06559 0
M  V30 23077 H 3153.18 5.03285 6.70911 0
M  V30 23078 H 3151.48 5.20877 8.75697 0
M  V30 23079 H 3151.29 7.11046 7.35349 0
M  V30 23080 H 3149.66 6.35815 7.26986 0
M  V30 23081 H 3152.3 1.61644 6.13565 0
M  V30 23082 P 3154.16 3.65191 7.99657 0
M  V30 23083 O 3155.58 3.8425 8.48115 0
M  V30 23084 O 3153.8 4.17805 6.64342 0
M  V30 23085 O 3153.84 2.07613 7.95143 0
M  V30 23086 C 3153.68 1.44328 9.27336 0
M  V30 23087 C 3154.22 0.0220036 9.17197 0
M  V30 23088 O 3153.16 -0.626867 8.61923 0
M  V30 23089 C 3155.43 -0.24586 8.30336 0
M  V30 23090 O 3156.17 -1.39011 8.63583 0
M  V30 23091 C 3154.77 -0.273849 6.91158 0
M  V30 23092 O 3155.56 -1.06348 6.02892 0
M  V30 23093 C 3153.43 -0.897649 7.22545 0
M  V30 23094 H 3153.46 -1.9841 7.04286 0
M  V30 23095 H 3154.64 0.739928 6.497 0
M  V30 23096 H 3156.13 0.60668 8.36503 0
M  V30 23097 H 3154.43 -0.352479 10.1829 0
M  V30 23098 H 3154.24 2.00611 10.0304 0
M  V30 23099 H 3152.61 1.41843 9.55327 0
M  V30 23100 H 3155.25 -1.95734 6.03555 0
M  V30 23101 P 3157.11 -1.25109 8.70152 0
M  V30 23102 O 3158.53 -1.35274 9.21221 0
M  V30 23103 O 3156.75 -0.0769065 7.84762 0
M  V30 23104 O 3156.79 -2.55232 7.81161 0
M  V30 23105 C 3156.63 -3.79939 8.58154 0
M  V30 23106 C 3157.17 -4.94023 7.72785 0
M  V30 23107 O 3156.11 -5.18726 6.91205 0
M  V30 23108 C 3158.38 -4.69597 6.85231 0
M  V30 23109 O 3159.12 -5.83832 6.51337 0
M  V30 23110 C 3157.72 -3.96706 5.66633 0
M  V30 23111 O 3158.51 -4.15414 4.49689 0
M  V30 23112 C 3156.38 -4.66153 5.59313 0
M  V30 23113 H 3156.41 -5.47679 4.85214 0
M  V30 23114 H 3157.59 -2.89008 5.86566 0
M  V30 23115 H 3159.08 -4.0121 7.36511 0
M  V30 23116 H 3157.38 -5.80182 8.37584 0
M  V30 23117 H 3157.19 -3.73517 9.52265 0
M  V30 23118 H 3155.56 -3.97163 8.80359 0
M  V30 23119 H 3158.2 -4.90969 4.01921 0
M  V30 23120 P 3160.06 -5.75688 6.64379 0
M  V30 23121 O 3161.48 -6.11849 7.01846 0
M  V30 23122 O 3159.7 -4.30744 6.56026 0
M  V30 23123 O 3159.74 -6.37042 5.19165 0
M  V30 23124 C 3159.58 -7.83578 5.16515 0
M  V30 23125 C 3160.12 -8.33398 3.83019 0
M  V30 23126 O 3159.06 -8.10074 3.01034 0
M  V30 23127 C 3161.34 -7.65514 3.2257 0
M  V30 23128 O 3162.07 -8.4329 2.32297 0
M  V30 23129 C 3160.67 -6.40075 2.62207 0
M  V30 23130 O 3161.47 -5.92589 1.53712 0
M  V30 23131 C 3159.33 -6.9454 2.18503 0
M  V30 23132 H 3159.36 -7.23063 1.12091 0
M  V30 23133 H 3160.54 -5.6025 3.37201 0
M  V30 23134 H 3162.03 -7.35707 4.02681 0
M  V30 23135 H 3160.33 -9.40912 3.9095 0
M  V30 23136 H 3160.14 -8.29056 5.99158 0
M  V30 23137 H 3158.51 -8.10073 5.25882 0
M  V30 23138 H 3161.15 -6.30324 0.726794 0
M  V30 23139 P 3163.01 -8.4349 2.47671 0
M  V30 23140 O 3164.43 -8.94263 2.59668 0
M  V30 23141 O 3162.65 -7.1704 3.19006 0
M  V30 23142 O 3162.69 -8.16596 0.923387 0
M  V30 23143 C 3162.53 -9.38537 0.108869 0
M  V30 23144 C 3163.07 -9.08175 -1.28353 0
M  V30 23145 O 3162.01 -8.44131 -1.84692 0
M  V30 23146 C 3164.29 -8.18386 -1.42505 0
M  V30 23147 O 3165.02 -8.3501 -2.60497 0
M  V30 23148 C 3163.62 -6.80225 -1.25468 0
M  V30 23149 O 3164.42 -5.81716 -1.90454 0
M  V30 23150 C 3162.28 -7.02416 -1.9168 0
M  V30 23151 N 3161.24 -6.31033 -1.20314 0
M  V30 23152 C 3161.41 -5.98817 0.0994088 0
M  V30 23153 N 3160.38 -5.35403 0.621694 0
M  V30 23154 C 3159.49 -5.25212 -0.43376 0
M  V30 23155 C 3158.23 -4.64602 -0.519722 0
M  V30 23156 N 3157.66 -4.7568 -1.76013 0
M  V30 23157 C 3158.26 -5.3653 -2.83017 0
M  V30 23158 N 3159.44 -5.93676 -2.79782 0
M  V30 23159 C 3160.02 -5.84061 -1.56249 0
M  V30 23160 H 3163.5 -6.53498 -0.198729 0
M  V30 23161 H 3164.98 -8.36622 -0.589963 0
M  V30 23162 H 3163.28 -10.0273 -1.8081 0
M  V30 23163 H 3163.09 -10.2138 0.558219 0
M  V30 23164 H 3161.46 -9.6579 0.0444202 0
M  V30 23165 H 3162.31 -6.23209 0.660562 0
M  V30 23166 H 3164.1 -5.69466 -2.79593 0
M  V30 23167 P 3165.96 -8.4349 -2.47671 0
M  V30 23168 O 3167.38 -8.92593 -2.65 0
M  V30 23169 O 3165.6 -7.7568 -1.19296 0
M  V30 23170 O 3165.64 -7.36886 -3.63805 0
M  V30 23171 C 3165.48 -7.95349 -4.982 0
M  V30 23172 C 3166.02 -6.94612 -5.98974 0
M  V30 23173 O 3164.96 -6.10347 -6.11815 0
M  V30 23174 C 3167.24 -6.11426 -5.62335 0
M  V30 23175 O 3167.97 -5.6162 -6.70584 0
M  V30 23176 C 3166.57 -5.04409 -4.73308 0
M  V30 23177 O 3167.37 -3.85992 -4.75183 0
M  V30 23178 C 3165.23 -4.8728 -5.41006 0
M  V30 23179 H 3165.26 -4.02333 -6.11157 0
M  V30 23180 H 3166.45 -5.39466 -3.69543 0
M  V30 23181 H 3167.93 -6.71916 -5.01943 0
M  V30 23182 H 3166.24 -7.4649 -6.93477 0
M  V30 23183 H 3166.05 -8.89416 -5.05237 0
M  V30 23184 H 3164.42 -8.14876 -5.18409 0
M  V30 23185 H 3167.05 -3.27957 -5.4317 0
M  V30 23186 P 3168.91 -5.75688 -6.64379 0
M  V30 23187 O 3170.33 -6.07692 -7.0558 0
M  V30 23188 O 3168.55 -5.88047 -5.19722 0
M  V30 23189 O 3168.59 -4.2322 -7.04443 0
M  V30 23190 C 3168.43 -3.99785 -8.49201 0
M  V30 23191 C 3168.97 -2.60516 -8.79425 0
M  V30 23192 O 3167.91 -1.82663 -8.44573 0
M  V30 23193 C 3170.19 -2.10343 -8.03628 0
M  V30 23194 O 3170.93 -1.09919 -8.67766 0
M  V30 23195 C 3169.52 -1.68446 -6.70876 0
M  V30 23196 O 3170.32 -0.684109 -6.08265 0
M  V30 23197 C 3168.18 -1.17436 -7.18567 0
M  V30 23198 N 3167.14 -1.52699 -6.23988 0
M  V30 23199 C 3167.31 -2.578 -5.40574 0
M  V30 23200 N 3166.28 -2.78966 -4.61193 0
M  V30 23201 C 3165.4 -1.78725 -4.95769 0
M  V30 23202 C 3164.13 -1.45727 -4.44207 0
M  V30 23203 N 3163.56 -0.374977 -5.05812 0
M  V30 23204 C 3164.17 0.345585 -6.05615 0
M  V30 23205 N 3165.34 0.0787651 -6.56253 0
M  V30 23206 C 3165.92 -1.00499 -5.96189 0
M  V30 23207 H 3169.4 -2.53396 -6.02698 0
M  V30 23208 H 3170.88 -2.93881 -7.85526 0
M  V30 23209 H 3169.19 -2.52078 -9.87225 0
M  V30 23210 H 3169 -4.75072 -9.05887 0
M  V30 23211 H 3167.37 -4.05244 -8.76668 0
M  V30 23212 H 3168.21 -3.18977 -5.3945 0
M  V30 23213 H 3170.01 0.177619 -6.34151 0
M  V30 23214 P 3171.86 -1.25109 -8.70152 0
M  V30 23215 O 3173.28 -1.29744 -9.22016 0
M  V30 23216 O 3171.5 -2.13714 -7.55141 0
M  V30 23217 O 3171.54 0.248149 -8.21425 0
M  V30 23218 C 3171.38 1.22779 -9.30434 0
M  V30 23219 C 3171.92 2.56293 -8.80664 0
M  V30 23220 O 3170.86 3.02979 -8.09349 0
M  V30 23221 C 3173.14 2.57523 -7.89775 0
M  V30 23222 O 3173.88 3.7668 -7.89438 0
M  V30 23223 C 3172.47 2.20997 -6.55446 0
M  V30 23224 O 3173.27 2.71895 -5.48509 0
M  V30 23225 C 3171.13 2.89693 -6.67988 0
M  V30 23226 H 3171.16 3.88793 -6.19859 0
M  V30 23227 H 3172.35 1.12046 -6.44229 0
M  V30 23228 H 3173.83 1.7746 -8.19711 0
M  V30 23229 H 3172.14 3.20706 -9.67112 0
M  V30 23230 H 3171.95 0.901032 -10.1892 0
M  V30 23231 H 3170.32 1.33049 -9.56592 0
M  V30 23232 H 3172.96 3.57847 -5.23962 0
M  V30 23233 P 3174.81 3.65191 -7.99657 0
M  V30 23234 O 3176.24 3.89332 -8.45794 0
M  V30 23235 O 3174.45 2.28472 -7.50807 0
M  V30 23236 O 3174.49 4.64972 -6.77611 0
M  V30 23237 C 3174.33 6.06319 -7.16352 0
M  V30 23238 C 3174.87 6.91731 -6.02299 0
M  V30 23239 O 3173.81 6.92449 -5.17064 0
M  V30 23240 C 3176.09 6.43627 -5.25174 0
M  V30 23241 O 3176.83 7.43686 -4.60469 0
M  V30 23242 C 3175.42 5.40275 -4.31916 0
M  V30 23243 O 3176.22 5.25279 -3.14438 0
M  V30 23244 C 3174.08 6.04847 -4.05327 0
M  V30 23245 H 3174.11 6.62195 -3.11261 0
M  V30 23246 H 3175.3 4.42556 -4.81383 0
M  V30 23247 H 3176.78 5.92458 -5.93643 0
M  V30 23248 H 3175.09 7.92655 -6.402 0
M  V30 23249 H 3174.9 6.26671 -8.0846 0
M  V30 23250 H 3173.27 6.29101 -7.32804 0
M  V30 23251 H 3175.91 5.84315 -2.47318 0
M  V30 23252 P 3177.76 7.39546 -4.75277 0
M  V30 23253 O 3179.19 7.84798 -5.01039 0
M  V30 23254 O 3177.4 5.9812 -5.08098 0
M  V30 23255 O 3177.44 7.57503 -3.1866 0
M  V30 23256 C 3177.28 8.97357 -2.74833 0
M  V30 23257 C 3177.82 9.07548 -1.32709 0
M  V30 23258 O 3176.76 8.62072 -0.606159 0
M  V30 23259 C 3179.04 8.25383 -0.938334 0
M  V30 23260 O 3179.78 8.74577 0.146954 0
M  V30 23261 C 3178.37 6.8802 -0.712559 0
M  V30 23262 O 3179.17 6.1189 0.194655 0
M  V30 23263 C 3177.03 7.27966 -0.139777 0
M  V30 23264 H 3177.06 7.25354 0.961601 0
M  V30 23265 H 3178.25 6.32557 -1.65702 0
M  V30 23266 H 3179.73 8.19355 -1.79097 0
M  V30 23267 H 3178.04 10.1294 -1.10029 0
M  V30 23268 H 3177.85 9.64276 -3.41316 0
M  V30 23269 H 3176.22 9.25417 -2.76357 0
M  V30 23270 H 3178.86 6.25267 1.07847 0
M  V30 23271 P 3180.71 8.791 -6.25499e-11 0
M  V30 23272 O 3182.14 9.31096 0.027933 0
M  V30 23273 O 3180.35 7.77869 -1.04071 0
M  V30 23274 O 3180.39 8.09533 1.41463 0
M  V30 23275 C 3180.23 9.0349 2.53943 0
M  V30 23276 C 3180.77 8.35226 3.79016 0
M  V30 23277 O 3179.72 7.57992 4.15078 0
M  V30 23278 C 3181.99 7.45087 3.67298 0
M  V30 23279 O 3182.73 7.27796 4.85194 0
M  V30 23280 C 3181.32 6.17323 3.12027 0
M  V30 23281 O 3182.12 5.04231 3.47188 0
M  V30 23282 C 3179.98 6.19961 3.81809 0
M  V30 23283 H 3180.02 5.58218 4.73051 0
M  V30 23284 H 3181.2 6.21726 2.02589 0
M  V30 23285 H 3182.68 7.86112 2.9231 0
M  V30 23286 H 3180.99 9.11627 4.55076 0
M  V30 23287 H 3180.8 9.9573 2.34194 0
M  V30 23288 H 3179.17 9.2792 2.67832 0
M  V30 23289 H 3181.81 4.67702 4.28772 0
M  V30 23290 P 3183.67 7.39546 4.75277 0
M  V30 23291 O 3185.09 7.81777 5.05738 0
M  V30 23292 O 3183.31 7.1065 3.32998 0
M  V30 23293 O 3183.34 6.04542 5.56673 0
M  V30 23294 C 3183.18 6.22772 7.02095 0
M  V30 23295 C 3183.72 4.97725 7.70406 0
M  V30 23296 O 3182.67 4.13256 7.58987 0
M  V30 23297 C 3184.94 4.28231 7.11815 0
M  V30 23298 O 3185.68 3.49945 8.01648 0
M  V30 23299 C 3184.27 3.5063 5.96244 0
M  V30 23300 O 3185.07 2.36482 5.64681 0
M  V30 23301 C 3182.93 3.15122 6.56374 0
M  V30 23302 H 3182.97 2.13853 6.99751 0
M  V30 23303 H 3184.15 4.13501 5.06559 0
M  V30 23304 H 3185.63 5.03285 6.70911 0
M  V30 23305 H 3183.94 5.20877 8.75697 0
M  V30 23306 H 3183.75 7.11046 7.35349 0
M  V30 23307 H 3182.12 6.35815 7.26986 0
M  V30 23308 H 3184.76 1.61644 6.13565 0
M  V30 23309 P 3186.62 3.65191 7.99657 0
M  V30 23310 O 3188.04 3.84292 8.48206 0
M  V30 23311 O 3186.26 4.17805 6.64342 0
M  V30 23312 O 3186.29 2.07613 7.95143 0
M  V30 23313 C 3186.13 1.44344 9.27435 0
M  V30 23314 C 3186.67 0.0220036 9.17197 0
M  V30 23315 O 3185.62 -0.626794 8.61824 0
M  V30 23316 C 3187.89 -0.24586 8.30336 0
M  V30 23317 O 3188.63 -1.39011 8.63583 0
M  V30 23318 C 3187.22 -0.273849 6.91158 0
M  V30 23319 O 3188.02 -1.05728 6.029 0
M  V30 23320 C 3185.88 -0.897649 7.22545 0
M  V30 23321 N 3184.84 -0.292839 6.41732 0
M  V30 23322 C 3185.01 0.950603 5.91308 0
M  V30 23323 N 3183.98 1.37732 5.21105 0
M  V30 23324 C 3183.1 0.318109 5.26039 0
M  V30 23325 C 3181.83 0.146766 4.6727 0
M  V30 23326 N 3181.27 -1.06525 4.95887 0
M  V30 23327 C 3181.87 -2.0378 5.71347 0
M  V30 23328 N 3183.05 -1.92445 6.27451 0
M  V30 23329 C 3183.62 -0.715382 6.00353 0
M  V30 23330 H 3187.1 0.733318 6.49674 0
M  V30 23331 H 3188.58 0.60668 8.36503 0
M  V30 23332 H 3186.89 -0.362662 10.1825 0
M  V30 23333 H 3186.7 2.00611 10.0304 0
M  V30 23334 H 3185.07 1.41843 9.55327 0
M  V30 23335 H 3185.91 1.54076 6.07465 0
M  V30 23336 H 3187.71 -1.95704 6.0346 0
M  V30 23337 P 3189.57 -1.25109 8.70152 0
M  V30 23338 O 3190.99 -1.35274 9.21221 0
M  V30 23339 O 3189.21 -0.0769065 7.84762 0
M  V30 23340 O 3189.24 -2.55232 7.81161 0
M  V30 23341 C 3189.08 -3.79939 8.58154 0
M  V30 23342 C 3189.62 -4.94023 7.72785 0
M  V30 23343 O 3188.57 -5.18726 6.91205 0
M  V30 23344 C 3190.84 -4.69597 6.85231 0
M  V30 23345 O 3191.58 -5.83832 6.51337 0
M  V30 23346 C 3190.17 -3.96706 5.66633 0
M  V30 23347 O 3190.97 -4.15414 4.49689 0
M  V30 23348 C 3188.84 -4.66153 5.59313 0
M  V30 23349 H 3188.87 -5.47679 4.85214 0
M  V30 23350 H 3190.05 -2.89008 5.86566 0
M  V30 23351 H 3191.53 -4.0121 7.36511 0
M  V30 23352 H 3189.84 -5.80182 8.37584 0
M  V30 23353 H 3189.65 -3.73517 9.52265 0
M  V30 23354 H 3188.02 -3.97163 8.80359 0
M  V30 23355 H 3190.66 -4.90969 4.01921 0
M  V30 23356 P 3192.52 -5.75688 6.64379 0
M  V30 23357 O 3193.94 -6.11849 7.01846 0
M  V30 23358 O 3192.16 -4.30744 6.56026 0
M  V30 23359 O 3192.19 -6.37042 5.19165 0
M  V30 23360 C 3192.03 -7.83578 5.16515 0
M  V30 23361 C 3192.57 -8.33398 3.83019 0
M  V30 23362 O 3191.52 -8.10074 3.01034 0
M  V30 23363 C 3193.79 -7.65514 3.2257 0
M  V30 23364 O 3194.53 -8.4329 2.32297 0
M  V30 23365 C 3193.12 -6.40075 2.62207 0
M  V30 23366 O 3193.92 -5.92589 1.53712 0
M  V30 23367 C 3191.79 -6.9454 2.18503 0
M  V30 23368 H 3191.82 -7.23063 1.12091 0
M  V30 23369 H 3193 -5.6025 3.37201 0
M  V30 23370 H 3194.48 -7.35707 4.02681 0
M  V30 23371 H 3192.79 -9.40912 3.9095 0
M  V30 23372 H 3192.6 -8.29056 5.99158 0
M  V30 23373 H 3190.97 -8.10073 5.25882 0
M  V30 23374 H 3193.61 -6.30324 0.726794 0
M  V30 23375 P 3195.47 -8.4349 2.47671 0
M  V30 23376 O 3196.89 -8.94167 2.5964 0
M  V30 23377 O 3195.11 -7.1704 3.19006 0
M  V30 23378 O 3195.14 -8.16596 0.923387 0
M  V30 23379 C 3194.98 -9.38437 0.108857 0
M  V30 23380 C 3195.52 -9.08175 -1.28353 0
M  V30 23381 O 3194.47 -8.44229 -1.84713 0
M  V30 23382 C 3196.74 -8.18386 -1.42505 0
M  V30 23383 O 3197.48 -8.3501 -2.60497 0
M  V30 23384 C 3196.07 -6.80225 -1.25468 0
M  V30 23385 O 3196.87 -5.81621 -1.91066 0
M  V30 23386 C 3194.74 -7.02416 -1.9168 0
M  V30 23387 H 3194.77 -6.6888 -2.96621 0
M  V30 23388 H 3195.95 -6.53617 -0.192223 0
M  V30 23389 H 3197.44 -8.36622 -0.589963 0
M  V30 23390 H 3195.74 -10.0291 -1.79807 0
M  V30 23391 H 3195.55 -10.2138 0.558219 0
M  V30 23392 H 3193.92 -9.6579 0.0444202 0
M  V30 23393 H 3196.56 -5.69556 -2.79637 0
M  V30 23394 P 3198.42 -8.4349 -2.47671 0
M  V30 23395 O 3199.84 -8.92593 -2.65 0
M  V30 23396 O 3198.06 -7.7568 -1.19296 0
M  V30 23397 O 3198.09 -7.36886 -3.63805 0
M  V30 23398 C 3197.93 -7.95349 -4.982 0
M  V30 23399 C 3198.47 -6.94612 -5.98974 0
M  V30 23400 O 3197.42 -6.10347 -6.11815 0
M  V30 23401 C 3199.69 -6.11426 -5.62335 0
M  V30 23402 O 3200.43 -5.6162 -6.70584 0
M  V30 23403 C 3199.02 -5.04409 -4.73308 0
M  V30 23404 O 3199.82 -3.85992 -4.75183 0
M  V30 23405 C 3197.69 -4.8728 -5.41006 0
M  V30 23406 H 3197.72 -4.02333 -6.11157 0
M  V30 23407 H 3198.9 -5.39466 -3.69543 0
M  V30 23408 H 3200.39 -6.71916 -5.01943 0
M  V30 23409 H 3198.69 -7.4649 -6.93477 0
M  V30 23410 H 3198.5 -8.89416 -5.05237 0
M  V30 23411 H 3196.87 -8.14876 -5.18409 0
M  V30 23412 H 3199.51 -3.27957 -5.4317 0
M  V30 23413 P 3201.37 -5.75688 -6.64379 0
M  V30 23414 O 3202.79 -6.07627 -7.05504 0
M  V30 23415 O 3201.01 -5.88047 -5.19722 0
M  V30 23416 O 3201.05 -4.2322 -7.04443 0
M  V30 23417 C 3200.89 -3.99743 -8.4911 0
M  V30 23418 C 3201.43 -2.60516 -8.79425 0
M  V30 23419 O 3200.37 -1.82684 -8.4467 0
M  V30 23420 C 3202.64 -2.10343 -8.03628 0
M  V30 23421 O 3203.38 -1.09919 -8.67766 0
M  V30 23422 C 3201.97 -1.68446 -6.70876 0
M  V30 23423 O 3202.77 -0.678137 -6.08433 0
M  V30 23424 C 3200.64 -1.17436 -7.18567 0
M  V30 23425 H 3200.67 -0.0804732 -7.31656 0
M  V30 23426 H 3201.85 -2.54037 -6.02537 0
M  V30 23427 H 3203.34 -2.93881 -7.85526 0
M  V30 23428 H 3201.64 -2.53065 -9.86973 0
M  V30 23429 H 3201.45 -4.75072 -9.05887 0
M  V30 23430 H 3199.82 -4.05244 -8.76668 0
M  V30 23431 H 3202.46 0.177647 -6.34251 0
M  V30 23432 P 3204.32 -1.25109 -8.70152 0
M  V30 23433 O 3205.74 -1.29744 -9.22016 0
M  V30 23434 O 3203.96 -2.13714 -7.55141 0
M  V30 23435 O 3204 0.248149 -8.21425 0
M  V30 23436 C 3203.84 1.22779 -9.30434 0
M  V30 23437 C 3204.38 2.56293 -8.80664 0
M  V30 23438 O 3203.32 3.02979 -8.09349 0
M  V30 23439 C 3205.59 2.57523 -7.89775 0
M  V30 23440 O 3206.33 3.7668 -7.89438 0
M  V30 23441 C 3204.93 2.20997 -6.55446 0
M  V30 23442 O 3205.72 2.71895 -5.48509 0
M  V30 23443 C 3203.59 2.89693 -6.67988 0
M  V30 23444 H 3203.62 3.88793 -6.19859 0
M  V30 23445 H 3204.8 1.12046 -6.44229 0
M  V30 23446 H 3206.29 1.7746 -8.19711 0
M  V30 23447 H 3204.59 3.20706 -9.67112 0
M  V30 23448 H 3204.4 0.901032 -10.1892 0
M  V30 23449 H 3202.77 1.33049 -9.56592 0
M  V30 23450 H 3205.41 3.57847 -5.23962 0
M  V30 23451 P 3207.27 3.65191 -7.99657 0
M  V30 23452 O 3208.67 3.87414 -8.52829 0
M  V30 23453 O 3206.89 2.26932 -7.566 0
M  V30 23454 O 3206.95 4.64915 -6.77529 0
M  V30 23455 C 3206.79 6.06319 -7.16352 0
M  V30 23456 C 3207.33 6.91655 -6.02234 0
M  V30 23457 O 3206.27 6.92369 -5.17005 0
M  V30 23458 C 3208.54 6.43627 -5.25174 0
M  V30 23459 O 3209.28 7.43686 -4.60469 0
M  V30 23460 C 3207.88 5.40275 -4.31916 0
M  V30 23461 O 3208.67 5.25193 -3.14386 0
M  V30 23462 C 3206.54 6.04847 -4.05327 0
M  V30 23463 N 3205.5 5.04166 -3.98114 0
M  V30 23464 C 3204.46 5.2366 -3.09923 0
M  V30 23465 O 3204.5 6.23355 -2.34204 0
M  V30 23466 N 3203.45 4.34279 -3.05727 0
M  V30 23467 C 3203.5 3.26317 -3.84756 0
M  V30 23468 C 3204.59 3.02504 -4.72573 0
M  V30 23469 C 3205.56 3.94493 -4.76618 0
M  V30 23470 H 3206.57 6.62104 -3.11218 0
M  V30 23471 H 3207.75 4.42969 -4.80867 0
M  V30 23472 H 3209.24 5.93122 -5.93121 0
M  V30 23473 H 3207.54 7.93295 -6.39407 0
M  V30 23474 H 3207.35 6.26671 -8.0846 0
M  V30 23475 H 3205.72 6.29036 -7.32728 0
M  V30 23476 H 3204.64 2.12921 -5.34017 0
M  V30 23477 H 3206.4 3.80658 -5.44176 0
M  V30 23478 H 3208.46 5.93572 -2.52637 0
M  V30 23479 P 3210.22 7.39546 -4.75277 0
M  V30 23480 O 3211.64 7.84798 -5.01039 0
M  V30 23481 O 3209.86 5.9812 -5.08098 0
M  V30 23482 O 3209.9 7.57503 -3.1866 0
M  V30 23483 C 3209.74 8.97357 -2.74833 0
M  V30 23484 C 3210.28 9.07548 -1.32709 0
M  V30 23485 O 3209.22 8.62072 -0.606159 0
M  V30 23486 C 3211.5 8.25383 -0.938334 0
M  V30 23487 O 3212.23 8.74577 0.146954 0
M  V30 23488 C 3210.83 6.8802 -0.712559 0
M  V30 23489 O 3211.63 6.1189 0.194655 0
M  V30 23490 C 3209.49 7.27966 -0.139777 0
M  V30 23491 H 3209.52 7.25354 0.961601 0
M  V30 23492 H 3210.7 6.32557 -1.65702 0
M  V30 23493 H 3212.19 8.19355 -1.79097 0
M  V30 23494 H 3210.49 10.1294 -1.10029 0
M  V30 23495 H 3210.3 9.64276 -3.41316 0
M  V30 23496 H 3208.67 9.25417 -2.76357 0
M  V30 23497 H 3211.31 6.25267 1.07847 0
M  V30 23498 P 3213.17 8.791 -6.77365e-11 0
M  V30 23499 O 3214.59 9.31096 0.027933 0
M  V30 23500 O 3212.81 7.77869 -1.04071 0
M  V30 23501 O 3212.85 8.09533 1.41463 0
M  V30 23502 C 3212.69 9.0349 2.53943 0
M  V30 23503 C 3213.23 8.35226 3.79016 0
M  V30 23504 O 3212.17 7.57992 4.15078 0
M  V30 23505 C 3214.45 7.45087 3.67298 0
M  V30 23506 O 3215.18 7.27796 4.85194 0
M  V30 23507 C 3213.78 6.17323 3.12027 0
M  V30 23508 O 3214.58 5.04231 3.47188 0
M  V30 23509 C 3212.44 6.19961 3.81809 0
M  V30 23510 H 3212.47 5.58218 4.73051 0
M  V30 23511 H 3213.65 6.21726 2.02589 0
M  V30 23512 H 3215.14 7.86112 2.9231 0
M  V30 23513 H 3213.44 9.11627 4.55076 0
M  V30 23514 H 3213.25 9.9573 2.34194 0
M  V30 23515 H 3211.62 9.2792 2.67832 0
M  V30 23516 H 3214.26 4.67702 4.28772 0
M  V30 23517 P 3216.12 7.39546 4.75277 0
M  V30 23518 O 3217.54 7.81777 5.05738 0
M  V30 23519 O 3215.76 7.1065 3.32998 0
M  V30 23520 O 3215.8 6.04542 5.56673 0
M  V30 23521 C 3215.64 6.22772 7.02095 0
M  V30 23522 C 3216.18 4.97725 7.70406 0
M  V30 23523 O 3215.12 4.13256 7.58987 0
M  V30 23524 C 3217.4 4.28231 7.11815 0
M  V30 23525 O 3218.13 3.49945 8.01648 0
M  V30 23526 C 3216.73 3.5063 5.96244 0
M  V30 23527 O 3217.53 2.36482 5.64681 0
M  V30 23528 C 3215.39 3.15122 6.56374 0
M  V30 23529 H 3215.42 2.13853 6.99751 0
M  V30 23530 H 3216.61 4.13501 5.06559 0
M  V30 23531 H 3218.09 5.03285 6.70911 0
M  V30 23532 H 3216.4 5.20877 8.75697 0
M  V30 23533 H 3216.21 7.11046 7.35349 0
M  V30 23534 H 3214.58 6.35815 7.26986 0
M  V30 23535 H 3217.21 1.61644 6.13565 0
M  V30 23536 P 3219.07 3.65191 7.99657 0
M  V30 23537 O 3220.47 3.90823 8.51272 0
M  V30 23538 O 3218.69 4.23191 6.66972 0
M  V30 23539 O 3218.75 2.07587 7.95046 0
M  V30 23540 C 3218.59 1.44328 9.27336 0
M  V30 23541 C 3219.13 0.0220012 9.17097 0
M  V30 23542 O 3218.07 -0.626794 8.61824 0
M  V30 23543 C 3220.35 -0.24586 8.30336 0
M  V30 23544 O 3221.08 -1.39011 8.63583 0
M  V30 23545 C 3219.68 -0.273849 6.91158 0
M  V30 23546 O 3220.48 -1.06331 6.02794 0
M  V30 23547 C 3218.34 -0.897649 7.22545 0
M  V30 23548 N 3217.3 -0.292839 6.41732 0
M  V30 23549 C 3216.26 -1.08701 5.98712 0
M  V30 23550 O 3216.3 -2.31211 6.24471 0
M  V30 23551 N 3215.25 -0.533391 5.28415 0
M  V30 23552 C 3215.3 0.770866 4.98576 0
M  V30 23553 N 3214.29 1.29482 4.30134 0
M  V30 23554 C 3216.39 1.59049 5.38086 0
M  V30 23555 C 3217.36 1.01866 6.10256 0
M  V30 23556 H 3218.37 -1.98383 7.04189 0
M  V30 23557 H 3219.56 0.733318 6.49674 0
M  V30 23558 H 3221.04 0.598386 8.36663 0
M  V30 23559 H 3219.35 -0.362662 10.1825 0
M  V30 23560 H 3219.15 2.00611 10.0304 0
M  V30 23561 H 3217.52 1.41828 9.55228 0
M  V30 23562 H 3216.44 2.6415 5.10622 0
M  V30 23563 H 3218.21 1.61983 6.44042 0
M  V30 23564 H 3213.5 0.69888 4.01361 0
M  V30 23565 H 3214.29 2.29327 4.05781 0
M  V30 23566 H 3220.26 -1.97777 6.14035 0
M  V30 23567 P 3222.02 -1.25109 8.70152 0
M  V30 23568 O 3223.44 -1.35274 9.21221 0
M  V30 23569 O 3221.66 -0.0769065 7.84762 0
M  V30 23570 O 3221.7 -2.55232 7.81161 0
M  V30 23571 C 3221.54 -3.79939 8.58154 0
M  V30 23572 C 3222.08 -4.94023 7.72785 0
M  V30 23573 O 3221.02 -5.18726 6.91205 0
M  V30 23574 C 3223.3 -4.69597 6.85231 0
M  V30 23575 O 3224.04 -5.83832 6.51337 0
M  V30 23576 C 3222.63 -3.96706 5.66633 0
M  V30 23577 O 3223.43 -4.15414 4.49689 0
M  V30 23578 C 3221.29 -4.66153 5.59313 0
M  V30 23579 H 3221.32 -5.47679 4.85214 0
M  V30 23580 H 3222.51 -2.89008 5.86566 0
M  V30 23581 H 3223.99 -4.0121 7.36511 0
M  V30 23582 H 3222.3 -5.80182 8.37584 0
M  V30 23583 H 3222.11 -3.73517 9.52265 0
M  V30 23584 H 3220.48 -3.97163 8.80359 0
M  V30 23585 H 3223.12 -4.90969 4.01921 0
M  V30 23586 P 3224.97 -5.75688 6.64379 0
M  V30 23587 O 3226.4 -6.11849 7.01846 0
M  V30 23588 O 3224.61 -4.30744 6.56026 0
M  V30 23589 O 3224.65 -6.37042 5.19165 0
M  V30 23590 C 3224.49 -7.83578 5.16515 0
M  V30 23591 C 3225.03 -8.33398 3.83019 0
M  V30 23592 O 3223.97 -8.10074 3.01034 0
M  V30 23593 C 3226.25 -7.65514 3.2257 0
M  V30 23594 O 3226.99 -8.4329 2.32297 0
M  V30 23595 C 3225.58 -6.40075 2.62207 0
M  V30 23596 O 3226.38 -5.92589 1.53712 0
M  V30 23597 C 3224.24 -6.9454 2.18503 0
M  V30 23598 H 3224.27 -7.23063 1.12091 0
M  V30 23599 H 3225.46 -5.6025 3.37201 0
M  V30 23600 H 3226.94 -7.35707 4.02681 0
M  V30 23601 H 3225.25 -9.40912 3.9095 0
M  V30 23602 H 3225.06 -8.29056 5.99158 0
M  V30 23603 H 3223.43 -8.10073 5.25882 0
M  V30 23604 H 3226.07 -6.30324 0.726794 0
M  V30 23605 P 3227.92 -8.4349 2.47671 0
M  V30 23606 O 3229.35 -8.94167 2.5964 0
M  V30 23607 O 3227.56 -7.1704 3.19006 0
M  V30 23608 O 3227.6 -8.16596 0.923387 0
M  V30 23609 C 3227.44 -9.38437 0.108857 0
M  V30 23610 C 3227.98 -9.08175 -1.28353 0
M  V30 23611 O 3226.92 -8.44229 -1.84713 0
M  V30 23612 C 3229.2 -8.18386 -1.42505 0
M  V30 23613 O 3229.94 -8.3501 -2.60497 0
M  V30 23614 C 3228.53 -6.80225 -1.25468 0
M  V30 23615 O 3229.33 -5.81621 -1.91066 0
M  V30 23616 C 3227.19 -7.02416 -1.9168 0
M  V30 23617 H 3227.22 -6.6888 -2.96621 0
M  V30 23618 H 3228.41 -6.53617 -0.192223 0
M  V30 23619 H 3229.89 -8.36622 -0.589963 0
M  V30 23620 H 3228.2 -10.0291 -1.79807 0
M  V30 23621 H 3228.01 -10.2138 0.558219 0
M  V30 23622 H 3226.38 -9.6579 0.0444202 0
M  V30 23623 H 3229.02 -5.69556 -2.79637 0
M  V30 23624 P 3230.87 -8.4349 -2.47671 0
M  V30 23625 O 3232.3 -8.92593 -2.65 0
M  V30 23626 O 3230.51 -7.7568 -1.19296 0
M  V30 23627 O 3230.55 -7.36886 -3.63805 0
M  V30 23628 C 3230.39 -7.95349 -4.982 0
M  V30 23629 C 3230.93 -6.94612 -5.98974 0
M  V30 23630 O 3229.88 -6.10347 -6.11815 0
M  V30 23631 C 3232.15 -6.11426 -5.62335 0
M  V30 23632 O 3232.89 -5.6162 -6.70584 0
M  V30 23633 C 3231.48 -5.04409 -4.73308 0
M  V30 23634 O 3232.28 -3.85992 -4.75183 0
M  V30 23635 C 3230.14 -4.8728 -5.41006 0
M  V30 23636 H 3230.18 -4.02333 -6.11157 0
M  V30 23637 H 3231.36 -5.39466 -3.69543 0
M  V30 23638 H 3232.84 -6.71916 -5.01943 0
M  V30 23639 H 3231.15 -7.4649 -6.93477 0
M  V30 23640 H 3230.96 -8.89416 -5.05237 0
M  V30 23641 H 3229.33 -8.14876 -5.18409 0
M  V30 23642 H 3231.97 -3.27957 -5.4317 0
M  V30 23643 P 3233.82 -5.75688 -6.64379 0
M  V30 23644 O 3235.25 -6.07692 -7.0558 0
M  V30 23645 O 3233.46 -5.88047 -5.19722 0
M  V30 23646 O 3233.5 -4.2322 -7.04443 0
M  V30 23647 C 3233.34 -3.99785 -8.49201 0
M  V30 23648 C 3233.88 -2.60516 -8.79425 0
M  V30 23649 O 3232.83 -1.82663 -8.44573 0
M  V30 23650 C 3235.1 -2.10343 -8.03628 0
M  V30 23651 O 3235.84 -1.09919 -8.67766 0
M  V30 23652 C 3234.43 -1.68446 -6.70876 0
M  V30 23653 O 3235.23 -0.684109 -6.08265 0
M  V30 23654 C 3233.09 -1.17436 -7.18567 0
M  V30 23655 N 3232.05 -1.52699 -6.23988 0
M  V30 23656 C 3232.22 -2.578 -5.40574 0
M  V30 23657 N 3231.19 -2.78966 -4.61193 0
M  V30 23658 C 3230.31 -1.78725 -4.95769 0
M  V30 23659 C 3229.04 -1.45727 -4.44207 0
M  V30 23660 N 3228.44 -2.13994 -3.43613 0
M  V30 23661 N 3228.48 -0.374977 -5.05812 0
M  V30 23662 C 3229.08 0.345585 -6.05615 0
M  V30 23663 N 3230.25 0.0787651 -6.56253 0
M  V30 23664 C 3230.83 -1.00499 -5.96189 0
M  V30 23665 H 3233.13 -0.0804622 -7.31556 0
M  V30 23666 H 3234.31 -2.53396 -6.02698 0
M  V30 23667 H 3235.79 -2.93881 -7.85526 0
M  V30 23668 H 3234.1 -2.52078 -9.87225 0
M  V30 23669 H 3233.91 -4.75072 -9.05887 0
M  V30 23670 H 3232.28 -4.05244 -8.76668 0
M  V30 23671 H 3228.54 1.20098 -6.4532 0
M  V30 23672 H 3233.12 -3.18977 -5.3945 0
M  V30 23673 H 3227.51 -1.84983 -3.10004 0
M  V30 23674 H 3228.92 -2.9465 -3.00843 0
M  V30 23675 H 3234.92 0.177619 -6.34151 0
M  V30 23676 P 3236.78 -1.25109 -8.70152 0
M  V30 23677 O 3238.2 -1.29744 -9.22016 0
M  V30 23678 O 3236.42 -2.13714 -7.55141 0
M  V30 23679 O 3236.45 0.248149 -8.21425 0
M  V30 23680 C 3236.29 1.22779 -9.30434 0
M  V30 23681 C 3236.83 2.56293 -8.80664 0
M  V30 23682 O 3235.78 3.02979 -8.09349 0
M  V30 23683 C 3238.05 2.57523 -7.89775 0
M  V30 23684 O 3238.79 3.7668 -7.89438 0
M  V30 23685 C 3237.38 2.20997 -6.55446 0
M  V30 23686 O 3238.18 2.71895 -5.48509 0
M  V30 23687 C 3236.04 2.89693 -6.67988 0
M  V30 23688 H 3236.08 3.88793 -6.19859 0
M  V30 23689 H 3237.26 1.12046 -6.44229 0
M  V30 23690 H 3238.74 1.7746 -8.19711 0
M  V30 23691 H 3237.05 3.20706 -9.67112 0
M  V30 23692 H 3236.86 0.901032 -10.1892 0
M  V30 23693 H 3235.23 1.33049 -9.56592 0
M  V30 23694 H 3237.87 3.57847 -5.23962 0
M  V30 23695 P 3239.73 3.65191 -7.99657 0
M  V30 23696 O 3241.15 3.89374 -8.45885 0
M  V30 23697 O 3239.37 2.28472 -7.50807 0
M  V30 23698 O 3239.4 4.64972 -6.77611 0
M  V30 23699 C 3239.24 6.06383 -7.16428 0
M  V30 23700 C 3239.78 6.91731 -6.02299 0
M  V30 23701 O 3238.73 6.92369 -5.17005 0
M  V30 23702 C 3241 6.43627 -5.25174 0
M  V30 23703 O 3241.74 7.43686 -4.60469 0
M  V30 23704 C 3240.33 5.40275 -4.31916 0
M  V30 23705 O 3241.13 5.24878 -3.14911 0
M  V30 23706 C 3238.99 6.04847 -4.05327 0
M  V30 23707 N 3237.95 5.04166 -3.98114 0
M  V30 23708 C 3238.12 3.84629 -4.59066 0
M  V30 23709 N 3237.09 3.0363 -4.45343 0
M  V30 23710 C 3236.21 3.76722 -3.68523 0
M  V30 23711 C 3234.94 3.43528 -3.17088 0
M  V30 23712 N 3234.34 2.23665 -3.37397 0
M  V30 23713 N 3234.38 4.44526 -2.44231 0
M  V30 23714 C 3234.98 5.65243 -2.20146 0
M  V30 23715 N 3236.16 6.00221 -2.65453 0
M  V30 23716 C 3236.73 5.00564 -3.39083 0
M  V30 23717 H 3239.03 6.62104 -3.11218 0
M  V30 23718 H 3240.21 4.42969 -4.80867 0
M  V30 23719 H 3241.69 5.92458 -5.93643 0
M  V30 23720 H 3240 7.93295 -6.39407 0
M  V30 23721 H 3239.81 6.26671 -8.0846 0
M  V30 23722 H 3238.18 6.29101 -7.32804 0
M  V30 23723 H 3234.44 6.36894 -1.5883 0
M  V30 23724 H 3239.02 3.58193 -5.14248 0
M  V30 23725 H 3233.41 2.05145 -2.97047 0
M  V30 23726 H 3234.82 1.51255 -3.92998 0
M  V30 23727 H 3240.82 5.84223 -2.47279 0
M  V30 23728 P 3242.68 7.39546 -4.75277 0
M  V30 23729 O 3244.1 7.84798 -5.01039 0
M  V30 23730 O 3242.32 5.9812 -5.08098 0
M  V30 23731 O 3242.35 7.57503 -3.1866 0
M  V30 23732 C 3242.19 8.97357 -2.74833 0
M  V30 23733 C 3242.73 9.07548 -1.32709 0
M  V30 23734 O 3241.68 8.62072 -0.606159 0
M  V30 23735 C 3243.95 8.25383 -0.938334 0
M  V30 23736 O 3244.69 8.74577 0.146954 0
M  V30 23737 C 3243.28 6.8802 -0.712559 0
M  V30 23738 O 3244.08 6.1189 0.194655 0
M  V30 23739 C 3241.95 7.27966 -0.139777 0
M  V30 23740 H 3241.98 7.25354 0.961601 0
M  V30 23741 H 3243.16 6.32557 -1.65702 0
M  V30 23742 H 3244.64 8.19355 -1.79097 0
M  V30 23743 H 3242.95 10.1294 -1.10029 0
M  V30 23744 H 3242.76 9.64276 -3.41316 0
M  V30 23745 H 3241.13 9.25417 -2.76357 0
M  V30 23746 H 3243.77 6.25267 1.07847 0
M  V30 23747 P 3245.63 8.791 -7.29232e-11 0
M  V30 23748 O 3247.05 9.31096 0.027933 0
M  V30 23749 O 3245.27 7.77869 -1.04071 0
M  V30 23750 O 3245.3 8.09533 1.41463 0
M  V30 23751 C 3245.14 9.0349 2.53943 0
M  V30 23752 C 3245.68 8.35226 3.79016 0
M  V30 23753 O 3244.63 7.57992 4.15078 0
M  V30 23754 C 3246.9 7.45087 3.67298 0
M  V30 23755 O 3247.64 7.27796 4.85194 0
M  V30 23756 C 3246.23 6.17323 3.12027 0
M  V30 23757 O 3247.03 5.04231 3.47188 0
M  V30 23758 C 3244.9 6.19961 3.81809 0
M  V30 23759 H 3244.93 5.58218 4.73051 0
M  V30 23760 H 3246.11 6.21726 2.02589 0
M  V30 23761 H 3247.59 7.86112 2.9231 0
M  V30 23762 H 3245.9 9.11627 4.55076 0
M  V30 23763 H 3245.71 9.9573 2.34194 0
M  V30 23764 H 3244.08 9.2792 2.67832 0
M  V30 23765 H 3246.72 4.67702 4.28772 0
M  V30 23766 P 3248.58 7.39546 4.75277 0
M  V30 23767 O 3250 7.81777 5.05738 0
M  V30 23768 O 3248.22 7.1065 3.32998 0
M  V30 23769 O 3248.25 6.04542 5.56673 0
M  V30 23770 C 3248.09 6.22772 7.02095 0
M  V30 23771 C 3248.63 4.97725 7.70406 0
M  V30 23772 O 3247.58 4.13256 7.58987 0
M  V30 23773 C 3249.85 4.28231 7.11815 0
M  V30 23774 O 3250.59 3.49945 8.01648 0
M  V30 23775 C 3249.18 3.5063 5.96244 0
M  V30 23776 O 3249.98 2.36482 5.64681 0
M  V30 23777 C 3247.85 3.15122 6.56374 0
M  V30 23778 H 3247.88 2.13853 6.99751 0
M  V30 23779 H 3249.06 4.13501 5.06559 0
M  V30 23780 H 3250.55 5.03285 6.70911 0
M  V30 23781 H 3248.85 5.20877 8.75697 0
M  V30 23782 H 3248.66 7.11046 7.35349 0
M  V30 23783 H 3247.03 6.35815 7.26986 0
M  V30 23784 H 3249.67 1.61644 6.13565 0
M  V30 23785 P 3251.53 3.65191 7.99657 0
M  V30 23786 O 3252.95 3.8425 8.48115 0
M  V30 23787 O 3251.17 4.17805 6.64342 0
M  V30 23788 O 3251.21 2.07613 7.95143 0
M  V30 23789 C 3251.05 1.44328 9.27336 0
M  V30 23790 C 3251.59 0.0220036 9.17197 0
M  V30 23791 O 3250.53 -0.626867 8.61923 0
M  V30 23792 C 3252.8 -0.24586 8.30336 0
M  V30 23793 O 3253.54 -1.39011 8.63583 0
M  V30 23794 C 3252.13 -0.273849 6.91158 0
M  V30 23795 O 3252.93 -1.06348 6.02892 0
M  V30 23796 C 3250.8 -0.897649 7.22545 0
M  V30 23797 H 3250.83 -1.9841 7.04286 0
M  V30 23798 H 3252.01 0.739928 6.497 0
M  V30 23799 H 3253.5 0.60668 8.36503 0
M  V30 23800 H 3251.8 -0.352479 10.1829 0
M  V30 23801 H 3251.61 2.00611 10.0304 0
M  V30 23802 H 3249.98 1.41843 9.55327 0
M  V30 23803 H 3252.62 -1.95734 6.03555 0
M  V30 23804 P 3254.48 -1.25109 8.70152 0
M  V30 23805 O 3255.9 -1.35274 9.21221 0
M  V30 23806 O 3254.12 -0.0769065 7.84762 0
M  V30 23807 O 3254.16 -2.55232 7.81161 0
M  V30 23808 C 3254 -3.79939 8.58154 0
M  V30 23809 C 3254.54 -4.94023 7.72785 0
M  V30 23810 O 3253.48 -5.18726 6.91205 0
M  V30 23811 C 3255.75 -4.69597 6.85231 0
M  V30 23812 O 3256.49 -5.83832 6.51337 0
M  V30 23813 C 3255.08 -3.96706 5.66633 0
M  V30 23814 O 3255.88 -4.15414 4.49689 0
M  V30 23815 C 3253.75 -4.66153 5.59313 0
M  V30 23816 H 3253.78 -5.47679 4.85214 0
M  V30 23817 H 3254.96 -2.89008 5.86566 0
M  V30 23818 H 3256.45 -4.0121 7.36511 0
M  V30 23819 H 3254.75 -5.80182 8.37584 0
M  V30 23820 H 3254.56 -3.73517 9.52265 0
M  V30 23821 H 3252.93 -3.97163 8.80359 0
M  V30 23822 H 3255.57 -4.90969 4.01921 0
M  V30 23823 P 3257.43 -5.75688 6.64379 0
M  V30 23824 O 3258.83 -6.11991 7.09136 0
M  V30 23825 O 3257.05 -4.30899 6.62018 0
M  V30 23826 O 3257.11 -6.36965 5.19102 0
M  V30 23827 C 3256.95 -7.83578 5.16515 0
M  V30 23828 C 3257.49 -8.33307 3.82977 0
M  V30 23829 O 3256.43 -8.0998 3.00999 0
M  V30 23830 C 3258.7 -7.65514 3.2257 0
M  V30 23831 O 3259.44 -8.4329 2.32297 0
M  V30 23832 C 3258.04 -6.40075 2.62207 0
M  V30 23833 O 3258.83 -5.92492 1.53687 0
M  V30 23834 C 3256.7 -6.9454 2.18503 0
M  V30 23835 N 3255.66 -5.95905 2.39948 0
M  V30 23836 C 3254.62 -5.89764 1.49837 0
M  V30 23837 O 3254.66 -6.64088 0.490975 0
M  V30 23838 N 3253.61 -5.02821 1.70992 0
M  V30 23839 C 3253.66 -4.21498 2.77236 0
M  V30 23840 N 3252.65 -3.37475 2.96465 0
M  V30 23841 C 3254.75 -4.23389 3.68205 0
M  V30 23842 C 3255.72 -5.12792 3.46171 0
M  V30 23843 H 3256.73 -7.22964 1.12076 0
M  V30 23844 H 3257.91 -5.60502 3.36589 0
M  V30 23845 H 3259.4 -7.36197 4.01993 0
M  V30 23846 H 3257.7 -9.41302 3.90009 0
M  V30 23847 H 3257.51 -8.29056 5.99158 0
M  V30 23848 H 3255.88 -8.09989 5.25828 0
M  V30 23849 H 3254.8 -3.54747 4.52399 0
M  V30 23850 H 3256.56 -5.18551 4.1489 0
M  V30 23851 H 3251.86 -3.36058 2.30304 0
M  V30 23852 H 3252.65 -2.73846 3.77171 0
M  V30 23853 H 3258.62 -6.40705 0.751752 0
M  V30 23854 P 3260.38 -8.4349 2.47671 0
M  V30 23855 O 3261.8 -8.94167 2.5964 0
M  V30 23856 O 3260.02 -7.1704 3.19006 0
M  V30 23857 O 3260.06 -8.16596 0.923387 0
M  V30 23858 C 3259.9 -9.38437 0.108857 0
M  V30 23859 C 3260.44 -9.08175 -1.28353 0
M  V30 23860 O 3259.38 -8.44229 -1.84713 0
M  V30 23861 C 3261.65 -8.18386 -1.42505 0
M  V30 23862 O 3262.39 -8.3501 -2.60497 0
M  V30 23863 C 3260.99 -6.80225 -1.25468 0
M  V30 23864 O 3261.78 -5.81621 -1.91066 0
M  V30 23865 C 3259.65 -7.02416 -1.9168 0
M  V30 23866 H 3259.68 -6.6888 -2.96621 0
M  V30 23867 H 3260.86 -6.53617 -0.192223 0
M  V30 23868 H 3262.35 -8.36622 -0.589963 0
M  V30 23869 H 3260.65 -10.0291 -1.79807 0
M  V30 23870 H 3260.46 -10.2138 0.558219 0
M  V30 23871 H 3258.83 -9.6579 0.0444202 0
M  V30 23872 H 3261.47 -5.69556 -2.79637 0
M  V30 23873 P 3263.33 -8.4349 -2.47671 0
M  V30 23874 O 3264.75 -8.92593 -2.65 0
M  V30 23875 O 3262.97 -7.7568 -1.19296 0
M  V30 23876 O 3263.01 -7.36886 -3.63805 0
M  V30 23877 C 3262.85 -7.95349 -4.982 0
M  V30 23878 C 3263.39 -6.94612 -5.98974 0
M  V30 23879 O 3262.33 -6.10347 -6.11815 0
M  V30 23880 C 3264.61 -6.11426 -5.62335 0
M  V30 23881 O 3265.34 -5.6162 -6.70584 0
M  V30 23882 C 3263.94 -5.04409 -4.73308 0
M  V30 23883 O 3264.74 -3.85992 -4.75183 0
M  V30 23884 C 3262.6 -4.8728 -5.41006 0
M  V30 23885 H 3262.63 -4.02333 -6.11157 0
M  V30 23886 H 3263.81 -5.39466 -3.69543 0
M  V30 23887 H 3265.3 -6.71916 -5.01943 0
M  V30 23888 H 3263.6 -7.4649 -6.93477 0
M  V30 23889 H 3263.41 -8.89416 -5.05237 0
M  V30 23890 H 3261.78 -8.14876 -5.18409 0
M  V30 23891 H 3264.42 -3.27957 -5.4317 0
M  V30 23892 P 3266.28 -5.75688 -6.64379 0
M  V30 23893 O 3267.7 -6.07627 -7.05504 0
M  V30 23894 O 3265.92 -5.88047 -5.19722 0
M  V30 23895 O 3265.96 -4.2322 -7.04443 0
M  V30 23896 C 3265.8 -3.99743 -8.4911 0
M  V30 23897 C 3266.34 -2.60516 -8.79425 0
M  V30 23898 O 3265.28 -1.82684 -8.4467 0
M  V30 23899 C 3267.56 -2.10343 -8.03628 0
M  V30 23900 O 3268.29 -1.09919 -8.67766 0
M  V30 23901 C 3266.89 -1.68446 -6.70876 0
M  V30 23902 O 3267.69 -0.678137 -6.08433 0
M  V30 23903 C 3265.55 -1.17436 -7.18567 0
M  V30 23904 H 3265.58 -0.0804732 -7.31656 0
M  V30 23905 H 3266.76 -2.54037 -6.02537 0
M  V30 23906 H 3268.25 -2.93881 -7.85526 0
M  V30 23907 H 3266.55 -2.53065 -9.86973 0
M  V30 23908 H 3266.36 -4.75072 -9.05887 0
M  V30 23909 H 3264.73 -4.05244 -8.76668 0
M  V30 23910 H 3267.37 0.177647 -6.34251 0
M  V30 23911 P 3269.23 -1.25109 -8.70152 0
M  V30 23912 O 3270.65 -1.29744 -9.22016 0
M  V30 23913 O 3268.87 -2.13714 -7.55141 0
M  V30 23914 O 3268.91 0.248149 -8.21425 0
M  V30 23915 C 3268.75 1.22779 -9.30434 0
M  V30 23916 C 3269.29 2.56293 -8.80664 0
M  V30 23917 O 3268.23 3.02979 -8.09349 0
M  V30 23918 C 3270.51 2.57523 -7.89775 0
M  V30 23919 O 3271.24 3.7668 -7.89438 0
M  V30 23920 C 3269.84 2.20997 -6.55446 0
M  V30 23921 O 3270.64 2.71895 -5.48509 0
M  V30 23922 C 3268.5 2.89693 -6.67988 0
M  V30 23923 H 3268.53 3.88793 -6.19859 0
M  V30 23924 H 3269.72 1.12046 -6.44229 0
M  V30 23925 H 3271.2 1.7746 -8.19711 0
M  V30 23926 H 3269.51 3.20706 -9.67112 0
M  V30 23927 H 3269.32 0.901032 -10.1892 0
M  V30 23928 H 3267.69 1.33049 -9.56592 0
M  V30 23929 H 3270.32 3.57847 -5.23962 0
M  V30 23930 P 3272.18 3.65191 -7.99657 0
M  V30 23931 O 3273.6 3.89374 -8.45885 0
M  V30 23932 O 3271.82 2.28472 -7.50807 0
M  V30 23933 O 3271.86 4.64972 -6.77611 0
M  V30 23934 C 3271.7 6.06383 -7.16428 0
M  V30 23935 C 3272.24 6.91731 -6.02299 0
M  V30 23936 O 3271.18 6.92369 -5.17005 0
M  V30 23937 C 3273.46 6.43627 -5.25174 0
M  V30 23938 O 3274.2 7.43686 -4.60469 0
M  V30 23939 C 3272.79 5.40275 -4.31916 0
M  V30 23940 O 3273.59 5.24878 -3.14911 0
M  V30 23941 C 3271.45 6.04847 -4.05327 0
M  V30 23942 N 3270.41 5.04166 -3.98114 0
M  V30 23943 C 3270.58 3.84629 -4.59066 0
M  V30 23944 N 3269.55 3.0363 -4.45343 0
M  V30 23945 C 3268.67 3.76722 -3.68523 0
M  V30 23946 C 3267.4 3.43528 -3.17088 0
M  V30 23947 N 3266.8 2.23665 -3.37397 0
M  V30 23948 N 3266.83 4.44526 -2.44231 0
M  V30 23949 C 3267.44 5.65243 -2.20146 0
M  V30 23950 N 3268.61 6.00221 -2.65453 0
M  V30 23951 C 3269.19 5.00564 -3.39083 0
M  V30 23952 H 3271.48 6.62104 -3.11218 0
M  V30 23953 H 3272.67 4.42969 -4.80867 0
M  V30 23954 H 3274.15 5.92458 -5.93643 0
M  V30 23955 H 3272.46 7.93295 -6.39407 0
M  V30 23956 H 3272.27 6.26671 -8.0846 0
M  V30 23957 H 3270.64 6.29101 -7.32804 0
M  V30 23958 H 3266.9 6.36894 -1.5883 0
M  V30 23959 H 3271.48 3.58193 -5.14248 0
M  V30 23960 H 3265.87 2.05145 -2.97047 0
M  V30 23961 H 3267.27 1.51255 -3.92998 0
M  V30 23962 H 3273.28 5.84223 -2.47279 0
M  V30 23963 P 3275.13 7.39546 -4.75277 0
M  V30 23964 O 3276.55 7.84798 -5.01039 0
M  V30 23965 O 3274.77 5.9812 -5.08098 0
M  V30 23966 O 3274.81 7.57503 -3.1866 0
M  V30 23967 C 3274.65 8.97357 -2.74833 0
M  V30 23968 C 3275.19 9.07548 -1.32709 0
M  V30 23969 O 3274.13 8.62072 -0.606159 0
M  V30 23970 C 3276.41 8.25383 -0.938334 0
M  V30 23971 O 3277.15 8.74577 0.146954 0
M  V30 23972 C 3275.74 6.8802 -0.712559 0
M  V30 23973 O 3276.54 6.1189 0.194655 0
M  V30 23974 C 3274.4 7.27966 -0.139777 0
M  V30 23975 H 3274.43 7.25354 0.961601 0
M  V30 23976 H 3275.62 6.32557 -1.65702 0
M  V30 23977 H 3277.1 8.19355 -1.79097 0
M  V30 23978 H 3275.41 10.1294 -1.10029 0
M  V30 23979 H 3275.22 9.64276 -3.41316 0
M  V30 23980 H 3273.59 9.25417 -2.76357 0
M  V30 23981 H 3276.23 6.25267 1.07847 0
M  V30 23982 P 3278.08 8.791 -7.81098e-11 0
M  V30 23983 O 3279.51 9.31096 0.027933 0
M  V30 23984 O 3277.72 7.77869 -1.04071 0
M  V30 23985 O 3277.76 8.09533 1.41463 0
M  V30 23986 C 3277.6 9.0349 2.53943 0
M  V30 23987 C 3278.14 8.35226 3.79016 0
M  V30 23988 O 3277.08 7.57992 4.15078 0
M  V30 23989 C 3279.36 7.45087 3.67298 0
M  V30 23990 O 3280.1 7.27796 4.85194 0
M  V30 23991 C 3278.69 6.17323 3.12027 0
M  V30 23992 O 3279.49 5.04231 3.47188 0
M  V30 23993 C 3277.35 6.19961 3.81809 0
M  V30 23994 H 3277.38 5.58218 4.73051 0
M  V30 23995 H 3278.57 6.21726 2.02589 0
M  V30 23996 H 3280.05 7.86112 2.9231 0
M  V30 23997 H 3278.36 9.11627 4.55076 0
M  V30 23998 H 3278.17 9.9573 2.34194 0
M  V30 23999 H 3276.54 9.2792 2.67832 0
M  V30 24000 H 3279.18 4.67702 4.28772 0
M  V30 24001 P 3281.03 7.39546 4.75277 0
M  V30 24002 O 3282.46 7.81777 5.05738 0
M  V30 24003 O 3280.67 7.1065 3.32998 0
M  V30 24004 O 3280.71 6.04542 5.56673 0
M  V30 24005 C 3280.55 6.22772 7.02095 0
M  V30 24006 C 3281.09 4.97725 7.70406 0
M  V30 24007 O 3280.03 4.13256 7.58987 0
M  V30 24008 C 3282.31 4.28231 7.11815 0
M  V30 24009 O 3283.05 3.49945 8.01648 0
M  V30 24010 C 3281.64 3.5063 5.96244 0
M  V30 24011 O 3282.44 2.36482 5.64681 0
M  V30 24012 C 3280.3 3.15122 6.56374 0
M  V30 24013 H 3280.33 2.13853 6.99751 0
M  V30 24014 H 3281.52 4.13501 5.06559 0
M  V30 24015 H 3283 5.03285 6.70911 0
M  V30 24016 H 3281.31 5.20877 8.75697 0
M  V30 24017 H 3281.12 7.11046 7.35349 0
M  V30 24018 H 3279.49 6.35815 7.26986 0
M  V30 24019 H 3282.13 1.61644 6.13565 0
M  V30 24020 P 3283.98 3.65191 7.99657 0
M  V30 24021 O 3285.41 3.84292 8.48206 0
M  V30 24022 O 3283.62 4.17805 6.64342 0
M  V30 24023 O 3283.66 2.07613 7.95143 0
M  V30 24024 C 3283.5 1.44344 9.27435 0
M  V30 24025 C 3284.04 0.0220036 9.17197 0
M  V30 24026 O 3282.99 -0.626794 8.61824 0
M  V30 24027 C 3285.26 -0.24586 8.30336 0
M  V30 24028 O 3286 -1.39011 8.63583 0
M  V30 24029 C 3284.59 -0.273849 6.91158 0
M  V30 24030 O 3285.39 -1.05728 6.029 0
M  V30 24031 C 3283.25 -0.897649 7.22545 0
M  V30 24032 N 3282.21 -0.292839 6.41732 0
M  V30 24033 C 3282.38 0.950603 5.91308 0
M  V30 24034 N 3281.35 1.37732 5.21105 0
M  V30 24035 C 3280.47 0.318109 5.26039 0
M  V30 24036 C 3279.2 0.146766 4.6727 0
M  V30 24037 N 3278.64 -1.06525 4.95887 0
M  V30 24038 C 3279.24 -2.0378 5.71347 0
M  V30 24039 N 3280.41 -1.92445 6.27451 0
M  V30 24040 C 3280.99 -0.715382 6.00353 0
M  V30 24041 H 3284.47 0.733318 6.49674 0
M  V30 24042 H 3285.95 0.60668 8.36503 0
M  V30 24043 H 3284.26 -0.362662 10.1825 0
M  V30 24044 H 3284.07 2.00611 10.0304 0
M  V30 24045 H 3282.44 1.41843 9.55327 0
M  V30 24046 H 3283.28 1.54076 6.07465 0
M  V30 24047 H 3285.08 -1.95704 6.0346 0
M  V30 24048 P 3286.93 -1.25109 8.70152 0
M  V30 24049 O 3288.36 -1.35274 9.21221 0
M  V30 24050 O 3286.57 -0.0769065 7.84762 0
M  V30 24051 O 3286.61 -2.55232 7.81161 0
M  V30 24052 C 3286.45 -3.79939 8.58154 0
M  V30 24053 C 3286.99 -4.94023 7.72785 0
M  V30 24054 O 3285.94 -5.18726 6.91205 0
M  V30 24055 C 3288.21 -4.69597 6.85231 0
M  V30 24056 O 3288.95 -5.83832 6.51337 0
M  V30 24057 C 3287.54 -3.96706 5.66633 0
M  V30 24058 O 3288.34 -4.15414 4.49689 0
M  V30 24059 C 3286.2 -4.66153 5.59313 0
M  V30 24060 H 3286.24 -5.47679 4.85214 0
M  V30 24061 H 3287.42 -2.89008 5.86566 0
M  V30 24062 H 3288.9 -4.0121 7.36511 0
M  V30 24063 H 3287.21 -5.80182 8.37584 0
M  V30 24064 H 3287.02 -3.73517 9.52265 0
M  V30 24065 H 3285.39 -3.97163 8.80359 0
M  V30 24066 H 3288.03 -4.90969 4.01921 0
M  V30 24067 P 3289.89 -5.75688 6.64379 0
M  V30 24068 O 3291.29 -6.11991 7.09136 0
M  V30 24069 O 3289.51 -4.30899 6.62018 0
M  V30 24070 O 3289.56 -6.36965 5.19102 0
M  V30 24071 C 3289.4 -7.83578 5.16515 0
M  V30 24072 C 3289.94 -8.33307 3.82977 0
M  V30 24073 O 3288.89 -8.0998 3.00999 0
M  V30 24074 C 3291.16 -7.65514 3.2257 0
M  V30 24075 O 3291.9 -8.4329 2.32297 0
M  V30 24076 C 3290.49 -6.40075 2.62207 0
M  V30 24077 O 3291.29 -5.92492 1.53687 0
M  V30 24078 C 3289.15 -6.9454 2.18503 0
M  V30 24079 N 3288.11 -5.95905 2.39948 0
M  V30 24080 C 3287.08 -5.89764 1.49837 0
M  V30 24081 O 3287.12 -6.64088 0.490975 0
M  V30 24082 N 3286.06 -5.02821 1.70992 0
M  V30 24083 C 3286.11 -4.21498 2.77236 0
M  V30 24084 C 3287.21 -4.23389 3.68205 0
M  V30 24085 C 3288.17 -5.12792 3.46171 0
M  V30 24086 H 3289.19 -7.22964 1.12076 0
M  V30 24087 H 3290.37 -5.60502 3.36589 0
M  V30 24088 H 3291.85 -7.36197 4.01993 0
M  V30 24089 H 3290.16 -9.41302 3.90009 0
M  V30 24090 H 3289.97 -8.29056 5.99158 0
M  V30 24091 H 3288.34 -8.09989 5.25828 0
M  V30 24092 H 3287.26 -3.54747 4.52399 0
M  V30 24093 H 3289.02 -5.18551 4.1489 0
M  V30 24094 H 3291.07 -6.40705 0.751752 0
M  V30 24095 P 3292.84 -8.4349 2.47671 0
M  V30 24096 O 3294.26 -8.94167 2.5964 0
M  V30 24097 O 3292.48 -7.1704 3.19006 0
M  V30 24098 O 3292.51 -8.16596 0.923387 0
M  V30 24099 C 3292.35 -9.38437 0.108857 0
M  V30 24100 C 3292.89 -9.08175 -1.28353 0
M  V30 24101 O 3291.84 -8.44229 -1.84713 0
M  V30 24102 C 3294.11 -8.18386 -1.42505 0
M  V30 24103 O 3294.85 -8.3501 -2.60497 0
M  V30 24104 C 3293.44 -6.80225 -1.25468 0
M  V30 24105 O 3294.24 -5.81621 -1.91066 0
M  V30 24106 C 3292.11 -7.02416 -1.9168 0
M  V30 24107 H 3292.14 -6.6888 -2.96621 0
M  V30 24108 H 3293.32 -6.53617 -0.192223 0
M  V30 24109 H 3294.8 -8.36622 -0.589963 0
M  V30 24110 H 3293.11 -10.0291 -1.79807 0
M  V30 24111 H 3292.92 -10.2138 0.558219 0
M  V30 24112 H 3291.29 -9.6579 0.0444202 0
M  V30 24113 H 3293.93 -5.69556 -2.79637 0
M  V30 24114 P 3295.79 -8.4349 -2.47671 0
M  V30 24115 O 3297.21 -8.92593 -2.65 0
M  V30 24116 O 3295.43 -7.7568 -1.19296 0
M  V30 24117 O 3295.46 -7.36886 -3.63805 0
M  V30 24118 C 3295.3 -7.95349 -4.982 0
M  V30 24119 C 3295.84 -6.94612 -5.98974 0
M  V30 24120 O 3294.79 -6.10347 -6.11815 0
M  V30 24121 C 3297.06 -6.11426 -5.62335 0
M  V30 24122 O 3297.8 -5.6162 -6.70584 0
M  V30 24123 C 3296.39 -5.04409 -4.73308 0
M  V30 24124 O 3297.19 -3.85992 -4.75183 0
M  V30 24125 C 3295.06 -4.8728 -5.41006 0
M  V30 24126 H 3295.09 -4.02333 -6.11157 0
M  V30 24127 H 3296.27 -5.39466 -3.69543 0
M  V30 24128 H 3297.75 -6.71916 -5.01943 0
M  V30 24129 H 3296.06 -7.4649 -6.93477 0
M  V30 24130 H 3295.87 -8.89416 -5.05237 0
M  V30 24131 H 3294.24 -8.14876 -5.18409 0
M  V30 24132 H 3296.88 -3.27957 -5.4317 0
M  V30 24133 P 3298.74 -5.75688 -6.64379 0
M  V30 24134 O 3300.16 -6.07692 -7.0558 0
M  V30 24135 O 3298.38 -5.88047 -5.19722 0
M  V30 24136 O 3298.41 -4.2322 -7.04443 0
M  V30 24137 C 3298.25 -3.99785 -8.49201 0
M  V30 24138 C 3298.79 -2.60516 -8.79425 0
M  V30 24139 O 3297.74 -1.82663 -8.44573 0
M  V30 24140 C 3300.01 -2.10343 -8.03628 0
M  V30 24141 O 3300.75 -1.09919 -8.67766 0
M  V30 24142 C 3299.34 -1.68446 -6.70876 0
M  V30 24143 O 3300.14 -0.684109 -6.08265 0
M  V30 24144 C 3298.01 -1.17436 -7.18567 0
M  V30 24145 N 3296.96 -1.52699 -6.23988 0
M  V30 24146 C 3297.13 -2.578 -5.40574 0
M  V30 24147 N 3296.11 -2.78966 -4.61193 0
M  V30 24148 C 3295.22 -1.78725 -4.95769 0
M  V30 24149 C 3293.95 -1.45727 -4.44207 0
M  V30 24150 N 3293.35 -2.13994 -3.43613 0
M  V30 24151 N 3293.39 -0.374977 -5.05812 0
M  V30 24152 C 3293.99 0.345585 -6.05615 0
M  V30 24153 N 3295.17 0.0787651 -6.56253 0
M  V30 24154 C 3295.74 -1.00499 -5.96189 0
M  V30 24155 H 3298.04 -0.0804622 -7.31556 0
M  V30 24156 H 3299.22 -2.53396 -6.02698 0
M  V30 24157 H 3300.7 -2.93881 -7.85526 0
M  V30 24158 H 3299.01 -2.52078 -9.87225 0
M  V30 24159 H 3298.82 -4.75072 -9.05887 0
M  V30 24160 H 3297.19 -4.05244 -8.76668 0
M  V30 24161 H 3293.45 1.20098 -6.4532 0
M  V30 24162 H 3298.03 -3.18977 -5.3945 0
M  V30 24163 H 3292.42 -1.84983 -3.10004 0
M  V30 24164 H 3293.83 -2.9465 -3.00843 0
M  V30 24165 H 3299.83 0.177619 -6.34151 0
M  V30 24166 P 3301.69 -1.25109 -8.70152 0
M  V30 24167 O 3303.11 -1.29744 -9.22016 0
M  V30 24168 O 3301.33 -2.13714 -7.55141 0
M  V30 24169 O 3301.36 0.248149 -8.21425 0
M  V30 24170 C 3301.2 1.22779 -9.30434 0
M  V30 24171 C 3301.74 2.56293 -8.80664 0
M  V30 24172 O 3300.69 3.02979 -8.09349 0
M  V30 24173 C 3302.96 2.57523 -7.89775 0
M  V30 24174 O 3303.7 3.7668 -7.89438 0
M  V30 24175 C 3302.29 2.20997 -6.55446 0
M  V30 24176 O 3303.09 2.71895 -5.48509 0
M  V30 24177 C 3300.96 2.89693 -6.67988 0
M  V30 24178 H 3300.99 3.88793 -6.19859 0
M  V30 24179 H 3302.17 1.12046 -6.44229 0
M  V30 24180 H 3303.66 1.7746 -8.19711 0
M  V30 24181 H 3301.96 3.20706 -9.67112 0
M  V30 24182 H 3301.77 0.901032 -10.1892 0
M  V30 24183 H 3300.14 1.33049 -9.56592 0
M  V30 24184 H 3302.78 3.57847 -5.23962 0
M  V30 24185 P 3304.64 3.65191 -7.99657 0
M  V30 24186 O 3306.06 3.89332 -8.45794 0
M  V30 24187 O 3304.28 2.28472 -7.50807 0
M  V30 24188 O 3304.32 4.64972 -6.77611 0
M  V30 24189 C 3304.16 6.06319 -7.16352 0
M  V30 24190 C 3304.7 6.91731 -6.02299 0
M  V30 24191 O 3303.64 6.92449 -5.17064 0
M  V30 24192 C 3305.91 6.43627 -5.25174 0
M  V30 24193 O 3306.65 7.43686 -4.60469 0
M  V30 24194 C 3305.24 5.40275 -4.31916 0
M  V30 24195 O 3306.04 5.25279 -3.14438 0
M  V30 24196 C 3303.91 6.04847 -4.05327 0
M  V30 24197 H 3303.94 6.62195 -3.11261 0
M  V30 24198 H 3305.12 4.42556 -4.81383 0
M  V30 24199 H 3306.61 5.92458 -5.93643 0
M  V30 24200 H 3304.91 7.92655 -6.402 0
M  V30 24201 H 3304.72 6.26671 -8.0846 0
M  V30 24202 H 3303.09 6.29101 -7.32804 0
M  V30 24203 H 3305.73 5.84315 -2.47318 0
M  V30 24204 P 3307.59 7.39546 -4.75277 0
M  V30 24205 O 3309.01 7.84798 -5.01039 0
M  V30 24206 O 3307.23 5.9812 -5.08098 0
M  V30 24207 O 3307.27 7.57503 -3.1866 0
M  V30 24208 C 3307.11 8.97357 -2.74833 0
M  V30 24209 C 3307.65 9.07548 -1.32709 0
M  V30 24210 O 3306.59 8.62072 -0.606159 0
M  V30 24211 C 3308.86 8.25383 -0.938334 0
M  V30 24212 O 3309.6 8.74577 0.146954 0
M  V30 24213 C 3308.19 6.8802 -0.712559 0
M  V30 24214 O 3308.99 6.1189 0.194655 0
M  V30 24215 C 3306.86 7.27966 -0.139777 0
M  V30 24216 H 3306.89 7.25354 0.961601 0
M  V30 24217 H 3308.07 6.32557 -1.65702 0
M  V30 24218 H 3309.56 8.19355 -1.79097 0
M  V30 24219 H 3307.86 10.1294 -1.10029 0
M  V30 24220 H 3307.67 9.64276 -3.41316 0
M  V30 24221 H 3306.04 9.25417 -2.76357 0
M  V30 24222 H 3308.68 6.25267 1.07847 0
M  V30 24223 P 3310.54 8.791 -8.32965e-11 0
M  V30 24224 O 3311.96 9.31096 0.027933 0
M  V30 24225 O 3310.18 7.77869 -1.04071 0
M  V30 24226 O 3310.22 8.09533 1.41463 0
M  V30 24227 C 3310.06 9.0349 2.53943 0
M  V30 24228 C 3310.6 8.35226 3.79016 0
M  V30 24229 O 3309.54 7.57992 4.15078 0
M  V30 24230 C 3311.81 7.45087 3.67298 0
M  V30 24231 O 3312.55 7.27796 4.85194 0
M  V30 24232 C 3311.15 6.17323 3.12027 0
M  V30 24233 O 3311.94 5.04231 3.47188 0
M  V30 24234 C 3309.81 6.19961 3.81809 0
M  V30 24235 H 3309.84 5.58218 4.73051 0
M  V30 24236 H 3311.02 6.21726 2.02589 0
M  V30 24237 H 3312.51 7.86112 2.9231 0
M  V30 24238 H 3310.81 9.11627 4.55076 0
M  V30 24239 H 3310.62 9.9573 2.34194 0
M  V30 24240 H 3308.99 9.2792 2.67832 0
M  V30 24241 H 3311.63 4.67702 4.28772 0
M  V30 24242 P 3313.49 7.39546 4.75277 0
M  V30 24243 O 3314.91 7.81945 5.05847 0
M  V30 24244 O 3313.13 7.1065 3.32998 0
M  V30 24245 O 3313.17 6.04542 5.56673 0
M  V30 24246 C 3313.01 6.22772 7.02095 0
M  V30 24247 C 3313.55 4.97671 7.70322 0
M  V30 24248 O 3312.49 4.13256 7.58987 0
M  V30 24249 C 3314.77 4.28231 7.11815 0
M  V30 24250 O 3315.5 3.49945 8.01648 0
M  V30 24251 C 3314.1 3.5063 5.96244 0
M  V30 24252 O 3314.9 2.36443 5.64589 0
M  V30 24253 C 3312.76 3.15122 6.56374 0
M  V30 24254 N 3311.72 3.22311 5.55692 0
M  V30 24255 C 3311.78 4.14382 4.59701 0
M  V30 24256 N 3310.73 4.04476 3.76958 0
M  V30 24257 C 3310 3.04892 4.26534 0
M  V30 24258 C 3308.69 2.57447 3.88189 0
M  V30 24259 O 3307.96 2.9785 2.96543 0
M  V30 24260 N 3308.26 1.55228 4.65922 0
M  V30 24261 C 3309.01 1.01152 5.73447 0
M  V30 24262 N 3308.42 -0.0472117 6.37783 0
M  V30 24263 N 3310.17 1.467 6.13813 0
M  V30 24264 C 3310.62 2.4931 5.38487 0
M  V30 24265 H 3312.79 2.13853 6.99751 0
M  V30 24266 H 3313.97 4.13438 5.06482 0
M  V30 24267 H 3315.46 5.02614 6.71414 0
M  V30 24268 H 3313.76 5.20877 8.75697 0
M  V30 24269 H 3313.57 7.11046 7.35349 0
M  V30 24270 H 3311.94 6.35815 7.26986 0
M  V30 24271 H 3307.37 1.15238 4.46468 0
M  V30 24272 H 3312.57 4.88312 4.49647 0
M  V30 24273 H 3307.5 -0.396382 6.05203 0
M  V30 24274 H 3308.88 -0.484997 7.18465 0
M  V30 24275 H 3314.58 1.61619 6.13468 0
M  V30 24276 P 3316.44 3.65191 7.99657 0
M  V30 24277 O 3317.86 3.84292 8.48206 0
M  V30 24278 O 3316.08 4.17805 6.64342 0
M  V30 24279 O 3316.12 2.07613 7.95143 0
M  V30 24280 C 3315.96 1.44344 9.27435 0
M  V30 24281 C 3316.5 0.0220036 9.17197 0
M  V30 24282 O 3315.44 -0.626794 8.61824 0
M  V30 24283 C 3317.72 -0.24586 8.30336 0
M  V30 24284 O 3318.45 -1.39011 8.63583 0
M  V30 24285 C 3317.05 -0.273849 6.91158 0
M  V30 24286 O 3317.85 -1.05728 6.029 0
M  V30 24287 C 3315.71 -0.897649 7.22545 0
M  V30 24288 N 3314.67 -0.292839 6.41732 0
M  V30 24289 C 3314.84 0.950603 5.91308 0
M  V30 24290 N 3313.81 1.37732 5.21105 0
M  V30 24291 C 3312.92 0.318109 5.26039 0
M  V30 24292 C 3311.66 0.146766 4.6727 0
M  V30 24293 N 3311.09 -1.06525 4.95887 0
M  V30 24294 C 3311.69 -2.0378 5.71347 0
M  V30 24295 N 3312.87 -1.92445 6.27451 0
M  V30 24296 C 3313.45 -0.715382 6.00353 0
M  V30 24297 H 3316.92 0.733318 6.49674 0
M  V30 24298 H 3318.41 0.60668 8.36503 0
M  V30 24299 H 3316.71 -0.362662 10.1825 0
M  V30 24300 H 3316.52 2.00611 10.0304 0
M  V30 24301 H 3314.89 1.41843 9.55327 0
M  V30 24302 H 3315.74 1.54076 6.07465 0
M  V30 24303 H 3317.53 -1.95704 6.0346 0
M  V30 24304 P 3319.39 -1.25109 8.70152 0
M  V30 24305 O 3320.81 -1.35274 9.21221 0
M  V30 24306 O 3319.03 -0.0769065 7.84762 0
M  V30 24307 O 3319.07 -2.55232 7.81161 0
M  V30 24308 C 3318.91 -3.79939 8.58154 0
M  V30 24309 C 3319.45 -4.94023 7.72785 0
M  V30 24310 O 3318.39 -5.18726 6.91205 0
M  V30 24311 C 3320.67 -4.69597 6.85231 0
M  V30 24312 O 3321.4 -5.83832 6.51337 0
M  V30 24313 C 3320 -3.96706 5.66633 0
M  V30 24314 O 3320.8 -4.15414 4.49689 0
M  V30 24315 C 3318.66 -4.66153 5.59313 0
M  V30 24316 H 3318.69 -5.47679 4.85214 0
M  V30 24317 H 3319.88 -2.89008 5.86566 0
M  V30 24318 H 3321.36 -4.0121 7.36511 0
M  V30 24319 H 3319.67 -5.80182 8.37584 0
M  V30 24320 H 3319.48 -3.73517 9.52265 0
M  V30 24321 H 3317.85 -3.97163 8.80359 0
M  V30 24322 H 3320.48 -4.90969 4.01921 0
M  V30 24323 P 3322.34 -5.75688 6.64379 0
M  V30 24324 O 3323.76 -6.11849 7.01846 0
M  V30 24325 O 3321.98 -4.30744 6.56026 0
M  V30 24326 O 3322.02 -6.37042 5.19165 0
M  V30 24327 C 3321.86 -7.83578 5.16515 0
M  V30 24328 C 3322.4 -8.33398 3.83019 0
M  V30 24329 O 3321.34 -8.10074 3.01034 0
M  V30 24330 C 3323.62 -7.65514 3.2257 0
M  V30 24331 O 3324.35 -8.4329 2.32297 0
M  V30 24332 C 3322.95 -6.40075 2.62207 0
M  V30 24333 O 3323.75 -5.92589 1.53712 0
M  V30 24334 C 3321.61 -6.9454 2.18503 0
M  V30 24335 H 3321.64 -7.23063 1.12091 0
M  V30 24336 H 3322.83 -5.6025 3.37201 0
M  V30 24337 H 3324.31 -7.35707 4.02681 0
M  V30 24338 H 3322.62 -9.40912 3.9095 0
M  V30 24339 H 3322.43 -8.29056 5.99158 0
M  V30 24340 H 3320.8 -8.10073 5.25882 0
M  V30 24341 H 3323.43 -6.30324 0.726794 0
M  V30 24342 P 3325.29 -8.4349 2.47671 0
M  V30 24343 O 3326.71 -8.94167 2.5964 0
M  V30 24344 O 3324.93 -7.1704 3.19006 0
M  V30 24345 O 3324.97 -8.16596 0.923387 0
M  V30 24346 C 3324.81 -9.38437 0.108857 0
M  V30 24347 C 3325.35 -9.08175 -1.28353 0
M  V30 24348 O 3324.29 -8.44229 -1.84713 0
M  V30 24349 C 3326.57 -8.18386 -1.42505 0
M  V30 24350 O 3327.31 -8.3501 -2.60497 0
M  V30 24351 C 3325.9 -6.80225 -1.25468 0
M  V30 24352 O 3326.7 -5.81621 -1.91066 0
M  V30 24353 C 3324.56 -7.02416 -1.9168 0
M  V30 24354 H 3324.59 -6.6888 -2.96621 0
M  V30 24355 H 3325.78 -6.53617 -0.192223 0
M  V30 24356 H 3327.26 -8.36622 -0.589963 0
M  V30 24357 H 3325.57 -10.0291 -1.79807 0
M  V30 24358 H 3325.38 -10.2138 0.558219 0
M  V30 24359 H 3323.75 -9.6579 0.0444202 0
M  V30 24360 H 3326.39 -5.69556 -2.79637 0
M  V30 24361 P 3328.24 -8.4349 -2.47671 0
M  V30 24362 O 3329.66 -8.92785 -2.65057 0
M  V30 24363 O 3327.88 -7.7568 -1.19296 0
M  V30 24364 O 3327.92 -7.36886 -3.63805 0
M  V30 24365 C 3327.76 -7.95349 -4.982 0
M  V30 24366 C 3328.3 -6.94537 -5.98908 0
M  V30 24367 O 3327.24 -6.10347 -6.11815 0
M  V30 24368 C 3329.52 -6.11426 -5.62335 0
M  V30 24369 O 3330.26 -5.6162 -6.70584 0
M  V30 24370 C 3328.85 -5.04409 -4.73308 0
M  V30 24371 O 3329.65 -3.85929 -4.75106 0
M  V30 24372 C 3327.51 -4.8728 -5.41006 0
M  V30 24373 N 3326.47 -4.65812 -4.42377 0
M  V30 24374 C 3326.53 -5.27109 -3.24335 0
M  V30 24375 N 3325.49 -4.94293 -2.47735 0
M  V30 24376 C 3324.75 -4.1271 -3.23359 0
M  V30 24377 C 3323.45 -3.56384 -2.99934 0
M  V30 24378 O 3322.71 -3.69331 -2.00616 0
M  V30 24379 N 3323.02 -2.80206 -4.03316 0
M  V30 24380 C 3323.76 -2.58614 -5.2172 0
M  V30 24381 N 3323.17 -1.75154 -6.13278 0
M  V30 24382 N 3324.92 -3.13689 -5.47619 0
M  V30 24383 C 3325.37 -3.90921 -4.46436 0
M  V30 24384 H 3327.54 -4.02333 -6.11157 0
M  V30 24385 H 3328.73 -5.39383 -3.69487 0
M  V30 24386 H 3330.21 -6.71414 -5.02615 0
M  V30 24387 H 3328.52 -7.4649 -6.93477 0
M  V30 24388 H 3328.33 -8.89416 -5.05237 0
M  V30 24389 H 3326.7 -8.14876 -5.18409 0
M  V30 24390 H 3322.12 -2.36355 -3.95916 0
M  V30 24391 H 3327.33 -5.95212 -2.93859 0
M  V30 24392 H 3322.26 -1.32473 -5.91856 0
M  V30 24393 H 3323.63 -1.5588 -7.03026 0
M  V30 24394 H 3329.34 -3.27906 -5.43085 0
M  V30 24395 P 3331.19 -5.75688 -6.64379 0
M  V30 24396 O 3332.61 -6.07692 -7.0558 0
M  V30 24397 O 3330.83 -5.88047 -5.19722 0
M  V30 24398 O 3330.87 -4.2322 -7.04443 0
M  V30 24399 C 3330.71 -3.99785 -8.49201 0
M  V30 24400 C 3331.25 -2.60516 -8.79425 0
M  V30 24401 O 3330.2 -1.82663 -8.44573 0
M  V30 24402 C 3332.47 -2.10343 -8.03628 0
M  V30 24403 O 3333.21 -1.09919 -8.67766 0
M  V30 24404 C 3331.8 -1.68446 -6.70876 0
M  V30 24405 O 3332.6 -0.684109 -6.08265 0
M  V30 24406 C 3330.46 -1.17436 -7.18567 0
M  V30 24407 N 3329.42 -1.52699 -6.23988 0
M  V30 24408 C 3329.59 -2.578 -5.40574 0
M  V30 24409 N 3328.56 -2.78966 -4.61193 0
M  V30 24410 C 3327.68 -1.78725 -4.95769 0
M  V30 24411 C 3326.41 -1.45727 -4.44207 0
M  V30 24412 N 3325.81 -2.13994 -3.43613 0
M  V30 24413 N 3325.84 -0.374977 -5.05812 0
M  V30 24414 C 3326.45 0.345585 -6.05615 0
M  V30 24415 N 3327.62 0.0787651 -6.56253 0
M  V30 24416 C 3328.2 -1.00499 -5.96189 0
M  V30 24417 H 3330.49 -0.0804622 -7.31556 0
M  V30 24418 H 3331.68 -2.53396 -6.02698 0
M  V30 24419 H 3333.16 -2.93881 -7.85526 0
M  V30 24420 H 3331.47 -2.52078 -9.87225 0
M  V30 24421 H 3331.28 -4.75072 -9.05887 0
M  V30 24422 H 3329.65 -4.05244 -8.76668 0
M  V30 24423 H 3325.91 1.20098 -6.4532 0
M  V30 24424 H 3330.49 -3.18977 -5.3945 0
M  V30 24425 H 3324.88 -1.84983 -3.10004 0
M  V30 24426 H 3326.28 -2.9465 -3.00843 0
M  V30 24427 H 3332.29 0.177619 -6.34151 0
M  V30 24428 P 3334.14 -1.25109 -8.70152 0
M  V30 24429 O 3335.57 -1.29744 -9.22016 0
M  V30 24430 O 3333.78 -2.13714 -7.55141 0
M  V30 24431 O 3333.82 0.248149 -8.21425 0
M  V30 24432 C 3333.66 1.22779 -9.30434 0
M  V30 24433 C 3334.2 2.56293 -8.80664 0
M  V30 24434 O 3333.15 3.02979 -8.09349 0
M  V30 24435 C 3335.42 2.57523 -7.89775 0
M  V30 24436 O 3336.16 3.7668 -7.89438 0
M  V30 24437 C 3334.75 2.20997 -6.55446 0
M  V30 24438 O 3335.55 2.71895 -5.48509 0
M  V30 24439 C 3333.41 2.89693 -6.67988 0
M  V30 24440 H 3333.45 3.88793 -6.19859 0
M  V30 24441 H 3334.63 1.12046 -6.44229 0
M  V30 24442 H 3336.11 1.7746 -8.19711 0
M  V30 24443 H 3334.42 3.20706 -9.67112 0
M  V30 24444 H 3334.23 0.901032 -10.1892 0
M  V30 24445 H 3332.6 1.33049 -9.56592 0
M  V30 24446 H 3335.24 3.57847 -5.23962 0
M  V30 24447 P 3337.09 3.65191 -7.99657 0
M  V30 24448 O 3338.52 3.89332 -8.45794 0
M  V30 24449 O 3336.73 2.28472 -7.50807 0
M  V30 24450 O 3336.77 4.64972 -6.77611 0
M  V30 24451 C 3336.61 6.06319 -7.16352 0
M  V30 24452 C 3337.15 6.91731 -6.02299 0
M  V30 24453 O 3336.1 6.92449 -5.17064 0
M  V30 24454 C 3338.37 6.43627 -5.25174 0
M  V30 24455 O 3339.11 7.43686 -4.60469 0
M  V30 24456 C 3337.7 5.40275 -4.31916 0
M  V30 24457 O 3338.5 5.25279 -3.14438 0
M  V30 24458 C 3336.36 6.04847 -4.05327 0
M  V30 24459 H 3336.4 6.62195 -3.11261 0
M  V30 24460 H 3337.58 4.42556 -4.81383 0
M  V30 24461 H 3339.06 5.92458 -5.93643 0
M  V30 24462 H 3337.37 7.92655 -6.402 0
M  V30 24463 H 3337.18 6.26671 -8.0846 0
M  V30 24464 H 3335.55 6.29101 -7.32804 0
M  V30 24465 H 3338.19 5.84315 -2.47318 0
M  V30 24466 P 3340.05 7.39546 -4.75277 0
M  V30 24467 O 3341.47 7.84798 -5.01039 0
M  V30 24468 O 3339.69 5.9812 -5.08098 0
M  V30 24469 O 3339.72 7.57503 -3.1866 0
M  V30 24470 C 3339.56 8.97357 -2.74833 0
M  V30 24471 C 3340.1 9.07548 -1.32709 0
M  V30 24472 O 3339.05 8.62072 -0.606159 0
M  V30 24473 C 3341.32 8.25383 -0.938334 0
M  V30 24474 O 3342.06 8.74577 0.146954 0
M  V30 24475 C 3340.65 6.8802 -0.712559 0
M  V30 24476 O 3341.45 6.1189 0.194655 0
M  V30 24477 C 3339.31 7.27966 -0.139777 0
M  V30 24478 H 3339.35 7.25354 0.961601 0
M  V30 24479 H 3340.53 6.32557 -1.65702 0
M  V30 24480 H 3342.01 8.19355 -1.79097 0
M  V30 24481 H 3340.32 10.1294 -1.10029 0
M  V30 24482 H 3340.13 9.64276 -3.41316 0
M  V30 24483 H 3338.5 9.25417 -2.76357 0
M  V30 24484 H 3341.14 6.25267 1.07847 0
M  V30 24485 P 3343 8.791 -8.84831e-11 0
M  V30 24486 O 3344.4 9.36698 -0.018734 0
M  V30 24487 O 3342.62 7.82499 -1.07878 0
M  V30 24488 O 3342.67 8.09434 1.41446 0
M  V30 24489 C 3342.51 9.0349 2.53943 0
M  V30 24490 C 3343.05 8.35135 3.78975 0
M  V30 24491 O 3342 7.57904 4.1503 0
M  V30 24492 C 3344.27 7.45087 3.67298 0
M  V30 24493 O 3345.01 7.27796 4.85194 0
M  V30 24494 C 3343.6 6.17323 3.12027 0
M  V30 24495 O 3344.4 5.04149 3.47132 0
M  V30 24496 C 3342.26 6.19961 3.81809 0
M  V30 24497 N 3341.22 5.71575 2.93223 0
M  V30 24498 C 3340.19 4.99452 3.47592 0
M  V30 24499 O 3340.23 4.7199 4.69732 0
M  V30 24500 N 3339.17 4.58505 2.6803 0
M  V30 24501 C 3339.22 4.85544 1.36995 0
M  V30 24502 N 3338.21 4.45052 0.609031 0
M  V30 24503 C 3340.32 5.55532 0.788532 0
M  V30 24504 C 3341.28 5.97426 1.60849 0
M  V30 24505 H 3342.3 5.58142 4.72986 0
M  V30 24506 H 3343.48 6.21428 2.0318 0
M  V30 24507 H 3344.96 7.85913 2.93131 0
M  V30 24508 H 3343.27 9.11171 4.55987 0
M  V30 24509 H 3343.08 9.9573 2.34194 0
M  V30 24510 H 3341.45 9.27824 2.67805 0
M  V30 24511 H 3340.37 5.7421 -0.281588 0
M  V30 24512 H 3342.13 6.53132 1.202 0
M  V30 24513 H 3337.42 3.94123 1.03159 0
M  V30 24514 H 3338.22 4.64377 -0.400352 0
M  V30 24515 H 3344.18 4.76386 4.34983 0
M  V30 24516 P 3345.95 7.39546 4.75277 0
M  V30 24517 O 3347.37 7.81777 5.05738 0
M  V30 24518 O 3345.59 7.1065 3.32998 0
M  V30 24519 O 3345.62 6.04542 5.56673 0
M  V30 24520 C 3345.46 6.22772 7.02095 0
M  V30 24521 C 3346 4.97725 7.70406 0
M  V30 24522 O 3344.95 4.13256 7.58987 0
M  V30 24523 C 3347.22 4.28231 7.11815 0
M  V30 24524 O 3347.96 3.49945 8.01648 0
M  V30 24525 C 3346.55 3.5063 5.96244 0
M  V30 24526 O 3347.35 2.36482 5.64681 0
M  V30 24527 C 3345.22 3.15122 6.56374 0
M  V30 24528 H 3345.25 2.13853 6.99751 0
M  V30 24529 H 3346.43 4.13501 5.06559 0
M  V30 24530 H 3347.91 5.03285 6.70911 0
M  V30 24531 H 3346.22 5.20877 8.75697 0
M  V30 24532 H 3346.03 7.11046 7.35349 0
M  V30 24533 H 3344.4 6.35815 7.26986 0
M  V30 24534 H 3347.04 1.61644 6.13565 0
M  V30 24535 P 3348.9 3.65191 7.99657 0
M  V30 24536 O 3350.32 3.8425 8.48115 0
M  V30 24537 O 3348.54 4.17805 6.64342 0
M  V30 24538 O 3348.57 2.07613 7.95143 0
M  V30 24539 C 3348.41 1.44328 9.27336 0
M  V30 24540 C 3348.95 0.0220036 9.17197 0
M  V30 24541 O 3347.9 -0.626867 8.61923 0
M  V30 24542 C 3350.17 -0.24586 8.30336 0
M  V30 24543 O 3350.91 -1.39011 8.63583 0
M  V30 24544 C 3349.5 -0.273849 6.91158 0
M  V30 24545 O 3350.3 -1.06348 6.02892 0
M  V30 24546 C 3348.17 -0.897649 7.22545 0
M  V30 24547 H 3348.2 -1.9841 7.04286 0
M  V30 24548 H 3349.38 0.739928 6.497 0
M  V30 24549 H 3350.86 0.60668 8.36503 0
M  V30 24550 H 3349.17 -0.352479 10.1829 0
M  V30 24551 H 3348.98 2.00611 10.0304 0
M  V30 24552 H 3347.35 1.41843 9.55327 0
M  V30 24553 H 3349.99 -1.95734 6.03555 0
M  V30 24554 P 3351.85 -1.25109 8.70152 0
M  V30 24555 O 3353.27 -1.35274 9.21221 0
M  V30 24556 O 3351.49 -0.0769065 7.84762 0
M  V30 24557 O 3351.52 -2.55232 7.81161 0
M  V30 24558 C 3351.36 -3.79939 8.58154 0
M  V30 24559 C 3351.9 -4.94023 7.72785 0
M  V30 24560 O 3350.85 -5.18726 6.91205 0
M  V30 24561 C 3353.12 -4.69597 6.85231 0
M  V30 24562 O 3353.86 -5.83832 6.51337 0
M  V30 24563 C 3352.45 -3.96706 5.66633 0
M  V30 24564 O 3353.25 -4.15414 4.49689 0
M  V30 24565 C 3351.12 -4.66153 5.59313 0
M  V30 24566 H 3351.15 -5.47679 4.85214 0
M  V30 24567 H 3352.33 -2.89008 5.86566 0
M  V30 24568 H 3353.82 -4.0121 7.36511 0
M  V30 24569 H 3352.12 -5.80182 8.37584 0
M  V30 24570 H 3351.93 -3.73517 9.52265 0
M  V30 24571 H 3350.3 -3.97163 8.80359 0
M  V30 24572 H 3352.94 -4.90969 4.01921 0
M  V30 24573 P 3354.8 -5.75688 6.64379 0
M  V30 24574 O 3356.22 -6.11849 7.01846 0
M  V30 24575 O 3354.44 -4.30744 6.56026 0
M  V30 24576 O 3354.48 -6.37042 5.19165 0
M  V30 24577 C 3354.32 -7.83578 5.16515 0
M  V30 24578 C 3354.86 -8.33398 3.83019 0
M  V30 24579 O 3353.8 -8.10074 3.01034 0
M  V30 24580 C 3356.07 -7.65514 3.2257 0
M  V30 24581 O 3356.81 -8.4329 2.32297 0
M  V30 24582 C 3355.4 -6.40075 2.62207 0
M  V30 24583 O 3356.2 -5.92589 1.53712 0
M  V30 24584 C 3354.07 -6.9454 2.18503 0
M  V30 24585 H 3354.1 -7.23063 1.12091 0
M  V30 24586 H 3355.28 -5.6025 3.37201 0
M  V30 24587 H 3356.77 -7.35707 4.02681 0
M  V30 24588 H 3355.07 -9.40912 3.9095 0
M  V30 24589 H 3354.88 -8.29056 5.99158 0
M  V30 24590 H 3353.25 -8.10073 5.25882 0
M  V30 24591 H 3355.89 -6.30324 0.726794 0
M  V30 24592 P 3357.75 -8.4349 2.47671 0
M  V30 24593 O 3359.17 -8.94167 2.5964 0
M  V30 24594 O 3357.39 -7.1704 3.19006 0
M  V30 24595 O 3357.43 -8.16596 0.923387 0
M  V30 24596 C 3357.27 -9.38437 0.108857 0
M  V30 24597 C 3357.81 -9.08175 -1.28353 0
M  V30 24598 O 3356.75 -8.44229 -1.84713 0
M  V30 24599 C 3359.02 -8.18386 -1.42505 0
M  V30 24600 O 3359.76 -8.3501 -2.60497 0
M  V30 24601 C 3358.35 -6.80225 -1.25468 0
M  V30 24602 O 3359.15 -5.81621 -1.91066 0
M  V30 24603 C 3357.02 -7.02416 -1.9168 0
M  V30 24604 H 3357.05 -6.6888 -2.96621 0
M  V30 24605 H 3358.23 -6.53617 -0.192223 0
M  V30 24606 H 3359.72 -8.36622 -0.589963 0
M  V30 24607 H 3358.02 -10.0291 -1.79807 0
M  V30 24608 H 3357.83 -10.2138 0.558219 0
M  V30 24609 H 3356.2 -9.6579 0.0444202 0
M  V30 24610 H 3358.84 -5.69556 -2.79637 0
M  V30 24611 P 3360.7 -8.4349 -2.47671 0
M  V30 24612 O 3362.12 -8.92593 -2.65 0
M  V30 24613 O 3360.34 -7.7568 -1.19296 0
M  V30 24614 O 3360.38 -7.36886 -3.63805 0
M  V30 24615 C 3360.22 -7.95349 -4.982 0
M  V30 24616 C 3360.76 -6.94612 -5.98974 0
M  V30 24617 O 3359.7 -6.10347 -6.11815 0
M  V30 24618 C 3361.97 -6.11426 -5.62335 0
M  V30 24619 O 3362.71 -5.6162 -6.70584 0
M  V30 24620 C 3361.31 -5.04409 -4.73308 0
M  V30 24621 O 3362.1 -3.85992 -4.75183 0
M  V30 24622 C 3359.97 -4.8728 -5.41006 0
M  V30 24623 H 3360 -4.02333 -6.11157 0
M  V30 24624 H 3361.18 -5.39466 -3.69543 0
M  V30 24625 H 3362.67 -6.71916 -5.01943 0
M  V30 24626 H 3360.97 -7.4649 -6.93477 0
M  V30 24627 H 3360.78 -8.89416 -5.05237 0
M  V30 24628 H 3359.15 -8.14876 -5.18409 0
M  V30 24629 H 3361.79 -3.27957 -5.4317 0
M  V30 24630 P 3363.65 -5.75688 -6.64379 0
M  V30 24631 O 3365.07 -6.07627 -7.05504 0
M  V30 24632 O 3363.29 -5.88047 -5.19722 0
M  V30 24633 O 3363.33 -4.2322 -7.04443 0
M  V30 24634 C 3363.17 -3.99743 -8.4911 0
M  V30 24635 C 3363.71 -2.60516 -8.79425 0
M  V30 24636 O 3362.65 -1.82684 -8.4467 0
M  V30 24637 C 3364.92 -2.10343 -8.03628 0
M  V30 24638 O 3365.66 -1.09919 -8.67766 0
M  V30 24639 C 3364.26 -1.68446 -6.70876 0
M  V30 24640 O 3365.05 -0.678137 -6.08433 0
M  V30 24641 C 3362.92 -1.17436 -7.18567 0
M  V30 24642 H 3362.95 -0.0804732 -7.31656 0
M  V30 24643 H 3364.13 -2.54037 -6.02537 0
M  V30 24644 H 3365.62 -2.93881 -7.85526 0
M  V30 24645 H 3363.92 -2.53065 -9.86973 0
M  V30 24646 H 3363.73 -4.75072 -9.05887 0
M  V30 24647 H 3362.1 -4.05244 -8.76668 0
M  V30 24648 H 3364.74 0.177647 -6.34251 0
M  V30 24649 P 3366.6 -1.25109 -8.70152 0
M  V30 24650 O 3368.02 -1.29744 -9.22016 0
M  V30 24651 O 3366.24 -2.13714 -7.55141 0
M  V30 24652 O 3366.28 0.248149 -8.21425 0
M  V30 24653 C 3366.12 1.22779 -9.30434 0
M  V30 24654 C 3366.66 2.56293 -8.80664 0
M  V30 24655 O 3365.6 3.02979 -8.09349 0
M  V30 24656 C 3367.88 2.57523 -7.89775 0
M  V30 24657 O 3368.61 3.7668 -7.89438 0
M  V30 24658 C 3367.21 2.20997 -6.55446 0
M  V30 24659 O 3368.01 2.71895 -5.48509 0
M  V30 24660 C 3365.87 2.89693 -6.67988 0
M  V30 24661 H 3365.9 3.88793 -6.19859 0
M  V30 24662 H 3367.08 1.12046 -6.44229 0
M  V30 24663 H 3368.57 1.7746 -8.19711 0
M  V30 24664 H 3366.87 3.20706 -9.67112 0
M  V30 24665 H 3366.68 0.901032 -10.1892 0
M  V30 24666 H 3365.05 1.33049 -9.56592 0
M  V30 24667 H 3367.69 3.57847 -5.23962 0
M  V30 24668 P 3369.55 3.65191 -7.99657 0
M  V30 24669 O 3370.97 3.89332 -8.45794 0
M  V30 24670 O 3369.19 2.28472 -7.50807 0
M  V30 24671 O 3369.23 4.64972 -6.77611 0
M  V30 24672 C 3369.07 6.06319 -7.16352 0
M  V30 24673 C 3369.61 6.91731 -6.02299 0
M  V30 24674 O 3368.55 6.92449 -5.17064 0
M  V30 24675 C 3370.83 6.43627 -5.25174 0
M  V30 24676 O 3371.56 7.43686 -4.60469 0
M  V30 24677 C 3370.16 5.40275 -4.31916 0
M  V30 24678 O 3370.96 5.25279 -3.14438 0
M  V30 24679 C 3368.82 6.04847 -4.05327 0
M  V30 24680 H 3368.85 6.62195 -3.11261 0
M  V30 24681 H 3370.03 4.42556 -4.81383 0
M  V30 24682 H 3371.52 5.92458 -5.93643 0
M  V30 24683 H 3369.82 7.92655 -6.402 0
M  V30 24684 H 3369.63 6.26671 -8.0846 0
M  V30 24685 H 3368 6.29101 -7.32804 0
M  V30 24686 H 3370.64 5.84315 -2.47318 0
M  V30 24687 P 3372.5 7.39546 -4.75277 0
M  V30 24688 O 3373.92 7.84798 -5.01039 0
M  V30 24689 O 3372.14 5.9812 -5.08098 0
M  V30 24690 O 3372.18 7.57503 -3.1866 0
M  V30 24691 C 3372.02 8.97357 -2.74833 0
M  V30 24692 C 3372.56 9.07548 -1.32709 0
M  V30 24693 O 3371.5 8.62072 -0.606159 0
M  V30 24694 C 3373.78 8.25383 -0.938334 0
M  V30 24695 O 3374.51 8.74577 0.146954 0
M  V30 24696 C 3373.11 6.8802 -0.712559 0
M  V30 24697 O 3373.91 6.1189 0.194655 0
M  V30 24698 C 3371.77 7.27966 -0.139777 0
M  V30 24699 H 3371.8 7.25354 0.961601 0
M  V30 24700 H 3372.99 6.32557 -1.65702 0
M  V30 24701 H 3374.47 8.19355 -1.79097 0
M  V30 24702 H 3372.78 10.1294 -1.10029 0
M  V30 24703 H 3372.59 9.64276 -3.41316 0
M  V30 24704 H 3370.96 9.25417 -2.76357 0
M  V30 24705 H 3373.59 6.25267 1.07847 0
M  V30 24706 P 3375.45 8.791 -9.36698e-11 0
M  V30 24707 O 3376.87 9.31096 0.027933 0
M  V30 24708 O 3375.09 7.77869 -1.04071 0
M  V30 24709 O 3375.13 8.09533 1.41463 0
M  V30 24710 C 3374.97 9.0349 2.53943 0
M  V30 24711 C 3375.51 8.35226 3.79016 0
M  V30 24712 O 3374.45 7.57992 4.15078 0
M  V30 24713 C 3376.73 7.45087 3.67298 0
M  V30 24714 O 3377.47 7.27796 4.85194 0
M  V30 24715 C 3376.06 6.17323 3.12027 0
M  V30 24716 O 3376.86 5.04231 3.47188 0
M  V30 24717 C 3374.72 6.19961 3.81809 0
M  V30 24718 H 3374.75 5.58218 4.73051 0
M  V30 24719 H 3375.94 6.21726 2.02589 0
M  V30 24720 H 3377.42 7.86112 2.9231 0
M  V30 24721 H 3375.73 9.11627 4.55076 0
M  V30 24722 H 3375.54 9.9573 2.34194 0
M  V30 24723 H 3373.91 9.2792 2.67832 0
M  V30 24724 H 3376.55 4.67702 4.28772 0
M  V30 24725 P 3378.4 7.39546 4.75277 0
M  V30 24726 O 3379.82 7.81777 5.05738 0
M  V30 24727 O 3378.04 7.1065 3.32998 0
M  V30 24728 O 3378.08 6.04542 5.56673 0
M  V30 24729 C 3377.92 6.22772 7.02095 0
M  V30 24730 C 3378.46 4.97725 7.70406 0
M  V30 24731 O 3377.4 4.13256 7.58987 0
M  V30 24732 C 3379.68 4.28231 7.11815 0
M  V30 24733 O 3380.42 3.49945 8.01648 0
M  V30 24734 C 3379.01 3.5063 5.96244 0
M  V30 24735 O 3379.81 2.36482 5.64681 0
M  V30 24736 C 3377.67 3.15122 6.56374 0
M  V30 24737 H 3377.7 2.13853 6.99751 0
M  V30 24738 H 3378.89 4.13501 5.06559 0
M  V30 24739 H 3380.37 5.03285 6.70911 0
M  V30 24740 H 3378.68 5.20877 8.75697 0
M  V30 24741 H 3378.49 7.11046 7.35349 0
M  V30 24742 H 3376.86 6.35815 7.26986 0
M  V30 24743 H 3379.5 1.61644 6.13565 0
M  V30 24744 P 3381.35 3.65191 7.99657 0
M  V30 24745 O 3382.75 3.90823 8.51272 0
M  V30 24746 O 3380.98 4.23191 6.66972 0
M  V30 24747 O 3381.03 2.07587 7.95046 0
M  V30 24748 C 3380.87 1.44328 9.27336 0
M  V30 24749 C 3381.41 0.0220012 9.17097 0
M  V30 24750 O 3380.35 -0.626794 8.61824 0
M  V30 24751 C 3382.63 -0.24586 8.30336 0
M  V30 24752 O 3383.37 -1.39011 8.63583 0
M  V30 24753 C 3381.96 -0.273849 6.91158 0
M  V30 24754 O 3382.76 -1.06331 6.02794 0
M  V30 24755 C 3380.62 -0.897649 7.22545 0
M  V30 24756 N 3379.58 -0.292839 6.41732 0
M  V30 24757 C 3378.54 -1.08701 5.98712 0
M  V30 24758 O 3378.58 -2.31211 6.24471 0
M  V30 24759 N 3377.53 -0.533391 5.28415 0
M  V30 24760 C 3377.58 0.770866 4.98576 0
M  V30 24761 C 3378.68 1.59049 5.38086 0
M  V30 24762 C 3379.64 1.01866 6.10256 0
M  V30 24763 H 3380.65 -1.98383 7.04189 0
M  V30 24764 H 3381.84 0.733318 6.49674 0
M  V30 24765 H 3383.32 0.598386 8.36663 0
M  V30 24766 H 3381.63 -0.362662 10.1825 0
M  V30 24767 H 3381.44 2.00611 10.0304 0
M  V30 24768 H 3379.81 1.41828 9.55228 0
M  V30 24769 H 3378.72 2.6415 5.10622 0
M  V30 24770 H 3380.49 1.61983 6.44042 0
M  V30 24771 H 3382.54 -1.97777 6.14035 0
M  V30 24772 P 3384.3 -1.25109 8.70152 0
M  V30 24773 O 3385.73 -1.35274 9.21221 0
M  V30 24774 O 3383.94 -0.0769065 7.84762 0
M  V30 24775 O 3383.98 -2.55232 7.81161 0
M  V30 24776 C 3383.82 -3.79939 8.58154 0
M  V30 24777 C 3384.36 -4.94023 7.72785 0
M  V30 24778 O 3383.3 -5.18726 6.91205 0
M  V30 24779 C 3385.58 -4.69597 6.85231 0
M  V30 24780 O 3386.32 -5.83832 6.51337 0
M  V30 24781 C 3384.91 -3.96706 5.66633 0
M  V30 24782 O 3385.71 -4.15414 4.49689 0
M  V30 24783 C 3383.57 -4.66153 5.59313 0
M  V30 24784 H 3383.6 -5.47679 4.85214 0
M  V30 24785 H 3384.79 -2.89008 5.86566 0
M  V30 24786 H 3386.27 -4.0121 7.36511 0
M  V30 24787 H 3384.58 -5.80182 8.37584 0
M  V30 24788 H 3384.39 -3.73517 9.52265 0
M  V30 24789 H 3382.76 -3.97163 8.80359 0
M  V30 24790 H 3385.4 -4.90969 4.01921 0
M  V30 24791 P 3387.25 -5.75688 6.64379 0
M  V30 24792 O 3388.68 -6.11849 7.01846 0
M  V30 24793 O 3386.89 -4.30744 6.56026 0
M  V30 24794 O 3386.93 -6.37042 5.19165 0
M  V30 24795 C 3386.77 -7.83578 5.16515 0
M  V30 24796 C 3387.31 -8.33398 3.83019 0
M  V30 24797 O 3386.26 -8.10074 3.01034 0
M  V30 24798 C 3388.53 -7.65514 3.2257 0
M  V30 24799 O 3389.27 -8.4329 2.32297 0
M  V30 24800 C 3387.86 -6.40075 2.62207 0
M  V30 24801 O 3388.66 -5.92589 1.53712 0
M  V30 24802 C 3386.52 -6.9454 2.18503 0
M  V30 24803 H 3386.56 -7.23063 1.12091 0
M  V30 24804 H 3387.74 -5.6025 3.37201 0
M  V30 24805 H 3389.22 -7.35707 4.02681 0
M  V30 24806 H 3387.53 -9.40912 3.9095 0
M  V30 24807 H 3387.34 -8.29056 5.99158 0
M  V30 24808 H 3385.71 -8.10073 5.25882 0
M  V30 24809 H 3388.35 -6.30324 0.726794 0
M  V30 24810 P 3390.2 -8.4349 2.47671 0
M  V30 24811 O 3391.61 -8.98227 2.65696 0
M  V30 24812 O 3389.83 -7.20409 3.23964 0
M  V30 24813 O 3389.88 -8.16496 0.923275 0
M  V30 24814 C 3389.72 -9.38437 0.108857 0
M  V30 24815 C 3390.26 -9.08076 -1.28339 0
M  V30 24816 O 3389.21 -8.44131 -1.84692 0
M  V30 24817 C 3391.48 -8.18386 -1.42505 0
M  V30 24818 O 3392.22 -8.3501 -2.60497 0
M  V30 24819 C 3390.81 -6.80225 -1.25468 0
M  V30 24820 O 3391.61 -5.81526 -1.91035 0
M  V30 24821 C 3389.47 -7.02416 -1.9168 0
M  V30 24822 N 3388.43 -6.31033 -1.20314 0
M  V30 24823 C 3387.4 -5.77149 -1.928 0
M  V30 24824 O 3387.43 -5.8521 -3.17729 0
M  V30 24825 N 3386.38 -5.15445 -1.27997 0
M  V30 24826 C 3386.43 -5.04472 0.0534726 0
M  V30 24827 N 3385.42 -4.44183 0.669496 0
M  V30 24828 C 3387.53 -5.55244 0.808522 0
M  V30 24829 C 3388.49 -6.18542 0.13981 0
M  V30 24830 H 3389.51 -6.68789 -2.9658 0
M  V30 24831 H 3390.69 -6.53498 -0.198729 0
M  V30 24832 H 3392.17 -8.36663 -0.5984 0
M  V30 24833 H 3390.48 -10.0273 -1.8081 0
M  V30 24834 H 3390.29 -10.2138 0.558219 0
M  V30 24835 H 3388.66 -9.6569 0.0444156 0
M  V30 24836 H 3387.58 -5.43017 1.88792 0
M  V30 24837 H 3389.34 -6.60539 0.686773 0
M  V30 24838 H 3384.63 -4.07222 0.12057 0
M  V30 24839 H 3385.43 -4.34288 1.69244 0
M  V30 24840 H 3391.39 -5.79638 -2.8315 0
M  V30 24841 P 3393.16 -8.4349 -2.47671 0
M  V30 24842 O 3394.58 -8.92593 -2.65 0
M  V30 24843 O 3392.8 -7.7568 -1.19296 0
M  V30 24844 O 3392.83 -7.36886 -3.63805 0
M  V30 24845 C 3392.67 -7.95349 -4.982 0
M  V30 24846 C 3393.21 -6.94612 -5.98974 0
M  V30 24847 O 3392.16 -6.10347 -6.11815 0
M  V30 24848 C 3394.43 -6.11426 -5.62335 0
M  V30 24849 O 3395.17 -5.6162 -6.70584 0
M  V30 24850 C 3393.76 -5.04409 -4.73308 0
M  V30 24851 O 3394.56 -3.85992 -4.75183 0
M  V30 24852 C 3392.42 -4.8728 -5.41006 0
M  V30 24853 H 3392.46 -4.02333 -6.11157 0
M  V30 24854 H 3393.64 -5.39466 -3.69543 0
M  V30 24855 H 3395.12 -6.71916 -5.01943 0
M  V30 24856 H 3393.43 -7.4649 -6.93477 0
M  V30 24857 H 3393.24 -8.89416 -5.05237 0
M  V30 24858 H 3391.61 -8.14876 -5.18409 0
M  V30 24859 H 3394.25 -3.27957 -5.4317 0
M  V30 24860 P 3396.11 -5.75688 -6.64379 0
M  V30 24861 O 3397.53 -6.07627 -7.05504 0
M  V30 24862 O 3395.75 -5.88047 -5.19722 0
M  V30 24863 O 3395.78 -4.2322 -7.04443 0
M  V30 24864 C 3395.62 -3.99743 -8.4911 0
M  V30 24865 C 3396.16 -2.60516 -8.79425 0
M  V30 24866 O 3395.11 -1.82684 -8.4467 0
M  V30 24867 C 3397.38 -2.10343 -8.03628 0
M  V30 24868 O 3398.12 -1.09919 -8.67766 0
M  V30 24869 C 3396.71 -1.68446 -6.70876 0
M  V30 24870 O 3397.51 -0.678137 -6.08433 0
M  V30 24871 C 3395.38 -1.17436 -7.18567 0
M  V30 24872 H 3395.41 -0.0804732 -7.31656 0
M  V30 24873 H 3396.59 -2.54037 -6.02537 0
M  V30 24874 H 3398.07 -2.93881 -7.85526 0
M  V30 24875 H 3396.38 -2.53065 -9.86973 0
M  V30 24876 H 3396.19 -4.75072 -9.05887 0
M  V30 24877 H 3394.56 -4.05244 -8.76668 0
M  V30 24878 H 3397.2 0.177647 -6.34251 0
M  V30 24879 P 3399.06 -1.25109 -8.70152 0
M  V30 24880 O 3400.46 -1.3516 -9.26897 0
M  V30 24881 O 3398.68 -2.18141 -7.59181 0
M  V30 24882 O 3398.73 0.248118 -8.21325 0
M  V30 24883 C 3398.57 1.22779 -9.30434 0
M  V30 24884 C 3399.11 2.56265 -8.80568 0
M  V30 24885 O 3398.06 3.02944 -8.09255 0
M  V30 24886 C 3400.33 2.57523 -7.89775 0
M  V30 24887 O 3401.07 3.7668 -7.89438 0
M  V30 24888 C 3399.66 2.20997 -6.55446 0
M  V30 24889 O 3400.46 2.71851 -5.48419 0
M  V30 24890 C 3398.33 2.89693 -6.67988 0
M  V30 24891 N 3397.28 2.08895 -6.07487 0
M  V30 24892 C 3396.25 2.72974 -5.43836 0
M  V30 24893 O 3396.29 3.97779 -5.34036 0
M  V30 24894 N 3395.24 2.0005 -4.91983 0
M  V30 24895 C 3395.28 0.66501 -5.00098 0
M  V30 24896 N 3394.27 -0.0305439 -4.4919 0
M  V30 24897 C 3396.38 -0.0100979 -5.61099 0
M  V30 24898 C 3397.35 0.74189 -6.14236 0
M  V30 24899 H 3398.36 3.8874 -6.19774 0
M  V30 24900 H 3399.54 1.12673 -6.44018 0
M  V30 24901 H 3401.02 1.783 -8.19631 0
M  V30 24902 H 3399.33 3.21673 -9.66791 0
M  V30 24903 H 3399.14 0.901032 -10.1892 0
M  V30 24904 H 3397.51 1.33036 -9.56493 0
M  V30 24905 H 3396.43 -1.09591 -5.64358 0
M  V30 24906 H 3398.19 0.260263 -6.6359 0
M  V30 24907 H 3393.48 0.460194 -4.04793 0
M  V30 24908 H 3394.28 -1.05716 -4.53953 0
M  V30 24909 H 3400.25 3.62759 -5.33442 0
M  V30 24910 P 3402.01 3.65191 -7.99657 0
M  V30 24911 O 3403.43 3.89332 -8.45794 0
M  V30 24912 O 3401.65 2.28472 -7.50807 0
M  V30 24913 O 3401.68 4.64972 -6.77611 0
M  V30 24914 C 3401.52 6.06319 -7.16352 0
M  V30 24915 C 3402.06 6.91731 -6.02299 0
M  V30 24916 O 3401.01 6.92449 -5.17064 0
M  V30 24917 C 3403.28 6.43627 -5.25174 0
M  V30 24918 O 3404.02 7.43686 -4.60469 0
M  V30 24919 C 3402.61 5.40275 -4.31916 0
M  V30 24920 O 3403.41 5.25279 -3.14438 0
M  V30 24921 C 3401.28 6.04847 -4.05327 0
M  V30 24922 H 3401.31 6.62195 -3.11261 0
M  V30 24923 H 3402.49 4.42556 -4.81383 0
M  V30 24924 H 3403.98 5.92458 -5.93643 0
M  V30 24925 H 3402.28 7.92655 -6.402 0
M  V30 24926 H 3402.09 6.26671 -8.0846 0
M  V30 24927 H 3400.46 6.29101 -7.32804 0
M  V30 24928 H 3403.1 5.84315 -2.47318 0
M  V30 24929 P 3404.96 7.39546 -4.75277 0
M  V30 24930 O 3406.38 7.84798 -5.01039 0
M  V30 24931 O 3404.6 5.9812 -5.08098 0
M  V30 24932 O 3404.63 7.57503 -3.1866 0
M  V30 24933 C 3404.47 8.97357 -2.74833 0
M  V30 24934 C 3405.01 9.07548 -1.32709 0
M  V30 24935 O 3403.96 8.62072 -0.606159 0
M  V30 24936 C 3406.23 8.25383 -0.938334 0
M  V30 24937 O 3406.97 8.74577 0.146954 0
M  V30 24938 C 3405.56 6.8802 -0.712559 0
M  V30 24939 O 3406.36 6.1189 0.194655 0
M  V30 24940 C 3404.23 7.27966 -0.139777 0
M  V30 24941 H 3404.26 7.25354 0.961601 0
M  V30 24942 H 3405.44 6.32557 -1.65702 0
M  V30 24943 H 3406.93 8.19355 -1.79097 0
M  V30 24944 H 3405.23 10.1294 -1.10029 0
M  V30 24945 H 3405.04 9.64276 -3.41316 0
M  V30 24946 H 3403.41 9.25417 -2.76357 0
M  V30 24947 H 3406.05 6.25267 1.07847 0
M  V30 24948 P 3407.91 8.791 -9.88564e-11 0
M  V30 24949 O 3409.33 9.31196 0.027936 0
M  V30 24950 O 3407.55 7.77869 -1.04071 0
M  V30 24951 O 3407.59 8.09533 1.41463 0
M  V30 24952 C 3407.42 9.03587 2.5397 0
M  V30 24953 C 3407.97 8.35226 3.79016 0
M  V30 24954 O 3406.91 7.57904 4.1503 0
M  V30 24955 C 3409.18 7.45087 3.67298 0
M  V30 24956 O 3409.92 7.27796 4.85194 0
M  V30 24957 C 3408.52 6.17323 3.12027 0
M  V30 24958 O 3409.31 5.04496 3.46627 0
M  V30 24959 C 3407.18 6.19961 3.81809 0
M  V30 24960 N 3406.13 5.71575 2.93223 0
M  V30 24961 C 3406.3 5.77362 1.59168 0
M  V30 24962 N 3405.28 5.3123 0.911893 0
M  V30 24963 C 3404.39 4.91717 1.89588 0
M  V30 24964 C 3403.12 4.3114 1.8076 0
M  V30 24965 N 3402.53 3.99821 0.632928 0
M  V30 24966 N 3402.56 4.06823 3.02898 0
M  V30 24967 C 3403.16 4.35062 4.22711 0
M  V30 24968 N 3404.34 4.90805 4.35707 0
M  V30 24969 C 3404.91 5.16382 3.14469 0
M  V30 24970 H 3407.21 5.58142 4.72986 0
M  V30 24971 H 3408.39 6.21428 2.0318 0
M  V30 24972 H 3409.88 7.86112 2.9231 0
M  V30 24973 H 3408.18 9.11171 4.55987 0
M  V30 24974 H 3407.99 9.9573 2.34194 0
M  V30 24975 H 3406.36 9.2792 2.67832 0
M  V30 24976 H 3402.63 4.09052 5.13359 0
M  V30 24977 H 3407.2 6.16575 1.12198 0
M  V30 24978 H 3401.6 3.55423 0.632085 0
M  V30 24979 H 3403 4.20317 -0.256712 0
M  V30 24980 H 3409 4.67628 4.28704 0
M  V30 24981 P 3410.86 7.39546 4.75277 0
M  V30 24982 O 3412.28 7.81777 5.05738 0
M  V30 24983 O 3410.5 7.1065 3.32998 0
M  V30 24984 O 3410.54 6.04542 5.56673 0
M  V30 24985 C 3410.38 6.22772 7.02095 0
M  V30 24986 C 3410.92 4.97725 7.70406 0
M  V30 24987 O 3409.86 4.13256 7.58987 0
M  V30 24988 C 3412.13 4.28231 7.11815 0
M  V30 24989 O 3412.87 3.49945 8.01648 0
M  V30 24990 C 3411.46 3.5063 5.96244 0
M  V30 24991 O 3412.26 2.36482 5.64681 0
M  V30 24992 C 3410.13 3.15122 6.56374 0
M  V30 24993 H 3410.16 2.13853 6.99751 0
M  V30 24994 H 3411.34 4.13501 5.06559 0
M  V30 24995 H 3412.83 5.03285 6.70911 0
M  V30 24996 H 3411.13 5.20877 8.75697 0
M  V30 24997 H 3410.94 7.11046 7.35349 0
M  V30 24998 H 3409.31 6.35815 7.26986 0
M  V30 24999 H 3411.95 1.61644 6.13565 0
M  V30 25000 P 3413.81 3.65191 7.99657 0
M  V30 25001 O 3415.23 3.8425 8.48115 0
M  V30 25002 O 3413.45 4.17805 6.64342 0
M  V30 25003 O 3413.49 2.07613 7.95143 0
M  V30 25004 C 3413.33 1.44328 9.27336 0
M  V30 25005 C 3413.87 0.0220036 9.17197 0
M  V30 25006 O 3412.81 -0.626867 8.61923 0
M  V30 25007 C 3415.08 -0.24586 8.30336 0
M  V30 25008 O 3415.82 -1.39011 8.63583 0
M  V30 25009 C 3414.42 -0.273849 6.91158 0
M  V30 25010 O 3415.21 -1.06348 6.02892 0
M  V30 25011 C 3413.08 -0.897649 7.22545 0
M  V30 25012 H 3413.11 -1.9841 7.04286 0
M  V30 25013 H 3414.29 0.739928 6.497 0
M  V30 25014 H 3415.78 0.60668 8.36503 0
M  V30 25015 H 3414.08 -0.352479 10.1829 0
M  V30 25016 H 3413.89 2.00611 10.0304 0
M  V30 25017 H 3412.26 1.41843 9.55327 0
M  V30 25018 H 3414.9 -1.95734 6.03555 0
M  V30 25019 P 3416.76 -1.25109 8.70152 0
M  V30 25020 O 3418.18 -1.35274 9.21221 0
M  V30 25021 O 3416.4 -0.0769065 7.84762 0
M  V30 25022 O 3416.44 -2.55232 7.81161 0
M  V30 25023 C 3416.28 -3.79939 8.58154 0
M  V30 25024 C 3416.82 -4.94023 7.72785 0
M  V30 25025 O 3415.76 -5.18726 6.91205 0
M  V30 25026 C 3418.04 -4.69597 6.85231 0
M  V30 25027 O 3418.77 -5.83832 6.51337 0
M  V30 25028 C 3417.37 -3.96706 5.66633 0
M  V30 25029 O 3418.17 -4.15414 4.49689 0
M  V30 25030 C 3416.03 -4.66153 5.59313 0
M  V30 25031 H 3416.06 -5.47679 4.85214 0
M  V30 25032 H 3417.24 -2.89008 5.86566 0
M  V30 25033 H 3418.73 -4.0121 7.36511 0
M  V30 25034 H 3417.03 -5.80182 8.37584 0
M  V30 25035 H 3416.84 -3.73517 9.52265 0
M  V30 25036 H 3415.21 -3.97163 8.80359 0
M  V30 25037 H 3417.85 -4.90969 4.01921 0
M  V30 25038 P 3419.71 -5.75688 6.64379 0
M  V30 25039 O 3421.13 -6.11981 7.01997 0
M  V30 25040 O 3419.35 -4.30744 6.56026 0
M  V30 25041 O 3419.39 -6.37042 5.19165 0
M  V30 25042 C 3419.23 -7.83578 5.16515 0
M  V30 25043 C 3419.77 -8.33307 3.82977 0
M  V30 25044 O 3418.71 -8.10074 3.01034 0
M  V30 25045 C 3420.99 -7.65514 3.2257 0
M  V30 25046 O 3421.72 -8.4329 2.32297 0
M  V30 25047 C 3420.32 -6.40075 2.62207 0
M  V30 25048 O 3421.12 -5.92492 1.53687 0
M  V30 25049 C 3418.98 -6.9454 2.18503 0
M  V30 25050 N 3417.94 -5.95905 2.39948 0
M  V30 25051 C 3418 -5.13994 3.44742 0
M  V30 25052 N 3416.95 -4.30684 3.46712 0
M  V30 25053 C 3416.22 -4.65583 2.41086 0
M  V30 25054 C 3414.91 -4.20877 1.99581 0
M  V30 25055 O 3414.18 -3.35913 2.52616 0
M  V30 25056 N 3414.48 -4.83271 0.873406 0
M  V30 25057 C 3415.23 -5.82006 0.185129 0
M  V30 25058 N 3414.64 -6.30619 -0.95439 0
M  V30 25059 N 3416.39 -6.28443 0.578524 0
M  V30 25060 C 3416.84 -5.68486 1.70138 0
M  V30 25061 H 3419.01 -7.23063 1.12091 0
M  V30 25062 H 3420.19 -5.60165 3.3715 0
M  V30 25063 H 3421.68 -7.3611 4.01946 0
M  V30 25064 H 3419.98 -9.40912 3.9095 0
M  V30 25065 H 3419.79 -8.29056 5.99158 0
M  V30 25066 H 3418.16 -8.10073 5.25882 0
M  V30 25067 H 3413.59 -4.58323 0.505262 0
M  V30 25068 H 3418.79 -5.14564 4.1935 0
M  V30 25069 H 3413.72 -5.93402 -1.25364 0
M  V30 25070 H 3415.1 -7.0425 -1.50254 0
M  V30 25071 H 3420.8 -6.30224 0.72668 0
M  V30 25072 P 3422.66 -8.4349 2.47671 0
M  V30 25073 O 3424.08 -8.94359 2.59696 0
M  V30 25074 O 3422.3 -7.1704 3.19006 0
M  V30 25075 O 3422.34 -8.16596 0.923387 0
M  V30 25076 C 3422.18 -9.38437 0.108857 0
M  V30 25077 C 3422.72 -9.08076 -1.28339 0
M  V30 25078 O 3421.66 -8.44229 -1.84713 0
M  V30 25079 C 3423.94 -8.18386 -1.42505 0
M  V30 25080 O 3424.67 -8.3501 -2.60497 0
M  V30 25081 C 3423.27 -6.80225 -1.25468 0
M  V30 25082 O 3424.07 -5.81526 -1.91035 0
M  V30 25083 C 3421.93 -7.02416 -1.9168 0
M  V30 25084 N 3420.89 -6.31033 -1.20314 0
M  V30 25085 C 3420.95 -6.18781 0.121293 0
M  V30 25086 N 3419.9 -5.49762 0.588272 0
M  V30 25087 C 3419.17 -5.22015 -0.488988 0
M  V30 25088 C 3417.86 -4.61966 -0.596448 0
M  V30 25089 O 3417.13 -4.19162 0.309059 0
M  V30 25090 N 3417.43 -4.53773 -1.878 0
M  V30 25091 C 3418.18 -4.99623 -2.99082 0
M  V30 25092 N 3417.59 -4.78912 -4.21227 0
M  V30 25093 N 3419.34 -5.59957 -2.91093 0
M  V30 25094 C 3419.79 -5.70225 -1.64218 0
M  V30 25095 H 3421.96 -6.6888 -2.96621 0
M  V30 25096 H 3423.15 -6.53517 -0.192194 0
M  V30 25097 H 3424.63 -8.36563 -0.598329 0
M  V30 25098 H 3422.94 -10.0291 -1.79807 0
M  V30 25099 H 3422.75 -10.2138 0.558219 0
M  V30 25100 H 3421.11 -9.6579 0.0444202 0
M  V30 25101 H 3416.54 -4.12883 -2.05283 0
M  V30 25102 H 3421.75 -6.59596 0.745856 0
M  V30 25103 H 3416.68 -4.31425 -4.2628 0
M  V30 25104 H 3418.05 -5.11219 -5.07148 0
M  V30 25105 H 3423.76 -5.69466 -2.79593 0
M  V30 25106 P 3425.61 -8.4349 -2.47671 0
M  V30 25107 O 3427.03 -8.92593 -2.65 0
M  V30 25108 O 3425.25 -7.7568 -1.19296 0
M  V30 25109 O 3425.29 -7.36886 -3.63805 0
M  V30 25110 C 3425.13 -7.95349 -4.982 0
M  V30 25111 C 3425.67 -6.94612 -5.98974 0
M  V30 25112 O 3424.61 -6.10347 -6.11815 0
M  V30 25113 C 3426.89 -6.11426 -5.62335 0
M  V30 25114 O 3427.62 -5.6162 -6.70584 0
M  V30 25115 C 3426.22 -5.04409 -4.73308 0
M  V30 25116 O 3427.02 -3.85992 -4.75183 0
M  V30 25117 C 3424.88 -4.8728 -5.41006 0
M  V30 25118 H 3424.91 -4.02333 -6.11157 0
M  V30 25119 H 3426.1 -5.39466 -3.69543 0
M  V30 25120 H 3427.58 -6.71916 -5.01943 0
M  V30 25121 H 3425.89 -7.4649 -6.93477 0
M  V30 25122 H 3425.7 -8.89416 -5.05237 0
M  V30 25123 H 3424.07 -8.14876 -5.18409 0
M  V30 25124 H 3426.7 -3.27957 -5.4317 0
M  V30 25125 P 3428.56 -5.75688 -6.64379 0
M  V30 25126 O 3429.98 -6.07627 -7.05504 0
M  V30 25127 O 3428.2 -5.88047 -5.19722 0
M  V30 25128 O 3428.24 -4.2322 -7.04443 0
M  V30 25129 C 3428.08 -3.99743 -8.4911 0
M  V30 25130 C 3428.62 -2.60516 -8.79425 0
M  V30 25131 O 3427.56 -1.82684 -8.4467 0
M  V30 25132 C 3429.84 -2.10343 -8.03628 0
M  V30 25133 O 3430.58 -1.09919 -8.67766 0
M  V30 25134 C 3429.17 -1.68446 -6.70876 0
M  V30 25135 O 3429.97 -0.678137 -6.08433 0
M  V30 25136 C 3427.83 -1.17436 -7.18567 0
M  V30 25137 H 3427.86 -0.0804732 -7.31656 0
M  V30 25138 H 3429.05 -2.54037 -6.02537 0
M  V30 25139 H 3430.53 -2.93881 -7.85526 0
M  V30 25140 H 3428.84 -2.53065 -9.86973 0
M  V30 25141 H 3428.65 -4.75072 -9.05887 0
M  V30 25142 H 3427.02 -4.05244 -8.76668 0
M  V30 25143 H 3429.66 0.177647 -6.34251 0
M  V30 25144 P 3431.51 -1.25109 -8.70152 0
M  V30 25145 O 3432.93 -1.29744 -9.22016 0
M  V30 25146 O 3431.15 -2.13714 -7.55141 0
M  V30 25147 O 3431.19 0.248149 -8.21425 0
M  V30 25148 C 3431.03 1.22779 -9.30434 0
M  V30 25149 C 3431.57 2.56293 -8.80664 0
M  V30 25150 O 3430.51 3.02979 -8.09349 0
M  V30 25151 C 3432.79 2.57523 -7.89775 0
M  V30 25152 O 3433.53 3.7668 -7.89438 0
M  V30 25153 C 3432.12 2.20997 -6.55446 0
M  V30 25154 O 3432.92 2.71895 -5.48509 0
M  V30 25155 C 3430.78 2.89693 -6.67988 0
M  V30 25156 H 3430.81 3.88793 -6.19859 0
M  V30 25157 H 3432 1.12046 -6.44229 0
M  V30 25158 H 3433.48 1.7746 -8.19711 0
M  V30 25159 H 3431.79 3.20706 -9.67112 0
M  V30 25160 H 3431.6 0.901032 -10.1892 0
M  V30 25161 H 3429.97 1.33049 -9.56592 0
M  V30 25162 H 3432.61 3.57847 -5.23962 0
M  V30 25163 P 3434.46 3.65191 -7.99657 0
M  V30 25164 O 3435.89 3.89332 -8.45794 0
M  V30 25165 O 3434.1 2.28472 -7.50807 0
M  V30 25166 O 3434.14 4.64972 -6.77611 0
M  V30 25167 C 3433.98 6.06319 -7.16352 0
M  V30 25168 C 3434.52 6.91731 -6.02299 0
M  V30 25169 O 3433.46 6.92449 -5.17064 0
M  V30 25170 C 3435.74 6.43627 -5.25174 0
M  V30 25171 O 3436.48 7.43686 -4.60469 0
M  V30 25172 C 3435.07 5.40275 -4.31916 0
M  V30 25173 O 3435.87 5.25279 -3.14438 0
M  V30 25174 C 3433.73 6.04847 -4.05327 0
M  V30 25175 H 3433.76 6.62195 -3.11261 0
M  V30 25176 H 3434.95 4.42556 -4.81383 0
M  V30 25177 H 3436.43 5.92458 -5.93643 0
M  V30 25178 H 3434.74 7.92655 -6.402 0
M  V30 25179 H 3434.55 6.26671 -8.0846 0
M  V30 25180 H 3432.92 6.29101 -7.32804 0
M  V30 25181 H 3435.56 5.84315 -2.47318 0
M  V30 25182 P 3437.41 7.39546 -4.75277 0
M  V30 25183 O 3438.84 7.84798 -5.01039 0
M  V30 25184 O 3437.05 5.9812 -5.08098 0
M  V30 25185 O 3437.09 7.57503 -3.1866 0
M  V30 25186 C 3436.93 8.97357 -2.74833 0
M  V30 25187 C 3437.47 9.07548 -1.32709 0
M  V30 25188 O 3436.42 8.62072 -0.606159 0
M  V30 25189 C 3438.69 8.25383 -0.938334 0
M  V30 25190 O 3439.43 8.74577 0.146954 0
M  V30 25191 C 3438.02 6.8802 -0.712559 0
M  V30 25192 O 3438.82 6.1189 0.194655 0
M  V30 25193 C 3436.68 7.27966 -0.139777 0
M  V30 25194 H 3436.72 7.25354 0.961601 0
M  V30 25195 H 3437.9 6.32557 -1.65702 0
M  V30 25196 H 3439.38 8.19355 -1.79097 0
M  V30 25197 H 3437.69 10.1294 -1.10029 0
M  V30 25198 H 3437.5 9.64276 -3.41316 0
M  V30 25199 H 3435.87 9.25417 -2.76357 0
M  V30 25200 H 3438.51 6.25267 1.07847 0
M  V30 25201 P 3440.36 8.791 -1.04043e-10 0
M  V30 25202 O 3441.79 9.31096 0.027933 0
M  V30 25203 O 3440 7.77869 -1.04071 0
M  V30 25204 O 3440.04 8.09533 1.41463 0
M  V30 25205 C 3439.88 9.0349 2.53943 0
M  V30 25206 C 3440.42 8.35226 3.79016 0
M  V30 25207 O 3439.37 7.57992 4.15078 0
M  V30 25208 C 3441.64 7.45087 3.67298 0
M  V30 25209 O 3442.38 7.27796 4.85194 0
M  V30 25210 C 3440.97 6.17323 3.12027 0
M  V30 25211 O 3441.77 5.04231 3.47188 0
M  V30 25212 C 3439.63 6.19961 3.81809 0
M  V30 25213 H 3439.67 5.58218 4.73051 0
M  V30 25214 H 3440.85 6.21726 2.02589 0
M  V30 25215 H 3442.33 7.86112 2.9231 0
M  V30 25216 H 3440.64 9.11627 4.55076 0
M  V30 25217 H 3440.45 9.9573 2.34194 0
M  V30 25218 H 3438.82 9.2792 2.67832 0
M  V30 25219 H 3441.46 4.67702 4.28772 0
M  V30 25220 P 3443.32 7.39546 4.75277 0
M  V30 25221 O 3444.74 7.81861 5.05793 0
M  V30 25222 O 3442.96 7.1065 3.32998 0
M  V30 25223 O 3442.99 6.04542 5.56673 0
M  V30 25224 C 3442.83 6.22839 7.02169 0
M  V30 25225 C 3443.37 4.97725 7.70406 0
M  V30 25226 O 3442.32 4.13208 7.58899 0
M  V30 25227 C 3444.59 4.28231 7.11815 0
M  V30 25228 O 3445.33 3.49945 8.01648 0
M  V30 25229 C 3443.92 3.5063 5.96244 0
M  V30 25230 O 3444.72 2.37008 5.64352 0
M  V30 25231 C 3442.58 3.15122 6.56374 0
M  V30 25232 N 3441.54 3.22311 5.55692 0
M  V30 25233 C 3441.71 3.99655 4.46046 0
M  V30 25234 N 3440.68 3.97599 3.63918 0
M  V30 25235 C 3439.8 3.11159 4.25334 0
M  V30 25236 C 3438.53 2.64972 3.85157 0
M  V30 25237 N 3437.93 3.02132 2.69405 0
M  V30 25238 N 3437.97 1.78482 4.74759 0
M  V30 25239 C 3438.57 1.37463 5.90819 0
M  V30 25240 N 3439.75 1.7733 6.31889 0
M  V30 25241 C 3440.32 2.64393 5.43725 0
M  V30 25242 H 3442.62 2.13823 6.99656 0
M  V30 25243 H 3443.8 4.12931 5.06895 0
M  V30 25244 H 3445.28 5.03285 6.70911 0
M  V30 25245 H 3443.59 5.20001 8.76217 0
M  V30 25246 H 3443.4 7.11046 7.35349 0
M  V30 25247 H 3441.77 6.35815 7.26986 0
M  V30 25248 H 3438.03 0.66574 6.53015 0
M  V30 25249 H 3442.61 4.58037 4.27732 0
M  V30 25250 H 3437 2.64828 2.45331 0
M  V30 25251 H 3438.41 3.67472 2.05644 0
M  V30 25252 H 3444.41 1.61619 6.13468 0
M  V30 25253 P 3446.27 3.65191 7.99657 0
M  V30 25254 O 3447.69 3.8425 8.48115 0
M  V30 25255 O 3445.91 4.17805 6.64342 0
M  V30 25256 O 3445.94 2.07613 7.95143 0
M  V30 25257 C 3445.78 1.44328 9.27336 0
M  V30 25258 C 3446.32 0.0220036 9.17197 0
M  V30 25259 O 3445.27 -0.626867 8.61923 0
M  V30 25260 C 3447.54 -0.24586 8.30336 0
M  V30 25261 O 3448.28 -1.39011 8.63583 0
M  V30 25262 C 3446.87 -0.273849 6.91158 0
M  V30 25263 O 3447.67 -1.06348 6.02892 0
M  V30 25264 C 3445.53 -0.897649 7.22545 0
M  V30 25265 H 3445.57 -1.9841 7.04286 0
M  V30 25266 H 3446.75 0.739928 6.497 0
M  V30 25267 H 3448.23 0.60668 8.36503 0
M  V30 25268 H 3446.54 -0.352479 10.1829 0
M  V30 25269 H 3446.35 2.00611 10.0304 0
M  V30 25270 H 3444.72 1.41843 9.55327 0
M  V30 25271 H 3447.36 -1.95734 6.03555 0
M  V30 25272 P 3449.22 -1.25109 8.70152 0
M  V30 25273 O 3450.64 -1.35274 9.21221 0
M  V30 25274 O 3448.86 -0.0769065 7.84762 0
M  V30 25275 O 3448.89 -2.55232 7.81161 0
M  V30 25276 C 3448.73 -3.79939 8.58154 0
M  V30 25277 C 3449.27 -4.94023 7.72785 0
M  V30 25278 O 3448.22 -5.18726 6.91205 0
M  V30 25279 C 3450.49 -4.69597 6.85231 0
M  V30 25280 O 3451.23 -5.83832 6.51337 0
M  V30 25281 C 3449.82 -3.96706 5.66633 0
M  V30 25282 O 3450.62 -4.15414 4.49689 0
M  V30 25283 C 3448.49 -4.66153 5.59313 0
M  V30 25284 H 3448.52 -5.47679 4.85214 0
M  V30 25285 H 3449.7 -2.89008 5.86566 0
M  V30 25286 H 3451.18 -4.0121 7.36511 0
M  V30 25287 H 3449.49 -5.80182 8.37584 0
M  V30 25288 H 3449.3 -3.73517 9.52265 0
M  V30 25289 H 3447.67 -3.97163 8.80359 0
M  V30 25290 H 3450.31 -4.90969 4.01921 0
M  V30 25291 P 3452.17 -5.75688 6.64379 0
M  V30 25292 O 3453.59 -6.11849 7.01846 0
M  V30 25293 O 3451.81 -4.30744 6.56026 0
M  V30 25294 O 3451.84 -6.37042 5.19165 0
M  V30 25295 C 3451.68 -7.83578 5.16515 0
M  V30 25296 C 3452.22 -8.33398 3.83019 0
M  V30 25297 O 3451.17 -8.10074 3.01034 0
M  V30 25298 C 3453.44 -7.65514 3.2257 0
M  V30 25299 O 3454.18 -8.4329 2.32297 0
M  V30 25300 C 3452.77 -6.40075 2.62207 0
M  V30 25301 O 3453.57 -5.92589 1.53712 0
M  V30 25302 C 3451.44 -6.9454 2.18503 0
M  V30 25303 H 3451.47 -7.23063 1.12091 0
M  V30 25304 H 3452.65 -5.6025 3.37201 0
M  V30 25305 H 3454.13 -7.35707 4.02681 0
M  V30 25306 H 3452.44 -9.40912 3.9095 0
M  V30 25307 H 3452.25 -8.29056 5.99158 0
M  V30 25308 H 3450.62 -8.10073 5.25882 0
M  V30 25309 H 3453.26 -6.30324 0.726794 0
M  V30 25310 P 3455.12 -8.4349 2.47671 0
M  V30 25311 O 3456.54 -8.94167 2.5964 0
M  V30 25312 O 3454.76 -7.1704 3.19006 0
M  V30 25313 O 3454.79 -8.16596 0.923387 0
M  V30 25314 C 3454.63 -9.38437 0.108857 0
M  V30 25315 C 3455.17 -9.08175 -1.28353 0
M  V30 25316 O 3454.12 -8.44229 -1.84713 0
M  V30 25317 C 3456.39 -8.18386 -1.42505 0
M  V30 25318 O 3457.13 -8.3501 -2.60497 0
M  V30 25319 C 3455.72 -6.80225 -1.25468 0
M  V30 25320 O 3456.52 -5.81621 -1.91066 0
M  V30 25321 C 3454.39 -7.02416 -1.9168 0
M  V30 25322 H 3454.42 -6.6888 -2.96621 0
M  V30 25323 H 3455.6 -6.53617 -0.192223 0
M  V30 25324 H 3457.09 -8.36622 -0.589963 0
M  V30 25325 H 3455.39 -10.0291 -1.79807 0
M  V30 25326 H 3455.2 -10.2138 0.558219 0
M  V30 25327 H 3453.57 -9.6579 0.0444202 0
M  V30 25328 H 3456.21 -5.69556 -2.79637 0
M  V30 25329 P 3458.07 -8.4349 -2.47671 0
M  V30 25330 O 3459.49 -8.92593 -2.65 0
M  V30 25331 O 3457.71 -7.7568 -1.19296 0
M  V30 25332 O 3457.75 -7.36886 -3.63805 0
M  V30 25333 C 3457.59 -7.95349 -4.982 0
M  V30 25334 C 3458.13 -6.94612 -5.98974 0
M  V30 25335 O 3457.07 -6.10347 -6.11815 0
M  V30 25336 C 3459.34 -6.11426 -5.62335 0
M  V30 25337 O 3460.08 -5.6162 -6.70584 0
M  V30 25338 C 3458.67 -5.04409 -4.73308 0
M  V30 25339 O 3459.47 -3.85992 -4.75183 0
M  V30 25340 C 3457.34 -4.8728 -5.41006 0
M  V30 25341 H 3457.37 -4.02333 -6.11157 0
M  V30 25342 H 3458.55 -5.39466 -3.69543 0
M  V30 25343 H 3460.04 -6.71916 -5.01943 0
M  V30 25344 H 3458.34 -7.4649 -6.93477 0
M  V30 25345 H 3458.15 -8.89416 -5.05237 0
M  V30 25346 H 3456.52 -8.14876 -5.18409 0
M  V30 25347 H 3459.16 -3.27957 -5.4317 0
M  V30 25348 P 3461.02 -5.75688 -6.64379 0
M  V30 25349 O 3462.44 -6.07627 -7.05504 0
M  V30 25350 O 3460.66 -5.88047 -5.19722 0
M  V30 25351 O 3460.7 -4.2322 -7.04443 0
M  V30 25352 C 3460.54 -3.99743 -8.4911 0
M  V30 25353 C 3461.08 -2.60516 -8.79425 0
M  V30 25354 O 3460.02 -1.82684 -8.4467 0
M  V30 25355 C 3462.29 -2.10343 -8.03628 0
M  V30 25356 O 3463.03 -1.09919 -8.67766 0
M  V30 25357 C 3461.62 -1.68446 -6.70876 0
M  V30 25358 O 3462.42 -0.678137 -6.08433 0
M  V30 25359 C 3460.29 -1.17436 -7.18567 0
M  V30 25360 H 3460.32 -0.0804732 -7.31656 0
M  V30 25361 H 3461.5 -2.54037 -6.02537 0
M  V30 25362 H 3462.99 -2.93881 -7.85526 0
M  V30 25363 H 3461.29 -2.53065 -9.86973 0
M  V30 25364 H 3461.1 -4.75072 -9.05887 0
M  V30 25365 H 3459.47 -4.05244 -8.76668 0
M  V30 25366 H 3462.11 0.177647 -6.34251 0
M  V30 25367 P 3463.97 -1.25109 -8.70152 0
M  V30 25368 O 3465.39 -1.29744 -9.22016 0
M  V30 25369 O 3463.61 -2.13714 -7.55141 0
M  V30 25370 O 3463.65 0.248149 -8.21425 0
M  V30 25371 C 3463.49 1.22779 -9.30434 0
M  V30 25372 C 3464.03 2.56293 -8.80664 0
M  V30 25373 O 3462.97 3.02979 -8.09349 0
M  V30 25374 C 3465.24 2.57523 -7.89775 0
M  V30 25375 O 3465.98 3.7668 -7.89438 0
M  V30 25376 C 3464.58 2.20997 -6.55446 0
M  V30 25377 O 3465.37 2.71895 -5.48509 0
M  V30 25378 C 3463.24 2.89693 -6.67988 0
M  V30 25379 H 3463.27 3.88793 -6.19859 0
M  V30 25380 H 3464.45 1.12046 -6.44229 0
M  V30 25381 H 3465.94 1.7746 -8.19711 0
M  V30 25382 H 3464.24 3.20706 -9.67112 0
M  V30 25383 H 3464.05 0.901032 -10.1892 0
M  V30 25384 H 3462.42 1.33049 -9.56592 0
M  V30 25385 H 3465.06 3.57847 -5.23962 0
M  V30 25386 P 3466.92 3.65191 -7.99657 0
M  V30 25387 O 3468.34 3.89374 -8.45885 0
M  V30 25388 O 3466.56 2.28472 -7.50807 0
M  V30 25389 O 3466.6 4.64972 -6.77611 0
M  V30 25390 C 3466.44 6.06383 -7.16428 0
M  V30 25391 C 3466.98 6.91731 -6.02299 0
M  V30 25392 O 3465.92 6.92369 -5.17005 0
M  V30 25393 C 3468.19 6.43627 -5.25174 0
M  V30 25394 O 3468.93 7.43686 -4.60469 0
M  V30 25395 C 3467.53 5.40275 -4.31916 0
M  V30 25396 O 3468.32 5.24878 -3.14911 0
M  V30 25397 C 3466.19 6.04847 -4.05327 0
M  V30 25398 N 3465.15 5.04166 -3.98114 0
M  V30 25399 C 3465.31 3.84629 -4.59066 0
M  V30 25400 N 3464.29 3.0363 -4.45343 0
M  V30 25401 C 3463.4 3.76722 -3.68523 0
M  V30 25402 C 3462.14 3.43528 -3.17088 0
M  V30 25403 N 3461.54 2.23665 -3.37397 0
M  V30 25404 N 3461.57 4.44526 -2.44231 0
M  V30 25405 C 3462.17 5.65243 -2.20146 0
M  V30 25406 N 3463.35 6.00221 -2.65453 0
M  V30 25407 C 3463.92 5.00564 -3.39083 0
M  V30 25408 H 3466.22 6.62104 -3.11218 0
M  V30 25409 H 3467.4 4.42969 -4.80867 0
M  V30 25410 H 3468.89 5.92458 -5.93643 0
M  V30 25411 H 3467.19 7.93295 -6.39407 0
M  V30 25412 H 3467 6.26671 -8.0846 0
M  V30 25413 H 3465.37 6.29101 -7.32804 0
M  V30 25414 H 3461.64 6.36894 -1.5883 0
M  V30 25415 H 3466.21 3.58193 -5.14248 0
M  V30 25416 H 3460.61 2.05145 -2.97047 0
M  V30 25417 H 3462.01 1.51255 -3.92998 0
M  V30 25418 H 3468.01 5.84223 -2.47279 0
M  V30 25419 P 3469.87 7.39546 -4.75277 0
M  V30 25420 O 3471.29 7.84798 -5.01039 0
M  V30 25421 O 3469.51 5.9812 -5.08098 0
M  V30 25422 O 3469.55 7.57503 -3.1866 0
M  V30 25423 C 3469.39 8.97357 -2.74833 0
M  V30 25424 C 3469.93 9.07548 -1.32709 0
M  V30 25425 O 3468.87 8.62072 -0.606159 0
M  V30 25426 C 3471.15 8.25383 -0.938334 0
M  V30 25427 O 3471.88 8.74577 0.146954 0
M  V30 25428 C 3470.48 6.8802 -0.712559 0
M  V30 25429 O 3471.28 6.1189 0.194655 0
M  V30 25430 C 3469.14 7.27966 -0.139777 0
M  V30 25431 H 3469.17 7.25354 0.961601 0
M  V30 25432 H 3470.35 6.32557 -1.65702 0
M  V30 25433 H 3471.84 8.19355 -1.79097 0
M  V30 25434 H 3470.14 10.1294 -1.10029 0
M  V30 25435 H 3469.95 9.64276 -3.41316 0
M  V30 25436 H 3468.32 9.25417 -2.76357 0
M  V30 25437 H 3470.96 6.25267 1.07847 0
M  V30 25438 P 3472.82 8.791 -1.0923e-10 0
M  V30 25439 O 3474.24 9.31096 0.027933 0
M  V30 25440 O 3472.46 7.77869 -1.04071 0
M  V30 25441 O 3472.5 8.09533 1.41463 0
M  V30 25442 C 3472.34 9.0349 2.53943 0
M  V30 25443 C 3472.88 8.35226 3.79016 0
M  V30 25444 O 3471.82 7.57992 4.15078 0
M  V30 25445 C 3474.1 7.45087 3.67298 0
M  V30 25446 O 3474.83 7.27796 4.85194 0
M  V30 25447 C 3473.43 6.17323 3.12027 0
M  V30 25448 O 3474.23 5.04231 3.47188 0
M  V30 25449 C 3472.09 6.19961 3.81809 0
M  V30 25450 H 3472.12 5.58218 4.73051 0
M  V30 25451 H 3473.3 6.21726 2.02589 0
M  V30 25452 H 3474.79 7.86112 2.9231 0
M  V30 25453 H 3473.09 9.11627 4.55076 0
M  V30 25454 H 3472.9 9.9573 2.34194 0
M  V30 25455 H 3471.27 9.2792 2.67832 0
M  V30 25456 H 3473.91 4.67702 4.28772 0
M  V30 25457 P 3475.77 7.39546 4.75277 0
M  V30 25458 O 3477.19 7.81777 5.05738 0
M  V30 25459 O 3475.41 7.1065 3.32998 0
M  V30 25460 O 3475.45 6.04542 5.56673 0
M  V30 25461 C 3475.29 6.22772 7.02095 0
M  V30 25462 C 3475.83 4.97725 7.70406 0
M  V30 25463 O 3474.77 4.13256 7.58987 0
M  V30 25464 C 3477.05 4.28231 7.11815 0
M  V30 25465 O 3477.78 3.49945 8.01648 0
M  V30 25466 C 3476.38 3.5063 5.96244 0
M  V30 25467 O 3477.18 2.36482 5.64681 0
M  V30 25468 C 3475.04 3.15122 6.56374 0
M  V30 25469 H 3475.07 2.13853 6.99751 0
M  V30 25470 H 3476.26 4.13501 5.06559 0
M  V30 25471 H 3477.74 5.03285 6.70911 0
M  V30 25472 H 3476.05 5.20877 8.75697 0
M  V30 25473 H 3475.86 7.11046 7.35349 0
M  V30 25474 H 3474.23 6.35815 7.26986 0
M  V30 25475 H 3476.86 1.61644 6.13565 0
M  V30 25476 P 3478.72 3.65191 7.99657 0
M  V30 25477 O 3480.14 3.84292 8.48206 0
M  V30 25478 O 3478.36 4.17805 6.64342 0
M  V30 25479 O 3478.4 2.07613 7.95143 0
M  V30 25480 C 3478.24 1.44344 9.27435 0
M  V30 25481 C 3478.78 0.0220036 9.17197 0
M  V30 25482 O 3477.72 -0.626794 8.61824 0
M  V30 25483 C 3480 -0.24586 8.30336 0
M  V30 25484 O 3480.74 -1.39011 8.63583 0
M  V30 25485 C 3479.33 -0.273849 6.91158 0
M  V30 25486 O 3480.13 -1.05728 6.029 0
M  V30 25487 C 3477.99 -0.897649 7.22545 0
M  V30 25488 N 3476.95 -0.292839 6.41732 0
M  V30 25489 C 3477.12 0.950603 5.91308 0
M  V30 25490 N 3476.09 1.37732 5.21105 0
M  V30 25491 C 3475.21 0.318109 5.26039 0
M  V30 25492 C 3473.94 0.146766 4.6727 0
M  V30 25493 N 3473.34 1.08519 3.89983 0
M  V30 25494 N 3473.37 -1.06525 4.95887 0
M  V30 25495 C 3473.98 -2.0378 5.71347 0
M  V30 25496 N 3475.15 -1.92445 6.27451 0
M  V30 25497 C 3475.73 -0.715382 6.00353 0
M  V30 25498 H 3478.02 -1.98383 7.04189 0
M  V30 25499 H 3479.21 0.733318 6.49674 0
M  V30 25500 H 3480.69 0.60668 8.36503 0
M  V30 25501 H 3479 -0.362662 10.1825 0
M  V30 25502 H 3478.81 2.00611 10.0304 0
M  V30 25503 H 3477.18 1.41843 9.55327 0
M  V30 25504 H 3473.44 -2.97041 5.85344 0
M  V30 25505 H 3478.02 1.54076 6.07465 0
M  V30 25506 H 3472.41 0.901517 3.49562 0
M  V30 25507 H 3473.81 1.97957 3.71669 0
M  V30 25508 H 3479.82 -1.95704 6.0346 0
M  V30 25509 P 3481.67 -1.25109 8.70152 0
M  V30 25510 O 3483.09 -1.35274 9.21221 0
M  V30 25511 O 3481.31 -0.0769065 7.84762 0
M  V30 25512 O 3481.35 -2.55232 7.81161 0
M  V30 25513 C 3481.19 -3.79939 8.58154 0
M  V30 25514 C 3481.73 -4.94023 7.72785 0
M  V30 25515 O 3480.67 -5.18726 6.91205 0
M  V30 25516 C 3482.95 -4.69597 6.85231 0
M  V30 25517 O 3483.69 -5.83832 6.51337 0
M  V30 25518 C 3482.28 -3.96706 5.66633 0
M  V30 25519 O 3483.08 -4.15414 4.49689 0
M  V30 25520 C 3480.94 -4.66153 5.59313 0
M  V30 25521 H 3480.97 -5.47679 4.85214 0
M  V30 25522 H 3482.16 -2.89008 5.86566 0
M  V30 25523 H 3483.64 -4.0121 7.36511 0
M  V30 25524 H 3481.95 -5.80182 8.37584 0
M  V30 25525 H 3481.76 -3.73517 9.52265 0
M  V30 25526 H 3480.13 -3.97163 8.80359 0
M  V30 25527 H 3482.77 -4.90969 4.01921 0
M  V30 25528 P 3484.62 -5.75688 6.64379 0
M  V30 25529 O 3486.04 -6.11915 7.01921 0
M  V30 25530 O 3484.26 -4.30744 6.56026 0
M  V30 25531 O 3484.3 -6.37042 5.19165 0
M  V30 25532 C 3484.14 -7.83662 5.1657 0
M  V30 25533 C 3484.68 -8.33398 3.83019 0
M  V30 25534 O 3483.63 -8.0998 3.00999 0
M  V30 25535 C 3485.9 -7.65514 3.2257 0
M  V30 25536 O 3486.64 -8.4329 2.32297 0
M  V30 25537 C 3485.23 -6.40075 2.62207 0
M  V30 25538 O 3486.03 -5.92338 1.5428 0
M  V30 25539 C 3483.89 -6.9454 2.18503 0
M  V30 25540 N 3482.85 -5.95905 2.39948 0
M  V30 25541 C 3483.02 -4.98383 3.32108 0
M  V30 25542 N 3481.99 -4.16798 3.41761 0
M  V30 25543 C 3481.11 -4.65287 2.47461 0
M  V30 25544 C 3479.84 -4.18946 2.07461 0
M  V30 25545 N 3479.27 -4.95327 1.09101 0
M  V30 25546 C 3479.88 -6.04369 0.519812 0
M  V30 25547 N 3481.05 -6.50694 0.855982 0
M  V30 25548 C 3481.63 -5.75818 1.84322 0
M  V30 25549 H 3485.11 -5.60502 3.36589 0
M  V30 25550 H 3486.59 -7.35707 4.02681 0
M  V30 25551 H 3484.9 -9.41302 3.90009 0
M  V30 25552 H 3484.71 -8.29056 5.99158 0
M  V30 25553 H 3483.08 -8.10073 5.25882 0
M  V30 25554 H 3483.92 -4.88564 3.92502 0
M  V30 25555 H 3485.72 -6.30224 0.72668 0
M  V30 25556 P 3487.57 -8.4349 2.47671 0
M  V30 25557 O 3489 -8.94167 2.5964 0
M  V30 25558 O 3487.21 -7.1704 3.19006 0
M  V30 25559 O 3487.25 -8.16596 0.923387 0
M  V30 25560 C 3487.09 -9.38437 0.108857 0
M  V30 25561 C 3487.63 -9.08175 -1.28353 0
M  V30 25562 O 3486.57 -8.44229 -1.84713 0
M  V30 25563 C 3488.85 -8.18386 -1.42505 0
M  V30 25564 O 3489.59 -8.3501 -2.60497 0
M  V30 25565 C 3488.18 -6.80225 -1.25468 0
M  V30 25566 O 3488.98 -5.81621 -1.91066 0
M  V30 25567 C 3486.84 -7.02416 -1.9168 0
M  V30 25568 H 3486.87 -6.6888 -2.96621 0
M  V30 25569 H 3488.06 -6.53617 -0.192223 0
M  V30 25570 H 3489.54 -8.36622 -0.589963 0
M  V30 25571 H 3487.85 -10.0291 -1.79807 0
M  V30 25572 H 3487.66 -10.2138 0.558219 0
M  V30 25573 H 3486.03 -9.6579 0.0444202 0
M  V30 25574 H 3488.67 -5.69556 -2.79637 0
M  V30 25575 P 3490.52 -8.4349 -2.47671 0
M  V30 25576 O 3491.95 -8.92593 -2.65 0
M  V30 25577 O 3490.16 -7.7568 -1.19296 0
M  V30 25578 O 3490.2 -7.36886 -3.63805 0
M  V30 25579 C 3490.04 -7.95349 -4.982 0
M  V30 25580 C 3490.58 -6.94612 -5.98974 0
M  V30 25581 O 3489.53 -6.10347 -6.11815 0
M  V30 25582 C 3491.8 -6.11426 -5.62335 0
M  V30 25583 O 3492.54 -5.6162 -6.70584 0
M  V30 25584 C 3491.13 -5.04409 -4.73308 0
M  V30 25585 O 3491.93 -3.85992 -4.75183 0
M  V30 25586 C 3489.79 -4.8728 -5.41006 0
M  V30 25587 H 3489.83 -4.02333 -6.11157 0
M  V30 25588 H 3491.01 -5.39466 -3.69543 0
M  V30 25589 H 3492.49 -6.71916 -5.01943 0
M  V30 25590 H 3490.8 -7.4649 -6.93477 0
M  V30 25591 H 3490.61 -8.89416 -5.05237 0
M  V30 25592 H 3488.98 -8.14876 -5.18409 0
M  V30 25593 H 3491.62 -3.27957 -5.4317 0
M  V30 25594 P 3493.47 -5.75688 -6.64379 0
M  V30 25595 O 3494.9 -6.07627 -7.05504 0
M  V30 25596 O 3493.11 -5.88047 -5.19722 0
M  V30 25597 O 3493.15 -4.2322 -7.04443 0
M  V30 25598 C 3492.99 -3.99743 -8.4911 0
M  V30 25599 C 3493.53 -2.60516 -8.79425 0
M  V30 25600 O 3492.48 -1.82684 -8.4467 0
M  V30 25601 C 3494.75 -2.10343 -8.03628 0
M  V30 25602 O 3495.49 -1.09919 -8.67766 0
M  V30 25603 C 3494.08 -1.68446 -6.70876 0
M  V30 25604 O 3494.88 -0.678137 -6.08433 0
M  V30 25605 C 3492.74 -1.17436 -7.18567 0
M  V30 25606 H 3492.78 -0.0804732 -7.31656 0
M  V30 25607 H 3493.96 -2.54037 -6.02537 0
M  V30 25608 H 3495.44 -2.93881 -7.85526 0
M  V30 25609 H 3493.75 -2.53065 -9.86973 0
M  V30 25610 H 3493.56 -4.75072 -9.05887 0
M  V30 25611 H 3491.93 -4.05244 -8.76668 0
M  V30 25612 H 3494.57 0.177647 -6.34251 0
M  V30 25613 P 3496.43 -1.25109 -8.70152 0
M  V30 25614 O 3497.85 -1.29744 -9.22016 0
M  V30 25615 O 3496.07 -2.13714 -7.55141 0
M  V30 25616 O 3496.1 0.248149 -8.21425 0
M  V30 25617 C 3495.94 1.22779 -9.30434 0
M  V30 25618 C 3496.48 2.56293 -8.80664 0
M  V30 25619 O 3495.43 3.02979 -8.09349 0
M  V30 25620 C 3497.7 2.57523 -7.89775 0
M  V30 25621 O 3498.44 3.7668 -7.89438 0
M  V30 25622 C 3497.03 2.20997 -6.55446 0
M  V30 25623 O 3497.83 2.71895 -5.48509 0
M  V30 25624 C 3495.69 2.89693 -6.67988 0
M  V30 25625 H 3495.73 3.88793 -6.19859 0
M  V30 25626 H 3496.91 1.12046 -6.44229 0
M  V30 25627 H 3498.39 1.7746 -8.19711 0
M  V30 25628 H 3496.7 3.20706 -9.67112 0
M  V30 25629 H 3496.51 0.901032 -10.1892 0
M  V30 25630 H 3494.88 1.33049 -9.56592 0
M  V30 25631 H 3497.52 3.57847 -5.23962 0
M  V30 25632 P 3499.38 3.65191 -7.99657 0
M  V30 25633 O 3500.8 3.89332 -8.45794 0
M  V30 25634 O 3499.02 2.28472 -7.50807 0
M  V30 25635 O 3499.05 4.64972 -6.77611 0
M  V30 25636 C 3498.89 6.06319 -7.16352 0
M  V30 25637 C 3499.43 6.91731 -6.02299 0
M  V30 25638 O 3498.38 6.92449 -5.17064 0
M  V30 25639 C 3500.65 6.43627 -5.25174 0
M  V30 25640 O 3501.39 7.43686 -4.60469 0
M  V30 25641 C 3499.98 5.40275 -4.31916 0
M  V30 25642 O 3500.78 5.25279 -3.14438 0
M  V30 25643 C 3498.65 6.04847 -4.05327 0
M  V30 25644 H 3498.68 6.62195 -3.11261 0
M  V30 25645 H 3499.86 4.42556 -4.81383 0
M  V30 25646 H 3501.34 5.92458 -5.93643 0
M  V30 25647 H 3499.65 7.92655 -6.402 0
M  V30 25648 H 3499.46 6.26671 -8.0846 0
M  V30 25649 H 3497.83 6.29101 -7.32804 0
M  V30 25650 H 3500.47 5.84315 -2.47318 0
M  V30 25651 P 3502.33 7.39546 -4.75277 0
M  V30 25652 O 3503.75 7.84966 -5.01146 0
M  V30 25653 O 3501.97 5.9812 -5.08098 0
M  V30 25654 O 3502 7.57503 -3.1866 0
M  V30 25655 C 3501.84 8.97357 -2.74833 0
M  V30 25656 C 3502.38 9.0745 -1.32694 0
M  V30 25657 O 3501.33 8.62072 -0.606159 0
M  V30 25658 C 3503.6 8.25383 -0.938334 0
M  V30 25659 O 3504.34 8.74577 0.146954 0
M  V30 25660 C 3502.93 6.8802 -0.712559 0
M  V30 25661 O 3503.73 6.11791 0.194623 0
M  V30 25662 C 3501.6 7.27966 -0.139777 0
M  V30 25663 N 3500.55 6.39368 -0.623421 0
M  V30 25664 C 3500.61 5.90299 -1.85969 0
M  V30 25665 N 3499.57 5.10919 -2.1133 0
M  V30 25666 C 3498.84 5.14646 -1.0015 0
M  V30 25667 C 3497.53 4.60057 -0.729219 0
M  V30 25668 O 3496.8 3.93476 -1.47746 0
M  V30 25669 N 3497.1 4.88302 0.523505 0
M  V30 25670 C 3497.85 5.63646 1.46207 0
M  V30 25671 N 3497.25 5.78186 2.69239 0
M  V30 25672 N 3499 6.19285 1.21544 0
M  V30 25673 C 3499.46 5.93392 -0.0308487 0
M  V30 25674 H 3501.63 7.25354 0.961601 0
M  V30 25675 H 3502.81 6.3246 -1.65676 0
M  V30 25676 H 3504.3 8.19533 -1.78278 0
M  V30 25677 H 3502.6 10.1294 -1.10029 0
M  V30 25678 H 3502.41 9.64276 -3.41316 0
M  V30 25679 H 3500.78 9.25417 -2.76357 0
M  V30 25680 H 3496.2 4.53993 0.806451 0
M  V30 25681 H 3501.41 6.11865 -2.57394 0
M  V30 25682 H 3496.34 5.34046 2.87467 0
M  V30 25683 H 3497.72 6.33391 3.42578 0
M  V30 25684 H 3503.42 6.25169 1.0783 0
M  V30 25685 P 3505.28 8.791 -1.14416e-10 0
M  V30 25686 O 3506.7 9.31096 0.027933 0
M  V30 25687 O 3504.92 7.77869 -1.04071 0
M  V30 25688 O 3504.95 8.09533 1.41463 0
M  V30 25689 C 3504.79 9.0349 2.53943 0
M  V30 25690 C 3505.33 8.35226 3.79016 0
M  V30 25691 O 3504.28 7.57992 4.15078 0
M  V30 25692 C 3506.55 7.45087 3.67298 0
M  V30 25693 O 3507.29 7.27796 4.85194 0
M  V30 25694 C 3505.88 6.17323 3.12027 0
M  V30 25695 O 3506.68 5.04231 3.47188 0
M  V30 25696 C 3504.55 6.19961 3.81809 0
M  V30 25697 H 3504.58 5.58218 4.73051 0
M  V30 25698 H 3505.76 6.21726 2.02589 0
M  V30 25699 H 3507.25 7.86112 2.9231 0
M  V30 25700 H 3505.55 9.11627 4.55076 0
M  V30 25701 H 3505.36 9.9573 2.34194 0
M  V30 25702 H 3503.73 9.2792 2.67832 0
M  V30 25703 H 3506.37 4.67702 4.28772 0
M  V30 25704 P 3508.23 7.39546 4.75277 0
M  V30 25705 O 3509.65 7.81945 5.05847 0
M  V30 25706 O 3507.87 7.1065 3.32998 0
M  V30 25707 O 3507.9 6.04542 5.56673 0
M  V30 25708 C 3507.74 6.22772 7.02095 0
M  V30 25709 C 3508.28 4.97671 7.70322 0
M  V30 25710 O 3507.23 4.13256 7.58987 0
M  V30 25711 C 3509.5 4.28231 7.11815 0
M  V30 25712 O 3510.24 3.49945 8.01648 0
M  V30 25713 C 3508.83 3.5063 5.96244 0
M  V30 25714 O 3509.63 2.36443 5.64589 0
M  V30 25715 C 3507.5 3.15122 6.56374 0
M  V30 25716 N 3506.45 3.22311 5.55692 0
M  V30 25717 C 3506.52 4.14382 4.59701 0
M  V30 25718 N 3505.47 4.04476 3.76958 0
M  V30 25719 C 3504.74 3.04892 4.26534 0
M  V30 25720 C 3503.43 2.57447 3.88189 0
M  V30 25721 O 3502.7 2.9785 2.96543 0
M  V30 25722 N 3503 1.55228 4.65922 0
M  V30 25723 C 3503.75 1.01152 5.73447 0
M  V30 25724 N 3503.15 -0.0472117 6.37783 0
M  V30 25725 N 3504.9 1.467 6.13813 0
M  V30 25726 C 3505.36 2.4931 5.38487 0
M  V30 25727 H 3507.53 2.13853 6.99751 0
M  V30 25728 H 3508.71 4.13438 5.06482 0
M  V30 25729 H 3510.2 5.02614 6.71414 0
M  V30 25730 H 3508.5 5.20877 8.75697 0
M  V30 25731 H 3508.31 7.11046 7.35349 0
M  V30 25732 H 3506.68 6.35815 7.26986 0
M  V30 25733 H 3502.1 1.15238 4.46468 0
M  V30 25734 H 3507.31 4.88312 4.49647 0
M  V30 25735 H 3502.24 -0.396382 6.05203 0
M  V30 25736 H 3503.62 -0.484997 7.18465 0
M  V30 25737 H 3509.32 1.61619 6.13468 0
M  V30 25738 P 3511.18 3.65191 7.99657 0
M  V30 25739 O 3512.6 3.8425 8.48115 0
M  V30 25740 O 3510.82 4.17805 6.64342 0
M  V30 25741 O 3510.86 2.07613 7.95143 0
M  V30 25742 C 3510.7 1.44328 9.27336 0
M  V30 25743 C 3511.24 0.0220036 9.17197 0
M  V30 25744 O 3510.18 -0.626867 8.61923 0
M  V30 25745 C 3512.45 -0.24586 8.30336 0
M  V30 25746 O 3513.19 -1.39011 8.63583 0
M  V30 25747 C 3511.78 -0.273849 6.91158 0
M  V30 25748 O 3512.58 -1.06348 6.02892 0
M  V30 25749 C 3510.45 -0.897649 7.22545 0
M  V30 25750 H 3510.48 -1.9841 7.04286 0
M  V30 25751 H 3511.66 0.739928 6.497 0
M  V30 25752 H 3513.15 0.60668 8.36503 0
M  V30 25753 H 3511.45 -0.352479 10.1829 0
M  V30 25754 H 3511.26 2.00611 10.0304 0
M  V30 25755 H 3509.63 1.41843 9.55327 0
M  V30 25756 H 3512.27 -1.95734 6.03555 0
M  V30 25757 P 3514.13 -1.25109 8.70152 0
M  V30 25758 O 3515.55 -1.35274 9.21221 0
M  V30 25759 O 3513.77 -0.0769065 7.84762 0
M  V30 25760 O 3513.81 -2.55232 7.81161 0
M  V30 25761 C 3513.65 -3.79939 8.58154 0
M  V30 25762 C 3514.19 -4.94023 7.72785 0
M  V30 25763 O 3513.13 -5.18726 6.91205 0
M  V30 25764 C 3515.4 -4.69597 6.85231 0
M  V30 25765 O 3516.14 -5.83832 6.51337 0
M  V30 25766 C 3514.73 -3.96706 5.66633 0
M  V30 25767 O 3515.53 -4.15414 4.49689 0
M  V30 25768 C 3513.4 -4.66153 5.59313 0
M  V30 25769 H 3513.43 -5.47679 4.85214 0
M  V30 25770 H 3514.61 -2.89008 5.86566 0
M  V30 25771 H 3516.1 -4.0121 7.36511 0
M  V30 25772 H 3514.4 -5.80182 8.37584 0
M  V30 25773 H 3514.21 -3.73517 9.52265 0
M  V30 25774 H 3512.58 -3.97163 8.80359 0
M  V30 25775 H 3515.22 -4.90969 4.01921 0
M  V30 25776 P 3517.08 -5.75688 6.64379 0
M  V30 25777 O 3518.48 -6.11991 7.09136 0
M  V30 25778 O 3516.7 -4.30899 6.62018 0
M  V30 25779 O 3516.76 -6.36965 5.19102 0
M  V30 25780 C 3516.6 -7.83578 5.16515 0
M  V30 25781 C 3517.14 -8.33307 3.82977 0
M  V30 25782 O 3516.08 -8.0998 3.00999 0
M  V30 25783 C 3518.35 -7.65514 3.2257 0
M  V30 25784 O 3519.09 -8.4329 2.32297 0
M  V30 25785 C 3517.69 -6.40075 2.62207 0
M  V30 25786 O 3518.48 -5.92492 1.53687 0
M  V30 25787 C 3516.35 -6.9454 2.18503 0
M  V30 25788 N 3515.31 -5.95905 2.39948 0
M  V30 25789 C 3514.27 -5.89764 1.49837 0
M  V30 25790 O 3514.31 -6.64088 0.490975 0
M  V30 25791 N 3513.26 -5.02821 1.70992 0
M  V30 25792 C 3513.31 -4.21498 2.77236 0
M  V30 25793 C 3514.4 -4.23389 3.68205 0
M  V30 25794 C 3515.37 -5.12792 3.46171 0
M  V30 25795 H 3516.38 -7.22964 1.12076 0
M  V30 25796 H 3517.56 -5.60502 3.36589 0
M  V30 25797 H 3519.05 -7.36197 4.01993 0
M  V30 25798 H 3517.35 -9.41302 3.90009 0
M  V30 25799 H 3517.16 -8.29056 5.99158 0
M  V30 25800 H 3515.53 -8.09989 5.25828 0
M  V30 25801 H 3514.45 -3.54747 4.52399 0
M  V30 25802 H 3516.21 -5.18551 4.1489 0
M  V30 25803 H 3518.27 -6.40705 0.751752 0
M  V30 25804 P 3520.03 -8.4349 2.47671 0
M  V30 25805 O 3521.45 -8.94167 2.5964 0
M  V30 25806 O 3519.67 -7.1704 3.19006 0
M  V30 25807 O 3519.71 -8.16596 0.923387 0
M  V30 25808 C 3519.55 -9.38437 0.108857 0
M  V30 25809 C 3520.09 -9.08175 -1.28353 0
M  V30 25810 O 3519.03 -8.44229 -1.84713 0
M  V30 25811 C 3521.31 -8.18386 -1.42505 0
M  V30 25812 O 3522.04 -8.3501 -2.60497 0
M  V30 25813 C 3520.64 -6.80225 -1.25468 0
M  V30 25814 O 3521.44 -5.81621 -1.91066 0
M  V30 25815 C 3519.3 -7.02416 -1.9168 0
M  V30 25816 H 3519.33 -6.6888 -2.96621 0
M  V30 25817 H 3520.51 -6.53617 -0.192223 0
M  V30 25818 H 3522 -8.36622 -0.589963 0
M  V30 25819 H 3520.3 -10.0291 -1.79807 0
M  V30 25820 H 3520.11 -10.2138 0.558219 0
M  V30 25821 H 3518.48 -9.6579 0.0444202 0
M  V30 25822 H 3521.12 -5.69556 -2.79637 0
M  V30 25823 P 3522.98 -8.4349 -2.47671 0
M  V30 25824 O 3524.4 -8.92785 -2.65057 0
M  V30 25825 O 3522.62 -7.7568 -1.19296 0
M  V30 25826 O 3522.66 -7.36886 -3.63805 0
M  V30 25827 C 3522.5 -7.95349 -4.982 0
M  V30 25828 C 3523.04 -6.94537 -5.98908 0
M  V30 25829 O 3521.98 -6.10347 -6.11815 0
M  V30 25830 C 3524.26 -6.11426 -5.62335 0
M  V30 25831 O 3524.99 -5.6162 -6.70584 0
M  V30 25832 C 3523.59 -5.04409 -4.73308 0
M  V30 25833 O 3524.39 -3.85929 -4.75106 0
M  V30 25834 C 3522.25 -4.8728 -5.41006 0
M  V30 25835 N 3521.21 -4.65812 -4.42377 0
M  V30 25836 C 3521.27 -5.27109 -3.24335 0
M  V30 25837 N 3520.22 -4.94293 -2.47735 0
M  V30 25838 C 3519.49 -4.1271 -3.23359 0
M  V30 25839 C 3518.18 -3.56384 -2.99934 0
M  V30 25840 O 3517.45 -3.69331 -2.00616 0
M  V30 25841 N 3517.75 -2.80206 -4.03316 0
M  V30 25842 C 3518.5 -2.58614 -5.2172 0
M  V30 25843 N 3517.91 -1.75154 -6.13278 0
M  V30 25844 N 3519.66 -3.13689 -5.47619 0
M  V30 25845 C 3520.11 -3.90921 -4.46436 0
M  V30 25846 H 3522.28 -4.02333 -6.11157 0
M  V30 25847 H 3523.46 -5.39383 -3.69487 0
M  V30 25848 H 3524.95 -6.71414 -5.02615 0
M  V30 25849 H 3523.25 -7.4649 -6.93477 0
M  V30 25850 H 3523.06 -8.89416 -5.05237 0
M  V30 25851 H 3521.43 -8.14876 -5.18409 0
M  V30 25852 H 3516.86 -2.36355 -3.95916 0
M  V30 25853 H 3522.06 -5.95212 -2.93859 0
M  V30 25854 H 3516.99 -1.32473 -5.91856 0
M  V30 25855 H 3518.37 -1.5588 -7.03026 0
M  V30 25856 H 3524.07 -3.27906 -5.43085 0
M  V30 25857 P 3525.93 -5.75688 -6.64379 0
M  V30 25858 O 3527.35 -6.07627 -7.05504 0
M  V30 25859 O 3525.57 -5.88047 -5.19722 0
M  V30 25860 O 3525.61 -4.2322 -7.04443 0
M  V30 25861 C 3525.45 -3.99743 -8.4911 0
M  V30 25862 C 3525.99 -2.60516 -8.79425 0
M  V30 25863 O 3524.93 -1.82684 -8.4467 0
M  V30 25864 C 3527.21 -2.10343 -8.03628 0
M  V30 25865 O 3527.94 -1.09919 -8.67766 0
M  V30 25866 C 3526.54 -1.68446 -6.70876 0
M  V30 25867 O 3527.34 -0.678137 -6.08433 0
M  V30 25868 C 3525.2 -1.17436 -7.18567 0
M  V30 25869 H 3525.23 -0.0804732 -7.31656 0
M  V30 25870 H 3526.42 -2.54037 -6.02537 0
M  V30 25871 H 3527.9 -2.93881 -7.85526 0
M  V30 25872 H 3526.21 -2.53065 -9.86973 0
M  V30 25873 H 3526.02 -4.75072 -9.05887 0
M  V30 25874 H 3524.39 -4.05244 -8.76668 0
M  V30 25875 H 3527.02 0.177647 -6.34251 0
M  V30 25876 P 3528.88 -1.25109 -8.70152 0
M  V30 25877 O 3530.3 -1.29758 -9.22115 0
M  V30 25878 O 3528.52 -2.13714 -7.55141 0
M  V30 25879 O 3528.56 0.248149 -8.21425 0
M  V30 25880 C 3528.4 1.22792 -9.30533 0
M  V30 25881 C 3528.94 2.56293 -8.80664 0
M  V30 25882 O 3527.88 3.02944 -8.09255 0
M  V30 25883 C 3530.16 2.57523 -7.89775 0
M  V30 25884 O 3530.89 3.7668 -7.89438 0
M  V30 25885 C 3529.49 2.20997 -6.55446 0
M  V30 25886 O 3530.29 2.71302 -5.48691 0
M  V30 25887 C 3528.15 2.89693 -6.67988 0
M  V30 25888 N 3527.11 2.08895 -6.07487 0
M  V30 25889 C 3527.28 0.753809 -5.94137 0
M  V30 25890 N 3526.25 0.146592 -5.38801 0
M  V30 25891 C 3525.36 1.1768 -5.13693 0
M  V30 25892 C 3524.1 1.17563 -4.52477 0
M  V30 25893 N 3523.53 2.41918 -4.45789 0
M  V30 25894 C 3524.13 3.56493 -4.90792 0
M  V30 25895 N 3525.31 3.61423 -5.47817 0
M  V30 25896 C 3525.89 2.37779 -5.5588 0
M  V30 25897 H 3529.37 1.12673 -6.44018 0
M  V30 25898 H 3530.85 1.7746 -8.19711 0
M  V30 25899 H 3529.15 3.21673 -9.66791 0
M  V30 25900 H 3528.96 0.901032 -10.1892 0
M  V30 25901 H 3527.33 1.33049 -9.56592 0
M  V30 25902 H 3528.18 0.233081 -6.26266 0
M  V30 25903 H 3529.97 3.5779 -5.23879 0
M  V30 25904 P 3531.83 3.65191 -7.99657 0
M  V30 25905 O 3533.25 3.89332 -8.45794 0
M  V30 25906 O 3531.47 2.28472 -7.50807 0
M  V30 25907 O 3531.51 4.64972 -6.77611 0
M  V30 25908 C 3531.35 6.06319 -7.16352 0
M  V30 25909 C 3531.89 6.91731 -6.02299 0
M  V30 25910 O 3530.83 6.92449 -5.17064 0
M  V30 25911 C 3533.11 6.43627 -5.25174 0
M  V30 25912 O 3533.85 7.43686 -4.60469 0
M  V30 25913 C 3532.44 5.40275 -4.31916 0
M  V30 25914 O 3533.24 5.25279 -3.14438 0
M  V30 25915 C 3531.1 6.04847 -4.05327 0
M  V30 25916 H 3531.13 6.62195 -3.11261 0
M  V30 25917 H 3532.32 4.42556 -4.81383 0
M  V30 25918 H 3533.8 5.92458 -5.93643 0
M  V30 25919 H 3532.11 7.92655 -6.402 0
M  V30 25920 H 3531.92 6.26671 -8.0846 0
M  V30 25921 H 3530.29 6.29101 -7.32804 0
M  V30 25922 H 3532.93 5.84315 -2.47318 0
M  V30 25923 P 3534.78 7.39546 -4.75277 0
M  V30 25924 O 3536.2 7.84798 -5.01039 0
M  V30 25925 O 3534.42 5.9812 -5.08098 0
M  V30 25926 O 3534.46 7.57503 -3.1866 0
M  V30 25927 C 3534.3 8.97357 -2.74833 0
M  V30 25928 C 3534.84 9.07548 -1.32709 0
M  V30 25929 O 3533.78 8.62072 -0.606159 0
M  V30 25930 C 3536.06 8.25383 -0.938334 0
M  V30 25931 O 3536.8 8.74577 0.146954 0
M  V30 25932 C 3535.39 6.8802 -0.712559 0
M  V30 25933 O 3536.19 6.1189 0.194655 0
M  V30 25934 C 3534.05 7.27966 -0.139777 0
M  V30 25935 H 3534.08 7.25354 0.961601 0
M  V30 25936 H 3535.27 6.32557 -1.65702 0
M  V30 25937 H 3536.75 8.19355 -1.79097 0
M  V30 25938 H 3535.06 10.1294 -1.10029 0
M  V30 25939 H 3534.87 9.64276 -3.41316 0
M  V30 25940 H 3533.24 9.25417 -2.76357 0
M  V30 25941 H 3535.88 6.25267 1.07847 0
M  V30 25942 P 3537.73 8.791 -1.19603e-10 0
M  V30 25943 O 3539.16 9.31096 0.027933 0
M  V30 25944 O 3537.37 7.77869 -1.04071 0
M  V30 25945 O 3537.41 8.09533 1.41463 0
M  V30 25946 C 3537.25 9.0349 2.53943 0
M  V30 25947 C 3537.79 8.35226 3.79016 0
M  V30 25948 O 3536.73 7.57992 4.15078 0
M  V30 25949 C 3539.01 7.45087 3.67298 0
M  V30 25950 O 3539.75 7.27796 4.85194 0
M  V30 25951 C 3538.34 6.17323 3.12027 0
M  V30 25952 O 3539.14 5.04231 3.47188 0
M  V30 25953 C 3537 6.19961 3.81809 0
M  V30 25954 H 3537.03 5.58218 4.73051 0
M  V30 25955 H 3538.22 6.21726 2.02589 0
M  V30 25956 H 3539.7 7.86112 2.9231 0
M  V30 25957 H 3538.01 9.11627 4.55076 0
M  V30 25958 H 3537.82 9.9573 2.34194 0
M  V30 25959 H 3536.19 9.2792 2.67832 0
M  V30 25960 H 3538.83 4.67702 4.28772 0
M  V30 25961 P 3540.68 7.39546 4.75277 0
M  V30 25962 O 3542.11 7.81777 5.05738 0
M  V30 25963 O 3540.32 7.1065 3.32998 0
M  V30 25964 O 3540.36 6.04542 5.56673 0
M  V30 25965 C 3540.2 6.22772 7.02095 0
M  V30 25966 C 3540.74 4.97725 7.70406 0
M  V30 25967 O 3539.68 4.13256 7.58987 0
M  V30 25968 C 3541.96 4.28231 7.11815 0
M  V30 25969 O 3542.7 3.49945 8.01648 0
M  V30 25970 C 3541.29 3.5063 5.96244 0
M  V30 25971 O 3542.09 2.36482 5.64681 0
M  V30 25972 C 3539.95 3.15122 6.56374 0
M  V30 25973 H 3539.98 2.13853 6.99751 0
M  V30 25974 H 3541.17 4.13501 5.06559 0
M  V30 25975 H 3542.65 5.03285 6.70911 0
M  V30 25976 H 3540.96 5.20877 8.75697 0
M  V30 25977 H 3540.77 7.11046 7.35349 0
M  V30 25978 H 3539.14 6.35815 7.26986 0
M  V30 25979 H 3541.78 1.61644 6.13565 0
M  V30 25980 P 3543.63 3.65191 7.99657 0
M  V30 25981 O 3545.06 3.8425 8.48115 0
M  V30 25982 O 3543.27 4.17805 6.64342 0
M  V30 25983 O 3543.31 2.07613 7.95143 0
M  V30 25984 C 3543.15 1.44328 9.27336 0
M  V30 25985 C 3543.69 0.0220036 9.17197 0
M  V30 25986 O 3542.64 -0.626867 8.61923 0
M  V30 25987 C 3544.91 -0.24586 8.30336 0
M  V30 25988 O 3545.65 -1.39011 8.63583 0
M  V30 25989 C 3544.24 -0.273849 6.91158 0
M  V30 25990 O 3545.04 -1.06348 6.02892 0
M  V30 25991 C 3542.9 -0.897649 7.22545 0
M  V30 25992 H 3542.94 -1.9841 7.04286 0
M  V30 25993 H 3544.12 0.739928 6.497 0
M  V30 25994 H 3545.6 0.60668 8.36503 0
M  V30 25995 H 3543.91 -0.352479 10.1829 0
M  V30 25996 H 3543.72 2.00611 10.0304 0
M  V30 25997 H 3542.09 1.41843 9.55327 0
M  V30 25998 H 3544.73 -1.95734 6.03555 0
M  V30 25999 P 3546.59 -1.25109 8.70152 0
M  V30 26000 O 3548.01 -1.35303 9.21419 0
M  V30 26001 O 3546.23 -0.0769065 7.84762 0
M  V30 26002 O 3546.26 -2.55232 7.81161 0
M  V30 26003 C 3546.1 -3.79939 8.58154 0
M  V30 26004 C 3546.64 -4.93969 7.72701 0
M  V30 26005 O 3545.59 -5.18726 6.91205 0
M  V30 26006 C 3547.86 -4.69597 6.85231 0
M  V30 26007 O 3548.6 -5.83832 6.51337 0
M  V30 26008 C 3547.19 -3.96706 5.66633 0
M  V30 26009 O 3547.99 -4.15346 4.49615 0
M  V30 26010 C 3545.85 -4.66153 5.59313 0
M  V30 26011 N 3544.81 -3.71582 5.24027 0
M  V30 26012 C 3544.87 -2.46018 5.67902 0
M  V30 26013 N 3543.83 -1.74868 5.24518 0
M  V30 26014 C 3543.09 -2.61333 4.54528 0
M  V30 26015 C 3541.79 -2.46162 3.95441 0
M  V30 26016 O 3541.06 -1.46013 3.94122 0
M  V30 26017 N 3541.36 -3.59334 3.34752 0
M  V30 26018 C 3542.11 -4.79605 3.3023 0
M  V30 26019 N 3541.51 -5.82109 2.6065 0
M  V30 26020 N 3543.26 -4.97402 3.8843 0
M  V30 26021 C 3543.72 -3.86258 4.50476 0
M  V30 26022 H 3545.89 -5.47679 4.85214 0
M  V30 26023 H 3547.07 -2.88964 5.86476 0
M  V30 26024 H 3548.55 -4.01947 7.36109 0
M  V30 26025 H 3546.86 -5.80182 8.37584 0
M  V30 26026 H 3546.67 -3.73517 9.52265 0
M  V30 26027 H 3545.04 -3.97163 8.80359 0
M  V30 26028 H 3540.46 -3.5825 2.90294 0
M  V30 26029 H 3545.67 -2.06161 6.30974 0
M  V30 26030 H 3540.6 -5.66979 2.15354 0
M  V30 26031 H 3541.98 -6.73686 2.54344 0
M  V30 26032 H 3547.68 -4.90891 4.01857 0
M  V30 26033 P 3549.54 -5.75688 6.64379 0
M  V30 26034 O 3550.96 -6.11849 7.01846 0
M  V30 26035 O 3549.18 -4.30744 6.56026 0
M  V30 26036 O 3549.21 -6.37042 5.19165 0
M  V30 26037 C 3549.05 -7.83578 5.16515 0
M  V30 26038 C 3549.59 -8.33398 3.83019 0
M  V30 26039 O 3548.54 -8.10074 3.01034 0
M  V30 26040 C 3550.81 -7.65514 3.2257 0
M  V30 26041 O 3551.55 -8.4329 2.32297 0
M  V30 26042 C 3550.14 -6.40075 2.62207 0
M  V30 26043 O 3550.94 -5.92589 1.53712 0
M  V30 26044 C 3548.8 -6.9454 2.18503 0
M  V30 26045 H 3548.84 -7.23063 1.12091 0
M  V30 26046 H 3550.02 -5.6025 3.37201 0
M  V30 26047 H 3551.5 -7.35707 4.02681 0
M  V30 26048 H 3549.81 -9.40912 3.9095 0
M  V30 26049 H 3549.62 -8.29056 5.99158 0
M  V30 26050 H 3547.99 -8.10073 5.25882 0
M  V30 26051 H 3550.63 -6.30324 0.726794 0
M  V30 26052 P 3552.49 -8.4349 2.47671 0
M  V30 26053 O 3553.91 -8.94167 2.5964 0
M  V30 26054 O 3552.13 -7.1704 3.19006 0
M  V30 26055 O 3552.16 -8.16596 0.923387 0
M  V30 26056 C 3552 -9.38437 0.108857 0
M  V30 26057 C 3552.54 -9.08175 -1.28353 0
M  V30 26058 O 3551.49 -8.44229 -1.84713 0
M  V30 26059 C 3553.76 -8.18386 -1.42505 0
M  V30 26060 O 3554.5 -8.3501 -2.60497 0
M  V30 26061 C 3553.09 -6.80225 -1.25468 0
M  V30 26062 O 3553.89 -5.81621 -1.91066 0
M  V30 26063 C 3551.76 -7.02416 -1.9168 0
M  V30 26064 H 3551.79 -6.6888 -2.96621 0
M  V30 26065 H 3552.97 -6.53617 -0.192223 0
M  V30 26066 H 3554.45 -8.36622 -0.589963 0
M  V30 26067 H 3552.76 -10.0291 -1.79807 0
M  V30 26068 H 3552.57 -10.2138 0.558219 0
M  V30 26069 H 3550.94 -9.6579 0.0444202 0
M  V30 26070 H 3553.58 -5.69556 -2.79637 0
M  V30 26071 P 3555.44 -8.4349 -2.47671 0
M  V30 26072 O 3556.86 -8.92689 -2.65029 0
M  V30 26073 O 3555.08 -7.7568 -1.19296 0
M  V30 26074 O 3555.11 -7.36886 -3.63805 0
M  V30 26075 C 3554.95 -7.95433 -4.98253 0
M  V30 26076 C 3555.49 -6.94612 -5.98974 0
M  V30 26077 O 3554.44 -6.10277 -6.11744 0
M  V30 26078 C 3556.71 -6.11426 -5.62335 0
M  V30 26079 O 3557.45 -5.6162 -6.70584 0
M  V30 26080 C 3556.04 -5.04409 -4.73308 0
M  V30 26081 O 3556.84 -3.86404 -4.74719 0
M  V30 26082 C 3554.71 -4.8728 -5.41006 0
M  V30 26083 N 3553.66 -4.65812 -4.42377 0
M  V30 26084 C 3553.83 -5.09132 -3.15382 0
M  V30 26085 N 3552.8 -4.84021 -2.3716 0
M  V30 26086 C 3551.92 -4.18386 -3.20441 0
M  V30 26087 C 3550.65 -3.6275 -2.94905 0
M  V30 26088 N 3550.05 -3.65794 -1.73372 0
M  V30 26089 N 3550.09 -3.05008 -4.05243 0
M  V30 26090 C 3550.69 -2.98348 -5.28159 0
M  V30 26091 N 3551.87 -3.48171 -5.56333 0
M  V30 26092 C 3552.44 -4.06869 -4.47212 0
M  V30 26093 H 3554.74 -4.02278 -6.11074 0
M  V30 26094 H 3555.92 -5.39013 -3.70026 0
M  V30 26095 H 3557.4 -6.71916 -5.01943 0
M  V30 26096 H 3555.71 -7.45796 -6.94223 0
M  V30 26097 H 3555.52 -8.89416 -5.05237 0
M  V30 26098 H 3553.89 -8.14876 -5.18409 0
M  V30 26099 H 3550.15 -2.47853 -6.07807 0
M  V30 26100 H 3554.73 -5.59989 -2.81362 0
M  V30 26101 H 3549.12 -3.23218 -1.60782 0
M  V30 26102 H 3550.53 -4.10523 -0.937856 0
M  V30 26103 H 3556.53 -3.27906 -5.43085 0
M  V30 26104 P 3558.39 -5.75688 -6.64379 0
M  V30 26105 O 3559.81 -6.07627 -7.05504 0
M  V30 26106 O 3558.03 -5.88047 -5.19722 0
M  V30 26107 O 3558.06 -4.2322 -7.04443 0
M  V30 26108 C 3557.9 -3.99743 -8.4911 0
M  V30 26109 C 3558.44 -2.60516 -8.79425 0
M  V30 26110 O 3557.39 -1.82684 -8.4467 0
M  V30 26111 C 3559.66 -2.10343 -8.03628 0
M  V30 26112 O 3560.4 -1.09919 -8.67766 0
M  V30 26113 C 3558.99 -1.68446 -6.70876 0
M  V30 26114 O 3559.79 -0.678137 -6.08433 0
M  V30 26115 C 3557.66 -1.17436 -7.18567 0
M  V30 26116 H 3557.69 -0.0804732 -7.31656 0
M  V30 26117 H 3558.87 -2.54037 -6.02537 0
M  V30 26118 H 3560.36 -2.93881 -7.85526 0
M  V30 26119 H 3558.66 -2.53065 -9.86973 0
M  V30 26120 H 3558.47 -4.75072 -9.05887 0
M  V30 26121 H 3556.84 -4.05244 -8.76668 0
M  V30 26122 H 3559.48 0.177647 -6.34251 0
M  V30 26123 P 3561.34 -1.25109 -8.70152 0
M  V30 26124 O 3562.76 -1.29744 -9.22016 0
M  V30 26125 O 3560.98 -2.13714 -7.55141 0
M  V30 26126 O 3561.01 0.248149 -8.21425 0
M  V30 26127 C 3560.85 1.22779 -9.30434 0
M  V30 26128 C 3561.39 2.56293 -8.80664 0
M  V30 26129 O 3560.34 3.02979 -8.09349 0
M  V30 26130 C 3562.61 2.57523 -7.89775 0
M  V30 26131 O 3563.35 3.7668 -7.89438 0
M  V30 26132 C 3561.94 2.20997 -6.55446 0
M  V30 26133 O 3562.74 2.71895 -5.48509 0
M  V30 26134 C 3560.61 2.89693 -6.67988 0
M  V30 26135 H 3560.64 3.88793 -6.19859 0
M  V30 26136 H 3561.82 1.12046 -6.44229 0
M  V30 26137 H 3563.31 1.7746 -8.19711 0
M  V30 26138 H 3561.61 3.20706 -9.67112 0
M  V30 26139 H 3561.42 0.901032 -10.1892 0
M  V30 26140 H 3559.79 1.33049 -9.56592 0
M  V30 26141 H 3562.43 3.57847 -5.23962 0
M  V30 26142 P 3564.29 3.65191 -7.99657 0
M  V30 26143 O 3565.71 3.89332 -8.45794 0
M  V30 26144 O 3563.93 2.28472 -7.50807 0
M  V30 26145 O 3563.97 4.64972 -6.77611 0
M  V30 26146 C 3563.81 6.06319 -7.16352 0
M  V30 26147 C 3564.35 6.91731 -6.02299 0
M  V30 26148 O 3563.29 6.92449 -5.17064 0
M  V30 26149 C 3565.56 6.43627 -5.25174 0
M  V30 26150 O 3566.3 7.43686 -4.60469 0
M  V30 26151 C 3564.89 5.40275 -4.31916 0
M  V30 26152 O 3565.69 5.25279 -3.14438 0
M  V30 26153 C 3563.56 6.04847 -4.05327 0
M  V30 26154 H 3563.59 6.62195 -3.11261 0
M  V30 26155 H 3564.77 4.42556 -4.81383 0
M  V30 26156 H 3566.26 5.92458 -5.93643 0
M  V30 26157 H 3564.56 7.92655 -6.402 0
M  V30 26158 H 3564.37 6.26671 -8.0846 0
M  V30 26159 H 3562.74 6.29101 -7.32804 0
M  V30 26160 H 3565.38 5.84315 -2.47318 0
M  V30 26161 P 3567.24 7.39546 -4.75277 0
M  V30 26162 O 3568.66 7.84798 -5.01039 0
M  V30 26163 O 3566.88 5.9812 -5.08098 0
M  V30 26164 O 3566.92 7.57503 -3.1866 0
M  V30 26165 C 3566.76 8.97357 -2.74833 0
M  V30 26166 C 3567.3 9.07548 -1.32709 0
M  V30 26167 O 3566.24 8.62072 -0.606159 0
M  V30 26168 C 3568.51 8.25383 -0.938334 0
M  V30 26169 O 3569.25 8.74577 0.146954 0
M  V30 26170 C 3567.85 6.8802 -0.712559 0
M  V30 26171 O 3568.64 6.1189 0.194655 0
M  V30 26172 C 3566.51 7.27966 -0.139777 0
M  V30 26173 H 3566.54 7.25354 0.961601 0
M  V30 26174 H 3567.72 6.32557 -1.65702 0
M  V30 26175 H 3569.21 8.19355 -1.79097 0
M  V30 26176 H 3567.51 10.1294 -1.10029 0
M  V30 26177 H 3567.32 9.64276 -3.41316 0
M  V30 26178 H 3565.69 9.25417 -2.76357 0
M  V30 26179 H 3568.33 6.25267 1.07847 0
M  V30 26180 P 3570.19 8.791 -1.2479e-10 0
M  V30 26181 O 3571.59 9.36698 -0.018734 0
M  V30 26182 O 3569.81 7.82499 -1.07878 0
M  V30 26183 O 3569.87 8.09434 1.41446 0
M  V30 26184 C 3569.71 9.0349 2.53943 0
M  V30 26185 C 3570.25 8.35135 3.78975 0
M  V30 26186 O 3569.19 7.57904 4.1503 0
M  V30 26187 C 3571.46 7.45087 3.67298 0
M  V30 26188 O 3572.2 7.27796 4.85194 0
M  V30 26189 C 3570.8 6.17323 3.12027 0
M  V30 26190 O 3571.59 5.04149 3.47132 0
M  V30 26191 C 3569.46 6.19961 3.81809 0
M  V30 26192 N 3568.42 5.71575 2.93223 0
M  V30 26193 C 3567.38 4.99452 3.47592 0
M  V30 26194 O 3567.42 4.7199 4.69732 0
M  V30 26195 N 3566.37 4.58505 2.6803 0
M  V30 26196 C 3566.42 4.85544 1.36995 0
M  V30 26197 N 3565.41 4.45052 0.609031 0
M  V30 26198 C 3567.51 5.55532 0.788532 0
M  V30 26199 C 3568.48 5.97426 1.60849 0
M  V30 26200 H 3569.49 5.58142 4.72986 0
M  V30 26201 H 3570.67 6.21428 2.0318 0
M  V30 26202 H 3572.16 7.85913 2.93131 0
M  V30 26203 H 3570.46 9.11171 4.55987 0
M  V30 26204 H 3570.27 9.9573 2.34194 0
M  V30 26205 H 3568.64 9.27824 2.67805 0
M  V30 26206 H 3567.56 5.7421 -0.281588 0
M  V30 26207 H 3569.32 6.53132 1.202 0
M  V30 26208 H 3564.62 3.94123 1.03159 0
M  V30 26209 H 3565.41 4.64377 -0.400352 0
M  V30 26210 H 3571.38 4.76386 4.34983 0
M  V30 26211 P 3573.14 7.39546 4.75277 0
M  V30 26212 O 3574.56 7.81777 5.05738 0
M  V30 26213 O 3572.78 7.1065 3.32998 0
M  V30 26214 O 3572.82 6.04542 5.56673 0
M  V30 26215 C 3572.66 6.22772 7.02095 0
M  V30 26216 C 3573.2 4.97725 7.70406 0
M  V30 26217 O 3572.14 4.13256 7.58987 0
M  V30 26218 C 3574.42 4.28231 7.11815 0
M  V30 26219 O 3575.15 3.49945 8.01648 0
M  V30 26220 C 3573.75 3.5063 5.96244 0
M  V30 26221 O 3574.55 2.36482 5.64681 0
M  V30 26222 C 3572.41 3.15122 6.56374 0
M  V30 26223 H 3572.44 2.13853 6.99751 0
M  V30 26224 H 3573.62 4.13501 5.06559 0
M  V30 26225 H 3575.11 5.03285 6.70911 0
M  V30 26226 H 3573.41 5.20877 8.75697 0
M  V30 26227 H 3573.22 7.11046 7.35349 0
M  V30 26228 H 3571.59 6.35815 7.26986 0
M  V30 26229 H 3574.23 1.61644 6.13565 0
M  V30 26230 P 3576.09 3.65191 7.99657 0
M  V30 26231 O 3577.51 3.8425 8.48115 0
M  V30 26232 O 3575.73 4.17805 6.64342 0
M  V30 26233 O 3575.77 2.07613 7.95143 0
M  V30 26234 C 3575.61 1.44328 9.27336 0
M  V30 26235 C 3576.15 0.0220036 9.17197 0
M  V30 26236 O 3575.09 -0.626867 8.61923 0
M  V30 26237 C 3577.37 -0.24586 8.30336 0
M  V30 26238 O 3578.1 -1.39011 8.63583 0
M  V30 26239 C 3576.7 -0.273849 6.91158 0
M  V30 26240 O 3577.5 -1.06348 6.02892 0
M  V30 26241 C 3575.36 -0.897649 7.22545 0
M  V30 26242 H 3575.39 -1.9841 7.04286 0
M  V30 26243 H 3576.57 0.739928 6.497 0
M  V30 26244 H 3578.06 0.60668 8.36503 0
M  V30 26245 H 3576.36 -0.352479 10.1829 0
M  V30 26246 H 3576.17 2.00611 10.0304 0
M  V30 26247 H 3574.54 1.41843 9.55327 0
M  V30 26248 H 3577.18 -1.95734 6.03555 0
M  V30 26249 P 3579.04 -1.25109 8.70152 0
M  V30 26250 O 3580.46 -1.35288 9.2132 0
M  V30 26251 O 3578.68 -0.0769065 7.84762 0
M  V30 26252 O 3578.72 -2.55232 7.81161 0
M  V30 26253 C 3578.56 -3.79979 8.58246 0
M  V30 26254 C 3579.1 -4.94023 7.72785 0
M  V30 26255 O 3578.04 -5.18666 6.91125 0
M  V30 26256 C 3580.32 -4.69597 6.85231 0
M  V30 26257 O 3581.05 -5.83832 6.51337 0
M  V30 26258 C 3579.65 -3.96706 5.66633 0
M  V30 26259 O 3580.45 -4.14896 4.5003 0
M  V30 26260 C 3578.31 -4.66153 5.59313 0
M  V30 26261 N 3577.27 -3.71582 5.24027 0
M  V30 26262 C 3577.44 -2.39715 5.48833 0
M  V30 26263 N 3576.41 -1.65863 5.12845 0
M  V30 26264 C 3575.52 -2.57637 4.5973 0
M  V30 26265 C 3574.26 -2.40278 4.01027 0
M  V30 26266 N 3573.66 -1.19549 3.86744 0
M  V30 26267 N 3573.69 -3.57711 3.59575 0
M  V30 26268 C 3574.29 -4.80324 3.70476 0
M  V30 26269 N 3575.47 -5.01121 4.23801 0
M  V30 26270 C 3576.05 -3.84757 4.66372 0
M  V30 26271 H 3578.34 -5.47604 4.85148 0
M  V30 26272 H 3579.53 -2.8955 5.86187 0
M  V30 26273 H 3581.01 -4.0121 7.36511 0
M  V30 26274 H 3579.31 -5.81019 8.37003 0
M  V30 26275 H 3579.12 -3.73517 9.52265 0
M  V30 26276 H 3577.49 -3.97163 8.80359 0
M  V30 26277 H 3573.76 -5.66348 3.3183 0
M  V30 26278 H 3578.34 -1.98804 5.94332 0
M  V30 26279 H 3572.73 -1.13147 3.4281 0
M  V30 26280 H 3574.13 -0.344074 4.19692 0
M  V30 26281 H 3580.13 -4.90891 4.01857 0
M  V30 26282 P 3581.99 -5.75688 6.64379 0
M  V30 26283 O 3583.41 -6.11915 7.01921 0
M  V30 26284 O 3581.63 -4.30744 6.56026 0
M  V30 26285 O 3581.67 -6.37042 5.19165 0
M  V30 26286 C 3581.51 -7.83662 5.1657 0
M  V30 26287 C 3582.05 -8.33398 3.83019 0
M  V30 26288 O 3580.99 -8.0998 3.00999 0
M  V30 26289 C 3583.27 -7.65514 3.2257 0
M  V30 26290 O 3584 -8.4329 2.32297 0
M  V30 26291 C 3582.6 -6.40075 2.62207 0
M  V30 26292 O 3583.4 -5.92338 1.5428 0
M  V30 26293 C 3581.26 -6.9454 2.18503 0
M  V30 26294 N 3580.22 -5.95905 2.39948 0
M  V30 26295 C 3580.39 -4.98383 3.32108 0
M  V30 26296 N 3579.36 -4.16798 3.41761 0
M  V30 26297 C 3578.47 -4.65287 2.47461 0
M  V30 26298 C 3577.21 -4.18946 2.07461 0
M  V30 26299 N 3576.61 -3.09661 2.60717 0
M  V30 26300 N 3576.64 -4.95327 1.09101 0
M  V30 26301 C 3577.24 -6.04369 0.519812 0
M  V30 26302 N 3578.42 -6.50694 0.855982 0
M  V30 26303 C 3579 -5.75818 1.84322 0
M  V30 26304 H 3581.29 -7.22964 1.12076 0
M  V30 26305 H 3582.48 -5.60502 3.36589 0
M  V30 26306 H 3583.96 -7.35707 4.02681 0
M  V30 26307 H 3582.26 -9.41302 3.90009 0
M  V30 26308 H 3582.07 -8.29056 5.99158 0
M  V30 26309 H 3580.44 -8.10073 5.25882 0
M  V30 26310 H 3576.71 -6.55843 -0.270373 0
M  V30 26311 H 3581.29 -4.88564 3.92502 0
M  V30 26312 H 3575.68 -2.80523 2.27218 0
M  V30 26313 H 3577.08 -2.55848 3.34465 0
M  V30 26314 H 3583.08 -6.30224 0.72668 0
M  V30 26315 P 3584.94 -8.4349 2.47671 0
M  V30 26316 O 3586.36 -8.94167 2.5964 0
M  V30 26317 O 3584.58 -7.1704 3.19006 0
M  V30 26318 O 3584.62 -8.16596 0.923387 0
M  V30 26319 C 3584.46 -9.38437 0.108857 0
M  V30 26320 C 3585 -9.08175 -1.28353 0
M  V30 26321 O 3583.94 -8.44229 -1.84713 0
M  V30 26322 C 3586.22 -8.18386 -1.42505 0
M  V30 26323 O 3586.96 -8.3501 -2.60497 0
M  V30 26324 C 3585.55 -6.80225 -1.25468 0
M  V30 26325 O 3586.35 -5.81621 -1.91066 0
M  V30 26326 C 3584.21 -7.02416 -1.9168 0
M  V30 26327 H 3584.24 -6.6888 -2.96621 0
M  V30 26328 H 3585.43 -6.53617 -0.192223 0
M  V30 26329 H 3586.91 -8.36622 -0.589963 0
M  V30 26330 H 3585.22 -10.0291 -1.79807 0
M  V30 26331 H 3585.03 -10.2138 0.558219 0
M  V30 26332 H 3583.4 -9.6579 0.0444202 0
M  V30 26333 H 3586.04 -5.69556 -2.79637 0
M  V30 26334 P 3587.89 -8.4349 -2.47671 0
M  V30 26335 O 3589.31 -8.92689 -2.65029 0
M  V30 26336 O 3587.53 -7.7568 -1.19296 0
M  V30 26337 O 3587.57 -7.36886 -3.63805 0
M  V30 26338 C 3587.41 -7.95433 -4.98253 0
M  V30 26339 C 3587.95 -6.94612 -5.98974 0
M  V30 26340 O 3586.9 -6.10277 -6.11744 0
M  V30 26341 C 3589.17 -6.11426 -5.62335 0
M  V30 26342 O 3589.91 -5.6162 -6.70584 0
M  V30 26343 C 3588.5 -5.04409 -4.73308 0
M  V30 26344 O 3589.3 -3.86404 -4.74719 0
M  V30 26345 C 3587.16 -4.8728 -5.41006 0
M  V30 26346 N 3586.12 -4.65812 -4.42377 0
M  V30 26347 C 3586.29 -5.09132 -3.15382 0
M  V30 26348 N 3585.26 -4.84021 -2.3716 0
M  V30 26349 C 3584.38 -4.18386 -3.20441 0
M  V30 26350 C 3583.11 -3.6275 -2.94905 0
M  V30 26351 N 3582.54 -3.05008 -4.05243 0
M  V30 26352 C 3583.15 -2.98348 -5.28159 0
M  V30 26353 N 3584.32 -3.48171 -5.56333 0
M  V30 26354 C 3584.9 -4.06869 -4.47212 0
M  V30 26355 H 3588.38 -5.39013 -3.70026 0
M  V30 26356 H 3589.86 -6.71916 -5.01943 0
M  V30 26357 H 3588.17 -7.45796 -6.94223 0
M  V30 26358 H 3587.98 -8.89416 -5.05237 0
M  V30 26359 H 3586.35 -8.14876 -5.18409 0
M  V30 26360 H 3587.19 -5.59989 -2.81362 0
M  V30 26361 H 3588.99 -3.27906 -5.43085 0
M  V30 26362 P 3590.84 -5.75688 -6.64379 0
M  V30 26363 O 3592.27 -6.07627 -7.05504 0
M  V30 26364 O 3590.48 -5.88047 -5.19722 0
M  V30 26365 O 3590.52 -4.2322 -7.04443 0
M  V30 26366 C 3590.36 -3.99743 -8.4911 0
M  V30 26367 C 3590.9 -2.60516 -8.79425 0
M  V30 26368 O 3589.84 -1.82684 -8.4467 0
M  V30 26369 C 3592.12 -2.10343 -8.03628 0
M  V30 26370 O 3592.86 -1.09919 -8.67766 0
M  V30 26371 C 3591.45 -1.68446 -6.70876 0
M  V30 26372 O 3592.25 -0.678137 -6.08433 0
M  V30 26373 C 3590.11 -1.17436 -7.18567 0
M  V30 26374 H 3590.14 -0.0804732 -7.31656 0
M  V30 26375 H 3591.33 -2.54037 -6.02537 0
M  V30 26376 H 3592.81 -2.93881 -7.85526 0
M  V30 26377 H 3591.12 -2.53065 -9.86973 0
M  V30 26378 H 3590.93 -4.75072 -9.05887 0
M  V30 26379 H 3589.3 -4.05244 -8.76668 0
M  V30 26380 H 3591.94 0.177647 -6.34251 0
M  V30 26381 P 3593.79 -1.25109 -8.70152 0
M  V30 26382 O 3595.22 -1.29758 -9.22115 0
M  V30 26383 O 3593.43 -2.13714 -7.55141 0
M  V30 26384 O 3593.47 0.248149 -8.21425 0
M  V30 26385 C 3593.31 1.22792 -9.30533 0
M  V30 26386 C 3593.85 2.56293 -8.80664 0
M  V30 26387 O 3592.8 3.02944 -8.09255 0
M  V30 26388 C 3595.07 2.57523 -7.89775 0
M  V30 26389 O 3595.81 3.7668 -7.89438 0
M  V30 26390 C 3594.4 2.20997 -6.55446 0
M  V30 26391 O 3595.2 2.71302 -5.48691 0
M  V30 26392 C 3593.06 2.89693 -6.67988 0
M  V30 26393 N 3592.02 2.08895 -6.07487 0
M  V30 26394 C 3592.19 0.753809 -5.94137 0
M  V30 26395 N 3591.16 0.146592 -5.38801 0
M  V30 26396 C 3590.28 1.1768 -5.13693 0
M  V30 26397 C 3589.01 1.17563 -4.52477 0
M  V30 26398 N 3588.41 0.057481 -4.04759 0
M  V30 26399 N 3588.45 2.41918 -4.45789 0
M  V30 26400 C 3589.05 3.56493 -4.90792 0
M  V30 26401 N 3590.22 3.61423 -5.47817 0
M  V30 26402 C 3590.8 2.37779 -5.5588 0
M  V30 26403 H 3593.1 3.8874 -6.19774 0
M  V30 26404 H 3594.28 1.12673 -6.44018 0
M  V30 26405 H 3595.76 1.7746 -8.19711 0
M  V30 26406 H 3594.07 3.21673 -9.66791 0
M  V30 26407 H 3593.88 0.901032 -10.1892 0
M  V30 26408 H 3592.25 1.33049 -9.56592 0
M  V30 26409 H 3588.51 4.49919 -4.77947 0
M  V30 26410 H 3593.09 0.233081 -6.26266 0
M  V30 26411 H 3587.48 0.119831 -3.60801 0
M  V30 26412 H 3588.89 -0.852272 -4.12385 0
M  V30 26413 H 3594.89 3.5779 -5.23879 0
M  V30 26414 P 3596.74 3.65191 -7.99657 0
M  V30 26415 O 3598.17 3.89332 -8.45794 0
M  V30 26416 O 3596.38 2.28472 -7.50807 0
M  V30 26417 O 3596.42 4.64972 -6.77611 0
M  V30 26418 C 3596.26 6.06319 -7.16352 0
M  V30 26419 C 3596.8 6.91731 -6.02299 0
M  V30 26420 O 3595.75 6.92449 -5.17064 0
M  V30 26421 C 3598.02 6.43627 -5.25174 0
M  V30 26422 O 3598.76 7.43686 -4.60469 0
M  V30 26423 C 3597.35 5.40275 -4.31916 0
M  V30 26424 O 3598.15 5.25279 -3.14438 0
M  V30 26425 C 3596.01 6.04847 -4.05327 0
M  V30 26426 H 3596.05 6.62195 -3.11261 0
M  V30 26427 H 3597.23 4.42556 -4.81383 0
M  V30 26428 H 3598.71 5.92458 -5.93643 0
M  V30 26429 H 3597.02 7.92655 -6.402 0
M  V30 26430 H 3596.83 6.26671 -8.0846 0
M  V30 26431 H 3595.2 6.29101 -7.32804 0
M  V30 26432 H 3597.84 5.84315 -2.47318 0
M  V30 26433 P 3599.7 7.39546 -4.75277 0
M  V30 26434 O 3601.12 7.84798 -5.01039 0
M  V30 26435 O 3599.34 5.9812 -5.08098 0
M  V30 26436 O 3599.37 7.57503 -3.1866 0
M  V30 26437 C 3599.21 8.97357 -2.74833 0
M  V30 26438 C 3599.75 9.07548 -1.32709 0
M  V30 26439 O 3598.7 8.62072 -0.606159 0
M  V30 26440 C 3600.97 8.25383 -0.938334 0
M  V30 26441 O 3601.71 8.74577 0.146954 0
M  V30 26442 C 3600.3 6.8802 -0.712559 0
M  V30 26443 O 3601.1 6.1189 0.194655 0
M  V30 26444 C 3598.96 7.27966 -0.139777 0
M  V30 26445 H 3599 7.25354 0.961601 0
M  V30 26446 H 3600.18 6.32557 -1.65702 0
M  V30 26447 H 3601.66 8.19355 -1.79097 0
M  V30 26448 H 3599.97 10.1294 -1.10029 0
M  V30 26449 H 3599.78 9.64276 -3.41316 0
M  V30 26450 H 3598.15 9.25417 -2.76357 0
M  V30 26451 H 3600.79 6.25267 1.07847 0
M  V30 26452 P 3602.65 8.791 -1.29976e-10 0
M  V30 26453 O 3604.07 9.31096 0.027933 0
M  V30 26454 O 3602.29 7.77869 -1.04071 0
M  V30 26455 O 3602.32 8.09533 1.41463 0
M  V30 26456 C 3602.16 9.0349 2.53943 0
M  V30 26457 C 3602.7 8.35226 3.79016 0
M  V30 26458 O 3601.65 7.57992 4.15078 0
M  V30 26459 C 3603.92 7.45087 3.67298 0
M  V30 26460 O 3604.66 7.27796 4.85194 0
M  V30 26461 C 3603.25 6.17323 3.12027 0
M  V30 26462 O 3604.05 5.04231 3.47188 0
M  V30 26463 C 3601.91 6.19961 3.81809 0
M  V30 26464 H 3601.95 5.58218 4.73051 0
M  V30 26465 H 3603.13 6.21726 2.02589 0
M  V30 26466 H 3604.61 7.86112 2.9231 0
M  V30 26467 H 3602.92 9.11627 4.55076 0
M  V30 26468 H 3602.73 9.9573 2.34194 0
M  V30 26469 H 3601.1 9.2792 2.67832 0
M  V30 26470 H 3603.74 4.67702 4.28772 0
M  V30 26471 P 3605.6 7.39546 4.75277 0
M  V30 26472 O 3607.02 7.81861 5.05793 0
M  V30 26473 O 3605.24 7.1065 3.32998 0
M  V30 26474 O 3605.27 6.04542 5.56673 0
M  V30 26475 C 3605.11 6.22839 7.02169 0
M  V30 26476 C 3605.65 4.97725 7.70406 0
M  V30 26477 O 3604.6 4.13208 7.58899 0
M  V30 26478 C 3606.87 4.28231 7.11815 0
M  V30 26479 O 3607.61 3.49945 8.01648 0
M  V30 26480 C 3606.2 3.5063 5.96244 0
M  V30 26481 O 3607 2.37008 5.64352 0
M  V30 26482 C 3604.87 3.15122 6.56374 0
M  V30 26483 N 3603.82 3.22311 5.55692 0
M  V30 26484 C 3603.99 3.99655 4.46046 0
M  V30 26485 N 3602.96 3.97599 3.63918 0
M  V30 26486 C 3602.08 3.11159 4.25334 0
M  V30 26487 C 3600.81 2.64972 3.85157 0
M  V30 26488 N 3600.21 3.02132 2.69405 0
M  V30 26489 N 3600.25 1.78482 4.74759 0
M  V30 26490 C 3600.85 1.37463 5.90819 0
M  V30 26491 N 3602.03 1.7733 6.31889 0
M  V30 26492 C 3602.6 2.64393 5.43725 0
M  V30 26493 H 3604.9 2.13823 6.99656 0
M  V30 26494 H 3606.08 4.12931 5.06895 0
M  V30 26495 H 3607.56 5.03285 6.70911 0
M  V30 26496 H 3605.87 5.20001 8.76217 0
M  V30 26497 H 3605.68 7.11046 7.35349 0
M  V30 26498 H 3604.05 6.35815 7.26986 0
M  V30 26499 H 3600.31 0.66574 6.53015 0
M  V30 26500 H 3604.89 4.58037 4.27732 0
M  V30 26501 H 3599.28 2.64828 2.45331 0
M  V30 26502 H 3600.69 3.67472 2.05644 0
M  V30 26503 H 3606.69 1.61619 6.13468 0
M  V30 26504 P 3608.55 3.65191 7.99657 0
M  V30 26505 O 3609.97 3.8425 8.48115 0
M  V30 26506 O 3608.19 4.17805 6.64342 0
M  V30 26507 O 3608.22 2.07613 7.95143 0
M  V30 26508 C 3608.06 1.44328 9.27336 0
M  V30 26509 C 3608.6 0.0220036 9.17197 0
M  V30 26510 O 3607.55 -0.626867 8.61923 0
M  V30 26511 C 3609.82 -0.24586 8.30336 0
M  V30 26512 O 3610.56 -1.39011 8.63583 0
M  V30 26513 C 3609.15 -0.273849 6.91158 0
M  V30 26514 O 3609.95 -1.06348 6.02892 0
M  V30 26515 C 3607.82 -0.897649 7.22545 0
M  V30 26516 H 3607.85 -1.9841 7.04286 0
M  V30 26517 H 3609.03 0.739928 6.497 0
M  V30 26518 H 3610.52 0.60668 8.36503 0
M  V30 26519 H 3608.82 -0.352479 10.1829 0
M  V30 26520 H 3608.63 2.00611 10.0304 0
M  V30 26521 H 3607 1.41843 9.55327 0
M  V30 26522 H 3609.64 -1.95734 6.03555 0
M  V30 26523 P 3611.5 -1.25109 8.70152 0
M  V30 26524 O 3612.92 -1.35288 9.2132 0
M  V30 26525 O 3611.14 -0.0769065 7.84762 0
M  V30 26526 O 3611.17 -2.55232 7.81161 0
M  V30 26527 C 3611.01 -3.79979 8.58246 0
M  V30 26528 C 3611.55 -4.94023 7.72785 0
M  V30 26529 O 3610.5 -5.18666 6.91125 0
M  V30 26530 C 3612.77 -4.69597 6.85231 0
M  V30 26531 O 3613.51 -5.83832 6.51337 0
M  V30 26532 C 3612.1 -3.96706 5.66633 0
M  V30 26533 O 3612.9 -4.14896 4.5003 0
M  V30 26534 C 3610.77 -4.66153 5.59313 0
M  V30 26535 N 3609.72 -3.71582 5.24027 0
M  V30 26536 C 3609.89 -2.39715 5.48833 0
M  V30 26537 N 3608.87 -1.65863 5.12845 0
M  V30 26538 C 3607.98 -2.57637 4.5973 0
M  V30 26539 C 3606.71 -2.40278 4.01027 0
M  V30 26540 N 3606.15 -3.57711 3.59575 0
M  V30 26541 C 3606.75 -4.80324 3.70476 0
M  V30 26542 N 3607.93 -5.01121 4.23801 0
M  V30 26543 C 3608.5 -3.84757 4.66372 0
M  V30 26544 H 3611.98 -2.8955 5.86187 0
M  V30 26545 H 3613.46 -4.0121 7.36511 0
M  V30 26546 H 3611.77 -5.81019 8.37003 0
M  V30 26547 H 3611.58 -3.73517 9.52265 0
M  V30 26548 H 3609.95 -3.97163 8.80359 0
M  V30 26549 H 3610.79 -1.98804 5.94332 0
M  V30 26550 H 3612.59 -4.90891 4.01857 0
M  V30 26551 P 3614.45 -5.75688 6.64379 0
M  V30 26552 O 3615.87 -6.11849 7.01846 0
M  V30 26553 O 3614.09 -4.30744 6.56026 0
M  V30 26554 O 3614.13 -6.37042 5.19165 0
M  V30 26555 C 3613.97 -7.83578 5.16515 0
M  V30 26556 C 3614.51 -8.33398 3.83019 0
M  V30 26557 O 3613.45 -8.10074 3.01034 0
M  V30 26558 C 3615.72 -7.65514 3.2257 0
M  V30 26559 O 3616.46 -8.4329 2.32297 0
M  V30 26560 C 3615.05 -6.40075 2.62207 0
M  V30 26561 O 3615.85 -5.92589 1.53712 0
M  V30 26562 C 3613.72 -6.9454 2.18503 0
M  V30 26563 H 3613.75 -7.23063 1.12091 0
M  V30 26564 H 3614.93 -5.6025 3.37201 0
M  V30 26565 H 3616.42 -7.35707 4.02681 0
M  V30 26566 H 3614.72 -9.40912 3.9095 0
M  V30 26567 H 3614.53 -8.29056 5.99158 0
M  V30 26568 H 3612.9 -8.10073 5.25882 0
M  V30 26569 H 3615.54 -6.30324 0.726794 0
M  V30 26570 P 3617.4 -8.4349 2.47671 0
M  V30 26571 O 3618.82 -8.94167 2.5964 0
M  V30 26572 O 3617.04 -7.1704 3.19006 0
M  V30 26573 O 3617.08 -8.16596 0.923387 0
M  V30 26574 C 3616.92 -9.38437 0.108857 0
M  V30 26575 C 3617.46 -9.08175 -1.28353 0
M  V30 26576 O 3616.4 -8.44229 -1.84713 0
M  V30 26577 C 3618.67 -8.18386 -1.42505 0
M  V30 26578 O 3619.41 -8.3501 -2.60497 0
M  V30 26579 C 3618 -6.80225 -1.25468 0
M  V30 26580 O 3618.8 -5.81621 -1.91066 0
M  V30 26581 C 3616.67 -7.02416 -1.9168 0
M  V30 26582 H 3616.7 -6.6888 -2.96621 0
M  V30 26583 H 3617.88 -6.53617 -0.192223 0
M  V30 26584 H 3619.37 -8.36622 -0.589963 0
M  V30 26585 H 3617.67 -10.0291 -1.79807 0
M  V30 26586 H 3617.48 -10.2138 0.558219 0
M  V30 26587 H 3615.85 -9.6579 0.0444202 0
M  V30 26588 H 3618.49 -5.69556 -2.79637 0
M  V30 26589 P 3620.35 -8.4349 -2.47671 0
M  V30 26590 O 3621.77 -8.92593 -2.65 0
M  V30 26591 O 3619.99 -7.7568 -1.19296 0
M  V30 26592 O 3620.03 -7.36886 -3.63805 0
M  V30 26593 C 3619.87 -7.95349 -4.982 0
M  V30 26594 C 3620.41 -6.94612 -5.98974 0
M  V30 26595 O 3619.35 -6.10347 -6.11815 0
M  V30 26596 C 3621.62 -6.11426 -5.62335 0
M  V30 26597 O 3622.36 -5.6162 -6.70584 0
M  V30 26598 C 3620.96 -5.04409 -4.73308 0
M  V30 26599 O 3621.75 -3.85992 -4.75183 0
M  V30 26600 C 3619.62 -4.8728 -5.41006 0
M  V30 26601 H 3619.65 -4.02333 -6.11157 0
M  V30 26602 H 3620.83 -5.39466 -3.69543 0
M  V30 26603 H 3622.32 -6.71916 -5.01943 0
M  V30 26604 H 3620.62 -7.4649 -6.93477 0
M  V30 26605 H 3620.43 -8.89416 -5.05237 0
M  V30 26606 H 3618.8 -8.14876 -5.18409 0
M  V30 26607 H 3621.44 -3.27957 -5.4317 0
M  V30 26608 P 3623.3 -5.75688 -6.64379 0
M  V30 26609 O 3624.72 -6.07627 -7.05504 0
M  V30 26610 O 3622.94 -5.88047 -5.19722 0
M  V30 26611 O 3622.98 -4.2322 -7.04443 0
M  V30 26612 C 3622.82 -3.99743 -8.4911 0
M  V30 26613 C 3623.36 -2.60516 -8.79425 0
M  V30 26614 O 3622.3 -1.82684 -8.4467 0
M  V30 26615 C 3624.57 -2.10343 -8.03628 0
M  V30 26616 O 3625.31 -1.09919 -8.67766 0
M  V30 26617 C 3623.91 -1.68446 -6.70876 0
M  V30 26618 O 3624.7 -0.678137 -6.08433 0
M  V30 26619 C 3622.57 -1.17436 -7.18567 0
M  V30 26620 H 3622.6 -0.0804732 -7.31656 0
M  V30 26621 H 3623.78 -2.54037 -6.02537 0
M  V30 26622 H 3625.27 -2.93881 -7.85526 0
M  V30 26623 H 3623.57 -2.53065 -9.86973 0
M  V30 26624 H 3623.38 -4.75072 -9.05887 0
M  V30 26625 H 3621.75 -4.05244 -8.76668 0
M  V30 26626 H 3624.39 0.177647 -6.34251 0
M  V30 26627 P 3626.25 -1.25109 -8.70152 0
M  V30 26628 O 3627.67 -1.29744 -9.22016 0
M  V30 26629 O 3625.89 -2.13714 -7.55141 0
M  V30 26630 O 3625.93 0.248149 -8.21425 0
M  V30 26631 C 3625.77 1.22779 -9.30434 0
M  V30 26632 C 3626.31 2.56293 -8.80664 0
M  V30 26633 O 3625.25 3.02979 -8.09349 0
M  V30 26634 C 3627.53 2.57523 -7.89775 0
M  V30 26635 O 3628.26 3.7668 -7.89438 0
M  V30 26636 C 3626.86 2.20997 -6.55446 0
M  V30 26637 O 3627.66 2.71895 -5.48509 0
M  V30 26638 C 3625.52 2.89693 -6.67988 0
M  V30 26639 H 3625.55 3.88793 -6.19859 0
M  V30 26640 H 3626.73 1.12046 -6.44229 0
M  V30 26641 H 3628.22 1.7746 -8.19711 0
M  V30 26642 H 3626.52 3.20706 -9.67112 0
M  V30 26643 H 3626.33 0.901032 -10.1892 0
M  V30 26644 H 3624.7 1.33049 -9.56592 0
M  V30 26645 H 3627.34 3.57847 -5.23962 0
M  V30 26646 P 3629.2 3.65191 -7.99657 0
M  V30 26647 O 3630.62 3.89332 -8.45794 0
M  V30 26648 O 3628.84 2.28472 -7.50807 0
M  V30 26649 O 3628.88 4.64972 -6.77611 0
M  V30 26650 C 3628.72 6.06319 -7.16352 0
M  V30 26651 C 3629.26 6.91731 -6.02299 0
M  V30 26652 O 3628.2 6.92449 -5.17064 0
M  V30 26653 C 3630.48 6.43627 -5.25174 0
M  V30 26654 O 3631.21 7.43686 -4.60469 0
M  V30 26655 C 3629.81 5.40275 -4.31916 0
M  V30 26656 O 3630.61 5.25279 -3.14438 0
M  V30 26657 C 3628.47 6.04847 -4.05327 0
M  V30 26658 H 3628.5 6.62195 -3.11261 0
M  V30 26659 H 3629.69 4.42556 -4.81383 0
M  V30 26660 H 3631.17 5.92458 -5.93643 0
M  V30 26661 H 3629.48 7.92655 -6.402 0
M  V30 26662 H 3629.29 6.26671 -8.0846 0
M  V30 26663 H 3627.66 6.29101 -7.32804 0
M  V30 26664 H 3630.29 5.84315 -2.47318 0
M  V30 26665 P 3632.15 7.39546 -4.75277 0
M  V30 26666 O 3633.57 7.84966 -5.01146 0
M  V30 26667 O 3631.79 5.9812 -5.08098 0
M  V30 26668 O 3631.83 7.57503 -3.1866 0
M  V30 26669 C 3631.67 8.97357 -2.74833 0
M  V30 26670 C 3632.21 9.0745 -1.32694 0
M  V30 26671 O 3631.15 8.62072 -0.606159 0
M  V30 26672 C 3633.43 8.25383 -0.938334 0
M  V30 26673 O 3634.16 8.74577 0.146954 0
M  V30 26674 C 3632.76 6.8802 -0.712559 0
M  V30 26675 O 3633.56 6.11791 0.194623 0
M  V30 26676 C 3631.42 7.27966 -0.139777 0
M  V30 26677 N 3630.38 6.39368 -0.623421 0
M  V30 26678 C 3630.44 5.90299 -1.85969 0
M  V30 26679 N 3629.39 5.10919 -2.1133 0
M  V30 26680 C 3628.66 5.14646 -1.0015 0
M  V30 26681 C 3627.35 4.60057 -0.729219 0
M  V30 26682 O 3626.62 3.93476 -1.47746 0
M  V30 26683 N 3626.92 4.88302 0.523505 0
M  V30 26684 C 3627.67 5.63646 1.46207 0
M  V30 26685 N 3627.08 5.78186 2.69239 0
M  V30 26686 N 3628.83 6.19285 1.21544 0
M  V30 26687 C 3629.28 5.93392 -0.0308487 0
M  V30 26688 H 3631.45 7.25354 0.961601 0
M  V30 26689 H 3632.64 6.3246 -1.65676 0
M  V30 26690 H 3634.12 8.19533 -1.78278 0
M  V30 26691 H 3632.43 10.1294 -1.10029 0
M  V30 26692 H 3632.24 9.64276 -3.41316 0
M  V30 26693 H 3630.6 9.25417 -2.76357 0
M  V30 26694 H 3626.03 4.53993 0.806451 0
M  V30 26695 H 3631.24 6.11865 -2.57394 0
M  V30 26696 H 3626.17 5.34046 2.87467 0
M  V30 26697 H 3627.54 6.33391 3.42578 0
M  V30 26698 H 3633.25 6.25169 1.0783 0
M  V30 26699 P 3635.1 8.791 -1.35163e-10 0
M  V30 26700 O 3636.52 9.31096 0.027933 0
M  V30 26701 O 3634.74 7.77869 -1.04071 0
M  V30 26702 O 3634.78 8.09533 1.41463 0
M  V30 26703 C 3634.62 9.0349 2.53943 0
M  V30 26704 C 3635.16 8.35226 3.79016 0
M  V30 26705 O 3634.1 7.57992 4.15078 0
M  V30 26706 C 3636.38 7.45087 3.67298 0
M  V30 26707 O 3637.12 7.27796 4.85194 0
M  V30 26708 C 3635.71 6.17323 3.12027 0
M  V30 26709 O 3636.51 5.04231 3.47188 0
M  V30 26710 C 3634.37 6.19961 3.81809 0
M  V30 26711 H 3634.4 5.58218 4.73051 0
M  V30 26712 H 3635.59 6.21726 2.02589 0
M  V30 26713 H 3637.07 7.86112 2.9231 0
M  V30 26714 H 3635.38 9.11627 4.55076 0
M  V30 26715 H 3635.19 9.9573 2.34194 0
M  V30 26716 H 3633.56 9.2792 2.67832 0
M  V30 26717 H 3636.2 4.67702 4.28772 0
M  V30 26718 P 3638.05 7.39546 4.75277 0
M  V30 26719 O 3639.47 7.81777 5.05738 0
M  V30 26720 O 3637.69 7.1065 3.32998 0
M  V30 26721 O 3637.73 6.04542 5.56673 0
M  V30 26722 C 3637.57 6.22772 7.02095 0
M  V30 26723 C 3638.11 4.97725 7.70406 0
M  V30 26724 O 3637.05 4.13256 7.58987 0
M  V30 26725 C 3639.33 4.28231 7.11815 0
M  V30 26726 O 3640.07 3.49945 8.01648 0
M  V30 26727 C 3638.66 3.5063 5.96244 0
M  V30 26728 O 3639.46 2.36482 5.64681 0
M  V30 26729 C 3637.32 3.15122 6.56374 0
M  V30 26730 H 3637.35 2.13853 6.99751 0
M  V30 26731 H 3638.54 4.13501 5.06559 0
M  V30 26732 H 3640.02 5.03285 6.70911 0
M  V30 26733 H 3638.33 5.20877 8.75697 0
M  V30 26734 H 3638.14 7.11046 7.35349 0
M  V30 26735 H 3636.51 6.35815 7.26986 0
M  V30 26736 H 3639.15 1.61644 6.13565 0
M  V30 26737 P 3641 3.65191 7.99657 0
M  V30 26738 O 3642.43 3.8425 8.48115 0
M  V30 26739 O 3640.64 4.17805 6.64342 0
M  V30 26740 O 3640.68 2.07613 7.95143 0
M  V30 26741 C 3640.52 1.44328 9.27336 0
M  V30 26742 C 3641.06 0.0220036 9.17197 0
M  V30 26743 O 3640 -0.626867 8.61923 0
M  V30 26744 C 3642.28 -0.24586 8.30336 0
M  V30 26745 O 3643.02 -1.39011 8.63583 0
M  V30 26746 C 3641.61 -0.273849 6.91158 0
M  V30 26747 O 3642.41 -1.06348 6.02892 0
M  V30 26748 C 3640.27 -0.897649 7.22545 0
M  V30 26749 H 3640.3 -1.9841 7.04286 0
M  V30 26750 H 3641.49 0.739928 6.497 0
M  V30 26751 H 3642.97 0.60668 8.36503 0
M  V30 26752 H 3641.28 -0.352479 10.1829 0
M  V30 26753 H 3641.09 2.00611 10.0304 0
M  V30 26754 H 3639.46 1.41843 9.55327 0
M  V30 26755 H 3642.1 -1.95734 6.03555 0
M  V30 26756 P 3643.95 -1.25109 8.70152 0
M  V30 26757 O 3645.38 -1.35274 9.21221 0
M  V30 26758 O 3643.59 -0.0769065 7.84762 0
M  V30 26759 O 3643.63 -2.55232 7.81161 0
M  V30 26760 C 3643.47 -3.79939 8.58154 0
M  V30 26761 C 3644.01 -4.94023 7.72785 0
M  V30 26762 O 3642.95 -5.18726 6.91205 0
M  V30 26763 C 3645.23 -4.69597 6.85231 0
M  V30 26764 O 3645.97 -5.83832 6.51337 0
M  V30 26765 C 3644.56 -3.96706 5.66633 0
M  V30 26766 O 3645.36 -4.15414 4.49689 0
M  V30 26767 C 3643.22 -4.66153 5.59313 0
M  V30 26768 H 3643.25 -5.47679 4.85214 0
M  V30 26769 H 3644.44 -2.89008 5.86566 0
M  V30 26770 H 3645.92 -4.0121 7.36511 0
M  V30 26771 H 3644.23 -5.80182 8.37584 0
M  V30 26772 H 3644.04 -3.73517 9.52265 0
M  V30 26773 H 3642.41 -3.97163 8.80359 0
M  V30 26774 H 3645.05 -4.90969 4.01921 0
M  V30 26775 P 3646.9 -5.75688 6.64379 0
M  V30 26776 O 3648.33 -6.11849 7.01846 0
M  V30 26777 O 3646.54 -4.30744 6.56026 0
M  V30 26778 O 3646.58 -6.37042 5.19165 0
M  V30 26779 C 3646.42 -7.83578 5.16515 0
M  V30 26780 C 3646.96 -8.33398 3.83019 0
M  V30 26781 O 3645.91 -8.10074 3.01034 0
M  V30 26782 C 3648.18 -7.65514 3.2257 0
M  V30 26783 O 3648.92 -8.4329 2.32297 0
M  V30 26784 C 3647.51 -6.40075 2.62207 0
M  V30 26785 O 3648.31 -5.92589 1.53712 0
M  V30 26786 C 3646.17 -6.9454 2.18503 0
M  V30 26787 H 3646.21 -7.23063 1.12091 0
M  V30 26788 H 3647.39 -5.6025 3.37201 0
M  V30 26789 H 3648.87 -7.35707 4.02681 0
M  V30 26790 H 3647.18 -9.40912 3.9095 0
M  V30 26791 H 3646.99 -8.29056 5.99158 0
M  V30 26792 H 3645.36 -8.10073 5.25882 0
M  V30 26793 H 3648 -6.30324 0.726794 0
M  V30 26794 P 3649.86 -8.4349 2.47671 0
M  V30 26795 O 3651.28 -8.94167 2.5964 0
M  V30 26796 O 3649.5 -7.1704 3.19006 0
M  V30 26797 O 3649.53 -8.16596 0.923387 0
M  V30 26798 C 3649.37 -9.38437 0.108857 0
M  V30 26799 C 3649.91 -9.08175 -1.28353 0
M  V30 26800 O 3648.86 -8.44229 -1.84713 0
M  V30 26801 C 3651.13 -8.18386 -1.42505 0
M  V30 26802 O 3651.87 -8.3501 -2.60497 0
M  V30 26803 C 3650.46 -6.80225 -1.25468 0
M  V30 26804 O 3651.26 -5.81621 -1.91066 0
M  V30 26805 C 3649.12 -7.02416 -1.9168 0
M  V30 26806 H 3649.16 -6.6888 -2.96621 0
M  V30 26807 H 3650.34 -6.53617 -0.192223 0
M  V30 26808 H 3651.82 -8.36622 -0.589963 0
M  V30 26809 H 3650.13 -10.0291 -1.79807 0
M  V30 26810 H 3649.94 -10.2138 0.558219 0
M  V30 26811 H 3648.31 -9.6579 0.0444202 0
M  V30 26812 H 3650.95 -5.69556 -2.79637 0
M  V30 26813 P 3652.81 -8.4349 -2.47671 0
M  V30 26814 O 3654.23 -8.92593 -2.65 0
M  V30 26815 O 3652.45 -7.7568 -1.19296 0
M  V30 26816 O 3652.48 -7.36886 -3.63805 0
M  V30 26817 C 3652.32 -7.95349 -4.982 0
M  V30 26818 C 3652.86 -6.94612 -5.98974 0
M  V30 26819 O 3651.81 -6.10347 -6.11815 0
M  V30 26820 C 3654.08 -6.11426 -5.62335 0
M  V30 26821 O 3654.82 -5.6162 -6.70584 0
M  V30 26822 C 3653.41 -5.04409 -4.73308 0
M  V30 26823 O 3654.21 -3.85992 -4.75183 0
M  V30 26824 C 3652.07 -4.8728 -5.41006 0
M  V30 26825 H 3652.11 -4.02333 -6.11157 0
M  V30 26826 H 3653.29 -5.39466 -3.69543 0
M  V30 26827 H 3654.77 -6.71916 -5.01943 0
M  V30 26828 H 3653.08 -7.4649 -6.93477 0
M  V30 26829 H 3652.89 -8.89416 -5.05237 0
M  V30 26830 H 3651.26 -8.14876 -5.18409 0
M  V30 26831 H 3653.9 -3.27957 -5.4317 0
M  V30 26832 P 3655.76 -5.75688 -6.64379 0
M  V30 26833 O 3657.18 -6.07627 -7.05504 0
M  V30 26834 O 3655.4 -5.88047 -5.19722 0
M  V30 26835 O 3655.43 -4.2322 -7.04443 0
M  V30 26836 C 3655.27 -3.99743 -8.4911 0
M  V30 26837 C 3655.81 -2.60516 -8.79425 0
M  V30 26838 O 3654.76 -1.82684 -8.4467 0
M  V30 26839 C 3657.03 -2.10343 -8.03628 0
M  V30 26840 O 3657.77 -1.09919 -8.67766 0
M  V30 26841 C 3656.36 -1.68446 -6.70876 0
M  V30 26842 O 3657.16 -0.678137 -6.08433 0
M  V30 26843 C 3655.03 -1.17436 -7.18567 0
M  V30 26844 H 3655.06 -0.0804732 -7.31656 0
M  V30 26845 H 3656.24 -2.54037 -6.02537 0
M  V30 26846 H 3657.72 -2.93881 -7.85526 0
M  V30 26847 H 3656.03 -2.53065 -9.86973 0
M  V30 26848 H 3655.84 -4.75072 -9.05887 0
M  V30 26849 H 3654.21 -4.05244 -8.76668 0
M  V30 26850 H 3656.85 0.177647 -6.34251 0
M  V30 26851 P 3658.71 -1.25109 -8.70152 0
M  V30 26852 O 3660.13 -1.29744 -9.22016 0
M  V30 26853 O 3658.35 -2.13714 -7.55141 0
M  V30 26854 O 3658.38 0.248149 -8.21425 0
M  V30 26855 C 3658.22 1.22779 -9.30434 0
M  V30 26856 C 3658.76 2.56293 -8.80664 0
M  V30 26857 O 3657.71 3.02979 -8.09349 0
M  V30 26858 C 3659.98 2.57523 -7.89775 0
M  V30 26859 O 3660.72 3.7668 -7.89438 0
M  V30 26860 C 3659.31 2.20997 -6.55446 0
M  V30 26861 O 3660.11 2.71895 -5.48509 0
M  V30 26862 C 3657.98 2.89693 -6.67988 0
M  V30 26863 H 3658.01 3.88793 -6.19859 0
M  V30 26864 H 3659.19 1.12046 -6.44229 0
M  V30 26865 H 3660.67 1.7746 -8.19711 0
M  V30 26866 H 3658.98 3.20706 -9.67112 0
M  V30 26867 H 3658.79 0.901032 -10.1892 0
M  V30 26868 H 3657.16 1.33049 -9.56592 0
M  V30 26869 H 3659.8 3.57847 -5.23962 0
M  V30 26870 P 3661.66 3.65191 -7.99657 0
M  V30 26871 O 3663.08 3.89332 -8.45794 0
M  V30 26872 O 3661.3 2.28472 -7.50807 0
M  V30 26873 O 3661.33 4.64972 -6.77611 0
M  V30 26874 C 3661.17 6.06319 -7.16352 0
M  V30 26875 C 3661.71 6.91731 -6.02299 0
M  V30 26876 O 3660.66 6.92449 -5.17064 0
M  V30 26877 C 3662.93 6.43627 -5.25174 0
M  V30 26878 O 3663.67 7.43686 -4.60469 0
M  V30 26879 C 3662.26 5.40275 -4.31916 0
M  V30 26880 O 3663.06 5.25279 -3.14438 0
M  V30 26881 C 3660.93 6.04847 -4.05327 0
M  V30 26882 H 3660.96 6.62195 -3.11261 0
M  V30 26883 H 3662.14 4.42556 -4.81383 0
M  V30 26884 H 3663.63 5.92458 -5.93643 0
M  V30 26885 H 3661.93 7.92655 -6.402 0
M  V30 26886 H 3661.74 6.26671 -8.0846 0
M  V30 26887 H 3660.11 6.29101 -7.32804 0
M  V30 26888 H 3662.75 5.84315 -2.47318 0
M  V30 26889 P 3664.61 7.39546 -4.75277 0
M  V30 26890 O 3666.03 7.84798 -5.01039 0
M  V30 26891 O 3664.25 5.9812 -5.08098 0
M  V30 26892 O 3664.28 7.57503 -3.1866 0
M  V30 26893 C 3664.12 8.97357 -2.74833 0
M  V30 26894 C 3664.66 9.07548 -1.32709 0
M  V30 26895 O 3663.61 8.62072 -0.606159 0
M  V30 26896 C 3665.88 8.25383 -0.938334 0
M  V30 26897 O 3666.62 8.74577 0.146954 0
M  V30 26898 C 3665.21 6.8802 -0.712559 0
M  V30 26899 O 3666.01 6.1189 0.194655 0
M  V30 26900 C 3663.88 7.27966 -0.139777 0
M  V30 26901 H 3663.91 7.25354 0.961601 0
M  V30 26902 H 3665.09 6.32557 -1.65702 0
M  V30 26903 H 3666.58 8.19355 -1.79097 0
M  V30 26904 H 3664.88 10.1294 -1.10029 0
M  V30 26905 H 3664.69 9.64276 -3.41316 0
M  V30 26906 H 3663.06 9.25417 -2.76357 0
M  V30 26907 H 3665.7 6.25267 1.07847 0
M  V30 26908 P 3667.56 8.791 -1.4035e-10 0
M  V30 26909 O 3668.98 9.31096 0.027933 0
M  V30 26910 O 3667.2 7.77869 -1.04071 0
M  V30 26911 O 3667.24 8.09533 1.41463 0
M  V30 26912 C 3667.08 9.0349 2.53943 0
M  V30 26913 C 3667.62 8.35226 3.79016 0
M  V30 26914 O 3666.56 7.57992 4.15078 0
M  V30 26915 C 3668.83 7.45087 3.67298 0
M  V30 26916 O 3669.57 7.27796 4.85194 0
M  V30 26917 C 3668.16 6.17323 3.12027 0
M  V30 26918 O 3668.96 5.04231 3.47188 0
M  V30 26919 C 3666.83 6.19961 3.81809 0
M  V30 26920 H 3666.86 5.58218 4.73051 0
M  V30 26921 H 3668.04 6.21726 2.02589 0
M  V30 26922 H 3669.53 7.86112 2.9231 0
M  V30 26923 H 3667.83 9.11627 4.55076 0
M  V30 26924 H 3667.64 9.9573 2.34194 0
M  V30 26925 H 3666.01 9.2792 2.67832 0
M  V30 26926 H 3668.65 4.67702 4.28772 0
M  V30 26927 P 3670.51 7.39546 4.75277 0
M  V30 26928 O 3671.93 7.81777 5.05738 0
M  V30 26929 O 3670.15 7.1065 3.32998 0
M  V30 26930 O 3670.19 6.04542 5.56673 0
M  V30 26931 C 3670.03 6.22772 7.02095 0
M  V30 26932 C 3670.57 4.97725 7.70406 0
M  V30 26933 O 3669.51 4.13256 7.58987 0
M  V30 26934 C 3671.78 4.28231 7.11815 0
M  V30 26935 O 3672.52 3.49945 8.01648 0
M  V30 26936 C 3671.12 3.5063 5.96244 0
M  V30 26937 O 3671.91 2.36482 5.64681 0
M  V30 26938 C 3669.78 3.15122 6.56374 0
M  V30 26939 H 3669.81 2.13853 6.99751 0
M  V30 26940 H 3670.99 4.13501 5.06559 0
M  V30 26941 H 3672.48 5.03285 6.70911 0
M  V30 26942 H 3670.78 5.20877 8.75697 0
M  V30 26943 H 3670.59 7.11046 7.35349 0
M  V30 26944 H 3668.96 6.35815 7.26986 0
M  V30 26945 H 3671.6 1.61644 6.13565 0
M  V30 26946 P 3673.46 3.65191 7.99657 0
M  V30 26947 O 3674.88 3.84292 8.48206 0
M  V30 26948 O 3673.1 4.17805 6.64342 0
M  V30 26949 O 3673.14 2.07613 7.95143 0
M  V30 26950 C 3672.98 1.44344 9.27435 0
M  V30 26951 C 3673.52 0.0220036 9.17197 0
M  V30 26952 O 3672.46 -0.626794 8.61824 0
M  V30 26953 C 3674.73 -0.24586 8.30336 0
M  V30 26954 O 3675.47 -1.39011 8.63583 0
M  V30 26955 C 3674.07 -0.273849 6.91158 0
M  V30 26956 O 3674.86 -1.05728 6.029 0
M  V30 26957 C 3672.73 -0.897649 7.22545 0
M  V30 26958 N 3671.69 -0.292839 6.41732 0
M  V30 26959 C 3671.85 0.950603 5.91308 0
M  V30 26960 N 3670.83 1.37732 5.21105 0
M  V30 26961 C 3669.94 0.318109 5.26039 0
M  V30 26962 C 3668.68 0.146766 4.6727 0
M  V30 26963 N 3668.08 1.08519 3.89983 0
M  V30 26964 N 3668.11 -1.06525 4.95887 0
M  V30 26965 C 3668.71 -2.0378 5.71347 0
M  V30 26966 N 3669.89 -1.92445 6.27451 0
M  V30 26967 C 3670.46 -0.715382 6.00353 0
M  V30 26968 H 3672.76 -1.98383 7.04189 0
M  V30 26969 H 3673.94 0.733318 6.49674 0
M  V30 26970 H 3675.43 0.60668 8.36503 0
M  V30 26971 H 3673.73 -0.362662 10.1825 0
M  V30 26972 H 3673.54 2.00611 10.0304 0
M  V30 26973 H 3671.91 1.41843 9.55327 0
M  V30 26974 H 3668.18 -2.97041 5.85344 0
M  V30 26975 H 3672.75 1.54076 6.07465 0
M  V30 26976 H 3667.15 0.901517 3.49562 0
M  V30 26977 H 3668.55 1.97957 3.71669 0
M  V30 26978 H 3674.55 -1.95704 6.0346 0
M  V30 26979 P 3676.41 -1.25109 8.70152 0
M  V30 26980 O 3677.83 -1.35288 9.2132 0
M  V30 26981 O 3676.05 -0.0769065 7.84762 0
M  V30 26982 O 3676.09 -2.55232 7.81161 0
M  V30 26983 C 3675.93 -3.79979 8.58246 0
M  V30 26984 C 3676.47 -4.94023 7.72785 0
M  V30 26985 O 3675.41 -5.18666 6.91125 0
M  V30 26986 C 3677.69 -4.69597 6.85231 0
M  V30 26987 O 3678.42 -5.83832 6.51337 0
M  V30 26988 C 3677.02 -3.96706 5.66633 0
M  V30 26989 O 3677.82 -4.14896 4.5003 0
M  V30 26990 C 3675.68 -4.66153 5.59313 0
M  V30 26991 N 3674.64 -3.71582 5.24027 0
M  V30 26992 C 3674.81 -2.39715 5.48833 0
M  V30 26993 N 3673.78 -1.65863 5.12845 0
M  V30 26994 C 3672.89 -2.57637 4.5973 0
M  V30 26995 C 3671.63 -2.40278 4.01027 0
M  V30 26996 N 3671.06 -3.57711 3.59575 0
M  V30 26997 C 3671.66 -4.80324 3.70476 0
M  V30 26998 N 3672.84 -5.01121 4.23801 0
M  V30 26999 C 3673.42 -3.84757 4.66372 0
M  V30 27000 H 3676.89 -2.8955 5.86187 0
M  V30 27001 H 3678.38 -4.0121 7.36511 0
M  V30 27002 H 3676.68 -5.81019 8.37003 0
M  V30 27003 H 3676.49 -3.73517 9.52265 0
M  V30 27004 H 3674.86 -3.97163 8.80359 0
M  V30 27005 H 3675.71 -1.98804 5.94332 0
M  V30 27006 H 3677.5 -4.90891 4.01857 0
M  V30 27007 P 3679.36 -5.75688 6.64379 0
M  V30 27008 O 3680.78 -6.11849 7.01846 0
M  V30 27009 O 3679 -4.30744 6.56026 0
M  V30 27010 O 3679.04 -6.37042 5.19165 0
M  V30 27011 C 3678.88 -7.83578 5.16515 0
M  V30 27012 C 3679.42 -8.33398 3.83019 0
M  V30 27013 O 3678.36 -8.10074 3.01034 0
M  V30 27014 C 3680.64 -7.65514 3.2257 0
M  V30 27015 O 3681.37 -8.4329 2.32297 0
M  V30 27016 C 3679.97 -6.40075 2.62207 0
M  V30 27017 O 3680.77 -5.92589 1.53712 0
M  V30 27018 C 3678.63 -6.9454 2.18503 0
M  V30 27019 H 3678.66 -7.23063 1.12091 0
M  V30 27020 H 3679.84 -5.6025 3.37201 0
M  V30 27021 H 3681.33 -7.35707 4.02681 0
M  V30 27022 H 3679.63 -9.40912 3.9095 0
M  V30 27023 H 3679.44 -8.29056 5.99158 0
M  V30 27024 H 3677.81 -8.10073 5.25882 0
M  V30 27025 H 3680.45 -6.30324 0.726794 0
M  V30 27026 P 3682.31 -8.4349 2.47671 0
M  V30 27027 O 3683.73 -8.94167 2.5964 0
M  V30 27028 O 3681.95 -7.1704 3.19006 0
M  V30 27029 O 3681.99 -8.16596 0.923387 0
M  V30 27030 C 3681.83 -9.38437 0.108857 0
M  V30 27031 C 3682.37 -9.08175 -1.28353 0
M  V30 27032 O 3681.31 -8.44229 -1.84713 0
M  V30 27033 C 3683.59 -8.18386 -1.42505 0
M  V30 27034 O 3684.32 -8.3501 -2.60497 0
M  V30 27035 C 3682.92 -6.80225 -1.25468 0
M  V30 27036 O 3683.72 -5.81621 -1.91066 0
M  V30 27037 C 3681.58 -7.02416 -1.9168 0
M  V30 27038 H 3681.61 -6.6888 -2.96621 0
M  V30 27039 H 3682.8 -6.53617 -0.192223 0
M  V30 27040 H 3684.28 -8.36622 -0.589963 0
M  V30 27041 H 3682.59 -10.0291 -1.79807 0
M  V30 27042 H 3682.4 -10.2138 0.558219 0
M  V30 27043 H 3680.77 -9.6579 0.0444202 0
M  V30 27044 H 3683.4 -5.69556 -2.79637 0
M  V30 27045 P 3685.26 -8.4349 -2.47671 0
M  V30 27046 O 3686.68 -8.92593 -2.65 0
M  V30 27047 O 3684.9 -7.7568 -1.19296 0
M  V30 27048 O 3684.94 -7.36886 -3.63805 0
M  V30 27049 C 3684.78 -7.95349 -4.982 0
M  V30 27050 C 3685.32 -6.94612 -5.98974 0
M  V30 27051 O 3684.26 -6.10347 -6.11815 0
M  V30 27052 C 3686.54 -6.11426 -5.62335 0
M  V30 27053 O 3687.27 -5.6162 -6.70584 0
M  V30 27054 C 3685.87 -5.04409 -4.73308 0
M  V30 27055 O 3686.67 -3.85992 -4.75183 0
M  V30 27056 C 3684.53 -4.8728 -5.41006 0
M  V30 27057 H 3684.56 -4.02333 -6.11157 0
M  V30 27058 H 3685.75 -5.39466 -3.69543 0
M  V30 27059 H 3687.23 -6.71916 -5.01943 0
M  V30 27060 H 3685.54 -7.4649 -6.93477 0
M  V30 27061 H 3685.35 -8.89416 -5.05237 0
M  V30 27062 H 3683.72 -8.14876 -5.18409 0
M  V30 27063 H 3686.35 -3.27957 -5.4317 0
M  V30 27064 P 3688.21 -5.75688 -6.64379 0
M  V30 27065 O 3689.63 -6.07627 -7.05504 0
M  V30 27066 O 3687.85 -5.88047 -5.19722 0
M  V30 27067 O 3687.89 -4.2322 -7.04443 0
M  V30 27068 C 3687.73 -3.99743 -8.4911 0
M  V30 27069 C 3688.27 -2.60516 -8.79425 0
M  V30 27070 O 3687.21 -1.82684 -8.4467 0
M  V30 27071 C 3689.49 -2.10343 -8.03628 0
M  V30 27072 O 3690.23 -1.09919 -8.67766 0
M  V30 27073 C 3688.82 -1.68446 -6.70876 0
M  V30 27074 O 3689.62 -0.678137 -6.08433 0
M  V30 27075 C 3687.48 -1.17436 -7.18567 0
M  V30 27076 H 3687.51 -0.0804732 -7.31656 0
M  V30 27077 H 3688.7 -2.54037 -6.02537 0
M  V30 27078 H 3690.18 -2.93881 -7.85526 0
M  V30 27079 H 3688.49 -2.53065 -9.86973 0
M  V30 27080 H 3688.3 -4.75072 -9.05887 0
M  V30 27081 H 3686.67 -4.05244 -8.76668 0
M  V30 27082 H 3689.31 0.177647 -6.34251 0
M  V30 27083 P 3691.16 -1.25109 -8.70152 0
M  V30 27084 O 3692.59 -1.29744 -9.22016 0
M  V30 27085 O 3690.8 -2.13714 -7.55141 0
M  V30 27086 O 3690.84 0.248149 -8.21425 0
M  V30 27087 C 3690.68 1.22779 -9.30434 0
M  V30 27088 C 3691.22 2.56293 -8.80664 0
M  V30 27089 O 3690.16 3.02979 -8.09349 0
M  V30 27090 C 3692.44 2.57523 -7.89775 0
M  V30 27091 O 3693.18 3.7668 -7.89438 0
M  V30 27092 C 3691.77 2.20997 -6.55446 0
M  V30 27093 O 3692.57 2.71895 -5.48509 0
M  V30 27094 C 3690.43 2.89693 -6.67988 0
M  V30 27095 H 3690.46 3.88793 -6.19859 0
M  V30 27096 H 3691.65 1.12046 -6.44229 0
M  V30 27097 H 3693.13 1.7746 -8.19711 0
M  V30 27098 H 3691.44 3.20706 -9.67112 0
M  V30 27099 H 3691.25 0.901032 -10.1892 0
M  V30 27100 H 3689.62 1.33049 -9.56592 0
M  V30 27101 H 3692.26 3.57847 -5.23962 0
M  V30 27102 P 3694.11 3.65191 -7.99657 0
M  V30 27103 O 3695.54 3.89332 -8.45794 0
M  V30 27104 O 3693.75 2.28472 -7.50807 0
M  V30 27105 O 3693.79 4.64972 -6.77611 0
M  V30 27106 C 3693.63 6.06319 -7.16352 0
M  V30 27107 C 3694.17 6.91731 -6.02299 0
M  V30 27108 O 3693.11 6.92449 -5.17064 0
M  V30 27109 C 3695.39 6.43627 -5.25174 0
M  V30 27110 O 3696.13 7.43686 -4.60469 0
M  V30 27111 C 3694.72 5.40275 -4.31916 0
M  V30 27112 O 3695.52 5.25279 -3.14438 0
M  V30 27113 C 3693.38 6.04847 -4.05327 0
M  V30 27114 H 3693.41 6.62195 -3.11261 0
M  V30 27115 H 3694.6 4.42556 -4.81383 0
M  V30 27116 H 3696.08 5.92458 -5.93643 0
M  V30 27117 H 3694.39 7.92655 -6.402 0
M  V30 27118 H 3694.2 6.26671 -8.0846 0
M  V30 27119 H 3692.57 6.29101 -7.32804 0
M  V30 27120 H 3695.21 5.84315 -2.47318 0
M  V30 27121 P 3697.06 7.39546 -4.75277 0
M  V30 27122 O 3698.49 7.84798 -5.01039 0
M  V30 27123 O 3696.7 5.9812 -5.08098 0
M  V30 27124 O 3696.74 7.57503 -3.1866 0
M  V30 27125 C 3696.58 8.97357 -2.74833 0
M  V30 27126 C 3697.12 9.07548 -1.32709 0
M  V30 27127 O 3696.07 8.62072 -0.606159 0
M  V30 27128 C 3698.34 8.25383 -0.938334 0
M  V30 27129 O 3699.08 8.74577 0.146954 0
M  V30 27130 C 3697.67 6.8802 -0.712559 0
M  V30 27131 O 3698.47 6.1189 0.194655 0
M  V30 27132 C 3696.33 7.27966 -0.139777 0
M  V30 27133 H 3696.37 7.25354 0.961601 0
M  V30 27134 H 3697.55 6.32557 -1.65702 0
M  V30 27135 H 3699.03 8.19355 -1.79097 0
M  V30 27136 H 3697.34 10.1294 -1.10029 0
M  V30 27137 H 3697.15 9.64276 -3.41316 0
M  V30 27138 H 3695.52 9.25417 -2.76357 0
M  V30 27139 H 3698.16 6.25267 1.07847 0
M  V30 27140 P 3700.01 8.791 -1.45536e-10 0
M  V30 27141 O 3701.44 9.31096 0.027933 0
M  V30 27142 O 3699.65 7.77869 -1.04071 0
M  V30 27143 O 3699.69 8.09533 1.41463 0
M  V30 27144 C 3699.53 9.0349 2.53943 0
M  V30 27145 C 3700.07 8.35226 3.79016 0
M  V30 27146 O 3699.02 7.57992 4.15078 0
M  V30 27147 C 3701.29 7.45087 3.67298 0
M  V30 27148 O 3702.03 7.27796 4.85194 0
M  V30 27149 C 3700.62 6.17323 3.12027 0
M  V30 27150 O 3701.42 5.04231 3.47188 0
M  V30 27151 C 3699.28 6.19961 3.81809 0
M  V30 27152 H 3699.32 5.58218 4.73051 0
M  V30 27153 H 3700.5 6.21726 2.02589 0
M  V30 27154 H 3701.98 7.86112 2.9231 0
M  V30 27155 H 3700.29 9.11627 4.55076 0
M  V30 27156 H 3700.1 9.9573 2.34194 0
M  V30 27157 H 3698.47 9.2792 2.67832 0
M  V30 27158 H 3701.11 4.67702 4.28772 0
M  V30 27159 P 3702.97 7.39546 4.75277 0
M  V30 27160 O 3704.39 7.81777 5.05738 0
M  V30 27161 O 3702.61 7.1065 3.32998 0
M  V30 27162 O 3702.64 6.04542 5.56673 0
M  V30 27163 C 3702.48 6.22772 7.02095 0
M  V30 27164 C 3703.02 4.97725 7.70406 0
M  V30 27165 O 3701.97 4.13256 7.58987 0
M  V30 27166 C 3704.24 4.28231 7.11815 0
M  V30 27167 O 3704.98 3.49945 8.01648 0
M  V30 27168 C 3703.57 3.5063 5.96244 0
M  V30 27169 O 3704.37 2.36482 5.64681 0
M  V30 27170 C 3702.23 3.15122 6.56374 0
M  V30 27171 H 3702.27 2.13853 6.99751 0
M  V30 27172 H 3703.45 4.13501 5.06559 0
M  V30 27173 H 3704.93 5.03285 6.70911 0
M  V30 27174 H 3703.24 5.20877 8.75697 0
M  V30 27175 H 3703.05 7.11046 7.35349 0
M  V30 27176 H 3701.42 6.35815 7.26986 0
M  V30 27177 H 3704.06 1.61644 6.13565 0
M  V30 27178 P 3705.92 3.65191 7.99657 0
M  V30 27179 O 3707.34 3.8425 8.48115 0
M  V30 27180 O 3705.56 4.17805 6.64342 0
M  V30 27181 O 3705.59 2.07613 7.95143 0
M  V30 27182 C 3705.43 1.44328 9.27336 0
M  V30 27183 C 3705.97 0.0220036 9.17197 0
M  V30 27184 O 3704.92 -0.626867 8.61923 0
M  V30 27185 C 3707.19 -0.24586 8.30336 0
M  V30 27186 O 3707.93 -1.39011 8.63583 0
M  V30 27187 C 3706.52 -0.273849 6.91158 0
M  V30 27188 O 3707.32 -1.06348 6.02892 0
M  V30 27189 C 3705.18 -0.897649 7.22545 0
M  V30 27190 H 3705.22 -1.9841 7.04286 0
M  V30 27191 H 3706.4 0.739928 6.497 0
M  V30 27192 H 3707.88 0.60668 8.36503 0
M  V30 27193 H 3706.19 -0.352479 10.1829 0
M  V30 27194 H 3706 2.00611 10.0304 0
M  V30 27195 H 3704.37 1.41843 9.55327 0
M  V30 27196 H 3707.01 -1.95734 6.03555 0
M  V30 27197 P 3708.87 -1.25109 8.70152 0
M  V30 27198 O 3710.29 -1.35274 9.21221 0
M  V30 27199 O 3708.51 -0.0769065 7.84762 0
M  V30 27200 O 3708.54 -2.55232 7.81161 0
M  V30 27201 C 3708.38 -3.79939 8.58154 0
M  V30 27202 C 3708.92 -4.94023 7.72785 0
M  V30 27203 O 3707.87 -5.18726 6.91205 0
M  V30 27204 C 3710.14 -4.69597 6.85231 0
M  V30 27205 O 3710.88 -5.83832 6.51337 0
M  V30 27206 C 3709.47 -3.96706 5.66633 0
M  V30 27207 O 3710.27 -4.15414 4.49689 0
M  V30 27208 C 3708.14 -4.66153 5.59313 0
M  V30 27209 H 3708.17 -5.47679 4.85214 0
M  V30 27210 H 3709.35 -2.89008 5.86566 0
M  V30 27211 H 3710.83 -4.0121 7.36511 0
M  V30 27212 H 3709.14 -5.80182 8.37584 0
M  V30 27213 H 3708.95 -3.73517 9.52265 0
M  V30 27214 H 3707.32 -3.97163 8.80359 0
M  V30 27215 H 3709.96 -4.90969 4.01921 0
M  V30 27216 P 3711.82 -5.75688 6.64379 0
M  V30 27217 O 3713.24 -6.11849 7.01846 0
M  V30 27218 O 3711.46 -4.30744 6.56026 0
M  V30 27219 O 3711.49 -6.37042 5.19165 0
M  V30 27220 C 3711.33 -7.83578 5.16515 0
M  V30 27221 C 3711.87 -8.33398 3.83019 0
M  V30 27222 O 3710.82 -8.10074 3.01034 0
M  V30 27223 C 3713.09 -7.65514 3.2257 0
M  V30 27224 O 3713.83 -8.4329 2.32297 0
M  V30 27225 C 3712.42 -6.40075 2.62207 0
M  V30 27226 O 3713.22 -5.92589 1.53712 0
M  V30 27227 C 3711.09 -6.9454 2.18503 0
M  V30 27228 H 3711.12 -7.23063 1.12091 0
M  V30 27229 H 3712.3 -5.6025 3.37201 0
M  V30 27230 H 3713.79 -7.35707 4.02681 0
M  V30 27231 H 3712.09 -9.40912 3.9095 0
M  V30 27232 H 3711.9 -8.29056 5.99158 0
M  V30 27233 H 3710.27 -8.10073 5.25882 0
M  V30 27234 H 3712.91 -6.30324 0.726794 0
M  V30 27235 P 3714.77 -8.4349 2.47671 0
M  V30 27236 O 3716.19 -8.94167 2.5964 0
M  V30 27237 O 3714.41 -7.1704 3.19006 0
M  V30 27238 O 3714.44 -8.16596 0.923387 0
M  V30 27239 C 3714.28 -9.38437 0.108857 0
M  V30 27240 C 3714.82 -9.08175 -1.28353 0
M  V30 27241 O 3713.77 -8.44229 -1.84713 0
M  V30 27242 C 3716.04 -8.18386 -1.42505 0
M  V30 27243 O 3716.78 -8.3501 -2.60497 0
M  V30 27244 C 3715.37 -6.80225 -1.25468 0
M  V30 27245 O 3716.17 -5.81621 -1.91066 0
M  V30 27246 C 3714.04 -7.02416 -1.9168 0
M  V30 27247 H 3714.07 -6.6888 -2.96621 0
M  V30 27248 H 3715.25 -6.53617 -0.192223 0
M  V30 27249 H 3716.74 -8.36622 -0.589963 0
M  V30 27250 H 3715.04 -10.0291 -1.79807 0
M  V30 27251 H 3714.85 -10.2138 0.558219 0
M  V30 27252 H 3713.22 -9.6579 0.0444202 0
M  V30 27253 H 3715.86 -5.69556 -2.79637 0
M  V30 27254 P 3717.72 -8.4349 -2.47671 0
M  V30 27255 O 3719.14 -8.92593 -2.65 0
M  V30 27256 O 3717.36 -7.7568 -1.19296 0
M  V30 27257 O 3717.4 -7.36886 -3.63805 0
M  V30 27258 C 3717.24 -7.95349 -4.982 0
M  V30 27259 C 3717.78 -6.94612 -5.98974 0
M  V30 27260 O 3716.72 -6.10347 -6.11815 0
M  V30 27261 C 3718.99 -6.11426 -5.62335 0
M  V30 27262 O 3719.73 -5.6162 -6.70584 0
M  V30 27263 C 3718.32 -5.04409 -4.73308 0
M  V30 27264 O 3719.12 -3.85992 -4.75183 0
M  V30 27265 C 3716.99 -4.8728 -5.41006 0
M  V30 27266 H 3717.02 -4.02333 -6.11157 0
M  V30 27267 H 3718.2 -5.39466 -3.69543 0
M  V30 27268 H 3719.69 -6.71916 -5.01943 0
M  V30 27269 H 3717.99 -7.4649 -6.93477 0
M  V30 27270 H 3717.8 -8.89416 -5.05237 0
M  V30 27271 H 3716.17 -8.14876 -5.18409 0
M  V30 27272 H 3718.81 -3.27957 -5.4317 0
M  V30 27273 P 3720.67 -5.75688 -6.64379 0
M  V30 27274 O 3722.09 -6.07627 -7.05504 0
M  V30 27275 O 3720.31 -5.88047 -5.19722 0
M  V30 27276 O 3720.35 -4.2322 -7.04443 0
M  V30 27277 C 3720.19 -3.99743 -8.4911 0
M  V30 27278 C 3720.73 -2.60516 -8.79425 0
M  V30 27279 O 3719.67 -1.82684 -8.4467 0
M  V30 27280 C 3721.94 -2.10343 -8.03628 0
M  V30 27281 O 3722.68 -1.09919 -8.67766 0
M  V30 27282 C 3721.27 -1.68446 -6.70876 0
M  V30 27283 O 3722.07 -0.678137 -6.08433 0
M  V30 27284 C 3719.94 -1.17436 -7.18567 0
M  V30 27285 H 3719.97 -0.0804732 -7.31656 0
M  V30 27286 H 3721.15 -2.54037 -6.02537 0
M  V30 27287 H 3722.64 -2.93881 -7.85526 0
M  V30 27288 H 3720.94 -2.53065 -9.86973 0
M  V30 27289 H 3720.75 -4.75072 -9.05887 0
M  V30 27290 H 3719.12 -4.05244 -8.76668 0
M  V30 27291 H 3721.76 0.177647 -6.34251 0
M  V30 27292 P 3723.62 -1.25109 -8.70152 0
M  V30 27293 O 3725.02 -1.3516 -9.26897 0
M  V30 27294 O 3723.24 -2.18141 -7.59181 0
M  V30 27295 O 3723.3 0.248118 -8.21325 0
M  V30 27296 C 3723.14 1.22779 -9.30434 0
M  V30 27297 C 3723.68 2.56265 -8.80568 0
M  V30 27298 O 3722.62 3.02944 -8.09255 0
M  V30 27299 C 3724.89 2.57523 -7.89775 0
M  V30 27300 O 3725.63 3.7668 -7.89438 0
M  V30 27301 C 3724.23 2.20997 -6.55446 0
M  V30 27302 O 3725.02 2.71851 -5.48419 0
M  V30 27303 C 3722.89 2.89693 -6.67988 0
M  V30 27304 N 3721.85 2.08895 -6.07487 0
M  V30 27305 C 3720.81 2.72974 -5.43836 0
M  V30 27306 O 3720.85 3.97779 -5.34036 0
M  V30 27307 N 3719.8 2.0005 -4.91983 0
M  V30 27308 C 3719.85 0.66501 -5.00098 0
M  V30 27309 C 3720.94 -0.0100979 -5.61099 0
M  V30 27310 C 3721.91 0.74189 -6.14236 0
M  V30 27311 H 3722.92 3.8874 -6.19774 0
M  V30 27312 H 3724.1 1.12673 -6.44018 0
M  V30 27313 H 3725.59 1.783 -8.19631 0
M  V30 27314 H 3723.89 3.21673 -9.66791 0
M  V30 27315 H 3723.7 0.901032 -10.1892 0
M  V30 27316 H 3722.07 1.33036 -9.56493 0
M  V30 27317 H 3720.99 -1.09591 -5.64358 0
M  V30 27318 H 3722.75 0.260263 -6.6359 0
M  V30 27319 H 3724.81 3.62759 -5.33442 0
M  V30 27320 P 3726.57 3.65191 -7.99657 0
M  V30 27321 O 3727.99 3.89332 -8.45794 0
M  V30 27322 O 3726.21 2.28472 -7.50807 0
M  V30 27323 O 3726.25 4.64972 -6.77611 0
M  V30 27324 C 3726.09 6.06319 -7.16352 0
M  V30 27325 C 3726.63 6.91731 -6.02299 0
M  V30 27326 O 3725.57 6.92449 -5.17064 0
M  V30 27327 C 3727.84 6.43627 -5.25174 0
M  V30 27328 O 3728.58 7.43686 -4.60469 0
M  V30 27329 C 3727.18 5.40275 -4.31916 0
M  V30 27330 O 3727.97 5.25279 -3.14438 0
M  V30 27331 C 3725.84 6.04847 -4.05327 0
M  V30 27332 H 3725.87 6.62195 -3.11261 0
M  V30 27333 H 3727.05 4.42556 -4.81383 0
M  V30 27334 H 3728.54 5.92458 -5.93643 0
M  V30 27335 H 3726.84 7.92655 -6.402 0
M  V30 27336 H 3726.65 6.26671 -8.0846 0
M  V30 27337 H 3725.02 6.29101 -7.32804 0
M  V30 27338 H 3727.66 5.84315 -2.47318 0
M  V30 27339 P 3729.52 7.39546 -4.75277 0
M  V30 27340 O 3730.94 7.84966 -5.01146 0
M  V30 27341 O 3729.16 5.9812 -5.08098 0
M  V30 27342 O 3729.2 7.57503 -3.1866 0
M  V30 27343 C 3729.04 8.97357 -2.74833 0
M  V30 27344 C 3729.58 9.0745 -1.32694 0
M  V30 27345 O 3728.52 8.62072 -0.606159 0
M  V30 27346 C 3730.8 8.25383 -0.938334 0
M  V30 27347 O 3731.53 8.74577 0.146954 0
M  V30 27348 C 3730.13 6.8802 -0.712559 0
M  V30 27349 O 3730.93 6.11791 0.194623 0
M  V30 27350 C 3728.79 7.27966 -0.139777 0
M  V30 27351 N 3727.75 6.39368 -0.623421 0
M  V30 27352 C 3727.81 5.90299 -1.85969 0
M  V30 27353 N 3726.76 5.10919 -2.1133 0
M  V30 27354 C 3726.03 5.14646 -1.0015 0
M  V30 27355 C 3724.72 4.60057 -0.729219 0
M  V30 27356 O 3723.99 3.93476 -1.47746 0
M  V30 27357 N 3724.29 4.88302 0.523505 0
M  V30 27358 C 3725.04 5.63646 1.46207 0
M  V30 27359 N 3724.45 5.78186 2.69239 0
M  V30 27360 N 3726.2 6.19285 1.21544 0
M  V30 27361 C 3726.65 5.93392 -0.0308487 0
M  V30 27362 H 3728.82 7.25354 0.961601 0
M  V30 27363 H 3730 6.3246 -1.65676 0
M  V30 27364 H 3731.49 8.19533 -1.78278 0
M  V30 27365 H 3729.79 10.1294 -1.10029 0
M  V30 27366 H 3729.6 9.64276 -3.41316 0
M  V30 27367 H 3727.97 9.25417 -2.76357 0
M  V30 27368 H 3723.4 4.53993 0.806451 0
M  V30 27369 H 3728.6 6.11865 -2.57394 0
M  V30 27370 H 3723.53 5.34046 2.87467 0
M  V30 27371 H 3724.91 6.33391 3.42578 0
M  V30 27372 H 3730.61 6.25169 1.0783 0
M  V30 27373 P 3732.47 8.791 -1.50723e-10 0
M  V30 27374 O 3733.89 9.31096 0.027933 0
M  V30 27375 O 3732.11 7.77869 -1.04071 0
M  V30 27376 O 3732.15 8.09533 1.41463 0
M  V30 27377 C 3731.99 9.0349 2.53943 0
M  V30 27378 C 3732.53 8.35226 3.79016 0
M  V30 27379 O 3731.47 7.57992 4.15078 0
M  V30 27380 C 3733.75 7.45087 3.67298 0
M  V30 27381 O 3734.48 7.27796 4.85194 0
M  V30 27382 C 3733.08 6.17323 3.12027 0
M  V30 27383 O 3733.88 5.04231 3.47188 0
M  V30 27384 C 3731.74 6.19961 3.81809 0
M  V30 27385 H 3731.77 5.58218 4.73051 0
M  V30 27386 H 3732.96 6.21726 2.02589 0
M  V30 27387 H 3734.44 7.86112 2.9231 0
M  V30 27388 H 3732.75 9.11627 4.55076 0
M  V30 27389 H 3732.56 9.9573 2.34194 0
M  V30 27390 H 3730.93 9.2792 2.67832 0
M  V30 27391 H 3733.56 4.67702 4.28772 0
M  V30 27392 P 3735.42 7.39546 4.75277 0
M  V30 27393 O 3736.84 7.81777 5.05738 0
M  V30 27394 O 3735.06 7.1065 3.32998 0
M  V30 27395 O 3735.1 6.04542 5.56673 0
M  V30 27396 C 3734.94 6.22772 7.02095 0
M  V30 27397 C 3735.48 4.97725 7.70406 0
M  V30 27398 O 3734.42 4.13256 7.58987 0
M  V30 27399 C 3736.7 4.28231 7.11815 0
M  V30 27400 O 3737.43 3.49945 8.01648 0
M  V30 27401 C 3736.03 3.5063 5.96244 0
M  V30 27402 O 3736.83 2.36482 5.64681 0
M  V30 27403 C 3734.69 3.15122 6.56374 0
M  V30 27404 H 3734.72 2.13853 6.99751 0
M  V30 27405 H 3735.91 4.13501 5.06559 0
M  V30 27406 H 3737.39 5.03285 6.70911 0
M  V30 27407 H 3735.7 5.20877 8.75697 0
M  V30 27408 H 3735.51 7.11046 7.35349 0
M  V30 27409 H 3733.88 6.35815 7.26986 0
M  V30 27410 H 3736.51 1.61644 6.13565 0
M  V30 27411 P 3738.37 3.65191 7.99657 0
M  V30 27412 O 3739.79 3.8425 8.48115 0
M  V30 27413 O 3738.01 4.17805 6.64342 0
M  V30 27414 O 3738.05 2.07613 7.95143 0
M  V30 27415 C 3737.89 1.44328 9.27336 0
M  V30 27416 C 3738.43 0.0220036 9.17197 0
M  V30 27417 O 3737.37 -0.626867 8.61923 0
M  V30 27418 C 3739.65 -0.24586 8.30336 0
M  V30 27419 O 3740.39 -1.39011 8.63583 0
M  V30 27420 C 3738.98 -0.273849 6.91158 0
M  V30 27421 O 3739.78 -1.06348 6.02892 0
M  V30 27422 C 3737.64 -0.897649 7.22545 0
M  V30 27423 H 3737.67 -1.9841 7.04286 0
M  V30 27424 H 3738.86 0.739928 6.497 0
M  V30 27425 H 3740.34 0.60668 8.36503 0
M  V30 27426 H 3738.65 -0.352479 10.1829 0
M  V30 27427 H 3738.46 2.00611 10.0304 0
M  V30 27428 H 3736.83 1.41843 9.55327 0
M  V30 27429 H 3739.47 -1.95734 6.03555 0
M  V30 27430 P 3741.32 -1.25109 8.70152 0
M  V30 27431 O 3742.74 -1.35274 9.21221 0
M  V30 27432 O 3740.96 -0.0769065 7.84762 0
M  V30 27433 O 3741 -2.55232 7.81161 0
M  V30 27434 C 3740.84 -3.79939 8.58154 0
M  V30 27435 C 3741.38 -4.94023 7.72785 0
M  V30 27436 O 3740.32 -5.18726 6.91205 0
M  V30 27437 C 3742.6 -4.69597 6.85231 0
M  V30 27438 O 3743.34 -5.83832 6.51337 0
M  V30 27439 C 3741.93 -3.96706 5.66633 0
M  V30 27440 O 3742.73 -4.15414 4.49689 0
M  V30 27441 C 3740.59 -4.66153 5.59313 0
M  V30 27442 H 3740.62 -5.47679 4.85214 0
M  V30 27443 H 3741.81 -2.89008 5.86566 0
M  V30 27444 H 3743.29 -4.0121 7.36511 0
M  V30 27445 H 3741.6 -5.80182 8.37584 0
M  V30 27446 H 3741.41 -3.73517 9.52265 0
M  V30 27447 H 3739.78 -3.97163 8.80359 0
M  V30 27448 H 3742.42 -4.90969 4.01921 0
M  V30 27449 P 3744.27 -5.75688 6.64379 0
M  V30 27450 O 3745.69 -6.11915 7.01921 0
M  V30 27451 O 3743.91 -4.30744 6.56026 0
M  V30 27452 O 3743.95 -6.37042 5.19165 0
M  V30 27453 C 3743.79 -7.83662 5.1657 0
M  V30 27454 C 3744.33 -8.33398 3.83019 0
M  V30 27455 O 3743.28 -8.0998 3.00999 0
M  V30 27456 C 3745.55 -7.65514 3.2257 0
M  V30 27457 O 3746.29 -8.4329 2.32297 0
M  V30 27458 C 3744.88 -6.40075 2.62207 0
M  V30 27459 O 3745.68 -5.92338 1.5428 0
M  V30 27460 C 3743.54 -6.9454 2.18503 0
M  V30 27461 N 3742.5 -5.95905 2.39948 0
M  V30 27462 C 3742.67 -4.98383 3.32108 0
M  V30 27463 N 3741.64 -4.16798 3.41761 0
M  V30 27464 C 3740.76 -4.65287 2.47461 0
M  V30 27465 C 3739.49 -4.18946 2.07461 0
M  V30 27466 N 3738.92 -4.95327 1.09101 0
M  V30 27467 C 3739.53 -6.04369 0.519812 0
M  V30 27468 N 3740.7 -6.50694 0.855982 0
M  V30 27469 C 3741.28 -5.75818 1.84322 0
M  V30 27470 H 3744.76 -5.60502 3.36589 0
M  V30 27471 H 3746.24 -7.35707 4.02681 0
M  V30 27472 H 3744.55 -9.41302 3.90009 0
M  V30 27473 H 3744.36 -8.29056 5.99158 0
M  V30 27474 H 3742.73 -8.10073 5.25882 0
M  V30 27475 H 3743.57 -4.88564 3.92502 0
M  V30 27476 H 3745.37 -6.30224 0.72668 0
M  V30 27477 P 3747.22 -8.4349 2.47671 0
M  V30 27478 O 3748.62 -8.98227 2.65696 0
M  V30 27479 O 3746.85 -7.20409 3.23964 0
M  V30 27480 O 3746.9 -8.16496 0.923275 0
M  V30 27481 C 3746.74 -9.38437 0.108857 0
M  V30 27482 C 3747.28 -9.08076 -1.28339 0
M  V30 27483 O 3746.22 -8.44131 -1.84692 0
M  V30 27484 C 3748.5 -8.18386 -1.42505 0
M  V30 27485 O 3749.24 -8.3501 -2.60497 0
M  V30 27486 C 3747.83 -6.80225 -1.25468 0
M  V30 27487 O 3748.63 -5.81526 -1.91035 0
M  V30 27488 C 3746.49 -7.02416 -1.9168 0
M  V30 27489 N 3745.45 -6.31033 -1.20314 0
M  V30 27490 C 3744.41 -5.77149 -1.928 0
M  V30 27491 O 3744.45 -5.8521 -3.17729 0
M  V30 27492 N 3743.4 -5.15445 -1.27997 0
M  V30 27493 C 3743.45 -5.04472 0.0534726 0
M  V30 27494 C 3744.55 -5.55244 0.808522 0
M  V30 27495 C 3745.51 -6.18542 0.13981 0
M  V30 27496 H 3746.52 -6.68789 -2.9658 0
M  V30 27497 H 3747.71 -6.53498 -0.198729 0
M  V30 27498 H 3749.19 -8.36663 -0.5984 0
M  V30 27499 H 3747.5 -10.0273 -1.8081 0
M  V30 27500 H 3747.31 -10.2138 0.558219 0
M  V30 27501 H 3745.68 -9.6569 0.0444156 0
M  V30 27502 H 3744.59 -5.43017 1.88792 0
M  V30 27503 H 3746.36 -6.60539 0.686773 0
M  V30 27504 H 3748.41 -5.79638 -2.8315 0
M  V30 27505 P 3750.17 -8.4349 -2.47671 0
M  V30 27506 O 3751.6 -8.92593 -2.65 0
M  V30 27507 O 3749.81 -7.7568 -1.19296 0
M  V30 27508 O 3749.85 -7.36886 -3.63805 0
M  V30 27509 C 3749.69 -7.95349 -4.982 0
M  V30 27510 C 3750.23 -6.94612 -5.98974 0
M  V30 27511 O 3749.18 -6.10347 -6.11815 0
M  V30 27512 C 3751.45 -6.11426 -5.62335 0
M  V30 27513 O 3752.19 -5.6162 -6.70584 0
M  V30 27514 C 3750.78 -5.04409 -4.73308 0
M  V30 27515 O 3751.58 -3.85992 -4.75183 0
M  V30 27516 C 3749.44 -4.8728 -5.41006 0
M  V30 27517 H 3749.48 -4.02333 -6.11157 0
M  V30 27518 H 3750.66 -5.39466 -3.69543 0
M  V30 27519 H 3752.14 -6.71916 -5.01943 0
M  V30 27520 H 3750.45 -7.4649 -6.93477 0
M  V30 27521 H 3750.26 -8.89416 -5.05237 0
M  V30 27522 H 3748.63 -8.14876 -5.18409 0
M  V30 27523 H 3751.27 -3.27957 -5.4317 0
M  V30 27524 P 3753.13 -5.75688 -6.64379 0
M  V30 27525 O 3754.55 -6.07627 -7.05504 0
M  V30 27526 O 3752.77 -5.88047 -5.19722 0
M  V30 27527 O 3752.8 -4.2322 -7.04443 0
M  V30 27528 C 3752.64 -3.99743 -8.4911 0
M  V30 27529 C 3753.18 -2.60516 -8.79425 0
M  V30 27530 O 3752.13 -1.82684 -8.4467 0
M  V30 27531 C 3754.4 -2.10343 -8.03628 0
M  V30 27532 O 3755.14 -1.09919 -8.67766 0
M  V30 27533 C 3753.73 -1.68446 -6.70876 0
M  V30 27534 O 3754.53 -0.678137 -6.08433 0
M  V30 27535 C 3752.39 -1.17436 -7.18567 0
M  V30 27536 H 3752.43 -0.0804732 -7.31656 0
M  V30 27537 H 3753.61 -2.54037 -6.02537 0
M  V30 27538 H 3755.09 -2.93881 -7.85526 0
M  V30 27539 H 3753.4 -2.53065 -9.86973 0
M  V30 27540 H 3753.21 -4.75072 -9.05887 0
M  V30 27541 H 3751.58 -4.05244 -8.76668 0
M  V30 27542 H 3754.22 0.177647 -6.34251 0
M  V30 27543 P 3756.08 -1.25109 -8.70152 0
M  V30 27544 O 3757.5 -1.29744 -9.22016 0
M  V30 27545 O 3755.72 -2.13714 -7.55141 0
M  V30 27546 O 3755.75 0.248149 -8.21425 0
M  V30 27547 C 3755.59 1.22779 -9.30434 0
M  V30 27548 C 3756.13 2.56293 -8.80664 0
M  V30 27549 O 3755.08 3.02979 -8.09349 0
M  V30 27550 C 3757.35 2.57523 -7.89775 0
M  V30 27551 O 3758.09 3.7668 -7.89438 0
M  V30 27552 C 3756.68 2.20997 -6.55446 0
M  V30 27553 O 3757.48 2.71895 -5.48509 0
M  V30 27554 C 3755.34 2.89693 -6.67988 0
M  V30 27555 H 3755.38 3.88793 -6.19859 0
M  V30 27556 H 3756.56 1.12046 -6.44229 0
M  V30 27557 H 3758.04 1.7746 -8.19711 0
M  V30 27558 H 3756.35 3.20706 -9.67112 0
M  V30 27559 H 3756.16 0.901032 -10.1892 0
M  V30 27560 H 3754.53 1.33049 -9.56592 0
M  V30 27561 H 3757.17 3.57847 -5.23962 0
M  V30 27562 P 3759.03 3.65191 -7.99657 0
M  V30 27563 O 3760.43 3.87414 -8.52829 0
M  V30 27564 O 3758.65 2.26932 -7.566 0
M  V30 27565 O 3758.7 4.64915 -6.77529 0
M  V30 27566 C 3758.54 6.06319 -7.16352 0
M  V30 27567 C 3759.08 6.91655 -6.02234 0
M  V30 27568 O 3758.03 6.92369 -5.17005 0
M  V30 27569 C 3760.3 6.43627 -5.25174 0
M  V30 27570 O 3761.04 7.43686 -4.60469 0
M  V30 27571 C 3759.63 5.40275 -4.31916 0
M  V30 27572 O 3760.43 5.25193 -3.14386 0
M  V30 27573 C 3758.3 6.04847 -4.05327 0
M  V30 27574 N 3757.25 5.04166 -3.98114 0
M  V30 27575 C 3756.22 5.2366 -3.09923 0
M  V30 27576 O 3756.26 6.23355 -2.34204 0
M  V30 27577 N 3755.21 4.34279 -3.05727 0
M  V30 27578 C 3755.25 3.26317 -3.84756 0
M  V30 27579 C 3756.35 3.02504 -4.72573 0
M  V30 27580 C 3757.32 3.94493 -4.76618 0
M  V30 27581 H 3758.33 6.62104 -3.11218 0
M  V30 27582 H 3759.51 4.42969 -4.80867 0
M  V30 27583 H 3760.99 5.93122 -5.93121 0
M  V30 27584 H 3759.3 7.93295 -6.39407 0
M  V30 27585 H 3759.11 6.26671 -8.0846 0
M  V30 27586 H 3757.48 6.29036 -7.32728 0
M  V30 27587 H 3756.4 2.12921 -5.34017 0
M  V30 27588 H 3758.16 3.80658 -5.44176 0
M  V30 27589 H 3760.22 5.93572 -2.52637 0
M  V30 27590 P 3761.98 7.39546 -4.75277 0
M  V30 27591 O 3763.4 7.84798 -5.01039 0
M  V30 27592 O 3761.62 5.9812 -5.08098 0
M  V30 27593 O 3761.65 7.57503 -3.1866 0
M  V30 27594 C 3761.49 8.97357 -2.74833 0
M  V30 27595 C 3762.03 9.07548 -1.32709 0
M  V30 27596 O 3760.98 8.62072 -0.606159 0
M  V30 27597 C 3763.25 8.25383 -0.938334 0
M  V30 27598 O 3763.99 8.74577 0.146954 0
M  V30 27599 C 3762.58 6.8802 -0.712559 0
M  V30 27600 O 3763.38 6.1189 0.194655 0
M  V30 27601 C 3761.25 7.27966 -0.139777 0
M  V30 27602 H 3761.28 7.25354 0.961601 0
M  V30 27603 H 3762.46 6.32557 -1.65702 0
M  V30 27604 H 3763.94 8.19355 -1.79097 0
M  V30 27605 H 3762.25 10.1294 -1.10029 0
M  V30 27606 H 3762.06 9.64276 -3.41316 0
M  V30 27607 H 3760.43 9.25417 -2.76357 0
M  V30 27608 H 3763.07 6.25267 1.07847 0
M  V30 27609 P 3764.93 8.791 -1.5591e-10 0
M  V30 27610 O 3766.35 9.31096 0.027933 0
M  V30 27611 O 3764.57 7.77869 -1.04071 0
M  V30 27612 O 3764.6 8.09533 1.41463 0
M  V30 27613 C 3764.44 9.0349 2.53943 0
M  V30 27614 C 3764.98 8.35226 3.79016 0
M  V30 27615 O 3763.93 7.57992 4.15078 0
M  V30 27616 C 3766.2 7.45087 3.67298 0
M  V30 27617 O 3766.94 7.27796 4.85194 0
M  V30 27618 C 3765.53 6.17323 3.12027 0
M  V30 27619 O 3766.33 5.04231 3.47188 0
M  V30 27620 C 3764.2 6.19961 3.81809 0
M  V30 27621 H 3764.23 5.58218 4.73051 0
M  V30 27622 H 3765.41 6.21726 2.02589 0
M  V30 27623 H 3766.9 7.86112 2.9231 0
M  V30 27624 H 3765.2 9.11627 4.55076 0
M  V30 27625 H 3765.01 9.9573 2.34194 0
M  V30 27626 H 3763.38 9.2792 2.67832 0
M  V30 27627 H 3766.02 4.67702 4.28772 0
M  V30 27628 P 3767.88 7.39546 4.75277 0
M  V30 27629 O 3769.3 7.81777 5.05738 0
M  V30 27630 O 3767.52 7.1065 3.32998 0
M  V30 27631 O 3767.55 6.04542 5.56673 0
M  V30 27632 C 3767.39 6.22772 7.02095 0
M  V30 27633 C 3767.93 4.97725 7.70406 0
M  V30 27634 O 3766.88 4.13256 7.58987 0
M  V30 27635 C 3769.15 4.28231 7.11815 0
M  V30 27636 O 3769.89 3.49945 8.01648 0
M  V30 27637 C 3768.48 3.5063 5.96244 0
M  V30 27638 O 3769.28 2.36482 5.64681 0
M  V30 27639 C 3767.15 3.15122 6.56374 0
M  V30 27640 H 3767.18 2.13853 6.99751 0
M  V30 27641 H 3768.36 4.13501 5.06559 0
M  V30 27642 H 3769.85 5.03285 6.70911 0
M  V30 27643 H 3768.15 5.20877 8.75697 0
M  V30 27644 H 3767.96 7.11046 7.35349 0
M  V30 27645 H 3766.33 6.35815 7.26986 0
M  V30 27646 H 3768.97 1.61644 6.13565 0
M  V30 27647 P 3770.83 3.65191 7.99657 0
M  V30 27648 O 3772.25 3.8425 8.48115 0
M  V30 27649 O 3770.47 4.17805 6.64342 0
M  V30 27650 O 3770.51 2.07613 7.95143 0
M  V30 27651 C 3770.35 1.44328 9.27336 0
M  V30 27652 C 3770.89 0.0220036 9.17197 0
M  V30 27653 O 3769.83 -0.626867 8.61923 0
M  V30 27654 C 3772.1 -0.24586 8.30336 0
M  V30 27655 O 3772.84 -1.39011 8.63583 0
M  V30 27656 C 3771.43 -0.273849 6.91158 0
M  V30 27657 O 3772.23 -1.06348 6.02892 0
M  V30 27658 C 3770.1 -0.897649 7.22545 0
M  V30 27659 H 3770.13 -1.9841 7.04286 0
M  V30 27660 H 3771.31 0.739928 6.497 0
M  V30 27661 H 3772.8 0.60668 8.36503 0
M  V30 27662 H 3771.1 -0.352479 10.1829 0
M  V30 27663 H 3770.91 2.00611 10.0304 0
M  V30 27664 H 3769.28 1.41843 9.55327 0
M  V30 27665 H 3771.92 -1.95734 6.03555 0
M  V30 27666 P 3773.78 -1.25109 8.70152 0
M  V30 27667 O 3775.2 -1.35274 9.21221 0
M  V30 27668 O 3773.42 -0.0769065 7.84762 0
M  V30 27669 O 3773.46 -2.55232 7.81161 0
M  V30 27670 C 3773.3 -3.79939 8.58154 0
M  V30 27671 C 3773.84 -4.94023 7.72785 0
M  V30 27672 O 3772.78 -5.18726 6.91205 0
M  V30 27673 C 3775.05 -4.69597 6.85231 0
M  V30 27674 O 3775.79 -5.83832 6.51337 0
M  V30 27675 C 3774.39 -3.96706 5.66633 0
M  V30 27676 O 3775.18 -4.15414 4.49689 0
M  V30 27677 C 3773.05 -4.66153 5.59313 0
M  V30 27678 H 3773.08 -5.47679 4.85214 0
M  V30 27679 H 3774.26 -2.89008 5.86566 0
M  V30 27680 H 3775.75 -4.0121 7.36511 0
M  V30 27681 H 3774.05 -5.80182 8.37584 0
M  V30 27682 H 3773.86 -3.73517 9.52265 0
M  V30 27683 H 3772.23 -3.97163 8.80359 0
M  V30 27684 H 3774.87 -4.90969 4.01921 0
M  V30 27685 P 3776.73 -5.75688 6.64379 0
M  V30 27686 O 3778.15 -6.11849 7.01846 0
M  V30 27687 O 3776.37 -4.30744 6.56026 0
M  V30 27688 O 3776.41 -6.37042 5.19165 0
M  V30 27689 C 3776.25 -7.83578 5.16515 0
M  V30 27690 C 3776.79 -8.33398 3.83019 0
M  V30 27691 O 3775.73 -8.10074 3.01034 0
M  V30 27692 C 3778 -7.65514 3.2257 0
M  V30 27693 O 3778.74 -8.4329 2.32297 0
M  V30 27694 C 3777.34 -6.40075 2.62207 0
M  V30 27695 O 3778.13 -5.92589 1.53712 0
M  V30 27696 C 3776 -6.9454 2.18503 0
M  V30 27697 H 3776.03 -7.23063 1.12091 0
M  V30 27698 H 3777.21 -5.6025 3.37201 0
M  V30 27699 H 3778.7 -7.35707 4.02681 0
M  V30 27700 H 3777 -9.40912 3.9095 0
M  V30 27701 H 3776.81 -8.29056 5.99158 0
M  V30 27702 H 3775.18 -8.10073 5.25882 0
M  V30 27703 H 3777.82 -6.30324 0.726794 0
M  V30 27704 P 3779.68 -8.4349 2.47671 0
M  V30 27705 O 3781.1 -8.94263 2.59668 0
M  V30 27706 O 3779.32 -7.1704 3.19006 0
M  V30 27707 O 3779.36 -8.16596 0.923387 0
M  V30 27708 C 3779.2 -9.38537 0.108869 0
M  V30 27709 C 3779.74 -9.08175 -1.28353 0
M  V30 27710 O 3778.68 -8.44131 -1.84692 0
M  V30 27711 C 3780.96 -8.18386 -1.42505 0
M  V30 27712 O 3781.69 -8.3501 -2.60497 0
M  V30 27713 C 3780.29 -6.80225 -1.25468 0
M  V30 27714 O 3781.09 -5.81716 -1.90454 0
M  V30 27715 C 3778.95 -7.02416 -1.9168 0
M  V30 27716 N 3777.91 -6.31033 -1.20314 0
M  V30 27717 C 3778.08 -5.98817 0.0994088 0
M  V30 27718 N 3777.05 -5.35403 0.621694 0
M  V30 27719 C 3776.16 -5.25212 -0.43376 0
M  V30 27720 C 3774.9 -4.64602 -0.519722 0
M  V30 27721 N 3774.3 -4.01457 0.519136 0
M  V30 27722 N 3774.33 -4.7568 -1.76013 0
M  V30 27723 C 3774.93 -5.3653 -2.83017 0
M  V30 27724 N 3776.11 -5.93676 -2.79782 0
M  V30 27725 C 3776.69 -5.84061 -1.56249 0
M  V30 27726 H 3778.98 -6.68789 -2.9658 0
M  V30 27727 H 3780.16 -6.53498 -0.198729 0
M  V30 27728 H 3781.65 -8.36622 -0.589963 0
M  V30 27729 H 3779.95 -10.0273 -1.8081 0
M  V30 27730 H 3779.76 -10.2138 0.558219 0
M  V30 27731 H 3778.13 -9.6579 0.0444202 0
M  V30 27732 H 3774.4 -5.37113 -3.77321 0
M  V30 27733 H 3778.98 -6.23209 0.660562 0
M  V30 27734 H 3773.37 -3.58834 0.394862 0
M  V30 27735 H 3774.77 -3.96059 1.43048 0
M  V30 27736 H 3780.77 -5.69466 -2.79593 0
M  V30 27737 P 3782.63 -8.4349 -2.47671 0
M  V30 27738 O 3784.05 -8.92593 -2.65 0
M  V30 27739 O 3782.27 -7.7568 -1.19296 0
M  V30 27740 O 3782.31 -7.36886 -3.63805 0
M  V30 27741 C 3782.15 -7.95349 -4.982 0
M  V30 27742 C 3782.69 -6.94612 -5.98974 0
M  V30 27743 O 3781.63 -6.10347 -6.11815 0
M  V30 27744 C 3783.91 -6.11426 -5.62335 0
M  V30 27745 O 3784.64 -5.6162 -6.70584 0
M  V30 27746 C 3783.24 -5.04409 -4.73308 0
M  V30 27747 O 3784.04 -3.85992 -4.75183 0
M  V30 27748 C 3781.9 -4.8728 -5.41006 0
M  V30 27749 H 3781.93 -4.02333 -6.11157 0
M  V30 27750 H 3783.11 -5.39466 -3.69543 0
M  V30 27751 H 3784.6 -6.71916 -5.01943 0
M  V30 27752 H 3782.9 -7.4649 -6.93477 0
M  V30 27753 H 3782.71 -8.89416 -5.05237 0
M  V30 27754 H 3781.08 -8.14876 -5.18409 0
M  V30 27755 H 3783.72 -3.27957 -5.4317 0
M  V30 27756 P 3785.58 -5.75688 -6.64379 0
M  V30 27757 O 3787 -6.07692 -7.0558 0
M  V30 27758 O 3785.22 -5.88047 -5.19722 0
M  V30 27759 O 3785.26 -4.2322 -7.04443 0
M  V30 27760 C 3785.1 -3.99785 -8.49201 0
M  V30 27761 C 3785.64 -2.60516 -8.79425 0
M  V30 27762 O 3784.58 -1.82663 -8.44573 0
M  V30 27763 C 3786.86 -2.10343 -8.03628 0
M  V30 27764 O 3787.59 -1.09919 -8.67766 0
M  V30 27765 C 3786.19 -1.68446 -6.70876 0
M  V30 27766 O 3786.99 -0.684109 -6.08265 0
M  V30 27767 C 3784.85 -1.17436 -7.18567 0
M  V30 27768 N 3783.81 -1.52699 -6.23988 0
M  V30 27769 C 3783.98 -2.578 -5.40574 0
M  V30 27770 N 3782.95 -2.78966 -4.61193 0
M  V30 27771 C 3782.06 -1.78725 -4.95769 0
M  V30 27772 C 3780.8 -1.45727 -4.44207 0
M  V30 27773 N 3780.23 -0.374977 -5.05812 0
M  V30 27774 C 3780.83 0.345585 -6.05615 0
M  V30 27775 N 3782.01 0.0787651 -6.56253 0
M  V30 27776 C 3782.59 -1.00499 -5.96189 0
M  V30 27777 H 3786.07 -2.53396 -6.02698 0
M  V30 27778 H 3787.55 -2.93881 -7.85526 0
M  V30 27779 H 3785.85 -2.52078 -9.87225 0
M  V30 27780 H 3785.66 -4.75072 -9.05887 0
M  V30 27781 H 3784.03 -4.05244 -8.76668 0
M  V30 27782 H 3784.88 -3.18977 -5.3945 0
M  V30 27783 H 3786.67 0.177619 -6.34151 0
M  V30 27784 P 3788.53 -1.25109 -8.70152 0
M  V30 27785 O 3789.95 -1.29744 -9.22016 0
M  V30 27786 O 3788.17 -2.13714 -7.55141 0
M  V30 27787 O 3788.21 0.248149 -8.21425 0
M  V30 27788 C 3788.05 1.22779 -9.30434 0
M  V30 27789 C 3788.59 2.56293 -8.80664 0
M  V30 27790 O 3787.53 3.02979 -8.09349 0
M  V30 27791 C 3789.81 2.57523 -7.89775 0
M  V30 27792 O 3790.54 3.7668 -7.89438 0
M  V30 27793 C 3789.14 2.20997 -6.55446 0
M  V30 27794 O 3789.94 2.71895 -5.48509 0
M  V30 27795 C 3787.8 2.89693 -6.67988 0
M  V30 27796 H 3787.83 3.88793 -6.19859 0
M  V30 27797 H 3789.02 1.12046 -6.44229 0
M  V30 27798 H 3790.5 1.7746 -8.19711 0
M  V30 27799 H 3788.81 3.20706 -9.67112 0
M  V30 27800 H 3788.62 0.901032 -10.1892 0
M  V30 27801 H 3786.99 1.33049 -9.56592 0
M  V30 27802 H 3789.62 3.57847 -5.23962 0
M  V30 27803 P 3791.48 3.65191 -7.99657 0
M  V30 27804 O 3792.9 3.89332 -8.45794 0
M  V30 27805 O 3791.12 2.28472 -7.50807 0
M  V30 27806 O 3791.16 4.64972 -6.77611 0
M  V30 27807 C 3791 6.06319 -7.16352 0
M  V30 27808 C 3791.54 6.91731 -6.02299 0
M  V30 27809 O 3790.48 6.92449 -5.17064 0
M  V30 27810 C 3792.76 6.43627 -5.25174 0
M  V30 27811 O 3793.5 7.43686 -4.60469 0
M  V30 27812 C 3792.09 5.40275 -4.31916 0
M  V30 27813 O 3792.89 5.25279 -3.14438 0
M  V30 27814 C 3790.75 6.04847 -4.05327 0
M  V30 27815 H 3790.78 6.62195 -3.11261 0
M  V30 27816 H 3791.97 4.42556 -4.81383 0
M  V30 27817 H 3793.45 5.92458 -5.93643 0
M  V30 27818 H 3791.76 7.92655 -6.402 0
M  V30 27819 H 3791.57 6.26671 -8.0846 0
M  V30 27820 H 3789.94 6.29101 -7.32804 0
M  V30 27821 H 3792.58 5.84315 -2.47318 0
M  V30 27822 P 3794.43 7.39546 -4.75277 0
M  V30 27823 O 3795.86 7.84798 -5.01039 0
M  V30 27824 O 3794.07 5.9812 -5.08098 0
M  V30 27825 O 3794.11 7.57503 -3.1866 0
M  V30 27826 C 3793.95 8.97357 -2.74833 0
M  V30 27827 C 3794.49 9.07548 -1.32709 0
M  V30 27828 O 3793.43 8.62072 -0.606159 0
M  V30 27829 C 3795.71 8.25383 -0.938334 0
M  V30 27830 O 3796.45 8.74577 0.146954 0
M  V30 27831 C 3795.04 6.8802 -0.712559 0
M  V30 27832 O 3795.84 6.1189 0.194655 0
M  V30 27833 C 3793.7 7.27966 -0.139777 0
M  V30 27834 H 3793.73 7.25354 0.961601 0
M  V30 27835 H 3794.92 6.32557 -1.65702 0
M  V30 27836 H 3796.4 8.19355 -1.79097 0
M  V30 27837 H 3794.71 10.1294 -1.10029 0
M  V30 27838 H 3794.52 9.64276 -3.41316 0
M  V30 27839 H 3792.89 9.25417 -2.76357 0
M  V30 27840 H 3795.53 6.25267 1.07847 0
M  V30 27841 P 3797.38 8.791 -1.61096e-10 0
M  V30 27842 O 3798.81 9.31096 0.027933 0
M  V30 27843 O 3797.02 7.77869 -1.04071 0
M  V30 27844 O 3797.06 8.09533 1.41463 0
M  V30 27845 C 3796.9 9.0349 2.53943 0
M  V30 27846 C 3797.44 8.35226 3.79016 0
M  V30 27847 O 3796.38 7.57992 4.15078 0
M  V30 27848 C 3798.66 7.45087 3.67298 0
M  V30 27849 O 3799.4 7.27796 4.85194 0
M  V30 27850 C 3797.99 6.17323 3.12027 0
M  V30 27851 O 3798.79 5.04231 3.47188 0
M  V30 27852 C 3796.65 6.19961 3.81809 0
M  V30 27853 H 3796.68 5.58218 4.73051 0
M  V30 27854 H 3797.87 6.21726 2.02589 0
M  V30 27855 H 3799.35 7.86112 2.9231 0
M  V30 27856 H 3797.66 9.11627 4.55076 0
M  V30 27857 H 3797.47 9.9573 2.34194 0
M  V30 27858 H 3795.84 9.2792 2.67832 0
M  V30 27859 H 3798.48 4.67702 4.28772 0
M  V30 27860 P 3800.33 7.39546 4.75277 0
M  V30 27861 O 3801.76 7.81861 5.05793 0
M  V30 27862 O 3799.97 7.1065 3.32998 0
M  V30 27863 O 3800.01 6.04542 5.56673 0
M  V30 27864 C 3799.85 6.22839 7.02169 0
M  V30 27865 C 3800.39 4.97725 7.70406 0
M  V30 27866 O 3799.34 4.13208 7.58899 0
M  V30 27867 C 3801.61 4.28231 7.11815 0
M  V30 27868 O 3802.35 3.49945 8.01648 0
M  V30 27869 C 3800.94 3.5063 5.96244 0
M  V30 27870 O 3801.74 2.37008 5.64352 0
M  V30 27871 C 3799.6 3.15122 6.56374 0
M  V30 27872 N 3798.56 3.22311 5.55692 0
M  V30 27873 C 3798.73 3.99655 4.46046 0
M  V30 27874 N 3797.7 3.97599 3.63918 0
M  V30 27875 C 3796.82 3.11159 4.25334 0
M  V30 27876 C 3795.55 2.64972 3.85157 0
M  V30 27877 N 3794.95 3.02132 2.69405 0
M  V30 27878 N 3794.99 1.78482 4.74759 0
M  V30 27879 C 3795.59 1.37463 5.90819 0
M  V30 27880 N 3796.76 1.7733 6.31889 0
M  V30 27881 C 3797.34 2.64393 5.43725 0
M  V30 27882 H 3799.64 2.13823 6.99656 0
M  V30 27883 H 3800.82 4.12931 5.06895 0
M  V30 27884 H 3802.3 5.03285 6.70911 0
M  V30 27885 H 3800.61 5.20001 8.76217 0
M  V30 27886 H 3800.42 7.11046 7.35349 0
M  V30 27887 H 3798.79 6.35815 7.26986 0
M  V30 27888 H 3795.05 0.66574 6.53015 0
M  V30 27889 H 3799.63 4.58037 4.27732 0
M  V30 27890 H 3794.02 2.64828 2.45331 0
M  V30 27891 H 3795.43 3.67472 2.05644 0
M  V30 27892 H 3801.43 1.61619 6.13468 0
M  V30 27893 P 3803.28 3.65191 7.99657 0
M  V30 27894 O 3804.71 3.8425 8.48115 0
M  V30 27895 O 3802.92 4.17805 6.64342 0
M  V30 27896 O 3802.96 2.07613 7.95143 0
M  V30 27897 C 3802.8 1.44328 9.27336 0
M  V30 27898 C 3803.34 0.0220036 9.17197 0
M  V30 27899 O 3802.29 -0.626867 8.61923 0
M  V30 27900 C 3804.56 -0.24586 8.30336 0
M  V30 27901 O 3805.3 -1.39011 8.63583 0
M  V30 27902 C 3803.89 -0.273849 6.91158 0
M  V30 27903 O 3804.69 -1.06348 6.02892 0
M  V30 27904 C 3802.55 -0.897649 7.22545 0
M  V30 27905 H 3802.59 -1.9841 7.04286 0
M  V30 27906 H 3803.77 0.739928 6.497 0
M  V30 27907 H 3805.25 0.60668 8.36503 0
M  V30 27908 H 3803.56 -0.352479 10.1829 0
M  V30 27909 H 3803.37 2.00611 10.0304 0
M  V30 27910 H 3801.74 1.41843 9.55327 0
M  V30 27911 H 3804.38 -1.95734 6.03555 0
M  V30 27912 P 3806.24 -1.25109 8.70152 0
M  V30 27913 O 3807.66 -1.35288 9.2132 0
M  V30 27914 O 3805.88 -0.0769065 7.84762 0
M  V30 27915 O 3805.91 -2.55232 7.81161 0
M  V30 27916 C 3805.75 -3.79979 8.58246 0
M  V30 27917 C 3806.29 -4.94023 7.72785 0
M  V30 27918 O 3805.24 -5.18666 6.91125 0
M  V30 27919 C 3807.51 -4.69597 6.85231 0
M  V30 27920 O 3808.25 -5.83832 6.51337 0
M  V30 27921 C 3806.84 -3.96706 5.66633 0
M  V30 27922 O 3807.64 -4.14896 4.5003 0
M  V30 27923 C 3805.5 -4.66153 5.59313 0
M  V30 27924 N 3804.46 -3.71582 5.24027 0
M  V30 27925 C 3804.63 -2.39715 5.48833 0
M  V30 27926 N 3803.6 -1.65863 5.12845 0
M  V30 27927 C 3802.72 -2.57637 4.5973 0
M  V30 27928 C 3801.45 -2.40278 4.01027 0
M  V30 27929 N 3800.89 -3.57711 3.59575 0
M  V30 27930 C 3801.49 -4.80324 3.70476 0
M  V30 27931 N 3802.67 -5.01121 4.23801 0
M  V30 27932 C 3803.24 -3.84757 4.66372 0
M  V30 27933 H 3806.72 -2.8955 5.86187 0
M  V30 27934 H 3808.2 -4.0121 7.36511 0
M  V30 27935 H 3806.51 -5.81019 8.37003 0
M  V30 27936 H 3806.32 -3.73517 9.52265 0
M  V30 27937 H 3804.69 -3.97163 8.80359 0
M  V30 27938 H 3805.53 -1.98804 5.94332 0
M  V30 27939 H 3807.33 -4.90891 4.01857 0
M  V30 27940 P 3809.19 -5.75688 6.64379 0
M  V30 27941 O 3810.61 -6.11849 7.01846 0
M  V30 27942 O 3808.83 -4.30744 6.56026 0
M  V30 27943 O 3808.86 -6.37042 5.19165 0
M  V30 27944 C 3808.7 -7.83578 5.16515 0
M  V30 27945 C 3809.24 -8.33398 3.83019 0
M  V30 27946 O 3808.19 -8.10074 3.01034 0
M  V30 27947 C 3810.46 -7.65514 3.2257 0
M  V30 27948 O 3811.2 -8.4329 2.32297 0
M  V30 27949 C 3809.79 -6.40075 2.62207 0
M  V30 27950 O 3810.59 -5.92589 1.53712 0
M  V30 27951 C 3808.45 -6.9454 2.18503 0
M  V30 27952 H 3808.49 -7.23063 1.12091 0
M  V30 27953 H 3809.67 -5.6025 3.37201 0
M  V30 27954 H 3811.15 -7.35707 4.02681 0
M  V30 27955 H 3809.46 -9.40912 3.9095 0
M  V30 27956 H 3809.27 -8.29056 5.99158 0
M  V30 27957 H 3807.64 -8.10073 5.25882 0
M  V30 27958 H 3810.28 -6.30324 0.726794 0
M  V30 27959 P 3812.14 -8.4349 2.47671 0
M  V30 27960 O 3813.56 -8.94167 2.5964 0
M  V30 27961 O 3811.78 -7.1704 3.19006 0
M  V30 27962 O 3811.81 -8.16596 0.923387 0
M  V30 27963 C 3811.65 -9.38437 0.108857 0
M  V30 27964 C 3812.19 -9.08175 -1.28353 0
M  V30 27965 O 3811.14 -8.44229 -1.84713 0
M  V30 27966 C 3813.41 -8.18386 -1.42505 0
M  V30 27967 O 3814.15 -8.3501 -2.60497 0
M  V30 27968 C 3812.74 -6.80225 -1.25468 0
M  V30 27969 O 3813.54 -5.81621 -1.91066 0
M  V30 27970 C 3811.41 -7.02416 -1.9168 0
M  V30 27971 H 3811.44 -6.6888 -2.96621 0
M  V30 27972 H 3812.62 -6.53617 -0.192223 0
M  V30 27973 H 3814.1 -8.36622 -0.589963 0
M  V30 27974 H 3812.41 -10.0291 -1.79807 0
M  V30 27975 H 3812.22 -10.2138 0.558219 0
M  V30 27976 H 3810.59 -9.6579 0.0444202 0
M  V30 27977 H 3813.23 -5.69556 -2.79637 0
M  V30 27978 P 3815.09 -8.4349 -2.47671 0
M  V30 27979 O 3816.51 -8.92593 -2.65 0
M  V30 27980 O 3814.73 -7.7568 -1.19296 0
M  V30 27981 O 3814.76 -7.36886 -3.63805 0
M  V30 27982 C 3814.6 -7.95349 -4.982 0
M  V30 27983 C 3815.14 -6.94612 -5.98974 0
M  V30 27984 O 3814.09 -6.10347 -6.11815 0
M  V30 27985 C 3816.36 -6.11426 -5.62335 0
M  V30 27986 O 3817.1 -5.6162 -6.70584 0
M  V30 27987 C 3815.69 -5.04409 -4.73308 0
M  V30 27988 O 3816.49 -3.85992 -4.75183 0
M  V30 27989 C 3814.36 -4.8728 -5.41006 0
M  V30 27990 H 3814.39 -4.02333 -6.11157 0
M  V30 27991 H 3815.57 -5.39466 -3.69543 0
M  V30 27992 H 3817.06 -6.71916 -5.01943 0
M  V30 27993 H 3815.36 -7.4649 -6.93477 0
M  V30 27994 H 3815.17 -8.89416 -5.05237 0
M  V30 27995 H 3813.54 -8.14876 -5.18409 0
M  V30 27996 H 3816.18 -3.27957 -5.4317 0
M  V30 27997 P 3818.04 -5.75688 -6.64379 0
M  V30 27998 O 3819.46 -6.07627 -7.05504 0
M  V30 27999 O 3817.68 -5.88047 -5.19722 0
M  V30 28000 O 3817.71 -4.2322 -7.04443 0
M  V30 28001 C 3817.55 -3.99743 -8.4911 0
M  V30 28002 C 3818.09 -2.60516 -8.79425 0
M  V30 28003 O 3817.04 -1.82684 -8.4467 0
M  V30 28004 C 3819.31 -2.10343 -8.03628 0
M  V30 28005 O 3820.05 -1.09919 -8.67766 0
M  V30 28006 C 3818.64 -1.68446 -6.70876 0
M  V30 28007 O 3819.44 -0.678137 -6.08433 0
M  V30 28008 C 3817.31 -1.17436 -7.18567 0
M  V30 28009 H 3817.34 -0.0804732 -7.31656 0
M  V30 28010 H 3818.52 -2.54037 -6.02537 0
M  V30 28011 H 3820.01 -2.93881 -7.85526 0
M  V30 28012 H 3818.31 -2.53065 -9.86973 0
M  V30 28013 H 3818.12 -4.75072 -9.05887 0
M  V30 28014 H 3816.49 -4.05244 -8.76668 0
M  V30 28015 H 3819.13 0.177647 -6.34251 0
M  V30 28016 P 3820.99 -1.25109 -8.70152 0
M  V30 28017 O 3822.41 -1.29744 -9.22016 0
M  V30 28018 O 3820.63 -2.13714 -7.55141 0
M  V30 28019 O 3820.67 0.248149 -8.21425 0
M  V30 28020 C 3820.51 1.22779 -9.30434 0
M  V30 28021 C 3821.05 2.56293 -8.80664 0
M  V30 28022 O 3819.99 3.02979 -8.09349 0
M  V30 28023 C 3822.26 2.57523 -7.89775 0
M  V30 28024 O 3823 3.7668 -7.89438 0
M  V30 28025 C 3821.59 2.20997 -6.55446 0
M  V30 28026 O 3822.39 2.71895 -5.48509 0
M  V30 28027 C 3820.26 2.89693 -6.67988 0
M  V30 28028 H 3820.29 3.88793 -6.19859 0
M  V30 28029 H 3821.47 1.12046 -6.44229 0
M  V30 28030 H 3822.96 1.7746 -8.19711 0
M  V30 28031 H 3821.26 3.20706 -9.67112 0
M  V30 28032 H 3821.07 0.901032 -10.1892 0
M  V30 28033 H 3819.44 1.33049 -9.56592 0
M  V30 28034 H 3822.08 3.57847 -5.23962 0
M  V30 28035 P 3823.94 3.65191 -7.99657 0
M  V30 28036 O 3825.36 3.89332 -8.45794 0
M  V30 28037 O 3823.58 2.28472 -7.50807 0
M  V30 28038 O 3823.62 4.64972 -6.77611 0
M  V30 28039 C 3823.46 6.06319 -7.16352 0
M  V30 28040 C 3824 6.91731 -6.02299 0
M  V30 28041 O 3822.94 6.92449 -5.17064 0
M  V30 28042 C 3825.21 6.43627 -5.25174 0
M  V30 28043 O 3825.95 7.43686 -4.60469 0
M  V30 28044 C 3824.54 5.40275 -4.31916 0
M  V30 28045 O 3825.34 5.25279 -3.14438 0
M  V30 28046 C 3823.21 6.04847 -4.05327 0
M  V30 28047 H 3823.24 6.62195 -3.11261 0
M  V30 28048 H 3824.42 4.42556 -4.81383 0
M  V30 28049 H 3825.91 5.92458 -5.93643 0
M  V30 28050 H 3824.21 7.92655 -6.402 0
M  V30 28051 H 3824.02 6.26671 -8.0846 0
M  V30 28052 H 3822.39 6.29101 -7.32804 0
M  V30 28053 H 3825.03 5.84315 -2.47318 0
M  V30 28054 P 3826.89 7.39546 -4.75277 0
M  V30 28055 O 3828.31 7.84798 -5.01039 0
M  V30 28056 O 3826.53 5.9812 -5.08098 0
M  V30 28057 O 3826.57 7.57503 -3.1866 0
M  V30 28058 C 3826.41 8.97357 -2.74833 0
M  V30 28059 C 3826.95 9.07548 -1.32709 0
M  V30 28060 O 3825.89 8.62072 -0.606159 0
M  V30 28061 C 3828.16 8.25383 -0.938334 0
M  V30 28062 O 3828.9 8.74577 0.146954 0
M  V30 28063 C 3827.5 6.8802 -0.712559 0
M  V30 28064 O 3828.29 6.1189 0.194655 0
M  V30 28065 C 3826.16 7.27966 -0.139777 0
M  V30 28066 H 3826.19 7.25354 0.961601 0
M  V30 28067 H 3827.37 6.32557 -1.65702 0
M  V30 28068 H 3828.86 8.19355 -1.79097 0
M  V30 28069 H 3827.16 10.1294 -1.10029 0
M  V30 28070 H 3826.97 9.64276 -3.41316 0
M  V30 28071 H 3825.34 9.25417 -2.76357 0
M  V30 28072 H 3827.98 6.25267 1.07847 0
M  V30 28073 P 3829.84 8.791 -1.66283e-10 0
M  V30 28074 O 3831.26 9.31096 0.027933 0
M  V30 28075 O 3829.48 7.77869 -1.04071 0
M  V30 28076 O 3829.52 8.09533 1.41463 0
M  V30 28077 C 3829.36 9.0349 2.53943 0
M  V30 28078 C 3829.9 8.35226 3.79016 0
M  V30 28079 O 3828.84 7.57992 4.15078 0
M  V30 28080 C 3831.11 7.45087 3.67298 0
M  V30 28081 O 3831.85 7.27796 4.85194 0
M  V30 28082 C 3830.45 6.17323 3.12027 0
M  V30 28083 O 3831.24 5.04231 3.47188 0
M  V30 28084 C 3829.11 6.19961 3.81809 0
M  V30 28085 H 3829.14 5.58218 4.73051 0
M  V30 28086 H 3830.32 6.21726 2.02589 0
M  V30 28087 H 3831.81 7.86112 2.9231 0
M  V30 28088 H 3830.11 9.11627 4.55076 0
M  V30 28089 H 3829.92 9.9573 2.34194 0
M  V30 28090 H 3828.29 9.2792 2.67832 0
M  V30 28091 H 3830.93 4.67702 4.28772 0
M  V30 28092 P 3832.79 7.39546 4.75277 0
M  V30 28093 O 3834.21 7.81945 5.05847 0
M  V30 28094 O 3832.43 7.1065 3.32998 0
M  V30 28095 O 3832.47 6.04542 5.56673 0
M  V30 28096 C 3832.31 6.22772 7.02095 0
M  V30 28097 C 3832.85 4.97671 7.70322 0
M  V30 28098 O 3831.79 4.13256 7.58987 0
M  V30 28099 C 3834.07 4.28231 7.11815 0
M  V30 28100 O 3834.8 3.49945 8.01648 0
M  V30 28101 C 3833.4 3.5063 5.96244 0
M  V30 28102 O 3834.2 2.36443 5.64589 0
M  V30 28103 C 3832.06 3.15122 6.56374 0
M  V30 28104 N 3831.02 3.22311 5.55692 0
M  V30 28105 C 3831.08 4.14382 4.59701 0
M  V30 28106 N 3830.03 4.04476 3.76958 0
M  V30 28107 C 3829.3 3.04892 4.26534 0
M  V30 28108 C 3827.99 2.57447 3.88189 0
M  V30 28109 O 3827.26 2.9785 2.96543 0
M  V30 28110 N 3827.56 1.55228 4.65922 0
M  V30 28111 C 3828.31 1.01152 5.73447 0
M  V30 28112 N 3827.72 -0.0472117 6.37783 0
M  V30 28113 N 3829.47 1.467 6.13813 0
M  V30 28114 C 3829.92 2.4931 5.38487 0
M  V30 28115 H 3832.09 2.13853 6.99751 0
M  V30 28116 H 3833.27 4.13438 5.06482 0
M  V30 28117 H 3834.76 5.02614 6.71414 0
M  V30 28118 H 3833.06 5.20877 8.75697 0
M  V30 28119 H 3832.87 7.11046 7.35349 0
M  V30 28120 H 3831.24 6.35815 7.26986 0
M  V30 28121 H 3826.67 1.15238 4.46468 0
M  V30 28122 H 3831.87 4.88312 4.49647 0
M  V30 28123 H 3826.8 -0.396382 6.05203 0
M  V30 28124 H 3828.18 -0.484997 7.18465 0
M  V30 28125 H 3833.88 1.61619 6.13468 0
M  V30 28126 P 3835.74 3.65191 7.99657 0
M  V30 28127 O 3837.16 3.8425 8.48115 0
M  V30 28128 O 3835.38 4.17805 6.64342 0
M  V30 28129 O 3835.42 2.07613 7.95143 0
M  V30 28130 C 3835.26 1.44328 9.27336 0
M  V30 28131 C 3835.8 0.0220036 9.17197 0
M  V30 28132 O 3834.74 -0.626867 8.61923 0
M  V30 28133 C 3837.02 -0.24586 8.30336 0
M  V30 28134 O 3837.75 -1.39011 8.63583 0
M  V30 28135 C 3836.35 -0.273849 6.91158 0
M  V30 28136 O 3837.15 -1.06348 6.02892 0
M  V30 28137 C 3835.01 -0.897649 7.22545 0
M  V30 28138 H 3835.04 -1.9841 7.04286 0
M  V30 28139 H 3836.22 0.739928 6.497 0
M  V30 28140 H 3837.71 0.60668 8.36503 0
M  V30 28141 H 3836.01 -0.352479 10.1829 0
M  V30 28142 H 3835.82 2.00611 10.0304 0
M  V30 28143 H 3834.19 1.41843 9.55327 0
M  V30 28144 H 3836.83 -1.95734 6.03555 0
M  V30 28145 P 3838.69 -1.25109 8.70152 0
M  V30 28146 O 3840.11 -1.35274 9.21221 0
M  V30 28147 O 3838.33 -0.0769065 7.84762 0
M  V30 28148 O 3838.37 -2.55232 7.81161 0
M  V30 28149 C 3838.21 -3.79939 8.58154 0
M  V30 28150 C 3838.75 -4.94023 7.72785 0
M  V30 28151 O 3837.69 -5.18726 6.91205 0
M  V30 28152 C 3839.97 -4.69597 6.85231 0
M  V30 28153 O 3840.7 -5.83832 6.51337 0
M  V30 28154 C 3839.3 -3.96706 5.66633 0
M  V30 28155 O 3840.1 -4.15414 4.49689 0
M  V30 28156 C 3837.96 -4.66153 5.59313 0
M  V30 28157 H 3837.99 -5.47679 4.85214 0
M  V30 28158 H 3839.18 -2.89008 5.86566 0
M  V30 28159 H 3840.66 -4.0121 7.36511 0
M  V30 28160 H 3838.97 -5.80182 8.37584 0
M  V30 28161 H 3838.78 -3.73517 9.52265 0
M  V30 28162 H 3837.15 -3.97163 8.80359 0
M  V30 28163 H 3839.78 -4.90969 4.01921 0
M  V30 28164 P 3841.64 -5.75688 6.64379 0
M  V30 28165 O 3843.06 -6.11849 7.01846 0
M  V30 28166 O 3841.28 -4.30744 6.56026 0
M  V30 28167 O 3841.32 -6.37042 5.19165 0
M  V30 28168 C 3841.16 -7.83578 5.16515 0
M  V30 28169 C 3841.7 -8.33398 3.83019 0
M  V30 28170 O 3840.64 -8.10074 3.01034 0
M  V30 28171 C 3842.92 -7.65514 3.2257 0
M  V30 28172 O 3843.66 -8.4329 2.32297 0
M  V30 28173 C 3842.25 -6.40075 2.62207 0
M  V30 28174 O 3843.05 -5.92589 1.53712 0
M  V30 28175 C 3840.91 -6.9454 2.18503 0
M  V30 28176 H 3840.94 -7.23063 1.12091 0
M  V30 28177 H 3842.13 -5.6025 3.37201 0
M  V30 28178 H 3843.61 -7.35707 4.02681 0
M  V30 28179 H 3841.92 -9.40912 3.9095 0
M  V30 28180 H 3841.73 -8.29056 5.99158 0
M  V30 28181 H 3840.1 -8.10073 5.25882 0
M  V30 28182 H 3842.74 -6.30324 0.726794 0
M  V30 28183 P 3844.59 -8.4349 2.47671 0
M  V30 28184 O 3846.01 -8.94359 2.59696 0
M  V30 28185 O 3844.23 -7.1704 3.19006 0
M  V30 28186 O 3844.27 -8.16596 0.923387 0
M  V30 28187 C 3844.11 -9.38437 0.108857 0
M  V30 28188 C 3844.65 -9.08076 -1.28339 0
M  V30 28189 O 3843.59 -8.44229 -1.84713 0
M  V30 28190 C 3845.87 -8.18386 -1.42505 0
M  V30 28191 O 3846.61 -8.3501 -2.60497 0
M  V30 28192 C 3845.2 -6.80225 -1.25468 0
M  V30 28193 O 3846 -5.81526 -1.91035 0
M  V30 28194 C 3843.86 -7.02416 -1.9168 0
M  V30 28195 N 3842.82 -6.31033 -1.20314 0
M  V30 28196 C 3842.88 -6.18781 0.121293 0
M  V30 28197 N 3841.84 -5.49762 0.588272 0
M  V30 28198 C 3841.1 -5.22015 -0.488988 0
M  V30 28199 C 3839.8 -4.61966 -0.596448 0
M  V30 28200 O 3839.06 -4.19162 0.309059 0
M  V30 28201 N 3839.37 -4.53773 -1.878 0
M  V30 28202 C 3840.11 -4.99623 -2.99082 0
M  V30 28203 N 3839.52 -4.78912 -4.21227 0
M  V30 28204 N 3841.27 -5.59957 -2.91093 0
M  V30 28205 C 3841.72 -5.70225 -1.64218 0
M  V30 28206 H 3843.89 -6.6888 -2.96621 0
M  V30 28207 H 3845.08 -6.53517 -0.192194 0
M  V30 28208 H 3846.56 -8.36563 -0.598329 0
M  V30 28209 H 3844.87 -10.0291 -1.79807 0
M  V30 28210 H 3844.68 -10.2138 0.558219 0
M  V30 28211 H 3843.05 -9.6579 0.0444202 0
M  V30 28212 H 3838.47 -4.12883 -2.05283 0
M  V30 28213 H 3843.68 -6.59596 0.745856 0
M  V30 28214 H 3838.61 -4.31425 -4.2628 0
M  V30 28215 H 3839.98 -5.11219 -5.07148 0
M  V30 28216 H 3845.69 -5.69466 -2.79593 0
M  V30 28217 P 3847.54 -8.4349 -2.47671 0
M  V30 28218 O 3848.97 -8.92785 -2.65057 0
M  V30 28219 O 3847.18 -7.7568 -1.19296 0
M  V30 28220 O 3847.22 -7.36886 -3.63805 0
M  V30 28221 C 3847.06 -7.95349 -4.982 0
M  V30 28222 C 3847.6 -6.94537 -5.98908 0
M  V30 28223 O 3846.55 -6.10347 -6.11815 0
M  V30 28224 C 3848.82 -6.11426 -5.62335 0
M  V30 28225 O 3849.56 -5.6162 -6.70584 0
M  V30 28226 C 3848.15 -5.04409 -4.73308 0
M  V30 28227 O 3848.95 -3.85929 -4.75106 0
M  V30 28228 C 3846.81 -4.8728 -5.41006 0
M  V30 28229 N 3845.77 -4.65812 -4.42377 0
M  V30 28230 C 3845.83 -5.27109 -3.24335 0
M  V30 28231 N 3844.79 -4.94293 -2.47735 0
M  V30 28232 C 3844.05 -4.1271 -3.23359 0
M  V30 28233 C 3842.75 -3.56384 -2.99934 0
M  V30 28234 O 3842.01 -3.69331 -2.00616 0
M  V30 28235 N 3842.32 -2.80206 -4.03316 0
M  V30 28236 C 3843.07 -2.58614 -5.2172 0
M  V30 28237 N 3842.47 -1.75154 -6.13278 0
M  V30 28238 N 3844.22 -3.13689 -5.47619 0
M  V30 28239 C 3844.68 -3.90921 -4.46436 0
M  V30 28240 H 3846.84 -4.02333 -6.11157 0
M  V30 28241 H 3848.03 -5.39383 -3.69487 0
M  V30 28242 H 3849.51 -6.71414 -5.02615 0
M  V30 28243 H 3847.82 -7.4649 -6.93477 0
M  V30 28244 H 3847.63 -8.89416 -5.05237 0
M  V30 28245 H 3846 -8.14876 -5.18409 0
M  V30 28246 H 3841.42 -2.36355 -3.95916 0
M  V30 28247 H 3846.63 -5.95212 -2.93859 0
M  V30 28248 H 3841.56 -1.32473 -5.91856 0
M  V30 28249 H 3842.93 -1.5588 -7.03026 0
M  V30 28250 H 3848.64 -3.27906 -5.43085 0
M  V30 28251 P 3850.49 -5.75688 -6.64379 0
M  V30 28252 O 3851.92 -6.07758 -7.05656 0
M  V30 28253 O 3850.13 -5.88047 -5.19722 0
M  V30 28254 O 3850.17 -4.2322 -7.04443 0
M  V30 28255 C 3850.01 -3.99743 -8.4911 0
M  V30 28256 C 3850.55 -2.60487 -8.79329 0
M  V30 28257 O 3849.5 -1.82684 -8.4467 0
M  V30 28258 C 3851.77 -2.10343 -8.03628 0
M  V30 28259 O 3852.51 -1.09919 -8.67766 0
M  V30 28260 C 3851.1 -1.68446 -6.70876 0
M  V30 28261 O 3851.9 -0.678026 -6.08333 0
M  V30 28262 C 3849.76 -1.17436 -7.18567 0
M  V30 28263 N 3848.72 -1.52699 -6.23988 0
M  V30 28264 C 3848.78 -2.68084 -5.57824 0
M  V30 28265 N 3847.74 -2.8189 -4.75643 0
M  V30 28266 C 3847 -1.72373 -4.95155 0
M  V30 28267 C 3845.7 -1.37653 -4.44996 0
M  V30 28268 O 3844.96 -2.02239 -3.68445 0
M  V30 28269 N 3845.27 -0.17675 -4.90782 0
M  V30 28270 C 3846.02 0.645036 -5.78716 0
M  V30 28271 N 3845.42 1.84214 -6.10618 0
M  V30 28272 N 3847.17 0.321732 -6.30279 0
M  V30 28273 C 3847.63 -0.87502 -5.86913 0
M  V30 28274 H 3849.79 -0.0804732 -7.31656 0
M  V30 28275 H 3850.98 -2.53998 -6.02444 0
M  V30 28276 H 3852.46 -2.93095 -7.8582 0
M  V30 28277 H 3850.77 -2.53065 -9.86973 0
M  V30 28278 H 3850.58 -4.75072 -9.05887 0
M  V30 28279 H 3848.95 -4.05244 -8.76668 0
M  V30 28280 H 3844.37 0.152143 -4.60849 0
M  V30 28281 H 3849.58 -3.41852 -5.69006 0
M  V30 28282 H 3844.51 2.08538 -5.69521 0
M  V30 28283 H 3845.88 2.4895 -6.75698 0
M  V30 28284 H 3851.59 0.177619 -6.34151 0
M  V30 28285 P 3853.44 -1.25109 -8.70152 0
M  V30 28286 O 3854.87 -1.29744 -9.22016 0
M  V30 28287 O 3853.08 -2.13714 -7.55141 0
M  V30 28288 O 3853.12 0.248149 -8.21425 0
M  V30 28289 C 3852.96 1.22779 -9.30434 0
M  V30 28290 C 3853.5 2.56293 -8.80664 0
M  V30 28291 O 3852.45 3.02979 -8.09349 0
M  V30 28292 C 3854.72 2.57523 -7.89775 0
M  V30 28293 O 3855.46 3.7668 -7.89438 0
M  V30 28294 C 3854.05 2.20997 -6.55446 0
M  V30 28295 O 3854.85 2.71895 -5.48509 0
M  V30 28296 C 3852.71 2.89693 -6.67988 0
M  V30 28297 H 3852.75 3.88793 -6.19859 0
M  V30 28298 H 3853.93 1.12046 -6.44229 0
M  V30 28299 H 3855.41 1.7746 -8.19711 0
M  V30 28300 H 3853.72 3.20706 -9.67112 0
M  V30 28301 H 3853.53 0.901032 -10.1892 0
M  V30 28302 H 3851.9 1.33049 -9.56592 0
M  V30 28303 H 3854.54 3.57847 -5.23962 0
M  V30 28304 P 3856.39 3.65191 -7.99657 0
M  V30 28305 O 3857.82 3.89332 -8.45794 0
M  V30 28306 O 3856.03 2.28472 -7.50807 0
M  V30 28307 O 3856.07 4.64972 -6.77611 0
M  V30 28308 C 3855.91 6.06319 -7.16352 0
M  V30 28309 C 3856.45 6.91731 -6.02299 0
M  V30 28310 O 3855.4 6.92449 -5.17064 0
M  V30 28311 C 3857.67 6.43627 -5.25174 0
M  V30 28312 O 3858.41 7.43686 -4.60469 0
M  V30 28313 C 3857 5.40275 -4.31916 0
M  V30 28314 O 3857.8 5.25279 -3.14438 0
M  V30 28315 C 3855.66 6.04847 -4.05327 0
M  V30 28316 H 3855.7 6.62195 -3.11261 0
M  V30 28317 H 3856.88 4.42556 -4.81383 0
M  V30 28318 H 3858.36 5.92458 -5.93643 0
M  V30 28319 H 3856.67 7.92655 -6.402 0
M  V30 28320 H 3856.48 6.26671 -8.0846 0
M  V30 28321 H 3854.85 6.29101 -7.32804 0
M  V30 28322 H 3857.49 5.84315 -2.47318 0
M  V30 28323 P 3859.35 7.39546 -4.75277 0
M  V30 28324 O 3860.77 7.84882 -5.01092 0
M  V30 28325 O 3858.99 5.9812 -5.08098 0
M  V30 28326 O 3859.02 7.57503 -3.1866 0
M  V30 28327 C 3858.86 8.97452 -2.74862 0
M  V30 28328 C 3859.4 9.07548 -1.32709 0
M  V30 28329 O 3858.35 8.61972 -0.606089 0
M  V30 28330 C 3860.62 8.25383 -0.938334 0
M  V30 28331 O 3861.36 8.74577 0.146954 0
M  V30 28332 C 3859.95 6.8802 -0.712559 0
M  V30 28333 O 3860.75 6.1181 0.188505 0
M  V30 28334 C 3858.61 7.27966 -0.139777 0
M  V30 28335 N 3857.57 6.39368 -0.623421 0
M  V30 28336 C 3857.74 5.71761 -1.78245 0
M  V30 28337 N 3856.71 4.962 -2.10491 0
M  V30 28338 C 3855.83 5.16158 -1.0635 0
M  V30 28339 C 3854.56 4.60425 -0.810266 0
M  V30 28340 N 3853.96 3.7057 -1.62914 0
M  V30 28341 N 3854 5.06 0.348685 0
M  V30 28342 C 3854.6 5.94532 1.20395 0
M  V30 28343 N 3855.78 6.48452 1.01191 0
M  V30 28344 C 3856.35 6.04423 -0.146291 0
M  V30 28345 H 3858.65 7.25255 0.961469 0
M  V30 28346 H 3859.83 6.32625 -1.65044 0
M  V30 28347 H 3861.31 8.19355 -1.79097 0
M  V30 28348 H 3859.62 10.1305 -1.09016 0
M  V30 28349 H 3859.43 9.64276 -3.41316 0
M  V30 28350 H 3857.8 9.25417 -2.76357 0
M  V30 28351 H 3854.06 6.21659 2.10714 0
M  V30 28352 H 3858.64 5.79354 -2.38959 0
M  V30 28353 H 3853.03 3.33174 -1.38982 0
M  V30 28354 H 3854.44 3.39714 -2.48836 0
M  V30 28355 H 3860.44 6.25169 1.0783 0
M  V30 28356 P 3862.3 8.791 -1.7147e-10 0
M  V30 28357 O 3863.72 9.31196 0.027936 0
M  V30 28358 O 3861.94 7.77869 -1.04071 0
M  V30 28359 O 3861.97 8.09533 1.41463 0
M  V30 28360 C 3861.81 9.03587 2.5397 0
M  V30 28361 C 3862.35 8.35226 3.79016 0
M  V30 28362 O 3861.3 7.57904 4.1503 0
M  V30 28363 C 3863.57 7.45087 3.67298 0
M  V30 28364 O 3864.31 7.27796 4.85194 0
M  V30 28365 C 3862.9 6.17323 3.12027 0
M  V30 28366 O 3863.7 5.04496 3.46627 0
M  V30 28367 C 3861.57 6.19961 3.81809 0
M  V30 28368 N 3860.52 5.71575 2.93223 0
M  V30 28369 C 3860.69 5.77362 1.59168 0
M  V30 28370 N 3859.66 5.3123 0.911893 0
M  V30 28371 C 3858.78 4.91717 1.89588 0
M  V30 28372 C 3857.51 4.3114 1.8076 0
M  V30 28373 N 3856.95 4.06823 3.02898 0
M  V30 28374 C 3857.55 4.35062 4.22711 0
M  V30 28375 N 3858.73 4.90805 4.35707 0
M  V30 28376 C 3859.3 5.16382 3.14469 0
M  V30 28377 H 3862.78 6.21428 2.0318 0
M  V30 28378 H 3864.26 7.86112 2.9231 0
M  V30 28379 H 3862.57 9.11171 4.55987 0
M  V30 28380 H 3862.38 9.9573 2.34194 0
M  V30 28381 H 3860.75 9.2792 2.67832 0
M  V30 28382 H 3861.59 6.16575 1.12198 0
M  V30 28383 H 3863.39 4.67628 4.28704 0
M  V30 28384 P 3865.25 7.39546 4.75277 0
M  V30 28385 O 3866.67 7.81777 5.05738 0
M  V30 28386 O 3864.89 7.1065 3.32998 0
M  V30 28387 O 3864.92 6.04542 5.56673 0
M  V30 28388 C 3864.76 6.22772 7.02095 0
M  V30 28389 C 3865.3 4.97725 7.70406 0
M  V30 28390 O 3864.25 4.13256 7.58987 0
M  V30 28391 C 3866.52 4.28231 7.11815 0
M  V30 28392 O 3867.26 3.49945 8.01648 0
M  V30 28393 C 3865.85 3.5063 5.96244 0
M  V30 28394 O 3866.65 2.36482 5.64681 0
M  V30 28395 C 3864.52 3.15122 6.56374 0
M  V30 28396 H 3864.55 2.13853 6.99751 0
M  V30 28397 H 3865.73 4.13501 5.06559 0
M  V30 28398 H 3867.21 5.03285 6.70911 0
M  V30 28399 H 3865.52 5.20877 8.75697 0
M  V30 28400 H 3865.33 7.11046 7.35349 0
M  V30 28401 H 3863.7 6.35815 7.26986 0
M  V30 28402 H 3866.34 1.61644 6.13565 0
M  V30 28403 P 3868.2 3.65191 7.99657 0
M  V30 28404 O 3869.62 3.8425 8.48115 0
M  V30 28405 O 3867.84 4.17805 6.64342 0
M  V30 28406 O 3867.87 2.07613 7.95143 0
M  V30 28407 C 3867.71 1.44328 9.27336 0
M  V30 28408 C 3868.25 0.0220036 9.17197 0
M  V30 28409 O 3867.2 -0.626867 8.61923 0
M  V30 28410 C 3869.47 -0.24586 8.30336 0
M  V30 28411 O 3870.21 -1.39011 8.63583 0
M  V30 28412 C 3868.8 -0.273849 6.91158 0
M  V30 28413 O 3869.6 -1.06348 6.02892 0
M  V30 28414 C 3867.47 -0.897649 7.22545 0
M  V30 28415 H 3867.5 -1.9841 7.04286 0
M  V30 28416 H 3868.68 0.739928 6.497 0
M  V30 28417 H 3870.17 0.60668 8.36503 0
M  V30 28418 H 3868.47 -0.352479 10.1829 0
M  V30 28419 H 3868.28 2.00611 10.0304 0
M  V30 28420 H 3866.65 1.41843 9.55327 0
M  V30 28421 H 3869.29 -1.95734 6.03555 0
M  V30 28422 P 3871.15 -1.25109 8.70152 0
M  V30 28423 O 3872.57 -1.35274 9.21221 0
M  V30 28424 O 3870.79 -0.0769065 7.84762 0
M  V30 28425 O 3870.82 -2.55232 7.81161 0
M  V30 28426 C 3870.66 -3.79939 8.58154 0
M  V30 28427 C 3871.2 -4.94023 7.72785 0
M  V30 28428 O 3870.15 -5.18726 6.91205 0
M  V30 28429 C 3872.42 -4.69597 6.85231 0
M  V30 28430 O 3873.16 -5.83832 6.51337 0
M  V30 28431 C 3871.75 -3.96706 5.66633 0
M  V30 28432 O 3872.55 -4.15414 4.49689 0
M  V30 28433 C 3870.42 -4.66153 5.59313 0
M  V30 28434 H 3870.45 -5.47679 4.85214 0
M  V30 28435 H 3871.63 -2.89008 5.86566 0
M  V30 28436 H 3873.12 -4.0121 7.36511 0
M  V30 28437 H 3871.42 -5.80182 8.37584 0
M  V30 28438 H 3871.23 -3.73517 9.52265 0
M  V30 28439 H 3869.6 -3.97163 8.80359 0
M  V30 28440 H 3872.24 -4.90969 4.01921 0
M  V30 28441 P 3874.1 -5.75688 6.64379 0
M  V30 28442 O 3875.52 -6.11849 7.01846 0
M  V30 28443 O 3873.74 -4.30744 6.56026 0
M  V30 28444 O 3873.78 -6.37042 5.19165 0
M  V30 28445 C 3873.62 -7.83578 5.16515 0
M  V30 28446 C 3874.16 -8.33398 3.83019 0
M  V30 28447 O 3873.1 -8.10074 3.01034 0
M  V30 28448 C 3875.37 -7.65514 3.2257 0
M  V30 28449 O 3876.11 -8.4329 2.32297 0
M  V30 28450 C 3874.7 -6.40075 2.62207 0
M  V30 28451 O 3875.5 -5.92589 1.53712 0
M  V30 28452 C 3873.37 -6.9454 2.18503 0
M  V30 28453 H 3873.4 -7.23063 1.12091 0
M  V30 28454 H 3874.58 -5.6025 3.37201 0
M  V30 28455 H 3876.07 -7.35707 4.02681 0
M  V30 28456 H 3874.37 -9.40912 3.9095 0
M  V30 28457 H 3874.18 -8.29056 5.99158 0
M  V30 28458 H 3872.55 -8.10073 5.25882 0
M  V30 28459 H 3875.19 -6.30324 0.726794 0
M  V30 28460 P 3877.05 -8.4349 2.47671 0
M  V30 28461 O 3878.47 -8.94167 2.5964 0
M  V30 28462 O 3876.69 -7.1704 3.19006 0
M  V30 28463 O 3876.73 -8.16596 0.923387 0
M  V30 28464 C 3876.57 -9.38437 0.108857 0
M  V30 28465 C 3877.11 -9.08175 -1.28353 0
M  V30 28466 O 3876.05 -8.44229 -1.84713 0
M  V30 28467 C 3878.32 -8.18386 -1.42505 0
M  V30 28468 O 3879.06 -8.3501 -2.60497 0
M  V30 28469 C 3877.65 -6.80225 -1.25468 0
M  V30 28470 O 3878.45 -5.81621 -1.91066 0
M  V30 28471 C 3876.32 -7.02416 -1.9168 0
M  V30 28472 H 3876.35 -6.6888 -2.96621 0
M  V30 28473 H 3877.53 -6.53617 -0.192223 0
M  V30 28474 H 3879.02 -8.36622 -0.589963 0
M  V30 28475 H 3877.32 -10.0291 -1.79807 0
M  V30 28476 H 3877.13 -10.2138 0.558219 0
M  V30 28477 H 3875.5 -9.6579 0.0444202 0
M  V30 28478 H 3878.14 -5.69556 -2.79637 0
M  V30 28479 P 3880 -8.4349 -2.47671 0
M  V30 28480 O 3881.42 -8.92593 -2.65 0
M  V30 28481 O 3879.64 -7.7568 -1.19296 0
M  V30 28482 O 3879.68 -7.36886 -3.63805 0
M  V30 28483 C 3879.52 -7.95349 -4.982 0
M  V30 28484 C 3880.06 -6.94612 -5.98974 0
M  V30 28485 O 3879 -6.10347 -6.11815 0
M  V30 28486 C 3881.27 -6.11426 -5.62335 0
M  V30 28487 O 3882.01 -5.6162 -6.70584 0
M  V30 28488 C 3880.61 -5.04409 -4.73308 0
M  V30 28489 O 3881.4 -3.85992 -4.75183 0
M  V30 28490 C 3879.27 -4.8728 -5.41006 0
M  V30 28491 H 3879.3 -4.02333 -6.11157 0
M  V30 28492 H 3880.48 -5.39466 -3.69543 0
M  V30 28493 H 3881.97 -6.71916 -5.01943 0
M  V30 28494 H 3880.27 -7.4649 -6.93477 0
M  V30 28495 H 3880.08 -8.89416 -5.05237 0
M  V30 28496 H 3878.45 -8.14876 -5.18409 0
M  V30 28497 H 3881.09 -3.27957 -5.4317 0
M  V30 28498 P 3882.95 -5.75688 -6.64379 0
M  V30 28499 O 3884.37 -6.07627 -7.05504 0
M  V30 28500 O 3882.59 -5.88047 -5.19722 0
M  V30 28501 O 3882.63 -4.2322 -7.04443 0
M  V30 28502 C 3882.47 -3.99743 -8.4911 0
M  V30 28503 C 3883.01 -2.60516 -8.79425 0
M  V30 28504 O 3881.95 -1.82684 -8.4467 0
M  V30 28505 C 3884.23 -2.10343 -8.03628 0
M  V30 28506 O 3884.96 -1.09919 -8.67766 0
M  V30 28507 C 3883.56 -1.68446 -6.70876 0
M  V30 28508 O 3884.36 -0.678137 -6.08433 0
M  V30 28509 C 3882.22 -1.17436 -7.18567 0
M  V30 28510 H 3882.25 -0.0804732 -7.31656 0
M  V30 28511 H 3883.43 -2.54037 -6.02537 0
M  V30 28512 H 3884.92 -2.93881 -7.85526 0
M  V30 28513 H 3883.22 -2.53065 -9.86973 0
M  V30 28514 H 3883.03 -4.75072 -9.05887 0
M  V30 28515 H 3881.4 -4.05244 -8.76668 0
M  V30 28516 H 3884.04 0.177647 -6.34251 0
M  V30 28517 P 3885.9 -1.25109 -8.70152 0
M  V30 28518 O 3887.32 -1.29744 -9.22016 0
M  V30 28519 O 3885.54 -2.13714 -7.55141 0
M  V30 28520 O 3885.58 0.248149 -8.21425 0
M  V30 28521 C 3885.42 1.22779 -9.30434 0
M  V30 28522 C 3885.96 2.56293 -8.80664 0
M  V30 28523 O 3884.9 3.02979 -8.09349 0
M  V30 28524 C 3887.18 2.57523 -7.89775 0
M  V30 28525 O 3887.91 3.7668 -7.89438 0
M  V30 28526 C 3886.51 2.20997 -6.55446 0
M  V30 28527 O 3887.31 2.71895 -5.48509 0
M  V30 28528 C 3885.17 2.89693 -6.67988 0
M  V30 28529 H 3885.2 3.88793 -6.19859 0
M  V30 28530 H 3886.38 1.12046 -6.44229 0
M  V30 28531 H 3887.87 1.7746 -8.19711 0
M  V30 28532 H 3886.17 3.20706 -9.67112 0
M  V30 28533 H 3885.98 0.901032 -10.1892 0
M  V30 28534 H 3884.35 1.33049 -9.56592 0
M  V30 28535 H 3886.99 3.57847 -5.23962 0
M  V30 28536 P 3888.85 3.65191 -7.99657 0
M  V30 28537 O 3890.27 3.89332 -8.45794 0
M  V30 28538 O 3888.49 2.28472 -7.50807 0
M  V30 28539 O 3888.53 4.64972 -6.77611 0
M  V30 28540 C 3888.37 6.06319 -7.16352 0
M  V30 28541 C 3888.91 6.91731 -6.02299 0
M  V30 28542 O 3887.85 6.92449 -5.17064 0
M  V30 28543 C 3890.13 6.43627 -5.25174 0
M  V30 28544 O 3890.86 7.43686 -4.60469 0
M  V30 28545 C 3889.46 5.40275 -4.31916 0
M  V30 28546 O 3890.26 5.25279 -3.14438 0
M  V30 28547 C 3888.12 6.04847 -4.05327 0
M  V30 28548 H 3888.15 6.62195 -3.11261 0
M  V30 28549 H 3889.34 4.42556 -4.81383 0
M  V30 28550 H 3890.82 5.92458 -5.93643 0
M  V30 28551 H 3889.13 7.92655 -6.402 0
M  V30 28552 H 3888.94 6.26671 -8.0846 0
M  V30 28553 H 3887.31 6.29101 -7.32804 0
M  V30 28554 H 3889.94 5.84315 -2.47318 0
M  V30 28555 P 3891.8 7.39546 -4.75277 0
M  V30 28556 O 3893.22 7.84798 -5.01039 0
M  V30 28557 O 3891.44 5.9812 -5.08098 0
M  V30 28558 O 3891.48 7.57503 -3.1866 0
M  V30 28559 C 3891.32 8.97357 -2.74833 0
M  V30 28560 C 3891.86 9.07548 -1.32709 0
M  V30 28561 O 3890.8 8.62072 -0.606159 0
M  V30 28562 C 3893.08 8.25383 -0.938334 0
M  V30 28563 O 3893.81 8.74577 0.146954 0
M  V30 28564 C 3892.41 6.8802 -0.712559 0
M  V30 28565 O 3893.21 6.1189 0.194655 0
M  V30 28566 C 3891.07 7.27966 -0.139777 0
M  V30 28567 H 3891.1 7.25354 0.961601 0
M  V30 28568 H 3892.29 6.32557 -1.65702 0
M  V30 28569 H 3893.77 8.19355 -1.79097 0
M  V30 28570 H 3892.08 10.1294 -1.10029 0
M  V30 28571 H 3891.89 9.64276 -3.41316 0
M  V30 28572 H 3890.26 9.25417 -2.76357 0
M  V30 28573 H 3892.89 6.25267 1.07847 0
M  V30 28574 P 3894.75 8.791 -1.76656e-10 0
M  V30 28575 O 3896.17 9.31096 0.027933 0
M  V30 28576 O 3894.39 7.77869 -1.04071 0
M  V30 28577 O 3894.43 8.09533 1.41463 0
M  V30 28578 C 3894.27 9.0349 2.53943 0
M  V30 28579 C 3894.81 8.35226 3.79016 0
M  V30 28580 O 3893.75 7.57992 4.15078 0
M  V30 28581 C 3896.03 7.45087 3.67298 0
M  V30 28582 O 3896.77 7.27796 4.85194 0
M  V30 28583 C 3895.36 6.17323 3.12027 0
M  V30 28584 O 3896.16 5.04231 3.47188 0
M  V30 28585 C 3894.02 6.19961 3.81809 0
M  V30 28586 H 3894.05 5.58218 4.73051 0
M  V30 28587 H 3895.24 6.21726 2.02589 0
M  V30 28588 H 3896.72 7.86112 2.9231 0
M  V30 28589 H 3895.03 9.11627 4.55076 0
M  V30 28590 H 3894.84 9.9573 2.34194 0
M  V30 28591 H 3893.21 9.2792 2.67832 0
M  V30 28592 H 3895.85 4.67702 4.28772 0
M  V30 28593 P 3897.7 7.39546 4.75277 0
M  V30 28594 O 3899.1 7.89013 5.04841 0
M  V30 28595 O 3897.32 7.16603 3.32298 0
M  V30 28596 O 3897.38 6.04468 5.56605 0
M  V30 28597 C 3897.22 6.22772 7.02095 0
M  V30 28598 C 3897.76 4.97671 7.70322 0
M  V30 28599 O 3896.7 4.13208 7.58899 0
M  V30 28600 C 3898.98 4.28231 7.11815 0
M  V30 28601 O 3899.72 3.49945 8.01648 0
M  V30 28602 C 3898.31 3.5063 5.96244 0
M  V30 28603 O 3899.11 2.36443 5.64589 0
M  V30 28604 C 3896.97 3.15122 6.56374 0
M  V30 28605 N 3895.93 3.22311 5.55692 0
M  V30 28606 C 3894.89 2.32244 5.62437 0
M  V30 28607 O 3894.93 1.43107 6.50341 0
M  V30 28608 N 3893.88 2.40811 4.73368 0
M  V30 28609 C 3893.93 3.344 3.77753 0
M  V30 28610 C 3895.03 4.24712 3.66679 0
M  V30 28611 C 3895.99 4.15625 4.58307 0
M  V30 28612 H 3897 2.13823 6.99656 0
M  V30 28613 H 3898.19 4.12931 5.06895 0
M  V30 28614 H 3899.67 5.02674 6.71494 0
M  V30 28615 H 3897.98 5.20001 8.76217 0
M  V30 28616 H 3897.79 7.11046 7.35349 0
M  V30 28617 H 3896.16 6.35749 7.26911 0
M  V30 28618 H 3895.07 4.9828 2.86753 0
M  V30 28619 H 3896.84 4.84464 4.54228 0
M  V30 28620 H 3898.89 1.65592 6.23485 0
M  V30 28621 P 3900.65 3.65191 7.99657 0
M  V30 28622 O 3902.07 3.84292 8.48206 0
M  V30 28623 O 3900.29 4.17805 6.64342 0
M  V30 28624 O 3900.33 2.07613 7.95143 0
M  V30 28625 C 3900.17 1.44344 9.27435 0
M  V30 28626 C 3900.71 0.0220036 9.17197 0
M  V30 28627 O 3899.66 -0.626794 8.61824 0
M  V30 28628 C 3901.93 -0.24586 8.30336 0
M  V30 28629 O 3902.67 -1.39011 8.63583 0
M  V30 28630 C 3901.26 -0.273849 6.91158 0
M  V30 28631 O 3902.06 -1.05728 6.029 0
M  V30 28632 C 3899.92 -0.897649 7.22545 0
M  V30 28633 N 3898.88 -0.292839 6.41732 0
M  V30 28634 C 3899.05 0.950603 5.91308 0
M  V30 28635 N 3898.02 1.37732 5.21105 0
M  V30 28636 C 3897.14 0.318109 5.26039 0
M  V30 28637 C 3895.87 0.146766 4.6727 0
M  V30 28638 N 3895.27 1.08519 3.89983 0
M  V30 28639 N 3895.3 -1.06525 4.95887 0
M  V30 28640 C 3895.91 -2.0378 5.71347 0
M  V30 28641 N 3897.08 -1.92445 6.27451 0
M  V30 28642 C 3897.66 -0.715382 6.00353 0
M  V30 28643 H 3899.95 -1.98383 7.04189 0
M  V30 28644 H 3901.14 0.733318 6.49674 0
M  V30 28645 H 3902.62 0.60668 8.36503 0
M  V30 28646 H 3900.93 -0.362662 10.1825 0
M  V30 28647 H 3900.74 2.00611 10.0304 0
M  V30 28648 H 3899.11 1.41843 9.55327 0
M  V30 28649 H 3895.37 -2.97041 5.85344 0
M  V30 28650 H 3899.95 1.54076 6.07465 0
M  V30 28651 H 3894.34 0.901517 3.49562 0
M  V30 28652 H 3895.74 1.97957 3.71669 0
M  V30 28653 H 3901.75 -1.95704 6.0346 0
M  V30 28654 P 3903.6 -1.25109 8.70152 0
M  V30 28655 O 3905.03 -1.35274 9.21221 0
M  V30 28656 O 3903.24 -0.0769065 7.84762 0
M  V30 28657 O 3903.28 -2.55232 7.81161 0
M  V30 28658 C 3903.12 -3.79939 8.58154 0
M  V30 28659 C 3903.66 -4.94023 7.72785 0
M  V30 28660 O 3902.61 -5.18726 6.91205 0
M  V30 28661 C 3904.88 -4.69597 6.85231 0
M  V30 28662 O 3905.62 -5.83832 6.51337 0
M  V30 28663 C 3904.21 -3.96706 5.66633 0
M  V30 28664 O 3905.01 -4.15414 4.49689 0
M  V30 28665 C 3902.87 -4.66153 5.59313 0
M  V30 28666 H 3902.91 -5.47679 4.85214 0
M  V30 28667 H 3904.09 -2.89008 5.86566 0
M  V30 28668 H 3905.57 -4.0121 7.36511 0
M  V30 28669 H 3903.88 -5.80182 8.37584 0
M  V30 28670 H 3903.69 -3.73517 9.52265 0
M  V30 28671 H 3902.06 -3.97163 8.80359 0
M  V30 28672 H 3904.7 -4.90969 4.01921 0
M  V30 28673 P 3906.55 -5.75688 6.64379 0
M  V30 28674 O 3907.98 -6.11915 7.01921 0
M  V30 28675 O 3906.19 -4.30744 6.56026 0
M  V30 28676 O 3906.23 -6.37042 5.19165 0
M  V30 28677 C 3906.07 -7.83662 5.1657 0
M  V30 28678 C 3906.61 -8.33398 3.83019 0
M  V30 28679 O 3905.56 -8.0998 3.00999 0
M  V30 28680 C 3907.83 -7.65514 3.2257 0
M  V30 28681 O 3908.57 -8.4329 2.32297 0
M  V30 28682 C 3907.16 -6.40075 2.62207 0
M  V30 28683 O 3907.96 -5.92338 1.5428 0
M  V30 28684 C 3905.82 -6.9454 2.18503 0
M  V30 28685 N 3904.78 -5.95905 2.39948 0
M  V30 28686 C 3904.95 -4.98383 3.32108 0
M  V30 28687 N 3903.92 -4.16798 3.41761 0
M  V30 28688 C 3903.04 -4.65287 2.47461 0
M  V30 28689 C 3901.77 -4.18946 2.07461 0
M  V30 28690 N 3901.17 -3.09661 2.60717 0
M  V30 28691 N 3901.21 -4.95327 1.09101 0
M  V30 28692 C 3901.81 -6.04369 0.519812 0
M  V30 28693 N 3902.98 -6.50694 0.855982 0
M  V30 28694 C 3903.56 -5.75818 1.84322 0
M  V30 28695 H 3905.86 -7.22964 1.12076 0
M  V30 28696 H 3907.04 -5.60502 3.36589 0
M  V30 28697 H 3908.52 -7.35707 4.02681 0
M  V30 28698 H 3906.83 -9.41302 3.90009 0
M  V30 28699 H 3906.64 -8.29056 5.99158 0
M  V30 28700 H 3905.01 -8.10073 5.25882 0
M  V30 28701 H 3901.27 -6.55843 -0.270373 0
M  V30 28702 H 3905.85 -4.88564 3.92502 0
M  V30 28703 H 3900.24 -2.80523 2.27218 0
M  V30 28704 H 3901.65 -2.55848 3.34465 0
M  V30 28705 H 3907.65 -6.30224 0.72668 0
M  V30 28706 P 3909.51 -8.4349 2.47671 0
M  V30 28707 O 3910.93 -8.94167 2.5964 0
M  V30 28708 O 3909.15 -7.1704 3.19006 0
M  V30 28709 O 3909.18 -8.16596 0.923387 0
M  V30 28710 C 3909.02 -9.38437 0.108857 0
M  V30 28711 C 3909.56 -9.08175 -1.28353 0
M  V30 28712 O 3908.51 -8.44229 -1.84713 0
M  V30 28713 C 3910.78 -8.18386 -1.42505 0
M  V30 28714 O 3911.52 -8.3501 -2.60497 0
M  V30 28715 C 3910.11 -6.80225 -1.25468 0
M  V30 28716 O 3910.91 -5.81621 -1.91066 0
M  V30 28717 C 3908.77 -7.02416 -1.9168 0
M  V30 28718 H 3908.81 -6.6888 -2.96621 0
M  V30 28719 H 3909.99 -6.53617 -0.192223 0
M  V30 28720 H 3911.47 -8.36622 -0.589963 0
M  V30 28721 H 3909.78 -10.0291 -1.79807 0
M  V30 28722 H 3909.59 -10.2138 0.558219 0
M  V30 28723 H 3907.96 -9.6579 0.0444202 0
M  V30 28724 H 3910.6 -5.69556 -2.79637 0
M  V30 28725 P 3912.46 -8.4349 -2.47671 0
M  V30 28726 O 3913.88 -8.92593 -2.65 0
M  V30 28727 O 3912.1 -7.7568 -1.19296 0
M  V30 28728 O 3912.13 -7.36886 -3.63805 0
M  V30 28729 C 3911.97 -7.95349 -4.982 0
M  V30 28730 C 3912.51 -6.94612 -5.98974 0
M  V30 28731 O 3911.46 -6.10347 -6.11815 0
M  V30 28732 C 3913.73 -6.11426 -5.62335 0
M  V30 28733 O 3914.47 -5.6162 -6.70584 0
M  V30 28734 C 3913.06 -5.04409 -4.73308 0
M  V30 28735 O 3913.86 -3.85992 -4.75183 0
M  V30 28736 C 3911.72 -4.8728 -5.41006 0
M  V30 28737 H 3911.76 -4.02333 -6.11157 0
M  V30 28738 H 3912.94 -5.39466 -3.69543 0
M  V30 28739 H 3914.42 -6.71916 -5.01943 0
M  V30 28740 H 3912.73 -7.4649 -6.93477 0
M  V30 28741 H 3912.54 -8.89416 -5.05237 0
M  V30 28742 H 3910.91 -8.14876 -5.18409 0
M  V30 28743 H 3913.55 -3.27957 -5.4317 0
M  V30 28744 P 3915.41 -5.75688 -6.64379 0
M  V30 28745 O 3916.83 -6.07627 -7.05504 0
M  V30 28746 O 3915.05 -5.88047 -5.19722 0
M  V30 28747 O 3915.08 -4.2322 -7.04443 0
M  V30 28748 C 3914.92 -3.99743 -8.4911 0
M  V30 28749 C 3915.46 -2.60516 -8.79425 0
M  V30 28750 O 3914.41 -1.82684 -8.4467 0
M  V30 28751 C 3916.68 -2.10343 -8.03628 0
M  V30 28752 O 3917.42 -1.09919 -8.67766 0
M  V30 28753 C 3916.01 -1.68446 -6.70876 0
M  V30 28754 O 3916.81 -0.678137 -6.08433 0
M  V30 28755 C 3914.68 -1.17436 -7.18567 0
M  V30 28756 H 3914.71 -0.0804732 -7.31656 0
M  V30 28757 H 3915.89 -2.54037 -6.02537 0
M  V30 28758 H 3917.37 -2.93881 -7.85526 0
M  V30 28759 H 3915.68 -2.53065 -9.86973 0
M  V30 28760 H 3915.49 -4.75072 -9.05887 0
M  V30 28761 H 3913.86 -4.05244 -8.76668 0
M  V30 28762 H 3916.5 0.177647 -6.34251 0
M  V30 28763 P 3918.36 -1.25109 -8.70152 0
M  V30 28764 O 3919.78 -1.29744 -9.22016 0
M  V30 28765 O 3918 -2.13714 -7.55141 0
M  V30 28766 O 3918.03 0.248149 -8.21425 0
M  V30 28767 C 3917.87 1.22779 -9.30434 0
M  V30 28768 C 3918.41 2.56293 -8.80664 0
M  V30 28769 O 3917.36 3.02979 -8.09349 0
M  V30 28770 C 3919.63 2.57523 -7.89775 0
M  V30 28771 O 3920.37 3.7668 -7.89438 0
M  V30 28772 C 3918.96 2.20997 -6.55446 0
M  V30 28773 O 3919.76 2.71895 -5.48509 0
M  V30 28774 C 3917.63 2.89693 -6.67988 0
M  V30 28775 H 3917.66 3.88793 -6.19859 0
M  V30 28776 H 3918.84 1.12046 -6.44229 0
M  V30 28777 H 3920.32 1.7746 -8.19711 0
M  V30 28778 H 3918.63 3.20706 -9.67112 0
M  V30 28779 H 3918.44 0.901032 -10.1892 0
M  V30 28780 H 3916.81 1.33049 -9.56592 0
M  V30 28781 H 3919.45 3.57847 -5.23962 0
M  V30 28782 P 3921.31 3.65191 -7.99657 0
M  V30 28783 O 3922.73 3.89332 -8.45794 0
M  V30 28784 O 3920.95 2.28472 -7.50807 0
M  V30 28785 O 3920.98 4.64972 -6.77611 0
M  V30 28786 C 3920.82 6.06319 -7.16352 0
M  V30 28787 C 3921.36 6.91731 -6.02299 0
M  V30 28788 O 3920.31 6.92449 -5.17064 0
M  V30 28789 C 3922.58 6.43627 -5.25174 0
M  V30 28790 O 3923.32 7.43686 -4.60469 0
M  V30 28791 C 3921.91 5.40275 -4.31916 0
M  V30 28792 O 3922.71 5.25279 -3.14438 0
M  V30 28793 C 3920.58 6.04847 -4.05327 0
M  V30 28794 H 3920.61 6.62195 -3.11261 0
M  V30 28795 H 3921.79 4.42556 -4.81383 0
M  V30 28796 H 3923.28 5.92458 -5.93643 0
M  V30 28797 H 3921.58 7.92655 -6.402 0
M  V30 28798 H 3921.39 6.26671 -8.0846 0
M  V30 28799 H 3919.76 6.29101 -7.32804 0
M  V30 28800 H 3922.4 5.84315 -2.47318 0
M  V30 28801 P 3924.26 7.39546 -4.75277 0
M  V30 28802 O 3925.68 7.84798 -5.01039 0
M  V30 28803 O 3923.9 5.9812 -5.08098 0
M  V30 28804 O 3923.94 7.57503 -3.1866 0
M  V30 28805 C 3923.78 8.97357 -2.74833 0
M  V30 28806 C 3924.32 9.07548 -1.32709 0
M  V30 28807 O 3923.26 8.62072 -0.606159 0
M  V30 28808 C 3925.53 8.25383 -0.938334 0
M  V30 28809 O 3926.27 8.74577 0.146954 0
M  V30 28810 C 3924.86 6.8802 -0.712559 0
M  V30 28811 O 3925.66 6.1189 0.194655 0
M  V30 28812 C 3923.53 7.27966 -0.139777 0
M  V30 28813 H 3923.56 7.25354 0.961601 0
M  V30 28814 H 3924.74 6.32557 -1.65702 0
M  V30 28815 H 3926.23 8.19355 -1.79097 0
M  V30 28816 H 3924.53 10.1294 -1.10029 0
M  V30 28817 H 3924.34 9.64276 -3.41316 0
M  V30 28818 H 3922.71 9.25417 -2.76357 0
M  V30 28819 H 3925.35 6.25267 1.07847 0
M  V30 28820 P 3927.21 8.791 -1.81843e-10 0
M  V30 28821 O 3928.63 9.31196 0.027936 0
M  V30 28822 O 3926.85 7.77869 -1.04071 0
M  V30 28823 O 3926.89 8.09533 1.41463 0
M  V30 28824 C 3926.72 9.03587 2.5397 0
M  V30 28825 C 3927.27 8.35226 3.79016 0
M  V30 28826 O 3926.21 7.57904 4.1503 0
M  V30 28827 C 3928.48 7.45087 3.67298 0
M  V30 28828 O 3929.22 7.27796 4.85194 0
M  V30 28829 C 3927.82 6.17323 3.12027 0
M  V30 28830 O 3928.61 5.04496 3.46627 0
M  V30 28831 C 3926.48 6.19961 3.81809 0
M  V30 28832 N 3925.43 5.71575 2.93223 0
M  V30 28833 C 3925.6 5.77362 1.59168 0
M  V30 28834 N 3924.58 5.3123 0.911893 0
M  V30 28835 C 3923.69 4.91717 1.89588 0
M  V30 28836 C 3922.42 4.3114 1.8076 0
M  V30 28837 N 3921.86 4.06823 3.02898 0
M  V30 28838 C 3922.46 4.35062 4.22711 0
M  V30 28839 N 3923.64 4.90805 4.35707 0
M  V30 28840 C 3924.21 5.16382 3.14469 0
M  V30 28841 H 3927.69 6.21428 2.0318 0
M  V30 28842 H 3929.18 7.86112 2.9231 0
M  V30 28843 H 3927.48 9.11171 4.55987 0
M  V30 28844 H 3927.29 9.9573 2.34194 0
M  V30 28845 H 3925.66 9.2792 2.67832 0
M  V30 28846 H 3926.5 6.16575 1.12198 0
M  V30 28847 H 3928.3 4.67628 4.28704 0
M  V30 28848 P 3930.16 7.39546 4.75277 0
M  V30 28849 O 3931.58 7.81777 5.05738 0
M  V30 28850 O 3929.8 7.1065 3.32998 0
M  V30 28851 O 3929.84 6.04542 5.56673 0
M  V30 28852 C 3929.68 6.22772 7.02095 0
M  V30 28853 C 3930.22 4.97725 7.70406 0
M  V30 28854 O 3929.16 4.13256 7.58987 0
M  V30 28855 C 3931.43 4.28231 7.11815 0
M  V30 28856 O 3932.17 3.49945 8.01648 0
M  V30 28857 C 3930.77 3.5063 5.96244 0
M  V30 28858 O 3931.56 2.36482 5.64681 0
M  V30 28859 C 3929.43 3.15122 6.56374 0
M  V30 28860 H 3929.46 2.13853 6.99751 0
M  V30 28861 H 3930.64 4.13501 5.06559 0
M  V30 28862 H 3932.13 5.03285 6.70911 0
M  V30 28863 H 3930.43 5.20877 8.75697 0
M  V30 28864 H 3930.24 7.11046 7.35349 0
M  V30 28865 H 3928.61 6.35815 7.26986 0
M  V30 28866 H 3931.25 1.61644 6.13565 0
M  V30 28867 P 3933.11 3.65191 7.99657 0
M  V30 28868 O 3934.53 3.8425 8.48115 0
M  V30 28869 O 3932.75 4.17805 6.64342 0
M  V30 28870 O 3932.79 2.07613 7.95143 0
M  V30 28871 C 3932.63 1.44328 9.27336 0
M  V30 28872 C 3933.17 0.0220036 9.17197 0
M  V30 28873 O 3932.11 -0.626867 8.61923 0
M  V30 28874 C 3934.38 -0.24586 8.30336 0
M  V30 28875 O 3935.12 -1.39011 8.63583 0
M  V30 28876 C 3933.72 -0.273849 6.91158 0
M  V30 28877 O 3934.51 -1.06348 6.02892 0
M  V30 28878 C 3932.38 -0.897649 7.22545 0
M  V30 28879 H 3932.41 -1.9841 7.04286 0
M  V30 28880 H 3933.59 0.739928 6.497 0
M  V30 28881 H 3935.08 0.60668 8.36503 0
M  V30 28882 H 3933.38 -0.352479 10.1829 0
M  V30 28883 H 3933.19 2.00611 10.0304 0
M  V30 28884 H 3931.56 1.41843 9.55327 0
M  V30 28885 H 3934.2 -1.95734 6.03555 0
M  V30 28886 P 3936.06 -1.25109 8.70152 0
M  V30 28887 O 3937.48 -1.35274 9.21221 0
M  V30 28888 O 3935.7 -0.0769065 7.84762 0
M  V30 28889 O 3935.74 -2.55232 7.81161 0
M  V30 28890 C 3935.58 -3.79939 8.58154 0
M  V30 28891 C 3936.12 -4.94023 7.72785 0
M  V30 28892 O 3935.06 -5.18726 6.91205 0
M  V30 28893 C 3937.34 -4.69597 6.85231 0
M  V30 28894 O 3938.07 -5.83832 6.51337 0
M  V30 28895 C 3936.67 -3.96706 5.66633 0
M  V30 28896 O 3937.47 -4.15414 4.49689 0
M  V30 28897 C 3935.33 -4.66153 5.59313 0
M  V30 28898 H 3935.36 -5.47679 4.85214 0
M  V30 28899 H 3936.54 -2.89008 5.86566 0
M  V30 28900 H 3938.03 -4.0121 7.36511 0
M  V30 28901 H 3936.33 -5.80182 8.37584 0
M  V30 28902 H 3936.14 -3.73517 9.52265 0
M  V30 28903 H 3934.51 -3.97163 8.80359 0
M  V30 28904 H 3937.15 -4.90969 4.01921 0
M  V30 28905 P 3939.01 -5.75688 6.64379 0
M  V30 28906 O 3940.43 -6.11915 7.01921 0
M  V30 28907 O 3938.65 -4.30744 6.56026 0
M  V30 28908 O 3938.69 -6.37042 5.19165 0
M  V30 28909 C 3938.53 -7.83662 5.1657 0
M  V30 28910 C 3939.07 -8.33398 3.83019 0
M  V30 28911 O 3938.01 -8.0998 3.00999 0
M  V30 28912 C 3940.29 -7.65514 3.2257 0
M  V30 28913 O 3941.02 -8.4329 2.32297 0
M  V30 28914 C 3939.62 -6.40075 2.62207 0
M  V30 28915 O 3940.42 -5.92338 1.5428 0
M  V30 28916 C 3938.28 -6.9454 2.18503 0
M  V30 28917 N 3937.24 -5.95905 2.39948 0
M  V30 28918 C 3937.41 -4.98383 3.32108 0
M  V30 28919 N 3936.38 -4.16798 3.41761 0
M  V30 28920 C 3935.49 -4.65287 2.47461 0
M  V30 28921 C 3934.23 -4.18946 2.07461 0
M  V30 28922 N 3933.63 -3.09661 2.60717 0
M  V30 28923 N 3933.66 -4.95327 1.09101 0
M  V30 28924 C 3934.26 -6.04369 0.519812 0
M  V30 28925 N 3935.44 -6.50694 0.855982 0
M  V30 28926 C 3936.02 -5.75818 1.84322 0
M  V30 28927 H 3938.31 -7.22964 1.12076 0
M  V30 28928 H 3939.49 -5.60502 3.36589 0
M  V30 28929 H 3940.98 -7.35707 4.02681 0
M  V30 28930 H 3939.28 -9.41302 3.90009 0
M  V30 28931 H 3939.09 -8.29056 5.99158 0
M  V30 28932 H 3937.46 -8.10073 5.25882 0
M  V30 28933 H 3933.73 -6.55843 -0.270373 0
M  V30 28934 H 3938.31 -4.88564 3.92502 0
M  V30 28935 H 3932.7 -2.80523 2.27218 0
M  V30 28936 H 3934.1 -2.55848 3.34465 0
M  V30 28937 H 3940.1 -6.30224 0.72668 0
M  V30 28938 P 3941.96 -8.4349 2.47671 0
M  V30 28939 O 3943.38 -8.94167 2.5964 0
M  V30 28940 O 3941.6 -7.1704 3.19006 0
M  V30 28941 O 3941.64 -8.16596 0.923387 0
M  V30 28942 C 3941.48 -9.38437 0.108857 0
M  V30 28943 C 3942.02 -9.08175 -1.28353 0
M  V30 28944 O 3940.96 -8.44229 -1.84713 0
M  V30 28945 C 3943.24 -8.18386 -1.42505 0
M  V30 28946 O 3943.97 -8.3501 -2.60497 0
M  V30 28947 C 3942.57 -6.80225 -1.25468 0
M  V30 28948 O 3943.37 -5.81621 -1.91066 0
M  V30 28949 C 3941.23 -7.02416 -1.9168 0
M  V30 28950 H 3941.26 -6.6888 -2.96621 0
M  V30 28951 H 3942.45 -6.53617 -0.192223 0
M  V30 28952 H 3943.93 -8.36622 -0.589963 0
M  V30 28953 H 3942.24 -10.0291 -1.79807 0
M  V30 28954 H 3942.05 -10.2138 0.558219 0
M  V30 28955 H 3940.42 -9.6579 0.0444202 0
M  V30 28956 H 3943.05 -5.69556 -2.79637 0
M  V30 28957 P 3944.91 -8.4349 -2.47671 0
M  V30 28958 O 3946.33 -8.92593 -2.65 0
M  V30 28959 O 3944.55 -7.7568 -1.19296 0
M  V30 28960 O 3944.59 -7.36886 -3.63805 0
M  V30 28961 C 3944.43 -7.95349 -4.982 0
M  V30 28962 C 3944.97 -6.94612 -5.98974 0
M  V30 28963 O 3943.91 -6.10347 -6.11815 0
M  V30 28964 C 3946.19 -6.11426 -5.62335 0
M  V30 28965 O 3946.93 -5.6162 -6.70584 0
M  V30 28966 C 3945.52 -5.04409 -4.73308 0
M  V30 28967 O 3946.32 -3.85992 -4.75183 0
M  V30 28968 C 3944.18 -4.8728 -5.41006 0
M  V30 28969 H 3944.21 -4.02333 -6.11157 0
M  V30 28970 H 3945.4 -5.39466 -3.69543 0
M  V30 28971 H 3946.88 -6.71916 -5.01943 0
M  V30 28972 H 3945.19 -7.4649 -6.93477 0
M  V30 28973 H 3945 -8.89416 -5.05237 0
M  V30 28974 H 3943.37 -8.14876 -5.18409 0
M  V30 28975 H 3946.01 -3.27957 -5.4317 0
M  V30 28976 P 3947.86 -5.75688 -6.64379 0
M  V30 28977 O 3949.28 -6.07627 -7.05504 0
M  V30 28978 O 3947.5 -5.88047 -5.19722 0
M  V30 28979 O 3947.54 -4.2322 -7.04443 0
M  V30 28980 C 3947.38 -3.99743 -8.4911 0
M  V30 28981 C 3947.92 -2.60516 -8.79425 0
M  V30 28982 O 3946.86 -1.82684 -8.4467 0
M  V30 28983 C 3949.14 -2.10343 -8.03628 0
M  V30 28984 O 3949.88 -1.09919 -8.67766 0
M  V30 28985 C 3948.47 -1.68446 -6.70876 0
M  V30 28986 O 3949.27 -0.678137 -6.08433 0
M  V30 28987 C 3947.13 -1.17436 -7.18567 0
M  V30 28988 H 3947.16 -0.0804732 -7.31656 0
M  V30 28989 H 3948.35 -2.54037 -6.02537 0
M  V30 28990 H 3949.83 -2.93881 -7.85526 0
M  V30 28991 H 3948.14 -2.53065 -9.86973 0
M  V30 28992 H 3947.95 -4.75072 -9.05887 0
M  V30 28993 H 3946.32 -4.05244 -8.76668 0
M  V30 28994 H 3948.96 0.177647 -6.34251 0
M  V30 28995 P 3950.81 -1.25109 -8.70152 0
M  V30 28996 O 3952.24 -1.29744 -9.22016 0
M  V30 28997 O 3950.45 -2.13714 -7.55141 0
M  V30 28998 O 3950.49 0.248149 -8.21425 0
M  V30 28999 C 3950.33 1.22779 -9.30434 0
M  V30 29000 C 3950.87 2.56293 -8.80664 0
M  V30 29001 O 3949.81 3.02979 -8.09349 0
M  V30 29002 C 3952.09 2.57523 -7.89775 0
M  V30 29003 O 3952.83 3.7668 -7.89438 0
M  V30 29004 C 3951.42 2.20997 -6.55446 0
M  V30 29005 O 3952.22 2.71895 -5.48509 0
M  V30 29006 C 3950.08 2.89693 -6.67988 0
M  V30 29007 H 3950.11 3.88793 -6.19859 0
M  V30 29008 H 3951.3 1.12046 -6.44229 0
M  V30 29009 H 3952.78 1.7746 -8.19711 0
M  V30 29010 H 3951.09 3.20706 -9.67112 0
M  V30 29011 H 3950.9 0.901032 -10.1892 0
M  V30 29012 H 3949.27 1.33049 -9.56592 0
M  V30 29013 H 3951.91 3.57847 -5.23962 0
M  V30 29014 P 3953.76 3.65191 -7.99657 0
M  V30 29015 O 3955.16 3.87414 -8.52829 0
M  V30 29016 O 3953.39 2.26932 -7.566 0
M  V30 29017 O 3953.44 4.64915 -6.77529 0
M  V30 29018 C 3953.28 6.06319 -7.16352 0
M  V30 29019 C 3953.82 6.91655 -6.02234 0
M  V30 29020 O 3952.76 6.92369 -5.17005 0
M  V30 29021 C 3955.04 6.43627 -5.25174 0
M  V30 29022 O 3955.78 7.43686 -4.60469 0
M  V30 29023 C 3954.37 5.40275 -4.31916 0
M  V30 29024 O 3955.17 5.25193 -3.14386 0
M  V30 29025 C 3953.03 6.04847 -4.05327 0
M  V30 29026 N 3951.99 5.04166 -3.98114 0
M  V30 29027 C 3950.95 5.2366 -3.09923 0
M  V30 29028 O 3950.99 6.23355 -2.34204 0
M  V30 29029 N 3949.94 4.34279 -3.05727 0
M  V30 29030 C 3949.99 3.26317 -3.84756 0
M  V30 29031 C 3951.09 3.02504 -4.72573 0
M  V30 29032 C 3952.05 3.94493 -4.76618 0
M  V30 29033 H 3953.06 6.62104 -3.11218 0
M  V30 29034 H 3954.25 4.42969 -4.80867 0
M  V30 29035 H 3955.73 5.93122 -5.93121 0
M  V30 29036 H 3954.04 7.93295 -6.39407 0
M  V30 29037 H 3953.85 6.26671 -8.0846 0
M  V30 29038 H 3952.22 6.29036 -7.32728 0
M  V30 29039 H 3951.13 2.12921 -5.34017 0
M  V30 29040 H 3952.9 3.80658 -5.44176 0
M  V30 29041 H 3954.95 5.93572 -2.52637 0
M  V30 29042 P 3956.71 7.39546 -4.75277 0
M  V30 29043 O 3958.14 7.84798 -5.01039 0
M  V30 29044 O 3956.35 5.9812 -5.08098 0
M  V30 29045 O 3956.39 7.57503 -3.1866 0
M  V30 29046 C 3956.23 8.97357 -2.74833 0
M  V30 29047 C 3956.77 9.07548 -1.32709 0
M  V30 29048 O 3955.72 8.62072 -0.606159 0
M  V30 29049 C 3957.99 8.25383 -0.938334 0
M  V30 29050 O 3958.73 8.74577 0.146954 0
M  V30 29051 C 3957.32 6.8802 -0.712559 0
M  V30 29052 O 3958.12 6.1189 0.194655 0
M  V30 29053 C 3955.98 7.27966 -0.139777 0
M  V30 29054 H 3956.02 7.25354 0.961601 0
M  V30 29055 H 3957.2 6.32557 -1.65702 0
M  V30 29056 H 3958.68 8.19355 -1.79097 0
M  V30 29057 H 3956.99 10.1294 -1.10029 0
M  V30 29058 H 3956.8 9.64276 -3.41316 0
M  V30 29059 H 3955.17 9.25417 -2.76357 0
M  V30 29060 H 3957.81 6.25267 1.07847 0
M  V30 29061 P 3959.66 8.791 -1.87029e-10 0
M  V30 29062 O 3961.09 9.31196 0.027936 0
M  V30 29063 O 3959.3 7.77869 -1.04071 0
M  V30 29064 O 3959.34 8.09533 1.41463 0
M  V30 29065 C 3959.18 9.03587 2.5397 0
M  V30 29066 C 3959.72 8.35226 3.79016 0
M  V30 29067 O 3958.67 7.57904 4.1503 0
M  V30 29068 C 3960.94 7.45087 3.67298 0
M  V30 29069 O 3961.68 7.27796 4.85194 0
M  V30 29070 C 3960.27 6.17323 3.12027 0
M  V30 29071 O 3961.07 5.04496 3.46627 0
M  V30 29072 C 3958.93 6.19961 3.81809 0
M  V30 29073 N 3957.89 5.71575 2.93223 0
M  V30 29074 C 3958.06 5.77362 1.59168 0
M  V30 29075 N 3957.03 5.3123 0.911893 0
M  V30 29076 C 3956.15 4.91717 1.89588 0
M  V30 29077 C 3954.88 4.3114 1.8076 0
M  V30 29078 N 3954.32 4.06823 3.02898 0
M  V30 29079 C 3954.92 4.35062 4.22711 0
M  V30 29080 N 3956.09 4.90805 4.35707 0
M  V30 29081 C 3956.67 5.16382 3.14469 0
M  V30 29082 H 3960.15 6.21428 2.0318 0
M  V30 29083 H 3961.63 7.86112 2.9231 0
M  V30 29084 H 3959.94 9.11171 4.55987 0
M  V30 29085 H 3959.75 9.9573 2.34194 0
M  V30 29086 H 3958.12 9.2792 2.67832 0
M  V30 29087 H 3958.96 6.16575 1.12198 0
M  V30 29088 H 3960.76 4.67628 4.28704 0
M  V30 29089 P 3962.62 7.39546 4.75277 0
M  V30 29090 O 3964.04 7.81861 5.05793 0
M  V30 29091 O 3962.26 7.1065 3.32998 0
M  V30 29092 O 3962.29 6.04542 5.56673 0
M  V30 29093 C 3962.13 6.22839 7.02169 0
M  V30 29094 C 3962.67 4.97725 7.70406 0
M  V30 29095 O 3961.62 4.13208 7.58899 0
M  V30 29096 C 3963.89 4.28231 7.11815 0
M  V30 29097 O 3964.63 3.49945 8.01648 0
M  V30 29098 C 3963.22 3.5063 5.96244 0
M  V30 29099 O 3964.02 2.37008 5.64352 0
M  V30 29100 C 3961.88 3.15122 6.56374 0
M  V30 29101 N 3960.84 3.22311 5.55692 0
M  V30 29102 C 3961.01 3.99655 4.46046 0
M  V30 29103 N 3959.98 3.97599 3.63918 0
M  V30 29104 C 3959.1 3.11159 4.25334 0
M  V30 29105 C 3957.83 2.64972 3.85157 0
M  V30 29106 N 3957.23 3.02132 2.69405 0
M  V30 29107 N 3957.27 1.78482 4.74759 0
M  V30 29108 C 3957.87 1.37463 5.90819 0
M  V30 29109 N 3959.05 1.7733 6.31889 0
M  V30 29110 C 3959.62 2.64393 5.43725 0
M  V30 29111 H 3961.92 2.13823 6.99656 0
M  V30 29112 H 3963.1 4.12931 5.06895 0
M  V30 29113 H 3964.58 5.03285 6.70911 0
M  V30 29114 H 3962.89 5.20001 8.76217 0
M  V30 29115 H 3962.7 7.11046 7.35349 0
M  V30 29116 H 3961.07 6.35815 7.26986 0
M  V30 29117 H 3957.33 0.66574 6.53015 0
M  V30 29118 H 3961.91 4.58037 4.27732 0
M  V30 29119 H 3956.3 2.64828 2.45331 0
M  V30 29120 H 3957.71 3.67472 2.05644 0
M  V30 29121 H 3963.71 1.61619 6.13468 0
M  V30 29122 P 3965.57 3.65191 7.99657 0
M  V30 29123 O 3966.99 3.8425 8.48115 0
M  V30 29124 O 3965.21 4.17805 6.64342 0
M  V30 29125 O 3965.24 2.07613 7.95143 0
M  V30 29126 C 3965.08 1.44328 9.27336 0
M  V30 29127 C 3965.62 0.0220036 9.17197 0
M  V30 29128 O 3964.57 -0.626867 8.61923 0
M  V30 29129 C 3966.84 -0.24586 8.30336 0
M  V30 29130 O 3967.58 -1.39011 8.63583 0
M  V30 29131 C 3966.17 -0.273849 6.91158 0
M  V30 29132 O 3966.97 -1.06348 6.02892 0
M  V30 29133 C 3964.84 -0.897649 7.22545 0
M  V30 29134 H 3964.87 -1.9841 7.04286 0
M  V30 29135 H 3966.05 0.739928 6.497 0
M  V30 29136 H 3967.53 0.60668 8.36503 0
M  V30 29137 H 3965.84 -0.352479 10.1829 0
M  V30 29138 H 3965.65 2.00611 10.0304 0
M  V30 29139 H 3964.02 1.41843 9.55327 0
M  V30 29140 H 3966.66 -1.95734 6.03555 0
M  V30 29141 P 3968.52 -1.25109 8.70152 0
M  V30 29142 O 3969.94 -1.35274 9.21221 0
M  V30 29143 O 3968.16 -0.0769065 7.84762 0
M  V30 29144 O 3968.19 -2.55232 7.81161 0
M  V30 29145 C 3968.03 -3.79939 8.58154 0
M  V30 29146 C 3968.57 -4.94023 7.72785 0
M  V30 29147 O 3967.52 -5.18726 6.91205 0
M  V30 29148 C 3969.79 -4.69597 6.85231 0
M  V30 29149 O 3970.53 -5.83832 6.51337 0
M  V30 29150 C 3969.12 -3.96706 5.66633 0
M  V30 29151 O 3969.92 -4.15414 4.49689 0
M  V30 29152 C 3967.79 -4.66153 5.59313 0
M  V30 29153 H 3967.82 -5.47679 4.85214 0
M  V30 29154 H 3969 -2.89008 5.86566 0
M  V30 29155 H 3970.48 -4.0121 7.36511 0
M  V30 29156 H 3968.79 -5.80182 8.37584 0
M  V30 29157 H 3968.6 -3.73517 9.52265 0
M  V30 29158 H 3966.97 -3.97163 8.80359 0
M  V30 29159 H 3969.61 -4.90969 4.01921 0
M  V30 29160 P 3971.47 -5.75688 6.64379 0
M  V30 29161 O 3972.89 -6.11849 7.01846 0
M  V30 29162 O 3971.11 -4.30744 6.56026 0
M  V30 29163 O 3971.14 -6.37042 5.19165 0
M  V30 29164 C 3970.98 -7.83578 5.16515 0
M  V30 29165 C 3971.52 -8.33398 3.83019 0
M  V30 29166 O 3970.47 -8.10074 3.01034 0
M  V30 29167 C 3972.74 -7.65514 3.2257 0
M  V30 29168 O 3973.48 -8.4329 2.32297 0
M  V30 29169 C 3972.07 -6.40075 2.62207 0
M  V30 29170 O 3972.87 -5.92589 1.53712 0
M  V30 29171 C 3970.74 -6.9454 2.18503 0
M  V30 29172 H 3970.77 -7.23063 1.12091 0
M  V30 29173 H 3971.95 -5.6025 3.37201 0
M  V30 29174 H 3973.44 -7.35707 4.02681 0
M  V30 29175 H 3971.74 -9.40912 3.9095 0
M  V30 29176 H 3971.55 -8.29056 5.99158 0
M  V30 29177 H 3969.92 -8.10073 5.25882 0
M  V30 29178 H 3972.56 -6.30324 0.726794 0
M  V30 29179 P 3974.42 -8.4349 2.47671 0
M  V30 29180 O 3975.84 -8.94167 2.5964 0
M  V30 29181 O 3974.06 -7.1704 3.19006 0
M  V30 29182 O 3974.09 -8.16596 0.923387 0
M  V30 29183 C 3973.93 -9.38437 0.108857 0
M  V30 29184 C 3974.47 -9.08175 -1.28353 0
M  V30 29185 O 3973.42 -8.44229 -1.84713 0
M  V30 29186 C 3975.69 -8.18386 -1.42505 0
M  V30 29187 O 3976.43 -8.3501 -2.60497 0
M  V30 29188 C 3975.02 -6.80225 -1.25468 0
M  V30 29189 O 3975.82 -5.81621 -1.91066 0
M  V30 29190 C 3973.69 -7.02416 -1.9168 0
M  V30 29191 H 3973.72 -6.6888 -2.96621 0
M  V30 29192 H 3974.9 -6.53617 -0.192223 0
M  V30 29193 H 3976.39 -8.36622 -0.589963 0
M  V30 29194 H 3974.69 -10.0291 -1.79807 0
M  V30 29195 H 3974.5 -10.2138 0.558219 0
M  V30 29196 H 3972.87 -9.6579 0.0444202 0
M  V30 29197 H 3975.51 -5.69556 -2.79637 0
M  V30 29198 P 3977.37 -8.4349 -2.47671 0
M  V30 29199 O 3978.79 -8.92593 -2.65 0
M  V30 29200 O 3977.01 -7.7568 -1.19296 0
M  V30 29201 O 3977.05 -7.36886 -3.63805 0
M  V30 29202 C 3976.89 -7.95349 -4.982 0
M  V30 29203 C 3977.43 -6.94612 -5.98974 0
M  V30 29204 O 3976.37 -6.10347 -6.11815 0
M  V30 29205 C 3978.64 -6.11426 -5.62335 0
M  V30 29206 O 3979.38 -5.6162 -6.70584 0
M  V30 29207 C 3977.97 -5.04409 -4.73308 0
M  V30 29208 O 3978.77 -3.85992 -4.75183 0
M  V30 29209 C 3976.64 -4.8728 -5.41006 0
M  V30 29210 H 3976.67 -4.02333 -6.11157 0
M  V30 29211 H 3977.85 -5.39466 -3.69543 0
M  V30 29212 H 3979.34 -6.71916 -5.01943 0
M  V30 29213 H 3977.64 -7.4649 -6.93477 0
M  V30 29214 H 3977.45 -8.89416 -5.05237 0
M  V30 29215 H 3975.82 -8.14876 -5.18409 0
M  V30 29216 H 3978.46 -3.27957 -5.4317 0
M  V30 29217 P 3980.32 -5.75688 -6.64379 0
M  V30 29218 O 3981.74 -6.07627 -7.05504 0
M  V30 29219 O 3979.96 -5.88047 -5.19722 0
M  V30 29220 O 3980 -4.2322 -7.04443 0
M  V30 29221 C 3979.84 -3.99743 -8.4911 0
M  V30 29222 C 3980.38 -2.60516 -8.79425 0
M  V30 29223 O 3979.32 -1.82684 -8.4467 0
M  V30 29224 C 3981.59 -2.10343 -8.03628 0
M  V30 29225 O 3982.33 -1.09919 -8.67766 0
M  V30 29226 C 3980.92 -1.68446 -6.70876 0
M  V30 29227 O 3981.72 -0.678137 -6.08433 0
M  V30 29228 C 3979.59 -1.17436 -7.18567 0
M  V30 29229 H 3979.62 -0.0804732 -7.31656 0
M  V30 29230 H 3980.8 -2.54037 -6.02537 0
M  V30 29231 H 3982.29 -2.93881 -7.85526 0
M  V30 29232 H 3980.59 -2.53065 -9.86973 0
M  V30 29233 H 3980.4 -4.75072 -9.05887 0
M  V30 29234 H 3978.77 -4.05244 -8.76668 0
M  V30 29235 H 3981.41 0.177647 -6.34251 0
M  V30 29236 P 3983.27 -1.25109 -8.70152 0
M  V30 29237 O 3984.67 -1.3516 -9.26897 0
M  V30 29238 O 3982.89 -2.18141 -7.59181 0
M  V30 29239 O 3982.95 0.248118 -8.21325 0
M  V30 29240 C 3982.79 1.22779 -9.30434 0
M  V30 29241 C 3983.33 2.56265 -8.80568 0
M  V30 29242 O 3982.27 3.02944 -8.09255 0
M  V30 29243 C 3984.54 2.57523 -7.89775 0
M  V30 29244 O 3985.28 3.7668 -7.89438 0
M  V30 29245 C 3983.88 2.20997 -6.55446 0
M  V30 29246 O 3984.67 2.71851 -5.48419 0
M  V30 29247 C 3982.54 2.89693 -6.67988 0
M  V30 29248 N 3981.5 2.08895 -6.07487 0
M  V30 29249 C 3980.46 2.72974 -5.43836 0
M  V30 29250 O 3980.5 3.97779 -5.34036 0
M  V30 29251 N 3979.45 2.0005 -4.91983 0
M  V30 29252 C 3979.5 0.66501 -5.00098 0
M  V30 29253 N 3978.49 -0.0305439 -4.4919 0
M  V30 29254 C 3980.59 -0.0100979 -5.61099 0
M  V30 29255 C 3981.56 0.74189 -6.14236 0
M  V30 29256 H 3982.57 3.8874 -6.19774 0
M  V30 29257 H 3983.75 1.12673 -6.44018 0
M  V30 29258 H 3985.24 1.783 -8.19631 0
M  V30 29259 H 3983.54 3.21673 -9.66791 0
M  V30 29260 H 3983.35 0.901032 -10.1892 0
M  V30 29261 H 3981.72 1.33036 -9.56493 0
M  V30 29262 H 3980.64 -1.09591 -5.64358 0
M  V30 29263 H 3982.4 0.260263 -6.6359 0
M  V30 29264 H 3977.7 0.460194 -4.04793 0
M  V30 29265 H 3978.49 -1.05716 -4.53953 0
M  V30 29266 H 3984.46 3.62759 -5.33442 0
M  V30 29267 P 3986.22 3.65191 -7.99657 0
M  V30 29268 O 3987.62 3.87414 -8.52829 0
M  V30 29269 O 3985.84 2.26932 -7.566 0
M  V30 29270 O 3985.9 4.64915 -6.77529 0
M  V30 29271 C 3985.74 6.06319 -7.16352 0
M  V30 29272 C 3986.28 6.91655 -6.02234 0
M  V30 29273 O 3985.22 6.92369 -5.17005 0
M  V30 29274 C 3987.49 6.43627 -5.25174 0
M  V30 29275 O 3988.23 7.43686 -4.60469 0
M  V30 29276 C 3986.83 5.40275 -4.31916 0
M  V30 29277 O 3987.63 5.25193 -3.14386 0
M  V30 29278 C 3985.49 6.04847 -4.05327 0
M  V30 29279 N 3984.45 5.04166 -3.98114 0
M  V30 29280 C 3983.41 5.2366 -3.09923 0
M  V30 29281 O 3983.45 6.23355 -2.34204 0
M  V30 29282 N 3982.4 4.34279 -3.05727 0
M  V30 29283 C 3982.45 3.26317 -3.84756 0
M  V30 29284 N 3981.44 2.40281 -3.79534 0
M  V30 29285 C 3983.54 3.02504 -4.72573 0
M  V30 29286 C 3984.51 3.94493 -4.76618 0
M  V30 29287 H 3985.52 6.62104 -3.11218 0
M  V30 29288 H 3986.7 4.42969 -4.80867 0
M  V30 29289 H 3988.19 5.93122 -5.93121 0
M  V30 29290 H 3986.49 7.93295 -6.39407 0
M  V30 29291 H 3986.3 6.26671 -8.0846 0
M  V30 29292 H 3984.67 6.29036 -7.32728 0
M  V30 29293 H 3983.59 2.12921 -5.34017 0
M  V30 29294 H 3985.36 3.80658 -5.44176 0
M  V30 29295 H 3980.65 2.57561 -3.15653 0
M  V30 29296 H 3981.44 1.56492 -4.39044 0
M  V30 29297 H 3987.41 5.93572 -2.52637 0
M  V30 29298 P 3989.17 7.39546 -4.75277 0
M  V30 29299 O 3990.59 7.84798 -5.01039 0
M  V30 29300 O 3988.81 5.9812 -5.08098 0
M  V30 29301 O 3988.85 7.57503 -3.1866 0
M  V30 29302 C 3988.69 8.97357 -2.74833 0
M  V30 29303 C 3989.23 9.07548 -1.32709 0
M  V30 29304 O 3988.17 8.62072 -0.606159 0
M  V30 29305 C 3990.45 8.25383 -0.938334 0
M  V30 29306 O 3991.18 8.74577 0.146954 0
M  V30 29307 C 3989.78 6.8802 -0.712559 0
M  V30 29308 O 3990.58 6.1189 0.194655 0
M  V30 29309 C 3988.44 7.27966 -0.139777 0
M  V30 29310 H 3988.47 7.25354 0.961601 0
M  V30 29311 H 3989.65 6.32557 -1.65702 0
M  V30 29312 H 3991.14 8.19355 -1.79097 0
M  V30 29313 H 3989.44 10.1294 -1.10029 0
M  V30 29314 H 3989.25 9.64276 -3.41316 0
M  V30 29315 H 3987.62 9.25417 -2.76357 0
M  V30 29316 H 3990.26 6.25267 1.07847 0
M  V30 29317 P 3992.12 8.791 -1.92216e-10 0
M  V30 29318 O 3993.54 9.31196 0.027936 0
M  V30 29319 O 3991.76 7.77869 -1.04071 0
M  V30 29320 O 3991.8 8.09533 1.41463 0
M  V30 29321 C 3991.64 9.03587 2.5397 0
M  V30 29322 C 3992.18 8.35226 3.79016 0
M  V30 29323 O 3991.12 7.57904 4.1503 0
M  V30 29324 C 3993.4 7.45087 3.67298 0
M  V30 29325 O 3994.13 7.27796 4.85194 0
M  V30 29326 C 3992.73 6.17323 3.12027 0
M  V30 29327 O 3993.53 5.04496 3.46627 0
M  V30 29328 C 3991.39 6.19961 3.81809 0
M  V30 29329 N 3990.35 5.71575 2.93223 0
M  V30 29330 C 3990.52 5.77362 1.59168 0
M  V30 29331 N 3989.49 5.3123 0.911893 0
M  V30 29332 C 3988.6 4.91717 1.89588 0
M  V30 29333 C 3987.34 4.3114 1.8076 0
M  V30 29334 N 3986.77 4.06823 3.02898 0
M  V30 29335 C 3987.37 4.35062 4.22711 0
M  V30 29336 N 3988.55 4.90805 4.35707 0
M  V30 29337 C 3989.13 5.16382 3.14469 0
M  V30 29338 H 3992.61 6.21428 2.0318 0
M  V30 29339 H 3994.09 7.86112 2.9231 0
M  V30 29340 H 3992.39 9.11171 4.55987 0
M  V30 29341 H 3992.2 9.9573 2.34194 0
M  V30 29342 H 3990.57 9.2792 2.67832 0
M  V30 29343 H 3991.42 6.16575 1.12198 0
M  V30 29344 H 3993.21 4.67628 4.28704 0
M  V30 29345 P 3995.07 7.39546 4.75277 0
M  V30 29346 O 3996.49 7.81777 5.05738 0
M  V30 29347 O 3994.71 7.1065 3.32998 0
M  V30 29348 O 3994.75 6.04542 5.56673 0
M  V30 29349 C 3994.59 6.22772 7.02095 0
M  V30 29350 C 3995.13 4.97725 7.70406 0
M  V30 29351 O 3994.07 4.13256 7.58987 0
M  V30 29352 C 3996.35 4.28231 7.11815 0
M  V30 29353 O 3997.08 3.49945 8.01648 0
M  V30 29354 C 3995.68 3.5063 5.96244 0
M  V30 29355 O 3996.48 2.36482 5.64681 0
M  V30 29356 C 3994.34 3.15122 6.56374 0
M  V30 29357 H 3994.37 2.13853 6.99751 0
M  V30 29358 H 3995.56 4.13501 5.06559 0
M  V30 29359 H 3997.04 5.03285 6.70911 0
M  V30 29360 H 3995.35 5.20877 8.75697 0
M  V30 29361 H 3995.16 7.11046 7.35349 0
M  V30 29362 H 3993.53 6.35815 7.26986 0
M  V30 29363 H 3996.16 1.61644 6.13565 0
M  V30 29364 P 3998.02 3.65191 7.99657 0
M  V30 29365 O 3999.44 3.8425 8.48115 0
M  V30 29366 O 3997.66 4.17805 6.64342 0
M  V30 29367 O 3997.7 2.07613 7.95143 0
M  V30 29368 C 3997.54 1.44328 9.27336 0
M  V30 29369 C 3998.08 0.0220036 9.17197 0
M  V30 29370 O 3997.02 -0.626867 8.61923 0
M  V30 29371 C 3999.3 -0.24586 8.30336 0
M  V30 29372 O 4000.04 -1.39011 8.63583 0
M  V30 29373 C 3998.63 -0.273849 6.91158 0
M  V30 29374 O 3999.43 -1.06348 6.02892 0
M  V30 29375 C 3997.29 -0.897649 7.22545 0
M  V30 29376 H 3997.32 -1.9841 7.04286 0
M  V30 29377 H 3998.51 0.739928 6.497 0
M  V30 29378 H 3999.99 0.60668 8.36503 0
M  V30 29379 H 3998.3 -0.352479 10.1829 0
M  V30 29380 H 3998.11 2.00611 10.0304 0
M  V30 29381 H 3996.48 1.41843 9.55327 0
M  V30 29382 H 3999.12 -1.95734 6.03555 0
M  V30 29383 P 4000.97 -1.25109 8.70152 0
M  V30 29384 O 4002.39 -1.35274 9.21221 0
M  V30 29385 O 4000.61 -0.0769065 7.84762 0
M  V30 29386 O 4000.65 -2.55232 7.81161 0
M  V30 29387 C 4000.49 -3.79939 8.58154 0
M  V30 29388 C 4001.03 -4.94023 7.72785 0
M  V30 29389 O 3999.97 -5.18726 6.91205 0
M  V30 29390 C 4002.25 -4.69597 6.85231 0
M  V30 29391 O 4002.99 -5.83832 6.51337 0
M  V30 29392 C 4001.58 -3.96706 5.66633 0
M  V30 29393 O 4002.38 -4.15414 4.49689 0
M  V30 29394 C 4000.24 -4.66153 5.59313 0
M  V30 29395 H 4000.27 -5.47679 4.85214 0
M  V30 29396 H 4001.46 -2.89008 5.86566 0
M  V30 29397 H 4002.94 -4.0121 7.36511 0
M  V30 29398 H 4001.25 -5.80182 8.37584 0
M  V30 29399 H 4001.06 -3.73517 9.52265 0
M  V30 29400 H 3999.43 -3.97163 8.80359 0
M  V30 29401 H 4002.07 -4.90969 4.01921 0
M  V30 29402 P 4003.92 -5.75688 6.64379 0
M  V30 29403 O 4005.34 -6.11915 7.01921 0
M  V30 29404 O 4003.56 -4.30744 6.56026 0
M  V30 29405 O 4003.6 -6.37042 5.19165 0
M  V30 29406 C 4003.44 -7.83662 5.1657 0
M  V30 29407 C 4003.98 -8.33398 3.83019 0
M  V30 29408 O 4002.93 -8.0998 3.00999 0
M  V30 29409 C 4005.2 -7.65514 3.2257 0
M  V30 29410 O 4005.94 -8.4329 2.32297 0
M  V30 29411 C 4004.53 -6.40075 2.62207 0
M  V30 29412 O 4005.33 -5.92338 1.5428 0
M  V30 29413 C 4003.19 -6.9454 2.18503 0
M  V30 29414 N 4002.15 -5.95905 2.39948 0
M  V30 29415 C 4002.32 -4.98383 3.32108 0
M  V30 29416 N 4001.29 -4.16798 3.41761 0
M  V30 29417 C 4000.41 -4.65287 2.47461 0
M  V30 29418 C 3999.14 -4.18946 2.07461 0
M  V30 29419 N 3998.54 -3.09661 2.60717 0
M  V30 29420 N 3998.57 -4.95327 1.09101 0
M  V30 29421 C 3999.18 -6.04369 0.519812 0
M  V30 29422 N 4000.35 -6.50694 0.855982 0
M  V30 29423 C 4000.93 -5.75818 1.84322 0
M  V30 29424 H 4003.22 -7.22964 1.12076 0
M  V30 29425 H 4004.41 -5.60502 3.36589 0
M  V30 29426 H 4005.89 -7.35707 4.02681 0
M  V30 29427 H 4004.2 -9.41302 3.90009 0
M  V30 29428 H 4004.01 -8.29056 5.99158 0
M  V30 29429 H 4002.38 -8.10073 5.25882 0
M  V30 29430 H 3998.64 -6.55843 -0.270373 0
M  V30 29431 H 4003.22 -4.88564 3.92502 0
M  V30 29432 H 3997.61 -2.80523 2.27218 0
M  V30 29433 H 3999.01 -2.55848 3.34465 0
M  V30 29434 H 4005.02 -6.30224 0.72668 0
M  V30 29435 P 4006.87 -8.4349 2.47671 0
M  V30 29436 O 4008.3 -8.94167 2.5964 0
M  V30 29437 O 4006.51 -7.1704 3.19006 0
M  V30 29438 O 4006.55 -8.16596 0.923387 0
M  V30 29439 C 4006.39 -9.38437 0.108857 0
M  V30 29440 C 4006.93 -9.08175 -1.28353 0
M  V30 29441 O 4005.88 -8.44229 -1.84713 0
M  V30 29442 C 4008.15 -8.18386 -1.42505 0
M  V30 29443 O 4008.89 -8.3501 -2.60497 0
M  V30 29444 C 4007.48 -6.80225 -1.25468 0
M  V30 29445 O 4008.28 -5.81621 -1.91066 0
M  V30 29446 C 4006.14 -7.02416 -1.9168 0
M  V30 29447 H 4006.18 -6.6888 -2.96621 0
M  V30 29448 H 4007.36 -6.53617 -0.192223 0
M  V30 29449 H 4008.84 -8.36622 -0.589963 0
M  V30 29450 H 4007.15 -10.0291 -1.79807 0
M  V30 29451 H 4006.96 -10.2138 0.558219 0
M  V30 29452 H 4005.33 -9.6579 0.0444202 0
M  V30 29453 H 4007.97 -5.69556 -2.79637 0
M  V30 29454 P 4009.82 -8.4349 -2.47671 0
M  V30 29455 O 4011.23 -8.99283 -2.62101 0
M  V30 29456 O 4009.45 -7.81195 -1.16947 0
M  V30 29457 O 4009.5 -7.36797 -3.63761 0
M  V30 29458 C 4009.34 -7.95349 -4.982 0
M  V30 29459 C 4009.88 -6.94537 -5.98908 0
M  V30 29460 O 4008.83 -6.10277 -6.11744 0
M  V30 29461 C 4011.1 -6.11426 -5.62335 0
M  V30 29462 O 4011.84 -5.6162 -6.70584 0
M  V30 29463 C 4010.43 -5.04409 -4.73308 0
M  V30 29464 O 4011.23 -3.85929 -4.75106 0
M  V30 29465 C 4009.09 -4.8728 -5.41006 0
M  V30 29466 N 4008.05 -4.65812 -4.42377 0
M  V30 29467 C 4007.02 -3.81293 -4.74224 0
M  V30 29468 O 4007.05 -3.20533 -5.83679 0
M  V30 29469 N 4006 -3.6442 -3.86349 0
M  V30 29470 C 4006.05 -4.2728 -2.6824 0
M  V30 29471 C 4007.15 -5.10813 -2.3217 0
M  V30 29472 C 4008.11 -5.27909 -3.22647 0
M  V30 29473 H 4009.13 -4.02278 -6.11074 0
M  V30 29474 H 4010.31 -5.39013 -3.70026 0
M  V30 29475 H 4011.79 -6.71494 -5.02675 0
M  V30 29476 H 4010.1 -7.45796 -6.94223 0
M  V30 29477 H 4009.91 -8.89416 -5.05237 0
M  V30 29478 H 4008.28 -8.14791 -5.18355 0
M  V30 29479 H 4007.2 -5.58884 -1.34755 0
M  V30 29480 H 4008.96 -5.92811 -2.9934 0
M  V30 29481 H 4011.01 -3.3454 -5.51577 0
M  V30 29482 P 4012.78 -5.75688 -6.64379 0
M  V30 29483 O 4014.2 -6.07627 -7.05504 0
M  V30 29484 O 4012.42 -5.88047 -5.19722 0
M  V30 29485 O 4012.45 -4.2322 -7.04443 0
M  V30 29486 C 4012.29 -3.99743 -8.4911 0
M  V30 29487 C 4012.83 -2.60516 -8.79425 0
M  V30 29488 O 4011.78 -1.82684 -8.4467 0
M  V30 29489 C 4014.05 -2.10343 -8.03628 0
M  V30 29490 O 4014.79 -1.09919 -8.67766 0
M  V30 29491 C 4013.38 -1.68446 -6.70876 0
M  V30 29492 O 4014.18 -0.678137 -6.08433 0
M  V30 29493 C 4012.04 -1.17436 -7.18567 0
M  V30 29494 H 4012.08 -0.0804732 -7.31656 0
M  V30 29495 H 4013.26 -2.54037 -6.02537 0
M  V30 29496 H 4014.74 -2.93881 -7.85526 0
M  V30 29497 H 4013.05 -2.53065 -9.86973 0
M  V30 29498 H 4012.86 -4.75072 -9.05887 0
M  V30 29499 H 4011.23 -4.05244 -8.76668 0
M  V30 29500 H 4013.87 0.177647 -6.34251 0
M  V30 29501 P 4015.73 -1.25109 -8.70152 0
M  V30 29502 O 4017.15 -1.29744 -9.22016 0
M  V30 29503 O 4015.37 -2.13714 -7.55141 0
M  V30 29504 O 4015.4 0.248149 -8.21425 0
M  V30 29505 C 4015.24 1.22779 -9.30434 0
M  V30 29506 C 4015.78 2.56293 -8.80664 0
M  V30 29507 O 4014.73 3.02979 -8.09349 0
M  V30 29508 C 4017 2.57523 -7.89775 0
M  V30 29509 O 4017.74 3.7668 -7.89438 0
M  V30 29510 C 4016.33 2.20997 -6.55446 0
M  V30 29511 O 4017.13 2.71895 -5.48509 0
M  V30 29512 C 4014.99 2.89693 -6.67988 0
M  V30 29513 H 4015.03 3.88793 -6.19859 0
M  V30 29514 H 4016.21 1.12046 -6.44229 0
M  V30 29515 H 4017.69 1.7746 -8.19711 0
M  V30 29516 H 4016 3.20706 -9.67112 0
M  V30 29517 H 4015.81 0.901032 -10.1892 0
M  V30 29518 H 4014.18 1.33049 -9.56592 0
M  V30 29519 H 4016.82 3.57847 -5.23962 0
M  V30 29520 P 4018.68 3.65191 -7.99657 0
M  V30 29521 O 4020.08 3.87414 -8.52829 0
M  V30 29522 O 4018.3 2.26932 -7.566 0
M  V30 29523 O 4018.35 4.64915 -6.77529 0
M  V30 29524 C 4018.19 6.06319 -7.16352 0
M  V30 29525 C 4018.73 6.91655 -6.02234 0
M  V30 29526 O 4017.68 6.92369 -5.17005 0
M  V30 29527 C 4019.95 6.43627 -5.25174 0
M  V30 29528 O 4020.69 7.43686 -4.60469 0
M  V30 29529 C 4019.28 5.40275 -4.31916 0
M  V30 29530 O 4020.08 5.25193 -3.14386 0
M  V30 29531 C 4017.95 6.04847 -4.05327 0
M  V30 29532 N 4016.9 5.04166 -3.98114 0
M  V30 29533 C 4015.87 5.2366 -3.09923 0
M  V30 29534 O 4015.91 6.23355 -2.34204 0
M  V30 29535 N 4014.86 4.34279 -3.05727 0
M  V30 29536 C 4014.9 3.26317 -3.84756 0
M  V30 29537 C 4016 3.02504 -4.72573 0
M  V30 29538 C 4016.97 3.94493 -4.76618 0
M  V30 29539 H 4017.98 6.62104 -3.11218 0
M  V30 29540 H 4019.16 4.42969 -4.80867 0
M  V30 29541 H 4020.64 5.93122 -5.93121 0
M  V30 29542 H 4018.95 7.93295 -6.39407 0
M  V30 29543 H 4018.76 6.26671 -8.0846 0
M  V30 29544 H 4017.13 6.29036 -7.32728 0
M  V30 29545 H 4016.05 2.12921 -5.34017 0
M  V30 29546 H 4017.81 3.80658 -5.44176 0
M  V30 29547 H 4019.87 5.93572 -2.52637 0
M  V30 29548 P 4021.63 7.39546 -4.75277 0
M  V30 29549 O 4023.05 7.84798 -5.01039 0
M  V30 29550 O 4021.27 5.9812 -5.08098 0
M  V30 29551 O 4021.3 7.57503 -3.1866 0
M  V30 29552 C 4021.14 8.97357 -2.74833 0
M  V30 29553 C 4021.68 9.07548 -1.32709 0
M  V30 29554 O 4020.63 8.62072 -0.606159 0
M  V30 29555 C 4022.9 8.25383 -0.938334 0
M  V30 29556 O 4023.64 8.74577 0.146954 0
M  V30 29557 C 4022.23 6.8802 -0.712559 0
M  V30 29558 O 4023.03 6.1189 0.194655 0
M  V30 29559 C 4020.9 7.27966 -0.139777 0
M  V30 29560 H 4020.93 7.25354 0.961601 0
M  V30 29561 H 4022.11 6.32557 -1.65702 0
M  V30 29562 H 4023.59 8.19355 -1.79097 0
M  V30 29563 H 4021.9 10.1294 -1.10029 0
M  V30 29564 H 4021.71 9.64276 -3.41316 0
M  V30 29565 H 4020.08 9.25417 -2.76357 0
M  V30 29566 H 4022.72 6.25267 1.07847 0
M  V30 29567 P 4024.58 8.791 -1.97403e-10 0
M  V30 29568 O 4026 9.31096 0.027933 0
M  V30 29569 O 4024.22 7.77869 -1.04071 0
M  V30 29570 O 4024.25 8.09533 1.41463 0
M  V30 29571 C 4024.09 9.0349 2.53943 0
M  V30 29572 C 4024.63 8.35226 3.79016 0
M  V30 29573 O 4023.58 7.57992 4.15078 0
M  V30 29574 C 4025.85 7.45087 3.67298 0
M  V30 29575 O 4026.59 7.27796 4.85194 0
M  V30 29576 C 4025.18 6.17323 3.12027 0
M  V30 29577 O 4025.98 5.04231 3.47188 0
M  V30 29578 C 4023.85 6.19961 3.81809 0
M  V30 29579 H 4023.88 5.58218 4.73051 0
M  V30 29580 H 4025.06 6.21726 2.02589 0
M  V30 29581 H 4026.55 7.86112 2.9231 0
M  V30 29582 H 4024.85 9.11627 4.55076 0
M  V30 29583 H 4024.66 9.9573 2.34194 0
M  V30 29584 H 4023.03 9.2792 2.67832 0
M  V30 29585 H 4025.67 4.67702 4.28772 0
M  V30 29586 P 4027.53 7.39546 4.75277 0
M  V30 29587 O 4028.95 7.81777 5.05738 0
M  V30 29588 O 4027.17 7.1065 3.32998 0
M  V30 29589 O 4027.21 6.04542 5.56673 0
M  V30 29590 C 4027.05 6.22772 7.02095 0
M  V30 29591 C 4027.59 4.97725 7.70406 0
M  V30 29592 O 4026.53 4.13256 7.58987 0
M  V30 29593 C 4028.8 4.28231 7.11815 0
M  V30 29594 O 4029.54 3.49945 8.01648 0
M  V30 29595 C 4028.13 3.5063 5.96244 0
M  V30 29596 O 4028.93 2.36482 5.64681 0
M  V30 29597 C 4026.8 3.15122 6.56374 0
M  V30 29598 H 4026.83 2.13853 6.99751 0
M  V30 29599 H 4028.01 4.13501 5.06559 0
M  V30 29600 H 4029.5 5.03285 6.70911 0
M  V30 29601 H 4027.8 5.20877 8.75697 0
M  V30 29602 H 4027.61 7.11046 7.35349 0
M  V30 29603 H 4025.98 6.35815 7.26986 0
M  V30 29604 H 4028.62 1.61644 6.13565 0
M  V30 29605 P 4030.48 3.65191 7.99657 0
M  V30 29606 O 4031.9 3.8425 8.48115 0
M  V30 29607 O 4030.12 4.17805 6.64342 0
M  V30 29608 O 4030.16 2.07613 7.95143 0
M  V30 29609 C 4030 1.44328 9.27336 0
M  V30 29610 C 4030.54 0.0220036 9.17197 0
M  V30 29611 O 4029.48 -0.626867 8.61923 0
M  V30 29612 C 4031.75 -0.24586 8.30336 0
M  V30 29613 O 4032.49 -1.39011 8.63583 0
M  V30 29614 C 4031.08 -0.273849 6.91158 0
M  V30 29615 O 4031.88 -1.06348 6.02892 0
M  V30 29616 C 4029.75 -0.897649 7.22545 0
M  V30 29617 H 4029.78 -1.9841 7.04286 0
M  V30 29618 H 4030.96 0.739928 6.497 0
M  V30 29619 H 4032.45 0.60668 8.36503 0
M  V30 29620 H 4030.75 -0.352479 10.1829 0
M  V30 29621 H 4030.56 2.00611 10.0304 0
M  V30 29622 H 4028.93 1.41843 9.55327 0
M  V30 29623 H 4031.57 -1.95734 6.03555 0
M  V30 29624 P 4033.43 -1.25109 8.70152 0
M  V30 29625 O 4034.85 -1.35274 9.21221 0
M  V30 29626 O 4033.07 -0.0769065 7.84762 0
M  V30 29627 O 4033.11 -2.55232 7.81161 0
M  V30 29628 C 4032.95 -3.79939 8.58154 0
M  V30 29629 C 4033.49 -4.94023 7.72785 0
M  V30 29630 O 4032.43 -5.18726 6.91205 0
M  V30 29631 C 4034.7 -4.69597 6.85231 0
M  V30 29632 O 4035.44 -5.83832 6.51337 0
M  V30 29633 C 4034.04 -3.96706 5.66633 0
M  V30 29634 O 4034.83 -4.15414 4.49689 0
M  V30 29635 C 4032.7 -4.66153 5.59313 0
M  V30 29636 H 4032.73 -5.47679 4.85214 0
M  V30 29637 H 4033.91 -2.89008 5.86566 0
M  V30 29638 H 4035.4 -4.0121 7.36511 0
M  V30 29639 H 4033.7 -5.80182 8.37584 0
M  V30 29640 H 4033.51 -3.73517 9.52265 0
M  V30 29641 H 4031.88 -3.97163 8.80359 0
M  V30 29642 H 4034.52 -4.90969 4.01921 0
M  V30 29643 P 4036.38 -5.75688 6.64379 0
M  V30 29644 O 4037.8 -6.11849 7.01846 0
M  V30 29645 O 4036.02 -4.30744 6.56026 0
M  V30 29646 O 4036.06 -6.37042 5.19165 0
M  V30 29647 C 4035.9 -7.83578 5.16515 0
M  V30 29648 C 4036.44 -8.33398 3.83019 0
M  V30 29649 O 4035.38 -8.10074 3.01034 0
M  V30 29650 C 4037.65 -7.65514 3.2257 0
M  V30 29651 O 4038.39 -8.4329 2.32297 0
M  V30 29652 C 4036.99 -6.40075 2.62207 0
M  V30 29653 O 4037.78 -5.92589 1.53712 0
M  V30 29654 C 4035.65 -6.9454 2.18503 0
M  V30 29655 H 4035.68 -7.23063 1.12091 0
M  V30 29656 H 4036.86 -5.6025 3.37201 0
M  V30 29657 H 4038.35 -7.35707 4.02681 0
M  V30 29658 H 4036.65 -9.40912 3.9095 0
M  V30 29659 H 4036.46 -8.29056 5.99158 0
M  V30 29660 H 4034.83 -8.10073 5.25882 0
M  V30 29661 H 4037.47 -6.30324 0.726794 0
M  V30 29662 P 4039.33 -8.4349 2.47671 0
M  V30 29663 O 4040.75 -8.94167 2.5964 0
M  V30 29664 O 4038.97 -7.1704 3.19006 0
M  V30 29665 O 4039.01 -8.16596 0.923387 0
M  V30 29666 C 4038.85 -9.38437 0.108857 0
M  V30 29667 C 4039.39 -9.08175 -1.28353 0
M  V30 29668 O 4038.33 -8.44229 -1.84713 0
M  V30 29669 C 4040.61 -8.18386 -1.42505 0
M  V30 29670 O 4041.34 -8.3501 -2.60497 0
M  V30 29671 C 4039.94 -6.80225 -1.25468 0
M  V30 29672 O 4040.74 -5.81621 -1.91066 0
M  V30 29673 C 4038.6 -7.02416 -1.9168 0
M  V30 29674 H 4038.63 -6.6888 -2.96621 0
M  V30 29675 H 4039.81 -6.53617 -0.192223 0
M  V30 29676 H 4041.3 -8.36622 -0.589963 0
M  V30 29677 H 4039.6 -10.0291 -1.79807 0
M  V30 29678 H 4039.41 -10.2138 0.558219 0
M  V30 29679 H 4037.78 -9.6579 0.0444202 0
M  V30 29680 H 4040.42 -5.69556 -2.79637 0
M  V30 29681 P 4042.28 -8.4349 -2.47671 0
M  V30 29682 O 4043.7 -8.92593 -2.65 0
M  V30 29683 O 4041.92 -7.7568 -1.19296 0
M  V30 29684 O 4041.96 -7.36886 -3.63805 0
M  V30 29685 C 4041.8 -7.95349 -4.982 0
M  V30 29686 C 4042.34 -6.94612 -5.98974 0
M  V30 29687 O 4041.28 -6.10347 -6.11815 0
M  V30 29688 C 4043.56 -6.11426 -5.62335 0
M  V30 29689 O 4044.29 -5.6162 -6.70584 0
M  V30 29690 C 4042.89 -5.04409 -4.73308 0
M  V30 29691 O 4043.69 -3.85992 -4.75183 0
M  V30 29692 C 4041.55 -4.8728 -5.41006 0
M  V30 29693 H 4041.58 -4.02333 -6.11157 0
M  V30 29694 H 4042.76 -5.39466 -3.69543 0
M  V30 29695 H 4044.25 -6.71916 -5.01943 0
M  V30 29696 H 4042.55 -7.4649 -6.93477 0
M  V30 29697 H 4042.36 -8.89416 -5.05237 0
M  V30 29698 H 4040.73 -8.14876 -5.18409 0
M  V30 29699 H 4043.37 -3.27957 -5.4317 0
M  V30 29700 P 4045.23 -5.75688 -6.64379 0
M  V30 29701 O 4046.65 -6.07627 -7.05504 0
M  V30 29702 O 4044.87 -5.88047 -5.19722 0
M  V30 29703 O 4044.91 -4.2322 -7.04443 0
M  V30 29704 C 4044.75 -3.99743 -8.4911 0
M  V30 29705 C 4045.29 -2.60516 -8.79425 0
M  V30 29706 O 4044.23 -1.82684 -8.4467 0
M  V30 29707 C 4046.51 -2.10343 -8.03628 0
M  V30 29708 O 4047.24 -1.09919 -8.67766 0
M  V30 29709 C 4045.84 -1.68446 -6.70876 0
M  V30 29710 O 4046.64 -0.678137 -6.08433 0
M  V30 29711 C 4044.5 -1.17436 -7.18567 0
M  V30 29712 H 4044.53 -0.0804732 -7.31656 0
M  V30 29713 H 4045.72 -2.54037 -6.02537 0
M  V30 29714 H 4047.2 -2.93881 -7.85526 0
M  V30 29715 H 4045.51 -2.53065 -9.86973 0
M  V30 29716 H 4045.32 -4.75072 -9.05887 0
M  V30 29717 H 4043.69 -4.05244 -8.76668 0
M  V30 29718 H 4046.32 0.177647 -6.34251 0
M  V30 29719 P 4048.18 -1.25109 -8.70152 0
M  V30 29720 O 4049.6 -1.29758 -9.22115 0
M  V30 29721 O 4047.82 -2.13714 -7.55141 0
M  V30 29722 O 4047.86 0.248149 -8.21425 0
M  V30 29723 C 4047.7 1.22792 -9.30533 0
M  V30 29724 C 4048.24 2.56293 -8.80664 0
M  V30 29725 O 4047.18 3.02944 -8.09255 0
M  V30 29726 C 4049.46 2.57523 -7.89775 0
M  V30 29727 O 4050.2 3.7668 -7.89438 0
M  V30 29728 C 4048.79 2.20997 -6.55446 0
M  V30 29729 O 4049.59 2.71302 -5.48691 0
M  V30 29730 C 4047.45 2.89693 -6.67988 0
M  V30 29731 N 4046.41 2.08895 -6.07487 0
M  V30 29732 C 4046.58 0.753809 -5.94137 0
M  V30 29733 N 4045.55 0.146592 -5.38801 0
M  V30 29734 C 4044.67 1.1768 -5.13693 0
M  V30 29735 C 4043.4 1.17563 -4.52477 0
M  V30 29736 N 4042.83 2.41918 -4.45789 0
M  V30 29737 C 4043.44 3.56493 -4.90792 0
M  V30 29738 N 4044.61 3.61423 -5.47817 0
M  V30 29739 C 4045.19 2.37779 -5.5588 0
M  V30 29740 H 4048.67 1.12673 -6.44018 0
M  V30 29741 H 4050.15 1.7746 -8.19711 0
M  V30 29742 H 4048.46 3.21673 -9.66791 0
M  V30 29743 H 4048.27 0.901032 -10.1892 0
M  V30 29744 H 4046.64 1.33049 -9.56592 0
M  V30 29745 H 4047.48 0.233081 -6.26266 0
M  V30 29746 H 4049.28 3.5779 -5.23879 0
M  V30 29747 P 4051.13 3.65191 -7.99657 0
M  V30 29748 O 4052.53 3.87414 -8.52829 0
M  V30 29749 O 4050.75 2.26932 -7.566 0
M  V30 29750 O 4050.81 4.64915 -6.77529 0
M  V30 29751 C 4050.65 6.06319 -7.16352 0
M  V30 29752 C 4051.19 6.91655 -6.02234 0
M  V30 29753 O 4050.13 6.92369 -5.17005 0
M  V30 29754 C 4052.41 6.43627 -5.25174 0
M  V30 29755 O 4053.15 7.43686 -4.60469 0
M  V30 29756 C 4051.74 5.40275 -4.31916 0
M  V30 29757 O 4052.54 5.25193 -3.14386 0
M  V30 29758 C 4050.4 6.04847 -4.05327 0
M  V30 29759 N 4049.36 5.04166 -3.98114 0
M  V30 29760 C 4048.32 5.2366 -3.09923 0
M  V30 29761 O 4048.36 6.23355 -2.34204 0
M  V30 29762 N 4047.31 4.34279 -3.05727 0
M  V30 29763 C 4047.36 3.26317 -3.84756 0
M  V30 29764 C 4048.46 3.02504 -4.72573 0
M  V30 29765 C 4049.42 3.94493 -4.76618 0
M  V30 29766 H 4050.43 6.62104 -3.11218 0
M  V30 29767 H 4051.62 4.42969 -4.80867 0
M  V30 29768 H 4053.1 5.93122 -5.93121 0
M  V30 29769 H 4051.41 7.93295 -6.39407 0
M  V30 29770 H 4051.22 6.26671 -8.0846 0
M  V30 29771 H 4049.59 6.29036 -7.32728 0
M  V30 29772 H 4048.5 2.12921 -5.34017 0
M  V30 29773 H 4050.27 3.80658 -5.44176 0
M  V30 29774 H 4052.32 5.93572 -2.52637 0
M  V30 29775 P 4054.08 7.39546 -4.75277 0
M  V30 29776 O 4055.5 7.84882 -5.01092 0
M  V30 29777 O 4053.72 5.9812 -5.08098 0
M  V30 29778 O 4053.76 7.57503 -3.1866 0
M  V30 29779 C 4053.6 8.97452 -2.74862 0
M  V30 29780 C 4054.14 9.07548 -1.32709 0
M  V30 29781 O 4053.09 8.61972 -0.606089 0
M  V30 29782 C 4055.36 8.25383 -0.938334 0
M  V30 29783 O 4056.1 8.74577 0.146954 0
M  V30 29784 C 4054.69 6.8802 -0.712559 0
M  V30 29785 O 4055.49 6.1181 0.188505 0
M  V30 29786 C 4053.35 7.27966 -0.139777 0
M  V30 29787 N 4052.31 6.39368 -0.623421 0
M  V30 29788 C 4052.48 5.71761 -1.78245 0
M  V30 29789 N 4051.45 4.962 -2.10491 0
M  V30 29790 C 4050.57 5.16158 -1.0635 0
M  V30 29791 C 4049.3 4.60425 -0.810266 0
M  V30 29792 N 4048.73 5.06 0.348685 0
M  V30 29793 C 4049.34 5.94532 1.20395 0
M  V30 29794 N 4050.51 6.48452 1.01191 0
M  V30 29795 C 4051.09 6.04423 -0.146291 0
M  V30 29796 H 4054.57 6.32625 -1.65044 0
M  V30 29797 H 4056.05 8.19355 -1.79097 0
M  V30 29798 H 4054.36 10.1305 -1.09016 0
M  V30 29799 H 4054.17 9.64276 -3.41316 0
M  V30 29800 H 4052.54 9.25417 -2.76357 0
M  V30 29801 H 4053.38 5.79354 -2.38959 0
M  V30 29802 H 4055.18 6.25169 1.0783 0
M  V30 29803 P 4057.03 8.791 -2.02589e-10 0
M  V30 29804 O 4058.46 9.31096 0.027933 0
M  V30 29805 O 4056.67 7.77869 -1.04071 0
M  V30 29806 O 4056.71 8.09533 1.41463 0
M  V30 29807 C 4056.55 9.0349 2.53943 0
M  V30 29808 C 4057.09 8.35226 3.79016 0
M  V30 29809 O 4056.03 7.57992 4.15078 0
M  V30 29810 C 4058.31 7.45087 3.67298 0
M  V30 29811 O 4059.05 7.27796 4.85194 0
M  V30 29812 C 4057.64 6.17323 3.12027 0
M  V30 29813 O 4058.44 5.04231 3.47188 0
M  V30 29814 C 4056.3 6.19961 3.81809 0
M  V30 29815 H 4056.33 5.58218 4.73051 0
M  V30 29816 H 4057.52 6.21726 2.02589 0
M  V30 29817 H 4059 7.86112 2.9231 0
M  V30 29818 H 4057.31 9.11627 4.55076 0
M  V30 29819 H 4057.12 9.9573 2.34194 0
M  V30 29820 H 4055.49 9.2792 2.67832 0
M  V30 29821 H 4058.13 4.67702 4.28772 0
M  V30 29822 P 4059.98 7.39546 4.75277 0
M  V30 29823 O 4061.41 7.81777 5.05738 0
M  V30 29824 O 4059.62 7.1065 3.32998 0
M  V30 29825 O 4059.66 6.04542 5.56673 0
M  V30 29826 C 4059.5 6.22772 7.02095 0
M  V30 29827 C 4060.04 4.97725 7.70406 0
M  V30 29828 O 4058.99 4.13256 7.58987 0
M  V30 29829 C 4061.26 4.28231 7.11815 0
M  V30 29830 O 4062 3.49945 8.01648 0
M  V30 29831 C 4060.59 3.5063 5.96244 0
M  V30 29832 O 4061.39 2.36482 5.64681 0
M  V30 29833 C 4059.25 3.15122 6.56374 0
M  V30 29834 H 4059.29 2.13853 6.99751 0
M  V30 29835 H 4060.47 4.13501 5.06559 0
M  V30 29836 H 4061.95 5.03285 6.70911 0
M  V30 29837 H 4060.26 5.20877 8.75697 0
M  V30 29838 H 4060.07 7.11046 7.35349 0
M  V30 29839 H 4058.44 6.35815 7.26986 0
M  V30 29840 H 4061.08 1.61644 6.13565 0
M  V30 29841 P 4062.93 3.65191 7.99657 0
M  V30 29842 O 4064.36 3.8425 8.48115 0
M  V30 29843 O 4062.57 4.17805 6.64342 0
M  V30 29844 O 4062.61 2.07613 7.95143 0
M  V30 29845 C 4062.45 1.44328 9.27336 0
M  V30 29846 C 4062.99 0.0220036 9.17197 0
M  V30 29847 O 4061.94 -0.626867 8.61923 0
M  V30 29848 C 4064.21 -0.24586 8.30336 0
M  V30 29849 O 4064.95 -1.39011 8.63583 0
M  V30 29850 C 4063.54 -0.273849 6.91158 0
M  V30 29851 O 4064.34 -1.06348 6.02892 0
M  V30 29852 C 4062.2 -0.897649 7.22545 0
M  V30 29853 H 4062.24 -1.9841 7.04286 0
M  V30 29854 H 4063.42 0.739928 6.497 0
M  V30 29855 H 4064.9 0.60668 8.36503 0
M  V30 29856 H 4063.21 -0.352479 10.1829 0
M  V30 29857 H 4063.02 2.00611 10.0304 0
M  V30 29858 H 4061.39 1.41843 9.55327 0
M  V30 29859 H 4064.03 -1.95734 6.03555 0
M  V30 29860 P 4065.89 -1.25109 8.70152 0
M  V30 29861 O 4067.31 -1.35274 9.21221 0
M  V30 29862 O 4065.53 -0.0769065 7.84762 0
M  V30 29863 O 4065.56 -2.55232 7.81161 0
M  V30 29864 C 4065.4 -3.79939 8.58154 0
M  V30 29865 C 4065.94 -4.94023 7.72785 0
M  V30 29866 O 4064.89 -5.18726 6.91205 0
M  V30 29867 C 4067.16 -4.69597 6.85231 0
M  V30 29868 O 4067.9 -5.83832 6.51337 0
M  V30 29869 C 4066.49 -3.96706 5.66633 0
M  V30 29870 O 4067.29 -4.15414 4.49689 0
M  V30 29871 C 4065.15 -4.66153 5.59313 0
M  V30 29872 H 4065.19 -5.47679 4.85214 0
M  V30 29873 H 4066.37 -2.89008 5.86566 0
M  V30 29874 H 4067.85 -4.0121 7.36511 0
M  V30 29875 H 4066.16 -5.80182 8.37584 0
M  V30 29876 H 4065.97 -3.73517 9.52265 0
M  V30 29877 H 4064.34 -3.97163 8.80359 0
M  V30 29878 H 4066.98 -4.90969 4.01921 0
M  V30 29879 P 4068.84 -5.75688 6.64379 0
M  V30 29880 O 4070.26 -6.11849 7.01846 0
M  V30 29881 O 4068.48 -4.30744 6.56026 0
M  V30 29882 O 4068.51 -6.37042 5.19165 0
M  V30 29883 C 4068.35 -7.83578 5.16515 0
M  V30 29884 C 4068.89 -8.33398 3.83019 0
M  V30 29885 O 4067.84 -8.10074 3.01034 0
M  V30 29886 C 4070.11 -7.65514 3.2257 0
M  V30 29887 O 4070.85 -8.4329 2.32297 0
M  V30 29888 C 4069.44 -6.40075 2.62207 0
M  V30 29889 O 4070.24 -5.92589 1.53712 0
M  V30 29890 C 4068.11 -6.9454 2.18503 0
M  V30 29891 H 4068.14 -7.23063 1.12091 0
M  V30 29892 H 4069.32 -5.6025 3.37201 0
M  V30 29893 H 4070.8 -7.35707 4.02681 0
M  V30 29894 H 4069.11 -9.40912 3.9095 0
M  V30 29895 H 4068.92 -8.29056 5.99158 0
M  V30 29896 H 4067.29 -8.10073 5.25882 0
M  V30 29897 H 4069.93 -6.30324 0.726794 0
M  V30 29898 P 4071.79 -8.4349 2.47671 0
M  V30 29899 O 4073.19 -8.98227 2.65696 0
M  V30 29900 O 4071.41 -7.20409 3.23964 0
M  V30 29901 O 4071.46 -8.16496 0.923275 0
M  V30 29902 C 4071.3 -9.38437 0.108857 0
M  V30 29903 C 4071.84 -9.08076 -1.28339 0
M  V30 29904 O 4070.79 -8.44131 -1.84692 0
M  V30 29905 C 4073.06 -8.18386 -1.42505 0
M  V30 29906 O 4073.8 -8.3501 -2.60497 0
M  V30 29907 C 4072.39 -6.80225 -1.25468 0
M  V30 29908 O 4073.19 -5.81526 -1.91035 0
M  V30 29909 C 4071.06 -7.02416 -1.9168 0
M  V30 29910 N 4070.01 -6.31033 -1.20314 0
M  V30 29911 C 4068.98 -5.77149 -1.928 0
M  V30 29912 O 4069.02 -5.8521 -3.17729 0
M  V30 29913 N 4067.97 -5.15445 -1.27997 0
M  V30 29914 C 4068.01 -5.04472 0.0534726 0
M  V30 29915 C 4069.11 -5.55244 0.808522 0
M  V30 29916 C 4070.08 -6.18542 0.13981 0
M  V30 29917 H 4071.09 -6.68789 -2.9658 0
M  V30 29918 H 4072.27 -6.53498 -0.198729 0
M  V30 29919 H 4073.75 -8.36663 -0.5984 0
M  V30 29920 H 4072.06 -10.0273 -1.8081 0
M  V30 29921 H 4071.87 -10.2138 0.558219 0
M  V30 29922 H 4070.24 -9.6569 0.0444156 0
M  V30 29923 H 4069.16 -5.43017 1.88792 0
M  V30 29924 H 4070.92 -6.60539 0.686773 0
M  V30 29925 H 4072.98 -5.79638 -2.8315 0
M  V30 29926 P 4074.74 -8.4349 -2.47671 0
M  V30 29927 O 4076.16 -8.92593 -2.65 0
M  V30 29928 O 4074.38 -7.7568 -1.19296 0
M  V30 29929 O 4074.41 -7.36886 -3.63805 0
M  V30 29930 C 4074.25 -7.95349 -4.982 0
M  V30 29931 C 4074.79 -6.94612 -5.98974 0
M  V30 29932 O 4073.74 -6.10347 -6.11815 0
M  V30 29933 C 4076.01 -6.11426 -5.62335 0
M  V30 29934 O 4076.75 -5.6162 -6.70584 0
M  V30 29935 C 4075.34 -5.04409 -4.73308 0
M  V30 29936 O 4076.14 -3.85992 -4.75183 0
M  V30 29937 C 4074.01 -4.8728 -5.41006 0
M  V30 29938 H 4074.04 -4.02333 -6.11157 0
M  V30 29939 H 4075.22 -5.39466 -3.69543 0
M  V30 29940 H 4076.71 -6.71916 -5.01943 0
M  V30 29941 H 4075.01 -7.4649 -6.93477 0
M  V30 29942 H 4074.82 -8.89416 -5.05237 0
M  V30 29943 H 4073.19 -8.14876 -5.18409 0
M  V30 29944 H 4075.83 -3.27957 -5.4317 0
M  V30 29945 P 4077.69 -5.75688 -6.64379 0
M  V30 29946 O 4079.11 -6.07627 -7.05504 0
M  V30 29947 O 4077.33 -5.88047 -5.19722 0
M  V30 29948 O 4077.36 -4.2322 -7.04443 0
M  V30 29949 C 4077.2 -3.99743 -8.4911 0
M  V30 29950 C 4077.74 -2.60516 -8.79425 0
M  V30 29951 O 4076.69 -1.82684 -8.4467 0
M  V30 29952 C 4078.96 -2.10343 -8.03628 0
M  V30 29953 O 4079.7 -1.09919 -8.67766 0
M  V30 29954 C 4078.29 -1.68446 -6.70876 0
M  V30 29955 O 4079.09 -0.678137 -6.08433 0
M  V30 29956 C 4076.96 -1.17436 -7.18567 0
M  V30 29957 H 4076.99 -0.0804732 -7.31656 0
M  V30 29958 H 4078.17 -2.54037 -6.02537 0
M  V30 29959 H 4079.66 -2.93881 -7.85526 0
M  V30 29960 H 4077.96 -2.53065 -9.86973 0
M  V30 29961 H 4077.77 -4.75072 -9.05887 0
M  V30 29962 H 4076.14 -4.05244 -8.76668 0
M  V30 29963 H 4078.78 0.177647 -6.34251 0
M  V30 29964 P 4080.64 -1.25109 -8.70152 0
M  V30 29965 O 4082.06 -1.29744 -9.22016 0
M  V30 29966 O 4080.28 -2.13714 -7.55141 0
M  V30 29967 O 4080.32 0.248149 -8.21425 0
M  V30 29968 C 4080.16 1.22779 -9.30434 0
M  V30 29969 C 4080.7 2.56293 -8.80664 0
M  V30 29970 O 4079.64 3.02979 -8.09349 0
M  V30 29971 C 4081.91 2.57523 -7.89775 0
M  V30 29972 O 4082.65 3.7668 -7.89438 0
M  V30 29973 C 4081.24 2.20997 -6.55446 0
M  V30 29974 O 4082.04 2.71895 -5.48509 0
M  V30 29975 C 4079.91 2.89693 -6.67988 0
M  V30 29976 H 4079.94 3.88793 -6.19859 0
M  V30 29977 H 4081.12 1.12046 -6.44229 0
M  V30 29978 H 4082.61 1.7746 -8.19711 0
M  V30 29979 H 4080.91 3.20706 -9.67112 0
M  V30 29980 H 4080.72 0.901032 -10.1892 0
M  V30 29981 H 4079.09 1.33049 -9.56592 0
M  V30 29982 H 4081.73 3.57847 -5.23962 0
M  V30 29983 P 4083.59 3.65191 -7.99657 0
M  V30 29984 O 4085.01 3.89332 -8.45794 0
M  V30 29985 O 4083.23 2.28472 -7.50807 0
M  V30 29986 O 4083.27 4.64972 -6.77611 0
M  V30 29987 C 4083.11 6.06319 -7.16352 0
M  V30 29988 C 4083.65 6.91731 -6.02299 0
M  V30 29989 O 4082.59 6.92449 -5.17064 0
M  V30 29990 C 4084.86 6.43627 -5.25174 0
M  V30 29991 O 4085.6 7.43686 -4.60469 0
M  V30 29992 C 4084.19 5.40275 -4.31916 0
M  V30 29993 O 4084.99 5.25279 -3.14438 0
M  V30 29994 C 4082.86 6.04847 -4.05327 0
M  V30 29995 H 4082.89 6.62195 -3.11261 0
M  V30 29996 H 4084.07 4.42556 -4.81383 0
M  V30 29997 H 4085.56 5.92458 -5.93643 0
M  V30 29998 H 4083.86 7.92655 -6.402 0
M  V30 29999 H 4083.67 6.26671 -8.0846 0
M  V30 30000 H 4082.04 6.29101 -7.32804 0
M  V30 30001 H 4084.68 5.84315 -2.47318 0
M  V30 30002 P 4086.54 7.39546 -4.75277 0
M  V30 30003 O 4087.96 7.84798 -5.01039 0
M  V30 30004 O 4086.18 5.9812 -5.08098 0
M  V30 30005 O 4086.22 7.57503 -3.1866 0
M  V30 30006 C 4086.06 8.97357 -2.74833 0
M  V30 30007 C 4086.6 9.07548 -1.32709 0
M  V30 30008 O 4085.54 8.62072 -0.606159 0
M  V30 30009 C 4087.81 8.25383 -0.938334 0
M  V30 30010 O 4088.55 8.74577 0.146954 0
M  V30 30011 C 4087.15 6.8802 -0.712559 0
M  V30 30012 O 4087.94 6.1189 0.194655 0
M  V30 30013 C 4085.81 7.27966 -0.139777 0
M  V30 30014 H 4085.84 7.25354 0.961601 0
M  V30 30015 H 4087.02 6.32557 -1.65702 0
M  V30 30016 H 4088.51 8.19355 -1.79097 0
M  V30 30017 H 4086.81 10.1294 -1.10029 0
M  V30 30018 H 4086.62 9.64276 -3.41316 0
M  V30 30019 H 4084.99 9.25417 -2.76357 0
M  V30 30020 H 4087.63 6.25267 1.07847 0
M  V30 30021 P 4089.49 8.791 -2.07776e-10 0
M  V30 30022 O 4090.91 9.31096 0.027933 0
M  V30 30023 O 4089.13 7.77869 -1.04071 0
M  V30 30024 O 4089.17 8.09533 1.41463 0
M  V30 30025 C 4089.01 9.0349 2.53943 0
M  V30 30026 C 4089.55 8.35226 3.79016 0
M  V30 30027 O 4088.49 7.57992 4.15078 0
M  V30 30028 C 4090.77 7.45087 3.67298 0
M  V30 30029 O 4091.5 7.27796 4.85194 0
M  V30 30030 C 4090.1 6.17323 3.12027 0
M  V30 30031 O 4090.9 5.04231 3.47188 0
M  V30 30032 C 4088.76 6.19961 3.81809 0
M  V30 30033 H 4088.79 5.58218 4.73051 0
M  V30 30034 H 4089.97 6.21726 2.02589 0
M  V30 30035 H 4091.46 7.86112 2.9231 0
M  V30 30036 H 4089.76 9.11627 4.55076 0
M  V30 30037 H 4089.57 9.9573 2.34194 0
M  V30 30038 H 4087.94 9.2792 2.67832 0
M  V30 30039 H 4090.58 4.67702 4.28772 0
M  V30 30040 P 4092.44 7.39546 4.75277 0
M  V30 30041 O 4093.86 7.81945 5.05847 0
M  V30 30042 O 4092.08 7.1065 3.32998 0
M  V30 30043 O 4092.12 6.04542 5.56673 0
M  V30 30044 C 4091.96 6.22772 7.02095 0
M  V30 30045 C 4092.5 4.97671 7.70322 0
M  V30 30046 O 4091.44 4.13256 7.58987 0
M  V30 30047 C 4093.72 4.28231 7.11815 0
M  V30 30048 O 4094.45 3.49945 8.01648 0
M  V30 30049 C 4093.05 3.5063 5.96244 0
M  V30 30050 O 4093.85 2.36443 5.64589 0
M  V30 30051 C 4091.71 3.15122 6.56374 0
M  V30 30052 N 4090.67 3.22311 5.55692 0
M  V30 30053 C 4090.73 4.14382 4.59701 0
M  V30 30054 N 4089.68 4.04476 3.76958 0
M  V30 30055 C 4088.95 3.04892 4.26534 0
M  V30 30056 C 4087.64 2.57447 3.88189 0
M  V30 30057 O 4086.91 2.9785 2.96543 0
M  V30 30058 N 4087.21 1.55228 4.65922 0
M  V30 30059 C 4087.96 1.01152 5.73447 0
M  V30 30060 N 4087.37 -0.0472117 6.37783 0
M  V30 30061 N 4089.12 1.467 6.13813 0
M  V30 30062 C 4089.57 2.4931 5.38487 0
M  V30 30063 H 4091.74 2.13853 6.99751 0
M  V30 30064 H 4092.92 4.13438 5.06482 0
M  V30 30065 H 4094.41 5.02614 6.71414 0
M  V30 30066 H 4092.71 5.20877 8.75697 0
M  V30 30067 H 4092.52 7.11046 7.35349 0
M  V30 30068 H 4090.89 6.35815 7.26986 0
M  V30 30069 H 4086.32 1.15238 4.46468 0
M  V30 30070 H 4091.52 4.88312 4.49647 0
M  V30 30071 H 4086.45 -0.396382 6.05203 0
M  V30 30072 H 4087.83 -0.484997 7.18465 0
M  V30 30073 H 4093.53 1.61619 6.13468 0
M  V30 30074 P 4095.39 3.65191 7.99657 0
M  V30 30075 O 4096.81 3.84333 8.48297 0
M  V30 30076 O 4095.03 4.17805 6.64342 0
M  V30 30077 O 4095.07 2.07613 7.95143 0
M  V30 30078 C 4094.91 1.44328 9.27336 0
M  V30 30079 C 4095.45 0.0220012 9.17097 0
M  V30 30080 O 4094.39 -0.626867 8.61923 0
M  V30 30081 C 4096.67 -0.24586 8.30336 0
M  V30 30082 O 4097.4 -1.39011 8.63583 0
M  V30 30083 C 4096 -0.273849 6.91158 0
M  V30 30084 O 4096.8 -1.06331 6.02794 0
M  V30 30085 C 4094.66 -0.897649 7.22545 0
M  V30 30086 N 4093.62 -0.292839 6.41732 0
M  V30 30087 C 4093.68 1.00068 6.10757 0
M  V30 30088 N 4092.63 1.36468 5.35794 0
M  V30 30089 C 4091.9 0.258894 5.2366 0
M  V30 30090 C 4090.59 0.0670682 4.65752 0
M  V30 30091 O 4089.86 0.902443 4.10497 0
M  V30 30092 N 4090.16 -1.2131 4.75881 0
M  V30 30093 C 4090.91 -2.24934 5.37101 0
M  V30 30094 N 4090.32 -3.48783 5.33984 0
M  V30 30095 N 4092.07 -2.0844 5.95684 0
M  V30 30096 C 4092.52 -0.81395 5.87791 0
M  V30 30097 H 4094.69 -1.9841 7.04286 0
M  V30 30098 H 4095.88 0.739815 6.49601 0
M  V30 30099 H 4097.36 0.598315 8.36563 0
M  V30 30100 H 4095.67 -0.352479 10.1829 0
M  V30 30101 H 4095.48 2.00611 10.0304 0
M  V30 30102 H 4093.84 1.41843 9.55327 0
M  V30 30103 H 4089.27 -1.44434 4.37895 0
M  V30 30104 H 4094.48 1.67697 6.42268 0
M  V30 30105 H 4089.41 -3.60543 4.87699 0
M  V30 30106 H 4090.78 -4.29232 5.7819 0
M  V30 30107 H 4096.49 -1.95704 6.0346 0
M  V30 30108 P 4098.34 -1.25109 8.70152 0
M  V30 30109 O 4099.76 -1.35274 9.21221 0
M  V30 30110 O 4097.98 -0.0769065 7.84762 0
M  V30 30111 O 4098.02 -2.55232 7.81161 0
M  V30 30112 C 4097.86 -3.79939 8.58154 0
M  V30 30113 C 4098.4 -4.94023 7.72785 0
M  V30 30114 O 4097.34 -5.18726 6.91205 0
M  V30 30115 C 4099.62 -4.69597 6.85231 0
M  V30 30116 O 4100.35 -5.83832 6.51337 0
M  V30 30117 C 4098.95 -3.96706 5.66633 0
M  V30 30118 O 4099.75 -4.15414 4.49689 0
M  V30 30119 C 4097.61 -4.66153 5.59313 0
M  V30 30120 H 4097.64 -5.47679 4.85214 0
M  V30 30121 H 4098.83 -2.89008 5.86566 0
M  V30 30122 H 4100.31 -4.0121 7.36511 0
M  V30 30123 H 4098.62 -5.80182 8.37584 0
M  V30 30124 H 4098.43 -3.73517 9.52265 0
M  V30 30125 H 4096.8 -3.97163 8.80359 0
M  V30 30126 H 4099.43 -4.90969 4.01921 0
M  V30 30127 P 4101.29 -5.75688 6.64379 0
M  V30 30128 O 4102.71 -6.11849 7.01846 0
M  V30 30129 O 4100.93 -4.30744 6.56026 0
M  V30 30130 O 4100.97 -6.37042 5.19165 0
M  V30 30131 C 4100.81 -7.83578 5.16515 0
M  V30 30132 C 4101.35 -8.33398 3.83019 0
M  V30 30133 O 4100.29 -8.10074 3.01034 0
M  V30 30134 C 4102.57 -7.65514 3.2257 0
M  V30 30135 O 4103.31 -8.4329 2.32297 0
M  V30 30136 C 4101.9 -6.40075 2.62207 0
M  V30 30137 O 4102.7 -5.92589 1.53712 0
M  V30 30138 C 4100.56 -6.9454 2.18503 0
M  V30 30139 H 4100.59 -7.23063 1.12091 0
M  V30 30140 H 4101.78 -5.6025 3.37201 0
M  V30 30141 H 4103.26 -7.35707 4.02681 0
M  V30 30142 H 4101.57 -9.40912 3.9095 0
M  V30 30143 H 4101.38 -8.29056 5.99158 0
M  V30 30144 H 4099.75 -8.10073 5.25882 0
M  V30 30145 H 4102.39 -6.30324 0.726794 0
M  V30 30146 P 4104.24 -8.4349 2.47671 0
M  V30 30147 O 4105.64 -8.98227 2.65696 0
M  V30 30148 O 4103.86 -7.20409 3.23964 0
M  V30 30149 O 4103.92 -8.16496 0.923275 0
M  V30 30150 C 4103.76 -9.38437 0.108857 0
M  V30 30151 C 4104.3 -9.08076 -1.28339 0
M  V30 30152 O 4103.24 -8.44131 -1.84692 0
M  V30 30153 C 4105.52 -8.18386 -1.42505 0
M  V30 30154 O 4106.26 -8.3501 -2.60497 0
M  V30 30155 C 4104.85 -6.80225 -1.25468 0
M  V30 30156 O 4105.65 -5.81526 -1.91035 0
M  V30 30157 C 4103.51 -7.02416 -1.9168 0
M  V30 30158 N 4102.47 -6.31033 -1.20314 0
M  V30 30159 C 4101.43 -5.77149 -1.928 0
M  V30 30160 O 4101.47 -5.8521 -3.17729 0
M  V30 30161 N 4100.42 -5.15445 -1.27997 0
M  V30 30162 C 4100.47 -5.04472 0.0534726 0
M  V30 30163 N 4099.46 -4.44183 0.669496 0
M  V30 30164 C 4101.57 -5.55244 0.808522 0
M  V30 30165 C 4102.53 -6.18542 0.13981 0
M  V30 30166 H 4103.54 -6.68789 -2.9658 0
M  V30 30167 H 4104.73 -6.53498 -0.198729 0
M  V30 30168 H 4106.21 -8.36663 -0.5984 0
M  V30 30169 H 4104.52 -10.0273 -1.8081 0
M  V30 30170 H 4104.33 -10.2138 0.558219 0
M  V30 30171 H 4102.7 -9.6569 0.0444156 0
M  V30 30172 H 4101.61 -5.43017 1.88792 0
M  V30 30173 H 4103.38 -6.60539 0.686773 0
M  V30 30174 H 4098.67 -4.07222 0.12057 0
M  V30 30175 H 4099.46 -4.34288 1.69244 0
M  V30 30176 H 4105.43 -5.79638 -2.8315 0
M  V30 30177 P 4107.19 -8.4349 -2.47671 0
M  V30 30178 O 4108.62 -8.92593 -2.65 0
M  V30 30179 O 4106.83 -7.7568 -1.19296 0
M  V30 30180 O 4106.87 -7.36886 -3.63805 0
M  V30 30181 C 4106.71 -7.95349 -4.982 0
M  V30 30182 C 4107.25 -6.94612 -5.98974 0
M  V30 30183 O 4106.19 -6.10347 -6.11815 0
M  V30 30184 C 4108.47 -6.11426 -5.62335 0
M  V30 30185 O 4109.21 -5.6162 -6.70584 0
M  V30 30186 C 4107.8 -5.04409 -4.73308 0
M  V30 30187 O 4108.6 -3.85992 -4.75183 0
M  V30 30188 C 4106.46 -4.8728 -5.41006 0
M  V30 30189 H 4106.49 -4.02333 -6.11157 0
M  V30 30190 H 4107.68 -5.39466 -3.69543 0
M  V30 30191 H 4109.16 -6.71916 -5.01943 0
M  V30 30192 H 4107.47 -7.4649 -6.93477 0
M  V30 30193 H 4107.28 -8.89416 -5.05237 0
M  V30 30194 H 4105.65 -8.14876 -5.18409 0
M  V30 30195 H 4108.29 -3.27957 -5.4317 0
M  V30 30196 P 4110.14 -5.75688 -6.64379 0
M  V30 30197 O 4111.57 -6.07627 -7.05504 0
M  V30 30198 O 4109.78 -5.88047 -5.19722 0
M  V30 30199 O 4109.82 -4.2322 -7.04443 0
M  V30 30200 C 4109.66 -3.99743 -8.4911 0
M  V30 30201 C 4110.2 -2.60516 -8.79425 0
M  V30 30202 O 4109.15 -1.82684 -8.4467 0
M  V30 30203 C 4111.42 -2.10343 -8.03628 0
M  V30 30204 O 4112.16 -1.09919 -8.67766 0
M  V30 30205 C 4110.75 -1.68446 -6.70876 0
M  V30 30206 O 4111.55 -0.678137 -6.08433 0
M  V30 30207 C 4109.41 -1.17436 -7.18567 0
M  V30 30208 H 4109.45 -0.0804732 -7.31656 0
M  V30 30209 H 4110.63 -2.54037 -6.02537 0
M  V30 30210 H 4112.11 -2.93881 -7.85526 0
M  V30 30211 H 4110.42 -2.53065 -9.86973 0
M  V30 30212 H 4110.23 -4.75072 -9.05887 0
M  V30 30213 H 4108.6 -4.05244 -8.76668 0
M  V30 30214 H 4111.24 0.177647 -6.34251 0
M  V30 30215 P 4113.09 -1.25109 -8.70152 0
M  V30 30216 O 4114.52 -1.29744 -9.22016 0
M  V30 30217 O 4112.73 -2.13714 -7.55141 0
M  V30 30218 O 4112.77 0.248149 -8.21425 0
M  V30 30219 C 4112.61 1.22779 -9.30434 0
M  V30 30220 C 4113.15 2.56293 -8.80664 0
M  V30 30221 O 4112.1 3.02979 -8.09349 0
M  V30 30222 C 4114.37 2.57523 -7.89775 0
M  V30 30223 O 4115.11 3.7668 -7.89438 0
M  V30 30224 C 4113.7 2.20997 -6.55446 0
M  V30 30225 O 4114.5 2.71895 -5.48509 0
M  V30 30226 C 4112.36 2.89693 -6.67988 0
M  V30 30227 H 4112.4 3.88793 -6.19859 0
M  V30 30228 H 4113.58 1.12046 -6.44229 0
M  V30 30229 H 4115.06 1.7746 -8.19711 0
M  V30 30230 H 4113.37 3.20706 -9.67112 0
M  V30 30231 H 4113.18 0.901032 -10.1892 0
M  V30 30232 H 4111.55 1.33049 -9.56592 0
M  V30 30233 H 4114.19 3.57847 -5.23962 0
M  V30 30234 P 4116.05 3.65191 -7.99657 0
M  V30 30235 O 4117.47 3.89332 -8.45794 0
M  V30 30236 O 4115.69 2.28472 -7.50807 0
M  V30 30237 O 4115.72 4.64972 -6.77611 0
M  V30 30238 C 4115.56 6.06319 -7.16352 0
M  V30 30239 C 4116.1 6.91731 -6.02299 0
M  V30 30240 O 4115.05 6.92449 -5.17064 0
M  V30 30241 C 4117.32 6.43627 -5.25174 0
M  V30 30242 O 4118.06 7.43686 -4.60469 0
M  V30 30243 C 4116.65 5.40275 -4.31916 0
M  V30 30244 O 4117.45 5.25279 -3.14438 0
M  V30 30245 C 4115.31 6.04847 -4.05327 0
M  V30 30246 H 4115.35 6.62195 -3.11261 0
M  V30 30247 H 4116.53 4.42556 -4.81383 0
M  V30 30248 H 4118.01 5.92458 -5.93643 0
M  V30 30249 H 4116.32 7.92655 -6.402 0
M  V30 30250 H 4116.13 6.26671 -8.0846 0
M  V30 30251 H 4114.5 6.29101 -7.32804 0
M  V30 30252 H 4117.14 5.84315 -2.47318 0
M  V30 30253 P 4119 7.39546 -4.75277 0
M  V30 30254 O 4120.42 7.84798 -5.01039 0
M  V30 30255 O 4118.64 5.9812 -5.08098 0
M  V30 30256 O 4118.67 7.57503 -3.1866 0
M  V30 30257 C 4118.51 8.97357 -2.74833 0
M  V30 30258 C 4119.05 9.07548 -1.32709 0
M  V30 30259 O 4118 8.62072 -0.606159 0
M  V30 30260 C 4120.27 8.25383 -0.938334 0
M  V30 30261 O 4121.01 8.74577 0.146954 0
M  V30 30262 C 4119.6 6.8802 -0.712559 0
M  V30 30263 O 4120.4 6.1189 0.194655 0
M  V30 30264 C 4118.26 7.27966 -0.139777 0
M  V30 30265 H 4118.3 7.25354 0.961601 0
M  V30 30266 H 4119.48 6.32557 -1.65702 0
M  V30 30267 H 4120.96 8.19355 -1.79097 0
M  V30 30268 H 4119.27 10.1294 -1.10029 0
M  V30 30269 H 4119.08 9.64276 -3.41316 0
M  V30 30270 H 4117.45 9.25417 -2.76357 0
M  V30 30271 H 4120.09 6.25267 1.07847 0
M  V30 30272 P 4121.95 8.791 -2.12963e-10 0
M  V30 30273 O 4123.37 9.31096 0.027933 0
M  V30 30274 O 4121.59 7.77869 -1.04071 0
M  V30 30275 O 4121.62 8.09533 1.41463 0
M  V30 30276 C 4121.46 9.0349 2.53943 0
M  V30 30277 C 4122 8.35226 3.79016 0
M  V30 30278 O 4120.95 7.57992 4.15078 0
M  V30 30279 C 4123.22 7.45087 3.67298 0
M  V30 30280 O 4123.96 7.27796 4.85194 0
M  V30 30281 C 4122.55 6.17323 3.12027 0
M  V30 30282 O 4123.35 5.04231 3.47188 0
M  V30 30283 C 4121.22 6.19961 3.81809 0
M  V30 30284 H 4121.25 5.58218 4.73051 0
M  V30 30285 H 4122.43 6.21726 2.02589 0
M  V30 30286 H 4123.91 7.86112 2.9231 0
M  V30 30287 H 4122.22 9.11627 4.55076 0
M  V30 30288 H 4122.03 9.9573 2.34194 0
M  V30 30289 H 4120.4 9.2792 2.67832 0
M  V30 30290 H 4123.04 4.67702 4.28772 0
M  V30 30291 P 4124.9 7.39546 4.75277 0
M  V30 30292 O 4126.32 7.81777 5.05738 0
M  V30 30293 O 4124.54 7.1065 3.32998 0
M  V30 30294 O 4124.57 6.04542 5.56673 0
M  V30 30295 C 4124.41 6.22772 7.02095 0
M  V30 30296 C 4124.95 4.97725 7.70406 0
M  V30 30297 O 4123.9 4.13256 7.58987 0
M  V30 30298 C 4126.17 4.28231 7.11815 0
M  V30 30299 O 4126.91 3.49945 8.01648 0
M  V30 30300 C 4125.5 3.5063 5.96244 0
M  V30 30301 O 4126.3 2.36482 5.64681 0
M  V30 30302 C 4124.17 3.15122 6.56374 0
M  V30 30303 H 4124.2 2.13853 6.99751 0
M  V30 30304 H 4125.38 4.13501 5.06559 0
M  V30 30305 H 4126.86 5.03285 6.70911 0
M  V30 30306 H 4125.17 5.20877 8.75697 0
M  V30 30307 H 4124.98 7.11046 7.35349 0
M  V30 30308 H 4123.35 6.35815 7.26986 0
M  V30 30309 H 4125.99 1.61644 6.13565 0
M  V30 30310 P 4127.85 3.65191 7.99657 0
M  V30 30311 O 4129.27 3.8425 8.48115 0
M  V30 30312 O 4127.49 4.17805 6.64342 0
M  V30 30313 O 4127.52 2.07613 7.95143 0
M  V30 30314 C 4127.36 1.44328 9.27336 0
M  V30 30315 C 4127.9 0.0220036 9.17197 0
M  V30 30316 O 4126.85 -0.626867 8.61923 0
M  V30 30317 C 4129.12 -0.24586 8.30336 0
M  V30 30318 O 4129.86 -1.39011 8.63583 0
M  V30 30319 C 4128.45 -0.273849 6.91158 0
M  V30 30320 O 4129.25 -1.06348 6.02892 0
M  V30 30321 C 4127.12 -0.897649 7.22545 0
M  V30 30322 H 4127.15 -1.9841 7.04286 0
M  V30 30323 H 4128.33 0.739928 6.497 0
M  V30 30324 H 4129.82 0.60668 8.36503 0
M  V30 30325 H 4128.12 -0.352479 10.1829 0
M  V30 30326 H 4127.93 2.00611 10.0304 0
M  V30 30327 H 4126.3 1.41843 9.55327 0
M  V30 30328 H 4128.94 -1.95734 6.03555 0
M  V30 30329 P 4130.8 -1.25109 8.70152 0
M  V30 30330 O 4132.22 -1.35274 9.21221 0
M  V30 30331 O 4130.44 -0.0769065 7.84762 0
M  V30 30332 O 4130.47 -2.55232 7.81161 0
M  V30 30333 C 4130.31 -3.79939 8.58154 0
M  V30 30334 C 4130.85 -4.94023 7.72785 0
M  V30 30335 O 4129.8 -5.18726 6.91205 0
M  V30 30336 C 4132.07 -4.69597 6.85231 0
M  V30 30337 O 4132.81 -5.83832 6.51337 0
M  V30 30338 C 4131.4 -3.96706 5.66633 0
M  V30 30339 O 4132.2 -4.15414 4.49689 0
M  V30 30340 C 4130.07 -4.66153 5.59313 0
M  V30 30341 H 4130.1 -5.47679 4.85214 0
M  V30 30342 H 4131.28 -2.89008 5.86566 0
M  V30 30343 H 4132.77 -4.0121 7.36511 0
M  V30 30344 H 4131.07 -5.80182 8.37584 0
M  V30 30345 H 4130.88 -3.73517 9.52265 0
M  V30 30346 H 4129.25 -3.97163 8.80359 0
M  V30 30347 H 4131.89 -4.90969 4.01921 0
M  V30 30348 P 4133.75 -5.75688 6.64379 0
M  V30 30349 O 4135.17 -6.11849 7.01846 0
M  V30 30350 O 4133.39 -4.30744 6.56026 0
M  V30 30351 O 4133.43 -6.37042 5.19165 0
M  V30 30352 C 4133.27 -7.83578 5.16515 0
M  V30 30353 C 4133.81 -8.33398 3.83019 0
M  V30 30354 O 4132.75 -8.10074 3.01034 0
M  V30 30355 C 4135.02 -7.65514 3.2257 0
M  V30 30356 O 4135.76 -8.4329 2.32297 0
M  V30 30357 C 4134.35 -6.40075 2.62207 0
M  V30 30358 O 4135.15 -5.92589 1.53712 0
M  V30 30359 C 4133.02 -6.9454 2.18503 0
M  V30 30360 H 4133.05 -7.23063 1.12091 0
M  V30 30361 H 4134.23 -5.6025 3.37201 0
M  V30 30362 H 4135.72 -7.35707 4.02681 0
M  V30 30363 H 4134.02 -9.40912 3.9095 0
M  V30 30364 H 4133.83 -8.29056 5.99158 0
M  V30 30365 H 4132.2 -8.10073 5.25882 0
M  V30 30366 H 4134.84 -6.30324 0.726794 0
M  V30 30367 P 4136.7 -8.4349 2.47671 0
M  V30 30368 O 4138.12 -8.94359 2.59696 0
M  V30 30369 O 4136.34 -7.1704 3.19006 0
M  V30 30370 O 4136.38 -8.16596 0.923387 0
M  V30 30371 C 4136.22 -9.38437 0.108857 0
M  V30 30372 C 4136.76 -9.08076 -1.28339 0
M  V30 30373 O 4135.7 -8.44229 -1.84713 0
M  V30 30374 C 4137.97 -8.18386 -1.42505 0
M  V30 30375 O 4138.71 -8.3501 -2.60497 0
M  V30 30376 C 4137.31 -6.80225 -1.25468 0
M  V30 30377 O 4138.1 -5.81526 -1.91035 0
M  V30 30378 C 4135.97 -7.02416 -1.9168 0
M  V30 30379 N 4134.93 -6.31033 -1.20314 0
M  V30 30380 C 4134.99 -6.18781 0.121293 0
M  V30 30381 N 4133.94 -5.49762 0.588272 0
M  V30 30382 C 4133.21 -5.22015 -0.488988 0
M  V30 30383 C 4131.9 -4.61966 -0.596448 0
M  V30 30384 O 4131.17 -4.19162 0.309059 0
M  V30 30385 N 4131.47 -4.53773 -1.878 0
M  V30 30386 C 4132.22 -4.99623 -2.99082 0
M  V30 30387 N 4131.62 -4.78912 -4.21227 0
M  V30 30388 N 4133.37 -5.59957 -2.91093 0
M  V30 30389 C 4133.83 -5.70225 -1.64218 0
M  V30 30390 H 4136 -6.6888 -2.96621 0
M  V30 30391 H 4137.18 -6.53517 -0.192194 0
M  V30 30392 H 4138.67 -8.36563 -0.598329 0
M  V30 30393 H 4136.97 -10.0291 -1.79807 0
M  V30 30394 H 4136.78 -10.2138 0.558219 0
M  V30 30395 H 4135.15 -9.6579 0.0444202 0
M  V30 30396 H 4130.58 -4.12883 -2.05283 0
M  V30 30397 H 4135.78 -6.59596 0.745856 0
M  V30 30398 H 4130.71 -4.31425 -4.2628 0
M  V30 30399 H 4132.09 -5.11219 -5.07148 0
M  V30 30400 H 4137.79 -5.69466 -2.79593 0
M  V30 30401 P 4139.65 -8.4349 -2.47671 0
M  V30 30402 O 4141.07 -8.92593 -2.65 0
M  V30 30403 O 4139.29 -7.7568 -1.19296 0
M  V30 30404 O 4139.33 -7.36886 -3.63805 0
M  V30 30405 C 4139.17 -7.95349 -4.982 0
M  V30 30406 C 4139.71 -6.94612 -5.98974 0
M  V30 30407 O 4138.65 -6.10347 -6.11815 0
M  V30 30408 C 4140.92 -6.11426 -5.62335 0
M  V30 30409 O 4141.66 -5.6162 -6.70584 0
M  V30 30410 C 4140.26 -5.04409 -4.73308 0
M  V30 30411 O 4141.05 -3.85992 -4.75183 0
M  V30 30412 C 4138.92 -4.8728 -5.41006 0
M  V30 30413 H 4138.95 -4.02333 -6.11157 0
M  V30 30414 H 4140.13 -5.39466 -3.69543 0
M  V30 30415 H 4141.62 -6.71916 -5.01943 0
M  V30 30416 H 4139.92 -7.4649 -6.93477 0
M  V30 30417 H 4139.73 -8.89416 -5.05237 0
M  V30 30418 H 4138.1 -8.14876 -5.18409 0
M  V30 30419 H 4140.74 -3.27957 -5.4317 0
M  V30 30420 P 4142.6 -5.75688 -6.64379 0
M  V30 30421 O 4144.02 -6.07692 -7.0558 0
M  V30 30422 O 4142.24 -5.88047 -5.19722 0
M  V30 30423 O 4142.28 -4.2322 -7.04443 0
M  V30 30424 C 4142.12 -3.99785 -8.49201 0
M  V30 30425 C 4142.66 -2.60516 -8.79425 0
M  V30 30426 O 4141.6 -1.82663 -8.44573 0
M  V30 30427 C 4143.88 -2.10343 -8.03628 0
M  V30 30428 O 4144.61 -1.09919 -8.67766 0
M  V30 30429 C 4143.21 -1.68446 -6.70876 0
M  V30 30430 O 4144.01 -0.684109 -6.08265 0
M  V30 30431 C 4141.87 -1.17436 -7.18567 0
M  V30 30432 N 4140.83 -1.52699 -6.23988 0
M  V30 30433 C 4141 -2.578 -5.40574 0
M  V30 30434 N 4139.97 -2.78966 -4.61193 0
M  V30 30435 C 4139.08 -1.78725 -4.95769 0
M  V30 30436 C 4137.82 -1.45727 -4.44207 0
M  V30 30437 N 4137.25 -0.374977 -5.05812 0
M  V30 30438 C 4137.85 0.345585 -6.05615 0
M  V30 30439 N 4139.03 0.0787651 -6.56253 0
M  V30 30440 C 4139.61 -1.00499 -5.96189 0
M  V30 30441 H 4143.08 -2.53396 -6.02698 0
M  V30 30442 H 4144.57 -2.93881 -7.85526 0
M  V30 30443 H 4142.87 -2.52078 -9.87225 0
M  V30 30444 H 4142.68 -4.75072 -9.05887 0
M  V30 30445 H 4141.05 -4.05244 -8.76668 0
M  V30 30446 H 4141.9 -3.18977 -5.3945 0
M  V30 30447 H 4143.69 0.177619 -6.34151 0
M  V30 30448 P 4145.55 -1.25109 -8.70152 0
M  V30 30449 O 4146.97 -1.29744 -9.22016 0
M  V30 30450 O 4145.19 -2.13714 -7.55141 0
M  V30 30451 O 4145.23 0.248149 -8.21425 0
M  V30 30452 C 4145.07 1.22779 -9.30434 0
M  V30 30453 C 4145.61 2.56293 -8.80664 0
M  V30 30454 O 4144.55 3.02979 -8.09349 0
M  V30 30455 C 4146.83 2.57523 -7.89775 0
M  V30 30456 O 4147.56 3.7668 -7.89438 0
M  V30 30457 C 4146.16 2.20997 -6.55446 0
M  V30 30458 O 4146.96 2.71895 -5.48509 0
M  V30 30459 C 4144.82 2.89693 -6.67988 0
M  V30 30460 H 4144.85 3.88793 -6.19859 0
M  V30 30461 H 4146.03 1.12046 -6.44229 0
M  V30 30462 H 4147.52 1.7746 -8.19711 0
M  V30 30463 H 4145.82 3.20706 -9.67112 0
M  V30 30464 H 4145.63 0.901032 -10.1892 0
M  V30 30465 H 4144 1.33049 -9.56592 0
M  V30 30466 H 4146.64 3.57847 -5.23962 0
M  V30 30467 P 4148.5 3.65191 -7.99657 0
M  V30 30468 O 4149.92 3.89332 -8.45794 0
M  V30 30469 O 4148.14 2.28472 -7.50807 0
M  V30 30470 O 4148.18 4.64972 -6.77611 0
M  V30 30471 C 4148.02 6.06319 -7.16352 0
M  V30 30472 C 4148.56 6.91731 -6.02299 0
M  V30 30473 O 4147.5 6.92449 -5.17064 0
M  V30 30474 C 4149.78 6.43627 -5.25174 0
M  V30 30475 O 4150.51 7.43686 -4.60469 0
M  V30 30476 C 4149.11 5.40275 -4.31916 0
M  V30 30477 O 4149.91 5.25279 -3.14438 0
M  V30 30478 C 4147.77 6.04847 -4.05327 0
M  V30 30479 H 4147.8 6.62195 -3.11261 0
M  V30 30480 H 4148.99 4.42556 -4.81383 0
M  V30 30481 H 4150.47 5.92458 -5.93643 0
M  V30 30482 H 4148.78 7.92655 -6.402 0
M  V30 30483 H 4148.59 6.26671 -8.0846 0
M  V30 30484 H 4146.96 6.29101 -7.32804 0
M  V30 30485 H 4149.59 5.84315 -2.47318 0
M  V30 30486 P 4151.45 7.39546 -4.75277 0
M  V30 30487 O 4152.87 7.84798 -5.01039 0
M  V30 30488 O 4151.09 5.9812 -5.08098 0
M  V30 30489 O 4151.13 7.57503 -3.1866 0
M  V30 30490 C 4150.97 8.97357 -2.74833 0
M  V30 30491 C 4151.51 9.07548 -1.32709 0
M  V30 30492 O 4150.45 8.62072 -0.606159 0
M  V30 30493 C 4152.73 8.25383 -0.938334 0
M  V30 30494 O 4153.46 8.74577 0.146954 0
M  V30 30495 C 4152.06 6.8802 -0.712559 0
M  V30 30496 O 4152.86 6.1189 0.194655 0
M  V30 30497 C 4150.72 7.27966 -0.139777 0
M  V30 30498 H 4150.75 7.25354 0.961601 0
M  V30 30499 H 4151.94 6.32557 -1.65702 0
M  V30 30500 H 4153.42 8.19355 -1.79097 0
M  V30 30501 H 4151.73 10.1294 -1.10029 0
M  V30 30502 H 4151.54 9.64276 -3.41316 0
M  V30 30503 H 4149.91 9.25417 -2.76357 0
M  V30 30504 H 4152.54 6.25267 1.07847 0
M  V30 30505 P 4154.4 8.791 -2.18149e-10 0
M  V30 30506 O 4155.82 9.31096 0.027933 0
M  V30 30507 O 4154.04 7.77869 -1.04071 0
M  V30 30508 O 4154.08 8.09533 1.41463 0
M  V30 30509 C 4153.92 9.0349 2.53943 0
M  V30 30510 C 4154.46 8.35226 3.79016 0
M  V30 30511 O 4153.4 7.57992 4.15078 0
M  V30 30512 C 4155.68 7.45087 3.67298 0
M  V30 30513 O 4156.42 7.27796 4.85194 0
M  V30 30514 C 4155.01 6.17323 3.12027 0
M  V30 30515 O 4155.81 5.04231 3.47188 0
M  V30 30516 C 4153.67 6.19961 3.81809 0
M  V30 30517 H 4153.7 5.58218 4.73051 0
M  V30 30518 H 4154.89 6.21726 2.02589 0
M  V30 30519 H 4156.37 7.86112 2.9231 0
M  V30 30520 H 4154.68 9.11627 4.55076 0
M  V30 30521 H 4154.49 9.9573 2.34194 0
M  V30 30522 H 4152.86 9.2792 2.67832 0
M  V30 30523 H 4155.5 4.67702 4.28772 0
M  V30 30524 P 4157.35 7.39546 4.75277 0
M  V30 30525 O 4158.78 7.81777 5.05738 0
M  V30 30526 O 4156.99 7.1065 3.32998 0
M  V30 30527 O 4157.03 6.04542 5.56673 0
M  V30 30528 C 4156.87 6.22772 7.02095 0
M  V30 30529 C 4157.41 4.97725 7.70406 0
M  V30 30530 O 4156.35 4.13256 7.58987 0
M  V30 30531 C 4158.63 4.28231 7.11815 0
M  V30 30532 O 4159.37 3.49945 8.01648 0
M  V30 30533 C 4157.96 3.5063 5.96244 0
M  V30 30534 O 4158.76 2.36482 5.64681 0
M  V30 30535 C 4156.62 3.15122 6.56374 0
M  V30 30536 H 4156.65 2.13853 6.99751 0
M  V30 30537 H 4157.84 4.13501 5.06559 0
M  V30 30538 H 4159.32 5.03285 6.70911 0
M  V30 30539 H 4157.63 5.20877 8.75697 0
M  V30 30540 H 4157.44 7.11046 7.35349 0
M  V30 30541 H 4155.81 6.35815 7.26986 0
M  V30 30542 H 4158.45 1.61644 6.13565 0
M  V30 30543 P 4160.3 3.65191 7.99657 0
M  V30 30544 O 4161.73 3.8425 8.48115 0
M  V30 30545 O 4159.94 4.17805 6.64342 0
M  V30 30546 O 4159.98 2.07613 7.95143 0
M  V30 30547 C 4159.82 1.44328 9.27336 0
M  V30 30548 C 4160.36 0.0220036 9.17197 0
M  V30 30549 O 4159.3 -0.626867 8.61923 0
M  V30 30550 C 4161.58 -0.24586 8.30336 0
M  V30 30551 O 4162.32 -1.39011 8.63583 0
M  V30 30552 C 4160.91 -0.273849 6.91158 0
M  V30 30553 O 4161.71 -1.06348 6.02892 0
M  V30 30554 C 4159.57 -0.897649 7.22545 0
M  V30 30555 H 4159.6 -1.9841 7.04286 0
M  V30 30556 H 4160.79 0.739928 6.497 0
M  V30 30557 H 4162.27 0.60668 8.36503 0
M  V30 30558 H 4160.58 -0.352479 10.1829 0
M  V30 30559 H 4160.39 2.00611 10.0304 0
M  V30 30560 H 4158.76 1.41843 9.55327 0
M  V30 30561 H 4161.4 -1.95734 6.03555 0
M  V30 30562 P 4163.25 -1.25109 8.70152 0
M  V30 30563 O 4164.68 -1.35274 9.21221 0
M  V30 30564 O 4162.89 -0.0769065 7.84762 0
M  V30 30565 O 4162.93 -2.55232 7.81161 0
M  V30 30566 C 4162.77 -3.79939 8.58154 0
M  V30 30567 C 4163.31 -4.94023 7.72785 0
M  V30 30568 O 4162.26 -5.18726 6.91205 0
M  V30 30569 C 4164.53 -4.69597 6.85231 0
M  V30 30570 O 4165.27 -5.83832 6.51337 0
M  V30 30571 C 4163.86 -3.96706 5.66633 0
M  V30 30572 O 4164.66 -4.15414 4.49689 0
M  V30 30573 C 4162.52 -4.66153 5.59313 0
M  V30 30574 H 4162.56 -5.47679 4.85214 0
M  V30 30575 H 4163.74 -2.89008 5.86566 0
M  V30 30576 H 4165.22 -4.0121 7.36511 0
M  V30 30577 H 4163.53 -5.80182 8.37584 0
M  V30 30578 H 4163.34 -3.73517 9.52265 0
M  V30 30579 H 4161.71 -3.97163 8.80359 0
M  V30 30580 H 4164.35 -4.90969 4.01921 0
M  V30 30581 P 4166.2 -5.75688 6.64379 0
M  V30 30582 O 4167.63 -6.11849 7.01846 0
M  V30 30583 O 4165.84 -4.30744 6.56026 0
M  V30 30584 O 4165.88 -6.37042 5.19165 0
M  V30 30585 C 4165.72 -7.83578 5.16515 0
M  V30 30586 C 4166.26 -8.33398 3.83019 0
M  V30 30587 O 4165.21 -8.10074 3.01034 0
M  V30 30588 C 4167.48 -7.65514 3.2257 0
M  V30 30589 O 4168.22 -8.4329 2.32297 0
M  V30 30590 C 4166.81 -6.40075 2.62207 0
M  V30 30591 O 4167.61 -5.92589 1.53712 0
M  V30 30592 C 4165.47 -6.9454 2.18503 0
M  V30 30593 H 4165.51 -7.23063 1.12091 0
M  V30 30594 H 4166.69 -5.6025 3.37201 0
M  V30 30595 H 4168.17 -7.35707 4.02681 0
M  V30 30596 H 4166.48 -9.40912 3.9095 0
M  V30 30597 H 4166.29 -8.29056 5.99158 0
M  V30 30598 H 4164.66 -8.10073 5.25882 0
M  V30 30599 H 4167.3 -6.30324 0.726794 0
M  V30 30600 P 4169.16 -8.4349 2.47671 0
M  V30 30601 O 4170.58 -8.94167 2.5964 0
M  V30 30602 O 4168.8 -7.1704 3.19006 0
M  V30 30603 O 4168.83 -8.16596 0.923387 0
M  V30 30604 C 4168.67 -9.38437 0.108857 0
M  V30 30605 C 4169.21 -9.08175 -1.28353 0
M  V30 30606 O 4168.16 -8.44229 -1.84713 0
M  V30 30607 C 4170.43 -8.18386 -1.42505 0
M  V30 30608 O 4171.17 -8.3501 -2.60497 0
M  V30 30609 C 4169.76 -6.80225 -1.25468 0
M  V30 30610 O 4170.56 -5.81621 -1.91066 0
M  V30 30611 C 4168.42 -7.02416 -1.9168 0
M  V30 30612 H 4168.46 -6.6888 -2.96621 0
M  V30 30613 H 4169.64 -6.53617 -0.192223 0
M  V30 30614 H 4171.12 -8.36622 -0.589963 0
M  V30 30615 H 4169.43 -10.0291 -1.79807 0
M  V30 30616 H 4169.24 -10.2138 0.558219 0
M  V30 30617 H 4167.61 -9.6579 0.0444202 0
M  V30 30618 H 4170.25 -5.69556 -2.79637 0
M  V30 30619 P 4172.11 -8.4349 -2.47671 0
M  V30 30620 O 4173.53 -8.92689 -2.65029 0
M  V30 30621 O 4171.75 -7.7568 -1.19296 0
M  V30 30622 O 4171.78 -7.36886 -3.63805 0
M  V30 30623 C 4171.62 -7.95433 -4.98253 0
M  V30 30624 C 4172.16 -6.94612 -5.98974 0
M  V30 30625 O 4171.11 -6.10277 -6.11744 0
M  V30 30626 C 4173.38 -6.11426 -5.62335 0
M  V30 30627 O 4174.12 -5.6162 -6.70584 0
M  V30 30628 C 4172.71 -5.04409 -4.73308 0
M  V30 30629 O 4173.51 -3.86404 -4.74719 0
M  V30 30630 C 4171.37 -4.8728 -5.41006 0
M  V30 30631 N 4170.33 -4.65812 -4.42377 0
M  V30 30632 C 4170.5 -5.09132 -3.15382 0
M  V30 30633 N 4169.47 -4.84021 -2.3716 0
M  V30 30634 C 4168.59 -4.18386 -3.20441 0
M  V30 30635 C 4167.32 -3.6275 -2.94905 0
M  V30 30636 N 4166.76 -3.05008 -4.05243 0
M  V30 30637 C 4167.36 -2.98348 -5.28159 0
M  V30 30638 N 4168.54 -3.48171 -5.56333 0
M  V30 30639 C 4169.11 -4.06869 -4.47212 0
M  V30 30640 H 4172.59 -5.39013 -3.70026 0
M  V30 30641 H 4174.07 -6.71916 -5.01943 0
M  V30 30642 H 4172.38 -7.45796 -6.94223 0
M  V30 30643 H 4172.19 -8.89416 -5.05237 0
M  V30 30644 H 4170.56 -8.14876 -5.18409 0
M  V30 30645 H 4171.4 -5.59989 -2.81362 0
M  V30 30646 H 4173.2 -3.27906 -5.43085 0
M  V30 30647 P 4175.06 -5.75688 -6.64379 0
M  V30 30648 O 4176.48 -6.07627 -7.05504 0
M  V30 30649 O 4174.7 -5.88047 -5.19722 0
M  V30 30650 O 4174.73 -4.2322 -7.04443 0
M  V30 30651 C 4174.57 -3.99743 -8.4911 0
M  V30 30652 C 4175.11 -2.60516 -8.79425 0
M  V30 30653 O 4174.06 -1.82684 -8.4467 0
M  V30 30654 C 4176.33 -2.10343 -8.03628 0
M  V30 30655 O 4177.07 -1.09919 -8.67766 0
M  V30 30656 C 4175.66 -1.68446 -6.70876 0
M  V30 30657 O 4176.46 -0.678137 -6.08433 0
M  V30 30658 C 4174.33 -1.17436 -7.18567 0
M  V30 30659 H 4174.36 -0.0804732 -7.31656 0
M  V30 30660 H 4175.54 -2.54037 -6.02537 0
M  V30 30661 H 4177.02 -2.93881 -7.85526 0
M  V30 30662 H 4175.33 -2.53065 -9.86973 0
M  V30 30663 H 4175.14 -4.75072 -9.05887 0
M  V30 30664 H 4173.51 -4.05244 -8.76668 0
M  V30 30665 H 4176.15 0.177647 -6.34251 0
M  V30 30666 P 4178.01 -1.25109 -8.70152 0
M  V30 30667 O 4179.43 -1.29744 -9.22016 0
M  V30 30668 O 4177.65 -2.13714 -7.55141 0
M  V30 30669 O 4177.68 0.248149 -8.21425 0
M  V30 30670 C 4177.52 1.22779 -9.30434 0
M  V30 30671 C 4178.06 2.56293 -8.80664 0
M  V30 30672 O 4177.01 3.02979 -8.09349 0
M  V30 30673 C 4179.28 2.57523 -7.89775 0
M  V30 30674 O 4180.02 3.7668 -7.89438 0
M  V30 30675 C 4178.61 2.20997 -6.55446 0
M  V30 30676 O 4179.41 2.71895 -5.48509 0
M  V30 30677 C 4177.28 2.89693 -6.67988 0
M  V30 30678 H 4177.31 3.88793 -6.19859 0
M  V30 30679 H 4178.49 1.12046 -6.44229 0
M  V30 30680 H 4179.98 1.7746 -8.19711 0
M  V30 30681 H 4178.28 3.20706 -9.67112 0
M  V30 30682 H 4178.09 0.901032 -10.1892 0
M  V30 30683 H 4176.46 1.33049 -9.56592 0
M  V30 30684 H 4179.1 3.57847 -5.23962 0
M  V30 30685 P 4180.96 3.65191 -7.99657 0
M  V30 30686 O 4182.38 3.89332 -8.45794 0
M  V30 30687 O 4180.6 2.28472 -7.50807 0
M  V30 30688 O 4180.63 4.64972 -6.77611 0
M  V30 30689 C 4180.47 6.06319 -7.16352 0
M  V30 30690 C 4181.01 6.91731 -6.02299 0
M  V30 30691 O 4179.96 6.92449 -5.17064 0
M  V30 30692 C 4182.23 6.43627 -5.25174 0
M  V30 30693 O 4182.97 7.43686 -4.60469 0
M  V30 30694 C 4181.56 5.40275 -4.31916 0
M  V30 30695 O 4182.36 5.25279 -3.14438 0
M  V30 30696 C 4180.23 6.04847 -4.05327 0
M  V30 30697 H 4180.26 6.62195 -3.11261 0
M  V30 30698 H 4181.44 4.42556 -4.81383 0
M  V30 30699 H 4182.93 5.92458 -5.93643 0
M  V30 30700 H 4181.23 7.92655 -6.402 0
M  V30 30701 H 4181.04 6.26671 -8.0846 0
M  V30 30702 H 4179.41 6.29101 -7.32804 0
M  V30 30703 H 4182.05 5.84315 -2.47318 0
M  V30 30704 P 4183.91 7.39546 -4.75277 0
M  V30 30705 O 4185.33 7.84798 -5.01039 0
M  V30 30706 O 4183.55 5.9812 -5.08098 0
M  V30 30707 O 4183.59 7.57503 -3.1866 0
M  V30 30708 C 4183.43 8.97357 -2.74833 0
M  V30 30709 C 4183.97 9.07548 -1.32709 0
M  V30 30710 O 4182.91 8.62072 -0.606159 0
M  V30 30711 C 4185.18 8.25383 -0.938334 0
M  V30 30712 O 4185.92 8.74577 0.146954 0
M  V30 30713 C 4184.51 6.8802 -0.712559 0
M  V30 30714 O 4185.31 6.1189 0.194655 0
M  V30 30715 C 4183.18 7.27966 -0.139777 0
M  V30 30716 H 4183.21 7.25354 0.961601 0
M  V30 30717 H 4184.39 6.32557 -1.65702 0
M  V30 30718 H 4185.88 8.19355 -1.79097 0
M  V30 30719 H 4184.18 10.1294 -1.10029 0
M  V30 30720 H 4183.99 9.64276 -3.41316 0
M  V30 30721 H 4182.36 9.25417 -2.76357 0
M  V30 30722 H 4185 6.25267 1.07847 0
M  V30 30723 P 4186.86 8.791 -2.23336e-10 0
M  V30 30724 O 4188.28 9.31096 0.027933 0
M  V30 30725 O 4186.5 7.77869 -1.04071 0
M  V30 30726 O 4186.54 8.09533 1.41463 0
M  V30 30727 C 4186.38 9.0349 2.53943 0
M  V30 30728 C 4186.92 8.35226 3.79016 0
M  V30 30729 O 4185.86 7.57992 4.15078 0
M  V30 30730 C 4188.13 7.45087 3.67298 0
M  V30 30731 O 4188.87 7.27796 4.85194 0
M  V30 30732 C 4187.46 6.17323 3.12027 0
M  V30 30733 O 4188.26 5.04231 3.47188 0
M  V30 30734 C 4186.13 6.19961 3.81809 0
M  V30 30735 H 4186.16 5.58218 4.73051 0
M  V30 30736 H 4187.34 6.21726 2.02589 0
M  V30 30737 H 4188.83 7.86112 2.9231 0
M  V30 30738 H 4187.13 9.11627 4.55076 0
M  V30 30739 H 4186.94 9.9573 2.34194 0
M  V30 30740 H 4185.31 9.2792 2.67832 0
M  V30 30741 H 4187.95 4.67702 4.28772 0
M  V30 30742 P 4189.81 7.39546 4.75277 0
M  V30 30743 O 4191.23 7.81945 5.05847 0
M  V30 30744 O 4189.45 7.1065 3.32998 0
M  V30 30745 O 4189.49 6.04542 5.56673 0
M  V30 30746 C 4189.33 6.22772 7.02095 0
M  V30 30747 C 4189.87 4.97671 7.70322 0
M  V30 30748 O 4188.81 4.13256 7.58987 0
M  V30 30749 C 4191.08 4.28231 7.11815 0
M  V30 30750 O 4191.82 3.49945 8.01648 0
M  V30 30751 C 4190.42 3.5063 5.96244 0
M  V30 30752 O 4191.21 2.36443 5.64589 0
M  V30 30753 C 4189.08 3.15122 6.56374 0
M  V30 30754 N 4188.04 3.22311 5.55692 0
M  V30 30755 C 4188.1 4.14382 4.59701 0
M  V30 30756 N 4187.05 4.04476 3.76958 0
M  V30 30757 C 4186.32 3.04892 4.26534 0
M  V30 30758 C 4185.01 2.57447 3.88189 0
M  V30 30759 O 4184.28 2.9785 2.96543 0
M  V30 30760 N 4184.58 1.55228 4.65922 0
M  V30 30761 C 4185.33 1.01152 5.73447 0
M  V30 30762 N 4184.73 -0.0472117 6.37783 0
M  V30 30763 N 4186.48 1.467 6.13813 0
M  V30 30764 C 4186.94 2.4931 5.38487 0
M  V30 30765 H 4189.11 2.13853 6.99751 0
M  V30 30766 H 4190.29 4.13438 5.06482 0
M  V30 30767 H 4191.78 5.02614 6.71414 0
M  V30 30768 H 4190.08 5.20877 8.75697 0
M  V30 30769 H 4189.89 7.11046 7.35349 0
M  V30 30770 H 4188.26 6.35815 7.26986 0
M  V30 30771 H 4183.69 1.15238 4.46468 0
M  V30 30772 H 4188.89 4.88312 4.49647 0
M  V30 30773 H 4183.82 -0.396382 6.05203 0
M  V30 30774 H 4185.2 -0.484997 7.18465 0
M  V30 30775 H 4190.9 1.61619 6.13468 0
M  V30 30776 P 4192.76 3.65191 7.99657 0
M  V30 30777 O 4194.18 3.8425 8.48115 0
M  V30 30778 O 4192.4 4.17805 6.64342 0
M  V30 30779 O 4192.44 2.07613 7.95143 0
M  V30 30780 C 4192.28 1.44328 9.27336 0
M  V30 30781 C 4192.82 0.0220036 9.17197 0
M  V30 30782 O 4191.76 -0.626867 8.61923 0
M  V30 30783 C 4194.03 -0.24586 8.30336 0
M  V30 30784 O 4194.77 -1.39011 8.63583 0
M  V30 30785 C 4193.37 -0.273849 6.91158 0
M  V30 30786 O 4194.16 -1.06348 6.02892 0
M  V30 30787 C 4192.03 -0.897649 7.22545 0
M  V30 30788 H 4192.06 -1.9841 7.04286 0
M  V30 30789 H 4193.24 0.739928 6.497 0
M  V30 30790 H 4194.73 0.60668 8.36503 0
M  V30 30791 H 4193.03 -0.352479 10.1829 0
M  V30 30792 H 4192.84 2.00611 10.0304 0
M  V30 30793 H 4191.21 1.41843 9.55327 0
M  V30 30794 H 4193.85 -1.95734 6.03555 0
M  V30 30795 P 4195.71 -1.25109 8.70152 0
M  V30 30796 O 4197.13 -1.35274 9.21221 0
M  V30 30797 O 4195.35 -0.0769065 7.84762 0
M  V30 30798 O 4195.39 -2.55232 7.81161 0
M  V30 30799 C 4195.23 -3.79939 8.58154 0
M  V30 30800 C 4195.77 -4.94023 7.72785 0
M  V30 30801 O 4194.71 -5.18726 6.91205 0
M  V30 30802 C 4196.99 -4.69597 6.85231 0
M  V30 30803 O 4197.72 -5.83832 6.51337 0
M  V30 30804 C 4196.32 -3.96706 5.66633 0
M  V30 30805 O 4197.12 -4.15414 4.49689 0
M  V30 30806 C 4194.98 -4.66153 5.59313 0
M  V30 30807 H 4195.01 -5.47679 4.85214 0
M  V30 30808 H 4196.19 -2.89008 5.86566 0
M  V30 30809 H 4197.68 -4.0121 7.36511 0
M  V30 30810 H 4195.98 -5.80182 8.37584 0
M  V30 30811 H 4195.79 -3.73517 9.52265 0
M  V30 30812 H 4194.16 -3.97163 8.80359 0
M  V30 30813 H 4196.8 -4.90969 4.01921 0
M  V30 30814 P 4198.66 -5.75688 6.64379 0
M  V30 30815 O 4200.08 -6.11849 7.01846 0
M  V30 30816 O 4198.3 -4.30744 6.56026 0
M  V30 30817 O 4198.34 -6.37042 5.19165 0
M  V30 30818 C 4198.18 -7.83578 5.16515 0
M  V30 30819 C 4198.72 -8.33398 3.83019 0
M  V30 30820 O 4197.66 -8.10074 3.01034 0
M  V30 30821 C 4199.94 -7.65514 3.2257 0
M  V30 30822 O 4200.67 -8.4329 2.32297 0
M  V30 30823 C 4199.27 -6.40075 2.62207 0
M  V30 30824 O 4200.07 -5.92589 1.53712 0
M  V30 30825 C 4197.93 -6.9454 2.18503 0
M  V30 30826 H 4197.96 -7.23063 1.12091 0
M  V30 30827 H 4199.15 -5.6025 3.37201 0
M  V30 30828 H 4200.63 -7.35707 4.02681 0
M  V30 30829 H 4198.94 -9.40912 3.9095 0
M  V30 30830 H 4198.75 -8.29056 5.99158 0
M  V30 30831 H 4197.12 -8.10073 5.25882 0
M  V30 30832 H 4199.75 -6.30324 0.726794 0
M  V30 30833 P 4201.61 -8.4349 2.47671 0
M  V30 30834 O 4203.03 -8.94263 2.59668 0
M  V30 30835 O 4201.25 -7.1704 3.19006 0
M  V30 30836 O 4201.29 -8.16596 0.923387 0
M  V30 30837 C 4201.13 -9.38537 0.108869 0
M  V30 30838 C 4201.67 -9.08175 -1.28353 0
M  V30 30839 O 4200.61 -8.44131 -1.84692 0
M  V30 30840 C 4202.89 -8.18386 -1.42505 0
M  V30 30841 O 4203.62 -8.3501 -2.60497 0
M  V30 30842 C 4202.22 -6.80225 -1.25468 0
M  V30 30843 O 4203.02 -5.81716 -1.90454 0
M  V30 30844 C 4200.88 -7.02416 -1.9168 0
M  V30 30845 N 4199.84 -6.31033 -1.20314 0
M  V30 30846 C 4200.01 -5.98817 0.0994088 0
M  V30 30847 N 4198.98 -5.35403 0.621694 0
M  V30 30848 C 4198.09 -5.25212 -0.43376 0
M  V30 30849 C 4196.83 -4.64602 -0.519722 0
M  V30 30850 N 4196.23 -4.01457 0.519136 0
M  V30 30851 N 4196.26 -4.7568 -1.76013 0
M  V30 30852 C 4196.86 -5.3653 -2.83017 0
M  V30 30853 N 4198.04 -5.93676 -2.79782 0
M  V30 30854 C 4198.62 -5.84061 -1.56249 0
M  V30 30855 H 4200.91 -6.68789 -2.9658 0
M  V30 30856 H 4202.1 -6.53498 -0.198729 0
M  V30 30857 H 4203.58 -8.36622 -0.589963 0
M  V30 30858 H 4201.88 -10.0273 -1.8081 0
M  V30 30859 H 4201.69 -10.2138 0.558219 0
M  V30 30860 H 4200.06 -9.6579 0.0444202 0
M  V30 30861 H 4196.33 -5.37113 -3.77321 0
M  V30 30862 H 4200.91 -6.23209 0.660562 0
M  V30 30863 H 4195.3 -3.58834 0.394862 0
M  V30 30864 H 4196.7 -3.96059 1.43048 0
M  V30 30865 H 4202.7 -5.69466 -2.79593 0
M  V30 30866 P 4204.56 -8.4349 -2.47671 0
M  V30 30867 O 4205.98 -8.92593 -2.65 0
M  V30 30868 O 4204.2 -7.7568 -1.19296 0
M  V30 30869 O 4204.24 -7.36886 -3.63805 0
M  V30 30870 C 4204.08 -7.95349 -4.982 0
M  V30 30871 C 4204.62 -6.94612 -5.98974 0
M  V30 30872 O 4203.56 -6.10347 -6.11815 0
M  V30 30873 C 4205.84 -6.11426 -5.62335 0
M  V30 30874 O 4206.58 -5.6162 -6.70584 0
M  V30 30875 C 4205.17 -5.04409 -4.73308 0
M  V30 30876 O 4205.97 -3.85992 -4.75183 0
M  V30 30877 C 4203.83 -4.8728 -5.41006 0
M  V30 30878 H 4203.86 -4.02333 -6.11157 0
M  V30 30879 H 4205.05 -5.39466 -3.69543 0
M  V30 30880 H 4206.53 -6.71916 -5.01943 0
M  V30 30881 H 4204.84 -7.4649 -6.93477 0
M  V30 30882 H 4204.65 -8.89416 -5.05237 0
M  V30 30883 H 4203.02 -8.14876 -5.18409 0
M  V30 30884 H 4205.66 -3.27957 -5.4317 0
M  V30 30885 P 4207.51 -5.75688 -6.64379 0
M  V30 30886 O 4208.93 -6.07627 -7.05504 0
M  V30 30887 O 4207.15 -5.88047 -5.19722 0
M  V30 30888 O 4207.19 -4.2322 -7.04443 0
M  V30 30889 C 4207.03 -3.99743 -8.4911 0
M  V30 30890 C 4207.57 -2.60516 -8.79425 0
M  V30 30891 O 4206.51 -1.82684 -8.4467 0
M  V30 30892 C 4208.79 -2.10343 -8.03628 0
M  V30 30893 O 4209.53 -1.09919 -8.67766 0
M  V30 30894 C 4208.12 -1.68446 -6.70876 0
M  V30 30895 O 4208.92 -0.678137 -6.08433 0
M  V30 30896 C 4206.78 -1.17436 -7.18567 0
M  V30 30897 H 4206.81 -0.0804732 -7.31656 0
M  V30 30898 H 4208 -2.54037 -6.02537 0
M  V30 30899 H 4209.48 -2.93881 -7.85526 0
M  V30 30900 H 4207.79 -2.53065 -9.86973 0
M  V30 30901 H 4207.6 -4.75072 -9.05887 0
M  V30 30902 H 4205.97 -4.05244 -8.76668 0
M  V30 30903 H 4208.61 0.177647 -6.34251 0
M  V30 30904 P 4210.46 -1.25109 -8.70152 0
M  V30 30905 O 4211.89 -1.29744 -9.22016 0
M  V30 30906 O 4210.1 -2.13714 -7.55141 0
M  V30 30907 O 4210.14 0.248149 -8.21425 0
M  V30 30908 C 4209.98 1.22779 -9.30434 0
M  V30 30909 C 4210.52 2.56293 -8.80664 0
M  V30 30910 O 4209.46 3.02979 -8.09349 0
M  V30 30911 C 4211.74 2.57523 -7.89775 0
M  V30 30912 O 4212.48 3.7668 -7.89438 0
M  V30 30913 C 4211.07 2.20997 -6.55446 0
M  V30 30914 O 4211.87 2.71895 -5.48509 0
M  V30 30915 C 4209.73 2.89693 -6.67988 0
M  V30 30916 H 4209.76 3.88793 -6.19859 0
M  V30 30917 H 4210.95 1.12046 -6.44229 0
M  V30 30918 H 4212.43 1.7746 -8.19711 0
M  V30 30919 H 4210.74 3.20706 -9.67112 0
M  V30 30920 H 4210.55 0.901032 -10.1892 0
M  V30 30921 H 4208.92 1.33049 -9.56592 0
M  V30 30922 H 4211.56 3.57847 -5.23962 0
M  V30 30923 P 4213.41 3.65191 -7.99657 0
M  V30 30924 O 4214.84 3.89332 -8.45794 0
M  V30 30925 O 4213.05 2.28472 -7.50807 0
M  V30 30926 O 4213.09 4.64972 -6.77611 0
M  V30 30927 C 4212.93 6.06319 -7.16352 0
M  V30 30928 C 4213.47 6.91731 -6.02299 0
M  V30 30929 O 4212.41 6.92449 -5.17064 0
M  V30 30930 C 4214.69 6.43627 -5.25174 0
M  V30 30931 O 4215.43 7.43686 -4.60469 0
M  V30 30932 C 4214.02 5.40275 -4.31916 0
M  V30 30933 O 4214.82 5.25279 -3.14438 0
M  V30 30934 C 4212.68 6.04847 -4.05327 0
M  V30 30935 H 4212.71 6.62195 -3.11261 0
M  V30 30936 H 4213.9 4.42556 -4.81383 0
M  V30 30937 H 4215.38 5.92458 -5.93643 0
M  V30 30938 H 4213.69 7.92655 -6.402 0
M  V30 30939 H 4213.5 6.26671 -8.0846 0
M  V30 30940 H 4211.87 6.29101 -7.32804 0
M  V30 30941 H 4214.51 5.84315 -2.47318 0
M  V30 30942 P 4216.36 7.39546 -4.75277 0
M  V30 30943 O 4217.79 7.84798 -5.01039 0
M  V30 30944 O 4216 5.9812 -5.08098 0
M  V30 30945 O 4216.04 7.57503 -3.1866 0
M  V30 30946 C 4215.88 8.97357 -2.74833 0
M  V30 30947 C 4216.42 9.07548 -1.32709 0
M  V30 30948 O 4215.37 8.62072 -0.606159 0
M  V30 30949 C 4217.64 8.25383 -0.938334 0
M  V30 30950 O 4218.38 8.74577 0.146954 0
M  V30 30951 C 4216.97 6.8802 -0.712559 0
M  V30 30952 O 4217.77 6.1189 0.194655 0
M  V30 30953 C 4215.63 7.27966 -0.139777 0
M  V30 30954 H 4215.67 7.25354 0.961601 0
M  V30 30955 H 4216.85 6.32557 -1.65702 0
M  V30 30956 H 4218.33 8.19355 -1.79097 0
M  V30 30957 H 4216.64 10.1294 -1.10029 0
M  V30 30958 H 4216.45 9.64276 -3.41316 0
M  V30 30959 H 4214.82 9.25417 -2.76357 0
M  V30 30960 H 4217.46 6.25267 1.07847 0
M  V30 30961 P 4219.32 8.791 -2.28523e-10 0
M  V30 30962 O 4220.74 9.31096 0.027933 0
M  V30 30963 O 4218.96 7.77869 -1.04071 0
M  V30 30964 O 4218.99 8.09533 1.41463 0
M  V30 30965 C 4218.83 9.0349 2.53943 0
M  V30 30966 C 4219.37 8.35226 3.79016 0
M  V30 30967 O 4218.32 7.57992 4.15078 0
M  V30 30968 C 4220.59 7.45087 3.67298 0
M  V30 30969 O 4221.33 7.27796 4.85194 0
M  V30 30970 C 4219.92 6.17323 3.12027 0
M  V30 30971 O 4220.72 5.04231 3.47188 0
M  V30 30972 C 4218.58 6.19961 3.81809 0
M  V30 30973 H 4218.62 5.58218 4.73051 0
M  V30 30974 H 4219.8 6.21726 2.02589 0
M  V30 30975 H 4221.28 7.86112 2.9231 0
M  V30 30976 H 4219.59 9.11627 4.55076 0
M  V30 30977 H 4219.4 9.9573 2.34194 0
M  V30 30978 H 4217.77 9.2792 2.67832 0
M  V30 30979 H 4220.41 4.67702 4.28772 0
M  V30 30980 P 4222.27 7.39546 4.75277 0
M  V30 30981 O 4223.69 7.81777 5.05738 0
M  V30 30982 O 4221.91 7.1065 3.32998 0
M  V30 30983 O 4221.94 6.04542 5.56673 0
M  V30 30984 C 4221.78 6.22772 7.02095 0
M  V30 30985 C 4222.32 4.97725 7.70406 0
M  V30 30986 O 4221.27 4.13256 7.58987 0
M  V30 30987 C 4223.54 4.28231 7.11815 0
M  V30 30988 O 4224.28 3.49945 8.01648 0
M  V30 30989 C 4222.87 3.5063 5.96244 0
M  V30 30990 O 4223.67 2.36482 5.64681 0
M  V30 30991 C 4221.53 3.15122 6.56374 0
M  V30 30992 H 4221.57 2.13853 6.99751 0
M  V30 30993 H 4222.75 4.13501 5.06559 0
M  V30 30994 H 4224.23 5.03285 6.70911 0
M  V30 30995 H 4222.54 5.20877 8.75697 0
M  V30 30996 H 4222.35 7.11046 7.35349 0
M  V30 30997 H 4220.72 6.35815 7.26986 0
M  V30 30998 H 4223.36 1.61644 6.13565 0
M  V30 30999 P 4225.22 3.65191 7.99657 0
M  V30 31000 O 4226.64 3.8425 8.48115 0
M  V30 31001 O 4224.86 4.17805 6.64342 0
M  V30 31002 O 4224.89 2.07613 7.95143 0
M  V30 31003 C 4224.73 1.44328 9.27336 0
M  V30 31004 C 4225.27 0.0220036 9.17197 0
M  V30 31005 O 4224.22 -0.626867 8.61923 0
M  V30 31006 C 4226.49 -0.24586 8.30336 0
M  V30 31007 O 4227.23 -1.39011 8.63583 0
M  V30 31008 C 4225.82 -0.273849 6.91158 0
M  V30 31009 O 4226.62 -1.06348 6.02892 0
M  V30 31010 C 4224.49 -0.897649 7.22545 0
M  V30 31011 H 4224.52 -1.9841 7.04286 0
M  V30 31012 H 4225.7 0.739928 6.497 0
M  V30 31013 H 4227.18 0.60668 8.36503 0
M  V30 31014 H 4225.49 -0.352479 10.1829 0
M  V30 31015 H 4225.3 2.00611 10.0304 0
M  V30 31016 H 4223.67 1.41843 9.55327 0
M  V30 31017 H 4226.31 -1.95734 6.03555 0
M  V30 31018 P 4228.17 -1.25109 8.70152 0
M  V30 31019 O 4229.59 -1.35274 9.21221 0
M  V30 31020 O 4227.81 -0.0769065 7.84762 0
M  V30 31021 O 4227.84 -2.55232 7.81161 0
M  V30 31022 C 4227.68 -3.79939 8.58154 0
M  V30 31023 C 4228.22 -4.94023 7.72785 0
M  V30 31024 O 4227.17 -5.18726 6.91205 0
M  V30 31025 C 4229.44 -4.69597 6.85231 0
M  V30 31026 O 4230.18 -5.83832 6.51337 0
M  V30 31027 C 4228.77 -3.96706 5.66633 0
M  V30 31028 O 4229.57 -4.15414 4.49689 0
M  V30 31029 C 4227.44 -4.66153 5.59313 0
M  V30 31030 H 4227.47 -5.47679 4.85214 0
M  V30 31031 H 4228.65 -2.89008 5.86566 0
M  V30 31032 H 4230.13 -4.0121 7.36511 0
M  V30 31033 H 4228.44 -5.80182 8.37584 0
M  V30 31034 H 4228.25 -3.73517 9.52265 0
M  V30 31035 H 4226.62 -3.97163 8.80359 0
M  V30 31036 H 4229.26 -4.90969 4.01921 0
M  V30 31037 P 4231.12 -5.75688 6.64379 0
M  V30 31038 O 4232.54 -6.11849 7.01846 0
M  V30 31039 O 4230.76 -4.30744 6.56026 0
M  V30 31040 O 4230.79 -6.37042 5.19165 0
M  V30 31041 C 4230.63 -7.83578 5.16515 0
M  V30 31042 C 4231.17 -8.33398 3.83019 0
M  V30 31043 O 4230.12 -8.10074 3.01034 0
M  V30 31044 C 4232.39 -7.65514 3.2257 0
M  V30 31045 O 4233.13 -8.4329 2.32297 0
M  V30 31046 C 4231.72 -6.40075 2.62207 0
M  V30 31047 O 4232.52 -5.92589 1.53712 0
M  V30 31048 C 4230.39 -6.9454 2.18503 0
M  V30 31049 H 4230.42 -7.23063 1.12091 0
M  V30 31050 H 4231.6 -5.6025 3.37201 0
M  V30 31051 H 4233.09 -7.35707 4.02681 0
M  V30 31052 H 4231.39 -9.40912 3.9095 0
M  V30 31053 H 4231.2 -8.29056 5.99158 0
M  V30 31054 H 4229.57 -8.10073 5.25882 0
M  V30 31055 H 4232.21 -6.30324 0.726794 0
M  V30 31056 P 4234.07 -8.4349 2.47671 0
M  V30 31057 O 4235.49 -8.94167 2.5964 0
M  V30 31058 O 4233.71 -7.1704 3.19006 0
M  V30 31059 O 4233.74 -8.16596 0.923387 0
M  V30 31060 C 4233.58 -9.38437 0.108857 0
M  V30 31061 C 4234.12 -9.08175 -1.28353 0
M  V30 31062 O 4233.07 -8.44229 -1.84713 0
M  V30 31063 C 4235.34 -8.18386 -1.42505 0
M  V30 31064 O 4236.08 -8.3501 -2.60497 0
M  V30 31065 C 4234.67 -6.80225 -1.25468 0
M  V30 31066 O 4235.47 -5.81621 -1.91066 0
M  V30 31067 C 4233.34 -7.02416 -1.9168 0
M  V30 31068 H 4233.37 -6.6888 -2.96621 0
M  V30 31069 H 4234.55 -6.53617 -0.192223 0
M  V30 31070 H 4236.04 -8.36622 -0.589963 0
M  V30 31071 H 4234.34 -10.0291 -1.79807 0
M  V30 31072 H 4234.15 -10.2138 0.558219 0
M  V30 31073 H 4232.52 -9.6579 0.0444202 0
M  V30 31074 H 4235.16 -5.69556 -2.79637 0
M  V30 31075 P 4237.02 -8.4349 -2.47671 0
M  V30 31076 O 4238.44 -8.92593 -2.65 0
M  V30 31077 O 4236.66 -7.7568 -1.19296 0
M  V30 31078 O 4236.7 -7.36886 -3.63805 0
M  V30 31079 C 4236.54 -7.95349 -4.982 0
M  V30 31080 C 4237.08 -6.94612 -5.98974 0
M  V30 31081 O 4236.02 -6.10347 -6.11815 0
M  V30 31082 C 4238.29 -6.11426 -5.62335 0
M  V30 31083 O 4239.03 -5.6162 -6.70584 0
M  V30 31084 C 4237.62 -5.04409 -4.73308 0
M  V30 31085 O 4238.42 -3.85992 -4.75183 0
M  V30 31086 C 4236.29 -4.8728 -5.41006 0
M  V30 31087 H 4236.32 -4.02333 -6.11157 0
M  V30 31088 H 4237.5 -5.39466 -3.69543 0
M  V30 31089 H 4238.99 -6.71916 -5.01943 0
M  V30 31090 H 4237.29 -7.4649 -6.93477 0
M  V30 31091 H 4237.1 -8.89416 -5.05237 0
M  V30 31092 H 4235.47 -8.14876 -5.18409 0
M  V30 31093 H 4238.11 -3.27957 -5.4317 0
M  V30 31094 P 4239.97 -5.75688 -6.64379 0
M  V30 31095 O 4241.39 -6.07627 -7.05504 0
M  V30 31096 O 4239.61 -5.88047 -5.19722 0
M  V30 31097 O 4239.65 -4.2322 -7.04443 0
M  V30 31098 C 4239.49 -3.99743 -8.4911 0
M  V30 31099 C 4240.03 -2.60516 -8.79425 0
M  V30 31100 O 4238.97 -1.82684 -8.4467 0
M  V30 31101 C 4241.24 -2.10343 -8.03628 0
M  V30 31102 O 4241.98 -1.09919 -8.67766 0
M  V30 31103 C 4240.58 -1.68446 -6.70876 0
M  V30 31104 O 4241.37 -0.678137 -6.08433 0
M  V30 31105 C 4239.24 -1.17436 -7.18567 0
M  V30 31106 H 4239.27 -0.0804732 -7.31656 0
M  V30 31107 H 4240.45 -2.54037 -6.02537 0
M  V30 31108 H 4241.94 -2.93881 -7.85526 0
M  V30 31109 H 4240.24 -2.53065 -9.86973 0
M  V30 31110 H 4240.05 -4.75072 -9.05887 0
M  V30 31111 H 4238.42 -4.05244 -8.76668 0
M  V30 31112 H 4241.06 0.177647 -6.34251 0
M  V30 31113 P 4242.92 -1.25109 -8.70152 0
M  V30 31114 O 4244.34 -1.29744 -9.22016 0
M  V30 31115 O 4242.56 -2.13714 -7.55141 0
M  V30 31116 O 4242.6 0.248149 -8.21425 0
M  V30 31117 C 4242.44 1.22779 -9.30434 0
M  V30 31118 C 4242.98 2.56293 -8.80664 0
M  V30 31119 O 4241.92 3.02979 -8.09349 0
M  V30 31120 C 4244.19 2.57523 -7.89775 0
M  V30 31121 O 4244.93 3.7668 -7.89438 0
M  V30 31122 C 4243.53 2.20997 -6.55446 0
M  V30 31123 O 4244.32 2.71895 -5.48509 0
M  V30 31124 C 4242.19 2.89693 -6.67988 0
M  V30 31125 H 4242.22 3.88793 -6.19859 0
M  V30 31126 H 4243.4 1.12046 -6.44229 0
M  V30 31127 H 4244.89 1.7746 -8.19711 0
M  V30 31128 H 4243.19 3.20706 -9.67112 0
M  V30 31129 H 4243 0.901032 -10.1892 0
M  V30 31130 H 4241.37 1.33049 -9.56592 0
M  V30 31131 H 4244.01 3.57847 -5.23962 0
M  V30 31132 P 4245.87 3.65191 -7.99657 0
M  V30 31133 O 4247.29 3.89332 -8.45794 0
M  V30 31134 O 4245.51 2.28472 -7.50807 0
M  V30 31135 O 4245.55 4.64972 -6.77611 0
M  V30 31136 C 4245.39 6.06319 -7.16352 0
M  V30 31137 C 4245.93 6.91731 -6.02299 0
M  V30 31138 O 4244.87 6.92449 -5.17064 0
M  V30 31139 C 4247.15 6.43627 -5.25174 0
M  V30 31140 O 4247.88 7.43686 -4.60469 0
M  V30 31141 C 4246.48 5.40275 -4.31916 0
M  V30 31142 O 4247.28 5.25279 -3.14438 0
M  V30 31143 C 4245.14 6.04847 -4.05327 0
M  V30 31144 H 4245.17 6.62195 -3.11261 0
M  V30 31145 H 4246.35 4.42556 -4.81383 0
M  V30 31146 H 4247.84 5.92458 -5.93643 0
M  V30 31147 H 4246.14 7.92655 -6.402 0
M  V30 31148 H 4245.95 6.26671 -8.0846 0
M  V30 31149 H 4244.32 6.29101 -7.32804 0
M  V30 31150 H 4246.96 5.84315 -2.47318 0
M  V30 31151 P 4248.82 7.39546 -4.75277 0
M  V30 31152 O 4250.24 7.84798 -5.01039 0
M  V30 31153 O 4248.46 5.9812 -5.08098 0
M  V30 31154 O 4248.5 7.57503 -3.1866 0
M  V30 31155 C 4248.34 8.97357 -2.74833 0
M  V30 31156 C 4248.88 9.07548 -1.32709 0
M  V30 31157 O 4247.82 8.62072 -0.606159 0
M  V30 31158 C 4250.1 8.25383 -0.938334 0
M  V30 31159 O 4250.83 8.74577 0.146954 0
M  V30 31160 C 4249.43 6.8802 -0.712559 0
M  V30 31161 O 4250.23 6.1189 0.194655 0
M  V30 31162 C 4248.09 7.27966 -0.139777 0
M  V30 31163 H 4248.12 7.25354 0.961601 0
M  V30 31164 H 4249.3 6.32557 -1.65702 0
M  V30 31165 H 4250.79 8.19355 -1.79097 0
M  V30 31166 H 4249.09 10.1294 -1.10029 0
M  V30 31167 H 4248.9 9.64276 -3.41316 0
M  V30 31168 H 4247.27 9.25417 -2.76357 0
M  V30 31169 H 4249.91 6.25267 1.07847 0
M  V30 31170 P 4251.77 8.791 -2.33709e-10 0
M  V30 31171 O 4253.19 9.31096 0.027933 0
M  V30 31172 O 4251.41 7.77869 -1.04071 0
M  V30 31173 O 4251.45 8.09533 1.41463 0
M  V30 31174 C 4251.29 9.0349 2.53943 0
M  V30 31175 C 4251.83 8.35226 3.79016 0
M  V30 31176 O 4250.77 7.57992 4.15078 0
M  V30 31177 C 4253.05 7.45087 3.67298 0
M  V30 31178 O 4253.78 7.27796 4.85194 0
M  V30 31179 C 4252.38 6.17323 3.12027 0
M  V30 31180 O 4253.18 5.04231 3.47188 0
M  V30 31181 C 4251.04 6.19961 3.81809 0
M  V30 31182 H 4251.07 5.58218 4.73051 0
M  V30 31183 H 4252.26 6.21726 2.02589 0
M  V30 31184 H 4253.74 7.86112 2.9231 0
M  V30 31185 H 4252.05 9.11627 4.55076 0
M  V30 31186 H 4251.86 9.9573 2.34194 0
M  V30 31187 H 4250.23 9.2792 2.67832 0
M  V30 31188 H 4252.86 4.67702 4.28772 0
M  V30 31189 P 4254.72 7.39546 4.75277 0
M  V30 31190 O 4256.14 7.81777 5.05738 0
M  V30 31191 O 4254.36 7.1065 3.32998 0
M  V30 31192 O 4254.4 6.04542 5.56673 0
M  V30 31193 C 4254.24 6.22772 7.02095 0
M  V30 31194 C 4254.78 4.97725 7.70406 0
M  V30 31195 O 4253.72 4.13256 7.58987 0
M  V30 31196 C 4256 4.28231 7.11815 0
M  V30 31197 O 4256.73 3.49945 8.01648 0
M  V30 31198 C 4255.33 3.5063 5.96244 0
M  V30 31199 O 4256.13 2.36482 5.64681 0
M  V30 31200 C 4253.99 3.15122 6.56374 0
M  V30 31201 H 4254.02 2.13853 6.99751 0
M  V30 31202 H 4255.21 4.13501 5.06559 0
M  V30 31203 H 4256.69 5.03285 6.70911 0
M  V30 31204 H 4255 5.20877 8.75697 0
M  V30 31205 H 4254.81 7.11046 7.35349 0
M  V30 31206 H 4253.18 6.35815 7.26986 0
M  V30 31207 H 4255.81 1.61644 6.13565 0
M  V30 31208 P 4257.67 3.65191 7.99657 0
M  V30 31209 O 4259.09 3.8425 8.48115 0
M  V30 31210 O 4257.31 4.17805 6.64342 0
M  V30 31211 O 4257.35 2.07613 7.95143 0
M  V30 31212 C 4257.19 1.44328 9.27336 0
M  V30 31213 C 4257.73 0.0220036 9.17197 0
M  V30 31214 O 4256.67 -0.626867 8.61923 0
M  V30 31215 C 4258.95 -0.24586 8.30336 0
M  V30 31216 O 4259.69 -1.39011 8.63583 0
M  V30 31217 C 4258.28 -0.273849 6.91158 0
M  V30 31218 O 4259.08 -1.06348 6.02892 0
M  V30 31219 C 4256.94 -0.897649 7.22545 0
M  V30 31220 H 4256.97 -1.9841 7.04286 0
M  V30 31221 H 4258.16 0.739928 6.497 0
M  V30 31222 H 4259.64 0.60668 8.36503 0
M  V30 31223 H 4257.95 -0.352479 10.1829 0
M  V30 31224 H 4257.76 2.00611 10.0304 0
M  V30 31225 H 4256.13 1.41843 9.55327 0
M  V30 31226 H 4258.77 -1.95734 6.03555 0
M  V30 31227 P 4260.62 -1.25109 8.70152 0
M  V30 31228 O 4262.05 -1.35274 9.21221 0
M  V30 31229 O 4260.26 -0.0769065 7.84762 0
M  V30 31230 O 4260.3 -2.55232 7.81161 0
M  V30 31231 C 4260.14 -3.79939 8.58154 0
M  V30 31232 C 4260.68 -4.94023 7.72785 0
M  V30 31233 O 4259.62 -5.18726 6.91205 0
M  V30 31234 C 4261.9 -4.69597 6.85231 0
M  V30 31235 O 4262.64 -5.83832 6.51337 0
M  V30 31236 C 4261.23 -3.96706 5.66633 0
M  V30 31237 O 4262.03 -4.15414 4.49689 0
M  V30 31238 C 4259.89 -4.66153 5.59313 0
M  V30 31239 H 4259.92 -5.47679 4.85214 0
M  V30 31240 H 4261.11 -2.89008 5.86566 0
M  V30 31241 H 4262.59 -4.0121 7.36511 0
M  V30 31242 H 4260.9 -5.80182 8.37584 0
M  V30 31243 H 4260.71 -3.73517 9.52265 0
M  V30 31244 H 4259.08 -3.97163 8.80359 0
M  V30 31245 H 4261.72 -4.90969 4.01921 0
M  V30 31246 P 4263.57 -5.75688 6.64379 0
M  V30 31247 O 4265 -6.11849 7.01846 0
M  V30 31248 O 4263.21 -4.30744 6.56026 0
M  V30 31249 O 4263.25 -6.37042 5.19165 0
M  V30 31250 C 4263.09 -7.83578 5.16515 0
M  V30 31251 C 4263.63 -8.33398 3.83019 0
M  V30 31252 O 4262.57 -8.10074 3.01034 0
M  V30 31253 C 4264.85 -7.65514 3.2257 0
M  V30 31254 O 4265.59 -8.4329 2.32297 0
M  V30 31255 C 4264.18 -6.40075 2.62207 0
M  V30 31256 O 4264.98 -5.92589 1.53712 0
M  V30 31257 C 4262.84 -6.9454 2.18503 0
M  V30 31258 H 4262.87 -7.23063 1.12091 0
M  V30 31259 H 4264.06 -5.6025 3.37201 0
M  V30 31260 H 4265.54 -7.35707 4.02681 0
M  V30 31261 H 4263.85 -9.40912 3.9095 0
M  V30 31262 H 4263.66 -8.29056 5.99158 0
M  V30 31263 H 4262.03 -8.10073 5.25882 0
M  V30 31264 H 4264.67 -6.30324 0.726794 0
M  V30 31265 P 4266.52 -8.4349 2.47671 0
M  V30 31266 O 4267.95 -8.94359 2.59696 0
M  V30 31267 O 4266.16 -7.1704 3.19006 0
M  V30 31268 O 4266.2 -8.16596 0.923387 0
M  V30 31269 C 4266.04 -9.38437 0.108857 0
M  V30 31270 C 4266.58 -9.08076 -1.28339 0
M  V30 31271 O 4265.53 -8.44229 -1.84713 0
M  V30 31272 C 4267.8 -8.18386 -1.42505 0
M  V30 31273 O 4268.54 -8.3501 -2.60497 0
M  V30 31274 C 4267.13 -6.80225 -1.25468 0
M  V30 31275 O 4267.93 -5.81526 -1.91035 0
M  V30 31276 C 4265.79 -7.02416 -1.9168 0
M  V30 31277 N 4264.75 -6.31033 -1.20314 0
M  V30 31278 C 4264.81 -6.18781 0.121293 0
M  V30 31279 N 4263.77 -5.49762 0.588272 0
M  V30 31280 C 4263.03 -5.22015 -0.488988 0
M  V30 31281 C 4261.73 -4.61966 -0.596448 0
M  V30 31282 O 4260.99 -4.19162 0.309059 0
M  V30 31283 N 4261.3 -4.53773 -1.878 0
M  V30 31284 C 4262.05 -4.99623 -2.99082 0
M  V30 31285 N 4261.45 -4.78912 -4.21227 0
M  V30 31286 N 4263.2 -5.59957 -2.91093 0
M  V30 31287 C 4263.66 -5.70225 -1.64218 0
M  V30 31288 H 4265.83 -6.6888 -2.96621 0
M  V30 31289 H 4267.01 -6.53517 -0.192194 0
M  V30 31290 H 4268.49 -8.36563 -0.598329 0
M  V30 31291 H 4266.8 -10.0291 -1.79807 0
M  V30 31292 H 4266.61 -10.2138 0.558219 0
M  V30 31293 H 4264.98 -9.6579 0.0444202 0
M  V30 31294 H 4260.4 -4.12883 -2.05283 0
M  V30 31295 H 4265.61 -6.59596 0.745856 0
M  V30 31296 H 4260.54 -4.31425 -4.2628 0
M  V30 31297 H 4261.91 -5.11219 -5.07148 0
M  V30 31298 H 4267.62 -5.69466 -2.79593 0
M  V30 31299 P 4269.47 -8.4349 -2.47671 0
M  V30 31300 O 4270.9 -8.92593 -2.65 0
M  V30 31301 O 4269.11 -7.7568 -1.19296 0
M  V30 31302 O 4269.15 -7.36886 -3.63805 0
M  V30 31303 C 4268.99 -7.95349 -4.982 0
M  V30 31304 C 4269.53 -6.94612 -5.98974 0
M  V30 31305 O 4268.48 -6.10347 -6.11815 0
M  V30 31306 C 4270.75 -6.11426 -5.62335 0
M  V30 31307 O 4271.49 -5.6162 -6.70584 0
M  V30 31308 C 4270.08 -5.04409 -4.73308 0
M  V30 31309 O 4270.88 -3.85992 -4.75183 0
M  V30 31310 C 4268.74 -4.8728 -5.41006 0
M  V30 31311 H 4268.78 -4.02333 -6.11157 0
M  V30 31312 H 4269.96 -5.39466 -3.69543 0
M  V30 31313 H 4271.44 -6.71916 -5.01943 0
M  V30 31314 H 4269.75 -7.4649 -6.93477 0
M  V30 31315 H 4269.56 -8.89416 -5.05237 0
M  V30 31316 H 4267.93 -8.14876 -5.18409 0
M  V30 31317 H 4270.57 -3.27957 -5.4317 0
M  V30 31318 P 4272.43 -5.75688 -6.64379 0
M  V30 31319 O 4273.85 -6.07627 -7.05504 0
M  V30 31320 O 4272.07 -5.88047 -5.19722 0
M  V30 31321 O 4272.1 -4.2322 -7.04443 0
M  V30 31322 C 4271.94 -3.99743 -8.4911 0
M  V30 31323 C 4272.48 -2.60516 -8.79425 0
M  V30 31324 O 4271.43 -1.82684 -8.4467 0
M  V30 31325 C 4273.7 -2.10343 -8.03628 0
M  V30 31326 O 4274.44 -1.09919 -8.67766 0
M  V30 31327 C 4273.03 -1.68446 -6.70876 0
M  V30 31328 O 4273.83 -0.678137 -6.08433 0
M  V30 31329 C 4271.69 -1.17436 -7.18567 0
M  V30 31330 H 4271.73 -0.0804732 -7.31656 0
M  V30 31331 H 4272.91 -2.54037 -6.02537 0
M  V30 31332 H 4274.39 -2.93881 -7.85526 0
M  V30 31333 H 4272.7 -2.53065 -9.86973 0
M  V30 31334 H 4272.51 -4.75072 -9.05887 0
M  V30 31335 H 4270.88 -4.05244 -8.76668 0
M  V30 31336 H 4273.52 0.177647 -6.34251 0
M  V30 31337 P 4275.38 -1.25109 -8.70152 0
M  V30 31338 O 4276.8 -1.29758 -9.22115 0
M  V30 31339 O 4275.02 -2.13714 -7.55141 0
M  V30 31340 O 4275.05 0.248149 -8.21425 0
M  V30 31341 C 4274.89 1.22792 -9.30533 0
M  V30 31342 C 4275.43 2.56293 -8.80664 0
M  V30 31343 O 4274.38 3.02944 -8.09255 0
M  V30 31344 C 4276.65 2.57523 -7.89775 0
M  V30 31345 O 4277.39 3.7668 -7.89438 0
M  V30 31346 C 4275.98 2.20997 -6.55446 0
M  V30 31347 O 4276.78 2.71302 -5.48691 0
M  V30 31348 C 4274.64 2.89693 -6.67988 0
M  V30 31349 N 4273.6 2.08895 -6.07487 0
M  V30 31350 C 4273.77 0.753809 -5.94137 0
M  V30 31351 N 4272.74 0.146592 -5.38801 0
M  V30 31352 C 4271.86 1.1768 -5.13693 0
M  V30 31353 C 4270.59 1.17563 -4.52477 0
M  V30 31354 N 4270.03 2.41918 -4.45789 0
M  V30 31355 C 4270.63 3.56493 -4.90792 0
M  V30 31356 N 4271.81 3.61423 -5.47817 0
M  V30 31357 C 4272.38 2.37779 -5.5588 0
M  V30 31358 H 4275.86 1.12673 -6.44018 0
M  V30 31359 H 4277.34 1.7746 -8.19711 0
M  V30 31360 H 4275.65 3.21673 -9.66791 0
M  V30 31361 H 4275.46 0.901032 -10.1892 0
M  V30 31362 H 4273.83 1.33049 -9.56592 0
M  V30 31363 H 4274.67 0.233081 -6.26266 0
M  V30 31364 H 4276.47 3.5779 -5.23879 0
M  V30 31365 P 4278.33 3.65191 -7.99657 0
M  V30 31366 O 4279.75 3.89332 -8.45794 0
M  V30 31367 O 4277.97 2.28472 -7.50807 0
M  V30 31368 O 4278 4.64972 -6.77611 0
M  V30 31369 C 4277.84 6.06319 -7.16352 0
M  V30 31370 C 4278.38 6.91731 -6.02299 0
M  V30 31371 O 4277.33 6.92449 -5.17064 0
M  V30 31372 C 4279.6 6.43627 -5.25174 0
M  V30 31373 O 4280.34 7.43686 -4.60469 0
M  V30 31374 C 4278.93 5.40275 -4.31916 0
M  V30 31375 O 4279.73 5.25279 -3.14438 0
M  V30 31376 C 4277.6 6.04847 -4.05327 0
M  V30 31377 H 4277.63 6.62195 -3.11261 0
M  V30 31378 H 4278.81 4.42556 -4.81383 0
M  V30 31379 H 4280.29 5.92458 -5.93643 0
M  V30 31380 H 4278.6 7.92655 -6.402 0
M  V30 31381 H 4278.41 6.26671 -8.0846 0
M  V30 31382 H 4276.78 6.29101 -7.32804 0
M  V30 31383 H 4279.42 5.84315 -2.47318 0
M  V30 31384 P 4281.28 7.39546 -4.75277 0
M  V30 31385 O 4282.7 7.84798 -5.01039 0
M  V30 31386 O 4280.92 5.9812 -5.08098 0
M  V30 31387 O 4280.95 7.57503 -3.1866 0
M  V30 31388 C 4280.79 8.97357 -2.74833 0
M  V30 31389 C 4281.33 9.07548 -1.32709 0
M  V30 31390 O 4280.28 8.62072 -0.606159 0
M  V30 31391 C 4282.55 8.25383 -0.938334 0
M  V30 31392 O 4283.29 8.74577 0.146954 0
M  V30 31393 C 4281.88 6.8802 -0.712559 0
M  V30 31394 O 4282.68 6.1189 0.194655 0
M  V30 31395 C 4280.55 7.27966 -0.139777 0
M  V30 31396 H 4280.58 7.25354 0.961601 0
M  V30 31397 H 4281.76 6.32557 -1.65702 0
M  V30 31398 H 4283.25 8.19355 -1.79097 0
M  V30 31399 H 4281.55 10.1294 -1.10029 0
M  V30 31400 H 4281.36 9.64276 -3.41316 0
M  V30 31401 H 4279.73 9.25417 -2.76357 0
M  V30 31402 H 4282.37 6.25267 1.07847 0
M  V30 31403 P 4284.23 8.791 -2.38896e-10 0
M  V30 31404 O 4285.65 9.31096 0.027933 0
M  V30 31405 O 4283.87 7.77869 -1.04071 0
M  V30 31406 O 4283.9 8.09533 1.41463 0
M  V30 31407 C 4283.74 9.0349 2.53943 0
M  V30 31408 C 4284.28 8.35226 3.79016 0
M  V30 31409 O 4283.23 7.57992 4.15078 0
M  V30 31410 C 4285.5 7.45087 3.67298 0
M  V30 31411 O 4286.24 7.27796 4.85194 0
M  V30 31412 C 4284.83 6.17323 3.12027 0
M  V30 31413 O 4285.63 5.04231 3.47188 0
M  V30 31414 C 4283.5 6.19961 3.81809 0
M  V30 31415 H 4283.53 5.58218 4.73051 0
M  V30 31416 H 4284.71 6.21726 2.02589 0
M  V30 31417 H 4286.2 7.86112 2.9231 0
M  V30 31418 H 4284.5 9.11627 4.55076 0
M  V30 31419 H 4284.31 9.9573 2.34194 0
M  V30 31420 H 4282.68 9.2792 2.67832 0
M  V30 31421 H 4285.32 4.67702 4.28772 0
M  V30 31422 P 4287.18 7.39546 4.75277 0
M  V30 31423 O 4288.6 7.81777 5.05738 0
M  V30 31424 O 4286.82 7.1065 3.32998 0
M  V30 31425 O 4286.86 6.04542 5.56673 0
M  V30 31426 C 4286.7 6.22772 7.02095 0
M  V30 31427 C 4287.24 4.97725 7.70406 0
M  V30 31428 O 4286.18 4.13256 7.58987 0
M  V30 31429 C 4288.45 4.28231 7.11815 0
M  V30 31430 O 4289.19 3.49945 8.01648 0
M  V30 31431 C 4287.78 3.5063 5.96244 0
M  V30 31432 O 4288.58 2.36482 5.64681 0
M  V30 31433 C 4286.45 3.15122 6.56374 0
M  V30 31434 H 4286.48 2.13853 6.99751 0
M  V30 31435 H 4287.66 4.13501 5.06559 0
M  V30 31436 H 4289.15 5.03285 6.70911 0
M  V30 31437 H 4287.45 5.20877 8.75697 0
M  V30 31438 H 4287.26 7.11046 7.35349 0
M  V30 31439 H 4285.63 6.35815 7.26986 0
M  V30 31440 H 4288.27 1.61644 6.13565 0
M  V30 31441 P 4290.13 3.65191 7.99657 0
M  V30 31442 O 4291.55 3.8425 8.48115 0
M  V30 31443 O 4289.77 4.17805 6.64342 0
M  V30 31444 O 4289.81 2.07613 7.95143 0
M  V30 31445 C 4289.65 1.44328 9.27336 0
M  V30 31446 C 4290.19 0.0220036 9.17197 0
M  V30 31447 O 4289.13 -0.626867 8.61923 0
M  V30 31448 C 4291.4 -0.24586 8.30336 0
M  V30 31449 O 4292.14 -1.39011 8.63583 0
M  V30 31450 C 4290.73 -0.273849 6.91158 0
M  V30 31451 O 4291.53 -1.06348 6.02892 0
M  V30 31452 C 4289.4 -0.897649 7.22545 0
M  V30 31453 H 4289.43 -1.9841 7.04286 0
M  V30 31454 H 4290.61 0.739928 6.497 0
M  V30 31455 H 4292.1 0.60668 8.36503 0
M  V30 31456 H 4290.4 -0.352479 10.1829 0
M  V30 31457 H 4290.21 2.00611 10.0304 0
M  V30 31458 H 4288.58 1.41843 9.55327 0
M  V30 31459 H 4291.22 -1.95734 6.03555 0
M  V30 31460 P 4293.08 -1.25109 8.70152 0
M  V30 31461 O 4294.5 -1.35274 9.21221 0
M  V30 31462 O 4292.72 -0.0769065 7.84762 0
M  V30 31463 O 4292.76 -2.55232 7.81161 0
M  V30 31464 C 4292.6 -3.79939 8.58154 0
M  V30 31465 C 4293.14 -4.94023 7.72785 0
M  V30 31466 O 4292.08 -5.18726 6.91205 0
M  V30 31467 C 4294.35 -4.69597 6.85231 0
M  V30 31468 O 4295.09 -5.83832 6.51337 0
M  V30 31469 C 4293.69 -3.96706 5.66633 0
M  V30 31470 O 4294.48 -4.15414 4.49689 0
M  V30 31471 C 4292.35 -4.66153 5.59313 0
M  V30 31472 H 4292.38 -5.47679 4.85214 0
M  V30 31473 H 4293.56 -2.89008 5.86566 0
M  V30 31474 H 4295.05 -4.0121 7.36511 0
M  V30 31475 H 4293.35 -5.80182 8.37584 0
M  V30 31476 H 4293.16 -3.73517 9.52265 0
M  V30 31477 H 4291.53 -3.97163 8.80359 0
M  V30 31478 H 4294.17 -4.90969 4.01921 0
M  V30 31479 P 4296.03 -5.75688 6.64379 0
M  V30 31480 O 4297.45 -6.11849 7.01846 0
M  V30 31481 O 4295.67 -4.30744 6.56026 0
M  V30 31482 O 4295.71 -6.37042 5.19165 0
M  V30 31483 C 4295.55 -7.83578 5.16515 0
M  V30 31484 C 4296.09 -8.33398 3.83019 0
M  V30 31485 O 4295.03 -8.10074 3.01034 0
M  V30 31486 C 4297.3 -7.65514 3.2257 0
M  V30 31487 O 4298.04 -8.4329 2.32297 0
M  V30 31488 C 4296.64 -6.40075 2.62207 0
M  V30 31489 O 4297.43 -5.92589 1.53712 0
M  V30 31490 C 4295.3 -6.9454 2.18503 0
M  V30 31491 H 4295.33 -7.23063 1.12091 0
M  V30 31492 H 4296.51 -5.6025 3.37201 0
M  V30 31493 H 4298 -7.35707 4.02681 0
M  V30 31494 H 4296.3 -9.40912 3.9095 0
M  V30 31495 H 4296.11 -8.29056 5.99158 0
M  V30 31496 H 4294.48 -8.10073 5.25882 0
M  V30 31497 H 4297.12 -6.30324 0.726794 0
M  V30 31498 P 4298.98 -8.4349 2.47671 0
M  V30 31499 O 4300.4 -8.94167 2.5964 0
M  V30 31500 O 4298.62 -7.1704 3.19006 0
M  V30 31501 O 4298.66 -8.16596 0.923387 0
M  V30 31502 C 4298.5 -9.38437 0.108857 0
M  V30 31503 C 4299.04 -9.08175 -1.28353 0
M  V30 31504 O 4297.98 -8.44229 -1.84713 0
M  V30 31505 C 4300.26 -8.18386 -1.42505 0
M  V30 31506 O 4300.99 -8.3501 -2.60497 0
M  V30 31507 C 4299.59 -6.80225 -1.25468 0
M  V30 31508 O 4300.39 -5.81621 -1.91066 0
M  V30 31509 C 4298.25 -7.02416 -1.9168 0
M  V30 31510 H 4298.28 -6.6888 -2.96621 0
M  V30 31511 H 4299.46 -6.53617 -0.192223 0
M  V30 31512 H 4300.95 -8.36622 -0.589963 0
M  V30 31513 H 4299.25 -10.0291 -1.79807 0
M  V30 31514 H 4299.06 -10.2138 0.558219 0
M  V30 31515 H 4297.43 -9.6579 0.0444202 0
M  V30 31516 H 4300.07 -5.69556 -2.79637 0
M  V30 31517 P 4301.93 -8.4349 -2.47671 0
M  V30 31518 O 4303.33 -8.99283 -2.62101 0
M  V30 31519 O 4301.55 -7.81195 -1.16947 0
M  V30 31520 O 4301.61 -7.36797 -3.63761 0
M  V30 31521 C 4301.45 -7.95349 -4.982 0
M  V30 31522 C 4301.99 -6.94537 -5.98908 0
M  V30 31523 O 4300.93 -6.10277 -6.11744 0
M  V30 31524 C 4303.21 -6.11426 -5.62335 0
M  V30 31525 O 4303.94 -5.6162 -6.70584 0
M  V30 31526 C 4302.54 -5.04409 -4.73308 0
M  V30 31527 O 4303.34 -3.85929 -4.75106 0
M  V30 31528 C 4301.2 -4.8728 -5.41006 0
M  V30 31529 N 4300.16 -4.65812 -4.42377 0
M  V30 31530 C 4299.12 -3.81293 -4.74224 0
M  V30 31531 O 4299.16 -3.20533 -5.83679 0
M  V30 31532 N 4298.11 -3.6442 -3.86349 0
M  V30 31533 C 4298.16 -4.2728 -2.6824 0
M  V30 31534 C 4299.25 -5.10813 -2.3217 0
M  V30 31535 C 4300.22 -5.27909 -3.22647 0
M  V30 31536 H 4301.23 -4.02278 -6.11074 0
M  V30 31537 H 4302.42 -5.39013 -3.70026 0
M  V30 31538 H 4303.9 -6.71494 -5.02675 0
M  V30 31539 H 4302.21 -7.45796 -6.94223 0
M  V30 31540 H 4302.01 -8.89416 -5.05237 0
M  V30 31541 H 4300.38 -8.14791 -5.18355 0
M  V30 31542 H 4299.3 -5.58884 -1.34755 0
M  V30 31543 H 4301.07 -5.92811 -2.9934 0
M  V30 31544 H 4303.12 -3.3454 -5.51577 0
M  V30 31545 P 4304.88 -5.75688 -6.64379 0
M  V30 31546 O 4306.3 -6.07627 -7.05504 0
M  V30 31547 O 4304.52 -5.88047 -5.19722 0
M  V30 31548 O 4304.56 -4.2322 -7.04443 0
M  V30 31549 C 4304.4 -3.99743 -8.4911 0
M  V30 31550 C 4304.94 -2.60516 -8.79425 0
M  V30 31551 O 4303.88 -1.82684 -8.4467 0
M  V30 31552 C 4306.16 -2.10343 -8.03628 0
M  V30 31553 O 4306.89 -1.09919 -8.67766 0
M  V30 31554 C 4305.49 -1.68446 -6.70876 0
M  V30 31555 O 4306.29 -0.678137 -6.08433 0
M  V30 31556 C 4304.15 -1.17436 -7.18567 0
M  V30 31557 H 4304.18 -0.0804732 -7.31656 0
M  V30 31558 H 4305.37 -2.54037 -6.02537 0
M  V30 31559 H 4306.85 -2.93881 -7.85526 0
M  V30 31560 H 4305.16 -2.53065 -9.86973 0
M  V30 31561 H 4304.97 -4.75072 -9.05887 0
M  V30 31562 H 4303.34 -4.05244 -8.76668 0
M  V30 31563 H 4305.97 0.177647 -6.34251 0
M  V30 31564 P 4307.83 -1.25109 -8.70152 0
M  V30 31565 O 4309.25 -1.29744 -9.22016 0
M  V30 31566 O 4307.47 -2.13714 -7.55141 0
M  V30 31567 O 4307.51 0.248149 -8.21425 0
M  V30 31568 C 4307.35 1.22779 -9.30434 0
M  V30 31569 C 4307.89 2.56293 -8.80664 0
M  V30 31570 O 4306.83 3.02979 -8.09349 0
M  V30 31571 C 4309.11 2.57523 -7.89775 0
M  V30 31572 O 4309.85 3.7668 -7.89438 0
M  V30 31573 C 4308.44 2.20997 -6.55446 0
M  V30 31574 O 4309.24 2.71895 -5.48509 0
M  V30 31575 C 4307.1 2.89693 -6.67988 0
M  V30 31576 H 4307.13 3.88793 -6.19859 0
M  V30 31577 H 4308.32 1.12046 -6.44229 0
M  V30 31578 H 4309.8 1.7746 -8.19711 0
M  V30 31579 H 4308.11 3.20706 -9.67112 0
M  V30 31580 H 4307.92 0.901032 -10.1892 0
M  V30 31581 H 4306.29 1.33049 -9.56592 0
M  V30 31582 H 4308.93 3.57847 -5.23962 0
M  V30 31583 P 4310.78 3.65191 -7.99657 0
M  V30 31584 O 4312.2 3.89332 -8.45794 0
M  V30 31585 O 4310.42 2.28472 -7.50807 0
M  V30 31586 O 4310.46 4.64972 -6.77611 0
M  V30 31587 C 4310.3 6.06319 -7.16352 0
M  V30 31588 C 4310.84 6.91731 -6.02299 0
M  V30 31589 O 4309.78 6.92449 -5.17064 0
M  V30 31590 C 4312.06 6.43627 -5.25174 0
M  V30 31591 O 4312.8 7.43686 -4.60469 0
M  V30 31592 C 4311.39 5.40275 -4.31916 0
M  V30 31593 O 4312.19 5.25279 -3.14438 0
M  V30 31594 C 4310.05 6.04847 -4.05327 0
M  V30 31595 H 4310.08 6.62195 -3.11261 0
M  V30 31596 H 4311.27 4.42556 -4.81383 0
M  V30 31597 H 4312.75 5.92458 -5.93643 0
M  V30 31598 H 4311.06 7.92655 -6.402 0
M  V30 31599 H 4310.87 6.26671 -8.0846 0
M  V30 31600 H 4309.24 6.29101 -7.32804 0
M  V30 31601 H 4311.88 5.84315 -2.47318 0
M  V30 31602 P 4313.73 7.39546 -4.75277 0
M  V30 31603 O 4315.16 7.84966 -5.01146 0
M  V30 31604 O 4313.37 5.9812 -5.08098 0
M  V30 31605 O 4313.41 7.57503 -3.1866 0
M  V30 31606 C 4313.25 8.97357 -2.74833 0
M  V30 31607 C 4313.79 9.0745 -1.32694 0
M  V30 31608 O 4312.74 8.62072 -0.606159 0
M  V30 31609 C 4315.01 8.25383 -0.938334 0
M  V30 31610 O 4315.75 8.74577 0.146954 0
M  V30 31611 C 4314.34 6.8802 -0.712559 0
M  V30 31612 O 4315.14 6.11791 0.194623 0
M  V30 31613 C 4313 7.27966 -0.139777 0
M  V30 31614 N 4311.96 6.39368 -0.623421 0
M  V30 31615 C 4312.02 5.90299 -1.85969 0
M  V30 31616 N 4310.98 5.10919 -2.1133 0
M  V30 31617 C 4310.24 5.14646 -1.0015 0
M  V30 31618 C 4308.94 4.60057 -0.729219 0
M  V30 31619 O 4308.2 3.93476 -1.47746 0
M  V30 31620 N 4308.51 4.88302 0.523505 0
M  V30 31621 C 4309.26 5.63646 1.46207 0
M  V30 31622 N 4308.66 5.78186 2.69239 0
M  V30 31623 N 4310.41 6.19285 1.21544 0
M  V30 31624 C 4310.87 5.93392 -0.0308487 0
M  V30 31625 H 4313.03 7.25354 0.961601 0
M  V30 31626 H 4314.22 6.3246 -1.65676 0
M  V30 31627 H 4315.7 8.19533 -1.78278 0
M  V30 31628 H 4314.01 10.1294 -1.10029 0
M  V30 31629 H 4313.82 9.64276 -3.41316 0
M  V30 31630 H 4312.19 9.25417 -2.76357 0
M  V30 31631 H 4307.61 4.53993 0.806451 0
M  V30 31632 H 4312.82 6.11865 -2.57394 0
M  V30 31633 H 4307.75 5.34046 2.87467 0
M  V30 31634 H 4309.12 6.33391 3.42578 0
M  V30 31635 H 4314.83 6.25169 1.0783 0
M  V30 31636 P 4316.68 8.791 -2.44083e-10 0
M  V30 31637 O 4318.11 9.31096 0.027933 0
M  V30 31638 O 4316.32 7.77869 -1.04071 0
M  V30 31639 O 4316.36 8.09533 1.41463 0
M  V30 31640 C 4316.2 9.0349 2.53943 0
M  V30 31641 C 4316.74 8.35226 3.79016 0
M  V30 31642 O 4315.68 7.57992 4.15078 0
M  V30 31643 C 4317.96 7.45087 3.67298 0
M  V30 31644 O 4318.7 7.27796 4.85194 0
M  V30 31645 C 4317.29 6.17323 3.12027 0
M  V30 31646 O 4318.09 5.04231 3.47188 0
M  V30 31647 C 4315.95 6.19961 3.81809 0
M  V30 31648 H 4315.98 5.58218 4.73051 0
M  V30 31649 H 4317.17 6.21726 2.02589 0
M  V30 31650 H 4318.65 7.86112 2.9231 0
M  V30 31651 H 4316.96 9.11627 4.55076 0
M  V30 31652 H 4316.77 9.9573 2.34194 0
M  V30 31653 H 4315.14 9.2792 2.67832 0
M  V30 31654 H 4317.78 4.67702 4.28772 0
M  V30 31655 P 4319.63 7.39546 4.75277 0
M  V30 31656 O 4321.06 7.81777 5.05738 0
M  V30 31657 O 4319.27 7.1065 3.32998 0
M  V30 31658 O 4319.31 6.04542 5.56673 0
M  V30 31659 C 4319.15 6.22772 7.02095 0
M  V30 31660 C 4319.69 4.97725 7.70406 0
M  V30 31661 O 4318.64 4.13256 7.58987 0
M  V30 31662 C 4320.91 4.28231 7.11815 0
M  V30 31663 O 4321.65 3.49945 8.01648 0
M  V30 31664 C 4320.24 3.5063 5.96244 0
M  V30 31665 O 4321.04 2.36482 5.64681 0
M  V30 31666 C 4318.9 3.15122 6.56374 0
M  V30 31667 H 4318.94 2.13853 6.99751 0
M  V30 31668 H 4320.12 4.13501 5.06559 0
M  V30 31669 H 4321.6 5.03285 6.70911 0
M  V30 31670 H 4319.91 5.20877 8.75697 0
M  V30 31671 H 4319.72 7.11046 7.35349 0
M  V30 31672 H 4318.09 6.35815 7.26986 0
M  V30 31673 H 4320.73 1.61644 6.13565 0
M  V30 31674 P 4322.59 3.65191 7.99657 0
M  V30 31675 O 4323.99 3.90823 8.51272 0
M  V30 31676 O 4322.21 4.23191 6.66972 0
M  V30 31677 O 4322.26 2.07587 7.95046 0
M  V30 31678 C 4322.1 1.44328 9.27336 0
M  V30 31679 C 4322.64 0.0220012 9.17097 0
M  V30 31680 O 4321.59 -0.626794 8.61824 0
M  V30 31681 C 4323.86 -0.24586 8.30336 0
M  V30 31682 O 4324.6 -1.39011 8.63583 0
M  V30 31683 C 4323.19 -0.273849 6.91158 0
M  V30 31684 O 4323.99 -1.06331 6.02794 0
M  V30 31685 C 4321.85 -0.897649 7.22545 0
M  V30 31686 N 4320.81 -0.292839 6.41732 0
M  V30 31687 C 4319.78 -1.08701 5.98712 0
M  V30 31688 O 4319.82 -2.31211 6.24471 0
M  V30 31689 N 4318.76 -0.533391 5.28415 0
M  V30 31690 C 4318.81 0.770866 4.98576 0
M  V30 31691 C 4319.91 1.59049 5.38086 0
M  V30 31692 C 4320.87 1.01866 6.10256 0
M  V30 31693 H 4321.89 -1.98383 7.04189 0
M  V30 31694 H 4323.07 0.733318 6.49674 0
M  V30 31695 H 4324.55 0.598386 8.36663 0
M  V30 31696 H 4322.86 -0.362662 10.1825 0
M  V30 31697 H 4322.67 2.00611 10.0304 0
M  V30 31698 H 4321.04 1.41828 9.55228 0
M  V30 31699 H 4319.96 2.6415 5.10622 0
M  V30 31700 H 4321.72 1.61983 6.44042 0
M  V30 31701 H 4323.77 -1.97777 6.14035 0
M  V30 31702 P 4325.54 -1.25109 8.70152 0
M  V30 31703 O 4326.96 -1.35274 9.21221 0
M  V30 31704 O 4325.18 -0.0769065 7.84762 0
M  V30 31705 O 4325.21 -2.55232 7.81161 0
M  V30 31706 C 4325.05 -3.79939 8.58154 0
M  V30 31707 C 4325.59 -4.94023 7.72785 0
M  V30 31708 O 4324.54 -5.18726 6.91205 0
M  V30 31709 C 4326.81 -4.69597 6.85231 0
M  V30 31710 O 4327.55 -5.83832 6.51337 0
M  V30 31711 C 4326.14 -3.96706 5.66633 0
M  V30 31712 O 4326.94 -4.15414 4.49689 0
M  V30 31713 C 4324.8 -4.66153 5.59313 0
M  V30 31714 H 4324.84 -5.47679 4.85214 0
M  V30 31715 H 4326.02 -2.89008 5.86566 0
M  V30 31716 H 4327.5 -4.0121 7.36511 0
M  V30 31717 H 4325.81 -5.80182 8.37584 0
M  V30 31718 H 4325.62 -3.73517 9.52265 0
M  V30 31719 H 4323.99 -3.97163 8.80359 0
M  V30 31720 H 4326.63 -4.90969 4.01921 0
M  V30 31721 P 4328.49 -5.75688 6.64379 0
M  V30 31722 O 4329.91 -6.11849 7.01846 0
M  V30 31723 O 4328.13 -4.30744 6.56026 0
M  V30 31724 O 4328.16 -6.37042 5.19165 0
M  V30 31725 C 4328 -7.83578 5.16515 0
M  V30 31726 C 4328.54 -8.33398 3.83019 0
M  V30 31727 O 4327.49 -8.10074 3.01034 0
M  V30 31728 C 4329.76 -7.65514 3.2257 0
M  V30 31729 O 4330.5 -8.4329 2.32297 0
M  V30 31730 C 4329.09 -6.40075 2.62207 0
M  V30 31731 O 4329.89 -5.92589 1.53712 0
M  V30 31732 C 4327.76 -6.9454 2.18503 0
M  V30 31733 H 4327.79 -7.23063 1.12091 0
M  V30 31734 H 4328.97 -5.6025 3.37201 0
M  V30 31735 H 4330.45 -7.35707 4.02681 0
M  V30 31736 H 4328.76 -9.40912 3.9095 0
M  V30 31737 H 4328.57 -8.29056 5.99158 0
M  V30 31738 H 4326.94 -8.10073 5.25882 0
M  V30 31739 H 4329.58 -6.30324 0.726794 0
M  V30 31740 P 4331.44 -8.4349 2.47671 0
M  V30 31741 O 4332.86 -8.94359 2.59696 0
M  V30 31742 O 4331.08 -7.1704 3.19006 0
M  V30 31743 O 4331.11 -8.16596 0.923387 0
M  V30 31744 C 4330.95 -9.38437 0.108857 0
M  V30 31745 C 4331.49 -9.08076 -1.28339 0
M  V30 31746 O 4330.44 -8.44229 -1.84713 0
M  V30 31747 C 4332.71 -8.18386 -1.42505 0
M  V30 31748 O 4333.45 -8.3501 -2.60497 0
M  V30 31749 C 4332.04 -6.80225 -1.25468 0
M  V30 31750 O 4332.84 -5.81526 -1.91035 0
M  V30 31751 C 4330.71 -7.02416 -1.9168 0
M  V30 31752 N 4329.66 -6.31033 -1.20314 0
M  V30 31753 C 4329.72 -6.18781 0.121293 0
M  V30 31754 N 4328.68 -5.49762 0.588272 0
M  V30 31755 C 4327.95 -5.22015 -0.488988 0
M  V30 31756 C 4326.64 -4.61966 -0.596448 0
M  V30 31757 O 4325.91 -4.19162 0.309059 0
M  V30 31758 N 4326.21 -4.53773 -1.878 0
M  V30 31759 C 4326.96 -4.99623 -2.99082 0
M  V30 31760 N 4326.36 -4.78912 -4.21227 0
M  V30 31761 N 4328.11 -5.59957 -2.91093 0
M  V30 31762 C 4328.57 -5.70225 -1.64218 0
M  V30 31763 H 4330.74 -6.6888 -2.96621 0
M  V30 31764 H 4331.92 -6.53517 -0.192194 0
M  V30 31765 H 4333.41 -8.36563 -0.598329 0
M  V30 31766 H 4331.71 -10.0291 -1.79807 0
M  V30 31767 H 4331.52 -10.2138 0.558219 0
M  V30 31768 H 4329.89 -9.6579 0.0444202 0
M  V30 31769 H 4325.31 -4.12883 -2.05283 0
M  V30 31770 H 4330.52 -6.59596 0.745856 0
M  V30 31771 H 4325.45 -4.31425 -4.2628 0
M  V30 31772 H 4326.83 -5.11219 -5.07148 0
M  V30 31773 H 4332.53 -5.69466 -2.79593 0
M  V30 31774 P 4334.39 -8.4349 -2.47671 0
M  V30 31775 O 4335.81 -8.92689 -2.65029 0
M  V30 31776 O 4334.03 -7.7568 -1.19296 0
M  V30 31777 O 4334.06 -7.36886 -3.63805 0
M  V30 31778 C 4333.9 -7.95433 -4.98253 0
M  V30 31779 C 4334.44 -6.94612 -5.98974 0
M  V30 31780 O 4333.39 -6.10277 -6.11744 0
M  V30 31781 C 4335.66 -6.11426 -5.62335 0
M  V30 31782 O 4336.4 -5.6162 -6.70584 0
M  V30 31783 C 4334.99 -5.04409 -4.73308 0
M  V30 31784 O 4335.79 -3.86404 -4.74719 0
M  V30 31785 C 4333.66 -4.8728 -5.41006 0
M  V30 31786 N 4332.61 -4.65812 -4.42377 0
M  V30 31787 C 4332.78 -5.09132 -3.15382 0
M  V30 31788 N 4331.76 -4.84021 -2.3716 0
M  V30 31789 C 4330.87 -4.18386 -3.20441 0
M  V30 31790 C 4329.6 -3.6275 -2.94905 0
M  V30 31791 N 4329 -3.65794 -1.73372 0
M  V30 31792 N 4329.04 -3.05008 -4.05243 0
M  V30 31793 C 4329.64 -2.98348 -5.28159 0
M  V30 31794 N 4330.82 -3.48171 -5.56333 0
M  V30 31795 C 4331.39 -4.06869 -4.47212 0
M  V30 31796 H 4333.69 -4.02278 -6.11074 0
M  V30 31797 H 4334.87 -5.39013 -3.70026 0
M  V30 31798 H 4336.35 -6.71916 -5.01943 0
M  V30 31799 H 4334.66 -7.45796 -6.94223 0
M  V30 31800 H 4334.47 -8.89416 -5.05237 0
M  V30 31801 H 4332.84 -8.14876 -5.18409 0
M  V30 31802 H 4329.1 -2.47853 -6.07807 0
M  V30 31803 H 4333.68 -5.59989 -2.81362 0
M  V30 31804 H 4328.07 -3.23218 -1.60782 0
M  V30 31805 H 4329.48 -4.10523 -0.937856 0
M  V30 31806 H 4335.48 -3.27906 -5.43085 0
M  V30 31807 P 4337.34 -5.75688 -6.64379 0
M  V30 31808 O 4338.76 -6.07627 -7.05504 0
M  V30 31809 O 4336.98 -5.88047 -5.19722 0
M  V30 31810 O 4337.01 -4.2322 -7.04443 0
M  V30 31811 C 4336.85 -3.99743 -8.4911 0
M  V30 31812 C 4337.39 -2.60516 -8.79425 0
M  V30 31813 O 4336.34 -1.82684 -8.4467 0
M  V30 31814 C 4338.61 -2.10343 -8.03628 0
M  V30 31815 O 4339.35 -1.09919 -8.67766 0
M  V30 31816 C 4337.94 -1.68446 -6.70876 0
M  V30 31817 O 4338.74 -0.678137 -6.08433 0
M  V30 31818 C 4336.61 -1.17436 -7.18567 0
M  V30 31819 H 4336.64 -0.0804732 -7.31656 0
M  V30 31820 H 4337.82 -2.54037 -6.02537 0
M  V30 31821 H 4339.31 -2.93881 -7.85526 0
M  V30 31822 H 4337.61 -2.53065 -9.86973 0
M  V30 31823 H 4337.42 -4.75072 -9.05887 0
M  V30 31824 H 4335.79 -4.05244 -8.76668 0
M  V30 31825 H 4338.43 0.177647 -6.34251 0
M  V30 31826 P 4340.29 -1.25109 -8.70152 0
M  V30 31827 O 4341.71 -1.29744 -9.22016 0
M  V30 31828 O 4339.93 -2.13714 -7.55141 0
M  V30 31829 O 4339.97 0.248149 -8.21425 0
M  V30 31830 C 4339.81 1.22779 -9.30434 0
M  V30 31831 C 4340.35 2.56293 -8.80664 0
M  V30 31832 O 4339.29 3.02979 -8.09349 0
M  V30 31833 C 4341.56 2.57523 -7.89775 0
M  V30 31834 O 4342.3 3.7668 -7.89438 0
M  V30 31835 C 4340.89 2.20997 -6.55446 0
M  V30 31836 O 4341.69 2.71895 -5.48509 0
M  V30 31837 C 4339.56 2.89693 -6.67988 0
M  V30 31838 H 4339.59 3.88793 -6.19859 0
M  V30 31839 H 4340.77 1.12046 -6.44229 0
M  V30 31840 H 4342.26 1.7746 -8.19711 0
M  V30 31841 H 4340.56 3.20706 -9.67112 0
M  V30 31842 H 4340.37 0.901032 -10.1892 0
M  V30 31843 H 4338.74 1.33049 -9.56592 0
M  V30 31844 H 4341.38 3.57847 -5.23962 0
M  V30 31845 P 4343.24 3.65191 -7.99657 0
M  V30 31846 O 4344.66 3.89332 -8.45794 0
M  V30 31847 O 4342.88 2.28472 -7.50807 0
M  V30 31848 O 4342.92 4.64972 -6.77611 0
M  V30 31849 C 4342.76 6.06319 -7.16352 0
M  V30 31850 C 4343.3 6.91731 -6.02299 0
M  V30 31851 O 4342.24 6.92449 -5.17064 0
M  V30 31852 C 4344.51 6.43627 -5.25174 0
M  V30 31853 O 4345.25 7.43686 -4.60469 0
M  V30 31854 C 4343.85 5.40275 -4.31916 0
M  V30 31855 O 4344.64 5.25279 -3.14438 0
M  V30 31856 C 4342.51 6.04847 -4.05327 0
M  V30 31857 H 4342.54 6.62195 -3.11261 0
M  V30 31858 H 4343.72 4.42556 -4.81383 0
M  V30 31859 H 4345.21 5.92458 -5.93643 0
M  V30 31860 H 4343.51 7.92655 -6.402 0
M  V30 31861 H 4343.32 6.26671 -8.0846 0
M  V30 31862 H 4341.69 6.29101 -7.32804 0
M  V30 31863 H 4344.33 5.84315 -2.47318 0
M  V30 31864 P 4346.19 7.39546 -4.75277 0
M  V30 31865 O 4347.59 7.86988 -5.07993 0
M  V30 31866 O 4345.81 5.99957 -5.13804 0
M  V30 31867 O 4345.87 7.57411 -3.18621 0
M  V30 31868 C 4345.71 8.97357 -2.74833 0
M  V30 31869 C 4346.25 9.0745 -1.32694 0
M  V30 31870 O 4345.19 8.61972 -0.606089 0
M  V30 31871 C 4347.46 8.25383 -0.938334 0
M  V30 31872 O 4348.2 8.74577 0.146954 0
M  V30 31873 C 4346.8 6.8802 -0.712559 0
M  V30 31874 O 4347.59 6.11791 0.194623 0
M  V30 31875 C 4345.46 7.27966 -0.139777 0
M  V30 31876 N 4344.42 6.39368 -0.623421 0
M  V30 31877 C 4343.38 6.08088 0.223886 0
M  V30 31878 O 4343.42 6.5102 1.39986 0
M  V30 31879 N 4342.37 5.30627 -0.224051 0
M  V30 31880 C 4342.42 4.82531 -1.47257 0
M  V30 31881 C 4343.51 5.09974 -2.34008 0
M  V30 31882 C 4344.48 5.89548 -1.87678 0
M  V30 31883 H 4345.49 7.25255 0.961469 0
M  V30 31884 H 4346.67 6.32625 -1.65044 0
M  V30 31885 H 4348.16 8.19631 -1.78299 0
M  V30 31886 H 4346.46 10.1305 -1.09016 0
M  V30 31887 H 4346.27 9.64276 -3.41316 0
M  V30 31888 H 4344.64 9.25321 -2.76328 0
M  V30 31889 H 4343.56 4.67832 -3.3413 0
M  V30 31890 H 4345.32 6.14434 -2.51991 0
M  V30 31891 H 4347.38 6.35931 1.08377 0
M  V30 31892 P 4349.14 8.791 -2.49269e-10 0
M  V30 31893 O 4350.54 9.36698 -0.018734 0
M  V30 31894 O 4348.76 7.82499 -1.07878 0
M  V30 31895 O 4348.82 8.09434 1.41446 0
M  V30 31896 C 4348.66 9.0349 2.53943 0
M  V30 31897 C 4349.2 8.35135 3.78975 0
M  V30 31898 O 4348.14 7.57904 4.1503 0
M  V30 31899 C 4350.41 7.45087 3.67298 0
M  V30 31900 O 4351.15 7.27796 4.85194 0
M  V30 31901 C 4349.75 6.17323 3.12027 0
M  V30 31902 O 4350.55 5.04149 3.47132 0
M  V30 31903 C 4348.41 6.19961 3.81809 0
M  V30 31904 N 4347.37 5.71575 2.93223 0
M  V30 31905 C 4346.33 4.99452 3.47592 0
M  V30 31906 O 4346.37 4.7199 4.69732 0
M  V30 31907 N 4345.32 4.58505 2.6803 0
M  V30 31908 C 4345.37 4.85544 1.36995 0
M  V30 31909 C 4346.46 5.55532 0.788532 0
M  V30 31910 C 4347.43 5.97426 1.60849 0
M  V30 31911 H 4348.44 5.58142 4.72986 0
M  V30 31912 H 4349.62 6.21428 2.0318 0
M  V30 31913 H 4351.11 7.85913 2.93131 0
M  V30 31914 H 4349.41 9.11171 4.55987 0
M  V30 31915 H 4349.22 9.9573 2.34194 0
M  V30 31916 H 4347.59 9.27824 2.67805 0
M  V30 31917 H 4346.51 5.7421 -0.281588 0
M  V30 31918 H 4348.28 6.53132 1.202 0
M  V30 31919 H 4350.33 4.76386 4.34983 0
M  V30 31920 P 4352.09 7.39546 4.75277 0
M  V30 31921 O 4353.51 7.81777 5.05738 0
M  V30 31922 O 4351.73 7.1065 3.32998 0
M  V30 31923 O 4351.77 6.04542 5.56673 0
M  V30 31924 C 4351.61 6.22772 7.02095 0
M  V30 31925 C 4352.15 4.97725 7.70406 0
M  V30 31926 O 4351.09 4.13256 7.58987 0
M  V30 31927 C 4353.37 4.28231 7.11815 0
M  V30 31928 O 4354.1 3.49945 8.01648 0
M  V30 31929 C 4352.7 3.5063 5.96244 0
M  V30 31930 O 4353.5 2.36482 5.64681 0
M  V30 31931 C 4351.36 3.15122 6.56374 0
M  V30 31932 H 4351.39 2.13853 6.99751 0
M  V30 31933 H 4352.57 4.13501 5.06559 0
M  V30 31934 H 4354.06 5.03285 6.70911 0
M  V30 31935 H 4352.36 5.20877 8.75697 0
M  V30 31936 H 4352.17 7.11046 7.35349 0
M  V30 31937 H 4350.54 6.35815 7.26986 0
M  V30 31938 H 4353.18 1.61644 6.13565 0
M  V30 31939 P 4355.04 3.65191 7.99657 0
M  V30 31940 O 4356.46 3.84333 8.48297 0
M  V30 31941 O 4354.68 4.17805 6.64342 0
M  V30 31942 O 4354.72 2.07613 7.95143 0
M  V30 31943 C 4354.56 1.44328 9.27336 0
M  V30 31944 C 4355.1 0.0220012 9.17097 0
M  V30 31945 O 4354.04 -0.626867 8.61923 0
M  V30 31946 C 4356.32 -0.24586 8.30336 0
M  V30 31947 O 4357.05 -1.39011 8.63583 0
M  V30 31948 C 4355.65 -0.273849 6.91158 0
M  V30 31949 O 4356.45 -1.06331 6.02794 0
M  V30 31950 C 4354.31 -0.897649 7.22545 0
M  V30 31951 N 4353.27 -0.292839 6.41732 0
M  V30 31952 C 4353.33 1.00068 6.10757 0
M  V30 31953 N 4352.28 1.36468 5.35794 0
M  V30 31954 C 4351.55 0.258894 5.2366 0
M  V30 31955 C 4350.24 0.0670682 4.65752 0
M  V30 31956 O 4349.51 0.902443 4.10497 0
M  V30 31957 N 4349.81 -1.2131 4.75881 0
M  V30 31958 C 4350.56 -2.24934 5.37101 0
M  V30 31959 N 4349.97 -3.48783 5.33984 0
M  V30 31960 N 4351.72 -2.0844 5.95684 0
M  V30 31961 C 4352.17 -0.81395 5.87791 0
M  V30 31962 H 4354.34 -1.9841 7.04286 0
M  V30 31963 H 4355.53 0.739815 6.49601 0
M  V30 31964 H 4357.01 0.598315 8.36563 0
M  V30 31965 H 4355.32 -0.352479 10.1829 0
M  V30 31966 H 4355.13 2.00611 10.0304 0
M  V30 31967 H 4353.49 1.41843 9.55327 0
M  V30 31968 H 4348.92 -1.44434 4.37895 0
M  V30 31969 H 4354.13 1.67697 6.42268 0
M  V30 31970 H 4349.06 -3.60543 4.87699 0
M  V30 31971 H 4350.43 -4.29232 5.7819 0
M  V30 31972 H 4356.14 -1.95704 6.0346 0
M  V30 31973 P 4357.99 -1.25109 8.70152 0
M  V30 31974 O 4359.41 -1.35274 9.21221 0
M  V30 31975 O 4357.63 -0.0769065 7.84762 0
M  V30 31976 O 4357.67 -2.55232 7.81161 0
M  V30 31977 C 4357.51 -3.79939 8.58154 0
M  V30 31978 C 4358.05 -4.94023 7.72785 0
M  V30 31979 O 4356.99 -5.18726 6.91205 0
M  V30 31980 C 4359.27 -4.69597 6.85231 0
M  V30 31981 O 4360 -5.83832 6.51337 0
M  V30 31982 C 4358.6 -3.96706 5.66633 0
M  V30 31983 O 4359.4 -4.15414 4.49689 0
M  V30 31984 C 4357.26 -4.66153 5.59313 0
M  V30 31985 H 4357.29 -5.47679 4.85214 0
M  V30 31986 H 4358.48 -2.89008 5.86566 0
M  V30 31987 H 4359.96 -4.0121 7.36511 0
M  V30 31988 H 4358.27 -5.80182 8.37584 0
M  V30 31989 H 4358.08 -3.73517 9.52265 0
M  V30 31990 H 4356.45 -3.97163 8.80359 0
M  V30 31991 H 4359.08 -4.90969 4.01921 0
M  V30 31992 P 4360.94 -5.75688 6.64379 0
M  V30 31993 O 4362.36 -6.11849 7.01846 0
M  V30 31994 O 4360.58 -4.30744 6.56026 0
M  V30 31995 O 4360.62 -6.37042 5.19165 0
M  V30 31996 C 4360.46 -7.83578 5.16515 0
M  V30 31997 C 4361 -8.33398 3.83019 0
M  V30 31998 O 4359.94 -8.10074 3.01034 0
M  V30 31999 C 4362.22 -7.65514 3.2257 0
M  V30 32000 O 4362.96 -8.4329 2.32297 0
M  V30 32001 C 4361.55 -6.40075 2.62207 0
M  V30 32002 O 4362.35 -5.92589 1.53712 0
M  V30 32003 C 4360.21 -6.9454 2.18503 0
M  V30 32004 H 4360.24 -7.23063 1.12091 0
M  V30 32005 H 4361.43 -5.6025 3.37201 0
M  V30 32006 H 4362.91 -7.35707 4.02681 0
M  V30 32007 H 4361.22 -9.40912 3.9095 0
M  V30 32008 H 4361.03 -8.29056 5.99158 0
M  V30 32009 H 4359.4 -8.10073 5.25882 0
M  V30 32010 H 4362.04 -6.30324 0.726794 0
M  V30 32011 P 4363.89 -8.4349 2.47671 0
M  V30 32012 O 4365.32 -8.94167 2.5964 0
M  V30 32013 O 4363.53 -7.1704 3.19006 0
M  V30 32014 O 4363.57 -8.16596 0.923387 0
M  V30 32015 C 4363.41 -9.38437 0.108857 0
M  V30 32016 C 4363.95 -9.08175 -1.28353 0
M  V30 32017 O 4362.89 -8.44229 -1.84713 0
M  V30 32018 C 4365.17 -8.18386 -1.42505 0
M  V30 32019 O 4365.91 -8.3501 -2.60497 0
M  V30 32020 C 4364.5 -6.80225 -1.25468 0
M  V30 32021 O 4365.3 -5.81621 -1.91066 0
M  V30 32022 C 4363.16 -7.02416 -1.9168 0
M  V30 32023 H 4363.19 -6.6888 -2.96621 0
M  V30 32024 H 4364.38 -6.53617 -0.192223 0
M  V30 32025 H 4365.86 -8.36622 -0.589963 0
M  V30 32026 H 4364.17 -10.0291 -1.79807 0
M  V30 32027 H 4363.98 -10.2138 0.558219 0
M  V30 32028 H 4362.35 -9.6579 0.0444202 0
M  V30 32029 H 4364.99 -5.69556 -2.79637 0
M  V30 32030 P 4366.84 -8.4349 -2.47671 0
M  V30 32031 O 4368.27 -8.92593 -2.65 0
M  V30 32032 O 4366.48 -7.7568 -1.19296 0
M  V30 32033 O 4366.52 -7.36886 -3.63805 0
M  V30 32034 C 4366.36 -7.95349 -4.982 0
M  V30 32035 C 4366.9 -6.94612 -5.98974 0
M  V30 32036 O 4365.84 -6.10347 -6.11815 0
M  V30 32037 C 4368.12 -6.11426 -5.62335 0
M  V30 32038 O 4368.86 -5.6162 -6.70584 0
M  V30 32039 C 4367.45 -5.04409 -4.73308 0
M  V30 32040 O 4368.25 -3.85992 -4.75183 0
M  V30 32041 C 4366.11 -4.8728 -5.41006 0
M  V30 32042 H 4366.14 -4.02333 -6.11157 0
M  V30 32043 H 4367.33 -5.39466 -3.69543 0
M  V30 32044 H 4368.81 -6.71916 -5.01943 0
M  V30 32045 H 4367.12 -7.4649 -6.93477 0
M  V30 32046 H 4366.93 -8.89416 -5.05237 0
M  V30 32047 H 4365.3 -8.14876 -5.18409 0
M  V30 32048 H 4367.94 -3.27957 -5.4317 0
M  V30 32049 P 4369.79 -5.75688 -6.64379 0
M  V30 32050 O 4371.22 -6.07692 -7.0558 0
M  V30 32051 O 4369.43 -5.88047 -5.19722 0
M  V30 32052 O 4369.47 -4.2322 -7.04443 0
M  V30 32053 C 4369.31 -3.99785 -8.49201 0
M  V30 32054 C 4369.85 -2.60516 -8.79425 0
M  V30 32055 O 4368.8 -1.82663 -8.44573 0
M  V30 32056 C 4371.07 -2.10343 -8.03628 0
M  V30 32057 O 4371.81 -1.09919 -8.67766 0
M  V30 32058 C 4370.4 -1.68446 -6.70876 0
M  V30 32059 O 4371.2 -0.684109 -6.08265 0
M  V30 32060 C 4369.06 -1.17436 -7.18567 0
M  V30 32061 N 4368.02 -1.52699 -6.23988 0
M  V30 32062 C 4368.19 -2.578 -5.40574 0
M  V30 32063 N 4367.16 -2.78966 -4.61193 0
M  V30 32064 C 4366.28 -1.78725 -4.95769 0
M  V30 32065 C 4365.01 -1.45727 -4.44207 0
M  V30 32066 N 4364.45 -0.374977 -5.05812 0
M  V30 32067 C 4365.05 0.345585 -6.05615 0
M  V30 32068 N 4366.22 0.0787651 -6.56253 0
M  V30 32069 C 4366.8 -1.00499 -5.96189 0
M  V30 32070 H 4370.28 -2.53396 -6.02698 0
M  V30 32071 H 4371.76 -2.93881 -7.85526 0
M  V30 32072 H 4370.07 -2.52078 -9.87225 0
M  V30 32073 H 4369.88 -4.75072 -9.05887 0
M  V30 32074 H 4368.25 -4.05244 -8.76668 0
M  V30 32075 H 4369.09 -3.18977 -5.3945 0
M  V30 32076 H 4370.89 0.177619 -6.34151 0
M  V30 32077 P 4372.74 -1.25109 -8.70152 0
M  V30 32078 O 4374.17 -1.29744 -9.22016 0
M  V30 32079 O 4372.38 -2.13714 -7.55141 0
M  V30 32080 O 4372.42 0.248149 -8.21425 0
M  V30 32081 C 4372.26 1.22779 -9.30434 0
M  V30 32082 C 4372.8 2.56293 -8.80664 0
M  V30 32083 O 4371.75 3.02979 -8.09349 0
M  V30 32084 C 4374.02 2.57523 -7.89775 0
M  V30 32085 O 4374.76 3.7668 -7.89438 0
M  V30 32086 C 4373.35 2.20997 -6.55446 0
M  V30 32087 O 4374.15 2.71895 -5.48509 0
M  V30 32088 C 4372.01 2.89693 -6.67988 0
M  V30 32089 H 4372.05 3.88793 -6.19859 0
M  V30 32090 H 4373.23 1.12046 -6.44229 0
M  V30 32091 H 4374.71 1.7746 -8.19711 0
M  V30 32092 H 4373.02 3.20706 -9.67112 0
M  V30 32093 H 4372.83 0.901032 -10.1892 0
M  V30 32094 H 4371.2 1.33049 -9.56592 0
M  V30 32095 H 4373.84 3.57847 -5.23962 0
M  V30 32096 P 4375.7 3.65191 -7.99657 0
M  V30 32097 O 4377.12 3.89332 -8.45794 0
M  V30 32098 O 4375.34 2.28472 -7.50807 0
M  V30 32099 O 4375.37 4.64972 -6.77611 0
M  V30 32100 C 4375.21 6.06319 -7.16352 0
M  V30 32101 C 4375.75 6.91731 -6.02299 0
M  V30 32102 O 4374.7 6.92449 -5.17064 0
M  V30 32103 C 4376.97 6.43627 -5.25174 0
M  V30 32104 O 4377.71 7.43686 -4.60469 0
M  V30 32105 C 4376.3 5.40275 -4.31916 0
M  V30 32106 O 4377.1 5.25279 -3.14438 0
M  V30 32107 C 4374.96 6.04847 -4.05327 0
M  V30 32108 H 4375 6.62195 -3.11261 0
M  V30 32109 H 4376.18 4.42556 -4.81383 0
M  V30 32110 H 4377.66 5.92458 -5.93643 0
M  V30 32111 H 4375.97 7.92655 -6.402 0
M  V30 32112 H 4375.78 6.26671 -8.0846 0
M  V30 32113 H 4374.15 6.29101 -7.32804 0
M  V30 32114 H 4376.79 5.84315 -2.47318 0
M  V30 32115 P 4378.65 7.39546 -4.75277 0
M  V30 32116 O 4380.07 7.84798 -5.01039 0
M  V30 32117 O 4378.29 5.9812 -5.08098 0
M  V30 32118 O 4378.32 7.57503 -3.1866 0
M  V30 32119 C 4378.16 8.97357 -2.74833 0
M  V30 32120 C 4378.7 9.07548 -1.32709 0
M  V30 32121 O 4377.65 8.62072 -0.606159 0
M  V30 32122 C 4379.92 8.25383 -0.938334 0
M  V30 32123 O 4380.66 8.74577 0.146954 0
M  V30 32124 C 4379.25 6.8802 -0.712559 0
M  V30 32125 O 4380.05 6.1189 0.194655 0
M  V30 32126 C 4377.91 7.27966 -0.139777 0
M  V30 32127 H 4377.95 7.25354 0.961601 0
M  V30 32128 H 4379.13 6.32557 -1.65702 0
M  V30 32129 H 4380.61 8.19355 -1.79097 0
M  V30 32130 H 4378.92 10.1294 -1.10029 0
M  V30 32131 H 4378.73 9.64276 -3.41316 0
M  V30 32132 H 4377.1 9.25417 -2.76357 0
M  V30 32133 H 4379.74 6.25267 1.07847 0
M  V30 32134 P 4381.6 8.791 -2.54456e-10 0
M  V30 32135 O 4383.02 9.31096 0.027933 0
M  V30 32136 O 4381.24 7.77869 -1.04071 0
M  V30 32137 O 4381.27 8.09533 1.41463 0
M  V30 32138 C 4381.11 9.0349 2.53943 0
M  V30 32139 C 4381.65 8.35226 3.79016 0
M  V30 32140 O 4380.6 7.57992 4.15078 0
M  V30 32141 C 4382.87 7.45087 3.67298 0
M  V30 32142 O 4383.61 7.27796 4.85194 0
M  V30 32143 C 4382.2 6.17323 3.12027 0
M  V30 32144 O 4383 5.04231 3.47188 0
M  V30 32145 C 4380.87 6.19961 3.81809 0
M  V30 32146 H 4380.9 5.58218 4.73051 0
M  V30 32147 H 4382.08 6.21726 2.02589 0
M  V30 32148 H 4383.56 7.86112 2.9231 0
M  V30 32149 H 4381.87 9.11627 4.55076 0
M  V30 32150 H 4381.68 9.9573 2.34194 0
M  V30 32151 H 4380.05 9.2792 2.67832 0
M  V30 32152 H 4382.69 4.67702 4.28772 0
M  V30 32153 P 4384.55 7.39546 4.75277 0
M  V30 32154 O 4385.97 7.81777 5.05738 0
M  V30 32155 O 4384.19 7.1065 3.32998 0
M  V30 32156 O 4384.22 6.04542 5.56673 0
M  V30 32157 C 4384.06 6.22772 7.02095 0
M  V30 32158 C 4384.6 4.97725 7.70406 0
M  V30 32159 O 4383.55 4.13256 7.58987 0
M  V30 32160 C 4385.82 4.28231 7.11815 0
M  V30 32161 O 4386.56 3.49945 8.01648 0
M  V30 32162 C 4385.15 3.5063 5.96244 0
M  V30 32163 O 4385.95 2.36482 5.64681 0
M  V30 32164 C 4383.82 3.15122 6.56374 0
M  V30 32165 H 4383.85 2.13853 6.99751 0
M  V30 32166 H 4385.03 4.13501 5.06559 0
M  V30 32167 H 4386.52 5.03285 6.70911 0
M  V30 32168 H 4384.82 5.20877 8.75697 0
M  V30 32169 H 4384.63 7.11046 7.35349 0
M  V30 32170 H 4383 6.35815 7.26986 0
M  V30 32171 H 4385.64 1.61644 6.13565 0
M  V30 32172 P 4387.5 3.65191 7.99657 0
M  V30 32173 O 4388.92 3.8425 8.48115 0
M  V30 32174 O 4387.14 4.17805 6.64342 0
M  V30 32175 O 4387.17 2.07613 7.95143 0
M  V30 32176 C 4387.01 1.44328 9.27336 0
M  V30 32177 C 4387.55 0.0220036 9.17197 0
M  V30 32178 O 4386.5 -0.626867 8.61923 0
M  V30 32179 C 4388.77 -0.24586 8.30336 0
M  V30 32180 O 4389.51 -1.39011 8.63583 0
M  V30 32181 C 4388.1 -0.273849 6.91158 0
M  V30 32182 O 4388.9 -1.06348 6.02892 0
M  V30 32183 C 4386.77 -0.897649 7.22545 0
M  V30 32184 H 4386.8 -1.9841 7.04286 0
M  V30 32185 H 4387.98 0.739928 6.497 0
M  V30 32186 H 4389.47 0.60668 8.36503 0
M  V30 32187 H 4387.77 -0.352479 10.1829 0
M  V30 32188 H 4387.58 2.00611 10.0304 0
M  V30 32189 H 4385.95 1.41843 9.55327 0
M  V30 32190 H 4388.59 -1.95734 6.03555 0
M  V30 32191 P 4390.45 -1.25109 8.70152 0
M  V30 32192 O 4391.87 -1.35274 9.21221 0
M  V30 32193 O 4390.09 -0.0769065 7.84762 0
M  V30 32194 O 4390.13 -2.55232 7.81161 0
M  V30 32195 C 4389.97 -3.79939 8.58154 0
M  V30 32196 C 4390.51 -4.94023 7.72785 0
M  V30 32197 O 4389.45 -5.18726 6.91205 0
M  V30 32198 C 4391.72 -4.69597 6.85231 0
M  V30 32199 O 4392.46 -5.83832 6.51337 0
M  V30 32200 C 4391.05 -3.96706 5.66633 0
M  V30 32201 O 4391.85 -4.15414 4.49689 0
M  V30 32202 C 4389.72 -4.66153 5.59313 0
M  V30 32203 H 4389.75 -5.47679 4.85214 0
M  V30 32204 H 4390.93 -2.89008 5.86566 0
M  V30 32205 H 4392.42 -4.0121 7.36511 0
M  V30 32206 H 4390.72 -5.80182 8.37584 0
M  V30 32207 H 4390.53 -3.73517 9.52265 0
M  V30 32208 H 4388.9 -3.97163 8.80359 0
M  V30 32209 H 4391.54 -4.90969 4.01921 0
M  V30 32210 P 4393.4 -5.75688 6.64379 0
M  V30 32211 O 4394.82 -6.11849 7.01846 0
M  V30 32212 O 4393.04 -4.30744 6.56026 0
M  V30 32213 O 4393.08 -6.37042 5.19165 0
M  V30 32214 C 4392.92 -7.83578 5.16515 0
M  V30 32215 C 4393.46 -8.33398 3.83019 0
M  V30 32216 O 4392.4 -8.10074 3.01034 0
M  V30 32217 C 4394.67 -7.65514 3.2257 0
M  V30 32218 O 4395.41 -8.4329 2.32297 0
M  V30 32219 C 4394 -6.40075 2.62207 0
M  V30 32220 O 4394.8 -5.92589 1.53712 0
M  V30 32221 C 4392.67 -6.9454 2.18503 0
M  V30 32222 H 4392.7 -7.23063 1.12091 0
M  V30 32223 H 4393.88 -5.6025 3.37201 0
M  V30 32224 H 4395.37 -7.35707 4.02681 0
M  V30 32225 H 4393.67 -9.40912 3.9095 0
M  V30 32226 H 4393.48 -8.29056 5.99158 0
M  V30 32227 H 4391.85 -8.10073 5.25882 0
M  V30 32228 H 4394.49 -6.30324 0.726794 0
M  V30 32229 P 4396.35 -8.4349 2.47671 0
M  V30 32230 O 4397.77 -8.94167 2.5964 0
M  V30 32231 O 4395.99 -7.1704 3.19006 0
M  V30 32232 O 4396.03 -8.16596 0.923387 0
M  V30 32233 C 4395.87 -9.38437 0.108857 0
M  V30 32234 C 4396.41 -9.08175 -1.28353 0
M  V30 32235 O 4395.35 -8.44229 -1.84713 0
M  V30 32236 C 4397.62 -8.18386 -1.42505 0
M  V30 32237 O 4398.36 -8.3501 -2.60497 0
M  V30 32238 C 4396.96 -6.80225 -1.25468 0
M  V30 32239 O 4397.75 -5.81621 -1.91066 0
M  V30 32240 C 4395.62 -7.02416 -1.9168 0
M  V30 32241 H 4395.65 -6.6888 -2.96621 0
M  V30 32242 H 4396.83 -6.53617 -0.192223 0
M  V30 32243 H 4398.32 -8.36622 -0.589963 0
M  V30 32244 H 4396.62 -10.0291 -1.79807 0
M  V30 32245 H 4396.43 -10.2138 0.558219 0
M  V30 32246 H 4394.8 -9.6579 0.0444202 0
M  V30 32247 H 4397.44 -5.69556 -2.79637 0
M  V30 32248 P 4399.3 -8.4349 -2.47671 0
M  V30 32249 O 4400.72 -8.92593 -2.65 0
M  V30 32250 O 4398.94 -7.7568 -1.19296 0
M  V30 32251 O 4398.98 -7.36886 -3.63805 0
M  V30 32252 C 4398.82 -7.95349 -4.982 0
M  V30 32253 C 4399.36 -6.94612 -5.98974 0
M  V30 32254 O 4398.3 -6.10347 -6.11815 0
M  V30 32255 C 4400.57 -6.11426 -5.62335 0
M  V30 32256 O 4401.31 -5.6162 -6.70584 0
M  V30 32257 C 4399.91 -5.04409 -4.73308 0
M  V30 32258 O 4400.7 -3.85992 -4.75183 0
M  V30 32259 C 4398.57 -4.8728 -5.41006 0
M  V30 32260 H 4398.6 -4.02333 -6.11157 0
M  V30 32261 H 4399.78 -5.39466 -3.69543 0
M  V30 32262 H 4401.27 -6.71916 -5.01943 0
M  V30 32263 H 4399.57 -7.4649 -6.93477 0
M  V30 32264 H 4399.38 -8.89416 -5.05237 0
M  V30 32265 H 4397.75 -8.14876 -5.18409 0
M  V30 32266 H 4400.39 -3.27957 -5.4317 0
M  V30 32267 P 4402.25 -5.75688 -6.64379 0
M  V30 32268 O 4403.65 -6.14823 -7.06682 0
M  V30 32269 O 4401.87 -5.93957 -5.20728 0
M  V30 32270 O 4401.93 -4.23169 -7.04357 0
M  V30 32271 C 4401.77 -3.99743 -8.4911 0
M  V30 32272 C 4402.31 -2.60487 -8.79329 0
M  V30 32273 O 4401.25 -1.82663 -8.44573 0
M  V30 32274 C 4403.52 -2.10343 -8.03628 0
M  V30 32275 O 4404.26 -1.09919 -8.67766 0
M  V30 32276 C 4402.86 -1.68446 -6.70876 0
M  V30 32277 O 4403.66 -0.678026 -6.08333 0
M  V30 32278 C 4401.52 -1.17436 -7.18567 0
M  V30 32279 N 4400.48 -1.52699 -6.23988 0
M  V30 32280 C 4399.44 -0.643793 -6.05085 0
M  V30 32281 O 4399.48 0.459118 -6.64315 0
M  V30 32282 N 4398.43 -0.976931 -5.22038 0
M  V30 32283 C 4398.48 -2.14429 -4.56662 0
M  V30 32284 C 4399.57 -3.04203 -4.71481 0
M  V30 32285 C 4400.54 -2.69669 -5.56838 0
M  V30 32286 H 4401.55 -0.0804622 -7.31556 0
M  V30 32287 H 4402.73 -2.53396 -6.02698 0
M  V30 32288 H 4404.22 -2.9313 -7.85914 0
M  V30 32289 H 4402.52 -2.52078 -9.87225 0
M  V30 32290 H 4402.33 -4.75072 -9.05887 0
M  V30 32291 H 4400.7 -4.05202 -8.76577 0
M  V30 32292 H 4399.62 -3.97309 -4.15519 0
M  V30 32293 H 4401.39 -3.36869 -5.72318 0
M  V30 32294 H 4403.44 0.167718 -6.44882 0
M  V30 32295 P 4405.2 -1.25109 -8.70152 0
M  V30 32296 O 4406.6 -1.3516 -9.26897 0
M  V30 32297 O 4404.82 -2.18141 -7.59181 0
M  V30 32298 O 4404.88 0.248118 -8.21325 0
M  V30 32299 C 4404.72 1.22779 -9.30434 0
M  V30 32300 C 4405.26 2.56265 -8.80568 0
M  V30 32301 O 4404.2 3.02944 -8.09255 0
M  V30 32302 C 4406.48 2.57523 -7.89775 0
M  V30 32303 O 4407.21 3.7668 -7.89438 0
M  V30 32304 C 4405.81 2.20997 -6.55446 0
M  V30 32305 O 4406.61 2.71851 -5.48419 0
M  V30 32306 C 4404.47 2.89693 -6.67988 0
M  V30 32307 N 4403.43 2.08895 -6.07487 0
M  V30 32308 C 4402.39 2.72974 -5.43836 0
M  V30 32309 O 4402.43 3.97779 -5.34036 0
M  V30 32310 N 4401.38 2.0005 -4.91983 0
M  V30 32311 C 4401.43 0.66501 -5.00098 0
M  V30 32312 C 4402.52 -0.0100979 -5.61099 0
M  V30 32313 C 4403.49 0.74189 -6.14236 0
M  V30 32314 H 4404.5 3.8874 -6.19774 0
M  V30 32315 H 4405.69 1.12673 -6.44018 0
M  V30 32316 H 4407.17 1.783 -8.19631 0
M  V30 32317 H 4405.48 3.21673 -9.66791 0
M  V30 32318 H 4405.28 0.901032 -10.1892 0
M  V30 32319 H 4403.65 1.33036 -9.56493 0
M  V30 32320 H 4402.57 -1.09591 -5.64358 0
M  V30 32321 H 4404.34 0.260263 -6.6359 0
M  V30 32322 H 4406.39 3.62759 -5.33442 0
M  V30 32323 P 4408.15 3.65191 -7.99657 0
M  V30 32324 O 4409.57 3.89332 -8.45794 0
M  V30 32325 O 4407.79 2.28472 -7.50807 0
M  V30 32326 O 4407.83 4.64972 -6.77611 0
M  V30 32327 C 4407.67 6.06319 -7.16352 0
M  V30 32328 C 4408.21 6.91731 -6.02299 0
M  V30 32329 O 4407.15 6.92449 -5.17064 0
M  V30 32330 C 4409.43 6.43627 -5.25174 0
M  V30 32331 O 4410.16 7.43686 -4.60469 0
M  V30 32332 C 4408.76 5.40275 -4.31916 0
M  V30 32333 O 4409.56 5.25279 -3.14438 0
M  V30 32334 C 4407.42 6.04847 -4.05327 0
M  V30 32335 H 4407.45 6.62195 -3.11261 0
M  V30 32336 H 4408.64 4.42556 -4.81383 0
M  V30 32337 H 4410.12 5.92458 -5.93643 0
M  V30 32338 H 4408.43 7.92655 -6.402 0
M  V30 32339 H 4408.24 6.26671 -8.0846 0
M  V30 32340 H 4406.61 6.29101 -7.32804 0
M  V30 32341 H 4409.24 5.84315 -2.47318 0
M  V30 32342 P 4411.1 7.39546 -4.75277 0
M  V30 32343 O 4412.52 7.84798 -5.01039 0
M  V30 32344 O 4410.74 5.9812 -5.08098 0
M  V30 32345 O 4410.78 7.57503 -3.1866 0
M  V30 32346 C 4410.62 8.97357 -2.74833 0
M  V30 32347 C 4411.16 9.07548 -1.32709 0
M  V30 32348 O 4410.1 8.62072 -0.606159 0
M  V30 32349 C 4412.38 8.25383 -0.938334 0
M  V30 32350 O 4413.12 8.74577 0.146954 0
M  V30 32351 C 4411.71 6.8802 -0.712559 0
M  V30 32352 O 4412.51 6.1189 0.194655 0
M  V30 32353 C 4410.37 7.27966 -0.139777 0
M  V30 32354 H 4410.4 7.25354 0.961601 0
M  V30 32355 H 4411.59 6.32557 -1.65702 0
M  V30 32356 H 4413.07 8.19355 -1.79097 0
M  V30 32357 H 4411.38 10.1294 -1.10029 0
M  V30 32358 H 4411.19 9.64276 -3.41316 0
M  V30 32359 H 4409.56 9.25417 -2.76357 0
M  V30 32360 H 4412.2 6.25267 1.07847 0
M  V30 32361 P 4414.05 8.791 -2.59643e-10 0
M  V30 32362 O 4415.47 9.31096 0.027933 0
M  V30 32363 O 4413.69 7.77869 -1.04071 0
M  V30 32364 O 4413.73 8.09533 1.41463 0
M  V30 32365 C 4413.57 9.0349 2.53943 0
M  V30 32366 C 4414.11 8.35226 3.79016 0
M  V30 32367 O 4413.05 7.57992 4.15078 0
M  V30 32368 C 4415.33 7.45087 3.67298 0
M  V30 32369 O 4416.07 7.27796 4.85194 0
M  V30 32370 C 4414.66 6.17323 3.12027 0
M  V30 32371 O 4415.46 5.04231 3.47188 0
M  V30 32372 C 4413.32 6.19961 3.81809 0
M  V30 32373 H 4413.35 5.58218 4.73051 0
M  V30 32374 H 4414.54 6.21726 2.02589 0
M  V30 32375 H 4416.02 7.86112 2.9231 0
M  V30 32376 H 4414.33 9.11627 4.55076 0
M  V30 32377 H 4414.14 9.9573 2.34194 0
M  V30 32378 H 4412.51 9.2792 2.67832 0
M  V30 32379 H 4415.15 4.67702 4.28772 0
M  V30 32380 P 4417 7.39546 4.75277 0
M  V30 32381 O 4418.43 7.81777 5.05738 0
M  V30 32382 O 4416.64 7.1065 3.32998 0
M  V30 32383 O 4416.68 6.04542 5.56673 0
M  V30 32384 C 4416.52 6.22772 7.02095 0
M  V30 32385 C 4417.06 4.97725 7.70406 0
M  V30 32386 O 4416 4.13256 7.58987 0
M  V30 32387 C 4418.28 4.28231 7.11815 0
M  V30 32388 O 4419.02 3.49945 8.01648 0
M  V30 32389 C 4417.61 3.5063 5.96244 0
M  V30 32390 O 4418.41 2.36482 5.64681 0
M  V30 32391 C 4416.27 3.15122 6.56374 0
M  V30 32392 H 4416.3 2.13853 6.99751 0
M  V30 32393 H 4417.49 4.13501 5.06559 0
M  V30 32394 H 4418.97 5.03285 6.70911 0
M  V30 32395 H 4417.28 5.20877 8.75697 0
M  V30 32396 H 4417.09 7.11046 7.35349 0
M  V30 32397 H 4415.46 6.35815 7.26986 0
M  V30 32398 H 4418.1 1.61644 6.13565 0
M  V30 32399 P 4419.95 3.65191 7.99657 0
M  V30 32400 O 4421.38 3.8425 8.48115 0
M  V30 32401 O 4419.59 4.17805 6.64342 0
M  V30 32402 O 4419.63 2.07613 7.95143 0
M  V30 32403 C 4419.47 1.44328 9.27336 0
M  V30 32404 C 4420.01 0.0220036 9.17197 0
M  V30 32405 O 4418.95 -0.626867 8.61923 0
M  V30 32406 C 4421.23 -0.24586 8.30336 0
M  V30 32407 O 4421.97 -1.39011 8.63583 0
M  V30 32408 C 4420.56 -0.273849 6.91158 0
M  V30 32409 O 4421.36 -1.06348 6.02892 0
M  V30 32410 C 4419.22 -0.897649 7.22545 0
M  V30 32411 H 4419.25 -1.9841 7.04286 0
M  V30 32412 H 4420.44 0.739928 6.497 0
M  V30 32413 H 4421.92 0.60668 8.36503 0
M  V30 32414 H 4420.23 -0.352479 10.1829 0
M  V30 32415 H 4420.04 2.00611 10.0304 0
M  V30 32416 H 4418.41 1.41843 9.55327 0
M  V30 32417 H 4421.05 -1.95734 6.03555 0
M  V30 32418 P 4422.9 -1.25109 8.70152 0
M  V30 32419 O 4424.33 -1.35274 9.21221 0
M  V30 32420 O 4422.54 -0.0769065 7.84762 0
M  V30 32421 O 4422.58 -2.55232 7.81161 0
M  V30 32422 C 4422.42 -3.79939 8.58154 0
M  V30 32423 C 4422.96 -4.94023 7.72785 0
M  V30 32424 O 4421.91 -5.18726 6.91205 0
M  V30 32425 C 4424.18 -4.69597 6.85231 0
M  V30 32426 O 4424.92 -5.83832 6.51337 0
M  V30 32427 C 4423.51 -3.96706 5.66633 0
M  V30 32428 O 4424.31 -4.15414 4.49689 0
M  V30 32429 C 4422.17 -4.66153 5.59313 0
M  V30 32430 H 4422.21 -5.47679 4.85214 0
M  V30 32431 H 4423.39 -2.89008 5.86566 0
M  V30 32432 H 4424.87 -4.0121 7.36511 0
M  V30 32433 H 4423.18 -5.80182 8.37584 0
M  V30 32434 H 4422.99 -3.73517 9.52265 0
M  V30 32435 H 4421.36 -3.97163 8.80359 0
M  V30 32436 H 4424 -4.90969 4.01921 0
M  V30 32437 P 4425.85 -5.75688 6.64379 0
M  V30 32438 O 4427.28 -6.11849 7.01846 0
M  V30 32439 O 4425.49 -4.30744 6.56026 0
M  V30 32440 O 4425.53 -6.37042 5.19165 0
M  V30 32441 C 4425.37 -7.83578 5.16515 0
M  V30 32442 C 4425.91 -8.33398 3.83019 0
M  V30 32443 O 4424.86 -8.10074 3.01034 0
M  V30 32444 C 4427.13 -7.65514 3.2257 0
M  V30 32445 O 4427.87 -8.4329 2.32297 0
M  V30 32446 C 4426.46 -6.40075 2.62207 0
M  V30 32447 O 4427.26 -5.92589 1.53712 0
M  V30 32448 C 4425.12 -6.9454 2.18503 0
M  V30 32449 H 4425.16 -7.23063 1.12091 0
M  V30 32450 H 4426.34 -5.6025 3.37201 0
M  V30 32451 H 4427.82 -7.35707 4.02681 0
M  V30 32452 H 4426.13 -9.40912 3.9095 0
M  V30 32453 H 4425.94 -8.29056 5.99158 0
M  V30 32454 H 4424.31 -8.10073 5.25882 0
M  V30 32455 H 4426.95 -6.30324 0.726794 0
M  V30 32456 P 4428.81 -8.4349 2.47671 0
M  V30 32457 O 4430.23 -8.94167 2.5964 0
M  V30 32458 O 4428.45 -7.1704 3.19006 0
M  V30 32459 O 4428.48 -8.16596 0.923387 0
M  V30 32460 C 4428.32 -9.38437 0.108857 0
M  V30 32461 C 4428.86 -9.08175 -1.28353 0
M  V30 32462 O 4427.81 -8.44229 -1.84713 0
M  V30 32463 C 4430.08 -8.18386 -1.42505 0
M  V30 32464 O 4430.82 -8.3501 -2.60497 0
M  V30 32465 C 4429.41 -6.80225 -1.25468 0
M  V30 32466 O 4430.21 -5.81621 -1.91066 0
M  V30 32467 C 4428.07 -7.02416 -1.9168 0
M  V30 32468 H 4428.11 -6.6888 -2.96621 0
M  V30 32469 H 4429.29 -6.53617 -0.192223 0
M  V30 32470 H 4430.77 -8.36622 -0.589963 0
M  V30 32471 H 4429.08 -10.0291 -1.79807 0
M  V30 32472 H 4428.89 -10.2138 0.558219 0
M  V30 32473 H 4427.26 -9.6579 0.0444202 0
M  V30 32474 H 4429.9 -5.69556 -2.79637 0
M  V30 32475 P 4431.76 -8.4349 -2.47671 0
M  V30 32476 O 4433.18 -8.92593 -2.65 0
M  V30 32477 O 4431.4 -7.7568 -1.19296 0
M  V30 32478 O 4431.43 -7.36886 -3.63805 0
M  V30 32479 C 4431.27 -7.95349 -4.982 0
M  V30 32480 C 4431.81 -6.94612 -5.98974 0
M  V30 32481 O 4430.76 -6.10347 -6.11815 0
M  V30 32482 C 4433.03 -6.11426 -5.62335 0
M  V30 32483 O 4433.77 -5.6162 -6.70584 0
M  V30 32484 C 4432.36 -5.04409 -4.73308 0
M  V30 32485 O 4433.16 -3.85992 -4.75183 0
M  V30 32486 C 4431.03 -4.8728 -5.41006 0
M  V30 32487 H 4431.06 -4.02333 -6.11157 0
M  V30 32488 H 4432.24 -5.39466 -3.69543 0
M  V30 32489 H 4433.72 -6.71916 -5.01943 0
M  V30 32490 H 4432.03 -7.4649 -6.93477 0
M  V30 32491 H 4431.84 -8.89416 -5.05237 0
M  V30 32492 H 4430.21 -8.14876 -5.18409 0
M  V30 32493 H 4432.85 -3.27957 -5.4317 0
M  V30 32494 P 4434.71 -5.75688 -6.64379 0
M  V30 32495 O 4436.13 -6.07627 -7.05504 0
M  V30 32496 O 4434.35 -5.88047 -5.19722 0
M  V30 32497 O 4434.38 -4.2322 -7.04443 0
M  V30 32498 C 4434.22 -3.99743 -8.4911 0
M  V30 32499 C 4434.76 -2.60516 -8.79425 0
M  V30 32500 O 4433.71 -1.82684 -8.4467 0
M  V30 32501 C 4435.98 -2.10343 -8.03628 0
M  V30 32502 O 4436.72 -1.09919 -8.67766 0
M  V30 32503 C 4435.31 -1.68446 -6.70876 0
M  V30 32504 O 4436.11 -0.678137 -6.08433 0
M  V30 32505 C 4433.98 -1.17436 -7.18567 0
M  V30 32506 H 4434.01 -0.0804732 -7.31656 0
M  V30 32507 H 4435.19 -2.54037 -6.02537 0
M  V30 32508 H 4436.67 -2.93881 -7.85526 0
M  V30 32509 H 4434.98 -2.53065 -9.86973 0
M  V30 32510 H 4434.79 -4.75072 -9.05887 0
M  V30 32511 H 4433.16 -4.05244 -8.76668 0
M  V30 32512 H 4435.8 0.177647 -6.34251 0
M  V30 32513 P 4437.66 -1.25109 -8.70152 0
M  V30 32514 O 4439.08 -1.29758 -9.22115 0
M  V30 32515 O 4437.3 -2.13714 -7.55141 0
M  V30 32516 O 4437.33 0.248149 -8.21425 0
M  V30 32517 C 4437.17 1.22792 -9.30533 0
M  V30 32518 C 4437.71 2.56293 -8.80664 0
M  V30 32519 O 4436.66 3.02944 -8.09255 0
M  V30 32520 C 4438.93 2.57523 -7.89775 0
M  V30 32521 O 4439.67 3.7668 -7.89438 0
M  V30 32522 C 4438.26 2.20997 -6.55446 0
M  V30 32523 O 4439.06 2.71302 -5.48691 0
M  V30 32524 C 4436.93 2.89693 -6.67988 0
M  V30 32525 N 4435.88 2.08895 -6.07487 0
M  V30 32526 C 4436.05 0.753809 -5.94137 0
M  V30 32527 N 4435.03 0.146592 -5.38801 0
M  V30 32528 C 4434.14 1.1768 -5.13693 0
M  V30 32529 C 4432.87 1.17563 -4.52477 0
M  V30 32530 N 4432.31 2.41918 -4.45789 0
M  V30 32531 C 4432.91 3.56493 -4.90792 0
M  V30 32532 N 4434.09 3.61423 -5.47817 0
M  V30 32533 C 4434.66 2.37779 -5.5588 0
M  V30 32534 H 4438.14 1.12673 -6.44018 0
M  V30 32535 H 4439.62 1.7746 -8.19711 0
M  V30 32536 H 4437.93 3.21673 -9.66791 0
M  V30 32537 H 4437.74 0.901032 -10.1892 0
M  V30 32538 H 4436.11 1.33049 -9.56592 0
M  V30 32539 H 4436.95 0.233081 -6.26266 0
M  V30 32540 H 4438.75 3.5779 -5.23879 0
M  V30 32541 P 4440.61 3.65191 -7.99657 0
M  V30 32542 O 4442.03 3.89332 -8.45794 0
M  V30 32543 O 4440.25 2.28472 -7.50807 0
M  V30 32544 O 4440.28 4.64972 -6.77611 0
M  V30 32545 C 4440.12 6.06319 -7.16352 0
M  V30 32546 C 4440.66 6.91731 -6.02299 0
M  V30 32547 O 4439.61 6.92449 -5.17064 0
M  V30 32548 C 4441.88 6.43627 -5.25174 0
M  V30 32549 O 4442.62 7.43686 -4.60469 0
M  V30 32550 C 4441.21 5.40275 -4.31916 0
M  V30 32551 O 4442.01 5.25279 -3.14438 0
M  V30 32552 C 4439.88 6.04847 -4.05327 0
M  V30 32553 H 4439.91 6.62195 -3.11261 0
M  V30 32554 H 4441.09 4.42556 -4.81383 0
M  V30 32555 H 4442.58 5.92458 -5.93643 0
M  V30 32556 H 4440.88 7.92655 -6.402 0
M  V30 32557 H 4440.69 6.26671 -8.0846 0
M  V30 32558 H 4439.06 6.29101 -7.32804 0
M  V30 32559 H 4441.7 5.84315 -2.47318 0
M  V30 32560 P 4443.56 7.39546 -4.75277 0
M  V30 32561 O 4444.98 7.84798 -5.01039 0
M  V30 32562 O 4443.2 5.9812 -5.08098 0
M  V30 32563 O 4443.24 7.57503 -3.1866 0
M  V30 32564 C 4443.08 8.97357 -2.74833 0
M  V30 32565 C 4443.62 9.07548 -1.32709 0
M  V30 32566 O 4442.56 8.62072 -0.606159 0
M  V30 32567 C 4444.83 8.25383 -0.938334 0
M  V30 32568 O 4445.57 8.74577 0.146954 0
M  V30 32569 C 4444.16 6.8802 -0.712559 0
M  V30 32570 O 4444.96 6.1189 0.194655 0
M  V30 32571 C 4442.83 7.27966 -0.139777 0
M  V30 32572 H 4442.86 7.25354 0.961601 0
M  V30 32573 H 4444.04 6.32557 -1.65702 0
M  V30 32574 H 4445.53 8.19355 -1.79097 0
M  V30 32575 H 4443.83 10.1294 -1.10029 0
M  V30 32576 H 4443.64 9.64276 -3.41316 0
M  V30 32577 H 4442.01 9.25417 -2.76357 0
M  V30 32578 H 4444.65 6.25267 1.07847 0
M  V30 32579 P 4446.51 8.791 -2.64829e-10 0
M  V30 32580 O 4447.93 9.31196 0.027936 0
M  V30 32581 O 4446.15 7.77869 -1.04071 0
M  V30 32582 O 4446.19 8.09533 1.41463 0
M  V30 32583 C 4446.02 9.03587 2.5397 0
M  V30 32584 C 4446.57 8.35226 3.79016 0
M  V30 32585 O 4445.51 7.57904 4.1503 0
M  V30 32586 C 4447.78 7.45087 3.67298 0
M  V30 32587 O 4448.52 7.27796 4.85194 0
M  V30 32588 C 4447.12 6.17323 3.12027 0
M  V30 32589 O 4447.91 5.04496 3.46627 0
M  V30 32590 C 4445.78 6.19961 3.81809 0
M  V30 32591 N 4444.73 5.71575 2.93223 0
M  V30 32592 C 4444.9 5.77362 1.59168 0
M  V30 32593 N 4443.88 5.3123 0.911893 0
M  V30 32594 C 4442.99 4.91717 1.89588 0
M  V30 32595 C 4441.72 4.3114 1.8076 0
M  V30 32596 N 4441.16 4.06823 3.02898 0
M  V30 32597 C 4441.76 4.35062 4.22711 0
M  V30 32598 N 4442.94 4.90805 4.35707 0
M  V30 32599 C 4443.51 5.16382 3.14469 0
M  V30 32600 H 4446.99 6.21428 2.0318 0
M  V30 32601 H 4448.48 7.86112 2.9231 0
M  V30 32602 H 4446.78 9.11171 4.55987 0
M  V30 32603 H 4446.59 9.9573 2.34194 0
M  V30 32604 H 4444.96 9.2792 2.67832 0
M  V30 32605 H 4445.8 6.16575 1.12198 0
M  V30 32606 H 4447.6 4.67628 4.28704 0
M  V30 32607 P 4449.46 7.39546 4.75277 0
M  V30 32608 O 4450.88 7.81777 5.05738 0
M  V30 32609 O 4449.1 7.1065 3.32998 0
M  V30 32610 O 4449.14 6.04542 5.56673 0
M  V30 32611 C 4448.98 6.22772 7.02095 0
M  V30 32612 C 4449.52 4.97725 7.70406 0
M  V30 32613 O 4448.46 4.13256 7.58987 0
M  V30 32614 C 4450.73 4.28231 7.11815 0
M  V30 32615 O 4451.47 3.49945 8.01648 0
M  V30 32616 C 4450.07 3.5063 5.96244 0
M  V30 32617 O 4450.86 2.36482 5.64681 0
M  V30 32618 C 4448.73 3.15122 6.56374 0
M  V30 32619 H 4448.76 2.13853 6.99751 0
M  V30 32620 H 4449.94 4.13501 5.06559 0
M  V30 32621 H 4451.43 5.03285 6.70911 0
M  V30 32622 H 4449.73 5.20877 8.75697 0
M  V30 32623 H 4449.54 7.11046 7.35349 0
M  V30 32624 H 4447.91 6.35815 7.26986 0
M  V30 32625 H 4450.55 1.61644 6.13565 0
M  V30 32626 P 4452.41 3.65191 7.99657 0
M  V30 32627 O 4453.83 3.8425 8.48115 0
M  V30 32628 O 4452.05 4.17805 6.64342 0
M  V30 32629 O 4452.09 2.07613 7.95143 0
M  V30 32630 C 4451.93 1.44328 9.27336 0
M  V30 32631 C 4452.47 0.0220036 9.17197 0
M  V30 32632 O 4451.41 -0.626867 8.61923 0
M  V30 32633 C 4453.69 -0.24586 8.30336 0
M  V30 32634 O 4454.42 -1.39011 8.63583 0
M  V30 32635 C 4453.02 -0.273849 6.91158 0
M  V30 32636 O 4453.82 -1.06348 6.02892 0
M  V30 32637 C 4451.68 -0.897649 7.22545 0
M  V30 32638 H 4451.71 -1.9841 7.04286 0
M  V30 32639 H 4452.89 0.739928 6.497 0
M  V30 32640 H 4454.38 0.60668 8.36503 0
M  V30 32641 H 4452.68 -0.352479 10.1829 0
M  V30 32642 H 4452.49 2.00611 10.0304 0
M  V30 32643 H 4450.86 1.41843 9.55327 0
M  V30 32644 H 4453.5 -1.95734 6.03555 0
M  V30 32645 P 4455.36 -1.25109 8.70152 0
M  V30 32646 O 4456.78 -1.35274 9.21221 0
M  V30 32647 O 4455 -0.0769065 7.84762 0
M  V30 32648 O 4455.04 -2.55232 7.81161 0
M  V30 32649 C 4454.88 -3.79939 8.58154 0
M  V30 32650 C 4455.42 -4.94023 7.72785 0
M  V30 32651 O 4454.36 -5.18726 6.91205 0
M  V30 32652 C 4456.64 -4.69597 6.85231 0
M  V30 32653 O 4457.37 -5.83832 6.51337 0
M  V30 32654 C 4455.97 -3.96706 5.66633 0
M  V30 32655 O 4456.77 -4.15414 4.49689 0
M  V30 32656 C 4454.63 -4.66153 5.59313 0
M  V30 32657 H 4454.66 -5.47679 4.85214 0
M  V30 32658 H 4455.84 -2.89008 5.86566 0
M  V30 32659 H 4457.33 -4.0121 7.36511 0
M  V30 32660 H 4455.63 -5.80182 8.37584 0
M  V30 32661 H 4455.44 -3.73517 9.52265 0
M  V30 32662 H 4453.81 -3.97163 8.80359 0
M  V30 32663 H 4456.45 -4.90969 4.01921 0
M  V30 32664 P 4458.31 -5.75688 6.64379 0
M  V30 32665 O 4459.73 -6.11849 7.01846 0
M  V30 32666 O 4457.95 -4.30744 6.56026 0
M  V30 32667 O 4457.99 -6.37042 5.19165 0
M  V30 32668 C 4457.83 -7.83578 5.16515 0
M  V30 32669 C 4458.37 -8.33398 3.83019 0
M  V30 32670 O 4457.31 -8.10074 3.01034 0
M  V30 32671 C 4459.59 -7.65514 3.2257 0
M  V30 32672 O 4460.32 -8.4329 2.32297 0
M  V30 32673 C 4458.92 -6.40075 2.62207 0
M  V30 32674 O 4459.72 -5.92589 1.53712 0
M  V30 32675 C 4457.58 -6.9454 2.18503 0
M  V30 32676 H 4457.61 -7.23063 1.12091 0
M  V30 32677 H 4458.8 -5.6025 3.37201 0
M  V30 32678 H 4460.28 -7.35707 4.02681 0
M  V30 32679 H 4458.59 -9.40912 3.9095 0
M  V30 32680 H 4458.4 -8.29056 5.99158 0
M  V30 32681 H 4456.77 -8.10073 5.25882 0
M  V30 32682 H 4459.4 -6.30324 0.726794 0
M  V30 32683 P 4461.26 -8.4349 2.47671 0
M  V30 32684 O 4462.68 -8.94167 2.5964 0
M  V30 32685 O 4460.9 -7.1704 3.19006 0
M  V30 32686 O 4460.94 -8.16596 0.923387 0
M  V30 32687 C 4460.78 -9.38437 0.108857 0
M  V30 32688 C 4461.32 -9.08175 -1.28353 0
M  V30 32689 O 4460.26 -8.44229 -1.84713 0
M  V30 32690 C 4462.54 -8.18386 -1.42505 0
M  V30 32691 O 4463.27 -8.3501 -2.60497 0
M  V30 32692 C 4461.87 -6.80225 -1.25468 0
M  V30 32693 O 4462.67 -5.81621 -1.91066 0
M  V30 32694 C 4460.53 -7.02416 -1.9168 0
M  V30 32695 H 4460.56 -6.6888 -2.96621 0
M  V30 32696 H 4461.75 -6.53617 -0.192223 0
M  V30 32697 H 4463.23 -8.36622 -0.589963 0
M  V30 32698 H 4461.54 -10.0291 -1.79807 0
M  V30 32699 H 4461.35 -10.2138 0.558219 0
M  V30 32700 H 4459.72 -9.6579 0.0444202 0
M  V30 32701 H 4462.35 -5.69556 -2.79637 0
M  V30 32702 P 4464.21 -8.4349 -2.47671 0
M  V30 32703 O 4465.63 -8.92593 -2.65 0
M  V30 32704 O 4463.85 -7.7568 -1.19296 0
M  V30 32705 O 4463.89 -7.36886 -3.63805 0
M  V30 32706 C 4463.73 -7.95349 -4.982 0
M  V30 32707 C 4464.27 -6.94612 -5.98974 0
M  V30 32708 O 4463.21 -6.10347 -6.11815 0
M  V30 32709 C 4465.49 -6.11426 -5.62335 0
M  V30 32710 O 4466.23 -5.6162 -6.70584 0
M  V30 32711 C 4464.82 -5.04409 -4.73308 0
M  V30 32712 O 4465.62 -3.85992 -4.75183 0
M  V30 32713 C 4463.48 -4.8728 -5.41006 0
M  V30 32714 H 4463.51 -4.02333 -6.11157 0
M  V30 32715 H 4464.7 -5.39466 -3.69543 0
M  V30 32716 H 4466.18 -6.71916 -5.01943 0
M  V30 32717 H 4464.49 -7.4649 -6.93477 0
M  V30 32718 H 4464.3 -8.89416 -5.05237 0
M  V30 32719 H 4462.67 -8.14876 -5.18409 0
M  V30 32720 H 4465.31 -3.27957 -5.4317 0
M  V30 32721 P 4467.16 -5.75688 -6.64379 0
M  V30 32722 O 4468.58 -6.07627 -7.05504 0
M  V30 32723 O 4466.8 -5.88047 -5.19722 0
M  V30 32724 O 4466.84 -4.2322 -7.04443 0
M  V30 32725 C 4466.68 -3.99743 -8.4911 0
M  V30 32726 C 4467.22 -2.60516 -8.79425 0
M  V30 32727 O 4466.16 -1.82684 -8.4467 0
M  V30 32728 C 4468.44 -2.10343 -8.03628 0
M  V30 32729 O 4469.18 -1.09919 -8.67766 0
M  V30 32730 C 4467.77 -1.68446 -6.70876 0
M  V30 32731 O 4468.57 -0.678137 -6.08433 0
M  V30 32732 C 4466.43 -1.17436 -7.18567 0
M  V30 32733 H 4466.46 -0.0804732 -7.31656 0
M  V30 32734 H 4467.65 -2.54037 -6.02537 0
M  V30 32735 H 4469.13 -2.93881 -7.85526 0
M  V30 32736 H 4467.44 -2.53065 -9.86973 0
M  V30 32737 H 4467.25 -4.75072 -9.05887 0
M  V30 32738 H 4465.62 -4.05244 -8.76668 0
M  V30 32739 H 4468.26 0.177647 -6.34251 0
M  V30 32740 P 4470.11 -1.25109 -8.70152 0
M  V30 32741 O 4471.54 -1.29744 -9.22016 0
M  V30 32742 O 4469.75 -2.13714 -7.55141 0
M  V30 32743 O 4469.79 0.248149 -8.21425 0
M  V30 32744 C 4469.63 1.22779 -9.30434 0
M  V30 32745 C 4470.17 2.56293 -8.80664 0
M  V30 32746 O 4469.11 3.02979 -8.09349 0
M  V30 32747 C 4471.39 2.57523 -7.89775 0
M  V30 32748 O 4472.13 3.7668 -7.89438 0
M  V30 32749 C 4470.72 2.20997 -6.55446 0
M  V30 32750 O 4471.52 2.71895 -5.48509 0
M  V30 32751 C 4469.38 2.89693 -6.67988 0
M  V30 32752 H 4469.41 3.88793 -6.19859 0
M  V30 32753 H 4470.6 1.12046 -6.44229 0
M  V30 32754 H 4472.08 1.7746 -8.19711 0
M  V30 32755 H 4470.39 3.20706 -9.67112 0
M  V30 32756 H 4470.2 0.901032 -10.1892 0
M  V30 32757 H 4468.57 1.33049 -9.56592 0
M  V30 32758 H 4471.21 3.57847 -5.23962 0
M  V30 32759 P 4473.06 3.65191 -7.99657 0
M  V30 32760 O 4474.49 3.89374 -8.45885 0
M  V30 32761 O 4472.7 2.28472 -7.50807 0
M  V30 32762 O 4472.74 4.64972 -6.77611 0
M  V30 32763 C 4472.58 6.06383 -7.16428 0
M  V30 32764 C 4473.12 6.91731 -6.02299 0
M  V30 32765 O 4472.07 6.92369 -5.17005 0
M  V30 32766 C 4474.34 6.43627 -5.25174 0
M  V30 32767 O 4475.08 7.43686 -4.60469 0
M  V30 32768 C 4473.67 5.40275 -4.31916 0
M  V30 32769 O 4474.47 5.24878 -3.14911 0
M  V30 32770 C 4472.33 6.04847 -4.05327 0
M  V30 32771 N 4471.29 5.04166 -3.98114 0
M  V30 32772 C 4471.46 3.84629 -4.59066 0
M  V30 32773 N 4470.43 3.0363 -4.45343 0
M  V30 32774 C 4469.55 3.76722 -3.68523 0
M  V30 32775 C 4468.28 3.43528 -3.17088 0
M  V30 32776 N 4467.68 2.23665 -3.37397 0
M  V30 32777 N 4467.72 4.44526 -2.44231 0
M  V30 32778 C 4468.32 5.65243 -2.20146 0
M  V30 32779 N 4469.49 6.00221 -2.65453 0
M  V30 32780 C 4470.07 5.00564 -3.39083 0
M  V30 32781 H 4472.37 6.62104 -3.11218 0
M  V30 32782 H 4473.55 4.42969 -4.80867 0
M  V30 32783 H 4475.03 5.92458 -5.93643 0
M  V30 32784 H 4473.34 7.93295 -6.39407 0
M  V30 32785 H 4473.15 6.26671 -8.0846 0
M  V30 32786 H 4471.52 6.29101 -7.32804 0
M  V30 32787 H 4467.78 6.36894 -1.5883 0
M  V30 32788 H 4472.36 3.58193 -5.14248 0
M  V30 32789 H 4466.75 2.05145 -2.97047 0
M  V30 32790 H 4468.16 1.51255 -3.92998 0
M  V30 32791 H 4474.16 5.84223 -2.47279 0
M  V30 32792 P 4476.01 7.39546 -4.75277 0
M  V30 32793 O 4477.44 7.84798 -5.01039 0
M  V30 32794 O 4475.65 5.9812 -5.08098 0
M  V30 32795 O 4475.69 7.57503 -3.1866 0
M  V30 32796 C 4475.53 8.97357 -2.74833 0
M  V30 32797 C 4476.07 9.07548 -1.32709 0
M  V30 32798 O 4475.02 8.62072 -0.606159 0
M  V30 32799 C 4477.29 8.25383 -0.938334 0
M  V30 32800 O 4478.03 8.74577 0.146954 0
M  V30 32801 C 4476.62 6.8802 -0.712559 0
M  V30 32802 O 4477.42 6.1189 0.194655 0
M  V30 32803 C 4475.28 7.27966 -0.139777 0
M  V30 32804 H 4475.32 7.25354 0.961601 0
M  V30 32805 H 4476.5 6.32557 -1.65702 0
M  V30 32806 H 4477.98 8.19355 -1.79097 0
M  V30 32807 H 4476.29 10.1294 -1.10029 0
M  V30 32808 H 4476.1 9.64276 -3.41316 0
M  V30 32809 H 4474.47 9.25417 -2.76357 0
M  V30 32810 H 4477.11 6.25267 1.07847 0
M  V30 32811 P 4478.97 8.791 -2.70016e-10 0
M  V30 32812 O 4480.39 9.31096 0.027933 0
M  V30 32813 O 4478.61 7.77869 -1.04071 0
M  V30 32814 O 4478.64 8.09533 1.41463 0
M  V30 32815 C 4478.48 9.0349 2.53943 0
M  V30 32816 C 4479.02 8.35226 3.79016 0
M  V30 32817 O 4477.97 7.57992 4.15078 0
M  V30 32818 C 4480.24 7.45087 3.67298 0
M  V30 32819 O 4480.98 7.27796 4.85194 0
M  V30 32820 C 4479.57 6.17323 3.12027 0
M  V30 32821 O 4480.37 5.04231 3.47188 0
M  V30 32822 C 4478.23 6.19961 3.81809 0
M  V30 32823 H 4478.27 5.58218 4.73051 0
M  V30 32824 H 4479.45 6.21726 2.02589 0
M  V30 32825 H 4480.93 7.86112 2.9231 0
M  V30 32826 H 4479.24 9.11627 4.55076 0
M  V30 32827 H 4479.05 9.9573 2.34194 0
M  V30 32828 H 4477.42 9.2792 2.67832 0
M  V30 32829 H 4480.06 4.67702 4.28772 0
M  V30 32830 P 4481.92 7.39546 4.75277 0
M  V30 32831 O 4483.34 7.81777 5.05738 0
M  V30 32832 O 4481.56 7.1065 3.32998 0
M  V30 32833 O 4481.59 6.04542 5.56673 0
M  V30 32834 C 4481.43 6.22772 7.02095 0
M  V30 32835 C 4481.97 4.97725 7.70406 0
M  V30 32836 O 4480.92 4.13256 7.58987 0
M  V30 32837 C 4483.19 4.28231 7.11815 0
M  V30 32838 O 4483.93 3.49945 8.01648 0
M  V30 32839 C 4482.52 3.5063 5.96244 0
M  V30 32840 O 4483.32 2.36482 5.64681 0
M  V30 32841 C 4481.18 3.15122 6.56374 0
M  V30 32842 H 4481.22 2.13853 6.99751 0
M  V30 32843 H 4482.4 4.13501 5.06559 0
M  V30 32844 H 4483.88 5.03285 6.70911 0
M  V30 32845 H 4482.19 5.20877 8.75697 0
M  V30 32846 H 4482 7.11046 7.35349 0
M  V30 32847 H 4480.37 6.35815 7.26986 0
M  V30 32848 H 4483.01 1.61644 6.13565 0
M  V30 32849 P 4484.87 3.65191 7.99657 0
M  V30 32850 O 4486.29 3.8425 8.48115 0
M  V30 32851 O 4484.51 4.17805 6.64342 0
M  V30 32852 O 4484.54 2.07613 7.95143 0
M  V30 32853 C 4484.38 1.44328 9.27336 0
M  V30 32854 C 4484.92 0.0220036 9.17197 0
M  V30 32855 O 4483.87 -0.626867 8.61923 0
M  V30 32856 C 4486.14 -0.24586 8.30336 0
M  V30 32857 O 4486.88 -1.39011 8.63583 0
M  V30 32858 C 4485.47 -0.273849 6.91158 0
M  V30 32859 O 4486.27 -1.06348 6.02892 0
M  V30 32860 C 4484.14 -0.897649 7.22545 0
M  V30 32861 H 4484.17 -1.9841 7.04286 0
M  V30 32862 H 4485.35 0.739928 6.497 0
M  V30 32863 H 4486.83 0.60668 8.36503 0
M  V30 32864 H 4485.14 -0.352479 10.1829 0
M  V30 32865 H 4484.95 2.00611 10.0304 0
M  V30 32866 H 4483.32 1.41843 9.55327 0
M  V30 32867 H 4485.96 -1.95734 6.03555 0
M  V30 32868 P 4487.82 -1.25109 8.70152 0
M  V30 32869 O 4489.24 -1.35288 9.2132 0
M  V30 32870 O 4487.46 -0.0769065 7.84762 0
M  V30 32871 O 4487.49 -2.55232 7.81161 0
M  V30 32872 C 4487.33 -3.79979 8.58246 0
M  V30 32873 C 4487.87 -4.94023 7.72785 0
M  V30 32874 O 4486.82 -5.18666 6.91125 0
M  V30 32875 C 4489.09 -4.69597 6.85231 0
M  V30 32876 O 4489.83 -5.83832 6.51337 0
M  V30 32877 C 4488.42 -3.96706 5.66633 0
M  V30 32878 O 4489.22 -4.14896 4.5003 0
M  V30 32879 C 4487.09 -4.66153 5.59313 0
M  V30 32880 N 4486.04 -3.71582 5.24027 0
M  V30 32881 C 4486.21 -2.39715 5.48833 0
M  V30 32882 N 4485.18 -1.65863 5.12845 0
M  V30 32883 C 4484.3 -2.57637 4.5973 0
M  V30 32884 C 4483.03 -2.40278 4.01027 0
M  V30 32885 N 4482.47 -3.57711 3.59575 0
M  V30 32886 C 4483.07 -4.80324 3.70476 0
M  V30 32887 N 4484.25 -5.01121 4.23801 0
M  V30 32888 C 4484.82 -3.84757 4.66372 0
M  V30 32889 H 4488.3 -2.8955 5.86187 0
M  V30 32890 H 4489.78 -4.0121 7.36511 0
M  V30 32891 H 4488.09 -5.81019 8.37003 0
M  V30 32892 H 4487.9 -3.73517 9.52265 0
M  V30 32893 H 4486.27 -3.97163 8.80359 0
M  V30 32894 H 4487.11 -1.98804 5.94332 0
M  V30 32895 H 4488.91 -4.90891 4.01857 0
M  V30 32896 P 4490.77 -5.75688 6.64379 0
M  V30 32897 O 4492.19 -6.11849 7.01846 0
M  V30 32898 O 4490.41 -4.30744 6.56026 0
M  V30 32899 O 4490.44 -6.37042 5.19165 0
M  V30 32900 C 4490.28 -7.83578 5.16515 0
M  V30 32901 C 4490.82 -8.33398 3.83019 0
M  V30 32902 O 4489.77 -8.10074 3.01034 0
M  V30 32903 C 4492.04 -7.65514 3.2257 0
M  V30 32904 O 4492.78 -8.4329 2.32297 0
M  V30 32905 C 4491.37 -6.40075 2.62207 0
M  V30 32906 O 4492.17 -5.92589 1.53712 0
M  V30 32907 C 4490.04 -6.9454 2.18503 0
M  V30 32908 H 4490.07 -7.23063 1.12091 0
M  V30 32909 H 4491.25 -5.6025 3.37201 0
M  V30 32910 H 4492.74 -7.35707 4.02681 0
M  V30 32911 H 4491.04 -9.40912 3.9095 0
M  V30 32912 H 4490.85 -8.29056 5.99158 0
M  V30 32913 H 4489.22 -8.10073 5.25882 0
M  V30 32914 H 4491.86 -6.30324 0.726794 0
M  V30 32915 P 4493.72 -8.4349 2.47671 0
M  V30 32916 O 4495.14 -8.94167 2.5964 0
M  V30 32917 O 4493.36 -7.1704 3.19006 0
M  V30 32918 O 4493.4 -8.16596 0.923387 0
M  V30 32919 C 4493.24 -9.38437 0.108857 0
M  V30 32920 C 4493.78 -9.08175 -1.28353 0
M  V30 32921 O 4492.72 -8.44229 -1.84713 0
M  V30 32922 C 4494.99 -8.18386 -1.42505 0
M  V30 32923 O 4495.73 -8.3501 -2.60497 0
M  V30 32924 C 4494.32 -6.80225 -1.25468 0
M  V30 32925 O 4495.12 -5.81621 -1.91066 0
M  V30 32926 C 4492.99 -7.02416 -1.9168 0
M  V30 32927 H 4493.02 -6.6888 -2.96621 0
M  V30 32928 H 4494.2 -6.53617 -0.192223 0
M  V30 32929 H 4495.69 -8.36622 -0.589963 0
M  V30 32930 H 4493.99 -10.0291 -1.79807 0
M  V30 32931 H 4493.8 -10.2138 0.558219 0
M  V30 32932 H 4492.17 -9.6579 0.0444202 0
M  V30 32933 H 4494.81 -5.69556 -2.79637 0
M  V30 32934 P 4496.67 -8.4349 -2.47671 0
M  V30 32935 O 4498.09 -8.92593 -2.65 0
M  V30 32936 O 4496.31 -7.7568 -1.19296 0
M  V30 32937 O 4496.35 -7.36886 -3.63805 0
M  V30 32938 C 4496.19 -7.95349 -4.982 0
M  V30 32939 C 4496.73 -6.94612 -5.98974 0
M  V30 32940 O 4495.67 -6.10347 -6.11815 0
M  V30 32941 C 4497.94 -6.11426 -5.62335 0
M  V30 32942 O 4498.68 -5.6162 -6.70584 0
M  V30 32943 C 4497.27 -5.04409 -4.73308 0
M  V30 32944 O 4498.07 -3.85992 -4.75183 0
M  V30 32945 C 4495.94 -4.8728 -5.41006 0
M  V30 32946 H 4495.97 -4.02333 -6.11157 0
M  V30 32947 H 4497.15 -5.39466 -3.69543 0
M  V30 32948 H 4498.64 -6.71916 -5.01943 0
M  V30 32949 H 4496.94 -7.4649 -6.93477 0
M  V30 32950 H 4496.75 -8.89416 -5.05237 0
M  V30 32951 H 4495.12 -8.14876 -5.18409 0
M  V30 32952 H 4497.76 -3.27957 -5.4317 0
M  V30 32953 P 4499.62 -5.75688 -6.64379 0
M  V30 32954 O 4501.04 -6.07627 -7.05504 0
M  V30 32955 O 4499.26 -5.88047 -5.19722 0
M  V30 32956 O 4499.3 -4.2322 -7.04443 0
M  V30 32957 C 4499.14 -3.99743 -8.4911 0
M  V30 32958 C 4499.68 -2.60516 -8.79425 0
M  V30 32959 O 4498.62 -1.82684 -8.4467 0
M  V30 32960 C 4500.89 -2.10343 -8.03628 0
M  V30 32961 O 4501.63 -1.09919 -8.67766 0
M  V30 32962 C 4500.23 -1.68446 -6.70876 0
M  V30 32963 O 4501.02 -0.678137 -6.08433 0
M  V30 32964 C 4498.89 -1.17436 -7.18567 0
M  V30 32965 H 4498.92 -0.0804732 -7.31656 0
M  V30 32966 H 4500.1 -2.54037 -6.02537 0
M  V30 32967 H 4501.59 -2.93881 -7.85526 0
M  V30 32968 H 4499.89 -2.53065 -9.86973 0
M  V30 32969 H 4499.7 -4.75072 -9.05887 0
M  V30 32970 H 4498.07 -4.05244 -8.76668 0
M  V30 32971 H 4500.71 0.177647 -6.34251 0
M  V30 32972 P 4502.57 -1.25109 -8.70152 0
M  V30 32973 O 4503.99 -1.29744 -9.22016 0
M  V30 32974 O 4502.21 -2.13714 -7.55141 0
M  V30 32975 O 4502.25 0.248149 -8.21425 0
M  V30 32976 C 4502.09 1.22779 -9.30434 0
M  V30 32977 C 4502.63 2.56293 -8.80664 0
M  V30 32978 O 4501.57 3.02979 -8.09349 0
M  V30 32979 C 4503.84 2.57523 -7.89775 0
M  V30 32980 O 4504.58 3.7668 -7.89438 0
M  V30 32981 C 4503.18 2.20997 -6.55446 0
M  V30 32982 O 4503.97 2.71895 -5.48509 0
M  V30 32983 C 4501.84 2.89693 -6.67988 0
M  V30 32984 H 4501.87 3.88793 -6.19859 0
M  V30 32985 H 4503.05 1.12046 -6.44229 0
M  V30 32986 H 4504.54 1.7746 -8.19711 0
M  V30 32987 H 4502.84 3.20706 -9.67112 0
M  V30 32988 H 4502.65 0.901032 -10.1892 0
M  V30 32989 H 4501.02 1.33049 -9.56592 0
M  V30 32990 H 4503.66 3.57847 -5.23962 0
M  V30 32991 P 4505.52 3.65191 -7.99657 0
M  V30 32992 O 4506.94 3.89332 -8.45794 0
M  V30 32993 O 4505.16 2.28472 -7.50807 0
M  V30 32994 O 4505.2 4.64972 -6.77611 0
M  V30 32995 C 4505.04 6.06319 -7.16352 0
M  V30 32996 C 4505.58 6.91731 -6.02299 0
M  V30 32997 O 4504.52 6.92449 -5.17064 0
M  V30 32998 C 4506.8 6.43627 -5.25174 0
M  V30 32999 O 4507.53 7.43686 -4.60469 0
M  V30 33000 C 4506.13 5.40275 -4.31916 0
M  V30 33001 O 4506.93 5.25279 -3.14438 0
M  V30 33002 C 4504.79 6.04847 -4.05327 0
M  V30 33003 H 4504.82 6.62195 -3.11261 0
M  V30 33004 H 4506 4.42556 -4.81383 0
M  V30 33005 H 4507.49 5.92458 -5.93643 0
M  V30 33006 H 4505.79 7.92655 -6.402 0
M  V30 33007 H 4505.6 6.26671 -8.0846 0
M  V30 33008 H 4503.97 6.29101 -7.32804 0
M  V30 33009 H 4506.61 5.84315 -2.47318 0
M  V30 33010 P 4508.47 7.39546 -4.75277 0
M  V30 33011 O 4509.89 7.84798 -5.01039 0
M  V30 33012 O 4508.11 5.9812 -5.08098 0
M  V30 33013 O 4508.15 7.57503 -3.1866 0
M  V30 33014 C 4507.99 8.97357 -2.74833 0
M  V30 33015 C 4508.53 9.07548 -1.32709 0
M  V30 33016 O 4507.47 8.62072 -0.606159 0
M  V30 33017 C 4509.75 8.25383 -0.938334 0
M  V30 33018 O 4510.48 8.74577 0.146954 0
M  V30 33019 C 4509.08 6.8802 -0.712559 0
M  V30 33020 O 4509.88 6.1189 0.194655 0
M  V30 33021 C 4507.74 7.27966 -0.139777 0
M  V30 33022 H 4507.77 7.25354 0.961601 0
M  V30 33023 H 4508.95 6.32557 -1.65702 0
M  V30 33024 H 4510.44 8.19355 -1.79097 0
M  V30 33025 H 4508.74 10.1294 -1.10029 0
M  V30 33026 H 4508.55 9.64276 -3.41316 0
M  V30 33027 H 4506.92 9.25417 -2.76357 0
M  V30 33028 H 4509.56 6.25267 1.07847 0
M  V30 33029 P 4511.42 8.791 -2.75203e-10 0
M  V30 33030 O 4512.84 9.31096 0.027933 0
M  V30 33031 O 4511.06 7.77869 -1.04071 0
M  V30 33032 O 4511.1 8.09533 1.41463 0
M  V30 33033 C 4510.94 9.0349 2.53943 0
M  V30 33034 C 4511.48 8.35226 3.79016 0
M  V30 33035 O 4510.42 7.57992 4.15078 0
M  V30 33036 C 4512.7 7.45087 3.67298 0
M  V30 33037 O 4513.43 7.27796 4.85194 0
M  V30 33038 C 4512.03 6.17323 3.12027 0
M  V30 33039 O 4512.83 5.04231 3.47188 0
M  V30 33040 C 4510.69 6.19961 3.81809 0
M  V30 33041 H 4510.72 5.58218 4.73051 0
M  V30 33042 H 4511.91 6.21726 2.02589 0
M  V30 33043 H 4513.39 7.86112 2.9231 0
M  V30 33044 H 4511.7 9.11627 4.55076 0
M  V30 33045 H 4511.51 9.9573 2.34194 0
M  V30 33046 H 4509.88 9.2792 2.67832 0
M  V30 33047 H 4512.51 4.67702 4.28772 0
M  V30 33048 P 4514.37 7.39546 4.75277 0
M  V30 33049 O 4515.79 7.81777 5.05738 0
M  V30 33050 O 4514.01 7.1065 3.32998 0
M  V30 33051 O 4514.05 6.04542 5.56673 0
M  V30 33052 C 4513.89 6.22772 7.02095 0
M  V30 33053 C 4514.43 4.97725 7.70406 0
M  V30 33054 O 4513.37 4.13256 7.58987 0
M  V30 33055 C 4515.65 4.28231 7.11815 0
M  V30 33056 O 4516.39 3.49945 8.01648 0
M  V30 33057 C 4514.98 3.5063 5.96244 0
M  V30 33058 O 4515.78 2.36482 5.64681 0
M  V30 33059 C 4513.64 3.15122 6.56374 0
M  V30 33060 H 4513.67 2.13853 6.99751 0
M  V30 33061 H 4514.86 4.13501 5.06559 0
M  V30 33062 H 4516.34 5.03285 6.70911 0
M  V30 33063 H 4514.65 5.20877 8.75697 0
M  V30 33064 H 4514.46 7.11046 7.35349 0
M  V30 33065 H 4512.83 6.35815 7.26986 0
M  V30 33066 H 4515.47 1.61644 6.13565 0
M  V30 33067 P 4517.32 3.65191 7.99657 0
M  V30 33068 O 4518.74 3.8425 8.48115 0
M  V30 33069 O 4516.96 4.17805 6.64342 0
M  V30 33070 O 4517 2.07613 7.95143 0
M  V30 33071 C 4516.84 1.44328 9.27336 0
M  V30 33072 C 4517.38 0.0220036 9.17197 0
M  V30 33073 O 4516.32 -0.626867 8.61923 0
M  V30 33074 C 4518.6 -0.24586 8.30336 0
M  V30 33075 O 4519.34 -1.39011 8.63583 0
M  V30 33076 C 4517.93 -0.273849 6.91158 0
M  V30 33077 O 4518.73 -1.06348 6.02892 0
M  V30 33078 C 4516.59 -0.897649 7.22545 0
M  V30 33079 H 4516.62 -1.9841 7.04286 0
M  V30 33080 H 4517.81 0.739928 6.497 0
M  V30 33081 H 4519.29 0.60668 8.36503 0
M  V30 33082 H 4517.6 -0.352479 10.1829 0
M  V30 33083 H 4517.41 2.00611 10.0304 0
M  V30 33084 H 4515.78 1.41843 9.55327 0
M  V30 33085 H 4518.42 -1.95734 6.03555 0
M  V30 33086 P 4520.27 -1.25109 8.70152 0
M  V30 33087 O 4521.67 -1.31452 9.27431 0
M  V30 33088 O 4519.9 -0.0458113 7.89887 0
M  V30 33089 O 4519.95 -2.55201 7.81066 0
M  V30 33090 C 4519.79 -3.79939 8.58154 0
M  V30 33091 C 4520.33 -4.93969 7.72701 0
M  V30 33092 O 4519.27 -5.18666 6.91125 0
M  V30 33093 C 4521.55 -4.69597 6.85231 0
M  V30 33094 O 4522.29 -5.83832 6.51337 0
M  V30 33095 C 4520.88 -3.96706 5.66633 0
M  V30 33096 O 4521.68 -4.15346 4.49615 0
M  V30 33097 C 4519.54 -4.66153 5.59313 0
M  V30 33098 N 4518.5 -3.71582 5.24027 0
M  V30 33099 C 4517.46 -4.15133 4.44901 0
M  V30 33100 O 4517.5 -5.32122 4.00336 0
M  V30 33101 N 4516.45 -3.30554 4.15693 0
M  V30 33102 C 4516.5 -2.04701 4.61105 0
M  V30 33103 C 4517.6 -1.57111 5.38655 0
M  V30 33104 C 4518.56 -2.44234 5.68454 0
M  V30 33105 H 4519.57 -5.47604 4.85148 0
M  V30 33106 H 4520.76 -2.8955 5.86187 0
M  V30 33107 H 4522.24 -4.01995 7.36197 0
M  V30 33108 H 4520.55 -5.81019 8.37003 0
M  V30 33109 H 4520.36 -3.73517 9.52265 0
M  V30 33110 H 4518.73 -3.97122 8.80267 0
M  V30 33111 H 4517.64 -0.538464 5.72373 0
M  V30 33112 H 4519.41 -2.11927 6.29377 0
M  V30 33113 H 4521.46 -4.98352 4.09633 0
M  V30 33114 P 4523.22 -5.75688 6.64379 0
M  V30 33115 O 4524.65 -6.11849 7.01846 0
M  V30 33116 O 4522.86 -4.30744 6.56026 0
M  V30 33117 O 4522.9 -6.37042 5.19165 0
M  V30 33118 C 4522.74 -7.83578 5.16515 0
M  V30 33119 C 4523.28 -8.33398 3.83019 0
M  V30 33120 O 4522.22 -8.10074 3.01034 0
M  V30 33121 C 4524.5 -7.65514 3.2257 0
M  V30 33122 O 4525.24 -8.4329 2.32297 0
M  V30 33123 C 4523.83 -6.40075 2.62207 0
M  V30 33124 O 4524.63 -5.92589 1.53712 0
M  V30 33125 C 4522.49 -6.9454 2.18503 0
M  V30 33126 H 4522.52 -7.23063 1.12091 0
M  V30 33127 H 4523.71 -5.6025 3.37201 0
M  V30 33128 H 4525.19 -7.35707 4.02681 0
M  V30 33129 H 4523.5 -9.40912 3.9095 0
M  V30 33130 H 4523.31 -8.29056 5.99158 0
M  V30 33131 H 4521.68 -8.10073 5.25882 0
M  V30 33132 H 4524.32 -6.30324 0.726794 0
M  V30 33133 P 4526.17 -8.4349 2.47671 0
M  V30 33134 O 4527.6 -8.94359 2.59696 0
M  V30 33135 O 4525.81 -7.1704 3.19006 0
M  V30 33136 O 4525.85 -8.16596 0.923387 0
M  V30 33137 C 4525.69 -9.38437 0.108857 0
M  V30 33138 C 4526.23 -9.08076 -1.28339 0
M  V30 33139 O 4525.18 -8.44229 -1.84713 0
M  V30 33140 C 4527.45 -8.18386 -1.42505 0
M  V30 33141 O 4528.19 -8.3501 -2.60497 0
M  V30 33142 C 4526.78 -6.80225 -1.25468 0
M  V30 33143 O 4527.58 -5.81526 -1.91035 0
M  V30 33144 C 4525.44 -7.02416 -1.9168 0
M  V30 33145 N 4524.4 -6.31033 -1.20314 0
M  V30 33146 C 4524.46 -6.18781 0.121293 0
M  V30 33147 N 4523.42 -5.49762 0.588272 0
M  V30 33148 C 4522.68 -5.22015 -0.488988 0
M  V30 33149 C 4521.38 -4.61966 -0.596448 0
M  V30 33150 O 4520.64 -4.19162 0.309059 0
M  V30 33151 N 4520.95 -4.53773 -1.878 0
M  V30 33152 C 4521.7 -4.99623 -2.99082 0
M  V30 33153 N 4521.1 -4.78912 -4.21227 0
M  V30 33154 N 4522.85 -5.59957 -2.91093 0
M  V30 33155 C 4523.31 -5.70225 -1.64218 0
M  V30 33156 H 4525.48 -6.6888 -2.96621 0
M  V30 33157 H 4526.66 -6.53517 -0.192194 0
M  V30 33158 H 4528.14 -8.36563 -0.598329 0
M  V30 33159 H 4526.45 -10.0291 -1.79807 0
M  V30 33160 H 4526.26 -10.2138 0.558219 0
M  V30 33161 H 4524.63 -9.6579 0.0444202 0
M  V30 33162 H 4520.05 -4.12883 -2.05283 0
M  V30 33163 H 4525.26 -6.59596 0.745856 0
M  V30 33164 H 4520.19 -4.31425 -4.2628 0
M  V30 33165 H 4521.56 -5.11219 -5.07148 0
M  V30 33166 H 4527.27 -5.69466 -2.79593 0
M  V30 33167 P 4529.12 -8.4349 -2.47671 0
M  V30 33168 O 4530.55 -8.92785 -2.65057 0
M  V30 33169 O 4528.76 -7.7568 -1.19296 0
M  V30 33170 O 4528.8 -7.36886 -3.63805 0
M  V30 33171 C 4528.64 -7.95349 -4.982 0
M  V30 33172 C 4529.18 -6.94537 -5.98908 0
M  V30 33173 O 4528.13 -6.10347 -6.11815 0
M  V30 33174 C 4530.4 -6.11426 -5.62335 0
M  V30 33175 O 4531.14 -5.6162 -6.70584 0
M  V30 33176 C 4529.73 -5.04409 -4.73308 0
M  V30 33177 O 4530.53 -3.85929 -4.75106 0
M  V30 33178 C 4528.39 -4.8728 -5.41006 0
M  V30 33179 N 4527.35 -4.65812 -4.42377 0
M  V30 33180 C 4527.41 -5.27109 -3.24335 0
M  V30 33181 N 4526.37 -4.94293 -2.47735 0
M  V30 33182 C 4525.63 -4.1271 -3.23359 0
M  V30 33183 C 4524.33 -3.56384 -2.99934 0
M  V30 33184 O 4523.59 -3.69331 -2.00616 0
M  V30 33185 N 4523.9 -2.80206 -4.03316 0
M  V30 33186 C 4524.65 -2.58614 -5.2172 0
M  V30 33187 N 4524.05 -1.75154 -6.13278 0
M  V30 33188 N 4525.8 -3.13689 -5.47619 0
M  V30 33189 C 4526.26 -3.90921 -4.46436 0
M  V30 33190 H 4528.43 -4.02333 -6.11157 0
M  V30 33191 H 4529.61 -5.39383 -3.69487 0
M  V30 33192 H 4531.09 -6.71414 -5.02615 0
M  V30 33193 H 4529.4 -7.4649 -6.93477 0
M  V30 33194 H 4529.21 -8.89416 -5.05237 0
M  V30 33195 H 4527.58 -8.14876 -5.18409 0
M  V30 33196 H 4523 -2.36355 -3.95916 0
M  V30 33197 H 4528.21 -5.95212 -2.93859 0
M  V30 33198 H 4523.14 -1.32473 -5.91856 0
M  V30 33199 H 4524.51 -1.5588 -7.03026 0
M  V30 33200 H 4530.22 -3.27906 -5.43085 0
M  V30 33201 P 4532.08 -5.75688 -6.64379 0
M  V30 33202 O 4533.5 -6.07692 -7.0558 0
M  V30 33203 O 4531.72 -5.88047 -5.19722 0
M  V30 33204 O 4531.75 -4.2322 -7.04443 0
M  V30 33205 C 4531.59 -3.99785 -8.49201 0
M  V30 33206 C 4532.13 -2.60516 -8.79425 0
M  V30 33207 O 4531.08 -1.82663 -8.44573 0
M  V30 33208 C 4533.35 -2.10343 -8.03628 0
M  V30 33209 O 4534.09 -1.09919 -8.67766 0
M  V30 33210 C 4532.68 -1.68446 -6.70876 0
M  V30 33211 O 4533.48 -0.684109 -6.08265 0
M  V30 33212 C 4531.34 -1.17436 -7.18567 0
M  V30 33213 N 4530.3 -1.52699 -6.23988 0
M  V30 33214 C 4530.47 -2.578 -5.40574 0
M  V30 33215 N 4529.44 -2.78966 -4.61193 0
M  V30 33216 C 4528.56 -1.78725 -4.95769 0
M  V30 33217 C 4527.29 -1.45727 -4.44207 0
M  V30 33218 N 4526.69 -2.13994 -3.43613 0
M  V30 33219 N 4526.73 -0.374977 -5.05812 0
M  V30 33220 C 4527.33 0.345585 -6.05615 0
M  V30 33221 N 4528.51 0.0787651 -6.56253 0
M  V30 33222 C 4529.08 -1.00499 -5.96189 0
M  V30 33223 H 4531.38 -0.0804622 -7.31556 0
M  V30 33224 H 4532.56 -2.53396 -6.02698 0
M  V30 33225 H 4534.04 -2.93881 -7.85526 0
M  V30 33226 H 4532.35 -2.52078 -9.87225 0
M  V30 33227 H 4532.16 -4.75072 -9.05887 0
M  V30 33228 H 4530.53 -4.05244 -8.76668 0
M  V30 33229 H 4526.79 1.20098 -6.4532 0
M  V30 33230 H 4531.37 -3.18977 -5.3945 0
M  V30 33231 H 4525.76 -1.84983 -3.10004 0
M  V30 33232 H 4527.17 -2.9465 -3.00843 0
M  V30 33233 H 4533.17 0.177619 -6.34151 0
M  V30 33234 P 4535.03 -1.25109 -8.70152 0
M  V30 33235 O 4536.45 -1.29758 -9.22115 0
M  V30 33236 O 4534.67 -2.13714 -7.55141 0
M  V30 33237 O 4534.7 0.248149 -8.21425 0
M  V30 33238 C 4534.54 1.22792 -9.30533 0
M  V30 33239 C 4535.08 2.56293 -8.80664 0
M  V30 33240 O 4534.03 3.02944 -8.09255 0
M  V30 33241 C 4536.3 2.57523 -7.89775 0
M  V30 33242 O 4537.04 3.7668 -7.89438 0
M  V30 33243 C 4535.63 2.20997 -6.55446 0
M  V30 33244 O 4536.43 2.71302 -5.48691 0
M  V30 33245 C 4534.3 2.89693 -6.67988 0
M  V30 33246 N 4533.25 2.08895 -6.07487 0
M  V30 33247 C 4533.42 0.753809 -5.94137 0
M  V30 33248 N 4532.39 0.146592 -5.38801 0
M  V30 33249 C 4531.51 1.1768 -5.13693 0
M  V30 33250 C 4530.24 1.17563 -4.52477 0
M  V30 33251 N 4529.64 0.057481 -4.04759 0
M  V30 33252 N 4529.68 2.41918 -4.45789 0
M  V30 33253 C 4530.28 3.56493 -4.90792 0
M  V30 33254 N 4531.46 3.61423 -5.47817 0
M  V30 33255 C 4532.03 2.37779 -5.5588 0
M  V30 33256 H 4534.33 3.8874 -6.19774 0
M  V30 33257 H 4535.51 1.12673 -6.44018 0
M  V30 33258 H 4536.99 1.7746 -8.19711 0
M  V30 33259 H 4535.3 3.21673 -9.66791 0
M  V30 33260 H 4535.11 0.901032 -10.1892 0
M  V30 33261 H 4533.48 1.33049 -9.56592 0
M  V30 33262 H 4529.74 4.49919 -4.77947 0
M  V30 33263 H 4534.32 0.233081 -6.26266 0
M  V30 33264 H 4528.71 0.119831 -3.60801 0
M  V30 33265 H 4530.12 -0.852272 -4.12385 0
M  V30 33266 H 4536.12 3.5779 -5.23879 0
M  V30 33267 P 4537.98 3.65191 -7.99657 0
M  V30 33268 O 4539.4 3.89416 -8.45976 0
M  V30 33269 O 4537.62 2.28472 -7.50807 0
M  V30 33270 O 4537.65 4.64972 -6.77611 0
M  V30 33271 C 4537.49 6.06319 -7.16352 0
M  V30 33272 C 4538.03 6.91655 -6.02234 0
M  V30 33273 O 4536.98 6.92449 -5.17064 0
M  V30 33274 C 4539.25 6.43627 -5.25174 0
M  V30 33275 O 4539.99 7.43686 -4.60469 0
M  V30 33276 C 4538.58 5.40275 -4.31916 0
M  V30 33277 O 4539.38 5.25193 -3.14386 0
M  V30 33278 C 4537.25 6.04847 -4.05327 0
M  V30 33279 N 4536.2 5.04166 -3.98114 0
M  V30 33280 C 4536.26 3.96049 -4.75587 0
M  V30 33281 N 4535.22 3.15559 -4.54006 0
M  V30 33282 C 4534.49 3.78802 -3.62491 0
M  V30 33283 C 4533.18 3.476 -3.10071 0
M  V30 33284 O 4532.45 2.51136 -3.37021 0
M  V30 33285 N 4532.75 4.39088 -2.19956 0
M  V30 33286 C 4533.5 5.53215 -1.81733 0
M  V30 33287 N 4532.9 6.31963 -0.860928 0
M  V30 33288 N 4534.65 5.86688 -2.32562 0
M  V30 33289 C 4535.11 4.97525 -3.23407 0
M  V30 33290 H 4537.28 6.62195 -3.11261 0
M  V30 33291 H 4538.46 4.42488 -4.8131 0
M  V30 33292 H 4539.95 5.93051 -5.9305 0
M  V30 33293 H 4538.25 7.92655 -6.402 0
M  V30 33294 H 4538.06 6.26671 -8.0846 0
M  V30 33295 H 4536.43 6.29101 -7.32804 0
M  V30 33296 H 4531.85 4.25523 -1.77604 0
M  V30 33297 H 4537.06 3.75576 -5.47333 0
M  V30 33298 H 4531.99 6.04684 -0.468946 0
M  V30 33299 H 4533.37 7.18054 -0.542422 0
M  V30 33300 H 4539.07 5.84223 -2.47279 0
M  V30 33301 P 4540.93 7.39546 -4.75277 0
M  V30 33302 O 4542.35 7.84798 -5.01039 0
M  V30 33303 O 4540.57 5.9812 -5.08098 0
M  V30 33304 O 4540.6 7.57503 -3.1866 0
M  V30 33305 C 4540.44 8.97357 -2.74833 0
M  V30 33306 C 4540.98 9.07548 -1.32709 0
M  V30 33307 O 4539.93 8.62072 -0.606159 0
M  V30 33308 C 4542.2 8.25383 -0.938334 0
M  V30 33309 O 4542.94 8.74577 0.146954 0
M  V30 33310 C 4541.53 6.8802 -0.712559 0
M  V30 33311 O 4542.33 6.1189 0.194655 0
M  V30 33312 C 4540.2 7.27966 -0.139777 0
M  V30 33313 H 4540.23 7.25354 0.961601 0
M  V30 33314 H 4541.41 6.32557 -1.65702 0
M  V30 33315 H 4542.9 8.19355 -1.79097 0
M  V30 33316 H 4541.2 10.1294 -1.10029 0
M  V30 33317 H 4541.01 9.64276 -3.41316 0
M  V30 33318 H 4539.38 9.25417 -2.76357 0
M  V30 33319 H 4542.02 6.25267 1.07847 0
M  V30 33320 P 4543.88 8.791 -2.80389e-10 0
M  V30 33321 O 4545.3 9.31196 0.027936 0
M  V30 33322 O 4543.52 7.77869 -1.04071 0
M  V30 33323 O 4543.55 8.09533 1.41463 0
M  V30 33324 C 4543.39 9.03587 2.5397 0
M  V30 33325 C 4543.93 8.35226 3.79016 0
M  V30 33326 O 4542.88 7.57904 4.1503 0
M  V30 33327 C 4545.15 7.45087 3.67298 0
M  V30 33328 O 4545.89 7.27796 4.85194 0
M  V30 33329 C 4544.48 6.17323 3.12027 0
M  V30 33330 O 4545.28 5.04496 3.46627 0
M  V30 33331 C 4543.15 6.19961 3.81809 0
M  V30 33332 N 4542.1 5.71575 2.93223 0
M  V30 33333 C 4542.27 5.77362 1.59168 0
M  V30 33334 N 4541.25 5.3123 0.911893 0
M  V30 33335 C 4540.36 4.91717 1.89588 0
M  V30 33336 C 4539.09 4.3114 1.8076 0
M  V30 33337 N 4538.53 4.06823 3.02898 0
M  V30 33338 C 4539.13 4.35062 4.22711 0
M  V30 33339 N 4540.31 4.90805 4.35707 0
M  V30 33340 C 4540.88 5.16382 3.14469 0
M  V30 33341 H 4544.36 6.21428 2.0318 0
M  V30 33342 H 4545.84 7.86112 2.9231 0
M  V30 33343 H 4544.15 9.11171 4.55987 0
M  V30 33344 H 4543.96 9.9573 2.34194 0
M  V30 33345 H 4542.33 9.2792 2.67832 0
M  V30 33346 H 4543.17 6.16575 1.12198 0
M  V30 33347 H 4544.97 4.67628 4.28704 0
M  V30 33348 P 4546.83 7.39546 4.75277 0
M  V30 33349 O 4548.25 7.81945 5.05847 0
M  V30 33350 O 4546.47 7.1065 3.32998 0
M  V30 33351 O 4546.51 6.04542 5.56673 0
M  V30 33352 C 4546.35 6.22772 7.02095 0
M  V30 33353 C 4546.89 4.97671 7.70322 0
M  V30 33354 O 4545.83 4.13256 7.58987 0
M  V30 33355 C 4548.1 4.28231 7.11815 0
M  V30 33356 O 4548.84 3.49945 8.01648 0
M  V30 33357 C 4547.44 3.5063 5.96244 0
M  V30 33358 O 4548.23 2.36443 5.64589 0
M  V30 33359 C 4546.1 3.15122 6.56374 0
M  V30 33360 N 4545.05 3.22311 5.55692 0
M  V30 33361 C 4545.12 4.14382 4.59701 0
M  V30 33362 N 4544.07 4.04476 3.76958 0
M  V30 33363 C 4543.34 3.04892 4.26534 0
M  V30 33364 C 4542.03 2.57447 3.88189 0
M  V30 33365 O 4541.3 2.9785 2.96543 0
M  V30 33366 N 4541.6 1.55228 4.65922 0
M  V30 33367 C 4542.35 1.01152 5.73447 0
M  V30 33368 N 4541.75 -0.0472117 6.37783 0
M  V30 33369 N 4543.5 1.467 6.13813 0
M  V30 33370 C 4543.96 2.4931 5.38487 0
M  V30 33371 H 4546.13 2.13853 6.99751 0
M  V30 33372 H 4547.31 4.13438 5.06482 0
M  V30 33373 H 4548.8 5.02614 6.71414 0
M  V30 33374 H 4547.1 5.20877 8.75697 0
M  V30 33375 H 4546.91 7.11046 7.35349 0
M  V30 33376 H 4545.28 6.35815 7.26986 0
M  V30 33377 H 4540.71 1.15238 4.46468 0
M  V30 33378 H 4545.91 4.88312 4.49647 0
M  V30 33379 H 4540.84 -0.396382 6.05203 0
M  V30 33380 H 4542.22 -0.484997 7.18465 0
M  V30 33381 H 4547.92 1.61619 6.13468 0
M  V30 33382 P 4549.78 3.65191 7.99657 0
M  V30 33383 O 4551.2 3.8425 8.48115 0
M  V30 33384 O 4549.42 4.17805 6.64342 0
M  V30 33385 O 4549.46 2.07613 7.95143 0
M  V30 33386 C 4549.3 1.44328 9.27336 0
M  V30 33387 C 4549.84 0.0220036 9.17197 0
M  V30 33388 O 4548.78 -0.626867 8.61923 0
M  V30 33389 C 4551.05 -0.24586 8.30336 0
M  V30 33390 O 4551.79 -1.39011 8.63583 0
M  V30 33391 C 4550.38 -0.273849 6.91158 0
M  V30 33392 O 4551.18 -1.06348 6.02892 0
M  V30 33393 C 4549.05 -0.897649 7.22545 0
M  V30 33394 H 4549.08 -1.9841 7.04286 0
M  V30 33395 H 4550.26 0.739928 6.497 0
M  V30 33396 H 4551.75 0.60668 8.36503 0
M  V30 33397 H 4550.05 -0.352479 10.1829 0
M  V30 33398 H 4549.86 2.00611 10.0304 0
M  V30 33399 H 4548.23 1.41843 9.55327 0
M  V30 33400 H 4550.87 -1.95734 6.03555 0
M  V30 33401 P 4552.73 -1.25109 8.70152 0
M  V30 33402 O 4554.15 -1.35274 9.21221 0
M  V30 33403 O 4552.37 -0.0769065 7.84762 0
M  V30 33404 O 4552.41 -2.55232 7.81161 0
M  V30 33405 C 4552.25 -3.79939 8.58154 0
M  V30 33406 C 4552.79 -4.94023 7.72785 0
M  V30 33407 O 4551.73 -5.18726 6.91205 0
M  V30 33408 C 4554 -4.69597 6.85231 0
M  V30 33409 O 4554.74 -5.83832 6.51337 0
M  V30 33410 C 4553.34 -3.96706 5.66633 0
M  V30 33411 O 4554.13 -4.15414 4.49689 0
M  V30 33412 C 4552 -4.66153 5.59313 0
M  V30 33413 H 4552.03 -5.47679 4.85214 0
M  V30 33414 H 4553.21 -2.89008 5.86566 0
M  V30 33415 H 4554.7 -4.0121 7.36511 0
M  V30 33416 H 4553 -5.80182 8.37584 0
M  V30 33417 H 4552.81 -3.73517 9.52265 0
M  V30 33418 H 4551.18 -3.97163 8.80359 0
M  V30 33419 H 4553.82 -4.90969 4.01921 0
M  V30 33420 P 4555.68 -5.75688 6.64379 0
M  V30 33421 O 4557.1 -6.11849 7.01846 0
M  V30 33422 O 4555.32 -4.30744 6.56026 0
M  V30 33423 O 4555.36 -6.37042 5.19165 0
M  V30 33424 C 4555.2 -7.83578 5.16515 0
M  V30 33425 C 4555.74 -8.33398 3.83019 0
M  V30 33426 O 4554.68 -8.10074 3.01034 0
M  V30 33427 C 4556.96 -7.65514 3.2257 0
M  V30 33428 O 4557.69 -8.4329 2.32297 0
M  V30 33429 C 4556.29 -6.40075 2.62207 0
M  V30 33430 O 4557.09 -5.92589 1.53712 0
M  V30 33431 C 4554.95 -6.9454 2.18503 0
M  V30 33432 H 4554.98 -7.23063 1.12091 0
M  V30 33433 H 4556.16 -5.6025 3.37201 0
M  V30 33434 H 4557.65 -7.35707 4.02681 0
M  V30 33435 H 4555.95 -9.40912 3.9095 0
M  V30 33436 H 4555.76 -8.29056 5.99158 0
M  V30 33437 H 4554.13 -8.10073 5.25882 0
M  V30 33438 H 4556.77 -6.30324 0.726794 0
M  V30 33439 P 4558.63 -8.4349 2.47671 0
M  V30 33440 O 4560.05 -8.94263 2.59668 0
M  V30 33441 O 4558.27 -7.1704 3.19006 0
M  V30 33442 O 4558.31 -8.16596 0.923387 0
M  V30 33443 C 4558.15 -9.38537 0.108869 0
M  V30 33444 C 4558.69 -9.08175 -1.28353 0
M  V30 33445 O 4557.63 -8.44131 -1.84692 0
M  V30 33446 C 4559.91 -8.18386 -1.42505 0
M  V30 33447 O 4560.64 -8.3501 -2.60497 0
M  V30 33448 C 4559.24 -6.80225 -1.25468 0
M  V30 33449 O 4560.04 -5.81716 -1.90454 0
M  V30 33450 C 4557.9 -7.02416 -1.9168 0
M  V30 33451 N 4556.86 -6.31033 -1.20314 0
M  V30 33452 C 4557.03 -5.98817 0.0994088 0
M  V30 33453 N 4556 -5.35403 0.621694 0
M  V30 33454 C 4555.11 -5.25212 -0.43376 0
M  V30 33455 C 4553.85 -4.64602 -0.519722 0
M  V30 33456 N 4553.25 -4.01457 0.519136 0
M  V30 33457 N 4553.28 -4.7568 -1.76013 0
M  V30 33458 C 4553.88 -5.3653 -2.83017 0
M  V30 33459 N 4555.06 -5.93676 -2.79782 0
M  V30 33460 C 4555.64 -5.84061 -1.56249 0
M  V30 33461 H 4557.93 -6.68789 -2.9658 0
M  V30 33462 H 4559.11 -6.53498 -0.198729 0
M  V30 33463 H 4560.6 -8.36622 -0.589963 0
M  V30 33464 H 4558.9 -10.0273 -1.8081 0
M  V30 33465 H 4558.71 -10.2138 0.558219 0
M  V30 33466 H 4557.08 -9.6579 0.0444202 0
M  V30 33467 H 4553.35 -5.37113 -3.77321 0
M  V30 33468 H 4557.93 -6.23209 0.660562 0
M  V30 33469 H 4552.32 -3.58834 0.394862 0
M  V30 33470 H 4553.72 -3.96059 1.43048 0
M  V30 33471 H 4559.72 -5.69466 -2.79593 0
M  V30 33472 P 4561.58 -8.4349 -2.47671 0
M  V30 33473 O 4563 -8.92689 -2.65029 0
M  V30 33474 O 4561.22 -7.7568 -1.19296 0
M  V30 33475 O 4561.26 -7.36886 -3.63805 0
M  V30 33476 C 4561.1 -7.95433 -4.98253 0
M  V30 33477 C 4561.64 -6.94612 -5.98974 0
M  V30 33478 O 4560.58 -6.10277 -6.11744 0
M  V30 33479 C 4562.86 -6.11426 -5.62335 0
M  V30 33480 O 4563.59 -5.6162 -6.70584 0
M  V30 33481 C 4562.19 -5.04409 -4.73308 0
M  V30 33482 O 4562.99 -3.86404 -4.74719 0
M  V30 33483 C 4560.85 -4.8728 -5.41006 0
M  V30 33484 N 4559.81 -4.65812 -4.42377 0
M  V30 33485 C 4559.98 -5.09132 -3.15382 0
M  V30 33486 N 4558.95 -4.84021 -2.3716 0
M  V30 33487 C 4558.06 -4.18386 -3.20441 0
M  V30 33488 C 4556.8 -3.6275 -2.94905 0
M  V30 33489 N 4556.2 -3.65794 -1.73372 0
M  V30 33490 N 4556.23 -3.05008 -4.05243 0
M  V30 33491 C 4556.83 -2.98348 -5.28159 0
M  V30 33492 N 4558.01 -3.48171 -5.56333 0
M  V30 33493 C 4558.59 -4.06869 -4.47212 0
M  V30 33494 H 4560.88 -4.02278 -6.11074 0
M  V30 33495 H 4562.07 -5.39013 -3.70026 0
M  V30 33496 H 4563.55 -6.71916 -5.01943 0
M  V30 33497 H 4561.85 -7.45796 -6.94223 0
M  V30 33498 H 4561.66 -8.89416 -5.05237 0
M  V30 33499 H 4560.03 -8.14876 -5.18409 0
M  V30 33500 H 4556.3 -2.47853 -6.07807 0
M  V30 33501 H 4560.88 -5.59989 -2.81362 0
M  V30 33502 H 4555.27 -3.23218 -1.60782 0
M  V30 33503 H 4556.67 -4.10523 -0.937856 0
M  V30 33504 H 4562.67 -3.27906 -5.43085 0
M  V30 33505 P 4564.53 -5.75688 -6.64379 0
M  V30 33506 O 4565.95 -6.07692 -7.0558 0
M  V30 33507 O 4564.17 -5.88047 -5.19722 0
M  V30 33508 O 4564.21 -4.2322 -7.04443 0
M  V30 33509 C 4564.05 -3.99785 -8.49201 0
M  V30 33510 C 4564.59 -2.60516 -8.79425 0
M  V30 33511 O 4563.53 -1.82663 -8.44573 0
M  V30 33512 C 4565.81 -2.10343 -8.03628 0
M  V30 33513 O 4566.54 -1.09919 -8.67766 0
M  V30 33514 C 4565.14 -1.68446 -6.70876 0
M  V30 33515 O 4565.94 -0.684109 -6.08265 0
M  V30 33516 C 4563.8 -1.17436 -7.18567 0
M  V30 33517 N 4562.76 -1.52699 -6.23988 0
M  V30 33518 C 4562.93 -2.578 -5.40574 0
M  V30 33519 N 4561.9 -2.78966 -4.61193 0
M  V30 33520 C 4561.01 -1.78725 -4.95769 0
M  V30 33521 C 4559.75 -1.45727 -4.44207 0
M  V30 33522 N 4559.18 -0.374977 -5.05812 0
M  V30 33523 C 4559.78 0.345585 -6.05615 0
M  V30 33524 N 4560.96 0.0787651 -6.56253 0
M  V30 33525 C 4561.54 -1.00499 -5.96189 0
M  V30 33526 H 4565.02 -2.53396 -6.02698 0
M  V30 33527 H 4566.5 -2.93881 -7.85526 0
M  V30 33528 H 4564.8 -2.52078 -9.87225 0
M  V30 33529 H 4564.61 -4.75072 -9.05887 0
M  V30 33530 H 4562.98 -4.05244 -8.76668 0
M  V30 33531 H 4563.83 -3.18977 -5.3945 0
M  V30 33532 H 4565.62 0.177619 -6.34151 0
M  V30 33533 P 4567.48 -1.25109 -8.70152 0
M  V30 33534 O 4568.9 -1.29744 -9.22016 0
M  V30 33535 O 4567.12 -2.13714 -7.55141 0
M  V30 33536 O 4567.16 0.248149 -8.21425 0
M  V30 33537 C 4567 1.22779 -9.30434 0
M  V30 33538 C 4567.54 2.56293 -8.80664 0
M  V30 33539 O 4566.48 3.02979 -8.09349 0
M  V30 33540 C 4568.76 2.57523 -7.89775 0
M  V30 33541 O 4569.5 3.7668 -7.89438 0
M  V30 33542 C 4568.09 2.20997 -6.55446 0
M  V30 33543 O 4568.89 2.71895 -5.48509 0
M  V30 33544 C 4566.75 2.89693 -6.67988 0
M  V30 33545 H 4566.78 3.88793 -6.19859 0
M  V30 33546 H 4567.97 1.12046 -6.44229 0
M  V30 33547 H 4569.45 1.7746 -8.19711 0
M  V30 33548 H 4567.76 3.20706 -9.67112 0
M  V30 33549 H 4567.57 0.901032 -10.1892 0
M  V30 33550 H 4565.94 1.33049 -9.56592 0
M  V30 33551 H 4568.58 3.57847 -5.23962 0
M  V30 33552 P 4570.43 3.65191 -7.99657 0
M  V30 33553 O 4571.85 3.89332 -8.45794 0
M  V30 33554 O 4570.07 2.28472 -7.50807 0
M  V30 33555 O 4570.11 4.64972 -6.77611 0
M  V30 33556 C 4569.95 6.06319 -7.16352 0
M  V30 33557 C 4570.49 6.91731 -6.02299 0
M  V30 33558 O 4569.43 6.92449 -5.17064 0
M  V30 33559 C 4571.71 6.43627 -5.25174 0
M  V30 33560 O 4572.45 7.43686 -4.60469 0
M  V30 33561 C 4571.04 5.40275 -4.31916 0
M  V30 33562 O 4571.84 5.25279 -3.14438 0
M  V30 33563 C 4569.7 6.04847 -4.05327 0
M  V30 33564 H 4569.73 6.62195 -3.11261 0
M  V30 33565 H 4570.92 4.42556 -4.81383 0
M  V30 33566 H 4572.4 5.92458 -5.93643 0
M  V30 33567 H 4570.71 7.92655 -6.402 0
M  V30 33568 H 4570.52 6.26671 -8.0846 0
M  V30 33569 H 4568.89 6.29101 -7.32804 0
M  V30 33570 H 4571.53 5.84315 -2.47318 0
M  V30 33571 P 4573.38 7.39546 -4.75277 0
M  V30 33572 O 4574.81 7.84798 -5.01039 0
M  V30 33573 O 4573.02 5.9812 -5.08098 0
M  V30 33574 O 4573.06 7.57503 -3.1866 0
M  V30 33575 C 4572.9 8.97357 -2.74833 0
M  V30 33576 C 4573.44 9.07548 -1.32709 0
M  V30 33577 O 4572.38 8.62072 -0.606159 0
M  V30 33578 C 4574.66 8.25383 -0.938334 0
M  V30 33579 O 4575.4 8.74577 0.146954 0
M  V30 33580 C 4573.99 6.8802 -0.712559 0
M  V30 33581 O 4574.79 6.1189 0.194655 0
M  V30 33582 C 4572.65 7.27966 -0.139777 0
M  V30 33583 H 4572.68 7.25354 0.961601 0
M  V30 33584 H 4573.87 6.32557 -1.65702 0
M  V30 33585 H 4575.35 8.19355 -1.79097 0
M  V30 33586 H 4573.66 10.1294 -1.10029 0
M  V30 33587 H 4573.47 9.64276 -3.41316 0
M  V30 33588 H 4571.84 9.25417 -2.76357 0
M  V30 33589 H 4574.48 6.25267 1.07847 0
M  V30 33590 P 4576.33 8.791 -2.85576e-10 0
M  V30 33591 O 4577.76 9.31196 0.027936 0
M  V30 33592 O 4575.97 7.77869 -1.04071 0
M  V30 33593 O 4576.01 8.09533 1.41463 0
M  V30 33594 C 4575.85 9.03587 2.5397 0
M  V30 33595 C 4576.39 8.35226 3.79016 0
M  V30 33596 O 4575.34 7.57904 4.1503 0
M  V30 33597 C 4577.61 7.45087 3.67298 0
M  V30 33598 O 4578.35 7.27796 4.85194 0
M  V30 33599 C 4576.94 6.17323 3.12027 0
M  V30 33600 O 4577.74 5.04496 3.46627 0
M  V30 33601 C 4575.6 6.19961 3.81809 0
M  V30 33602 N 4574.56 5.71575 2.93223 0
M  V30 33603 C 4574.73 5.77362 1.59168 0
M  V30 33604 N 4573.7 5.3123 0.911893 0
M  V30 33605 C 4572.82 4.91717 1.89588 0
M  V30 33606 C 4571.55 4.3114 1.8076 0
M  V30 33607 N 4570.99 4.06823 3.02898 0
M  V30 33608 C 4571.59 4.35062 4.22711 0
M  V30 33609 N 4572.76 4.90805 4.35707 0
M  V30 33610 C 4573.34 5.16382 3.14469 0
M  V30 33611 H 4576.82 6.21428 2.0318 0
M  V30 33612 H 4578.3 7.86112 2.9231 0
M  V30 33613 H 4576.61 9.11171 4.55987 0
M  V30 33614 H 4576.42 9.9573 2.34194 0
M  V30 33615 H 4574.79 9.2792 2.67832 0
M  V30 33616 H 4575.63 6.16575 1.12198 0
M  V30 33617 H 4577.43 4.67628 4.28704 0
M  V30 33618 P 4579.28 7.39546 4.75277 0
M  V30 33619 O 4580.71 7.81777 5.05738 0
M  V30 33620 O 4578.92 7.1065 3.32998 0
M  V30 33621 O 4578.96 6.04542 5.56673 0
M  V30 33622 C 4578.8 6.22772 7.02095 0
M  V30 33623 C 4579.34 4.97725 7.70406 0
M  V30 33624 O 4578.29 4.13256 7.58987 0
M  V30 33625 C 4580.56 4.28231 7.11815 0
M  V30 33626 O 4581.3 3.49945 8.01648 0
M  V30 33627 C 4579.89 3.5063 5.96244 0
M  V30 33628 O 4580.69 2.36482 5.64681 0
M  V30 33629 C 4578.55 3.15122 6.56374 0
M  V30 33630 H 4578.59 2.13853 6.99751 0
M  V30 33631 H 4579.77 4.13501 5.06559 0
M  V30 33632 H 4581.25 5.03285 6.70911 0
M  V30 33633 H 4579.56 5.20877 8.75697 0
M  V30 33634 H 4579.37 7.11046 7.35349 0
M  V30 33635 H 4577.74 6.35815 7.26986 0
M  V30 33636 H 4580.38 1.61644 6.13565 0
M  V30 33637 P 4582.24 3.65191 7.99657 0
M  V30 33638 O 4583.66 3.8425 8.48115 0
M  V30 33639 O 4581.88 4.17805 6.64342 0
M  V30 33640 O 4581.91 2.07613 7.95143 0
M  V30 33641 C 4581.75 1.44328 9.27336 0
M  V30 33642 C 4582.29 0.0220036 9.17197 0
M  V30 33643 O 4581.24 -0.626867 8.61923 0
M  V30 33644 C 4583.51 -0.24586 8.30336 0
M  V30 33645 O 4584.25 -1.39011 8.63583 0
M  V30 33646 C 4582.84 -0.273849 6.91158 0
M  V30 33647 O 4583.64 -1.06348 6.02892 0
M  V30 33648 C 4581.5 -0.897649 7.22545 0
M  V30 33649 H 4581.54 -1.9841 7.04286 0
M  V30 33650 H 4582.72 0.739928 6.497 0
M  V30 33651 H 4584.2 0.60668 8.36503 0
M  V30 33652 H 4582.51 -0.352479 10.1829 0
M  V30 33653 H 4582.32 2.00611 10.0304 0
M  V30 33654 H 4580.69 1.41843 9.55327 0
M  V30 33655 H 4583.33 -1.95734 6.03555 0
M  V30 33656 P 4585.19 -1.25109 8.70152 0
M  V30 33657 O 4586.61 -1.35274 9.21221 0
M  V30 33658 O 4584.83 -0.0769065 7.84762 0
M  V30 33659 O 4584.86 -2.55232 7.81161 0
M  V30 33660 C 4584.7 -3.79939 8.58154 0
M  V30 33661 C 4585.24 -4.94023 7.72785 0
M  V30 33662 O 4584.19 -5.18726 6.91205 0
M  V30 33663 C 4586.46 -4.69597 6.85231 0
M  V30 33664 O 4587.2 -5.83832 6.51337 0
M  V30 33665 C 4585.79 -3.96706 5.66633 0
M  V30 33666 O 4586.59 -4.15414 4.49689 0
M  V30 33667 C 4584.45 -4.66153 5.59313 0
M  V30 33668 H 4584.49 -5.47679 4.85214 0
M  V30 33669 H 4585.67 -2.89008 5.86566 0
M  V30 33670 H 4587.15 -4.0121 7.36511 0
M  V30 33671 H 4585.46 -5.80182 8.37584 0
M  V30 33672 H 4585.27 -3.73517 9.52265 0
M  V30 33673 H 4583.64 -3.97163 8.80359 0
M  V30 33674 H 4586.28 -4.90969 4.01921 0
M  V30 33675 P 4588.14 -5.75688 6.64379 0
M  V30 33676 O 4589.56 -6.11849 7.01846 0
M  V30 33677 O 4587.78 -4.30744 6.56026 0
M  V30 33678 O 4587.81 -6.37042 5.19165 0
M  V30 33679 C 4587.65 -7.83578 5.16515 0
M  V30 33680 C 4588.19 -8.33398 3.83019 0
M  V30 33681 O 4587.14 -8.10074 3.01034 0
M  V30 33682 C 4589.41 -7.65514 3.2257 0
M  V30 33683 O 4590.15 -8.4329 2.32297 0
M  V30 33684 C 4588.74 -6.40075 2.62207 0
M  V30 33685 O 4589.54 -5.92589 1.53712 0
M  V30 33686 C 4587.41 -6.9454 2.18503 0
M  V30 33687 H 4587.44 -7.23063 1.12091 0
M  V30 33688 H 4588.62 -5.6025 3.37201 0
M  V30 33689 H 4590.1 -7.35707 4.02681 0
M  V30 33690 H 4588.41 -9.40912 3.9095 0
M  V30 33691 H 4588.22 -8.29056 5.99158 0
M  V30 33692 H 4586.59 -8.10073 5.25882 0
M  V30 33693 H 4589.23 -6.30324 0.726794 0
M  V30 33694 P 4591.09 -8.4349 2.47671 0
M  V30 33695 O 4592.51 -8.94167 2.5964 0
M  V30 33696 O 4590.73 -7.1704 3.19006 0
M  V30 33697 O 4590.76 -8.16596 0.923387 0
M  V30 33698 C 4590.6 -9.38437 0.108857 0
M  V30 33699 C 4591.14 -9.08175 -1.28353 0
M  V30 33700 O 4590.09 -8.44229 -1.84713 0
M  V30 33701 C 4592.36 -8.18386 -1.42505 0
M  V30 33702 O 4593.1 -8.3501 -2.60497 0
M  V30 33703 C 4591.69 -6.80225 -1.25468 0
M  V30 33704 O 4592.49 -5.81621 -1.91066 0
M  V30 33705 C 4590.36 -7.02416 -1.9168 0
M  V30 33706 H 4590.39 -6.6888 -2.96621 0
M  V30 33707 H 4591.57 -6.53617 -0.192223 0
M  V30 33708 H 4593.05 -8.36622 -0.589963 0
M  V30 33709 H 4591.36 -10.0291 -1.79807 0
M  V30 33710 H 4591.17 -10.2138 0.558219 0
M  V30 33711 H 4589.54 -9.6579 0.0444202 0
M  V30 33712 H 4592.18 -5.69556 -2.79637 0
M  V30 33713 P 4594.04 -8.4349 -2.47671 0
M  V30 33714 O 4595.46 -8.92593 -2.65 0
M  V30 33715 O 4593.68 -7.7568 -1.19296 0
M  V30 33716 O 4593.71 -7.36886 -3.63805 0
M  V30 33717 C 4593.55 -7.95349 -4.982 0
M  V30 33718 C 4594.09 -6.94612 -5.98974 0
M  V30 33719 O 4593.04 -6.10347 -6.11815 0
M  V30 33720 C 4595.31 -6.11426 -5.62335 0
M  V30 33721 O 4596.05 -5.6162 -6.70584 0
M  V30 33722 C 4594.64 -5.04409 -4.73308 0
M  V30 33723 O 4595.44 -3.85992 -4.75183 0
M  V30 33724 C 4593.31 -4.8728 -5.41006 0
M  V30 33725 H 4593.34 -4.02333 -6.11157 0
M  V30 33726 H 4594.52 -5.39466 -3.69543 0
M  V30 33727 H 4596.01 -6.71916 -5.01943 0
M  V30 33728 H 4594.31 -7.4649 -6.93477 0
M  V30 33729 H 4594.12 -8.89416 -5.05237 0
M  V30 33730 H 4592.49 -8.14876 -5.18409 0
M  V30 33731 H 4595.13 -3.27957 -5.4317 0
M  V30 33732 P 4596.99 -5.75688 -6.64379 0
M  V30 33733 O 4598.41 -6.07627 -7.05504 0
M  V30 33734 O 4596.63 -5.88047 -5.19722 0
M  V30 33735 O 4596.67 -4.2322 -7.04443 0
M  V30 33736 C 4596.51 -3.99743 -8.4911 0
M  V30 33737 C 4597.05 -2.60516 -8.79425 0
M  V30 33738 O 4595.99 -1.82684 -8.4467 0
M  V30 33739 C 4598.26 -2.10343 -8.03628 0
M  V30 33740 O 4599 -1.09919 -8.67766 0
M  V30 33741 C 4597.59 -1.68446 -6.70876 0
M  V30 33742 O 4598.39 -0.678137 -6.08433 0
M  V30 33743 C 4596.26 -1.17436 -7.18567 0
M  V30 33744 H 4596.29 -0.0804732 -7.31656 0
M  V30 33745 H 4597.47 -2.54037 -6.02537 0
M  V30 33746 H 4598.96 -2.93881 -7.85526 0
M  V30 33747 H 4597.26 -2.53065 -9.86973 0
M  V30 33748 H 4597.07 -4.75072 -9.05887 0
M  V30 33749 H 4595.44 -4.05244 -8.76668 0
M  V30 33750 H 4598.08 0.177647 -6.34251 0
M  V30 33751 P 4599.94 -1.25109 -8.70152 0
M  V30 33752 O 4601.36 -1.29744 -9.22016 0
M  V30 33753 O 4599.58 -2.13714 -7.55141 0
M  V30 33754 O 4599.62 0.248149 -8.21425 0
M  V30 33755 C 4599.46 1.22779 -9.30434 0
M  V30 33756 C 4600 2.56293 -8.80664 0
M  V30 33757 O 4598.94 3.02979 -8.09349 0
M  V30 33758 C 4601.21 2.57523 -7.89775 0
M  V30 33759 O 4601.95 3.7668 -7.89438 0
M  V30 33760 C 4600.54 2.20997 -6.55446 0
M  V30 33761 O 4601.34 2.71895 -5.48509 0
M  V30 33762 C 4599.21 2.89693 -6.67988 0
M  V30 33763 H 4599.24 3.88793 -6.19859 0
M  V30 33764 H 4600.42 1.12046 -6.44229 0
M  V30 33765 H 4601.91 1.7746 -8.19711 0
M  V30 33766 H 4600.21 3.20706 -9.67112 0
M  V30 33767 H 4600.02 0.901032 -10.1892 0
M  V30 33768 H 4598.39 1.33049 -9.56592 0
M  V30 33769 H 4601.03 3.57847 -5.23962 0
M  V30 33770 P 4602.89 3.65191 -7.99657 0
M  V30 33771 O 4604.31 3.89332 -8.45794 0
M  V30 33772 O 4602.53 2.28472 -7.50807 0
M  V30 33773 O 4602.57 4.64972 -6.77611 0
M  V30 33774 C 4602.41 6.06319 -7.16352 0
M  V30 33775 C 4602.95 6.91731 -6.02299 0
M  V30 33776 O 4601.89 6.92449 -5.17064 0
M  V30 33777 C 4604.16 6.43627 -5.25174 0
M  V30 33778 O 4604.9 7.43686 -4.60469 0
M  V30 33779 C 4603.5 5.40275 -4.31916 0
M  V30 33780 O 4604.29 5.25279 -3.14438 0
M  V30 33781 C 4602.16 6.04847 -4.05327 0
M  V30 33782 H 4602.19 6.62195 -3.11261 0
M  V30 33783 H 4603.37 4.42556 -4.81383 0
M  V30 33784 H 4604.86 5.92458 -5.93643 0
M  V30 33785 H 4603.16 7.92655 -6.402 0
M  V30 33786 H 4602.97 6.26671 -8.0846 0
M  V30 33787 H 4601.34 6.29101 -7.32804 0
M  V30 33788 H 4603.98 5.84315 -2.47318 0
M  V30 33789 P 4605.84 7.39546 -4.75277 0
M  V30 33790 O 4607.26 7.84798 -5.01039 0
M  V30 33791 O 4605.48 5.9812 -5.08098 0
M  V30 33792 O 4605.52 7.57503 -3.1866 0
M  V30 33793 C 4605.36 8.97357 -2.74833 0
M  V30 33794 C 4605.9 9.07548 -1.32709 0
M  V30 33795 O 4604.84 8.62072 -0.606159 0
M  V30 33796 C 4607.11 8.25383 -0.938334 0
M  V30 33797 O 4607.85 8.74577 0.146954 0
M  V30 33798 C 4606.45 6.8802 -0.712559 0
M  V30 33799 O 4607.24 6.1189 0.194655 0
M  V30 33800 C 4605.11 7.27966 -0.139777 0
M  V30 33801 H 4605.14 7.25354 0.961601 0
M  V30 33802 H 4606.32 6.32557 -1.65702 0
M  V30 33803 H 4607.81 8.19355 -1.79097 0
M  V30 33804 H 4606.11 10.1294 -1.10029 0
M  V30 33805 H 4605.92 9.64276 -3.41316 0
M  V30 33806 H 4604.29 9.25417 -2.76357 0
M  V30 33807 H 4606.93 6.25267 1.07847 0
M  V30 33808 P 4608.79 8.791 -2.90762e-10 0
M  V30 33809 O 4610.21 9.31096 0.027933 0
M  V30 33810 O 4608.43 7.77869 -1.04071 0
M  V30 33811 O 4608.47 8.09533 1.41463 0
M  V30 33812 C 4608.31 9.0349 2.53943 0
M  V30 33813 C 4608.85 8.35226 3.79016 0
M  V30 33814 O 4607.79 7.57992 4.15078 0
M  V30 33815 C 4610.07 7.45087 3.67298 0
M  V30 33816 O 4610.8 7.27796 4.85194 0
M  V30 33817 C 4609.4 6.17323 3.12027 0
M  V30 33818 O 4610.2 5.04231 3.47188 0
M  V30 33819 C 4608.06 6.19961 3.81809 0
M  V30 33820 H 4608.09 5.58218 4.73051 0
M  V30 33821 H 4609.27 6.21726 2.02589 0
M  V30 33822 H 4610.76 7.86112 2.9231 0
M  V30 33823 H 4609.06 9.11627 4.55076 0
M  V30 33824 H 4608.87 9.9573 2.34194 0
M  V30 33825 H 4607.24 9.2792 2.67832 0
M  V30 33826 H 4609.88 4.67702 4.28772 0
M  V30 33827 P 4611.74 7.39546 4.75277 0
M  V30 33828 O 4613.16 7.81777 5.05738 0
M  V30 33829 O 4611.38 7.1065 3.32998 0
M  V30 33830 O 4611.42 6.04542 5.56673 0
M  V30 33831 C 4611.26 6.22772 7.02095 0
M  V30 33832 C 4611.8 4.97725 7.70406 0
M  V30 33833 O 4610.74 4.13256 7.58987 0
M  V30 33834 C 4613.02 4.28231 7.11815 0
M  V30 33835 O 4613.75 3.49945 8.01648 0
M  V30 33836 C 4612.35 3.5063 5.96244 0
M  V30 33837 O 4613.15 2.36482 5.64681 0
M  V30 33838 C 4611.01 3.15122 6.56374 0
M  V30 33839 H 4611.04 2.13853 6.99751 0
M  V30 33840 H 4612.22 4.13501 5.06559 0
M  V30 33841 H 4613.71 5.03285 6.70911 0
M  V30 33842 H 4612.01 5.20877 8.75697 0
M  V30 33843 H 4611.82 7.11046 7.35349 0
M  V30 33844 H 4610.19 6.35815 7.26986 0
M  V30 33845 H 4612.83 1.61644 6.13565 0
M  V30 33846 P 4614.69 3.65191 7.99657 0
M  V30 33847 O 4616.11 3.8425 8.48115 0
M  V30 33848 O 4614.33 4.17805 6.64342 0
M  V30 33849 O 4614.37 2.07613 7.95143 0
M  V30 33850 C 4614.21 1.44328 9.27336 0
M  V30 33851 C 4614.75 0.0220036 9.17197 0
M  V30 33852 O 4613.69 -0.626867 8.61923 0
M  V30 33853 C 4615.97 -0.24586 8.30336 0
M  V30 33854 O 4616.7 -1.39011 8.63583 0
M  V30 33855 C 4615.3 -0.273849 6.91158 0
M  V30 33856 O 4616.1 -1.06348 6.02892 0
M  V30 33857 C 4613.96 -0.897649 7.22545 0
M  V30 33858 H 4613.99 -1.9841 7.04286 0
M  V30 33859 H 4615.18 0.739928 6.497 0
M  V30 33860 H 4616.66 0.60668 8.36503 0
M  V30 33861 H 4614.97 -0.352479 10.1829 0
M  V30 33862 H 4614.78 2.00611 10.0304 0
M  V30 33863 H 4613.15 1.41843 9.55327 0
M  V30 33864 H 4615.78 -1.95734 6.03555 0
M  V30 33865 P 4617.64 -1.25109 8.70152 0
M  V30 33866 O 4619.06 -1.35274 9.21221 0
M  V30 33867 O 4617.28 -0.0769065 7.84762 0
M  V30 33868 O 4617.32 -2.55232 7.81161 0
M  V30 33869 C 4617.16 -3.79939 8.58154 0
M  V30 33870 C 4617.7 -4.94023 7.72785 0
M  V30 33871 O 4616.64 -5.18726 6.91205 0
M  V30 33872 C 4618.92 -4.69597 6.85231 0
M  V30 33873 O 4619.66 -5.83832 6.51337 0
M  V30 33874 C 4618.25 -3.96706 5.66633 0
M  V30 33875 O 4619.05 -4.15414 4.49689 0
M  V30 33876 C 4616.91 -4.66153 5.59313 0
M  V30 33877 H 4616.94 -5.47679 4.85214 0
M  V30 33878 H 4618.13 -2.89008 5.86566 0
M  V30 33879 H 4619.61 -4.0121 7.36511 0
M  V30 33880 H 4617.92 -5.80182 8.37584 0
M  V30 33881 H 4617.73 -3.73517 9.52265 0
M  V30 33882 H 4616.1 -3.97163 8.80359 0
M  V30 33883 H 4618.74 -4.90969 4.01921 0
M  V30 33884 P 4620.59 -5.75688 6.64379 0
M  V30 33885 O 4622.01 -6.11849 7.01846 0
M  V30 33886 O 4620.23 -4.30744 6.56026 0
M  V30 33887 O 4620.27 -6.37042 5.19165 0
M  V30 33888 C 4620.11 -7.83578 5.16515 0
M  V30 33889 C 4620.65 -8.33398 3.83019 0
M  V30 33890 O 4619.59 -8.10074 3.01034 0
M  V30 33891 C 4621.87 -7.65514 3.2257 0
M  V30 33892 O 4622.61 -8.4329 2.32297 0
M  V30 33893 C 4621.2 -6.40075 2.62207 0
M  V30 33894 O 4622 -5.92589 1.53712 0
M  V30 33895 C 4619.86 -6.9454 2.18503 0
M  V30 33896 H 4619.89 -7.23063 1.12091 0
M  V30 33897 H 4621.08 -5.6025 3.37201 0
M  V30 33898 H 4622.56 -7.35707 4.02681 0
M  V30 33899 H 4620.87 -9.40912 3.9095 0
M  V30 33900 H 4620.68 -8.29056 5.99158 0
M  V30 33901 H 4619.05 -8.10073 5.25882 0
M  V30 33902 H 4621.69 -6.30324 0.726794 0
M  V30 33903 P 4623.54 -8.4349 2.47671 0
M  V30 33904 O 4624.97 -8.94167 2.5964 0
M  V30 33905 O 4623.18 -7.1704 3.19006 0
M  V30 33906 O 4623.22 -8.16596 0.923387 0
M  V30 33907 C 4623.06 -9.38437 0.108857 0
M  V30 33908 C 4623.6 -9.08175 -1.28353 0
M  V30 33909 O 4622.54 -8.44229 -1.84713 0
M  V30 33910 C 4624.82 -8.18386 -1.42505 0
M  V30 33911 O 4625.56 -8.3501 -2.60497 0
M  V30 33912 C 4624.15 -6.80225 -1.25468 0
M  V30 33913 O 4624.95 -5.81621 -1.91066 0
M  V30 33914 C 4622.81 -7.02416 -1.9168 0
M  V30 33915 H 4622.84 -6.6888 -2.96621 0
M  V30 33916 H 4624.03 -6.53617 -0.192223 0
M  V30 33917 H 4625.51 -8.36622 -0.589963 0
M  V30 33918 H 4623.82 -10.0291 -1.79807 0
M  V30 33919 H 4623.63 -10.2138 0.558219 0
M  V30 33920 H 4622 -9.6579 0.0444202 0
M  V30 33921 H 4624.64 -5.69556 -2.79637 0
M  V30 33922 P 4626.49 -8.4349 -2.47671 0
M  V30 33923 O 4627.91 -8.92689 -2.65029 0
M  V30 33924 O 4626.13 -7.7568 -1.19296 0
M  V30 33925 O 4626.17 -7.36886 -3.63805 0
M  V30 33926 C 4626.01 -7.95433 -4.98253 0
M  V30 33927 C 4626.55 -6.94612 -5.98974 0
M  V30 33928 O 4625.5 -6.10277 -6.11744 0
M  V30 33929 C 4627.77 -6.11426 -5.62335 0
M  V30 33930 O 4628.51 -5.6162 -6.70584 0
M  V30 33931 C 4627.1 -5.04409 -4.73308 0
M  V30 33932 O 4627.9 -3.86404 -4.74719 0
M  V30 33933 C 4625.76 -4.8728 -5.41006 0
M  V30 33934 N 4624.72 -4.65812 -4.42377 0
M  V30 33935 C 4624.89 -5.09132 -3.15382 0
M  V30 33936 N 4623.86 -4.84021 -2.3716 0
M  V30 33937 C 4622.98 -4.18386 -3.20441 0
M  V30 33938 C 4621.71 -3.6275 -2.94905 0
M  V30 33939 N 4621.14 -3.05008 -4.05243 0
M  V30 33940 C 4621.75 -2.98348 -5.28159 0
M  V30 33941 N 4622.92 -3.48171 -5.56333 0
M  V30 33942 C 4623.5 -4.06869 -4.47212 0
M  V30 33943 H 4626.98 -5.39013 -3.70026 0
M  V30 33944 H 4628.46 -6.71916 -5.01943 0
M  V30 33945 H 4626.77 -7.45796 -6.94223 0
M  V30 33946 H 4626.58 -8.89416 -5.05237 0
M  V30 33947 H 4624.95 -8.14876 -5.18409 0
M  V30 33948 H 4625.79 -5.59989 -2.81362 0
M  V30 33949 H 4627.59 -3.27906 -5.43085 0
M  V30 33950 P 4629.44 -5.75688 -6.64379 0
M  V30 33951 O 4630.87 -6.07758 -7.05656 0
M  V30 33952 O 4629.08 -5.88047 -5.19722 0
M  V30 33953 O 4629.12 -4.2322 -7.04443 0
M  V30 33954 C 4628.96 -3.99743 -8.4911 0
M  V30 33955 C 4629.5 -2.60487 -8.79329 0
M  V30 33956 O 4628.45 -1.82684 -8.4467 0
M  V30 33957 C 4630.72 -2.10343 -8.03628 0
M  V30 33958 O 4631.46 -1.09919 -8.67766 0
M  V30 33959 C 4630.05 -1.68446 -6.70876 0
M  V30 33960 O 4630.85 -0.678026 -6.08333 0
M  V30 33961 C 4628.71 -1.17436 -7.18567 0
M  V30 33962 N 4627.67 -1.52699 -6.23988 0
M  V30 33963 C 4627.73 -2.68084 -5.57824 0
M  V30 33964 N 4626.69 -2.8189 -4.75643 0
M  V30 33965 C 4625.95 -1.72373 -4.95155 0
M  V30 33966 C 4624.65 -1.37653 -4.44996 0
M  V30 33967 O 4623.91 -2.02239 -3.68445 0
M  V30 33968 N 4624.22 -0.17675 -4.90782 0
M  V30 33969 C 4624.97 0.645036 -5.78716 0
M  V30 33970 N 4624.37 1.84214 -6.10618 0
M  V30 33971 N 4626.12 0.321732 -6.30279 0
M  V30 33972 C 4626.58 -0.87502 -5.86913 0
M  V30 33973 H 4628.75 -0.0804732 -7.31656 0
M  V30 33974 H 4629.93 -2.53998 -6.02444 0
M  V30 33975 H 4631.41 -2.93095 -7.8582 0
M  V30 33976 H 4629.72 -2.53065 -9.86973 0
M  V30 33977 H 4629.53 -4.75072 -9.05887 0
M  V30 33978 H 4627.9 -4.05244 -8.76668 0
M  V30 33979 H 4623.32 0.152143 -4.60849 0
M  V30 33980 H 4628.53 -3.41852 -5.69006 0
M  V30 33981 H 4623.46 2.08538 -5.69521 0
M  V30 33982 H 4624.83 2.4895 -6.75698 0
M  V30 33983 H 4630.54 0.177619 -6.34151 0
M  V30 33984 P 4632.39 -1.25109 -8.70152 0
M  V30 33985 O 4633.82 -1.29744 -9.22016 0
M  V30 33986 O 4632.03 -2.13714 -7.55141 0
M  V30 33987 O 4632.07 0.248149 -8.21425 0
M  V30 33988 C 4631.91 1.22779 -9.30434 0
M  V30 33989 C 4632.45 2.56293 -8.80664 0
M  V30 33990 O 4631.4 3.02979 -8.09349 0
M  V30 33991 C 4633.67 2.57523 -7.89775 0
M  V30 33992 O 4634.41 3.7668 -7.89438 0
M  V30 33993 C 4633 2.20997 -6.55446 0
M  V30 33994 O 4633.8 2.71895 -5.48509 0
M  V30 33995 C 4631.66 2.89693 -6.67988 0
M  V30 33996 H 4631.7 3.88793 -6.19859 0
M  V30 33997 H 4632.88 1.12046 -6.44229 0
M  V30 33998 H 4634.36 1.7746 -8.19711 0
M  V30 33999 H 4632.67 3.20706 -9.67112 0
M  V30 34000 H 4632.48 0.901032 -10.1892 0
M  V30 34001 H 4630.85 1.33049 -9.56592 0
M  V30 34002 H 4633.49 3.57847 -5.23962 0
M  V30 34003 P 4635.35 3.65191 -7.99657 0
M  V30 34004 O 4636.77 3.89332 -8.45794 0
M  V30 34005 O 4634.99 2.28472 -7.50807 0
M  V30 34006 O 4635.02 4.64972 -6.77611 0
M  V30 34007 C 4634.86 6.06319 -7.16352 0
M  V30 34008 C 4635.4 6.91731 -6.02299 0
M  V30 34009 O 4634.35 6.92449 -5.17064 0
M  V30 34010 C 4636.62 6.43627 -5.25174 0
M  V30 34011 O 4637.36 7.43686 -4.60469 0
M  V30 34012 C 4635.95 5.40275 -4.31916 0
M  V30 34013 O 4636.75 5.25279 -3.14438 0
M  V30 34014 C 4634.61 6.04847 -4.05327 0
M  V30 34015 H 4634.65 6.62195 -3.11261 0
M  V30 34016 H 4635.83 4.42556 -4.81383 0
M  V30 34017 H 4637.31 5.92458 -5.93643 0
M  V30 34018 H 4635.62 7.92655 -6.402 0
M  V30 34019 H 4635.43 6.26671 -8.0846 0
M  V30 34020 H 4633.8 6.29101 -7.32804 0
M  V30 34021 H 4636.44 5.84315 -2.47318 0
M  V30 34022 P 4638.3 7.39546 -4.75277 0
M  V30 34023 O 4639.72 7.84798 -5.01039 0
M  V30 34024 O 4637.94 5.9812 -5.08098 0
M  V30 34025 O 4637.97 7.57503 -3.1866 0
M  V30 34026 C 4637.81 8.97357 -2.74833 0
M  V30 34027 C 4638.35 9.07548 -1.32709 0
M  V30 34028 O 4637.3 8.62072 -0.606159 0
M  V30 34029 C 4639.57 8.25383 -0.938334 0
M  V30 34030 O 4640.31 8.74577 0.146954 0
M  V30 34031 C 4638.9 6.8802 -0.712559 0
M  V30 34032 O 4639.7 6.1189 0.194655 0
M  V30 34033 C 4637.57 7.27966 -0.139777 0
M  V30 34034 H 4637.6 7.25354 0.961601 0
M  V30 34035 H 4638.78 6.32557 -1.65702 0
M  V30 34036 H 4640.26 8.19355 -1.79097 0
M  V30 34037 H 4638.57 10.1294 -1.10029 0
M  V30 34038 H 4638.38 9.64276 -3.41316 0
M  V30 34039 H 4636.75 9.25417 -2.76357 0
M  V30 34040 H 4639.39 6.25267 1.07847 0
M  V30 34041 P 4641.25 8.791 -2.95949e-10 0
M  V30 34042 O 4642.67 9.31096 0.027933 0
M  V30 34043 O 4640.89 7.77869 -1.04071 0
M  V30 34044 O 4640.92 8.09533 1.41463 0
M  V30 34045 C 4640.76 9.0349 2.53943 0
M  V30 34046 C 4641.3 8.35226 3.79016 0
M  V30 34047 O 4640.25 7.57992 4.15078 0
M  V30 34048 C 4642.52 7.45087 3.67298 0
M  V30 34049 O 4643.26 7.27796 4.85194 0
M  V30 34050 C 4641.85 6.17323 3.12027 0
M  V30 34051 O 4642.65 5.04231 3.47188 0
M  V30 34052 C 4640.52 6.19961 3.81809 0
M  V30 34053 H 4640.55 5.58218 4.73051 0
M  V30 34054 H 4641.73 6.21726 2.02589 0
M  V30 34055 H 4643.21 7.86112 2.9231 0
M  V30 34056 H 4641.52 9.11627 4.55076 0
M  V30 34057 H 4641.33 9.9573 2.34194 0
M  V30 34058 H 4639.7 9.2792 2.67832 0
M  V30 34059 H 4642.34 4.67702 4.28772 0
M  V30 34060 P 4644.2 7.39546 4.75277 0
M  V30 34061 O 4645.62 7.81777 5.05738 0
M  V30 34062 O 4643.84 7.1065 3.32998 0
M  V30 34063 O 4643.87 6.04542 5.56673 0
M  V30 34064 C 4643.71 6.22772 7.02095 0
M  V30 34065 C 4644.25 4.97725 7.70406 0
M  V30 34066 O 4643.2 4.13256 7.58987 0
M  V30 34067 C 4645.47 4.28231 7.11815 0
M  V30 34068 O 4646.21 3.49945 8.01648 0
M  V30 34069 C 4644.8 3.5063 5.96244 0
M  V30 34070 O 4645.6 2.36482 5.64681 0
M  V30 34071 C 4643.47 3.15122 6.56374 0
M  V30 34072 H 4643.5 2.13853 6.99751 0
M  V30 34073 H 4644.68 4.13501 5.06559 0
M  V30 34074 H 4646.17 5.03285 6.70911 0
M  V30 34075 H 4644.47 5.20877 8.75697 0
M  V30 34076 H 4644.28 7.11046 7.35349 0
M  V30 34077 H 4642.65 6.35815 7.26986 0
M  V30 34078 H 4645.29 1.61644 6.13565 0
M  V30 34079 P 4647.15 3.65191 7.99657 0
M  V30 34080 O 4648.57 3.8425 8.48115 0
M  V30 34081 O 4646.79 4.17805 6.64342 0
M  V30 34082 O 4646.82 2.07613 7.95143 0
M  V30 34083 C 4646.66 1.44328 9.27336 0
M  V30 34084 C 4647.2 0.0220036 9.17197 0
M  V30 34085 O 4646.15 -0.626867 8.61923 0
M  V30 34086 C 4648.42 -0.24586 8.30336 0
M  V30 34087 O 4649.16 -1.39011 8.63583 0
M  V30 34088 C 4647.75 -0.273849 6.91158 0
M  V30 34089 O 4648.55 -1.06348 6.02892 0
M  V30 34090 C 4646.42 -0.897649 7.22545 0
M  V30 34091 H 4646.45 -1.9841 7.04286 0
M  V30 34092 H 4647.63 0.739928 6.497 0
M  V30 34093 H 4649.12 0.60668 8.36503 0
M  V30 34094 H 4647.42 -0.352479 10.1829 0
M  V30 34095 H 4647.23 2.00611 10.0304 0
M  V30 34096 H 4645.6 1.41843 9.55327 0
M  V30 34097 H 4648.24 -1.95734 6.03555 0
M  V30 34098 P 4650.1 -1.25109 8.70152 0
M  V30 34099 O 4651.52 -1.35274 9.21221 0
M  V30 34100 O 4649.74 -0.0769065 7.84762 0
M  V30 34101 O 4649.78 -2.55232 7.81161 0
M  V30 34102 C 4649.62 -3.79939 8.58154 0
M  V30 34103 C 4650.16 -4.94023 7.72785 0
M  V30 34104 O 4649.1 -5.18726 6.91205 0
M  V30 34105 C 4651.37 -4.69597 6.85231 0
M  V30 34106 O 4652.11 -5.83832 6.51337 0
M  V30 34107 C 4650.7 -3.96706 5.66633 0
M  V30 34108 O 4651.5 -4.15414 4.49689 0
M  V30 34109 C 4649.37 -4.66153 5.59313 0
M  V30 34110 H 4649.4 -5.47679 4.85214 0
M  V30 34111 H 4650.58 -2.89008 5.86566 0
M  V30 34112 H 4652.07 -4.0121 7.36511 0
M  V30 34113 H 4650.37 -5.80182 8.37584 0
M  V30 34114 H 4650.18 -3.73517 9.52265 0
M  V30 34115 H 4648.55 -3.97163 8.80359 0
M  V30 34116 H 4651.19 -4.90969 4.01921 0
M  V30 34117 P 4653.05 -5.75688 6.64379 0
M  V30 34118 O 4654.47 -6.11849 7.01846 0
M  V30 34119 O 4652.69 -4.30744 6.56026 0
M  V30 34120 O 4652.73 -6.37042 5.19165 0
M  V30 34121 C 4652.57 -7.83578 5.16515 0
M  V30 34122 C 4653.11 -8.33398 3.83019 0
M  V30 34123 O 4652.05 -8.10074 3.01034 0
M  V30 34124 C 4654.32 -7.65514 3.2257 0
M  V30 34125 O 4655.06 -8.4329 2.32297 0
M  V30 34126 C 4653.65 -6.40075 2.62207 0
M  V30 34127 O 4654.45 -5.92589 1.53712 0
M  V30 34128 C 4652.32 -6.9454 2.18503 0
M  V30 34129 H 4652.35 -7.23063 1.12091 0
M  V30 34130 H 4653.53 -5.6025 3.37201 0
M  V30 34131 H 4655.02 -7.35707 4.02681 0
M  V30 34132 H 4653.32 -9.40912 3.9095 0
M  V30 34133 H 4653.13 -8.29056 5.99158 0
M  V30 34134 H 4651.5 -8.10073 5.25882 0
M  V30 34135 H 4654.14 -6.30324 0.726794 0
M  V30 34136 P 4656 -8.4349 2.47671 0
M  V30 34137 O 4657.4 -8.98227 2.65696 0
M  V30 34138 O 4655.62 -7.20409 3.23964 0
M  V30 34139 O 4655.68 -8.16496 0.923275 0
M  V30 34140 C 4655.52 -9.38437 0.108857 0
M  V30 34141 C 4656.06 -9.08076 -1.28339 0
M  V30 34142 O 4655 -8.44131 -1.84692 0
M  V30 34143 C 4657.27 -8.18386 -1.42505 0
M  V30 34144 O 4658.01 -8.3501 -2.60497 0
M  V30 34145 C 4656.61 -6.80225 -1.25468 0
M  V30 34146 O 4657.4 -5.81526 -1.91035 0
M  V30 34147 C 4655.27 -7.02416 -1.9168 0
M  V30 34148 N 4654.23 -6.31033 -1.20314 0
M  V30 34149 C 4653.19 -5.77149 -1.928 0
M  V30 34150 O 4653.23 -5.8521 -3.17729 0
M  V30 34151 N 4652.18 -5.15445 -1.27997 0
M  V30 34152 C 4652.23 -5.04472 0.0534726 0
M  V30 34153 C 4653.32 -5.55244 0.808522 0
M  V30 34154 C 4654.29 -6.18542 0.13981 0
M  V30 34155 H 4655.3 -6.68789 -2.9658 0
M  V30 34156 H 4656.48 -6.53498 -0.198729 0
M  V30 34157 H 4657.97 -8.36663 -0.5984 0
M  V30 34158 H 4656.27 -10.0273 -1.8081 0
M  V30 34159 H 4656.08 -10.2138 0.558219 0
M  V30 34160 H 4654.45 -9.6569 0.0444156 0
M  V30 34161 H 4653.37 -5.43017 1.88792 0
M  V30 34162 H 4655.13 -6.60539 0.686773 0
M  V30 34163 H 4657.19 -5.79638 -2.8315 0
M  V30 34164 P 4658.95 -8.4349 -2.47671 0
M  V30 34165 O 4660.37 -8.92593 -2.65 0
M  V30 34166 O 4658.59 -7.7568 -1.19296 0
M  V30 34167 O 4658.63 -7.36886 -3.63805 0
M  V30 34168 C 4658.47 -7.95349 -4.982 0
M  V30 34169 C 4659.01 -6.94612 -5.98974 0
M  V30 34170 O 4657.95 -6.10347 -6.11815 0
M  V30 34171 C 4660.23 -6.11426 -5.62335 0
M  V30 34172 O 4660.96 -5.6162 -6.70584 0
M  V30 34173 C 4659.56 -5.04409 -4.73308 0
M  V30 34174 O 4660.36 -3.85992 -4.75183 0
M  V30 34175 C 4658.22 -4.8728 -5.41006 0
M  V30 34176 H 4658.25 -4.02333 -6.11157 0
M  V30 34177 H 4659.43 -5.39466 -3.69543 0
M  V30 34178 H 4660.92 -6.71916 -5.01943 0
M  V30 34179 H 4659.22 -7.4649 -6.93477 0
M  V30 34180 H 4659.03 -8.89416 -5.05237 0
M  V30 34181 H 4657.4 -8.14876 -5.18409 0
M  V30 34182 H 4660.04 -3.27957 -5.4317 0
M  V30 34183 P 4661.9 -5.75688 -6.64379 0
M  V30 34184 O 4663.32 -6.07627 -7.05504 0
M  V30 34185 O 4661.54 -5.88047 -5.19722 0
M  V30 34186 O 4661.58 -4.2322 -7.04443 0
M  V30 34187 C 4661.42 -3.99743 -8.4911 0
M  V30 34188 C 4661.96 -2.60516 -8.79425 0
M  V30 34189 O 4660.9 -1.82684 -8.4467 0
M  V30 34190 C 4663.18 -2.10343 -8.03628 0
M  V30 34191 O 4663.91 -1.09919 -8.67766 0
M  V30 34192 C 4662.51 -1.68446 -6.70876 0
M  V30 34193 O 4663.31 -0.678137 -6.08433 0
M  V30 34194 C 4661.17 -1.17436 -7.18567 0
M  V30 34195 H 4661.2 -0.0804732 -7.31656 0
M  V30 34196 H 4662.38 -2.54037 -6.02537 0
M  V30 34197 H 4663.87 -2.93881 -7.85526 0
M  V30 34198 H 4662.17 -2.53065 -9.86973 0
M  V30 34199 H 4661.98 -4.75072 -9.05887 0
M  V30 34200 H 4660.35 -4.05244 -8.76668 0
M  V30 34201 H 4662.99 0.177647 -6.34251 0
M  V30 34202 P 4664.85 -1.25109 -8.70152 0
M  V30 34203 O 4666.27 -1.29744 -9.22016 0
M  V30 34204 O 4664.49 -2.13714 -7.55141 0
M  V30 34205 O 4664.53 0.248149 -8.21425 0
M  V30 34206 C 4664.37 1.22779 -9.30434 0
M  V30 34207 C 4664.91 2.56293 -8.80664 0
M  V30 34208 O 4663.85 3.02979 -8.09349 0
M  V30 34209 C 4666.13 2.57523 -7.89775 0
M  V30 34210 O 4666.86 3.7668 -7.89438 0
M  V30 34211 C 4665.46 2.20997 -6.55446 0
M  V30 34212 O 4666.26 2.71895 -5.48509 0
M  V30 34213 C 4664.12 2.89693 -6.67988 0
M  V30 34214 H 4664.15 3.88793 -6.19859 0
M  V30 34215 H 4665.34 1.12046 -6.44229 0
M  V30 34216 H 4666.82 1.7746 -8.19711 0
M  V30 34217 H 4665.13 3.20706 -9.67112 0
M  V30 34218 H 4664.94 0.901032 -10.1892 0
M  V30 34219 H 4663.31 1.33049 -9.56592 0
M  V30 34220 H 4665.94 3.57847 -5.23962 0
M  V30 34221 P 4667.8 3.65191 -7.99657 0
M  V30 34222 O 4669.22 3.89416 -8.45976 0
M  V30 34223 O 4667.44 2.28472 -7.50807 0
M  V30 34224 O 4667.48 4.64972 -6.77611 0
M  V30 34225 C 4667.32 6.06319 -7.16352 0
M  V30 34226 C 4667.86 6.91655 -6.02234 0
M  V30 34227 O 4666.8 6.92449 -5.17064 0
M  V30 34228 C 4669.08 6.43627 -5.25174 0
M  V30 34229 O 4669.81 7.43686 -4.60469 0
M  V30 34230 C 4668.41 5.40275 -4.31916 0
M  V30 34231 O 4669.21 5.25193 -3.14386 0
M  V30 34232 C 4667.07 6.04847 -4.05327 0
M  V30 34233 N 4666.03 5.04166 -3.98114 0
M  V30 34234 C 4666.09 3.96049 -4.75587 0
M  V30 34235 N 4665.04 3.15559 -4.54006 0
M  V30 34236 C 4664.31 3.78802 -3.62491 0
M  V30 34237 C 4663 3.476 -3.10071 0
M  V30 34238 O 4662.27 2.51136 -3.37021 0
M  V30 34239 N 4662.57 4.39088 -2.19956 0
M  V30 34240 C 4663.32 5.53215 -1.81733 0
M  V30 34241 N 4662.73 6.31963 -0.860928 0
M  V30 34242 N 4664.48 5.86688 -2.32562 0
M  V30 34243 C 4664.93 4.97525 -3.23407 0
M  V30 34244 H 4667.1 6.62195 -3.11261 0
M  V30 34245 H 4668.29 4.42488 -4.8131 0
M  V30 34246 H 4669.77 5.93051 -5.9305 0
M  V30 34247 H 4668.08 7.92655 -6.402 0
M  V30 34248 H 4667.89 6.26671 -8.0846 0
M  V30 34249 H 4666.25 6.29101 -7.32804 0
M  V30 34250 H 4661.68 4.25523 -1.77604 0
M  V30 34251 H 4666.89 3.75576 -5.47333 0
M  V30 34252 H 4661.82 6.04684 -0.468946 0
M  V30 34253 H 4663.19 7.18054 -0.542422 0
M  V30 34254 H 4668.9 5.84223 -2.47279 0
M  V30 34255 P 4670.75 7.39546 -4.75277 0
M  V30 34256 O 4672.17 7.84798 -5.01039 0
M  V30 34257 O 4670.39 5.9812 -5.08098 0
M  V30 34258 O 4670.43 7.57503 -3.1866 0
M  V30 34259 C 4670.27 8.97357 -2.74833 0
M  V30 34260 C 4670.81 9.07548 -1.32709 0
M  V30 34261 O 4669.75 8.62072 -0.606159 0
M  V30 34262 C 4672.03 8.25383 -0.938334 0
M  V30 34263 O 4672.77 8.74577 0.146954 0
M  V30 34264 C 4671.36 6.8802 -0.712559 0
M  V30 34265 O 4672.16 6.1189 0.194655 0
M  V30 34266 C 4670.02 7.27966 -0.139777 0
M  V30 34267 H 4670.05 7.25354 0.961601 0
M  V30 34268 H 4671.24 6.32557 -1.65702 0
M  V30 34269 H 4672.72 8.19355 -1.79097 0
M  V30 34270 H 4671.03 10.1294 -1.10029 0
M  V30 34271 H 4670.84 9.64276 -3.41316 0
M  V30 34272 H 4669.21 9.25417 -2.76357 0
M  V30 34273 H 4671.85 6.25267 1.07847 0
M  V30 34274 P 4673.7 8.791 -3.01136e-10 0
M  V30 34275 O 4675.12 9.31096 0.027933 0
M  V30 34276 O 4673.34 7.77869 -1.04071 0
M  V30 34277 O 4673.38 8.09533 1.41463 0
M  V30 34278 C 4673.22 9.0349 2.53943 0
M  V30 34279 C 4673.76 8.35226 3.79016 0
M  V30 34280 O 4672.7 7.57992 4.15078 0
M  V30 34281 C 4674.98 7.45087 3.67298 0
M  V30 34282 O 4675.72 7.27796 4.85194 0
M  V30 34283 C 4674.31 6.17323 3.12027 0
M  V30 34284 O 4675.11 5.04231 3.47188 0
M  V30 34285 C 4672.97 6.19961 3.81809 0
M  V30 34286 H 4673 5.58218 4.73051 0
M  V30 34287 H 4674.19 6.21726 2.02589 0
M  V30 34288 H 4675.67 7.86112 2.9231 0
M  V30 34289 H 4673.98 9.11627 4.55076 0
M  V30 34290 H 4673.79 9.9573 2.34194 0
M  V30 34291 H 4672.16 9.2792 2.67832 0
M  V30 34292 H 4674.8 4.67702 4.28772 0
M  V30 34293 P 4676.65 7.39546 4.75277 0
M  V30 34294 O 4678.08 7.81777 5.05738 0
M  V30 34295 O 4676.29 7.1065 3.32998 0
M  V30 34296 O 4676.33 6.04542 5.56673 0
M  V30 34297 C 4676.17 6.22772 7.02095 0
M  V30 34298 C 4676.71 4.97725 7.70406 0
M  V30 34299 O 4675.65 4.13256 7.58987 0
M  V30 34300 C 4677.93 4.28231 7.11815 0
M  V30 34301 O 4678.67 3.49945 8.01648 0
M  V30 34302 C 4677.26 3.5063 5.96244 0
M  V30 34303 O 4678.06 2.36482 5.64681 0
M  V30 34304 C 4675.92 3.15122 6.56374 0
M  V30 34305 H 4675.95 2.13853 6.99751 0
M  V30 34306 H 4677.14 4.13501 5.06559 0
M  V30 34307 H 4678.62 5.03285 6.70911 0
M  V30 34308 H 4676.93 5.20877 8.75697 0
M  V30 34309 H 4676.74 7.11046 7.35349 0
M  V30 34310 H 4675.11 6.35815 7.26986 0
M  V30 34311 H 4677.75 1.61644 6.13565 0
M  V30 34312 P 4679.6 3.65191 7.99657 0
M  V30 34313 O 4681.03 3.8425 8.48115 0
M  V30 34314 O 4679.24 4.17805 6.64342 0
M  V30 34315 O 4679.28 2.07613 7.95143 0
M  V30 34316 C 4679.12 1.44328 9.27336 0
M  V30 34317 C 4679.66 0.0220036 9.17197 0
M  V30 34318 O 4678.61 -0.626867 8.61923 0
M  V30 34319 C 4680.88 -0.24586 8.30336 0
M  V30 34320 O 4681.62 -1.39011 8.63583 0
M  V30 34321 C 4680.21 -0.273849 6.91158 0
M  V30 34322 O 4681.01 -1.06348 6.02892 0
M  V30 34323 C 4678.87 -0.897649 7.22545 0
M  V30 34324 H 4678.91 -1.9841 7.04286 0
M  V30 34325 H 4680.09 0.739928 6.497 0
M  V30 34326 H 4681.57 0.60668 8.36503 0
M  V30 34327 H 4679.88 -0.352479 10.1829 0
M  V30 34328 H 4679.69 2.00611 10.0304 0
M  V30 34329 H 4678.06 1.41843 9.55327 0
M  V30 34330 H 4680.7 -1.95734 6.03555 0
M  V30 34331 P 4682.55 -1.25109 8.70152 0
M  V30 34332 O 4683.98 -1.35274 9.21221 0
M  V30 34333 O 4682.19 -0.0769065 7.84762 0
M  V30 34334 O 4682.23 -2.55232 7.81161 0
M  V30 34335 C 4682.07 -3.79939 8.58154 0
M  V30 34336 C 4682.61 -4.94023 7.72785 0
M  V30 34337 O 4681.56 -5.18726 6.91205 0
M  V30 34338 C 4683.83 -4.69597 6.85231 0
M  V30 34339 O 4684.57 -5.83832 6.51337 0
M  V30 34340 C 4683.16 -3.96706 5.66633 0
M  V30 34341 O 4683.96 -4.15414 4.49689 0
M  V30 34342 C 4681.82 -4.66153 5.59313 0
M  V30 34343 H 4681.86 -5.47679 4.85214 0
M  V30 34344 H 4683.04 -2.89008 5.86566 0
M  V30 34345 H 4684.52 -4.0121 7.36511 0
M  V30 34346 H 4682.83 -5.80182 8.37584 0
M  V30 34347 H 4682.64 -3.73517 9.52265 0
M  V30 34348 H 4681.01 -3.97163 8.80359 0
M  V30 34349 H 4683.65 -4.90969 4.01921 0
M  V30 34350 P 4685.51 -5.75688 6.64379 0
M  V30 34351 O 4686.93 -6.11849 7.01846 0
M  V30 34352 O 4685.15 -4.30744 6.56026 0
M  V30 34353 O 4685.18 -6.37042 5.19165 0
M  V30 34354 C 4685.02 -7.83578 5.16515 0
M  V30 34355 C 4685.56 -8.33398 3.83019 0
M  V30 34356 O 4684.51 -8.10074 3.01034 0
M  V30 34357 C 4686.78 -7.65514 3.2257 0
M  V30 34358 O 4687.52 -8.4329 2.32297 0
M  V30 34359 C 4686.11 -6.40075 2.62207 0
M  V30 34360 O 4686.91 -5.92589 1.53712 0
M  V30 34361 C 4684.77 -6.9454 2.18503 0
M  V30 34362 H 4684.81 -7.23063 1.12091 0
M  V30 34363 H 4685.99 -5.6025 3.37201 0
M  V30 34364 H 4687.47 -7.35707 4.02681 0
M  V30 34365 H 4685.78 -9.40912 3.9095 0
M  V30 34366 H 4685.59 -8.29056 5.99158 0
M  V30 34367 H 4683.96 -8.10073 5.25882 0
M  V30 34368 H 4686.6 -6.30324 0.726794 0
M  V30 34369 P 4688.46 -8.4349 2.47671 0
M  V30 34370 O 4689.88 -8.94167 2.5964 0
M  V30 34371 O 4688.1 -7.1704 3.19006 0
M  V30 34372 O 4688.13 -8.16596 0.923387 0
M  V30 34373 C 4687.97 -9.38437 0.108857 0
M  V30 34374 C 4688.51 -9.08175 -1.28353 0
M  V30 34375 O 4687.46 -8.44229 -1.84713 0
M  V30 34376 C 4689.73 -8.18386 -1.42505 0
M  V30 34377 O 4690.47 -8.3501 -2.60497 0
M  V30 34378 C 4689.06 -6.80225 -1.25468 0
M  V30 34379 O 4689.86 -5.81621 -1.91066 0
M  V30 34380 C 4687.72 -7.02416 -1.9168 0
M  V30 34381 H 4687.76 -6.6888 -2.96621 0
M  V30 34382 H 4688.94 -6.53617 -0.192223 0
M  V30 34383 H 4690.42 -8.36622 -0.589963 0
M  V30 34384 H 4688.73 -10.0291 -1.79807 0
M  V30 34385 H 4688.54 -10.2138 0.558219 0
M  V30 34386 H 4686.91 -9.6579 0.0444202 0
M  V30 34387 H 4689.55 -5.69556 -2.79637 0
M  V30 34388 P 4691.41 -8.4349 -2.47671 0
M  V30 34389 O 4692.83 -8.92593 -2.65 0
M  V30 34390 O 4691.05 -7.7568 -1.19296 0
M  V30 34391 O 4691.08 -7.36886 -3.63805 0
M  V30 34392 C 4690.92 -7.95349 -4.982 0
M  V30 34393 C 4691.46 -6.94612 -5.98974 0
M  V30 34394 O 4690.41 -6.10347 -6.11815 0
M  V30 34395 C 4692.68 -6.11426 -5.62335 0
M  V30 34396 O 4693.42 -5.6162 -6.70584 0
M  V30 34397 C 4692.01 -5.04409 -4.73308 0
M  V30 34398 O 4692.81 -3.85992 -4.75183 0
M  V30 34399 C 4690.68 -4.8728 -5.41006 0
M  V30 34400 H 4690.71 -4.02333 -6.11157 0
M  V30 34401 H 4691.89 -5.39466 -3.69543 0
M  V30 34402 H 4693.37 -6.71916 -5.01943 0
M  V30 34403 H 4691.68 -7.4649 -6.93477 0
M  V30 34404 H 4691.49 -8.89416 -5.05237 0
M  V30 34405 H 4689.86 -8.14876 -5.18409 0
M  V30 34406 H 4692.5 -3.27957 -5.4317 0
M  V30 34407 P 4694.36 -5.75688 -6.64379 0
M  V30 34408 O 4695.78 -6.07627 -7.05504 0
M  V30 34409 O 4694 -5.88047 -5.19722 0
M  V30 34410 O 4694.03 -4.2322 -7.04443 0
M  V30 34411 C 4693.87 -3.99743 -8.4911 0
M  V30 34412 C 4694.41 -2.60516 -8.79425 0
M  V30 34413 O 4693.36 -1.82684 -8.4467 0
M  V30 34414 C 4695.63 -2.10343 -8.03628 0
M  V30 34415 O 4696.37 -1.09919 -8.67766 0
M  V30 34416 C 4694.96 -1.68446 -6.70876 0
M  V30 34417 O 4695.76 -0.678137 -6.08433 0
M  V30 34418 C 4693.63 -1.17436 -7.18567 0
M  V30 34419 H 4693.66 -0.0804732 -7.31656 0
M  V30 34420 H 4694.84 -2.54037 -6.02537 0
M  V30 34421 H 4696.32 -2.93881 -7.85526 0
M  V30 34422 H 4694.63 -2.53065 -9.86973 0
M  V30 34423 H 4694.44 -4.75072 -9.05887 0
M  V30 34424 H 4692.81 -4.05244 -8.76668 0
M  V30 34425 H 4695.45 0.177647 -6.34251 0
M  V30 34426 P 4697.31 -1.25109 -8.70152 0
M  V30 34427 O 4698.73 -1.29744 -9.22016 0
M  V30 34428 O 4696.95 -2.13714 -7.55141 0
M  V30 34429 O 4696.98 0.248149 -8.21425 0
M  V30 34430 C 4696.82 1.22779 -9.30434 0
M  V30 34431 C 4697.36 2.56293 -8.80664 0
M  V30 34432 O 4696.31 3.02979 -8.09349 0
M  V30 34433 C 4698.58 2.57523 -7.89775 0
M  V30 34434 O 4699.32 3.7668 -7.89438 0
M  V30 34435 C 4697.91 2.20997 -6.55446 0
M  V30 34436 O 4698.71 2.71895 -5.48509 0
M  V30 34437 C 4696.58 2.89693 -6.67988 0
M  V30 34438 H 4696.61 3.88793 -6.19859 0
M  V30 34439 H 4697.79 1.12046 -6.44229 0
M  V30 34440 H 4699.28 1.7746 -8.19711 0
M  V30 34441 H 4697.58 3.20706 -9.67112 0
M  V30 34442 H 4697.39 0.901032 -10.1892 0
M  V30 34443 H 4695.76 1.33049 -9.56592 0
M  V30 34444 H 4698.4 3.57847 -5.23962 0
M  V30 34445 P 4700.26 3.65191 -7.99657 0
M  V30 34446 O 4701.66 3.87414 -8.52829 0
M  V30 34447 O 4699.88 2.26932 -7.566 0
M  V30 34448 O 4699.94 4.64915 -6.77529 0
M  V30 34449 C 4699.78 6.06319 -7.16352 0
M  V30 34450 C 4700.32 6.91655 -6.02234 0
M  V30 34451 O 4699.26 6.92369 -5.17005 0
M  V30 34452 C 4701.53 6.43627 -5.25174 0
M  V30 34453 O 4702.27 7.43686 -4.60469 0
M  V30 34454 C 4700.87 5.40275 -4.31916 0
M  V30 34455 O 4701.66 5.25193 -3.14386 0
M  V30 34456 C 4699.53 6.04847 -4.05327 0
M  V30 34457 N 4698.48 5.04166 -3.98114 0
M  V30 34458 C 4697.45 5.2366 -3.09923 0
M  V30 34459 O 4697.49 6.23355 -2.34204 0
M  V30 34460 N 4696.44 4.34279 -3.05727 0
M  V30 34461 C 4696.49 3.26317 -3.84756 0
M  V30 34462 C 4697.58 3.02504 -4.72573 0
M  V30 34463 C 4698.55 3.94493 -4.76618 0
M  V30 34464 H 4699.56 6.62104 -3.11218 0
M  V30 34465 H 4700.74 4.42969 -4.80867 0
M  V30 34466 H 4702.23 5.93122 -5.93121 0
M  V30 34467 H 4700.53 7.93295 -6.39407 0
M  V30 34468 H 4700.34 6.26671 -8.0846 0
M  V30 34469 H 4698.71 6.29036 -7.32728 0
M  V30 34470 H 4697.63 2.12921 -5.34017 0
M  V30 34471 H 4699.39 3.80658 -5.44176 0
M  V30 34472 H 4701.45 5.93572 -2.52637 0
M  V30 34473 P 4703.21 7.39546 -4.75277 0
M  V30 34474 O 4704.63 7.84798 -5.01039 0
M  V30 34475 O 4702.85 5.9812 -5.08098 0
M  V30 34476 O 4702.89 7.57503 -3.1866 0
M  V30 34477 C 4702.73 8.97357 -2.74833 0
M  V30 34478 C 4703.27 9.07548 -1.32709 0
M  V30 34479 O 4702.21 8.62072 -0.606159 0
M  V30 34480 C 4704.48 8.25383 -0.938334 0
M  V30 34481 O 4705.22 8.74577 0.146954 0
M  V30 34482 C 4703.81 6.8802 -0.712559 0
M  V30 34483 O 4704.61 6.1189 0.194655 0
M  V30 34484 C 4702.48 7.27966 -0.139777 0
M  V30 34485 H 4702.51 7.25354 0.961601 0
M  V30 34486 H 4703.69 6.32557 -1.65702 0
M  V30 34487 H 4705.18 8.19355 -1.79097 0
M  V30 34488 H 4703.48 10.1294 -1.10029 0
M  V30 34489 H 4703.29 9.64276 -3.41316 0
M  V30 34490 H 4701.66 9.25417 -2.76357 0
M  V30 34491 H 4704.3 6.25267 1.07847 0
M  V30 34492 P 4706.16 8.791 -3.06322e-10 0
M  V30 34493 O 4707.58 9.31096 0.027933 0
M  V30 34494 O 4705.8 7.77869 -1.04071 0
M  V30 34495 O 4705.84 8.09533 1.41463 0
M  V30 34496 C 4705.68 9.0349 2.53943 0
M  V30 34497 C 4706.22 8.35226 3.79016 0
M  V30 34498 O 4705.16 7.57992 4.15078 0
M  V30 34499 C 4707.43 7.45087 3.67298 0
M  V30 34500 O 4708.17 7.27796 4.85194 0
M  V30 34501 C 4706.77 6.17323 3.12027 0
M  V30 34502 O 4707.56 5.04231 3.47188 0
M  V30 34503 C 4705.43 6.19961 3.81809 0
M  V30 34504 H 4705.46 5.58218 4.73051 0
M  V30 34505 H 4706.64 6.21726 2.02589 0
M  V30 34506 H 4708.13 7.86112 2.9231 0
M  V30 34507 H 4706.43 9.11627 4.55076 0
M  V30 34508 H 4706.24 9.9573 2.34194 0
M  V30 34509 H 4704.61 9.2792 2.67832 0
M  V30 34510 H 4707.25 4.67702 4.28772 0
M  V30 34511 P 4709.11 7.39546 4.75277 0
M  V30 34512 O 4710.53 7.81777 5.05738 0
M  V30 34513 O 4708.75 7.1065 3.32998 0
M  V30 34514 O 4708.79 6.04542 5.56673 0
M  V30 34515 C 4708.63 6.22772 7.02095 0
M  V30 34516 C 4709.17 4.97725 7.70406 0
M  V30 34517 O 4708.11 4.13256 7.58987 0
M  V30 34518 C 4710.38 4.28231 7.11815 0
M  V30 34519 O 4711.12 3.49945 8.01648 0
M  V30 34520 C 4709.72 3.5063 5.96244 0
M  V30 34521 O 4710.51 2.36482 5.64681 0
M  V30 34522 C 4708.38 3.15122 6.56374 0
M  V30 34523 H 4708.41 2.13853 6.99751 0
M  V30 34524 H 4709.59 4.13501 5.06559 0
M  V30 34525 H 4711.08 5.03285 6.70911 0
M  V30 34526 H 4709.38 5.20877 8.75697 0
M  V30 34527 H 4709.19 7.11046 7.35349 0
M  V30 34528 H 4707.56 6.35815 7.26986 0
M  V30 34529 H 4710.2 1.61644 6.13565 0
M  V30 34530 P 4712.06 3.65191 7.99657 0
M  V30 34531 O 4713.48 3.8425 8.48115 0
M  V30 34532 O 4711.7 4.17805 6.64342 0
M  V30 34533 O 4711.74 2.07613 7.95143 0
M  V30 34534 C 4711.58 1.44328 9.27336 0
M  V30 34535 C 4712.12 0.0220036 9.17197 0
M  V30 34536 O 4711.06 -0.626867 8.61923 0
M  V30 34537 C 4713.34 -0.24586 8.30336 0
M  V30 34538 O 4714.07 -1.39011 8.63583 0
M  V30 34539 C 4712.67 -0.273849 6.91158 0
M  V30 34540 O 4713.47 -1.06348 6.02892 0
M  V30 34541 C 4711.33 -0.897649 7.22545 0
M  V30 34542 H 4711.36 -1.9841 7.04286 0
M  V30 34543 H 4712.54 0.739928 6.497 0
M  V30 34544 H 4714.03 0.60668 8.36503 0
M  V30 34545 H 4712.33 -0.352479 10.1829 0
M  V30 34546 H 4712.14 2.00611 10.0304 0
M  V30 34547 H 4710.51 1.41843 9.55327 0
M  V30 34548 H 4713.15 -1.95734 6.03555 0
M  V30 34549 P 4715.01 -1.25109 8.70152 0
M  V30 34550 O 4716.43 -1.35274 9.21221 0
M  V30 34551 O 4714.65 -0.0769065 7.84762 0
M  V30 34552 O 4714.69 -2.55232 7.81161 0
M  V30 34553 C 4714.53 -3.79939 8.58154 0
M  V30 34554 C 4715.07 -4.94023 7.72785 0
M  V30 34555 O 4714.01 -5.18726 6.91205 0
M  V30 34556 C 4716.29 -4.69597 6.85231 0
M  V30 34557 O 4717.02 -5.83832 6.51337 0
M  V30 34558 C 4715.62 -3.96706 5.66633 0
M  V30 34559 O 4716.42 -4.15414 4.49689 0
M  V30 34560 C 4714.28 -4.66153 5.59313 0
M  V30 34561 H 4714.31 -5.47679 4.85214 0
M  V30 34562 H 4715.49 -2.89008 5.86566 0
M  V30 34563 H 4716.98 -4.0121 7.36511 0
M  V30 34564 H 4715.28 -5.80182 8.37584 0
M  V30 34565 H 4715.09 -3.73517 9.52265 0
M  V30 34566 H 4713.46 -3.97163 8.80359 0
M  V30 34567 H 4716.1 -4.90969 4.01921 0
M  V30 34568 P 4717.96 -5.75688 6.64379 0
M  V30 34569 O 4719.38 -6.11849 7.01846 0
M  V30 34570 O 4717.6 -4.30744 6.56026 0
M  V30 34571 O 4717.64 -6.37042 5.19165 0
M  V30 34572 C 4717.48 -7.83578 5.16515 0
M  V30 34573 C 4718.02 -8.33398 3.83019 0
M  V30 34574 O 4716.96 -8.10074 3.01034 0
M  V30 34575 C 4719.24 -7.65514 3.2257 0
M  V30 34576 O 4719.97 -8.4329 2.32297 0
M  V30 34577 C 4718.57 -6.40075 2.62207 0
M  V30 34578 O 4719.37 -5.92589 1.53712 0
M  V30 34579 C 4717.23 -6.9454 2.18503 0
M  V30 34580 H 4717.26 -7.23063 1.12091 0
M  V30 34581 H 4718.45 -5.6025 3.37201 0
M  V30 34582 H 4719.93 -7.35707 4.02681 0
M  V30 34583 H 4718.24 -9.40912 3.9095 0
M  V30 34584 H 4718.05 -8.29056 5.99158 0
M  V30 34585 H 4716.42 -8.10073 5.25882 0
M  V30 34586 H 4719.05 -6.30324 0.726794 0
M  V30 34587 P 4720.91 -8.4349 2.47671 0
M  V30 34588 O 4722.33 -8.94167 2.5964 0
M  V30 34589 O 4720.55 -7.1704 3.19006 0
M  V30 34590 O 4720.59 -8.16596 0.923387 0
M  V30 34591 C 4720.43 -9.38437 0.108857 0
M  V30 34592 C 4720.97 -9.08175 -1.28353 0
M  V30 34593 O 4719.91 -8.44229 -1.84713 0
M  V30 34594 C 4722.19 -8.18386 -1.42505 0
M  V30 34595 O 4722.92 -8.3501 -2.60497 0
M  V30 34596 C 4721.52 -6.80225 -1.25468 0
M  V30 34597 O 4722.32 -5.81621 -1.91066 0
M  V30 34598 C 4720.18 -7.02416 -1.9168 0
M  V30 34599 H 4720.21 -6.6888 -2.96621 0
M  V30 34600 H 4721.4 -6.53617 -0.192223 0
M  V30 34601 H 4722.88 -8.36622 -0.589963 0
M  V30 34602 H 4721.19 -10.0291 -1.79807 0
M  V30 34603 H 4721 -10.2138 0.558219 0
M  V30 34604 H 4719.37 -9.6579 0.0444202 0
M  V30 34605 H 4722 -5.69556 -2.79637 0
M  V30 34606 P 4723.86 -8.4349 -2.47671 0
M  V30 34607 O 4725.28 -8.92593 -2.65 0
M  V30 34608 O 4723.5 -7.7568 -1.19296 0
M  V30 34609 O 4723.54 -7.36886 -3.63805 0
M  V30 34610 C 4723.38 -7.95349 -4.982 0
M  V30 34611 C 4723.92 -6.94612 -5.98974 0
M  V30 34612 O 4722.86 -6.10347 -6.11815 0
M  V30 34613 C 4725.14 -6.11426 -5.62335 0
M  V30 34614 O 4725.88 -5.6162 -6.70584 0
M  V30 34615 C 4724.47 -5.04409 -4.73308 0
M  V30 34616 O 4725.27 -3.85992 -4.75183 0
M  V30 34617 C 4723.13 -4.8728 -5.41006 0
M  V30 34618 H 4723.16 -4.02333 -6.11157 0
M  V30 34619 H 4724.35 -5.39466 -3.69543 0
M  V30 34620 H 4725.83 -6.71916 -5.01943 0
M  V30 34621 H 4724.14 -7.4649 -6.93477 0
M  V30 34622 H 4723.95 -8.89416 -5.05237 0
M  V30 34623 H 4722.32 -8.14876 -5.18409 0
M  V30 34624 H 4724.96 -3.27957 -5.4317 0
M  V30 34625 P 4726.81 -5.75688 -6.64379 0
M  V30 34626 O 4728.24 -6.07627 -7.05504 0
M  V30 34627 O 4726.45 -5.88047 -5.19722 0
M  V30 34628 O 4726.49 -4.2322 -7.04443 0
M  V30 34629 C 4726.33 -3.99743 -8.4911 0
M  V30 34630 C 4726.87 -2.60516 -8.79425 0
M  V30 34631 O 4725.81 -1.82684 -8.4467 0
M  V30 34632 C 4728.09 -2.10343 -8.03628 0
M  V30 34633 O 4728.83 -1.09919 -8.67766 0
M  V30 34634 C 4727.42 -1.68446 -6.70876 0
M  V30 34635 O 4728.22 -0.678137 -6.08433 0
M  V30 34636 C 4726.08 -1.17436 -7.18567 0
M  V30 34637 H 4726.11 -0.0804732 -7.31656 0
M  V30 34638 H 4727.3 -2.54037 -6.02537 0
M  V30 34639 H 4728.78 -2.93881 -7.85526 0
M  V30 34640 H 4727.09 -2.53065 -9.86973 0
M  V30 34641 H 4726.9 -4.75072 -9.05887 0
M  V30 34642 H 4725.27 -4.05244 -8.76668 0
M  V30 34643 H 4727.91 0.177647 -6.34251 0
M  V30 34644 P 4729.76 -1.25109 -8.70152 0
M  V30 34645 O 4731.19 -1.29744 -9.22016 0
M  V30 34646 O 4729.4 -2.13714 -7.55141 0
M  V30 34647 O 4729.44 0.248149 -8.21425 0
M  V30 34648 C 4729.28 1.22779 -9.30434 0
M  V30 34649 C 4729.82 2.56293 -8.80664 0
M  V30 34650 O 4728.76 3.02979 -8.09349 0
M  V30 34651 C 4731.04 2.57523 -7.89775 0
M  V30 34652 O 4731.78 3.7668 -7.89438 0
M  V30 34653 C 4730.37 2.20997 -6.55446 0
M  V30 34654 O 4731.17 2.71895 -5.48509 0
M  V30 34655 C 4729.03 2.89693 -6.67988 0
M  V30 34656 H 4729.06 3.88793 -6.19859 0
M  V30 34657 H 4730.25 1.12046 -6.44229 0
M  V30 34658 H 4731.73 1.7746 -8.19711 0
M  V30 34659 H 4730.04 3.20706 -9.67112 0
M  V30 34660 H 4729.85 0.901032 -10.1892 0
M  V30 34661 H 4728.22 1.33049 -9.56592 0
M  V30 34662 H 4730.86 3.57847 -5.23962 0
M  V30 34663 P 4732.71 3.65191 -7.99657 0
M  V30 34664 O 4734.14 3.89332 -8.45794 0
M  V30 34665 O 4732.35 2.28472 -7.50807 0
M  V30 34666 O 4732.39 4.64972 -6.77611 0
M  V30 34667 C 4732.23 6.06319 -7.16352 0
M  V30 34668 C 4732.77 6.91731 -6.02299 0
M  V30 34669 O 4731.72 6.92449 -5.17064 0
M  V30 34670 C 4733.99 6.43627 -5.25174 0
M  V30 34671 O 4734.73 7.43686 -4.60469 0
M  V30 34672 C 4733.32 5.40275 -4.31916 0
M  V30 34673 O 4734.12 5.25279 -3.14438 0
M  V30 34674 C 4731.98 6.04847 -4.05327 0
M  V30 34675 H 4732.02 6.62195 -3.11261 0
M  V30 34676 H 4733.2 4.42556 -4.81383 0
M  V30 34677 H 4734.68 5.92458 -5.93643 0
M  V30 34678 H 4732.99 7.92655 -6.402 0
M  V30 34679 H 4732.8 6.26671 -8.0846 0
M  V30 34680 H 4731.17 6.29101 -7.32804 0
M  V30 34681 H 4733.81 5.84315 -2.47318 0
M  V30 34682 P 4735.66 7.39546 -4.75277 0
M  V30 34683 O 4737.09 7.84882 -5.01092 0
M  V30 34684 O 4735.3 5.9812 -5.08098 0
M  V30 34685 O 4735.34 7.57503 -3.1866 0
M  V30 34686 C 4735.18 8.97452 -2.74862 0
M  V30 34687 C 4735.72 9.07548 -1.32709 0
M  V30 34688 O 4734.67 8.61972 -0.606089 0
M  V30 34689 C 4736.94 8.25383 -0.938334 0
M  V30 34690 O 4737.68 8.74577 0.146954 0
M  V30 34691 C 4736.27 6.8802 -0.712559 0
M  V30 34692 O 4737.07 6.1181 0.188505 0
M  V30 34693 C 4734.93 7.27966 -0.139777 0
M  V30 34694 N 4733.89 6.39368 -0.623421 0
M  V30 34695 C 4734.06 5.71761 -1.78245 0
M  V30 34696 N 4733.03 4.962 -2.10491 0
M  V30 34697 C 4732.15 5.16158 -1.0635 0
M  V30 34698 C 4730.88 4.60425 -0.810266 0
M  V30 34699 N 4730.32 5.06 0.348685 0
M  V30 34700 C 4730.92 5.94532 1.20395 0
M  V30 34701 N 4732.09 6.48452 1.01191 0
M  V30 34702 C 4732.67 6.04423 -0.146291 0
M  V30 34703 H 4736.15 6.32625 -1.65044 0
M  V30 34704 H 4737.63 8.19355 -1.79097 0
M  V30 34705 H 4735.94 10.1305 -1.09016 0
M  V30 34706 H 4735.75 9.64276 -3.41316 0
M  V30 34707 H 4734.12 9.25417 -2.76357 0
M  V30 34708 H 4734.96 5.79354 -2.38959 0
M  V30 34709 H 4736.76 6.25169 1.0783 0
M  V30 34710 P 4738.62 8.791 -3.11509e-10 0
M  V30 34711 O 4740.04 9.31096 0.027933 0
M  V30 34712 O 4738.26 7.77869 -1.04071 0
M  V30 34713 O 4738.29 8.09533 1.41463 0
M  V30 34714 C 4738.13 9.0349 2.53943 0
M  V30 34715 C 4738.67 8.35226 3.79016 0
M  V30 34716 O 4737.62 7.57992 4.15078 0
M  V30 34717 C 4739.89 7.45087 3.67298 0
M  V30 34718 O 4740.63 7.27796 4.85194 0
M  V30 34719 C 4739.22 6.17323 3.12027 0
M  V30 34720 O 4740.02 5.04231 3.47188 0
M  V30 34721 C 4737.88 6.19961 3.81809 0
M  V30 34722 H 4737.92 5.58218 4.73051 0
M  V30 34723 H 4739.1 6.21726 2.02589 0
M  V30 34724 H 4740.58 7.86112 2.9231 0
M  V30 34725 H 4738.89 9.11627 4.55076 0
M  V30 34726 H 4738.7 9.9573 2.34194 0
M  V30 34727 H 4737.07 9.2792 2.67832 0
M  V30 34728 H 4739.71 4.67702 4.28772 0
M  V30 34729 P 4741.57 7.39546 4.75277 0
M  V30 34730 O 4742.99 7.81777 5.05738 0
M  V30 34731 O 4741.21 7.1065 3.32998 0
M  V30 34732 O 4741.24 6.04542 5.56673 0
M  V30 34733 C 4741.08 6.22772 7.02095 0
M  V30 34734 C 4741.62 4.97725 7.70406 0
M  V30 34735 O 4740.57 4.13256 7.58987 0
M  V30 34736 C 4742.84 4.28231 7.11815 0
M  V30 34737 O 4743.58 3.49945 8.01648 0
M  V30 34738 C 4742.17 3.5063 5.96244 0
M  V30 34739 O 4742.97 2.36482 5.64681 0
M  V30 34740 C 4740.83 3.15122 6.56374 0
M  V30 34741 H 4740.87 2.13853 6.99751 0
M  V30 34742 H 4742.05 4.13501 5.06559 0
M  V30 34743 H 4743.53 5.03285 6.70911 0
M  V30 34744 H 4741.84 5.20877 8.75697 0
M  V30 34745 H 4741.65 7.11046 7.35349 0
M  V30 34746 H 4740.02 6.35815 7.26986 0
M  V30 34747 H 4742.66 1.61644 6.13565 0
M  V30 34748 P 4744.52 3.65191 7.99657 0
M  V30 34749 O 4745.94 3.84292 8.48206 0
M  V30 34750 O 4744.16 4.17805 6.64342 0
M  V30 34751 O 4744.19 2.07613 7.95143 0
M  V30 34752 C 4744.03 1.44344 9.27435 0
M  V30 34753 C 4744.57 0.0220036 9.17197 0
M  V30 34754 O 4743.52 -0.626794 8.61824 0
M  V30 34755 C 4745.79 -0.24586 8.30336 0
M  V30 34756 O 4746.53 -1.39011 8.63583 0
M  V30 34757 C 4745.12 -0.273849 6.91158 0
M  V30 34758 O 4745.92 -1.05728 6.029 0
M  V30 34759 C 4743.79 -0.897649 7.22545 0
M  V30 34760 N 4742.74 -0.292839 6.41732 0
M  V30 34761 C 4742.91 0.950603 5.91308 0
M  V30 34762 N 4741.88 1.37732 5.21105 0
M  V30 34763 C 4741 0.318109 5.26039 0
M  V30 34764 C 4739.73 0.146766 4.6727 0
M  V30 34765 N 4739.13 1.08519 3.89983 0
M  V30 34766 N 4739.17 -1.06525 4.95887 0
M  V30 34767 C 4739.77 -2.0378 5.71347 0
M  V30 34768 N 4740.95 -1.92445 6.27451 0
M  V30 34769 C 4741.52 -0.715382 6.00353 0
M  V30 34770 H 4743.82 -1.98383 7.04189 0
M  V30 34771 H 4745 0.733318 6.49674 0
M  V30 34772 H 4746.48 0.60668 8.36503 0
M  V30 34773 H 4744.79 -0.362662 10.1825 0
M  V30 34774 H 4744.6 2.00611 10.0304 0
M  V30 34775 H 4742.97 1.41843 9.55327 0
M  V30 34776 H 4739.23 -2.97041 5.85344 0
M  V30 34777 H 4743.81 1.54076 6.07465 0
M  V30 34778 H 4738.2 0.901517 3.49562 0
M  V30 34779 H 4739.61 1.97957 3.71669 0
M  V30 34780 H 4745.61 -1.95704 6.0346 0
M  V30 34781 P 4747.47 -1.25109 8.70152 0
M  V30 34782 O 4748.89 -1.35274 9.21221 0
M  V30 34783 O 4747.11 -0.0769065 7.84762 0
M  V30 34784 O 4747.14 -2.55232 7.81161 0
M  V30 34785 C 4746.98 -3.79939 8.58154 0
M  V30 34786 C 4747.52 -4.94023 7.72785 0
M  V30 34787 O 4746.47 -5.18726 6.91205 0
M  V30 34788 C 4748.74 -4.69597 6.85231 0
M  V30 34789 O 4749.48 -5.83832 6.51337 0
M  V30 34790 C 4748.07 -3.96706 5.66633 0
M  V30 34791 O 4748.87 -4.15414 4.49689 0
M  V30 34792 C 4746.74 -4.66153 5.59313 0
M  V30 34793 H 4746.77 -5.47679 4.85214 0
M  V30 34794 H 4747.95 -2.89008 5.86566 0
M  V30 34795 H 4749.44 -4.0121 7.36511 0
M  V30 34796 H 4747.74 -5.80182 8.37584 0
M  V30 34797 H 4747.55 -3.73517 9.52265 0
M  V30 34798 H 4745.92 -3.97163 8.80359 0
M  V30 34799 H 4748.56 -4.90969 4.01921 0
M  V30 34800 P 4750.42 -5.75688 6.64379 0
M  V30 34801 O 4751.84 -6.11849 7.01846 0
M  V30 34802 O 4750.06 -4.30744 6.56026 0
M  V30 34803 O 4750.09 -6.37042 5.19165 0
M  V30 34804 C 4749.93 -7.83578 5.16515 0
M  V30 34805 C 4750.47 -8.33398 3.83019 0
M  V30 34806 O 4749.42 -8.10074 3.01034 0
M  V30 34807 C 4751.69 -7.65514 3.2257 0
M  V30 34808 O 4752.43 -8.4329 2.32297 0
M  V30 34809 C 4751.02 -6.40075 2.62207 0
M  V30 34810 O 4751.82 -5.92589 1.53712 0
M  V30 34811 C 4749.69 -6.9454 2.18503 0
M  V30 34812 H 4749.72 -7.23063 1.12091 0
M  V30 34813 H 4750.9 -5.6025 3.37201 0
M  V30 34814 H 4752.39 -7.35707 4.02681 0
M  V30 34815 H 4750.69 -9.40912 3.9095 0
M  V30 34816 H 4750.5 -8.29056 5.99158 0
M  V30 34817 H 4748.87 -8.10073 5.25882 0
M  V30 34818 H 4751.51 -6.30324 0.726794 0
M  V30 34819 P 4753.37 -8.4349 2.47671 0
M  V30 34820 O 4754.79 -8.94167 2.5964 0
M  V30 34821 O 4753.01 -7.1704 3.19006 0
M  V30 34822 O 4753.05 -8.16596 0.923387 0
M  V30 34823 C 4752.89 -9.38437 0.108857 0
M  V30 34824 C 4753.43 -9.08175 -1.28353 0
M  V30 34825 O 4752.37 -8.44229 -1.84713 0
M  V30 34826 C 4754.64 -8.18386 -1.42505 0
M  V30 34827 O 4755.38 -8.3501 -2.60497 0
M  V30 34828 C 4753.97 -6.80225 -1.25468 0
M  V30 34829 O 4754.77 -5.81621 -1.91066 0
M  V30 34830 C 4752.64 -7.02416 -1.9168 0
M  V30 34831 H 4752.67 -6.6888 -2.96621 0
M  V30 34832 H 4753.85 -6.53617 -0.192223 0
M  V30 34833 H 4755.34 -8.36622 -0.589963 0
M  V30 34834 H 4753.64 -10.0291 -1.79807 0
M  V30 34835 H 4753.45 -10.2138 0.558219 0
M  V30 34836 H 4751.82 -9.6579 0.0444202 0
M  V30 34837 H 4754.46 -5.69556 -2.79637 0
M  V30 34838 P 4756.32 -8.4349 -2.47671 0
M  V30 34839 O 4757.74 -8.92593 -2.65 0
M  V30 34840 O 4755.96 -7.7568 -1.19296 0
M  V30 34841 O 4756 -7.36886 -3.63805 0
M  V30 34842 C 4755.84 -7.95349 -4.982 0
M  V30 34843 C 4756.38 -6.94612 -5.98974 0
M  V30 34844 O 4755.32 -6.10347 -6.11815 0
M  V30 34845 C 4757.59 -6.11426 -5.62335 0
M  V30 34846 O 4758.33 -5.6162 -6.70584 0
M  V30 34847 C 4756.92 -5.04409 -4.73308 0
M  V30 34848 O 4757.72 -3.85992 -4.75183 0
M  V30 34849 C 4755.59 -4.8728 -5.41006 0
M  V30 34850 H 4755.62 -4.02333 -6.11157 0
M  V30 34851 H 4756.8 -5.39466 -3.69543 0
M  V30 34852 H 4758.29 -6.71916 -5.01943 0
M  V30 34853 H 4756.59 -7.4649 -6.93477 0
M  V30 34854 H 4756.4 -8.89416 -5.05237 0
M  V30 34855 H 4754.77 -8.14876 -5.18409 0
M  V30 34856 H 4757.41 -3.27957 -5.4317 0
M  V30 34857 P 4759.27 -5.75688 -6.64379 0
M  V30 34858 O 4760.69 -6.07627 -7.05504 0
M  V30 34859 O 4758.91 -5.88047 -5.19722 0
M  V30 34860 O 4758.95 -4.2322 -7.04443 0
M  V30 34861 C 4758.79 -3.99743 -8.4911 0
M  V30 34862 C 4759.33 -2.60516 -8.79425 0
M  V30 34863 O 4758.27 -1.82684 -8.4467 0
M  V30 34864 C 4760.54 -2.10343 -8.03628 0
M  V30 34865 O 4761.28 -1.09919 -8.67766 0
M  V30 34866 C 4759.88 -1.68446 -6.70876 0
M  V30 34867 O 4760.67 -0.678137 -6.08433 0
M  V30 34868 C 4758.54 -1.17436 -7.18567 0
M  V30 34869 H 4758.57 -0.0804732 -7.31656 0
M  V30 34870 H 4759.75 -2.54037 -6.02537 0
M  V30 34871 H 4761.24 -2.93881 -7.85526 0
M  V30 34872 H 4759.54 -2.53065 -9.86973 0
M  V30 34873 H 4759.35 -4.75072 -9.05887 0
M  V30 34874 H 4757.72 -4.05244 -8.76668 0
M  V30 34875 H 4760.36 0.177647 -6.34251 0
M  V30 34876 P 4762.22 -1.25109 -8.70152 0
M  V30 34877 O 4763.64 -1.29744 -9.22016 0
M  V30 34878 O 4761.86 -2.13714 -7.55141 0
M  V30 34879 O 4761.9 0.248149 -8.21425 0
M  V30 34880 C 4761.74 1.22779 -9.30434 0
M  V30 34881 C 4762.28 2.56293 -8.80664 0
M  V30 34882 O 4761.22 3.02979 -8.09349 0
M  V30 34883 C 4763.49 2.57523 -7.89775 0
M  V30 34884 O 4764.23 3.7668 -7.89438 0
M  V30 34885 C 4762.83 2.20997 -6.55446 0
M  V30 34886 O 4763.62 2.71895 -5.48509 0
M  V30 34887 C 4761.49 2.89693 -6.67988 0
M  V30 34888 H 4761.52 3.88793 -6.19859 0
M  V30 34889 H 4762.7 1.12046 -6.44229 0
M  V30 34890 H 4764.19 1.7746 -8.19711 0
M  V30 34891 H 4762.49 3.20706 -9.67112 0
M  V30 34892 H 4762.3 0.901032 -10.1892 0
M  V30 34893 H 4760.67 1.33049 -9.56592 0
M  V30 34894 H 4763.31 3.57847 -5.23962 0
M  V30 34895 P 4765.17 3.65191 -7.99657 0
M  V30 34896 O 4766.59 3.89332 -8.45794 0
M  V30 34897 O 4764.81 2.28472 -7.50807 0
M  V30 34898 O 4764.85 4.64972 -6.77611 0
M  V30 34899 C 4764.69 6.06319 -7.16352 0
M  V30 34900 C 4765.23 6.91731 -6.02299 0
M  V30 34901 O 4764.17 6.92449 -5.17064 0
M  V30 34902 C 4766.45 6.43627 -5.25174 0
M  V30 34903 O 4767.18 7.43686 -4.60469 0
M  V30 34904 C 4765.78 5.40275 -4.31916 0
M  V30 34905 O 4766.58 5.25279 -3.14438 0
M  V30 34906 C 4764.44 6.04847 -4.05327 0
M  V30 34907 H 4764.47 6.62195 -3.11261 0
M  V30 34908 H 4765.65 4.42556 -4.81383 0
M  V30 34909 H 4767.14 5.92458 -5.93643 0
M  V30 34910 H 4765.44 7.92655 -6.402 0
M  V30 34911 H 4765.25 6.26671 -8.0846 0
M  V30 34912 H 4763.62 6.29101 -7.32804 0
M  V30 34913 H 4766.26 5.84315 -2.47318 0
M  V30 34914 P 4768.12 7.39546 -4.75277 0
M  V30 34915 O 4769.54 7.84798 -5.01039 0
M  V30 34916 O 4767.76 5.9812 -5.08098 0
M  V30 34917 O 4767.8 7.57503 -3.1866 0
M  V30 34918 C 4767.64 8.97357 -2.74833 0
M  V30 34919 C 4768.18 9.07548 -1.32709 0
M  V30 34920 O 4767.12 8.62072 -0.606159 0
M  V30 34921 C 4769.4 8.25383 -0.938334 0
M  V30 34922 O 4770.13 8.74577 0.146954 0
M  V30 34923 C 4768.73 6.8802 -0.712559 0
M  V30 34924 O 4769.53 6.1189 0.194655 0
M  V30 34925 C 4767.39 7.27966 -0.139777 0
M  V30 34926 H 4767.42 7.25354 0.961601 0
M  V30 34927 H 4768.61 6.32557 -1.65702 0
M  V30 34928 H 4770.09 8.19355 -1.79097 0
M  V30 34929 H 4768.4 10.1294 -1.10029 0
M  V30 34930 H 4768.21 9.64276 -3.41316 0
M  V30 34931 H 4766.58 9.25417 -2.76357 0
M  V30 34932 H 4769.21 6.25267 1.07847 0
M  V30 34933 P 4771.07 8.791 -3.16696e-10 0
M  V30 34934 O 4772.49 9.31096 0.027933 0
M  V30 34935 O 4770.71 7.77869 -1.04071 0
M  V30 34936 O 4770.75 8.09533 1.41463 0
M  V30 34937 C 4770.59 9.0349 2.53943 0
M  V30 34938 C 4771.13 8.35226 3.79016 0
M  V30 34939 O 4770.07 7.57992 4.15078 0
M  V30 34940 C 4772.35 7.45087 3.67298 0
M  V30 34941 O 4773.08 7.27796 4.85194 0
M  V30 34942 C 4771.68 6.17323 3.12027 0
M  V30 34943 O 4772.48 5.04231 3.47188 0
M  V30 34944 C 4770.34 6.19961 3.81809 0
M  V30 34945 H 4770.37 5.58218 4.73051 0
M  V30 34946 H 4771.56 6.21726 2.02589 0
M  V30 34947 H 4773.04 7.86112 2.9231 0
M  V30 34948 H 4771.35 9.11627 4.55076 0
M  V30 34949 H 4771.16 9.9573 2.34194 0
M  V30 34950 H 4769.53 9.2792 2.67832 0
M  V30 34951 H 4772.16 4.67702 4.28772 0
M  V30 34952 P 4774.02 7.39546 4.75277 0
M  V30 34953 O 4775.44 7.81777 5.05738 0
M  V30 34954 O 4773.66 7.1065 3.32998 0
M  V30 34955 O 4773.7 6.04542 5.56673 0
M  V30 34956 C 4773.54 6.22772 7.02095 0
M  V30 34957 C 4774.08 4.97725 7.70406 0
M  V30 34958 O 4773.02 4.13256 7.58987 0
M  V30 34959 C 4775.3 4.28231 7.11815 0
M  V30 34960 O 4776.04 3.49945 8.01648 0
M  V30 34961 C 4774.63 3.5063 5.96244 0
M  V30 34962 O 4775.43 2.36482 5.64681 0
M  V30 34963 C 4773.29 3.15122 6.56374 0
M  V30 34964 H 4773.32 2.13853 6.99751 0
M  V30 34965 H 4774.51 4.13501 5.06559 0
M  V30 34966 H 4775.99 5.03285 6.70911 0
M  V30 34967 H 4774.3 5.20877 8.75697 0
M  V30 34968 H 4774.11 7.11046 7.35349 0
M  V30 34969 H 4772.48 6.35815 7.26986 0
M  V30 34970 H 4775.12 1.61644 6.13565 0
M  V30 34971 P 4776.97 3.65191 7.99657 0
M  V30 34972 O 4778.39 3.8425 8.48115 0
M  V30 34973 O 4776.61 4.17805 6.64342 0
M  V30 34974 O 4776.65 2.07613 7.95143 0
M  V30 34975 C 4776.49 1.44328 9.27336 0
M  V30 34976 C 4777.03 0.0220036 9.17197 0
M  V30 34977 O 4775.97 -0.626867 8.61923 0
M  V30 34978 C 4778.25 -0.24586 8.30336 0
M  V30 34979 O 4778.99 -1.39011 8.63583 0
M  V30 34980 C 4777.58 -0.273849 6.91158 0
M  V30 34981 O 4778.38 -1.06348 6.02892 0
M  V30 34982 C 4776.24 -0.897649 7.22545 0
M  V30 34983 H 4776.27 -1.9841 7.04286 0
M  V30 34984 H 4777.46 0.739928 6.497 0
M  V30 34985 H 4778.94 0.60668 8.36503 0
M  V30 34986 H 4777.25 -0.352479 10.1829 0
M  V30 34987 H 4777.06 2.00611 10.0304 0
M  V30 34988 H 4775.43 1.41843 9.55327 0
M  V30 34989 H 4778.07 -1.95734 6.03555 0
M  V30 34990 P 4779.92 -1.25109 8.70152 0
M  V30 34991 O 4781.35 -1.35274 9.21221 0
M  V30 34992 O 4779.56 -0.0769065 7.84762 0
M  V30 34993 O 4779.6 -2.55232 7.81161 0
M  V30 34994 C 4779.44 -3.79939 8.58154 0
M  V30 34995 C 4779.98 -4.94023 7.72785 0
M  V30 34996 O 4778.92 -5.18726 6.91205 0
M  V30 34997 C 4781.2 -4.69597 6.85231 0
M  V30 34998 O 4781.94 -5.83832 6.51337 0
M  V30 34999 C 4780.53 -3.96706 5.66633 0
M  V30 35000 O 4781.33 -4.15414 4.49689 0
M  V30 35001 C 4779.19 -4.66153 5.59313 0
M  V30 35002 H 4779.22 -5.47679 4.85214 0
M  V30 35003 H 4780.41 -2.89008 5.86566 0
M  V30 35004 H 4781.89 -4.0121 7.36511 0
M  V30 35005 H 4780.2 -5.80182 8.37584 0
M  V30 35006 H 4780.01 -3.73517 9.52265 0
M  V30 35007 H 4778.38 -3.97163 8.80359 0
M  V30 35008 H 4781.02 -4.90969 4.01921 0
M  V30 35009 P 4782.87 -5.75688 6.64379 0
M  V30 35010 O 4784.3 -6.11849 7.01846 0
M  V30 35011 O 4782.51 -4.30744 6.56026 0
M  V30 35012 O 4782.55 -6.37042 5.19165 0
M  V30 35013 C 4782.39 -7.83578 5.16515 0
M  V30 35014 C 4782.93 -8.33398 3.83019 0
M  V30 35015 O 4781.87 -8.10074 3.01034 0
M  V30 35016 C 4784.15 -7.65514 3.2257 0
M  V30 35017 O 4784.89 -8.4329 2.32297 0
M  V30 35018 C 4783.48 -6.40075 2.62207 0
M  V30 35019 O 4784.28 -5.92589 1.53712 0
M  V30 35020 C 4782.14 -6.9454 2.18503 0
M  V30 35021 H 4782.17 -7.23063 1.12091 0
M  V30 35022 H 4783.36 -5.6025 3.37201 0
M  V30 35023 H 4784.84 -7.35707 4.02681 0
M  V30 35024 H 4783.15 -9.40912 3.9095 0
M  V30 35025 H 4782.96 -8.29056 5.99158 0
M  V30 35026 H 4781.33 -8.10073 5.25882 0
M  V30 35027 H 4783.97 -6.30324 0.726794 0
M  V30 35028 P 4785.82 -8.4349 2.47671 0
M  V30 35029 O 4787.25 -8.94167 2.5964 0
M  V30 35030 O 4785.46 -7.1704 3.19006 0
M  V30 35031 O 4785.5 -8.16596 0.923387 0
M  V30 35032 C 4785.34 -9.38437 0.108857 0
M  V30 35033 C 4785.88 -9.08175 -1.28353 0
M  V30 35034 O 4784.83 -8.44229 -1.84713 0
M  V30 35035 C 4787.1 -8.18386 -1.42505 0
M  V30 35036 O 4787.84 -8.3501 -2.60497 0
M  V30 35037 C 4786.43 -6.80225 -1.25468 0
M  V30 35038 O 4787.23 -5.81621 -1.91066 0
M  V30 35039 C 4785.09 -7.02416 -1.9168 0
M  V30 35040 H 4785.13 -6.6888 -2.96621 0
M  V30 35041 H 4786.31 -6.53617 -0.192223 0
M  V30 35042 H 4787.79 -8.36622 -0.589963 0
M  V30 35043 H 4786.1 -10.0291 -1.79807 0
M  V30 35044 H 4785.91 -10.2138 0.558219 0
M  V30 35045 H 4784.28 -9.6579 0.0444202 0
M  V30 35046 H 4786.92 -5.69556 -2.79637 0
M  V30 35047 P 4788.78 -8.4349 -2.47671 0
M  V30 35048 O 4790.2 -8.92593 -2.65 0
M  V30 35049 O 4788.42 -7.7568 -1.19296 0
M  V30 35050 O 4788.45 -7.36886 -3.63805 0
M  V30 35051 C 4788.29 -7.95349 -4.982 0
M  V30 35052 C 4788.83 -6.94612 -5.98974 0
M  V30 35053 O 4787.78 -6.10347 -6.11815 0
M  V30 35054 C 4790.05 -6.11426 -5.62335 0
M  V30 35055 O 4790.79 -5.6162 -6.70584 0
M  V30 35056 C 4789.38 -5.04409 -4.73308 0
M  V30 35057 O 4790.18 -3.85992 -4.75183 0
M  V30 35058 C 4788.04 -4.8728 -5.41006 0
M  V30 35059 H 4788.08 -4.02333 -6.11157 0
M  V30 35060 H 4789.26 -5.39466 -3.69543 0
M  V30 35061 H 4790.74 -6.71916 -5.01943 0
M  V30 35062 H 4789.05 -7.4649 -6.93477 0
M  V30 35063 H 4788.86 -8.89416 -5.05237 0
M  V30 35064 H 4787.23 -8.14876 -5.18409 0
M  V30 35065 H 4789.87 -3.27957 -5.4317 0
M  V30 35066 P 4791.73 -5.75688 -6.64379 0
M  V30 35067 O 4793.15 -6.07627 -7.05504 0
M  V30 35068 O 4791.37 -5.88047 -5.19722 0
M  V30 35069 O 4791.4 -4.2322 -7.04443 0
M  V30 35070 C 4791.24 -3.99743 -8.4911 0
M  V30 35071 C 4791.78 -2.60516 -8.79425 0
M  V30 35072 O 4790.73 -1.82684 -8.4467 0
M  V30 35073 C 4793 -2.10343 -8.03628 0
M  V30 35074 O 4793.74 -1.09919 -8.67766 0
M  V30 35075 C 4792.33 -1.68446 -6.70876 0
M  V30 35076 O 4793.13 -0.678137 -6.08433 0
M  V30 35077 C 4790.99 -1.17436 -7.18567 0
M  V30 35078 H 4791.03 -0.0804732 -7.31656 0
M  V30 35079 H 4792.21 -2.54037 -6.02537 0
M  V30 35080 H 4793.69 -2.93881 -7.85526 0
M  V30 35081 H 4792 -2.53065 -9.86973 0
M  V30 35082 H 4791.81 -4.75072 -9.05887 0
M  V30 35083 H 4790.18 -4.05244 -8.76668 0
M  V30 35084 H 4792.82 0.177647 -6.34251 0
M  V30 35085 P 4794.68 -1.25109 -8.70152 0
M  V30 35086 O 4796.08 -1.3516 -9.26897 0
M  V30 35087 O 4794.3 -2.18141 -7.59181 0
M  V30 35088 O 4794.35 0.248118 -8.21325 0
M  V30 35089 C 4794.19 1.22779 -9.30434 0
M  V30 35090 C 4794.73 2.56265 -8.80568 0
M  V30 35091 O 4793.68 3.02944 -8.09255 0
M  V30 35092 C 4795.95 2.57523 -7.89775 0
M  V30 35093 O 4796.69 3.7668 -7.89438 0
M  V30 35094 C 4795.28 2.20997 -6.55446 0
M  V30 35095 O 4796.08 2.71851 -5.48419 0
M  V30 35096 C 4793.95 2.89693 -6.67988 0
M  V30 35097 N 4792.9 2.08895 -6.07487 0
M  V30 35098 C 4791.87 2.72974 -5.43836 0
M  V30 35099 O 4791.91 3.97779 -5.34036 0
M  V30 35100 N 4790.86 2.0005 -4.91983 0
M  V30 35101 C 4790.9 0.66501 -5.00098 0
M  V30 35102 C 4792 -0.0100979 -5.61099 0
M  V30 35103 C 4792.97 0.74189 -6.14236 0
M  V30 35104 H 4793.98 3.8874 -6.19774 0
M  V30 35105 H 4795.16 1.12673 -6.44018 0
M  V30 35106 H 4796.64 1.783 -8.19631 0
M  V30 35107 H 4794.95 3.21673 -9.66791 0
M  V30 35108 H 4794.76 0.901032 -10.1892 0
M  V30 35109 H 4793.13 1.33036 -9.56493 0
M  V30 35110 H 4792.05 -1.09591 -5.64358 0
M  V30 35111 H 4793.81 0.260263 -6.6359 0
M  V30 35112 H 4795.87 3.62759 -5.33442 0
M  V30 35113 P 4797.63 3.65191 -7.99657 0
M  V30 35114 O 4799.05 3.89332 -8.45794 0
M  V30 35115 O 4797.27 2.28472 -7.50807 0
M  V30 35116 O 4797.3 4.64972 -6.77611 0
M  V30 35117 C 4797.14 6.06319 -7.16352 0
M  V30 35118 C 4797.68 6.91731 -6.02299 0
M  V30 35119 O 4796.63 6.92449 -5.17064 0
M  V30 35120 C 4798.9 6.43627 -5.25174 0
M  V30 35121 O 4799.64 7.43686 -4.60469 0
M  V30 35122 C 4798.23 5.40275 -4.31916 0
M  V30 35123 O 4799.03 5.25279 -3.14438 0
M  V30 35124 C 4796.9 6.04847 -4.05327 0
M  V30 35125 H 4796.93 6.62195 -3.11261 0
M  V30 35126 H 4798.11 4.42556 -4.81383 0
M  V30 35127 H 4799.59 5.92458 -5.93643 0
M  V30 35128 H 4797.9 7.92655 -6.402 0
M  V30 35129 H 4797.71 6.26671 -8.0846 0
M  V30 35130 H 4796.08 6.29101 -7.32804 0
M  V30 35131 H 4798.72 5.84315 -2.47318 0
M  V30 35132 P 4800.58 7.39546 -4.75277 0
M  V30 35133 O 4801.98 7.86988 -5.07993 0
M  V30 35134 O 4800.2 5.99957 -5.13804 0
M  V30 35135 O 4800.25 7.57411 -3.18621 0
M  V30 35136 C 4800.09 8.97357 -2.74833 0
M  V30 35137 C 4800.63 9.0745 -1.32694 0
M  V30 35138 O 4799.58 8.61972 -0.606089 0
M  V30 35139 C 4801.85 8.25383 -0.938334 0
M  V30 35140 O 4802.59 8.74577 0.146954 0
M  V30 35141 C 4801.18 6.8802 -0.712559 0
M  V30 35142 O 4801.98 6.11791 0.194623 0
M  V30 35143 C 4799.85 7.27966 -0.139777 0
M  V30 35144 N 4798.8 6.39368 -0.623421 0
M  V30 35145 C 4797.77 6.08088 0.223886 0
M  V30 35146 O 4797.81 6.5102 1.39986 0
M  V30 35147 N 4796.76 5.30627 -0.224051 0
M  V30 35148 C 4796.8 4.82531 -1.47257 0
M  V30 35149 N 4795.79 4.07328 -1.89378 0
M  V30 35150 C 4797.9 5.09974 -2.34008 0
M  V30 35151 C 4798.87 5.89548 -1.87678 0
M  V30 35152 H 4799.88 7.25255 0.961469 0
M  V30 35153 H 4801.06 6.32625 -1.65044 0
M  V30 35154 H 4802.55 8.19631 -1.78299 0
M  V30 35155 H 4800.85 10.1305 -1.09016 0
M  V30 35156 H 4800.66 9.64276 -3.41316 0
M  V30 35157 H 4799.03 9.25321 -2.76328 0
M  V30 35158 H 4797.95 4.67832 -3.3413 0
M  V30 35159 H 4799.71 6.14434 -2.51991 0
M  V30 35160 H 4795 3.87329 -1.26296 0
M  V30 35161 H 4795.8 3.69014 -2.84741 0
M  V30 35162 H 4801.77 6.35931 1.08377 0
M  V30 35163 P 4803.53 8.791 -3.21882e-10 0
M  V30 35164 O 4804.95 9.31096 0.027933 0
M  V30 35165 O 4803.17 7.77869 -1.04071 0
M  V30 35166 O 4803.2 8.09533 1.41463 0
M  V30 35167 C 4803.04 9.0349 2.53943 0
M  V30 35168 C 4803.58 8.35226 3.79016 0
M  V30 35169 O 4802.53 7.57992 4.15078 0
M  V30 35170 C 4804.8 7.45087 3.67298 0
M  V30 35171 O 4805.54 7.27796 4.85194 0
M  V30 35172 C 4804.13 6.17323 3.12027 0
M  V30 35173 O 4804.93 5.04231 3.47188 0
M  V30 35174 C 4802.8 6.19961 3.81809 0
M  V30 35175 H 4802.83 5.58218 4.73051 0
M  V30 35176 H 4804.01 6.21726 2.02589 0
M  V30 35177 H 4805.5 7.86112 2.9231 0
M  V30 35178 H 4803.8 9.11627 4.55076 0
M  V30 35179 H 4803.61 9.9573 2.34194 0
M  V30 35180 H 4801.98 9.2792 2.67832 0
M  V30 35181 H 4804.62 4.67702 4.28772 0
M  V30 35182 P 4806.48 7.39546 4.75277 0
M  V30 35183 O 4807.9 7.81777 5.05738 0
M  V30 35184 O 4806.12 7.1065 3.32998 0
M  V30 35185 O 4806.16 6.04542 5.56673 0
M  V30 35186 C 4806 6.22772 7.02095 0
M  V30 35187 C 4806.54 4.97725 7.70406 0
M  V30 35188 O 4805.48 4.13256 7.58987 0
M  V30 35189 C 4807.75 4.28231 7.11815 0
M  V30 35190 O 4808.49 3.49945 8.01648 0
M  V30 35191 C 4807.08 3.5063 5.96244 0
M  V30 35192 O 4807.88 2.36482 5.64681 0
M  V30 35193 C 4805.75 3.15122 6.56374 0
M  V30 35194 H 4805.78 2.13853 6.99751 0
M  V30 35195 H 4806.96 4.13501 5.06559 0
M  V30 35196 H 4808.45 5.03285 6.70911 0
M  V30 35197 H 4806.75 5.20877 8.75697 0
M  V30 35198 H 4806.56 7.11046 7.35349 0
M  V30 35199 H 4804.93 6.35815 7.26986 0
M  V30 35200 H 4807.57 1.61644 6.13565 0
M  V30 35201 P 4809.43 3.65191 7.99657 0
M  V30 35202 O 4810.85 3.8425 8.48115 0
M  V30 35203 O 4809.07 4.17805 6.64342 0
M  V30 35204 O 4809.11 2.07613 7.95143 0
M  V30 35205 C 4808.95 1.44328 9.27336 0
M  V30 35206 C 4809.49 0.0220036 9.17197 0
M  V30 35207 O 4808.43 -0.626867 8.61923 0
M  V30 35208 C 4810.7 -0.24586 8.30336 0
M  V30 35209 O 4811.44 -1.39011 8.63583 0
M  V30 35210 C 4810.04 -0.273849 6.91158 0
M  V30 35211 O 4810.83 -1.06348 6.02892 0
M  V30 35212 C 4808.7 -0.897649 7.22545 0
M  V30 35213 H 4808.73 -1.9841 7.04286 0
M  V30 35214 H 4809.91 0.739928 6.497 0
M  V30 35215 H 4811.4 0.60668 8.36503 0
M  V30 35216 H 4809.7 -0.352479 10.1829 0
M  V30 35217 H 4809.51 2.00611 10.0304 0
M  V30 35218 H 4807.88 1.41843 9.55327 0
M  V30 35219 H 4810.52 -1.95734 6.03555 0
M  V30 35220 P 4812.38 -1.25109 8.70152 0
M  V30 35221 O 4813.8 -1.35288 9.2132 0
M  V30 35222 O 4812.02 -0.0769065 7.84762 0
M  V30 35223 O 4812.06 -2.55232 7.81161 0
M  V30 35224 C 4811.9 -3.79979 8.58246 0
M  V30 35225 C 4812.44 -4.94023 7.72785 0
M  V30 35226 O 4811.38 -5.18666 6.91125 0
M  V30 35227 C 4813.65 -4.69597 6.85231 0
M  V30 35228 O 4814.39 -5.83832 6.51337 0
M  V30 35229 C 4812.99 -3.96706 5.66633 0
M  V30 35230 O 4813.78 -4.14896 4.5003 0
M  V30 35231 C 4811.65 -4.66153 5.59313 0
M  V30 35232 N 4810.61 -3.71582 5.24027 0
M  V30 35233 C 4810.77 -2.39715 5.48833 0
M  V30 35234 N 4809.75 -1.65863 5.12845 0
M  V30 35235 C 4808.86 -2.57637 4.5973 0
M  V30 35236 C 4807.6 -2.40278 4.01027 0
M  V30 35237 N 4807 -1.19549 3.86744 0
M  V30 35238 N 4807.03 -3.57711 3.59575 0
M  V30 35239 C 4807.63 -4.80324 3.70476 0
M  V30 35240 N 4808.81 -5.01121 4.23801 0
M  V30 35241 C 4809.38 -3.84757 4.66372 0
M  V30 35242 H 4811.68 -5.47604 4.85148 0
M  V30 35243 H 4812.86 -2.8955 5.86187 0
M  V30 35244 H 4814.35 -4.0121 7.36511 0
M  V30 35245 H 4812.65 -5.81019 8.37003 0
M  V30 35246 H 4812.46 -3.73517 9.52265 0
M  V30 35247 H 4810.83 -3.97163 8.80359 0
M  V30 35248 H 4807.1 -5.66348 3.3183 0
M  V30 35249 H 4811.67 -1.98804 5.94332 0
M  V30 35250 H 4806.07 -1.13147 3.4281 0
M  V30 35251 H 4807.47 -0.344074 4.19692 0
M  V30 35252 H 4813.47 -4.90891 4.01857 0
M  V30 35253 P 4815.33 -5.75688 6.64379 0
M  V30 35254 O 4816.75 -6.11849 7.01846 0
M  V30 35255 O 4814.97 -4.30744 6.56026 0
M  V30 35256 O 4815.01 -6.37042 5.19165 0
M  V30 35257 C 4814.85 -7.83578 5.16515 0
M  V30 35258 C 4815.39 -8.33398 3.83019 0
M  V30 35259 O 4814.33 -8.10074 3.01034 0
M  V30 35260 C 4816.61 -7.65514 3.2257 0
M  V30 35261 O 4817.34 -8.4329 2.32297 0
M  V30 35262 C 4815.94 -6.40075 2.62207 0
M  V30 35263 O 4816.74 -5.92589 1.53712 0
M  V30 35264 C 4814.6 -6.9454 2.18503 0
M  V30 35265 H 4814.63 -7.23063 1.12091 0
M  V30 35266 H 4815.81 -5.6025 3.37201 0
M  V30 35267 H 4817.3 -7.35707 4.02681 0
M  V30 35268 H 4815.6 -9.40912 3.9095 0
M  V30 35269 H 4815.41 -8.29056 5.99158 0
M  V30 35270 H 4813.78 -8.10073 5.25882 0
M  V30 35271 H 4816.42 -6.30324 0.726794 0
M  V30 35272 P 4818.28 -8.4349 2.47671 0
M  V30 35273 O 4819.7 -8.94167 2.5964 0
M  V30 35274 O 4817.92 -7.1704 3.19006 0
M  V30 35275 O 4817.96 -8.16596 0.923387 0
M  V30 35276 C 4817.8 -9.38437 0.108857 0
M  V30 35277 C 4818.34 -9.08175 -1.28353 0
M  V30 35278 O 4817.28 -8.44229 -1.84713 0
M  V30 35279 C 4819.56 -8.18386 -1.42505 0
M  V30 35280 O 4820.29 -8.3501 -2.60497 0
M  V30 35281 C 4818.89 -6.80225 -1.25468 0
M  V30 35282 O 4819.69 -5.81621 -1.91066 0
M  V30 35283 C 4817.55 -7.02416 -1.9168 0
M  V30 35284 H 4817.58 -6.6888 -2.96621 0
M  V30 35285 H 4818.76 -6.53617 -0.192223 0
M  V30 35286 H 4820.25 -8.36622 -0.589963 0
M  V30 35287 H 4818.55 -10.0291 -1.79807 0
M  V30 35288 H 4818.36 -10.2138 0.558219 0
M  V30 35289 H 4816.73 -9.6579 0.0444202 0
M  V30 35290 H 4819.37 -5.69556 -2.79637 0
M  V30 35291 P 4821.23 -8.4349 -2.47671 0
M  V30 35292 O 4822.65 -8.92593 -2.65 0
M  V30 35293 O 4820.87 -7.7568 -1.19296 0
M  V30 35294 O 4820.91 -7.36886 -3.63805 0
M  V30 35295 C 4820.75 -7.95349 -4.982 0
M  V30 35296 C 4821.29 -6.94612 -5.98974 0
M  V30 35297 O 4820.23 -6.10347 -6.11815 0
M  V30 35298 C 4822.51 -6.11426 -5.62335 0
M  V30 35299 O 4823.24 -5.6162 -6.70584 0
M  V30 35300 C 4821.84 -5.04409 -4.73308 0
M  V30 35301 O 4822.64 -3.85992 -4.75183 0
M  V30 35302 C 4820.5 -4.8728 -5.41006 0
M  V30 35303 H 4820.53 -4.02333 -6.11157 0
M  V30 35304 H 4821.72 -5.39466 -3.69543 0
M  V30 35305 H 4823.2 -6.71916 -5.01943 0
M  V30 35306 H 4821.51 -7.4649 -6.93477 0
M  V30 35307 H 4821.32 -8.89416 -5.05237 0
M  V30 35308 H 4819.69 -8.14876 -5.18409 0
M  V30 35309 H 4822.32 -3.27957 -5.4317 0
M  V30 35310 P 4824.18 -5.75688 -6.64379 0
M  V30 35311 O 4825.6 -6.07627 -7.05504 0
M  V30 35312 O 4823.82 -5.88047 -5.19722 0
M  V30 35313 O 4823.86 -4.2322 -7.04443 0
M  V30 35314 C 4823.7 -3.99743 -8.4911 0
M  V30 35315 C 4824.24 -2.60516 -8.79425 0
M  V30 35316 O 4823.18 -1.82684 -8.4467 0
M  V30 35317 C 4825.46 -2.10343 -8.03628 0
M  V30 35318 O 4826.19 -1.09919 -8.67766 0
M  V30 35319 C 4824.79 -1.68446 -6.70876 0
M  V30 35320 O 4825.59 -0.678137 -6.08433 0
M  V30 35321 C 4823.45 -1.17436 -7.18567 0
M  V30 35322 H 4823.48 -0.0804732 -7.31656 0
M  V30 35323 H 4824.67 -2.54037 -6.02537 0
M  V30 35324 H 4826.15 -2.93881 -7.85526 0
M  V30 35325 H 4824.46 -2.53065 -9.86973 0
M  V30 35326 H 4824.27 -4.75072 -9.05887 0
M  V30 35327 H 4822.64 -4.05244 -8.76668 0
M  V30 35328 H 4825.27 0.177647 -6.34251 0
M  V30 35329 P 4827.13 -1.25109 -8.70152 0
M  V30 35330 O 4828.55 -1.29744 -9.22016 0
M  V30 35331 O 4826.77 -2.13714 -7.55141 0
M  V30 35332 O 4826.81 0.248149 -8.21425 0
M  V30 35333 C 4826.65 1.22779 -9.30434 0
M  V30 35334 C 4827.19 2.56293 -8.80664 0
M  V30 35335 O 4826.13 3.02979 -8.09349 0
M  V30 35336 C 4828.41 2.57523 -7.89775 0
M  V30 35337 O 4829.15 3.7668 -7.89438 0
M  V30 35338 C 4827.74 2.20997 -6.55446 0
M  V30 35339 O 4828.54 2.71895 -5.48509 0
M  V30 35340 C 4826.4 2.89693 -6.67988 0
M  V30 35341 H 4826.43 3.88793 -6.19859 0
M  V30 35342 H 4827.62 1.12046 -6.44229 0
M  V30 35343 H 4829.1 1.7746 -8.19711 0
M  V30 35344 H 4827.41 3.20706 -9.67112 0
M  V30 35345 H 4827.22 0.901032 -10.1892 0
M  V30 35346 H 4825.59 1.33049 -9.56592 0
M  V30 35347 H 4828.23 3.57847 -5.23962 0
M  V30 35348 P 4830.08 3.65191 -7.99657 0
M  V30 35349 O 4831.5 3.89374 -8.45885 0
M  V30 35350 O 4829.72 2.28472 -7.50807 0
M  V30 35351 O 4829.76 4.64972 -6.77611 0
M  V30 35352 C 4829.6 6.06383 -7.16428 0
M  V30 35353 C 4830.14 6.91731 -6.02299 0
M  V30 35354 O 4829.09 6.92369 -5.17005 0
M  V30 35355 C 4831.36 6.43627 -5.25174 0
M  V30 35356 O 4832.1 7.43686 -4.60469 0
M  V30 35357 C 4830.69 5.40275 -4.31916 0
M  V30 35358 O 4831.49 5.24878 -3.14911 0
M  V30 35359 C 4829.35 6.04847 -4.05327 0
M  V30 35360 N 4828.31 5.04166 -3.98114 0
M  V30 35361 C 4828.48 3.84629 -4.59066 0
M  V30 35362 N 4827.45 3.0363 -4.45343 0
M  V30 35363 C 4826.57 3.76722 -3.68523 0
M  V30 35364 C 4825.3 3.43528 -3.17088 0
M  V30 35365 N 4824.7 2.23665 -3.37397 0
M  V30 35366 N 4824.73 4.44526 -2.44231 0
M  V30 35367 C 4825.34 5.65243 -2.20146 0
M  V30 35368 N 4826.51 6.00221 -2.65453 0
M  V30 35369 C 4827.09 5.00564 -3.39083 0
M  V30 35370 H 4829.38 6.62104 -3.11218 0
M  V30 35371 H 4830.57 4.42969 -4.80867 0
M  V30 35372 H 4832.05 5.92458 -5.93643 0
M  V30 35373 H 4830.36 7.93295 -6.39407 0
M  V30 35374 H 4830.17 6.26671 -8.0846 0
M  V30 35375 H 4828.54 6.29101 -7.32804 0
M  V30 35376 H 4824.8 6.36894 -1.5883 0
M  V30 35377 H 4829.38 3.58193 -5.14248 0
M  V30 35378 H 4823.77 2.05145 -2.97047 0
M  V30 35379 H 4825.17 1.51255 -3.92998 0
M  V30 35380 H 4831.18 5.84223 -2.47279 0
M  V30 35381 P 4833.03 7.39546 -4.75277 0
M  V30 35382 O 4834.46 7.84798 -5.01039 0
M  V30 35383 O 4832.67 5.9812 -5.08098 0
M  V30 35384 O 4832.71 7.57503 -3.1866 0
M  V30 35385 C 4832.55 8.97357 -2.74833 0
M  V30 35386 C 4833.09 9.07548 -1.32709 0
M  V30 35387 O 4832.03 8.62072 -0.606159 0
M  V30 35388 C 4834.31 8.25383 -0.938334 0
M  V30 35389 O 4835.05 8.74577 0.146954 0
M  V30 35390 C 4833.64 6.8802 -0.712559 0
M  V30 35391 O 4834.44 6.1189 0.194655 0
M  V30 35392 C 4832.3 7.27966 -0.139777 0
M  V30 35393 H 4832.33 7.25354 0.961601 0
M  V30 35394 H 4833.52 6.32557 -1.65702 0
M  V30 35395 H 4835 8.19355 -1.79097 0
M  V30 35396 H 4833.31 10.1294 -1.10029 0
M  V30 35397 H 4833.12 9.64276 -3.41316 0
M  V30 35398 H 4831.49 9.25417 -2.76357 0
M  V30 35399 H 4834.13 6.25267 1.07847 0
M  V30 35400 P 4835.98 8.791 -3.27069e-10 0
M  V30 35401 O 4837.41 9.31096 0.027933 0
M  V30 35402 O 4835.62 7.77869 -1.04071 0
M  V30 35403 O 4835.66 8.09533 1.41463 0
M  V30 35404 C 4835.5 9.0349 2.53943 0
M  V30 35405 C 4836.04 8.35226 3.79016 0
M  V30 35406 O 4834.99 7.57992 4.15078 0
M  V30 35407 C 4837.26 7.45087 3.67298 0
M  V30 35408 O 4838 7.27796 4.85194 0
M  V30 35409 C 4836.59 6.17323 3.12027 0
M  V30 35410 O 4837.39 5.04231 3.47188 0
M  V30 35411 C 4835.25 6.19961 3.81809 0
M  V30 35412 H 4835.29 5.58218 4.73051 0
M  V30 35413 H 4836.47 6.21726 2.02589 0
M  V30 35414 H 4837.95 7.86112 2.9231 0
M  V30 35415 H 4836.26 9.11627 4.55076 0
M  V30 35416 H 4836.07 9.9573 2.34194 0
M  V30 35417 H 4834.44 9.2792 2.67832 0
M  V30 35418 H 4837.08 4.67702 4.28772 0
M  V30 35419 P 4838.93 7.39546 4.75277 0
M  V30 35420 O 4840.36 7.81861 5.05793 0
M  V30 35421 O 4838.57 7.1065 3.32998 0
M  V30 35422 O 4838.61 6.04542 5.56673 0
M  V30 35423 C 4838.45 6.22839 7.02169 0
M  V30 35424 C 4838.99 4.97725 7.70406 0
M  V30 35425 O 4837.94 4.13208 7.58899 0
M  V30 35426 C 4840.21 4.28231 7.11815 0
M  V30 35427 O 4840.95 3.49945 8.01648 0
M  V30 35428 C 4839.54 3.5063 5.96244 0
M  V30 35429 O 4840.34 2.37008 5.64352 0
M  V30 35430 C 4838.2 3.15122 6.56374 0
M  V30 35431 N 4837.16 3.22311 5.55692 0
M  V30 35432 C 4837.33 3.99655 4.46046 0
M  V30 35433 N 4836.3 3.97599 3.63918 0
M  V30 35434 C 4835.42 3.11159 4.25334 0
M  V30 35435 C 4834.15 2.64972 3.85157 0
M  V30 35436 N 4833.55 3.02132 2.69405 0
M  V30 35437 N 4833.59 1.78482 4.74759 0
M  V30 35438 C 4834.19 1.37463 5.90819 0
M  V30 35439 N 4835.36 1.7733 6.31889 0
M  V30 35440 C 4835.94 2.64393 5.43725 0
M  V30 35441 H 4838.24 2.13823 6.99656 0
M  V30 35442 H 4839.42 4.12931 5.06895 0
M  V30 35443 H 4840.9 5.03285 6.70911 0
M  V30 35444 H 4839.21 5.20001 8.76217 0
M  V30 35445 H 4839.02 7.11046 7.35349 0
M  V30 35446 H 4837.39 6.35815 7.26986 0
M  V30 35447 H 4833.65 0.66574 6.53015 0
M  V30 35448 H 4838.23 4.58037 4.27732 0
M  V30 35449 H 4832.62 2.64828 2.45331 0
M  V30 35450 H 4834.03 3.67472 2.05644 0
M  V30 35451 H 4840.03 1.61619 6.13468 0
M  V30 35452 P 4841.89 3.65191 7.99657 0
M  V30 35453 O 4843.29 3.90823 8.51272 0
M  V30 35454 O 4841.51 4.23191 6.66972 0
M  V30 35455 O 4841.56 2.07587 7.95046 0
M  V30 35456 C 4841.4 1.44328 9.27336 0
M  V30 35457 C 4841.94 0.0220012 9.17097 0
M  V30 35458 O 4840.89 -0.626794 8.61824 0
M  V30 35459 C 4843.16 -0.24586 8.30336 0
M  V30 35460 O 4843.9 -1.39011 8.63583 0
M  V30 35461 C 4842.49 -0.273849 6.91158 0
M  V30 35462 O 4843.29 -1.06331 6.02794 0
M  V30 35463 C 4841.15 -0.897649 7.22545 0
M  V30 35464 N 4840.11 -0.292839 6.41732 0
M  V30 35465 C 4839.08 -1.08701 5.98712 0
M  V30 35466 O 4839.12 -2.31211 6.24471 0
M  V30 35467 N 4838.06 -0.533391 5.28415 0
M  V30 35468 C 4838.11 0.770866 4.98576 0
M  V30 35469 C 4839.21 1.59049 5.38086 0
M  V30 35470 C 4840.17 1.01866 6.10256 0
M  V30 35471 H 4841.19 -1.98383 7.04189 0
M  V30 35472 H 4842.37 0.733318 6.49674 0
M  V30 35473 H 4843.85 0.598386 8.36663 0
M  V30 35474 H 4842.16 -0.362662 10.1825 0
M  V30 35475 H 4841.97 2.00611 10.0304 0
M  V30 35476 H 4840.34 1.41828 9.55228 0
M  V30 35477 H 4839.26 2.6415 5.10622 0
M  V30 35478 H 4841.02 1.61983 6.44042 0
M  V30 35479 H 4843.07 -1.97777 6.14035 0
M  V30 35480 P 4844.84 -1.25109 8.70152 0
M  V30 35481 O 4846.26 -1.35274 9.21221 0
M  V30 35482 O 4844.48 -0.0769065 7.84762 0
M  V30 35483 O 4844.51 -2.55232 7.81161 0
M  V30 35484 C 4844.35 -3.79939 8.58154 0
M  V30 35485 C 4844.89 -4.94023 7.72785 0
M  V30 35486 O 4843.84 -5.18726 6.91205 0
M  V30 35487 C 4846.11 -4.69597 6.85231 0
M  V30 35488 O 4846.85 -5.83832 6.51337 0
M  V30 35489 C 4845.44 -3.96706 5.66633 0
M  V30 35490 O 4846.24 -4.15414 4.49689 0
M  V30 35491 C 4844.1 -4.66153 5.59313 0
M  V30 35492 H 4844.14 -5.47679 4.85214 0
M  V30 35493 H 4845.32 -2.89008 5.86566 0
M  V30 35494 H 4846.8 -4.0121 7.36511 0
M  V30 35495 H 4845.11 -5.80182 8.37584 0
M  V30 35496 H 4844.92 -3.73517 9.52265 0
M  V30 35497 H 4843.29 -3.97163 8.80359 0
M  V30 35498 H 4845.93 -4.90969 4.01921 0
M  V30 35499 P 4847.79 -5.75688 6.64379 0
M  V30 35500 O 4849.21 -6.11915 7.01921 0
M  V30 35501 O 4847.43 -4.30744 6.56026 0
M  V30 35502 O 4847.46 -6.37042 5.19165 0
M  V30 35503 C 4847.3 -7.83662 5.1657 0
M  V30 35504 C 4847.84 -8.33398 3.83019 0
M  V30 35505 O 4846.79 -8.0998 3.00999 0
M  V30 35506 C 4849.06 -7.65514 3.2257 0
M  V30 35507 O 4849.8 -8.4329 2.32297 0
M  V30 35508 C 4848.39 -6.40075 2.62207 0
M  V30 35509 O 4849.19 -5.92338 1.5428 0
M  V30 35510 C 4847.06 -6.9454 2.18503 0
M  V30 35511 N 4846.01 -5.95905 2.39948 0
M  V30 35512 C 4846.18 -4.98383 3.32108 0
M  V30 35513 N 4845.15 -4.16798 3.41761 0
M  V30 35514 C 4844.27 -4.65287 2.47461 0
M  V30 35515 C 4843 -4.18946 2.07461 0
M  V30 35516 N 4842.44 -4.95327 1.09101 0
M  V30 35517 C 4843.04 -6.04369 0.519812 0
M  V30 35518 N 4844.22 -6.50694 0.855982 0
M  V30 35519 C 4844.79 -5.75818 1.84322 0
M  V30 35520 H 4848.27 -5.60502 3.36589 0
M  V30 35521 H 4849.75 -7.35707 4.02681 0
M  V30 35522 H 4848.06 -9.41302 3.90009 0
M  V30 35523 H 4847.87 -8.29056 5.99158 0
M  V30 35524 H 4846.24 -8.10073 5.25882 0
M  V30 35525 H 4847.08 -4.88564 3.92502 0
M  V30 35526 H 4848.88 -6.30224 0.72668 0
M  V30 35527 P 4850.74 -8.4349 2.47671 0
M  V30 35528 O 4852.16 -8.94167 2.5964 0
M  V30 35529 O 4850.38 -7.1704 3.19006 0
M  V30 35530 O 4850.41 -8.16596 0.923387 0
M  V30 35531 C 4850.25 -9.38437 0.108857 0
M  V30 35532 C 4850.79 -9.08175 -1.28353 0
M  V30 35533 O 4849.74 -8.44229 -1.84713 0
M  V30 35534 C 4852.01 -8.18386 -1.42505 0
M  V30 35535 O 4852.75 -8.3501 -2.60497 0
M  V30 35536 C 4851.34 -6.80225 -1.25468 0
M  V30 35537 O 4852.14 -5.81621 -1.91066 0
M  V30 35538 C 4850.01 -7.02416 -1.9168 0
M  V30 35539 H 4850.04 -6.6888 -2.96621 0
M  V30 35540 H 4851.22 -6.53617 -0.192223 0
M  V30 35541 H 4852.71 -8.36622 -0.589963 0
M  V30 35542 H 4851.01 -10.0291 -1.79807 0
M  V30 35543 H 4850.82 -10.2138 0.558219 0
M  V30 35544 H 4849.19 -9.6579 0.0444202 0
M  V30 35545 H 4851.83 -5.69556 -2.79637 0
M  V30 35546 P 4853.69 -8.4349 -2.47671 0
M  V30 35547 O 4855.11 -8.92689 -2.65029 0
M  V30 35548 O 4853.33 -7.7568 -1.19296 0
M  V30 35549 O 4853.36 -7.36886 -3.63805 0
M  V30 35550 C 4853.2 -7.95433 -4.98253 0
M  V30 35551 C 4853.74 -6.94612 -5.98974 0
M  V30 35552 O 4852.69 -6.10277 -6.11744 0
M  V30 35553 C 4854.96 -6.11426 -5.62335 0
M  V30 35554 O 4855.7 -5.6162 -6.70584 0
M  V30 35555 C 4854.29 -5.04409 -4.73308 0
M  V30 35556 O 4855.09 -3.86404 -4.74719 0
M  V30 35557 C 4852.96 -4.8728 -5.41006 0
M  V30 35558 N 4851.91 -4.65812 -4.42377 0
M  V30 35559 C 4852.08 -5.09132 -3.15382 0
M  V30 35560 N 4851.06 -4.84021 -2.3716 0
M  V30 35561 C 4850.17 -4.18386 -3.20441 0
M  V30 35562 C 4848.9 -3.6275 -2.94905 0
M  V30 35563 N 4848.34 -3.05008 -4.05243 0
M  V30 35564 C 4848.94 -2.98348 -5.28159 0
M  V30 35565 N 4850.12 -3.48171 -5.56333 0
M  V30 35566 C 4850.69 -4.06869 -4.47212 0
M  V30 35567 H 4854.17 -5.39013 -3.70026 0
M  V30 35568 H 4855.65 -6.71916 -5.01943 0
M  V30 35569 H 4853.96 -7.45796 -6.94223 0
M  V30 35570 H 4853.77 -8.89416 -5.05237 0
M  V30 35571 H 4852.14 -8.14876 -5.18409 0
M  V30 35572 H 4852.98 -5.59989 -2.81362 0
M  V30 35573 H 4854.78 -3.27906 -5.43085 0
M  V30 35574 P 4856.64 -5.75688 -6.64379 0
M  V30 35575 O 4858.06 -6.07627 -7.05504 0
M  V30 35576 O 4856.28 -5.88047 -5.19722 0
M  V30 35577 O 4856.32 -4.2322 -7.04443 0
M  V30 35578 C 4856.16 -3.99743 -8.4911 0
M  V30 35579 C 4856.7 -2.60516 -8.79425 0
M  V30 35580 O 4855.64 -1.82684 -8.4467 0
M  V30 35581 C 4857.91 -2.10343 -8.03628 0
M  V30 35582 O 4858.65 -1.09919 -8.67766 0
M  V30 35583 C 4857.24 -1.68446 -6.70876 0
M  V30 35584 O 4858.04 -0.678137 -6.08433 0
M  V30 35585 C 4855.91 -1.17436 -7.18567 0
M  V30 35586 H 4855.94 -0.0804732 -7.31656 0
M  V30 35587 H 4857.12 -2.54037 -6.02537 0
M  V30 35588 H 4858.61 -2.93881 -7.85526 0
M  V30 35589 H 4856.91 -2.53065 -9.86973 0
M  V30 35590 H 4856.72 -4.75072 -9.05887 0
M  V30 35591 H 4855.09 -4.05244 -8.76668 0
M  V30 35592 H 4857.73 0.177647 -6.34251 0
M  V30 35593 P 4859.59 -1.25109 -8.70152 0
M  V30 35594 O 4861.01 -1.29758 -9.22115 0
M  V30 35595 O 4859.23 -2.13714 -7.55141 0
M  V30 35596 O 4859.27 0.248149 -8.21425 0
M  V30 35597 C 4859.1 1.22792 -9.30533 0
M  V30 35598 C 4859.65 2.56293 -8.80664 0
M  V30 35599 O 4858.59 3.02944 -8.09255 0
M  V30 35600 C 4860.86 2.57523 -7.89775 0
M  V30 35601 O 4861.6 3.7668 -7.89438 0
M  V30 35602 C 4860.2 2.20997 -6.55446 0
M  V30 35603 O 4860.99 2.71302 -5.48691 0
M  V30 35604 C 4858.86 2.89693 -6.67988 0
M  V30 35605 N 4857.81 2.08895 -6.07487 0
M  V30 35606 C 4857.98 0.753809 -5.94137 0
M  V30 35607 N 4856.96 0.146592 -5.38801 0
M  V30 35608 C 4856.07 1.1768 -5.13693 0
M  V30 35609 C 4854.8 1.17563 -4.52477 0
M  V30 35610 N 4854.24 2.41918 -4.45789 0
M  V30 35611 C 4854.84 3.56493 -4.90792 0
M  V30 35612 N 4856.02 3.61423 -5.47817 0
M  V30 35613 C 4856.59 2.37779 -5.5588 0
M  V30 35614 H 4860.07 1.12673 -6.44018 0
M  V30 35615 H 4861.56 1.7746 -8.19711 0
M  V30 35616 H 4859.86 3.21673 -9.66791 0
M  V30 35617 H 4859.67 0.901032 -10.1892 0
M  V30 35618 H 4858.04 1.33049 -9.56592 0
M  V30 35619 H 4858.88 0.233081 -6.26266 0
M  V30 35620 H 4860.68 3.5779 -5.23879 0
M  V30 35621 P 4862.54 3.65191 -7.99657 0
M  V30 35622 O 4863.96 3.89332 -8.45794 0
M  V30 35623 O 4862.18 2.28472 -7.50807 0
M  V30 35624 O 4862.22 4.64972 -6.77611 0
M  V30 35625 C 4862.06 6.06319 -7.16352 0
M  V30 35626 C 4862.6 6.91731 -6.02299 0
M  V30 35627 O 4861.54 6.92449 -5.17064 0
M  V30 35628 C 4863.81 6.43627 -5.25174 0
M  V30 35629 O 4864.55 7.43686 -4.60469 0
M  V30 35630 C 4863.15 5.40275 -4.31916 0
M  V30 35631 O 4863.94 5.25279 -3.14438 0
M  V30 35632 C 4861.81 6.04847 -4.05327 0
M  V30 35633 H 4861.84 6.62195 -3.11261 0
M  V30 35634 H 4863.02 4.42556 -4.81383 0
M  V30 35635 H 4864.51 5.92458 -5.93643 0
M  V30 35636 H 4862.81 7.92655 -6.402 0
M  V30 35637 H 4862.62 6.26671 -8.0846 0
M  V30 35638 H 4860.99 6.29101 -7.32804 0
M  V30 35639 H 4863.63 5.84315 -2.47318 0
M  V30 35640 P 4865.49 7.39546 -4.75277 0
M  V30 35641 O 4866.91 7.84798 -5.01039 0
M  V30 35642 O 4865.13 5.9812 -5.08098 0
M  V30 35643 O 4865.17 7.57503 -3.1866 0
M  V30 35644 C 4865.01 8.97357 -2.74833 0
M  V30 35645 C 4865.55 9.07548 -1.32709 0
M  V30 35646 O 4864.49 8.62072 -0.606159 0
M  V30 35647 C 4866.76 8.25383 -0.938334 0
M  V30 35648 O 4867.5 8.74577 0.146954 0
M  V30 35649 C 4866.1 6.8802 -0.712559 0
M  V30 35650 O 4866.89 6.1189 0.194655 0
M  V30 35651 C 4864.76 7.27966 -0.139777 0
M  V30 35652 H 4864.79 7.25354 0.961601 0
M  V30 35653 H 4865.97 6.32557 -1.65702 0
M  V30 35654 H 4867.46 8.19355 -1.79097 0
M  V30 35655 H 4865.76 10.1294 -1.10029 0
M  V30 35656 H 4865.57 9.64276 -3.41316 0
M  V30 35657 H 4863.94 9.25417 -2.76357 0
M  V30 35658 H 4866.58 6.25267 1.07847 0
M  V30 35659 P 4868.44 8.791 -3.32256e-10 0
M  V30 35660 O 4869.86 9.31096 0.027933 0
M  V30 35661 O 4868.08 7.77869 -1.04071 0
M  V30 35662 O 4868.12 8.09533 1.41463 0
M  V30 35663 C 4867.96 9.0349 2.53943 0
M  V30 35664 C 4868.5 8.35226 3.79016 0
M  V30 35665 O 4867.44 7.57992 4.15078 0
M  V30 35666 C 4869.72 7.45087 3.67298 0
M  V30 35667 O 4870.45 7.27796 4.85194 0
M  V30 35668 C 4869.05 6.17323 3.12027 0
M  V30 35669 O 4869.85 5.04231 3.47188 0
M  V30 35670 C 4867.71 6.19961 3.81809 0
M  V30 35671 H 4867.74 5.58218 4.73051 0
M  V30 35672 H 4868.92 6.21726 2.02589 0
M  V30 35673 H 4870.41 7.86112 2.9231 0
M  V30 35674 H 4868.71 9.11627 4.55076 0
M  V30 35675 H 4868.52 9.9573 2.34194 0
M  V30 35676 H 4866.89 9.2792 2.67832 0
M  V30 35677 H 4869.53 4.67702 4.28772 0
M  V30 35678 P 4871.39 7.39546 4.75277 0
M  V30 35679 O 4872.81 7.81861 5.05793 0
M  V30 35680 O 4871.03 7.1065 3.32998 0
M  V30 35681 O 4871.07 6.04542 5.56673 0
M  V30 35682 C 4870.91 6.22839 7.02169 0
M  V30 35683 C 4871.45 4.97725 7.70406 0
M  V30 35684 O 4870.39 4.13208 7.58899 0
M  V30 35685 C 4872.67 4.28231 7.11815 0
M  V30 35686 O 4873.4 3.49945 8.01648 0
M  V30 35687 C 4872 3.5063 5.96244 0
M  V30 35688 O 4872.8 2.37008 5.64352 0
M  V30 35689 C 4870.66 3.15122 6.56374 0
M  V30 35690 N 4869.62 3.22311 5.55692 0
M  V30 35691 C 4869.79 3.99655 4.46046 0
M  V30 35692 N 4868.76 3.97599 3.63918 0
M  V30 35693 C 4867.87 3.11159 4.25334 0
M  V30 35694 C 4866.61 2.64972 3.85157 0
M  V30 35695 N 4866.04 1.78482 4.74759 0
M  V30 35696 C 4866.64 1.37463 5.90819 0
M  V30 35697 N 4867.82 1.7733 6.31889 0
M  V30 35698 C 4868.4 2.64393 5.43725 0
M  V30 35699 H 4871.88 4.12931 5.06895 0
M  V30 35700 H 4873.36 5.03285 6.70911 0
M  V30 35701 H 4871.66 5.20001 8.76217 0
M  V30 35702 H 4871.47 7.11046 7.35349 0
M  V30 35703 H 4869.84 6.35815 7.26986 0
M  V30 35704 H 4870.69 4.58037 4.27732 0
M  V30 35705 H 4872.48 1.61619 6.13468 0
M  V30 35706 P 4874.34 3.65191 7.99657 0
M  V30 35707 O 4875.76 3.8425 8.48115 0
M  V30 35708 O 4873.98 4.17805 6.64342 0
M  V30 35709 O 4874.02 2.07613 7.95143 0
M  V30 35710 C 4873.86 1.44328 9.27336 0
M  V30 35711 C 4874.4 0.0220036 9.17197 0
M  V30 35712 O 4873.34 -0.626867 8.61923 0
M  V30 35713 C 4875.62 -0.24586 8.30336 0
M  V30 35714 O 4876.35 -1.39011 8.63583 0
M  V30 35715 C 4874.95 -0.273849 6.91158 0
M  V30 35716 O 4875.75 -1.06348 6.02892 0
M  V30 35717 C 4873.61 -0.897649 7.22545 0
M  V30 35718 H 4873.64 -1.9841 7.04286 0
M  V30 35719 H 4874.83 0.739928 6.497 0
M  V30 35720 H 4876.31 0.60668 8.36503 0
M  V30 35721 H 4874.62 -0.352479 10.1829 0
M  V30 35722 H 4874.43 2.00611 10.0304 0
M  V30 35723 H 4872.8 1.41843 9.55327 0
M  V30 35724 H 4875.43 -1.95734 6.03555 0
M  V30 35725 P 4877.29 -1.25109 8.70152 0
M  V30 35726 O 4878.69 -1.31452 9.27431 0
M  V30 35727 O 4876.91 -0.0458113 7.89887 0
M  V30 35728 O 4876.97 -2.55201 7.81066 0
M  V30 35729 C 4876.81 -3.79939 8.58154 0
M  V30 35730 C 4877.35 -4.93969 7.72701 0
M  V30 35731 O 4876.29 -5.18666 6.91125 0
M  V30 35732 C 4878.57 -4.69597 6.85231 0
M  V30 35733 O 4879.31 -5.83832 6.51337 0
M  V30 35734 C 4877.9 -3.96706 5.66633 0
M  V30 35735 O 4878.7 -4.15346 4.49615 0
M  V30 35736 C 4876.56 -4.66153 5.59313 0
M  V30 35737 N 4875.52 -3.71582 5.24027 0
M  V30 35738 C 4874.48 -4.15133 4.44901 0
M  V30 35739 O 4874.52 -5.32122 4.00336 0
M  V30 35740 N 4873.47 -3.30554 4.15693 0
M  V30 35741 C 4873.52 -2.04701 4.61105 0
M  V30 35742 C 4874.62 -1.57111 5.38655 0
M  V30 35743 C 4875.58 -2.44234 5.68454 0
M  V30 35744 H 4876.59 -5.47604 4.85148 0
M  V30 35745 H 4877.78 -2.8955 5.86187 0
M  V30 35746 H 4879.26 -4.01995 7.36197 0
M  V30 35747 H 4877.57 -5.81019 8.37003 0
M  V30 35748 H 4877.38 -3.73517 9.52265 0
M  V30 35749 H 4875.75 -3.97122 8.80267 0
M  V30 35750 H 4874.66 -0.538464 5.72373 0
M  V30 35751 H 4876.43 -2.11927 6.29377 0
M  V30 35752 H 4878.48 -4.98352 4.09633 0
M  V30 35753 P 4880.24 -5.75688 6.64379 0
M  V30 35754 O 4881.66 -6.11849 7.01846 0
M  V30 35755 O 4879.88 -4.30744 6.56026 0
M  V30 35756 O 4879.92 -6.37042 5.19165 0
M  V30 35757 C 4879.76 -7.83578 5.16515 0
M  V30 35758 C 4880.3 -8.33398 3.83019 0
M  V30 35759 O 4879.24 -8.10074 3.01034 0
M  V30 35760 C 4881.52 -7.65514 3.2257 0
M  V30 35761 O 4882.26 -8.4329 2.32297 0
M  V30 35762 C 4880.85 -6.40075 2.62207 0
M  V30 35763 O 4881.65 -5.92589 1.53712 0
M  V30 35764 C 4879.51 -6.9454 2.18503 0
M  V30 35765 H 4879.54 -7.23063 1.12091 0
M  V30 35766 H 4880.73 -5.6025 3.37201 0
M  V30 35767 H 4882.21 -7.35707 4.02681 0
M  V30 35768 H 4880.52 -9.40912 3.9095 0
M  V30 35769 H 4880.33 -8.29056 5.99158 0
M  V30 35770 H 4878.7 -8.10073 5.25882 0
M  V30 35771 H 4881.34 -6.30324 0.726794 0
M  V30 35772 P 4883.19 -8.4349 2.47671 0
M  V30 35773 O 4884.61 -8.94263 2.59668 0
M  V30 35774 O 4882.83 -7.1704 3.19006 0
M  V30 35775 O 4882.87 -8.16596 0.923387 0
M  V30 35776 C 4882.71 -9.38537 0.108869 0
M  V30 35777 C 4883.25 -9.08175 -1.28353 0
M  V30 35778 O 4882.2 -8.44131 -1.84692 0
M  V30 35779 C 4884.47 -8.18386 -1.42505 0
M  V30 35780 O 4885.21 -8.3501 -2.60497 0
M  V30 35781 C 4883.8 -6.80225 -1.25468 0
M  V30 35782 O 4884.6 -5.81716 -1.90454 0
M  V30 35783 C 4882.46 -7.02416 -1.9168 0
M  V30 35784 N 4881.42 -6.31033 -1.20314 0
M  V30 35785 C 4881.59 -5.98817 0.0994088 0
M  V30 35786 N 4880.56 -5.35403 0.621694 0
M  V30 35787 C 4879.68 -5.25212 -0.43376 0
M  V30 35788 C 4878.41 -4.64602 -0.519722 0
M  V30 35789 N 4877.81 -4.01457 0.519136 0
M  V30 35790 N 4877.84 -4.7568 -1.76013 0
M  V30 35791 C 4878.45 -5.3653 -2.83017 0
M  V30 35792 N 4879.62 -5.93676 -2.79782 0
M  V30 35793 C 4880.2 -5.84061 -1.56249 0
M  V30 35794 H 4882.49 -6.68789 -2.9658 0
M  V30 35795 H 4883.68 -6.53498 -0.198729 0
M  V30 35796 H 4885.16 -8.36622 -0.589963 0
M  V30 35797 H 4883.47 -10.0273 -1.8081 0
M  V30 35798 H 4883.28 -10.2138 0.558219 0
M  V30 35799 H 4881.65 -9.6579 0.0444202 0
M  V30 35800 H 4877.91 -5.37113 -3.77321 0
M  V30 35801 H 4882.49 -6.23209 0.660562 0
M  V30 35802 H 4876.88 -3.58834 0.394862 0
M  V30 35803 H 4878.28 -3.96059 1.43048 0
M  V30 35804 H 4884.29 -5.69466 -2.79593 0
M  V30 35805 P 4886.14 -8.4349 -2.47671 0
M  V30 35806 O 4887.56 -8.92689 -2.65029 0
M  V30 35807 O 4885.78 -7.7568 -1.19296 0
M  V30 35808 O 4885.82 -7.36886 -3.63805 0
M  V30 35809 C 4885.66 -7.95433 -4.98253 0
M  V30 35810 C 4886.2 -6.94612 -5.98974 0
M  V30 35811 O 4885.15 -6.10277 -6.11744 0
M  V30 35812 C 4887.42 -6.11426 -5.62335 0
M  V30 35813 O 4888.16 -5.6162 -6.70584 0
M  V30 35814 C 4886.75 -5.04409 -4.73308 0
M  V30 35815 O 4887.55 -3.86404 -4.74719 0
M  V30 35816 C 4885.41 -4.8728 -5.41006 0
M  V30 35817 N 4884.37 -4.65812 -4.42377 0
M  V30 35818 C 4884.54 -5.09132 -3.15382 0
M  V30 35819 N 4883.51 -4.84021 -2.3716 0
M  V30 35820 C 4882.63 -4.18386 -3.20441 0
M  V30 35821 C 4881.36 -3.6275 -2.94905 0
M  V30 35822 N 4880.79 -3.05008 -4.05243 0
M  V30 35823 C 4881.4 -2.98348 -5.28159 0
M  V30 35824 N 4882.57 -3.48171 -5.56333 0
M  V30 35825 C 4883.15 -4.06869 -4.47212 0
M  V30 35826 H 4886.63 -5.39013 -3.70026 0
M  V30 35827 H 4888.11 -6.71916 -5.01943 0
M  V30 35828 H 4886.42 -7.45796 -6.94223 0
M  V30 35829 H 4886.23 -8.89416 -5.05237 0
M  V30 35830 H 4884.6 -8.14876 -5.18409 0
M  V30 35831 H 4885.44 -5.59989 -2.81362 0
M  V30 35832 H 4887.24 -3.27906 -5.43085 0
M  V30 35833 P 4889.09 -5.75688 -6.64379 0
M  V30 35834 O 4890.52 -6.07627 -7.05504 0
M  V30 35835 O 4888.73 -5.88047 -5.19722 0
M  V30 35836 O 4888.77 -4.2322 -7.04443 0
M  V30 35837 C 4888.61 -3.99743 -8.4911 0
M  V30 35838 C 4889.15 -2.60516 -8.79425 0
M  V30 35839 O 4888.1 -1.82684 -8.4467 0
M  V30 35840 C 4890.37 -2.10343 -8.03628 0
M  V30 35841 O 4891.11 -1.09919 -8.67766 0
M  V30 35842 C 4889.7 -1.68446 -6.70876 0
M  V30 35843 O 4890.5 -0.678137 -6.08433 0
M  V30 35844 C 4888.36 -1.17436 -7.18567 0
M  V30 35845 H 4888.4 -0.0804732 -7.31656 0
M  V30 35846 H 4889.58 -2.54037 -6.02537 0
M  V30 35847 H 4891.06 -2.93881 -7.85526 0
M  V30 35848 H 4889.37 -2.53065 -9.86973 0
M  V30 35849 H 4889.18 -4.75072 -9.05887 0
M  V30 35850 H 4887.55 -4.05244 -8.76668 0
M  V30 35851 H 4890.19 0.177647 -6.34251 0
M  V30 35852 P 4892.05 -1.25109 -8.70152 0
M  V30 35853 O 4893.47 -1.29744 -9.22016 0
M  V30 35854 O 4891.69 -2.13714 -7.55141 0
M  V30 35855 O 4891.72 0.248149 -8.21425 0
M  V30 35856 C 4891.56 1.22779 -9.30434 0
M  V30 35857 C 4892.1 2.56293 -8.80664 0
M  V30 35858 O 4891.05 3.02979 -8.09349 0
M  V30 35859 C 4893.32 2.57523 -7.89775 0
M  V30 35860 O 4894.06 3.7668 -7.89438 0
M  V30 35861 C 4892.65 2.20997 -6.55446 0
M  V30 35862 O 4893.45 2.71895 -5.48509 0
M  V30 35863 C 4891.31 2.89693 -6.67988 0
M  V30 35864 H 4891.35 3.88793 -6.19859 0
M  V30 35865 H 4892.53 1.12046 -6.44229 0
M  V30 35866 H 4894.01 1.7746 -8.19711 0
M  V30 35867 H 4892.32 3.20706 -9.67112 0
M  V30 35868 H 4892.13 0.901032 -10.1892 0
M  V30 35869 H 4890.5 1.33049 -9.56592 0
M  V30 35870 H 4893.14 3.57847 -5.23962 0
M  V30 35871 P 4895 3.65191 -7.99657 0
M  V30 35872 O 4896.42 3.89332 -8.45794 0
M  V30 35873 O 4894.64 2.28472 -7.50807 0
M  V30 35874 O 4894.67 4.64972 -6.77611 0
M  V30 35875 C 4894.51 6.06319 -7.16352 0
M  V30 35876 C 4895.05 6.91731 -6.02299 0
M  V30 35877 O 4894 6.92449 -5.17064 0
M  V30 35878 C 4896.27 6.43627 -5.25174 0
M  V30 35879 O 4897.01 7.43686 -4.60469 0
M  V30 35880 C 4895.6 5.40275 -4.31916 0
M  V30 35881 O 4896.4 5.25279 -3.14438 0
M  V30 35882 C 4894.26 6.04847 -4.05327 0
M  V30 35883 H 4894.3 6.62195 -3.11261 0
M  V30 35884 H 4895.48 4.42556 -4.81383 0
M  V30 35885 H 4896.96 5.92458 -5.93643 0
M  V30 35886 H 4895.27 7.92655 -6.402 0
M  V30 35887 H 4895.08 6.26671 -8.0846 0
M  V30 35888 H 4893.45 6.29101 -7.32804 0
M  V30 35889 H 4896.09 5.84315 -2.47318 0
M  V30 35890 P 4897.95 7.39546 -4.75277 0
M  V30 35891 O 4899.37 7.84798 -5.01039 0
M  V30 35892 O 4897.59 5.9812 -5.08098 0
M  V30 35893 O 4897.62 7.57503 -3.1866 0
M  V30 35894 C 4897.46 8.97357 -2.74833 0
M  V30 35895 C 4898 9.07548 -1.32709 0
M  V30 35896 O 4896.95 8.62072 -0.606159 0
M  V30 35897 C 4899.22 8.25383 -0.938334 0
M  V30 35898 O 4899.96 8.74577 0.146954 0
M  V30 35899 C 4898.55 6.8802 -0.712559 0
M  V30 35900 O 4899.35 6.1189 0.194655 0
M  V30 35901 C 4897.22 7.27966 -0.139777 0
M  V30 35902 H 4897.25 7.25354 0.961601 0
M  V30 35903 H 4898.43 6.32557 -1.65702 0
M  V30 35904 H 4899.91 8.19355 -1.79097 0
M  V30 35905 H 4898.22 10.1294 -1.10029 0
M  V30 35906 H 4898.03 9.64276 -3.41316 0
M  V30 35907 H 4896.4 9.25417 -2.76357 0
M  V30 35908 H 4899.04 6.25267 1.07847 0
M  V30 35909 P 4900.9 8.791 -3.37442e-10 0
M  V30 35910 O 4902.32 9.31296 0.027939 0
M  V30 35911 O 4900.54 7.77869 -1.04071 0
M  V30 35912 O 4900.57 8.09533 1.41463 0
M  V30 35913 C 4900.41 9.0349 2.53943 0
M  V30 35914 C 4900.95 8.35135 3.78975 0
M  V30 35915 O 4899.9 7.57992 4.15078 0
M  V30 35916 C 4902.17 7.45087 3.67298 0
M  V30 35917 O 4902.91 7.27796 4.85194 0
M  V30 35918 C 4901.5 6.17323 3.12027 0
M  V30 35919 O 4902.3 5.04149 3.47132 0
M  V30 35920 C 4900.17 6.19961 3.81809 0
M  V30 35921 N 4899.12 5.71575 2.93223 0
M  V30 35922 C 4899.18 5.97133 1.62693 0
M  V30 35923 N 4898.14 5.44066 0.984414 0
M  V30 35924 C 4897.41 4.87093 1.93987 0
M  V30 35925 C 4896.1 4.26449 1.8738 0
M  V30 35926 O 4895.37 4.1089 0.884377 0
M  V30 35927 N 4895.67 3.82483 3.08036 0
M  V30 35928 C 4896.42 3.95124 4.27727 0
M  V30 35929 N 4895.82 3.4084 5.39089 0
M  V30 35930 N 4897.57 4.55264 4.3706 0
M  V30 35931 C 4898.03 5.00861 3.18217 0
M  V30 35932 H 4900.2 5.58218 4.73051 0
M  V30 35933 H 4901.38 6.21631 2.02558 0
M  V30 35934 H 4902.87 7.85819 2.93096 0
M  V30 35935 H 4901.17 9.11627 4.55076 0
M  V30 35936 H 4900.98 9.9573 2.34194 0
M  V30 35937 H 4899.35 9.2792 2.67832 0
M  V30 35938 H 4894.77 3.38323 3.1329 0
M  V30 35939 H 4899.98 6.53891 1.14265 0
M  V30 35940 H 4894.91 2.93852 5.30559 0
M  V30 35941 H 4896.29 3.47631 6.30632 0
M  V30 35942 H 4901.99 4.67628 4.28704 0
M  V30 35943 P 4903.85 7.39546 4.75277 0
M  V30 35944 O 4905.27 7.81777 5.05738 0
M  V30 35945 O 4903.49 7.1065 3.32998 0
M  V30 35946 O 4903.52 6.04542 5.56673 0
M  V30 35947 C 4903.36 6.22772 7.02095 0
M  V30 35948 C 4903.9 4.97725 7.70406 0
M  V30 35949 O 4902.85 4.13256 7.58987 0
M  V30 35950 C 4905.12 4.28231 7.11815 0
M  V30 35951 O 4905.86 3.49945 8.01648 0
M  V30 35952 C 4904.45 3.5063 5.96244 0
M  V30 35953 O 4905.25 2.36482 5.64681 0
M  V30 35954 C 4903.12 3.15122 6.56374 0
M  V30 35955 H 4903.15 2.13853 6.99751 0
M  V30 35956 H 4904.33 4.13501 5.06559 0
M  V30 35957 H 4905.82 5.03285 6.70911 0
M  V30 35958 H 4904.12 5.20877 8.75697 0
M  V30 35959 H 4903.93 7.11046 7.35349 0
M  V30 35960 H 4902.3 6.35815 7.26986 0
M  V30 35961 H 4904.94 1.61644 6.13565 0
M  V30 35962 P 4906.8 3.65191 7.99657 0
M  V30 35963 O 4908.22 3.8425 8.48115 0
M  V30 35964 O 4906.44 4.17805 6.64342 0
M  V30 35965 O 4906.47 2.07613 7.95143 0
M  V30 35966 C 4906.31 1.44328 9.27336 0
M  V30 35967 C 4906.85 0.0220036 9.17197 0
M  V30 35968 O 4905.8 -0.626867 8.61923 0
M  V30 35969 C 4908.07 -0.24586 8.30336 0
M  V30 35970 O 4908.81 -1.39011 8.63583 0
M  V30 35971 C 4907.4 -0.273849 6.91158 0
M  V30 35972 O 4908.2 -1.06348 6.02892 0
M  V30 35973 C 4906.07 -0.897649 7.22545 0
M  V30 35974 H 4906.1 -1.9841 7.04286 0
M  V30 35975 H 4907.28 0.739928 6.497 0
M  V30 35976 H 4908.77 0.60668 8.36503 0
M  V30 35977 H 4907.07 -0.352479 10.1829 0
M  V30 35978 H 4906.88 2.00611 10.0304 0
M  V30 35979 H 4905.25 1.41843 9.55327 0
M  V30 35980 H 4907.89 -1.95734 6.03555 0
M  V30 35981 P 4909.75 -1.25109 8.70152 0
M  V30 35982 O 4911.17 -1.35274 9.21221 0
M  V30 35983 O 4909.39 -0.0769065 7.84762 0
M  V30 35984 O 4909.43 -2.55232 7.81161 0
M  V30 35985 C 4909.27 -3.79939 8.58154 0
M  V30 35986 C 4909.81 -4.94023 7.72785 0
M  V30 35987 O 4908.75 -5.18726 6.91205 0
M  V30 35988 C 4911.02 -4.69597 6.85231 0
M  V30 35989 O 4911.76 -5.83832 6.51337 0
M  V30 35990 C 4910.35 -3.96706 5.66633 0
M  V30 35991 O 4911.15 -4.15414 4.49689 0
M  V30 35992 C 4909.02 -4.66153 5.59313 0
M  V30 35993 H 4909.05 -5.47679 4.85214 0
M  V30 35994 H 4910.23 -2.89008 5.86566 0
M  V30 35995 H 4911.72 -4.0121 7.36511 0
M  V30 35996 H 4910.02 -5.80182 8.37584 0
M  V30 35997 H 4909.83 -3.73517 9.52265 0
M  V30 35998 H 4908.2 -3.97163 8.80359 0
M  V30 35999 H 4910.84 -4.90969 4.01921 0
M  V30 36000 P 4912.7 -5.75688 6.64379 0
M  V30 36001 O 4914.12 -6.11849 7.01846 0
M  V30 36002 O 4912.34 -4.30744 6.56026 0
M  V30 36003 O 4912.38 -6.37042 5.19165 0
M  V30 36004 C 4912.22 -7.83578 5.16515 0
M  V30 36005 C 4912.76 -8.33398 3.83019 0
M  V30 36006 O 4911.7 -8.10074 3.01034 0
M  V30 36007 C 4913.97 -7.65514 3.2257 0
M  V30 36008 O 4914.71 -8.4329 2.32297 0
M  V30 36009 C 4913.31 -6.40075 2.62207 0
M  V30 36010 O 4914.1 -5.92589 1.53712 0
M  V30 36011 C 4911.97 -6.9454 2.18503 0
M  V30 36012 H 4912 -7.23063 1.12091 0
M  V30 36013 H 4913.18 -5.6025 3.37201 0
M  V30 36014 H 4914.67 -7.35707 4.02681 0
M  V30 36015 H 4912.97 -9.40912 3.9095 0
M  V30 36016 H 4912.78 -8.29056 5.99158 0
M  V30 36017 H 4911.15 -8.10073 5.25882 0
M  V30 36018 H 4913.79 -6.30324 0.726794 0
M  V30 36019 P 4915.65 -8.4349 2.47671 0
M  V30 36020 O 4917.07 -8.94167 2.5964 0
M  V30 36021 O 4915.29 -7.1704 3.19006 0
M  V30 36022 O 4915.33 -8.16596 0.923387 0
M  V30 36023 C 4915.17 -9.38437 0.108857 0
M  V30 36024 C 4915.71 -9.08175 -1.28353 0
M  V30 36025 O 4914.65 -8.44229 -1.84713 0
M  V30 36026 C 4916.92 -8.18386 -1.42505 0
M  V30 36027 O 4917.66 -8.3501 -2.60497 0
M  V30 36028 C 4916.26 -6.80225 -1.25468 0
M  V30 36029 O 4917.05 -5.81621 -1.91066 0
M  V30 36030 C 4914.92 -7.02416 -1.9168 0
M  V30 36031 H 4914.95 -6.6888 -2.96621 0
M  V30 36032 H 4916.13 -6.53617 -0.192223 0
M  V30 36033 H 4917.62 -8.36622 -0.589963 0
M  V30 36034 H 4915.92 -10.0291 -1.79807 0
M  V30 36035 H 4915.73 -10.2138 0.558219 0
M  V30 36036 H 4914.1 -9.6579 0.0444202 0
M  V30 36037 H 4916.74 -5.69556 -2.79637 0
M  V30 36038 P 4918.6 -8.4349 -2.47671 0
M  V30 36039 O 4920.02 -8.92593 -2.65 0
M  V30 36040 O 4918.24 -7.7568 -1.19296 0
M  V30 36041 O 4918.28 -7.36886 -3.63805 0
M  V30 36042 C 4918.12 -7.95349 -4.982 0
M  V30 36043 C 4918.66 -6.94612 -5.98974 0
M  V30 36044 O 4917.6 -6.10347 -6.11815 0
M  V30 36045 C 4919.88 -6.11426 -5.62335 0
M  V30 36046 O 4920.61 -5.6162 -6.70584 0
M  V30 36047 C 4919.21 -5.04409 -4.73308 0
M  V30 36048 O 4920.01 -3.85992 -4.75183 0
M  V30 36049 C 4917.87 -4.8728 -5.41006 0
M  V30 36050 H 4917.9 -4.02333 -6.11157 0
M  V30 36051 H 4919.08 -5.39466 -3.69543 0
M  V30 36052 H 4920.57 -6.71916 -5.01943 0
M  V30 36053 H 4918.87 -7.4649 -6.93477 0
M  V30 36054 H 4918.68 -8.89416 -5.05237 0
M  V30 36055 H 4917.05 -8.14876 -5.18409 0
M  V30 36056 H 4919.69 -3.27957 -5.4317 0
M  V30 36057 P 4921.55 -5.75688 -6.64379 0
M  V30 36058 O 4922.97 -6.07627 -7.05504 0
M  V30 36059 O 4921.19 -5.88047 -5.19722 0
M  V30 36060 O 4921.23 -4.2322 -7.04443 0
M  V30 36061 C 4921.07 -3.99743 -8.4911 0
M  V30 36062 C 4921.61 -2.60516 -8.79425 0
M  V30 36063 O 4920.55 -1.82684 -8.4467 0
M  V30 36064 C 4922.83 -2.10343 -8.03628 0
M  V30 36065 O 4923.56 -1.09919 -8.67766 0
M  V30 36066 C 4922.16 -1.68446 -6.70876 0
M  V30 36067 O 4922.96 -0.678137 -6.08433 0
M  V30 36068 C 4920.82 -1.17436 -7.18567 0
M  V30 36069 H 4920.85 -0.0804732 -7.31656 0
M  V30 36070 H 4922.03 -2.54037 -6.02537 0
M  V30 36071 H 4923.52 -2.93881 -7.85526 0
M  V30 36072 H 4921.82 -2.53065 -9.86973 0
M  V30 36073 H 4921.63 -4.75072 -9.05887 0
M  V30 36074 H 4920 -4.05244 -8.76668 0
M  V30 36075 H 4922.64 0.177647 -6.34251 0
M  V30 36076 P 4924.5 -1.25109 -8.70152 0
M  V30 36077 O 4925.92 -1.29772 -9.22214 0
M  V30 36078 O 4924.14 -2.13714 -7.55141 0
M  V30 36079 O 4924.18 0.248149 -8.21425 0
M  V30 36080 C 4924.02 1.22779 -9.30434 0
M  V30 36081 C 4924.56 2.56265 -8.80568 0
M  V30 36082 O 4923.5 3.02979 -8.09349 0
M  V30 36083 C 4925.78 2.57523 -7.89775 0
M  V30 36084 O 4926.51 3.7668 -7.89438 0
M  V30 36085 C 4925.11 2.20997 -6.55446 0
M  V30 36086 O 4925.91 2.71851 -5.48419 0
M  V30 36087 C 4923.77 2.89693 -6.67988 0
M  V30 36088 N 4922.73 2.08895 -6.07487 0
M  V30 36089 C 4922.79 0.760559 -6.14209 0
M  V30 36090 N 4921.74 0.200108 -5.52538 0
M  V30 36091 C 4921.01 1.22692 -5.09742 0
M  V30 36092 C 4919.7 1.24782 -4.48775 0
M  V30 36093 O 4918.97 0.290617 -4.19294 0
M  V30 36094 N 4919.27 2.50468 -4.22428 0
M  V30 36095 C 4920.02 3.67142 -4.51974 0
M  V30 36096 N 4919.43 4.85096 -4.14091 0
M  V30 36097 N 4921.18 3.67821 -5.12831 0
M  V30 36098 C 4921.63 2.43698 -5.4105 0
M  V30 36099 H 4923.8 3.88793 -6.19859 0
M  V30 36100 H 4924.99 1.12029 -6.4413 0
M  V30 36101 H 4926.47 1.78279 -8.19533 0
M  V30 36102 H 4924.78 3.20706 -9.67112 0
M  V30 36103 H 4924.59 0.901032 -10.1892 0
M  V30 36104 H 4922.95 1.33049 -9.56592 0
M  V30 36105 H 4918.38 2.61953 -3.79465 0
M  V30 36106 H 4923.59 0.200439 -6.63497 0
M  V30 36107 H 4918.52 4.8334 -3.66367 0
M  V30 36108 H 4919.89 5.7474 -4.33841 0
M  V30 36109 H 4925.6 3.5779 -5.23879 0
M  V30 36110 P 4927.45 3.65191 -7.99657 0
M  V30 36111 O 4928.87 3.89332 -8.45794 0
M  V30 36112 O 4927.09 2.28472 -7.50807 0
M  V30 36113 O 4927.13 4.64972 -6.77611 0
M  V30 36114 C 4926.97 6.06319 -7.16352 0
M  V30 36115 C 4927.51 6.91731 -6.02299 0
M  V30 36116 O 4926.45 6.92449 -5.17064 0
M  V30 36117 C 4928.73 6.43627 -5.25174 0
M  V30 36118 O 4929.46 7.43686 -4.60469 0
M  V30 36119 C 4928.06 5.40275 -4.31916 0
M  V30 36120 O 4928.86 5.25279 -3.14438 0
M  V30 36121 C 4926.72 6.04847 -4.05327 0
M  V30 36122 H 4926.75 6.62195 -3.11261 0
M  V30 36123 H 4927.94 4.42556 -4.81383 0
M  V30 36124 H 4929.42 5.92458 -5.93643 0
M  V30 36125 H 4927.73 7.92655 -6.402 0
M  V30 36126 H 4927.54 6.26671 -8.0846 0
M  V30 36127 H 4925.91 6.29101 -7.32804 0
M  V30 36128 H 4928.54 5.84315 -2.47318 0
M  V30 36129 P 4930.4 7.39546 -4.75277 0
M  V30 36130 O 4931.82 7.84798 -5.01039 0
M  V30 36131 O 4930.04 5.9812 -5.08098 0
M  V30 36132 O 4930.08 7.57503 -3.1866 0
M  V30 36133 C 4929.92 8.97357 -2.74833 0
M  V30 36134 C 4930.46 9.07548 -1.32709 0
M  V30 36135 O 4929.4 8.62072 -0.606159 0
M  V30 36136 C 4931.68 8.25383 -0.938334 0
M  V30 36137 O 4932.42 8.74577 0.146954 0
M  V30 36138 C 4931.01 6.8802 -0.712559 0
M  V30 36139 O 4931.81 6.1189 0.194655 0
M  V30 36140 C 4929.67 7.27966 -0.139777 0
M  V30 36141 H 4929.7 7.25354 0.961601 0
M  V30 36142 H 4930.89 6.32557 -1.65702 0
M  V30 36143 H 4932.37 8.19355 -1.79097 0
M  V30 36144 H 4930.68 10.1294 -1.10029 0
M  V30 36145 H 4930.49 9.64276 -3.41316 0
M  V30 36146 H 4928.86 9.25417 -2.76357 0
M  V30 36147 H 4931.5 6.25267 1.07847 0
M  V30 36148 P 4933.35 8.791 -3.42629e-10 0
M  V30 36149 O 4934.78 9.31096 0.027933 0
M  V30 36150 O 4932.99 7.77869 -1.04071 0
M  V30 36151 O 4933.03 8.09533 1.41463 0
M  V30 36152 C 4932.87 9.0349 2.53943 0
M  V30 36153 C 4933.41 8.35226 3.79016 0
M  V30 36154 O 4932.35 7.57992 4.15078 0
M  V30 36155 C 4934.63 7.45087 3.67298 0
M  V30 36156 O 4935.37 7.27796 4.85194 0
M  V30 36157 C 4933.96 6.17323 3.12027 0
M  V30 36158 O 4934.76 5.04231 3.47188 0
M  V30 36159 C 4932.62 6.19961 3.81809 0
M  V30 36160 H 4932.65 5.58218 4.73051 0
M  V30 36161 H 4933.84 6.21726 2.02589 0
M  V30 36162 H 4935.32 7.86112 2.9231 0
M  V30 36163 H 4933.63 9.11627 4.55076 0
M  V30 36164 H 4933.44 9.9573 2.34194 0
M  V30 36165 H 4931.81 9.2792 2.67832 0
M  V30 36166 H 4934.45 4.67702 4.28772 0
M  V30 36167 P 4936.3 7.39546 4.75277 0
M  V30 36168 O 4937.72 7.81861 5.05793 0
M  V30 36169 O 4935.94 7.1065 3.32998 0
M  V30 36170 O 4935.98 6.04542 5.56673 0
M  V30 36171 C 4935.82 6.22839 7.02169 0
M  V30 36172 C 4936.36 4.97725 7.70406 0
M  V30 36173 O 4935.31 4.13208 7.58899 0
M  V30 36174 C 4937.58 4.28231 7.11815 0
M  V30 36175 O 4938.32 3.49945 8.01648 0
M  V30 36176 C 4936.91 3.5063 5.96244 0
M  V30 36177 O 4937.71 2.37008 5.64352 0
M  V30 36178 C 4935.57 3.15122 6.56374 0
M  V30 36179 N 4934.53 3.22311 5.55692 0
M  V30 36180 C 4934.7 3.99655 4.46046 0
M  V30 36181 N 4933.67 3.97599 3.63918 0
M  V30 36182 C 4932.79 3.11159 4.25334 0
M  V30 36183 C 4931.52 2.64972 3.85157 0
M  V30 36184 N 4930.95 1.78482 4.74759 0
M  V30 36185 C 4931.56 1.37463 5.90819 0
M  V30 36186 N 4932.73 1.7733 6.31889 0
M  V30 36187 C 4933.31 2.64393 5.43725 0
M  V30 36188 H 4936.79 4.12931 5.06895 0
M  V30 36189 H 4938.27 5.03285 6.70911 0
M  V30 36190 H 4936.58 5.20001 8.76217 0
M  V30 36191 H 4936.39 7.11046 7.35349 0
M  V30 36192 H 4934.76 6.35815 7.26986 0
M  V30 36193 H 4935.6 4.58037 4.27732 0
M  V30 36194 H 4937.4 1.61619 6.13468 0
M  V30 36195 P 4939.25 3.65191 7.99657 0
M  V30 36196 O 4940.68 3.8425 8.48115 0
M  V30 36197 O 4938.89 4.17805 6.64342 0
M  V30 36198 O 4938.93 2.07613 7.95143 0
M  V30 36199 C 4938.77 1.44328 9.27336 0
M  V30 36200 C 4939.31 0.0220036 9.17197 0
M  V30 36201 O 4938.26 -0.626867 8.61923 0
M  V30 36202 C 4940.53 -0.24586 8.30336 0
M  V30 36203 O 4941.27 -1.39011 8.63583 0
M  V30 36204 C 4939.86 -0.273849 6.91158 0
M  V30 36205 O 4940.66 -1.06348 6.02892 0
M  V30 36206 C 4938.52 -0.897649 7.22545 0
M  V30 36207 H 4938.56 -1.9841 7.04286 0
M  V30 36208 H 4939.74 0.739928 6.497 0
M  V30 36209 H 4941.22 0.60668 8.36503 0
M  V30 36210 H 4939.53 -0.352479 10.1829 0
M  V30 36211 H 4939.34 2.00611 10.0304 0
M  V30 36212 H 4937.71 1.41843 9.55327 0
M  V30 36213 H 4940.35 -1.95734 6.03555 0
M  V30 36214 P 4942.2 -1.25109 8.70152 0
M  V30 36215 O 4943.63 -1.35274 9.21221 0
M  V30 36216 O 4941.84 -0.0769065 7.84762 0
M  V30 36217 O 4941.88 -2.55232 7.81161 0
M  V30 36218 C 4941.72 -3.79939 8.58154 0
M  V30 36219 C 4942.26 -4.94023 7.72785 0
M  V30 36220 O 4941.21 -5.18726 6.91205 0
M  V30 36221 C 4943.48 -4.69597 6.85231 0
M  V30 36222 O 4944.22 -5.83832 6.51337 0
M  V30 36223 C 4942.81 -3.96706 5.66633 0
M  V30 36224 O 4943.61 -4.15414 4.49689 0
M  V30 36225 C 4941.47 -4.66153 5.59313 0
M  V30 36226 H 4941.51 -5.47679 4.85214 0
M  V30 36227 H 4942.69 -2.89008 5.86566 0
M  V30 36228 H 4944.17 -4.0121 7.36511 0
M  V30 36229 H 4942.48 -5.80182 8.37584 0
M  V30 36230 H 4942.29 -3.73517 9.52265 0
M  V30 36231 H 4940.66 -3.97163 8.80359 0
M  V30 36232 H 4943.3 -4.90969 4.01921 0
M  V30 36233 P 4945.16 -5.75688 6.64379 0
M  V30 36234 O 4946.58 -6.11849 7.01846 0
M  V30 36235 O 4944.8 -4.30744 6.56026 0
M  V30 36236 O 4944.83 -6.37042 5.19165 0
M  V30 36237 C 4944.67 -7.83578 5.16515 0
M  V30 36238 C 4945.21 -8.33398 3.83019 0
M  V30 36239 O 4944.16 -8.10074 3.01034 0
M  V30 36240 C 4946.43 -7.65514 3.2257 0
M  V30 36241 O 4947.17 -8.4329 2.32297 0
M  V30 36242 C 4945.76 -6.40075 2.62207 0
M  V30 36243 O 4946.56 -5.92589 1.53712 0
M  V30 36244 C 4944.42 -6.9454 2.18503 0
M  V30 36245 H 4944.46 -7.23063 1.12091 0
M  V30 36246 H 4945.64 -5.6025 3.37201 0
M  V30 36247 H 4947.12 -7.35707 4.02681 0
M  V30 36248 H 4945.43 -9.40912 3.9095 0
M  V30 36249 H 4945.24 -8.29056 5.99158 0
M  V30 36250 H 4943.61 -8.10073 5.25882 0
M  V30 36251 H 4946.25 -6.30324 0.726794 0
M  V30 36252 P 4948.11 -8.4349 2.47671 0
M  V30 36253 O 4949.53 -8.94167 2.5964 0
M  V30 36254 O 4947.75 -7.1704 3.19006 0
M  V30 36255 O 4947.78 -8.16596 0.923387 0
M  V30 36256 C 4947.62 -9.38437 0.108857 0
M  V30 36257 C 4948.16 -9.08175 -1.28353 0
M  V30 36258 O 4947.11 -8.44229 -1.84713 0
M  V30 36259 C 4949.38 -8.18386 -1.42505 0
M  V30 36260 O 4950.12 -8.3501 -2.60497 0
M  V30 36261 C 4948.71 -6.80225 -1.25468 0
M  V30 36262 O 4949.51 -5.81621 -1.91066 0
M  V30 36263 C 4947.37 -7.02416 -1.9168 0
M  V30 36264 H 4947.41 -6.6888 -2.96621 0
M  V30 36265 H 4948.59 -6.53617 -0.192223 0
M  V30 36266 H 4950.07 -8.36622 -0.589963 0
M  V30 36267 H 4948.38 -10.0291 -1.79807 0
M  V30 36268 H 4948.19 -10.2138 0.558219 0
M  V30 36269 H 4946.56 -9.6579 0.0444202 0
M  V30 36270 H 4949.2 -5.69556 -2.79637 0
M  V30 36271 P 4951.06 -8.4349 -2.47671 0
M  V30 36272 O 4952.48 -8.92593 -2.65 0
M  V30 36273 O 4950.7 -7.7568 -1.19296 0
M  V30 36274 O 4950.73 -7.36886 -3.63805 0
M  V30 36275 C 4950.57 -7.95349 -4.982 0
M  V30 36276 C 4951.11 -6.94612 -5.98974 0
M  V30 36277 O 4950.06 -6.10347 -6.11815 0
M  V30 36278 C 4952.33 -6.11426 -5.62335 0
M  V30 36279 O 4953.07 -5.6162 -6.70584 0
M  V30 36280 C 4951.66 -5.04409 -4.73308 0
M  V30 36281 O 4952.46 -3.85992 -4.75183 0
M  V30 36282 C 4950.33 -4.8728 -5.41006 0
M  V30 36283 H 4950.36 -4.02333 -6.11157 0
M  V30 36284 H 4951.54 -5.39466 -3.69543 0
M  V30 36285 H 4953.02 -6.71916 -5.01943 0
M  V30 36286 H 4951.33 -7.4649 -6.93477 0
M  V30 36287 H 4951.14 -8.89416 -5.05237 0
M  V30 36288 H 4949.51 -8.14876 -5.18409 0
M  V30 36289 H 4952.15 -3.27957 -5.4317 0
M  V30 36290 P 4954.01 -5.75688 -6.64379 0
M  V30 36291 O 4955.43 -6.07627 -7.05504 0
M  V30 36292 O 4953.65 -5.88047 -5.19722 0
M  V30 36293 O 4953.68 -4.2322 -7.04443 0
M  V30 36294 C 4953.52 -3.99743 -8.4911 0
M  V30 36295 C 4954.06 -2.60516 -8.79425 0
M  V30 36296 O 4953.01 -1.82684 -8.4467 0
M  V30 36297 C 4955.28 -2.10343 -8.03628 0
M  V30 36298 O 4956.02 -1.09919 -8.67766 0
M  V30 36299 C 4954.61 -1.68446 -6.70876 0
M  V30 36300 O 4955.41 -0.678137 -6.08433 0
M  V30 36301 C 4953.28 -1.17436 -7.18567 0
M  V30 36302 H 4953.31 -0.0804732 -7.31656 0
M  V30 36303 H 4954.49 -2.54037 -6.02537 0
M  V30 36304 H 4955.98 -2.93881 -7.85526 0
M  V30 36305 H 4954.28 -2.53065 -9.86973 0
M  V30 36306 H 4954.09 -4.75072 -9.05887 0
M  V30 36307 H 4952.46 -4.05244 -8.76668 0
M  V30 36308 H 4955.1 0.177647 -6.34251 0
M  V30 36309 P 4956.96 -1.25109 -8.70152 0
M  V30 36310 O 4958.38 -1.29758 -9.22115 0
M  V30 36311 O 4956.6 -2.13714 -7.55141 0
M  V30 36312 O 4956.63 0.248149 -8.21425 0
M  V30 36313 C 4956.47 1.22792 -9.30533 0
M  V30 36314 C 4957.01 2.56293 -8.80664 0
M  V30 36315 O 4955.96 3.02944 -8.09255 0
M  V30 36316 C 4958.23 2.57523 -7.89775 0
M  V30 36317 O 4958.97 3.7668 -7.89438 0
M  V30 36318 C 4957.56 2.20997 -6.55446 0
M  V30 36319 O 4958.36 2.71302 -5.48691 0
M  V30 36320 C 4956.23 2.89693 -6.67988 0
M  V30 36321 N 4955.18 2.08895 -6.07487 0
M  V30 36322 C 4955.35 0.753809 -5.94137 0
M  V30 36323 N 4954.33 0.146592 -5.38801 0
M  V30 36324 C 4953.44 1.1768 -5.13693 0
M  V30 36325 C 4952.17 1.17563 -4.52477 0
M  V30 36326 N 4951.61 2.41918 -4.45789 0
M  V30 36327 C 4952.21 3.56493 -4.90792 0
M  V30 36328 N 4953.39 3.61423 -5.47817 0
M  V30 36329 C 4953.96 2.37779 -5.5588 0
M  V30 36330 H 4957.44 1.12673 -6.44018 0
M  V30 36331 H 4958.92 1.7746 -8.19711 0
M  V30 36332 H 4957.23 3.21673 -9.66791 0
M  V30 36333 H 4957.04 0.901032 -10.1892 0
M  V30 36334 H 4955.41 1.33049 -9.56592 0
M  V30 36335 H 4956.25 0.233081 -6.26266 0
M  V30 36336 H 4958.05 3.5779 -5.23879 0
M  V30 36337 P 4959.91 3.65191 -7.99657 0
M  V30 36338 O 4961.33 3.89332 -8.45794 0
M  V30 36339 O 4959.55 2.28472 -7.50807 0
M  V30 36340 O 4959.59 4.64972 -6.77611 0
M  V30 36341 C 4959.43 6.06319 -7.16352 0
M  V30 36342 C 4959.97 6.91731 -6.02299 0
M  V30 36343 O 4958.91 6.92449 -5.17064 0
M  V30 36344 C 4961.18 6.43627 -5.25174 0
M  V30 36345 O 4961.92 7.43686 -4.60469 0
M  V30 36346 C 4960.51 5.40275 -4.31916 0
M  V30 36347 O 4961.31 5.25279 -3.14438 0
M  V30 36348 C 4959.18 6.04847 -4.05327 0
M  V30 36349 H 4959.21 6.62195 -3.11261 0
M  V30 36350 H 4960.39 4.42556 -4.81383 0
M  V30 36351 H 4961.88 5.92458 -5.93643 0
M  V30 36352 H 4960.18 7.92655 -6.402 0
M  V30 36353 H 4959.99 6.26671 -8.0846 0
M  V30 36354 H 4958.36 6.29101 -7.32804 0
M  V30 36355 H 4961 5.84315 -2.47318 0
M  V30 36356 P 4962.86 7.39546 -4.75277 0
M  V30 36357 O 4964.28 7.84798 -5.01039 0
M  V30 36358 O 4962.5 5.9812 -5.08098 0
M  V30 36359 O 4962.54 7.57503 -3.1866 0
M  V30 36360 C 4962.38 8.97357 -2.74833 0
M  V30 36361 C 4962.92 9.07548 -1.32709 0
M  V30 36362 O 4961.86 8.62072 -0.606159 0
M  V30 36363 C 4964.13 8.25383 -0.938334 0
M  V30 36364 O 4964.87 8.74577 0.146954 0
M  V30 36365 C 4963.46 6.8802 -0.712559 0
M  V30 36366 O 4964.26 6.1189 0.194655 0
M  V30 36367 C 4962.13 7.27966 -0.139777 0
M  V30 36368 H 4962.16 7.25354 0.961601 0
M  V30 36369 H 4963.34 6.32557 -1.65702 0
M  V30 36370 H 4964.83 8.19355 -1.79097 0
M  V30 36371 H 4963.13 10.1294 -1.10029 0
M  V30 36372 H 4962.94 9.64276 -3.41316 0
M  V30 36373 H 4961.31 9.25417 -2.76357 0
M  V30 36374 H 4963.95 6.25267 1.07847 0
M  V30 36375 P 4965.81 8.791 -3.47816e-10 0
M  V30 36376 O 4967.23 9.31096 0.027933 0
M  V30 36377 O 4965.45 7.77869 -1.04071 0
M  V30 36378 O 4965.49 8.09533 1.41463 0
M  V30 36379 C 4965.33 9.0349 2.53943 0
M  V30 36380 C 4965.87 8.35226 3.79016 0
M  V30 36381 O 4964.81 7.57992 4.15078 0
M  V30 36382 C 4967.08 7.45087 3.67298 0
M  V30 36383 O 4967.82 7.27796 4.85194 0
M  V30 36384 C 4966.42 6.17323 3.12027 0
M  V30 36385 O 4967.21 5.04231 3.47188 0
M  V30 36386 C 4965.08 6.19961 3.81809 0
M  V30 36387 H 4965.11 5.58218 4.73051 0
M  V30 36388 H 4966.29 6.21726 2.02589 0
M  V30 36389 H 4967.78 7.86112 2.9231 0
M  V30 36390 H 4966.08 9.11627 4.55076 0
M  V30 36391 H 4965.89 9.9573 2.34194 0
M  V30 36392 H 4964.26 9.2792 2.67832 0
M  V30 36393 H 4966.9 4.67702 4.28772 0
M  V30 36394 P 4968.76 7.39546 4.75277 0
M  V30 36395 O 4970.18 7.81777 5.05738 0
M  V30 36396 O 4968.4 7.1065 3.32998 0
M  V30 36397 O 4968.44 6.04542 5.56673 0
M  V30 36398 C 4968.28 6.22772 7.02095 0
M  V30 36399 C 4968.82 4.97725 7.70406 0
M  V30 36400 O 4967.76 4.13256 7.58987 0
M  V30 36401 C 4970.03 4.28231 7.11815 0
M  V30 36402 O 4970.77 3.49945 8.01648 0
M  V30 36403 C 4969.37 3.5063 5.96244 0
M  V30 36404 O 4970.16 2.36482 5.64681 0
M  V30 36405 C 4968.03 3.15122 6.56374 0
M  V30 36406 H 4968.06 2.13853 6.99751 0
M  V30 36407 H 4969.24 4.13501 5.06559 0
M  V30 36408 H 4970.73 5.03285 6.70911 0
M  V30 36409 H 4969.03 5.20877 8.75697 0
M  V30 36410 H 4968.84 7.11046 7.35349 0
M  V30 36411 H 4967.21 6.35815 7.26986 0
M  V30 36412 H 4969.85 1.61644 6.13565 0
M  V30 36413 P 4971.71 3.65191 7.99657 0
M  V30 36414 O 4973.13 3.84333 8.48297 0
M  V30 36415 O 4971.35 4.17805 6.64342 0
M  V30 36416 O 4971.39 2.07613 7.95143 0
M  V30 36417 C 4971.23 1.44328 9.27336 0
M  V30 36418 C 4971.77 0.0220012 9.17097 0
M  V30 36419 O 4970.71 -0.626867 8.61923 0
M  V30 36420 C 4972.99 -0.24586 8.30336 0
M  V30 36421 O 4973.72 -1.39011 8.63583 0
M  V30 36422 C 4972.32 -0.273849 6.91158 0
M  V30 36423 O 4973.12 -1.06331 6.02794 0
M  V30 36424 C 4970.98 -0.897649 7.22545 0
M  V30 36425 N 4969.94 -0.292839 6.41732 0
M  V30 36426 C 4970 1.00068 6.10757 0
M  V30 36427 N 4968.95 1.36468 5.35794 0
M  V30 36428 C 4968.22 0.258894 5.2366 0
M  V30 36429 C 4966.91 0.0670682 4.65752 0
M  V30 36430 O 4966.18 0.902443 4.10497 0
M  V30 36431 N 4966.48 -1.2131 4.75881 0
M  V30 36432 C 4967.23 -2.24934 5.37101 0
M  V30 36433 N 4966.64 -3.48783 5.33984 0
M  V30 36434 N 4968.39 -2.0844 5.95684 0
M  V30 36435 C 4968.84 -0.81395 5.87791 0
M  V30 36436 H 4971.01 -1.9841 7.04286 0
M  V30 36437 H 4972.19 0.739815 6.49601 0
M  V30 36438 H 4973.68 0.598315 8.36563 0
M  V30 36439 H 4971.98 -0.352479 10.1829 0
M  V30 36440 H 4971.79 2.00611 10.0304 0
M  V30 36441 H 4970.16 1.41843 9.55327 0
M  V30 36442 H 4965.59 -1.44434 4.37895 0
M  V30 36443 H 4970.79 1.67697 6.42268 0
M  V30 36444 H 4965.72 -3.60543 4.87699 0
M  V30 36445 H 4967.1 -4.29232 5.7819 0
M  V30 36446 H 4972.8 -1.95704 6.0346 0
M  V30 36447 P 4974.66 -1.25109 8.70152 0
M  V30 36448 O 4976.08 -1.35274 9.21221 0
M  V30 36449 O 4974.3 -0.0769065 7.84762 0
M  V30 36450 O 4974.34 -2.55232 7.81161 0
M  V30 36451 C 4974.18 -3.79939 8.58154 0
M  V30 36452 C 4974.72 -4.94023 7.72785 0
M  V30 36453 O 4973.66 -5.18726 6.91205 0
M  V30 36454 C 4975.94 -4.69597 6.85231 0
M  V30 36455 O 4976.67 -5.83832 6.51337 0
M  V30 36456 C 4975.27 -3.96706 5.66633 0
M  V30 36457 O 4976.07 -4.15414 4.49689 0
M  V30 36458 C 4973.93 -4.66153 5.59313 0
M  V30 36459 H 4973.96 -5.47679 4.85214 0
M  V30 36460 H 4975.15 -2.89008 5.86566 0
M  V30 36461 H 4976.63 -4.0121 7.36511 0
M  V30 36462 H 4974.94 -5.80182 8.37584 0
M  V30 36463 H 4974.75 -3.73517 9.52265 0
M  V30 36464 H 4973.12 -3.97163 8.80359 0
M  V30 36465 H 4975.75 -4.90969 4.01921 0
M  V30 36466 P 4977.61 -5.75688 6.64379 0
M  V30 36467 O 4979.03 -6.11849 7.01846 0
M  V30 36468 O 4977.25 -4.30744 6.56026 0
M  V30 36469 O 4977.29 -6.37042 5.19165 0
M  V30 36470 C 4977.13 -7.83578 5.16515 0
M  V30 36471 C 4977.67 -8.33398 3.83019 0
M  V30 36472 O 4976.61 -8.10074 3.01034 0
M  V30 36473 C 4978.89 -7.65514 3.2257 0
M  V30 36474 O 4979.62 -8.4329 2.32297 0
M  V30 36475 C 4978.22 -6.40075 2.62207 0
M  V30 36476 O 4979.02 -5.92589 1.53712 0
M  V30 36477 C 4976.88 -6.9454 2.18503 0
M  V30 36478 H 4976.91 -7.23063 1.12091 0
M  V30 36479 H 4978.1 -5.6025 3.37201 0
M  V30 36480 H 4979.58 -7.35707 4.02681 0
M  V30 36481 H 4977.89 -9.40912 3.9095 0
M  V30 36482 H 4977.7 -8.29056 5.99158 0
M  V30 36483 H 4976.07 -8.10073 5.25882 0
M  V30 36484 H 4978.7 -6.30324 0.726794 0
M  V30 36485 P 4980.56 -8.4349 2.47671 0
M  V30 36486 O 4981.98 -8.94263 2.59668 0
M  V30 36487 O 4980.2 -7.1704 3.19006 0
M  V30 36488 O 4980.24 -8.16596 0.923387 0
M  V30 36489 C 4980.08 -9.38537 0.108869 0
M  V30 36490 C 4980.62 -9.08175 -1.28353 0
M  V30 36491 O 4979.56 -8.44131 -1.84692 0
M  V30 36492 C 4981.84 -8.18386 -1.42505 0
M  V30 36493 O 4982.58 -8.3501 -2.60497 0
M  V30 36494 C 4981.17 -6.80225 -1.25468 0
M  V30 36495 O 4981.97 -5.81716 -1.90454 0
M  V30 36496 C 4979.83 -7.02416 -1.9168 0
M  V30 36497 N 4978.79 -6.31033 -1.20314 0
M  V30 36498 C 4978.96 -5.98817 0.0994088 0
M  V30 36499 N 4977.93 -5.35403 0.621694 0
M  V30 36500 C 4977.05 -5.25212 -0.43376 0
M  V30 36501 C 4975.78 -4.64602 -0.519722 0
M  V30 36502 N 4975.21 -4.7568 -1.76013 0
M  V30 36503 C 4975.82 -5.3653 -2.83017 0
M  V30 36504 N 4976.99 -5.93676 -2.79782 0
M  V30 36505 C 4977.57 -5.84061 -1.56249 0
M  V30 36506 H 4981.05 -6.53498 -0.198729 0
M  V30 36507 H 4982.53 -8.36622 -0.589963 0
M  V30 36508 H 4980.84 -10.0273 -1.8081 0
M  V30 36509 H 4980.65 -10.2138 0.558219 0
M  V30 36510 H 4979.02 -9.6579 0.0444202 0
M  V30 36511 H 4979.86 -6.23209 0.660562 0
M  V30 36512 H 4981.66 -5.69466 -2.79593 0
M  V30 36513 P 4983.51 -8.4349 -2.47671 0
M  V30 36514 O 4984.93 -8.92593 -2.65 0
M  V30 36515 O 4983.15 -7.7568 -1.19296 0
M  V30 36516 O 4983.19 -7.36886 -3.63805 0
M  V30 36517 C 4983.03 -7.95349 -4.982 0
M  V30 36518 C 4983.57 -6.94612 -5.98974 0
M  V30 36519 O 4982.51 -6.10347 -6.11815 0
M  V30 36520 C 4984.79 -6.11426 -5.62335 0
M  V30 36521 O 4985.53 -5.6162 -6.70584 0
M  V30 36522 C 4984.12 -5.04409 -4.73308 0
M  V30 36523 O 4984.92 -3.85992 -4.75183 0
M  V30 36524 C 4982.78 -4.8728 -5.41006 0
M  V30 36525 H 4982.81 -4.02333 -6.11157 0
M  V30 36526 H 4984 -5.39466 -3.69543 0
M  V30 36527 H 4985.48 -6.71916 -5.01943 0
M  V30 36528 H 4983.79 -7.4649 -6.93477 0
M  V30 36529 H 4983.6 -8.89416 -5.05237 0
M  V30 36530 H 4981.97 -8.14876 -5.18409 0
M  V30 36531 H 4984.61 -3.27957 -5.4317 0
M  V30 36532 P 4986.46 -5.75688 -6.64379 0
M  V30 36533 O 4987.89 -6.07627 -7.05504 0
M  V30 36534 O 4986.1 -5.88047 -5.19722 0
M  V30 36535 O 4986.14 -4.2322 -7.04443 0
M  V30 36536 C 4985.98 -3.99743 -8.4911 0
M  V30 36537 C 4986.52 -2.60516 -8.79425 0
M  V30 36538 O 4985.46 -1.82684 -8.4467 0
M  V30 36539 C 4987.74 -2.10343 -8.03628 0
M  V30 36540 O 4988.48 -1.09919 -8.67766 0
M  V30 36541 C 4987.07 -1.68446 -6.70876 0
M  V30 36542 O 4987.87 -0.678137 -6.08433 0
M  V30 36543 C 4985.73 -1.17436 -7.18567 0
M  V30 36544 H 4985.76 -0.0804732 -7.31656 0
M  V30 36545 H 4986.95 -2.54037 -6.02537 0
M  V30 36546 H 4988.43 -2.93881 -7.85526 0
M  V30 36547 H 4986.74 -2.53065 -9.86973 0
M  V30 36548 H 4986.55 -4.75072 -9.05887 0
M  V30 36549 H 4984.92 -4.05244 -8.76668 0
M  V30 36550 H 4987.56 0.177647 -6.34251 0
M  V30 36551 P 4989.41 -1.25109 -8.70152 0
M  V30 36552 O 4990.84 -1.29744 -9.22016 0
M  V30 36553 O 4989.05 -2.13714 -7.55141 0
M  V30 36554 O 4989.09 0.248149 -8.21425 0
M  V30 36555 C 4988.93 1.22779 -9.30434 0
M  V30 36556 C 4989.47 2.56293 -8.80664 0
M  V30 36557 O 4988.41 3.02979 -8.09349 0
M  V30 36558 C 4990.69 2.57523 -7.89775 0
M  V30 36559 O 4991.43 3.7668 -7.89438 0
M  V30 36560 C 4990.02 2.20997 -6.55446 0
M  V30 36561 O 4990.82 2.71895 -5.48509 0
M  V30 36562 C 4988.68 2.89693 -6.67988 0
M  V30 36563 H 4988.71 3.88793 -6.19859 0
M  V30 36564 H 4989.9 1.12046 -6.44229 0
M  V30 36565 H 4991.38 1.7746 -8.19711 0
M  V30 36566 H 4989.69 3.20706 -9.67112 0
M  V30 36567 H 4989.5 0.901032 -10.1892 0
M  V30 36568 H 4987.87 1.33049 -9.56592 0
M  V30 36569 H 4990.51 3.57847 -5.23962 0
M  V30 36570 P 4992.36 3.65191 -7.99657 0
M  V30 36571 O 4993.79 3.89332 -8.45794 0
M  V30 36572 O 4992 2.28472 -7.50807 0
M  V30 36573 O 4992.04 4.64972 -6.77611 0
M  V30 36574 C 4991.88 6.06319 -7.16352 0
M  V30 36575 C 4992.42 6.91731 -6.02299 0
M  V30 36576 O 4991.37 6.92449 -5.17064 0
M  V30 36577 C 4993.64 6.43627 -5.25174 0
M  V30 36578 O 4994.38 7.43686 -4.60469 0
M  V30 36579 C 4992.97 5.40275 -4.31916 0
M  V30 36580 O 4993.77 5.25279 -3.14438 0
M  V30 36581 C 4991.63 6.04847 -4.05327 0
M  V30 36582 H 4991.67 6.62195 -3.11261 0
M  V30 36583 H 4992.85 4.42556 -4.81383 0
M  V30 36584 H 4994.33 5.92458 -5.93643 0
M  V30 36585 H 4992.64 7.92655 -6.402 0
M  V30 36586 H 4992.45 6.26671 -8.0846 0
M  V30 36587 H 4990.82 6.29101 -7.32804 0
M  V30 36588 H 4993.46 5.84315 -2.47318 0
M  V30 36589 P 4995.32 7.39546 -4.75277 0
M  V30 36590 O 4996.74 7.84798 -5.01039 0
M  V30 36591 O 4994.96 5.9812 -5.08098 0
M  V30 36592 O 4994.99 7.57503 -3.1866 0
M  V30 36593 C 4994.83 8.97357 -2.74833 0
M  V30 36594 C 4995.37 9.07548 -1.32709 0
M  V30 36595 O 4994.32 8.62072 -0.606159 0
M  V30 36596 C 4996.59 8.25383 -0.938334 0
M  V30 36597 O 4997.33 8.74577 0.146954 0
M  V30 36598 C 4995.92 6.8802 -0.712559 0
M  V30 36599 O 4996.72 6.1189 0.194655 0
M  V30 36600 C 4994.58 7.27966 -0.139777 0
M  V30 36601 H 4994.62 7.25354 0.961601 0
M  V30 36602 H 4995.8 6.32557 -1.65702 0
M  V30 36603 H 4997.28 8.19355 -1.79097 0
M  V30 36604 H 4995.59 10.1294 -1.10029 0
M  V30 36605 H 4995.4 9.64276 -3.41316 0
M  V30 36606 H 4993.77 9.25417 -2.76357 0
M  V30 36607 H 4996.41 6.25267 1.07847 0
M  V30 36608 P 4998.27 8.791 -3.53002e-10 0
M  V30 36609 O 4999.69 9.31096 0.027933 0
M  V30 36610 O 4997.91 7.77869 -1.04071 0
M  V30 36611 O 4997.94 8.09533 1.41463 0
M  V30 36612 C 4997.78 9.0349 2.53943 0
M  V30 36613 C 4998.32 8.35226 3.79016 0
M  V30 36614 O 4997.27 7.57992 4.15078 0
M  V30 36615 C 4999.54 7.45087 3.67298 0
M  V30 36616 O 5000.28 7.27796 4.85194 0
M  V30 36617 C 4998.87 6.17323 3.12027 0
M  V30 36618 O 4999.67 5.04231 3.47188 0
M  V30 36619 C 4997.53 6.19961 3.81809 0
M  V30 36620 H 4997.57 5.58218 4.73051 0
M  V30 36621 H 4998.75 6.21726 2.02589 0
M  V30 36622 H 5000.23 7.86112 2.9231 0
M  V30 36623 H 4998.54 9.11627 4.55076 0
M  V30 36624 H 4998.35 9.9573 2.34194 0
M  V30 36625 H 4996.72 9.2792 2.67832 0
M  V30 36626 H 4999.36 4.67702 4.28772 0
M  V30 36627 P 5001.22 7.39546 4.75277 0
M  V30 36628 O 5002.64 7.81777 5.05738 0
M  V30 36629 O 5000.86 7.1065 3.32998 0
M  V30 36630 O 5000.89 6.04542 5.56673 0
M  V30 36631 C 5000.73 6.22772 7.02095 0
M  V30 36632 C 5001.27 4.97725 7.70406 0
M  V30 36633 O 5000.22 4.13256 7.58987 0
M  V30 36634 C 5002.49 4.28231 7.11815 0
M  V30 36635 O 5003.23 3.49945 8.01648 0
M  V30 36636 C 5001.82 3.5063 5.96244 0
M  V30 36637 O 5002.62 2.36482 5.64681 0
M  V30 36638 C 5000.49 3.15122 6.56374 0
M  V30 36639 H 5000.52 2.13853 6.99751 0
M  V30 36640 H 5001.7 4.13501 5.06559 0
M  V30 36641 H 5003.18 5.03285 6.70911 0
M  V30 36642 H 5001.49 5.20877 8.75697 0
M  V30 36643 H 5001.3 7.11046 7.35349 0
M  V30 36644 H 4999.67 6.35815 7.26986 0
M  V30 36645 H 5002.31 1.61644 6.13565 0
M  V30 36646 P 5004.17 3.65191 7.99657 0
M  V30 36647 O 5005.59 3.8425 8.48115 0
M  V30 36648 O 5003.81 4.17805 6.64342 0
M  V30 36649 O 5003.84 2.07613 7.95143 0
M  V30 36650 C 5003.68 1.44328 9.27336 0
M  V30 36651 C 5004.22 0.0220036 9.17197 0
M  V30 36652 O 5003.17 -0.626867 8.61923 0
M  V30 36653 C 5005.44 -0.24586 8.30336 0
M  V30 36654 O 5006.18 -1.39011 8.63583 0
M  V30 36655 C 5004.77 -0.273849 6.91158 0
M  V30 36656 O 5005.57 -1.06348 6.02892 0
M  V30 36657 C 5003.44 -0.897649 7.22545 0
M  V30 36658 H 5003.47 -1.9841 7.04286 0
M  V30 36659 H 5004.65 0.739928 6.497 0
M  V30 36660 H 5006.13 0.60668 8.36503 0
M  V30 36661 H 5004.44 -0.352479 10.1829 0
M  V30 36662 H 5004.25 2.00611 10.0304 0
M  V30 36663 H 5002.62 1.41843 9.55327 0
M  V30 36664 H 5005.26 -1.95734 6.03555 0
M  V30 36665 P 5007.12 -1.25109 8.70152 0
M  V30 36666 O 5008.54 -1.35274 9.21221 0
M  V30 36667 O 5006.76 -0.0769065 7.84762 0
M  V30 36668 O 5006.79 -2.55232 7.81161 0
M  V30 36669 C 5006.63 -3.79939 8.58154 0
M  V30 36670 C 5007.17 -4.94023 7.72785 0
M  V30 36671 O 5006.12 -5.18726 6.91205 0
M  V30 36672 C 5008.39 -4.69597 6.85231 0
M  V30 36673 O 5009.13 -5.83832 6.51337 0
M  V30 36674 C 5007.72 -3.96706 5.66633 0
M  V30 36675 O 5008.52 -4.15414 4.49689 0
M  V30 36676 C 5006.39 -4.66153 5.59313 0
M  V30 36677 H 5006.42 -5.47679 4.85214 0
M  V30 36678 H 5007.6 -2.89008 5.86566 0
M  V30 36679 H 5009.09 -4.0121 7.36511 0
M  V30 36680 H 5007.39 -5.80182 8.37584 0
M  V30 36681 H 5007.2 -3.73517 9.52265 0
M  V30 36682 H 5005.57 -3.97163 8.80359 0
M  V30 36683 H 5008.21 -4.90969 4.01921 0
M  V30 36684 P 5010.07 -5.75688 6.64379 0
M  V30 36685 O 5011.49 -6.11849 7.01846 0
M  V30 36686 O 5009.71 -4.30744 6.56026 0
M  V30 36687 O 5009.74 -6.37042 5.19165 0
M  V30 36688 C 5009.58 -7.83578 5.16515 0
M  V30 36689 C 5010.12 -8.33398 3.83019 0
M  V30 36690 O 5009.07 -8.10074 3.01034 0
M  V30 36691 C 5011.34 -7.65514 3.2257 0
M  V30 36692 O 5012.08 -8.4329 2.32297 0
M  V30 36693 C 5010.67 -6.40075 2.62207 0
M  V30 36694 O 5011.47 -5.92589 1.53712 0
M  V30 36695 C 5009.34 -6.9454 2.18503 0
M  V30 36696 H 5009.37 -7.23063 1.12091 0
M  V30 36697 H 5010.55 -5.6025 3.37201 0
M  V30 36698 H 5012.04 -7.35707 4.02681 0
M  V30 36699 H 5010.34 -9.40912 3.9095 0
M  V30 36700 H 5010.15 -8.29056 5.99158 0
M  V30 36701 H 5008.52 -8.10073 5.25882 0
M  V30 36702 H 5011.16 -6.30324 0.726794 0
M  V30 36703 P 5013.02 -8.4349 2.47671 0
M  V30 36704 O 5014.44 -8.94167 2.5964 0
M  V30 36705 O 5012.66 -7.1704 3.19006 0
M  V30 36706 O 5012.7 -8.16596 0.923387 0
M  V30 36707 C 5012.54 -9.38437 0.108857 0
M  V30 36708 C 5013.08 -9.08175 -1.28353 0
M  V30 36709 O 5012.02 -8.44229 -1.84713 0
M  V30 36710 C 5014.29 -8.18386 -1.42505 0
M  V30 36711 O 5015.03 -8.3501 -2.60497 0
M  V30 36712 C 5013.62 -6.80225 -1.25468 0
M  V30 36713 O 5014.42 -5.81621 -1.91066 0
M  V30 36714 C 5012.29 -7.02416 -1.9168 0
M  V30 36715 H 5012.32 -6.6888 -2.96621 0
M  V30 36716 H 5013.5 -6.53617 -0.192223 0
M  V30 36717 H 5014.99 -8.36622 -0.589963 0
M  V30 36718 H 5013.29 -10.0291 -1.79807 0
M  V30 36719 H 5013.1 -10.2138 0.558219 0
M  V30 36720 H 5011.47 -9.6579 0.0444202 0
M  V30 36721 H 5014.11 -5.69556 -2.79637 0
M  V30 36722 P 5015.97 -8.4349 -2.47671 0
M  V30 36723 O 5017.39 -8.92689 -2.65029 0
M  V30 36724 O 5015.61 -7.7568 -1.19296 0
M  V30 36725 O 5015.65 -7.36886 -3.63805 0
M  V30 36726 C 5015.48 -7.95433 -4.98253 0
M  V30 36727 C 5016.03 -6.94612 -5.98974 0
M  V30 36728 O 5014.97 -6.10277 -6.11744 0
M  V30 36729 C 5017.24 -6.11426 -5.62335 0
M  V30 36730 O 5017.98 -5.6162 -6.70584 0
M  V30 36731 C 5016.58 -5.04409 -4.73308 0
M  V30 36732 O 5017.37 -3.86404 -4.74719 0
M  V30 36733 C 5015.24 -4.8728 -5.41006 0
M  V30 36734 N 5014.19 -4.65812 -4.42377 0
M  V30 36735 C 5014.36 -5.09132 -3.15382 0
M  V30 36736 N 5013.34 -4.84021 -2.3716 0
M  V30 36737 C 5012.45 -4.18386 -3.20441 0
M  V30 36738 C 5011.18 -3.6275 -2.94905 0
M  V30 36739 N 5010.62 -3.05008 -4.05243 0
M  V30 36740 C 5011.22 -2.98348 -5.28159 0
M  V30 36741 N 5012.4 -3.48171 -5.56333 0
M  V30 36742 C 5012.97 -4.06869 -4.47212 0
M  V30 36743 H 5016.45 -5.39013 -3.70026 0
M  V30 36744 H 5017.94 -6.71916 -5.01943 0
M  V30 36745 H 5016.24 -7.45796 -6.94223 0
M  V30 36746 H 5016.05 -8.89416 -5.05237 0
M  V30 36747 H 5014.42 -8.14876 -5.18409 0
M  V30 36748 H 5015.26 -5.59989 -2.81362 0
M  V30 36749 H 5017.06 -3.27906 -5.43085 0
M  V30 36750 P 5018.92 -5.75688 -6.64379 0
M  V30 36751 O 5020.34 -6.07627 -7.05504 0
M  V30 36752 O 5018.56 -5.88047 -5.19722 0
M  V30 36753 O 5018.6 -4.2322 -7.04443 0
M  V30 36754 C 5018.44 -3.99743 -8.4911 0
M  V30 36755 C 5018.98 -2.60516 -8.79425 0
M  V30 36756 O 5017.92 -1.82684 -8.4467 0
M  V30 36757 C 5020.19 -2.10343 -8.03628 0
M  V30 36758 O 5020.93 -1.09919 -8.67766 0
M  V30 36759 C 5019.53 -1.68446 -6.70876 0
M  V30 36760 O 5020.32 -0.678137 -6.08433 0
M  V30 36761 C 5018.19 -1.17436 -7.18567 0
M  V30 36762 H 5018.22 -0.0804732 -7.31656 0
M  V30 36763 H 5019.4 -2.54037 -6.02537 0
M  V30 36764 H 5020.89 -2.93881 -7.85526 0
M  V30 36765 H 5019.19 -2.53065 -9.86973 0
M  V30 36766 H 5019 -4.75072 -9.05887 0
M  V30 36767 H 5017.37 -4.05244 -8.76668 0
M  V30 36768 H 5020.01 0.177647 -6.34251 0
M  V30 36769 P 5021.87 -1.25109 -8.70152 0
M  V30 36770 O 5023.29 -1.29744 -9.22016 0
M  V30 36771 O 5021.51 -2.13714 -7.55141 0
M  V30 36772 O 5021.55 0.248149 -8.21425 0
M  V30 36773 C 5021.39 1.22779 -9.30434 0
M  V30 36774 C 5021.93 2.56293 -8.80664 0
M  V30 36775 O 5020.87 3.02979 -8.09349 0
M  V30 36776 C 5023.15 2.57523 -7.89775 0
M  V30 36777 O 5023.88 3.7668 -7.89438 0
M  V30 36778 C 5022.48 2.20997 -6.55446 0
M  V30 36779 O 5023.28 2.71895 -5.48509 0
M  V30 36780 C 5021.14 2.89693 -6.67988 0
M  V30 36781 H 5021.17 3.88793 -6.19859 0
M  V30 36782 H 5022.35 1.12046 -6.44229 0
M  V30 36783 H 5023.84 1.7746 -8.19711 0
M  V30 36784 H 5022.14 3.20706 -9.67112 0
M  V30 36785 H 5021.95 0.901032 -10.1892 0
M  V30 36786 H 5020.32 1.33049 -9.56592 0
M  V30 36787 H 5022.96 3.57847 -5.23962 0
M  V30 36788 P 5024.82 3.65191 -7.99657 0
M  V30 36789 O 5026.24 3.89332 -8.45794 0
M  V30 36790 O 5024.46 2.28472 -7.50807 0
M  V30 36791 O 5024.5 4.64972 -6.77611 0
M  V30 36792 C 5024.34 6.06319 -7.16352 0
M  V30 36793 C 5024.88 6.91731 -6.02299 0
M  V30 36794 O 5023.82 6.92449 -5.17064 0
M  V30 36795 C 5026.1 6.43627 -5.25174 0
M  V30 36796 O 5026.83 7.43686 -4.60469 0
M  V30 36797 C 5025.43 5.40275 -4.31916 0
M  V30 36798 O 5026.23 5.25279 -3.14438 0
M  V30 36799 C 5024.09 6.04847 -4.05327 0
M  V30 36800 H 5024.12 6.62195 -3.11261 0
M  V30 36801 H 5025.3 4.42556 -4.81383 0
M  V30 36802 H 5026.79 5.92458 -5.93643 0
M  V30 36803 H 5025.09 7.92655 -6.402 0
M  V30 36804 H 5024.9 6.26671 -8.0846 0
M  V30 36805 H 5023.27 6.29101 -7.32804 0
M  V30 36806 H 5025.91 5.84315 -2.47318 0
M  V30 36807 P 5027.77 7.39546 -4.75277 0
M  V30 36808 O 5029.19 7.84798 -5.01039 0
M  V30 36809 O 5027.41 5.9812 -5.08098 0
M  V30 36810 O 5027.45 7.57503 -3.1866 0
M  V30 36811 C 5027.29 8.97357 -2.74833 0
M  V30 36812 C 5027.83 9.07548 -1.32709 0
M  V30 36813 O 5026.77 8.62072 -0.606159 0
M  V30 36814 C 5029.05 8.25383 -0.938334 0
M  V30 36815 O 5029.78 8.74577 0.146954 0
M  V30 36816 C 5028.38 6.8802 -0.712559 0
M  V30 36817 O 5029.18 6.1189 0.194655 0
M  V30 36818 C 5027.04 7.27966 -0.139777 0
M  V30 36819 H 5027.07 7.25354 0.961601 0
M  V30 36820 H 5028.26 6.32557 -1.65702 0
M  V30 36821 H 5029.74 8.19355 -1.79097 0
M  V30 36822 H 5028.05 10.1294 -1.10029 0
M  V30 36823 H 5027.86 9.64276 -3.41316 0
M  V30 36824 H 5026.23 9.25417 -2.76357 0
M  V30 36825 H 5028.86 6.25267 1.07847 0
M  V30 36826 P 5030.72 8.791 -3.58189e-10 0
M  V30 36827 O 5032.14 9.31096 0.027933 0
M  V30 36828 O 5030.36 7.77869 -1.04071 0
M  V30 36829 O 5030.4 8.09533 1.41463 0
M  V30 36830 C 5030.24 9.0349 2.53943 0
M  V30 36831 C 5030.78 8.35226 3.79016 0
M  V30 36832 O 5029.72 7.57992 4.15078 0
M  V30 36833 C 5032 7.45087 3.67298 0
M  V30 36834 O 5032.73 7.27796 4.85194 0
M  V30 36835 C 5031.33 6.17323 3.12027 0
M  V30 36836 O 5032.13 5.04231 3.47188 0
M  V30 36837 C 5029.99 6.19961 3.81809 0
M  V30 36838 H 5030.02 5.58218 4.73051 0
M  V30 36839 H 5031.21 6.21726 2.02589 0
M  V30 36840 H 5032.69 7.86112 2.9231 0
M  V30 36841 H 5031 9.11627 4.55076 0
M  V30 36842 H 5030.81 9.9573 2.34194 0
M  V30 36843 H 5029.18 9.2792 2.67832 0
M  V30 36844 H 5031.81 4.67702 4.28772 0
M  V30 36845 P 5033.67 7.39546 4.75277 0
M  V30 36846 O 5035.09 7.81777 5.05738 0
M  V30 36847 O 5033.31 7.1065 3.32998 0
M  V30 36848 O 5033.35 6.04542 5.56673 0
M  V30 36849 C 5033.19 6.22772 7.02095 0
M  V30 36850 C 5033.73 4.97725 7.70406 0
M  V30 36851 O 5032.67 4.13256 7.58987 0
M  V30 36852 C 5034.95 4.28231 7.11815 0
M  V30 36853 O 5035.69 3.49945 8.01648 0
M  V30 36854 C 5034.28 3.5063 5.96244 0
M  V30 36855 O 5035.08 2.36482 5.64681 0
M  V30 36856 C 5032.94 3.15122 6.56374 0
M  V30 36857 H 5032.97 2.13853 6.99751 0
M  V30 36858 H 5034.16 4.13501 5.06559 0
M  V30 36859 H 5035.64 5.03285 6.70911 0
M  V30 36860 H 5033.95 5.20877 8.75697 0
M  V30 36861 H 5033.76 7.11046 7.35349 0
M  V30 36862 H 5032.13 6.35815 7.26986 0
M  V30 36863 H 5034.77 1.61644 6.13565 0
M  V30 36864 P 5036.62 3.65191 7.99657 0
M  V30 36865 O 5038.04 3.8425 8.48115 0
M  V30 36866 O 5036.26 4.17805 6.64342 0
M  V30 36867 O 5036.3 2.07613 7.95143 0
M  V30 36868 C 5036.14 1.44328 9.27336 0
M  V30 36869 C 5036.68 0.0220036 9.17197 0
M  V30 36870 O 5035.62 -0.626867 8.61923 0
M  V30 36871 C 5037.9 -0.24586 8.30336 0
M  V30 36872 O 5038.64 -1.39011 8.63583 0
M  V30 36873 C 5037.23 -0.273849 6.91158 0
M  V30 36874 O 5038.03 -1.06348 6.02892 0
M  V30 36875 C 5035.89 -0.897649 7.22545 0
M  V30 36876 H 5035.92 -1.9841 7.04286 0
M  V30 36877 H 5037.11 0.739928 6.497 0
M  V30 36878 H 5038.59 0.60668 8.36503 0
M  V30 36879 H 5036.9 -0.352479 10.1829 0
M  V30 36880 H 5036.71 2.00611 10.0304 0
M  V30 36881 H 5035.08 1.41843 9.55327 0
M  V30 36882 H 5037.72 -1.95734 6.03555 0
M  V30 36883 P 5039.57 -1.25109 8.70152 0
M  V30 36884 O 5041 -1.35274 9.21221 0
M  V30 36885 O 5039.21 -0.0769065 7.84762 0
M  V30 36886 O 5039.25 -2.55232 7.81161 0
M  V30 36887 C 5039.09 -3.79939 8.58154 0
M  V30 36888 C 5039.63 -4.94023 7.72785 0
M  V30 36889 O 5038.57 -5.18726 6.91205 0
M  V30 36890 C 5040.85 -4.69597 6.85231 0
M  V30 36891 O 5041.59 -5.83832 6.51337 0
M  V30 36892 C 5040.18 -3.96706 5.66633 0
M  V30 36893 O 5040.98 -4.15414 4.49689 0
M  V30 36894 C 5038.84 -4.66153 5.59313 0
M  V30 36895 H 5038.87 -5.47679 4.85214 0
M  V30 36896 H 5040.06 -2.89008 5.86566 0
M  V30 36897 H 5041.54 -4.0121 7.36511 0
M  V30 36898 H 5039.85 -5.80182 8.37584 0
M  V30 36899 H 5039.66 -3.73517 9.52265 0
M  V30 36900 H 5038.03 -3.97163 8.80359 0
M  V30 36901 H 5040.67 -4.90969 4.01921 0
M  V30 36902 P 5042.52 -5.75688 6.64379 0
M  V30 36903 O 5043.95 -6.11849 7.01846 0
M  V30 36904 O 5042.16 -4.30744 6.56026 0
M  V30 36905 O 5042.2 -6.37042 5.19165 0
M  V30 36906 C 5042.04 -7.83578 5.16515 0
M  V30 36907 C 5042.58 -8.33398 3.83019 0
M  V30 36908 O 5041.53 -8.10074 3.01034 0
M  V30 36909 C 5043.8 -7.65514 3.2257 0
M  V30 36910 O 5044.54 -8.4329 2.32297 0
M  V30 36911 C 5043.13 -6.40075 2.62207 0
M  V30 36912 O 5043.93 -5.92589 1.53712 0
M  V30 36913 C 5041.79 -6.9454 2.18503 0
M  V30 36914 H 5041.83 -7.23063 1.12091 0
M  V30 36915 H 5043.01 -5.6025 3.37201 0
M  V30 36916 H 5044.49 -7.35707 4.02681 0
M  V30 36917 H 5042.8 -9.40912 3.9095 0
M  V30 36918 H 5042.61 -8.29056 5.99158 0
M  V30 36919 H 5040.98 -8.10073 5.25882 0
M  V30 36920 H 5043.62 -6.30324 0.726794 0
M  V30 36921 P 5045.47 -8.4349 2.47671 0
M  V30 36922 O 5046.9 -8.94167 2.5964 0
M  V30 36923 O 5045.11 -7.1704 3.19006 0
M  V30 36924 O 5045.15 -8.16596 0.923387 0
M  V30 36925 C 5044.99 -9.38437 0.108857 0
M  V30 36926 C 5045.53 -9.08175 -1.28353 0
M  V30 36927 O 5044.48 -8.44229 -1.84713 0
M  V30 36928 C 5046.75 -8.18386 -1.42505 0
M  V30 36929 O 5047.49 -8.3501 -2.60497 0
M  V30 36930 C 5046.08 -6.80225 -1.25468 0
M  V30 36931 O 5046.88 -5.81621 -1.91066 0
M  V30 36932 C 5044.74 -7.02416 -1.9168 0
M  V30 36933 H 5044.78 -6.6888 -2.96621 0
M  V30 36934 H 5045.96 -6.53617 -0.192223 0
M  V30 36935 H 5047.44 -8.36622 -0.589963 0
M  V30 36936 H 5045.75 -10.0291 -1.79807 0
M  V30 36937 H 5045.56 -10.2138 0.558219 0
M  V30 36938 H 5043.93 -9.6579 0.0444202 0
M  V30 36939 H 5046.57 -5.69556 -2.79637 0
M  V30 36940 P 5048.43 -8.4349 -2.47671 0
M  V30 36941 O 5049.85 -8.92785 -2.65057 0
M  V30 36942 O 5048.07 -7.7568 -1.19296 0
M  V30 36943 O 5048.1 -7.36886 -3.63805 0
M  V30 36944 C 5047.94 -7.95349 -4.982 0
M  V30 36945 C 5048.48 -6.94537 -5.98908 0
M  V30 36946 O 5047.43 -6.10347 -6.11815 0
M  V30 36947 C 5049.7 -6.11426 -5.62335 0
M  V30 36948 O 5050.44 -5.6162 -6.70584 0
M  V30 36949 C 5049.03 -5.04409 -4.73308 0
M  V30 36950 O 5049.83 -3.85929 -4.75106 0
M  V30 36951 C 5047.69 -4.8728 -5.41006 0
M  V30 36952 N 5046.65 -4.65812 -4.42377 0
M  V30 36953 C 5046.71 -5.27109 -3.24335 0
M  V30 36954 N 5045.67 -4.94293 -2.47735 0
M  V30 36955 C 5044.93 -4.1271 -3.23359 0
M  V30 36956 C 5043.63 -3.56384 -2.99934 0
M  V30 36957 O 5042.9 -3.69331 -2.00616 0
M  V30 36958 N 5043.2 -2.80206 -4.03316 0
M  V30 36959 C 5043.95 -2.58614 -5.2172 0
M  V30 36960 N 5043.35 -1.75154 -6.13278 0
M  V30 36961 N 5045.1 -3.13689 -5.47619 0
M  V30 36962 C 5045.56 -3.90921 -4.46436 0
M  V30 36963 H 5047.73 -4.02333 -6.11157 0
M  V30 36964 H 5048.91 -5.39383 -3.69487 0
M  V30 36965 H 5050.39 -6.71414 -5.02615 0
M  V30 36966 H 5048.7 -7.4649 -6.93477 0
M  V30 36967 H 5048.51 -8.89416 -5.05237 0
M  V30 36968 H 5046.88 -8.14876 -5.18409 0
M  V30 36969 H 5042.3 -2.36355 -3.95916 0
M  V30 36970 H 5047.51 -5.95212 -2.93859 0
M  V30 36971 H 5042.44 -1.32473 -5.91856 0
M  V30 36972 H 5043.82 -1.5588 -7.03026 0
M  V30 36973 H 5049.52 -3.27906 -5.43085 0
M  V30 36974 P 5051.38 -5.75688 -6.64379 0
M  V30 36975 O 5052.8 -6.07627 -7.05504 0
M  V30 36976 O 5051.02 -5.88047 -5.19722 0
M  V30 36977 O 5051.05 -4.2322 -7.04443 0
M  V30 36978 C 5050.89 -3.99743 -8.4911 0
M  V30 36979 C 5051.43 -2.60516 -8.79425 0
M  V30 36980 O 5050.38 -1.82684 -8.4467 0
M  V30 36981 C 5052.65 -2.10343 -8.03628 0
M  V30 36982 O 5053.39 -1.09919 -8.67766 0
M  V30 36983 C 5051.98 -1.68446 -6.70876 0
M  V30 36984 O 5052.78 -0.678137 -6.08433 0
M  V30 36985 C 5050.64 -1.17436 -7.18567 0
M  V30 36986 H 5050.68 -0.0804732 -7.31656 0
M  V30 36987 H 5051.86 -2.54037 -6.02537 0
M  V30 36988 H 5053.34 -2.93881 -7.85526 0
M  V30 36989 H 5051.65 -2.53065 -9.86973 0
M  V30 36990 H 5051.46 -4.75072 -9.05887 0
M  V30 36991 H 5049.83 -4.05244 -8.76668 0
M  V30 36992 H 5052.47 0.177647 -6.34251 0
M  V30 36993 P 5054.33 -1.25109 -8.70152 0
M  V30 36994 O 5055.75 -1.29744 -9.22016 0
M  V30 36995 O 5053.97 -2.13714 -7.55141 0
M  V30 36996 O 5054 0.248149 -8.21425 0
M  V30 36997 C 5053.84 1.22779 -9.30434 0
M  V30 36998 C 5054.38 2.56293 -8.80664 0
M  V30 36999 O 5053.33 3.02979 -8.09349 0
M  V30 37000 C 5055.6 2.57523 -7.89775 0
M  V30 37001 O 5056.34 3.7668 -7.89438 0
M  V30 37002 C 5054.93 2.20997 -6.55446 0
M  V30 37003 O 5055.73 2.71895 -5.48509 0
M  V30 37004 C 5053.6 2.89693 -6.67988 0
M  V30 37005 H 5053.63 3.88793 -6.19859 0
M  V30 37006 H 5054.81 1.12046 -6.44229 0
M  V30 37007 H 5056.29 1.7746 -8.19711 0
M  V30 37008 H 5054.6 3.20706 -9.67112 0
M  V30 37009 H 5054.41 0.901032 -10.1892 0
M  V30 37010 H 5052.78 1.33049 -9.56592 0
M  V30 37011 H 5055.42 3.57847 -5.23962 0
M  V30 37012 P 5057.28 3.65191 -7.99657 0
M  V30 37013 O 5058.7 3.89332 -8.45794 0
M  V30 37014 O 5056.92 2.28472 -7.50807 0
M  V30 37015 O 5056.95 4.64972 -6.77611 0
M  V30 37016 C 5056.79 6.06319 -7.16352 0
M  V30 37017 C 5057.33 6.91731 -6.02299 0
M  V30 37018 O 5056.28 6.92449 -5.17064 0
M  V30 37019 C 5058.55 6.43627 -5.25174 0
M  V30 37020 O 5059.29 7.43686 -4.60469 0
M  V30 37021 C 5057.88 5.40275 -4.31916 0
M  V30 37022 O 5058.68 5.25279 -3.14438 0
M  V30 37023 C 5056.55 6.04847 -4.05327 0
M  V30 37024 H 5056.58 6.62195 -3.11261 0
M  V30 37025 H 5057.76 4.42556 -4.81383 0
M  V30 37026 H 5059.24 5.92458 -5.93643 0
M  V30 37027 H 5057.55 7.92655 -6.402 0
M  V30 37028 H 5057.36 6.26671 -8.0846 0
M  V30 37029 H 5055.73 6.29101 -7.32804 0
M  V30 37030 H 5058.37 5.84315 -2.47318 0
M  V30 37031 P 5060.23 7.39546 -4.75277 0
M  V30 37032 O 5061.65 7.84798 -5.01039 0
M  V30 37033 O 5059.87 5.9812 -5.08098 0
M  V30 37034 O 5059.9 7.57503 -3.1866 0
M  V30 37035 C 5059.74 8.97357 -2.74833 0
M  V30 37036 C 5060.28 9.07548 -1.32709 0
M  V30 37037 O 5059.23 8.62072 -0.606159 0
M  V30 37038 C 5061.5 8.25383 -0.938334 0
M  V30 37039 O 5062.24 8.74577 0.146954 0
M  V30 37040 C 5060.83 6.8802 -0.712559 0
M  V30 37041 O 5061.63 6.1189 0.194655 0
M  V30 37042 C 5059.5 7.27966 -0.139777 0
M  V30 37043 H 5059.53 7.25354 0.961601 0
M  V30 37044 H 5060.71 6.32557 -1.65702 0
M  V30 37045 H 5062.2 8.19355 -1.79097 0
M  V30 37046 H 5060.5 10.1294 -1.10029 0
M  V30 37047 H 5060.31 9.64276 -3.41316 0
M  V30 37048 H 5058.68 9.25417 -2.76357 0
M  V30 37049 H 5061.32 6.25267 1.07847 0
M  V30 37050 P 5063.18 8.791 -3.63376e-10 0
M  V30 37051 O 5064.6 9.31096 0.027933 0
M  V30 37052 O 5062.82 7.77869 -1.04071 0
M  V30 37053 O 5062.86 8.09533 1.41463 0
M  V30 37054 C 5062.7 9.0349 2.53943 0
M  V30 37055 C 5063.24 8.35226 3.79016 0
M  V30 37056 O 5062.18 7.57992 4.15078 0
M  V30 37057 C 5064.45 7.45087 3.67298 0
M  V30 37058 O 5065.19 7.27796 4.85194 0
M  V30 37059 C 5063.78 6.17323 3.12027 0
M  V30 37060 O 5064.58 5.04231 3.47188 0
M  V30 37061 C 5062.45 6.19961 3.81809 0
M  V30 37062 H 5062.48 5.58218 4.73051 0
M  V30 37063 H 5063.66 6.21726 2.02589 0
M  V30 37064 H 5065.15 7.86112 2.9231 0
M  V30 37065 H 5063.45 9.11627 4.55076 0
M  V30 37066 H 5063.26 9.9573 2.34194 0
M  V30 37067 H 5061.63 9.2792 2.67832 0
M  V30 37068 H 5064.27 4.67702 4.28772 0
M  V30 37069 P 5066.13 7.39546 4.75277 0
M  V30 37070 O 5067.55 7.81777 5.05738 0
M  V30 37071 O 5065.77 7.1065 3.32998 0
M  V30 37072 O 5065.81 6.04542 5.56673 0
M  V30 37073 C 5065.65 6.22772 7.02095 0
M  V30 37074 C 5066.19 4.97725 7.70406 0
M  V30 37075 O 5065.13 4.13256 7.58987 0
M  V30 37076 C 5067.4 4.28231 7.11815 0
M  V30 37077 O 5068.14 3.49945 8.01648 0
M  V30 37078 C 5066.73 3.5063 5.96244 0
M  V30 37079 O 5067.53 2.36482 5.64681 0
M  V30 37080 C 5065.4 3.15122 6.56374 0
M  V30 37081 H 5065.43 2.13853 6.99751 0
M  V30 37082 H 5066.61 4.13501 5.06559 0
M  V30 37083 H 5068.1 5.03285 6.70911 0
M  V30 37084 H 5066.4 5.20877 8.75697 0
M  V30 37085 H 5066.21 7.11046 7.35349 0
M  V30 37086 H 5064.58 6.35815 7.26986 0
M  V30 37087 H 5067.22 1.61644 6.13565 0
M  V30 37088 P 5069.08 3.65191 7.99657 0
M  V30 37089 O 5070.5 3.8425 8.48115 0
M  V30 37090 O 5068.72 4.17805 6.64342 0
M  V30 37091 O 5068.76 2.07613 7.95143 0
M  V30 37092 C 5068.6 1.44328 9.27336 0
M  V30 37093 C 5069.14 0.0220036 9.17197 0
M  V30 37094 O 5068.08 -0.626867 8.61923 0
M  V30 37095 C 5070.35 -0.24586 8.30336 0
M  V30 37096 O 5071.09 -1.39011 8.63583 0
M  V30 37097 C 5069.69 -0.273849 6.91158 0
M  V30 37098 O 5070.48 -1.06348 6.02892 0
M  V30 37099 C 5068.35 -0.897649 7.22545 0
M  V30 37100 H 5068.38 -1.9841 7.04286 0
M  V30 37101 H 5069.56 0.739928 6.497 0
M  V30 37102 H 5071.05 0.60668 8.36503 0
M  V30 37103 H 5069.35 -0.352479 10.1829 0
M  V30 37104 H 5069.16 2.00611 10.0304 0
M  V30 37105 H 5067.53 1.41843 9.55327 0
M  V30 37106 H 5070.17 -1.95734 6.03555 0
M  V30 37107 P 5072.03 -1.25109 8.70152 0
M  V30 37108 O 5073.45 -1.35274 9.21221 0
M  V30 37109 O 5071.67 -0.0769065 7.84762 0
M  V30 37110 O 5071.71 -2.55232 7.81161 0
M  V30 37111 C 5071.55 -3.79939 8.58154 0
M  V30 37112 C 5072.09 -4.94023 7.72785 0
M  V30 37113 O 5071.03 -5.18726 6.91205 0
M  V30 37114 C 5073.3 -4.69597 6.85231 0
M  V30 37115 O 5074.04 -5.83832 6.51337 0
M  V30 37116 C 5072.64 -3.96706 5.66633 0
M  V30 37117 O 5073.43 -4.15414 4.49689 0
M  V30 37118 C 5071.3 -4.66153 5.59313 0
M  V30 37119 H 5071.33 -5.47679 4.85214 0
M  V30 37120 H 5072.51 -2.89008 5.86566 0
M  V30 37121 H 5074 -4.0121 7.36511 0
M  V30 37122 H 5072.3 -5.80182 8.37584 0
M  V30 37123 H 5072.11 -3.73517 9.52265 0
M  V30 37124 H 5070.48 -3.97163 8.80359 0
M  V30 37125 H 5073.12 -4.90969 4.01921 0
M  V30 37126 P 5074.98 -5.75688 6.64379 0
M  V30 37127 O 5076.4 -6.11849 7.01846 0
M  V30 37128 O 5074.62 -4.30744 6.56026 0
M  V30 37129 O 5074.66 -6.37042 5.19165 0
M  V30 37130 C 5074.5 -7.83578 5.16515 0
M  V30 37131 C 5075.04 -8.33398 3.83019 0
M  V30 37132 O 5073.98 -8.10074 3.01034 0
M  V30 37133 C 5076.26 -7.65514 3.2257 0
M  V30 37134 O 5076.99 -8.4329 2.32297 0
M  V30 37135 C 5075.59 -6.40075 2.62207 0
M  V30 37136 O 5076.39 -5.92589 1.53712 0
M  V30 37137 C 5074.25 -6.9454 2.18503 0
M  V30 37138 H 5074.28 -7.23063 1.12091 0
M  V30 37139 H 5075.46 -5.6025 3.37201 0
M  V30 37140 H 5076.95 -7.35707 4.02681 0
M  V30 37141 H 5075.25 -9.40912 3.9095 0
M  V30 37142 H 5075.06 -8.29056 5.99158 0
M  V30 37143 H 5073.43 -8.10073 5.25882 0
M  V30 37144 H 5076.07 -6.30324 0.726794 0
M  V30 37145 P 5077.93 -8.4349 2.47671 0
M  V30 37146 O 5079.35 -8.94167 2.5964 0
M  V30 37147 O 5077.57 -7.1704 3.19006 0
M  V30 37148 O 5077.61 -8.16596 0.923387 0
M  V30 37149 C 5077.45 -9.38437 0.108857 0
M  V30 37150 C 5077.99 -9.08175 -1.28353 0
M  V30 37151 O 5076.93 -8.44229 -1.84713 0
M  V30 37152 C 5079.21 -8.18386 -1.42505 0
M  V30 37153 O 5079.94 -8.3501 -2.60497 0
M  V30 37154 C 5078.54 -6.80225 -1.25468 0
M  V30 37155 O 5079.34 -5.81621 -1.91066 0
M  V30 37156 C 5077.2 -7.02416 -1.9168 0
M  V30 37157 H 5077.23 -6.6888 -2.96621 0
M  V30 37158 H 5078.41 -6.53617 -0.192223 0
M  V30 37159 H 5079.9 -8.36622 -0.589963 0
M  V30 37160 H 5078.2 -10.0291 -1.79807 0
M  V30 37161 H 5078.01 -10.2138 0.558219 0
M  V30 37162 H 5076.38 -9.6579 0.0444202 0
M  V30 37163 H 5079.02 -5.69556 -2.79637 0
M  V30 37164 P 5080.88 -8.4349 -2.47671 0
M  V30 37165 O 5082.3 -8.92689 -2.65029 0
M  V30 37166 O 5080.52 -7.7568 -1.19296 0
M  V30 37167 O 5080.56 -7.36886 -3.63805 0
M  V30 37168 C 5080.4 -7.95433 -4.98253 0
M  V30 37169 C 5080.94 -6.94612 -5.98974 0
M  V30 37170 O 5079.88 -6.10277 -6.11744 0
M  V30 37171 C 5082.16 -6.11426 -5.62335 0
M  V30 37172 O 5082.89 -5.6162 -6.70584 0
M  V30 37173 C 5081.49 -5.04409 -4.73308 0
M  V30 37174 O 5082.29 -3.86404 -4.74719 0
M  V30 37175 C 5080.15 -4.8728 -5.41006 0
M  V30 37176 N 5079.11 -4.65812 -4.42377 0
M  V30 37177 C 5079.28 -5.09132 -3.15382 0
M  V30 37178 N 5078.25 -4.84021 -2.3716 0
M  V30 37179 C 5077.36 -4.18386 -3.20441 0
M  V30 37180 C 5076.1 -3.6275 -2.94905 0
M  V30 37181 N 5075.5 -3.65794 -1.73372 0
M  V30 37182 N 5075.53 -3.05008 -4.05243 0
M  V30 37183 C 5076.13 -2.98348 -5.28159 0
M  V30 37184 N 5077.31 -3.48171 -5.56333 0
M  V30 37185 C 5077.89 -4.06869 -4.47212 0
M  V30 37186 H 5080.18 -4.02278 -6.11074 0
M  V30 37187 H 5081.37 -5.39013 -3.70026 0
M  V30 37188 H 5082.85 -6.71916 -5.01943 0
M  V30 37189 H 5081.15 -7.45796 -6.94223 0
M  V30 37190 H 5080.96 -8.89416 -5.05237 0
M  V30 37191 H 5079.33 -8.14876 -5.18409 0
M  V30 37192 H 5075.6 -2.47853 -6.07807 0
M  V30 37193 H 5080.18 -5.59989 -2.81362 0
M  V30 37194 H 5074.57 -3.23218 -1.60782 0
M  V30 37195 H 5075.97 -4.10523 -0.937856 0
M  V30 37196 H 5081.97 -3.27906 -5.43085 0
M  V30 37197 P 5083.83 -5.75688 -6.64379 0
M  V30 37198 O 5085.23 -6.14823 -7.06682 0
M  V30 37199 O 5083.45 -5.93957 -5.20728 0
M  V30 37200 O 5083.51 -4.23169 -7.04357 0
M  V30 37201 C 5083.35 -3.99743 -8.4911 0
M  V30 37202 C 5083.89 -2.60487 -8.79329 0
M  V30 37203 O 5082.83 -1.82663 -8.44573 0
M  V30 37204 C 5085.11 -2.10343 -8.03628 0
M  V30 37205 O 5085.85 -1.09919 -8.67766 0
M  V30 37206 C 5084.44 -1.68446 -6.70876 0
M  V30 37207 O 5085.24 -0.678026 -6.08333 0
M  V30 37208 C 5083.1 -1.17436 -7.18567 0
M  V30 37209 N 5082.06 -1.52699 -6.23988 0
M  V30 37210 C 5081.02 -0.643793 -6.05085 0
M  V30 37211 O 5081.06 0.459118 -6.64315 0
M  V30 37212 N 5080.01 -0.976931 -5.22038 0
M  V30 37213 C 5080.06 -2.14429 -4.56662 0
M  V30 37214 N 5079.05 -2.4542 -3.76231 0
M  V30 37215 C 5081.16 -3.04203 -4.71481 0
M  V30 37216 C 5082.12 -2.69669 -5.56838 0
M  V30 37217 H 5083.13 -0.0804622 -7.31556 0
M  V30 37218 H 5084.32 -2.53396 -6.02698 0
M  V30 37219 H 5085.8 -2.9313 -7.85914 0
M  V30 37220 H 5084.11 -2.52078 -9.87225 0
M  V30 37221 H 5083.92 -4.75072 -9.05887 0
M  V30 37222 H 5082.29 -4.05202 -8.76577 0
M  V30 37223 H 5081.2 -3.97309 -4.15519 0
M  V30 37224 H 5082.97 -3.36869 -5.72318 0
M  V30 37225 H 5078.26 -1.80133 -3.65413 0
M  V30 37226 H 5079.05 -3.34359 -3.24736 0
M  V30 37227 H 5085.02 0.167718 -6.44882 0
M  V30 37228 P 5086.78 -1.25109 -8.70152 0
M  V30 37229 O 5088.2 -1.29772 -9.22214 0
M  V30 37230 O 5086.42 -2.13714 -7.55141 0
M  V30 37231 O 5086.46 0.248149 -8.21425 0
M  V30 37232 C 5086.3 1.22779 -9.30434 0
M  V30 37233 C 5086.84 2.56265 -8.80568 0
M  V30 37234 O 5085.78 3.02979 -8.09349 0
M  V30 37235 C 5088.06 2.57523 -7.89775 0
M  V30 37236 O 5088.8 3.7668 -7.89438 0
M  V30 37237 C 5087.39 2.20997 -6.55446 0
M  V30 37238 O 5088.19 2.71851 -5.48419 0
M  V30 37239 C 5086.05 2.89693 -6.67988 0
M  V30 37240 N 5085.01 2.08895 -6.07487 0
M  V30 37241 C 5085.07 0.760559 -6.14209 0
M  V30 37242 N 5084.03 0.200108 -5.52538 0
M  V30 37243 C 5083.29 1.22692 -5.09742 0
M  V30 37244 C 5081.99 1.24782 -4.48775 0
M  V30 37245 O 5081.25 0.290617 -4.19294 0
M  V30 37246 N 5081.56 2.50468 -4.22428 0
M  V30 37247 C 5082.3 3.67142 -4.51974 0
M  V30 37248 N 5081.71 4.85096 -4.14091 0
M  V30 37249 N 5083.46 3.67821 -5.12831 0
M  V30 37250 C 5083.91 2.43698 -5.4105 0
M  V30 37251 H 5086.08 3.88793 -6.19859 0
M  V30 37252 H 5087.27 1.12029 -6.4413 0
M  V30 37253 H 5088.75 1.78279 -8.19533 0
M  V30 37254 H 5087.06 3.20706 -9.67112 0
M  V30 37255 H 5086.87 0.901032 -10.1892 0
M  V30 37256 H 5085.24 1.33049 -9.56592 0
M  V30 37257 H 5080.66 2.61953 -3.79465 0
M  V30 37258 H 5085.87 0.200439 -6.63497 0
M  V30 37259 H 5080.8 4.8334 -3.66367 0
M  V30 37260 H 5082.17 5.7474 -4.33841 0
M  V30 37261 H 5087.88 3.5779 -5.23879 0
M  V30 37262 P 5089.73 3.65191 -7.99657 0
M  V30 37263 O 5091.16 3.89332 -8.45794 0
M  V30 37264 O 5089.37 2.28472 -7.50807 0
M  V30 37265 O 5089.41 4.64972 -6.77611 0
M  V30 37266 C 5089.25 6.06319 -7.16352 0
M  V30 37267 C 5089.79 6.91731 -6.02299 0
M  V30 37268 O 5088.73 6.92449 -5.17064 0
M  V30 37269 C 5091.01 6.43627 -5.25174 0
M  V30 37270 O 5091.75 7.43686 -4.60469 0
M  V30 37271 C 5090.34 5.40275 -4.31916 0
M  V30 37272 O 5091.14 5.25279 -3.14438 0
M  V30 37273 C 5089 6.04847 -4.05327 0
M  V30 37274 H 5089.03 6.62195 -3.11261 0
M  V30 37275 H 5090.22 4.42556 -4.81383 0
M  V30 37276 H 5091.7 5.92458 -5.93643 0
M  V30 37277 H 5090.01 7.92655 -6.402 0
M  V30 37278 H 5089.82 6.26671 -8.0846 0
M  V30 37279 H 5088.19 6.29101 -7.32804 0
M  V30 37280 H 5090.83 5.84315 -2.47318 0
M  V30 37281 P 5092.68 7.39546 -4.75277 0
M  V30 37282 O 5094.1 7.84882 -5.01092 0
M  V30 37283 O 5092.32 5.9812 -5.08098 0
M  V30 37284 O 5092.36 7.57503 -3.1866 0
M  V30 37285 C 5092.2 8.97452 -2.74862 0
M  V30 37286 C 5092.74 9.07548 -1.32709 0
M  V30 37287 O 5091.69 8.61972 -0.606089 0
M  V30 37288 C 5093.96 8.25383 -0.938334 0
M  V30 37289 O 5094.7 8.74577 0.146954 0
M  V30 37290 C 5093.29 6.8802 -0.712559 0
M  V30 37291 O 5094.09 6.1181 0.188505 0
M  V30 37292 C 5091.95 7.27966 -0.139777 0
M  V30 37293 N 5090.91 6.39368 -0.623421 0
M  V30 37294 C 5091.08 5.71761 -1.78245 0
M  V30 37295 N 5090.05 4.962 -2.10491 0
M  V30 37296 C 5089.17 5.16158 -1.0635 0
M  V30 37297 C 5087.9 4.60425 -0.810266 0
M  V30 37298 N 5087.3 3.7057 -1.62914 0
M  V30 37299 N 5087.33 5.06 0.348685 0
M  V30 37300 C 5087.94 5.94532 1.20395 0
M  V30 37301 N 5089.11 6.48452 1.01191 0
M  V30 37302 C 5089.69 6.04423 -0.146291 0
M  V30 37303 H 5091.98 7.25255 0.961469 0
M  V30 37304 H 5093.17 6.32625 -1.65044 0
M  V30 37305 H 5094.65 8.19355 -1.79097 0
M  V30 37306 H 5092.96 10.1305 -1.09016 0
M  V30 37307 H 5092.77 9.64276 -3.41316 0
M  V30 37308 H 5091.14 9.25417 -2.76357 0
M  V30 37309 H 5087.4 6.21659 2.10714 0
M  V30 37310 H 5091.98 5.79354 -2.38959 0
M  V30 37311 H 5086.37 3.33174 -1.38982 0
M  V30 37312 H 5087.77 3.39714 -2.48836 0
M  V30 37313 H 5093.78 6.25169 1.0783 0
M  V30 37314 P 5095.63 8.791 -3.68562e-10 0
M  V30 37315 O 5097.06 9.31096 0.027933 0
M  V30 37316 O 5095.27 7.77869 -1.04071 0
M  V30 37317 O 5095.31 8.09533 1.41463 0
M  V30 37318 C 5095.15 9.0349 2.53943 0
M  V30 37319 C 5095.69 8.35226 3.79016 0
M  V30 37320 O 5094.64 7.57992 4.15078 0
M  V30 37321 C 5096.91 7.45087 3.67298 0
M  V30 37322 O 5097.65 7.27796 4.85194 0
M  V30 37323 C 5096.24 6.17323 3.12027 0
M  V30 37324 O 5097.04 5.04231 3.47188 0
M  V30 37325 C 5094.9 6.19961 3.81809 0
M  V30 37326 H 5094.94 5.58218 4.73051 0
M  V30 37327 H 5096.12 6.21726 2.02589 0
M  V30 37328 H 5097.6 7.86112 2.9231 0
M  V30 37329 H 5095.91 9.11627 4.55076 0
M  V30 37330 H 5095.72 9.9573 2.34194 0
M  V30 37331 H 5094.09 9.2792 2.67832 0
M  V30 37332 H 5096.73 4.67702 4.28772 0
M  V30 37333 P 5098.58 7.39546 4.75277 0
M  V30 37334 O 5100.01 7.81777 5.05738 0
M  V30 37335 O 5098.22 7.1065 3.32998 0
M  V30 37336 O 5098.26 6.04542 5.56673 0
M  V30 37337 C 5098.1 6.22772 7.02095 0
M  V30 37338 C 5098.64 4.97725 7.70406 0
M  V30 37339 O 5097.59 4.13256 7.58987 0
M  V30 37340 C 5099.86 4.28231 7.11815 0
M  V30 37341 O 5100.6 3.49945 8.01648 0
M  V30 37342 C 5099.19 3.5063 5.96244 0
M  V30 37343 O 5099.99 2.36482 5.64681 0
M  V30 37344 C 5097.85 3.15122 6.56374 0
M  V30 37345 H 5097.89 2.13853 6.99751 0
M  V30 37346 H 5099.07 4.13501 5.06559 0
M  V30 37347 H 5100.55 5.03285 6.70911 0
M  V30 37348 H 5098.86 5.20877 8.75697 0
M  V30 37349 H 5098.67 7.11046 7.35349 0
M  V30 37350 H 5097.04 6.35815 7.26986 0
M  V30 37351 H 5099.68 1.61644 6.13565 0
M  V30 37352 P 5101.54 3.65191 7.99657 0
M  V30 37353 O 5102.96 3.8425 8.48115 0
M  V30 37354 O 5101.18 4.17805 6.64342 0
M  V30 37355 O 5101.21 2.07613 7.95143 0
M  V30 37356 C 5101.05 1.44328 9.27336 0
M  V30 37357 C 5101.59 0.0220036 9.17197 0
M  V30 37358 O 5100.54 -0.626867 8.61923 0
M  V30 37359 C 5102.81 -0.24586 8.30336 0
M  V30 37360 O 5103.55 -1.39011 8.63583 0
M  V30 37361 C 5102.14 -0.273849 6.91158 0
M  V30 37362 O 5102.94 -1.06348 6.02892 0
M  V30 37363 C 5100.8 -0.897649 7.22545 0
M  V30 37364 H 5100.84 -1.9841 7.04286 0
M  V30 37365 H 5102.02 0.739928 6.497 0
M  V30 37366 H 5103.5 0.60668 8.36503 0
M  V30 37367 H 5101.81 -0.352479 10.1829 0
M  V30 37368 H 5101.62 2.00611 10.0304 0
M  V30 37369 H 5099.99 1.41843 9.55327 0
M  V30 37370 H 5102.63 -1.95734 6.03555 0
M  V30 37371 P 5104.49 -1.25109 8.70152 0
M  V30 37372 O 5105.91 -1.35274 9.21221 0
M  V30 37373 O 5104.13 -0.0769065 7.84762 0
M  V30 37374 O 5104.16 -2.55232 7.81161 0
M  V30 37375 C 5104 -3.79939 8.58154 0
M  V30 37376 C 5104.54 -4.94023 7.72785 0
M  V30 37377 O 5103.49 -5.18726 6.91205 0
M  V30 37378 C 5105.76 -4.69597 6.85231 0
M  V30 37379 O 5106.5 -5.83832 6.51337 0
M  V30 37380 C 5105.09 -3.96706 5.66633 0
M  V30 37381 O 5105.89 -4.15414 4.49689 0
M  V30 37382 C 5103.76 -4.66153 5.59313 0
M  V30 37383 H 5103.79 -5.47679 4.85214 0
M  V30 37384 H 5104.97 -2.89008 5.86566 0
M  V30 37385 H 5106.45 -4.0121 7.36511 0
M  V30 37386 H 5104.76 -5.80182 8.37584 0
M  V30 37387 H 5104.57 -3.73517 9.52265 0
M  V30 37388 H 5102.94 -3.97163 8.80359 0
M  V30 37389 H 5105.58 -4.90969 4.01921 0
M  V30 37390 P 5107.44 -5.75688 6.64379 0
M  V30 37391 O 5108.86 -6.11849 7.01846 0
M  V30 37392 O 5107.08 -4.30744 6.56026 0
M  V30 37393 O 5107.11 -6.37042 5.19165 0
M  V30 37394 C 5106.95 -7.83578 5.16515 0
M  V30 37395 C 5107.49 -8.33398 3.83019 0
M  V30 37396 O 5106.44 -8.10074 3.01034 0
M  V30 37397 C 5108.71 -7.65514 3.2257 0
M  V30 37398 O 5109.45 -8.4329 2.32297 0
M  V30 37399 C 5108.04 -6.40075 2.62207 0
M  V30 37400 O 5108.84 -5.92589 1.53712 0
M  V30 37401 C 5106.71 -6.9454 2.18503 0
M  V30 37402 H 5106.74 -7.23063 1.12091 0
M  V30 37403 H 5107.92 -5.6025 3.37201 0
M  V30 37404 H 5109.4 -7.35707 4.02681 0
M  V30 37405 H 5107.71 -9.40912 3.9095 0
M  V30 37406 H 5107.52 -8.29056 5.99158 0
M  V30 37407 H 5105.89 -8.10073 5.25882 0
M  V30 37408 H 5108.53 -6.30324 0.726794 0
M  V30 37409 P 5110.39 -8.4349 2.47671 0
M  V30 37410 O 5111.81 -8.94167 2.5964 0
M  V30 37411 O 5110.03 -7.1704 3.19006 0
M  V30 37412 O 5110.06 -8.16596 0.923387 0
M  V30 37413 C 5109.9 -9.38437 0.108857 0
M  V30 37414 C 5110.44 -9.08175 -1.28353 0
M  V30 37415 O 5109.39 -8.44229 -1.84713 0
M  V30 37416 C 5111.66 -8.18386 -1.42505 0
M  V30 37417 O 5112.4 -8.3501 -2.60497 0
M  V30 37418 C 5110.99 -6.80225 -1.25468 0
M  V30 37419 O 5111.79 -5.81621 -1.91066 0
M  V30 37420 C 5109.66 -7.02416 -1.9168 0
M  V30 37421 H 5109.69 -6.6888 -2.96621 0
M  V30 37422 H 5110.87 -6.53617 -0.192223 0
M  V30 37423 H 5112.36 -8.36622 -0.589963 0
M  V30 37424 H 5110.66 -10.0291 -1.79807 0
M  V30 37425 H 5110.47 -10.2138 0.558219 0
M  V30 37426 H 5108.84 -9.6579 0.0444202 0
M  V30 37427 H 5111.48 -5.69556 -2.79637 0
M  V30 37428 P 5113.34 -8.4349 -2.47671 0
M  V30 37429 O 5114.76 -8.92593 -2.65 0
M  V30 37430 O 5112.98 -7.7568 -1.19296 0
M  V30 37431 O 5113.01 -7.36886 -3.63805 0
M  V30 37432 C 5112.85 -7.95349 -4.982 0
M  V30 37433 C 5113.39 -6.94612 -5.98974 0
M  V30 37434 O 5112.34 -6.10347 -6.11815 0
M  V30 37435 C 5114.61 -6.11426 -5.62335 0
M  V30 37436 O 5115.35 -5.6162 -6.70584 0
M  V30 37437 C 5113.94 -5.04409 -4.73308 0
M  V30 37438 O 5114.74 -3.85992 -4.75183 0
M  V30 37439 C 5112.61 -4.8728 -5.41006 0
M  V30 37440 H 5112.64 -4.02333 -6.11157 0
M  V30 37441 H 5113.82 -5.39466 -3.69543 0
M  V30 37442 H 5115.31 -6.71916 -5.01943 0
M  V30 37443 H 5113.61 -7.4649 -6.93477 0
M  V30 37444 H 5113.42 -8.89416 -5.05237 0
M  V30 37445 H 5111.79 -8.14876 -5.18409 0
M  V30 37446 H 5114.43 -3.27957 -5.4317 0
M  V30 37447 P 5116.29 -5.75688 -6.64379 0
M  V30 37448 O 5117.71 -6.07692 -7.0558 0
M  V30 37449 O 5115.93 -5.88047 -5.19722 0
M  V30 37450 O 5115.97 -4.2322 -7.04443 0
M  V30 37451 C 5115.8 -3.99785 -8.49201 0
M  V30 37452 C 5116.35 -2.60516 -8.79425 0
M  V30 37453 O 5115.29 -1.82663 -8.44573 0
M  V30 37454 C 5117.56 -2.10343 -8.03628 0
M  V30 37455 O 5118.3 -1.09919 -8.67766 0
M  V30 37456 C 5116.9 -1.68446 -6.70876 0
M  V30 37457 O 5117.69 -0.684109 -6.08265 0
M  V30 37458 C 5115.56 -1.17436 -7.18567 0
M  V30 37459 N 5114.51 -1.52699 -6.23988 0
M  V30 37460 C 5114.68 -2.578 -5.40574 0
M  V30 37461 N 5113.66 -2.78966 -4.61193 0
M  V30 37462 C 5112.77 -1.78725 -4.95769 0
M  V30 37463 C 5111.5 -1.45727 -4.44207 0
M  V30 37464 N 5110.94 -0.374977 -5.05812 0
M  V30 37465 C 5111.54 0.345585 -6.05615 0
M  V30 37466 N 5112.72 0.0787651 -6.56253 0
M  V30 37467 C 5113.29 -1.00499 -5.96189 0
M  V30 37468 H 5116.77 -2.53396 -6.02698 0
M  V30 37469 H 5118.26 -2.93881 -7.85526 0
M  V30 37470 H 5116.56 -2.52078 -9.87225 0
M  V30 37471 H 5116.37 -4.75072 -9.05887 0
M  V30 37472 H 5114.74 -4.05244 -8.76668 0
M  V30 37473 H 5115.58 -3.18977 -5.3945 0
M  V30 37474 H 5117.38 0.177619 -6.34151 0
M  V30 37475 P 5119.24 -1.25109 -8.70152 0
M  V30 37476 O 5120.66 -1.29744 -9.22016 0
M  V30 37477 O 5118.88 -2.13714 -7.55141 0
M  V30 37478 O 5118.92 0.248149 -8.21425 0
M  V30 37479 C 5118.76 1.22779 -9.30434 0
M  V30 37480 C 5119.3 2.56293 -8.80664 0
M  V30 37481 O 5118.24 3.02979 -8.09349 0
M  V30 37482 C 5120.51 2.57523 -7.89775 0
M  V30 37483 O 5121.25 3.7668 -7.89438 0
M  V30 37484 C 5119.84 2.20997 -6.55446 0
M  V30 37485 O 5120.64 2.71895 -5.48509 0
M  V30 37486 C 5118.51 2.89693 -6.67988 0
M  V30 37487 H 5118.54 3.88793 -6.19859 0
M  V30 37488 H 5119.72 1.12046 -6.44229 0
M  V30 37489 H 5121.21 1.7746 -8.19711 0
M  V30 37490 H 5119.51 3.20706 -9.67112 0
M  V30 37491 H 5119.32 0.901032 -10.1892 0
M  V30 37492 H 5117.69 1.33049 -9.56592 0
M  V30 37493 H 5120.33 3.57847 -5.23962 0
M  V30 37494 P 5122.19 3.65191 -7.99657 0
M  V30 37495 O 5123.61 3.89374 -8.45885 0
M  V30 37496 O 5121.83 2.28472 -7.50807 0
M  V30 37497 O 5121.87 4.64972 -6.77611 0
M  V30 37498 C 5121.71 6.06383 -7.16428 0
M  V30 37499 C 5122.25 6.91731 -6.02299 0
M  V30 37500 O 5121.19 6.92369 -5.17005 0
M  V30 37501 C 5123.46 6.43627 -5.25174 0
M  V30 37502 O 5124.2 7.43686 -4.60469 0
M  V30 37503 C 5122.8 5.40275 -4.31916 0
M  V30 37504 O 5123.59 5.24878 -3.14911 0
M  V30 37505 C 5121.46 6.04847 -4.05327 0
M  V30 37506 N 5120.42 5.04166 -3.98114 0
M  V30 37507 C 5120.58 3.84629 -4.59066 0
M  V30 37508 N 5119.56 3.0363 -4.45343 0
M  V30 37509 C 5118.67 3.76722 -3.68523 0
M  V30 37510 C 5117.41 3.43528 -3.17088 0
M  V30 37511 N 5116.84 4.44526 -2.44231 0
M  V30 37512 C 5117.44 5.65243 -2.20146 0
M  V30 37513 N 5118.62 6.00221 -2.65453 0
M  V30 37514 C 5119.19 5.00564 -3.39083 0
M  V30 37515 H 5122.67 4.42969 -4.80867 0
M  V30 37516 H 5124.16 5.92458 -5.93643 0
M  V30 37517 H 5122.46 7.93295 -6.39407 0
M  V30 37518 H 5122.27 6.26671 -8.0846 0
M  V30 37519 H 5120.64 6.29101 -7.32804 0
M  V30 37520 H 5121.48 3.58193 -5.14248 0
M  V30 37521 H 5123.28 5.84223 -2.47279 0
M  V30 37522 P 5125.14 7.39546 -4.75277 0
M  V30 37523 O 5126.56 7.84798 -5.01039 0
M  V30 37524 O 5124.78 5.9812 -5.08098 0
M  V30 37525 O 5124.82 7.57503 -3.1866 0
M  V30 37526 C 5124.66 8.97357 -2.74833 0
M  V30 37527 C 5125.2 9.07548 -1.32709 0
M  V30 37528 O 5124.14 8.62072 -0.606159 0
M  V30 37529 C 5126.42 8.25383 -0.938334 0
M  V30 37530 O 5127.15 8.74577 0.146954 0
M  V30 37531 C 5125.75 6.8802 -0.712559 0
M  V30 37532 O 5126.55 6.1189 0.194655 0
M  V30 37533 C 5124.41 7.27966 -0.139777 0
M  V30 37534 H 5124.44 7.25354 0.961601 0
M  V30 37535 H 5125.62 6.32557 -1.65702 0
M  V30 37536 H 5127.11 8.19355 -1.79097 0
M  V30 37537 H 5125.41 10.1294 -1.10029 0
M  V30 37538 H 5125.22 9.64276 -3.41316 0
M  V30 37539 H 5123.59 9.25417 -2.76357 0
M  V30 37540 H 5126.23 6.25267 1.07847 0
M  V30 37541 P 5128.09 8.791 -3.73749e-10 0
M  V30 37542 O 5129.51 9.31096 0.027933 0
M  V30 37543 O 5127.73 7.77869 -1.04071 0
M  V30 37544 O 5127.77 8.09533 1.41463 0
M  V30 37545 C 5127.61 9.0349 2.53943 0
M  V30 37546 C 5128.15 8.35226 3.79016 0
M  V30 37547 O 5127.09 7.57992 4.15078 0
M  V30 37548 C 5129.37 7.45087 3.67298 0
M  V30 37549 O 5130.1 7.27796 4.85194 0
M  V30 37550 C 5128.7 6.17323 3.12027 0
M  V30 37551 O 5129.5 5.04231 3.47188 0
M  V30 37552 C 5127.36 6.19961 3.81809 0
M  V30 37553 H 5127.39 5.58218 4.73051 0
M  V30 37554 H 5128.57 6.21726 2.02589 0
M  V30 37555 H 5130.06 7.86112 2.9231 0
M  V30 37556 H 5128.36 9.11627 4.55076 0
M  V30 37557 H 5128.17 9.9573 2.34194 0
M  V30 37558 H 5126.54 9.2792 2.67832 0
M  V30 37559 H 5129.18 4.67702 4.28772 0
M  V30 37560 P 5131.04 7.39546 4.75277 0
M  V30 37561 O 5132.46 7.81777 5.05738 0
M  V30 37562 O 5130.68 7.1065 3.32998 0
M  V30 37563 O 5130.72 6.04542 5.56673 0
M  V30 37564 C 5130.56 6.22772 7.02095 0
M  V30 37565 C 5131.1 4.97725 7.70406 0
M  V30 37566 O 5130.04 4.13256 7.58987 0
M  V30 37567 C 5132.32 4.28231 7.11815 0
M  V30 37568 O 5133.05 3.49945 8.01648 0
M  V30 37569 C 5131.65 3.5063 5.96244 0
M  V30 37570 O 5132.45 2.36482 5.64681 0
M  V30 37571 C 5130.31 3.15122 6.56374 0
M  V30 37572 H 5130.34 2.13853 6.99751 0
M  V30 37573 H 5131.53 4.13501 5.06559 0
M  V30 37574 H 5133.01 5.03285 6.70911 0
M  V30 37575 H 5131.32 5.20877 8.75697 0
M  V30 37576 H 5131.13 7.11046 7.35349 0
M  V30 37577 H 5129.5 6.35815 7.26986 0
M  V30 37578 H 5132.13 1.61644 6.13565 0
M  V30 37579 P 5133.99 3.65191 7.99657 0
M  V30 37580 O 5135.41 3.8425 8.48115 0
M  V30 37581 O 5133.63 4.17805 6.64342 0
M  V30 37582 O 5133.67 2.07613 7.95143 0
M  V30 37583 C 5133.51 1.44328 9.27336 0
M  V30 37584 C 5134.05 0.0220036 9.17197 0
M  V30 37585 O 5132.99 -0.626867 8.61923 0
M  V30 37586 C 5135.27 -0.24586 8.30336 0
M  V30 37587 O 5136 -1.39011 8.63583 0
M  V30 37588 C 5134.6 -0.273849 6.91158 0
M  V30 37589 O 5135.4 -1.06348 6.02892 0
M  V30 37590 C 5133.26 -0.897649 7.22545 0
M  V30 37591 H 5133.29 -1.9841 7.04286 0
M  V30 37592 H 5134.48 0.739928 6.497 0
M  V30 37593 H 5135.96 0.60668 8.36503 0
M  V30 37594 H 5134.27 -0.352479 10.1829 0
M  V30 37595 H 5134.08 2.00611 10.0304 0
M  V30 37596 H 5132.45 1.41843 9.55327 0
M  V30 37597 H 5135.08 -1.95734 6.03555 0
M  V30 37598 P 5136.94 -1.25109 8.70152 0
M  V30 37599 O 5138.36 -1.35274 9.21221 0
M  V30 37600 O 5136.58 -0.0769065 7.84762 0
M  V30 37601 O 5136.62 -2.55232 7.81161 0
M  V30 37602 C 5136.46 -3.79939 8.58154 0
M  V30 37603 C 5137 -4.94023 7.72785 0
M  V30 37604 O 5135.94 -5.18726 6.91205 0
M  V30 37605 C 5138.22 -4.69597 6.85231 0
M  V30 37606 O 5138.96 -5.83832 6.51337 0
M  V30 37607 C 5137.55 -3.96706 5.66633 0
M  V30 37608 O 5138.35 -4.15414 4.49689 0
M  V30 37609 C 5136.21 -4.66153 5.59313 0
M  V30 37610 H 5136.24 -5.47679 4.85214 0
M  V30 37611 H 5137.43 -2.89008 5.86566 0
M  V30 37612 H 5138.91 -4.0121 7.36511 0
M  V30 37613 H 5137.22 -5.80182 8.37584 0
M  V30 37614 H 5137.03 -3.73517 9.52265 0
M  V30 37615 H 5135.4 -3.97163 8.80359 0
M  V30 37616 H 5138.04 -4.90969 4.01921 0
M  V30 37617 P 5139.89 -5.75688 6.64379 0
M  V30 37618 O 5141.31 -6.11849 7.01846 0
M  V30 37619 O 5139.53 -4.30744 6.56026 0
M  V30 37620 O 5139.57 -6.37042 5.19165 0
M  V30 37621 C 5139.41 -7.83578 5.16515 0
M  V30 37622 C 5139.95 -8.33398 3.83019 0
M  V30 37623 O 5138.89 -8.10074 3.01034 0
M  V30 37624 C 5141.17 -7.65514 3.2257 0
M  V30 37625 O 5141.91 -8.4329 2.32297 0
M  V30 37626 C 5140.5 -6.40075 2.62207 0
M  V30 37627 O 5141.3 -5.92589 1.53712 0
M  V30 37628 C 5139.16 -6.9454 2.18503 0
M  V30 37629 H 5139.19 -7.23063 1.12091 0
M  V30 37630 H 5140.38 -5.6025 3.37201 0
M  V30 37631 H 5141.86 -7.35707 4.02681 0
M  V30 37632 H 5140.17 -9.40912 3.9095 0
M  V30 37633 H 5139.98 -8.29056 5.99158 0
M  V30 37634 H 5138.35 -8.10073 5.25882 0
M  V30 37635 H 5140.99 -6.30324 0.726794 0
M  V30 37636 P 5142.84 -8.4349 2.47671 0
M  V30 37637 O 5144.27 -8.94167 2.5964 0
M  V30 37638 O 5142.48 -7.1704 3.19006 0
M  V30 37639 O 5142.52 -8.16596 0.923387 0
M  V30 37640 C 5142.36 -9.38437 0.108857 0
M  V30 37641 C 5142.9 -9.08175 -1.28353 0
M  V30 37642 O 5141.84 -8.44229 -1.84713 0
M  V30 37643 C 5144.12 -8.18386 -1.42505 0
M  V30 37644 O 5144.86 -8.3501 -2.60497 0
M  V30 37645 C 5143.45 -6.80225 -1.25468 0
M  V30 37646 O 5144.25 -5.81621 -1.91066 0
M  V30 37647 C 5142.11 -7.02416 -1.9168 0
M  V30 37648 H 5142.14 -6.6888 -2.96621 0
M  V30 37649 H 5143.33 -6.53617 -0.192223 0
M  V30 37650 H 5144.81 -8.36622 -0.589963 0
M  V30 37651 H 5143.12 -10.0291 -1.79807 0
M  V30 37652 H 5142.93 -10.2138 0.558219 0
M  V30 37653 H 5141.3 -9.6579 0.0444202 0
M  V30 37654 H 5143.94 -5.69556 -2.79637 0
M  V30 37655 P 5145.79 -8.4349 -2.47671 0
M  V30 37656 O 5147.22 -8.92593 -2.65 0
M  V30 37657 O 5145.43 -7.7568 -1.19296 0
M  V30 37658 O 5145.47 -7.36886 -3.63805 0
M  V30 37659 C 5145.31 -7.95349 -4.982 0
M  V30 37660 C 5145.85 -6.94612 -5.98974 0
M  V30 37661 O 5144.8 -6.10347 -6.11815 0
M  V30 37662 C 5147.07 -6.11426 -5.62335 0
M  V30 37663 O 5147.81 -5.6162 -6.70584 0
M  V30 37664 C 5146.4 -5.04409 -4.73308 0
M  V30 37665 O 5147.2 -3.85992 -4.75183 0
M  V30 37666 C 5145.06 -4.8728 -5.41006 0
M  V30 37667 H 5145.1 -4.02333 -6.11157 0
M  V30 37668 H 5146.28 -5.39466 -3.69543 0
M  V30 37669 H 5147.76 -6.71916 -5.01943 0
M  V30 37670 H 5146.07 -7.4649 -6.93477 0
M  V30 37671 H 5145.88 -8.89416 -5.05237 0
M  V30 37672 H 5144.25 -8.14876 -5.18409 0
M  V30 37673 H 5146.89 -3.27957 -5.4317 0
M  V30 37674 P 5148.74 -5.75688 -6.64379 0
M  V30 37675 O 5150.17 -6.07627 -7.05504 0
M  V30 37676 O 5148.38 -5.88047 -5.19722 0
M  V30 37677 O 5148.42 -4.2322 -7.04443 0
M  V30 37678 C 5148.26 -3.99743 -8.4911 0
M  V30 37679 C 5148.8 -2.60516 -8.79425 0
M  V30 37680 O 5147.75 -1.82684 -8.4467 0
M  V30 37681 C 5150.02 -2.10343 -8.03628 0
M  V30 37682 O 5150.76 -1.09919 -8.67766 0
M  V30 37683 C 5149.35 -1.68446 -6.70876 0
M  V30 37684 O 5150.15 -0.678137 -6.08433 0
M  V30 37685 C 5148.01 -1.17436 -7.18567 0
M  V30 37686 H 5148.05 -0.0804732 -7.31656 0
M  V30 37687 H 5149.23 -2.54037 -6.02537 0
M  V30 37688 H 5150.71 -2.93881 -7.85526 0
M  V30 37689 H 5149.02 -2.53065 -9.86973 0
M  V30 37690 H 5148.83 -4.75072 -9.05887 0
M  V30 37691 H 5147.2 -4.05244 -8.76668 0
M  V30 37692 H 5149.84 0.177647 -6.34251 0
M  V30 37693 P 5151.7 -1.25109 -8.70152 0
M  V30 37694 O 5153.12 -1.29744 -9.22016 0
M  V30 37695 O 5151.34 -2.13714 -7.55141 0
M  V30 37696 O 5151.37 0.248149 -8.21425 0
M  V30 37697 C 5151.21 1.22779 -9.30434 0
M  V30 37698 C 5151.75 2.56293 -8.80664 0
M  V30 37699 O 5150.7 3.02979 -8.09349 0
M  V30 37700 C 5152.97 2.57523 -7.89775 0
M  V30 37701 O 5153.71 3.7668 -7.89438 0
M  V30 37702 C 5152.3 2.20997 -6.55446 0
M  V30 37703 O 5153.1 2.71895 -5.48509 0
M  V30 37704 C 5150.96 2.89693 -6.67988 0
M  V30 37705 H 5151 3.88793 -6.19859 0
M  V30 37706 H 5152.18 1.12046 -6.44229 0
M  V30 37707 H 5153.66 1.7746 -8.19711 0
M  V30 37708 H 5151.97 3.20706 -9.67112 0
M  V30 37709 H 5151.78 0.901032 -10.1892 0
M  V30 37710 H 5150.15 1.33049 -9.56592 0
M  V30 37711 H 5152.79 3.57847 -5.23962 0
M  V30 37712 P 5154.65 3.65191 -7.99657 0
M  V30 37713 O 5156.07 3.89374 -8.45885 0
M  V30 37714 O 5154.29 2.28472 -7.50807 0
M  V30 37715 O 5154.32 4.64972 -6.77611 0
M  V30 37716 C 5154.16 6.06383 -7.16428 0
M  V30 37717 C 5154.7 6.91731 -6.02299 0
M  V30 37718 O 5153.65 6.92369 -5.17005 0
M  V30 37719 C 5155.92 6.43627 -5.25174 0
M  V30 37720 O 5156.66 7.43686 -4.60469 0
M  V30 37721 C 5155.25 5.40275 -4.31916 0
M  V30 37722 O 5156.05 5.24878 -3.14911 0
M  V30 37723 C 5153.91 6.04847 -4.05327 0
M  V30 37724 N 5152.87 5.04166 -3.98114 0
M  V30 37725 C 5153.04 3.84629 -4.59066 0
M  V30 37726 N 5152.01 3.0363 -4.45343 0
M  V30 37727 C 5151.13 3.76722 -3.68523 0
M  V30 37728 C 5149.86 3.43528 -3.17088 0
M  V30 37729 N 5149.26 2.23665 -3.37397 0
M  V30 37730 N 5149.3 4.44526 -2.44231 0
M  V30 37731 C 5149.9 5.65243 -2.20146 0
M  V30 37732 N 5151.08 6.00221 -2.65453 0
M  V30 37733 C 5151.65 5.00564 -3.39083 0
M  V30 37734 H 5153.95 6.62104 -3.11218 0
M  V30 37735 H 5155.13 4.42969 -4.80867 0
M  V30 37736 H 5156.61 5.92458 -5.93643 0
M  V30 37737 H 5154.92 7.93295 -6.39407 0
M  V30 37738 H 5154.73 6.26671 -8.0846 0
M  V30 37739 H 5153.1 6.29101 -7.32804 0
M  V30 37740 H 5149.36 6.36894 -1.5883 0
M  V30 37741 H 5153.94 3.58193 -5.14248 0
M  V30 37742 H 5148.33 2.05145 -2.97047 0
M  V30 37743 H 5149.74 1.51255 -3.92998 0
M  V30 37744 H 5155.74 5.84223 -2.47279 0
M  V30 37745 P 5157.6 7.39546 -4.75277 0
M  V30 37746 O 5159.02 7.84798 -5.01039 0
M  V30 37747 O 5157.24 5.9812 -5.08098 0
M  V30 37748 O 5157.27 7.57503 -3.1866 0
M  V30 37749 C 5157.11 8.97357 -2.74833 0
M  V30 37750 C 5157.65 9.07548 -1.32709 0
M  V30 37751 O 5156.6 8.62072 -0.606159 0
M  V30 37752 C 5158.87 8.25383 -0.938334 0
M  V30 37753 O 5159.61 8.74577 0.146954 0
M  V30 37754 C 5158.2 6.8802 -0.712559 0
M  V30 37755 O 5159 6.1189 0.194655 0
M  V30 37756 C 5156.87 7.27966 -0.139777 0
M  V30 37757 H 5156.9 7.25354 0.961601 0
M  V30 37758 H 5158.08 6.32557 -1.65702 0
M  V30 37759 H 5159.56 8.19355 -1.79097 0
M  V30 37760 H 5157.87 10.1294 -1.10029 0
M  V30 37761 H 5157.68 9.64276 -3.41316 0
M  V30 37762 H 5156.05 9.25417 -2.76357 0
M  V30 37763 H 5158.69 6.25267 1.07847 0
M  V30 37764 P 5160.55 8.791 -3.78936e-10 0
M  V30 37765 O 5161.97 9.31096 0.027933 0
M  V30 37766 O 5160.19 7.77869 -1.04071 0
M  V30 37767 O 5160.22 8.09533 1.41463 0
M  V30 37768 C 5160.06 9.0349 2.53943 0
M  V30 37769 C 5160.6 8.35226 3.79016 0
M  V30 37770 O 5159.55 7.57992 4.15078 0
M  V30 37771 C 5161.82 7.45087 3.67298 0
M  V30 37772 O 5162.56 7.27796 4.85194 0
M  V30 37773 C 5161.15 6.17323 3.12027 0
M  V30 37774 O 5161.95 5.04231 3.47188 0
M  V30 37775 C 5159.82 6.19961 3.81809 0
M  V30 37776 H 5159.85 5.58218 4.73051 0
M  V30 37777 H 5161.03 6.21726 2.02589 0
M  V30 37778 H 5162.51 7.86112 2.9231 0
M  V30 37779 H 5160.82 9.11627 4.55076 0
M  V30 37780 H 5160.63 9.9573 2.34194 0
M  V30 37781 H 5159 9.2792 2.67832 0
M  V30 37782 H 5161.64 4.67702 4.28772 0
M  V30 37783 P 5163.5 7.39546 4.75277 0
M  V30 37784 O 5164.92 7.81861 5.05793 0
M  V30 37785 O 5163.14 7.1065 3.32998 0
M  V30 37786 O 5163.17 6.04542 5.56673 0
M  V30 37787 C 5163.01 6.22839 7.02169 0
M  V30 37788 C 5163.55 4.97725 7.70406 0
M  V30 37789 O 5162.5 4.13208 7.58899 0
M  V30 37790 C 5164.77 4.28231 7.11815 0
M  V30 37791 O 5165.51 3.49945 8.01648 0
M  V30 37792 C 5164.1 3.5063 5.96244 0
M  V30 37793 O 5164.9 2.37008 5.64352 0
M  V30 37794 C 5162.77 3.15122 6.56374 0
M  V30 37795 N 5161.72 3.22311 5.55692 0
M  V30 37796 C 5161.89 3.99655 4.46046 0
M  V30 37797 N 5160.87 3.97599 3.63918 0
M  V30 37798 C 5159.98 3.11159 4.25334 0
M  V30 37799 C 5158.71 2.64972 3.85157 0
M  V30 37800 N 5158.15 1.78482 4.74759 0
M  V30 37801 C 5158.75 1.37463 5.90819 0
M  V30 37802 N 5159.93 1.7733 6.31889 0
M  V30 37803 C 5160.5 2.64393 5.43725 0
M  V30 37804 H 5163.98 4.12931 5.06895 0
M  V30 37805 H 5165.46 5.03285 6.70911 0
M  V30 37806 H 5163.77 5.20001 8.76217 0
M  V30 37807 H 5163.58 7.11046 7.35349 0
M  V30 37808 H 5161.95 6.35815 7.26986 0
M  V30 37809 H 5162.79 4.58037 4.27732 0
M  V30 37810 H 5164.59 1.61619 6.13468 0
M  V30 37811 P 5166.45 3.65191 7.99657 0
M  V30 37812 O 5167.87 3.8425 8.48115 0
M  V30 37813 O 5166.09 4.17805 6.64342 0
M  V30 37814 O 5166.13 2.07613 7.95143 0
M  V30 37815 C 5165.97 1.44328 9.27336 0
M  V30 37816 C 5166.51 0.0220036 9.17197 0
M  V30 37817 O 5165.45 -0.626867 8.61923 0
M  V30 37818 C 5167.72 -0.24586 8.30336 0
M  V30 37819 O 5168.46 -1.39011 8.63583 0
M  V30 37820 C 5167.05 -0.273849 6.91158 0
M  V30 37821 O 5167.85 -1.06348 6.02892 0
M  V30 37822 C 5165.72 -0.897649 7.22545 0
M  V30 37823 H 5165.75 -1.9841 7.04286 0
M  V30 37824 H 5166.93 0.739928 6.497 0
M  V30 37825 H 5168.42 0.60668 8.36503 0
M  V30 37826 H 5166.72 -0.352479 10.1829 0
M  V30 37827 H 5166.53 2.00611 10.0304 0
M  V30 37828 H 5164.9 1.41843 9.55327 0
M  V30 37829 H 5167.54 -1.95734 6.03555 0
M  V30 37830 P 5169.4 -1.25109 8.70152 0
M  V30 37831 O 5170.82 -1.35303 9.21419 0
M  V30 37832 O 5169.04 -0.0769065 7.84762 0
M  V30 37833 O 5169.08 -2.55232 7.81161 0
M  V30 37834 C 5168.92 -3.79939 8.58154 0
M  V30 37835 C 5169.46 -4.93969 7.72701 0
M  V30 37836 O 5168.4 -5.18726 6.91205 0
M  V30 37837 C 5170.67 -4.69597 6.85231 0
M  V30 37838 O 5171.41 -5.83832 6.51337 0
M  V30 37839 C 5170.01 -3.96706 5.66633 0
M  V30 37840 O 5170.8 -4.15346 4.49615 0
M  V30 37841 C 5168.67 -4.66153 5.59313 0
M  V30 37842 N 5167.62 -3.71582 5.24027 0
M  V30 37843 C 5167.69 -2.46018 5.67902 0
M  V30 37844 N 5166.64 -1.74868 5.24518 0
M  V30 37845 C 5165.91 -2.61333 4.54528 0
M  V30 37846 C 5164.6 -2.46162 3.95441 0
M  V30 37847 O 5163.87 -1.46013 3.94122 0
M  V30 37848 N 5164.17 -3.59334 3.34752 0
M  V30 37849 C 5164.92 -4.79605 3.3023 0
M  V30 37850 N 5164.32 -5.82109 2.6065 0
M  V30 37851 N 5166.07 -4.97402 3.8843 0
M  V30 37852 C 5166.53 -3.86258 4.50476 0
M  V30 37853 H 5168.7 -5.47679 4.85214 0
M  V30 37854 H 5169.88 -2.88964 5.86476 0
M  V30 37855 H 5171.37 -4.01947 7.36109 0
M  V30 37856 H 5169.67 -5.80182 8.37584 0
M  V30 37857 H 5169.48 -3.73517 9.52265 0
M  V30 37858 H 5167.85 -3.97163 8.80359 0
M  V30 37859 H 5163.28 -3.5825 2.90294 0
M  V30 37860 H 5168.48 -2.06161 6.30974 0
M  V30 37861 H 5163.41 -5.66979 2.15354 0
M  V30 37862 H 5164.79 -6.73686 2.54344 0
M  V30 37863 H 5170.49 -4.90891 4.01857 0
M  V30 37864 P 5172.35 -5.75688 6.64379 0
M  V30 37865 O 5173.77 -6.11849 7.01846 0
M  V30 37866 O 5171.99 -4.30744 6.56026 0
M  V30 37867 O 5172.03 -6.37042 5.19165 0
M  V30 37868 C 5171.87 -7.83578 5.16515 0
M  V30 37869 C 5172.41 -8.33398 3.83019 0
M  V30 37870 O 5171.35 -8.10074 3.01034 0
M  V30 37871 C 5173.62 -7.65514 3.2257 0
M  V30 37872 O 5174.36 -8.4329 2.32297 0
M  V30 37873 C 5172.96 -6.40075 2.62207 0
M  V30 37874 O 5173.75 -5.92589 1.53712 0
M  V30 37875 C 5171.62 -6.9454 2.18503 0
M  V30 37876 H 5171.65 -7.23063 1.12091 0
M  V30 37877 H 5172.83 -5.6025 3.37201 0
M  V30 37878 H 5174.32 -7.35707 4.02681 0
M  V30 37879 H 5172.62 -9.40912 3.9095 0
M  V30 37880 H 5172.43 -8.29056 5.99158 0
M  V30 37881 H 5170.8 -8.10073 5.25882 0
M  V30 37882 H 5173.44 -6.30324 0.726794 0
M  V30 37883 P 5175.3 -8.4349 2.47671 0
M  V30 37884 O 5176.72 -8.94167 2.5964 0
M  V30 37885 O 5174.94 -7.1704 3.19006 0
M  V30 37886 O 5174.98 -8.16596 0.923387 0
M  V30 37887 C 5174.82 -9.38437 0.108857 0
M  V30 37888 C 5175.36 -9.08175 -1.28353 0
M  V30 37889 O 5174.3 -8.44229 -1.84713 0
M  V30 37890 C 5176.57 -8.18386 -1.42505 0
M  V30 37891 O 5177.31 -8.3501 -2.60497 0
M  V30 37892 C 5175.91 -6.80225 -1.25468 0
M  V30 37893 O 5176.7 -5.81621 -1.91066 0
M  V30 37894 C 5174.57 -7.02416 -1.9168 0
M  V30 37895 H 5174.6 -6.6888 -2.96621 0
M  V30 37896 H 5175.78 -6.53617 -0.192223 0
M  V30 37897 H 5177.27 -8.36622 -0.589963 0
M  V30 37898 H 5175.57 -10.0291 -1.79807 0
M  V30 37899 H 5175.38 -10.2138 0.558219 0
M  V30 37900 H 5173.75 -9.6579 0.0444202 0
M  V30 37901 H 5176.39 -5.69556 -2.79637 0
M  V30 37902 P 5178.25 -8.4349 -2.47671 0
M  V30 37903 O 5179.67 -8.92593 -2.65 0
M  V30 37904 O 5177.89 -7.7568 -1.19296 0
M  V30 37905 O 5177.93 -7.36886 -3.63805 0
M  V30 37906 C 5177.77 -7.95349 -4.982 0
M  V30 37907 C 5178.31 -6.94612 -5.98974 0
M  V30 37908 O 5177.25 -6.10347 -6.11815 0
M  V30 37909 C 5179.53 -6.11426 -5.62335 0
M  V30 37910 O 5180.26 -5.6162 -6.70584 0
M  V30 37911 C 5178.86 -5.04409 -4.73308 0
M  V30 37912 O 5179.66 -3.85992 -4.75183 0
M  V30 37913 C 5177.52 -4.8728 -5.41006 0
M  V30 37914 H 5177.55 -4.02333 -6.11157 0
M  V30 37915 H 5178.73 -5.39466 -3.69543 0
M  V30 37916 H 5180.22 -6.71916 -5.01943 0
M  V30 37917 H 5178.52 -7.4649 -6.93477 0
M  V30 37918 H 5178.33 -8.89416 -5.05237 0
M  V30 37919 H 5176.7 -8.14876 -5.18409 0
M  V30 37920 H 5179.34 -3.27957 -5.4317 0
M  V30 37921 P 5181.2 -5.75688 -6.64379 0
M  V30 37922 O 5182.62 -6.07627 -7.05504 0
M  V30 37923 O 5180.84 -5.88047 -5.19722 0
M  V30 37924 O 5180.88 -4.2322 -7.04443 0
M  V30 37925 C 5180.72 -3.99743 -8.4911 0
M  V30 37926 C 5181.26 -2.60516 -8.79425 0
M  V30 37927 O 5180.2 -1.82684 -8.4467 0
M  V30 37928 C 5182.48 -2.10343 -8.03628 0
M  V30 37929 O 5183.21 -1.09919 -8.67766 0
M  V30 37930 C 5181.81 -1.68446 -6.70876 0
M  V30 37931 O 5182.61 -0.678137 -6.08433 0
M  V30 37932 C 5180.47 -1.17436 -7.18567 0
M  V30 37933 H 5180.5 -0.0804732 -7.31656 0
M  V30 37934 H 5181.68 -2.54037 -6.02537 0
M  V30 37935 H 5183.17 -2.93881 -7.85526 0
M  V30 37936 H 5181.47 -2.53065 -9.86973 0
M  V30 37937 H 5181.28 -4.75072 -9.05887 0
M  V30 37938 H 5179.65 -4.05244 -8.76668 0
M  V30 37939 H 5182.29 0.177647 -6.34251 0
M  V30 37940 P 5184.15 -1.25109 -8.70152 0
M  V30 37941 O 5185.57 -1.29744 -9.22016 0
M  V30 37942 O 5183.79 -2.13714 -7.55141 0
M  V30 37943 O 5183.83 0.248149 -8.21425 0
M  V30 37944 C 5183.67 1.22779 -9.30434 0
M  V30 37945 C 5184.21 2.56293 -8.80664 0
M  V30 37946 O 5183.15 3.02979 -8.09349 0
M  V30 37947 C 5185.43 2.57523 -7.89775 0
M  V30 37948 O 5186.16 3.7668 -7.89438 0
M  V30 37949 C 5184.76 2.20997 -6.55446 0
M  V30 37950 O 5185.56 2.71895 -5.48509 0
M  V30 37951 C 5183.42 2.89693 -6.67988 0
M  V30 37952 H 5183.45 3.88793 -6.19859 0
M  V30 37953 H 5184.64 1.12046 -6.44229 0
M  V30 37954 H 5186.12 1.7746 -8.19711 0
M  V30 37955 H 5184.43 3.20706 -9.67112 0
M  V30 37956 H 5184.24 0.901032 -10.1892 0
M  V30 37957 H 5182.61 1.33049 -9.56592 0
M  V30 37958 H 5185.24 3.57847 -5.23962 0
M  V30 37959 P 5187.1 3.65191 -7.99657 0
M  V30 37960 O 5188.52 3.89332 -8.45794 0
M  V30 37961 O 5186.74 2.28472 -7.50807 0
M  V30 37962 O 5186.78 4.64972 -6.77611 0
M  V30 37963 C 5186.62 6.06319 -7.16352 0
M  V30 37964 C 5187.16 6.91731 -6.02299 0
M  V30 37965 O 5186.1 6.92449 -5.17064 0
M  V30 37966 C 5188.38 6.43627 -5.25174 0
M  V30 37967 O 5189.12 7.43686 -4.60469 0
M  V30 37968 C 5187.71 5.40275 -4.31916 0
M  V30 37969 O 5188.51 5.25279 -3.14438 0
M  V30 37970 C 5186.37 6.04847 -4.05327 0
M  V30 37971 H 5186.4 6.62195 -3.11261 0
M  V30 37972 H 5187.59 4.42556 -4.81383 0
M  V30 37973 H 5189.07 5.92458 -5.93643 0
M  V30 37974 H 5187.38 7.92655 -6.402 0
M  V30 37975 H 5187.19 6.26671 -8.0846 0
M  V30 37976 H 5185.56 6.29101 -7.32804 0
M  V30 37977 H 5188.2 5.84315 -2.47318 0
M  V30 37978 P 5190.05 7.39546 -4.75277 0
M  V30 37979 O 5191.47 7.84882 -5.01092 0
M  V30 37980 O 5189.69 5.9812 -5.08098 0
M  V30 37981 O 5189.73 7.57503 -3.1866 0
M  V30 37982 C 5189.57 8.97452 -2.74862 0
M  V30 37983 C 5190.11 9.07548 -1.32709 0
M  V30 37984 O 5189.05 8.61972 -0.606089 0
M  V30 37985 C 5191.33 8.25383 -0.938334 0
M  V30 37986 O 5192.07 8.74577 0.146954 0
M  V30 37987 C 5190.66 6.8802 -0.712559 0
M  V30 37988 O 5191.46 6.1181 0.188505 0
M  V30 37989 C 5189.32 7.27966 -0.139777 0
M  V30 37990 N 5188.28 6.39368 -0.623421 0
M  V30 37991 C 5188.45 5.71761 -1.78245 0
M  V30 37992 N 5187.42 4.962 -2.10491 0
M  V30 37993 C 5186.54 5.16158 -1.0635 0
M  V30 37994 C 5185.27 4.60425 -0.810266 0
M  V30 37995 N 5184.7 5.06 0.348685 0
M  V30 37996 C 5185.31 5.94532 1.20395 0
M  V30 37997 N 5186.48 6.48452 1.01191 0
M  V30 37998 C 5187.06 6.04423 -0.146291 0
M  V30 37999 H 5190.54 6.32625 -1.65044 0
M  V30 38000 H 5192.02 8.19355 -1.79097 0
M  V30 38001 H 5190.33 10.1305 -1.09016 0
M  V30 38002 H 5190.14 9.64276 -3.41316 0
M  V30 38003 H 5188.51 9.25417 -2.76357 0
M  V30 38004 H 5189.35 5.79354 -2.38959 0
M  V30 38005 H 5191.15 6.25169 1.0783 0
M  V30 38006 P 5193 8.791 -3.84122e-10 0
M  V30 38007 O 5194.43 9.31096 0.027933 0
M  V30 38008 O 5192.64 7.77869 -1.04071 0
M  V30 38009 O 5192.68 8.09533 1.41463 0
M  V30 38010 C 5192.52 9.0349 2.53943 0
M  V30 38011 C 5193.06 8.35226 3.79016 0
M  V30 38012 O 5192 7.57992 4.15078 0
M  V30 38013 C 5194.28 7.45087 3.67298 0
M  V30 38014 O 5195.02 7.27796 4.85194 0
M  V30 38015 C 5193.61 6.17323 3.12027 0
M  V30 38016 O 5194.41 5.04231 3.47188 0
M  V30 38017 C 5192.27 6.19961 3.81809 0
M  V30 38018 H 5192.3 5.58218 4.73051 0
M  V30 38019 H 5193.49 6.21726 2.02589 0
M  V30 38020 H 5194.97 7.86112 2.9231 0
M  V30 38021 H 5193.28 9.11627 4.55076 0
M  V30 38022 H 5193.09 9.9573 2.34194 0
M  V30 38023 H 5191.46 9.2792 2.67832 0
M  V30 38024 H 5194.1 4.67702 4.28772 0
M  V30 38025 P 5195.95 7.39546 4.75277 0
M  V30 38026 O 5197.38 7.81777 5.05738 0
M  V30 38027 O 5195.59 7.1065 3.32998 0
M  V30 38028 O 5195.63 6.04542 5.56673 0
M  V30 38029 C 5195.47 6.22772 7.02095 0
M  V30 38030 C 5196.01 4.97725 7.70406 0
M  V30 38031 O 5194.95 4.13256 7.58987 0
M  V30 38032 C 5197.23 4.28231 7.11815 0
M  V30 38033 O 5197.97 3.49945 8.01648 0
M  V30 38034 C 5196.56 3.5063 5.96244 0
M  V30 38035 O 5197.36 2.36482 5.64681 0
M  V30 38036 C 5195.22 3.15122 6.56374 0
M  V30 38037 H 5195.25 2.13853 6.99751 0
M  V30 38038 H 5196.44 4.13501 5.06559 0
M  V30 38039 H 5197.92 5.03285 6.70911 0
M  V30 38040 H 5196.23 5.20877 8.75697 0
M  V30 38041 H 5196.04 7.11046 7.35349 0
M  V30 38042 H 5194.41 6.35815 7.26986 0
M  V30 38043 H 5197.05 1.61644 6.13565 0
M  V30 38044 P 5198.9 3.65191 7.99657 0
M  V30 38045 O 5200.33 3.8425 8.48115 0
M  V30 38046 O 5198.54 4.17805 6.64342 0
M  V30 38047 O 5198.58 2.07613 7.95143 0
M  V30 38048 C 5198.42 1.44328 9.27336 0
M  V30 38049 C 5198.96 0.0220036 9.17197 0
M  V30 38050 O 5197.91 -0.626867 8.61923 0
M  V30 38051 C 5200.18 -0.24586 8.30336 0
M  V30 38052 O 5200.92 -1.39011 8.63583 0
M  V30 38053 C 5199.51 -0.273849 6.91158 0
M  V30 38054 O 5200.31 -1.06348 6.02892 0
M  V30 38055 C 5198.17 -0.897649 7.22545 0
M  V30 38056 H 5198.21 -1.9841 7.04286 0
M  V30 38057 H 5199.39 0.739928 6.497 0
M  V30 38058 H 5200.87 0.60668 8.36503 0
M  V30 38059 H 5199.18 -0.352479 10.1829 0
M  V30 38060 H 5198.99 2.00611 10.0304 0
M  V30 38061 H 5197.36 1.41843 9.55327 0
M  V30 38062 H 5200 -1.95734 6.03555 0
M  V30 38063 P 5201.85 -1.25109 8.70152 0
M  V30 38064 O 5203.28 -1.35274 9.21221 0
M  V30 38065 O 5201.49 -0.0769065 7.84762 0
M  V30 38066 O 5201.53 -2.55232 7.81161 0
M  V30 38067 C 5201.37 -3.79939 8.58154 0
M  V30 38068 C 5201.91 -4.94023 7.72785 0
M  V30 38069 O 5200.86 -5.18726 6.91205 0
M  V30 38070 C 5203.13 -4.69597 6.85231 0
M  V30 38071 O 5203.87 -5.83832 6.51337 0
M  V30 38072 C 5202.46 -3.96706 5.66633 0
M  V30 38073 O 5203.26 -4.15414 4.49689 0
M  V30 38074 C 5201.12 -4.66153 5.59313 0
M  V30 38075 H 5201.16 -5.47679 4.85214 0
M  V30 38076 H 5202.34 -2.89008 5.86566 0
M  V30 38077 H 5203.82 -4.0121 7.36511 0
M  V30 38078 H 5202.13 -5.80182 8.37584 0
M  V30 38079 H 5201.94 -3.73517 9.52265 0
M  V30 38080 H 5200.31 -3.97163 8.80359 0
M  V30 38081 H 5202.95 -4.90969 4.01921 0
M  V30 38082 P 5204.81 -5.75688 6.64379 0
M  V30 38083 O 5206.23 -6.11849 7.01846 0
M  V30 38084 O 5204.45 -4.30744 6.56026 0
M  V30 38085 O 5204.48 -6.37042 5.19165 0
M  V30 38086 C 5204.32 -7.83578 5.16515 0
M  V30 38087 C 5204.86 -8.33398 3.83019 0
M  V30 38088 O 5203.81 -8.10074 3.01034 0
M  V30 38089 C 5206.08 -7.65514 3.2257 0
M  V30 38090 O 5206.82 -8.4329 2.32297 0
M  V30 38091 C 5205.41 -6.40075 2.62207 0
M  V30 38092 O 5206.21 -5.92589 1.53712 0
M  V30 38093 C 5204.07 -6.9454 2.18503 0
M  V30 38094 H 5204.11 -7.23063 1.12091 0
M  V30 38095 H 5205.29 -5.6025 3.37201 0
M  V30 38096 H 5206.77 -7.35707 4.02681 0
M  V30 38097 H 5205.08 -9.40912 3.9095 0
M  V30 38098 H 5204.89 -8.29056 5.99158 0
M  V30 38099 H 5203.26 -8.10073 5.25882 0
M  V30 38100 H 5205.9 -6.30324 0.726794 0
M  V30 38101 P 5207.76 -8.4349 2.47671 0
M  V30 38102 O 5209.18 -8.94167 2.5964 0
M  V30 38103 O 5207.4 -7.1704 3.19006 0
M  V30 38104 O 5207.43 -8.16596 0.923387 0
M  V30 38105 C 5207.27 -9.38437 0.108857 0
M  V30 38106 C 5207.81 -9.08175 -1.28353 0
M  V30 38107 O 5206.76 -8.44229 -1.84713 0
M  V30 38108 C 5209.03 -8.18386 -1.42505 0
M  V30 38109 O 5209.77 -8.3501 -2.60497 0
M  V30 38110 C 5208.36 -6.80225 -1.25468 0
M  V30 38111 O 5209.16 -5.81621 -1.91066 0
M  V30 38112 C 5207.03 -7.02416 -1.9168 0
M  V30 38113 H 5207.06 -6.6888 -2.96621 0
M  V30 38114 H 5208.24 -6.53617 -0.192223 0
M  V30 38115 H 5209.72 -8.36622 -0.589963 0
M  V30 38116 H 5208.03 -10.0291 -1.79807 0
M  V30 38117 H 5207.84 -10.2138 0.558219 0
M  V30 38118 H 5206.21 -9.6579 0.0444202 0
M  V30 38119 H 5208.85 -5.69556 -2.79637 0
M  V30 38120 P 5210.71 -8.4349 -2.47671 0
M  V30 38121 O 5212.13 -8.92593 -2.65 0
M  V30 38122 O 5210.35 -7.7568 -1.19296 0
M  V30 38123 O 5210.38 -7.36886 -3.63805 0
M  V30 38124 C 5210.22 -7.95349 -4.982 0
M  V30 38125 C 5210.76 -6.94612 -5.98974 0
M  V30 38126 O 5209.71 -6.10347 -6.11815 0
M  V30 38127 C 5211.98 -6.11426 -5.62335 0
M  V30 38128 O 5212.72 -5.6162 -6.70584 0
M  V30 38129 C 5211.31 -5.04409 -4.73308 0
M  V30 38130 O 5212.11 -3.85992 -4.75183 0
M  V30 38131 C 5209.98 -4.8728 -5.41006 0
M  V30 38132 H 5210.01 -4.02333 -6.11157 0
M  V30 38133 H 5211.19 -5.39466 -3.69543 0
M  V30 38134 H 5212.67 -6.71916 -5.01943 0
M  V30 38135 H 5210.98 -7.4649 -6.93477 0
M  V30 38136 H 5210.79 -8.89416 -5.05237 0
M  V30 38137 H 5209.16 -8.14876 -5.18409 0
M  V30 38138 H 5211.8 -3.27957 -5.4317 0
M  V30 38139 P 5213.66 -5.75688 -6.64379 0
M  V30 38140 O 5215.08 -6.07627 -7.05504 0
M  V30 38141 O 5213.3 -5.88047 -5.19722 0
M  V30 38142 O 5213.33 -4.2322 -7.04443 0
M  V30 38143 C 5213.17 -3.99743 -8.4911 0
M  V30 38144 C 5213.71 -2.60516 -8.79425 0
M  V30 38145 O 5212.66 -1.82684 -8.4467 0
M  V30 38146 C 5214.93 -2.10343 -8.03628 0
M  V30 38147 O 5215.67 -1.09919 -8.67766 0
M  V30 38148 C 5214.26 -1.68446 -6.70876 0
M  V30 38149 O 5215.06 -0.678137 -6.08433 0
M  V30 38150 C 5212.93 -1.17436 -7.18567 0
M  V30 38151 H 5212.96 -0.0804732 -7.31656 0
M  V30 38152 H 5214.14 -2.54037 -6.02537 0
M  V30 38153 H 5215.63 -2.93881 -7.85526 0
M  V30 38154 H 5213.93 -2.53065 -9.86973 0
M  V30 38155 H 5213.74 -4.75072 -9.05887 0
M  V30 38156 H 5212.11 -4.05244 -8.76668 0
M  V30 38157 H 5214.75 0.177647 -6.34251 0
M  V30 38158 P 5216.61 -1.25109 -8.70152 0
M  V30 38159 O 5218.03 -1.29744 -9.22016 0
M  V30 38160 O 5216.25 -2.13714 -7.55141 0
M  V30 38161 O 5216.28 0.248149 -8.21425 0
M  V30 38162 C 5216.12 1.22779 -9.30434 0
M  V30 38163 C 5216.66 2.56293 -8.80664 0
M  V30 38164 O 5215.61 3.02979 -8.09349 0
M  V30 38165 C 5217.88 2.57523 -7.89775 0
M  V30 38166 O 5218.62 3.7668 -7.89438 0
M  V30 38167 C 5217.21 2.20997 -6.55446 0
M  V30 38168 O 5218.01 2.71895 -5.48509 0
M  V30 38169 C 5215.88 2.89693 -6.67988 0
M  V30 38170 H 5215.91 3.88793 -6.19859 0
M  V30 38171 H 5217.09 1.12046 -6.44229 0
M  V30 38172 H 5218.58 1.7746 -8.19711 0
M  V30 38173 H 5216.88 3.20706 -9.67112 0
M  V30 38174 H 5216.69 0.901032 -10.1892 0
M  V30 38175 H 5215.06 1.33049 -9.56592 0
M  V30 38176 H 5217.7 3.57847 -5.23962 0
M  V30 38177 P 5219.56 3.65191 -7.99657 0
M  V30 38178 O 5220.98 3.89332 -8.45794 0
M  V30 38179 O 5219.2 2.28472 -7.50807 0
M  V30 38180 O 5219.24 4.64972 -6.77611 0
M  V30 38181 C 5219.08 6.06319 -7.16352 0
M  V30 38182 C 5219.62 6.91731 -6.02299 0
M  V30 38183 O 5218.56 6.92449 -5.17064 0
M  V30 38184 C 5220.83 6.43627 -5.25174 0
M  V30 38185 O 5221.57 7.43686 -4.60469 0
M  V30 38186 C 5220.16 5.40275 -4.31916 0
M  V30 38187 O 5220.96 5.25279 -3.14438 0
M  V30 38188 C 5218.83 6.04847 -4.05327 0
M  V30 38189 H 5218.86 6.62195 -3.11261 0
M  V30 38190 H 5220.04 4.42556 -4.81383 0
M  V30 38191 H 5221.53 5.92458 -5.93643 0
M  V30 38192 H 5219.83 7.92655 -6.402 0
M  V30 38193 H 5219.64 6.26671 -8.0846 0
M  V30 38194 H 5218.01 6.29101 -7.32804 0
M  V30 38195 H 5220.65 5.84315 -2.47318 0
M  V30 38196 P 5222.51 7.39546 -4.75277 0
M  V30 38197 O 5223.93 7.84966 -5.01146 0
M  V30 38198 O 5222.15 5.9812 -5.08098 0
M  V30 38199 O 5222.19 7.57503 -3.1866 0
M  V30 38200 C 5222.03 8.97357 -2.74833 0
M  V30 38201 C 5222.57 9.0745 -1.32694 0
M  V30 38202 O 5221.51 8.62072 -0.606159 0
M  V30 38203 C 5223.78 8.25383 -0.938334 0
M  V30 38204 O 5224.52 8.74577 0.146954 0
M  V30 38205 C 5223.12 6.8802 -0.712559 0
M  V30 38206 O 5223.91 6.11791 0.194623 0
M  V30 38207 C 5221.78 7.27966 -0.139777 0
M  V30 38208 N 5220.73 6.39368 -0.623421 0
M  V30 38209 C 5220.8 5.90299 -1.85969 0
M  V30 38210 N 5219.75 5.10919 -2.1133 0
M  V30 38211 C 5219.02 5.14646 -1.0015 0
M  V30 38212 C 5217.71 4.60057 -0.729219 0
M  V30 38213 O 5216.98 3.93476 -1.47746 0
M  V30 38214 N 5217.28 4.88302 0.523505 0
M  V30 38215 C 5218.03 5.63646 1.46207 0
M  V30 38216 N 5217.43 5.78186 2.69239 0
M  V30 38217 N 5219.18 6.19285 1.21544 0
M  V30 38218 C 5219.64 5.93392 -0.0308487 0
M  V30 38219 H 5221.81 7.25354 0.961601 0
M  V30 38220 H 5222.99 6.3246 -1.65676 0
M  V30 38221 H 5224.48 8.19533 -1.78278 0
M  V30 38222 H 5222.78 10.1294 -1.10029 0
M  V30 38223 H 5222.59 9.64276 -3.41316 0
M  V30 38224 H 5220.96 9.25417 -2.76357 0
M  V30 38225 H 5216.39 4.53993 0.806451 0
M  V30 38226 H 5221.59 6.11865 -2.57394 0
M  V30 38227 H 5216.52 5.34046 2.87467 0
M  V30 38228 H 5217.9 6.33391 3.42578 0
M  V30 38229 H 5223.6 6.25169 1.0783 0
M  V30 38230 P 5225.46 8.791 -3.89309e-10 0
M  V30 38231 O 5226.88 9.31096 0.027933 0
M  V30 38232 O 5225.1 7.77869 -1.04071 0
M  V30 38233 O 5225.14 8.09533 1.41463 0
M  V30 38234 C 5224.98 9.0349 2.53943 0
M  V30 38235 C 5225.52 8.35226 3.79016 0
M  V30 38236 O 5224.46 7.57992 4.15078 0
M  V30 38237 C 5226.73 7.45087 3.67298 0
M  V30 38238 O 5227.47 7.27796 4.85194 0
M  V30 38239 C 5226.07 6.17323 3.12027 0
M  V30 38240 O 5226.86 5.04231 3.47188 0
M  V30 38241 C 5224.73 6.19961 3.81809 0
M  V30 38242 H 5224.76 5.58218 4.73051 0
M  V30 38243 H 5225.94 6.21726 2.02589 0
M  V30 38244 H 5227.43 7.86112 2.9231 0
M  V30 38245 H 5225.73 9.11627 4.55076 0
M  V30 38246 H 5225.54 9.9573 2.34194 0
M  V30 38247 H 5223.91 9.2792 2.67832 0
M  V30 38248 H 5226.55 4.67702 4.28772 0
M  V30 38249 P 5228.41 7.39546 4.75277 0
M  V30 38250 O 5229.83 7.81861 5.05793 0
M  V30 38251 O 5228.05 7.1065 3.32998 0
M  V30 38252 O 5228.09 6.04542 5.56673 0
M  V30 38253 C 5227.93 6.22839 7.02169 0
M  V30 38254 C 5228.47 4.97725 7.70406 0
M  V30 38255 O 5227.41 4.13208 7.58899 0
M  V30 38256 C 5229.69 4.28231 7.11815 0
M  V30 38257 O 5230.42 3.49945 8.01648 0
M  V30 38258 C 5229.02 3.5063 5.96244 0
M  V30 38259 O 5229.82 2.37008 5.64352 0
M  V30 38260 C 5227.68 3.15122 6.56374 0
M  V30 38261 N 5226.64 3.22311 5.55692 0
M  V30 38262 C 5226.81 3.99655 4.46046 0
M  V30 38263 N 5225.78 3.97599 3.63918 0
M  V30 38264 C 5224.89 3.11159 4.25334 0
M  V30 38265 C 5223.63 2.64972 3.85157 0
M  V30 38266 N 5223.06 1.78482 4.74759 0
M  V30 38267 C 5223.66 1.37463 5.90819 0
M  V30 38268 N 5224.84 1.7733 6.31889 0
M  V30 38269 C 5225.42 2.64393 5.43725 0
M  V30 38270 H 5228.89 4.12931 5.06895 0
M  V30 38271 H 5230.38 5.03285 6.70911 0
M  V30 38272 H 5228.68 5.20001 8.76217 0
M  V30 38273 H 5228.49 7.11046 7.35349 0
M  V30 38274 H 5226.86 6.35815 7.26986 0
M  V30 38275 H 5227.71 4.58037 4.27732 0
M  V30 38276 H 5229.5 1.61619 6.13468 0
M  V30 38277 P 5231.36 3.65191 7.99657 0
M  V30 38278 O 5232.78 3.8425 8.48115 0
M  V30 38279 O 5231 4.17805 6.64342 0
M  V30 38280 O 5231.04 2.07613 7.95143 0
M  V30 38281 C 5230.88 1.44328 9.27336 0
M  V30 38282 C 5231.42 0.0220036 9.17197 0
M  V30 38283 O 5230.36 -0.626867 8.61923 0
M  V30 38284 C 5232.64 -0.24586 8.30336 0
M  V30 38285 O 5233.37 -1.39011 8.63583 0
M  V30 38286 C 5231.97 -0.273849 6.91158 0
M  V30 38287 O 5232.77 -1.06348 6.02892 0
M  V30 38288 C 5230.63 -0.897649 7.22545 0
M  V30 38289 H 5230.66 -1.9841 7.04286 0
M  V30 38290 H 5231.84 0.739928 6.497 0
M  V30 38291 H 5233.33 0.60668 8.36503 0
M  V30 38292 H 5231.63 -0.352479 10.1829 0
M  V30 38293 H 5231.44 2.00611 10.0304 0
M  V30 38294 H 5229.81 1.41843 9.55327 0
M  V30 38295 H 5232.45 -1.95734 6.03555 0
M  V30 38296 P 5234.31 -1.25109 8.70152 0
M  V30 38297 O 5235.73 -1.35274 9.21221 0
M  V30 38298 O 5233.95 -0.0769065 7.84762 0
M  V30 38299 O 5233.99 -2.55232 7.81161 0
M  V30 38300 C 5233.83 -3.79939 8.58154 0
M  V30 38301 C 5234.37 -4.94023 7.72785 0
M  V30 38302 O 5233.31 -5.18726 6.91205 0
M  V30 38303 C 5235.59 -4.69597 6.85231 0
M  V30 38304 O 5236.32 -5.83832 6.51337 0
M  V30 38305 C 5234.92 -3.96706 5.66633 0
M  V30 38306 O 5235.72 -4.15414 4.49689 0
M  V30 38307 C 5233.58 -4.66153 5.59313 0
M  V30 38308 H 5233.61 -5.47679 4.85214 0
M  V30 38309 H 5234.8 -2.89008 5.86566 0
M  V30 38310 H 5236.28 -4.0121 7.36511 0
M  V30 38311 H 5234.59 -5.80182 8.37584 0
M  V30 38312 H 5234.4 -3.73517 9.52265 0
M  V30 38313 H 5232.77 -3.97163 8.80359 0
M  V30 38314 H 5235.4 -4.90969 4.01921 0
M  V30 38315 P 5237.26 -5.75688 6.64379 0
M  V30 38316 O 5238.68 -6.11849 7.01846 0
M  V30 38317 O 5236.9 -4.30744 6.56026 0
M  V30 38318 O 5236.94 -6.37042 5.19165 0
M  V30 38319 C 5236.78 -7.83578 5.16515 0
M  V30 38320 C 5237.32 -8.33398 3.83019 0
M  V30 38321 O 5236.26 -8.10074 3.01034 0
M  V30 38322 C 5238.54 -7.65514 3.2257 0
M  V30 38323 O 5239.27 -8.4329 2.32297 0
M  V30 38324 C 5237.87 -6.40075 2.62207 0
M  V30 38325 O 5238.67 -5.92589 1.53712 0
M  V30 38326 C 5236.53 -6.9454 2.18503 0
M  V30 38327 H 5236.56 -7.23063 1.12091 0
M  V30 38328 H 5237.75 -5.6025 3.37201 0
M  V30 38329 H 5239.23 -7.35707 4.02681 0
M  V30 38330 H 5237.54 -9.40912 3.9095 0
M  V30 38331 H 5237.35 -8.29056 5.99158 0
M  V30 38332 H 5235.72 -8.10073 5.25882 0
M  V30 38333 H 5238.35 -6.30324 0.726794 0
M  V30 38334 P 5240.21 -8.4349 2.47671 0
M  V30 38335 O 5241.63 -8.94167 2.5964 0
M  V30 38336 O 5239.85 -7.1704 3.19006 0
M  V30 38337 O 5239.89 -8.16596 0.923387 0
M  V30 38338 C 5239.73 -9.38437 0.108857 0
M  V30 38339 C 5240.27 -9.08175 -1.28353 0
M  V30 38340 O 5239.21 -8.44229 -1.84713 0
M  V30 38341 C 5241.49 -8.18386 -1.42505 0
M  V30 38342 O 5242.23 -8.3501 -2.60497 0
M  V30 38343 C 5240.82 -6.80225 -1.25468 0
M  V30 38344 O 5241.62 -5.81621 -1.91066 0
M  V30 38345 C 5239.48 -7.02416 -1.9168 0
M  V30 38346 H 5239.51 -6.6888 -2.96621 0
M  V30 38347 H 5240.7 -6.53617 -0.192223 0
M  V30 38348 H 5242.18 -8.36622 -0.589963 0
M  V30 38349 H 5240.49 -10.0291 -1.79807 0
M  V30 38350 H 5240.3 -10.2138 0.558219 0
M  V30 38351 H 5238.67 -9.6579 0.0444202 0
M  V30 38352 H 5241.31 -5.69556 -2.79637 0
M  V30 38353 P 5243.16 -8.4349 -2.47671 0
M  V30 38354 O 5244.58 -8.92593 -2.65 0
M  V30 38355 O 5242.8 -7.7568 -1.19296 0
M  V30 38356 O 5242.84 -7.36886 -3.63805 0
M  V30 38357 C 5242.68 -7.95349 -4.982 0
M  V30 38358 C 5243.22 -6.94612 -5.98974 0
M  V30 38359 O 5242.16 -6.10347 -6.11815 0
M  V30 38360 C 5244.44 -6.11426 -5.62335 0
M  V30 38361 O 5245.18 -5.6162 -6.70584 0
M  V30 38362 C 5243.77 -5.04409 -4.73308 0
M  V30 38363 O 5244.57 -3.85992 -4.75183 0
M  V30 38364 C 5242.43 -4.8728 -5.41006 0
M  V30 38365 H 5242.46 -4.02333 -6.11157 0
M  V30 38366 H 5243.65 -5.39466 -3.69543 0
M  V30 38367 H 5245.13 -6.71916 -5.01943 0
M  V30 38368 H 5243.44 -7.4649 -6.93477 0
M  V30 38369 H 5243.25 -8.89416 -5.05237 0
M  V30 38370 H 5241.62 -8.14876 -5.18409 0
M  V30 38371 H 5244.26 -3.27957 -5.4317 0
M  V30 38372 P 5246.11 -5.75688 -6.64379 0
M  V30 38373 O 5247.54 -6.07627 -7.05504 0
M  V30 38374 O 5245.75 -5.88047 -5.19722 0
M  V30 38375 O 5245.79 -4.2322 -7.04443 0
M  V30 38376 C 5245.63 -3.99743 -8.4911 0
M  V30 38377 C 5246.17 -2.60516 -8.79425 0
M  V30 38378 O 5245.11 -1.82684 -8.4467 0
M  V30 38379 C 5247.39 -2.10343 -8.03628 0
M  V30 38380 O 5248.13 -1.09919 -8.67766 0
M  V30 38381 C 5246.72 -1.68446 -6.70876 0
M  V30 38382 O 5247.52 -0.678137 -6.08433 0
M  V30 38383 C 5245.38 -1.17436 -7.18567 0
M  V30 38384 H 5245.41 -0.0804732 -7.31656 0
M  V30 38385 H 5246.6 -2.54037 -6.02537 0
M  V30 38386 H 5248.08 -2.93881 -7.85526 0
M  V30 38387 H 5246.39 -2.53065 -9.86973 0
M  V30 38388 H 5246.2 -4.75072 -9.05887 0
M  V30 38389 H 5244.57 -4.05244 -8.76668 0
M  V30 38390 H 5247.21 0.177647 -6.34251 0
M  V30 38391 P 5249.06 -1.25109 -8.70152 0
M  V30 38392 O 5250.49 -1.29744 -9.22016 0
M  V30 38393 O 5248.7 -2.13714 -7.55141 0
M  V30 38394 O 5248.74 0.248149 -8.21425 0
M  V30 38395 C 5248.58 1.22779 -9.30434 0
M  V30 38396 C 5249.12 2.56293 -8.80664 0
M  V30 38397 O 5248.07 3.02979 -8.09349 0
M  V30 38398 C 5250.34 2.57523 -7.89775 0
M  V30 38399 O 5251.08 3.7668 -7.89438 0
M  V30 38400 C 5249.67 2.20997 -6.55446 0
M  V30 38401 O 5250.47 2.71895 -5.48509 0
M  V30 38402 C 5248.33 2.89693 -6.67988 0
M  V30 38403 H 5248.37 3.88793 -6.19859 0
M  V30 38404 H 5249.55 1.12046 -6.44229 0
M  V30 38405 H 5251.03 1.7746 -8.19711 0
M  V30 38406 H 5249.34 3.20706 -9.67112 0
M  V30 38407 H 5249.15 0.901032 -10.1892 0
M  V30 38408 H 5247.52 1.33049 -9.56592 0
M  V30 38409 H 5250.16 3.57847 -5.23962 0
M  V30 38410 P 5252.01 3.65191 -7.99657 0
M  V30 38411 O 5253.44 3.89332 -8.45794 0
M  V30 38412 O 5251.65 2.28472 -7.50807 0
M  V30 38413 O 5251.69 4.64972 -6.77611 0
M  V30 38414 C 5251.53 6.06319 -7.16352 0
M  V30 38415 C 5252.07 6.91731 -6.02299 0
M  V30 38416 O 5251.02 6.92449 -5.17064 0
M  V30 38417 C 5253.29 6.43627 -5.25174 0
M  V30 38418 O 5254.03 7.43686 -4.60469 0
M  V30 38419 C 5252.62 5.40275 -4.31916 0
M  V30 38420 O 5253.42 5.25279 -3.14438 0
M  V30 38421 C 5251.28 6.04847 -4.05327 0
M  V30 38422 H 5251.32 6.62195 -3.11261 0
M  V30 38423 H 5252.5 4.42556 -4.81383 0
M  V30 38424 H 5253.98 5.92458 -5.93643 0
M  V30 38425 H 5252.29 7.92655 -6.402 0
M  V30 38426 H 5252.1 6.26671 -8.0846 0
M  V30 38427 H 5250.47 6.29101 -7.32804 0
M  V30 38428 H 5253.11 5.84315 -2.47318 0
M  V30 38429 P 5254.97 7.39546 -4.75277 0
M  V30 38430 O 5256.39 7.84798 -5.01039 0
M  V30 38431 O 5254.61 5.9812 -5.08098 0
M  V30 38432 O 5254.64 7.57503 -3.1866 0
M  V30 38433 C 5254.48 8.97357 -2.74833 0
M  V30 38434 C 5255.02 9.07548 -1.32709 0
M  V30 38435 O 5253.97 8.62072 -0.606159 0
M  V30 38436 C 5256.24 8.25383 -0.938334 0
M  V30 38437 O 5256.98 8.74577 0.146954 0
M  V30 38438 C 5255.57 6.8802 -0.712559 0
M  V30 38439 O 5256.37 6.1189 0.194655 0
M  V30 38440 C 5254.23 7.27966 -0.139777 0
M  V30 38441 H 5254.27 7.25354 0.961601 0
M  V30 38442 H 5255.45 6.32557 -1.65702 0
M  V30 38443 H 5256.93 8.19355 -1.79097 0
M  V30 38444 H 5255.24 10.1294 -1.10029 0
M  V30 38445 H 5255.05 9.64276 -3.41316 0
M  V30 38446 H 5253.42 9.25417 -2.76357 0
M  V30 38447 H 5256.06 6.25267 1.07847 0
M  V30 38448 P 5257.92 8.791 -3.94495e-10 0
M  V30 38449 O 5259.34 9.31096 0.027933 0
M  V30 38450 O 5257.56 7.77869 -1.04071 0
M  V30 38451 O 5257.59 8.09533 1.41463 0
M  V30 38452 C 5257.43 9.0349 2.53943 0
M  V30 38453 C 5257.97 8.35226 3.79016 0
M  V30 38454 O 5256.92 7.57992 4.15078 0
M  V30 38455 C 5259.19 7.45087 3.67298 0
M  V30 38456 O 5259.93 7.27796 4.85194 0
M  V30 38457 C 5258.52 6.17323 3.12027 0
M  V30 38458 O 5259.32 5.04231 3.47188 0
M  V30 38459 C 5257.18 6.19961 3.81809 0
M  V30 38460 H 5257.22 5.58218 4.73051 0
M  V30 38461 H 5258.4 6.21726 2.02589 0
M  V30 38462 H 5259.88 7.86112 2.9231 0
M  V30 38463 H 5258.19 9.11627 4.55076 0
M  V30 38464 H 5258 9.9573 2.34194 0
M  V30 38465 H 5256.37 9.2792 2.67832 0
M  V30 38466 H 5259.01 4.67702 4.28772 0
M  V30 38467 P 5260.87 7.39546 4.75277 0
M  V30 38468 O 5262.29 7.81777 5.05738 0
M  V30 38469 O 5260.51 7.1065 3.32998 0
M  V30 38470 O 5260.54 6.04542 5.56673 0
M  V30 38471 C 5260.38 6.22772 7.02095 0
M  V30 38472 C 5260.92 4.97725 7.70406 0
M  V30 38473 O 5259.87 4.13256 7.58987 0
M  V30 38474 C 5262.14 4.28231 7.11815 0
M  V30 38475 O 5262.88 3.49945 8.01648 0
M  V30 38476 C 5261.47 3.5063 5.96244 0
M  V30 38477 O 5262.27 2.36482 5.64681 0
M  V30 38478 C 5260.14 3.15122 6.56374 0
M  V30 38479 H 5260.17 2.13853 6.99751 0
M  V30 38480 H 5261.35 4.13501 5.06559 0
M  V30 38481 H 5262.83 5.03285 6.70911 0
M  V30 38482 H 5261.14 5.20877 8.75697 0
M  V30 38483 H 5260.95 7.11046 7.35349 0
M  V30 38484 H 5259.32 6.35815 7.26986 0
M  V30 38485 H 5261.96 1.61644 6.13565 0
M  V30 38486 P 5263.82 3.65191 7.99657 0
M  V30 38487 O 5265.24 3.8425 8.48115 0
M  V30 38488 O 5263.46 4.17805 6.64342 0
M  V30 38489 O 5263.49 2.07613 7.95143 0
M  V30 38490 C 5263.33 1.44328 9.27336 0
M  V30 38491 C 5263.87 0.0220036 9.17197 0
M  V30 38492 O 5262.82 -0.626867 8.61923 0
M  V30 38493 C 5265.09 -0.24586 8.30336 0
M  V30 38494 O 5265.83 -1.39011 8.63583 0
M  V30 38495 C 5264.42 -0.273849 6.91158 0
M  V30 38496 O 5265.22 -1.06348 6.02892 0
M  V30 38497 C 5263.09 -0.897649 7.22545 0
M  V30 38498 H 5263.12 -1.9841 7.04286 0
M  V30 38499 H 5264.3 0.739928 6.497 0
M  V30 38500 H 5265.78 0.60668 8.36503 0
M  V30 38501 H 5264.09 -0.352479 10.1829 0
M  V30 38502 H 5263.9 2.00611 10.0304 0
M  V30 38503 H 5262.27 1.41843 9.55327 0
M  V30 38504 H 5264.91 -1.95734 6.03555 0
M  V30 38505 P 5266.77 -1.25109 8.70152 0
M  V30 38506 O 5268.19 -1.35274 9.21221 0
M  V30 38507 O 5266.41 -0.0769065 7.84762 0
M  V30 38508 O 5266.44 -2.55232 7.81161 0
M  V30 38509 C 5266.28 -3.79939 8.58154 0
M  V30 38510 C 5266.82 -4.94023 7.72785 0
M  V30 38511 O 5265.77 -5.18726 6.91205 0
M  V30 38512 C 5268.04 -4.69597 6.85231 0
M  V30 38513 O 5268.78 -5.83832 6.51337 0
M  V30 38514 C 5267.37 -3.96706 5.66633 0
M  V30 38515 O 5268.17 -4.15414 4.49689 0
M  V30 38516 C 5266.04 -4.66153 5.59313 0
M  V30 38517 H 5266.07 -5.47679 4.85214 0
M  V30 38518 H 5267.25 -2.89008 5.86566 0
M  V30 38519 H 5268.74 -4.0121 7.36511 0
M  V30 38520 H 5267.04 -5.80182 8.37584 0
M  V30 38521 H 5266.85 -3.73517 9.52265 0
M  V30 38522 H 5265.22 -3.97163 8.80359 0
M  V30 38523 H 5267.86 -4.90969 4.01921 0
M  V30 38524 P 5269.72 -5.75688 6.64379 0
M  V30 38525 O 5271.14 -6.11849 7.01846 0
M  V30 38526 O 5269.36 -4.30744 6.56026 0
M  V30 38527 O 5269.4 -6.37042 5.19165 0
M  V30 38528 C 5269.24 -7.83578 5.16515 0
M  V30 38529 C 5269.78 -8.33398 3.83019 0
M  V30 38530 O 5268.72 -8.10074 3.01034 0
M  V30 38531 C 5270.99 -7.65514 3.2257 0
M  V30 38532 O 5271.73 -8.4329 2.32297 0
M  V30 38533 C 5270.32 -6.40075 2.62207 0
M  V30 38534 O 5271.12 -5.92589 1.53712 0
M  V30 38535 C 5268.99 -6.9454 2.18503 0
M  V30 38536 H 5269.02 -7.23063 1.12091 0
M  V30 38537 H 5270.2 -5.6025 3.37201 0
M  V30 38538 H 5271.69 -7.35707 4.02681 0
M  V30 38539 H 5269.99 -9.40912 3.9095 0
M  V30 38540 H 5269.8 -8.29056 5.99158 0
M  V30 38541 H 5268.17 -8.10073 5.25882 0
M  V30 38542 H 5270.81 -6.30324 0.726794 0
M  V30 38543 P 5272.67 -8.4349 2.47671 0
M  V30 38544 O 5274.09 -8.94167 2.5964 0
M  V30 38545 O 5272.31 -7.1704 3.19006 0
M  V30 38546 O 5272.35 -8.16596 0.923387 0
M  V30 38547 C 5272.19 -9.38437 0.108857 0
M  V30 38548 C 5272.73 -9.08175 -1.28353 0
M  V30 38549 O 5271.67 -8.44229 -1.84713 0
M  V30 38550 C 5273.94 -8.18386 -1.42505 0
M  V30 38551 O 5274.68 -8.3501 -2.60497 0
M  V30 38552 C 5273.27 -6.80225 -1.25468 0
M  V30 38553 O 5274.07 -5.81621 -1.91066 0
M  V30 38554 C 5271.94 -7.02416 -1.9168 0
M  V30 38555 H 5271.97 -6.6888 -2.96621 0
M  V30 38556 H 5273.15 -6.53617 -0.192223 0
M  V30 38557 H 5274.64 -8.36622 -0.589963 0
M  V30 38558 H 5272.94 -10.0291 -1.79807 0
M  V30 38559 H 5272.75 -10.2138 0.558219 0
M  V30 38560 H 5271.12 -9.6579 0.0444202 0
M  V30 38561 H 5273.76 -5.69556 -2.79637 0
M  V30 38562 P 5275.62 -8.4349 -2.47671 0
M  V30 38563 O 5277.04 -8.92593 -2.65 0
M  V30 38564 O 5275.26 -7.7568 -1.19296 0
M  V30 38565 O 5275.3 -7.36886 -3.63805 0
M  V30 38566 C 5275.14 -7.95349 -4.982 0
M  V30 38567 C 5275.68 -6.94612 -5.98974 0
M  V30 38568 O 5274.62 -6.10347 -6.11815 0
M  V30 38569 C 5276.89 -6.11426 -5.62335 0
M  V30 38570 O 5277.63 -5.6162 -6.70584 0
M  V30 38571 C 5276.23 -5.04409 -4.73308 0
M  V30 38572 O 5277.02 -3.85992 -4.75183 0
M  V30 38573 C 5274.89 -4.8728 -5.41006 0
M  V30 38574 H 5274.92 -4.02333 -6.11157 0
M  V30 38575 H 5276.1 -5.39466 -3.69543 0
M  V30 38576 H 5277.59 -6.71916 -5.01943 0
M  V30 38577 H 5275.89 -7.4649 -6.93477 0
M  V30 38578 H 5275.7 -8.89416 -5.05237 0
M  V30 38579 H 5274.07 -8.14876 -5.18409 0
M  V30 38580 H 5276.71 -3.27957 -5.4317 0
M  V30 38581 P 5278.57 -5.75688 -6.64379 0
M  V30 38582 O 5279.97 -6.14823 -7.06682 0
M  V30 38583 O 5278.19 -5.93957 -5.20728 0
M  V30 38584 O 5278.25 -4.23169 -7.04357 0
M  V30 38585 C 5278.09 -3.99743 -8.4911 0
M  V30 38586 C 5278.63 -2.60487 -8.79329 0
M  V30 38587 O 5277.57 -1.82663 -8.44573 0
M  V30 38588 C 5279.84 -2.10343 -8.03628 0
M  V30 38589 O 5280.58 -1.09919 -8.67766 0
M  V30 38590 C 5279.18 -1.68446 -6.70876 0
M  V30 38591 O 5279.97 -0.678026 -6.08333 0
M  V30 38592 C 5277.84 -1.17436 -7.18567 0
M  V30 38593 N 5276.8 -1.52699 -6.23988 0
M  V30 38594 C 5275.76 -0.643793 -6.05085 0
M  V30 38595 O 5275.8 0.459118 -6.64315 0
M  V30 38596 N 5274.75 -0.976931 -5.22038 0
M  V30 38597 C 5274.8 -2.14429 -4.56662 0
M  V30 38598 C 5275.89 -3.04203 -4.71481 0
M  V30 38599 C 5276.86 -2.69669 -5.56838 0
M  V30 38600 H 5277.87 -0.0804622 -7.31556 0
M  V30 38601 H 5279.05 -2.53396 -6.02698 0
M  V30 38602 H 5280.54 -2.9313 -7.85914 0
M  V30 38603 H 5278.84 -2.52078 -9.87225 0
M  V30 38604 H 5278.65 -4.75072 -9.05887 0
M  V30 38605 H 5277.02 -4.05202 -8.76577 0
M  V30 38606 H 5275.94 -3.97309 -4.15519 0
M  V30 38607 H 5277.7 -3.36869 -5.72318 0
M  V30 38608 H 5279.76 0.167718 -6.44882 0
M  V30 38609 P 5281.52 -1.25109 -8.70152 0
M  V30 38610 O 5282.94 -1.29744 -9.22016 0
M  V30 38611 O 5281.16 -2.13714 -7.55141 0
M  V30 38612 O 5281.2 0.248149 -8.21425 0
M  V30 38613 C 5281.04 1.22779 -9.30434 0
M  V30 38614 C 5281.58 2.56293 -8.80664 0
M  V30 38615 O 5280.52 3.02979 -8.09349 0
M  V30 38616 C 5282.8 2.57523 -7.89775 0
M  V30 38617 O 5283.53 3.7668 -7.89438 0
M  V30 38618 C 5282.13 2.20997 -6.55446 0
M  V30 38619 O 5282.93 2.71895 -5.48509 0
M  V30 38620 C 5280.79 2.89693 -6.67988 0
M  V30 38621 H 5280.82 3.88793 -6.19859 0
M  V30 38622 H 5282 1.12046 -6.44229 0
M  V30 38623 H 5283.49 1.7746 -8.19711 0
M  V30 38624 H 5281.79 3.20706 -9.67112 0
M  V30 38625 H 5281.6 0.901032 -10.1892 0
M  V30 38626 H 5279.97 1.33049 -9.56592 0
M  V30 38627 H 5282.61 3.57847 -5.23962 0
M  V30 38628 P 5284.47 3.65191 -7.99657 0
M  V30 38629 O 5285.89 3.89374 -8.45885 0
M  V30 38630 O 5284.11 2.28472 -7.50807 0
M  V30 38631 O 5284.15 4.64972 -6.77611 0
M  V30 38632 C 5283.99 6.06383 -7.16428 0
M  V30 38633 C 5284.53 6.91731 -6.02299 0
M  V30 38634 O 5283.47 6.92369 -5.17005 0
M  V30 38635 C 5285.75 6.43627 -5.25174 0
M  V30 38636 O 5286.48 7.43686 -4.60469 0
M  V30 38637 C 5285.08 5.40275 -4.31916 0
M  V30 38638 O 5285.88 5.24878 -3.14911 0
M  V30 38639 C 5283.74 6.04847 -4.05327 0
M  V30 38640 N 5282.7 5.04166 -3.98114 0
M  V30 38641 C 5282.87 3.84629 -4.59066 0
M  V30 38642 N 5281.84 3.0363 -4.45343 0
M  V30 38643 C 5280.95 3.76722 -3.68523 0
M  V30 38644 C 5279.69 3.43528 -3.17088 0
M  V30 38645 N 5279.12 4.44526 -2.44231 0
M  V30 38646 C 5279.72 5.65243 -2.20146 0
M  V30 38647 N 5280.9 6.00221 -2.65453 0
M  V30 38648 C 5281.48 5.00564 -3.39083 0
M  V30 38649 H 5284.95 4.42969 -4.80867 0
M  V30 38650 H 5286.44 5.92458 -5.93643 0
M  V30 38651 H 5284.74 7.93295 -6.39407 0
M  V30 38652 H 5284.55 6.26671 -8.0846 0
M  V30 38653 H 5282.92 6.29101 -7.32804 0
M  V30 38654 H 5283.77 3.58193 -5.14248 0
M  V30 38655 H 5285.56 5.84223 -2.47279 0
M  V30 38656 P 5287.42 7.39546 -4.75277 0
M  V30 38657 O 5288.84 7.84798 -5.01039 0
M  V30 38658 O 5287.06 5.9812 -5.08098 0
M  V30 38659 O 5287.1 7.57503 -3.1866 0
M  V30 38660 C 5286.94 8.97357 -2.74833 0
M  V30 38661 C 5287.48 9.07548 -1.32709 0
M  V30 38662 O 5286.42 8.62072 -0.606159 0
M  V30 38663 C 5288.7 8.25383 -0.938334 0
M  V30 38664 O 5289.43 8.74577 0.146954 0
M  V30 38665 C 5288.03 6.8802 -0.712559 0
M  V30 38666 O 5288.83 6.1189 0.194655 0
M  V30 38667 C 5286.69 7.27966 -0.139777 0
M  V30 38668 H 5286.72 7.25354 0.961601 0
M  V30 38669 H 5287.91 6.32557 -1.65702 0
M  V30 38670 H 5289.39 8.19355 -1.79097 0
M  V30 38671 H 5287.7 10.1294 -1.10029 0
M  V30 38672 H 5287.51 9.64276 -3.41316 0
M  V30 38673 H 5285.88 9.25417 -2.76357 0
M  V30 38674 H 5288.51 6.25267 1.07847 0
M  V30 38675 P 5290.37 8.791 -3.98683e-10 0
M  V30 38676 O 5291.79 9.31096 0.027933 0
M  V30 38677 O 5290.01 7.77869 -1.04071 0
M  V30 38678 O 5290.05 8.09533 1.41463 0
M  V30 38679 C 5289.89 9.0349 2.53943 0
M  V30 38680 C 5290.43 8.35226 3.79016 0
M  V30 38681 O 5289.37 7.57992 4.15078 0
M  V30 38682 C 5291.65 7.45087 3.67298 0
M  V30 38683 O 5292.39 7.27796 4.85194 0
M  V30 38684 C 5290.98 6.17323 3.12027 0
M  V30 38685 O 5291.78 5.04231 3.47188 0
M  V30 38686 C 5289.64 6.19961 3.81809 0
M  V30 38687 H 5289.67 5.58218 4.73051 0
M  V30 38688 H 5290.86 6.21726 2.02589 0
M  V30 38689 H 5292.34 7.86112 2.9231 0
M  V30 38690 H 5290.65 9.11627 4.55076 0
M  V30 38691 H 5290.46 9.9573 2.34194 0
M  V30 38692 H 5288.83 9.2792 2.67832 0
M  V30 38693 H 5291.47 4.67702 4.28772 0
M  V30 38694 P 5293.32 7.39546 4.75277 0
M  V30 38695 O 5294.74 7.81861 5.05793 0
M  V30 38696 O 5292.96 7.1065 3.32998 0
M  V30 38697 O 5293 6.04542 5.56673 0
M  V30 38698 C 5292.84 6.22839 7.02169 0
M  V30 38699 C 5293.38 4.97725 7.70406 0
M  V30 38700 O 5292.32 4.13208 7.58899 0
M  V30 38701 C 5294.6 4.28231 7.11815 0
M  V30 38702 O 5295.34 3.49945 8.01648 0
M  V30 38703 C 5293.93 3.5063 5.96244 0
M  V30 38704 O 5294.73 2.37008 5.64352 0
M  V30 38705 C 5292.59 3.15122 6.56374 0
M  V30 38706 N 5291.55 3.22311 5.55692 0
M  V30 38707 C 5291.72 3.99655 4.46046 0
M  V30 38708 N 5290.69 3.97599 3.63918 0
M  V30 38709 C 5289.81 3.11159 4.25334 0
M  V30 38710 C 5288.54 2.64972 3.85157 0
M  V30 38711 N 5287.97 1.78482 4.74759 0
M  V30 38712 C 5288.58 1.37463 5.90819 0
M  V30 38713 N 5289.75 1.7733 6.31889 0
M  V30 38714 C 5290.33 2.64393 5.43725 0
M  V30 38715 H 5293.81 4.12931 5.06895 0
M  V30 38716 H 5295.29 5.03285 6.70911 0
M  V30 38717 H 5293.6 5.20001 8.76217 0
M  V30 38718 H 5293.41 7.11046 7.35349 0
M  V30 38719 H 5291.78 6.35815 7.26986 0
M  V30 38720 H 5292.62 4.58037 4.27732 0
M  V30 38721 H 5294.42 1.61619 6.13468 0
M  V30 38722 P 5296.27 3.65191 7.99657 0
M  V30 38723 O 5297.7 3.8425 8.48115 0
M  V30 38724 O 5295.91 4.17805 6.64342 0
M  V30 38725 O 5295.95 2.07613 7.95143 0
M  V30 38726 C 5295.79 1.44328 9.27336 0
M  V30 38727 C 5296.33 0.0220036 9.17197 0
M  V30 38728 O 5295.27 -0.626867 8.61923 0
M  V30 38729 C 5297.55 -0.24586 8.30336 0
M  V30 38730 O 5298.29 -1.39011 8.63583 0
M  V30 38731 C 5296.88 -0.273849 6.91158 0
M  V30 38732 O 5297.68 -1.06348 6.02892 0
M  V30 38733 C 5295.54 -0.897649 7.22545 0
M  V30 38734 H 5295.57 -1.9841 7.04286 0
M  V30 38735 H 5296.76 0.739928 6.497 0
M  V30 38736 H 5298.24 0.60668 8.36503 0
M  V30 38737 H 5296.55 -0.352479 10.1829 0
M  V30 38738 H 5296.36 2.00611 10.0304 0
M  V30 38739 H 5294.73 1.41843 9.55327 0
M  V30 38740 H 5297.37 -1.95734 6.03555 0
M  V30 38741 P 5299.22 -1.25109 8.70152 0
M  V30 38742 O 5300.65 -1.35274 9.21221 0
M  V30 38743 O 5298.86 -0.0769065 7.84762 0
M  V30 38744 O 5298.9 -2.55232 7.81161 0
M  V30 38745 C 5298.74 -3.79939 8.58154 0
M  V30 38746 C 5299.28 -4.94023 7.72785 0
M  V30 38747 O 5298.22 -5.18726 6.91205 0
M  V30 38748 C 5300.5 -4.69597 6.85231 0
M  V30 38749 O 5301.24 -5.83832 6.51337 0
M  V30 38750 C 5299.83 -3.96706 5.66633 0
M  V30 38751 O 5300.63 -4.15414 4.49689 0
M  V30 38752 C 5298.49 -4.66153 5.59313 0
M  V30 38753 H 5298.52 -5.47679 4.85214 0
M  V30 38754 H 5299.71 -2.89008 5.86566 0
M  V30 38755 H 5301.19 -4.0121 7.36511 0
M  V30 38756 H 5299.5 -5.80182 8.37584 0
M  V30 38757 H 5299.31 -3.73517 9.52265 0
M  V30 38758 H 5297.68 -3.97163 8.80359 0
M  V30 38759 H 5300.32 -4.90969 4.01921 0
M  V30 38760 P 5302.17 -5.75688 6.64379 0
M  V30 38761 O 5303.6 -6.11849 7.01846 0
M  V30 38762 O 5301.81 -4.30744 6.56026 0
M  V30 38763 O 5301.85 -6.37042 5.19165 0
M  V30 38764 C 5301.69 -7.83578 5.16515 0
M  V30 38765 C 5302.23 -8.33398 3.83019 0
M  V30 38766 O 5301.18 -8.10074 3.01034 0
M  V30 38767 C 5303.45 -7.65514 3.2257 0
M  V30 38768 O 5304.19 -8.4329 2.32297 0
M  V30 38769 C 5302.78 -6.40075 2.62207 0
M  V30 38770 O 5303.58 -5.92589 1.53712 0
M  V30 38771 C 5301.44 -6.9454 2.18503 0
M  V30 38772 H 5301.48 -7.23063 1.12091 0
M  V30 38773 H 5302.66 -5.6025 3.37201 0
M  V30 38774 H 5304.14 -7.35707 4.02681 0
M  V30 38775 H 5302.45 -9.40912 3.9095 0
M  V30 38776 H 5302.26 -8.29056 5.99158 0
M  V30 38777 H 5300.63 -8.10073 5.25882 0
M  V30 38778 H 5303.27 -6.30324 0.726794 0
M  V30 38779 P 5305.12 -8.4349 2.47671 0
M  V30 38780 O 5306.55 -8.94167 2.5964 0
M  V30 38781 O 5304.76 -7.1704 3.19006 0
M  V30 38782 O 5304.8 -8.16596 0.923387 0
M  V30 38783 C 5304.64 -9.38437 0.108857 0
M  V30 38784 C 5305.18 -9.08175 -1.28353 0
M  V30 38785 O 5304.13 -8.44229 -1.84713 0
M  V30 38786 C 5306.4 -8.18386 -1.42505 0
M  V30 38787 O 5307.14 -8.3501 -2.60497 0
M  V30 38788 C 5305.73 -6.80225 -1.25468 0
M  V30 38789 O 5306.53 -5.81621 -1.91066 0
M  V30 38790 C 5304.39 -7.02416 -1.9168 0
M  V30 38791 H 5304.43 -6.6888 -2.96621 0
M  V30 38792 H 5305.61 -6.53617 -0.192223 0
M  V30 38793 H 5307.09 -8.36622 -0.589963 0
M  V30 38794 H 5305.4 -10.0291 -1.79807 0
M  V30 38795 H 5305.21 -10.2138 0.558219 0
M  V30 38796 H 5303.58 -9.6579 0.0444202 0
M  V30 38797 H 5306.22 -5.69556 -2.79637 0
M  V30 38798 P 5308.08 -8.4349 -2.47671 0
M  V30 38799 O 5309.5 -8.92593 -2.65 0
M  V30 38800 O 5307.72 -7.7568 -1.19296 0
M  V30 38801 O 5307.75 -7.36886 -3.63805 0
M  V30 38802 C 5307.59 -7.95349 -4.982 0
M  V30 38803 C 5308.13 -6.94612 -5.98974 0
M  V30 38804 O 5307.08 -6.10347 -6.11815 0
M  V30 38805 C 5309.35 -6.11426 -5.62335 0
M  V30 38806 O 5310.09 -5.6162 -6.70584 0
M  V30 38807 C 5308.68 -5.04409 -4.73308 0
M  V30 38808 O 5309.48 -3.85992 -4.75183 0
M  V30 38809 C 5307.34 -4.8728 -5.41006 0
M  V30 38810 H 5307.38 -4.02333 -6.11157 0
M  V30 38811 H 5308.56 -5.39466 -3.69543 0
M  V30 38812 H 5310.04 -6.71916 -5.01943 0
M  V30 38813 H 5308.35 -7.4649 -6.93477 0
M  V30 38814 H 5308.16 -8.89416 -5.05237 0
M  V30 38815 H 5306.53 -8.14876 -5.18409 0
M  V30 38816 H 5309.17 -3.27957 -5.4317 0
M  V30 38817 P 5311.03 -5.75688 -6.64379 0
M  V30 38818 O 5312.45 -6.07627 -7.05504 0
M  V30 38819 O 5310.67 -5.88047 -5.19722 0
M  V30 38820 O 5310.7 -4.2322 -7.04443 0
M  V30 38821 C 5310.54 -3.99743 -8.4911 0
M  V30 38822 C 5311.08 -2.60516 -8.79425 0
M  V30 38823 O 5310.03 -1.82684 -8.4467 0
M  V30 38824 C 5312.3 -2.10343 -8.03628 0
M  V30 38825 O 5313.04 -1.09919 -8.67766 0
M  V30 38826 C 5311.63 -1.68446 -6.70876 0
M  V30 38827 O 5312.43 -0.678137 -6.08433 0
M  V30 38828 C 5310.29 -1.17436 -7.18567 0
M  V30 38829 H 5310.33 -0.0804732 -7.31656 0
M  V30 38830 H 5311.51 -2.54037 -6.02537 0
M  V30 38831 H 5312.99 -2.93881 -7.85526 0
M  V30 38832 H 5311.3 -2.53065 -9.86973 0
M  V30 38833 H 5311.11 -4.75072 -9.05887 0
M  V30 38834 H 5309.48 -4.05244 -8.76668 0
M  V30 38835 H 5312.12 0.177647 -6.34251 0
M  V30 38836 P 5313.98 -1.25109 -8.70152 0
M  V30 38837 O 5315.4 -1.29744 -9.22016 0
M  V30 38838 O 5313.62 -2.13714 -7.55141 0
M  V30 38839 O 5313.65 0.248149 -8.21425 0
M  V30 38840 C 5313.49 1.22779 -9.30434 0
M  V30 38841 C 5314.03 2.56293 -8.80664 0
M  V30 38842 O 5312.98 3.02979 -8.09349 0
M  V30 38843 C 5315.25 2.57523 -7.89775 0
M  V30 38844 O 5315.99 3.7668 -7.89438 0
M  V30 38845 C 5314.58 2.20997 -6.55446 0
M  V30 38846 O 5315.38 2.71895 -5.48509 0
M  V30 38847 C 5313.25 2.89693 -6.67988 0
M  V30 38848 H 5313.28 3.88793 -6.19859 0
M  V30 38849 H 5314.46 1.12046 -6.44229 0
M  V30 38850 H 5315.94 1.7746 -8.19711 0
M  V30 38851 H 5314.25 3.20706 -9.67112 0
M  V30 38852 H 5314.06 0.901032 -10.1892 0
M  V30 38853 H 5312.43 1.33049 -9.56592 0
M  V30 38854 H 5315.07 3.57847 -5.23962 0
M  V30 38855 P 5316.93 3.65191 -7.99657 0
M  V30 38856 O 5318.33 3.87414 -8.52829 0
M  V30 38857 O 5316.55 2.26932 -7.566 0
M  V30 38858 O 5316.6 4.64915 -6.77529 0
M  V30 38859 C 5316.44 6.06319 -7.16352 0
M  V30 38860 C 5316.98 6.91655 -6.02234 0
M  V30 38861 O 5315.93 6.92369 -5.17005 0
M  V30 38862 C 5318.2 6.43627 -5.25174 0
M  V30 38863 O 5318.94 7.43686 -4.60469 0
M  V30 38864 C 5317.53 5.40275 -4.31916 0
M  V30 38865 O 5318.33 5.25193 -3.14386 0
M  V30 38866 C 5316.2 6.04847 -4.05327 0
M  V30 38867 N 5315.15 5.04166 -3.98114 0
M  V30 38868 C 5314.12 5.2366 -3.09923 0
M  V30 38869 O 5314.16 6.23355 -2.34204 0
M  V30 38870 N 5313.11 4.34279 -3.05727 0
M  V30 38871 C 5313.15 3.26317 -3.84756 0
M  V30 38872 C 5314.25 3.02504 -4.72573 0
M  V30 38873 C 5315.22 3.94493 -4.76618 0
M  V30 38874 H 5316.23 6.62104 -3.11218 0
M  V30 38875 H 5317.41 4.42969 -4.80867 0
M  V30 38876 H 5318.9 5.93122 -5.93121 0
M  V30 38877 H 5317.2 7.93295 -6.39407 0
M  V30 38878 H 5317.01 6.26671 -8.0846 0
M  V30 38879 H 5315.38 6.29036 -7.32728 0
M  V30 38880 H 5314.3 2.12921 -5.34017 0
M  V30 38881 H 5316.06 3.80658 -5.44176 0
M  V30 38882 H 5318.12 5.93572 -2.52637 0
M  V30 38883 P 5319.88 7.39546 -4.75277 0
M  V30 38884 O 5321.28 7.86988 -5.07993 0
M  V30 38885 O 5319.5 5.99957 -5.13804 0
M  V30 38886 O 5319.55 7.57411 -3.18621 0
M  V30 38887 C 5319.39 8.97357 -2.74833 0
M  V30 38888 C 5319.93 9.0745 -1.32694 0
M  V30 38889 O 5318.88 8.61972 -0.606089 0
M  V30 38890 C 5321.15 8.25383 -0.938334 0
M  V30 38891 O 5321.89 8.74577 0.146954 0
M  V30 38892 C 5320.48 6.8802 -0.712559 0
M  V30 38893 O 5321.28 6.11791 0.194623 0
M  V30 38894 C 5319.15 7.27966 -0.139777 0
M  V30 38895 N 5318.1 6.39368 -0.623421 0
M  V30 38896 C 5317.07 6.08088 0.223886 0
M  V30 38897 O 5317.11 6.5102 1.39986 0
M  V30 38898 N 5316.06 5.30627 -0.224051 0
M  V30 38899 C 5316.1 4.82531 -1.47257 0
M  V30 38900 N 5315.09 4.07328 -1.89378 0
M  V30 38901 C 5317.2 5.09974 -2.34008 0
M  V30 38902 C 5318.17 5.89548 -1.87678 0
M  V30 38903 H 5319.18 7.25255 0.961469 0
M  V30 38904 H 5320.36 6.32625 -1.65044 0
M  V30 38905 H 5321.85 8.19631 -1.78299 0
M  V30 38906 H 5320.15 10.1305 -1.09016 0
M  V30 38907 H 5319.96 9.64276 -3.41316 0
M  V30 38908 H 5318.33 9.25321 -2.76328 0
M  V30 38909 H 5317.25 4.67832 -3.3413 0
M  V30 38910 H 5319.01 6.14434 -2.51991 0
M  V30 38911 H 5314.3 3.87329 -1.26296 0
M  V30 38912 H 5315.1 3.69014 -2.84741 0
M  V30 38913 H 5321.07 6.35931 1.08377 0
M  V30 38914 P 5322.83 8.791 -3.92876e-10 0
M  V30 38915 O 5324.25 9.31196 0.027936 0
M  V30 38916 O 5322.47 7.77869 -1.04071 0
M  V30 38917 O 5322.51 8.09533 1.41463 0
M  V30 38918 C 5322.34 9.03587 2.5397 0
M  V30 38919 C 5322.89 8.35226 3.79016 0
M  V30 38920 O 5321.83 7.57904 4.1503 0
M  V30 38921 C 5324.1 7.45087 3.67298 0
M  V30 38922 O 5324.84 7.27796 4.85194 0
M  V30 38923 C 5323.44 6.17323 3.12027 0
M  V30 38924 O 5324.23 5.04496 3.46627 0
M  V30 38925 C 5322.1 6.19961 3.81809 0
M  V30 38926 N 5321.05 5.71575 2.93223 0
M  V30 38927 C 5321.22 5.77362 1.59168 0
M  V30 38928 N 5320.2 5.3123 0.911893 0
M  V30 38929 C 5319.31 4.91717 1.89588 0
M  V30 38930 C 5318.04 4.3114 1.8076 0
M  V30 38931 N 5317.48 4.06823 3.02898 0
M  V30 38932 C 5318.08 4.35062 4.22711 0
M  V30 38933 N 5319.26 4.90805 4.35707 0
M  V30 38934 C 5319.83 5.16382 3.14469 0
M  V30 38935 H 5323.31 6.21428 2.0318 0
M  V30 38936 H 5324.8 7.86112 2.9231 0
M  V30 38937 H 5323.1 9.11171 4.55987 0
M  V30 38938 H 5322.91 9.9573 2.34194 0
M  V30 38939 H 5321.28 9.2792 2.67832 0
M  V30 38940 H 5322.12 6.16575 1.12198 0
M  V30 38941 H 5323.92 4.67628 4.28704 0
M  V30 38942 P 5325.78 7.39546 4.75277 0
M  V30 38943 O 5327.2 7.81777 5.05738 0
M  V30 38944 O 5325.42 7.1065 3.32998 0
M  V30 38945 O 5325.46 6.04542 5.56673 0
M  V30 38946 C 5325.3 6.22772 7.02095 0
M  V30 38947 C 5325.84 4.97725 7.70406 0
M  V30 38948 O 5324.78 4.13256 7.58987 0
M  V30 38949 C 5327.05 4.28231 7.11815 0
M  V30 38950 O 5327.79 3.49945 8.01648 0
M  V30 38951 C 5326.38 3.5063 5.96244 0
M  V30 38952 O 5327.18 2.36482 5.64681 0
M  V30 38953 C 5325.05 3.15122 6.56374 0
M  V30 38954 H 5325.08 2.13853 6.99751 0
M  V30 38955 H 5326.26 4.13501 5.06559 0
M  V30 38956 H 5327.75 5.03285 6.70911 0
M  V30 38957 H 5326.05 5.20877 8.75697 0
M  V30 38958 H 5325.86 7.11046 7.35349 0
M  V30 38959 H 5324.23 6.35815 7.26986 0
M  V30 38960 H 5326.87 1.61644 6.13565 0
M  V30 38961 P 5328.73 3.65191 7.99657 0
M  V30 38962 O 5330.15 3.8425 8.48115 0
M  V30 38963 O 5328.37 4.17805 6.64342 0
M  V30 38964 O 5328.41 2.07613 7.95143 0
M  V30 38965 C 5328.25 1.44328 9.27336 0
M  V30 38966 C 5328.79 0.0220036 9.17197 0
M  V30 38967 O 5327.73 -0.626867 8.61923 0
M  V30 38968 C 5330 -0.24586 8.30336 0
M  V30 38969 O 5330.74 -1.39011 8.63583 0
M  V30 38970 C 5329.34 -0.273849 6.91158 0
M  V30 38971 O 5330.13 -1.06348 6.02892 0
M  V30 38972 C 5328 -0.897649 7.22545 0
M  V30 38973 H 5328.03 -1.9841 7.04286 0
M  V30 38974 H 5329.21 0.739928 6.497 0
M  V30 38975 H 5330.7 0.60668 8.36503 0
M  V30 38976 H 5329 -0.352479 10.1829 0
M  V30 38977 H 5328.81 2.00611 10.0304 0
M  V30 38978 H 5327.18 1.41843 9.55327 0
M  V30 38979 H 5329.82 -1.95734 6.03555 0
M  V30 38980 P 5331.68 -1.25109 8.70152 0
M  V30 38981 O 5333.1 -1.35303 9.21419 0
M  V30 38982 O 5331.32 -0.0769065 7.84762 0
M  V30 38983 O 5331.36 -2.55232 7.81161 0
M  V30 38984 C 5331.2 -3.79939 8.58154 0
M  V30 38985 C 5331.74 -4.93969 7.72701 0
M  V30 38986 O 5330.68 -5.18726 6.91205 0
M  V30 38987 C 5332.95 -4.69597 6.85231 0
M  V30 38988 O 5333.69 -5.83832 6.51337 0
M  V30 38989 C 5332.29 -3.96706 5.66633 0
M  V30 38990 O 5333.08 -4.15346 4.49615 0
M  V30 38991 C 5330.95 -4.66153 5.59313 0
M  V30 38992 N 5329.91 -3.71582 5.24027 0
M  V30 38993 C 5329.97 -2.46018 5.67902 0
M  V30 38994 N 5328.92 -1.74868 5.24518 0
M  V30 38995 C 5328.19 -2.61333 4.54528 0
M  V30 38996 C 5326.88 -2.46162 3.95441 0
M  V30 38997 O 5326.15 -1.46013 3.94122 0
M  V30 38998 N 5326.45 -3.59334 3.34752 0
M  V30 38999 C 5327.2 -4.79605 3.3023 0
M  V30 39000 N 5326.6 -5.82109 2.6065 0
M  V30 39001 N 5328.35 -4.97402 3.8843 0
M  V30 39002 C 5328.81 -3.86258 4.50476 0
M  V30 39003 H 5330.98 -5.47679 4.85214 0
M  V30 39004 H 5332.16 -2.88964 5.86476 0
M  V30 39005 H 5333.65 -4.01947 7.36109 0
M  V30 39006 H 5331.95 -5.80182 8.37584 0
M  V30 39007 H 5331.76 -3.73517 9.52265 0
M  V30 39008 H 5330.13 -3.97163 8.80359 0
M  V30 39009 H 5325.56 -3.5825 2.90294 0
M  V30 39010 H 5330.76 -2.06161 6.30974 0
M  V30 39011 H 5325.69 -5.66979 2.15354 0
M  V30 39012 H 5327.07 -6.73686 2.54344 0
M  V30 39013 H 5332.77 -4.90891 4.01857 0
M  V30 39014 P 5334.63 -5.75688 6.64379 0
M  V30 39015 O 5336.05 -6.11849 7.01846 0
M  V30 39016 O 5334.27 -4.30744 6.56026 0
M  V30 39017 O 5334.31 -6.37042 5.19165 0
M  V30 39018 C 5334.15 -7.83578 5.16515 0
M  V30 39019 C 5334.69 -8.33398 3.83019 0
M  V30 39020 O 5333.63 -8.10074 3.01034 0
M  V30 39021 C 5335.91 -7.65514 3.2257 0
M  V30 39022 O 5336.64 -8.4329 2.32297 0
M  V30 39023 C 5335.24 -6.40075 2.62207 0
M  V30 39024 O 5336.04 -5.92589 1.53712 0
M  V30 39025 C 5333.9 -6.9454 2.18503 0
M  V30 39026 H 5333.93 -7.23063 1.12091 0
M  V30 39027 H 5335.11 -5.6025 3.37201 0
M  V30 39028 H 5336.6 -7.35707 4.02681 0
M  V30 39029 H 5334.9 -9.40912 3.9095 0
M  V30 39030 H 5334.71 -8.29056 5.99158 0
M  V30 39031 H 5333.08 -8.10073 5.25882 0
M  V30 39032 H 5335.72 -6.30324 0.726794 0
M  V30 39033 P 5337.58 -8.4349 2.47671 0
M  V30 39034 O 5339 -8.94167 2.5964 0
M  V30 39035 O 5337.22 -7.1704 3.19006 0
M  V30 39036 O 5337.26 -8.16596 0.923387 0
M  V30 39037 C 5337.1 -9.38437 0.108857 0
M  V30 39038 C 5337.64 -9.08175 -1.28353 0
M  V30 39039 O 5336.58 -8.44229 -1.84713 0
M  V30 39040 C 5338.86 -8.18386 -1.42505 0
M  V30 39041 O 5339.59 -8.3501 -2.60497 0
M  V30 39042 C 5338.19 -6.80225 -1.25468 0
M  V30 39043 O 5338.99 -5.81621 -1.91066 0
M  V30 39044 C 5336.85 -7.02416 -1.9168 0
M  V30 39045 H 5336.88 -6.6888 -2.96621 0
M  V30 39046 H 5338.07 -6.53617 -0.192223 0
M  V30 39047 H 5339.55 -8.36622 -0.589963 0
M  V30 39048 H 5337.86 -10.0291 -1.79807 0
M  V30 39049 H 5337.67 -10.2138 0.558219 0
M  V30 39050 H 5336.04 -9.6579 0.0444202 0
M  V30 39051 H 5338.67 -5.69556 -2.79637 0
M  V30 39052 P 5340.53 -8.4349 -2.47671 0
M  V30 39053 O 5341.95 -8.92593 -2.65 0
M  V30 39054 O 5340.17 -7.7568 -1.19296 0
M  V30 39055 O 5340.21 -7.36886 -3.63805 0
M  V30 39056 C 5340.05 -7.95349 -4.982 0
M  V30 39057 C 5340.59 -6.94612 -5.98974 0
M  V30 39058 O 5339.53 -6.10347 -6.11815 0
M  V30 39059 C 5341.81 -6.11426 -5.62335 0
M  V30 39060 O 5342.54 -5.6162 -6.70584 0
M  V30 39061 C 5341.14 -5.04409 -4.73308 0
M  V30 39062 O 5341.94 -3.85992 -4.75183 0
M  V30 39063 C 5339.8 -4.8728 -5.41006 0
M  V30 39064 H 5339.83 -4.02333 -6.11157 0
M  V30 39065 H 5341.02 -5.39466 -3.69543 0
M  V30 39066 H 5342.5 -6.71916 -5.01943 0
M  V30 39067 H 5340.81 -7.4649 -6.93477 0
M  V30 39068 H 5340.62 -8.89416 -5.05237 0
M  V30 39069 H 5338.99 -8.14876 -5.18409 0
M  V30 39070 H 5341.62 -3.27957 -5.4317 0
M  V30 39071 P 5343.48 -5.75688 -6.64379 0
M  V30 39072 O 5344.9 -6.07627 -7.05504 0
M  V30 39073 O 5343.12 -5.88047 -5.19722 0
M  V30 39074 O 5343.16 -4.2322 -7.04443 0
M  V30 39075 C 5343 -3.99743 -8.4911 0
M  V30 39076 C 5343.54 -2.60516 -8.79425 0
M  V30 39077 O 5342.48 -1.82684 -8.4467 0
M  V30 39078 C 5344.76 -2.10343 -8.03628 0
M  V30 39079 O 5345.5 -1.09919 -8.67766 0
M  V30 39080 C 5344.09 -1.68446 -6.70876 0
M  V30 39081 O 5344.89 -0.678137 -6.08433 0
M  V30 39082 C 5342.75 -1.17436 -7.18567 0
M  V30 39083 H 5342.78 -0.0804732 -7.31656 0
M  V30 39084 H 5343.97 -2.54037 -6.02537 0
M  V30 39085 H 5345.45 -2.93881 -7.85526 0
M  V30 39086 H 5343.76 -2.53065 -9.86973 0
M  V30 39087 H 5343.57 -4.75072 -9.05887 0
M  V30 39088 H 5341.94 -4.05244 -8.76668 0
M  V30 39089 H 5344.58 0.177647 -6.34251 0
M  V30 39090 P 5346.43 -1.25109 -8.70152 0
M  V30 39091 O 5347.85 -1.29744 -9.22016 0
M  V30 39092 O 5346.07 -2.13714 -7.55141 0
M  V30 39093 O 5346.11 0.248149 -8.21425 0
M  V30 39094 C 5345.95 1.22779 -9.30434 0
M  V30 39095 C 5346.49 2.56293 -8.80664 0
M  V30 39096 O 5345.43 3.02979 -8.09349 0
M  V30 39097 C 5347.71 2.57523 -7.89775 0
M  V30 39098 O 5348.45 3.7668 -7.89438 0
M  V30 39099 C 5347.04 2.20997 -6.55446 0
M  V30 39100 O 5347.84 2.71895 -5.48509 0
M  V30 39101 C 5345.7 2.89693 -6.67988 0
M  V30 39102 H 5345.73 3.88793 -6.19859 0
M  V30 39103 H 5346.92 1.12046 -6.44229 0
M  V30 39104 H 5348.4 1.7746 -8.19711 0
M  V30 39105 H 5346.71 3.20706 -9.67112 0
M  V30 39106 H 5346.52 0.901032 -10.1892 0
M  V30 39107 H 5344.89 1.33049 -9.56592 0
M  V30 39108 H 5347.53 3.57847 -5.23962 0
M  V30 39109 P 5349.38 3.65191 -7.99657 0
M  V30 39110 O 5350.81 3.89332 -8.45794 0
M  V30 39111 O 5349.02 2.28472 -7.50807 0
M  V30 39112 O 5349.06 4.64972 -6.77611 0
M  V30 39113 C 5348.9 6.06319 -7.16352 0
M  V30 39114 C 5349.44 6.91731 -6.02299 0
M  V30 39115 O 5348.38 6.92449 -5.17064 0
M  V30 39116 C 5350.66 6.43627 -5.25174 0
M  V30 39117 O 5351.4 7.43686 -4.60469 0
M  V30 39118 C 5349.99 5.40275 -4.31916 0
M  V30 39119 O 5350.79 5.25279 -3.14438 0
M  V30 39120 C 5348.65 6.04847 -4.05327 0
M  V30 39121 H 5348.68 6.62195 -3.11261 0
M  V30 39122 H 5349.87 4.42556 -4.81383 0
M  V30 39123 H 5351.35 5.92458 -5.93643 0
M  V30 39124 H 5349.66 7.92655 -6.402 0
M  V30 39125 H 5349.47 6.26671 -8.0846 0
M  V30 39126 H 5347.84 6.29101 -7.32804 0
M  V30 39127 H 5350.48 5.84315 -2.47318 0
M  V30 39128 P 5352.33 7.39546 -4.75277 0
M  V30 39129 O 5353.73 7.86988 -5.07993 0
M  V30 39130 O 5351.96 5.99957 -5.13804 0
M  V30 39131 O 5352.01 7.57411 -3.18621 0
M  V30 39132 C 5351.85 8.97357 -2.74833 0
M  V30 39133 C 5352.39 9.0745 -1.32694 0
M  V30 39134 O 5351.33 8.61972 -0.606089 0
M  V30 39135 C 5353.61 8.25383 -0.938334 0
M  V30 39136 O 5354.35 8.74577 0.146954 0
M  V30 39137 C 5352.94 6.8802 -0.712559 0
M  V30 39138 O 5353.74 6.11791 0.194623 0
M  V30 39139 C 5351.6 7.27966 -0.139777 0
M  V30 39140 N 5350.56 6.39368 -0.623421 0
M  V30 39141 C 5349.52 6.08088 0.223886 0
M  V30 39142 O 5349.56 6.5102 1.39986 0
M  V30 39143 N 5348.51 5.30627 -0.224051 0
M  V30 39144 C 5348.56 4.82531 -1.47257 0
M  V30 39145 C 5349.66 5.09974 -2.34008 0
M  V30 39146 C 5350.62 5.89548 -1.87678 0
M  V30 39147 H 5351.63 7.25255 0.961469 0
M  V30 39148 H 5352.82 6.32625 -1.65044 0
M  V30 39149 H 5354.3 8.19631 -1.78299 0
M  V30 39150 H 5352.61 10.1305 -1.09016 0
M  V30 39151 H 5352.42 9.64276 -3.41316 0
M  V30 39152 H 5350.79 9.25321 -2.76328 0
M  V30 39153 H 5349.7 4.67832 -3.3413 0
M  V30 39154 H 5351.47 6.14434 -2.51991 0
M  V30 39155 H 5353.52 6.35931 1.08377 0
M  V30 39156 P 5355.28 8.791 -3.87069e-10 0
M  V30 39157 O 5356.71 9.31096 0.027933 0
M  V30 39158 O 5354.92 7.77869 -1.04071 0
M  V30 39159 O 5354.96 8.09533 1.41463 0
M  V30 39160 C 5354.8 9.0349 2.53943 0
M  V30 39161 C 5355.34 8.35226 3.79016 0
M  V30 39162 O 5354.29 7.57992 4.15078 0
M  V30 39163 C 5356.56 7.45087 3.67298 0
M  V30 39164 O 5357.3 7.27796 4.85194 0
M  V30 39165 C 5355.89 6.17323 3.12027 0
M  V30 39166 O 5356.69 5.04231 3.47188 0
M  V30 39167 C 5354.55 6.19961 3.81809 0
M  V30 39168 H 5354.59 5.58218 4.73051 0
M  V30 39169 H 5355.77 6.21726 2.02589 0
M  V30 39170 H 5357.25 7.86112 2.9231 0
M  V30 39171 H 5355.56 9.11627 4.55076 0
M  V30 39172 H 5355.37 9.9573 2.34194 0
M  V30 39173 H 5353.74 9.2792 2.67832 0
M  V30 39174 H 5356.38 4.67702 4.28772 0
M  V30 39175 P 5358.24 7.39546 4.75277 0
M  V30 39176 O 5359.66 7.81777 5.05738 0
M  V30 39177 O 5357.88 7.1065 3.32998 0
M  V30 39178 O 5357.91 6.04542 5.56673 0
M  V30 39179 C 5357.75 6.22772 7.02095 0
M  V30 39180 C 5358.29 4.97725 7.70406 0
M  V30 39181 O 5357.24 4.13256 7.58987 0
M  V30 39182 C 5359.51 4.28231 7.11815 0
M  V30 39183 O 5360.25 3.49945 8.01648 0
M  V30 39184 C 5358.84 3.5063 5.96244 0
M  V30 39185 O 5359.64 2.36482 5.64681 0
M  V30 39186 C 5357.5 3.15122 6.56374 0
M  V30 39187 H 5357.54 2.13853 6.99751 0
M  V30 39188 H 5358.72 4.13501 5.06559 0
M  V30 39189 H 5360.2 5.03285 6.70911 0
M  V30 39190 H 5358.51 5.20877 8.75697 0
M  V30 39191 H 5358.32 7.11046 7.35349 0
M  V30 39192 H 5356.69 6.35815 7.26986 0
M  V30 39193 H 5359.33 1.61644 6.13565 0
M  V30 39194 P 5361.19 3.65191 7.99657 0
M  V30 39195 O 5362.61 3.8425 8.48115 0
M  V30 39196 O 5360.83 4.17805 6.64342 0
M  V30 39197 O 5360.86 2.07613 7.95143 0
M  V30 39198 C 5360.7 1.44328 9.27336 0
M  V30 39199 C 5361.24 0.0220036 9.17197 0
M  V30 39200 O 5360.19 -0.626867 8.61923 0
M  V30 39201 C 5362.46 -0.24586 8.30336 0
M  V30 39202 O 5363.2 -1.39011 8.63583 0
M  V30 39203 C 5361.79 -0.273849 6.91158 0
M  V30 39204 O 5362.59 -1.06348 6.02892 0
M  V30 39205 C 5360.45 -0.897649 7.22545 0
M  V30 39206 H 5360.49 -1.9841 7.04286 0
M  V30 39207 H 5361.67 0.739928 6.497 0
M  V30 39208 H 5363.15 0.60668 8.36503 0
M  V30 39209 H 5361.46 -0.352479 10.1829 0
M  V30 39210 H 5361.27 2.00611 10.0304 0
M  V30 39211 H 5359.64 1.41843 9.55327 0
M  V30 39212 H 5362.28 -1.95734 6.03555 0
M  V30 39213 P 5364.14 -1.25109 8.70152 0
M  V30 39214 O 5365.56 -1.35274 9.21221 0
M  V30 39215 O 5363.78 -0.0769065 7.84762 0
M  V30 39216 O 5363.81 -2.55232 7.81161 0
M  V30 39217 C 5363.65 -3.79939 8.58154 0
M  V30 39218 C 5364.19 -4.94023 7.72785 0
M  V30 39219 O 5363.14 -5.18726 6.91205 0
M  V30 39220 C 5365.41 -4.69597 6.85231 0
M  V30 39221 O 5366.15 -5.83832 6.51337 0
M  V30 39222 C 5364.74 -3.96706 5.66633 0
M  V30 39223 O 5365.54 -4.15414 4.49689 0
M  V30 39224 C 5363.41 -4.66153 5.59313 0
M  V30 39225 H 5363.44 -5.47679 4.85214 0
M  V30 39226 H 5364.62 -2.89008 5.86566 0
M  V30 39227 H 5366.1 -4.0121 7.36511 0
M  V30 39228 H 5364.41 -5.80182 8.37584 0
M  V30 39229 H 5364.22 -3.73517 9.52265 0
M  V30 39230 H 5362.59 -3.97163 8.80359 0
M  V30 39231 H 5365.23 -4.90969 4.01921 0
M  V30 39232 P 5367.09 -5.75688 6.64379 0
M  V30 39233 O 5368.51 -6.11849 7.01846 0
M  V30 39234 O 5366.73 -4.30744 6.56026 0
M  V30 39235 O 5366.76 -6.37042 5.19165 0
M  V30 39236 C 5366.6 -7.83578 5.16515 0
M  V30 39237 C 5367.14 -8.33398 3.83019 0
M  V30 39238 O 5366.09 -8.10074 3.01034 0
M  V30 39239 C 5368.36 -7.65514 3.2257 0
M  V30 39240 O 5369.1 -8.4329 2.32297 0
M  V30 39241 C 5367.69 -6.40075 2.62207 0
M  V30 39242 O 5368.49 -5.92589 1.53712 0
M  V30 39243 C 5366.36 -6.9454 2.18503 0
M  V30 39244 H 5366.39 -7.23063 1.12091 0
M  V30 39245 H 5367.57 -5.6025 3.37201 0
M  V30 39246 H 5369.05 -7.35707 4.02681 0
M  V30 39247 H 5367.36 -9.40912 3.9095 0
M  V30 39248 H 5367.17 -8.29056 5.99158 0
M  V30 39249 H 5365.54 -8.10073 5.25882 0
M  V30 39250 H 5368.18 -6.30324 0.726794 0
M  V30 39251 P 5370.04 -8.4349 2.47671 0
M  V30 39252 O 5371.46 -8.94167 2.5964 0
M  V30 39253 O 5369.68 -7.1704 3.19006 0
M  V30 39254 O 5369.71 -8.16596 0.923387 0
M  V30 39255 C 5369.55 -9.38437 0.108857 0
M  V30 39256 C 5370.09 -9.08175 -1.28353 0
M  V30 39257 O 5369.04 -8.44229 -1.84713 0
M  V30 39258 C 5371.31 -8.18386 -1.42505 0
M  V30 39259 O 5372.05 -8.3501 -2.60497 0
M  V30 39260 C 5370.64 -6.80225 -1.25468 0
M  V30 39261 O 5371.44 -5.81621 -1.91066 0
M  V30 39262 C 5369.31 -7.02416 -1.9168 0
M  V30 39263 H 5369.34 -6.6888 -2.96621 0
M  V30 39264 H 5370.52 -6.53617 -0.192223 0
M  V30 39265 H 5372.01 -8.36622 -0.589963 0
M  V30 39266 H 5370.31 -10.0291 -1.79807 0
M  V30 39267 H 5370.12 -10.2138 0.558219 0
M  V30 39268 H 5368.49 -9.6579 0.0444202 0
M  V30 39269 H 5371.13 -5.69556 -2.79637 0
M  V30 39270 P 5372.99 -8.4349 -2.47671 0
M  V30 39271 O 5374.41 -8.92593 -2.65 0
M  V30 39272 O 5372.63 -7.7568 -1.19296 0
M  V30 39273 O 5372.66 -7.36886 -3.63805 0
M  V30 39274 C 5372.5 -7.95349 -4.982 0
M  V30 39275 C 5373.04 -6.94612 -5.98974 0
M  V30 39276 O 5371.99 -6.10347 -6.11815 0
M  V30 39277 C 5374.26 -6.11426 -5.62335 0
M  V30 39278 O 5375 -5.6162 -6.70584 0
M  V30 39279 C 5373.59 -5.04409 -4.73308 0
M  V30 39280 O 5374.39 -3.85992 -4.75183 0
M  V30 39281 C 5372.26 -4.8728 -5.41006 0
M  V30 39282 H 5372.29 -4.02333 -6.11157 0
M  V30 39283 H 5373.47 -5.39466 -3.69543 0
M  V30 39284 H 5374.96 -6.71916 -5.01943 0
M  V30 39285 H 5373.26 -7.4649 -6.93477 0
M  V30 39286 H 5373.07 -8.89416 -5.05237 0
M  V30 39287 H 5371.44 -8.14876 -5.18409 0
M  V30 39288 H 5374.08 -3.27957 -5.4317 0
M  V30 39289 P 5375.94 -5.75688 -6.64379 0
M  V30 39290 O 5377.36 -6.07627 -7.05504 0
M  V30 39291 O 5375.58 -5.88047 -5.19722 0
M  V30 39292 O 5375.62 -4.2322 -7.04443 0
M  V30 39293 C 5375.46 -3.99743 -8.4911 0
M  V30 39294 C 5376 -2.60516 -8.79425 0
M  V30 39295 O 5374.94 -1.82684 -8.4467 0
M  V30 39296 C 5377.21 -2.10343 -8.03628 0
M  V30 39297 O 5377.95 -1.09919 -8.67766 0
M  V30 39298 C 5376.54 -1.68446 -6.70876 0
M  V30 39299 O 5377.34 -0.678137 -6.08433 0
M  V30 39300 C 5375.21 -1.17436 -7.18567 0
M  V30 39301 H 5375.24 -0.0804732 -7.31656 0
M  V30 39302 H 5376.42 -2.54037 -6.02537 0
M  V30 39303 H 5377.91 -2.93881 -7.85526 0
M  V30 39304 H 5376.21 -2.53065 -9.86973 0
M  V30 39305 H 5376.02 -4.75072 -9.05887 0
M  V30 39306 H 5374.39 -4.05244 -8.76668 0
M  V30 39307 H 5377.03 0.177647 -6.34251 0
M  V30 39308 P 5378.89 -1.25109 -8.70152 0
M  V30 39309 O 5380.31 -1.29744 -9.22016 0
M  V30 39310 O 5378.53 -2.13714 -7.55141 0
M  V30 39311 O 5378.57 0.248149 -8.21425 0
M  V30 39312 C 5378.41 1.22779 -9.30434 0
M  V30 39313 C 5378.95 2.56293 -8.80664 0
M  V30 39314 O 5377.89 3.02979 -8.09349 0
M  V30 39315 C 5380.16 2.57523 -7.89775 0
M  V30 39316 O 5380.9 3.7668 -7.89438 0
M  V30 39317 C 5379.5 2.20997 -6.55446 0
M  V30 39318 O 5380.29 2.71895 -5.48509 0
M  V30 39319 C 5378.16 2.89693 -6.67988 0
M  V30 39320 H 5378.19 3.88793 -6.19859 0
M  V30 39321 H 5379.37 1.12046 -6.44229 0
M  V30 39322 H 5380.86 1.7746 -8.19711 0
M  V30 39323 H 5379.16 3.20706 -9.67112 0
M  V30 39324 H 5378.97 0.901032 -10.1892 0
M  V30 39325 H 5377.34 1.33049 -9.56592 0
M  V30 39326 H 5379.98 3.57847 -5.23962 0
M  V30 39327 P 5381.84 3.65191 -7.99657 0
M  V30 39328 O 5383.26 3.89332 -8.45794 0
M  V30 39329 O 5381.48 2.28472 -7.50807 0
M  V30 39330 O 5381.52 4.64972 -6.77611 0
M  V30 39331 C 5381.36 6.06319 -7.16352 0
M  V30 39332 C 5381.9 6.91731 -6.02299 0
M  V30 39333 O 5380.84 6.92449 -5.17064 0
M  V30 39334 C 5383.11 6.43627 -5.25174 0
M  V30 39335 O 5383.85 7.43686 -4.60469 0
M  V30 39336 C 5382.45 5.40275 -4.31916 0
M  V30 39337 O 5383.24 5.25279 -3.14438 0
M  V30 39338 C 5381.11 6.04847 -4.05327 0
M  V30 39339 H 5381.14 6.62195 -3.11261 0
M  V30 39340 H 5382.32 4.42556 -4.81383 0
M  V30 39341 H 5383.81 5.92458 -5.93643 0
M  V30 39342 H 5382.11 7.92655 -6.402 0
M  V30 39343 H 5381.92 6.26671 -8.0846 0
M  V30 39344 H 5380.29 6.29101 -7.32804 0
M  V30 39345 H 5382.93 5.84315 -2.47318 0
M  V30 39346 P 5384.79 7.39546 -4.75277 0
M  V30 39347 O 5386.21 7.84798 -5.01039 0
M  V30 39348 O 5384.43 5.9812 -5.08098 0
M  V30 39349 O 5384.47 7.57503 -3.1866 0
M  V30 39350 C 5384.31 8.97357 -2.74833 0
M  V30 39351 C 5384.85 9.07548 -1.32709 0
M  V30 39352 O 5383.79 8.62072 -0.606159 0
M  V30 39353 C 5386.07 8.25383 -0.938334 0
M  V30 39354 O 5386.8 8.74577 0.146954 0
M  V30 39355 C 5385.4 6.8802 -0.712559 0
M  V30 39356 O 5386.2 6.1189 0.194655 0
M  V30 39357 C 5384.06 7.27966 -0.139777 0
M  V30 39358 H 5384.09 7.25354 0.961601 0
M  V30 39359 H 5385.27 6.32557 -1.65702 0
M  V30 39360 H 5386.76 8.19355 -1.79097 0
M  V30 39361 H 5385.06 10.1294 -1.10029 0
M  V30 39362 H 5384.87 9.64276 -3.41316 0
M  V30 39363 H 5383.24 9.25417 -2.76357 0
M  V30 39364 H 5385.88 6.25267 1.07847 0
M  V30 39365 P 5387.74 8.791 -3.81262e-10 0
M  V30 39366 O 5389.16 9.31096 0.027933 0
M  V30 39367 O 5387.38 7.77869 -1.04071 0
M  V30 39368 O 5387.42 8.09533 1.41463 0
M  V30 39369 C 5387.26 9.0349 2.53943 0
M  V30 39370 C 5387.8 8.35226 3.79016 0
M  V30 39371 O 5386.74 7.57992 4.15078 0
M  V30 39372 C 5389.02 7.45087 3.67298 0
M  V30 39373 O 5389.75 7.27796 4.85194 0
M  V30 39374 C 5388.35 6.17323 3.12027 0
M  V30 39375 O 5389.15 5.04231 3.47188 0
M  V30 39376 C 5387.01 6.19961 3.81809 0
M  V30 39377 H 5387.04 5.58218 4.73051 0
M  V30 39378 H 5388.22 6.21726 2.02589 0
M  V30 39379 H 5389.71 7.86112 2.9231 0
M  V30 39380 H 5388.01 9.11627 4.55076 0
M  V30 39381 H 5387.82 9.9573 2.34194 0
M  V30 39382 H 5386.19 9.2792 2.67832 0
M  V30 39383 H 5388.83 4.67702 4.28772 0
M  V30 39384 P 5390.69 7.39546 4.75277 0
M  V30 39385 O 5392.11 7.81777 5.05738 0
M  V30 39386 O 5390.33 7.1065 3.32998 0
M  V30 39387 O 5390.37 6.04542 5.56673 0
M  V30 39388 C 5390.21 6.22772 7.02095 0
M  V30 39389 C 5390.75 4.97725 7.70406 0
M  V30 39390 O 5389.69 4.13256 7.58987 0
M  V30 39391 C 5391.97 4.28231 7.11815 0
M  V30 39392 O 5392.7 3.49945 8.01648 0
M  V30 39393 C 5391.3 3.5063 5.96244 0
M  V30 39394 O 5392.1 2.36482 5.64681 0
M  V30 39395 C 5389.96 3.15122 6.56374 0
M  V30 39396 H 5389.99 2.13853 6.99751 0
M  V30 39397 H 5391.18 4.13501 5.06559 0
M  V30 39398 H 5392.66 5.03285 6.70911 0
M  V30 39399 H 5390.97 5.20877 8.75697 0
M  V30 39400 H 5390.78 7.11046 7.35349 0
M  V30 39401 H 5389.15 6.35815 7.26986 0
M  V30 39402 H 5391.78 1.61644 6.13565 0
M  V30 39403 P 5393.64 3.65191 7.99657 0
M  V30 39404 O 5395.06 3.8425 8.48115 0
M  V30 39405 O 5393.28 4.17805 6.64342 0
M  V30 39406 O 5393.32 2.07613 7.95143 0
M  V30 39407 C 5393.16 1.44328 9.27336 0
M  V30 39408 C 5393.7 0.0220036 9.17197 0
M  V30 39409 O 5392.64 -0.626867 8.61923 0
M  V30 39410 C 5394.92 -0.24586 8.30336 0
M  V30 39411 O 5395.65 -1.39011 8.63583 0
M  V30 39412 C 5394.25 -0.273849 6.91158 0
M  V30 39413 O 5395.05 -1.06348 6.02892 0
M  V30 39414 C 5392.91 -0.897649 7.22545 0
M  V30 39415 H 5392.94 -1.9841 7.04286 0
M  V30 39416 H 5394.13 0.739928 6.497 0
M  V30 39417 H 5395.61 0.60668 8.36503 0
M  V30 39418 H 5393.92 -0.352479 10.1829 0
M  V30 39419 H 5393.73 2.00611 10.0304 0
M  V30 39420 H 5392.1 1.41843 9.55327 0
M  V30 39421 H 5394.73 -1.95734 6.03555 0
M  V30 39422 P 5396.59 -1.25109 8.70152 0
M  V30 39423 O 5398.01 -1.35288 9.2132 0
M  V30 39424 O 5396.23 -0.0769065 7.84762 0
M  V30 39425 O 5396.27 -2.55232 7.81161 0
M  V30 39426 C 5396.11 -3.79979 8.58246 0
M  V30 39427 C 5396.65 -4.94023 7.72785 0
M  V30 39428 O 5395.59 -5.18666 6.91125 0
M  V30 39429 C 5397.87 -4.69597 6.85231 0
M  V30 39430 O 5398.61 -5.83832 6.51337 0
M  V30 39431 C 5397.2 -3.96706 5.66633 0
M  V30 39432 O 5398 -4.14896 4.5003 0
M  V30 39433 C 5395.86 -4.66153 5.59313 0
M  V30 39434 N 5394.82 -3.71582 5.24027 0
M  V30 39435 C 5394.99 -2.39715 5.48833 0
M  V30 39436 N 5393.96 -1.65863 5.12845 0
M  V30 39437 C 5393.08 -2.57637 4.5973 0
M  V30 39438 C 5391.81 -2.40278 4.01027 0
M  V30 39439 N 5391.21 -1.19549 3.86744 0
M  V30 39440 N 5391.24 -3.57711 3.59575 0
M  V30 39441 C 5391.85 -4.80324 3.70476 0
M  V30 39442 N 5393.02 -5.01121 4.23801 0
M  V30 39443 C 5393.6 -3.84757 4.66372 0
M  V30 39444 H 5395.89 -5.47604 4.85148 0
M  V30 39445 H 5397.08 -2.8955 5.86187 0
M  V30 39446 H 5398.56 -4.0121 7.36511 0
M  V30 39447 H 5396.87 -5.81019 8.37003 0
M  V30 39448 H 5396.68 -3.73517 9.52265 0
M  V30 39449 H 5395.05 -3.97163 8.80359 0
M  V30 39450 H 5391.31 -5.66348 3.3183 0
M  V30 39451 H 5395.89 -1.98804 5.94332 0
M  V30 39452 H 5390.28 -1.13147 3.4281 0
M  V30 39453 H 5391.68 -0.344074 4.19692 0
M  V30 39454 H 5397.69 -4.90891 4.01857 0
M  V30 39455 P 5399.54 -5.75688 6.64379 0
M  V30 39456 O 5400.97 -6.11849 7.01846 0
M  V30 39457 O 5399.18 -4.30744 6.56026 0
M  V30 39458 O 5399.22 -6.37042 5.19165 0
M  V30 39459 C 5399.06 -7.83578 5.16515 0
M  V30 39460 C 5399.6 -8.33398 3.83019 0
M  V30 39461 O 5398.54 -8.10074 3.01034 0
M  V30 39462 C 5400.82 -7.65514 3.2257 0
M  V30 39463 O 5401.56 -8.4329 2.32297 0
M  V30 39464 C 5400.15 -6.40075 2.62207 0
M  V30 39465 O 5400.95 -5.92589 1.53712 0
M  V30 39466 C 5398.81 -6.9454 2.18503 0
M  V30 39467 H 5398.84 -7.23063 1.12091 0
M  V30 39468 H 5400.03 -5.6025 3.37201 0
M  V30 39469 H 5401.51 -7.35707 4.02681 0
M  V30 39470 H 5399.82 -9.40912 3.9095 0
M  V30 39471 H 5399.63 -8.29056 5.99158 0
M  V30 39472 H 5398 -8.10073 5.25882 0
M  V30 39473 H 5400.64 -6.30324 0.726794 0
M  V30 39474 P 5402.49 -8.4349 2.47671 0
M  V30 39475 O 5403.92 -8.94167 2.5964 0
M  V30 39476 O 5402.13 -7.1704 3.19006 0
M  V30 39477 O 5402.17 -8.16596 0.923387 0
M  V30 39478 C 5402.01 -9.38437 0.108857 0
M  V30 39479 C 5402.55 -9.08175 -1.28353 0
M  V30 39480 O 5401.49 -8.44229 -1.84713 0
M  V30 39481 C 5403.77 -8.18386 -1.42505 0
M  V30 39482 O 5404.51 -8.3501 -2.60497 0
M  V30 39483 C 5403.1 -6.80225 -1.25468 0
M  V30 39484 O 5403.9 -5.81621 -1.91066 0
M  V30 39485 C 5401.76 -7.02416 -1.9168 0
M  V30 39486 H 5401.79 -6.6888 -2.96621 0
M  V30 39487 H 5402.98 -6.53617 -0.192223 0
M  V30 39488 H 5404.46 -8.36622 -0.589963 0
M  V30 39489 H 5402.77 -10.0291 -1.79807 0
M  V30 39490 H 5402.58 -10.2138 0.558219 0
M  V30 39491 H 5400.95 -9.6579 0.0444202 0
M  V30 39492 H 5403.59 -5.69556 -2.79637 0
M  V30 39493 P 5405.44 -8.4349 -2.47671 0
M  V30 39494 O 5406.87 -8.92593 -2.65 0
M  V30 39495 O 5405.08 -7.7568 -1.19296 0
M  V30 39496 O 5405.12 -7.36886 -3.63805 0
M  V30 39497 C 5404.96 -7.95349 -4.982 0
M  V30 39498 C 5405.5 -6.94612 -5.98974 0
M  V30 39499 O 5404.45 -6.10347 -6.11815 0
M  V30 39500 C 5406.72 -6.11426 -5.62335 0
M  V30 39501 O 5407.46 -5.6162 -6.70584 0
M  V30 39502 C 5406.05 -5.04409 -4.73308 0
M  V30 39503 O 5406.85 -3.85992 -4.75183 0
M  V30 39504 C 5404.71 -4.8728 -5.41006 0
M  V30 39505 H 5404.75 -4.02333 -6.11157 0
M  V30 39506 H 5405.93 -5.39466 -3.69543 0
M  V30 39507 H 5407.41 -6.71916 -5.01943 0
M  V30 39508 H 5405.72 -7.4649 -6.93477 0
M  V30 39509 H 5405.53 -8.89416 -5.05237 0
M  V30 39510 H 5403.9 -8.14876 -5.18409 0
M  V30 39511 H 5406.54 -3.27957 -5.4317 0
M  V30 39512 P 5408.39 -5.75688 -6.64379 0
M  V30 39513 O 5409.82 -6.07692 -7.0558 0
M  V30 39514 O 5408.03 -5.88047 -5.19722 0
M  V30 39515 O 5408.07 -4.2322 -7.04443 0
M  V30 39516 C 5407.91 -3.99785 -8.49201 0
M  V30 39517 C 5408.45 -2.60516 -8.79425 0
M  V30 39518 O 5407.4 -1.82663 -8.44573 0
M  V30 39519 C 5409.67 -2.10343 -8.03628 0
M  V30 39520 O 5410.41 -1.09919 -8.67766 0
M  V30 39521 C 5409 -1.68446 -6.70876 0
M  V30 39522 O 5409.8 -0.684109 -6.08265 0
M  V30 39523 C 5407.66 -1.17436 -7.18567 0
M  V30 39524 N 5406.62 -1.52699 -6.23988 0
M  V30 39525 C 5406.79 -2.578 -5.40574 0
M  V30 39526 N 5405.76 -2.78966 -4.61193 0
M  V30 39527 C 5404.88 -1.78725 -4.95769 0
M  V30 39528 C 5403.61 -1.45727 -4.44207 0
M  V30 39529 N 5403.01 -2.13994 -3.43613 0
M  V30 39530 N 5403.05 -0.374977 -5.05812 0
M  V30 39531 C 5403.65 0.345585 -6.05615 0
M  V30 39532 N 5404.82 0.0787651 -6.56253 0
M  V30 39533 C 5405.4 -1.00499 -5.96189 0
M  V30 39534 H 5407.7 -0.0804622 -7.31556 0
M  V30 39535 H 5408.88 -2.53396 -6.02698 0
M  V30 39536 H 5410.36 -2.93881 -7.85526 0
M  V30 39537 H 5408.67 -2.52078 -9.87225 0
M  V30 39538 H 5408.48 -4.75072 -9.05887 0
M  V30 39539 H 5406.85 -4.05244 -8.76668 0
M  V30 39540 H 5403.11 1.20098 -6.4532 0
M  V30 39541 H 5407.69 -3.18977 -5.3945 0
M  V30 39542 H 5402.08 -1.84983 -3.10004 0
M  V30 39543 H 5403.49 -2.9465 -3.00843 0
M  V30 39544 H 5409.49 0.177619 -6.34151 0
M  V30 39545 P 5411.35 -1.25109 -8.70152 0
M  V30 39546 O 5412.77 -1.29744 -9.22016 0
M  V30 39547 O 5410.99 -2.13714 -7.55141 0
M  V30 39548 O 5411.02 0.248149 -8.21425 0
M  V30 39549 C 5410.86 1.22779 -9.30434 0
M  V30 39550 C 5411.4 2.56293 -8.80664 0
M  V30 39551 O 5410.35 3.02979 -8.09349 0
M  V30 39552 C 5412.62 2.57523 -7.89775 0
M  V30 39553 O 5413.36 3.7668 -7.89438 0
M  V30 39554 C 5411.95 2.20997 -6.55446 0
M  V30 39555 O 5412.75 2.71895 -5.48509 0
M  V30 39556 C 5410.61 2.89693 -6.67988 0
M  V30 39557 H 5410.65 3.88793 -6.19859 0
M  V30 39558 H 5411.83 1.12046 -6.44229 0
M  V30 39559 H 5413.31 1.7746 -8.19711 0
M  V30 39560 H 5411.62 3.20706 -9.67112 0
M  V30 39561 H 5411.43 0.901032 -10.1892 0
M  V30 39562 H 5409.8 1.33049 -9.56592 0
M  V30 39563 H 5412.44 3.57847 -5.23962 0
M  V30 39564 P 5414.3 3.65191 -7.99657 0
M  V30 39565 O 5415.72 3.89416 -8.45976 0
M  V30 39566 O 5413.94 2.28472 -7.50807 0
M  V30 39567 O 5413.97 4.64972 -6.77611 0
M  V30 39568 C 5413.81 6.06319 -7.16352 0
M  V30 39569 C 5414.35 6.91655 -6.02234 0
M  V30 39570 O 5413.3 6.92449 -5.17064 0
M  V30 39571 C 5415.57 6.43627 -5.25174 0
M  V30 39572 O 5416.31 7.43686 -4.60469 0
M  V30 39573 C 5414.9 5.40275 -4.31916 0
M  V30 39574 O 5415.7 5.25193 -3.14386 0
M  V30 39575 C 5413.56 6.04847 -4.05327 0
M  V30 39576 N 5412.52 5.04166 -3.98114 0
M  V30 39577 C 5412.58 3.96049 -4.75587 0
M  V30 39578 N 5411.54 3.15559 -4.54006 0
M  V30 39579 C 5410.8 3.78802 -3.62491 0
M  V30 39580 C 5409.5 3.476 -3.10071 0
M  V30 39581 O 5408.77 2.51136 -3.37021 0
M  V30 39582 N 5409.07 4.39088 -2.19956 0
M  V30 39583 C 5409.82 5.53215 -1.81733 0
M  V30 39584 N 5409.22 6.31963 -0.860928 0
M  V30 39585 N 5410.97 5.86688 -2.32562 0
M  V30 39586 C 5411.43 4.97525 -3.23407 0
M  V30 39587 H 5413.6 6.62195 -3.11261 0
M  V30 39588 H 5414.78 4.42488 -4.8131 0
M  V30 39589 H 5416.26 5.93051 -5.9305 0
M  V30 39590 H 5414.57 7.92655 -6.402 0
M  V30 39591 H 5414.38 6.26671 -8.0846 0
M  V30 39592 H 5412.75 6.29101 -7.32804 0
M  V30 39593 H 5408.17 4.25523 -1.77604 0
M  V30 39594 H 5413.38 3.75576 -5.47333 0
M  V30 39595 H 5408.31 6.04684 -0.468946 0
M  V30 39596 H 5409.69 7.18054 -0.542422 0
M  V30 39597 H 5415.39 5.84223 -2.47279 0
M  V30 39598 P 5417.25 7.39546 -4.75277 0
M  V30 39599 O 5418.67 7.84798 -5.01039 0
M  V30 39600 O 5416.89 5.9812 -5.08098 0
M  V30 39601 O 5416.92 7.57503 -3.1866 0
M  V30 39602 C 5416.76 8.97357 -2.74833 0
M  V30 39603 C 5417.3 9.07548 -1.32709 0
M  V30 39604 O 5416.25 8.62072 -0.606159 0
M  V30 39605 C 5418.52 8.25383 -0.938334 0
M  V30 39606 O 5419.26 8.74577 0.146954 0
M  V30 39607 C 5417.85 6.8802 -0.712559 0
M  V30 39608 O 5418.65 6.1189 0.194655 0
M  V30 39609 C 5416.52 7.27966 -0.139777 0
M  V30 39610 H 5416.55 7.25354 0.961601 0
M  V30 39611 H 5417.73 6.32557 -1.65702 0
M  V30 39612 H 5419.21 8.19355 -1.79097 0
M  V30 39613 H 5417.52 10.1294 -1.10029 0
M  V30 39614 H 5417.33 9.64276 -3.41316 0
M  V30 39615 H 5415.7 9.25417 -2.76357 0
M  V30 39616 H 5418.34 6.25267 1.07847 0
M  V30 39617 P 5420.2 8.791 -3.75455e-10 0
M  V30 39618 O 5421.62 9.31296 0.027939 0
M  V30 39619 O 5419.84 7.77869 -1.04071 0
M  V30 39620 O 5419.87 8.09533 1.41463 0
M  V30 39621 C 5419.71 9.0349 2.53943 0
M  V30 39622 C 5420.25 8.35135 3.78975 0
M  V30 39623 O 5419.2 7.57992 4.15078 0
M  V30 39624 C 5421.47 7.45087 3.67298 0
M  V30 39625 O 5422.21 7.27796 4.85194 0
M  V30 39626 C 5420.8 6.17323 3.12027 0
M  V30 39627 O 5421.6 5.04149 3.47132 0
M  V30 39628 C 5419.47 6.19961 3.81809 0
M  V30 39629 N 5418.42 5.71575 2.93223 0
M  V30 39630 C 5418.49 5.97133 1.62693 0
M  V30 39631 N 5417.44 5.44066 0.984414 0
M  V30 39632 C 5416.71 4.87093 1.93987 0
M  V30 39633 C 5415.4 4.26449 1.8738 0
M  V30 39634 O 5414.67 4.1089 0.884377 0
M  V30 39635 N 5414.97 3.82483 3.08036 0
M  V30 39636 C 5415.72 3.95124 4.27727 0
M  V30 39637 N 5415.12 3.4084 5.39089 0
M  V30 39638 N 5416.87 4.55264 4.3706 0
M  V30 39639 C 5417.33 5.00861 3.18217 0
M  V30 39640 H 5419.5 5.58218 4.73051 0
M  V30 39641 H 5420.68 6.21631 2.02558 0
M  V30 39642 H 5422.17 7.85819 2.93096 0
M  V30 39643 H 5420.47 9.11627 4.55076 0
M  V30 39644 H 5420.28 9.9573 2.34194 0
M  V30 39645 H 5418.65 9.2792 2.67832 0
M  V30 39646 H 5414.07 3.38323 3.1329 0
M  V30 39647 H 5419.28 6.53891 1.14265 0
M  V30 39648 H 5414.21 2.93852 5.30559 0
M  V30 39649 H 5415.59 3.47631 6.30632 0
M  V30 39650 H 5421.29 4.67628 4.28704 0
M  V30 39651 P 5423.15 7.39546 4.75277 0
M  V30 39652 O 5424.57 7.81861 5.05793 0
M  V30 39653 O 5422.79 7.1065 3.32998 0
M  V30 39654 O 5422.82 6.04542 5.56673 0
M  V30 39655 C 5422.66 6.22839 7.02169 0
M  V30 39656 C 5423.2 4.97725 7.70406 0
M  V30 39657 O 5422.15 4.13208 7.58899 0
M  V30 39658 C 5424.42 4.28231 7.11815 0
M  V30 39659 O 5425.16 3.49945 8.01648 0
M  V30 39660 C 5423.75 3.5063 5.96244 0
M  V30 39661 O 5424.55 2.37008 5.64352 0
M  V30 39662 C 5422.42 3.15122 6.56374 0
M  V30 39663 N 5421.37 3.22311 5.55692 0
M  V30 39664 C 5421.54 3.99655 4.46046 0
M  V30 39665 N 5420.52 3.97599 3.63918 0
M  V30 39666 C 5419.63 3.11159 4.25334 0
M  V30 39667 C 5418.36 2.64972 3.85157 0
M  V30 39668 N 5417.76 3.02132 2.69405 0
M  V30 39669 N 5417.8 1.78482 4.74759 0
M  V30 39670 C 5418.4 1.37463 5.90819 0
M  V30 39671 N 5419.58 1.7733 6.31889 0
M  V30 39672 C 5420.15 2.64393 5.43725 0
M  V30 39673 H 5422.45 2.13823 6.99656 0
M  V30 39674 H 5423.63 4.12931 5.06895 0
M  V30 39675 H 5425.11 5.03285 6.70911 0
M  V30 39676 H 5423.42 5.20001 8.76217 0
M  V30 39677 H 5423.23 7.11046 7.35349 0
M  V30 39678 H 5421.6 6.35815 7.26986 0
M  V30 39679 H 5417.86 0.66574 6.53015 0
M  V30 39680 H 5422.44 4.58037 4.27732 0
M  V30 39681 H 5416.83 2.64828 2.45331 0
M  V30 39682 H 5418.24 3.67472 2.05644 0
M  V30 39683 H 5424.24 1.61619 6.13468 0
M  V30 39684 P 5426.1 3.65191 7.99657 0
M  V30 39685 O 5427.52 3.84333 8.48297 0
M  V30 39686 O 5425.74 4.17805 6.64342 0
M  V30 39687 O 5425.78 2.07613 7.95143 0
M  V30 39688 C 5425.62 1.44328 9.27336 0
M  V30 39689 C 5426.16 0.0220012 9.17097 0
M  V30 39690 O 5425.1 -0.626867 8.61923 0
M  V30 39691 C 5427.37 -0.24586 8.30336 0
M  V30 39692 O 5428.11 -1.39011 8.63583 0
M  V30 39693 C 5426.71 -0.273849 6.91158 0
M  V30 39694 O 5427.5 -1.06331 6.02794 0
M  V30 39695 C 5425.37 -0.897649 7.22545 0
M  V30 39696 N 5424.32 -0.292839 6.41732 0
M  V30 39697 C 5424.39 1.00068 6.10757 0
M  V30 39698 N 5423.34 1.36468 5.35794 0
M  V30 39699 C 5422.61 0.258894 5.2366 0
M  V30 39700 C 5421.3 0.0670682 4.65752 0
M  V30 39701 O 5420.57 0.902443 4.10497 0
M  V30 39702 N 5420.87 -1.2131 4.75881 0
M  V30 39703 C 5421.62 -2.24934 5.37101 0
M  V30 39704 N 5421.02 -3.48783 5.33984 0
M  V30 39705 N 5422.77 -2.0844 5.95684 0
M  V30 39706 C 5423.23 -0.81395 5.87791 0
M  V30 39707 H 5425.4 -1.9841 7.04286 0
M  V30 39708 H 5426.58 0.739815 6.49601 0
M  V30 39709 H 5428.07 0.598315 8.36563 0
M  V30 39710 H 5426.37 -0.352479 10.1829 0
M  V30 39711 H 5426.18 2.00611 10.0304 0
M  V30 39712 H 5424.55 1.41843 9.55327 0
M  V30 39713 H 5419.98 -1.44434 4.37895 0
M  V30 39714 H 5425.18 1.67697 6.42268 0
M  V30 39715 H 5420.11 -3.60543 4.87699 0
M  V30 39716 H 5421.49 -4.29232 5.7819 0
M  V30 39717 H 5427.19 -1.95704 6.0346 0
M  V30 39718 P 5429.05 -1.25109 8.70152 0
M  V30 39719 O 5430.47 -1.35288 9.2132 0
M  V30 39720 O 5428.69 -0.0769065 7.84762 0
M  V30 39721 O 5428.73 -2.55232 7.81161 0
M  V30 39722 C 5428.56 -3.79979 8.58246 0
M  V30 39723 C 5429.11 -4.94023 7.72785 0
M  V30 39724 O 5428.05 -5.18666 6.91125 0
M  V30 39725 C 5430.32 -4.69597 6.85231 0
M  V30 39726 O 5431.06 -5.83832 6.51337 0
M  V30 39727 C 5429.66 -3.96706 5.66633 0
M  V30 39728 O 5430.45 -4.14896 4.5003 0
M  V30 39729 C 5428.32 -4.66153 5.59313 0
M  V30 39730 N 5427.27 -3.71582 5.24027 0
M  V30 39731 C 5427.44 -2.39715 5.48833 0
M  V30 39732 N 5426.42 -1.65863 5.12845 0
M  V30 39733 C 5425.53 -2.57637 4.5973 0
M  V30 39734 C 5424.26 -2.40278 4.01027 0
M  V30 39735 N 5423.67 -1.19549 3.86744 0
M  V30 39736 N 5423.7 -3.57711 3.59575 0
M  V30 39737 C 5424.3 -4.80324 3.70476 0
M  V30 39738 N 5425.48 -5.01121 4.23801 0
M  V30 39739 C 5426.05 -3.84757 4.66372 0
M  V30 39740 H 5428.35 -5.47604 4.85148 0
M  V30 39741 H 5429.53 -2.8955 5.86187 0
M  V30 39742 H 5431.02 -4.0121 7.36511 0
M  V30 39743 H 5429.32 -5.81019 8.37003 0
M  V30 39744 H 5429.13 -3.73517 9.52265 0
M  V30 39745 H 5427.5 -3.97163 8.80359 0
M  V30 39746 H 5423.77 -5.66348 3.3183 0
M  V30 39747 H 5428.34 -1.98804 5.94332 0
M  V30 39748 H 5422.74 -1.13147 3.4281 0
M  V30 39749 H 5424.14 -0.344074 4.19692 0
M  V30 39750 H 5430.14 -4.90891 4.01857 0
M  V30 39751 P 5432 -5.75688 6.64379 0
M  V30 39752 O 5433.42 -6.11849 7.01846 0
M  V30 39753 O 5431.64 -4.30744 6.56026 0
M  V30 39754 O 5431.68 -6.37042 5.19165 0
M  V30 39755 C 5431.52 -7.83578 5.16515 0
M  V30 39756 C 5432.06 -8.33398 3.83019 0
M  V30 39757 O 5431 -8.10074 3.01034 0
M  V30 39758 C 5433.27 -7.65514 3.2257 0
M  V30 39759 O 5434.01 -8.4329 2.32297 0
M  V30 39760 C 5432.61 -6.40075 2.62207 0
M  V30 39761 O 5433.4 -5.92589 1.53712 0
M  V30 39762 C 5431.27 -6.9454 2.18503 0
M  V30 39763 H 5431.3 -7.23063 1.12091 0
M  V30 39764 H 5432.48 -5.6025 3.37201 0
M  V30 39765 H 5433.97 -7.35707 4.02681 0
M  V30 39766 H 5432.27 -9.40912 3.9095 0
M  V30 39767 H 5432.08 -8.29056 5.99158 0
M  V30 39768 H 5430.45 -8.10073 5.25882 0
M  V30 39769 H 5433.09 -6.30324 0.726794 0
M  V30 39770 P 5434.95 -8.4349 2.47671 0
M  V30 39771 O 5436.37 -8.94167 2.5964 0
M  V30 39772 O 5434.59 -7.1704 3.19006 0
M  V30 39773 O 5434.63 -8.16596 0.923387 0
M  V30 39774 C 5434.47 -9.38437 0.108857 0
M  V30 39775 C 5435.01 -9.08175 -1.28353 0
M  V30 39776 O 5433.95 -8.44229 -1.84713 0
M  V30 39777 C 5436.22 -8.18386 -1.42505 0
M  V30 39778 O 5436.96 -8.3501 -2.60497 0
M  V30 39779 C 5435.56 -6.80225 -1.25468 0
M  V30 39780 O 5436.35 -5.81621 -1.91066 0
M  V30 39781 C 5434.22 -7.02416 -1.9168 0
M  V30 39782 H 5434.25 -6.6888 -2.96621 0
M  V30 39783 H 5435.43 -6.53617 -0.192223 0
M  V30 39784 H 5436.92 -8.36622 -0.589963 0
M  V30 39785 H 5435.22 -10.0291 -1.79807 0
M  V30 39786 H 5435.03 -10.2138 0.558219 0
M  V30 39787 H 5433.4 -9.6579 0.0444202 0
M  V30 39788 H 5436.04 -5.69556 -2.79637 0
M  V30 39789 P 5437.9 -8.4349 -2.47671 0
M  V30 39790 O 5439.32 -8.92593 -2.65 0
M  V30 39791 O 5437.54 -7.7568 -1.19296 0
M  V30 39792 O 5437.58 -7.36886 -3.63805 0
M  V30 39793 C 5437.42 -7.95349 -4.982 0
M  V30 39794 C 5437.96 -6.94612 -5.98974 0
M  V30 39795 O 5436.9 -6.10347 -6.11815 0
M  V30 39796 C 5439.18 -6.11426 -5.62335 0
M  V30 39797 O 5439.91 -5.6162 -6.70584 0
M  V30 39798 C 5438.51 -5.04409 -4.73308 0
M  V30 39799 O 5439.31 -3.85992 -4.75183 0
M  V30 39800 C 5437.17 -4.8728 -5.41006 0
M  V30 39801 H 5437.2 -4.02333 -6.11157 0
M  V30 39802 H 5438.38 -5.39466 -3.69543 0
M  V30 39803 H 5439.87 -6.71916 -5.01943 0
M  V30 39804 H 5438.17 -7.4649 -6.93477 0
M  V30 39805 H 5437.98 -8.89416 -5.05237 0
M  V30 39806 H 5436.35 -8.14876 -5.18409 0
M  V30 39807 H 5438.99 -3.27957 -5.4317 0
M  V30 39808 P 5440.85 -5.75688 -6.64379 0
M  V30 39809 O 5442.27 -6.07627 -7.05504 0
M  V30 39810 O 5440.49 -5.88047 -5.19722 0
M  V30 39811 O 5440.53 -4.2322 -7.04443 0
M  V30 39812 C 5440.37 -3.99743 -8.4911 0
M  V30 39813 C 5440.91 -2.60516 -8.79425 0
M  V30 39814 O 5439.85 -1.82684 -8.4467 0
M  V30 39815 C 5442.13 -2.10343 -8.03628 0
M  V30 39816 O 5442.86 -1.09919 -8.67766 0
M  V30 39817 C 5441.46 -1.68446 -6.70876 0
M  V30 39818 O 5442.26 -0.678137 -6.08433 0
M  V30 39819 C 5440.12 -1.17436 -7.18567 0
M  V30 39820 H 5440.15 -0.0804732 -7.31656 0
M  V30 39821 H 5441.34 -2.54037 -6.02537 0
M  V30 39822 H 5442.82 -2.93881 -7.85526 0
M  V30 39823 H 5441.13 -2.53065 -9.86973 0
M  V30 39824 H 5440.94 -4.75072 -9.05887 0
M  V30 39825 H 5439.31 -4.05244 -8.76668 0
M  V30 39826 H 5441.94 0.177647 -6.34251 0
M  V30 39827 P 5443.8 -1.25109 -8.70152 0
M  V30 39828 O 5445.22 -1.29744 -9.22016 0
M  V30 39829 O 5443.44 -2.13714 -7.55141 0
M  V30 39830 O 5443.48 0.248149 -8.21425 0
M  V30 39831 C 5443.32 1.22779 -9.30434 0
M  V30 39832 C 5443.86 2.56293 -8.80664 0
M  V30 39833 O 5442.8 3.02979 -8.09349 0
M  V30 39834 C 5445.08 2.57523 -7.89775 0
M  V30 39835 O 5445.81 3.7668 -7.89438 0
M  V30 39836 C 5444.41 2.20997 -6.55446 0
M  V30 39837 O 5445.21 2.71895 -5.48509 0
M  V30 39838 C 5443.07 2.89693 -6.67988 0
M  V30 39839 H 5443.1 3.88793 -6.19859 0
M  V30 39840 H 5444.29 1.12046 -6.44229 0
M  V30 39841 H 5445.77 1.7746 -8.19711 0
M  V30 39842 H 5444.08 3.20706 -9.67112 0
M  V30 39843 H 5443.89 0.901032 -10.1892 0
M  V30 39844 H 5442.26 1.33049 -9.56592 0
M  V30 39845 H 5444.89 3.57847 -5.23962 0
M  V30 39846 P 5446.75 3.65191 -7.99657 0
M  V30 39847 O 5448.17 3.89332 -8.45794 0
M  V30 39848 O 5446.39 2.28472 -7.50807 0
M  V30 39849 O 5446.43 4.64972 -6.77611 0
M  V30 39850 C 5446.27 6.06319 -7.16352 0
M  V30 39851 C 5446.81 6.91731 -6.02299 0
M  V30 39852 O 5445.75 6.92449 -5.17064 0
M  V30 39853 C 5448.03 6.43627 -5.25174 0
M  V30 39854 O 5448.77 7.43686 -4.60469 0
M  V30 39855 C 5447.36 5.40275 -4.31916 0
M  V30 39856 O 5448.16 5.25279 -3.14438 0
M  V30 39857 C 5446.02 6.04847 -4.05327 0
M  V30 39858 H 5446.05 6.62195 -3.11261 0
M  V30 39859 H 5447.24 4.42556 -4.81383 0
M  V30 39860 H 5448.72 5.92458 -5.93643 0
M  V30 39861 H 5447.03 7.92655 -6.402 0
M  V30 39862 H 5446.84 6.26671 -8.0846 0
M  V30 39863 H 5445.21 6.29101 -7.32804 0
M  V30 39864 H 5447.85 5.84315 -2.47318 0
M  V30 39865 P 5449.7 7.39546 -4.75277 0
M  V30 39866 O 5451.1 7.86988 -5.07993 0
M  V30 39867 O 5449.32 5.99957 -5.13804 0
M  V30 39868 O 5449.38 7.57411 -3.18621 0
M  V30 39869 C 5449.22 8.97357 -2.74833 0
M  V30 39870 C 5449.76 9.0745 -1.32694 0
M  V30 39871 O 5448.7 8.61972 -0.606089 0
M  V30 39872 C 5450.98 8.25383 -0.938334 0
M  V30 39873 O 5451.72 8.74577 0.146954 0
M  V30 39874 C 5450.31 6.8802 -0.712559 0
M  V30 39875 O 5451.11 6.11791 0.194623 0
M  V30 39876 C 5448.97 7.27966 -0.139777 0
M  V30 39877 N 5447.93 6.39368 -0.623421 0
M  V30 39878 C 5446.89 6.08088 0.223886 0
M  V30 39879 O 5446.93 6.5102 1.39986 0
M  V30 39880 N 5445.88 5.30627 -0.224051 0
M  V30 39881 C 5445.93 4.82531 -1.47257 0
M  V30 39882 C 5447.03 5.09974 -2.34008 0
M  V30 39883 C 5447.99 5.89548 -1.87678 0
M  V30 39884 H 5449 7.25255 0.961469 0
M  V30 39885 H 5450.19 6.32625 -1.65044 0
M  V30 39886 H 5451.67 8.19631 -1.78299 0
M  V30 39887 H 5449.98 10.1305 -1.09016 0
M  V30 39888 H 5449.79 9.64276 -3.41316 0
M  V30 39889 H 5448.16 9.25321 -2.76328 0
M  V30 39890 H 5447.07 4.67832 -3.3413 0
M  V30 39891 H 5448.84 6.14434 -2.51991 0
M  V30 39892 H 5450.89 6.35931 1.08377 0
M  V30 39893 P 5452.65 8.791 -3.69648e-10 0
M  V30 39894 O 5454.08 9.31096 0.027933 0
M  V30 39895 O 5452.29 7.77869 -1.04071 0
M  V30 39896 O 5452.33 8.09533 1.41463 0
M  V30 39897 C 5452.17 9.0349 2.53943 0
M  V30 39898 C 5452.71 8.35226 3.79016 0
M  V30 39899 O 5451.65 7.57992 4.15078 0
M  V30 39900 C 5453.93 7.45087 3.67298 0
M  V30 39901 O 5454.67 7.27796 4.85194 0
M  V30 39902 C 5453.26 6.17323 3.12027 0
M  V30 39903 O 5454.06 5.04231 3.47188 0
M  V30 39904 C 5451.92 6.19961 3.81809 0
M  V30 39905 H 5451.95 5.58218 4.73051 0
M  V30 39906 H 5453.14 6.21726 2.02589 0
M  V30 39907 H 5454.62 7.86112 2.9231 0
M  V30 39908 H 5452.93 9.11627 4.55076 0
M  V30 39909 H 5452.74 9.9573 2.34194 0
M  V30 39910 H 5451.11 9.2792 2.67832 0
M  V30 39911 H 5453.75 4.67702 4.28772 0
M  V30 39912 P 5455.6 7.39546 4.75277 0
M  V30 39913 O 5457.03 7.81777 5.05738 0
M  V30 39914 O 5455.24 7.1065 3.32998 0
M  V30 39915 O 5455.28 6.04542 5.56673 0
M  V30 39916 C 5455.12 6.22772 7.02095 0
M  V30 39917 C 5455.66 4.97725 7.70406 0
M  V30 39918 O 5454.6 4.13256 7.58987 0
M  V30 39919 C 5456.88 4.28231 7.11815 0
M  V30 39920 O 5457.62 3.49945 8.01648 0
M  V30 39921 C 5456.21 3.5063 5.96244 0
M  V30 39922 O 5457.01 2.36482 5.64681 0
M  V30 39923 C 5454.87 3.15122 6.56374 0
M  V30 39924 H 5454.9 2.13853 6.99751 0
M  V30 39925 H 5456.09 4.13501 5.06559 0
M  V30 39926 H 5457.57 5.03285 6.70911 0
M  V30 39927 H 5455.88 5.20877 8.75697 0
M  V30 39928 H 5455.69 7.11046 7.35349 0
M  V30 39929 H 5454.06 6.35815 7.26986 0
M  V30 39930 H 5456.7 1.61644 6.13565 0
M  V30 39931 P 5458.55 3.65191 7.99657 0
M  V30 39932 O 5459.98 3.8425 8.48115 0
M  V30 39933 O 5458.19 4.17805 6.64342 0
M  V30 39934 O 5458.23 2.07613 7.95143 0
M  V30 39935 C 5458.07 1.44328 9.27336 0
M  V30 39936 C 5458.61 0.0220036 9.17197 0
M  V30 39937 O 5457.56 -0.626867 8.61923 0
M  V30 39938 C 5459.83 -0.24586 8.30336 0
M  V30 39939 O 5460.57 -1.39011 8.63583 0
M  V30 39940 C 5459.16 -0.273849 6.91158 0
M  V30 39941 O 5459.96 -1.06348 6.02892 0
M  V30 39942 C 5457.82 -0.897649 7.22545 0
M  V30 39943 H 5457.86 -1.9841 7.04286 0
M  V30 39944 H 5459.04 0.739928 6.497 0
M  V30 39945 H 5460.52 0.60668 8.36503 0
M  V30 39946 H 5458.83 -0.352479 10.1829 0
M  V30 39947 H 5458.64 2.00611 10.0304 0
M  V30 39948 H 5457.01 1.41843 9.55327 0
M  V30 39949 H 5459.65 -1.95734 6.03555 0
M  V30 39950 P 5461.51 -1.25109 8.70152 0
M  V30 39951 O 5462.93 -1.35274 9.21221 0
M  V30 39952 O 5461.15 -0.0769065 7.84762 0
M  V30 39953 O 5461.18 -2.55232 7.81161 0
M  V30 39954 C 5461.02 -3.79939 8.58154 0
M  V30 39955 C 5461.56 -4.94023 7.72785 0
M  V30 39956 O 5460.51 -5.18726 6.91205 0
M  V30 39957 C 5462.78 -4.69597 6.85231 0
M  V30 39958 O 5463.52 -5.83832 6.51337 0
M  V30 39959 C 5462.11 -3.96706 5.66633 0
M  V30 39960 O 5462.91 -4.15414 4.49689 0
M  V30 39961 C 5460.77 -4.66153 5.59313 0
M  V30 39962 H 5460.81 -5.47679 4.85214 0
M  V30 39963 H 5461.99 -2.89008 5.86566 0
M  V30 39964 H 5463.47 -4.0121 7.36511 0
M  V30 39965 H 5461.78 -5.80182 8.37584 0
M  V30 39966 H 5461.59 -3.73517 9.52265 0
M  V30 39967 H 5459.96 -3.97163 8.80359 0
M  V30 39968 H 5462.6 -4.90969 4.01921 0
M  V30 39969 P 5464.46 -5.75688 6.64379 0
M  V30 39970 O 5465.88 -6.11849 7.01846 0
M  V30 39971 O 5464.1 -4.30744 6.56026 0
M  V30 39972 O 5464.13 -6.37042 5.19165 0
M  V30 39973 C 5463.97 -7.83578 5.16515 0
M  V30 39974 C 5464.51 -8.33398 3.83019 0
M  V30 39975 O 5463.46 -8.10074 3.01034 0
M  V30 39976 C 5465.73 -7.65514 3.2257 0
M  V30 39977 O 5466.47 -8.4329 2.32297 0
M  V30 39978 C 5465.06 -6.40075 2.62207 0
M  V30 39979 O 5465.86 -5.92589 1.53712 0
M  V30 39980 C 5463.72 -6.9454 2.18503 0
M  V30 39981 H 5463.76 -7.23063 1.12091 0
M  V30 39982 H 5464.94 -5.6025 3.37201 0
M  V30 39983 H 5466.42 -7.35707 4.02681 0
M  V30 39984 H 5464.73 -9.40912 3.9095 0
M  V30 39985 H 5464.54 -8.29056 5.99158 0
M  V30 39986 H 5462.91 -8.10073 5.25882 0
M  V30 39987 H 5465.55 -6.30324 0.726794 0
M  V30 39988 P 5467.41 -8.4349 2.47671 0
M  V30 39989 O 5468.83 -8.94167 2.5964 0
M  V30 39990 O 5467.05 -7.1704 3.19006 0
M  V30 39991 O 5467.08 -8.16596 0.923387 0
M  V30 39992 C 5466.92 -9.38437 0.108857 0
M  V30 39993 C 5467.46 -9.08175 -1.28353 0
M  V30 39994 O 5466.41 -8.44229 -1.84713 0
M  V30 39995 C 5468.68 -8.18386 -1.42505 0
M  V30 39996 O 5469.42 -8.3501 -2.60497 0
M  V30 39997 C 5468.01 -6.80225 -1.25468 0
M  V30 39998 O 5468.81 -5.81621 -1.91066 0
M  V30 39999 C 5466.68 -7.02416 -1.9168 0
M  V30 40000 H 5466.71 -6.6888 -2.96621 0
M  V30 40001 H 5467.89 -6.53617 -0.192223 0
M  V30 40002 H 5469.37 -8.36622 -0.589963 0
M  V30 40003 H 5467.68 -10.0291 -1.79807 0
M  V30 40004 H 5467.49 -10.2138 0.558219 0
M  V30 40005 H 5465.86 -9.6579 0.0444202 0
M  V30 40006 H 5468.5 -5.69556 -2.79637 0
M  V30 40007 P 5470.36 -8.4349 -2.47671 0
M  V30 40008 O 5471.78 -8.92593 -2.65 0
M  V30 40009 O 5470 -7.7568 -1.19296 0
M  V30 40010 O 5470.03 -7.36886 -3.63805 0
M  V30 40011 C 5469.87 -7.95349 -4.982 0
M  V30 40012 C 5470.41 -6.94612 -5.98974 0
M  V30 40013 O 5469.36 -6.10347 -6.11815 0
M  V30 40014 C 5471.63 -6.11426 -5.62335 0
M  V30 40015 O 5472.37 -5.6162 -6.70584 0
M  V30 40016 C 5470.96 -5.04409 -4.73308 0
M  V30 40017 O 5471.76 -3.85992 -4.75183 0
M  V30 40018 C 5469.63 -4.8728 -5.41006 0
M  V30 40019 H 5469.66 -4.02333 -6.11157 0
M  V30 40020 H 5470.84 -5.39466 -3.69543 0
M  V30 40021 H 5472.32 -6.71916 -5.01943 0
M  V30 40022 H 5470.63 -7.4649 -6.93477 0
M  V30 40023 H 5470.44 -8.89416 -5.05237 0
M  V30 40024 H 5468.81 -8.14876 -5.18409 0
M  V30 40025 H 5471.45 -3.27957 -5.4317 0
M  V30 40026 P 5473.31 -5.75688 -6.64379 0
M  V30 40027 O 5474.73 -6.07627 -7.05504 0
M  V30 40028 O 5472.95 -5.88047 -5.19722 0
M  V30 40029 O 5472.98 -4.2322 -7.04443 0
M  V30 40030 C 5472.82 -3.99743 -8.4911 0
M  V30 40031 C 5473.36 -2.60516 -8.79425 0
M  V30 40032 O 5472.31 -1.82684 -8.4467 0
M  V30 40033 C 5474.58 -2.10343 -8.03628 0
M  V30 40034 O 5475.32 -1.09919 -8.67766 0
M  V30 40035 C 5473.91 -1.68446 -6.70876 0
M  V30 40036 O 5474.71 -0.678137 -6.08433 0
M  V30 40037 C 5472.58 -1.17436 -7.18567 0
M  V30 40038 H 5472.61 -0.0804732 -7.31656 0
M  V30 40039 H 5473.79 -2.54037 -6.02537 0
M  V30 40040 H 5475.28 -2.93881 -7.85526 0
M  V30 40041 H 5473.58 -2.53065 -9.86973 0
M  V30 40042 H 5473.39 -4.75072 -9.05887 0
M  V30 40043 H 5471.76 -4.05244 -8.76668 0
M  V30 40044 H 5474.4 0.177647 -6.34251 0
M  V30 40045 P 5476.26 -1.25109 -8.70152 0
M  V30 40046 O 5477.68 -1.29744 -9.22016 0
M  V30 40047 O 5475.9 -2.13714 -7.55141 0
M  V30 40048 O 5475.93 0.248149 -8.21425 0
M  V30 40049 C 5475.77 1.22779 -9.30434 0
M  V30 40050 C 5476.31 2.56293 -8.80664 0
M  V30 40051 O 5475.26 3.02979 -8.09349 0
M  V30 40052 C 5477.53 2.57523 -7.89775 0
M  V30 40053 O 5478.27 3.7668 -7.89438 0
M  V30 40054 C 5476.86 2.20997 -6.55446 0
M  V30 40055 O 5477.66 2.71895 -5.48509 0
M  V30 40056 C 5475.53 2.89693 -6.67988 0
M  V30 40057 H 5475.56 3.88793 -6.19859 0
M  V30 40058 H 5476.74 1.12046 -6.44229 0
M  V30 40059 H 5478.23 1.7746 -8.19711 0
M  V30 40060 H 5476.53 3.20706 -9.67112 0
M  V30 40061 H 5476.34 0.901032 -10.1892 0
M  V30 40062 H 5474.71 1.33049 -9.56592 0
M  V30 40063 H 5477.35 3.57847 -5.23962 0
M  V30 40064 P 5479.21 3.65191 -7.99657 0
M  V30 40065 O 5480.63 3.89332 -8.45794 0
M  V30 40066 O 5478.85 2.28472 -7.50807 0
M  V30 40067 O 5478.89 4.64972 -6.77611 0
M  V30 40068 C 5478.73 6.06319 -7.16352 0
M  V30 40069 C 5479.27 6.91731 -6.02299 0
M  V30 40070 O 5478.21 6.92449 -5.17064 0
M  V30 40071 C 5480.48 6.43627 -5.25174 0
M  V30 40072 O 5481.22 7.43686 -4.60469 0
M  V30 40073 C 5479.81 5.40275 -4.31916 0
M  V30 40074 O 5480.61 5.25279 -3.14438 0
M  V30 40075 C 5478.48 6.04847 -4.05327 0
M  V30 40076 H 5478.51 6.62195 -3.11261 0
M  V30 40077 H 5479.69 4.42556 -4.81383 0
M  V30 40078 H 5481.18 5.92458 -5.93643 0
M  V30 40079 H 5479.48 7.92655 -6.402 0
M  V30 40080 H 5479.29 6.26671 -8.0846 0
M  V30 40081 H 5477.66 6.29101 -7.32804 0
M  V30 40082 H 5480.3 5.84315 -2.47318 0
M  V30 40083 P 5482.16 7.39546 -4.75277 0
M  V30 40084 O 5483.58 7.84882 -5.01092 0
M  V30 40085 O 5481.8 5.9812 -5.08098 0
M  V30 40086 O 5481.84 7.57503 -3.1866 0
M  V30 40087 C 5481.68 8.97452 -2.74862 0
M  V30 40088 C 5482.22 9.07548 -1.32709 0
M  V30 40089 O 5481.16 8.61972 -0.606089 0
M  V30 40090 C 5483.43 8.25383 -0.938334 0
M  V30 40091 O 5484.17 8.74577 0.146954 0
M  V30 40092 C 5482.77 6.8802 -0.712559 0
M  V30 40093 O 5483.56 6.1181 0.188505 0
M  V30 40094 C 5481.43 7.27966 -0.139777 0
M  V30 40095 N 5480.39 6.39368 -0.623421 0
M  V30 40096 C 5480.55 5.71761 -1.78245 0
M  V30 40097 N 5479.53 4.962 -2.10491 0
M  V30 40098 C 5478.64 5.16158 -1.0635 0
M  V30 40099 C 5477.38 4.60425 -0.810266 0
M  V30 40100 N 5476.78 3.7057 -1.62914 0
M  V30 40101 N 5476.81 5.06 0.348685 0
M  V30 40102 C 5477.41 5.94532 1.20395 0
M  V30 40103 N 5478.59 6.48452 1.01191 0
M  V30 40104 C 5479.16 6.04423 -0.146291 0
M  V30 40105 H 5481.46 7.25255 0.961469 0
M  V30 40106 H 5482.64 6.32625 -1.65044 0
M  V30 40107 H 5484.13 8.19355 -1.79097 0
M  V30 40108 H 5482.43 10.1305 -1.09016 0
M  V30 40109 H 5482.24 9.64276 -3.41316 0
M  V30 40110 H 5480.61 9.25417 -2.76357 0
M  V30 40111 H 5476.88 6.21659 2.10714 0
M  V30 40112 H 5481.45 5.79354 -2.38959 0
M  V30 40113 H 5475.85 3.33174 -1.38982 0
M  V30 40114 H 5477.25 3.39714 -2.48836 0
M  V30 40115 H 5483.25 6.25169 1.0783 0
M  V30 40116 P 5485.11 8.791 -3.63841e-10 0
M  V30 40117 O 5486.53 9.31096 0.027933 0
M  V30 40118 O 5484.75 7.77869 -1.04071 0
M  V30 40119 O 5484.79 8.09533 1.41463 0
M  V30 40120 C 5484.63 9.0349 2.53943 0
M  V30 40121 C 5485.17 8.35226 3.79016 0
M  V30 40122 O 5484.11 7.57992 4.15078 0
M  V30 40123 C 5486.38 7.45087 3.67298 0
M  V30 40124 O 5487.12 7.27796 4.85194 0
M  V30 40125 C 5485.72 6.17323 3.12027 0
M  V30 40126 O 5486.51 5.04231 3.47188 0
M  V30 40127 C 5484.38 6.19961 3.81809 0
M  V30 40128 H 5484.41 5.58218 4.73051 0
M  V30 40129 H 5485.59 6.21726 2.02589 0
M  V30 40130 H 5487.08 7.86112 2.9231 0
M  V30 40131 H 5485.38 9.11627 4.55076 0
M  V30 40132 H 5485.19 9.9573 2.34194 0
M  V30 40133 H 5483.56 9.2792 2.67832 0
M  V30 40134 H 5486.2 4.67702 4.28772 0
M  V30 40135 P 5488.06 7.39546 4.75277 0
M  V30 40136 O 5489.48 7.81777 5.05738 0
M  V30 40137 O 5487.7 7.1065 3.32998 0
M  V30 40138 O 5487.74 6.04542 5.56673 0
M  V30 40139 C 5487.58 6.22772 7.02095 0
M  V30 40140 C 5488.12 4.97725 7.70406 0
M  V30 40141 O 5487.06 4.13256 7.58987 0
M  V30 40142 C 5489.34 4.28231 7.11815 0
M  V30 40143 O 5490.07 3.49945 8.01648 0
M  V30 40144 C 5488.67 3.5063 5.96244 0
M  V30 40145 O 5489.47 2.36482 5.64681 0
M  V30 40146 C 5487.33 3.15122 6.56374 0
M  V30 40147 H 5487.36 2.13853 6.99751 0
M  V30 40148 H 5488.54 4.13501 5.06559 0
M  V30 40149 H 5490.03 5.03285 6.70911 0
M  V30 40150 H 5488.33 5.20877 8.75697 0
M  V30 40151 H 5488.14 7.11046 7.35349 0
M  V30 40152 H 5486.51 6.35815 7.26986 0
M  V30 40153 H 5489.15 1.61644 6.13565 0
M  V30 40154 P 5491.01 3.65191 7.99657 0
M  V30 40155 O 5492.43 3.8425 8.48115 0
M  V30 40156 O 5490.65 4.17805 6.64342 0
M  V30 40157 O 5490.69 2.07613 7.95143 0
M  V30 40158 C 5490.53 1.44328 9.27336 0
M  V30 40159 C 5491.07 0.0220036 9.17197 0
M  V30 40160 O 5490.01 -0.626867 8.61923 0
M  V30 40161 C 5492.29 -0.24586 8.30336 0
M  V30 40162 O 5493.02 -1.39011 8.63583 0
M  V30 40163 C 5491.62 -0.273849 6.91158 0
M  V30 40164 O 5492.42 -1.06348 6.02892 0
M  V30 40165 C 5490.28 -0.897649 7.22545 0
M  V30 40166 H 5490.31 -1.9841 7.04286 0
M  V30 40167 H 5491.49 0.739928 6.497 0
M  V30 40168 H 5492.98 0.60668 8.36503 0
M  V30 40169 H 5491.28 -0.352479 10.1829 0
M  V30 40170 H 5491.09 2.00611 10.0304 0
M  V30 40171 H 5489.46 1.41843 9.55327 0
M  V30 40172 H 5492.1 -1.95734 6.03555 0
M  V30 40173 P 5493.96 -1.25109 8.70152 0
M  V30 40174 O 5495.38 -1.35274 9.21221 0
M  V30 40175 O 5493.6 -0.0769065 7.84762 0
M  V30 40176 O 5493.64 -2.55232 7.81161 0
M  V30 40177 C 5493.48 -3.79939 8.58154 0
M  V30 40178 C 5494.02 -4.94023 7.72785 0
M  V30 40179 O 5492.96 -5.18726 6.91205 0
M  V30 40180 C 5495.24 -4.69597 6.85231 0
M  V30 40181 O 5495.97 -5.83832 6.51337 0
M  V30 40182 C 5494.57 -3.96706 5.66633 0
M  V30 40183 O 5495.37 -4.15414 4.49689 0
M  V30 40184 C 5493.23 -4.66153 5.59313 0
M  V30 40185 H 5493.26 -5.47679 4.85214 0
M  V30 40186 H 5494.45 -2.89008 5.86566 0
M  V30 40187 H 5495.93 -4.0121 7.36511 0
M  V30 40188 H 5494.24 -5.80182 8.37584 0
M  V30 40189 H 5494.05 -3.73517 9.52265 0
M  V30 40190 H 5492.42 -3.97163 8.80359 0
M  V30 40191 H 5495.05 -4.90969 4.01921 0
M  V30 40192 P 5496.91 -5.75688 6.64379 0
M  V30 40193 O 5498.33 -6.11849 7.01846 0
M  V30 40194 O 5496.55 -4.30744 6.56026 0
M  V30 40195 O 5496.59 -6.37042 5.19165 0
M  V30 40196 C 5496.43 -7.83578 5.16515 0
M  V30 40197 C 5496.97 -8.33398 3.83019 0
M  V30 40198 O 5495.91 -8.10074 3.01034 0
M  V30 40199 C 5498.19 -7.65514 3.2257 0
M  V30 40200 O 5498.92 -8.4329 2.32297 0
M  V30 40201 C 5497.52 -6.40075 2.62207 0
M  V30 40202 O 5498.32 -5.92589 1.53712 0
M  V30 40203 C 5496.18 -6.9454 2.18503 0
M  V30 40204 H 5496.21 -7.23063 1.12091 0
M  V30 40205 H 5497.4 -5.6025 3.37201 0
M  V30 40206 H 5498.88 -7.35707 4.02681 0
M  V30 40207 H 5497.19 -9.40912 3.9095 0
M  V30 40208 H 5497 -8.29056 5.99158 0
M  V30 40209 H 5495.37 -8.10073 5.25882 0
M  V30 40210 H 5498 -6.30324 0.726794 0
M  V30 40211 P 5499.86 -8.4349 2.47671 0
M  V30 40212 O 5501.28 -8.94167 2.5964 0
M  V30 40213 O 5499.5 -7.1704 3.19006 0
M  V30 40214 O 5499.54 -8.16596 0.923387 0
M  V30 40215 C 5499.38 -9.38437 0.108857 0
M  V30 40216 C 5499.92 -9.08175 -1.28353 0
M  V30 40217 O 5498.86 -8.44229 -1.84713 0
M  V30 40218 C 5501.14 -8.18386 -1.42505 0
M  V30 40219 O 5501.88 -8.3501 -2.60497 0
M  V30 40220 C 5500.47 -6.80225 -1.25468 0
M  V30 40221 O 5501.27 -5.81621 -1.91066 0
M  V30 40222 C 5499.13 -7.02416 -1.9168 0
M  V30 40223 H 5499.16 -6.6888 -2.96621 0
M  V30 40224 H 5500.35 -6.53617 -0.192223 0
M  V30 40225 H 5501.83 -8.36622 -0.589963 0
M  V30 40226 H 5500.14 -10.0291 -1.79807 0
M  V30 40227 H 5499.95 -10.2138 0.558219 0
M  V30 40228 H 5498.32 -9.6579 0.0444202 0
M  V30 40229 H 5500.96 -5.69556 -2.79637 0
M  V30 40230 P 5502.81 -8.4349 -2.47671 0
M  V30 40231 O 5504.24 -8.92593 -2.65 0
M  V30 40232 O 5502.45 -7.7568 -1.19296 0
M  V30 40233 O 5502.49 -7.36886 -3.63805 0
M  V30 40234 C 5502.33 -7.95349 -4.982 0
M  V30 40235 C 5502.87 -6.94612 -5.98974 0
M  V30 40236 O 5501.81 -6.10347 -6.11815 0
M  V30 40237 C 5504.09 -6.11426 -5.62335 0
M  V30 40238 O 5504.83 -5.6162 -6.70584 0
M  V30 40239 C 5503.42 -5.04409 -4.73308 0
M  V30 40240 O 5504.22 -3.85992 -4.75183 0
M  V30 40241 C 5502.08 -4.8728 -5.41006 0
M  V30 40242 H 5502.11 -4.02333 -6.11157 0
M  V30 40243 H 5503.3 -5.39466 -3.69543 0
M  V30 40244 H 5504.78 -6.71916 -5.01943 0
M  V30 40245 H 5503.09 -7.4649 -6.93477 0
M  V30 40246 H 5502.9 -8.89416 -5.05237 0
M  V30 40247 H 5501.27 -8.14876 -5.18409 0
M  V30 40248 H 5503.91 -3.27957 -5.4317 0
M  V30 40249 P 5505.76 -5.75688 -6.64379 0
M  V30 40250 O 5507.19 -6.07627 -7.05504 0
M  V30 40251 O 5505.4 -5.88047 -5.19722 0
M  V30 40252 O 5505.44 -4.2322 -7.04443 0
M  V30 40253 C 5505.28 -3.99743 -8.4911 0
M  V30 40254 C 5505.82 -2.60516 -8.79425 0
M  V30 40255 O 5504.76 -1.82684 -8.4467 0
M  V30 40256 C 5507.04 -2.10343 -8.03628 0
M  V30 40257 O 5507.78 -1.09919 -8.67766 0
M  V30 40258 C 5506.37 -1.68446 -6.70876 0
M  V30 40259 O 5507.17 -0.678137 -6.08433 0
M  V30 40260 C 5505.03 -1.17436 -7.18567 0
M  V30 40261 H 5505.06 -0.0804732 -7.31656 0
M  V30 40262 H 5506.25 -2.54037 -6.02537 0
M  V30 40263 H 5507.73 -2.93881 -7.85526 0
M  V30 40264 H 5506.04 -2.53065 -9.86973 0
M  V30 40265 H 5505.85 -4.75072 -9.05887 0
M  V30 40266 H 5504.22 -4.05244 -8.76668 0
M  V30 40267 H 5506.86 0.177647 -6.34251 0
M  V30 40268 P 5508.71 -1.25109 -8.70152 0
M  V30 40269 O 5510.14 -1.29744 -9.22016 0
M  V30 40270 O 5508.35 -2.13714 -7.55141 0
M  V30 40271 O 5508.39 0.248149 -8.21425 0
M  V30 40272 C 5508.23 1.22779 -9.30434 0
M  V30 40273 C 5508.77 2.56293 -8.80664 0
M  V30 40274 O 5507.72 3.02979 -8.09349 0
M  V30 40275 C 5509.99 2.57523 -7.89775 0
M  V30 40276 O 5510.73 3.7668 -7.89438 0
M  V30 40277 C 5509.32 2.20997 -6.55446 0
M  V30 40278 O 5510.12 2.71895 -5.48509 0
M  V30 40279 C 5507.98 2.89693 -6.67988 0
M  V30 40280 H 5508.02 3.88793 -6.19859 0
M  V30 40281 H 5509.2 1.12046 -6.44229 0
M  V30 40282 H 5510.68 1.7746 -8.19711 0
M  V30 40283 H 5508.99 3.20706 -9.67112 0
M  V30 40284 H 5508.8 0.901032 -10.1892 0
M  V30 40285 H 5507.17 1.33049 -9.56592 0
M  V30 40286 H 5509.81 3.57847 -5.23962 0
M  V30 40287 P 5511.66 3.65191 -7.99657 0
M  V30 40288 O 5513.09 3.89332 -8.45794 0
M  V30 40289 O 5511.3 2.28472 -7.50807 0
M  V30 40290 O 5511.34 4.64972 -6.77611 0
M  V30 40291 C 5511.18 6.06319 -7.16352 0
M  V30 40292 C 5511.72 6.91731 -6.02299 0
M  V30 40293 O 5510.67 6.92449 -5.17064 0
M  V30 40294 C 5512.94 6.43627 -5.25174 0
M  V30 40295 O 5513.68 7.43686 -4.60469 0
M  V30 40296 C 5512.27 5.40275 -4.31916 0
M  V30 40297 O 5513.07 5.25279 -3.14438 0
M  V30 40298 C 5510.93 6.04847 -4.05327 0
M  V30 40299 H 5510.97 6.62195 -3.11261 0
M  V30 40300 H 5512.15 4.42556 -4.81383 0
M  V30 40301 H 5513.63 5.92458 -5.93643 0
M  V30 40302 H 5511.94 7.92655 -6.402 0
M  V30 40303 H 5511.75 6.26671 -8.0846 0
M  V30 40304 H 5510.12 6.29101 -7.32804 0
M  V30 40305 H 5512.76 5.84315 -2.47318 0
M  V30 40306 P 5514.62 7.39546 -4.75277 0
M  V30 40307 O 5516.04 7.84798 -5.01039 0
M  V30 40308 O 5514.26 5.9812 -5.08098 0
M  V30 40309 O 5514.29 7.57503 -3.1866 0
M  V30 40310 C 5514.13 8.97357 -2.74833 0
M  V30 40311 C 5514.67 9.07548 -1.32709 0
M  V30 40312 O 5513.62 8.62072 -0.606159 0
M  V30 40313 C 5515.89 8.25383 -0.938334 0
M  V30 40314 O 5516.63 8.74577 0.146954 0
M  V30 40315 C 5515.22 6.8802 -0.712559 0
M  V30 40316 O 5516.02 6.1189 0.194655 0
M  V30 40317 C 5513.88 7.27966 -0.139777 0
M  V30 40318 H 5513.92 7.25354 0.961601 0
M  V30 40319 H 5515.1 6.32557 -1.65702 0
M  V30 40320 H 5516.58 8.19355 -1.79097 0
M  V30 40321 H 5514.89 10.1294 -1.10029 0
M  V30 40322 H 5514.7 9.64276 -3.41316 0
M  V30 40323 H 5513.07 9.25417 -2.76357 0
M  V30 40324 H 5515.71 6.25267 1.07847 0
M  V30 40325 P 5517.57 8.791 -3.58034e-10 0
M  V30 40326 O 5518.99 9.31296 0.027939 0
M  V30 40327 O 5517.21 7.77869 -1.04071 0
M  V30 40328 O 5517.24 8.09533 1.41463 0
M  V30 40329 C 5517.08 9.0349 2.53943 0
M  V30 40330 C 5517.62 8.35135 3.78975 0
M  V30 40331 O 5516.57 7.57992 4.15078 0
M  V30 40332 C 5518.84 7.45087 3.67298 0
M  V30 40333 O 5519.58 7.27796 4.85194 0
M  V30 40334 C 5518.17 6.17323 3.12027 0
M  V30 40335 O 5518.97 5.04149 3.47132 0
M  V30 40336 C 5516.83 6.19961 3.81809 0
M  V30 40337 N 5515.79 5.71575 2.93223 0
M  V30 40338 C 5515.85 5.97133 1.62693 0
M  V30 40339 N 5514.81 5.44066 0.984414 0
M  V30 40340 C 5514.07 4.87093 1.93987 0
M  V30 40341 C 5512.77 4.26449 1.8738 0
M  V30 40342 O 5512.04 4.1089 0.884377 0
M  V30 40343 N 5512.34 3.82483 3.08036 0
M  V30 40344 C 5513.09 3.95124 4.27727 0
M  V30 40345 N 5512.49 3.4084 5.39089 0
M  V30 40346 N 5514.24 4.55264 4.3706 0
M  V30 40347 C 5514.7 5.00861 3.18217 0
M  V30 40348 H 5516.87 5.58218 4.73051 0
M  V30 40349 H 5518.05 6.21631 2.02558 0
M  V30 40350 H 5519.53 7.85819 2.93096 0
M  V30 40351 H 5517.84 9.11627 4.55076 0
M  V30 40352 H 5517.65 9.9573 2.34194 0
M  V30 40353 H 5516.02 9.2792 2.67832 0
M  V30 40354 H 5511.44 3.38323 3.1329 0
M  V30 40355 H 5516.65 6.53891 1.14265 0
M  V30 40356 H 5511.58 2.93852 5.30559 0
M  V30 40357 H 5512.96 3.47631 6.30632 0
M  V30 40358 H 5518.66 4.67628 4.28704 0
M  V30 40359 P 5520.52 7.39546 4.75277 0
M  V30 40360 O 5521.94 7.81777 5.05738 0
M  V30 40361 O 5520.16 7.1065 3.32998 0
M  V30 40362 O 5520.19 6.04542 5.56673 0
M  V30 40363 C 5520.03 6.22772 7.02095 0
M  V30 40364 C 5520.57 4.97725 7.70406 0
M  V30 40365 O 5519.52 4.13256 7.58987 0
M  V30 40366 C 5521.79 4.28231 7.11815 0
M  V30 40367 O 5522.53 3.49945 8.01648 0
M  V30 40368 C 5521.12 3.5063 5.96244 0
M  V30 40369 O 5521.92 2.36482 5.64681 0
M  V30 40370 C 5519.79 3.15122 6.56374 0
M  V30 40371 H 5519.82 2.13853 6.99751 0
M  V30 40372 H 5521 4.13501 5.06559 0
M  V30 40373 H 5522.48 5.03285 6.70911 0
M  V30 40374 H 5520.79 5.20877 8.75697 0
M  V30 40375 H 5520.6 7.11046 7.35349 0
M  V30 40376 H 5518.97 6.35815 7.26986 0
M  V30 40377 H 5521.61 1.61644 6.13565 0
M  V30 40378 P 5523.47 3.65191 7.99657 0
M  V30 40379 O 5524.89 3.8425 8.48115 0
M  V30 40380 O 5523.11 4.17805 6.64342 0
M  V30 40381 O 5523.14 2.07613 7.95143 0
M  V30 40382 C 5522.98 1.44328 9.27336 0
M  V30 40383 C 5523.52 0.0220036 9.17197 0
M  V30 40384 O 5522.47 -0.626867 8.61923 0
M  V30 40385 C 5524.74 -0.24586 8.30336 0
M  V30 40386 O 5525.48 -1.39011 8.63583 0
M  V30 40387 C 5524.07 -0.273849 6.91158 0
M  V30 40388 O 5524.87 -1.06348 6.02892 0
M  V30 40389 C 5522.74 -0.897649 7.22545 0
M  V30 40390 H 5522.77 -1.9841 7.04286 0
M  V30 40391 H 5523.95 0.739928 6.497 0
M  V30 40392 H 5525.44 0.60668 8.36503 0
M  V30 40393 H 5523.74 -0.352479 10.1829 0
M  V30 40394 H 5523.55 2.00611 10.0304 0
M  V30 40395 H 5521.92 1.41843 9.55327 0
M  V30 40396 H 5524.56 -1.95734 6.03555 0
M  V30 40397 P 5526.42 -1.25109 8.70152 0
M  V30 40398 O 5527.84 -1.35274 9.21221 0
M  V30 40399 O 5526.06 -0.0769065 7.84762 0
M  V30 40400 O 5526.09 -2.55232 7.81161 0
M  V30 40401 C 5525.93 -3.79939 8.58154 0
M  V30 40402 C 5526.47 -4.94023 7.72785 0
M  V30 40403 O 5525.42 -5.18726 6.91205 0
M  V30 40404 C 5527.69 -4.69597 6.85231 0
M  V30 40405 O 5528.43 -5.83832 6.51337 0
M  V30 40406 C 5527.02 -3.96706 5.66633 0
M  V30 40407 O 5527.82 -4.15414 4.49689 0
M  V30 40408 C 5525.69 -4.66153 5.59313 0
M  V30 40409 H 5525.72 -5.47679 4.85214 0
M  V30 40410 H 5526.9 -2.89008 5.86566 0
M  V30 40411 H 5528.39 -4.0121 7.36511 0
M  V30 40412 H 5526.69 -5.80182 8.37584 0
M  V30 40413 H 5526.5 -3.73517 9.52265 0
M  V30 40414 H 5524.87 -3.97163 8.80359 0
M  V30 40415 H 5527.51 -4.90969 4.01921 0
M  V30 40416 P 5529.37 -5.75688 6.64379 0
M  V30 40417 O 5530.79 -6.11849 7.01846 0
M  V30 40418 O 5529.01 -4.30744 6.56026 0
M  V30 40419 O 5529.05 -6.37042 5.19165 0
M  V30 40420 C 5528.89 -7.83578 5.16515 0
M  V30 40421 C 5529.43 -8.33398 3.83019 0
M  V30 40422 O 5528.37 -8.10074 3.01034 0
M  V30 40423 C 5530.64 -7.65514 3.2257 0
M  V30 40424 O 5531.38 -8.4329 2.32297 0
M  V30 40425 C 5529.97 -6.40075 2.62207 0
M  V30 40426 O 5530.77 -5.92589 1.53712 0
M  V30 40427 C 5528.64 -6.9454 2.18503 0
M  V30 40428 H 5528.67 -7.23063 1.12091 0
M  V30 40429 H 5529.85 -5.6025 3.37201 0
M  V30 40430 H 5531.34 -7.35707 4.02681 0
M  V30 40431 H 5529.64 -9.40912 3.9095 0
M  V30 40432 H 5529.45 -8.29056 5.99158 0
M  V30 40433 H 5527.82 -8.10073 5.25882 0
M  V30 40434 H 5530.46 -6.30324 0.726794 0
M  V30 40435 P 5532.32 -8.4349 2.47671 0
M  V30 40436 O 5533.74 -8.94263 2.59668 0
M  V30 40437 O 5531.96 -7.1704 3.19006 0
M  V30 40438 O 5532 -8.16596 0.923387 0
M  V30 40439 C 5531.83 -9.38537 0.108869 0
M  V30 40440 C 5532.38 -9.08175 -1.28353 0
M  V30 40441 O 5531.32 -8.44131 -1.84692 0
M  V30 40442 C 5533.59 -8.18386 -1.42505 0
M  V30 40443 O 5534.33 -8.3501 -2.60497 0
M  V30 40444 C 5532.93 -6.80225 -1.25468 0
M  V30 40445 O 5533.72 -5.81716 -1.90454 0
M  V30 40446 C 5531.59 -7.02416 -1.9168 0
M  V30 40447 N 5530.54 -6.31033 -1.20314 0
M  V30 40448 C 5530.71 -5.98817 0.0994088 0
M  V30 40449 N 5529.69 -5.35403 0.621694 0
M  V30 40450 C 5528.8 -5.25212 -0.43376 0
M  V30 40451 C 5527.53 -4.64602 -0.519722 0
M  V30 40452 N 5526.97 -4.7568 -1.76013 0
M  V30 40453 C 5527.57 -5.3653 -2.83017 0
M  V30 40454 N 5528.75 -5.93676 -2.79782 0
M  V30 40455 C 5529.32 -5.84061 -1.56249 0
M  V30 40456 H 5532.8 -6.53498 -0.198729 0
M  V30 40457 H 5534.29 -8.36622 -0.589963 0
M  V30 40458 H 5532.59 -10.0273 -1.8081 0
M  V30 40459 H 5532.4 -10.2138 0.558219 0
M  V30 40460 H 5530.77 -9.6579 0.0444202 0
M  V30 40461 H 5531.61 -6.23209 0.660562 0
M  V30 40462 H 5533.41 -5.69466 -2.79593 0
M  V30 40463 P 5535.27 -8.4349 -2.47671 0
M  V30 40464 O 5536.69 -8.92593 -2.65 0
M  V30 40465 O 5534.91 -7.7568 -1.19296 0
M  V30 40466 O 5534.95 -7.36886 -3.63805 0
M  V30 40467 C 5534.79 -7.95349 -4.982 0
M  V30 40468 C 5535.33 -6.94612 -5.98974 0
M  V30 40469 O 5534.27 -6.10347 -6.11815 0
M  V30 40470 C 5536.54 -6.11426 -5.62335 0
M  V30 40471 O 5537.28 -5.6162 -6.70584 0
M  V30 40472 C 5535.88 -5.04409 -4.73308 0
M  V30 40473 O 5536.67 -3.85992 -4.75183 0
M  V30 40474 C 5534.54 -4.8728 -5.41006 0
M  V30 40475 H 5534.57 -4.02333 -6.11157 0
M  V30 40476 H 5535.75 -5.39466 -3.69543 0
M  V30 40477 H 5537.24 -6.71916 -5.01943 0
M  V30 40478 H 5535.54 -7.4649 -6.93477 0
M  V30 40479 H 5535.35 -8.89416 -5.05237 0
M  V30 40480 H 5533.72 -8.14876 -5.18409 0
M  V30 40481 H 5536.36 -3.27957 -5.4317 0
M  V30 40482 P 5538.22 -5.75688 -6.64379 0
M  V30 40483 O 5539.64 -6.07627 -7.05504 0
M  V30 40484 O 5537.86 -5.88047 -5.19722 0
M  V30 40485 O 5537.9 -4.2322 -7.04443 0
M  V30 40486 C 5537.74 -3.99743 -8.4911 0
M  V30 40487 C 5538.28 -2.60516 -8.79425 0
M  V30 40488 O 5537.22 -1.82684 -8.4467 0
M  V30 40489 C 5539.49 -2.10343 -8.03628 0
M  V30 40490 O 5540.23 -1.09919 -8.67766 0
M  V30 40491 C 5538.83 -1.68446 -6.70876 0
M  V30 40492 O 5539.62 -0.678137 -6.08433 0
M  V30 40493 C 5537.49 -1.17436 -7.18567 0
M  V30 40494 H 5537.52 -0.0804732 -7.31656 0
M  V30 40495 H 5538.7 -2.54037 -6.02537 0
M  V30 40496 H 5540.19 -2.93881 -7.85526 0
M  V30 40497 H 5538.49 -2.53065 -9.86973 0
M  V30 40498 H 5538.3 -4.75072 -9.05887 0
M  V30 40499 H 5536.67 -4.05244 -8.76668 0
M  V30 40500 H 5539.31 0.177647 -6.34251 0
M  V30 40501 P 5541.17 -1.25109 -8.70152 0
M  V30 40502 O 5542.59 -1.29744 -9.22016 0
M  V30 40503 O 5540.81 -2.13714 -7.55141 0
M  V30 40504 O 5540.85 0.248149 -8.21425 0
M  V30 40505 C 5540.69 1.22779 -9.30434 0
M  V30 40506 C 5541.23 2.56293 -8.80664 0
M  V30 40507 O 5540.17 3.02979 -8.09349 0
M  V30 40508 C 5542.45 2.57523 -7.89775 0
M  V30 40509 O 5543.18 3.7668 -7.89438 0
M  V30 40510 C 5541.78 2.20997 -6.55446 0
M  V30 40511 O 5542.58 2.71895 -5.48509 0
M  V30 40512 C 5540.44 2.89693 -6.67988 0
M  V30 40513 H 5540.47 3.88793 -6.19859 0
M  V30 40514 H 5541.65 1.12046 -6.44229 0
M  V30 40515 H 5543.14 1.7746 -8.19711 0
M  V30 40516 H 5541.44 3.20706 -9.67112 0
M  V30 40517 H 5541.25 0.901032 -10.1892 0
M  V30 40518 H 5539.62 1.33049 -9.56592 0
M  V30 40519 H 5542.26 3.57847 -5.23962 0
M  V30 40520 P 5544.12 3.65191 -7.99657 0
M  V30 40521 O 5545.54 3.89332 -8.45794 0
M  V30 40522 O 5543.76 2.28472 -7.50807 0
M  V30 40523 O 5543.8 4.64972 -6.77611 0
M  V30 40524 C 5543.64 6.06319 -7.16352 0
M  V30 40525 C 5544.18 6.91731 -6.02299 0
M  V30 40526 O 5543.12 6.92449 -5.17064 0
M  V30 40527 C 5545.4 6.43627 -5.25174 0
M  V30 40528 O 5546.13 7.43686 -4.60469 0
M  V30 40529 C 5544.73 5.40275 -4.31916 0
M  V30 40530 O 5545.53 5.25279 -3.14438 0
M  V30 40531 C 5543.39 6.04847 -4.05327 0
M  V30 40532 H 5543.42 6.62195 -3.11261 0
M  V30 40533 H 5544.61 4.42556 -4.81383 0
M  V30 40534 H 5546.09 5.92458 -5.93643 0
M  V30 40535 H 5544.4 7.92655 -6.402 0
M  V30 40536 H 5544.21 6.26671 -8.0846 0
M  V30 40537 H 5542.58 6.29101 -7.32804 0
M  V30 40538 H 5545.21 5.84315 -2.47318 0
M  V30 40539 P 5547.07 7.39546 -4.75277 0
M  V30 40540 O 5548.49 7.84798 -5.01039 0
M  V30 40541 O 5546.71 5.9812 -5.08098 0
M  V30 40542 O 5546.75 7.57503 -3.1866 0
M  V30 40543 C 5546.59 8.97357 -2.74833 0
M  V30 40544 C 5547.13 9.07548 -1.32709 0
M  V30 40545 O 5546.07 8.62072 -0.606159 0
M  V30 40546 C 5548.35 8.25383 -0.938334 0
M  V30 40547 O 5549.08 8.74577 0.146954 0
M  V30 40548 C 5547.68 6.8802 -0.712559 0
M  V30 40549 O 5548.48 6.1189 0.194655 0
M  V30 40550 C 5546.34 7.27966 -0.139777 0
M  V30 40551 H 5546.37 7.25354 0.961601 0
M  V30 40552 H 5547.56 6.32557 -1.65702 0
M  V30 40553 H 5549.04 8.19355 -1.79097 0
M  V30 40554 H 5547.35 10.1294 -1.10029 0
M  V30 40555 H 5547.16 9.64276 -3.41316 0
M  V30 40556 H 5545.53 9.25417 -2.76357 0
M  V30 40557 H 5548.16 6.25267 1.07847 0
M  V30 40558 P 5550.02 8.791 -3.52227e-10 0
M  V30 40559 O 5551.44 9.31096 0.027933 0
M  V30 40560 O 5549.66 7.77869 -1.04071 0
M  V30 40561 O 5549.7 8.09533 1.41463 0
M  V30 40562 C 5549.54 9.0349 2.53943 0
M  V30 40563 C 5550.08 8.35226 3.79016 0
M  V30 40564 O 5549.02 7.57992 4.15078 0
M  V30 40565 C 5551.3 7.45087 3.67298 0
M  V30 40566 O 5552.04 7.27796 4.85194 0
M  V30 40567 C 5550.63 6.17323 3.12027 0
M  V30 40568 O 5551.43 5.04231 3.47188 0
M  V30 40569 C 5549.29 6.19961 3.81809 0
M  V30 40570 H 5549.32 5.58218 4.73051 0
M  V30 40571 H 5550.51 6.21726 2.02589 0
M  V30 40572 H 5551.99 7.86112 2.9231 0
M  V30 40573 H 5550.3 9.11627 4.55076 0
M  V30 40574 H 5550.11 9.9573 2.34194 0
M  V30 40575 H 5548.48 9.2792 2.67832 0
M  V30 40576 H 5551.12 4.67702 4.28772 0
M  V30 40577 P 5552.97 7.39546 4.75277 0
M  V30 40578 O 5554.39 7.81777 5.05738 0
M  V30 40579 O 5552.61 7.1065 3.32998 0
M  V30 40580 O 5552.65 6.04542 5.56673 0
M  V30 40581 C 5552.49 6.22772 7.02095 0
M  V30 40582 C 5553.03 4.97725 7.70406 0
M  V30 40583 O 5551.97 4.13256 7.58987 0
M  V30 40584 C 5554.25 4.28231 7.11815 0
M  V30 40585 O 5554.99 3.49945 8.01648 0
M  V30 40586 C 5553.58 3.5063 5.96244 0
M  V30 40587 O 5554.38 2.36482 5.64681 0
M  V30 40588 C 5552.24 3.15122 6.56374 0
M  V30 40589 H 5552.27 2.13853 6.99751 0
M  V30 40590 H 5553.46 4.13501 5.06559 0
M  V30 40591 H 5554.94 5.03285 6.70911 0
M  V30 40592 H 5553.25 5.20877 8.75697 0
M  V30 40593 H 5553.06 7.11046 7.35349 0
M  V30 40594 H 5551.43 6.35815 7.26986 0
M  V30 40595 H 5554.07 1.61644 6.13565 0
M  V30 40596 P 5555.92 3.65191 7.99657 0
M  V30 40597 O 5557.35 3.8425 8.48115 0
M  V30 40598 O 5555.56 4.17805 6.64342 0
M  V30 40599 O 5555.6 2.07613 7.95143 0
M  V30 40600 C 5555.44 1.44328 9.27336 0
M  V30 40601 C 5555.98 0.0220036 9.17197 0
M  V30 40602 O 5554.92 -0.626867 8.61923 0
M  V30 40603 C 5557.2 -0.24586 8.30336 0
M  V30 40604 O 5557.94 -1.39011 8.63583 0
M  V30 40605 C 5556.53 -0.273849 6.91158 0
M  V30 40606 O 5557.33 -1.06348 6.02892 0
M  V30 40607 C 5555.19 -0.897649 7.22545 0
M  V30 40608 H 5555.22 -1.9841 7.04286 0
M  V30 40609 H 5556.41 0.739928 6.497 0
M  V30 40610 H 5557.89 0.60668 8.36503 0
M  V30 40611 H 5556.2 -0.352479 10.1829 0
M  V30 40612 H 5556.01 2.00611 10.0304 0
M  V30 40613 H 5554.38 1.41843 9.55327 0
M  V30 40614 H 5557.02 -1.95734 6.03555 0
M  V30 40615 P 5558.87 -1.25109 8.70152 0
M  V30 40616 O 5560.3 -1.35274 9.21221 0
M  V30 40617 O 5558.51 -0.0769065 7.84762 0
M  V30 40618 O 5558.55 -2.55232 7.81161 0
M  V30 40619 C 5558.39 -3.79939 8.58154 0
M  V30 40620 C 5558.93 -4.94023 7.72785 0
M  V30 40621 O 5557.87 -5.18726 6.91205 0
M  V30 40622 C 5560.15 -4.69597 6.85231 0
M  V30 40623 O 5560.89 -5.83832 6.51337 0
M  V30 40624 C 5559.48 -3.96706 5.66633 0
M  V30 40625 O 5560.28 -4.15414 4.49689 0
M  V30 40626 C 5558.14 -4.66153 5.59313 0
M  V30 40627 H 5558.17 -5.47679 4.85214 0
M  V30 40628 H 5559.36 -2.89008 5.86566 0
M  V30 40629 H 5560.84 -4.0121 7.36511 0
M  V30 40630 H 5559.15 -5.80182 8.37584 0
M  V30 40631 H 5558.96 -3.73517 9.52265 0
M  V30 40632 H 5557.33 -3.97163 8.80359 0
M  V30 40633 H 5559.97 -4.90969 4.01921 0
M  V30 40634 P 5561.82 -5.75688 6.64379 0
M  V30 40635 O 5563.25 -6.11849 7.01846 0
M  V30 40636 O 5561.46 -4.30744 6.56026 0
M  V30 40637 O 5561.5 -6.37042 5.19165 0
M  V30 40638 C 5561.34 -7.83578 5.16515 0
M  V30 40639 C 5561.88 -8.33398 3.83019 0
M  V30 40640 O 5560.83 -8.10074 3.01034 0
M  V30 40641 C 5563.1 -7.65514 3.2257 0
M  V30 40642 O 5563.84 -8.4329 2.32297 0
M  V30 40643 C 5562.43 -6.40075 2.62207 0
M  V30 40644 O 5563.23 -5.92589 1.53712 0
M  V30 40645 C 5561.09 -6.9454 2.18503 0
M  V30 40646 H 5561.13 -7.23063 1.12091 0
M  V30 40647 H 5562.31 -5.6025 3.37201 0
M  V30 40648 H 5563.79 -7.35707 4.02681 0
M  V30 40649 H 5562.1 -9.40912 3.9095 0
M  V30 40650 H 5561.91 -8.29056 5.99158 0
M  V30 40651 H 5560.28 -8.10073 5.25882 0
M  V30 40652 H 5562.92 -6.30324 0.726794 0
M  V30 40653 P 5564.78 -8.4349 2.47671 0
M  V30 40654 O 5566.2 -8.94167 2.5964 0
M  V30 40655 O 5564.42 -7.1704 3.19006 0
M  V30 40656 O 5564.45 -8.16596 0.923387 0
M  V30 40657 C 5564.29 -9.38437 0.108857 0
M  V30 40658 C 5564.83 -9.08175 -1.28353 0
M  V30 40659 O 5563.78 -8.44229 -1.84713 0
M  V30 40660 C 5566.05 -8.18386 -1.42505 0
M  V30 40661 O 5566.79 -8.3501 -2.60497 0
M  V30 40662 C 5565.38 -6.80225 -1.25468 0
M  V30 40663 O 5566.18 -5.81621 -1.91066 0
M  V30 40664 C 5564.04 -7.02416 -1.9168 0
M  V30 40665 H 5564.08 -6.6888 -2.96621 0
M  V30 40666 H 5565.26 -6.53617 -0.192223 0
M  V30 40667 H 5566.74 -8.36622 -0.589963 0
M  V30 40668 H 5565.05 -10.0291 -1.79807 0
M  V30 40669 H 5564.86 -10.2138 0.558219 0
M  V30 40670 H 5563.23 -9.6579 0.0444202 0
M  V30 40671 H 5565.87 -5.69556 -2.79637 0
M  V30 40672 P 5567.73 -8.4349 -2.47671 0
M  V30 40673 O 5569.15 -8.92593 -2.65 0
M  V30 40674 O 5567.37 -7.7568 -1.19296 0
M  V30 40675 O 5567.4 -7.36886 -3.63805 0
M  V30 40676 C 5567.24 -7.95349 -4.982 0
M  V30 40677 C 5567.78 -6.94612 -5.98974 0
M  V30 40678 O 5566.73 -6.10347 -6.11815 0
M  V30 40679 C 5569 -6.11426 -5.62335 0
M  V30 40680 O 5569.74 -5.6162 -6.70584 0
M  V30 40681 C 5568.33 -5.04409 -4.73308 0
M  V30 40682 O 5569.13 -3.85992 -4.75183 0
M  V30 40683 C 5566.99 -4.8728 -5.41006 0
M  V30 40684 H 5567.03 -4.02333 -6.11157 0
M  V30 40685 H 5568.21 -5.39466 -3.69543 0
M  V30 40686 H 5569.69 -6.71916 -5.01943 0
M  V30 40687 H 5568 -7.4649 -6.93477 0
M  V30 40688 H 5567.81 -8.89416 -5.05237 0
M  V30 40689 H 5566.18 -8.14876 -5.18409 0
M  V30 40690 H 5568.82 -3.27957 -5.4317 0
M  V30 40691 P 5570.68 -5.75688 -6.64379 0
M  V30 40692 O 5572.1 -6.07627 -7.05504 0
M  V30 40693 O 5570.32 -5.88047 -5.19722 0
M  V30 40694 O 5570.35 -4.2322 -7.04443 0
M  V30 40695 C 5570.19 -3.99743 -8.4911 0
M  V30 40696 C 5570.73 -2.60516 -8.79425 0
M  V30 40697 O 5569.68 -1.82684 -8.4467 0
M  V30 40698 C 5571.95 -2.10343 -8.03628 0
M  V30 40699 O 5572.69 -1.09919 -8.67766 0
M  V30 40700 C 5571.28 -1.68446 -6.70876 0
M  V30 40701 O 5572.08 -0.678137 -6.08433 0
M  V30 40702 C 5569.95 -1.17436 -7.18567 0
M  V30 40703 H 5569.98 -0.0804732 -7.31656 0
M  V30 40704 H 5571.16 -2.54037 -6.02537 0
M  V30 40705 H 5572.64 -2.93881 -7.85526 0
M  V30 40706 H 5570.95 -2.53065 -9.86973 0
M  V30 40707 H 5570.76 -4.75072 -9.05887 0
M  V30 40708 H 5569.13 -4.05244 -8.76668 0
M  V30 40709 H 5571.77 0.177647 -6.34251 0
M  V30 40710 P 5573.63 -1.25109 -8.70152 0
M  V30 40711 O 5575.05 -1.29744 -9.22016 0
M  V30 40712 O 5573.27 -2.13714 -7.55141 0
M  V30 40713 O 5573.3 0.248149 -8.21425 0
M  V30 40714 C 5573.14 1.22779 -9.30434 0
M  V30 40715 C 5573.68 2.56293 -8.80664 0
M  V30 40716 O 5572.63 3.02979 -8.09349 0
M  V30 40717 C 5574.9 2.57523 -7.89775 0
M  V30 40718 O 5575.64 3.7668 -7.89438 0
M  V30 40719 C 5574.23 2.20997 -6.55446 0
M  V30 40720 O 5575.03 2.71895 -5.48509 0
M  V30 40721 C 5572.9 2.89693 -6.67988 0
M  V30 40722 H 5572.93 3.88793 -6.19859 0
M  V30 40723 H 5574.11 1.12046 -6.44229 0
M  V30 40724 H 5575.59 1.7746 -8.19711 0
M  V30 40725 H 5573.9 3.20706 -9.67112 0
M  V30 40726 H 5573.71 0.901032 -10.1892 0
M  V30 40727 H 5572.08 1.33049 -9.56592 0
M  V30 40728 H 5574.72 3.57847 -5.23962 0
M  V30 40729 P 5576.58 3.65191 -7.99657 0
M  V30 40730 O 5578 3.89332 -8.45794 0
M  V30 40731 O 5576.22 2.28472 -7.50807 0
M  V30 40732 O 5576.25 4.64972 -6.77611 0
M  V30 40733 C 5576.09 6.06319 -7.16352 0
M  V30 40734 C 5576.63 6.91731 -6.02299 0
M  V30 40735 O 5575.58 6.92449 -5.17064 0
M  V30 40736 C 5577.85 6.43627 -5.25174 0
M  V30 40737 O 5578.59 7.43686 -4.60469 0
M  V30 40738 C 5577.18 5.40275 -4.31916 0
M  V30 40739 O 5577.98 5.25279 -3.14438 0
M  V30 40740 C 5575.85 6.04847 -4.05327 0
M  V30 40741 H 5575.88 6.62195 -3.11261 0
M  V30 40742 H 5577.06 4.42556 -4.81383 0
M  V30 40743 H 5578.55 5.92458 -5.93643 0
M  V30 40744 H 5576.85 7.92655 -6.402 0
M  V30 40745 H 5576.66 6.26671 -8.0846 0
M  V30 40746 H 5575.03 6.29101 -7.32804 0
M  V30 40747 H 5577.67 5.84315 -2.47318 0
M  V30 40748 P 5579.53 7.39546 -4.75277 0
M  V30 40749 O 5580.95 7.84798 -5.01039 0
M  V30 40750 O 5579.17 5.9812 -5.08098 0
M  V30 40751 O 5579.2 7.57503 -3.1866 0
M  V30 40752 C 5579.04 8.97357 -2.74833 0
M  V30 40753 C 5579.58 9.07548 -1.32709 0
M  V30 40754 O 5578.53 8.62072 -0.606159 0
M  V30 40755 C 5580.8 8.25383 -0.938334 0
M  V30 40756 O 5581.54 8.74577 0.146954 0
M  V30 40757 C 5580.13 6.8802 -0.712559 0
M  V30 40758 O 5580.93 6.1189 0.194655 0
M  V30 40759 C 5578.8 7.27966 -0.139777 0
M  V30 40760 H 5578.83 7.25354 0.961601 0
M  V30 40761 H 5580.01 6.32557 -1.65702 0
M  V30 40762 H 5581.5 8.19355 -1.79097 0
M  V30 40763 H 5579.8 10.1294 -1.10029 0
M  V30 40764 H 5579.61 9.64276 -3.41316 0
M  V30 40765 H 5577.98 9.25417 -2.76357 0
M  V30 40766 H 5580.62 6.25267 1.07847 0
M  V30 40767 P 5582.48 8.791 -3.4642e-10 0
M  V30 40768 O 5583.9 9.31096 0.027933 0
M  V30 40769 O 5582.12 7.77869 -1.04071 0
M  V30 40770 O 5582.16 8.09533 1.41463 0
M  V30 40771 C 5582 9.0349 2.53943 0
M  V30 40772 C 5582.54 8.35226 3.79016 0
M  V30 40773 O 5581.48 7.57992 4.15078 0
M  V30 40774 C 5583.75 7.45087 3.67298 0
M  V30 40775 O 5584.49 7.27796 4.85194 0
M  V30 40776 C 5583.08 6.17323 3.12027 0
M  V30 40777 O 5583.88 5.04231 3.47188 0
M  V30 40778 C 5581.75 6.19961 3.81809 0
M  V30 40779 H 5581.78 5.58218 4.73051 0
M  V30 40780 H 5582.96 6.21726 2.02589 0
M  V30 40781 H 5584.45 7.86112 2.9231 0
M  V30 40782 H 5582.75 9.11627 4.55076 0
M  V30 40783 H 5582.56 9.9573 2.34194 0
M  V30 40784 H 5580.93 9.2792 2.67832 0
M  V30 40785 H 5583.57 4.67702 4.28772 0
M  V30 40786 P 5585.43 7.39546 4.75277 0
M  V30 40787 O 5586.85 7.81777 5.05738 0
M  V30 40788 O 5585.07 7.1065 3.32998 0
M  V30 40789 O 5585.11 6.04542 5.56673 0
M  V30 40790 C 5584.95 6.22772 7.02095 0
M  V30 40791 C 5585.49 4.97725 7.70406 0
M  V30 40792 O 5584.43 4.13256 7.58987 0
M  V30 40793 C 5586.7 4.28231 7.11815 0
M  V30 40794 O 5587.44 3.49945 8.01648 0
M  V30 40795 C 5586.04 3.5063 5.96244 0
M  V30 40796 O 5586.83 2.36482 5.64681 0
M  V30 40797 C 5584.7 3.15122 6.56374 0
M  V30 40798 H 5584.73 2.13853 6.99751 0
M  V30 40799 H 5585.91 4.13501 5.06559 0
M  V30 40800 H 5587.4 5.03285 6.70911 0
M  V30 40801 H 5585.7 5.20877 8.75697 0
M  V30 40802 H 5585.51 7.11046 7.35349 0
M  V30 40803 H 5583.88 6.35815 7.26986 0
M  V30 40804 H 5586.52 1.61644 6.13565 0
M  V30 40805 P 5588.38 3.65191 7.99657 0
M  V30 40806 O 5589.8 3.8425 8.48115 0
M  V30 40807 O 5588.02 4.17805 6.64342 0
M  V30 40808 O 5588.06 2.07613 7.95143 0
M  V30 40809 C 5587.9 1.44328 9.27336 0
M  V30 40810 C 5588.44 0.0220036 9.17197 0
M  V30 40811 O 5587.38 -0.626867 8.61923 0
M  V30 40812 C 5589.65 -0.24586 8.30336 0
M  V30 40813 O 5590.39 -1.39011 8.63583 0
M  V30 40814 C 5588.99 -0.273849 6.91158 0
M  V30 40815 O 5589.78 -1.06348 6.02892 0
M  V30 40816 C 5587.65 -0.897649 7.22545 0
M  V30 40817 H 5587.68 -1.9841 7.04286 0
M  V30 40818 H 5588.86 0.739928 6.497 0
M  V30 40819 H 5590.35 0.60668 8.36503 0
M  V30 40820 H 5588.65 -0.352479 10.1829 0
M  V30 40821 H 5588.46 2.00611 10.0304 0
M  V30 40822 H 5586.83 1.41843 9.55327 0
M  V30 40823 H 5589.47 -1.95734 6.03555 0
M  V30 40824 P 5591.33 -1.25109 8.70152 0
M  V30 40825 O 5592.75 -1.35274 9.21221 0
M  V30 40826 O 5590.97 -0.0769065 7.84762 0
M  V30 40827 O 5591.01 -2.55232 7.81161 0
M  V30 40828 C 5590.85 -3.79939 8.58154 0
M  V30 40829 C 5591.39 -4.94023 7.72785 0
M  V30 40830 O 5590.33 -5.18726 6.91205 0
M  V30 40831 C 5592.61 -4.69597 6.85231 0
M  V30 40832 O 5593.34 -5.83832 6.51337 0
M  V30 40833 C 5591.94 -3.96706 5.66633 0
M  V30 40834 O 5592.74 -4.15414 4.49689 0
M  V30 40835 C 5590.6 -4.66153 5.59313 0
M  V30 40836 H 5590.63 -5.47679 4.85214 0
M  V30 40837 H 5591.81 -2.89008 5.86566 0
M  V30 40838 H 5593.3 -4.0121 7.36511 0
M  V30 40839 H 5591.6 -5.80182 8.37584 0
M  V30 40840 H 5591.41 -3.73517 9.52265 0
M  V30 40841 H 5589.78 -3.97163 8.80359 0
M  V30 40842 H 5592.42 -4.90969 4.01921 0
M  V30 40843 P 5594.28 -5.75688 6.64379 0
M  V30 40844 O 5595.7 -6.11849 7.01846 0
M  V30 40845 O 5593.92 -4.30744 6.56026 0
M  V30 40846 O 5593.96 -6.37042 5.19165 0
M  V30 40847 C 5593.8 -7.83578 5.16515 0
M  V30 40848 C 5594.34 -8.33398 3.83019 0
M  V30 40849 O 5593.28 -8.10074 3.01034 0
M  V30 40850 C 5595.56 -7.65514 3.2257 0
M  V30 40851 O 5596.29 -8.4329 2.32297 0
M  V30 40852 C 5594.89 -6.40075 2.62207 0
M  V30 40853 O 5595.69 -5.92589 1.53712 0
M  V30 40854 C 5593.55 -6.9454 2.18503 0
M  V30 40855 H 5593.58 -7.23063 1.12091 0
M  V30 40856 H 5594.76 -5.6025 3.37201 0
M  V30 40857 H 5596.25 -7.35707 4.02681 0
M  V30 40858 H 5594.55 -9.40912 3.9095 0
M  V30 40859 H 5594.36 -8.29056 5.99158 0
M  V30 40860 H 5592.73 -8.10073 5.25882 0
M  V30 40861 H 5595.37 -6.30324 0.726794 0
M  V30 40862 P 5597.23 -8.4349 2.47671 0
M  V30 40863 O 5598.65 -8.94263 2.59668 0
M  V30 40864 O 5596.87 -7.1704 3.19006 0
M  V30 40865 O 5596.91 -8.16596 0.923387 0
M  V30 40866 C 5596.75 -9.38537 0.108869 0
M  V30 40867 C 5597.29 -9.08175 -1.28353 0
M  V30 40868 O 5596.23 -8.44131 -1.84692 0
M  V30 40869 C 5598.51 -8.18386 -1.42505 0
M  V30 40870 O 5599.24 -8.3501 -2.60497 0
M  V30 40871 C 5597.84 -6.80225 -1.25468 0
M  V30 40872 O 5598.64 -5.81716 -1.90454 0
M  V30 40873 C 5596.5 -7.02416 -1.9168 0
M  V30 40874 N 5595.46 -6.31033 -1.20314 0
M  V30 40875 C 5595.63 -5.98817 0.0994088 0
M  V30 40876 N 5594.6 -5.35403 0.621694 0
M  V30 40877 C 5593.71 -5.25212 -0.43376 0
M  V30 40878 C 5592.45 -4.64602 -0.519722 0
M  V30 40879 N 5591.85 -4.01457 0.519136 0
M  V30 40880 N 5591.88 -4.7568 -1.76013 0
M  V30 40881 C 5592.48 -5.3653 -2.83017 0
M  V30 40882 N 5593.66 -5.93676 -2.79782 0
M  V30 40883 C 5594.24 -5.84061 -1.56249 0
M  V30 40884 H 5596.53 -6.68789 -2.9658 0
M  V30 40885 H 5597.72 -6.53498 -0.198729 0
M  V30 40886 H 5599.2 -8.36622 -0.589963 0
M  V30 40887 H 5597.5 -10.0273 -1.8081 0
M  V30 40888 H 5597.31 -10.2138 0.558219 0
M  V30 40889 H 5595.68 -9.6579 0.0444202 0
M  V30 40890 H 5591.95 -5.37113 -3.77321 0
M  V30 40891 H 5596.53 -6.23209 0.660562 0
M  V30 40892 H 5590.92 -3.58834 0.394862 0
M  V30 40893 H 5592.32 -3.96059 1.43048 0
M  V30 40894 H 5598.32 -5.69466 -2.79593 0
M  V30 40895 P 5600.18 -8.4349 -2.47671 0
M  V30 40896 O 5601.6 -8.92593 -2.65 0
M  V30 40897 O 5599.82 -7.7568 -1.19296 0
M  V30 40898 O 5599.86 -7.36886 -3.63805 0
M  V30 40899 C 5599.7 -7.95349 -4.982 0
M  V30 40900 C 5600.24 -6.94612 -5.98974 0
M  V30 40901 O 5599.18 -6.10347 -6.11815 0
M  V30 40902 C 5601.46 -6.11426 -5.62335 0
M  V30 40903 O 5602.19 -5.6162 -6.70584 0
M  V30 40904 C 5600.79 -5.04409 -4.73308 0
M  V30 40905 O 5601.59 -3.85992 -4.75183 0
M  V30 40906 C 5599.45 -4.8728 -5.41006 0
M  V30 40907 H 5599.48 -4.02333 -6.11157 0
M  V30 40908 H 5600.67 -5.39466 -3.69543 0
M  V30 40909 H 5602.15 -6.71916 -5.01943 0
M  V30 40910 H 5600.46 -7.4649 -6.93477 0
M  V30 40911 H 5600.27 -8.89416 -5.05237 0
M  V30 40912 H 5598.64 -8.14876 -5.18409 0
M  V30 40913 H 5601.27 -3.27957 -5.4317 0
M  V30 40914 P 5603.13 -5.75688 -6.64379 0
M  V30 40915 O 5604.55 -6.07627 -7.05504 0
M  V30 40916 O 5602.77 -5.88047 -5.19722 0
M  V30 40917 O 5602.81 -4.2322 -7.04443 0
M  V30 40918 C 5602.65 -3.99743 -8.4911 0
M  V30 40919 C 5603.19 -2.60516 -8.79425 0
M  V30 40920 O 5602.13 -1.82684 -8.4467 0
M  V30 40921 C 5604.41 -2.10343 -8.03628 0
M  V30 40922 O 5605.15 -1.09919 -8.67766 0
M  V30 40923 C 5603.74 -1.68446 -6.70876 0
M  V30 40924 O 5604.54 -0.678137 -6.08433 0
M  V30 40925 C 5602.4 -1.17436 -7.18567 0
M  V30 40926 H 5602.43 -0.0804732 -7.31656 0
M  V30 40927 H 5603.62 -2.54037 -6.02537 0
M  V30 40928 H 5605.1 -2.93881 -7.85526 0
M  V30 40929 H 5603.41 -2.53065 -9.86973 0
M  V30 40930 H 5603.22 -4.75072 -9.05887 0
M  V30 40931 H 5601.59 -4.05244 -8.76668 0
M  V30 40932 H 5604.23 0.177647 -6.34251 0
M  V30 40933 P 5606.08 -1.25109 -8.70152 0
M  V30 40934 O 5607.5 -1.29744 -9.22016 0
M  V30 40935 O 5605.72 -2.13714 -7.55141 0
M  V30 40936 O 5605.76 0.248149 -8.21425 0
M  V30 40937 C 5605.6 1.22779 -9.30434 0
M  V30 40938 C 5606.14 2.56293 -8.80664 0
M  V30 40939 O 5605.08 3.02979 -8.09349 0
M  V30 40940 C 5607.36 2.57523 -7.89775 0
M  V30 40941 O 5608.1 3.7668 -7.89438 0
M  V30 40942 C 5606.69 2.20997 -6.55446 0
M  V30 40943 O 5607.49 2.71895 -5.48509 0
M  V30 40944 C 5605.35 2.89693 -6.67988 0
M  V30 40945 H 5605.38 3.88793 -6.19859 0
M  V30 40946 H 5606.57 1.12046 -6.44229 0
M  V30 40947 H 5608.05 1.7746 -8.19711 0
M  V30 40948 H 5606.36 3.20706 -9.67112 0
M  V30 40949 H 5606.17 0.901032 -10.1892 0
M  V30 40950 H 5604.54 1.33049 -9.56592 0
M  V30 40951 H 5607.18 3.57847 -5.23962 0
M  V30 40952 P 5609.03 3.65191 -7.99657 0
M  V30 40953 O 5610.46 3.89332 -8.45794 0
M  V30 40954 O 5608.67 2.28472 -7.50807 0
M  V30 40955 O 5608.71 4.64972 -6.77611 0
M  V30 40956 C 5608.55 6.06319 -7.16352 0
M  V30 40957 C 5609.09 6.91731 -6.02299 0
M  V30 40958 O 5608.03 6.92449 -5.17064 0
M  V30 40959 C 5610.31 6.43627 -5.25174 0
M  V30 40960 O 5611.05 7.43686 -4.60469 0
M  V30 40961 C 5609.64 5.40275 -4.31916 0
M  V30 40962 O 5610.44 5.25279 -3.14438 0
M  V30 40963 C 5608.3 6.04847 -4.05327 0
M  V30 40964 H 5608.33 6.62195 -3.11261 0
M  V30 40965 H 5609.52 4.42556 -4.81383 0
M  V30 40966 H 5611 5.92458 -5.93643 0
M  V30 40967 H 5609.31 7.92655 -6.402 0
M  V30 40968 H 5609.12 6.26671 -8.0846 0
M  V30 40969 H 5607.49 6.29101 -7.32804 0
M  V30 40970 H 5610.13 5.84315 -2.47318 0
M  V30 40971 P 5611.98 7.39546 -4.75277 0
M  V30 40972 O 5613.41 7.84798 -5.01039 0
M  V30 40973 O 5611.62 5.9812 -5.08098 0
M  V30 40974 O 5611.66 7.57503 -3.1866 0
M  V30 40975 C 5611.5 8.97357 -2.74833 0
M  V30 40976 C 5612.04 9.07548 -1.32709 0
M  V30 40977 O 5610.99 8.62072 -0.606159 0
M  V30 40978 C 5613.26 8.25383 -0.938334 0
M  V30 40979 O 5614 8.74577 0.146954 0
M  V30 40980 C 5612.59 6.8802 -0.712559 0
M  V30 40981 O 5613.39 6.1189 0.194655 0
M  V30 40982 C 5611.25 7.27966 -0.139777 0
M  V30 40983 H 5611.29 7.25354 0.961601 0
M  V30 40984 H 5612.47 6.32557 -1.65702 0
M  V30 40985 H 5613.95 8.19355 -1.79097 0
M  V30 40986 H 5612.26 10.1294 -1.10029 0
M  V30 40987 H 5612.07 9.64276 -3.41316 0
M  V30 40988 H 5610.44 9.25417 -2.76357 0
M  V30 40989 H 5613.08 6.25267 1.07847 0
M  V30 40990 P 5614.93 8.791 -3.40613e-10 0
M  V30 40991 O 5616.36 9.31096 0.027933 0
M  V30 40992 O 5614.57 7.77869 -1.04071 0
M  V30 40993 O 5614.61 8.09533 1.41463 0
M  V30 40994 C 5614.45 9.0349 2.53943 0
M  V30 40995 C 5614.99 8.35226 3.79016 0
M  V30 40996 O 5613.94 7.57992 4.15078 0
M  V30 40997 C 5616.21 7.45087 3.67298 0
M  V30 40998 O 5616.95 7.27796 4.85194 0
M  V30 40999 C 5615.54 6.17323 3.12027 0
M  V30 41000 O 5616.34 5.04231 3.47188 0
M  V30 41001 C 5614.2 6.19961 3.81809 0
M  V30 41002 H 5614.24 5.58218 4.73051 0
M  V30 41003 H 5615.42 6.21726 2.02589 0
M  V30 41004 H 5616.9 7.86112 2.9231 0
M  V30 41005 H 5615.21 9.11627 4.55076 0
M  V30 41006 H 5615.02 9.9573 2.34194 0
M  V30 41007 H 5613.39 9.2792 2.67832 0
M  V30 41008 H 5616.03 4.67702 4.28772 0
M  V30 41009 P 5617.89 7.39546 4.75277 0
M  V30 41010 O 5619.31 7.81777 5.05738 0
M  V30 41011 O 5617.53 7.1065 3.32998 0
M  V30 41012 O 5617.56 6.04542 5.56673 0
M  V30 41013 C 5617.4 6.22772 7.02095 0
M  V30 41014 C 5617.94 4.97725 7.70406 0
M  V30 41015 O 5616.89 4.13256 7.58987 0
M  V30 41016 C 5619.16 4.28231 7.11815 0
M  V30 41017 O 5619.9 3.49945 8.01648 0
M  V30 41018 C 5618.49 3.5063 5.96244 0
M  V30 41019 O 5619.29 2.36482 5.64681 0
M  V30 41020 C 5617.15 3.15122 6.56374 0
M  V30 41021 H 5617.19 2.13853 6.99751 0
M  V30 41022 H 5618.37 4.13501 5.06559 0
M  V30 41023 H 5619.85 5.03285 6.70911 0
M  V30 41024 H 5618.16 5.20877 8.75697 0
M  V30 41025 H 5617.97 7.11046 7.35349 0
M  V30 41026 H 5616.34 6.35815 7.26986 0
M  V30 41027 H 5618.98 1.61644 6.13565 0
M  V30 41028 P 5620.84 3.65191 7.99657 0
M  V30 41029 O 5622.26 3.8425 8.48115 0
M  V30 41030 O 5620.48 4.17805 6.64342 0
M  V30 41031 O 5620.51 2.07613 7.95143 0
M  V30 41032 C 5620.35 1.44328 9.27336 0
M  V30 41033 C 5620.89 0.0220036 9.17197 0
M  V30 41034 O 5619.84 -0.626867 8.61923 0
M  V30 41035 C 5622.11 -0.24586 8.30336 0
M  V30 41036 O 5622.85 -1.39011 8.63583 0
M  V30 41037 C 5621.44 -0.273849 6.91158 0
M  V30 41038 O 5622.24 -1.06348 6.02892 0
M  V30 41039 C 5620.1 -0.897649 7.22545 0
M  V30 41040 H 5620.14 -1.9841 7.04286 0
M  V30 41041 H 5621.32 0.739928 6.497 0
M  V30 41042 H 5622.8 0.60668 8.36503 0
M  V30 41043 H 5621.11 -0.352479 10.1829 0
M  V30 41044 H 5620.92 2.00611 10.0304 0
M  V30 41045 H 5619.29 1.41843 9.55327 0
M  V30 41046 H 5621.93 -1.95734 6.03555 0
M  V30 41047 P 5623.79 -1.25109 8.70152 0
M  V30 41048 O 5625.21 -1.35274 9.21221 0
M  V30 41049 O 5623.43 -0.0769065 7.84762 0
M  V30 41050 O 5623.46 -2.55232 7.81161 0
M  V30 41051 C 5623.3 -3.79939 8.58154 0
M  V30 41052 C 5623.84 -4.94023 7.72785 0
M  V30 41053 O 5622.79 -5.18726 6.91205 0
M  V30 41054 C 5625.06 -4.69597 6.85231 0
M  V30 41055 O 5625.8 -5.83832 6.51337 0
M  V30 41056 C 5624.39 -3.96706 5.66633 0
M  V30 41057 O 5625.19 -4.15414 4.49689 0
M  V30 41058 C 5623.06 -4.66153 5.59313 0
M  V30 41059 H 5623.09 -5.47679 4.85214 0
M  V30 41060 H 5624.27 -2.89008 5.86566 0
M  V30 41061 H 5625.75 -4.0121 7.36511 0
M  V30 41062 H 5624.06 -5.80182 8.37584 0
M  V30 41063 H 5623.87 -3.73517 9.52265 0
M  V30 41064 H 5622.24 -3.97163 8.80359 0
M  V30 41065 H 5624.88 -4.90969 4.01921 0
M  V30 41066 P 5626.74 -5.75688 6.64379 0
M  V30 41067 O 5628.16 -6.11849 7.01846 0
M  V30 41068 O 5626.38 -4.30744 6.56026 0
M  V30 41069 O 5626.41 -6.37042 5.19165 0
M  V30 41070 C 5626.25 -7.83578 5.16515 0
M  V30 41071 C 5626.79 -8.33398 3.83019 0
M  V30 41072 O 5625.74 -8.10074 3.01034 0
M  V30 41073 C 5628.01 -7.65514 3.2257 0
M  V30 41074 O 5628.75 -8.4329 2.32297 0
M  V30 41075 C 5627.34 -6.40075 2.62207 0
M  V30 41076 O 5628.14 -5.92589 1.53712 0
M  V30 41077 C 5626.01 -6.9454 2.18503 0
M  V30 41078 H 5626.04 -7.23063 1.12091 0
M  V30 41079 H 5627.22 -5.6025 3.37201 0
M  V30 41080 H 5628.7 -7.35707 4.02681 0
M  V30 41081 H 5627.01 -9.40912 3.9095 0
M  V30 41082 H 5626.82 -8.29056 5.99158 0
M  V30 41083 H 5625.19 -8.10073 5.25882 0
M  V30 41084 H 5627.83 -6.30324 0.726794 0
M  V30 41085 P 5629.69 -8.4349 2.47671 0
M  V30 41086 O 5631.11 -8.94167 2.5964 0
M  V30 41087 O 5629.33 -7.1704 3.19006 0
M  V30 41088 O 5629.36 -8.16596 0.923387 0
M  V30 41089 C 5629.2 -9.38437 0.108857 0
M  V30 41090 C 5629.74 -9.08175 -1.28353 0
M  V30 41091 O 5628.69 -8.44229 -1.84713 0
M  V30 41092 C 5630.96 -8.18386 -1.42505 0
M  V30 41093 O 5631.7 -8.3501 -2.60497 0
M  V30 41094 C 5630.29 -6.80225 -1.25468 0
M  V30 41095 O 5631.09 -5.81621 -1.91066 0
M  V30 41096 C 5628.96 -7.02416 -1.9168 0
M  V30 41097 H 5628.99 -6.6888 -2.96621 0
M  V30 41098 H 5630.17 -6.53617 -0.192223 0
M  V30 41099 H 5631.66 -8.36622 -0.589963 0
M  V30 41100 H 5629.96 -10.0291 -1.79807 0
M  V30 41101 H 5629.77 -10.2138 0.558219 0
M  V30 41102 H 5628.14 -9.6579 0.0444202 0
M  V30 41103 H 5630.78 -5.69556 -2.79637 0
M  V30 41104 P 5632.64 -8.4349 -2.47671 0
M  V30 41105 O 5634.06 -8.92593 -2.65 0
M  V30 41106 O 5632.28 -7.7568 -1.19296 0
M  V30 41107 O 5632.32 -7.36886 -3.63805 0
M  V30 41108 C 5632.16 -7.95349 -4.982 0
M  V30 41109 C 5632.7 -6.94612 -5.98974 0
M  V30 41110 O 5631.64 -6.10347 -6.11815 0
M  V30 41111 C 5633.91 -6.11426 -5.62335 0
M  V30 41112 O 5634.65 -5.6162 -6.70584 0
M  V30 41113 C 5633.24 -5.04409 -4.73308 0
M  V30 41114 O 5634.04 -3.85992 -4.75183 0
M  V30 41115 C 5631.91 -4.8728 -5.41006 0
M  V30 41116 H 5631.94 -4.02333 -6.11157 0
M  V30 41117 H 5633.12 -5.39466 -3.69543 0
M  V30 41118 H 5634.61 -6.71916 -5.01943 0
M  V30 41119 H 5632.91 -7.4649 -6.93477 0
M  V30 41120 H 5632.72 -8.89416 -5.05237 0
M  V30 41121 H 5631.09 -8.14876 -5.18409 0
M  V30 41122 H 5633.73 -3.27957 -5.4317 0
M  V30 41123 P 5635.59 -5.75688 -6.64379 0
M  V30 41124 O 5637.01 -6.07627 -7.05504 0
M  V30 41125 O 5635.23 -5.88047 -5.19722 0
M  V30 41126 O 5635.27 -4.2322 -7.04443 0
M  V30 41127 C 5635.11 -3.99743 -8.4911 0
M  V30 41128 C 5635.65 -2.60516 -8.79425 0
M  V30 41129 O 5634.59 -1.82684 -8.4467 0
M  V30 41130 C 5636.86 -2.10343 -8.03628 0
M  V30 41131 O 5637.6 -1.09919 -8.67766 0
M  V30 41132 C 5636.19 -1.68446 -6.70876 0
M  V30 41133 O 5636.99 -0.678137 -6.08433 0
M  V30 41134 C 5634.86 -1.17436 -7.18567 0
M  V30 41135 H 5634.89 -0.0804732 -7.31656 0
M  V30 41136 H 5636.07 -2.54037 -6.02537 0
M  V30 41137 H 5637.56 -2.93881 -7.85526 0
M  V30 41138 H 5635.86 -2.53065 -9.86973 0
M  V30 41139 H 5635.67 -4.75072 -9.05887 0
M  V30 41140 H 5634.04 -4.05244 -8.76668 0
M  V30 41141 H 5636.68 0.177647 -6.34251 0
M  V30 41142 P 5638.54 -1.25109 -8.70152 0
M  V30 41143 O 5639.96 -1.29744 -9.22016 0
M  V30 41144 O 5638.18 -2.13714 -7.55141 0
M  V30 41145 O 5638.22 0.248149 -8.21425 0
M  V30 41146 C 5638.06 1.22779 -9.30434 0
M  V30 41147 C 5638.6 2.56293 -8.80664 0
M  V30 41148 O 5637.54 3.02979 -8.09349 0
M  V30 41149 C 5639.81 2.57523 -7.89775 0
M  V30 41150 O 5640.55 3.7668 -7.89438 0
M  V30 41151 C 5639.15 2.20997 -6.55446 0
M  V30 41152 O 5639.94 2.71895 -5.48509 0
M  V30 41153 C 5637.81 2.89693 -6.67988 0
M  V30 41154 H 5637.84 3.88793 -6.19859 0
M  V30 41155 H 5639.02 1.12046 -6.44229 0
M  V30 41156 H 5640.51 1.7746 -8.19711 0
M  V30 41157 H 5638.81 3.20706 -9.67112 0
M  V30 41158 H 5638.62 0.901032 -10.1892 0
M  V30 41159 H 5636.99 1.33049 -9.56592 0
M  V30 41160 H 5639.63 3.57847 -5.23962 0
M  V30 41161 P 5641.49 3.65191 -7.99657 0
M  V30 41162 O 5642.91 3.89332 -8.45794 0
M  V30 41163 O 5641.13 2.28472 -7.50807 0
M  V30 41164 O 5641.17 4.64972 -6.77611 0
M  V30 41165 C 5641.01 6.06319 -7.16352 0
M  V30 41166 C 5641.55 6.91731 -6.02299 0
M  V30 41167 O 5640.49 6.92449 -5.17064 0
M  V30 41168 C 5642.76 6.43627 -5.25174 0
M  V30 41169 O 5643.5 7.43686 -4.60469 0
M  V30 41170 C 5642.1 5.40275 -4.31916 0
M  V30 41171 O 5642.89 5.25279 -3.14438 0
M  V30 41172 C 5640.76 6.04847 -4.05327 0
M  V30 41173 H 5640.79 6.62195 -3.11261 0
M  V30 41174 H 5641.97 4.42556 -4.81383 0
M  V30 41175 H 5643.46 5.92458 -5.93643 0
M  V30 41176 H 5641.76 7.92655 -6.402 0
M  V30 41177 H 5641.57 6.26671 -8.0846 0
M  V30 41178 H 5639.94 6.29101 -7.32804 0
M  V30 41179 H 5642.58 5.84315 -2.47318 0
M  V30 41180 P 5644.44 7.39546 -4.75277 0
M  V30 41181 O 5645.86 7.84882 -5.01092 0
M  V30 41182 O 5644.08 5.9812 -5.08098 0
M  V30 41183 O 5644.12 7.57503 -3.1866 0
M  V30 41184 C 5643.96 8.97452 -2.74862 0
M  V30 41185 C 5644.5 9.07548 -1.32709 0
M  V30 41186 O 5643.44 8.61972 -0.606089 0
M  V30 41187 C 5645.72 8.25383 -0.938334 0
M  V30 41188 O 5646.45 8.74577 0.146954 0
M  V30 41189 C 5645.05 6.8802 -0.712559 0
M  V30 41190 O 5645.85 6.1181 0.188505 0
M  V30 41191 C 5643.71 7.27966 -0.139777 0
M  V30 41192 N 5642.67 6.39368 -0.623421 0
M  V30 41193 C 5642.84 5.71761 -1.78245 0
M  V30 41194 N 5641.81 4.962 -2.10491 0
M  V30 41195 C 5640.92 5.16158 -1.0635 0
M  V30 41196 C 5639.66 4.60425 -0.810266 0
M  V30 41197 N 5639.09 5.06 0.348685 0
M  V30 41198 C 5639.69 5.94532 1.20395 0
M  V30 41199 N 5640.87 6.48452 1.01191 0
M  V30 41200 C 5641.45 6.04423 -0.146291 0
M  V30 41201 H 5644.92 6.32625 -1.65044 0
M  V30 41202 H 5646.41 8.19355 -1.79097 0
M  V30 41203 H 5644.71 10.1305 -1.09016 0
M  V30 41204 H 5644.52 9.64276 -3.41316 0
M  V30 41205 H 5642.89 9.25417 -2.76357 0
M  V30 41206 H 5643.74 5.79354 -2.38959 0
M  V30 41207 H 5645.53 6.25169 1.0783 0
M  V30 41208 P 5647.39 8.791 -3.34806e-10 0
M  V30 41209 O 5648.81 9.31196 0.027936 0
M  V30 41210 O 5647.03 7.77869 -1.04071 0
M  V30 41211 O 5647.07 8.09533 1.41463 0
M  V30 41212 C 5646.91 9.03587 2.5397 0
M  V30 41213 C 5647.45 8.35226 3.79016 0
M  V30 41214 O 5646.39 7.57904 4.1503 0
M  V30 41215 C 5648.67 7.45087 3.67298 0
M  V30 41216 O 5649.4 7.27796 4.85194 0
M  V30 41217 C 5648 6.17323 3.12027 0
M  V30 41218 O 5648.8 5.04496 3.46627 0
M  V30 41219 C 5646.66 6.19961 3.81809 0
M  V30 41220 N 5645.62 5.71575 2.93223 0
M  V30 41221 C 5645.79 5.77362 1.59168 0
M  V30 41222 N 5644.76 5.3123 0.911893 0
M  V30 41223 C 5643.87 4.91717 1.89588 0
M  V30 41224 C 5642.61 4.3114 1.8076 0
M  V30 41225 N 5642.01 3.99821 0.632928 0
M  V30 41226 N 5642.04 4.06823 3.02898 0
M  V30 41227 C 5642.64 4.35062 4.22711 0
M  V30 41228 N 5643.82 4.90805 4.35707 0
M  V30 41229 C 5644.4 5.16382 3.14469 0
M  V30 41230 H 5646.69 5.58142 4.72986 0
M  V30 41231 H 5647.87 6.21428 2.0318 0
M  V30 41232 H 5649.36 7.86112 2.9231 0
M  V30 41233 H 5647.66 9.11171 4.55987 0
M  V30 41234 H 5647.47 9.9573 2.34194 0
M  V30 41235 H 5645.84 9.2792 2.67832 0
M  V30 41236 H 5642.11 4.09052 5.13359 0
M  V30 41237 H 5646.69 6.16575 1.12198 0
M  V30 41238 H 5641.08 3.55423 0.632085 0
M  V30 41239 H 5642.48 4.20317 -0.256712 0
M  V30 41240 H 5648.48 4.67628 4.28704 0
M  V30 41241 P 5650.34 7.39546 4.75277 0
M  V30 41242 O 5651.76 7.81861 5.05793 0
M  V30 41243 O 5649.98 7.1065 3.32998 0
M  V30 41244 O 5650.02 6.04542 5.56673 0
M  V30 41245 C 5649.86 6.22839 7.02169 0
M  V30 41246 C 5650.4 4.97725 7.70406 0
M  V30 41247 O 5649.34 4.13208 7.58899 0
M  V30 41248 C 5651.62 4.28231 7.11815 0
M  V30 41249 O 5652.35 3.49945 8.01648 0
M  V30 41250 C 5650.95 3.5063 5.96244 0
M  V30 41251 O 5651.75 2.37008 5.64352 0
M  V30 41252 C 5649.61 3.15122 6.56374 0
M  V30 41253 N 5648.57 3.22311 5.55692 0
M  V30 41254 C 5648.74 3.99655 4.46046 0
M  V30 41255 N 5647.71 3.97599 3.63918 0
M  V30 41256 C 5646.82 3.11159 4.25334 0
M  V30 41257 C 5645.56 2.64972 3.85157 0
M  V30 41258 N 5644.99 1.78482 4.74759 0
M  V30 41259 C 5645.59 1.37463 5.90819 0
M  V30 41260 N 5646.77 1.7733 6.31889 0
M  V30 41261 C 5647.35 2.64393 5.43725 0
M  V30 41262 H 5650.83 4.12931 5.06895 0
M  V30 41263 H 5652.31 5.03285 6.70911 0
M  V30 41264 H 5650.61 5.20001 8.76217 0
M  V30 41265 H 5650.42 7.11046 7.35349 0
M  V30 41266 H 5648.79 6.35815 7.26986 0
M  V30 41267 H 5649.64 4.58037 4.27732 0
M  V30 41268 H 5651.43 1.61619 6.13468 0
M  V30 41269 P 5653.29 3.65191 7.99657 0
M  V30 41270 O 5654.71 3.8425 8.48115 0
M  V30 41271 O 5652.93 4.17805 6.64342 0
M  V30 41272 O 5652.97 2.07613 7.95143 0
M  V30 41273 C 5652.81 1.44328 9.27336 0
M  V30 41274 C 5653.35 0.0220036 9.17197 0
M  V30 41275 O 5652.29 -0.626867 8.61923 0
M  V30 41276 C 5654.57 -0.24586 8.30336 0
M  V30 41277 O 5655.31 -1.39011 8.63583 0
M  V30 41278 C 5653.9 -0.273849 6.91158 0
M  V30 41279 O 5654.7 -1.06348 6.02892 0
M  V30 41280 C 5652.56 -0.897649 7.22545 0
M  V30 41281 H 5652.59 -1.9841 7.04286 0
M  V30 41282 H 5653.78 0.739928 6.497 0
M  V30 41283 H 5655.26 0.60668 8.36503 0
M  V30 41284 H 5653.57 -0.352479 10.1829 0
M  V30 41285 H 5653.38 2.00611 10.0304 0
M  V30 41286 H 5651.75 1.41843 9.55327 0
M  V30 41287 H 5654.39 -1.95734 6.03555 0
M  V30 41288 P 5656.24 -1.25109 8.70152 0
M  V30 41289 O 5657.66 -1.35274 9.21221 0
M  V30 41290 O 5655.88 -0.0769065 7.84762 0
M  V30 41291 O 5655.92 -2.55232 7.81161 0
M  V30 41292 C 5655.76 -3.79939 8.58154 0
M  V30 41293 C 5656.3 -4.94023 7.72785 0
M  V30 41294 O 5655.24 -5.18726 6.91205 0
M  V30 41295 C 5657.52 -4.69597 6.85231 0
M  V30 41296 O 5658.26 -5.83832 6.51337 0
M  V30 41297 C 5656.85 -3.96706 5.66633 0
M  V30 41298 O 5657.65 -4.15414 4.49689 0
M  V30 41299 C 5655.51 -4.66153 5.59313 0
M  V30 41300 H 5655.54 -5.47679 4.85214 0
M  V30 41301 H 5656.73 -2.89008 5.86566 0
M  V30 41302 H 5658.21 -4.0121 7.36511 0
M  V30 41303 H 5656.52 -5.80182 8.37584 0
M  V30 41304 H 5656.33 -3.73517 9.52265 0
M  V30 41305 H 5654.7 -3.97163 8.80359 0
M  V30 41306 H 5657.34 -4.90969 4.01921 0
M  V30 41307 P 5659.19 -5.75688 6.64379 0
M  V30 41308 O 5660.62 -6.11849 7.01846 0
M  V30 41309 O 5658.83 -4.30744 6.56026 0
M  V30 41310 O 5658.87 -6.37042 5.19165 0
M  V30 41311 C 5658.71 -7.83578 5.16515 0
M  V30 41312 C 5659.25 -8.33398 3.83019 0
M  V30 41313 O 5658.19 -8.10074 3.01034 0
M  V30 41314 C 5660.47 -7.65514 3.2257 0
M  V30 41315 O 5661.21 -8.4329 2.32297 0
M  V30 41316 C 5659.8 -6.40075 2.62207 0
M  V30 41317 O 5660.6 -5.92589 1.53712 0
M  V30 41318 C 5658.46 -6.9454 2.18503 0
M  V30 41319 H 5658.49 -7.23063 1.12091 0
M  V30 41320 H 5659.68 -5.6025 3.37201 0
M  V30 41321 H 5661.16 -7.35707 4.02681 0
M  V30 41322 H 5659.47 -9.40912 3.9095 0
M  V30 41323 H 5659.28 -8.29056 5.99158 0
M  V30 41324 H 5657.65 -8.10073 5.25882 0
M  V30 41325 H 5660.29 -6.30324 0.726794 0
M  V30 41326 P 5662.14 -8.4349 2.47671 0
M  V30 41327 O 5663.57 -8.94167 2.5964 0
M  V30 41328 O 5661.78 -7.1704 3.19006 0
M  V30 41329 O 5661.82 -8.16596 0.923387 0
M  V30 41330 C 5661.66 -9.38437 0.108857 0
M  V30 41331 C 5662.2 -9.08175 -1.28353 0
M  V30 41332 O 5661.14 -8.44229 -1.84713 0
M  V30 41333 C 5663.42 -8.18386 -1.42505 0
M  V30 41334 O 5664.16 -8.3501 -2.60497 0
M  V30 41335 C 5662.75 -6.80225 -1.25468 0
M  V30 41336 O 5663.55 -5.81621 -1.91066 0
M  V30 41337 C 5661.41 -7.02416 -1.9168 0
M  V30 41338 H 5661.44 -6.6888 -2.96621 0
M  V30 41339 H 5662.63 -6.53617 -0.192223 0
M  V30 41340 H 5664.11 -8.36622 -0.589963 0
M  V30 41341 H 5662.42 -10.0291 -1.79807 0
M  V30 41342 H 5662.23 -10.2138 0.558219 0
M  V30 41343 H 5660.6 -9.6579 0.0444202 0
M  V30 41344 H 5663.24 -5.69556 -2.79637 0
M  V30 41345 P 5665.09 -8.4349 -2.47671 0
M  V30 41346 O 5666.52 -8.92593 -2.65 0
M  V30 41347 O 5664.73 -7.7568 -1.19296 0
M  V30 41348 O 5664.77 -7.36886 -3.63805 0
M  V30 41349 C 5664.61 -7.95349 -4.982 0
M  V30 41350 C 5665.15 -6.94612 -5.98974 0
M  V30 41351 O 5664.1 -6.10347 -6.11815 0
M  V30 41352 C 5666.37 -6.11426 -5.62335 0
M  V30 41353 O 5667.11 -5.6162 -6.70584 0
M  V30 41354 C 5665.7 -5.04409 -4.73308 0
M  V30 41355 O 5666.5 -3.85992 -4.75183 0
M  V30 41356 C 5664.36 -4.8728 -5.41006 0
M  V30 41357 H 5664.4 -4.02333 -6.11157 0
M  V30 41358 H 5665.58 -5.39466 -3.69543 0
M  V30 41359 H 5667.06 -6.71916 -5.01943 0
M  V30 41360 H 5665.37 -7.4649 -6.93477 0
M  V30 41361 H 5665.18 -8.89416 -5.05237 0
M  V30 41362 H 5663.55 -8.14876 -5.18409 0
M  V30 41363 H 5666.19 -3.27957 -5.4317 0
M  V30 41364 P 5668.04 -5.75688 -6.64379 0
M  V30 41365 O 5669.47 -6.07627 -7.05504 0
M  V30 41366 O 5667.68 -5.88047 -5.19722 0
M  V30 41367 O 5667.72 -4.2322 -7.04443 0
M  V30 41368 C 5667.56 -3.99743 -8.4911 0
M  V30 41369 C 5668.1 -2.60516 -8.79425 0
M  V30 41370 O 5667.05 -1.82684 -8.4467 0
M  V30 41371 C 5669.32 -2.10343 -8.03628 0
M  V30 41372 O 5670.06 -1.09919 -8.67766 0
M  V30 41373 C 5668.65 -1.68446 -6.70876 0
M  V30 41374 O 5669.45 -0.678137 -6.08433 0
M  V30 41375 C 5667.31 -1.17436 -7.18567 0
M  V30 41376 H 5667.35 -0.0804732 -7.31656 0
M  V30 41377 H 5668.53 -2.54037 -6.02537 0
M  V30 41378 H 5670.01 -2.93881 -7.85526 0
M  V30 41379 H 5668.32 -2.53065 -9.86973 0
M  V30 41380 H 5668.13 -4.75072 -9.05887 0
M  V30 41381 H 5666.5 -4.05244 -8.76668 0
M  V30 41382 H 5669.14 0.177647 -6.34251 0
M  V30 41383 P 5671 -1.25109 -8.70152 0
M  V30 41384 O 5672.42 -1.29744 -9.22016 0
M  V30 41385 O 5670.64 -2.13714 -7.55141 0
M  V30 41386 O 5670.67 0.248149 -8.21425 0
M  V30 41387 C 5670.51 1.22779 -9.30434 0
M  V30 41388 C 5671.05 2.56293 -8.80664 0
M  V30 41389 O 5670 3.02979 -8.09349 0
M  V30 41390 C 5672.27 2.57523 -7.89775 0
M  V30 41391 O 5673.01 3.7668 -7.89438 0
M  V30 41392 C 5671.6 2.20997 -6.55446 0
M  V30 41393 O 5672.4 2.71895 -5.48509 0
M  V30 41394 C 5670.26 2.89693 -6.67988 0
M  V30 41395 H 5670.3 3.88793 -6.19859 0
M  V30 41396 H 5671.48 1.12046 -6.44229 0
M  V30 41397 H 5672.96 1.7746 -8.19711 0
M  V30 41398 H 5671.27 3.20706 -9.67112 0
M  V30 41399 H 5671.08 0.901032 -10.1892 0
M  V30 41400 H 5669.45 1.33049 -9.56592 0
M  V30 41401 H 5672.09 3.57847 -5.23962 0
M  V30 41402 P 5673.95 3.65191 -7.99657 0
M  V30 41403 O 5675.37 3.89332 -8.45794 0
M  V30 41404 O 5673.59 2.28472 -7.50807 0
M  V30 41405 O 5673.62 4.64972 -6.77611 0
M  V30 41406 C 5673.46 6.06319 -7.16352 0
M  V30 41407 C 5674 6.91731 -6.02299 0
M  V30 41408 O 5672.95 6.92449 -5.17064 0
M  V30 41409 C 5675.22 6.43627 -5.25174 0
M  V30 41410 O 5675.96 7.43686 -4.60469 0
M  V30 41411 C 5674.55 5.40275 -4.31916 0
M  V30 41412 O 5675.35 5.25279 -3.14438 0
M  V30 41413 C 5673.22 6.04847 -4.05327 0
M  V30 41414 H 5673.25 6.62195 -3.11261 0
M  V30 41415 H 5674.43 4.42556 -4.81383 0
M  V30 41416 H 5675.91 5.92458 -5.93643 0
M  V30 41417 H 5674.22 7.92655 -6.402 0
M  V30 41418 H 5674.03 6.26671 -8.0846 0
M  V30 41419 H 5672.4 6.29101 -7.32804 0
M  V30 41420 H 5675.04 5.84315 -2.47318 0
M  V30 41421 P 5676.9 7.39546 -4.75277 0
M  V30 41422 O 5678.32 7.84798 -5.01039 0
M  V30 41423 O 5676.54 5.9812 -5.08098 0
M  V30 41424 O 5676.57 7.57503 -3.1866 0
M  V30 41425 C 5676.41 8.97357 -2.74833 0
M  V30 41426 C 5676.95 9.07548 -1.32709 0
M  V30 41427 O 5675.9 8.62072 -0.606159 0
M  V30 41428 C 5678.17 8.25383 -0.938334 0
M  V30 41429 O 5678.91 8.74577 0.146954 0
M  V30 41430 C 5677.5 6.8802 -0.712559 0
M  V30 41431 O 5678.3 6.1189 0.194655 0
M  V30 41432 C 5676.17 7.27966 -0.139777 0
M  V30 41433 H 5676.2 7.25354 0.961601 0
M  V30 41434 H 5677.38 6.32557 -1.65702 0
M  V30 41435 H 5678.86 8.19355 -1.79097 0
M  V30 41436 H 5677.17 10.1294 -1.10029 0
M  V30 41437 H 5676.98 9.64276 -3.41316 0
M  V30 41438 H 5675.35 9.25417 -2.76357 0
M  V30 41439 H 5677.99 6.25267 1.07847 0
M  V30 41440 P 5679.85 8.791 -3.28999e-10 0
M  V30 41441 O 5681.27 9.31096 0.027933 0
M  V30 41442 O 5679.49 7.77869 -1.04071 0
M  V30 41443 O 5679.52 8.09533 1.41463 0
M  V30 41444 C 5679.36 9.0349 2.53943 0
M  V30 41445 C 5679.9 8.35226 3.79016 0
M  V30 41446 O 5678.85 7.57992 4.15078 0
M  V30 41447 C 5681.12 7.45087 3.67298 0
M  V30 41448 O 5681.86 7.27796 4.85194 0
M  V30 41449 C 5680.45 6.17323 3.12027 0
M  V30 41450 O 5681.25 5.04231 3.47188 0
M  V30 41451 C 5679.12 6.19961 3.81809 0
M  V30 41452 H 5679.15 5.58218 4.73051 0
M  V30 41453 H 5680.33 6.21726 2.02589 0
M  V30 41454 H 5681.82 7.86112 2.9231 0
M  V30 41455 H 5680.12 9.11627 4.55076 0
M  V30 41456 H 5679.93 9.9573 2.34194 0
M  V30 41457 H 5678.3 9.2792 2.67832 0
M  V30 41458 H 5680.94 4.67702 4.28772 0
M  V30 41459 P 5682.8 7.39546 4.75277 0
M  V30 41460 O 5684.22 7.81777 5.05738 0
M  V30 41461 O 5682.44 7.1065 3.32998 0
M  V30 41462 O 5682.47 6.04542 5.56673 0
M  V30 41463 C 5682.31 6.22772 7.02095 0
M  V30 41464 C 5682.85 4.97725 7.70406 0
M  V30 41465 O 5681.8 4.13256 7.58987 0
M  V30 41466 C 5684.07 4.28231 7.11815 0
M  V30 41467 O 5684.81 3.49945 8.01648 0
M  V30 41468 C 5683.4 3.5063 5.96244 0
M  V30 41469 O 5684.2 2.36482 5.64681 0
M  V30 41470 C 5682.07 3.15122 6.56374 0
M  V30 41471 H 5682.1 2.13853 6.99751 0
M  V30 41472 H 5683.28 4.13501 5.06559 0
M  V30 41473 H 5684.77 5.03285 6.70911 0
M  V30 41474 H 5683.07 5.20877 8.75697 0
M  V30 41475 H 5682.88 7.11046 7.35349 0
M  V30 41476 H 5681.25 6.35815 7.26986 0
M  V30 41477 H 5683.89 1.61644 6.13565 0
M  V30 41478 P 5685.75 3.65191 7.99657 0
M  V30 41479 O 5687.17 3.84292 8.48206 0
M  V30 41480 O 5685.39 4.17805 6.64342 0
M  V30 41481 O 5685.43 2.07613 7.95143 0
M  V30 41482 C 5685.26 1.44344 9.27435 0
M  V30 41483 C 5685.81 0.0220036 9.17197 0
M  V30 41484 O 5684.75 -0.626794 8.61824 0
M  V30 41485 C 5687.02 -0.24586 8.30336 0
M  V30 41486 O 5687.76 -1.39011 8.63583 0
M  V30 41487 C 5686.36 -0.273849 6.91158 0
M  V30 41488 O 5687.15 -1.05728 6.029 0
M  V30 41489 C 5685.02 -0.897649 7.22545 0
M  V30 41490 N 5683.97 -0.292839 6.41732 0
M  V30 41491 C 5684.14 0.950603 5.91308 0
M  V30 41492 N 5683.12 1.37732 5.21105 0
M  V30 41493 C 5682.23 0.318109 5.26039 0
M  V30 41494 C 5680.96 0.146766 4.6727 0
M  V30 41495 N 5680.37 1.08519 3.89983 0
M  V30 41496 N 5680.4 -1.06525 4.95887 0
M  V30 41497 C 5681 -2.0378 5.71347 0
M  V30 41498 N 5682.18 -1.92445 6.27451 0
M  V30 41499 C 5682.75 -0.715382 6.00353 0
M  V30 41500 H 5685.05 -1.98383 7.04189 0
M  V30 41501 H 5686.23 0.733318 6.49674 0
M  V30 41502 H 5687.72 0.60668 8.36503 0
M  V30 41503 H 5686.02 -0.362662 10.1825 0
M  V30 41504 H 5685.83 2.00611 10.0304 0
M  V30 41505 H 5684.2 1.41843 9.55327 0
M  V30 41506 H 5680.47 -2.97041 5.85344 0
M  V30 41507 H 5685.04 1.54076 6.07465 0
M  V30 41508 H 5679.44 0.901517 3.49562 0
M  V30 41509 H 5680.84 1.97957 3.71669 0
M  V30 41510 H 5686.84 -1.95704 6.0346 0
M  V30 41511 P 5688.7 -1.25109 8.70152 0
M  V30 41512 O 5690.12 -1.35274 9.21221 0
M  V30 41513 O 5688.34 -0.0769065 7.84762 0
M  V30 41514 O 5688.38 -2.55232 7.81161 0
M  V30 41515 C 5688.22 -3.79939 8.58154 0
M  V30 41516 C 5688.76 -4.94023 7.72785 0
M  V30 41517 O 5687.7 -5.18726 6.91205 0
M  V30 41518 C 5689.97 -4.69597 6.85231 0
M  V30 41519 O 5690.71 -5.83832 6.51337 0
M  V30 41520 C 5689.3 -3.96706 5.66633 0
M  V30 41521 O 5690.1 -4.15414 4.49689 0
M  V30 41522 C 5687.97 -4.66153 5.59313 0
M  V30 41523 H 5688 -5.47679 4.85214 0
M  V30 41524 H 5689.18 -2.89008 5.86566 0
M  V30 41525 H 5690.67 -4.0121 7.36511 0
M  V30 41526 H 5688.97 -5.80182 8.37584 0
M  V30 41527 H 5688.78 -3.73517 9.52265 0
M  V30 41528 H 5687.15 -3.97163 8.80359 0
M  V30 41529 H 5689.79 -4.90969 4.01921 0
M  V30 41530 P 5691.65 -5.75688 6.64379 0
M  V30 41531 O 5693.07 -6.11849 7.01846 0
M  V30 41532 O 5691.29 -4.30744 6.56026 0
M  V30 41533 O 5691.33 -6.37042 5.19165 0
M  V30 41534 C 5691.17 -7.83578 5.16515 0
M  V30 41535 C 5691.71 -8.33398 3.83019 0
M  V30 41536 O 5690.65 -8.10074 3.01034 0
M  V30 41537 C 5692.92 -7.65514 3.2257 0
M  V30 41538 O 5693.66 -8.4329 2.32297 0
M  V30 41539 C 5692.26 -6.40075 2.62207 0
M  V30 41540 O 5693.05 -5.92589 1.53712 0
M  V30 41541 C 5690.92 -6.9454 2.18503 0
M  V30 41542 H 5690.95 -7.23063 1.12091 0
M  V30 41543 H 5692.13 -5.6025 3.37201 0
M  V30 41544 H 5693.62 -7.35707 4.02681 0
M  V30 41545 H 5691.92 -9.40912 3.9095 0
M  V30 41546 H 5691.73 -8.29056 5.99158 0
M  V30 41547 H 5690.1 -8.10073 5.25882 0
M  V30 41548 H 5692.74 -6.30324 0.726794 0
M  V30 41549 P 5694.6 -8.4349 2.47671 0
M  V30 41550 O 5696.02 -8.94167 2.5964 0
M  V30 41551 O 5694.24 -7.1704 3.19006 0
M  V30 41552 O 5694.28 -8.16596 0.923387 0
M  V30 41553 C 5694.12 -9.38437 0.108857 0
M  V30 41554 C 5694.66 -9.08175 -1.28353 0
M  V30 41555 O 5693.6 -8.44229 -1.84713 0
M  V30 41556 C 5695.88 -8.18386 -1.42505 0
M  V30 41557 O 5696.61 -8.3501 -2.60497 0
M  V30 41558 C 5695.21 -6.80225 -1.25468 0
M  V30 41559 O 5696.01 -5.81621 -1.91066 0
M  V30 41560 C 5693.87 -7.02416 -1.9168 0
M  V30 41561 H 5693.9 -6.6888 -2.96621 0
M  V30 41562 H 5695.08 -6.53617 -0.192223 0
M  V30 41563 H 5696.57 -8.36622 -0.589963 0
M  V30 41564 H 5694.87 -10.0291 -1.79807 0
M  V30 41565 H 5694.68 -10.2138 0.558219 0
M  V30 41566 H 5693.05 -9.6579 0.0444202 0
M  V30 41567 H 5695.69 -5.69556 -2.79637 0
M  V30 41568 P 5697.55 -8.4349 -2.47671 0
M  V30 41569 O 5698.97 -8.92593 -2.65 0
M  V30 41570 O 5697.19 -7.7568 -1.19296 0
M  V30 41571 O 5697.23 -7.36886 -3.63805 0
M  V30 41572 C 5697.07 -7.95349 -4.982 0
M  V30 41573 C 5697.61 -6.94612 -5.98974 0
M  V30 41574 O 5696.55 -6.10347 -6.11815 0
M  V30 41575 C 5698.83 -6.11426 -5.62335 0
M  V30 41576 O 5699.56 -5.6162 -6.70584 0
M  V30 41577 C 5698.16 -5.04409 -4.73308 0
M  V30 41578 O 5698.96 -3.85992 -4.75183 0
M  V30 41579 C 5696.82 -4.8728 -5.41006 0
M  V30 41580 H 5696.85 -4.02333 -6.11157 0
M  V30 41581 H 5698.03 -5.39466 -3.69543 0
M  V30 41582 H 5699.52 -6.71916 -5.01943 0
M  V30 41583 H 5697.82 -7.4649 -6.93477 0
M  V30 41584 H 5697.63 -8.89416 -5.05237 0
M  V30 41585 H 5696 -8.14876 -5.18409 0
M  V30 41586 H 5698.64 -3.27957 -5.4317 0
M  V30 41587 P 5700.5 -5.75688 -6.64379 0
M  V30 41588 O 5701.92 -6.07627 -7.05504 0
M  V30 41589 O 5700.14 -5.88047 -5.19722 0
M  V30 41590 O 5700.18 -4.2322 -7.04443 0
M  V30 41591 C 5700.02 -3.99743 -8.4911 0
M  V30 41592 C 5700.56 -2.60516 -8.79425 0
M  V30 41593 O 5699.5 -1.82684 -8.4467 0
M  V30 41594 C 5701.78 -2.10343 -8.03628 0
M  V30 41595 O 5702.51 -1.09919 -8.67766 0
M  V30 41596 C 5701.11 -1.68446 -6.70876 0
M  V30 41597 O 5701.91 -0.678137 -6.08433 0
M  V30 41598 C 5699.77 -1.17436 -7.18567 0
M  V30 41599 H 5699.8 -0.0804732 -7.31656 0
M  V30 41600 H 5700.99 -2.54037 -6.02537 0
M  V30 41601 H 5702.47 -2.93881 -7.85526 0
M  V30 41602 H 5700.78 -2.53065 -9.86973 0
M  V30 41603 H 5700.59 -4.75072 -9.05887 0
M  V30 41604 H 5698.96 -4.05244 -8.76668 0
M  V30 41605 H 5701.59 0.177647 -6.34251 0
M  V30 41606 P 5703.45 -1.25109 -8.70152 0
M  V30 41607 O 5704.87 -1.29744 -9.22016 0
M  V30 41608 O 5703.09 -2.13714 -7.55141 0
M  V30 41609 O 5703.13 0.248149 -8.21425 0
M  V30 41610 C 5702.97 1.22779 -9.30434 0
M  V30 41611 C 5703.51 2.56293 -8.80664 0
M  V30 41612 O 5702.45 3.02979 -8.09349 0
M  V30 41613 C 5704.73 2.57523 -7.89775 0
M  V30 41614 O 5705.46 3.7668 -7.89438 0
M  V30 41615 C 5704.06 2.20997 -6.55446 0
M  V30 41616 O 5704.86 2.71895 -5.48509 0
M  V30 41617 C 5702.72 2.89693 -6.67988 0
M  V30 41618 H 5702.75 3.88793 -6.19859 0
M  V30 41619 H 5703.94 1.12046 -6.44229 0
M  V30 41620 H 5705.42 1.7746 -8.19711 0
M  V30 41621 H 5703.73 3.20706 -9.67112 0
M  V30 41622 H 5703.54 0.901032 -10.1892 0
M  V30 41623 H 5701.91 1.33049 -9.56592 0
M  V30 41624 H 5704.54 3.57847 -5.23962 0
M  V30 41625 P 5706.4 3.65191 -7.99657 0
M  V30 41626 O 5707.82 3.89332 -8.45794 0
M  V30 41627 O 5706.04 2.28472 -7.50807 0
M  V30 41628 O 5706.08 4.64972 -6.77611 0
M  V30 41629 C 5705.92 6.06319 -7.16352 0
M  V30 41630 C 5706.46 6.91731 -6.02299 0
M  V30 41631 O 5705.4 6.92449 -5.17064 0
M  V30 41632 C 5707.68 6.43627 -5.25174 0
M  V30 41633 O 5708.42 7.43686 -4.60469 0
M  V30 41634 C 5707.01 5.40275 -4.31916 0
M  V30 41635 O 5707.81 5.25279 -3.14438 0
M  V30 41636 C 5705.67 6.04847 -4.05327 0
M  V30 41637 H 5705.7 6.62195 -3.11261 0
M  V30 41638 H 5706.89 4.42556 -4.81383 0
M  V30 41639 H 5708.37 5.92458 -5.93643 0
M  V30 41640 H 5706.68 7.92655 -6.402 0
M  V30 41641 H 5706.49 6.26671 -8.0846 0
M  V30 41642 H 5704.86 6.29101 -7.32804 0
M  V30 41643 H 5707.5 5.84315 -2.47318 0
M  V30 41644 P 5709.35 7.39546 -4.75277 0
M  V30 41645 O 5710.77 7.84882 -5.01092 0
M  V30 41646 O 5708.99 5.9812 -5.08098 0
M  V30 41647 O 5709.03 7.57503 -3.1866 0
M  V30 41648 C 5708.87 8.97452 -2.74862 0
M  V30 41649 C 5709.41 9.07548 -1.32709 0
M  V30 41650 O 5708.35 8.61972 -0.606089 0
M  V30 41651 C 5710.63 8.25383 -0.938334 0
M  V30 41652 O 5711.37 8.74577 0.146954 0
M  V30 41653 C 5709.96 6.8802 -0.712559 0
M  V30 41654 O 5710.76 6.1181 0.188505 0
M  V30 41655 C 5708.62 7.27966 -0.139777 0
M  V30 41656 N 5707.58 6.39368 -0.623421 0
M  V30 41657 C 5707.75 5.71761 -1.78245 0
M  V30 41658 N 5706.72 4.962 -2.10491 0
M  V30 41659 C 5705.84 5.16158 -1.0635 0
M  V30 41660 C 5704.57 4.60425 -0.810266 0
M  V30 41661 N 5704 5.06 0.348685 0
M  V30 41662 C 5704.61 5.94532 1.20395 0
M  V30 41663 N 5705.78 6.48452 1.01191 0
M  V30 41664 C 5706.36 6.04423 -0.146291 0
M  V30 41665 H 5709.84 6.32625 -1.65044 0
M  V30 41666 H 5711.32 8.19355 -1.79097 0
M  V30 41667 H 5709.63 10.1305 -1.09016 0
M  V30 41668 H 5709.44 9.64276 -3.41316 0
M  V30 41669 H 5707.81 9.25417 -2.76357 0
M  V30 41670 H 5708.65 5.79354 -2.38959 0
M  V30 41671 H 5710.45 6.25169 1.0783 0
M  V30 41672 P 5712.3 8.791 -3.23192e-10 0
M  V30 41673 O 5713.73 9.31096 0.027933 0
M  V30 41674 O 5711.94 7.77869 -1.04071 0
M  V30 41675 O 5711.98 8.09533 1.41463 0
M  V30 41676 C 5711.82 9.0349 2.53943 0
M  V30 41677 C 5712.36 8.35226 3.79016 0
M  V30 41678 O 5711.3 7.57992 4.15078 0
M  V30 41679 C 5713.58 7.45087 3.67298 0
M  V30 41680 O 5714.32 7.27796 4.85194 0
M  V30 41681 C 5712.91 6.17323 3.12027 0
M  V30 41682 O 5713.71 5.04231 3.47188 0
M  V30 41683 C 5711.57 6.19961 3.81809 0
M  V30 41684 H 5711.6 5.58218 4.73051 0
M  V30 41685 H 5712.79 6.21726 2.02589 0
M  V30 41686 H 5714.27 7.86112 2.9231 0
M  V30 41687 H 5712.58 9.11627 4.55076 0
M  V30 41688 H 5712.39 9.9573 2.34194 0
M  V30 41689 H 5710.76 9.2792 2.67832 0
M  V30 41690 H 5713.4 4.67702 4.28772 0
M  V30 41691 P 5715.25 7.39546 4.75277 0
M  V30 41692 O 5716.68 7.81777 5.05738 0
M  V30 41693 O 5714.89 7.1065 3.32998 0
M  V30 41694 O 5714.93 6.04542 5.56673 0
M  V30 41695 C 5714.77 6.22772 7.02095 0
M  V30 41696 C 5715.31 4.97725 7.70406 0
M  V30 41697 O 5714.26 4.13256 7.58987 0
M  V30 41698 C 5716.53 4.28231 7.11815 0
M  V30 41699 O 5717.27 3.49945 8.01648 0
M  V30 41700 C 5715.86 3.5063 5.96244 0
M  V30 41701 O 5716.66 2.36482 5.64681 0
M  V30 41702 C 5714.52 3.15122 6.56374 0
M  V30 41703 H 5714.56 2.13853 6.99751 0
M  V30 41704 H 5715.74 4.13501 5.06559 0
M  V30 41705 H 5717.22 5.03285 6.70911 0
M  V30 41706 H 5715.53 5.20877 8.75697 0
M  V30 41707 H 5715.34 7.11046 7.35349 0
M  V30 41708 H 5713.71 6.35815 7.26986 0
M  V30 41709 H 5716.35 1.61644 6.13565 0
M  V30 41710 P 5718.2 3.65191 7.99657 0
M  V30 41711 O 5719.63 3.8425 8.48115 0
M  V30 41712 O 5717.84 4.17805 6.64342 0
M  V30 41713 O 5717.88 2.07613 7.95143 0
M  V30 41714 C 5717.72 1.44328 9.27336 0
M  V30 41715 C 5718.26 0.0220036 9.17197 0
M  V30 41716 O 5717.21 -0.626867 8.61923 0
M  V30 41717 C 5719.48 -0.24586 8.30336 0
M  V30 41718 O 5720.22 -1.39011 8.63583 0
M  V30 41719 C 5718.81 -0.273849 6.91158 0
M  V30 41720 O 5719.61 -1.06348 6.02892 0
M  V30 41721 C 5717.47 -0.897649 7.22545 0
M  V30 41722 H 5717.51 -1.9841 7.04286 0
M  V30 41723 H 5718.69 0.739928 6.497 0
M  V30 41724 H 5720.17 0.60668 8.36503 0
M  V30 41725 H 5718.48 -0.352479 10.1829 0
M  V30 41726 H 5718.29 2.00611 10.0304 0
M  V30 41727 H 5716.66 1.41843 9.55327 0
M  V30 41728 H 5719.3 -1.95734 6.03555 0
M  V30 41729 P 5721.16 -1.25109 8.70152 0
M  V30 41730 O 5722.56 -1.31452 9.27431 0
M  V30 41731 O 5720.78 -0.0458113 7.89887 0
M  V30 41732 O 5720.83 -2.55201 7.81066 0
M  V30 41733 C 5720.67 -3.79939 8.58154 0
M  V30 41734 C 5721.21 -4.93969 7.72701 0
M  V30 41735 O 5720.16 -5.18666 6.91125 0
M  V30 41736 C 5722.43 -4.69597 6.85231 0
M  V30 41737 O 5723.17 -5.83832 6.51337 0
M  V30 41738 C 5721.76 -3.96706 5.66633 0
M  V30 41739 O 5722.56 -4.15346 4.49615 0
M  V30 41740 C 5720.42 -4.66153 5.59313 0
M  V30 41741 N 5719.38 -3.71582 5.24027 0
M  V30 41742 C 5718.35 -4.15133 4.44901 0
M  V30 41743 O 5718.39 -5.32122 4.00336 0
M  V30 41744 N 5717.33 -3.30554 4.15693 0
M  V30 41745 C 5717.38 -2.04701 4.61105 0
M  V30 41746 C 5718.48 -1.57111 5.38655 0
M  V30 41747 C 5719.44 -2.44234 5.68454 0
M  V30 41748 H 5720.46 -5.47604 4.85148 0
M  V30 41749 H 5721.64 -2.8955 5.86187 0
M  V30 41750 H 5723.12 -4.01995 7.36197 0
M  V30 41751 H 5721.43 -5.81019 8.37003 0
M  V30 41752 H 5721.24 -3.73517 9.52265 0
M  V30 41753 H 5719.61 -3.97122 8.80267 0
M  V30 41754 H 5718.53 -0.538464 5.72373 0
M  V30 41755 H 5720.29 -2.11927 6.29377 0
M  V30 41756 H 5722.34 -4.98352 4.09633 0
M  V30 41757 P 5724.11 -5.75688 6.64379 0
M  V30 41758 O 5725.53 -6.11849 7.01846 0
M  V30 41759 O 5723.75 -4.30744 6.56026 0
M  V30 41760 O 5723.78 -6.37042 5.19165 0
M  V30 41761 C 5723.62 -7.83578 5.16515 0
M  V30 41762 C 5724.16 -8.33398 3.83019 0
M  V30 41763 O 5723.11 -8.10074 3.01034 0
M  V30 41764 C 5725.38 -7.65514 3.2257 0
M  V30 41765 O 5726.12 -8.4329 2.32297 0
M  V30 41766 C 5724.71 -6.40075 2.62207 0
M  V30 41767 O 5725.51 -5.92589 1.53712 0
M  V30 41768 C 5723.37 -6.9454 2.18503 0
M  V30 41769 H 5723.41 -7.23063 1.12091 0
M  V30 41770 H 5724.59 -5.6025 3.37201 0
M  V30 41771 H 5726.07 -7.35707 4.02681 0
M  V30 41772 H 5724.38 -9.40912 3.9095 0
M  V30 41773 H 5724.19 -8.29056 5.99158 0
M  V30 41774 H 5722.56 -8.10073 5.25882 0
M  V30 41775 H 5725.2 -6.30324 0.726794 0
M  V30 41776 P 5727.06 -8.4349 2.47671 0
M  V30 41777 O 5728.48 -8.94263 2.59668 0
M  V30 41778 O 5726.7 -7.1704 3.19006 0
M  V30 41779 O 5726.73 -8.16596 0.923387 0
M  V30 41780 C 5726.57 -9.38537 0.108869 0
M  V30 41781 C 5727.11 -9.08175 -1.28353 0
M  V30 41782 O 5726.06 -8.44131 -1.84692 0
M  V30 41783 C 5728.33 -8.18386 -1.42505 0
M  V30 41784 O 5729.07 -8.3501 -2.60497 0
M  V30 41785 C 5727.66 -6.80225 -1.25468 0
M  V30 41786 O 5728.46 -5.81716 -1.90454 0
M  V30 41787 C 5726.33 -7.02416 -1.9168 0
M  V30 41788 N 5725.28 -6.31033 -1.20314 0
M  V30 41789 C 5725.45 -5.98817 0.0994088 0
M  V30 41790 N 5724.42 -5.35403 0.621694 0
M  V30 41791 C 5723.54 -5.25212 -0.43376 0
M  V30 41792 C 5722.27 -4.64602 -0.519722 0
M  V30 41793 N 5721.67 -4.01457 0.519136 0
M  V30 41794 N 5721.71 -4.7568 -1.76013 0
M  V30 41795 C 5722.31 -5.3653 -2.83017 0
M  V30 41796 N 5723.49 -5.93676 -2.79782 0
M  V30 41797 C 5724.06 -5.84061 -1.56249 0
M  V30 41798 H 5726.36 -6.68789 -2.9658 0
M  V30 41799 H 5727.54 -6.53498 -0.198729 0
M  V30 41800 H 5729.02 -8.36622 -0.589963 0
M  V30 41801 H 5727.33 -10.0273 -1.8081 0
M  V30 41802 H 5727.14 -10.2138 0.558219 0
M  V30 41803 H 5725.51 -9.6579 0.0444202 0
M  V30 41804 H 5721.77 -5.37113 -3.77321 0
M  V30 41805 H 5726.35 -6.23209 0.660562 0
M  V30 41806 H 5720.74 -3.58834 0.394862 0
M  V30 41807 H 5722.15 -3.96059 1.43048 0
M  V30 41808 H 5728.15 -5.69466 -2.79593 0
M  V30 41809 P 5730.01 -8.4349 -2.47671 0
M  V30 41810 O 5731.43 -8.92593 -2.65 0
M  V30 41811 O 5729.65 -7.7568 -1.19296 0
M  V30 41812 O 5729.68 -7.36886 -3.63805 0
M  V30 41813 C 5729.52 -7.95349 -4.982 0
M  V30 41814 C 5730.06 -6.94612 -5.98974 0
M  V30 41815 O 5729.01 -6.10347 -6.11815 0
M  V30 41816 C 5731.28 -6.11426 -5.62335 0
M  V30 41817 O 5732.02 -5.6162 -6.70584 0
M  V30 41818 C 5730.61 -5.04409 -4.73308 0
M  V30 41819 O 5731.41 -3.85992 -4.75183 0
M  V30 41820 C 5729.28 -4.8728 -5.41006 0
M  V30 41821 H 5729.31 -4.02333 -6.11157 0
M  V30 41822 H 5730.49 -5.39466 -3.69543 0
M  V30 41823 H 5731.97 -6.71916 -5.01943 0
M  V30 41824 H 5730.28 -7.4649 -6.93477 0
M  V30 41825 H 5730.09 -8.89416 -5.05237 0
M  V30 41826 H 5728.46 -8.14876 -5.18409 0
M  V30 41827 H 5731.1 -3.27957 -5.4317 0
M  V30 41828 P 5732.96 -5.75688 -6.64379 0
M  V30 41829 O 5734.36 -6.14823 -7.06682 0
M  V30 41830 O 5732.58 -5.93957 -5.20728 0
M  V30 41831 O 5732.63 -4.23169 -7.04357 0
M  V30 41832 C 5732.47 -3.99743 -8.4911 0
M  V30 41833 C 5733.01 -2.60487 -8.79329 0
M  V30 41834 O 5731.96 -1.82663 -8.44573 0
M  V30 41835 C 5734.23 -2.10343 -8.03628 0
M  V30 41836 O 5734.97 -1.09919 -8.67766 0
M  V30 41837 C 5733.56 -1.68446 -6.70876 0
M  V30 41838 O 5734.36 -0.678026 -6.08333 0
M  V30 41839 C 5732.23 -1.17436 -7.18567 0
M  V30 41840 N 5731.18 -1.52699 -6.23988 0
M  V30 41841 C 5730.15 -0.643793 -6.05085 0
M  V30 41842 O 5730.19 0.459118 -6.64315 0
M  V30 41843 N 5729.14 -0.976931 -5.22038 0
M  V30 41844 C 5729.18 -2.14429 -4.56662 0
M  V30 41845 C 5730.28 -3.04203 -4.71481 0
M  V30 41846 C 5731.25 -2.69669 -5.56838 0
M  V30 41847 H 5732.26 -0.0804622 -7.31556 0
M  V30 41848 H 5733.44 -2.53396 -6.02698 0
M  V30 41849 H 5734.93 -2.9313 -7.85914 0
M  V30 41850 H 5733.23 -2.52078 -9.87225 0
M  V30 41851 H 5733.04 -4.75072 -9.05887 0
M  V30 41852 H 5731.41 -4.05202 -8.76577 0
M  V30 41853 H 5730.33 -3.97309 -4.15519 0
M  V30 41854 H 5732.09 -3.36869 -5.72318 0
M  V30 41855 H 5734.15 0.167718 -6.44882 0
M  V30 41856 P 5735.91 -1.25109 -8.70152 0
M  V30 41857 O 5737.33 -1.29744 -9.22016 0
M  V30 41858 O 5735.55 -2.13714 -7.55141 0
M  V30 41859 O 5735.59 0.248149 -8.21425 0
M  V30 41860 C 5735.43 1.22779 -9.30434 0
M  V30 41861 C 5735.97 2.56293 -8.80664 0
M  V30 41862 O 5734.91 3.02979 -8.09349 0
M  V30 41863 C 5737.18 2.57523 -7.89775 0
M  V30 41864 O 5737.92 3.7668 -7.89438 0
M  V30 41865 C 5736.51 2.20997 -6.55446 0
M  V30 41866 O 5737.31 2.71895 -5.48509 0
M  V30 41867 C 5735.18 2.89693 -6.67988 0
M  V30 41868 H 5735.21 3.88793 -6.19859 0
M  V30 41869 H 5736.39 1.12046 -6.44229 0
M  V30 41870 H 5737.88 1.7746 -8.19711 0
M  V30 41871 H 5736.18 3.20706 -9.67112 0
M  V30 41872 H 5735.99 0.901032 -10.1892 0
M  V30 41873 H 5734.36 1.33049 -9.56592 0
M  V30 41874 H 5737 3.57847 -5.23962 0
M  V30 41875 P 5738.86 3.65191 -7.99657 0
M  V30 41876 O 5740.28 3.89332 -8.45794 0
M  V30 41877 O 5738.5 2.28472 -7.50807 0
M  V30 41878 O 5738.54 4.64972 -6.77611 0
M  V30 41879 C 5738.38 6.06319 -7.16352 0
M  V30 41880 C 5738.92 6.91731 -6.02299 0
M  V30 41881 O 5737.86 6.92449 -5.17064 0
M  V30 41882 C 5740.13 6.43627 -5.25174 0
M  V30 41883 O 5740.87 7.43686 -4.60469 0
M  V30 41884 C 5739.46 5.40275 -4.31916 0
M  V30 41885 O 5740.26 5.25279 -3.14438 0
M  V30 41886 C 5738.13 6.04847 -4.05327 0
M  V30 41887 H 5738.16 6.62195 -3.11261 0
M  V30 41888 H 5739.34 4.42556 -4.81383 0
M  V30 41889 H 5740.83 5.92458 -5.93643 0
M  V30 41890 H 5739.13 7.92655 -6.402 0
M  V30 41891 H 5738.94 6.26671 -8.0846 0
M  V30 41892 H 5737.31 6.29101 -7.32804 0
M  V30 41893 H 5739.95 5.84315 -2.47318 0
M  V30 41894 P 5741.81 7.39546 -4.75277 0
M  V30 41895 O 5743.23 7.84798 -5.01039 0
M  V30 41896 O 5741.45 5.9812 -5.08098 0
M  V30 41897 O 5741.49 7.57503 -3.1866 0
M  V30 41898 C 5741.33 8.97357 -2.74833 0
M  V30 41899 C 5741.87 9.07548 -1.32709 0
M  V30 41900 O 5740.81 8.62072 -0.606159 0
M  V30 41901 C 5743.08 8.25383 -0.938334 0
M  V30 41902 O 5743.82 8.74577 0.146954 0
M  V30 41903 C 5742.42 6.8802 -0.712559 0
M  V30 41904 O 5743.21 6.1189 0.194655 0
M  V30 41905 C 5741.08 7.27966 -0.139777 0
M  V30 41906 H 5741.11 7.25354 0.961601 0
M  V30 41907 H 5742.29 6.32557 -1.65702 0
M  V30 41908 H 5743.78 8.19355 -1.79097 0
M  V30 41909 H 5742.08 10.1294 -1.10029 0
M  V30 41910 H 5741.89 9.64276 -3.41316 0
M  V30 41911 H 5740.26 9.25417 -2.76357 0
M  V30 41912 H 5742.9 6.25267 1.07847 0
M  V30 41913 P 5744.76 8.791 -3.17385e-10 0
M  V30 41914 O 5746.18 9.31096 0.027933 0
M  V30 41915 O 5744.4 7.77869 -1.04071 0
M  V30 41916 O 5744.44 8.09533 1.41463 0
M  V30 41917 C 5744.28 9.0349 2.53943 0
M  V30 41918 C 5744.82 8.35226 3.79016 0
M  V30 41919 O 5743.76 7.57992 4.15078 0
M  V30 41920 C 5746.03 7.45087 3.67298 0
M  V30 41921 O 5746.77 7.27796 4.85194 0
M  V30 41922 C 5745.37 6.17323 3.12027 0
M  V30 41923 O 5746.16 5.04231 3.47188 0
M  V30 41924 C 5744.03 6.19961 3.81809 0
M  V30 41925 H 5744.06 5.58218 4.73051 0
M  V30 41926 H 5745.24 6.21726 2.02589 0
M  V30 41927 H 5746.73 7.86112 2.9231 0
M  V30 41928 H 5745.03 9.11627 4.55076 0
M  V30 41929 H 5744.84 9.9573 2.34194 0
M  V30 41930 H 5743.21 9.2792 2.67832 0
M  V30 41931 H 5745.85 4.67702 4.28772 0
M  V30 41932 P 5747.71 7.39546 4.75277 0
M  V30 41933 O 5749.13 7.81777 5.05738 0
M  V30 41934 O 5747.35 7.1065 3.32998 0
M  V30 41935 O 5747.39 6.04542 5.56673 0
M  V30 41936 C 5747.23 6.22772 7.02095 0
M  V30 41937 C 5747.77 4.97725 7.70406 0
M  V30 41938 O 5746.71 4.13256 7.58987 0
M  V30 41939 C 5748.99 4.28231 7.11815 0
M  V30 41940 O 5749.72 3.49945 8.01648 0
M  V30 41941 C 5748.32 3.5063 5.96244 0
M  V30 41942 O 5749.12 2.36482 5.64681 0
M  V30 41943 C 5746.98 3.15122 6.56374 0
M  V30 41944 H 5747.01 2.13853 6.99751 0
M  V30 41945 H 5748.19 4.13501 5.06559 0
M  V30 41946 H 5749.68 5.03285 6.70911 0
M  V30 41947 H 5747.98 5.20877 8.75697 0
M  V30 41948 H 5747.79 7.11046 7.35349 0
M  V30 41949 H 5746.16 6.35815 7.26986 0
M  V30 41950 H 5748.8 1.61644 6.13565 0
M  V30 41951 P 5750.66 3.65191 7.99657 0
M  V30 41952 O 5752.08 3.8425 8.48115 0
M  V30 41953 O 5750.3 4.17805 6.64342 0
M  V30 41954 O 5750.34 2.07613 7.95143 0
M  V30 41955 C 5750.18 1.44328 9.27336 0
M  V30 41956 C 5750.72 0.0220036 9.17197 0
M  V30 41957 O 5749.66 -0.626867 8.61923 0
M  V30 41958 C 5751.94 -0.24586 8.30336 0
M  V30 41959 O 5752.67 -1.39011 8.63583 0
M  V30 41960 C 5751.27 -0.273849 6.91158 0
M  V30 41961 O 5752.07 -1.06348 6.02892 0
M  V30 41962 C 5749.93 -0.897649 7.22545 0
M  V30 41963 H 5749.96 -1.9841 7.04286 0
M  V30 41964 H 5751.14 0.739928 6.497 0
M  V30 41965 H 5752.63 0.60668 8.36503 0
M  V30 41966 H 5750.93 -0.352479 10.1829 0
M  V30 41967 H 5750.74 2.00611 10.0304 0
M  V30 41968 H 5749.11 1.41843 9.55327 0
M  V30 41969 H 5751.75 -1.95734 6.03555 0
M  V30 41970 P 5753.61 -1.25109 8.70152 0
M  V30 41971 O 5755.03 -1.35274 9.21221 0
M  V30 41972 O 5753.25 -0.0769065 7.84762 0
M  V30 41973 O 5753.29 -2.55232 7.81161 0
M  V30 41974 C 5753.13 -3.79939 8.58154 0
M  V30 41975 C 5753.67 -4.94023 7.72785 0
M  V30 41976 O 5752.61 -5.18726 6.91205 0
M  V30 41977 C 5754.89 -4.69597 6.85231 0
M  V30 41978 O 5755.62 -5.83832 6.51337 0
M  V30 41979 C 5754.22 -3.96706 5.66633 0
M  V30 41980 O 5755.02 -4.15414 4.49689 0
M  V30 41981 C 5752.88 -4.66153 5.59313 0
M  V30 41982 H 5752.91 -5.47679 4.85214 0
M  V30 41983 H 5754.1 -2.89008 5.86566 0
M  V30 41984 H 5755.58 -4.0121 7.36511 0
M  V30 41985 H 5753.89 -5.80182 8.37584 0
M  V30 41986 H 5753.7 -3.73517 9.52265 0
M  V30 41987 H 5752.07 -3.97163 8.80359 0
M  V30 41988 H 5754.7 -4.90969 4.01921 0
M  V30 41989 P 5756.56 -5.75688 6.64379 0
M  V30 41990 O 5757.98 -6.11849 7.01846 0
M  V30 41991 O 5756.2 -4.30744 6.56026 0
M  V30 41992 O 5756.24 -6.37042 5.19165 0
M  V30 41993 C 5756.08 -7.83578 5.16515 0
M  V30 41994 C 5756.62 -8.33398 3.83019 0
M  V30 41995 O 5755.56 -8.10074 3.01034 0
M  V30 41996 C 5757.84 -7.65514 3.2257 0
M  V30 41997 O 5758.58 -8.4329 2.32297 0
M  V30 41998 C 5757.17 -6.40075 2.62207 0
M  V30 41999 O 5757.97 -5.92589 1.53712 0
M  V30 42000 C 5755.83 -6.9454 2.18503 0
M  V30 42001 H 5755.86 -7.23063 1.12091 0
M  V30 42002 H 5757.05 -5.6025 3.37201 0
M  V30 42003 H 5758.53 -7.35707 4.02681 0
M  V30 42004 H 5756.84 -9.40912 3.9095 0
M  V30 42005 H 5756.65 -8.29056 5.99158 0
M  V30 42006 H 5755.02 -8.10073 5.25882 0
M  V30 42007 H 5757.66 -6.30324 0.726794 0
M  V30 42008 P 5759.51 -8.4349 2.47671 0
M  V30 42009 O 5760.93 -8.94167 2.5964 0
M  V30 42010 O 5759.15 -7.1704 3.19006 0
M  V30 42011 O 5759.19 -8.16596 0.923387 0
M  V30 42012 C 5759.03 -9.38437 0.108857 0
M  V30 42013 C 5759.57 -9.08175 -1.28353 0
M  V30 42014 O 5758.51 -8.44229 -1.84713 0
M  V30 42015 C 5760.79 -8.18386 -1.42505 0
M  V30 42016 O 5761.53 -8.3501 -2.60497 0
M  V30 42017 C 5760.12 -6.80225 -1.25468 0
M  V30 42018 O 5760.92 -5.81621 -1.91066 0
M  V30 42019 C 5758.78 -7.02416 -1.9168 0
M  V30 42020 H 5758.81 -6.6888 -2.96621 0
M  V30 42021 H 5760 -6.53617 -0.192223 0
M  V30 42022 H 5761.48 -8.36622 -0.589963 0
M  V30 42023 H 5759.79 -10.0291 -1.79807 0
M  V30 42024 H 5759.6 -10.2138 0.558219 0
M  V30 42025 H 5757.97 -9.6579 0.0444202 0
M  V30 42026 H 5760.61 -5.69556 -2.79637 0
M  V30 42027 P 5762.46 -8.4349 -2.47671 0
M  V30 42028 O 5763.89 -8.92593 -2.65 0
M  V30 42029 O 5762.1 -7.7568 -1.19296 0
M  V30 42030 O 5762.14 -7.36886 -3.63805 0
M  V30 42031 C 5761.98 -7.95349 -4.982 0
M  V30 42032 C 5762.52 -6.94612 -5.98974 0
M  V30 42033 O 5761.46 -6.10347 -6.11815 0
M  V30 42034 C 5763.74 -6.11426 -5.62335 0
M  V30 42035 O 5764.48 -5.6162 -6.70584 0
M  V30 42036 C 5763.07 -5.04409 -4.73308 0
M  V30 42037 O 5763.87 -3.85992 -4.75183 0
M  V30 42038 C 5761.73 -4.8728 -5.41006 0
M  V30 42039 H 5761.76 -4.02333 -6.11157 0
M  V30 42040 H 5762.95 -5.39466 -3.69543 0
M  V30 42041 H 5764.43 -6.71916 -5.01943 0
M  V30 42042 H 5762.74 -7.4649 -6.93477 0
M  V30 42043 H 5762.55 -8.89416 -5.05237 0
M  V30 42044 H 5760.92 -8.14876 -5.18409 0
M  V30 42045 H 5763.56 -3.27957 -5.4317 0
M  V30 42046 P 5765.41 -5.75688 -6.64379 0
M  V30 42047 O 5766.84 -6.07627 -7.05504 0
M  V30 42048 O 5765.05 -5.88047 -5.19722 0
M  V30 42049 O 5765.09 -4.2322 -7.04443 0
M  V30 42050 C 5764.93 -3.99743 -8.4911 0
M  V30 42051 C 5765.47 -2.60516 -8.79425 0
M  V30 42052 O 5764.41 -1.82684 -8.4467 0
M  V30 42053 C 5766.69 -2.10343 -8.03628 0
M  V30 42054 O 5767.43 -1.09919 -8.67766 0
M  V30 42055 C 5766.02 -1.68446 -6.70876 0
M  V30 42056 O 5766.82 -0.678137 -6.08433 0
M  V30 42057 C 5764.68 -1.17436 -7.18567 0
M  V30 42058 H 5764.71 -0.0804732 -7.31656 0
M  V30 42059 H 5765.9 -2.54037 -6.02537 0
M  V30 42060 H 5767.38 -2.93881 -7.85526 0
M  V30 42061 H 5765.69 -2.53065 -9.86973 0
M  V30 42062 H 5765.5 -4.75072 -9.05887 0
M  V30 42063 H 5763.87 -4.05244 -8.76668 0
M  V30 42064 H 5766.51 0.177647 -6.34251 0
M  V30 42065 P 5768.36 -1.25109 -8.70152 0
M  V30 42066 O 5769.79 -1.29744 -9.22016 0
M  V30 42067 O 5768 -2.13714 -7.55141 0
M  V30 42068 O 5768.04 0.248149 -8.21425 0
M  V30 42069 C 5767.88 1.22779 -9.30434 0
M  V30 42070 C 5768.42 2.56293 -8.80664 0
M  V30 42071 O 5767.37 3.02979 -8.09349 0
M  V30 42072 C 5769.64 2.57523 -7.89775 0
M  V30 42073 O 5770.38 3.7668 -7.89438 0
M  V30 42074 C 5768.97 2.20997 -6.55446 0
M  V30 42075 O 5769.77 2.71895 -5.48509 0
M  V30 42076 C 5767.63 2.89693 -6.67988 0
M  V30 42077 H 5767.67 3.88793 -6.19859 0
M  V30 42078 H 5768.85 1.12046 -6.44229 0
M  V30 42079 H 5770.33 1.7746 -8.19711 0
M  V30 42080 H 5768.64 3.20706 -9.67112 0
M  V30 42081 H 5768.45 0.901032 -10.1892 0
M  V30 42082 H 5766.82 1.33049 -9.56592 0
M  V30 42083 H 5769.46 3.57847 -5.23962 0
M  V30 42084 P 5771.31 3.65191 -7.99657 0
M  V30 42085 O 5772.74 3.89332 -8.45794 0
M  V30 42086 O 5770.95 2.28472 -7.50807 0
M  V30 42087 O 5770.99 4.64972 -6.77611 0
M  V30 42088 C 5770.83 6.06319 -7.16352 0
M  V30 42089 C 5771.37 6.91731 -6.02299 0
M  V30 42090 O 5770.32 6.92449 -5.17064 0
M  V30 42091 C 5772.59 6.43627 -5.25174 0
M  V30 42092 O 5773.33 7.43686 -4.60469 0
M  V30 42093 C 5771.92 5.40275 -4.31916 0
M  V30 42094 O 5772.72 5.25279 -3.14438 0
M  V30 42095 C 5770.58 6.04847 -4.05327 0
M  V30 42096 H 5770.62 6.62195 -3.11261 0
M  V30 42097 H 5771.8 4.42556 -4.81383 0
M  V30 42098 H 5773.28 5.92458 -5.93643 0
M  V30 42099 H 5771.59 7.92655 -6.402 0
M  V30 42100 H 5771.4 6.26671 -8.0846 0
M  V30 42101 H 5769.77 6.29101 -7.32804 0
M  V30 42102 H 5772.41 5.84315 -2.47318 0
M  V30 42103 P 5774.27 7.39546 -4.75277 0
M  V30 42104 O 5775.69 7.84882 -5.01092 0
M  V30 42105 O 5773.91 5.9812 -5.08098 0
M  V30 42106 O 5773.94 7.57503 -3.1866 0
M  V30 42107 C 5773.78 8.97452 -2.74862 0
M  V30 42108 C 5774.32 9.07548 -1.32709 0
M  V30 42109 O 5773.27 8.61972 -0.606089 0
M  V30 42110 C 5775.54 8.25383 -0.938334 0
M  V30 42111 O 5776.28 8.74577 0.146954 0
M  V30 42112 C 5774.87 6.8802 -0.712559 0
M  V30 42113 O 5775.67 6.1181 0.188505 0
M  V30 42114 C 5773.53 7.27966 -0.139777 0
M  V30 42115 N 5772.49 6.39368 -0.623421 0
M  V30 42116 C 5772.66 5.71761 -1.78245 0
M  V30 42117 N 5771.63 4.962 -2.10491 0
M  V30 42118 C 5770.75 5.16158 -1.0635 0
M  V30 42119 C 5769.48 4.60425 -0.810266 0
M  V30 42120 N 5768.88 3.7057 -1.62914 0
M  V30 42121 N 5768.92 5.06 0.348685 0
M  V30 42122 C 5769.52 5.94532 1.20395 0
M  V30 42123 N 5770.7 6.48452 1.01191 0
M  V30 42124 C 5771.27 6.04423 -0.146291 0
M  V30 42125 H 5773.57 7.25255 0.961469 0
M  V30 42126 H 5774.75 6.32625 -1.65044 0
M  V30 42127 H 5776.23 8.19355 -1.79097 0
M  V30 42128 H 5774.54 10.1305 -1.09016 0
M  V30 42129 H 5774.35 9.64276 -3.41316 0
M  V30 42130 H 5772.72 9.25417 -2.76357 0
M  V30 42131 H 5768.98 6.21659 2.10714 0
M  V30 42132 H 5773.56 5.79354 -2.38959 0
M  V30 42133 H 5767.95 3.33174 -1.38982 0
M  V30 42134 H 5769.36 3.39714 -2.48836 0
M  V30 42135 H 5775.36 6.25169 1.0783 0
M  V30 42136 P 5777.22 8.791 -3.11578e-10 0
M  V30 42137 O 5778.64 9.31096 0.027933 0
M  V30 42138 O 5776.86 7.77869 -1.04071 0
M  V30 42139 O 5776.89 8.09533 1.41463 0
M  V30 42140 C 5776.73 9.0349 2.53943 0
M  V30 42141 C 5777.27 8.35226 3.79016 0
M  V30 42142 O 5776.22 7.57992 4.15078 0
M  V30 42143 C 5778.49 7.45087 3.67298 0
M  V30 42144 O 5779.23 7.27796 4.85194 0
M  V30 42145 C 5777.82 6.17323 3.12027 0
M  V30 42146 O 5778.62 5.04231 3.47188 0
M  V30 42147 C 5776.49 6.19961 3.81809 0
M  V30 42148 H 5776.52 5.58218 4.73051 0
M  V30 42149 H 5777.7 6.21726 2.02589 0
M  V30 42150 H 5779.18 7.86112 2.9231 0
M  V30 42151 H 5777.49 9.11627 4.55076 0
M  V30 42152 H 5777.3 9.9573 2.34194 0
M  V30 42153 H 5775.67 9.2792 2.67832 0
M  V30 42154 H 5778.31 4.67702 4.28772 0
M  V30 42155 P 5780.17 7.39546 4.75277 0
M  V30 42156 O 5781.59 7.81777 5.05738 0
M  V30 42157 O 5779.81 7.1065 3.32998 0
M  V30 42158 O 5779.84 6.04542 5.56673 0
M  V30 42159 C 5779.68 6.22772 7.02095 0
M  V30 42160 C 5780.22 4.97725 7.70406 0
M  V30 42161 O 5779.17 4.13256 7.58987 0
M  V30 42162 C 5781.44 4.28231 7.11815 0
M  V30 42163 O 5782.18 3.49945 8.01648 0
M  V30 42164 C 5780.77 3.5063 5.96244 0
M  V30 42165 O 5781.57 2.36482 5.64681 0
M  V30 42166 C 5779.44 3.15122 6.56374 0
M  V30 42167 H 5779.47 2.13853 6.99751 0
M  V30 42168 H 5780.65 4.13501 5.06559 0
M  V30 42169 H 5782.13 5.03285 6.70911 0
M  V30 42170 H 5780.44 5.20877 8.75697 0
M  V30 42171 H 5780.25 7.11046 7.35349 0
M  V30 42172 H 5778.62 6.35815 7.26986 0
M  V30 42173 H 5781.26 1.61644 6.13565 0
M  V30 42174 P 5783.12 3.65191 7.99657 0
M  V30 42175 O 5784.54 3.8425 8.48115 0
M  V30 42176 O 5782.76 4.17805 6.64342 0
M  V30 42177 O 5782.79 2.07613 7.95143 0
M  V30 42178 C 5782.63 1.44328 9.27336 0
M  V30 42179 C 5783.17 0.0220036 9.17197 0
M  V30 42180 O 5782.12 -0.626867 8.61923 0
M  V30 42181 C 5784.39 -0.24586 8.30336 0
M  V30 42182 O 5785.13 -1.39011 8.63583 0
M  V30 42183 C 5783.72 -0.273849 6.91158 0
M  V30 42184 O 5784.52 -1.06348 6.02892 0
M  V30 42185 C 5782.39 -0.897649 7.22545 0
M  V30 42186 H 5782.42 -1.9841 7.04286 0
M  V30 42187 H 5783.6 0.739928 6.497 0
M  V30 42188 H 5785.09 0.60668 8.36503 0
M  V30 42189 H 5783.39 -0.352479 10.1829 0
M  V30 42190 H 5783.2 2.00611 10.0304 0
M  V30 42191 H 5781.57 1.41843 9.55327 0
M  V30 42192 H 5784.21 -1.95734 6.03555 0
M  V30 42193 P 5786.07 -1.25109 8.70152 0
M  V30 42194 O 5787.49 -1.35274 9.21221 0
M  V30 42195 O 5785.71 -0.0769065 7.84762 0
M  V30 42196 O 5785.74 -2.55232 7.81161 0
M  V30 42197 C 5785.58 -3.79939 8.58154 0
M  V30 42198 C 5786.12 -4.94023 7.72785 0
M  V30 42199 O 5785.07 -5.18726 6.91205 0
M  V30 42200 C 5787.34 -4.69597 6.85231 0
M  V30 42201 O 5788.08 -5.83832 6.51337 0
M  V30 42202 C 5786.67 -3.96706 5.66633 0
M  V30 42203 O 5787.47 -4.15414 4.49689 0
M  V30 42204 C 5785.34 -4.66153 5.59313 0
M  V30 42205 H 5785.37 -5.47679 4.85214 0
M  V30 42206 H 5786.55 -2.89008 5.86566 0
M  V30 42207 H 5788.04 -4.0121 7.36511 0
M  V30 42208 H 5786.34 -5.80182 8.37584 0
M  V30 42209 H 5786.15 -3.73517 9.52265 0
M  V30 42210 H 5784.52 -3.97163 8.80359 0
M  V30 42211 H 5787.16 -4.90969 4.01921 0
M  V30 42212 P 5789.02 -5.75688 6.64379 0
M  V30 42213 O 5790.44 -6.11849 7.01846 0
M  V30 42214 O 5788.66 -4.30744 6.56026 0
M  V30 42215 O 5788.7 -6.37042 5.19165 0
M  V30 42216 C 5788.54 -7.83578 5.16515 0
M  V30 42217 C 5789.08 -8.33398 3.83019 0
M  V30 42218 O 5788.02 -8.10074 3.01034 0
M  V30 42219 C 5790.29 -7.65514 3.2257 0
M  V30 42220 O 5791.03 -8.4329 2.32297 0
M  V30 42221 C 5789.62 -6.40075 2.62207 0
M  V30 42222 O 5790.42 -5.92589 1.53712 0
M  V30 42223 C 5788.29 -6.9454 2.18503 0
M  V30 42224 H 5788.32 -7.23063 1.12091 0
M  V30 42225 H 5789.5 -5.6025 3.37201 0
M  V30 42226 H 5790.99 -7.35707 4.02681 0
M  V30 42227 H 5789.29 -9.40912 3.9095 0
M  V30 42228 H 5789.1 -8.29056 5.99158 0
M  V30 42229 H 5787.47 -8.10073 5.25882 0
M  V30 42230 H 5790.11 -6.30324 0.726794 0
M  V30 42231 P 5791.97 -8.4349 2.47671 0
M  V30 42232 O 5793.39 -8.94167 2.5964 0
M  V30 42233 O 5791.61 -7.1704 3.19006 0
M  V30 42234 O 5791.65 -8.16596 0.923387 0
M  V30 42235 C 5791.49 -9.38437 0.108857 0
M  V30 42236 C 5792.03 -9.08175 -1.28353 0
M  V30 42237 O 5790.97 -8.44229 -1.84713 0
M  V30 42238 C 5793.24 -8.18386 -1.42505 0
M  V30 42239 O 5793.98 -8.3501 -2.60497 0
M  V30 42240 C 5792.57 -6.80225 -1.25468 0
M  V30 42241 O 5793.37 -5.81621 -1.91066 0
M  V30 42242 C 5791.24 -7.02416 -1.9168 0
M  V30 42243 H 5791.27 -6.6888 -2.96621 0
M  V30 42244 H 5792.45 -6.53617 -0.192223 0
M  V30 42245 H 5793.94 -8.36622 -0.589963 0
M  V30 42246 H 5792.24 -10.0291 -1.79807 0
M  V30 42247 H 5792.05 -10.2138 0.558219 0
M  V30 42248 H 5790.42 -9.6579 0.0444202 0
M  V30 42249 H 5793.06 -5.69556 -2.79637 0
M  V30 42250 P 5794.92 -8.4349 -2.47671 0
M  V30 42251 O 5796.34 -8.92593 -2.65 0
M  V30 42252 O 5794.56 -7.7568 -1.19296 0
M  V30 42253 O 5794.6 -7.36886 -3.63805 0
M  V30 42254 C 5794.44 -7.95349 -4.982 0
M  V30 42255 C 5794.98 -6.94612 -5.98974 0
M  V30 42256 O 5793.92 -6.10347 -6.11815 0
M  V30 42257 C 5796.19 -6.11426 -5.62335 0
M  V30 42258 O 5796.93 -5.6162 -6.70584 0
M  V30 42259 C 5795.53 -5.04409 -4.73308 0
M  V30 42260 O 5796.32 -3.85992 -4.75183 0
M  V30 42261 C 5794.19 -4.8728 -5.41006 0
M  V30 42262 H 5794.22 -4.02333 -6.11157 0
M  V30 42263 H 5795.4 -5.39466 -3.69543 0
M  V30 42264 H 5796.89 -6.71916 -5.01943 0
M  V30 42265 H 5795.19 -7.4649 -6.93477 0
M  V30 42266 H 5795 -8.89416 -5.05237 0
M  V30 42267 H 5793.37 -8.14876 -5.18409 0
M  V30 42268 H 5796.01 -3.27957 -5.4317 0
M  V30 42269 P 5797.87 -5.75688 -6.64379 0
M  V30 42270 O 5799.29 -6.07627 -7.05504 0
M  V30 42271 O 5797.51 -5.88047 -5.19722 0
M  V30 42272 O 5797.55 -4.2322 -7.04443 0
M  V30 42273 C 5797.39 -3.99743 -8.4911 0
M  V30 42274 C 5797.93 -2.60516 -8.79425 0
M  V30 42275 O 5796.87 -1.82684 -8.4467 0
M  V30 42276 C 5799.15 -2.10343 -8.03628 0
M  V30 42277 O 5799.88 -1.09919 -8.67766 0
M  V30 42278 C 5798.48 -1.68446 -6.70876 0
M  V30 42279 O 5799.28 -0.678137 -6.08433 0
M  V30 42280 C 5797.14 -1.17436 -7.18567 0
M  V30 42281 H 5797.17 -0.0804732 -7.31656 0
M  V30 42282 H 5798.35 -2.54037 -6.02537 0
M  V30 42283 H 5799.84 -2.93881 -7.85526 0
M  V30 42284 H 5798.14 -2.53065 -9.86973 0
M  V30 42285 H 5797.95 -4.75072 -9.05887 0
M  V30 42286 H 5796.32 -4.05244 -8.76668 0
M  V30 42287 H 5798.96 0.177647 -6.34251 0
M  V30 42288 P 5800.82 -1.25109 -8.70152 0
M  V30 42289 O 5802.24 -1.29744 -9.22016 0
M  V30 42290 O 5800.46 -2.13714 -7.55141 0
M  V30 42291 O 5800.5 0.248149 -8.21425 0
M  V30 42292 C 5800.34 1.22779 -9.30434 0
M  V30 42293 C 5800.88 2.56293 -8.80664 0
M  V30 42294 O 5799.82 3.02979 -8.09349 0
M  V30 42295 C 5802.1 2.57523 -7.89775 0
M  V30 42296 O 5802.83 3.7668 -7.89438 0
M  V30 42297 C 5801.43 2.20997 -6.55446 0
M  V30 42298 O 5802.23 2.71895 -5.48509 0
M  V30 42299 C 5800.09 2.89693 -6.67988 0
M  V30 42300 H 5800.12 3.88793 -6.19859 0
M  V30 42301 H 5801.3 1.12046 -6.44229 0
M  V30 42302 H 5802.79 1.7746 -8.19711 0
M  V30 42303 H 5801.09 3.20706 -9.67112 0
M  V30 42304 H 5800.9 0.901032 -10.1892 0
M  V30 42305 H 5799.27 1.33049 -9.56592 0
M  V30 42306 H 5801.91 3.57847 -5.23962 0
M  V30 42307 P 5803.77 3.65191 -7.99657 0
M  V30 42308 O 5805.19 3.89332 -8.45794 0
M  V30 42309 O 5803.41 2.28472 -7.50807 0
M  V30 42310 O 5803.45 4.64972 -6.77611 0
M  V30 42311 C 5803.29 6.06319 -7.16352 0
M  V30 42312 C 5803.83 6.91731 -6.02299 0
M  V30 42313 O 5802.77 6.92449 -5.17064 0
M  V30 42314 C 5805.05 6.43627 -5.25174 0
M  V30 42315 O 5805.78 7.43686 -4.60469 0
M  V30 42316 C 5804.38 5.40275 -4.31916 0
M  V30 42317 O 5805.18 5.25279 -3.14438 0
M  V30 42318 C 5803.04 6.04847 -4.05327 0
M  V30 42319 H 5803.07 6.62195 -3.11261 0
M  V30 42320 H 5804.26 4.42556 -4.81383 0
M  V30 42321 H 5805.74 5.92458 -5.93643 0
M  V30 42322 H 5804.05 7.92655 -6.402 0
M  V30 42323 H 5803.86 6.26671 -8.0846 0
M  V30 42324 H 5802.23 6.29101 -7.32804 0
M  V30 42325 H 5804.86 5.84315 -2.47318 0
M  V30 42326 P 5806.72 7.39546 -4.75277 0
M  V30 42327 O 5808.14 7.84798 -5.01039 0
M  V30 42328 O 5806.36 5.9812 -5.08098 0
M  V30 42329 O 5806.4 7.57503 -3.1866 0
M  V30 42330 C 5806.24 8.97357 -2.74833 0
M  V30 42331 C 5806.78 9.07548 -1.32709 0
M  V30 42332 O 5805.72 8.62072 -0.606159 0
M  V30 42333 C 5808 8.25383 -0.938334 0
M  V30 42334 O 5808.73 8.74577 0.146954 0
M  V30 42335 C 5807.33 6.8802 -0.712559 0
M  V30 42336 O 5808.13 6.1189 0.194655 0
M  V30 42337 C 5805.99 7.27966 -0.139777 0
M  V30 42338 H 5806.02 7.25354 0.961601 0
M  V30 42339 H 5807.21 6.32557 -1.65702 0
M  V30 42340 H 5808.69 8.19355 -1.79097 0
M  V30 42341 H 5807 10.1294 -1.10029 0
M  V30 42342 H 5806.81 9.64276 -3.41316 0
M  V30 42343 H 5805.18 9.25417 -2.76357 0
M  V30 42344 H 5807.81 6.25267 1.07847 0
M  V30 42345 P 5809.67 8.791 -3.05771e-10 0
M  V30 42346 O 5811.09 9.31296 0.027939 0
M  V30 42347 O 5809.31 7.77869 -1.04071 0
M  V30 42348 O 5809.35 8.09533 1.41463 0
M  V30 42349 C 5809.19 9.0349 2.53943 0
M  V30 42350 C 5809.73 8.35135 3.78975 0
M  V30 42351 O 5808.67 7.57992 4.15078 0
M  V30 42352 C 5810.95 7.45087 3.67298 0
M  V30 42353 O 5811.69 7.27796 4.85194 0
M  V30 42354 C 5810.28 6.17323 3.12027 0
M  V30 42355 O 5811.08 5.04149 3.47132 0
M  V30 42356 C 5808.94 6.19961 3.81809 0
M  V30 42357 N 5807.9 5.71575 2.93223 0
M  V30 42358 C 5807.96 5.97133 1.62693 0
M  V30 42359 N 5806.92 5.44066 0.984414 0
M  V30 42360 C 5806.18 4.87093 1.93987 0
M  V30 42361 C 5804.88 4.26449 1.8738 0
M  V30 42362 O 5804.14 4.1089 0.884377 0
M  V30 42363 N 5804.45 3.82483 3.08036 0
M  V30 42364 C 5805.19 3.95124 4.27727 0
M  V30 42365 N 5804.6 3.4084 5.39089 0
M  V30 42366 N 5806.35 4.55264 4.3706 0
M  V30 42367 C 5806.8 5.00861 3.18217 0
M  V30 42368 H 5808.97 5.58218 4.73051 0
M  V30 42369 H 5810.16 6.21631 2.02558 0
M  V30 42370 H 5811.64 7.85819 2.93096 0
M  V30 42371 H 5809.95 9.11627 4.55076 0
M  V30 42372 H 5809.76 9.9573 2.34194 0
M  V30 42373 H 5808.13 9.2792 2.67832 0
M  V30 42374 H 5803.55 3.38323 3.1329 0
M  V30 42375 H 5808.76 6.53891 1.14265 0
M  V30 42376 H 5803.69 2.93852 5.30559 0
M  V30 42377 H 5805.06 3.47631 6.30632 0
M  V30 42378 H 5810.77 4.67628 4.28704 0
M  V30 42379 P 5812.62 7.39546 4.75277 0
M  V30 42380 O 5814.04 7.81777 5.05738 0
M  V30 42381 O 5812.26 7.1065 3.32998 0
M  V30 42382 O 5812.3 6.04542 5.56673 0
M  V30 42383 C 5812.14 6.22772 7.02095 0
M  V30 42384 C 5812.68 4.97725 7.70406 0
M  V30 42385 O 5811.62 4.13256 7.58987 0
M  V30 42386 C 5813.9 4.28231 7.11815 0
M  V30 42387 O 5814.64 3.49945 8.01648 0
M  V30 42388 C 5813.23 3.5063 5.96244 0
M  V30 42389 O 5814.03 2.36482 5.64681 0
M  V30 42390 C 5811.89 3.15122 6.56374 0
M  V30 42391 H 5811.92 2.13853 6.99751 0
M  V30 42392 H 5813.11 4.13501 5.06559 0
M  V30 42393 H 5814.59 5.03285 6.70911 0
M  V30 42394 H 5812.9 5.20877 8.75697 0
M  V30 42395 H 5812.71 7.11046 7.35349 0
M  V30 42396 H 5811.08 6.35815 7.26986 0
M  V30 42397 H 5813.72 1.61644 6.13565 0
M  V30 42398 P 5815.57 3.65191 7.99657 0
M  V30 42399 O 5817 3.8425 8.48115 0
M  V30 42400 O 5815.21 4.17805 6.64342 0
M  V30 42401 O 5815.25 2.07613 7.95143 0
M  V30 42402 C 5815.09 1.44328 9.27336 0
M  V30 42403 C 5815.63 0.0220036 9.17197 0
M  V30 42404 O 5814.57 -0.626867 8.61923 0
M  V30 42405 C 5816.85 -0.24586 8.30336 0
M  V30 42406 O 5817.59 -1.39011 8.63583 0
M  V30 42407 C 5816.18 -0.273849 6.91158 0
M  V30 42408 O 5816.98 -1.06348 6.02892 0
M  V30 42409 C 5814.84 -0.897649 7.22545 0
M  V30 42410 H 5814.87 -1.9841 7.04286 0
M  V30 42411 H 5816.06 0.739928 6.497 0
M  V30 42412 H 5817.54 0.60668 8.36503 0
M  V30 42413 H 5815.85 -0.352479 10.1829 0
M  V30 42414 H 5815.66 2.00611 10.0304 0
M  V30 42415 H 5814.03 1.41843 9.55327 0
M  V30 42416 H 5816.67 -1.95734 6.03555 0
M  V30 42417 P 5818.52 -1.25109 8.70152 0
M  V30 42418 O 5819.95 -1.35274 9.21221 0
M  V30 42419 O 5818.16 -0.0769065 7.84762 0
M  V30 42420 O 5818.2 -2.55232 7.81161 0
M  V30 42421 C 5818.04 -3.79939 8.58154 0
M  V30 42422 C 5818.58 -4.94023 7.72785 0
M  V30 42423 O 5817.53 -5.18726 6.91205 0
M  V30 42424 C 5819.8 -4.69597 6.85231 0
M  V30 42425 O 5820.54 -5.83832 6.51337 0
M  V30 42426 C 5819.13 -3.96706 5.66633 0
M  V30 42427 O 5819.93 -4.15414 4.49689 0
M  V30 42428 C 5817.79 -4.66153 5.59313 0
M  V30 42429 H 5817.83 -5.47679 4.85214 0
M  V30 42430 H 5819.01 -2.89008 5.86566 0
M  V30 42431 H 5820.49 -4.0121 7.36511 0
M  V30 42432 H 5818.8 -5.80182 8.37584 0
M  V30 42433 H 5818.61 -3.73517 9.52265 0
M  V30 42434 H 5816.98 -3.97163 8.80359 0
M  V30 42435 H 5819.62 -4.90969 4.01921 0
M  V30 42436 P 5821.47 -5.75688 6.64379 0
M  V30 42437 O 5822.9 -6.11849 7.01846 0
M  V30 42438 O 5821.11 -4.30744 6.56026 0
M  V30 42439 O 5821.15 -6.37042 5.19165 0
M  V30 42440 C 5820.99 -7.83578 5.16515 0
M  V30 42441 C 5821.53 -8.33398 3.83019 0
M  V30 42442 O 5820.48 -8.10074 3.01034 0
M  V30 42443 C 5822.75 -7.65514 3.2257 0
M  V30 42444 O 5823.49 -8.4329 2.32297 0
M  V30 42445 C 5822.08 -6.40075 2.62207 0
M  V30 42446 O 5822.88 -5.92589 1.53712 0
M  V30 42447 C 5820.74 -6.9454 2.18503 0
M  V30 42448 H 5820.78 -7.23063 1.12091 0
M  V30 42449 H 5821.96 -5.6025 3.37201 0
M  V30 42450 H 5823.44 -7.35707 4.02681 0
M  V30 42451 H 5821.75 -9.40912 3.9095 0
M  V30 42452 H 5821.56 -8.29056 5.99158 0
M  V30 42453 H 5819.93 -8.10073 5.25882 0
M  V30 42454 H 5822.57 -6.30324 0.726794 0
M  V30 42455 P 5824.43 -8.4349 2.47671 0
M  V30 42456 O 5825.85 -8.94167 2.5964 0
M  V30 42457 O 5824.07 -7.1704 3.19006 0
M  V30 42458 O 5824.1 -8.16596 0.923387 0
M  V30 42459 C 5823.94 -9.38437 0.108857 0
M  V30 42460 C 5824.48 -9.08175 -1.28353 0
M  V30 42461 O 5823.43 -8.44229 -1.84713 0
M  V30 42462 C 5825.7 -8.18386 -1.42505 0
M  V30 42463 O 5826.44 -8.3501 -2.60497 0
M  V30 42464 C 5825.03 -6.80225 -1.25468 0
M  V30 42465 O 5825.83 -5.81621 -1.91066 0
M  V30 42466 C 5823.69 -7.02416 -1.9168 0
M  V30 42467 H 5823.73 -6.6888 -2.96621 0
M  V30 42468 H 5824.91 -6.53617 -0.192223 0
M  V30 42469 H 5826.39 -8.36622 -0.589963 0
M  V30 42470 H 5824.7 -10.0291 -1.79807 0
M  V30 42471 H 5824.51 -10.2138 0.558219 0
M  V30 42472 H 5822.88 -9.6579 0.0444202 0
M  V30 42473 H 5825.52 -5.69556 -2.79637 0
M  V30 42474 P 5827.38 -8.4349 -2.47671 0
M  V30 42475 O 5828.8 -8.92593 -2.65 0
M  V30 42476 O 5827.02 -7.7568 -1.19296 0
M  V30 42477 O 5827.05 -7.36886 -3.63805 0
M  V30 42478 C 5826.89 -7.95349 -4.982 0
M  V30 42479 C 5827.43 -6.94612 -5.98974 0
M  V30 42480 O 5826.38 -6.10347 -6.11815 0
M  V30 42481 C 5828.65 -6.11426 -5.62335 0
M  V30 42482 O 5829.39 -5.6162 -6.70584 0
M  V30 42483 C 5827.98 -5.04409 -4.73308 0
M  V30 42484 O 5828.78 -3.85992 -4.75183 0
M  V30 42485 C 5826.64 -4.8728 -5.41006 0
M  V30 42486 H 5826.68 -4.02333 -6.11157 0
M  V30 42487 H 5827.86 -5.39466 -3.69543 0
M  V30 42488 H 5829.34 -6.71916 -5.01943 0
M  V30 42489 H 5827.65 -7.4649 -6.93477 0
M  V30 42490 H 5827.46 -8.89416 -5.05237 0
M  V30 42491 H 5825.83 -8.14876 -5.18409 0
M  V30 42492 H 5828.47 -3.27957 -5.4317 0
M  V30 42493 P 5830.33 -5.75688 -6.64379 0
M  V30 42494 O 5831.75 -6.07627 -7.05504 0
M  V30 42495 O 5829.97 -5.88047 -5.19722 0
M  V30 42496 O 5830 -4.2322 -7.04443 0
M  V30 42497 C 5829.84 -3.99743 -8.4911 0
M  V30 42498 C 5830.38 -2.60516 -8.79425 0
M  V30 42499 O 5829.33 -1.82684 -8.4467 0
M  V30 42500 C 5831.6 -2.10343 -8.03628 0
M  V30 42501 O 5832.34 -1.09919 -8.67766 0
M  V30 42502 C 5830.93 -1.68446 -6.70876 0
M  V30 42503 O 5831.73 -0.678137 -6.08433 0
M  V30 42504 C 5829.6 -1.17436 -7.18567 0
M  V30 42505 H 5829.63 -0.0804732 -7.31656 0
M  V30 42506 H 5830.81 -2.54037 -6.02537 0
M  V30 42507 H 5832.29 -2.93881 -7.85526 0
M  V30 42508 H 5830.6 -2.53065 -9.86973 0
M  V30 42509 H 5830.41 -4.75072 -9.05887 0
M  V30 42510 H 5828.78 -4.05244 -8.76668 0
M  V30 42511 H 5831.42 0.177647 -6.34251 0
M  V30 42512 P 5833.28 -1.25109 -8.70152 0
M  V30 42513 O 5834.7 -1.29744 -9.22016 0
M  V30 42514 O 5832.92 -2.13714 -7.55141 0
M  V30 42515 O 5832.95 0.248149 -8.21425 0
M  V30 42516 C 5832.79 1.22779 -9.30434 0
M  V30 42517 C 5833.33 2.56293 -8.80664 0
M  V30 42518 O 5832.28 3.02979 -8.09349 0
M  V30 42519 C 5834.55 2.57523 -7.89775 0
M  V30 42520 O 5835.29 3.7668 -7.89438 0
M  V30 42521 C 5833.88 2.20997 -6.55446 0
M  V30 42522 O 5834.68 2.71895 -5.48509 0
M  V30 42523 C 5832.55 2.89693 -6.67988 0
M  V30 42524 H 5832.58 3.88793 -6.19859 0
M  V30 42525 H 5833.76 1.12046 -6.44229 0
M  V30 42526 H 5835.24 1.7746 -8.19711 0
M  V30 42527 H 5833.55 3.20706 -9.67112 0
M  V30 42528 H 5833.36 0.901032 -10.1892 0
M  V30 42529 H 5831.73 1.33049 -9.56592 0
M  V30 42530 H 5834.37 3.57847 -5.23962 0
M  V30 42531 P 5836.23 3.65191 -7.99657 0
M  V30 42532 O 5837.65 3.89374 -8.45885 0
M  V30 42533 O 5835.87 2.28472 -7.50807 0
M  V30 42534 O 5835.9 4.64972 -6.77611 0
M  V30 42535 C 5835.74 6.06383 -7.16428 0
M  V30 42536 C 5836.28 6.91731 -6.02299 0
M  V30 42537 O 5835.23 6.92369 -5.17005 0
M  V30 42538 C 5837.5 6.43627 -5.25174 0
M  V30 42539 O 5838.24 7.43686 -4.60469 0
M  V30 42540 C 5836.83 5.40275 -4.31916 0
M  V30 42541 O 5837.63 5.24878 -3.14911 0
M  V30 42542 C 5835.5 6.04847 -4.05327 0
M  V30 42543 N 5834.45 5.04166 -3.98114 0
M  V30 42544 C 5834.62 3.84629 -4.59066 0
M  V30 42545 N 5833.6 3.0363 -4.45343 0
M  V30 42546 C 5832.71 3.76722 -3.68523 0
M  V30 42547 C 5831.44 3.43528 -3.17088 0
M  V30 42548 N 5830.84 2.23665 -3.37397 0
M  V30 42549 N 5830.88 4.44526 -2.44231 0
M  V30 42550 C 5831.48 5.65243 -2.20146 0
M  V30 42551 N 5832.66 6.00221 -2.65453 0
M  V30 42552 C 5833.23 5.00564 -3.39083 0
M  V30 42553 H 5835.53 6.62104 -3.11218 0
M  V30 42554 H 5836.71 4.42969 -4.80867 0
M  V30 42555 H 5838.19 5.92458 -5.93643 0
M  V30 42556 H 5836.5 7.93295 -6.39407 0
M  V30 42557 H 5836.31 6.26671 -8.0846 0
M  V30 42558 H 5834.68 6.29101 -7.32804 0
M  V30 42559 H 5830.94 6.36894 -1.5883 0
M  V30 42560 H 5835.52 3.58193 -5.14248 0
M  V30 42561 H 5829.91 2.05145 -2.97047 0
M  V30 42562 H 5831.32 1.51255 -3.92998 0
M  V30 42563 H 5837.32 5.84223 -2.47279 0
M  V30 42564 P 5839.18 7.39546 -4.75277 0
M  V30 42565 O 5840.6 7.84798 -5.01039 0
M  V30 42566 O 5838.82 5.9812 -5.08098 0
M  V30 42567 O 5838.86 7.57503 -3.1866 0
M  V30 42568 C 5838.7 8.97357 -2.74833 0
M  V30 42569 C 5839.24 9.07548 -1.32709 0
M  V30 42570 O 5838.18 8.62072 -0.606159 0
M  V30 42571 C 5840.45 8.25383 -0.938334 0
M  V30 42572 O 5841.19 8.74577 0.146954 0
M  V30 42573 C 5839.78 6.8802 -0.712559 0
M  V30 42574 O 5840.58 6.1189 0.194655 0
M  V30 42575 C 5838.45 7.27966 -0.139777 0
M  V30 42576 H 5838.48 7.25354 0.961601 0
M  V30 42577 H 5839.66 6.32557 -1.65702 0
M  V30 42578 H 5841.15 8.19355 -1.79097 0
M  V30 42579 H 5839.45 10.1294 -1.10029 0
M  V30 42580 H 5839.26 9.64276 -3.41316 0
M  V30 42581 H 5837.63 9.25417 -2.76357 0
M  V30 42582 H 5840.27 6.25267 1.07847 0
M  V30 42583 P 5842.13 8.791 -2.99964e-10 0
M  V30 42584 O 5843.55 9.31096 0.027933 0
M  V30 42585 O 5841.77 7.77869 -1.04071 0
M  V30 42586 O 5841.81 8.09533 1.41463 0
M  V30 42587 C 5841.65 9.0349 2.53943 0
M  V30 42588 C 5842.19 8.35226 3.79016 0
M  V30 42589 O 5841.13 7.57992 4.15078 0
M  V30 42590 C 5843.4 7.45087 3.67298 0
M  V30 42591 O 5844.14 7.27796 4.85194 0
M  V30 42592 C 5842.73 6.17323 3.12027 0
M  V30 42593 O 5843.53 5.04231 3.47188 0
M  V30 42594 C 5841.4 6.19961 3.81809 0
M  V30 42595 H 5841.43 5.58218 4.73051 0
M  V30 42596 H 5842.61 6.21726 2.02589 0
M  V30 42597 H 5844.1 7.86112 2.9231 0
M  V30 42598 H 5842.4 9.11627 4.55076 0
M  V30 42599 H 5842.21 9.9573 2.34194 0
M  V30 42600 H 5840.58 9.2792 2.67832 0
M  V30 42601 H 5843.22 4.67702 4.28772 0
M  V30 42602 P 5845.08 7.39546 4.75277 0
M  V30 42603 O 5846.5 7.81777 5.05738 0
M  V30 42604 O 5844.72 7.1065 3.32998 0
M  V30 42605 O 5844.76 6.04542 5.56673 0
M  V30 42606 C 5844.6 6.22772 7.02095 0
M  V30 42607 C 5845.14 4.97725 7.70406 0
M  V30 42608 O 5844.08 4.13256 7.58987 0
M  V30 42609 C 5846.35 4.28231 7.11815 0
M  V30 42610 O 5847.09 3.49945 8.01648 0
M  V30 42611 C 5845.69 3.5063 5.96244 0
M  V30 42612 O 5846.48 2.36482 5.64681 0
M  V30 42613 C 5844.35 3.15122 6.56374 0
M  V30 42614 H 5844.38 2.13853 6.99751 0
M  V30 42615 H 5845.56 4.13501 5.06559 0
M  V30 42616 H 5847.05 5.03285 6.70911 0
M  V30 42617 H 5845.35 5.20877 8.75697 0
M  V30 42618 H 5845.16 7.11046 7.35349 0
M  V30 42619 H 5843.53 6.35815 7.26986 0
M  V30 42620 H 5846.17 1.61644 6.13565 0
M  V30 42621 P 5848.03 3.65191 7.99657 0
M  V30 42622 O 5849.45 3.84292 8.48206 0
M  V30 42623 O 5847.67 4.17805 6.64342 0
M  V30 42624 O 5847.71 2.07613 7.95143 0
M  V30 42625 C 5847.55 1.44344 9.27435 0
M  V30 42626 C 5848.09 0.0220036 9.17197 0
M  V30 42627 O 5847.03 -0.626794 8.61824 0
M  V30 42628 C 5849.3 -0.24586 8.30336 0
M  V30 42629 O 5850.04 -1.39011 8.63583 0
M  V30 42630 C 5848.64 -0.273849 6.91158 0
M  V30 42631 O 5849.43 -1.05728 6.029 0
M  V30 42632 C 5847.3 -0.897649 7.22545 0
M  V30 42633 N 5846.26 -0.292839 6.41732 0
M  V30 42634 C 5846.42 0.950603 5.91308 0
M  V30 42635 N 5845.4 1.37732 5.21105 0
M  V30 42636 C 5844.51 0.318109 5.26039 0
M  V30 42637 C 5843.25 0.146766 4.6727 0
M  V30 42638 N 5842.65 1.08519 3.89983 0
M  V30 42639 N 5842.68 -1.06525 4.95887 0
M  V30 42640 C 5843.28 -2.0378 5.71347 0
M  V30 42641 N 5844.46 -1.92445 6.27451 0
M  V30 42642 C 5845.03 -0.715382 6.00353 0
M  V30 42643 H 5847.33 -1.98383 7.04189 0
M  V30 42644 H 5848.51 0.733318 6.49674 0
M  V30 42645 H 5850 0.60668 8.36503 0
M  V30 42646 H 5848.3 -0.362662 10.1825 0
M  V30 42647 H 5848.11 2.00611 10.0304 0
M  V30 42648 H 5846.48 1.41843 9.55327 0
M  V30 42649 H 5842.75 -2.97041 5.85344 0
M  V30 42650 H 5847.32 1.54076 6.07465 0
M  V30 42651 H 5841.72 0.901517 3.49562 0
M  V30 42652 H 5843.12 1.97957 3.71669 0
M  V30 42653 H 5849.12 -1.95704 6.0346 0
M  V30 42654 P 5850.98 -1.25109 8.70152 0
M  V30 42655 O 5852.4 -1.35274 9.21221 0
M  V30 42656 O 5850.62 -0.0769065 7.84762 0
M  V30 42657 O 5850.66 -2.55232 7.81161 0
M  V30 42658 C 5850.5 -3.79939 8.58154 0
M  V30 42659 C 5851.04 -4.94023 7.72785 0
M  V30 42660 O 5849.98 -5.18726 6.91205 0
M  V30 42661 C 5852.26 -4.69597 6.85231 0
M  V30 42662 O 5852.99 -5.83832 6.51337 0
M  V30 42663 C 5851.59 -3.96706 5.66633 0
M  V30 42664 O 5852.39 -4.15414 4.49689 0
M  V30 42665 C 5850.25 -4.66153 5.59313 0
M  V30 42666 H 5850.28 -5.47679 4.85214 0
M  V30 42667 H 5851.46 -2.89008 5.86566 0
M  V30 42668 H 5852.95 -4.0121 7.36511 0
M  V30 42669 H 5851.25 -5.80182 8.37584 0
M  V30 42670 H 5851.06 -3.73517 9.52265 0
M  V30 42671 H 5849.43 -3.97163 8.80359 0
M  V30 42672 H 5852.07 -4.90969 4.01921 0
M  V30 42673 P 5853.93 -5.75688 6.64379 0
M  V30 42674 O 5855.35 -6.11981 7.01997 0
M  V30 42675 O 5853.57 -4.30744 6.56026 0
M  V30 42676 O 5853.61 -6.37042 5.19165 0
M  V30 42677 C 5853.45 -7.83578 5.16515 0
M  V30 42678 C 5853.99 -8.33307 3.82977 0
M  V30 42679 O 5852.93 -8.10074 3.01034 0
M  V30 42680 C 5855.21 -7.65514 3.2257 0
M  V30 42681 O 5855.94 -8.4329 2.32297 0
M  V30 42682 C 5854.54 -6.40075 2.62207 0
M  V30 42683 O 5855.34 -5.92492 1.53687 0
M  V30 42684 C 5853.2 -6.9454 2.18503 0
M  V30 42685 N 5852.16 -5.95905 2.39948 0
M  V30 42686 C 5852.22 -5.13994 3.44742 0
M  V30 42687 N 5851.17 -4.30684 3.46712 0
M  V30 42688 C 5850.44 -4.65583 2.41086 0
M  V30 42689 C 5849.13 -4.20877 1.99581 0
M  V30 42690 O 5848.4 -3.35913 2.52616 0
M  V30 42691 N 5848.7 -4.83271 0.873406 0
M  V30 42692 C 5849.45 -5.82006 0.185129 0
M  V30 42693 N 5848.86 -6.30619 -0.95439 0
M  V30 42694 N 5850.61 -6.28443 0.578524 0
M  V30 42695 C 5851.06 -5.68486 1.70138 0
M  V30 42696 H 5853.23 -7.23063 1.12091 0
M  V30 42697 H 5854.41 -5.60165 3.3715 0
M  V30 42698 H 5855.9 -7.3611 4.01946 0
M  V30 42699 H 5854.2 -9.40912 3.9095 0
M  V30 42700 H 5854.01 -8.29056 5.99158 0
M  V30 42701 H 5852.38 -8.10073 5.25882 0
M  V30 42702 H 5847.81 -4.58323 0.505262 0
M  V30 42703 H 5853.01 -5.14564 4.1935 0
M  V30 42704 H 5847.94 -5.93402 -1.25364 0
M  V30 42705 H 5849.32 -7.0425 -1.50254 0
M  V30 42706 H 5855.02 -6.30224 0.72668 0
M  V30 42707 P 5856.88 -8.4349 2.47671 0
M  V30 42708 O 5858.28 -8.98227 2.65696 0
M  V30 42709 O 5856.5 -7.20409 3.23964 0
M  V30 42710 O 5856.56 -8.16496 0.923275 0
M  V30 42711 C 5856.4 -9.38437 0.108857 0
M  V30 42712 C 5856.94 -9.08076 -1.28339 0
M  V30 42713 O 5855.88 -8.44131 -1.84692 0
M  V30 42714 C 5858.16 -8.18386 -1.42505 0
M  V30 42715 O 5858.89 -8.3501 -2.60497 0
M  V30 42716 C 5857.49 -6.80225 -1.25468 0
M  V30 42717 O 5858.29 -5.81526 -1.91035 0
M  V30 42718 C 5856.15 -7.02416 -1.9168 0
M  V30 42719 N 5855.11 -6.31033 -1.20314 0
M  V30 42720 C 5854.07 -5.77149 -1.928 0
M  V30 42721 O 5854.11 -5.8521 -3.17729 0
M  V30 42722 N 5853.06 -5.15445 -1.27997 0
M  V30 42723 C 5853.11 -5.04472 0.0534726 0
M  V30 42724 C 5854.2 -5.55244 0.808522 0
M  V30 42725 C 5855.17 -6.18542 0.13981 0
M  V30 42726 H 5856.18 -6.68789 -2.9658 0
M  V30 42727 H 5857.37 -6.53498 -0.198729 0
M  V30 42728 H 5858.85 -8.36663 -0.5984 0
M  V30 42729 H 5857.16 -10.0273 -1.8081 0
M  V30 42730 H 5856.96 -10.2138 0.558219 0
M  V30 42731 H 5855.33 -9.6569 0.0444156 0
M  V30 42732 H 5854.25 -5.43017 1.88792 0
M  V30 42733 H 5856.02 -6.60539 0.686773 0
M  V30 42734 H 5858.07 -5.79638 -2.8315 0
M  V30 42735 P 5859.83 -8.4349 -2.47671 0
M  V30 42736 O 5861.25 -8.92593 -2.65 0
M  V30 42737 O 5859.47 -7.7568 -1.19296 0
M  V30 42738 O 5859.51 -7.36886 -3.63805 0
M  V30 42739 C 5859.35 -7.95349 -4.982 0
M  V30 42740 C 5859.89 -6.94612 -5.98974 0
M  V30 42741 O 5858.83 -6.10347 -6.11815 0
M  V30 42742 C 5861.11 -6.11426 -5.62335 0
M  V30 42743 O 5861.85 -5.6162 -6.70584 0
M  V30 42744 C 5860.44 -5.04409 -4.73308 0
M  V30 42745 O 5861.24 -3.85992 -4.75183 0
M  V30 42746 C 5859.1 -4.8728 -5.41006 0
M  V30 42747 H 5859.13 -4.02333 -6.11157 0
M  V30 42748 H 5860.32 -5.39466 -3.69543 0
M  V30 42749 H 5861.8 -6.71916 -5.01943 0
M  V30 42750 H 5860.11 -7.4649 -6.93477 0
M  V30 42751 H 5859.92 -8.89416 -5.05237 0
M  V30 42752 H 5858.29 -8.14876 -5.18409 0
M  V30 42753 H 5860.93 -3.27957 -5.4317 0
M  V30 42754 P 5862.78 -5.75688 -6.64379 0
M  V30 42755 O 5864.2 -6.07627 -7.05504 0
M  V30 42756 O 5862.42 -5.88047 -5.19722 0
M  V30 42757 O 5862.46 -4.2322 -7.04443 0
M  V30 42758 C 5862.3 -3.99743 -8.4911 0
M  V30 42759 C 5862.84 -2.60516 -8.79425 0
M  V30 42760 O 5861.78 -1.82684 -8.4467 0
M  V30 42761 C 5864.06 -2.10343 -8.03628 0
M  V30 42762 O 5864.8 -1.09919 -8.67766 0
M  V30 42763 C 5863.39 -1.68446 -6.70876 0
M  V30 42764 O 5864.19 -0.678137 -6.08433 0
M  V30 42765 C 5862.05 -1.17436 -7.18567 0
M  V30 42766 H 5862.08 -0.0804732 -7.31656 0
M  V30 42767 H 5863.27 -2.54037 -6.02537 0
M  V30 42768 H 5864.75 -2.93881 -7.85526 0
M  V30 42769 H 5863.06 -2.53065 -9.86973 0
M  V30 42770 H 5862.87 -4.75072 -9.05887 0
M  V30 42771 H 5861.24 -4.05244 -8.76668 0
M  V30 42772 H 5863.88 0.177647 -6.34251 0
M  V30 42773 P 5865.73 -1.25109 -8.70152 0
M  V30 42774 O 5867.16 -1.29744 -9.22016 0
M  V30 42775 O 5865.37 -2.13714 -7.55141 0
M  V30 42776 O 5865.41 0.248149 -8.21425 0
M  V30 42777 C 5865.25 1.22779 -9.30434 0
M  V30 42778 C 5865.79 2.56293 -8.80664 0
M  V30 42779 O 5864.73 3.02979 -8.09349 0
M  V30 42780 C 5867.01 2.57523 -7.89775 0
M  V30 42781 O 5867.75 3.7668 -7.89438 0
M  V30 42782 C 5866.34 2.20997 -6.55446 0
M  V30 42783 O 5867.14 2.71895 -5.48509 0
M  V30 42784 C 5865 2.89693 -6.67988 0
M  V30 42785 H 5865.03 3.88793 -6.19859 0
M  V30 42786 H 5866.22 1.12046 -6.44229 0
M  V30 42787 H 5867.7 1.7746 -8.19711 0
M  V30 42788 H 5866.01 3.20706 -9.67112 0
M  V30 42789 H 5865.82 0.901032 -10.1892 0
M  V30 42790 H 5864.19 1.33049 -9.56592 0
M  V30 42791 H 5866.83 3.57847 -5.23962 0
M  V30 42792 P 5868.68 3.65191 -7.99657 0
M  V30 42793 O 5870.11 3.89332 -8.45794 0
M  V30 42794 O 5868.32 2.28472 -7.50807 0
M  V30 42795 O 5868.36 4.64972 -6.77611 0
M  V30 42796 C 5868.2 6.06319 -7.16352 0
M  V30 42797 C 5868.74 6.91731 -6.02299 0
M  V30 42798 O 5867.68 6.92449 -5.17064 0
M  V30 42799 C 5869.96 6.43627 -5.25174 0
M  V30 42800 O 5870.7 7.43686 -4.60469 0
M  V30 42801 C 5869.29 5.40275 -4.31916 0
M  V30 42802 O 5870.09 5.25279 -3.14438 0
M  V30 42803 C 5867.95 6.04847 -4.05327 0
M  V30 42804 H 5867.98 6.62195 -3.11261 0
M  V30 42805 H 5869.17 4.42556 -4.81383 0
M  V30 42806 H 5870.65 5.92458 -5.93643 0
M  V30 42807 H 5868.96 7.92655 -6.402 0
M  V30 42808 H 5868.77 6.26671 -8.0846 0
M  V30 42809 H 5867.14 6.29101 -7.32804 0
M  V30 42810 H 5869.78 5.84315 -2.47318 0
M  V30 42811 P 5871.63 7.39546 -4.75277 0
M  V30 42812 O 5873.06 7.84798 -5.01039 0
M  V30 42813 O 5871.27 5.9812 -5.08098 0
M  V30 42814 O 5871.31 7.57503 -3.1866 0
M  V30 42815 C 5871.15 8.97357 -2.74833 0
M  V30 42816 C 5871.69 9.07548 -1.32709 0
M  V30 42817 O 5870.64 8.62072 -0.606159 0
M  V30 42818 C 5872.91 8.25383 -0.938334 0
M  V30 42819 O 5873.65 8.74577 0.146954 0
M  V30 42820 C 5872.24 6.8802 -0.712559 0
M  V30 42821 O 5873.04 6.1189 0.194655 0
M  V30 42822 C 5870.9 7.27966 -0.139777 0
M  V30 42823 H 5870.94 7.25354 0.961601 0
M  V30 42824 H 5872.12 6.32557 -1.65702 0
M  V30 42825 H 5873.6 8.19355 -1.79097 0
M  V30 42826 H 5871.91 10.1294 -1.10029 0
M  V30 42827 H 5871.72 9.64276 -3.41316 0
M  V30 42828 H 5870.09 9.25417 -2.76357 0
M  V30 42829 H 5872.73 6.25267 1.07847 0
M  V30 42830 P 5874.58 8.791 -2.94157e-10 0
M  V30 42831 O 5876.01 9.31096 0.027933 0
M  V30 42832 O 5874.22 7.77869 -1.04071 0
M  V30 42833 O 5874.26 8.09533 1.41463 0
M  V30 42834 C 5874.1 9.0349 2.53943 0
M  V30 42835 C 5874.64 8.35226 3.79016 0
M  V30 42836 O 5873.59 7.57992 4.15078 0
M  V30 42837 C 5875.86 7.45087 3.67298 0
M  V30 42838 O 5876.6 7.27796 4.85194 0
M  V30 42839 C 5875.19 6.17323 3.12027 0
M  V30 42840 O 5875.99 5.04231 3.47188 0
M  V30 42841 C 5873.85 6.19961 3.81809 0
M  V30 42842 H 5873.89 5.58218 4.73051 0
M  V30 42843 H 5875.07 6.21726 2.02589 0
M  V30 42844 H 5876.55 7.86112 2.9231 0
M  V30 42845 H 5874.86 9.11627 4.55076 0
M  V30 42846 H 5874.67 9.9573 2.34194 0
M  V30 42847 H 5873.04 9.2792 2.67832 0
M  V30 42848 H 5875.68 4.67702 4.28772 0
M  V30 42849 P 5877.54 7.39546 4.75277 0
M  V30 42850 O 5878.96 7.81777 5.05738 0
M  V30 42851 O 5877.18 7.1065 3.32998 0
M  V30 42852 O 5877.21 6.04542 5.56673 0
M  V30 42853 C 5877.05 6.22772 7.02095 0
M  V30 42854 C 5877.59 4.97725 7.70406 0
M  V30 42855 O 5876.54 4.13256 7.58987 0
M  V30 42856 C 5878.81 4.28231 7.11815 0
M  V30 42857 O 5879.55 3.49945 8.01648 0
M  V30 42858 C 5878.14 3.5063 5.96244 0
M  V30 42859 O 5878.94 2.36482 5.64681 0
M  V30 42860 C 5876.8 3.15122 6.56374 0
M  V30 42861 H 5876.84 2.13853 6.99751 0
M  V30 42862 H 5878.02 4.13501 5.06559 0
M  V30 42863 H 5879.5 5.03285 6.70911 0
M  V30 42864 H 5877.81 5.20877 8.75697 0
M  V30 42865 H 5877.62 7.11046 7.35349 0
M  V30 42866 H 5875.99 6.35815 7.26986 0
M  V30 42867 H 5878.63 1.61644 6.13565 0
M  V30 42868 P 5880.49 3.65191 7.99657 0
M  V30 42869 O 5881.91 3.8425 8.48115 0
M  V30 42870 O 5880.13 4.17805 6.64342 0
M  V30 42871 O 5880.16 2.07613 7.95143 0
M  V30 42872 C 5880 1.44328 9.27336 0
M  V30 42873 C 5880.54 0.0220036 9.17197 0
M  V30 42874 O 5879.49 -0.626867 8.61923 0
M  V30 42875 C 5881.76 -0.24586 8.30336 0
M  V30 42876 O 5882.5 -1.39011 8.63583 0
M  V30 42877 C 5881.09 -0.273849 6.91158 0
M  V30 42878 O 5881.89 -1.06348 6.02892 0
M  V30 42879 C 5879.76 -0.897649 7.22545 0
M  V30 42880 H 5879.79 -1.9841 7.04286 0
M  V30 42881 H 5880.97 0.739928 6.497 0
M  V30 42882 H 5882.45 0.60668 8.36503 0
M  V30 42883 H 5880.76 -0.352479 10.1829 0
M  V30 42884 H 5880.57 2.00611 10.0304 0
M  V30 42885 H 5878.94 1.41843 9.55327 0
M  V30 42886 H 5881.58 -1.95734 6.03555 0
M  V30 42887 P 5883.44 -1.25109 8.70152 0
M  V30 42888 O 5884.86 -1.35288 9.2132 0
M  V30 42889 O 5883.08 -0.0769065 7.84762 0
M  V30 42890 O 5883.11 -2.55232 7.81161 0
M  V30 42891 C 5882.95 -3.79979 8.58246 0
M  V30 42892 C 5883.49 -4.94023 7.72785 0
M  V30 42893 O 5882.44 -5.18666 6.91125 0
M  V30 42894 C 5884.71 -4.69597 6.85231 0
M  V30 42895 O 5885.45 -5.83832 6.51337 0
M  V30 42896 C 5884.04 -3.96706 5.66633 0
M  V30 42897 O 5884.84 -4.14896 4.5003 0
M  V30 42898 C 5882.71 -4.66153 5.59313 0
M  V30 42899 N 5881.66 -3.71582 5.24027 0
M  V30 42900 C 5881.83 -2.39715 5.48833 0
M  V30 42901 N 5880.8 -1.65863 5.12845 0
M  V30 42902 C 5879.92 -2.57637 4.5973 0
M  V30 42903 C 5878.65 -2.40278 4.01027 0
M  V30 42904 N 5878.05 -1.19549 3.86744 0
M  V30 42905 N 5878.09 -3.57711 3.59575 0
M  V30 42906 C 5878.69 -4.80324 3.70476 0
M  V30 42907 N 5879.87 -5.01121 4.23801 0
M  V30 42908 C 5880.44 -3.84757 4.66372 0
M  V30 42909 H 5882.74 -5.47604 4.85148 0
M  V30 42910 H 5883.92 -2.8955 5.86187 0
M  V30 42911 H 5885.4 -4.0121 7.36511 0
M  V30 42912 H 5883.71 -5.81019 8.37003 0
M  V30 42913 H 5883.52 -3.73517 9.52265 0
M  V30 42914 H 5881.89 -3.97163 8.80359 0
M  V30 42915 H 5878.15 -5.66348 3.3183 0
M  V30 42916 H 5882.73 -1.98804 5.94332 0
M  V30 42917 H 5877.12 -1.13147 3.4281 0
M  V30 42918 H 5878.53 -0.344074 4.19692 0
M  V30 42919 H 5884.53 -4.90891 4.01857 0
M  V30 42920 P 5886.39 -5.75688 6.64379 0
M  V30 42921 O 5887.81 -6.11915 7.01921 0
M  V30 42922 O 5886.03 -4.30744 6.56026 0
M  V30 42923 O 5886.06 -6.37042 5.19165 0
M  V30 42924 C 5885.9 -7.83662 5.1657 0
M  V30 42925 C 5886.44 -8.33398 3.83019 0
M  V30 42926 O 5885.39 -8.0998 3.00999 0
M  V30 42927 C 5887.66 -7.65514 3.2257 0
M  V30 42928 O 5888.4 -8.4329 2.32297 0
M  V30 42929 C 5886.99 -6.40075 2.62207 0
M  V30 42930 O 5887.79 -5.92338 1.5428 0
M  V30 42931 C 5885.66 -6.9454 2.18503 0
M  V30 42932 N 5884.61 -5.95905 2.39948 0
M  V30 42933 C 5884.78 -4.98383 3.32108 0
M  V30 42934 N 5883.76 -4.16798 3.41761 0
M  V30 42935 C 5882.87 -4.65287 2.47461 0
M  V30 42936 C 5881.6 -4.18946 2.07461 0
M  V30 42937 N 5881.04 -4.95327 1.09101 0
M  V30 42938 C 5881.64 -6.04369 0.519812 0
M  V30 42939 N 5882.82 -6.50694 0.855982 0
M  V30 42940 C 5883.39 -5.75818 1.84322 0
M  V30 42941 H 5886.87 -5.60502 3.36589 0
M  V30 42942 H 5888.35 -7.35707 4.02681 0
M  V30 42943 H 5886.66 -9.41302 3.90009 0
M  V30 42944 H 5886.47 -8.29056 5.99158 0
M  V30 42945 H 5884.84 -8.10073 5.25882 0
M  V30 42946 H 5885.68 -4.88564 3.92502 0
M  V30 42947 H 5887.48 -6.30224 0.72668 0
M  V30 42948 P 5889.34 -8.4349 2.47671 0
M  V30 42949 O 5890.76 -8.94167 2.5964 0
M  V30 42950 O 5888.98 -7.1704 3.19006 0
M  V30 42951 O 5889.01 -8.16596 0.923387 0
M  V30 42952 C 5888.85 -9.38437 0.108857 0
M  V30 42953 C 5889.39 -9.08175 -1.28353 0
M  V30 42954 O 5888.34 -8.44229 -1.84713 0
M  V30 42955 C 5890.61 -8.18386 -1.42505 0
M  V30 42956 O 5891.35 -8.3501 -2.60497 0
M  V30 42957 C 5889.94 -6.80225 -1.25468 0
M  V30 42958 O 5890.74 -5.81621 -1.91066 0
M  V30 42959 C 5888.61 -7.02416 -1.9168 0
M  V30 42960 H 5888.64 -6.6888 -2.96621 0
M  V30 42961 H 5889.82 -6.53617 -0.192223 0
M  V30 42962 H 5891.31 -8.36622 -0.589963 0
M  V30 42963 H 5889.61 -10.0291 -1.79807 0
M  V30 42964 H 5889.42 -10.2138 0.558219 0
M  V30 42965 H 5887.79 -9.6579 0.0444202 0
M  V30 42966 H 5890.43 -5.69556 -2.79637 0
M  V30 42967 P 5892.29 -8.4349 -2.47671 0
M  V30 42968 O 5893.71 -8.92593 -2.65 0
M  V30 42969 O 5891.93 -7.7568 -1.19296 0
M  V30 42970 O 5891.97 -7.36886 -3.63805 0
M  V30 42971 C 5891.81 -7.95349 -4.982 0
M  V30 42972 C 5892.35 -6.94612 -5.98974 0
M  V30 42973 O 5891.29 -6.10347 -6.11815 0
M  V30 42974 C 5893.56 -6.11426 -5.62335 0
M  V30 42975 O 5894.3 -5.6162 -6.70584 0
M  V30 42976 C 5892.89 -5.04409 -4.73308 0
M  V30 42977 O 5893.69 -3.85992 -4.75183 0
M  V30 42978 C 5891.56 -4.8728 -5.41006 0
M  V30 42979 H 5891.59 -4.02333 -6.11157 0
M  V30 42980 H 5892.77 -5.39466 -3.69543 0
M  V30 42981 H 5894.26 -6.71916 -5.01943 0
M  V30 42982 H 5892.56 -7.4649 -6.93477 0
M  V30 42983 H 5892.37 -8.89416 -5.05237 0
M  V30 42984 H 5890.74 -8.14876 -5.18409 0
M  V30 42985 H 5893.38 -3.27957 -5.4317 0
M  V30 42986 P 5895.24 -5.75688 -6.64379 0
M  V30 42987 O 5896.66 -6.07627 -7.05504 0
M  V30 42988 O 5894.88 -5.88047 -5.19722 0
M  V30 42989 O 5894.92 -4.2322 -7.04443 0
M  V30 42990 C 5894.76 -3.99743 -8.4911 0
M  V30 42991 C 5895.3 -2.60516 -8.79425 0
M  V30 42992 O 5894.24 -1.82684 -8.4467 0
M  V30 42993 C 5896.51 -2.10343 -8.03628 0
M  V30 42994 O 5897.25 -1.09919 -8.67766 0
M  V30 42995 C 5895.84 -1.68446 -6.70876 0
M  V30 42996 O 5896.64 -0.678137 -6.08433 0
M  V30 42997 C 5894.51 -1.17436 -7.18567 0
M  V30 42998 H 5894.54 -0.0804732 -7.31656 0
M  V30 42999 H 5895.72 -2.54037 -6.02537 0
M  V30 43000 H 5897.21 -2.93881 -7.85526 0
M  V30 43001 H 5895.51 -2.53065 -9.86973 0
M  V30 43002 H 5895.32 -4.75072 -9.05887 0
M  V30 43003 H 5893.69 -4.05244 -8.76668 0
M  V30 43004 H 5896.33 0.177647 -6.34251 0
M  V30 43005 P 5898.19 -1.25109 -8.70152 0
M  V30 43006 O 5899.61 -1.29744 -9.22016 0
M  V30 43007 O 5897.83 -2.13714 -7.55141 0
M  V30 43008 O 5897.87 0.248149 -8.21425 0
M  V30 43009 C 5897.71 1.22779 -9.30434 0
M  V30 43010 C 5898.25 2.56293 -8.80664 0
M  V30 43011 O 5897.19 3.02979 -8.09349 0
M  V30 43012 C 5899.46 2.57523 -7.89775 0
M  V30 43013 O 5900.2 3.7668 -7.89438 0
M  V30 43014 C 5898.8 2.20997 -6.55446 0
M  V30 43015 O 5899.59 2.71895 -5.48509 0
M  V30 43016 C 5897.46 2.89693 -6.67988 0
M  V30 43017 H 5897.49 3.88793 -6.19859 0
M  V30 43018 H 5898.67 1.12046 -6.44229 0
M  V30 43019 H 5900.16 1.7746 -8.19711 0
M  V30 43020 H 5898.46 3.20706 -9.67112 0
M  V30 43021 H 5898.27 0.901032 -10.1892 0
M  V30 43022 H 5896.64 1.33049 -9.56592 0
M  V30 43023 H 5899.28 3.57847 -5.23962 0
M  V30 43024 P 5901.14 3.65191 -7.99657 0
M  V30 43025 O 5902.54 3.87414 -8.52829 0
M  V30 43026 O 5900.76 2.26932 -7.566 0
M  V30 43027 O 5900.82 4.64915 -6.77529 0
M  V30 43028 C 5900.66 6.06319 -7.16352 0
M  V30 43029 C 5901.2 6.91655 -6.02234 0
M  V30 43030 O 5900.14 6.92369 -5.17005 0
M  V30 43031 C 5902.41 6.43627 -5.25174 0
M  V30 43032 O 5903.15 7.43686 -4.60469 0
M  V30 43033 C 5901.75 5.40275 -4.31916 0
M  V30 43034 O 5902.54 5.25193 -3.14386 0
M  V30 43035 C 5900.41 6.04847 -4.05327 0
M  V30 43036 N 5899.37 5.04166 -3.98114 0
M  V30 43037 C 5898.33 5.2366 -3.09923 0
M  V30 43038 O 5898.37 6.23355 -2.34204 0
M  V30 43039 N 5897.32 4.34279 -3.05727 0
M  V30 43040 C 5897.37 3.26317 -3.84756 0
M  V30 43041 C 5898.46 3.02504 -4.72573 0
M  V30 43042 C 5899.43 3.94493 -4.76618 0
M  V30 43043 H 5900.44 6.62104 -3.11218 0
M  V30 43044 H 5901.62 4.42969 -4.80867 0
M  V30 43045 H 5903.11 5.93122 -5.93121 0
M  V30 43046 H 5901.41 7.93295 -6.39407 0
M  V30 43047 H 5901.22 6.26671 -8.0846 0
M  V30 43048 H 5899.59 6.29036 -7.32728 0
M  V30 43049 H 5898.51 2.12921 -5.34017 0
M  V30 43050 H 5900.27 3.80658 -5.44176 0
M  V30 43051 H 5902.33 5.93572 -2.52637 0
M  V30 43052 P 5904.09 7.39546 -4.75277 0
M  V30 43053 O 5905.51 7.84798 -5.01039 0
M  V30 43054 O 5903.73 5.9812 -5.08098 0
M  V30 43055 O 5903.77 7.57503 -3.1866 0
M  V30 43056 C 5903.61 8.97357 -2.74833 0
M  V30 43057 C 5904.15 9.07548 -1.32709 0
M  V30 43058 O 5903.09 8.62072 -0.606159 0
M  V30 43059 C 5905.37 8.25383 -0.938334 0
M  V30 43060 O 5906.1 8.74577 0.146954 0
M  V30 43061 C 5904.7 6.8802 -0.712559 0
M  V30 43062 O 5905.5 6.1189 0.194655 0
M  V30 43063 C 5903.36 7.27966 -0.139777 0
M  V30 43064 H 5903.39 7.25354 0.961601 0
M  V30 43065 H 5904.57 6.32557 -1.65702 0
M  V30 43066 H 5906.06 8.19355 -1.79097 0
M  V30 43067 H 5904.36 10.1294 -1.10029 0
M  V30 43068 H 5904.17 9.64276 -3.41316 0
M  V30 43069 H 5902.54 9.25417 -2.76357 0
M  V30 43070 H 5905.18 6.25267 1.07847 0
M  V30 43071 P 5907.04 8.791 -2.8835e-10 0
M  V30 43072 O 5908.44 9.36698 -0.018734 0
M  V30 43073 O 5906.66 7.82499 -1.07878 0
M  V30 43074 O 5906.72 8.09434 1.41446 0
M  V30 43075 C 5906.56 9.0349 2.53943 0
M  V30 43076 C 5907.1 8.35135 3.78975 0
M  V30 43077 O 5906.04 7.57904 4.1503 0
M  V30 43078 C 5908.32 7.45087 3.67298 0
M  V30 43079 O 5909.05 7.27796 4.85194 0
M  V30 43080 C 5907.65 6.17323 3.12027 0
M  V30 43081 O 5908.45 5.04149 3.47132 0
M  V30 43082 C 5906.31 6.19961 3.81809 0
M  V30 43083 N 5905.27 5.71575 2.93223 0
M  V30 43084 C 5904.23 4.99452 3.47592 0
M  V30 43085 O 5904.27 4.7199 4.69732 0
M  V30 43086 N 5903.22 4.58505 2.6803 0
M  V30 43087 C 5903.27 4.85544 1.36995 0
M  V30 43088 N 5902.26 4.45052 0.609031 0
M  V30 43089 C 5904.36 5.55532 0.788532 0
M  V30 43090 C 5905.33 5.97426 1.60849 0
M  V30 43091 H 5906.34 5.58142 4.72986 0
M  V30 43092 H 5907.53 6.21428 2.0318 0
M  V30 43093 H 5909.01 7.85913 2.93131 0
M  V30 43094 H 5907.32 9.11171 4.55987 0
M  V30 43095 H 5907.12 9.9573 2.34194 0
M  V30 43096 H 5905.49 9.27824 2.67805 0
M  V30 43097 H 5904.41 5.7421 -0.281588 0
M  V30 43098 H 5906.18 6.53132 1.202 0
M  V30 43099 H 5901.47 3.94123 1.03159 0
M  V30 43100 H 5902.26 4.64377 -0.400352 0
M  V30 43101 H 5908.23 4.76386 4.34983 0
M  V30 43102 P 5909.99 7.39546 4.75277 0
M  V30 43103 O 5911.41 7.81777 5.05738 0
M  V30 43104 O 5909.63 7.1065 3.32998 0
M  V30 43105 O 5909.67 6.04542 5.56673 0
M  V30 43106 C 5909.51 6.22772 7.02095 0
M  V30 43107 C 5910.05 4.97725 7.70406 0
M  V30 43108 O 5908.99 4.13256 7.58987 0
M  V30 43109 C 5911.27 4.28231 7.11815 0
M  V30 43110 O 5912 3.49945 8.01648 0
M  V30 43111 C 5910.6 3.5063 5.96244 0
M  V30 43112 O 5911.4 2.36482 5.64681 0
M  V30 43113 C 5909.26 3.15122 6.56374 0
M  V30 43114 H 5909.29 2.13853 6.99751 0
M  V30 43115 H 5910.48 4.13501 5.06559 0
M  V30 43116 H 5911.96 5.03285 6.70911 0
M  V30 43117 H 5910.27 5.20877 8.75697 0
M  V30 43118 H 5910.08 7.11046 7.35349 0
M  V30 43119 H 5908.45 6.35815 7.26986 0
M  V30 43120 H 5911.08 1.61644 6.13565 0
M  V30 43121 P 5912.94 3.65191 7.99657 0
M  V30 43122 O 5914.36 3.8425 8.48115 0
M  V30 43123 O 5912.58 4.17805 6.64342 0
M  V30 43124 O 5912.62 2.07613 7.95143 0
M  V30 43125 C 5912.46 1.44328 9.27336 0
M  V30 43126 C 5913 0.0220036 9.17197 0
M  V30 43127 O 5911.94 -0.626867 8.61923 0
M  V30 43128 C 5914.22 -0.24586 8.30336 0
M  V30 43129 O 5914.96 -1.39011 8.63583 0
M  V30 43130 C 5913.55 -0.273849 6.91158 0
M  V30 43131 O 5914.35 -1.06348 6.02892 0
M  V30 43132 C 5912.21 -0.897649 7.22545 0
M  V30 43133 H 5912.24 -1.9841 7.04286 0
M  V30 43134 H 5913.43 0.739928 6.497 0
M  V30 43135 H 5914.91 0.60668 8.36503 0
M  V30 43136 H 5913.22 -0.352479 10.1829 0
M  V30 43137 H 5913.03 2.00611 10.0304 0
M  V30 43138 H 5911.4 1.41843 9.55327 0
M  V30 43139 H 5914.04 -1.95734 6.03555 0
M  V30 43140 P 5915.89 -1.25109 8.70152 0
M  V30 43141 O 5917.31 -1.35274 9.21221 0
M  V30 43142 O 5915.53 -0.0769065 7.84762 0
M  V30 43143 O 5915.57 -2.55232 7.81161 0
M  V30 43144 C 5915.41 -3.79939 8.58154 0
M  V30 43145 C 5915.95 -4.94023 7.72785 0
M  V30 43146 O 5914.89 -5.18726 6.91205 0
M  V30 43147 C 5917.17 -4.69597 6.85231 0
M  V30 43148 O 5917.91 -5.83832 6.51337 0
M  V30 43149 C 5916.5 -3.96706 5.66633 0
M  V30 43150 O 5917.3 -4.15414 4.49689 0
M  V30 43151 C 5915.16 -4.66153 5.59313 0
M  V30 43152 H 5915.19 -5.47679 4.85214 0
M  V30 43153 H 5916.38 -2.89008 5.86566 0
M  V30 43154 H 5917.86 -4.0121 7.36511 0
M  V30 43155 H 5916.17 -5.80182 8.37584 0
M  V30 43156 H 5915.98 -3.73517 9.52265 0
M  V30 43157 H 5914.35 -3.97163 8.80359 0
M  V30 43158 H 5916.99 -4.90969 4.01921 0
M  V30 43159 P 5918.84 -5.75688 6.64379 0
M  V30 43160 O 5920.27 -6.11849 7.01846 0
M  V30 43161 O 5918.48 -4.30744 6.56026 0
M  V30 43162 O 5918.52 -6.37042 5.19165 0
M  V30 43163 C 5918.36 -7.83578 5.16515 0
M  V30 43164 C 5918.9 -8.33398 3.83019 0
M  V30 43165 O 5917.84 -8.10074 3.01034 0
M  V30 43166 C 5920.12 -7.65514 3.2257 0
M  V30 43167 O 5920.86 -8.4329 2.32297 0
M  V30 43168 C 5919.45 -6.40075 2.62207 0
M  V30 43169 O 5920.25 -5.92589 1.53712 0
M  V30 43170 C 5918.11 -6.9454 2.18503 0
M  V30 43171 H 5918.14 -7.23063 1.12091 0
M  V30 43172 H 5919.33 -5.6025 3.37201 0
M  V30 43173 H 5920.81 -7.35707 4.02681 0
M  V30 43174 H 5919.12 -9.40912 3.9095 0
M  V30 43175 H 5918.93 -8.29056 5.99158 0
M  V30 43176 H 5917.3 -8.10073 5.25882 0
M  V30 43177 H 5919.94 -6.30324 0.726794 0
M  V30 43178 P 5921.79 -8.4349 2.47671 0
M  V30 43179 O 5923.22 -8.94167 2.5964 0
M  V30 43180 O 5921.43 -7.1704 3.19006 0
M  V30 43181 O 5921.47 -8.16596 0.923387 0
M  V30 43182 C 5921.31 -9.38437 0.108857 0
M  V30 43183 C 5921.85 -9.08175 -1.28353 0
M  V30 43184 O 5920.79 -8.44229 -1.84713 0
M  V30 43185 C 5923.07 -8.18386 -1.42505 0
M  V30 43186 O 5923.81 -8.3501 -2.60497 0
M  V30 43187 C 5922.4 -6.80225 -1.25468 0
M  V30 43188 O 5923.2 -5.81621 -1.91066 0
M  V30 43189 C 5921.06 -7.02416 -1.9168 0
M  V30 43190 H 5921.09 -6.6888 -2.96621 0
M  V30 43191 H 5922.28 -6.53617 -0.192223 0
M  V30 43192 H 5923.76 -8.36622 -0.589963 0
M  V30 43193 H 5922.07 -10.0291 -1.79807 0
M  V30 43194 H 5921.88 -10.2138 0.558219 0
M  V30 43195 H 5920.25 -9.6579 0.0444202 0
M  V30 43196 H 5922.89 -5.69556 -2.79637 0
M  V30 43197 P 5924.74 -8.4349 -2.47671 0
M  V30 43198 O 5926.17 -8.92593 -2.65 0
M  V30 43199 O 5924.38 -7.7568 -1.19296 0
M  V30 43200 O 5924.42 -7.36886 -3.63805 0
M  V30 43201 C 5924.26 -7.95349 -4.982 0
M  V30 43202 C 5924.8 -6.94612 -5.98974 0
M  V30 43203 O 5923.75 -6.10347 -6.11815 0
M  V30 43204 C 5926.02 -6.11426 -5.62335 0
M  V30 43205 O 5926.76 -5.6162 -6.70584 0
M  V30 43206 C 5925.35 -5.04409 -4.73308 0
M  V30 43207 O 5926.15 -3.85992 -4.75183 0
M  V30 43208 C 5924.01 -4.8728 -5.41006 0
M  V30 43209 H 5924.05 -4.02333 -6.11157 0
M  V30 43210 H 5925.23 -5.39466 -3.69543 0
M  V30 43211 H 5926.71 -6.71916 -5.01943 0
M  V30 43212 H 5925.02 -7.4649 -6.93477 0
M  V30 43213 H 5924.83 -8.89416 -5.05237 0
M  V30 43214 H 5923.2 -8.14876 -5.18409 0
M  V30 43215 H 5925.84 -3.27957 -5.4317 0
M  V30 43216 P 5927.7 -5.75688 -6.64379 0
M  V30 43217 O 5929.12 -6.07627 -7.05504 0
M  V30 43218 O 5927.34 -5.88047 -5.19722 0
M  V30 43219 O 5927.37 -4.2322 -7.04443 0
M  V30 43220 C 5927.21 -3.99743 -8.4911 0
M  V30 43221 C 5927.75 -2.60516 -8.79425 0
M  V30 43222 O 5926.7 -1.82684 -8.4467 0
M  V30 43223 C 5928.97 -2.10343 -8.03628 0
M  V30 43224 O 5929.71 -1.09919 -8.67766 0
M  V30 43225 C 5928.3 -1.68446 -6.70876 0
M  V30 43226 O 5929.1 -0.678137 -6.08433 0
M  V30 43227 C 5926.96 -1.17436 -7.18567 0
M  V30 43228 H 5927 -0.0804732 -7.31656 0
M  V30 43229 H 5928.18 -2.54037 -6.02537 0
M  V30 43230 H 5929.66 -2.93881 -7.85526 0
M  V30 43231 H 5927.97 -2.53065 -9.86973 0
M  V30 43232 H 5927.78 -4.75072 -9.05887 0
M  V30 43233 H 5926.15 -4.05244 -8.76668 0
M  V30 43234 H 5928.79 0.177647 -6.34251 0
M  V30 43235 P 5930.65 -1.25109 -8.70152 0
M  V30 43236 O 5932.07 -1.29744 -9.22016 0
M  V30 43237 O 5930.29 -2.13714 -7.55141 0
M  V30 43238 O 5930.32 0.248149 -8.21425 0
M  V30 43239 C 5930.16 1.22779 -9.30434 0
M  V30 43240 C 5930.7 2.56293 -8.80664 0
M  V30 43241 O 5929.65 3.02979 -8.09349 0
M  V30 43242 C 5931.92 2.57523 -7.89775 0
M  V30 43243 O 5932.66 3.7668 -7.89438 0
M  V30 43244 C 5931.25 2.20997 -6.55446 0
M  V30 43245 O 5932.05 2.71895 -5.48509 0
M  V30 43246 C 5929.91 2.89693 -6.67988 0
M  V30 43247 H 5929.95 3.88793 -6.19859 0
M  V30 43248 H 5931.13 1.12046 -6.44229 0
M  V30 43249 H 5932.61 1.7746 -8.19711 0
M  V30 43250 H 5930.92 3.20706 -9.67112 0
M  V30 43251 H 5930.73 0.901032 -10.1892 0
M  V30 43252 H 5929.1 1.33049 -9.56592 0
M  V30 43253 H 5931.74 3.57847 -5.23962 0
M  V30 43254 P 5933.6 3.65191 -7.99657 0
M  V30 43255 O 5935.02 3.89374 -8.45885 0
M  V30 43256 O 5933.24 2.28472 -7.50807 0
M  V30 43257 O 5933.27 4.64972 -6.77611 0
M  V30 43258 C 5933.11 6.06383 -7.16428 0
M  V30 43259 C 5933.65 6.91731 -6.02299 0
M  V30 43260 O 5932.6 6.92369 -5.17005 0
M  V30 43261 C 5934.87 6.43627 -5.25174 0
M  V30 43262 O 5935.61 7.43686 -4.60469 0
M  V30 43263 C 5934.2 5.40275 -4.31916 0
M  V30 43264 O 5935 5.24878 -3.14911 0
M  V30 43265 C 5932.87 6.04847 -4.05327 0
M  V30 43266 N 5931.82 5.04166 -3.98114 0
M  V30 43267 C 5931.99 3.84629 -4.59066 0
M  V30 43268 N 5930.96 3.0363 -4.45343 0
M  V30 43269 C 5930.08 3.76722 -3.68523 0
M  V30 43270 C 5928.81 3.43528 -3.17088 0
M  V30 43271 N 5928.25 4.44526 -2.44231 0
M  V30 43272 C 5928.85 5.65243 -2.20146 0
M  V30 43273 N 5930.03 6.00221 -2.65453 0
M  V30 43274 C 5930.6 5.00564 -3.39083 0
M  V30 43275 H 5934.08 4.42969 -4.80867 0
M  V30 43276 H 5935.56 5.92458 -5.93643 0
M  V30 43277 H 5933.87 7.93295 -6.39407 0
M  V30 43278 H 5933.68 6.26671 -8.0846 0
M  V30 43279 H 5932.05 6.29101 -7.32804 0
M  V30 43280 H 5932.89 3.58193 -5.14248 0
M  V30 43281 H 5934.69 5.84223 -2.47279 0
M  V30 43282 P 5936.55 7.39546 -4.75277 0
M  V30 43283 O 5937.97 7.84798 -5.01039 0
M  V30 43284 O 5936.19 5.9812 -5.08098 0
M  V30 43285 O 5936.22 7.57503 -3.1866 0
M  V30 43286 C 5936.06 8.97357 -2.74833 0
M  V30 43287 C 5936.6 9.07548 -1.32709 0
M  V30 43288 O 5935.55 8.62072 -0.606159 0
M  V30 43289 C 5937.82 8.25383 -0.938334 0
M  V30 43290 O 5938.56 8.74577 0.146954 0
M  V30 43291 C 5937.15 6.8802 -0.712559 0
M  V30 43292 O 5937.95 6.1189 0.194655 0
M  V30 43293 C 5935.82 7.27966 -0.139777 0
M  V30 43294 H 5935.85 7.25354 0.961601 0
M  V30 43295 H 5937.03 6.32557 -1.65702 0
M  V30 43296 H 5938.51 8.19355 -1.79097 0
M  V30 43297 H 5936.82 10.1294 -1.10029 0
M  V30 43298 H 5936.63 9.64276 -3.41316 0
M  V30 43299 H 5935 9.25417 -2.76357 0
M  V30 43300 H 5937.64 6.25267 1.07847 0
M  V30 43301 P 5939.5 8.791 -2.82543e-10 0
M  V30 43302 O 5940.92 9.31096 0.027933 0
M  V30 43303 O 5939.14 7.77869 -1.04071 0
M  V30 43304 O 5939.17 8.09533 1.41463 0
M  V30 43305 C 5939.01 9.0349 2.53943 0
M  V30 43306 C 5939.55 8.35226 3.79016 0
M  V30 43307 O 5938.5 7.57992 4.15078 0
M  V30 43308 C 5940.77 7.45087 3.67298 0
M  V30 43309 O 5941.51 7.27796 4.85194 0
M  V30 43310 C 5940.1 6.17323 3.12027 0
M  V30 43311 O 5940.9 5.04231 3.47188 0
M  V30 43312 C 5938.77 6.19961 3.81809 0
M  V30 43313 H 5938.8 5.58218 4.73051 0
M  V30 43314 H 5939.98 6.21726 2.02589 0
M  V30 43315 H 5941.47 7.86112 2.9231 0
M  V30 43316 H 5939.77 9.11627 4.55076 0
M  V30 43317 H 5939.58 9.9573 2.34194 0
M  V30 43318 H 5937.95 9.2792 2.67832 0
M  V30 43319 H 5940.59 4.67702 4.28772 0
M  V30 43320 P 5942.45 7.39546 4.75277 0
M  V30 43321 O 5943.87 7.81777 5.05738 0
M  V30 43322 O 5942.09 7.1065 3.32998 0
M  V30 43323 O 5942.12 6.04542 5.56673 0
M  V30 43324 C 5941.96 6.22772 7.02095 0
M  V30 43325 C 5942.5 4.97725 7.70406 0
M  V30 43326 O 5941.45 4.13256 7.58987 0
M  V30 43327 C 5943.72 4.28231 7.11815 0
M  V30 43328 O 5944.46 3.49945 8.01648 0
M  V30 43329 C 5943.05 3.5063 5.96244 0
M  V30 43330 O 5943.85 2.36482 5.64681 0
M  V30 43331 C 5941.72 3.15122 6.56374 0
M  V30 43332 H 5941.75 2.13853 6.99751 0
M  V30 43333 H 5942.93 4.13501 5.06559 0
M  V30 43334 H 5944.42 5.03285 6.70911 0
M  V30 43335 H 5942.72 5.20877 8.75697 0
M  V30 43336 H 5942.53 7.11046 7.35349 0
M  V30 43337 H 5940.9 6.35815 7.26986 0
M  V30 43338 H 5943.54 1.61644 6.13565 0
M  V30 43339 P 5945.4 3.65191 7.99657 0
M  V30 43340 O 5946.82 3.8425 8.48115 0
M  V30 43341 O 5945.04 4.17805 6.64342 0
M  V30 43342 O 5945.08 2.07613 7.95143 0
M  V30 43343 C 5944.92 1.44328 9.27336 0
M  V30 43344 C 5945.46 0.0220036 9.17197 0
M  V30 43345 O 5944.4 -0.626867 8.61923 0
M  V30 43346 C 5946.67 -0.24586 8.30336 0
M  V30 43347 O 5947.41 -1.39011 8.63583 0
M  V30 43348 C 5946 -0.273849 6.91158 0
M  V30 43349 O 5946.8 -1.06348 6.02892 0
M  V30 43350 C 5944.67 -0.897649 7.22545 0
M  V30 43351 H 5944.7 -1.9841 7.04286 0
M  V30 43352 H 5945.88 0.739928 6.497 0
M  V30 43353 H 5947.37 0.60668 8.36503 0
M  V30 43354 H 5945.67 -0.352479 10.1829 0
M  V30 43355 H 5945.48 2.00611 10.0304 0
M  V30 43356 H 5943.85 1.41843 9.55327 0
M  V30 43357 H 5946.49 -1.95734 6.03555 0
M  V30 43358 P 5948.35 -1.25109 8.70152 0
M  V30 43359 O 5949.77 -1.35274 9.21221 0
M  V30 43360 O 5947.99 -0.0769065 7.84762 0
M  V30 43361 O 5948.03 -2.55232 7.81161 0
M  V30 43362 C 5947.87 -3.79939 8.58154 0
M  V30 43363 C 5948.41 -4.94023 7.72785 0
M  V30 43364 O 5947.35 -5.18726 6.91205 0
M  V30 43365 C 5949.62 -4.69597 6.85231 0
M  V30 43366 O 5950.36 -5.83832 6.51337 0
M  V30 43367 C 5948.96 -3.96706 5.66633 0
M  V30 43368 O 5949.75 -4.15414 4.49689 0
M  V30 43369 C 5947.62 -4.66153 5.59313 0
M  V30 43370 H 5947.65 -5.47679 4.85214 0
M  V30 43371 H 5948.83 -2.89008 5.86566 0
M  V30 43372 H 5950.32 -4.0121 7.36511 0
M  V30 43373 H 5948.62 -5.80182 8.37584 0
M  V30 43374 H 5948.43 -3.73517 9.52265 0
M  V30 43375 H 5946.8 -3.97163 8.80359 0
M  V30 43376 H 5949.44 -4.90969 4.01921 0
M  V30 43377 P 5951.3 -5.75688 6.64379 0
M  V30 43378 O 5952.72 -6.11849 7.01846 0
M  V30 43379 O 5950.94 -4.30744 6.56026 0
M  V30 43380 O 5950.98 -6.37042 5.19165 0
M  V30 43381 C 5950.82 -7.83578 5.16515 0
M  V30 43382 C 5951.36 -8.33398 3.83019 0
M  V30 43383 O 5950.3 -8.10074 3.01034 0
M  V30 43384 C 5952.57 -7.65514 3.2257 0
M  V30 43385 O 5953.31 -8.4329 2.32297 0
M  V30 43386 C 5951.91 -6.40075 2.62207 0
M  V30 43387 O 5952.7 -5.92589 1.53712 0
M  V30 43388 C 5950.57 -6.9454 2.18503 0
M  V30 43389 H 5950.6 -7.23063 1.12091 0
M  V30 43390 H 5951.78 -5.6025 3.37201 0
M  V30 43391 H 5953.27 -7.35707 4.02681 0
M  V30 43392 H 5951.57 -9.40912 3.9095 0
M  V30 43393 H 5951.38 -8.29056 5.99158 0
M  V30 43394 H 5949.75 -8.10073 5.25882 0
M  V30 43395 H 5952.39 -6.30324 0.726794 0
M  V30 43396 P 5954.25 -8.4349 2.47671 0
M  V30 43397 O 5955.67 -8.94167 2.5964 0
M  V30 43398 O 5953.89 -7.1704 3.19006 0
M  V30 43399 O 5953.93 -8.16596 0.923387 0
M  V30 43400 C 5953.77 -9.38437 0.108857 0
M  V30 43401 C 5954.31 -9.08175 -1.28353 0
M  V30 43402 O 5953.25 -8.44229 -1.84713 0
M  V30 43403 C 5955.53 -8.18386 -1.42505 0
M  V30 43404 O 5956.26 -8.3501 -2.60497 0
M  V30 43405 C 5954.86 -6.80225 -1.25468 0
M  V30 43406 O 5955.66 -5.81621 -1.91066 0
M  V30 43407 C 5953.52 -7.02416 -1.9168 0
M  V30 43408 H 5953.55 -6.6888 -2.96621 0
M  V30 43409 H 5954.73 -6.53617 -0.192223 0
M  V30 43410 H 5956.22 -8.36622 -0.589963 0
M  V30 43411 H 5954.52 -10.0291 -1.79807 0
M  V30 43412 H 5954.33 -10.2138 0.558219 0
M  V30 43413 H 5952.7 -9.6579 0.0444202 0
M  V30 43414 H 5955.34 -5.69556 -2.79637 0
M  V30 43415 P 5957.2 -8.4349 -2.47671 0
M  V30 43416 O 5958.62 -8.92593 -2.65 0
M  V30 43417 O 5956.84 -7.7568 -1.19296 0
M  V30 43418 O 5956.88 -7.36886 -3.63805 0
M  V30 43419 C 5956.72 -7.95349 -4.982 0
M  V30 43420 C 5957.26 -6.94612 -5.98974 0
M  V30 43421 O 5956.2 -6.10347 -6.11815 0
M  V30 43422 C 5958.48 -6.11426 -5.62335 0
M  V30 43423 O 5959.21 -5.6162 -6.70584 0
M  V30 43424 C 5957.81 -5.04409 -4.73308 0
M  V30 43425 O 5958.61 -3.85992 -4.75183 0
M  V30 43426 C 5956.47 -4.8728 -5.41006 0
M  V30 43427 H 5956.5 -4.02333 -6.11157 0
M  V30 43428 H 5957.68 -5.39466 -3.69543 0
M  V30 43429 H 5959.17 -6.71916 -5.01943 0
M  V30 43430 H 5957.47 -7.4649 -6.93477 0
M  V30 43431 H 5957.28 -8.89416 -5.05237 0
M  V30 43432 H 5955.65 -8.14876 -5.18409 0
M  V30 43433 H 5958.29 -3.27957 -5.4317 0
M  V30 43434 P 5960.15 -5.75688 -6.64379 0
M  V30 43435 O 5961.57 -6.07627 -7.05504 0
M  V30 43436 O 5959.79 -5.88047 -5.19722 0
M  V30 43437 O 5959.83 -4.2322 -7.04443 0
M  V30 43438 C 5959.67 -3.99743 -8.4911 0
M  V30 43439 C 5960.21 -2.60516 -8.79425 0
M  V30 43440 O 5959.15 -1.82684 -8.4467 0
M  V30 43441 C 5961.43 -2.10343 -8.03628 0
M  V30 43442 O 5962.16 -1.09919 -8.67766 0
M  V30 43443 C 5960.76 -1.68446 -6.70876 0
M  V30 43444 O 5961.56 -0.678137 -6.08433 0
M  V30 43445 C 5959.42 -1.17436 -7.18567 0
M  V30 43446 H 5959.45 -0.0804732 -7.31656 0
M  V30 43447 H 5960.64 -2.54037 -6.02537 0
M  V30 43448 H 5962.12 -2.93881 -7.85526 0
M  V30 43449 H 5960.43 -2.53065 -9.86973 0
M  V30 43450 H 5960.24 -4.75072 -9.05887 0
M  V30 43451 H 5958.61 -4.05244 -8.76668 0
M  V30 43452 H 5961.24 0.177647 -6.34251 0
M  V30 43453 P 5963.1 -1.25109 -8.70152 0
M  V30 43454 O 5964.5 -1.3516 -9.26897 0
M  V30 43455 O 5962.72 -2.18141 -7.59181 0
M  V30 43456 O 5962.78 0.248118 -8.21325 0
M  V30 43457 C 5962.62 1.22779 -9.30434 0
M  V30 43458 C 5963.16 2.56265 -8.80568 0
M  V30 43459 O 5962.1 3.02944 -8.09255 0
M  V30 43460 C 5964.38 2.57523 -7.89775 0
M  V30 43461 O 5965.11 3.7668 -7.89438 0
M  V30 43462 C 5963.71 2.20997 -6.55446 0
M  V30 43463 O 5964.51 2.71851 -5.48419 0
M  V30 43464 C 5962.37 2.89693 -6.67988 0
M  V30 43465 N 5961.33 2.08895 -6.07487 0
M  V30 43466 C 5960.29 2.72974 -5.43836 0
M  V30 43467 O 5960.33 3.97779 -5.34036 0
M  V30 43468 N 5959.28 2.0005 -4.91983 0
M  V30 43469 C 5959.33 0.66501 -5.00098 0
M  V30 43470 N 5958.32 -0.0305439 -4.4919 0
M  V30 43471 C 5960.42 -0.0100979 -5.61099 0
M  V30 43472 C 5961.39 0.74189 -6.14236 0
M  V30 43473 H 5962.4 3.8874 -6.19774 0
M  V30 43474 H 5963.59 1.12673 -6.44018 0
M  V30 43475 H 5965.07 1.783 -8.19631 0
M  V30 43476 H 5963.38 3.21673 -9.66791 0
M  V30 43477 H 5963.18 0.901032 -10.1892 0
M  V30 43478 H 5961.55 1.33036 -9.56493 0
M  V30 43479 H 5960.47 -1.09591 -5.64358 0
M  V30 43480 H 5962.24 0.260263 -6.6359 0
M  V30 43481 H 5957.53 0.460194 -4.04793 0
M  V30 43482 H 5958.32 -1.05716 -4.53953 0
M  V30 43483 H 5964.29 3.62759 -5.33442 0
M  V30 43484 P 5966.05 3.65191 -7.99657 0
M  V30 43485 O 5967.47 3.89332 -8.45794 0
M  V30 43486 O 5965.69 2.28472 -7.50807 0
M  V30 43487 O 5965.73 4.64972 -6.77611 0
M  V30 43488 C 5965.57 6.06319 -7.16352 0
M  V30 43489 C 5966.11 6.91731 -6.02299 0
M  V30 43490 O 5965.05 6.92449 -5.17064 0
M  V30 43491 C 5967.33 6.43627 -5.25174 0
M  V30 43492 O 5968.07 7.43686 -4.60469 0
M  V30 43493 C 5966.66 5.40275 -4.31916 0
M  V30 43494 O 5967.46 5.25279 -3.14438 0
M  V30 43495 C 5965.32 6.04847 -4.05327 0
M  V30 43496 H 5965.35 6.62195 -3.11261 0
M  V30 43497 H 5966.54 4.42556 -4.81383 0
M  V30 43498 H 5968.02 5.92458 -5.93643 0
M  V30 43499 H 5966.33 7.92655 -6.402 0
M  V30 43500 H 5966.14 6.26671 -8.0846 0
M  V30 43501 H 5964.51 6.29101 -7.32804 0
M  V30 43502 H 5967.15 5.84315 -2.47318 0
M  V30 43503 P 5969 7.39546 -4.75277 0
M  V30 43504 O 5970.43 7.84798 -5.01039 0
M  V30 43505 O 5968.64 5.9812 -5.08098 0
M  V30 43506 O 5968.68 7.57503 -3.1866 0
M  V30 43507 C 5968.52 8.97357 -2.74833 0
M  V30 43508 C 5969.06 9.07548 -1.32709 0
M  V30 43509 O 5968 8.62072 -0.606159 0
M  V30 43510 C 5970.28 8.25383 -0.938334 0
M  V30 43511 O 5971.02 8.74577 0.146954 0
M  V30 43512 C 5969.61 6.8802 -0.712559 0
M  V30 43513 O 5970.41 6.1189 0.194655 0
M  V30 43514 C 5968.27 7.27966 -0.139777 0
M  V30 43515 H 5968.3 7.25354 0.961601 0
M  V30 43516 H 5969.49 6.32557 -1.65702 0
M  V30 43517 H 5970.97 8.19355 -1.79097 0
M  V30 43518 H 5969.28 10.1294 -1.10029 0
M  V30 43519 H 5969.09 9.64276 -3.41316 0
M  V30 43520 H 5967.46 9.25417 -2.76357 0
M  V30 43521 H 5970.1 6.25267 1.07847 0
M  V30 43522 P 5971.95 8.791 -2.76736e-10 0
M  V30 43523 O 5973.38 9.31096 0.027933 0
M  V30 43524 O 5971.59 7.77869 -1.04071 0
M  V30 43525 O 5971.63 8.09533 1.41463 0
M  V30 43526 C 5971.47 9.0349 2.53943 0
M  V30 43527 C 5972.01 8.35226 3.79016 0
M  V30 43528 O 5970.95 7.57992 4.15078 0
M  V30 43529 C 5973.23 7.45087 3.67298 0
M  V30 43530 O 5973.97 7.27796 4.85194 0
M  V30 43531 C 5972.56 6.17323 3.12027 0
M  V30 43532 O 5973.36 5.04231 3.47188 0
M  V30 43533 C 5971.22 6.19961 3.81809 0
M  V30 43534 H 5971.25 5.58218 4.73051 0
M  V30 43535 H 5972.44 6.21726 2.02589 0
M  V30 43536 H 5973.92 7.86112 2.9231 0
M  V30 43537 H 5972.23 9.11627 4.55076 0
M  V30 43538 H 5972.04 9.9573 2.34194 0
M  V30 43539 H 5970.41 9.2792 2.67832 0
M  V30 43540 H 5973.05 4.67702 4.28772 0
M  V30 43541 P 5974.9 7.39546 4.75277 0
M  V30 43542 O 5976.33 7.81777 5.05738 0
M  V30 43543 O 5974.54 7.1065 3.32998 0
M  V30 43544 O 5974.58 6.04542 5.56673 0
M  V30 43545 C 5974.42 6.22772 7.02095 0
M  V30 43546 C 5974.96 4.97725 7.70406 0
M  V30 43547 O 5973.91 4.13256 7.58987 0
M  V30 43548 C 5976.18 4.28231 7.11815 0
M  V30 43549 O 5976.92 3.49945 8.01648 0
M  V30 43550 C 5975.51 3.5063 5.96244 0
M  V30 43551 O 5976.31 2.36482 5.64681 0
M  V30 43552 C 5974.17 3.15122 6.56374 0
M  V30 43553 H 5974.21 2.13853 6.99751 0
M  V30 43554 H 5975.39 4.13501 5.06559 0
M  V30 43555 H 5976.87 5.03285 6.70911 0
M  V30 43556 H 5975.18 5.20877 8.75697 0
M  V30 43557 H 5974.99 7.11046 7.35349 0
M  V30 43558 H 5973.36 6.35815 7.26986 0
M  V30 43559 H 5976 1.61644 6.13565 0
M  V30 43560 P 5977.85 3.65191 7.99657 0
M  V30 43561 O 5979.28 3.8425 8.48115 0
M  V30 43562 O 5977.49 4.17805 6.64342 0
M  V30 43563 O 5977.53 2.07613 7.95143 0
M  V30 43564 C 5977.37 1.44328 9.27336 0
M  V30 43565 C 5977.91 0.0220036 9.17197 0
M  V30 43566 O 5976.86 -0.626867 8.61923 0
M  V30 43567 C 5979.13 -0.24586 8.30336 0
M  V30 43568 O 5979.87 -1.39011 8.63583 0
M  V30 43569 C 5978.46 -0.273849 6.91158 0
M  V30 43570 O 5979.26 -1.06348 6.02892 0
M  V30 43571 C 5977.12 -0.897649 7.22545 0
M  V30 43572 H 5977.16 -1.9841 7.04286 0
M  V30 43573 H 5978.34 0.739928 6.497 0
M  V30 43574 H 5979.82 0.60668 8.36503 0
M  V30 43575 H 5978.13 -0.352479 10.1829 0
M  V30 43576 H 5977.94 2.00611 10.0304 0
M  V30 43577 H 5976.31 1.41843 9.55327 0
M  V30 43578 H 5978.95 -1.95734 6.03555 0
M  V30 43579 P 5980.81 -1.25109 8.70152 0
M  V30 43580 O 5982.23 -1.35274 9.21221 0
M  V30 43581 O 5980.45 -0.0769065 7.84762 0
M  V30 43582 O 5980.48 -2.55232 7.81161 0
M  V30 43583 C 5980.32 -3.79939 8.58154 0
M  V30 43584 C 5980.86 -4.94023 7.72785 0
M  V30 43585 O 5979.81 -5.18726 6.91205 0
M  V30 43586 C 5982.08 -4.69597 6.85231 0
M  V30 43587 O 5982.82 -5.83832 6.51337 0
M  V30 43588 C 5981.41 -3.96706 5.66633 0
M  V30 43589 O 5982.21 -4.15414 4.49689 0
M  V30 43590 C 5980.07 -4.66153 5.59313 0
M  V30 43591 H 5980.11 -5.47679 4.85214 0
M  V30 43592 H 5981.29 -2.89008 5.86566 0
M  V30 43593 H 5982.77 -4.0121 7.36511 0
M  V30 43594 H 5981.08 -5.80182 8.37584 0
M  V30 43595 H 5980.89 -3.73517 9.52265 0
M  V30 43596 H 5979.26 -3.97163 8.80359 0
M  V30 43597 H 5981.9 -4.90969 4.01921 0
M  V30 43598 P 5983.76 -5.75688 6.64379 0
M  V30 43599 O 5985.18 -6.11915 7.01921 0
M  V30 43600 O 5983.4 -4.30744 6.56026 0
M  V30 43601 O 5983.43 -6.37042 5.19165 0
M  V30 43602 C 5983.27 -7.83662 5.1657 0
M  V30 43603 C 5983.81 -8.33398 3.83019 0
M  V30 43604 O 5982.76 -8.0998 3.00999 0
M  V30 43605 C 5985.03 -7.65514 3.2257 0
M  V30 43606 O 5985.77 -8.4329 2.32297 0
M  V30 43607 C 5984.36 -6.40075 2.62207 0
M  V30 43608 O 5985.16 -5.92338 1.5428 0
M  V30 43609 C 5983.02 -6.9454 2.18503 0
M  V30 43610 N 5981.98 -5.95905 2.39948 0
M  V30 43611 C 5982.15 -4.98383 3.32108 0
M  V30 43612 N 5981.12 -4.16798 3.41761 0
M  V30 43613 C 5980.24 -4.65287 2.47461 0
M  V30 43614 C 5978.97 -4.18946 2.07461 0
M  V30 43615 N 5978.37 -3.09661 2.60717 0
M  V30 43616 N 5978.41 -4.95327 1.09101 0
M  V30 43617 C 5979.01 -6.04369 0.519812 0
M  V30 43618 N 5980.19 -6.50694 0.855982 0
M  V30 43619 C 5980.76 -5.75818 1.84322 0
M  V30 43620 H 5983.06 -7.22964 1.12076 0
M  V30 43621 H 5984.24 -5.60502 3.36589 0
M  V30 43622 H 5985.72 -7.35707 4.02681 0
M  V30 43623 H 5984.03 -9.41302 3.90009 0
M  V30 43624 H 5983.84 -8.29056 5.99158 0
M  V30 43625 H 5982.21 -8.10073 5.25882 0
M  V30 43626 H 5978.47 -6.55843 -0.270373 0
M  V30 43627 H 5983.05 -4.88564 3.92502 0
M  V30 43628 H 5977.44 -2.80523 2.27218 0
M  V30 43629 H 5978.85 -2.55848 3.34465 0
M  V30 43630 H 5984.85 -6.30224 0.72668 0
M  V30 43631 P 5986.71 -8.4349 2.47671 0
M  V30 43632 O 5988.13 -8.94167 2.5964 0
M  V30 43633 O 5986.35 -7.1704 3.19006 0
M  V30 43634 O 5986.38 -8.16596 0.923387 0
M  V30 43635 C 5986.22 -9.38437 0.108857 0
M  V30 43636 C 5986.76 -9.08175 -1.28353 0
M  V30 43637 O 5985.71 -8.44229 -1.84713 0
M  V30 43638 C 5987.98 -8.18386 -1.42505 0
M  V30 43639 O 5988.72 -8.3501 -2.60497 0
M  V30 43640 C 5987.31 -6.80225 -1.25468 0
M  V30 43641 O 5988.11 -5.81621 -1.91066 0
M  V30 43642 C 5985.98 -7.02416 -1.9168 0
M  V30 43643 H 5986.01 -6.6888 -2.96621 0
M  V30 43644 H 5987.19 -6.53617 -0.192223 0
M  V30 43645 H 5988.67 -8.36622 -0.589963 0
M  V30 43646 H 5986.98 -10.0291 -1.79807 0
M  V30 43647 H 5986.79 -10.2138 0.558219 0
M  V30 43648 H 5985.16 -9.6579 0.0444202 0
M  V30 43649 H 5987.8 -5.69556 -2.79637 0
M  V30 43650 P 5989.66 -8.4349 -2.47671 0
M  V30 43651 O 5991.08 -8.92593 -2.65 0
M  V30 43652 O 5989.3 -7.7568 -1.19296 0
M  V30 43653 O 5989.33 -7.36886 -3.63805 0
M  V30 43654 C 5989.17 -7.95349 -4.982 0
M  V30 43655 C 5989.71 -6.94612 -5.98974 0
M  V30 43656 O 5988.66 -6.10347 -6.11815 0
M  V30 43657 C 5990.93 -6.11426 -5.62335 0
M  V30 43658 O 5991.67 -5.6162 -6.70584 0
M  V30 43659 C 5990.26 -5.04409 -4.73308 0
M  V30 43660 O 5991.06 -3.85992 -4.75183 0
M  V30 43661 C 5988.93 -4.8728 -5.41006 0
M  V30 43662 H 5988.96 -4.02333 -6.11157 0
M  V30 43663 H 5990.14 -5.39466 -3.69543 0
M  V30 43664 H 5991.63 -6.71916 -5.01943 0
M  V30 43665 H 5989.93 -7.4649 -6.93477 0
M  V30 43666 H 5989.74 -8.89416 -5.05237 0
M  V30 43667 H 5988.11 -8.14876 -5.18409 0
M  V30 43668 H 5990.75 -3.27957 -5.4317 0
M  V30 43669 P 5992.61 -5.75688 -6.64379 0
M  V30 43670 O 5994.03 -6.07627 -7.05504 0
M  V30 43671 O 5992.25 -5.88047 -5.19722 0
M  V30 43672 O 5992.28 -4.2322 -7.04443 0
M  V30 43673 C 5992.12 -3.99743 -8.4911 0
M  V30 43674 C 5992.66 -2.60516 -8.79425 0
M  V30 43675 O 5991.61 -1.82684 -8.4467 0
M  V30 43676 C 5993.88 -2.10343 -8.03628 0
M  V30 43677 O 5994.62 -1.09919 -8.67766 0
M  V30 43678 C 5993.21 -1.68446 -6.70876 0
M  V30 43679 O 5994.01 -0.678137 -6.08433 0
M  V30 43680 C 5991.88 -1.17436 -7.18567 0
M  V30 43681 H 5991.91 -0.0804732 -7.31656 0
M  V30 43682 H 5993.09 -2.54037 -6.02537 0
M  V30 43683 H 5994.58 -2.93881 -7.85526 0
M  V30 43684 H 5992.88 -2.53065 -9.86973 0
M  V30 43685 H 5992.69 -4.75072 -9.05887 0
M  V30 43686 H 5991.06 -4.05244 -8.76668 0
M  V30 43687 H 5993.7 0.177647 -6.34251 0
M  V30 43688 P 5995.56 -1.25109 -8.70152 0
M  V30 43689 O 5996.98 -1.29744 -9.22016 0
M  V30 43690 O 5995.2 -2.13714 -7.55141 0
M  V30 43691 O 5995.24 0.248149 -8.21425 0
M  V30 43692 C 5995.08 1.22779 -9.30434 0
M  V30 43693 C 5995.62 2.56293 -8.80664 0
M  V30 43694 O 5994.56 3.02979 -8.09349 0
M  V30 43695 C 5996.83 2.57523 -7.89775 0
M  V30 43696 O 5997.57 3.7668 -7.89438 0
M  V30 43697 C 5996.16 2.20997 -6.55446 0
M  V30 43698 O 5996.96 2.71895 -5.48509 0
M  V30 43699 C 5994.83 2.89693 -6.67988 0
M  V30 43700 H 5994.86 3.88793 -6.19859 0
M  V30 43701 H 5996.04 1.12046 -6.44229 0
M  V30 43702 H 5997.53 1.7746 -8.19711 0
M  V30 43703 H 5995.83 3.20706 -9.67112 0
M  V30 43704 H 5995.64 0.901032 -10.1892 0
M  V30 43705 H 5994.01 1.33049 -9.56592 0
M  V30 43706 H 5996.65 3.57847 -5.23962 0
M  V30 43707 P 5998.51 3.65191 -7.99657 0
M  V30 43708 O 5999.93 3.89332 -8.45794 0
M  V30 43709 O 5998.15 2.28472 -7.50807 0
M  V30 43710 O 5998.19 4.64972 -6.77611 0
M  V30 43711 C 5998.03 6.06319 -7.16352 0
M  V30 43712 C 5998.57 6.91731 -6.02299 0
M  V30 43713 O 5997.51 6.92449 -5.17064 0
M  V30 43714 C 5999.78 6.43627 -5.25174 0
M  V30 43715 O 6000.52 7.43686 -4.60469 0
M  V30 43716 C 5999.11 5.40275 -4.31916 0
M  V30 43717 O 5999.91 5.25279 -3.14438 0
M  V30 43718 C 5997.78 6.04847 -4.05327 0
M  V30 43719 H 5997.81 6.62195 -3.11261 0
M  V30 43720 H 5998.99 4.42556 -4.81383 0
M  V30 43721 H 6000.48 5.92458 -5.93643 0
M  V30 43722 H 5998.78 7.92655 -6.402 0
M  V30 43723 H 5998.59 6.26671 -8.0846 0
M  V30 43724 H 5996.96 6.29101 -7.32804 0
M  V30 43725 H 5999.6 5.84315 -2.47318 0
M  V30 43726 P 6001.46 7.39546 -4.75277 0
M  V30 43727 O 6002.88 7.84798 -5.01039 0
M  V30 43728 O 6001.1 5.9812 -5.08098 0
M  V30 43729 O 6001.14 7.57503 -3.1866 0
M  V30 43730 C 6000.98 8.97357 -2.74833 0
M  V30 43731 C 6001.52 9.07548 -1.32709 0
M  V30 43732 O 6000.46 8.62072 -0.606159 0
M  V30 43733 C 6002.73 8.25383 -0.938334 0
M  V30 43734 O 6003.47 8.74577 0.146954 0
M  V30 43735 C 6002.07 6.8802 -0.712559 0
M  V30 43736 O 6002.86 6.1189 0.194655 0
M  V30 43737 C 6000.73 7.27966 -0.139777 0
M  V30 43738 H 6000.76 7.25354 0.961601 0
M  V30 43739 H 6001.94 6.32557 -1.65702 0
M  V30 43740 H 6003.43 8.19355 -1.79097 0
M  V30 43741 H 6001.73 10.1294 -1.10029 0
M  V30 43742 H 6001.54 9.64276 -3.41316 0
M  V30 43743 H 5999.91 9.25417 -2.76357 0
M  V30 43744 H 6002.55 6.25267 1.07847 0
M  V30 43745 P 6004.41 8.791 -2.70929e-10 0
M  V30 43746 O 6005.83 9.31196 0.027936 0
M  V30 43747 O 6004.05 7.77869 -1.04071 0
M  V30 43748 O 6004.09 8.09533 1.41463 0
M  V30 43749 C 6003.93 9.03587 2.5397 0
M  V30 43750 C 6004.47 8.35226 3.79016 0
M  V30 43751 O 6003.41 7.57904 4.1503 0
M  V30 43752 C 6005.68 7.45087 3.67298 0
M  V30 43753 O 6006.42 7.27796 4.85194 0
M  V30 43754 C 6005.02 6.17323 3.12027 0
M  V30 43755 O 6005.81 5.04496 3.46627 0
M  V30 43756 C 6003.68 6.19961 3.81809 0
M  V30 43757 N 6002.64 5.71575 2.93223 0
M  V30 43758 C 6002.8 5.77362 1.59168 0
M  V30 43759 N 6001.78 5.3123 0.911893 0
M  V30 43760 C 6000.89 4.91717 1.89588 0
M  V30 43761 C 5999.63 4.3114 1.8076 0
M  V30 43762 N 5999.06 4.06823 3.02898 0
M  V30 43763 C 5999.66 4.35062 4.22711 0
M  V30 43764 N 6000.84 4.90805 4.35707 0
M  V30 43765 C 6001.41 5.16382 3.14469 0
M  V30 43766 H 6004.89 6.21428 2.0318 0
M  V30 43767 H 6006.38 7.86112 2.9231 0
M  V30 43768 H 6004.68 9.11171 4.55987 0
M  V30 43769 H 6004.49 9.9573 2.34194 0
M  V30 43770 H 6002.86 9.2792 2.67832 0
M  V30 43771 H 6003.7 6.16575 1.12198 0
M  V30 43772 H 6005.5 4.67628 4.28704 0
M  V30 43773 P 6007.36 7.39546 4.75277 0
M  V30 43774 O 6008.78 7.81777 5.05738 0
M  V30 43775 O 6007 7.1065 3.32998 0
M  V30 43776 O 6007.04 6.04542 5.56673 0
M  V30 43777 C 6006.88 6.22772 7.02095 0
M  V30 43778 C 6007.42 4.97725 7.70406 0
M  V30 43779 O 6006.36 4.13256 7.58987 0
M  V30 43780 C 6008.64 4.28231 7.11815 0
M  V30 43781 O 6009.37 3.49945 8.01648 0
M  V30 43782 C 6007.97 3.5063 5.96244 0
M  V30 43783 O 6008.77 2.36482 5.64681 0
M  V30 43784 C 6006.63 3.15122 6.56374 0
M  V30 43785 H 6006.66 2.13853 6.99751 0
M  V30 43786 H 6007.84 4.13501 5.06559 0
M  V30 43787 H 6009.33 5.03285 6.70911 0
M  V30 43788 H 6007.63 5.20877 8.75697 0
M  V30 43789 H 6007.44 7.11046 7.35349 0
M  V30 43790 H 6005.81 6.35815 7.26986 0
M  V30 43791 H 6008.45 1.61644 6.13565 0
M  V30 43792 P 6010.31 3.65191 7.99657 0
M  V30 43793 O 6011.73 3.8425 8.48115 0
M  V30 43794 O 6009.95 4.17805 6.64342 0
M  V30 43795 O 6009.99 2.07613 7.95143 0
M  V30 43796 C 6009.83 1.44328 9.27336 0
M  V30 43797 C 6010.37 0.0220036 9.17197 0
M  V30 43798 O 6009.31 -0.626867 8.61923 0
M  V30 43799 C 6011.59 -0.24586 8.30336 0
M  V30 43800 O 6012.32 -1.39011 8.63583 0
M  V30 43801 C 6010.92 -0.273849 6.91158 0
M  V30 43802 O 6011.72 -1.06348 6.02892 0
M  V30 43803 C 6009.58 -0.897649 7.22545 0
M  V30 43804 H 6009.61 -1.9841 7.04286 0
M  V30 43805 H 6010.8 0.739928 6.497 0
M  V30 43806 H 6012.28 0.60668 8.36503 0
M  V30 43807 H 6010.59 -0.352479 10.1829 0
M  V30 43808 H 6010.4 2.00611 10.0304 0
M  V30 43809 H 6008.77 1.41843 9.55327 0
M  V30 43810 H 6011.4 -1.95734 6.03555 0
M  V30 43811 P 6013.26 -1.25109 8.70152 0
M  V30 43812 O 6014.66 -1.31452 9.27431 0
M  V30 43813 O 6012.88 -0.0458113 7.89887 0
M  V30 43814 O 6012.94 -2.55201 7.81066 0
M  V30 43815 C 6012.78 -3.79939 8.58154 0
M  V30 43816 C 6013.32 -4.93969 7.72701 0
M  V30 43817 O 6012.26 -5.18666 6.91125 0
M  V30 43818 C 6014.54 -4.69597 6.85231 0
M  V30 43819 O 6015.27 -5.83832 6.51337 0
M  V30 43820 C 6013.87 -3.96706 5.66633 0
M  V30 43821 O 6014.67 -4.15346 4.49615 0
M  V30 43822 C 6012.53 -4.66153 5.59313 0
M  V30 43823 N 6011.49 -3.71582 5.24027 0
M  V30 43824 C 6010.45 -4.15133 4.44901 0
M  V30 43825 O 6010.49 -5.32122 4.00336 0
M  V30 43826 N 6009.44 -3.30554 4.15693 0
M  V30 43827 C 6009.49 -2.04701 4.61105 0
M  V30 43828 C 6010.58 -1.57111 5.38655 0
M  V30 43829 C 6011.55 -2.44234 5.68454 0
M  V30 43830 H 6012.56 -5.47604 4.85148 0
M  V30 43831 H 6013.75 -2.8955 5.86187 0
M  V30 43832 H 6015.23 -4.01995 7.36197 0
M  V30 43833 H 6013.54 -5.81019 8.37003 0
M  V30 43834 H 6013.34 -3.73517 9.52265 0
M  V30 43835 H 6011.71 -3.97122 8.80267 0
M  V30 43836 H 6010.63 -0.538464 5.72373 0
M  V30 43837 H 6012.4 -2.11927 6.29377 0
M  V30 43838 H 6014.45 -4.98352 4.09633 0
M  V30 43839 P 6016.21 -5.75688 6.64379 0
M  V30 43840 O 6017.63 -6.11849 7.01846 0
M  V30 43841 O 6015.85 -4.30744 6.56026 0
M  V30 43842 O 6015.89 -6.37042 5.19165 0
M  V30 43843 C 6015.73 -7.83578 5.16515 0
M  V30 43844 C 6016.27 -8.33398 3.83019 0
M  V30 43845 O 6015.21 -8.10074 3.01034 0
M  V30 43846 C 6017.49 -7.65514 3.2257 0
M  V30 43847 O 6018.23 -8.4329 2.32297 0
M  V30 43848 C 6016.82 -6.40075 2.62207 0
M  V30 43849 O 6017.62 -5.92589 1.53712 0
M  V30 43850 C 6015.48 -6.9454 2.18503 0
M  V30 43851 H 6015.51 -7.23063 1.12091 0
M  V30 43852 H 6016.7 -5.6025 3.37201 0
M  V30 43853 H 6018.18 -7.35707 4.02681 0
M  V30 43854 H 6016.49 -9.40912 3.9095 0
M  V30 43855 H 6016.3 -8.29056 5.99158 0
M  V30 43856 H 6014.67 -8.10073 5.25882 0
M  V30 43857 H 6017.31 -6.30324 0.726794 0
M  V30 43858 P 6019.16 -8.4349 2.47671 0
M  V30 43859 O 6020.58 -8.94167 2.5964 0
M  V30 43860 O 6018.8 -7.1704 3.19006 0
M  V30 43861 O 6018.84 -8.16596 0.923387 0
M  V30 43862 C 6018.68 -9.38437 0.108857 0
M  V30 43863 C 6019.22 -9.08175 -1.28353 0
M  V30 43864 O 6018.16 -8.44229 -1.84713 0
M  V30 43865 C 6020.44 -8.18386 -1.42505 0
M  V30 43866 O 6021.18 -8.3501 -2.60497 0
M  V30 43867 C 6019.77 -6.80225 -1.25468 0
M  V30 43868 O 6020.57 -5.81621 -1.91066 0
M  V30 43869 C 6018.43 -7.02416 -1.9168 0
M  V30 43870 H 6018.46 -6.6888 -2.96621 0
M  V30 43871 H 6019.65 -6.53617 -0.192223 0
M  V30 43872 H 6021.13 -8.36622 -0.589963 0
M  V30 43873 H 6019.44 -10.0291 -1.79807 0
M  V30 43874 H 6019.25 -10.2138 0.558219 0
M  V30 43875 H 6017.62 -9.6579 0.0444202 0
M  V30 43876 H 6020.26 -5.69556 -2.79637 0
M  V30 43877 P 6022.11 -8.4349 -2.47671 0
M  V30 43878 O 6023.54 -8.92593 -2.65 0
M  V30 43879 O 6021.75 -7.7568 -1.19296 0
M  V30 43880 O 6021.79 -7.36886 -3.63805 0
M  V30 43881 C 6021.63 -7.95349 -4.982 0
M  V30 43882 C 6022.17 -6.94612 -5.98974 0
M  V30 43883 O 6021.11 -6.10347 -6.11815 0
M  V30 43884 C 6023.39 -6.11426 -5.62335 0
M  V30 43885 O 6024.13 -5.6162 -6.70584 0
M  V30 43886 C 6022.72 -5.04409 -4.73308 0
M  V30 43887 O 6023.52 -3.85992 -4.75183 0
M  V30 43888 C 6021.38 -4.8728 -5.41006 0
M  V30 43889 H 6021.41 -4.02333 -6.11157 0
M  V30 43890 H 6022.6 -5.39466 -3.69543 0
M  V30 43891 H 6024.08 -6.71916 -5.01943 0
M  V30 43892 H 6022.39 -7.4649 -6.93477 0
M  V30 43893 H 6022.2 -8.89416 -5.05237 0
M  V30 43894 H 6020.57 -8.14876 -5.18409 0
M  V30 43895 H 6023.21 -3.27957 -5.4317 0
M  V30 43896 P 6025.06 -5.75688 -6.64379 0
M  V30 43897 O 6026.49 -6.07627 -7.05504 0
M  V30 43898 O 6024.7 -5.88047 -5.19722 0
M  V30 43899 O 6024.74 -4.2322 -7.04443 0
M  V30 43900 C 6024.58 -3.99743 -8.4911 0
M  V30 43901 C 6025.12 -2.60516 -8.79425 0
M  V30 43902 O 6024.06 -1.82684 -8.4467 0
M  V30 43903 C 6026.34 -2.10343 -8.03628 0
M  V30 43904 O 6027.08 -1.09919 -8.67766 0
M  V30 43905 C 6025.67 -1.68446 -6.70876 0
M  V30 43906 O 6026.47 -0.678137 -6.08433 0
M  V30 43907 C 6024.33 -1.17436 -7.18567 0
M  V30 43908 H 6024.36 -0.0804732 -7.31656 0
M  V30 43909 H 6025.55 -2.54037 -6.02537 0
M  V30 43910 H 6027.03 -2.93881 -7.85526 0
M  V30 43911 H 6025.34 -2.53065 -9.86973 0
M  V30 43912 H 6025.15 -4.75072 -9.05887 0
M  V30 43913 H 6023.52 -4.05244 -8.76668 0
M  V30 43914 H 6026.16 0.177647 -6.34251 0
M  V30 43915 P 6028.01 -1.25109 -8.70152 0
M  V30 43916 O 6029.44 -1.29744 -9.22016 0
M  V30 43917 O 6027.65 -2.13714 -7.55141 0
M  V30 43918 O 6027.69 0.248149 -8.21425 0
M  V30 43919 C 6027.53 1.22779 -9.30434 0
M  V30 43920 C 6028.07 2.56293 -8.80664 0
M  V30 43921 O 6027.02 3.02979 -8.09349 0
M  V30 43922 C 6029.29 2.57523 -7.89775 0
M  V30 43923 O 6030.03 3.7668 -7.89438 0
M  V30 43924 C 6028.62 2.20997 -6.55446 0
M  V30 43925 O 6029.42 2.71895 -5.48509 0
M  V30 43926 C 6027.28 2.89693 -6.67988 0
M  V30 43927 H 6027.32 3.88793 -6.19859 0
M  V30 43928 H 6028.5 1.12046 -6.44229 0
M  V30 43929 H 6029.98 1.7746 -8.19711 0
M  V30 43930 H 6028.29 3.20706 -9.67112 0
M  V30 43931 H 6028.1 0.901032 -10.1892 0
M  V30 43932 H 6026.47 1.33049 -9.56592 0
M  V30 43933 H 6029.11 3.57847 -5.23962 0
M  V30 43934 P 6030.97 3.65191 -7.99657 0
M  V30 43935 O 6032.39 3.89332 -8.45794 0
M  V30 43936 O 6030.61 2.28472 -7.50807 0
M  V30 43937 O 6030.64 4.64972 -6.77611 0
M  V30 43938 C 6030.48 6.06319 -7.16352 0
M  V30 43939 C 6031.02 6.91731 -6.02299 0
M  V30 43940 O 6029.97 6.92449 -5.17064 0
M  V30 43941 C 6032.24 6.43627 -5.25174 0
M  V30 43942 O 6032.98 7.43686 -4.60469 0
M  V30 43943 C 6031.57 5.40275 -4.31916 0
M  V30 43944 O 6032.37 5.25279 -3.14438 0
M  V30 43945 C 6030.23 6.04847 -4.05327 0
M  V30 43946 H 6030.27 6.62195 -3.11261 0
M  V30 43947 H 6031.45 4.42556 -4.81383 0
M  V30 43948 H 6032.93 5.92458 -5.93643 0
M  V30 43949 H 6031.24 7.92655 -6.402 0
M  V30 43950 H 6031.05 6.26671 -8.0846 0
M  V30 43951 H 6029.42 6.29101 -7.32804 0
M  V30 43952 H 6032.06 5.84315 -2.47318 0
M  V30 43953 P 6033.92 7.39546 -4.75277 0
M  V30 43954 O 6035.34 7.84798 -5.01039 0
M  V30 43955 O 6033.56 5.9812 -5.08098 0
M  V30 43956 O 6033.59 7.57503 -3.1866 0
M  V30 43957 C 6033.43 8.97357 -2.74833 0
M  V30 43958 C 6033.97 9.07548 -1.32709 0
M  V30 43959 O 6032.92 8.62072 -0.606159 0
M  V30 43960 C 6035.19 8.25383 -0.938334 0
M  V30 43961 O 6035.93 8.74577 0.146954 0
M  V30 43962 C 6034.52 6.8802 -0.712559 0
M  V30 43963 O 6035.32 6.1189 0.194655 0
M  V30 43964 C 6033.18 7.27966 -0.139777 0
M  V30 43965 H 6033.22 7.25354 0.961601 0
M  V30 43966 H 6034.4 6.32557 -1.65702 0
M  V30 43967 H 6035.88 8.19355 -1.79097 0
M  V30 43968 H 6034.19 10.1294 -1.10029 0
M  V30 43969 H 6034 9.64276 -3.41316 0
M  V30 43970 H 6032.37 9.25417 -2.76357 0
M  V30 43971 H 6035.01 6.25267 1.07847 0
M  V30 43972 P 6036.87 8.791 -2.65122e-10 0
M  V30 43973 O 6038.27 9.36698 -0.018734 0
M  V30 43974 O 6036.49 7.82499 -1.07878 0
M  V30 43975 O 6036.54 8.09434 1.41446 0
M  V30 43976 C 6036.38 9.0349 2.53943 0
M  V30 43977 C 6036.92 8.35135 3.78975 0
M  V30 43978 O 6035.87 7.57904 4.1503 0
M  V30 43979 C 6038.14 7.45087 3.67298 0
M  V30 43980 O 6038.88 7.27796 4.85194 0
M  V30 43981 C 6037.47 6.17323 3.12027 0
M  V30 43982 O 6038.27 5.04149 3.47132 0
M  V30 43983 C 6036.14 6.19961 3.81809 0
M  V30 43984 N 6035.09 5.71575 2.93223 0
M  V30 43985 C 6034.06 4.99452 3.47592 0
M  V30 43986 O 6034.1 4.7199 4.69732 0
M  V30 43987 N 6033.05 4.58505 2.6803 0
M  V30 43988 C 6033.09 4.85544 1.36995 0
M  V30 43989 C 6034.19 5.55532 0.788532 0
M  V30 43990 C 6035.16 5.97426 1.60849 0
M  V30 43991 H 6036.17 5.58142 4.72986 0
M  V30 43992 H 6037.35 6.21428 2.0318 0
M  V30 43993 H 6038.83 7.85913 2.93131 0
M  V30 43994 H 6037.14 9.11171 4.55987 0
M  V30 43995 H 6036.95 9.9573 2.34194 0
M  V30 43996 H 6035.32 9.27824 2.67805 0
M  V30 43997 H 6034.24 5.7421 -0.281588 0
M  V30 43998 H 6036 6.53132 1.202 0
M  V30 43999 H 6038.06 4.76386 4.34983 0
M  V30 44000 P 6039.82 7.39546 4.75277 0
M  V30 44001 O 6041.24 7.81861 5.05793 0
M  V30 44002 O 6039.46 7.1065 3.32998 0
M  V30 44003 O 6039.49 6.04542 5.56673 0
M  V30 44004 C 6039.33 6.22839 7.02169 0
M  V30 44005 C 6039.87 4.97725 7.70406 0
M  V30 44006 O 6038.82 4.13208 7.58899 0
M  V30 44007 C 6041.09 4.28231 7.11815 0
M  V30 44008 O 6041.83 3.49945 8.01648 0
M  V30 44009 C 6040.42 3.5063 5.96244 0
M  V30 44010 O 6041.22 2.37008 5.64352 0
M  V30 44011 C 6039.09 3.15122 6.56374 0
M  V30 44012 N 6038.04 3.22311 5.55692 0
M  V30 44013 C 6038.21 3.99655 4.46046 0
M  V30 44014 N 6037.18 3.97599 3.63918 0
M  V30 44015 C 6036.3 3.11159 4.25334 0
M  V30 44016 C 6035.03 2.64972 3.85157 0
M  V30 44017 N 6034.43 3.02132 2.69405 0
M  V30 44018 N 6034.47 1.78482 4.74759 0
M  V30 44019 C 6035.07 1.37463 5.90819 0
M  V30 44020 N 6036.25 1.7733 6.31889 0
M  V30 44021 C 6036.82 2.64393 5.43725 0
M  V30 44022 H 6039.12 2.13823 6.99656 0
M  V30 44023 H 6040.3 4.12931 5.06895 0
M  V30 44024 H 6041.78 5.03285 6.70911 0
M  V30 44025 H 6040.09 5.20001 8.76217 0
M  V30 44026 H 6039.9 7.11046 7.35349 0
M  V30 44027 H 6038.27 6.35815 7.26986 0
M  V30 44028 H 6034.53 0.66574 6.53015 0
M  V30 44029 H 6039.11 4.58037 4.27732 0
M  V30 44030 H 6033.5 2.64828 2.45331 0
M  V30 44031 H 6034.91 3.67472 2.05644 0
M  V30 44032 H 6040.91 1.61619 6.13468 0
M  V30 44033 P 6042.77 3.65191 7.99657 0
M  V30 44034 O 6044.19 3.8425 8.48115 0
M  V30 44035 O 6042.41 4.17805 6.64342 0
M  V30 44036 O 6042.44 2.07613 7.95143 0
M  V30 44037 C 6042.28 1.44328 9.27336 0
M  V30 44038 C 6042.82 0.0220036 9.17197 0
M  V30 44039 O 6041.77 -0.626867 8.61923 0
M  V30 44040 C 6044.04 -0.24586 8.30336 0
M  V30 44041 O 6044.78 -1.39011 8.63583 0
M  V30 44042 C 6043.37 -0.273849 6.91158 0
M  V30 44043 O 6044.17 -1.06348 6.02892 0
M  V30 44044 C 6042.04 -0.897649 7.22545 0
M  V30 44045 H 6042.07 -1.9841 7.04286 0
M  V30 44046 H 6043.25 0.739928 6.497 0
M  V30 44047 H 6044.74 0.60668 8.36503 0
M  V30 44048 H 6043.04 -0.352479 10.1829 0
M  V30 44049 H 6042.85 2.00611 10.0304 0
M  V30 44050 H 6041.22 1.41843 9.55327 0
M  V30 44051 H 6043.86 -1.95734 6.03555 0
M  V30 44052 P 6045.72 -1.25109 8.70152 0
M  V30 44053 O 6047.12 -1.31452 9.27431 0
M  V30 44054 O 6045.34 -0.0458113 7.89887 0
M  V30 44055 O 6045.39 -2.55201 7.81066 0
M  V30 44056 C 6045.23 -3.79939 8.58154 0
M  V30 44057 C 6045.77 -4.93969 7.72701 0
M  V30 44058 O 6044.72 -5.18666 6.91125 0
M  V30 44059 C 6046.99 -4.69597 6.85231 0
M  V30 44060 O 6047.73 -5.83832 6.51337 0
M  V30 44061 C 6046.32 -3.96706 5.66633 0
M  V30 44062 O 6047.12 -4.15346 4.49615 0
M  V30 44063 C 6044.99 -4.66153 5.59313 0
M  V30 44064 N 6043.94 -3.71582 5.24027 0
M  V30 44065 C 6042.91 -4.15133 4.44901 0
M  V30 44066 O 6042.95 -5.32122 4.00336 0
M  V30 44067 N 6041.9 -3.30554 4.15693 0
M  V30 44068 C 6041.94 -2.04701 4.61105 0
M  V30 44069 N 6040.93 -1.23621 4.31855 0
M  V30 44070 C 6043.04 -1.57111 5.38655 0
M  V30 44071 C 6044.01 -2.44234 5.68454 0
M  V30 44072 H 6045.02 -5.47604 4.85148 0
M  V30 44073 H 6046.2 -2.8955 5.86187 0
M  V30 44074 H 6047.69 -4.01995 7.36197 0
M  V30 44075 H 6045.99 -5.81019 8.37003 0
M  V30 44076 H 6045.8 -3.73517 9.52265 0
M  V30 44077 H 6044.17 -3.97122 8.80267 0
M  V30 44078 H 6043.09 -0.538464 5.72373 0
M  V30 44079 H 6044.85 -2.11927 6.29377 0
M  V30 44080 H 6040.14 -1.58199 3.7543 0
M  V30 44081 H 6040.94 -0.264601 4.65348 0
M  V30 44082 H 6046.91 -4.98352 4.09633 0
M  V30 44083 P 6048.67 -5.75688 6.64379 0
M  V30 44084 O 6050.09 -6.11849 7.01846 0
M  V30 44085 O 6048.31 -4.30744 6.56026 0
M  V30 44086 O 6048.35 -6.37042 5.19165 0
M  V30 44087 C 6048.19 -7.83578 5.16515 0
M  V30 44088 C 6048.73 -8.33398 3.83019 0
M  V30 44089 O 6047.67 -8.10074 3.01034 0
M  V30 44090 C 6049.94 -7.65514 3.2257 0
M  V30 44091 O 6050.68 -8.4329 2.32297 0
M  V30 44092 C 6049.27 -6.40075 2.62207 0
M  V30 44093 O 6050.07 -5.92589 1.53712 0
M  V30 44094 C 6047.94 -6.9454 2.18503 0
M  V30 44095 H 6047.97 -7.23063 1.12091 0
M  V30 44096 H 6049.15 -5.6025 3.37201 0
M  V30 44097 H 6050.64 -7.35707 4.02681 0
M  V30 44098 H 6048.94 -9.40912 3.9095 0
M  V30 44099 H 6048.75 -8.29056 5.99158 0
M  V30 44100 H 6047.12 -8.10073 5.25882 0
M  V30 44101 H 6049.76 -6.30324 0.726794 0
M  V30 44102 P 6051.62 -8.4349 2.47671 0
M  V30 44103 O 6053.04 -8.94167 2.5964 0
M  V30 44104 O 6051.26 -7.1704 3.19006 0
M  V30 44105 O 6051.3 -8.16596 0.923387 0
M  V30 44106 C 6051.14 -9.38437 0.108857 0
M  V30 44107 C 6051.68 -9.08175 -1.28353 0
M  V30 44108 O 6050.62 -8.44229 -1.84713 0
M  V30 44109 C 6052.89 -8.18386 -1.42505 0
M  V30 44110 O 6053.63 -8.3501 -2.60497 0
M  V30 44111 C 6052.23 -6.80225 -1.25468 0
M  V30 44112 O 6053.02 -5.81621 -1.91066 0
M  V30 44113 C 6050.89 -7.02416 -1.9168 0
M  V30 44114 H 6050.92 -6.6888 -2.96621 0
M  V30 44115 H 6052.1 -6.53617 -0.192223 0
M  V30 44116 H 6053.59 -8.36622 -0.589963 0
M  V30 44117 H 6051.89 -10.0291 -1.79807 0
M  V30 44118 H 6051.7 -10.2138 0.558219 0
M  V30 44119 H 6050.07 -9.6579 0.0444202 0
M  V30 44120 H 6052.71 -5.69556 -2.79637 0
M  V30 44121 P 6054.57 -8.4349 -2.47671 0
M  V30 44122 O 6055.99 -8.92593 -2.65 0
M  V30 44123 O 6054.21 -7.7568 -1.19296 0
M  V30 44124 O 6054.25 -7.36886 -3.63805 0
M  V30 44125 C 6054.09 -7.95349 -4.982 0
M  V30 44126 C 6054.63 -6.94612 -5.98974 0
M  V30 44127 O 6053.57 -6.10347 -6.11815 0
M  V30 44128 C 6055.84 -6.11426 -5.62335 0
M  V30 44129 O 6056.58 -5.6162 -6.70584 0
M  V30 44130 C 6055.18 -5.04409 -4.73308 0
M  V30 44131 O 6055.97 -3.85992 -4.75183 0
M  V30 44132 C 6053.84 -4.8728 -5.41006 0
M  V30 44133 H 6053.87 -4.02333 -6.11157 0
M  V30 44134 H 6055.05 -5.39466 -3.69543 0
M  V30 44135 H 6056.54 -6.71916 -5.01943 0
M  V30 44136 H 6054.84 -7.4649 -6.93477 0
M  V30 44137 H 6054.65 -8.89416 -5.05237 0
M  V30 44138 H 6053.02 -8.14876 -5.18409 0
M  V30 44139 H 6055.66 -3.27957 -5.4317 0
M  V30 44140 P 6057.52 -5.75688 -6.64379 0
M  V30 44141 O 6058.94 -6.07627 -7.05504 0
M  V30 44142 O 6057.16 -5.88047 -5.19722 0
M  V30 44143 O 6057.2 -4.2322 -7.04443 0
M  V30 44144 C 6057.04 -3.99743 -8.4911 0
M  V30 44145 C 6057.58 -2.60516 -8.79425 0
M  V30 44146 O 6056.52 -1.82684 -8.4467 0
M  V30 44147 C 6058.8 -2.10343 -8.03628 0
M  V30 44148 O 6059.53 -1.09919 -8.67766 0
M  V30 44149 C 6058.13 -1.68446 -6.70876 0
M  V30 44150 O 6058.93 -0.678137 -6.08433 0
M  V30 44151 C 6056.79 -1.17436 -7.18567 0
M  V30 44152 H 6056.82 -0.0804732 -7.31656 0
M  V30 44153 H 6058 -2.54037 -6.02537 0
M  V30 44154 H 6059.49 -2.93881 -7.85526 0
M  V30 44155 H 6057.79 -2.53065 -9.86973 0
M  V30 44156 H 6057.6 -4.75072 -9.05887 0
M  V30 44157 H 6055.97 -4.05244 -8.76668 0
M  V30 44158 H 6058.61 0.177647 -6.34251 0
M  V30 44159 P 6060.47 -1.25109 -8.70152 0
M  V30 44160 O 6061.89 -1.29744 -9.22016 0
M  V30 44161 O 6060.11 -2.13714 -7.55141 0
M  V30 44162 O 6060.15 0.248149 -8.21425 0
M  V30 44163 C 6059.99 1.22779 -9.30434 0
M  V30 44164 C 6060.53 2.56293 -8.80664 0
M  V30 44165 O 6059.47 3.02979 -8.09349 0
M  V30 44166 C 6061.75 2.57523 -7.89775 0
M  V30 44167 O 6062.48 3.7668 -7.89438 0
M  V30 44168 C 6061.08 2.20997 -6.55446 0
M  V30 44169 O 6061.88 2.71895 -5.48509 0
M  V30 44170 C 6059.74 2.89693 -6.67988 0
M  V30 44171 H 6059.77 3.88793 -6.19859 0
M  V30 44172 H 6060.95 1.12046 -6.44229 0
M  V30 44173 H 6062.44 1.7746 -8.19711 0
M  V30 44174 H 6060.74 3.20706 -9.67112 0
M  V30 44175 H 6060.55 0.901032 -10.1892 0
M  V30 44176 H 6058.92 1.33049 -9.56592 0
M  V30 44177 H 6061.56 3.57847 -5.23962 0
M  V30 44178 P 6063.42 3.65191 -7.99657 0
M  V30 44179 O 6064.82 3.87414 -8.52829 0
M  V30 44180 O 6063.04 2.26932 -7.566 0
M  V30 44181 O 6063.1 4.64915 -6.77529 0
M  V30 44182 C 6062.94 6.06319 -7.16352 0
M  V30 44183 C 6063.48 6.91655 -6.02234 0
M  V30 44184 O 6062.42 6.92369 -5.17005 0
M  V30 44185 C 6064.7 6.43627 -5.25174 0
M  V30 44186 O 6065.43 7.43686 -4.60469 0
M  V30 44187 C 6064.03 5.40275 -4.31916 0
M  V30 44188 O 6064.83 5.25193 -3.14386 0
M  V30 44189 C 6062.69 6.04847 -4.05327 0
M  V30 44190 N 6061.65 5.04166 -3.98114 0
M  V30 44191 C 6060.61 5.2366 -3.09923 0
M  V30 44192 O 6060.65 6.23355 -2.34204 0
M  V30 44193 N 6059.6 4.34279 -3.05727 0
M  V30 44194 C 6059.65 3.26317 -3.84756 0
M  V30 44195 C 6060.74 3.02504 -4.72573 0
M  V30 44196 C 6061.71 3.94493 -4.76618 0
M  V30 44197 H 6062.72 6.62104 -3.11218 0
M  V30 44198 H 6063.91 4.42969 -4.80867 0
M  V30 44199 H 6065.39 5.93122 -5.93121 0
M  V30 44200 H 6063.7 7.93295 -6.39407 0
M  V30 44201 H 6063.5 6.26671 -8.0846 0
M  V30 44202 H 6061.87 6.29036 -7.32728 0
M  V30 44203 H 6060.79 2.12921 -5.34017 0
M  V30 44204 H 6062.56 3.80658 -5.44176 0
M  V30 44205 H 6064.61 5.93572 -2.52637 0
M  V30 44206 P 6066.37 7.39546 -4.75277 0
M  V30 44207 O 6067.79 7.84798 -5.01039 0
M  V30 44208 O 6066.01 5.9812 -5.08098 0
M  V30 44209 O 6066.05 7.57503 -3.1866 0
M  V30 44210 C 6065.89 8.97357 -2.74833 0
M  V30 44211 C 6066.43 9.07548 -1.32709 0
M  V30 44212 O 6065.37 8.62072 -0.606159 0
M  V30 44213 C 6067.65 8.25383 -0.938334 0
M  V30 44214 O 6068.38 8.74577 0.146954 0
M  V30 44215 C 6066.98 6.8802 -0.712559 0
M  V30 44216 O 6067.78 6.1189 0.194655 0
M  V30 44217 C 6065.64 7.27966 -0.139777 0
M  V30 44218 H 6065.67 7.25354 0.961601 0
M  V30 44219 H 6066.86 6.32557 -1.65702 0
M  V30 44220 H 6068.34 8.19355 -1.79097 0
M  V30 44221 H 6066.65 10.1294 -1.10029 0
M  V30 44222 H 6066.46 9.64276 -3.41316 0
M  V30 44223 H 6064.83 9.25417 -2.76357 0
M  V30 44224 H 6067.46 6.25267 1.07847 0
M  V30 44225 P 6069.32 8.791 -2.59315e-10 0
M  V30 44226 O 6070.74 9.31196 0.027936 0
M  V30 44227 O 6068.96 7.77869 -1.04071 0
M  V30 44228 O 6069 8.09533 1.41463 0
M  V30 44229 C 6068.84 9.03587 2.5397 0
M  V30 44230 C 6069.38 8.35226 3.79016 0
M  V30 44231 O 6068.32 7.57904 4.1503 0
M  V30 44232 C 6070.6 7.45087 3.67298 0
M  V30 44233 O 6071.34 7.27796 4.85194 0
M  V30 44234 C 6069.93 6.17323 3.12027 0
M  V30 44235 O 6070.73 5.04496 3.46627 0
M  V30 44236 C 6068.59 6.19961 3.81809 0
M  V30 44237 N 6067.55 5.71575 2.93223 0
M  V30 44238 C 6067.72 5.77362 1.59168 0
M  V30 44239 N 6066.69 5.3123 0.911893 0
M  V30 44240 C 6065.81 4.91717 1.89588 0
M  V30 44241 C 6064.54 4.3114 1.8076 0
M  V30 44242 N 6063.97 4.06823 3.02898 0
M  V30 44243 C 6064.58 4.35062 4.22711 0
M  V30 44244 N 6065.75 4.90805 4.35707 0
M  V30 44245 C 6066.33 5.16382 3.14469 0
M  V30 44246 H 6069.81 6.21428 2.0318 0
M  V30 44247 H 6071.29 7.86112 2.9231 0
M  V30 44248 H 6069.6 9.11171 4.55987 0
M  V30 44249 H 6069.41 9.9573 2.34194 0
M  V30 44250 H 6067.78 9.2792 2.67832 0
M  V30 44251 H 6068.62 6.16575 1.12198 0
M  V30 44252 H 6070.42 4.67628 4.28704 0
M  V30 44253 P 6072.27 7.39546 4.75277 0
M  V30 44254 O 6073.7 7.81777 5.05738 0
M  V30 44255 O 6071.91 7.1065 3.32998 0
M  V30 44256 O 6071.95 6.04542 5.56673 0
M  V30 44257 C 6071.79 6.22772 7.02095 0
M  V30 44258 C 6072.33 4.97725 7.70406 0
M  V30 44259 O 6071.27 4.13256 7.58987 0
M  V30 44260 C 6073.55 4.28231 7.11815 0
M  V30 44261 O 6074.29 3.49945 8.01648 0
M  V30 44262 C 6072.88 3.5063 5.96244 0
M  V30 44263 O 6073.68 2.36482 5.64681 0
M  V30 44264 C 6071.54 3.15122 6.56374 0
M  V30 44265 H 6071.57 2.13853 6.99751 0
M  V30 44266 H 6072.76 4.13501 5.06559 0
M  V30 44267 H 6074.24 5.03285 6.70911 0
M  V30 44268 H 6072.55 5.20877 8.75697 0
M  V30 44269 H 6072.36 7.11046 7.35349 0
M  V30 44270 H 6070.73 6.35815 7.26986 0
M  V30 44271 H 6073.37 1.61644 6.13565 0
M  V30 44272 P 6075.22 3.65191 7.99657 0
M  V30 44273 O 6076.65 3.84333 8.48297 0
M  V30 44274 O 6074.86 4.17805 6.64342 0
M  V30 44275 O 6074.9 2.07613 7.95143 0
M  V30 44276 C 6074.74 1.44328 9.27336 0
M  V30 44277 C 6075.28 0.0220012 9.17097 0
M  V30 44278 O 6074.23 -0.626867 8.61923 0
M  V30 44279 C 6076.5 -0.24586 8.30336 0
M  V30 44280 O 6077.24 -1.39011 8.63583 0
M  V30 44281 C 6075.83 -0.273849 6.91158 0
M  V30 44282 O 6076.63 -1.06331 6.02794 0
M  V30 44283 C 6074.49 -0.897649 7.22545 0
M  V30 44284 N 6073.45 -0.292839 6.41732 0
M  V30 44285 C 6073.51 1.00068 6.10757 0
M  V30 44286 N 6072.47 1.36468 5.35794 0
M  V30 44287 C 6071.73 0.258894 5.2366 0
M  V30 44288 C 6070.43 0.0670682 4.65752 0
M  V30 44289 O 6069.69 0.902443 4.10497 0
M  V30 44290 N 6070 -1.2131 4.75881 0
M  V30 44291 C 6070.75 -2.24934 5.37101 0
M  V30 44292 N 6070.15 -3.48783 5.33984 0
M  V30 44293 N 6071.9 -2.0844 5.95684 0
M  V30 44294 C 6072.36 -0.81395 5.87791 0
M  V30 44295 H 6074.52 -1.9841 7.04286 0
M  V30 44296 H 6075.71 0.739815 6.49601 0
M  V30 44297 H 6077.19 0.598315 8.36563 0
M  V30 44298 H 6075.5 -0.352479 10.1829 0
M  V30 44299 H 6075.31 2.00611 10.0304 0
M  V30 44300 H 6073.68 1.41843 9.55327 0
M  V30 44301 H 6069.1 -1.44434 4.37895 0
M  V30 44302 H 6074.31 1.67697 6.42268 0
M  V30 44303 H 6069.24 -3.60543 4.87699 0
M  V30 44304 H 6070.61 -4.29232 5.7819 0
M  V30 44305 H 6076.32 -1.95704 6.0346 0
M  V30 44306 P 6078.17 -1.25109 8.70152 0
M  V30 44307 O 6079.6 -1.35274 9.21221 0
M  V30 44308 O 6077.81 -0.0769065 7.84762 0
M  V30 44309 O 6077.85 -2.55232 7.81161 0
M  V30 44310 C 6077.69 -3.79939 8.58154 0
M  V30 44311 C 6078.23 -4.94023 7.72785 0
M  V30 44312 O 6077.18 -5.18726 6.91205 0
M  V30 44313 C 6079.45 -4.69597 6.85231 0
M  V30 44314 O 6080.19 -5.83832 6.51337 0
M  V30 44315 C 6078.78 -3.96706 5.66633 0
M  V30 44316 O 6079.58 -4.15414 4.49689 0
M  V30 44317 C 6077.44 -4.66153 5.59313 0
M  V30 44318 H 6077.48 -5.47679 4.85214 0
M  V30 44319 H 6078.66 -2.89008 5.86566 0
M  V30 44320 H 6080.14 -4.0121 7.36511 0
M  V30 44321 H 6078.45 -5.80182 8.37584 0
M  V30 44322 H 6078.26 -3.73517 9.52265 0
M  V30 44323 H 6076.63 -3.97163 8.80359 0
M  V30 44324 H 6079.27 -4.90969 4.01921 0
M  V30 44325 P 6081.12 -5.75688 6.64379 0
M  V30 44326 O 6082.55 -6.11849 7.01846 0
M  V30 44327 O 6080.76 -4.30744 6.56026 0
M  V30 44328 O 6080.8 -6.37042 5.19165 0
M  V30 44329 C 6080.64 -7.83578 5.16515 0
M  V30 44330 C 6081.18 -8.33398 3.83019 0
M  V30 44331 O 6080.13 -8.10074 3.01034 0
M  V30 44332 C 6082.4 -7.65514 3.2257 0
M  V30 44333 O 6083.14 -8.4329 2.32297 0
M  V30 44334 C 6081.73 -6.40075 2.62207 0
M  V30 44335 O 6082.53 -5.92589 1.53712 0
M  V30 44336 C 6080.39 -6.9454 2.18503 0
M  V30 44337 H 6080.43 -7.23063 1.12091 0
M  V30 44338 H 6081.61 -5.6025 3.37201 0
M  V30 44339 H 6083.09 -7.35707 4.02681 0
M  V30 44340 H 6081.4 -9.40912 3.9095 0
M  V30 44341 H 6081.21 -8.29056 5.99158 0
M  V30 44342 H 6079.58 -8.10073 5.25882 0
M  V30 44343 H 6082.22 -6.30324 0.726794 0
M  V30 44344 P 6084.08 -8.4349 2.47671 0
M  V30 44345 O 6085.5 -8.94167 2.5964 0
M  V30 44346 O 6083.72 -7.1704 3.19006 0
M  V30 44347 O 6083.75 -8.16596 0.923387 0
M  V30 44348 C 6083.59 -9.38437 0.108857 0
M  V30 44349 C 6084.13 -9.08175 -1.28353 0
M  V30 44350 O 6083.08 -8.44229 -1.84713 0
M  V30 44351 C 6085.35 -8.18386 -1.42505 0
M  V30 44352 O 6086.09 -8.3501 -2.60497 0
M  V30 44353 C 6084.68 -6.80225 -1.25468 0
M  V30 44354 O 6085.48 -5.81621 -1.91066 0
M  V30 44355 C 6083.34 -7.02416 -1.9168 0
M  V30 44356 H 6083.38 -6.6888 -2.96621 0
M  V30 44357 H 6084.56 -6.53617 -0.192223 0
M  V30 44358 H 6086.04 -8.36622 -0.589963 0
M  V30 44359 H 6084.35 -10.0291 -1.79807 0
M  V30 44360 H 6084.16 -10.2138 0.558219 0
M  V30 44361 H 6082.53 -9.6579 0.0444202 0
M  V30 44362 H 6085.17 -5.69556 -2.79637 0
M  V30 44363 P 6087.03 -8.4349 -2.47671 0
M  V30 44364 O 6088.45 -8.92593 -2.65 0
M  V30 44365 O 6086.67 -7.7568 -1.19296 0
M  V30 44366 O 6086.7 -7.36886 -3.63805 0
M  V30 44367 C 6086.54 -7.95349 -4.982 0
M  V30 44368 C 6087.08 -6.94612 -5.98974 0
M  V30 44369 O 6086.03 -6.10347 -6.11815 0
M  V30 44370 C 6088.3 -6.11426 -5.62335 0
M  V30 44371 O 6089.04 -5.6162 -6.70584 0
M  V30 44372 C 6087.63 -5.04409 -4.73308 0
M  V30 44373 O 6088.43 -3.85992 -4.75183 0
M  V30 44374 C 6086.29 -4.8728 -5.41006 0
M  V30 44375 H 6086.33 -4.02333 -6.11157 0
M  V30 44376 H 6087.51 -5.39466 -3.69543 0
M  V30 44377 H 6088.99 -6.71916 -5.01943 0
M  V30 44378 H 6087.3 -7.4649 -6.93477 0
M  V30 44379 H 6087.11 -8.89416 -5.05237 0
M  V30 44380 H 6085.48 -8.14876 -5.18409 0
M  V30 44381 H 6088.12 -3.27957 -5.4317 0
M  V30 44382 P 6089.98 -5.75688 -6.64379 0
M  V30 44383 O 6091.4 -6.07627 -7.05504 0
M  V30 44384 O 6089.62 -5.88047 -5.19722 0
M  V30 44385 O 6089.65 -4.2322 -7.04443 0
M  V30 44386 C 6089.49 -3.99743 -8.4911 0
M  V30 44387 C 6090.03 -2.60516 -8.79425 0
M  V30 44388 O 6088.98 -1.82684 -8.4467 0
M  V30 44389 C 6091.25 -2.10343 -8.03628 0
M  V30 44390 O 6091.99 -1.09919 -8.67766 0
M  V30 44391 C 6090.58 -1.68446 -6.70876 0
M  V30 44392 O 6091.38 -0.678137 -6.08433 0
M  V30 44393 C 6089.25 -1.17436 -7.18567 0
M  V30 44394 H 6089.28 -0.0804732 -7.31656 0
M  V30 44395 H 6090.46 -2.54037 -6.02537 0
M  V30 44396 H 6091.94 -2.93881 -7.85526 0
M  V30 44397 H 6090.25 -2.53065 -9.86973 0
M  V30 44398 H 6090.06 -4.75072 -9.05887 0
M  V30 44399 H 6088.43 -4.05244 -8.76668 0
M  V30 44400 H 6091.07 0.177647 -6.34251 0
M  V30 44401 P 6092.93 -1.25109 -8.70152 0
M  V30 44402 O 6094.35 -1.29744 -9.22016 0
M  V30 44403 O 6092.57 -2.13714 -7.55141 0
M  V30 44404 O 6092.6 0.248149 -8.21425 0
M  V30 44405 C 6092.44 1.22779 -9.30434 0
M  V30 44406 C 6092.98 2.56293 -8.80664 0
M  V30 44407 O 6091.93 3.02979 -8.09349 0
M  V30 44408 C 6094.2 2.57523 -7.89775 0
M  V30 44409 O 6094.94 3.7668 -7.89438 0
M  V30 44410 C 6093.53 2.20997 -6.55446 0
M  V30 44411 O 6094.33 2.71895 -5.48509 0
M  V30 44412 C 6092.2 2.89693 -6.67988 0
M  V30 44413 H 6092.23 3.88793 -6.19859 0
M  V30 44414 H 6093.41 1.12046 -6.44229 0
M  V30 44415 H 6094.9 1.7746 -8.19711 0
M  V30 44416 H 6093.2 3.20706 -9.67112 0
M  V30 44417 H 6093.01 0.901032 -10.1892 0
M  V30 44418 H 6091.38 1.33049 -9.56592 0
M  V30 44419 H 6094.02 3.57847 -5.23962 0
M  V30 44420 P 6095.88 3.65191 -7.99657 0
M  V30 44421 O 6097.3 3.89332 -8.45794 0
M  V30 44422 O 6095.52 2.28472 -7.50807 0
M  V30 44423 O 6095.55 4.64972 -6.77611 0
M  V30 44424 C 6095.39 6.06319 -7.16352 0
M  V30 44425 C 6095.93 6.91731 -6.02299 0
M  V30 44426 O 6094.88 6.92449 -5.17064 0
M  V30 44427 C 6097.15 6.43627 -5.25174 0
M  V30 44428 O 6097.89 7.43686 -4.60469 0
M  V30 44429 C 6096.48 5.40275 -4.31916 0
M  V30 44430 O 6097.28 5.25279 -3.14438 0
M  V30 44431 C 6095.15 6.04847 -4.05327 0
M  V30 44432 H 6095.18 6.62195 -3.11261 0
M  V30 44433 H 6096.36 4.42556 -4.81383 0
M  V30 44434 H 6097.85 5.92458 -5.93643 0
M  V30 44435 H 6096.15 7.92655 -6.402 0
M  V30 44436 H 6095.96 6.26671 -8.0846 0
M  V30 44437 H 6094.33 6.29101 -7.32804 0
M  V30 44438 H 6096.97 5.84315 -2.47318 0
M  V30 44439 P 6098.83 7.39546 -4.75277 0
M  V30 44440 O 6100.25 7.84798 -5.01039 0
M  V30 44441 O 6098.47 5.9812 -5.08098 0
M  V30 44442 O 6098.51 7.57503 -3.1866 0
M  V30 44443 C 6098.35 8.97357 -2.74833 0
M  V30 44444 C 6098.89 9.07548 -1.32709 0
M  V30 44445 O 6097.83 8.62072 -0.606159 0
M  V30 44446 C 6100.1 8.25383 -0.938334 0
M  V30 44447 O 6100.84 8.74577 0.146954 0
M  V30 44448 C 6099.43 6.8802 -0.712559 0
M  V30 44449 O 6100.23 6.1189 0.194655 0
M  V30 44450 C 6098.1 7.27966 -0.139777 0
M  V30 44451 H 6098.13 7.25354 0.961601 0
M  V30 44452 H 6099.31 6.32557 -1.65702 0
M  V30 44453 H 6100.8 8.19355 -1.79097 0
M  V30 44454 H 6099.1 10.1294 -1.10029 0
M  V30 44455 H 6098.91 9.64276 -3.41316 0
M  V30 44456 H 6097.28 9.25417 -2.76357 0
M  V30 44457 H 6099.92 6.25267 1.07847 0
M  V30 44458 P 6101.78 8.791 -2.53508e-10 0
M  V30 44459 O 6103.18 9.36698 -0.018734 0
M  V30 44460 O 6101.4 7.82499 -1.07878 0
M  V30 44461 O 6101.46 8.09434 1.41446 0
M  V30 44462 C 6101.3 9.0349 2.53943 0
M  V30 44463 C 6101.84 8.35135 3.78975 0
M  V30 44464 O 6100.78 7.57904 4.1503 0
M  V30 44465 C 6103.05 7.45087 3.67298 0
M  V30 44466 O 6103.79 7.27796 4.85194 0
M  V30 44467 C 6102.39 6.17323 3.12027 0
M  V30 44468 O 6103.18 5.04149 3.47132 0
M  V30 44469 C 6101.05 6.19961 3.81809 0
M  V30 44470 N 6100 5.71575 2.93223 0
M  V30 44471 C 6098.97 4.99452 3.47592 0
M  V30 44472 O 6099.01 4.7199 4.69732 0
M  V30 44473 N 6097.96 4.58505 2.6803 0
M  V30 44474 C 6098.01 4.85544 1.36995 0
M  V30 44475 C 6099.1 5.55532 0.788532 0
M  V30 44476 C 6100.07 5.97426 1.60849 0
M  V30 44477 H 6101.08 5.58142 4.72986 0
M  V30 44478 H 6102.26 6.21428 2.0318 0
M  V30 44479 H 6103.75 7.85913 2.93131 0
M  V30 44480 H 6102.05 9.11171 4.55987 0
M  V30 44481 H 6101.86 9.9573 2.34194 0
M  V30 44482 H 6100.23 9.27824 2.67805 0
M  V30 44483 H 6099.15 5.7421 -0.281588 0
M  V30 44484 H 6100.91 6.53132 1.202 0
M  V30 44485 H 6102.97 4.76386 4.34983 0
M  V30 44486 P 6104.73 7.39546 4.75277 0
M  V30 44487 O 6106.15 7.81777 5.05738 0
M  V30 44488 O 6104.37 7.1065 3.32998 0
M  V30 44489 O 6104.41 6.04542 5.56673 0
M  V30 44490 C 6104.25 6.22772 7.02095 0
M  V30 44491 C 6104.79 4.97725 7.70406 0
M  V30 44492 O 6103.73 4.13256 7.58987 0
M  V30 44493 C 6106 4.28231 7.11815 0
M  V30 44494 O 6106.74 3.49945 8.01648 0
M  V30 44495 C 6105.34 3.5063 5.96244 0
M  V30 44496 O 6106.13 2.36482 5.64681 0
M  V30 44497 C 6104 3.15122 6.56374 0
M  V30 44498 H 6104.03 2.13853 6.99751 0
M  V30 44499 H 6105.21 4.13501 5.06559 0
M  V30 44500 H 6106.7 5.03285 6.70911 0
M  V30 44501 H 6105 5.20877 8.75697 0
M  V30 44502 H 6104.81 7.11046 7.35349 0
M  V30 44503 H 6103.18 6.35815 7.26986 0
M  V30 44504 H 6105.82 1.61644 6.13565 0
M  V30 44505 P 6107.68 3.65191 7.99657 0
M  V30 44506 O 6109.1 3.84292 8.48206 0
M  V30 44507 O 6107.32 4.17805 6.64342 0
M  V30 44508 O 6107.36 2.07613 7.95143 0
M  V30 44509 C 6107.2 1.44344 9.27435 0
M  V30 44510 C 6107.74 0.0220036 9.17197 0
M  V30 44511 O 6106.68 -0.626794 8.61824 0
M  V30 44512 C 6108.95 -0.24586 8.30336 0
M  V30 44513 O 6109.69 -1.39011 8.63583 0
M  V30 44514 C 6108.29 -0.273849 6.91158 0
M  V30 44515 O 6109.08 -1.05728 6.029 0
M  V30 44516 C 6106.95 -0.897649 7.22545 0
M  V30 44517 N 6105.91 -0.292839 6.41732 0
M  V30 44518 C 6106.07 0.950603 5.91308 0
M  V30 44519 N 6105.05 1.37732 5.21105 0
M  V30 44520 C 6104.16 0.318109 5.26039 0
M  V30 44521 C 6102.9 0.146766 4.6727 0
M  V30 44522 N 6102.33 -1.06525 4.95887 0
M  V30 44523 C 6102.93 -2.0378 5.71347 0
M  V30 44524 N 6104.11 -1.92445 6.27451 0
M  V30 44525 C 6104.68 -0.715382 6.00353 0
M  V30 44526 H 6108.16 0.733318 6.49674 0
M  V30 44527 H 6109.65 0.60668 8.36503 0
M  V30 44528 H 6107.95 -0.362662 10.1825 0
M  V30 44529 H 6107.76 2.00611 10.0304 0
M  V30 44530 H 6106.13 1.41843 9.55327 0
M  V30 44531 H 6106.97 1.54076 6.07465 0
M  V30 44532 H 6108.77 -1.95704 6.0346 0
M  V30 44533 P 6110.63 -1.25109 8.70152 0
M  V30 44534 O 6112.03 -1.31452 9.27431 0
M  V30 44535 O 6110.25 -0.0458113 7.89887 0
M  V30 44536 O 6110.31 -2.55201 7.81066 0
M  V30 44537 C 6110.15 -3.79939 8.58154 0
M  V30 44538 C 6110.69 -4.93969 7.72701 0
M  V30 44539 O 6109.63 -5.18666 6.91125 0
M  V30 44540 C 6111.9 -4.69597 6.85231 0
M  V30 44541 O 6112.64 -5.83832 6.51337 0
M  V30 44542 C 6111.24 -3.96706 5.66633 0
M  V30 44543 O 6112.04 -4.15346 4.49615 0
M  V30 44544 C 6109.9 -4.66153 5.59313 0
M  V30 44545 N 6108.86 -3.71582 5.24027 0
M  V30 44546 C 6107.82 -4.15133 4.44901 0
M  V30 44547 O 6107.86 -5.32122 4.00336 0
M  V30 44548 N 6106.81 -3.30554 4.15693 0
M  V30 44549 C 6106.86 -2.04701 4.61105 0
M  V30 44550 C 6107.95 -1.57111 5.38655 0
M  V30 44551 C 6108.92 -2.44234 5.68454 0
M  V30 44552 H 6109.93 -5.47604 4.85148 0
M  V30 44553 H 6111.11 -2.8955 5.86187 0
M  V30 44554 H 6112.6 -4.01995 7.36197 0
M  V30 44555 H 6110.9 -5.81019 8.37003 0
M  V30 44556 H 6110.71 -3.73517 9.52265 0
M  V30 44557 H 6109.08 -3.97122 8.80267 0
M  V30 44558 H 6108 -0.538464 5.72373 0
M  V30 44559 H 6109.77 -2.11927 6.29377 0
M  V30 44560 H 6111.82 -4.98352 4.09633 0
M  V30 44561 P 6113.58 -5.75688 6.64379 0
M  V30 44562 O 6115 -6.11849 7.01846 0
M  V30 44563 O 6113.22 -4.30744 6.56026 0
M  V30 44564 O 6113.26 -6.37042 5.19165 0
M  V30 44565 C 6113.1 -7.83578 5.16515 0
M  V30 44566 C 6113.64 -8.33398 3.83019 0
M  V30 44567 O 6112.58 -8.10074 3.01034 0
M  V30 44568 C 6114.86 -7.65514 3.2257 0
M  V30 44569 O 6115.59 -8.4329 2.32297 0
M  V30 44570 C 6114.19 -6.40075 2.62207 0
M  V30 44571 O 6114.99 -5.92589 1.53712 0
M  V30 44572 C 6112.85 -6.9454 2.18503 0
M  V30 44573 H 6112.88 -7.23063 1.12091 0
M  V30 44574 H 6114.07 -5.6025 3.37201 0
M  V30 44575 H 6115.55 -7.35707 4.02681 0
M  V30 44576 H 6113.86 -9.40912 3.9095 0
M  V30 44577 H 6113.67 -8.29056 5.99158 0
M  V30 44578 H 6112.04 -8.10073 5.25882 0
M  V30 44579 H 6114.67 -6.30324 0.726794 0
M  V30 44580 P 6116.53 -8.4349 2.47671 0
M  V30 44581 O 6117.95 -8.94167 2.5964 0
M  V30 44582 O 6116.17 -7.1704 3.19006 0
M  V30 44583 O 6116.21 -8.16596 0.923387 0
M  V30 44584 C 6116.05 -9.38437 0.108857 0
M  V30 44585 C 6116.59 -9.08175 -1.28353 0
M  V30 44586 O 6115.53 -8.44229 -1.84713 0
M  V30 44587 C 6117.81 -8.18386 -1.42505 0
M  V30 44588 O 6118.54 -8.3501 -2.60497 0
M  V30 44589 C 6117.14 -6.80225 -1.25468 0
M  V30 44590 O 6117.94 -5.81621 -1.91066 0
M  V30 44591 C 6115.8 -7.02416 -1.9168 0
M  V30 44592 H 6115.83 -6.6888 -2.96621 0
M  V30 44593 H 6117.02 -6.53617 -0.192223 0
M  V30 44594 H 6118.5 -8.36622 -0.589963 0
M  V30 44595 H 6116.81 -10.0291 -1.79807 0
M  V30 44596 H 6116.62 -10.2138 0.558219 0
M  V30 44597 H 6114.99 -9.6579 0.0444202 0
M  V30 44598 H 6117.62 -5.69556 -2.79637 0
M  V30 44599 P 6119.48 -8.4349 -2.47671 0
M  V30 44600 O 6120.9 -8.92593 -2.65 0
M  V30 44601 O 6119.12 -7.7568 -1.19296 0
M  V30 44602 O 6119.16 -7.36886 -3.63805 0
M  V30 44603 C 6119 -7.95349 -4.982 0
M  V30 44604 C 6119.54 -6.94612 -5.98974 0
M  V30 44605 O 6118.48 -6.10347 -6.11815 0
M  V30 44606 C 6120.76 -6.11426 -5.62335 0
M  V30 44607 O 6121.5 -5.6162 -6.70584 0
M  V30 44608 C 6120.09 -5.04409 -4.73308 0
M  V30 44609 O 6120.89 -3.85992 -4.75183 0
M  V30 44610 C 6118.75 -4.8728 -5.41006 0
M  V30 44611 H 6118.78 -4.02333 -6.11157 0
M  V30 44612 H 6119.97 -5.39466 -3.69543 0
M  V30 44613 H 6121.45 -6.71916 -5.01943 0
M  V30 44614 H 6119.76 -7.4649 -6.93477 0
M  V30 44615 H 6119.57 -8.89416 -5.05237 0
M  V30 44616 H 6117.94 -8.14876 -5.18409 0
M  V30 44617 H 6120.58 -3.27957 -5.4317 0
M  V30 44618 P 6122.43 -5.75688 -6.64379 0
M  V30 44619 O 6123.85 -6.07627 -7.05504 0
M  V30 44620 O 6122.07 -5.88047 -5.19722 0
M  V30 44621 O 6122.11 -4.2322 -7.04443 0
M  V30 44622 C 6121.95 -3.99743 -8.4911 0
M  V30 44623 C 6122.49 -2.60516 -8.79425 0
M  V30 44624 O 6121.43 -1.82684 -8.4467 0
M  V30 44625 C 6123.71 -2.10343 -8.03628 0
M  V30 44626 O 6124.45 -1.09919 -8.67766 0
M  V30 44627 C 6123.04 -1.68446 -6.70876 0
M  V30 44628 O 6123.84 -0.678137 -6.08433 0
M  V30 44629 C 6121.7 -1.17436 -7.18567 0
M  V30 44630 H 6121.73 -0.0804732 -7.31656 0
M  V30 44631 H 6122.92 -2.54037 -6.02537 0
M  V30 44632 H 6124.4 -2.93881 -7.85526 0
M  V30 44633 H 6122.71 -2.53065 -9.86973 0
M  V30 44634 H 6122.52 -4.75072 -9.05887 0
M  V30 44635 H 6120.89 -4.05244 -8.76668 0
M  V30 44636 H 6123.53 0.177647 -6.34251 0
M  V30 44637 P 6125.38 -1.25109 -8.70152 0
M  V30 44638 O 6126.81 -1.29744 -9.22016 0
M  V30 44639 O 6125.02 -2.13714 -7.55141 0
M  V30 44640 O 6125.06 0.248149 -8.21425 0
M  V30 44641 C 6124.9 1.22779 -9.30434 0
M  V30 44642 C 6125.44 2.56293 -8.80664 0
M  V30 44643 O 6124.38 3.02979 -8.09349 0
M  V30 44644 C 6126.66 2.57523 -7.89775 0
M  V30 44645 O 6127.4 3.7668 -7.89438 0
M  V30 44646 C 6125.99 2.20997 -6.55446 0
M  V30 44647 O 6126.79 2.71895 -5.48509 0
M  V30 44648 C 6124.65 2.89693 -6.67988 0
M  V30 44649 H 6124.68 3.88793 -6.19859 0
M  V30 44650 H 6125.87 1.12046 -6.44229 0
M  V30 44651 H 6127.35 1.7746 -8.19711 0
M  V30 44652 H 6125.66 3.20706 -9.67112 0
M  V30 44653 H 6125.47 0.901032 -10.1892 0
M  V30 44654 H 6123.84 1.33049 -9.56592 0
M  V30 44655 H 6126.48 3.57847 -5.23962 0
M  V30 44656 P 6128.33 3.65191 -7.99657 0
M  V30 44657 O 6129.76 3.89332 -8.45794 0
M  V30 44658 O 6127.97 2.28472 -7.50807 0
M  V30 44659 O 6128.01 4.64972 -6.77611 0
M  V30 44660 C 6127.85 6.06319 -7.16352 0
M  V30 44661 C 6128.39 6.91731 -6.02299 0
M  V30 44662 O 6127.33 6.92449 -5.17064 0
M  V30 44663 C 6129.61 6.43627 -5.25174 0
M  V30 44664 O 6130.35 7.43686 -4.60469 0
M  V30 44665 C 6128.94 5.40275 -4.31916 0
M  V30 44666 O 6129.74 5.25279 -3.14438 0
M  V30 44667 C 6127.6 6.04847 -4.05327 0
M  V30 44668 H 6127.63 6.62195 -3.11261 0
M  V30 44669 H 6128.82 4.42556 -4.81383 0
M  V30 44670 H 6130.3 5.92458 -5.93643 0
M  V30 44671 H 6128.61 7.92655 -6.402 0
M  V30 44672 H 6128.42 6.26671 -8.0846 0
M  V30 44673 H 6126.79 6.29101 -7.32804 0
M  V30 44674 H 6129.43 5.84315 -2.47318 0
M  V30 44675 P 6131.28 7.39546 -4.75277 0
M  V30 44676 O 6132.71 7.84882 -5.01092 0
M  V30 44677 O 6130.92 5.9812 -5.08098 0
M  V30 44678 O 6130.96 7.57503 -3.1866 0
M  V30 44679 C 6130.8 8.97452 -2.74862 0
M  V30 44680 C 6131.34 9.07548 -1.32709 0
M  V30 44681 O 6130.29 8.61972 -0.606089 0
M  V30 44682 C 6132.56 8.25383 -0.938334 0
M  V30 44683 O 6133.3 8.74577 0.146954 0
M  V30 44684 C 6131.89 6.8802 -0.712559 0
M  V30 44685 O 6132.69 6.1181 0.188505 0
M  V30 44686 C 6130.55 7.27966 -0.139777 0
M  V30 44687 N 6129.51 6.39368 -0.623421 0
M  V30 44688 C 6129.68 5.71761 -1.78245 0
M  V30 44689 N 6128.65 4.962 -2.10491 0
M  V30 44690 C 6127.77 5.16158 -1.0635 0
M  V30 44691 C 6126.5 4.60425 -0.810266 0
M  V30 44692 N 6125.94 5.06 0.348685 0
M  V30 44693 C 6126.54 5.94532 1.20395 0
M  V30 44694 N 6127.71 6.48452 1.01191 0
M  V30 44695 C 6128.29 6.04423 -0.146291 0
M  V30 44696 H 6131.77 6.32625 -1.65044 0
M  V30 44697 H 6133.25 8.19355 -1.79097 0
M  V30 44698 H 6131.56 10.1305 -1.09016 0
M  V30 44699 H 6131.37 9.64276 -3.41316 0
M  V30 44700 H 6129.74 9.25417 -2.76357 0
M  V30 44701 H 6130.58 5.79354 -2.38959 0
M  V30 44702 H 6132.38 6.25169 1.0783 0
M  V30 44703 P 6134.24 8.791 -2.47701e-10 0
M  V30 44704 O 6135.66 9.31296 0.027939 0
M  V30 44705 O 6133.88 7.77869 -1.04071 0
M  V30 44706 O 6133.91 8.09533 1.41463 0
M  V30 44707 C 6133.75 9.0349 2.53943 0
M  V30 44708 C 6134.29 8.35135 3.78975 0
M  V30 44709 O 6133.24 7.57992 4.15078 0
M  V30 44710 C 6135.51 7.45087 3.67298 0
M  V30 44711 O 6136.25 7.27796 4.85194 0
M  V30 44712 C 6134.84 6.17323 3.12027 0
M  V30 44713 O 6135.64 5.04149 3.47132 0
M  V30 44714 C 6133.5 6.19961 3.81809 0
M  V30 44715 N 6132.46 5.71575 2.93223 0
M  V30 44716 C 6132.52 5.97133 1.62693 0
M  V30 44717 N 6131.48 5.44066 0.984414 0
M  V30 44718 C 6130.74 4.87093 1.93987 0
M  V30 44719 C 6129.44 4.26449 1.8738 0
M  V30 44720 O 6128.71 4.1089 0.884377 0
M  V30 44721 N 6129.01 3.82483 3.08036 0
M  V30 44722 C 6129.76 3.95124 4.27727 0
M  V30 44723 N 6129.16 3.4084 5.39089 0
M  V30 44724 N 6130.91 4.55264 4.3706 0
M  V30 44725 C 6131.37 5.00861 3.18217 0
M  V30 44726 H 6133.54 5.58218 4.73051 0
M  V30 44727 H 6134.72 6.21631 2.02558 0
M  V30 44728 H 6136.2 7.85819 2.93096 0
M  V30 44729 H 6134.51 9.11627 4.55076 0
M  V30 44730 H 6134.32 9.9573 2.34194 0
M  V30 44731 H 6132.69 9.2792 2.67832 0
M  V30 44732 H 6128.11 3.38323 3.1329 0
M  V30 44733 H 6133.32 6.53891 1.14265 0
M  V30 44734 H 6128.25 2.93852 5.30559 0
M  V30 44735 H 6129.63 3.47631 6.30632 0
M  V30 44736 H 6135.33 4.67628 4.28704 0
M  V30 44737 P 6137.19 7.39546 4.75277 0
M  V30 44738 O 6138.61 7.81777 5.05738 0
M  V30 44739 O 6136.83 7.1065 3.32998 0
M  V30 44740 O 6136.86 6.04542 5.56673 0
M  V30 44741 C 6136.7 6.22772 7.02095 0
M  V30 44742 C 6137.24 4.97725 7.70406 0
M  V30 44743 O 6136.19 4.13256 7.58987 0
M  V30 44744 C 6138.46 4.28231 7.11815 0
M  V30 44745 O 6139.2 3.49945 8.01648 0
M  V30 44746 C 6137.79 3.5063 5.96244 0
M  V30 44747 O 6138.59 2.36482 5.64681 0
M  V30 44748 C 6136.45 3.15122 6.56374 0
M  V30 44749 H 6136.49 2.13853 6.99751 0
M  V30 44750 H 6137.67 4.13501 5.06559 0
M  V30 44751 H 6139.15 5.03285 6.70911 0
M  V30 44752 H 6137.46 5.20877 8.75697 0
M  V30 44753 H 6137.27 7.11046 7.35349 0
M  V30 44754 H 6135.64 6.35815 7.26986 0
M  V30 44755 H 6138.28 1.61644 6.13565 0
M  V30 44756 P 6140.14 3.65191 7.99657 0
M  V30 44757 O 6141.56 3.8425 8.48115 0
M  V30 44758 O 6139.78 4.17805 6.64342 0
M  V30 44759 O 6139.81 2.07613 7.95143 0
M  V30 44760 C 6139.65 1.44328 9.27336 0
M  V30 44761 C 6140.19 0.0220036 9.17197 0
M  V30 44762 O 6139.14 -0.626867 8.61923 0
M  V30 44763 C 6141.41 -0.24586 8.30336 0
M  V30 44764 O 6142.15 -1.39011 8.63583 0
M  V30 44765 C 6140.74 -0.273849 6.91158 0
M  V30 44766 O 6141.54 -1.06348 6.02892 0
M  V30 44767 C 6139.41 -0.897649 7.22545 0
M  V30 44768 H 6139.44 -1.9841 7.04286 0
M  V30 44769 H 6140.62 0.739928 6.497 0
M  V30 44770 H 6142.1 0.60668 8.36503 0
M  V30 44771 H 6140.41 -0.352479 10.1829 0
M  V30 44772 H 6140.22 2.00611 10.0304 0
M  V30 44773 H 6138.59 1.41843 9.55327 0
M  V30 44774 H 6141.23 -1.95734 6.03555 0
M  V30 44775 P 6143.09 -1.25109 8.70152 0
M  V30 44776 O 6144.51 -1.35274 9.21221 0
M  V30 44777 O 6142.73 -0.0769065 7.84762 0
M  V30 44778 O 6142.76 -2.55232 7.81161 0
M  V30 44779 C 6142.6 -3.79939 8.58154 0
M  V30 44780 C 6143.14 -4.94023 7.72785 0
M  V30 44781 O 6142.09 -5.18726 6.91205 0
M  V30 44782 C 6144.36 -4.69597 6.85231 0
M  V30 44783 O 6145.1 -5.83832 6.51337 0
M  V30 44784 C 6143.69 -3.96706 5.66633 0
M  V30 44785 O 6144.49 -4.15414 4.49689 0
M  V30 44786 C 6142.36 -4.66153 5.59313 0
M  V30 44787 H 6142.39 -5.47679 4.85214 0
M  V30 44788 H 6143.57 -2.89008 5.86566 0
M  V30 44789 H 6145.05 -4.0121 7.36511 0
M  V30 44790 H 6143.36 -5.80182 8.37584 0
M  V30 44791 H 6143.17 -3.73517 9.52265 0
M  V30 44792 H 6141.54 -3.97163 8.80359 0
M  V30 44793 H 6144.18 -4.90969 4.01921 0
M  V30 44794 P 6146.04 -5.75688 6.64379 0
M  V30 44795 O 6147.46 -6.11849 7.01846 0
M  V30 44796 O 6145.68 -4.30744 6.56026 0
M  V30 44797 O 6145.71 -6.37042 5.19165 0
M  V30 44798 C 6145.55 -7.83578 5.16515 0
M  V30 44799 C 6146.09 -8.33398 3.83019 0
M  V30 44800 O 6145.04 -8.10074 3.01034 0
M  V30 44801 C 6147.31 -7.65514 3.2257 0
M  V30 44802 O 6148.05 -8.4329 2.32297 0
M  V30 44803 C 6146.64 -6.40075 2.62207 0
M  V30 44804 O 6147.44 -5.92589 1.53712 0
M  V30 44805 C 6145.31 -6.9454 2.18503 0
M  V30 44806 H 6145.34 -7.23063 1.12091 0
M  V30 44807 H 6146.52 -5.6025 3.37201 0
M  V30 44808 H 6148.01 -7.35707 4.02681 0
M  V30 44809 H 6146.31 -9.40912 3.9095 0
M  V30 44810 H 6146.12 -8.29056 5.99158 0
M  V30 44811 H 6144.49 -8.10073 5.25882 0
M  V30 44812 H 6147.13 -6.30324 0.726794 0
M  V30 44813 P 6148.99 -8.4349 2.47671 0
M  V30 44814 O 6150.41 -8.94167 2.5964 0
M  V30 44815 O 6148.63 -7.1704 3.19006 0
M  V30 44816 O 6148.66 -8.16596 0.923387 0
M  V30 44817 C 6148.5 -9.38437 0.108857 0
M  V30 44818 C 6149.04 -9.08175 -1.28353 0
M  V30 44819 O 6147.99 -8.44229 -1.84713 0
M  V30 44820 C 6150.26 -8.18386 -1.42505 0
M  V30 44821 O 6151 -8.3501 -2.60497 0
M  V30 44822 C 6149.59 -6.80225 -1.25468 0
M  V30 44823 O 6150.39 -5.81621 -1.91066 0
M  V30 44824 C 6148.26 -7.02416 -1.9168 0
M  V30 44825 H 6148.29 -6.6888 -2.96621 0
M  V30 44826 H 6149.47 -6.53617 -0.192223 0
M  V30 44827 H 6150.96 -8.36622 -0.589963 0
M  V30 44828 H 6149.26 -10.0291 -1.79807 0
M  V30 44829 H 6149.07 -10.2138 0.558219 0
M  V30 44830 H 6147.44 -9.6579 0.0444202 0
M  V30 44831 H 6150.08 -5.69556 -2.79637 0
M  V30 44832 P 6151.94 -8.4349 -2.47671 0
M  V30 44833 O 6153.36 -8.92593 -2.65 0
M  V30 44834 O 6151.58 -7.7568 -1.19296 0
M  V30 44835 O 6151.62 -7.36886 -3.63805 0
M  V30 44836 C 6151.46 -7.95349 -4.982 0
M  V30 44837 C 6152 -6.94612 -5.98974 0
M  V30 44838 O 6150.94 -6.10347 -6.11815 0
M  V30 44839 C 6153.21 -6.11426 -5.62335 0
M  V30 44840 O 6153.95 -5.6162 -6.70584 0
M  V30 44841 C 6152.54 -5.04409 -4.73308 0
M  V30 44842 O 6153.34 -3.85992 -4.75183 0
M  V30 44843 C 6151.21 -4.8728 -5.41006 0
M  V30 44844 H 6151.24 -4.02333 -6.11157 0
M  V30 44845 H 6152.42 -5.39466 -3.69543 0
M  V30 44846 H 6153.91 -6.71916 -5.01943 0
M  V30 44847 H 6152.21 -7.4649 -6.93477 0
M  V30 44848 H 6152.02 -8.89416 -5.05237 0
M  V30 44849 H 6150.39 -8.14876 -5.18409 0
M  V30 44850 H 6153.03 -3.27957 -5.4317 0
M  V30 44851 P 6154.89 -5.75688 -6.64379 0
M  V30 44852 O 6156.31 -6.07627 -7.05504 0
M  V30 44853 O 6154.53 -5.88047 -5.19722 0
M  V30 44854 O 6154.57 -4.2322 -7.04443 0
M  V30 44855 C 6154.41 -3.99743 -8.4911 0
M  V30 44856 C 6154.95 -2.60516 -8.79425 0
M  V30 44857 O 6153.89 -1.82684 -8.4467 0
M  V30 44858 C 6156.16 -2.10343 -8.03628 0
M  V30 44859 O 6156.9 -1.09919 -8.67766 0
M  V30 44860 C 6155.5 -1.68446 -6.70876 0
M  V30 44861 O 6156.29 -0.678137 -6.08433 0
M  V30 44862 C 6154.16 -1.17436 -7.18567 0
M  V30 44863 H 6154.19 -0.0804732 -7.31656 0
M  V30 44864 H 6155.37 -2.54037 -6.02537 0
M  V30 44865 H 6156.86 -2.93881 -7.85526 0
M  V30 44866 H 6155.16 -2.53065 -9.86973 0
M  V30 44867 H 6154.97 -4.75072 -9.05887 0
M  V30 44868 H 6153.34 -4.05244 -8.76668 0
M  V30 44869 H 6155.98 0.177647 -6.34251 0
M  V30 44870 P 6157.84 -1.25109 -8.70152 0
M  V30 44871 O 6159.26 -1.29744 -9.22016 0
M  V30 44872 O 6157.48 -2.13714 -7.55141 0
M  V30 44873 O 6157.52 0.248149 -8.21425 0
M  V30 44874 C 6157.36 1.22779 -9.30434 0
M  V30 44875 C 6157.9 2.56293 -8.80664 0
M  V30 44876 O 6156.84 3.02979 -8.09349 0
M  V30 44877 C 6159.11 2.57523 -7.89775 0
M  V30 44878 O 6159.85 3.7668 -7.89438 0
M  V30 44879 C 6158.45 2.20997 -6.55446 0
M  V30 44880 O 6159.24 2.71895 -5.48509 0
M  V30 44881 C 6157.11 2.89693 -6.67988 0
M  V30 44882 H 6157.14 3.88793 -6.19859 0
M  V30 44883 H 6158.32 1.12046 -6.44229 0
M  V30 44884 H 6159.81 1.7746 -8.19711 0
M  V30 44885 H 6158.11 3.20706 -9.67112 0
M  V30 44886 H 6157.92 0.901032 -10.1892 0
M  V30 44887 H 6156.29 1.33049 -9.56592 0
M  V30 44888 H 6158.93 3.57847 -5.23962 0
M  V30 44889 P 6160.79 3.65191 -7.99657 0
M  V30 44890 O 6162.21 3.89332 -8.45794 0
M  V30 44891 O 6160.43 2.28472 -7.50807 0
M  V30 44892 O 6160.47 4.64972 -6.77611 0
M  V30 44893 C 6160.31 6.06319 -7.16352 0
M  V30 44894 C 6160.85 6.91731 -6.02299 0
M  V30 44895 O 6159.79 6.92449 -5.17064 0
M  V30 44896 C 6162.07 6.43627 -5.25174 0
M  V30 44897 O 6162.8 7.43686 -4.60469 0
M  V30 44898 C 6161.4 5.40275 -4.31916 0
M  V30 44899 O 6162.2 5.25279 -3.14438 0
M  V30 44900 C 6160.06 6.04847 -4.05327 0
M  V30 44901 H 6160.09 6.62195 -3.11261 0
M  V30 44902 H 6161.27 4.42556 -4.81383 0
M  V30 44903 H 6162.76 5.92458 -5.93643 0
M  V30 44904 H 6161.06 7.92655 -6.402 0
M  V30 44905 H 6160.87 6.26671 -8.0846 0
M  V30 44906 H 6159.24 6.29101 -7.32804 0
M  V30 44907 H 6161.88 5.84315 -2.47318 0
M  V30 44908 P 6163.74 7.39546 -4.75277 0
M  V30 44909 O 6165.16 7.84882 -5.01092 0
M  V30 44910 O 6163.38 5.9812 -5.08098 0
M  V30 44911 O 6163.42 7.57503 -3.1866 0
M  V30 44912 C 6163.26 8.97452 -2.74862 0
M  V30 44913 C 6163.8 9.07548 -1.32709 0
M  V30 44914 O 6162.74 8.61972 -0.606089 0
M  V30 44915 C 6165.02 8.25383 -0.938334 0
M  V30 44916 O 6165.75 8.74577 0.146954 0
M  V30 44917 C 6164.35 6.8802 -0.712559 0
M  V30 44918 O 6165.15 6.1181 0.188505 0
M  V30 44919 C 6163.01 7.27966 -0.139777 0
M  V30 44920 N 6161.97 6.39368 -0.623421 0
M  V30 44921 C 6162.14 5.71761 -1.78245 0
M  V30 44922 N 6161.11 4.962 -2.10491 0
M  V30 44923 C 6160.22 5.16158 -1.0635 0
M  V30 44924 C 6158.96 4.60425 -0.810266 0
M  V30 44925 N 6158.36 3.7057 -1.62914 0
M  V30 44926 N 6158.39 5.06 0.348685 0
M  V30 44927 C 6158.99 5.94532 1.20395 0
M  V30 44928 N 6160.17 6.48452 1.01191 0
M  V30 44929 C 6160.75 6.04423 -0.146291 0
M  V30 44930 H 6163.04 7.25255 0.961469 0
M  V30 44931 H 6164.22 6.32625 -1.65044 0
M  V30 44932 H 6165.71 8.19355 -1.79097 0
M  V30 44933 H 6164.01 10.1305 -1.09016 0
M  V30 44934 H 6163.82 9.64276 -3.41316 0
M  V30 44935 H 6162.19 9.25417 -2.76357 0
M  V30 44936 H 6158.46 6.21659 2.10714 0
M  V30 44937 H 6163.04 5.79354 -2.38959 0
M  V30 44938 H 6157.43 3.33174 -1.38982 0
M  V30 44939 H 6158.83 3.39714 -2.48836 0
M  V30 44940 H 6164.83 6.25169 1.0783 0
M  V30 44941 P 6166.69 8.791 -2.41894e-10 0
M  V30 44942 O 6168.11 9.31096 0.027933 0
M  V30 44943 O 6166.33 7.77869 -1.04071 0
M  V30 44944 O 6166.37 8.09533 1.41463 0
M  V30 44945 C 6166.21 9.0349 2.53943 0
M  V30 44946 C 6166.75 8.35226 3.79016 0
M  V30 44947 O 6165.69 7.57992 4.15078 0
M  V30 44948 C 6167.97 7.45087 3.67298 0
M  V30 44949 O 6168.7 7.27796 4.85194 0
M  V30 44950 C 6167.3 6.17323 3.12027 0
M  V30 44951 O 6168.1 5.04231 3.47188 0
M  V30 44952 C 6165.96 6.19961 3.81809 0
M  V30 44953 H 6165.99 5.58218 4.73051 0
M  V30 44954 H 6167.18 6.21726 2.02589 0
M  V30 44955 H 6168.66 7.86112 2.9231 0
M  V30 44956 H 6166.97 9.11627 4.55076 0
M  V30 44957 H 6166.78 9.9573 2.34194 0
M  V30 44958 H 6165.15 9.2792 2.67832 0
M  V30 44959 H 6167.78 4.67702 4.28772 0
M  V30 44960 P 6169.64 7.39546 4.75277 0
M  V30 44961 O 6171.06 7.81777 5.05738 0
M  V30 44962 O 6169.28 7.1065 3.32998 0
M  V30 44963 O 6169.32 6.04542 5.56673 0
M  V30 44964 C 6169.16 6.22772 7.02095 0
M  V30 44965 C 6169.7 4.97725 7.70406 0
M  V30 44966 O 6168.64 4.13256 7.58987 0
M  V30 44967 C 6170.92 4.28231 7.11815 0
M  V30 44968 O 6171.65 3.49945 8.01648 0
M  V30 44969 C 6170.25 3.5063 5.96244 0
M  V30 44970 O 6171.05 2.36482 5.64681 0
M  V30 44971 C 6168.91 3.15122 6.56374 0
M  V30 44972 H 6168.94 2.13853 6.99751 0
M  V30 44973 H 6170.13 4.13501 5.06559 0
M  V30 44974 H 6171.61 5.03285 6.70911 0
M  V30 44975 H 6169.92 5.20877 8.75697 0
M  V30 44976 H 6169.73 7.11046 7.35349 0
M  V30 44977 H 6168.1 6.35815 7.26986 0
M  V30 44978 H 6170.73 1.61644 6.13565 0
M  V30 44979 P 6172.59 3.65191 7.99657 0
M  V30 44980 O 6174.01 3.84292 8.48206 0
M  V30 44981 O 6172.23 4.17805 6.64342 0
M  V30 44982 O 6172.27 2.07613 7.95143 0
M  V30 44983 C 6172.11 1.44344 9.27435 0
M  V30 44984 C 6172.65 0.0220036 9.17197 0
M  V30 44985 O 6171.59 -0.626794 8.61824 0
M  V30 44986 C 6173.87 -0.24586 8.30336 0
M  V30 44987 O 6174.61 -1.39011 8.63583 0
M  V30 44988 C 6173.2 -0.273849 6.91158 0
M  V30 44989 O 6174 -1.05728 6.029 0
M  V30 44990 C 6171.86 -0.897649 7.22545 0
M  V30 44991 N 6170.82 -0.292839 6.41732 0
M  V30 44992 C 6170.99 0.950603 5.91308 0
M  V30 44993 N 6169.96 1.37732 5.21105 0
M  V30 44994 C 6169.08 0.318109 5.26039 0
M  V30 44995 C 6167.81 0.146766 4.6727 0
M  V30 44996 N 6167.24 -1.06525 4.95887 0
M  V30 44997 C 6167.85 -2.0378 5.71347 0
M  V30 44998 N 6169.02 -1.92445 6.27451 0
M  V30 44999 C 6169.6 -0.715382 6.00353 0
M  V30 45000 H 6173.08 0.733318 6.49674 0
M  V30 45001 H 6174.56 0.60668 8.36503 0
M  V30 45002 H 6172.87 -0.362662 10.1825 0
M  V30 45003 H 6172.68 2.00611 10.0304 0
M  V30 45004 H 6171.05 1.41843 9.55327 0
M  V30 45005 H 6171.89 1.54076 6.07465 0
M  V30 45006 H 6173.69 -1.95704 6.0346 0
M  V30 45007 P 6175.54 -1.25109 8.70152 0
M  V30 45008 O 6176.96 -1.35288 9.2132 0
M  V30 45009 O 6175.18 -0.0769065 7.84762 0
M  V30 45010 O 6175.22 -2.55232 7.81161 0
M  V30 45011 C 6175.06 -3.79979 8.58246 0
M  V30 45012 C 6175.6 -4.94023 7.72785 0
M  V30 45013 O 6174.55 -5.18666 6.91125 0
M  V30 45014 C 6176.82 -4.69597 6.85231 0
M  V30 45015 O 6177.56 -5.83832 6.51337 0
M  V30 45016 C 6176.15 -3.96706 5.66633 0
M  V30 45017 O 6176.95 -4.14896 4.5003 0
M  V30 45018 C 6174.81 -4.66153 5.59313 0
M  V30 45019 N 6173.77 -3.71582 5.24027 0
M  V30 45020 C 6173.94 -2.39715 5.48833 0
M  V30 45021 N 6172.91 -1.65863 5.12845 0
M  V30 45022 C 6172.03 -2.57637 4.5973 0
M  V30 45023 C 6170.76 -2.40278 4.01027 0
M  V30 45024 N 6170.16 -1.19549 3.86744 0
M  V30 45025 N 6170.19 -3.57711 3.59575 0
M  V30 45026 C 6170.8 -4.80324 3.70476 0
M  V30 45027 N 6171.97 -5.01121 4.23801 0
M  V30 45028 C 6172.55 -3.84757 4.66372 0
M  V30 45029 H 6174.84 -5.47604 4.85148 0
M  V30 45030 H 6176.03 -2.8955 5.86187 0
M  V30 45031 H 6177.51 -4.0121 7.36511 0
M  V30 45032 H 6175.82 -5.81019 8.37003 0
M  V30 45033 H 6175.63 -3.73517 9.52265 0
M  V30 45034 H 6174 -3.97163 8.80359 0
M  V30 45035 H 6170.26 -5.66348 3.3183 0
M  V30 45036 H 6174.84 -1.98804 5.94332 0
M  V30 45037 H 6169.23 -1.13147 3.4281 0
M  V30 45038 H 6170.63 -0.344074 4.19692 0
M  V30 45039 H 6176.64 -4.90891 4.01857 0
M  V30 45040 P 6178.49 -5.75688 6.64379 0
M  V30 45041 O 6179.92 -6.11849 7.01846 0
M  V30 45042 O 6178.13 -4.30744 6.56026 0
M  V30 45043 O 6178.17 -6.37042 5.19165 0
M  V30 45044 C 6178.01 -7.83578 5.16515 0
M  V30 45045 C 6178.55 -8.33398 3.83019 0
M  V30 45046 O 6177.49 -8.10074 3.01034 0
M  V30 45047 C 6179.77 -7.65514 3.2257 0
M  V30 45048 O 6180.51 -8.4329 2.32297 0
M  V30 45049 C 6179.1 -6.40075 2.62207 0
M  V30 45050 O 6179.9 -5.92589 1.53712 0
M  V30 45051 C 6177.76 -6.9454 2.18503 0
M  V30 45052 H 6177.79 -7.23063 1.12091 0
M  V30 45053 H 6178.98 -5.6025 3.37201 0
M  V30 45054 H 6180.46 -7.35707 4.02681 0
M  V30 45055 H 6178.77 -9.40912 3.9095 0
M  V30 45056 H 6178.58 -8.29056 5.99158 0
M  V30 45057 H 6176.95 -8.10073 5.25882 0
M  V30 45058 H 6179.59 -6.30324 0.726794 0
M  V30 45059 P 6181.44 -8.4349 2.47671 0
M  V30 45060 O 6182.87 -8.94167 2.5964 0
M  V30 45061 O 6181.08 -7.1704 3.19006 0
M  V30 45062 O 6181.12 -8.16596 0.923387 0
M  V30 45063 C 6180.96 -9.38437 0.108857 0
M  V30 45064 C 6181.5 -9.08175 -1.28353 0
M  V30 45065 O 6180.45 -8.44229 -1.84713 0
M  V30 45066 C 6182.72 -8.18386 -1.42505 0
M  V30 45067 O 6183.46 -8.3501 -2.60497 0
M  V30 45068 C 6182.05 -6.80225 -1.25468 0
M  V30 45069 O 6182.85 -5.81621 -1.91066 0
M  V30 45070 C 6180.71 -7.02416 -1.9168 0
M  V30 45071 H 6180.75 -6.6888 -2.96621 0
M  V30 45072 H 6181.93 -6.53617 -0.192223 0
M  V30 45073 H 6183.41 -8.36622 -0.589963 0
M  V30 45074 H 6181.72 -10.0291 -1.79807 0
M  V30 45075 H 6181.53 -10.2138 0.558219 0
M  V30 45076 H 6179.9 -9.6579 0.0444202 0
M  V30 45077 H 6182.54 -5.69556 -2.79637 0
M  V30 45078 P 6184.39 -8.4349 -2.47671 0
M  V30 45079 O 6185.82 -8.92689 -2.65029 0
M  V30 45080 O 6184.03 -7.7568 -1.19296 0
M  V30 45081 O 6184.07 -7.36886 -3.63805 0
M  V30 45082 C 6183.91 -7.95433 -4.98253 0
M  V30 45083 C 6184.45 -6.94612 -5.98974 0
M  V30 45084 O 6183.4 -6.10277 -6.11744 0
M  V30 45085 C 6185.67 -6.11426 -5.62335 0
M  V30 45086 O 6186.41 -5.6162 -6.70584 0
M  V30 45087 C 6185 -5.04409 -4.73308 0
M  V30 45088 O 6185.8 -3.86404 -4.74719 0
M  V30 45089 C 6183.66 -4.8728 -5.41006 0
M  V30 45090 N 6182.62 -4.65812 -4.42377 0
M  V30 45091 C 6182.79 -5.09132 -3.15382 0
M  V30 45092 N 6181.76 -4.84021 -2.3716 0
M  V30 45093 C 6180.88 -4.18386 -3.20441 0
M  V30 45094 C 6179.61 -3.6275 -2.94905 0
M  V30 45095 N 6179.05 -3.05008 -4.05243 0
M  V30 45096 C 6179.65 -2.98348 -5.28159 0
M  V30 45097 N 6180.82 -3.48171 -5.56333 0
M  V30 45098 C 6181.4 -4.06869 -4.47212 0
M  V30 45099 H 6184.88 -5.39013 -3.70026 0
M  V30 45100 H 6186.36 -6.71916 -5.01943 0
M  V30 45101 H 6184.67 -7.45796 -6.94223 0
M  V30 45102 H 6184.48 -8.89416 -5.05237 0
M  V30 45103 H 6182.85 -8.14876 -5.18409 0
M  V30 45104 H 6183.69 -5.59989 -2.81362 0
M  V30 45105 H 6185.49 -3.27906 -5.43085 0
M  V30 45106 P 6187.35 -5.75688 -6.64379 0
M  V30 45107 O 6188.77 -6.07627 -7.05504 0
M  V30 45108 O 6186.99 -5.88047 -5.19722 0
M  V30 45109 O 6187.02 -4.2322 -7.04443 0
M  V30 45110 C 6186.86 -3.99743 -8.4911 0
M  V30 45111 C 6187.4 -2.60516 -8.79425 0
M  V30 45112 O 6186.35 -1.82684 -8.4467 0
M  V30 45113 C 6188.62 -2.10343 -8.03628 0
M  V30 45114 O 6189.36 -1.09919 -8.67766 0
M  V30 45115 C 6187.95 -1.68446 -6.70876 0
M  V30 45116 O 6188.75 -0.678137 -6.08433 0
M  V30 45117 C 6186.61 -1.17436 -7.18567 0
M  V30 45118 H 6186.65 -0.0804732 -7.31656 0
M  V30 45119 H 6187.83 -2.54037 -6.02537 0
M  V30 45120 H 6189.31 -2.93881 -7.85526 0
M  V30 45121 H 6187.62 -2.53065 -9.86973 0
M  V30 45122 H 6187.43 -4.75072 -9.05887 0
M  V30 45123 H 6185.8 -4.05244 -8.76668 0
M  V30 45124 H 6188.44 0.177647 -6.34251 0
M  V30 45125 P 6190.3 -1.25109 -8.70152 0
M  V30 45126 O 6191.72 -1.29744 -9.22016 0
M  V30 45127 O 6189.94 -2.13714 -7.55141 0
M  V30 45128 O 6189.97 0.248149 -8.21425 0
M  V30 45129 C 6189.81 1.22779 -9.30434 0
M  V30 45130 C 6190.35 2.56293 -8.80664 0
M  V30 45131 O 6189.3 3.02979 -8.09349 0
M  V30 45132 C 6191.57 2.57523 -7.89775 0
M  V30 45133 O 6192.31 3.7668 -7.89438 0
M  V30 45134 C 6190.9 2.20997 -6.55446 0
M  V30 45135 O 6191.7 2.71895 -5.48509 0
M  V30 45136 C 6189.56 2.89693 -6.67988 0
M  V30 45137 H 6189.6 3.88793 -6.19859 0
M  V30 45138 H 6190.78 1.12046 -6.44229 0
M  V30 45139 H 6192.26 1.7746 -8.19711 0
M  V30 45140 H 6190.57 3.20706 -9.67112 0
M  V30 45141 H 6190.38 0.901032 -10.1892 0
M  V30 45142 H 6188.75 1.33049 -9.56592 0
M  V30 45143 H 6191.39 3.57847 -5.23962 0
M  V30 45144 P 6193.25 3.65191 -7.99657 0
M  V30 45145 O 6194.67 3.89332 -8.45794 0
M  V30 45146 O 6192.89 2.28472 -7.50807 0
M  V30 45147 O 6192.92 4.64972 -6.77611 0
M  V30 45148 C 6192.76 6.06319 -7.16352 0
M  V30 45149 C 6193.3 6.91731 -6.02299 0
M  V30 45150 O 6192.25 6.92449 -5.17064 0
M  V30 45151 C 6194.52 6.43627 -5.25174 0
M  V30 45152 O 6195.26 7.43686 -4.60469 0
M  V30 45153 C 6193.85 5.40275 -4.31916 0
M  V30 45154 O 6194.65 5.25279 -3.14438 0
M  V30 45155 C 6192.52 6.04847 -4.05327 0
M  V30 45156 H 6192.55 6.62195 -3.11261 0
M  V30 45157 H 6193.73 4.42556 -4.81383 0
M  V30 45158 H 6195.21 5.92458 -5.93643 0
M  V30 45159 H 6193.52 7.92655 -6.402 0
M  V30 45160 H 6193.33 6.26671 -8.0846 0
M  V30 45161 H 6191.7 6.29101 -7.32804 0
M  V30 45162 H 6194.34 5.84315 -2.47318 0
M  V30 45163 P 6196.2 7.39546 -4.75277 0
M  V30 45164 O 6197.62 7.84798 -5.01039 0
M  V30 45165 O 6195.84 5.9812 -5.08098 0
M  V30 45166 O 6195.87 7.57503 -3.1866 0
M  V30 45167 C 6195.71 8.97357 -2.74833 0
M  V30 45168 C 6196.25 9.07548 -1.32709 0
M  V30 45169 O 6195.2 8.62072 -0.606159 0
M  V30 45170 C 6197.47 8.25383 -0.938334 0
M  V30 45171 O 6198.21 8.74577 0.146954 0
M  V30 45172 C 6196.8 6.8802 -0.712559 0
M  V30 45173 O 6197.6 6.1189 0.194655 0
M  V30 45174 C 6195.47 7.27966 -0.139777 0
M  V30 45175 H 6195.5 7.25354 0.961601 0
M  V30 45176 H 6196.68 6.32557 -1.65702 0
M  V30 45177 H 6198.16 8.19355 -1.79097 0
M  V30 45178 H 6196.47 10.1294 -1.10029 0
M  V30 45179 H 6196.28 9.64276 -3.41316 0
M  V30 45180 H 6194.65 9.25417 -2.76357 0
M  V30 45181 H 6197.29 6.25267 1.07847 0
M  V30 45182 P 6199.15 8.791 -2.36087e-10 0
M  V30 45183 O 6200.57 9.31096 0.027933 0
M  V30 45184 O 6198.79 7.77869 -1.04071 0
M  V30 45185 O 6198.82 8.09533 1.41463 0
M  V30 45186 C 6198.66 9.0349 2.53943 0
M  V30 45187 C 6199.2 8.35226 3.79016 0
M  V30 45188 O 6198.15 7.57992 4.15078 0
M  V30 45189 C 6200.42 7.45087 3.67298 0
M  V30 45190 O 6201.16 7.27796 4.85194 0
M  V30 45191 C 6199.75 6.17323 3.12027 0
M  V30 45192 O 6200.55 5.04231 3.47188 0
M  V30 45193 C 6198.42 6.19961 3.81809 0
M  V30 45194 H 6198.45 5.58218 4.73051 0
M  V30 45195 H 6199.63 6.21726 2.02589 0
M  V30 45196 H 6201.12 7.86112 2.9231 0
M  V30 45197 H 6199.42 9.11627 4.55076 0
M  V30 45198 H 6199.23 9.9573 2.34194 0
M  V30 45199 H 6197.6 9.2792 2.67832 0
M  V30 45200 H 6200.24 4.67702 4.28772 0
M  V30 45201 P 6202.1 7.39546 4.75277 0
M  V30 45202 O 6203.5 7.89013 5.04841 0
M  V30 45203 O 6201.72 7.16603 3.32298 0
M  V30 45204 O 6201.78 6.04468 5.56605 0
M  V30 45205 C 6201.62 6.22772 7.02095 0
M  V30 45206 C 6202.16 4.97671 7.70322 0
M  V30 45207 O 6201.1 4.13208 7.58899 0
M  V30 45208 C 6203.37 4.28231 7.11815 0
M  V30 45209 O 6204.11 3.49945 8.01648 0
M  V30 45210 C 6202.71 3.5063 5.96244 0
M  V30 45211 O 6203.5 2.36443 5.64589 0
M  V30 45212 C 6201.37 3.15122 6.56374 0
M  V30 45213 N 6200.32 3.22311 5.55692 0
M  V30 45214 C 6199.29 2.32244 5.62437 0
M  V30 45215 O 6199.33 1.43107 6.50341 0
M  V30 45216 N 6198.28 2.40811 4.73368 0
M  V30 45217 C 6198.33 3.344 3.77753 0
M  V30 45218 C 6199.42 4.24712 3.66679 0
M  V30 45219 C 6200.39 4.15625 4.58307 0
M  V30 45220 H 6201.4 2.13823 6.99656 0
M  V30 45221 H 6202.58 4.12931 5.06895 0
M  V30 45222 H 6204.07 5.02674 6.71494 0
M  V30 45223 H 6202.37 5.20001 8.76217 0
M  V30 45224 H 6202.18 7.11046 7.35349 0
M  V30 45225 H 6200.55 6.35749 7.26911 0
M  V30 45226 H 6199.47 4.9828 2.86753 0
M  V30 45227 H 6201.23 4.84464 4.54228 0
M  V30 45228 H 6203.29 1.65592 6.23485 0
M  V30 45229 P 6205.05 3.65191 7.99657 0
M  V30 45230 O 6206.47 3.8425 8.48115 0
M  V30 45231 O 6204.69 4.17805 6.64342 0
M  V30 45232 O 6204.73 2.07613 7.95143 0
M  V30 45233 C 6204.57 1.44328 9.27336 0
M  V30 45234 C 6205.11 0.0220036 9.17197 0
M  V30 45235 O 6204.05 -0.626867 8.61923 0
M  V30 45236 C 6206.32 -0.24586 8.30336 0
M  V30 45237 O 6207.06 -1.39011 8.63583 0
M  V30 45238 C 6205.65 -0.273849 6.91158 0
M  V30 45239 O 6206.45 -1.06348 6.02892 0
M  V30 45240 C 6204.32 -0.897649 7.22545 0
M  V30 45241 H 6204.35 -1.9841 7.04286 0
M  V30 45242 H 6205.53 0.739928 6.497 0
M  V30 45243 H 6207.02 0.60668 8.36503 0
M  V30 45244 H 6205.32 -0.352479 10.1829 0
M  V30 45245 H 6205.13 2.00611 10.0304 0
M  V30 45246 H 6203.5 1.41843 9.55327 0
M  V30 45247 H 6206.14 -1.95734 6.03555 0
M  V30 45248 P 6208 -1.25109 8.70152 0
M  V30 45249 O 6209.42 -1.35274 9.21221 0
M  V30 45250 O 6207.64 -0.0769065 7.84762 0
M  V30 45251 O 6207.68 -2.55232 7.81161 0
M  V30 45252 C 6207.52 -3.79939 8.58154 0
M  V30 45253 C 6208.06 -4.94023 7.72785 0
M  V30 45254 O 6207 -5.18726 6.91205 0
M  V30 45255 C 6209.27 -4.69597 6.85231 0
M  V30 45256 O 6210.01 -5.83832 6.51337 0
M  V30 45257 C 6208.61 -3.96706 5.66633 0
M  V30 45258 O 6209.4 -4.15414 4.49689 0
M  V30 45259 C 6207.27 -4.66153 5.59313 0
M  V30 45260 H 6207.3 -5.47679 4.85214 0
M  V30 45261 H 6208.48 -2.89008 5.86566 0
M  V30 45262 H 6209.97 -4.0121 7.36511 0
M  V30 45263 H 6208.27 -5.80182 8.37584 0
M  V30 45264 H 6208.08 -3.73517 9.52265 0
M  V30 45265 H 6206.45 -3.97163 8.80359 0
M  V30 45266 H 6209.09 -4.90969 4.01921 0
M  V30 45267 P 6210.95 -5.75688 6.64379 0
M  V30 45268 O 6212.37 -6.11849 7.01846 0
M  V30 45269 O 6210.59 -4.30744 6.56026 0
M  V30 45270 O 6210.63 -6.37042 5.19165 0
M  V30 45271 C 6210.47 -7.83578 5.16515 0
M  V30 45272 C 6211.01 -8.33398 3.83019 0
M  V30 45273 O 6209.95 -8.10074 3.01034 0
M  V30 45274 C 6212.22 -7.65514 3.2257 0
M  V30 45275 O 6212.96 -8.4329 2.32297 0
M  V30 45276 C 6211.56 -6.40075 2.62207 0
M  V30 45277 O 6212.35 -5.92589 1.53712 0
M  V30 45278 C 6210.22 -6.9454 2.18503 0
M  V30 45279 H 6210.25 -7.23063 1.12091 0
M  V30 45280 H 6211.43 -5.6025 3.37201 0
M  V30 45281 H 6212.92 -7.35707 4.02681 0
M  V30 45282 H 6211.22 -9.40912 3.9095 0
M  V30 45283 H 6211.03 -8.29056 5.99158 0
M  V30 45284 H 6209.4 -8.10073 5.25882 0
M  V30 45285 H 6212.04 -6.30324 0.726794 0
M  V30 45286 P 6213.9 -8.4349 2.47671 0
M  V30 45287 O 6215.32 -8.94263 2.59668 0
M  V30 45288 O 6213.54 -7.1704 3.19006 0
M  V30 45289 O 6213.58 -8.16596 0.923387 0
M  V30 45290 C 6213.42 -9.38537 0.108869 0
M  V30 45291 C 6213.96 -9.08175 -1.28353 0
M  V30 45292 O 6212.9 -8.44131 -1.84692 0
M  V30 45293 C 6215.18 -8.18386 -1.42505 0
M  V30 45294 O 6215.91 -8.3501 -2.60497 0
M  V30 45295 C 6214.51 -6.80225 -1.25468 0
M  V30 45296 O 6215.31 -5.81716 -1.90454 0
M  V30 45297 C 6213.17 -7.02416 -1.9168 0
M  V30 45298 N 6212.13 -6.31033 -1.20314 0
M  V30 45299 C 6212.3 -5.98817 0.0994088 0
M  V30 45300 N 6211.27 -5.35403 0.621694 0
M  V30 45301 C 6210.38 -5.25212 -0.43376 0
M  V30 45302 C 6209.12 -4.64602 -0.519722 0
M  V30 45303 N 6208.55 -4.7568 -1.76013 0
M  V30 45304 C 6209.15 -5.3653 -2.83017 0
M  V30 45305 N 6210.33 -5.93676 -2.79782 0
M  V30 45306 C 6210.91 -5.84061 -1.56249 0
M  V30 45307 H 6214.38 -6.53498 -0.198729 0
M  V30 45308 H 6215.87 -8.36622 -0.589963 0
M  V30 45309 H 6214.17 -10.0273 -1.8081 0
M  V30 45310 H 6213.98 -10.2138 0.558219 0
M  V30 45311 H 6212.35 -9.6579 0.0444202 0
M  V30 45312 H 6213.2 -6.23209 0.660562 0
M  V30 45313 H 6214.99 -5.69466 -2.79593 0
M  V30 45314 P 6216.85 -8.4349 -2.47671 0
M  V30 45315 O 6218.27 -8.92593 -2.65 0
M  V30 45316 O 6216.49 -7.7568 -1.19296 0
M  V30 45317 O 6216.53 -7.36886 -3.63805 0
M  V30 45318 C 6216.37 -7.95349 -4.982 0
M  V30 45319 C 6216.91 -6.94612 -5.98974 0
M  V30 45320 O 6215.85 -6.10347 -6.11815 0
M  V30 45321 C 6218.13 -6.11426 -5.62335 0
M  V30 45322 O 6218.86 -5.6162 -6.70584 0
M  V30 45323 C 6217.46 -5.04409 -4.73308 0
M  V30 45324 O 6218.26 -3.85992 -4.75183 0
M  V30 45325 C 6216.12 -4.8728 -5.41006 0
M  V30 45326 H 6216.15 -4.02333 -6.11157 0
M  V30 45327 H 6217.33 -5.39466 -3.69543 0
M  V30 45328 H 6218.82 -6.71916 -5.01943 0
M  V30 45329 H 6217.12 -7.4649 -6.93477 0
M  V30 45330 H 6216.93 -8.89416 -5.05237 0
M  V30 45331 H 6215.3 -8.14876 -5.18409 0
M  V30 45332 H 6217.94 -3.27957 -5.4317 0
M  V30 45333 P 6219.8 -5.75688 -6.64379 0
M  V30 45334 O 6221.22 -6.07627 -7.05504 0
M  V30 45335 O 6219.44 -5.88047 -5.19722 0
M  V30 45336 O 6219.48 -4.2322 -7.04443 0
M  V30 45337 C 6219.32 -3.99743 -8.4911 0
M  V30 45338 C 6219.86 -2.60516 -8.79425 0
M  V30 45339 O 6218.8 -1.82684 -8.4467 0
M  V30 45340 C 6221.08 -2.10343 -8.03628 0
M  V30 45341 O 6221.81 -1.09919 -8.67766 0
M  V30 45342 C 6220.41 -1.68446 -6.70876 0
M  V30 45343 O 6221.21 -0.678137 -6.08433 0
M  V30 45344 C 6219.07 -1.17436 -7.18567 0
M  V30 45345 H 6219.1 -0.0804732 -7.31656 0
M  V30 45346 H 6220.29 -2.54037 -6.02537 0
M  V30 45347 H 6221.77 -2.93881 -7.85526 0
M  V30 45348 H 6220.08 -2.53065 -9.86973 0
M  V30 45349 H 6219.89 -4.75072 -9.05887 0
M  V30 45350 H 6218.26 -4.05244 -8.76668 0
M  V30 45351 H 6220.89 0.177647 -6.34251 0
M  V30 45352 P 6222.75 -1.25109 -8.70152 0
M  V30 45353 O 6224.17 -1.29758 -9.22115 0
M  V30 45354 O 6222.39 -2.13714 -7.55141 0
M  V30 45355 O 6222.43 0.248149 -8.21425 0
M  V30 45356 C 6222.27 1.22792 -9.30533 0
M  V30 45357 C 6222.81 2.56293 -8.80664 0
M  V30 45358 O 6221.75 3.02944 -8.09255 0
M  V30 45359 C 6224.03 2.57523 -7.89775 0
M  V30 45360 O 6224.77 3.7668 -7.89438 0
M  V30 45361 C 6223.36 2.20997 -6.55446 0
M  V30 45362 O 6224.16 2.71302 -5.48691 0
M  V30 45363 C 6222.02 2.89693 -6.67988 0
M  V30 45364 N 6220.98 2.08895 -6.07487 0
M  V30 45365 C 6221.15 0.753809 -5.94137 0
M  V30 45366 N 6220.12 0.146592 -5.38801 0
M  V30 45367 C 6219.24 1.1768 -5.13693 0
M  V30 45368 C 6217.97 1.17563 -4.52477 0
M  V30 45369 N 6217.4 2.41918 -4.45789 0
M  V30 45370 C 6218.01 3.56493 -4.90792 0
M  V30 45371 N 6219.18 3.61423 -5.47817 0
M  V30 45372 C 6219.76 2.37779 -5.5588 0
M  V30 45373 H 6223.24 1.12673 -6.44018 0
M  V30 45374 H 6224.72 1.7746 -8.19711 0
M  V30 45375 H 6223.03 3.21673 -9.66791 0
M  V30 45376 H 6222.84 0.901032 -10.1892 0
M  V30 45377 H 6221.21 1.33049 -9.56592 0
M  V30 45378 H 6222.05 0.233081 -6.26266 0
M  V30 45379 H 6223.85 3.5779 -5.23879 0
M  V30 45380 P 6225.7 3.65191 -7.99657 0
M  V30 45381 O 6227.12 3.89332 -8.45794 0
M  V30 45382 O 6225.34 2.28472 -7.50807 0
M  V30 45383 O 6225.38 4.64972 -6.77611 0
M  V30 45384 C 6225.22 6.06319 -7.16352 0
M  V30 45385 C 6225.76 6.91731 -6.02299 0
M  V30 45386 O 6224.7 6.92449 -5.17064 0
M  V30 45387 C 6226.98 6.43627 -5.25174 0
M  V30 45388 O 6227.72 7.43686 -4.60469 0
M  V30 45389 C 6226.31 5.40275 -4.31916 0
M  V30 45390 O 6227.11 5.25279 -3.14438 0
M  V30 45391 C 6224.97 6.04847 -4.05327 0
M  V30 45392 H 6225 6.62195 -3.11261 0
M  V30 45393 H 6226.19 4.42556 -4.81383 0
M  V30 45394 H 6227.67 5.92458 -5.93643 0
M  V30 45395 H 6225.98 7.92655 -6.402 0
M  V30 45396 H 6225.79 6.26671 -8.0846 0
M  V30 45397 H 6224.16 6.29101 -7.32804 0
M  V30 45398 H 6226.8 5.84315 -2.47318 0
M  V30 45399 P 6228.65 7.39546 -4.75277 0
M  V30 45400 O 6230.08 7.84798 -5.01039 0
M  V30 45401 O 6228.29 5.9812 -5.08098 0
M  V30 45402 O 6228.33 7.57503 -3.1866 0
M  V30 45403 C 6228.17 8.97357 -2.74833 0
M  V30 45404 C 6228.71 9.07548 -1.32709 0
M  V30 45405 O 6227.65 8.62072 -0.606159 0
M  V30 45406 C 6229.93 8.25383 -0.938334 0
M  V30 45407 O 6230.67 8.74577 0.146954 0
M  V30 45408 C 6229.26 6.8802 -0.712559 0
M  V30 45409 O 6230.06 6.1189 0.194655 0
M  V30 45410 C 6227.92 7.27966 -0.139777 0
M  V30 45411 H 6227.95 7.25354 0.961601 0
M  V30 45412 H 6229.14 6.32557 -1.65702 0
M  V30 45413 H 6230.62 8.19355 -1.79097 0
M  V30 45414 H 6228.93 10.1294 -1.10029 0
M  V30 45415 H 6228.74 9.64276 -3.41316 0
M  V30 45416 H 6227.11 9.25417 -2.76357 0
M  V30 45417 H 6229.75 6.25267 1.07847 0
M  V30 45418 P 6231.6 8.791 -2.3028e-10 0
M  V30 45419 O 6233.03 9.31096 0.027933 0
M  V30 45420 O 6231.24 7.77869 -1.04071 0
M  V30 45421 O 6231.28 8.09533 1.41463 0
M  V30 45422 C 6231.12 9.0349 2.53943 0
M  V30 45423 C 6231.66 8.35226 3.79016 0
M  V30 45424 O 6230.6 7.57992 4.15078 0
M  V30 45425 C 6232.88 7.45087 3.67298 0
M  V30 45426 O 6233.62 7.27796 4.85194 0
M  V30 45427 C 6232.21 6.17323 3.12027 0
M  V30 45428 O 6233.01 5.04231 3.47188 0
M  V30 45429 C 6230.87 6.19961 3.81809 0
M  V30 45430 H 6230.9 5.58218 4.73051 0
M  V30 45431 H 6232.09 6.21726 2.02589 0
M  V30 45432 H 6233.57 7.86112 2.9231 0
M  V30 45433 H 6231.88 9.11627 4.55076 0
M  V30 45434 H 6231.69 9.9573 2.34194 0
M  V30 45435 H 6230.06 9.2792 2.67832 0
M  V30 45436 H 6232.7 4.67702 4.28772 0
M  V30 45437 P 6234.55 7.39546 4.75277 0
M  V30 45438 O 6235.96 7.89013 5.04841 0
M  V30 45439 O 6234.18 7.16603 3.32298 0
M  V30 45440 O 6234.23 6.04468 5.56605 0
M  V30 45441 C 6234.07 6.22772 7.02095 0
M  V30 45442 C 6234.61 4.97671 7.70322 0
M  V30 45443 O 6233.56 4.13208 7.58899 0
M  V30 45444 C 6235.83 4.28231 7.11815 0
M  V30 45445 O 6236.57 3.49945 8.01648 0
M  V30 45446 C 6235.16 3.5063 5.96244 0
M  V30 45447 O 6235.96 2.36443 5.64589 0
M  V30 45448 C 6233.82 3.15122 6.56374 0
M  V30 45449 N 6232.78 3.22311 5.55692 0
M  V30 45450 C 6231.75 2.32244 5.62437 0
M  V30 45451 O 6231.78 1.43107 6.50341 0
M  V30 45452 N 6230.73 2.40811 4.73368 0
M  V30 45453 C 6230.78 3.344 3.77753 0
M  V30 45454 C 6231.88 4.24712 3.66679 0
M  V30 45455 C 6232.84 4.15625 4.58307 0
M  V30 45456 H 6233.86 2.13823 6.99656 0
M  V30 45457 H 6235.04 4.12931 5.06895 0
M  V30 45458 H 6236.52 5.02674 6.71494 0
M  V30 45459 H 6234.83 5.20001 8.76217 0
M  V30 45460 H 6234.64 7.11046 7.35349 0
M  V30 45461 H 6233.01 6.35749 7.26911 0
M  V30 45462 H 6231.93 4.9828 2.86753 0
M  V30 45463 H 6233.69 4.84464 4.54228 0
M  V30 45464 H 6235.74 1.65592 6.23485 0
M  V30 45465 P 6237.5 3.65191 7.99657 0
M  V30 45466 O 6238.93 3.8425 8.48115 0
M  V30 45467 O 6237.14 4.17805 6.64342 0
M  V30 45468 O 6237.18 2.07613 7.95143 0
M  V30 45469 C 6237.02 1.44328 9.27336 0
M  V30 45470 C 6237.56 0.0220036 9.17197 0
M  V30 45471 O 6236.51 -0.626867 8.61923 0
M  V30 45472 C 6238.78 -0.24586 8.30336 0
M  V30 45473 O 6239.52 -1.39011 8.63583 0
M  V30 45474 C 6238.11 -0.273849 6.91158 0
M  V30 45475 O 6238.91 -1.06348 6.02892 0
M  V30 45476 C 6236.77 -0.897649 7.22545 0
M  V30 45477 H 6236.81 -1.9841 7.04286 0
M  V30 45478 H 6237.99 0.739928 6.497 0
M  V30 45479 H 6239.47 0.60668 8.36503 0
M  V30 45480 H 6237.78 -0.352479 10.1829 0
M  V30 45481 H 6237.59 2.00611 10.0304 0
M  V30 45482 H 6235.96 1.41843 9.55327 0
M  V30 45483 H 6238.6 -1.95734 6.03555 0
M  V30 45484 P 6240.46 -1.25109 8.70152 0
M  V30 45485 O 6241.88 -1.35274 9.21221 0
M  V30 45486 O 6240.1 -0.0769065 7.84762 0
M  V30 45487 O 6240.13 -2.55232 7.81161 0
M  V30 45488 C 6239.97 -3.79939 8.58154 0
M  V30 45489 C 6240.51 -4.94023 7.72785 0
M  V30 45490 O 6239.46 -5.18726 6.91205 0
M  V30 45491 C 6241.73 -4.69597 6.85231 0
M  V30 45492 O 6242.47 -5.83832 6.51337 0
M  V30 45493 C 6241.06 -3.96706 5.66633 0
M  V30 45494 O 6241.86 -4.15414 4.49689 0
M  V30 45495 C 6239.72 -4.66153 5.59313 0
M  V30 45496 H 6239.76 -5.47679 4.85214 0
M  V30 45497 H 6240.94 -2.89008 5.86566 0
M  V30 45498 H 6242.42 -4.0121 7.36511 0
M  V30 45499 H 6240.73 -5.80182 8.37584 0
M  V30 45500 H 6240.54 -3.73517 9.52265 0
M  V30 45501 H 6238.91 -3.97163 8.80359 0
M  V30 45502 H 6241.55 -4.90969 4.01921 0
M  V30 45503 P 6243.41 -5.75688 6.64379 0
M  V30 45504 O 6244.83 -6.11849 7.01846 0
M  V30 45505 O 6243.05 -4.30744 6.56026 0
M  V30 45506 O 6243.08 -6.37042 5.19165 0
M  V30 45507 C 6242.92 -7.83578 5.16515 0
M  V30 45508 C 6243.46 -8.33398 3.83019 0
M  V30 45509 O 6242.41 -8.10074 3.01034 0
M  V30 45510 C 6244.68 -7.65514 3.2257 0
M  V30 45511 O 6245.42 -8.4329 2.32297 0
M  V30 45512 C 6244.01 -6.40075 2.62207 0
M  V30 45513 O 6244.81 -5.92589 1.53712 0
M  V30 45514 C 6242.68 -6.9454 2.18503 0
M  V30 45515 H 6242.71 -7.23063 1.12091 0
M  V30 45516 H 6243.89 -5.6025 3.37201 0
M  V30 45517 H 6245.37 -7.35707 4.02681 0
M  V30 45518 H 6243.68 -9.40912 3.9095 0
M  V30 45519 H 6243.49 -8.29056 5.99158 0
M  V30 45520 H 6241.86 -8.10073 5.25882 0
M  V30 45521 H 6244.5 -6.30324 0.726794 0
M  V30 45522 P 6246.36 -8.4349 2.47671 0
M  V30 45523 O 6247.78 -8.94263 2.59668 0
M  V30 45524 O 6246 -7.1704 3.19006 0
M  V30 45525 O 6246.03 -8.16596 0.923387 0
M  V30 45526 C 6245.87 -9.38537 0.108869 0
M  V30 45527 C 6246.41 -9.08175 -1.28353 0
M  V30 45528 O 6245.36 -8.44131 -1.84692 0
M  V30 45529 C 6247.63 -8.18386 -1.42505 0
M  V30 45530 O 6248.37 -8.3501 -2.60497 0
M  V30 45531 C 6246.96 -6.80225 -1.25468 0
M  V30 45532 O 6247.76 -5.81716 -1.90454 0
M  V30 45533 C 6245.63 -7.02416 -1.9168 0
M  V30 45534 N 6244.58 -6.31033 -1.20314 0
M  V30 45535 C 6244.75 -5.98817 0.0994088 0
M  V30 45536 N 6243.72 -5.35403 0.621694 0
M  V30 45537 C 6242.84 -5.25212 -0.43376 0
M  V30 45538 C 6241.57 -4.64602 -0.519722 0
M  V30 45539 N 6241.01 -4.7568 -1.76013 0
M  V30 45540 C 6241.61 -5.3653 -2.83017 0
M  V30 45541 N 6242.79 -5.93676 -2.79782 0
M  V30 45542 C 6243.36 -5.84061 -1.56249 0
M  V30 45543 H 6246.84 -6.53498 -0.198729 0
M  V30 45544 H 6248.32 -8.36622 -0.589963 0
M  V30 45545 H 6246.63 -10.0273 -1.8081 0
M  V30 45546 H 6246.44 -10.2138 0.558219 0
M  V30 45547 H 6244.81 -9.6579 0.0444202 0
M  V30 45548 H 6245.65 -6.23209 0.660562 0
M  V30 45549 H 6247.45 -5.69466 -2.79593 0
M  V30 45550 P 6249.31 -8.4349 -2.47671 0
M  V30 45551 O 6250.73 -8.92593 -2.65 0
M  V30 45552 O 6248.95 -7.7568 -1.19296 0
M  V30 45553 O 6248.98 -7.36886 -3.63805 0
M  V30 45554 C 6248.82 -7.95349 -4.982 0
M  V30 45555 C 6249.36 -6.94612 -5.98974 0
M  V30 45556 O 6248.31 -6.10347 -6.11815 0
M  V30 45557 C 6250.58 -6.11426 -5.62335 0
M  V30 45558 O 6251.32 -5.6162 -6.70584 0
M  V30 45559 C 6249.91 -5.04409 -4.73308 0
M  V30 45560 O 6250.71 -3.85992 -4.75183 0
M  V30 45561 C 6248.58 -4.8728 -5.41006 0
M  V30 45562 H 6248.61 -4.02333 -6.11157 0
M  V30 45563 H 6249.79 -5.39466 -3.69543 0
M  V30 45564 H 6251.28 -6.71916 -5.01943 0
M  V30 45565 H 6249.58 -7.4649 -6.93477 0
M  V30 45566 H 6249.39 -8.89416 -5.05237 0
M  V30 45567 H 6247.76 -8.14876 -5.18409 0
M  V30 45568 H 6250.4 -3.27957 -5.4317 0
M  V30 45569 P 6252.26 -5.75688 -6.64379 0
M  V30 45570 O 6253.68 -6.07692 -7.0558 0
M  V30 45571 O 6251.9 -5.88047 -5.19722 0
M  V30 45572 O 6251.93 -4.2322 -7.04443 0
M  V30 45573 C 6251.77 -3.99785 -8.49201 0
M  V30 45574 C 6252.31 -2.60516 -8.79425 0
M  V30 45575 O 6251.26 -1.82663 -8.44573 0
M  V30 45576 C 6253.53 -2.10343 -8.03628 0
M  V30 45577 O 6254.27 -1.09919 -8.67766 0
M  V30 45578 C 6252.86 -1.68446 -6.70876 0
M  V30 45579 O 6253.66 -0.684109 -6.08265 0
M  V30 45580 C 6251.53 -1.17436 -7.18567 0
M  V30 45581 N 6250.48 -1.52699 -6.23988 0
M  V30 45582 C 6250.65 -2.578 -5.40574 0
M  V30 45583 N 6249.63 -2.78966 -4.61193 0
M  V30 45584 C 6248.74 -1.78725 -4.95769 0
M  V30 45585 C 6247.47 -1.45727 -4.44207 0
M  V30 45586 N 6246.87 -2.13994 -3.43613 0
M  V30 45587 N 6246.91 -0.374977 -5.05812 0
M  V30 45588 C 6247.51 0.345585 -6.05615 0
M  V30 45589 N 6248.69 0.0787651 -6.56253 0
M  V30 45590 C 6249.26 -1.00499 -5.96189 0
M  V30 45591 H 6251.56 -0.0804622 -7.31556 0
M  V30 45592 H 6252.74 -2.53396 -6.02698 0
M  V30 45593 H 6254.22 -2.93881 -7.85526 0
M  V30 45594 H 6252.53 -2.52078 -9.87225 0
M  V30 45595 H 6252.34 -4.75072 -9.05887 0
M  V30 45596 H 6250.71 -4.05244 -8.76668 0
M  V30 45597 H 6246.97 1.20098 -6.4532 0
M  V30 45598 H 6251.55 -3.18977 -5.3945 0
M  V30 45599 H 6245.94 -1.84983 -3.10004 0
M  V30 45600 H 6247.35 -2.9465 -3.00843 0
M  V30 45601 H 6253.35 0.177619 -6.34151 0
M  V30 45602 P 6255.21 -1.25109 -8.70152 0
M  V30 45603 O 6256.63 -1.29744 -9.22016 0
M  V30 45604 O 6254.85 -2.13714 -7.55141 0
M  V30 45605 O 6254.89 0.248149 -8.21425 0
M  V30 45606 C 6254.73 1.22779 -9.30434 0
M  V30 45607 C 6255.27 2.56293 -8.80664 0
M  V30 45608 O 6254.21 3.02979 -8.09349 0
M  V30 45609 C 6256.48 2.57523 -7.89775 0
M  V30 45610 O 6257.22 3.7668 -7.89438 0
M  V30 45611 C 6255.81 2.20997 -6.55446 0
M  V30 45612 O 6256.61 2.71895 -5.48509 0
M  V30 45613 C 6254.48 2.89693 -6.67988 0
M  V30 45614 H 6254.51 3.88793 -6.19859 0
M  V30 45615 H 6255.69 1.12046 -6.44229 0
M  V30 45616 H 6257.18 1.7746 -8.19711 0
M  V30 45617 H 6255.48 3.20706 -9.67112 0
M  V30 45618 H 6255.29 0.901032 -10.1892 0
M  V30 45619 H 6253.66 1.33049 -9.56592 0
M  V30 45620 H 6256.3 3.57847 -5.23962 0
M  V30 45621 P 6258.16 3.65191 -7.99657 0
M  V30 45622 O 6259.58 3.89416 -8.45976 0
M  V30 45623 O 6257.8 2.28472 -7.50807 0
M  V30 45624 O 6257.84 4.64972 -6.77611 0
M  V30 45625 C 6257.68 6.06319 -7.16352 0
M  V30 45626 C 6258.22 6.91655 -6.02234 0
M  V30 45627 O 6257.16 6.92449 -5.17064 0
M  V30 45628 C 6259.43 6.43627 -5.25174 0
M  V30 45629 O 6260.17 7.43686 -4.60469 0
M  V30 45630 C 6258.77 5.40275 -4.31916 0
M  V30 45631 O 6259.56 5.25193 -3.14386 0
M  V30 45632 C 6257.43 6.04847 -4.05327 0
M  V30 45633 N 6256.38 5.04166 -3.98114 0
M  V30 45634 C 6256.45 3.96049 -4.75587 0
M  V30 45635 N 6255.4 3.15559 -4.54006 0
M  V30 45636 C 6254.67 3.78802 -3.62491 0
M  V30 45637 C 6253.36 3.476 -3.10071 0
M  V30 45638 O 6252.63 2.51136 -3.37021 0
M  V30 45639 N 6252.93 4.39088 -2.19956 0
M  V30 45640 C 6253.68 5.53215 -1.81733 0
M  V30 45641 N 6253.08 6.31963 -0.860928 0
M  V30 45642 N 6254.83 5.86688 -2.32562 0
M  V30 45643 C 6255.29 4.97525 -3.23407 0
M  V30 45644 H 6257.46 6.62195 -3.11261 0
M  V30 45645 H 6258.64 4.42488 -4.8131 0
M  V30 45646 H 6260.13 5.93051 -5.9305 0
M  V30 45647 H 6258.43 7.92655 -6.402 0
M  V30 45648 H 6258.24 6.26671 -8.0846 0
M  V30 45649 H 6256.61 6.29101 -7.32804 0
M  V30 45650 H 6252.04 4.25523 -1.77604 0
M  V30 45651 H 6257.24 3.75576 -5.47333 0
M  V30 45652 H 6252.17 6.04684 -0.468946 0
M  V30 45653 H 6253.55 7.18054 -0.542422 0
M  V30 45654 H 6259.25 5.84223 -2.47279 0
M  V30 45655 P 6261.11 7.39546 -4.75277 0
M  V30 45656 O 6262.53 7.84882 -5.01092 0
M  V30 45657 O 6260.75 5.9812 -5.08098 0
M  V30 45658 O 6260.79 7.57503 -3.1866 0
M  V30 45659 C 6260.63 8.97452 -2.74862 0
M  V30 45660 C 6261.17 9.07548 -1.32709 0
M  V30 45661 O 6260.11 8.61972 -0.606089 0
M  V30 45662 C 6262.38 8.25383 -0.938334 0
M  V30 45663 O 6263.12 8.74577 0.146954 0
M  V30 45664 C 6261.72 6.8802 -0.712559 0
M  V30 45665 O 6262.51 6.1181 0.188505 0
M  V30 45666 C 6260.38 7.27966 -0.139777 0
M  V30 45667 N 6259.34 6.39368 -0.623421 0
M  V30 45668 C 6259.5 5.71761 -1.78245 0
M  V30 45669 N 6258.48 4.962 -2.10491 0
M  V30 45670 C 6257.59 5.16158 -1.0635 0
M  V30 45671 C 6256.33 4.60425 -0.810266 0
M  V30 45672 N 6255.76 5.06 0.348685 0
M  V30 45673 C 6256.36 5.94532 1.20395 0
M  V30 45674 N 6257.54 6.48452 1.01191 0
M  V30 45675 C 6258.11 6.04423 -0.146291 0
M  V30 45676 H 6261.59 6.32625 -1.65044 0
M  V30 45677 H 6263.08 8.19355 -1.79097 0
M  V30 45678 H 6261.38 10.1305 -1.09016 0
M  V30 45679 H 6261.19 9.64276 -3.41316 0
M  V30 45680 H 6259.56 9.25417 -2.76357 0
M  V30 45681 H 6260.4 5.79354 -2.38959 0
M  V30 45682 H 6262.2 6.25169 1.0783 0
M  V30 45683 P 6264.06 8.791 -2.24473e-10 0
M  V30 45684 O 6265.48 9.31096 0.027933 0
M  V30 45685 O 6263.7 7.77869 -1.04071 0
M  V30 45686 O 6263.74 8.09533 1.41463 0
M  V30 45687 C 6263.58 9.0349 2.53943 0
M  V30 45688 C 6264.12 8.35226 3.79016 0
M  V30 45689 O 6263.06 7.57992 4.15078 0
M  V30 45690 C 6265.34 7.45087 3.67298 0
M  V30 45691 O 6266.07 7.27796 4.85194 0
M  V30 45692 C 6264.67 6.17323 3.12027 0
M  V30 45693 O 6265.47 5.04231 3.47188 0
M  V30 45694 C 6263.33 6.19961 3.81809 0
M  V30 45695 H 6263.36 5.58218 4.73051 0
M  V30 45696 H 6264.54 6.21726 2.02589 0
M  V30 45697 H 6266.03 7.86112 2.9231 0
M  V30 45698 H 6264.33 9.11627 4.55076 0
M  V30 45699 H 6264.14 9.9573 2.34194 0
M  V30 45700 H 6262.51 9.2792 2.67832 0
M  V30 45701 H 6265.15 4.67702 4.28772 0
M  V30 45702 P 6267.01 7.39546 4.75277 0
M  V30 45703 O 6268.43 7.81777 5.05738 0
M  V30 45704 O 6266.65 7.1065 3.32998 0
M  V30 45705 O 6266.69 6.04542 5.56673 0
M  V30 45706 C 6266.53 6.22772 7.02095 0
M  V30 45707 C 6267.07 4.97725 7.70406 0
M  V30 45708 O 6266.01 4.13256 7.58987 0
M  V30 45709 C 6268.29 4.28231 7.11815 0
M  V30 45710 O 6269.02 3.49945 8.01648 0
M  V30 45711 C 6267.62 3.5063 5.96244 0
M  V30 45712 O 6268.42 2.36482 5.64681 0
M  V30 45713 C 6266.28 3.15122 6.56374 0
M  V30 45714 H 6266.31 2.13853 6.99751 0
M  V30 45715 H 6267.49 4.13501 5.06559 0
M  V30 45716 H 6268.98 5.03285 6.70911 0
M  V30 45717 H 6267.28 5.20877 8.75697 0
M  V30 45718 H 6267.09 7.11046 7.35349 0
M  V30 45719 H 6265.46 6.35815 7.26986 0
M  V30 45720 H 6268.1 1.61644 6.13565 0
M  V30 45721 P 6269.96 3.65191 7.99657 0
M  V30 45722 O 6271.38 3.8425 8.48115 0
M  V30 45723 O 6269.6 4.17805 6.64342 0
M  V30 45724 O 6269.64 2.07613 7.95143 0
M  V30 45725 C 6269.48 1.44328 9.27336 0
M  V30 45726 C 6270.02 0.0220036 9.17197 0
M  V30 45727 O 6268.96 -0.626867 8.61923 0
M  V30 45728 C 6271.24 -0.24586 8.30336 0
M  V30 45729 O 6271.97 -1.39011 8.63583 0
M  V30 45730 C 6270.57 -0.273849 6.91158 0
M  V30 45731 O 6271.37 -1.06348 6.02892 0
M  V30 45732 C 6269.23 -0.897649 7.22545 0
M  V30 45733 H 6269.26 -1.9841 7.04286 0
M  V30 45734 H 6270.45 0.739928 6.497 0
M  V30 45735 H 6271.93 0.60668 8.36503 0
M  V30 45736 H 6270.24 -0.352479 10.1829 0
M  V30 45737 H 6270.05 2.00611 10.0304 0
M  V30 45738 H 6268.42 1.41843 9.55327 0
M  V30 45739 H 6271.05 -1.95734 6.03555 0
M  V30 45740 P 6272.91 -1.25109 8.70152 0
M  V30 45741 O 6274.33 -1.35274 9.21221 0
M  V30 45742 O 6272.55 -0.0769065 7.84762 0
M  V30 45743 O 6272.59 -2.55232 7.81161 0
M  V30 45744 C 6272.43 -3.79939 8.58154 0
M  V30 45745 C 6272.97 -4.94023 7.72785 0
M  V30 45746 O 6271.91 -5.18726 6.91205 0
M  V30 45747 C 6274.19 -4.69597 6.85231 0
M  V30 45748 O 6274.92 -5.83832 6.51337 0
M  V30 45749 C 6273.52 -3.96706 5.66633 0
M  V30 45750 O 6274.32 -4.15414 4.49689 0
M  V30 45751 C 6272.18 -4.66153 5.59313 0
M  V30 45752 H 6272.21 -5.47679 4.85214 0
M  V30 45753 H 6273.4 -2.89008 5.86566 0
M  V30 45754 H 6274.88 -4.0121 7.36511 0
M  V30 45755 H 6273.19 -5.80182 8.37584 0
M  V30 45756 H 6273 -3.73517 9.52265 0
M  V30 45757 H 6271.37 -3.97163 8.80359 0
M  V30 45758 H 6274 -4.90969 4.01921 0
M  V30 45759 P 6275.86 -5.75688 6.64379 0
M  V30 45760 O 6277.28 -6.11849 7.01846 0
M  V30 45761 O 6275.5 -4.30744 6.56026 0
M  V30 45762 O 6275.54 -6.37042 5.19165 0
M  V30 45763 C 6275.38 -7.83578 5.16515 0
M  V30 45764 C 6275.92 -8.33398 3.83019 0
M  V30 45765 O 6274.86 -8.10074 3.01034 0
M  V30 45766 C 6277.14 -7.65514 3.2257 0
M  V30 45767 O 6277.88 -8.4329 2.32297 0
M  V30 45768 C 6276.47 -6.40075 2.62207 0
M  V30 45769 O 6277.27 -5.92589 1.53712 0
M  V30 45770 C 6275.13 -6.9454 2.18503 0
M  V30 45771 H 6275.16 -7.23063 1.12091 0
M  V30 45772 H 6276.35 -5.6025 3.37201 0
M  V30 45773 H 6277.83 -7.35707 4.02681 0
M  V30 45774 H 6276.14 -9.40912 3.9095 0
M  V30 45775 H 6275.95 -8.29056 5.99158 0
M  V30 45776 H 6274.32 -8.10073 5.25882 0
M  V30 45777 H 6276.96 -6.30324 0.726794 0
M  V30 45778 P 6278.81 -8.4349 2.47671 0
M  V30 45779 O 6280.23 -8.94167 2.5964 0
M  V30 45780 O 6278.45 -7.1704 3.19006 0
M  V30 45781 O 6278.49 -8.16596 0.923387 0
M  V30 45782 C 6278.33 -9.38437 0.108857 0
M  V30 45783 C 6278.87 -9.08175 -1.28353 0
M  V30 45784 O 6277.81 -8.44229 -1.84713 0
M  V30 45785 C 6280.09 -8.18386 -1.42505 0
M  V30 45786 O 6280.83 -8.3501 -2.60497 0
M  V30 45787 C 6279.42 -6.80225 -1.25468 0
M  V30 45788 O 6280.22 -5.81621 -1.91066 0
M  V30 45789 C 6278.08 -7.02416 -1.9168 0
M  V30 45790 H 6278.11 -6.6888 -2.96621 0
M  V30 45791 H 6279.3 -6.53617 -0.192223 0
M  V30 45792 H 6280.78 -8.36622 -0.589963 0
M  V30 45793 H 6279.09 -10.0291 -1.79807 0
M  V30 45794 H 6278.9 -10.2138 0.558219 0
M  V30 45795 H 6277.27 -9.6579 0.0444202 0
M  V30 45796 H 6279.91 -5.69556 -2.79637 0
M  V30 45797 P 6281.76 -8.4349 -2.47671 0
M  V30 45798 O 6283.19 -8.92593 -2.65 0
M  V30 45799 O 6281.4 -7.7568 -1.19296 0
M  V30 45800 O 6281.44 -7.36886 -3.63805 0
M  V30 45801 C 6281.28 -7.95349 -4.982 0
M  V30 45802 C 6281.82 -6.94612 -5.98974 0
M  V30 45803 O 6280.76 -6.10347 -6.11815 0
M  V30 45804 C 6283.04 -6.11426 -5.62335 0
M  V30 45805 O 6283.78 -5.6162 -6.70584 0
M  V30 45806 C 6282.37 -5.04409 -4.73308 0
M  V30 45807 O 6283.17 -3.85992 -4.75183 0
M  V30 45808 C 6281.03 -4.8728 -5.41006 0
M  V30 45809 H 6281.06 -4.02333 -6.11157 0
M  V30 45810 H 6282.25 -5.39466 -3.69543 0
M  V30 45811 H 6283.73 -6.71916 -5.01943 0
M  V30 45812 H 6282.04 -7.4649 -6.93477 0
M  V30 45813 H 6281.85 -8.89416 -5.05237 0
M  V30 45814 H 6280.22 -8.14876 -5.18409 0
M  V30 45815 H 6282.86 -3.27957 -5.4317 0
M  V30 45816 P 6284.71 -5.75688 -6.64379 0
M  V30 45817 O 6286.12 -6.14823 -7.06682 0
M  V30 45818 O 6284.34 -5.93957 -5.20728 0
M  V30 45819 O 6284.39 -4.23169 -7.04357 0
M  V30 45820 C 6284.23 -3.99743 -8.4911 0
M  V30 45821 C 6284.77 -2.60487 -8.79329 0
M  V30 45822 O 6283.72 -1.82663 -8.44573 0
M  V30 45823 C 6285.99 -2.10343 -8.03628 0
M  V30 45824 O 6286.73 -1.09919 -8.67766 0
M  V30 45825 C 6285.32 -1.68446 -6.70876 0
M  V30 45826 O 6286.12 -0.678026 -6.08333 0
M  V30 45827 C 6283.98 -1.17436 -7.18567 0
M  V30 45828 N 6282.94 -1.52699 -6.23988 0
M  V30 45829 C 6281.91 -0.643793 -6.05085 0
M  V30 45830 O 6281.94 0.459118 -6.64315 0
M  V30 45831 N 6280.89 -0.976931 -5.22038 0
M  V30 45832 C 6280.94 -2.14429 -4.56662 0
M  V30 45833 C 6282.04 -3.04203 -4.71481 0
M  V30 45834 C 6283 -2.69669 -5.56838 0
M  V30 45835 H 6284.02 -0.0804622 -7.31556 0
M  V30 45836 H 6285.2 -2.53396 -6.02698 0
M  V30 45837 H 6286.68 -2.9313 -7.85914 0
M  V30 45838 H 6284.99 -2.52078 -9.87225 0
M  V30 45839 H 6284.8 -4.75072 -9.05887 0
M  V30 45840 H 6283.17 -4.05202 -8.76577 0
M  V30 45841 H 6282.09 -3.97309 -4.15519 0
M  V30 45842 H 6283.85 -3.36869 -5.72318 0
M  V30 45843 H 6285.9 0.167718 -6.44882 0
M  V30 45844 P 6287.66 -1.25109 -8.70152 0
M  V30 45845 O 6289.09 -1.29744 -9.22016 0
M  V30 45846 O 6287.3 -2.13714 -7.55141 0
M  V30 45847 O 6287.34 0.248149 -8.21425 0
M  V30 45848 C 6287.18 1.22779 -9.30434 0
M  V30 45849 C 6287.72 2.56293 -8.80664 0
M  V30 45850 O 6286.67 3.02979 -8.09349 0
M  V30 45851 C 6288.94 2.57523 -7.89775 0
M  V30 45852 O 6289.68 3.7668 -7.89438 0
M  V30 45853 C 6288.27 2.20997 -6.55446 0
M  V30 45854 O 6289.07 2.71895 -5.48509 0
M  V30 45855 C 6286.93 2.89693 -6.67988 0
M  V30 45856 H 6286.97 3.88793 -6.19859 0
M  V30 45857 H 6288.15 1.12046 -6.44229 0
M  V30 45858 H 6289.63 1.7746 -8.19711 0
M  V30 45859 H 6287.94 3.20706 -9.67112 0
M  V30 45860 H 6287.75 0.901032 -10.1892 0
M  V30 45861 H 6286.12 1.33049 -9.56592 0
M  V30 45862 H 6288.76 3.57847 -5.23962 0
M  V30 45863 P 6290.62 3.65191 -7.99657 0
M  V30 45864 O 6292.04 3.89332 -8.45794 0
M  V30 45865 O 6290.26 2.28472 -7.50807 0
M  V30 45866 O 6290.29 4.64972 -6.77611 0
M  V30 45867 C 6290.13 6.06319 -7.16352 0
M  V30 45868 C 6290.67 6.91731 -6.02299 0
M  V30 45869 O 6289.62 6.92449 -5.17064 0
M  V30 45870 C 6291.89 6.43627 -5.25174 0
M  V30 45871 O 6292.63 7.43686 -4.60469 0
M  V30 45872 C 6291.22 5.40275 -4.31916 0
M  V30 45873 O 6292.02 5.25279 -3.14438 0
M  V30 45874 C 6289.88 6.04847 -4.05327 0
M  V30 45875 H 6289.92 6.62195 -3.11261 0
M  V30 45876 H 6291.1 4.42556 -4.81383 0
M  V30 45877 H 6292.58 5.92458 -5.93643 0
M  V30 45878 H 6290.89 7.92655 -6.402 0
M  V30 45879 H 6290.7 6.26671 -8.0846 0
M  V30 45880 H 6289.07 6.29101 -7.32804 0
M  V30 45881 H 6291.71 5.84315 -2.47318 0
M  V30 45882 P 6293.57 7.39546 -4.75277 0
M  V30 45883 O 6294.99 7.84798 -5.01039 0
M  V30 45884 O 6293.21 5.9812 -5.08098 0
M  V30 45885 O 6293.24 7.57503 -3.1866 0
M  V30 45886 C 6293.08 8.97357 -2.74833 0
M  V30 45887 C 6293.62 9.07548 -1.32709 0
M  V30 45888 O 6292.57 8.62072 -0.606159 0
M  V30 45889 C 6294.84 8.25383 -0.938334 0
M  V30 45890 O 6295.58 8.74577 0.146954 0
M  V30 45891 C 6294.17 6.8802 -0.712559 0
M  V30 45892 O 6294.97 6.1189 0.194655 0
M  V30 45893 C 6292.83 7.27966 -0.139777 0
M  V30 45894 H 6292.87 7.25354 0.961601 0
M  V30 45895 H 6294.05 6.32557 -1.65702 0
M  V30 45896 H 6295.53 8.19355 -1.79097 0
M  V30 45897 H 6293.84 10.1294 -1.10029 0
M  V30 45898 H 6293.65 9.64276 -3.41316 0
M  V30 45899 H 6292.02 9.25417 -2.76357 0
M  V30 45900 H 6294.66 6.25267 1.07847 0
M  V30 45901 P 6296.52 8.791 -2.18666e-10 0
M  V30 45902 O 6297.94 9.31096 0.027933 0
M  V30 45903 O 6296.16 7.77869 -1.04071 0
M  V30 45904 O 6296.19 8.09533 1.41463 0
M  V30 45905 C 6296.03 9.0349 2.53943 0
M  V30 45906 C 6296.57 8.35226 3.79016 0
M  V30 45907 O 6295.52 7.57992 4.15078 0
M  V30 45908 C 6297.79 7.45087 3.67298 0
M  V30 45909 O 6298.53 7.27796 4.85194 0
M  V30 45910 C 6297.12 6.17323 3.12027 0
M  V30 45911 O 6297.92 5.04231 3.47188 0
M  V30 45912 C 6295.79 6.19961 3.81809 0
M  V30 45913 H 6295.82 5.58218 4.73051 0
M  V30 45914 H 6297 6.21726 2.02589 0
M  V30 45915 H 6298.48 7.86112 2.9231 0
M  V30 45916 H 6296.79 9.11627 4.55076 0
M  V30 45917 H 6296.6 9.9573 2.34194 0
M  V30 45918 H 6294.97 9.2792 2.67832 0
M  V30 45919 H 6297.61 4.67702 4.28772 0
M  V30 45920 P 6299.47 7.39546 4.75277 0
M  V30 45921 O 6300.89 7.81777 5.05738 0
M  V30 45922 O 6299.11 7.1065 3.32998 0
M  V30 45923 O 6299.14 6.04542 5.56673 0
M  V30 45924 C 6298.98 6.22772 7.02095 0
M  V30 45925 C 6299.52 4.97725 7.70406 0
M  V30 45926 O 6298.47 4.13256 7.58987 0
M  V30 45927 C 6300.74 4.28231 7.11815 0
M  V30 45928 O 6301.48 3.49945 8.01648 0
M  V30 45929 C 6300.07 3.5063 5.96244 0
M  V30 45930 O 6300.87 2.36482 5.64681 0
M  V30 45931 C 6298.74 3.15122 6.56374 0
M  V30 45932 H 6298.77 2.13853 6.99751 0
M  V30 45933 H 6299.95 4.13501 5.06559 0
M  V30 45934 H 6301.43 5.03285 6.70911 0
M  V30 45935 H 6299.74 5.20877 8.75697 0
M  V30 45936 H 6299.55 7.11046 7.35349 0
M  V30 45937 H 6297.92 6.35815 7.26986 0
M  V30 45938 H 6300.56 1.61644 6.13565 0
M  V30 45939 P 6302.42 3.65191 7.99657 0
M  V30 45940 O 6303.84 3.8425 8.48115 0
M  V30 45941 O 6302.06 4.17805 6.64342 0
M  V30 45942 O 6302.09 2.07613 7.95143 0
M  V30 45943 C 6301.93 1.44328 9.27336 0
M  V30 45944 C 6302.47 0.0220036 9.17197 0
M  V30 45945 O 6301.42 -0.626867 8.61923 0
M  V30 45946 C 6303.69 -0.24586 8.30336 0
M  V30 45947 O 6304.43 -1.39011 8.63583 0
M  V30 45948 C 6303.02 -0.273849 6.91158 0
M  V30 45949 O 6303.82 -1.06348 6.02892 0
M  V30 45950 C 6301.69 -0.897649 7.22545 0
M  V30 45951 H 6301.72 -1.9841 7.04286 0
M  V30 45952 H 6302.9 0.739928 6.497 0
M  V30 45953 H 6304.39 0.60668 8.36503 0
M  V30 45954 H 6302.69 -0.352479 10.1829 0
M  V30 45955 H 6302.5 2.00611 10.0304 0
M  V30 45956 H 6300.87 1.41843 9.55327 0
M  V30 45957 H 6303.51 -1.95734 6.03555 0
M  V30 45958 P 6305.37 -1.25109 8.70152 0
M  V30 45959 O 6306.79 -1.35274 9.21221 0
M  V30 45960 O 6305.01 -0.0769065 7.84762 0
M  V30 45961 O 6305.05 -2.55232 7.81161 0
M  V30 45962 C 6304.89 -3.79939 8.58154 0
M  V30 45963 C 6305.43 -4.94023 7.72785 0
M  V30 45964 O 6304.37 -5.18726 6.91205 0
M  V30 45965 C 6306.64 -4.69597 6.85231 0
M  V30 45966 O 6307.38 -5.83832 6.51337 0
M  V30 45967 C 6305.97 -3.96706 5.66633 0
M  V30 45968 O 6306.77 -4.15414 4.49689 0
M  V30 45969 C 6304.64 -4.66153 5.59313 0
M  V30 45970 H 6304.67 -5.47679 4.85214 0
M  V30 45971 H 6305.85 -2.89008 5.86566 0
M  V30 45972 H 6307.34 -4.0121 7.36511 0
M  V30 45973 H 6305.64 -5.80182 8.37584 0
M  V30 45974 H 6305.45 -3.73517 9.52265 0
M  V30 45975 H 6303.82 -3.97163 8.80359 0
M  V30 45976 H 6306.46 -4.90969 4.01921 0
M  V30 45977 P 6308.32 -5.75688 6.64379 0
M  V30 45978 O 6309.74 -6.11849 7.01846 0
M  V30 45979 O 6307.96 -4.30744 6.56026 0
M  V30 45980 O 6308 -6.37042 5.19165 0
M  V30 45981 C 6307.84 -7.83578 5.16515 0
M  V30 45982 C 6308.38 -8.33398 3.83019 0
M  V30 45983 O 6307.32 -8.10074 3.01034 0
M  V30 45984 C 6309.59 -7.65514 3.2257 0
M  V30 45985 O 6310.33 -8.4329 2.32297 0
M  V30 45986 C 6308.92 -6.40075 2.62207 0
M  V30 45987 O 6309.72 -5.92589 1.53712 0
M  V30 45988 C 6307.59 -6.9454 2.18503 0
M  V30 45989 H 6307.62 -7.23063 1.12091 0
M  V30 45990 H 6308.8 -5.6025 3.37201 0
M  V30 45991 H 6310.29 -7.35707 4.02681 0
M  V30 45992 H 6308.59 -9.40912 3.9095 0
M  V30 45993 H 6308.4 -8.29056 5.99158 0
M  V30 45994 H 6306.77 -8.10073 5.25882 0
M  V30 45995 H 6309.41 -6.30324 0.726794 0
M  V30 45996 P 6311.27 -8.4349 2.47671 0
M  V30 45997 O 6312.69 -8.94263 2.59668 0
M  V30 45998 O 6310.91 -7.1704 3.19006 0
M  V30 45999 O 6310.95 -8.16596 0.923387 0
M  V30 46000 C 6310.79 -9.38537 0.108869 0
M  V30 46001 C 6311.33 -9.08175 -1.28353 0
M  V30 46002 O 6310.27 -8.44131 -1.84692 0
M  V30 46003 C 6312.54 -8.18386 -1.42505 0
M  V30 46004 O 6313.28 -8.3501 -2.60497 0
M  V30 46005 C 6311.88 -6.80225 -1.25468 0
M  V30 46006 O 6312.67 -5.81716 -1.90454 0
M  V30 46007 C 6310.54 -7.02416 -1.9168 0
M  V30 46008 N 6309.5 -6.31033 -1.20314 0
M  V30 46009 C 6309.66 -5.98817 0.0994088 0
M  V30 46010 N 6308.64 -5.35403 0.621694 0
M  V30 46011 C 6307.75 -5.25212 -0.43376 0
M  V30 46012 C 6306.49 -4.64602 -0.519722 0
M  V30 46013 N 6305.89 -4.01457 0.519136 0
M  V30 46014 N 6305.92 -4.7568 -1.76013 0
M  V30 46015 C 6306.52 -5.3653 -2.83017 0
M  V30 46016 N 6307.7 -5.93676 -2.79782 0
M  V30 46017 C 6308.27 -5.84061 -1.56249 0
M  V30 46018 H 6310.57 -6.68789 -2.9658 0
M  V30 46019 H 6311.75 -6.53498 -0.198729 0
M  V30 46020 H 6313.24 -8.36622 -0.589963 0
M  V30 46021 H 6311.54 -10.0273 -1.8081 0
M  V30 46022 H 6311.35 -10.2138 0.558219 0
M  V30 46023 H 6309.72 -9.6579 0.0444202 0
M  V30 46024 H 6305.99 -5.37113 -3.77321 0
M  V30 46025 H 6310.56 -6.23209 0.660562 0
M  V30 46026 H 6304.96 -3.58834 0.394862 0
M  V30 46027 H 6306.36 -3.96059 1.43048 0
M  V30 46028 H 6312.36 -5.69466 -2.79593 0
M  V30 46029 P 6314.22 -8.4349 -2.47671 0
M  V30 46030 O 6315.64 -8.92593 -2.65 0
M  V30 46031 O 6313.86 -7.7568 -1.19296 0
M  V30 46032 O 6313.9 -7.36886 -3.63805 0
M  V30 46033 C 6313.74 -7.95349 -4.982 0
M  V30 46034 C 6314.28 -6.94612 -5.98974 0
M  V30 46035 O 6313.22 -6.10347 -6.11815 0
M  V30 46036 C 6315.49 -6.11426 -5.62335 0
M  V30 46037 O 6316.23 -5.6162 -6.70584 0
M  V30 46038 C 6314.83 -5.04409 -4.73308 0
M  V30 46039 O 6315.62 -3.85992 -4.75183 0
M  V30 46040 C 6313.49 -4.8728 -5.41006 0
M  V30 46041 H 6313.52 -4.02333 -6.11157 0
M  V30 46042 H 6314.7 -5.39466 -3.69543 0
M  V30 46043 H 6316.19 -6.71916 -5.01943 0
M  V30 46044 H 6314.49 -7.4649 -6.93477 0
M  V30 46045 H 6314.3 -8.89416 -5.05237 0
M  V30 46046 H 6312.67 -8.14876 -5.18409 0
M  V30 46047 H 6315.31 -3.27957 -5.4317 0
M  V30 46048 P 6317.17 -5.75688 -6.64379 0
M  V30 46049 O 6318.59 -6.07627 -7.05504 0
M  V30 46050 O 6316.81 -5.88047 -5.19722 0
M  V30 46051 O 6316.85 -4.2322 -7.04443 0
M  V30 46052 C 6316.69 -3.99743 -8.4911 0
M  V30 46053 C 6317.23 -2.60516 -8.79425 0
M  V30 46054 O 6316.17 -1.82684 -8.4467 0
M  V30 46055 C 6318.45 -2.10343 -8.03628 0
M  V30 46056 O 6319.18 -1.09919 -8.67766 0
M  V30 46057 C 6317.78 -1.68446 -6.70876 0
M  V30 46058 O 6318.58 -0.678137 -6.08433 0
M  V30 46059 C 6316.44 -1.17436 -7.18567 0
M  V30 46060 H 6316.47 -0.0804732 -7.31656 0
M  V30 46061 H 6317.65 -2.54037 -6.02537 0
M  V30 46062 H 6319.14 -2.93881 -7.85526 0
M  V30 46063 H 6317.44 -2.53065 -9.86973 0
M  V30 46064 H 6317.25 -4.75072 -9.05887 0
M  V30 46065 H 6315.62 -4.05244 -8.76668 0
M  V30 46066 H 6318.26 0.177647 -6.34251 0
M  V30 46067 P 6320.12 -1.25109 -8.70152 0
M  V30 46068 O 6321.54 -1.29744 -9.22016 0
M  V30 46069 O 6319.76 -2.13714 -7.55141 0
M  V30 46070 O 6319.8 0.248149 -8.21425 0
M  V30 46071 C 6319.64 1.22779 -9.30434 0
M  V30 46072 C 6320.18 2.56293 -8.80664 0
M  V30 46073 O 6319.12 3.02979 -8.09349 0
M  V30 46074 C 6321.4 2.57523 -7.89775 0
M  V30 46075 O 6322.13 3.7668 -7.89438 0
M  V30 46076 C 6320.73 2.20997 -6.55446 0
M  V30 46077 O 6321.53 2.71895 -5.48509 0
M  V30 46078 C 6319.39 2.89693 -6.67988 0
M  V30 46079 H 6319.42 3.88793 -6.19859 0
M  V30 46080 H 6320.6 1.12046 -6.44229 0
M  V30 46081 H 6322.09 1.7746 -8.19711 0
M  V30 46082 H 6320.39 3.20706 -9.67112 0
M  V30 46083 H 6320.2 0.901032 -10.1892 0
M  V30 46084 H 6318.57 1.33049 -9.56592 0
M  V30 46085 H 6321.21 3.57847 -5.23962 0
M  V30 46086 P 6323.07 3.65191 -7.99657 0
M  V30 46087 O 6324.49 3.89332 -8.45794 0
M  V30 46088 O 6322.71 2.28472 -7.50807 0
M  V30 46089 O 6322.75 4.64972 -6.77611 0
M  V30 46090 C 6322.59 6.06319 -7.16352 0
M  V30 46091 C 6323.13 6.91731 -6.02299 0
M  V30 46092 O 6322.07 6.92449 -5.17064 0
M  V30 46093 C 6324.35 6.43627 -5.25174 0
M  V30 46094 O 6325.08 7.43686 -4.60469 0
M  V30 46095 C 6323.68 5.40275 -4.31916 0
M  V30 46096 O 6324.48 5.25279 -3.14438 0
M  V30 46097 C 6322.34 6.04847 -4.05327 0
M  V30 46098 H 6322.37 6.62195 -3.11261 0
M  V30 46099 H 6323.56 4.42556 -4.81383 0
M  V30 46100 H 6325.04 5.92458 -5.93643 0
M  V30 46101 H 6323.35 7.92655 -6.402 0
M  V30 46102 H 6323.16 6.26671 -8.0846 0
M  V30 46103 H 6321.53 6.29101 -7.32804 0
M  V30 46104 H 6324.16 5.84315 -2.47318 0
M  V30 46105 P 6326.02 7.39546 -4.75277 0
M  V30 46106 O 6327.44 7.84966 -5.01146 0
M  V30 46107 O 6325.66 5.9812 -5.08098 0
M  V30 46108 O 6325.7 7.57503 -3.1866 0
M  V30 46109 C 6325.54 8.97357 -2.74833 0
M  V30 46110 C 6326.08 9.0745 -1.32694 0
M  V30 46111 O 6325.02 8.62072 -0.606159 0
M  V30 46112 C 6327.3 8.25383 -0.938334 0
M  V30 46113 O 6328.04 8.74577 0.146954 0
M  V30 46114 C 6326.63 6.8802 -0.712559 0
M  V30 46115 O 6327.43 6.11791 0.194623 0
M  V30 46116 C 6325.29 7.27966 -0.139777 0
M  V30 46117 N 6324.25 6.39368 -0.623421 0
M  V30 46118 C 6324.31 5.90299 -1.85969 0
M  V30 46119 N 6323.27 5.10919 -2.1133 0
M  V30 46120 C 6322.53 5.14646 -1.0015 0
M  V30 46121 C 6321.23 4.60057 -0.729219 0
M  V30 46122 O 6320.49 3.93476 -1.47746 0
M  V30 46123 N 6320.8 4.88302 0.523505 0
M  V30 46124 C 6321.54 5.63646 1.46207 0
M  V30 46125 N 6320.95 5.78186 2.69239 0
M  V30 46126 N 6322.7 6.19285 1.21544 0
M  V30 46127 C 6323.15 5.93392 -0.0308487 0
M  V30 46128 H 6325.32 7.25354 0.961601 0
M  V30 46129 H 6326.51 6.3246 -1.65676 0
M  V30 46130 H 6327.99 8.19533 -1.78278 0
M  V30 46131 H 6326.3 10.1294 -1.10029 0
M  V30 46132 H 6326.11 9.64276 -3.41316 0
M  V30 46133 H 6324.48 9.25417 -2.76357 0
M  V30 46134 H 6319.9 4.53993 0.806451 0
M  V30 46135 H 6325.11 6.11865 -2.57394 0
M  V30 46136 H 6320.04 5.34046 2.87467 0
M  V30 46137 H 6321.41 6.33391 3.42578 0
M  V30 46138 H 6327.12 6.25169 1.0783 0
M  V30 46139 P 6328.97 8.791 -2.12859e-10 0
M  V30 46140 O 6330.39 9.31096 0.027933 0
M  V30 46141 O 6328.61 7.77869 -1.04071 0
M  V30 46142 O 6328.65 8.09533 1.41463 0
M  V30 46143 C 6328.49 9.0349 2.53943 0
M  V30 46144 C 6329.03 8.35226 3.79016 0
M  V30 46145 O 6327.97 7.57992 4.15078 0
M  V30 46146 C 6330.25 7.45087 3.67298 0
M  V30 46147 O 6330.99 7.27796 4.85194 0
M  V30 46148 C 6329.58 6.17323 3.12027 0
M  V30 46149 O 6330.38 5.04231 3.47188 0
M  V30 46150 C 6328.24 6.19961 3.81809 0
M  V30 46151 H 6328.27 5.58218 4.73051 0
M  V30 46152 H 6329.46 6.21726 2.02589 0
M  V30 46153 H 6330.94 7.86112 2.9231 0
M  V30 46154 H 6329.25 9.11627 4.55076 0
M  V30 46155 H 6329.06 9.9573 2.34194 0
M  V30 46156 H 6327.43 9.2792 2.67832 0
M  V30 46157 H 6330.07 4.67702 4.28772 0
M  V30 46158 P 6331.92 7.39546 4.75277 0
M  V30 46159 O 6333.35 7.81777 5.05738 0
M  V30 46160 O 6331.56 7.1065 3.32998 0
M  V30 46161 O 6331.6 6.04542 5.56673 0
M  V30 46162 C 6331.44 6.22772 7.02095 0
M  V30 46163 C 6331.98 4.97725 7.70406 0
M  V30 46164 O 6330.92 4.13256 7.58987 0
M  V30 46165 C 6333.2 4.28231 7.11815 0
M  V30 46166 O 6333.94 3.49945 8.01648 0
M  V30 46167 C 6332.53 3.5063 5.96244 0
M  V30 46168 O 6333.33 2.36482 5.64681 0
M  V30 46169 C 6331.19 3.15122 6.56374 0
M  V30 46170 H 6331.22 2.13853 6.99751 0
M  V30 46171 H 6332.41 4.13501 5.06559 0
M  V30 46172 H 6333.89 5.03285 6.70911 0
M  V30 46173 H 6332.2 5.20877 8.75697 0
M  V30 46174 H 6332.01 7.11046 7.35349 0
M  V30 46175 H 6330.38 6.35815 7.26986 0
M  V30 46176 H 6333.02 1.61644 6.13565 0
M  V30 46177 P 6334.87 3.65191 7.99657 0
M  V30 46178 O 6336.3 3.8425 8.48115 0
M  V30 46179 O 6334.51 4.17805 6.64342 0
M  V30 46180 O 6334.55 2.07613 7.95143 0
M  V30 46181 C 6334.39 1.44328 9.27336 0
M  V30 46182 C 6334.93 0.0220036 9.17197 0
M  V30 46183 O 6333.87 -0.626867 8.61923 0
M  V30 46184 C 6336.15 -0.24586 8.30336 0
M  V30 46185 O 6336.89 -1.39011 8.63583 0
M  V30 46186 C 6335.48 -0.273849 6.91158 0
M  V30 46187 O 6336.28 -1.06348 6.02892 0
M  V30 46188 C 6334.14 -0.897649 7.22545 0
M  V30 46189 H 6334.17 -1.9841 7.04286 0
M  V30 46190 H 6335.36 0.739928 6.497 0
M  V30 46191 H 6336.84 0.60668 8.36503 0
M  V30 46192 H 6335.15 -0.352479 10.1829 0
M  V30 46193 H 6334.96 2.00611 10.0304 0
M  V30 46194 H 6333.33 1.41843 9.55327 0
M  V30 46195 H 6335.97 -1.95734 6.03555 0
M  V30 46196 P 6337.82 -1.25109 8.70152 0
M  V30 46197 O 6339.25 -1.35288 9.2132 0
M  V30 46198 O 6337.46 -0.0769065 7.84762 0
M  V30 46199 O 6337.5 -2.55232 7.81161 0
M  V30 46200 C 6337.34 -3.79979 8.58246 0
M  V30 46201 C 6337.88 -4.94023 7.72785 0
M  V30 46202 O 6336.83 -5.18666 6.91125 0
M  V30 46203 C 6339.1 -4.69597 6.85231 0
M  V30 46204 O 6339.84 -5.83832 6.51337 0
M  V30 46205 C 6338.43 -3.96706 5.66633 0
M  V30 46206 O 6339.23 -4.14896 4.5003 0
M  V30 46207 C 6337.09 -4.66153 5.59313 0
M  V30 46208 N 6336.05 -3.71582 5.24027 0
M  V30 46209 C 6336.22 -2.39715 5.48833 0
M  V30 46210 N 6335.19 -1.65863 5.12845 0
M  V30 46211 C 6334.31 -2.57637 4.5973 0
M  V30 46212 C 6333.04 -2.40278 4.01027 0
M  V30 46213 N 6332.44 -1.19549 3.86744 0
M  V30 46214 N 6332.48 -3.57711 3.59575 0
M  V30 46215 C 6333.08 -4.80324 3.70476 0
M  V30 46216 N 6334.25 -5.01121 4.23801 0
M  V30 46217 C 6334.83 -3.84757 4.66372 0
M  V30 46218 H 6337.13 -5.47604 4.85148 0
M  V30 46219 H 6338.31 -2.8955 5.86187 0
M  V30 46220 H 6339.79 -4.0121 7.36511 0
M  V30 46221 H 6338.1 -5.81019 8.37003 0
M  V30 46222 H 6337.91 -3.73517 9.52265 0
M  V30 46223 H 6336.28 -3.97163 8.80359 0
M  V30 46224 H 6332.54 -5.66348 3.3183 0
M  V30 46225 H 6337.12 -1.98804 5.94332 0
M  V30 46226 H 6331.51 -1.13147 3.4281 0
M  V30 46227 H 6332.92 -0.344074 4.19692 0
M  V30 46228 H 6338.92 -4.90891 4.01857 0
M  V30 46229 P 6340.77 -5.75688 6.64379 0
M  V30 46230 O 6342.2 -6.11849 7.01846 0
M  V30 46231 O 6340.41 -4.30744 6.56026 0
M  V30 46232 O 6340.45 -6.37042 5.19165 0
M  V30 46233 C 6340.29 -7.83578 5.16515 0
M  V30 46234 C 6340.83 -8.33398 3.83019 0
M  V30 46235 O 6339.78 -8.10074 3.01034 0
M  V30 46236 C 6342.05 -7.65514 3.2257 0
M  V30 46237 O 6342.79 -8.4329 2.32297 0
M  V30 46238 C 6341.38 -6.40075 2.62207 0
M  V30 46239 O 6342.18 -5.92589 1.53712 0
M  V30 46240 C 6340.04 -6.9454 2.18503 0
M  V30 46241 H 6340.08 -7.23063 1.12091 0
M  V30 46242 H 6341.26 -5.6025 3.37201 0
M  V30 46243 H 6342.74 -7.35707 4.02681 0
M  V30 46244 H 6341.05 -9.40912 3.9095 0
M  V30 46245 H 6340.86 -8.29056 5.99158 0
M  V30 46246 H 6339.23 -8.10073 5.25882 0
M  V30 46247 H 6341.87 -6.30324 0.726794 0
M  V30 46248 P 6343.73 -8.4349 2.47671 0
M  V30 46249 O 6345.15 -8.94167 2.5964 0
M  V30 46250 O 6343.37 -7.1704 3.19006 0
M  V30 46251 O 6343.4 -8.16596 0.923387 0
M  V30 46252 C 6343.24 -9.38437 0.108857 0
M  V30 46253 C 6343.78 -9.08175 -1.28353 0
M  V30 46254 O 6342.73 -8.44229 -1.84713 0
M  V30 46255 C 6345 -8.18386 -1.42505 0
M  V30 46256 O 6345.74 -8.3501 -2.60497 0
M  V30 46257 C 6344.33 -6.80225 -1.25468 0
M  V30 46258 O 6345.13 -5.81621 -1.91066 0
M  V30 46259 C 6342.99 -7.02416 -1.9168 0
M  V30 46260 H 6343.03 -6.6888 -2.96621 0
M  V30 46261 H 6344.21 -6.53617 -0.192223 0
M  V30 46262 H 6345.69 -8.36622 -0.589963 0
M  V30 46263 H 6344 -10.0291 -1.79807 0
M  V30 46264 H 6343.81 -10.2138 0.558219 0
M  V30 46265 H 6342.18 -9.6579 0.0444202 0
M  V30 46266 H 6344.82 -5.69556 -2.79637 0
M  V30 46267 P 6346.68 -8.4349 -2.47671 0
M  V30 46268 O 6348.1 -8.92593 -2.65 0
M  V30 46269 O 6346.32 -7.7568 -1.19296 0
M  V30 46270 O 6346.35 -7.36886 -3.63805 0
M  V30 46271 C 6346.19 -7.95349 -4.982 0
M  V30 46272 C 6346.73 -6.94612 -5.98974 0
M  V30 46273 O 6345.68 -6.10347 -6.11815 0
M  V30 46274 C 6347.95 -6.11426 -5.62335 0
M  V30 46275 O 6348.69 -5.6162 -6.70584 0
M  V30 46276 C 6347.28 -5.04409 -4.73308 0
M  V30 46277 O 6348.08 -3.85992 -4.75183 0
M  V30 46278 C 6345.95 -4.8728 -5.41006 0
M  V30 46279 H 6345.98 -4.02333 -6.11157 0
M  V30 46280 H 6347.16 -5.39466 -3.69543 0
M  V30 46281 H 6348.64 -6.71916 -5.01943 0
M  V30 46282 H 6346.95 -7.4649 -6.93477 0
M  V30 46283 H 6346.76 -8.89416 -5.05237 0
M  V30 46284 H 6345.13 -8.14876 -5.18409 0
M  V30 46285 H 6347.77 -3.27957 -5.4317 0
M  V30 46286 P 6349.63 -5.75688 -6.64379 0
M  V30 46287 O 6351.05 -6.07627 -7.05504 0
M  V30 46288 O 6349.27 -5.88047 -5.19722 0
M  V30 46289 O 6349.3 -4.2322 -7.04443 0
M  V30 46290 C 6349.14 -3.99743 -8.4911 0
M  V30 46291 C 6349.68 -2.60516 -8.79425 0
M  V30 46292 O 6348.63 -1.82684 -8.4467 0
M  V30 46293 C 6350.9 -2.10343 -8.03628 0
M  V30 46294 O 6351.64 -1.09919 -8.67766 0
M  V30 46295 C 6350.23 -1.68446 -6.70876 0
M  V30 46296 O 6351.03 -0.678137 -6.08433 0
M  V30 46297 C 6348.9 -1.17436 -7.18567 0
M  V30 46298 H 6348.93 -0.0804732 -7.31656 0
M  V30 46299 H 6350.11 -2.54037 -6.02537 0
M  V30 46300 H 6351.59 -2.93881 -7.85526 0
M  V30 46301 H 6349.9 -2.53065 -9.86973 0
M  V30 46302 H 6349.71 -4.75072 -9.05887 0
M  V30 46303 H 6348.08 -4.05244 -8.76668 0
M  V30 46304 H 6350.72 0.177647 -6.34251 0
M  V30 46305 P 6352.58 -1.25109 -8.70152 0
M  V30 46306 O 6354 -1.29744 -9.22016 0
M  V30 46307 O 6352.22 -2.13714 -7.55141 0
M  V30 46308 O 6352.25 0.248149 -8.21425 0
M  V30 46309 C 6352.09 1.22779 -9.30434 0
M  V30 46310 C 6352.63 2.56293 -8.80664 0
M  V30 46311 O 6351.58 3.02979 -8.09349 0
M  V30 46312 C 6353.85 2.57523 -7.89775 0
M  V30 46313 O 6354.59 3.7668 -7.89438 0
M  V30 46314 C 6353.18 2.20997 -6.55446 0
M  V30 46315 O 6353.98 2.71895 -5.48509 0
M  V30 46316 C 6351.85 2.89693 -6.67988 0
M  V30 46317 H 6351.88 3.88793 -6.19859 0
M  V30 46318 H 6353.06 1.12046 -6.44229 0
M  V30 46319 H 6354.55 1.7746 -8.19711 0
M  V30 46320 H 6352.85 3.20706 -9.67112 0
M  V30 46321 H 6352.66 0.901032 -10.1892 0
M  V30 46322 H 6351.03 1.33049 -9.56592 0
M  V30 46323 H 6353.67 3.57847 -5.23962 0
M  V30 46324 P 6355.53 3.65191 -7.99657 0
M  V30 46325 O 6356.95 3.89332 -8.45794 0
M  V30 46326 O 6355.17 2.28472 -7.50807 0
M  V30 46327 O 6355.2 4.64972 -6.77611 0
M  V30 46328 C 6355.04 6.06319 -7.16352 0
M  V30 46329 C 6355.58 6.91731 -6.02299 0
M  V30 46330 O 6354.53 6.92449 -5.17064 0
M  V30 46331 C 6356.8 6.43627 -5.25174 0
M  V30 46332 O 6357.54 7.43686 -4.60469 0
M  V30 46333 C 6356.13 5.40275 -4.31916 0
M  V30 46334 O 6356.93 5.25279 -3.14438 0
M  V30 46335 C 6354.8 6.04847 -4.05327 0
M  V30 46336 H 6354.83 6.62195 -3.11261 0
M  V30 46337 H 6356.01 4.42556 -4.81383 0
M  V30 46338 H 6357.5 5.92458 -5.93643 0
M  V30 46339 H 6355.8 7.92655 -6.402 0
M  V30 46340 H 6355.61 6.26671 -8.0846 0
M  V30 46341 H 6353.98 6.29101 -7.32804 0
M  V30 46342 H 6356.62 5.84315 -2.47318 0
M  V30 46343 P 6358.48 7.39546 -4.75277 0
M  V30 46344 O 6359.9 7.84798 -5.01039 0
M  V30 46345 O 6358.12 5.9812 -5.08098 0
M  V30 46346 O 6358.16 7.57503 -3.1866 0
M  V30 46347 C 6358 8.97357 -2.74833 0
M  V30 46348 C 6358.54 9.07548 -1.32709 0
M  V30 46349 O 6357.48 8.62072 -0.606159 0
M  V30 46350 C 6359.75 8.25383 -0.938334 0
M  V30 46351 O 6360.49 8.74577 0.146954 0
M  V30 46352 C 6359.08 6.8802 -0.712559 0
M  V30 46353 O 6359.88 6.1189 0.194655 0
M  V30 46354 C 6357.75 7.27966 -0.139777 0
M  V30 46355 H 6357.78 7.25354 0.961601 0
M  V30 46356 H 6358.96 6.32557 -1.65702 0
M  V30 46357 H 6360.45 8.19355 -1.79097 0
M  V30 46358 H 6358.75 10.1294 -1.10029 0
M  V30 46359 H 6358.56 9.64276 -3.41316 0
M  V30 46360 H 6356.93 9.25417 -2.76357 0
M  V30 46361 H 6359.57 6.25267 1.07847 0
M  V30 46362 P 6361.43 8.791 -2.07052e-10 0
M  V30 46363 O 6362.85 9.31096 0.027933 0
M  V30 46364 O 6361.07 7.77869 -1.04071 0
M  V30 46365 O 6361.11 8.09533 1.41463 0
M  V30 46366 C 6360.95 9.0349 2.53943 0
M  V30 46367 C 6361.49 8.35226 3.79016 0
M  V30 46368 O 6360.43 7.57992 4.15078 0
M  V30 46369 C 6362.7 7.45087 3.67298 0
M  V30 46370 O 6363.44 7.27796 4.85194 0
M  V30 46371 C 6362.03 6.17323 3.12027 0
M  V30 46372 O 6362.83 5.04231 3.47188 0
M  V30 46373 C 6360.7 6.19961 3.81809 0
M  V30 46374 H 6360.73 5.58218 4.73051 0
M  V30 46375 H 6361.91 6.21726 2.02589 0
M  V30 46376 H 6363.4 7.86112 2.9231 0
M  V30 46377 H 6361.7 9.11627 4.55076 0
M  V30 46378 H 6361.51 9.9573 2.34194 0
M  V30 46379 H 6359.88 9.2792 2.67832 0
M  V30 46380 H 6362.52 4.67702 4.28772 0
M  V30 46381 P 6364.38 7.39546 4.75277 0
M  V30 46382 O 6365.8 7.81777 5.05738 0
M  V30 46383 O 6364.02 7.1065 3.32998 0
M  V30 46384 O 6364.06 6.04542 5.56673 0
M  V30 46385 C 6363.9 6.22772 7.02095 0
M  V30 46386 C 6364.44 4.97725 7.70406 0
M  V30 46387 O 6363.38 4.13256 7.58987 0
M  V30 46388 C 6365.65 4.28231 7.11815 0
M  V30 46389 O 6366.39 3.49945 8.01648 0
M  V30 46390 C 6364.99 3.5063 5.96244 0
M  V30 46391 O 6365.78 2.36482 5.64681 0
M  V30 46392 C 6363.65 3.15122 6.56374 0
M  V30 46393 H 6363.68 2.13853 6.99751 0
M  V30 46394 H 6364.86 4.13501 5.06559 0
M  V30 46395 H 6366.35 5.03285 6.70911 0
M  V30 46396 H 6364.65 5.20877 8.75697 0
M  V30 46397 H 6364.46 7.11046 7.35349 0
M  V30 46398 H 6362.83 6.35815 7.26986 0
M  V30 46399 H 6365.47 1.61644 6.13565 0
M  V30 46400 P 6367.33 3.65191 7.99657 0
M  V30 46401 O 6368.75 3.8425 8.48115 0
M  V30 46402 O 6366.97 4.17805 6.64342 0
M  V30 46403 O 6367.01 2.07613 7.95143 0
M  V30 46404 C 6366.85 1.44328 9.27336 0
M  V30 46405 C 6367.39 0.0220036 9.17197 0
M  V30 46406 O 6366.33 -0.626867 8.61923 0
M  V30 46407 C 6368.61 -0.24586 8.30336 0
M  V30 46408 O 6369.34 -1.39011 8.63583 0
M  V30 46409 C 6367.94 -0.273849 6.91158 0
M  V30 46410 O 6368.74 -1.06348 6.02892 0
M  V30 46411 C 6366.6 -0.897649 7.22545 0
M  V30 46412 H 6366.63 -1.9841 7.04286 0
M  V30 46413 H 6367.81 0.739928 6.497 0
M  V30 46414 H 6369.3 0.60668 8.36503 0
M  V30 46415 H 6367.6 -0.352479 10.1829 0
M  V30 46416 H 6367.41 2.00611 10.0304 0
M  V30 46417 H 6365.78 1.41843 9.55327 0
M  V30 46418 H 6368.42 -1.95734 6.03555 0
M  V30 46419 P 6370.28 -1.25109 8.70152 0
M  V30 46420 O 6371.7 -1.35274 9.21221 0
M  V30 46421 O 6369.92 -0.0769065 7.84762 0
M  V30 46422 O 6369.96 -2.55232 7.81161 0
M  V30 46423 C 6369.8 -3.79939 8.58154 0
M  V30 46424 C 6370.34 -4.94023 7.72785 0
M  V30 46425 O 6369.28 -5.18726 6.91205 0
M  V30 46426 C 6371.56 -4.69597 6.85231 0
M  V30 46427 O 6372.29 -5.83832 6.51337 0
M  V30 46428 C 6370.89 -3.96706 5.66633 0
M  V30 46429 O 6371.69 -4.15414 4.49689 0
M  V30 46430 C 6369.55 -4.66153 5.59313 0
M  V30 46431 H 6369.58 -5.47679 4.85214 0
M  V30 46432 H 6370.76 -2.89008 5.86566 0
M  V30 46433 H 6372.25 -4.0121 7.36511 0
M  V30 46434 H 6370.55 -5.80182 8.37584 0
M  V30 46435 H 6370.36 -3.73517 9.52265 0
M  V30 46436 H 6368.73 -3.97163 8.80359 0
M  V30 46437 H 6371.37 -4.90969 4.01921 0
M  V30 46438 P 6373.23 -5.75688 6.64379 0
M  V30 46439 O 6374.63 -6.11991 7.09136 0
M  V30 46440 O 6372.85 -4.30899 6.62018 0
M  V30 46441 O 6372.91 -6.36965 5.19102 0
M  V30 46442 C 6372.75 -7.83578 5.16515 0
M  V30 46443 C 6373.29 -8.33307 3.82977 0
M  V30 46444 O 6372.23 -8.0998 3.00999 0
M  V30 46445 C 6374.51 -7.65514 3.2257 0
M  V30 46446 O 6375.24 -8.4329 2.32297 0
M  V30 46447 C 6373.84 -6.40075 2.62207 0
M  V30 46448 O 6374.64 -5.92492 1.53687 0
M  V30 46449 C 6372.5 -6.9454 2.18503 0
M  V30 46450 N 6371.46 -5.95905 2.39948 0
M  V30 46451 C 6370.42 -5.89764 1.49837 0
M  V30 46452 O 6370.46 -6.64088 0.490975 0
M  V30 46453 N 6369.41 -5.02821 1.70992 0
M  V30 46454 C 6369.46 -4.21498 2.77236 0
M  V30 46455 N 6368.45 -3.37475 2.96465 0
M  V30 46456 C 6370.55 -4.23389 3.68205 0
M  V30 46457 C 6371.52 -5.12792 3.46171 0
M  V30 46458 H 6372.53 -7.22964 1.12076 0
M  V30 46459 H 6373.72 -5.60502 3.36589 0
M  V30 46460 H 6375.2 -7.36197 4.01993 0
M  V30 46461 H 6373.51 -9.41302 3.90009 0
M  V30 46462 H 6373.31 -8.29056 5.99158 0
M  V30 46463 H 6371.68 -8.09989 5.25828 0
M  V30 46464 H 6370.6 -3.54747 4.52399 0
M  V30 46465 H 6372.37 -5.18551 4.1489 0
M  V30 46466 H 6367.66 -3.36058 2.30304 0
M  V30 46467 H 6368.45 -2.73846 3.77171 0
M  V30 46468 H 6374.42 -6.40705 0.751752 0
M  V30 46469 P 6376.18 -8.4349 2.47671 0
M  V30 46470 O 6377.6 -8.94167 2.5964 0
M  V30 46471 O 6375.82 -7.1704 3.19006 0
M  V30 46472 O 6375.86 -8.16596 0.923387 0
M  V30 46473 C 6375.7 -9.38437 0.108857 0
M  V30 46474 C 6376.24 -9.08175 -1.28353 0
M  V30 46475 O 6375.18 -8.44229 -1.84713 0
M  V30 46476 C 6377.46 -8.18386 -1.42505 0
M  V30 46477 O 6378.19 -8.3501 -2.60497 0
M  V30 46478 C 6376.79 -6.80225 -1.25468 0
M  V30 46479 O 6377.59 -5.81621 -1.91066 0
M  V30 46480 C 6375.45 -7.02416 -1.9168 0
M  V30 46481 H 6375.48 -6.6888 -2.96621 0
M  V30 46482 H 6376.67 -6.53617 -0.192223 0
M  V30 46483 H 6378.15 -8.36622 -0.589963 0
M  V30 46484 H 6376.46 -10.0291 -1.79807 0
M  V30 46485 H 6376.27 -10.2138 0.558219 0
M  V30 46486 H 6374.64 -9.6579 0.0444202 0
M  V30 46487 H 6377.27 -5.69556 -2.79637 0
M  V30 46488 P 6379.13 -8.4349 -2.47671 0
M  V30 46489 O 6380.55 -8.92689 -2.65029 0
M  V30 46490 O 6378.77 -7.7568 -1.19296 0
M  V30 46491 O 6378.81 -7.36886 -3.63805 0
M  V30 46492 C 6378.65 -7.95433 -4.98253 0
M  V30 46493 C 6379.19 -6.94612 -5.98974 0
M  V30 46494 O 6378.13 -6.10277 -6.11744 0
M  V30 46495 C 6380.41 -6.11426 -5.62335 0
M  V30 46496 O 6381.15 -5.6162 -6.70584 0
M  V30 46497 C 6379.74 -5.04409 -4.73308 0
M  V30 46498 O 6380.54 -3.86404 -4.74719 0
M  V30 46499 C 6378.4 -4.8728 -5.41006 0
M  V30 46500 N 6377.36 -4.65812 -4.42377 0
M  V30 46501 C 6377.53 -5.09132 -3.15382 0
M  V30 46502 N 6376.5 -4.84021 -2.3716 0
M  V30 46503 C 6375.62 -4.18386 -3.20441 0
M  V30 46504 C 6374.35 -3.6275 -2.94905 0
M  V30 46505 N 6373.78 -3.05008 -4.05243 0
M  V30 46506 C 6374.39 -2.98348 -5.28159 0
M  V30 46507 N 6375.56 -3.48171 -5.56333 0
M  V30 46508 C 6376.14 -4.06869 -4.47212 0
M  V30 46509 H 6379.62 -5.39013 -3.70026 0
M  V30 46510 H 6381.1 -6.71916 -5.01943 0
M  V30 46511 H 6379.41 -7.45796 -6.94223 0
M  V30 46512 H 6379.22 -8.89416 -5.05237 0
M  V30 46513 H 6377.59 -8.14876 -5.18409 0
M  V30 46514 H 6378.43 -5.59989 -2.81362 0
M  V30 46515 H 6380.23 -3.27906 -5.43085 0
M  V30 46516 P 6382.08 -5.75688 -6.64379 0
M  V30 46517 O 6383.5 -6.07627 -7.05504 0
M  V30 46518 O 6381.72 -5.88047 -5.19722 0
M  V30 46519 O 6381.76 -4.2322 -7.04443 0
M  V30 46520 C 6381.6 -3.99743 -8.4911 0
M  V30 46521 C 6382.14 -2.60516 -8.79425 0
M  V30 46522 O 6381.08 -1.82684 -8.4467 0
M  V30 46523 C 6383.36 -2.10343 -8.03628 0
M  V30 46524 O 6384.1 -1.09919 -8.67766 0
M  V30 46525 C 6382.69 -1.68446 -6.70876 0
M  V30 46526 O 6383.49 -0.678137 -6.08433 0
M  V30 46527 C 6381.35 -1.17436 -7.18567 0
M  V30 46528 H 6381.38 -0.0804732 -7.31656 0
M  V30 46529 H 6382.57 -2.54037 -6.02537 0
M  V30 46530 H 6384.05 -2.93881 -7.85526 0
M  V30 46531 H 6382.36 -2.53065 -9.86973 0
M  V30 46532 H 6382.17 -4.75072 -9.05887 0
M  V30 46533 H 6380.54 -4.05244 -8.76668 0
M  V30 46534 H 6383.18 0.177647 -6.34251 0
M  V30 46535 P 6385.03 -1.25109 -8.70152 0
M  V30 46536 O 6386.43 -1.3516 -9.26897 0
M  V30 46537 O 6384.66 -2.18141 -7.59181 0
M  V30 46538 O 6384.71 0.248118 -8.21325 0
M  V30 46539 C 6384.55 1.22779 -9.30434 0
M  V30 46540 C 6385.09 2.56265 -8.80568 0
M  V30 46541 O 6384.03 3.02944 -8.09255 0
M  V30 46542 C 6386.31 2.57523 -7.89775 0
M  V30 46543 O 6387.05 3.7668 -7.89438 0
M  V30 46544 C 6385.64 2.20997 -6.55446 0
M  V30 46545 O 6386.44 2.71851 -5.48419 0
M  V30 46546 C 6384.3 2.89693 -6.67988 0
M  V30 46547 N 6383.26 2.08895 -6.07487 0
M  V30 46548 C 6382.22 2.72974 -5.43836 0
M  V30 46549 O 6382.26 3.97779 -5.34036 0
M  V30 46550 N 6381.21 2.0005 -4.91983 0
M  V30 46551 C 6381.26 0.66501 -5.00098 0
M  V30 46552 C 6382.36 -0.0100979 -5.61099 0
M  V30 46553 C 6383.32 0.74189 -6.14236 0
M  V30 46554 H 6384.33 3.8874 -6.19774 0
M  V30 46555 H 6385.52 1.12673 -6.44018 0
M  V30 46556 H 6387 1.783 -8.19631 0
M  V30 46557 H 6385.31 3.21673 -9.66791 0
M  V30 46558 H 6385.12 0.901032 -10.1892 0
M  V30 46559 H 6383.49 1.33036 -9.56493 0
M  V30 46560 H 6382.4 -1.09591 -5.64358 0
M  V30 46561 H 6384.17 0.260263 -6.6359 0
M  V30 46562 H 6386.22 3.62759 -5.33442 0
M  V30 46563 P 6387.98 3.65191 -7.99657 0
M  V30 46564 O 6389.41 3.89332 -8.45794 0
M  V30 46565 O 6387.62 2.28472 -7.50807 0
M  V30 46566 O 6387.66 4.64972 -6.77611 0
M  V30 46567 C 6387.5 6.06319 -7.16352 0
M  V30 46568 C 6388.04 6.91731 -6.02299 0
M  V30 46569 O 6386.99 6.92449 -5.17064 0
M  V30 46570 C 6389.26 6.43627 -5.25174 0
M  V30 46571 O 6390 7.43686 -4.60469 0
M  V30 46572 C 6388.59 5.40275 -4.31916 0
M  V30 46573 O 6389.39 5.25279 -3.14438 0
M  V30 46574 C 6387.25 6.04847 -4.05327 0
M  V30 46575 H 6387.29 6.62195 -3.11261 0
M  V30 46576 H 6388.47 4.42556 -4.81383 0
M  V30 46577 H 6389.95 5.92458 -5.93643 0
M  V30 46578 H 6388.26 7.92655 -6.402 0
M  V30 46579 H 6388.07 6.26671 -8.0846 0
M  V30 46580 H 6386.44 6.29101 -7.32804 0
M  V30 46581 H 6389.08 5.84315 -2.47318 0
M  V30 46582 P 6390.93 7.39546 -4.75277 0
M  V30 46583 O 6392.36 7.84798 -5.01039 0
M  V30 46584 O 6390.57 5.9812 -5.08098 0
M  V30 46585 O 6390.61 7.57503 -3.1866 0
M  V30 46586 C 6390.45 8.97357 -2.74833 0
M  V30 46587 C 6390.99 9.07548 -1.32709 0
M  V30 46588 O 6389.94 8.62072 -0.606159 0
M  V30 46589 C 6392.21 8.25383 -0.938334 0
M  V30 46590 O 6392.95 8.74577 0.146954 0
M  V30 46591 C 6391.54 6.8802 -0.712559 0
M  V30 46592 O 6392.34 6.1189 0.194655 0
M  V30 46593 C 6390.2 7.27966 -0.139777 0
M  V30 46594 H 6390.24 7.25354 0.961601 0
M  V30 46595 H 6391.42 6.32557 -1.65702 0
M  V30 46596 H 6392.9 8.19355 -1.79097 0
M  V30 46597 H 6391.21 10.1294 -1.10029 0
M  V30 46598 H 6391.02 9.64276 -3.41316 0
M  V30 46599 H 6389.39 9.25417 -2.76357 0
M  V30 46600 H 6392.03 6.25267 1.07847 0
M  V30 46601 P 6393.89 8.791 -2.01245e-10 0
M  V30 46602 O 6395.31 9.31196 0.027936 0
M  V30 46603 O 6393.53 7.77869 -1.04071 0
M  V30 46604 O 6393.56 8.09533 1.41463 0
M  V30 46605 C 6393.4 9.03587 2.5397 0
M  V30 46606 C 6393.94 8.35226 3.79016 0
M  V30 46607 O 6392.89 7.57904 4.1503 0
M  V30 46608 C 6395.16 7.45087 3.67298 0
M  V30 46609 O 6395.9 7.27796 4.85194 0
M  V30 46610 C 6394.49 6.17323 3.12027 0
M  V30 46611 O 6395.29 5.04496 3.46627 0
M  V30 46612 C 6393.15 6.19961 3.81809 0
M  V30 46613 N 6392.11 5.71575 2.93223 0
M  V30 46614 C 6392.28 5.77362 1.59168 0
M  V30 46615 N 6391.25 5.3123 0.911893 0
M  V30 46616 C 6390.37 4.91717 1.89588 0
M  V30 46617 C 6389.1 4.3114 1.8076 0
M  V30 46618 N 6388.54 4.06823 3.02898 0
M  V30 46619 C 6389.14 4.35062 4.22711 0
M  V30 46620 N 6390.32 4.90805 4.35707 0
M  V30 46621 C 6390.89 5.16382 3.14469 0
M  V30 46622 H 6394.37 6.21428 2.0318 0
M  V30 46623 H 6395.85 7.86112 2.9231 0
M  V30 46624 H 6394.16 9.11171 4.55987 0
M  V30 46625 H 6393.97 9.9573 2.34194 0
M  V30 46626 H 6392.34 9.2792 2.67832 0
M  V30 46627 H 6393.18 6.16575 1.12198 0
M  V30 46628 H 6394.98 4.67628 4.28704 0
M  V30 46629 P 6396.84 7.39546 4.75277 0
M  V30 46630 O 6398.26 7.81777 5.05738 0
M  V30 46631 O 6396.48 7.1065 3.32998 0
M  V30 46632 O 6396.51 6.04542 5.56673 0
M  V30 46633 C 6396.35 6.22772 7.02095 0
M  V30 46634 C 6396.89 4.97725 7.70406 0
M  V30 46635 O 6395.84 4.13256 7.58987 0
M  V30 46636 C 6398.11 4.28231 7.11815 0
M  V30 46637 O 6398.85 3.49945 8.01648 0
M  V30 46638 C 6397.44 3.5063 5.96244 0
M  V30 46639 O 6398.24 2.36482 5.64681 0
M  V30 46640 C 6396.1 3.15122 6.56374 0
M  V30 46641 H 6396.14 2.13853 6.99751 0
M  V30 46642 H 6397.32 4.13501 5.06559 0
M  V30 46643 H 6398.8 5.03285 6.70911 0
M  V30 46644 H 6397.11 5.20877 8.75697 0
M  V30 46645 H 6396.92 7.11046 7.35349 0
M  V30 46646 H 6395.29 6.35815 7.26986 0
M  V30 46647 H 6397.93 1.61644 6.13565 0
M  V30 46648 P 6399.79 3.65191 7.99657 0
M  V30 46649 O 6401.19 3.90823 8.51272 0
M  V30 46650 O 6399.41 4.23191 6.66972 0
M  V30 46651 O 6399.46 2.07587 7.95046 0
M  V30 46652 C 6399.3 1.44328 9.27336 0
M  V30 46653 C 6399.84 0.0220012 9.17097 0
M  V30 46654 O 6398.79 -0.626794 8.61824 0
M  V30 46655 C 6401.06 -0.24586 8.30336 0
M  V30 46656 O 6401.8 -1.39011 8.63583 0
M  V30 46657 C 6400.39 -0.273849 6.91158 0
M  V30 46658 O 6401.19 -1.06331 6.02794 0
M  V30 46659 C 6399.06 -0.897649 7.22545 0
M  V30 46660 N 6398.01 -0.292839 6.41732 0
M  V30 46661 C 6396.98 -1.08701 5.98712 0
M  V30 46662 O 6397.02 -2.31211 6.24471 0
M  V30 46663 N 6395.97 -0.533391 5.28415 0
M  V30 46664 C 6396.01 0.770866 4.98576 0
M  V30 46665 N 6395 1.29482 4.30134 0
M  V30 46666 C 6397.11 1.59049 5.38086 0
M  V30 46667 C 6398.08 1.01866 6.10256 0
M  V30 46668 H 6399.09 -1.98383 7.04189 0
M  V30 46669 H 6400.27 0.733318 6.49674 0
M  V30 46670 H 6401.75 0.598386 8.36663 0
M  V30 46671 H 6400.06 -0.362662 10.1825 0
M  V30 46672 H 6399.87 2.00611 10.0304 0
M  V30 46673 H 6398.24 1.41828 9.55228 0
M  V30 46674 H 6397.16 2.6415 5.10622 0
M  V30 46675 H 6398.92 1.61983 6.44042 0
M  V30 46676 H 6394.21 0.69888 4.01361 0
M  V30 46677 H 6395.01 2.29327 4.05781 0
M  V30 46678 H 6400.98 -1.97777 6.14035 0
M  V30 46679 P 6402.74 -1.25109 8.70152 0
M  V30 46680 O 6404.16 -1.35274 9.21221 0
M  V30 46681 O 6402.38 -0.0769065 7.84762 0
M  V30 46682 O 6402.41 -2.55232 7.81161 0
M  V30 46683 C 6402.25 -3.79939 8.58154 0
M  V30 46684 C 6402.79 -4.94023 7.72785 0
M  V30 46685 O 6401.74 -5.18726 6.91205 0
M  V30 46686 C 6404.01 -4.69597 6.85231 0
M  V30 46687 O 6404.75 -5.83832 6.51337 0
M  V30 46688 C 6403.34 -3.96706 5.66633 0
M  V30 46689 O 6404.14 -4.15414 4.49689 0
M  V30 46690 C 6402.01 -4.66153 5.59313 0
M  V30 46691 H 6402.04 -5.47679 4.85214 0
M  V30 46692 H 6403.22 -2.89008 5.86566 0
M  V30 46693 H 6404.7 -4.0121 7.36511 0
M  V30 46694 H 6403.01 -5.80182 8.37584 0
M  V30 46695 H 6402.82 -3.73517 9.52265 0
M  V30 46696 H 6401.19 -3.97163 8.80359 0
M  V30 46697 H 6403.83 -4.90969 4.01921 0
M  V30 46698 P 6405.69 -5.75688 6.64379 0
M  V30 46699 O 6407.09 -6.11991 7.09136 0
M  V30 46700 O 6405.31 -4.30899 6.62018 0
M  V30 46701 O 6405.36 -6.36965 5.19102 0
M  V30 46702 C 6405.2 -7.83578 5.16515 0
M  V30 46703 C 6405.74 -8.33307 3.82977 0
M  V30 46704 O 6404.69 -8.0998 3.00999 0
M  V30 46705 C 6406.96 -7.65514 3.2257 0
M  V30 46706 O 6407.7 -8.4329 2.32297 0
M  V30 46707 C 6406.29 -6.40075 2.62207 0
M  V30 46708 O 6407.09 -5.92492 1.53687 0
M  V30 46709 C 6404.96 -6.9454 2.18503 0
M  V30 46710 N 6403.91 -5.95905 2.39948 0
M  V30 46711 C 6402.88 -5.89764 1.49837 0
M  V30 46712 O 6402.92 -6.64088 0.490975 0
M  V30 46713 N 6401.87 -5.02821 1.70992 0
M  V30 46714 C 6401.91 -4.21498 2.77236 0
M  V30 46715 N 6400.9 -3.37475 2.96465 0
M  V30 46716 C 6403.01 -4.23389 3.68205 0
M  V30 46717 C 6403.98 -5.12792 3.46171 0
M  V30 46718 H 6404.99 -7.22964 1.12076 0
M  V30 46719 H 6406.17 -5.60502 3.36589 0
M  V30 46720 H 6407.66 -7.36197 4.01993 0
M  V30 46721 H 6405.96 -9.41302 3.90009 0
M  V30 46722 H 6405.77 -8.29056 5.99158 0
M  V30 46723 H 6404.14 -8.09989 5.25828 0
M  V30 46724 H 6403.06 -3.54747 4.52399 0
M  V30 46725 H 6404.82 -5.18551 4.1489 0
M  V30 46726 H 6400.11 -3.36058 2.30304 0
M  V30 46727 H 6400.91 -2.73846 3.77171 0
M  V30 46728 H 6406.88 -6.40705 0.751752 0
M  V30 46729 P 6408.64 -8.4349 2.47671 0
M  V30 46730 O 6410.06 -8.94167 2.5964 0
M  V30 46731 O 6408.28 -7.1704 3.19006 0
M  V30 46732 O 6408.32 -8.16596 0.923387 0
M  V30 46733 C 6408.16 -9.38437 0.108857 0
M  V30 46734 C 6408.7 -9.08175 -1.28353 0
M  V30 46735 O 6407.64 -8.44229 -1.84713 0
M  V30 46736 C 6409.91 -8.18386 -1.42505 0
M  V30 46737 O 6410.65 -8.3501 -2.60497 0
M  V30 46738 C 6409.24 -6.80225 -1.25468 0
M  V30 46739 O 6410.04 -5.81621 -1.91066 0
M  V30 46740 C 6407.91 -7.02416 -1.9168 0
M  V30 46741 H 6407.94 -6.6888 -2.96621 0
M  V30 46742 H 6409.12 -6.53617 -0.192223 0
M  V30 46743 H 6410.61 -8.36622 -0.589963 0
M  V30 46744 H 6408.91 -10.0291 -1.79807 0
M  V30 46745 H 6408.72 -10.2138 0.558219 0
M  V30 46746 H 6407.09 -9.6579 0.0444202 0
M  V30 46747 H 6409.73 -5.69556 -2.79637 0
M  V30 46748 P 6411.59 -8.4349 -2.47671 0
M  V30 46749 O 6413.01 -8.92593 -2.65 0
M  V30 46750 O 6411.23 -7.7568 -1.19296 0
M  V30 46751 O 6411.27 -7.36886 -3.63805 0
M  V30 46752 C 6411.11 -7.95349 -4.982 0
M  V30 46753 C 6411.65 -6.94612 -5.98974 0
M  V30 46754 O 6410.59 -6.10347 -6.11815 0
M  V30 46755 C 6412.86 -6.11426 -5.62335 0
M  V30 46756 O 6413.6 -5.6162 -6.70584 0
M  V30 46757 C 6412.19 -5.04409 -4.73308 0
M  V30 46758 O 6412.99 -3.85992 -4.75183 0
M  V30 46759 C 6410.86 -4.8728 -5.41006 0
M  V30 46760 H 6410.89 -4.02333 -6.11157 0
M  V30 46761 H 6412.07 -5.39466 -3.69543 0
M  V30 46762 H 6413.56 -6.71916 -5.01943 0
M  V30 46763 H 6411.86 -7.4649 -6.93477 0
M  V30 46764 H 6411.67 -8.89416 -5.05237 0
M  V30 46765 H 6410.04 -8.14876 -5.18409 0
M  V30 46766 H 6412.68 -3.27957 -5.4317 0
M  V30 46767 P 6414.54 -5.75688 -6.64379 0
M  V30 46768 O 6415.96 -6.07692 -7.0558 0
M  V30 46769 O 6414.18 -5.88047 -5.19722 0
M  V30 46770 O 6414.22 -4.2322 -7.04443 0
M  V30 46771 C 6414.06 -3.99785 -8.49201 0
M  V30 46772 C 6414.6 -2.60516 -8.79425 0
M  V30 46773 O 6413.54 -1.82663 -8.44573 0
M  V30 46774 C 6415.81 -2.10343 -8.03628 0
M  V30 46775 O 6416.55 -1.09919 -8.67766 0
M  V30 46776 C 6415.15 -1.68446 -6.70876 0
M  V30 46777 O 6415.94 -0.684109 -6.08265 0
M  V30 46778 C 6413.81 -1.17436 -7.18567 0
M  V30 46779 N 6412.77 -1.52699 -6.23988 0
M  V30 46780 C 6412.93 -2.578 -5.40574 0
M  V30 46781 N 6411.91 -2.78966 -4.61193 0
M  V30 46782 C 6411.02 -1.78725 -4.95769 0
M  V30 46783 C 6409.76 -1.45727 -4.44207 0
M  V30 46784 N 6409.19 -0.374977 -5.05812 0
M  V30 46785 C 6409.79 0.345585 -6.05615 0
M  V30 46786 N 6410.97 0.0787651 -6.56253 0
M  V30 46787 C 6411.54 -1.00499 -5.96189 0
M  V30 46788 H 6415.02 -2.53396 -6.02698 0
M  V30 46789 H 6416.51 -2.93881 -7.85526 0
M  V30 46790 H 6414.81 -2.52078 -9.87225 0
M  V30 46791 H 6414.62 -4.75072 -9.05887 0
M  V30 46792 H 6412.99 -4.05244 -8.76668 0
M  V30 46793 H 6413.83 -3.18977 -5.3945 0
M  V30 46794 H 6415.63 0.177619 -6.34151 0
M  V30 46795 P 6417.49 -1.25109 -8.70152 0
M  V30 46796 O 6418.91 -1.29744 -9.22016 0
M  V30 46797 O 6417.13 -2.13714 -7.55141 0
M  V30 46798 O 6417.17 0.248149 -8.21425 0
M  V30 46799 C 6417.01 1.22779 -9.30434 0
M  V30 46800 C 6417.55 2.56293 -8.80664 0
M  V30 46801 O 6416.49 3.02979 -8.09349 0
M  V30 46802 C 6418.76 2.57523 -7.89775 0
M  V30 46803 O 6419.5 3.7668 -7.89438 0
M  V30 46804 C 6418.1 2.20997 -6.55446 0
M  V30 46805 O 6418.89 2.71895 -5.48509 0
M  V30 46806 C 6416.76 2.89693 -6.67988 0
M  V30 46807 H 6416.79 3.88793 -6.19859 0
M  V30 46808 H 6417.97 1.12046 -6.44229 0
M  V30 46809 H 6419.46 1.7746 -8.19711 0
M  V30 46810 H 6417.76 3.20706 -9.67112 0
M  V30 46811 H 6417.57 0.901032 -10.1892 0
M  V30 46812 H 6415.94 1.33049 -9.56592 0
M  V30 46813 H 6418.58 3.57847 -5.23962 0
M  V30 46814 P 6420.44 3.65191 -7.99657 0
M  V30 46815 O 6421.86 3.89332 -8.45794 0
M  V30 46816 O 6420.08 2.28472 -7.50807 0
M  V30 46817 O 6420.12 4.64972 -6.77611 0
M  V30 46818 C 6419.96 6.06319 -7.16352 0
M  V30 46819 C 6420.5 6.91731 -6.02299 0
M  V30 46820 O 6419.44 6.92449 -5.17064 0
M  V30 46821 C 6421.72 6.43627 -5.25174 0
M  V30 46822 O 6422.45 7.43686 -4.60469 0
M  V30 46823 C 6421.05 5.40275 -4.31916 0
M  V30 46824 O 6421.85 5.25279 -3.14438 0
M  V30 46825 C 6419.71 6.04847 -4.05327 0
M  V30 46826 H 6419.74 6.62195 -3.11261 0
M  V30 46827 H 6420.92 4.42556 -4.81383 0
M  V30 46828 H 6422.41 5.92458 -5.93643 0
M  V30 46829 H 6420.71 7.92655 -6.402 0
M  V30 46830 H 6420.52 6.26671 -8.0846 0
M  V30 46831 H 6418.89 6.29101 -7.32804 0
M  V30 46832 H 6421.53 5.84315 -2.47318 0
M  V30 46833 P 6423.39 7.39546 -4.75277 0
M  V30 46834 O 6424.81 7.84798 -5.01039 0
M  V30 46835 O 6423.03 5.9812 -5.08098 0
M  V30 46836 O 6423.07 7.57503 -3.1866 0
M  V30 46837 C 6422.91 8.97357 -2.74833 0
M  V30 46838 C 6423.45 9.07548 -1.32709 0
M  V30 46839 O 6422.39 8.62072 -0.606159 0
M  V30 46840 C 6424.67 8.25383 -0.938334 0
M  V30 46841 O 6425.4 8.74577 0.146954 0
M  V30 46842 C 6424 6.8802 -0.712559 0
M  V30 46843 O 6424.8 6.1189 0.194655 0
M  V30 46844 C 6422.66 7.27966 -0.139777 0
M  V30 46845 H 6422.69 7.25354 0.961601 0
M  V30 46846 H 6423.87 6.32557 -1.65702 0
M  V30 46847 H 6425.36 8.19355 -1.79097 0
M  V30 46848 H 6423.66 10.1294 -1.10029 0
M  V30 46849 H 6423.47 9.64276 -3.41316 0
M  V30 46850 H 6421.84 9.25417 -2.76357 0
M  V30 46851 H 6424.48 6.25267 1.07847 0
M  V30 46852 P 6426.34 8.791 -1.95438e-10 0
M  V30 46853 O 6427.76 9.31096 0.027933 0
M  V30 46854 O 6425.98 7.77869 -1.04071 0
M  V30 46855 O 6426.02 8.09533 1.41463 0
M  V30 46856 C 6425.86 9.0349 2.53943 0
M  V30 46857 C 6426.4 8.35226 3.79016 0
M  V30 46858 O 6425.34 7.57992 4.15078 0
M  V30 46859 C 6427.62 7.45087 3.67298 0
M  V30 46860 O 6428.35 7.27796 4.85194 0
M  V30 46861 C 6426.95 6.17323 3.12027 0
M  V30 46862 O 6427.75 5.04231 3.47188 0
M  V30 46863 C 6425.61 6.19961 3.81809 0
M  V30 46864 H 6425.64 5.58218 4.73051 0
M  V30 46865 H 6426.83 6.21726 2.02589 0
M  V30 46866 H 6428.31 7.86112 2.9231 0
M  V30 46867 H 6426.62 9.11627 4.55076 0
M  V30 46868 H 6426.43 9.9573 2.34194 0
M  V30 46869 H 6424.8 9.2792 2.67832 0
M  V30 46870 H 6427.43 4.67702 4.28772 0
M  V30 46871 P 6429.29 7.39546 4.75277 0
M  V30 46872 O 6430.71 7.81777 5.05738 0
M  V30 46873 O 6428.93 7.1065 3.32998 0
M  V30 46874 O 6428.97 6.04542 5.56673 0
M  V30 46875 C 6428.81 6.22772 7.02095 0
M  V30 46876 C 6429.35 4.97725 7.70406 0
M  V30 46877 O 6428.29 4.13256 7.58987 0
M  V30 46878 C 6430.57 4.28231 7.11815 0
M  V30 46879 O 6431.31 3.49945 8.01648 0
M  V30 46880 C 6429.9 3.5063 5.96244 0
M  V30 46881 O 6430.7 2.36482 5.64681 0
M  V30 46882 C 6428.56 3.15122 6.56374 0
M  V30 46883 H 6428.59 2.13853 6.99751 0
M  V30 46884 H 6429.78 4.13501 5.06559 0
M  V30 46885 H 6431.26 5.03285 6.70911 0
M  V30 46886 H 6429.57 5.20877 8.75697 0
M  V30 46887 H 6429.38 7.11046 7.35349 0
M  V30 46888 H 6427.75 6.35815 7.26986 0
M  V30 46889 H 6430.39 1.61644 6.13565 0
M  V30 46890 P 6432.24 3.65191 7.99657 0
M  V30 46891 O 6433.66 3.8425 8.48115 0
M  V30 46892 O 6431.88 4.17805 6.64342 0
M  V30 46893 O 6431.92 2.07613 7.95143 0
M  V30 46894 C 6431.76 1.44328 9.27336 0
M  V30 46895 C 6432.3 0.0220036 9.17197 0
M  V30 46896 O 6431.24 -0.626867 8.61923 0
M  V30 46897 C 6433.52 -0.24586 8.30336 0
M  V30 46898 O 6434.26 -1.39011 8.63583 0
M  V30 46899 C 6432.85 -0.273849 6.91158 0
M  V30 46900 O 6433.65 -1.06348 6.02892 0
M  V30 46901 C 6431.51 -0.897649 7.22545 0
M  V30 46902 H 6431.54 -1.9841 7.04286 0
M  V30 46903 H 6432.73 0.739928 6.497 0
M  V30 46904 H 6434.21 0.60668 8.36503 0
M  V30 46905 H 6432.52 -0.352479 10.1829 0
M  V30 46906 H 6432.33 2.00611 10.0304 0
M  V30 46907 H 6430.7 1.41843 9.55327 0
M  V30 46908 H 6433.34 -1.95734 6.03555 0
M  V30 46909 P 6435.19 -1.25109 8.70152 0
M  V30 46910 O 6436.59 -1.31452 9.27431 0
M  V30 46911 O 6434.82 -0.0458113 7.89887 0
M  V30 46912 O 6434.87 -2.55201 7.81066 0
M  V30 46913 C 6434.71 -3.79939 8.58154 0
M  V30 46914 C 6435.25 -4.93969 7.72701 0
M  V30 46915 O 6434.19 -5.18666 6.91125 0
M  V30 46916 C 6436.47 -4.69597 6.85231 0
M  V30 46917 O 6437.21 -5.83832 6.51337 0
M  V30 46918 C 6435.8 -3.96706 5.66633 0
M  V30 46919 O 6436.6 -4.15346 4.49615 0
M  V30 46920 C 6434.46 -4.66153 5.59313 0
M  V30 46921 N 6433.42 -3.71582 5.24027 0
M  V30 46922 C 6432.38 -4.15133 4.44901 0
M  V30 46923 O 6432.42 -5.32122 4.00336 0
M  V30 46924 N 6431.37 -3.30554 4.15693 0
M  V30 46925 C 6431.42 -2.04701 4.61105 0
M  V30 46926 C 6432.52 -1.57111 5.38655 0
M  V30 46927 C 6433.48 -2.44234 5.68454 0
M  V30 46928 H 6434.49 -5.47604 4.85148 0
M  V30 46929 H 6435.68 -2.8955 5.86187 0
M  V30 46930 H 6437.16 -4.01995 7.36197 0
M  V30 46931 H 6435.47 -5.81019 8.37003 0
M  V30 46932 H 6435.28 -3.73517 9.52265 0
M  V30 46933 H 6433.65 -3.97122 8.80267 0
M  V30 46934 H 6432.56 -0.538464 5.72373 0
M  V30 46935 H 6434.33 -2.11927 6.29377 0
M  V30 46936 H 6436.38 -4.98352 4.09633 0
M  V30 46937 P 6438.14 -5.75688 6.64379 0
M  V30 46938 O 6439.57 -6.11849 7.01846 0
M  V30 46939 O 6437.78 -4.30744 6.56026 0
M  V30 46940 O 6437.82 -6.37042 5.19165 0
M  V30 46941 C 6437.66 -7.83578 5.16515 0
M  V30 46942 C 6438.2 -8.33398 3.83019 0
M  V30 46943 O 6437.14 -8.10074 3.01034 0
M  V30 46944 C 6439.42 -7.65514 3.2257 0
M  V30 46945 O 6440.16 -8.4329 2.32297 0
M  V30 46946 C 6438.75 -6.40075 2.62207 0
M  V30 46947 O 6439.55 -5.92589 1.53712 0
M  V30 46948 C 6437.41 -6.9454 2.18503 0
M  V30 46949 H 6437.44 -7.23063 1.12091 0
M  V30 46950 H 6438.63 -5.6025 3.37201 0
M  V30 46951 H 6440.11 -7.35707 4.02681 0
M  V30 46952 H 6438.42 -9.40912 3.9095 0
M  V30 46953 H 6438.23 -8.29056 5.99158 0
M  V30 46954 H 6436.6 -8.10073 5.25882 0
M  V30 46955 H 6439.24 -6.30324 0.726794 0
M  V30 46956 P 6441.09 -8.4349 2.47671 0
M  V30 46957 O 6442.52 -8.94167 2.5964 0
M  V30 46958 O 6440.73 -7.1704 3.19006 0
M  V30 46959 O 6440.77 -8.16596 0.923387 0
M  V30 46960 C 6440.61 -9.38437 0.108857 0
M  V30 46961 C 6441.15 -9.08175 -1.28353 0
M  V30 46962 O 6440.1 -8.44229 -1.84713 0
M  V30 46963 C 6442.37 -8.18386 -1.42505 0
M  V30 46964 O 6443.11 -8.3501 -2.60497 0
M  V30 46965 C 6441.7 -6.80225 -1.25468 0
M  V30 46966 O 6442.5 -5.81621 -1.91066 0
M  V30 46967 C 6440.36 -7.02416 -1.9168 0
M  V30 46968 H 6440.4 -6.6888 -2.96621 0
M  V30 46969 H 6441.58 -6.53617 -0.192223 0
M  V30 46970 H 6443.06 -8.36622 -0.589963 0
M  V30 46971 H 6441.37 -10.0291 -1.79807 0
M  V30 46972 H 6441.18 -10.2138 0.558219 0
M  V30 46973 H 6439.55 -9.6579 0.0444202 0
M  V30 46974 H 6442.19 -5.69556 -2.79637 0
M  V30 46975 P 6444.04 -8.4349 -2.47671 0
M  V30 46976 O 6445.47 -8.92689 -2.65029 0
M  V30 46977 O 6443.68 -7.7568 -1.19296 0
M  V30 46978 O 6443.72 -7.36886 -3.63805 0
M  V30 46979 C 6443.56 -7.95433 -4.98253 0
M  V30 46980 C 6444.1 -6.94612 -5.98974 0
M  V30 46981 O 6443.05 -6.10277 -6.11744 0
M  V30 46982 C 6445.32 -6.11426 -5.62335 0
M  V30 46983 O 6446.06 -5.6162 -6.70584 0
M  V30 46984 C 6444.65 -5.04409 -4.73308 0
M  V30 46985 O 6445.45 -3.86404 -4.74719 0
M  V30 46986 C 6443.31 -4.8728 -5.41006 0
M  V30 46987 N 6442.27 -4.65812 -4.42377 0
M  V30 46988 C 6442.44 -5.09132 -3.15382 0
M  V30 46989 N 6441.41 -4.84021 -2.3716 0
M  V30 46990 C 6440.53 -4.18386 -3.20441 0
M  V30 46991 C 6439.26 -3.6275 -2.94905 0
M  V30 46992 N 6438.7 -3.05008 -4.05243 0
M  V30 46993 C 6439.3 -2.98348 -5.28159 0
M  V30 46994 N 6440.47 -3.48171 -5.56333 0
M  V30 46995 C 6441.05 -4.06869 -4.47212 0
M  V30 46996 H 6444.53 -5.39013 -3.70026 0
M  V30 46997 H 6446.01 -6.71916 -5.01943 0
M  V30 46998 H 6444.32 -7.45796 -6.94223 0
M  V30 46999 H 6444.13 -8.89416 -5.05237 0
M  V30 47000 H 6442.5 -8.14876 -5.18409 0
M  V30 47001 H 6443.34 -5.59989 -2.81362 0
M  V30 47002 H 6445.14 -3.27906 -5.43085 0
M  V30 47003 P 6447 -5.75688 -6.64379 0
M  V30 47004 O 6448.42 -6.07627 -7.05504 0
M  V30 47005 O 6446.64 -5.88047 -5.19722 0
M  V30 47006 O 6446.67 -4.2322 -7.04443 0
M  V30 47007 C 6446.51 -3.99743 -8.4911 0
M  V30 47008 C 6447.05 -2.60516 -8.79425 0
M  V30 47009 O 6446 -1.82684 -8.4467 0
M  V30 47010 C 6448.27 -2.10343 -8.03628 0
M  V30 47011 O 6449.01 -1.09919 -8.67766 0
M  V30 47012 C 6447.6 -1.68446 -6.70876 0
M  V30 47013 O 6448.4 -0.678137 -6.08433 0
M  V30 47014 C 6446.26 -1.17436 -7.18567 0
M  V30 47015 H 6446.3 -0.0804732 -7.31656 0
M  V30 47016 H 6447.48 -2.54037 -6.02537 0
M  V30 47017 H 6448.96 -2.93881 -7.85526 0
M  V30 47018 H 6447.27 -2.53065 -9.86973 0
M  V30 47019 H 6447.08 -4.75072 -9.05887 0
M  V30 47020 H 6445.45 -4.05244 -8.76668 0
M  V30 47021 H 6448.09 0.177647 -6.34251 0
M  V30 47022 P 6449.95 -1.25109 -8.70152 0
M  V30 47023 O 6451.37 -1.29744 -9.22016 0
M  V30 47024 O 6449.59 -2.13714 -7.55141 0
M  V30 47025 O 6449.62 0.248149 -8.21425 0
M  V30 47026 C 6449.46 1.22779 -9.30434 0
M  V30 47027 C 6450 2.56293 -8.80664 0
M  V30 47028 O 6448.95 3.02979 -8.09349 0
M  V30 47029 C 6451.22 2.57523 -7.89775 0
M  V30 47030 O 6451.96 3.7668 -7.89438 0
M  V30 47031 C 6450.55 2.20997 -6.55446 0
M  V30 47032 O 6451.35 2.71895 -5.48509 0
M  V30 47033 C 6449.22 2.89693 -6.67988 0
M  V30 47034 H 6449.25 3.88793 -6.19859 0
M  V30 47035 H 6450.43 1.12046 -6.44229 0
M  V30 47036 H 6451.91 1.7746 -8.19711 0
M  V30 47037 H 6450.22 3.20706 -9.67112 0
M  V30 47038 H 6450.03 0.901032 -10.1892 0
M  V30 47039 H 6448.4 1.33049 -9.56592 0
M  V30 47040 H 6451.04 3.57847 -5.23962 0
M  V30 47041 P 6452.9 3.65191 -7.99657 0
M  V30 47042 O 6454.32 3.89332 -8.45794 0
M  V30 47043 O 6452.54 2.28472 -7.50807 0
M  V30 47044 O 6452.57 4.64972 -6.77611 0
M  V30 47045 C 6452.41 6.06319 -7.16352 0
M  V30 47046 C 6452.95 6.91731 -6.02299 0
M  V30 47047 O 6451.9 6.92449 -5.17064 0
M  V30 47048 C 6454.17 6.43627 -5.25174 0
M  V30 47049 O 6454.91 7.43686 -4.60469 0
M  V30 47050 C 6453.5 5.40275 -4.31916 0
M  V30 47051 O 6454.3 5.25279 -3.14438 0
M  V30 47052 C 6452.17 6.04847 -4.05327 0
M  V30 47053 H 6452.2 6.62195 -3.11261 0
M  V30 47054 H 6453.38 4.42556 -4.81383 0
M  V30 47055 H 6454.86 5.92458 -5.93643 0
M  V30 47056 H 6453.17 7.92655 -6.402 0
M  V30 47057 H 6452.98 6.26671 -8.0846 0
M  V30 47058 H 6451.35 6.29101 -7.32804 0
M  V30 47059 H 6453.99 5.84315 -2.47318 0
M  V30 47060 P 6455.85 7.39546 -4.75277 0
M  V30 47061 O 6457.27 7.84798 -5.01039 0
M  V30 47062 O 6455.49 5.9812 -5.08098 0
M  V30 47063 O 6455.52 7.57503 -3.1866 0
M  V30 47064 C 6455.36 8.97357 -2.74833 0
M  V30 47065 C 6455.9 9.07548 -1.32709 0
M  V30 47066 O 6454.85 8.62072 -0.606159 0
M  V30 47067 C 6457.12 8.25383 -0.938334 0
M  V30 47068 O 6457.86 8.74577 0.146954 0
M  V30 47069 C 6456.45 6.8802 -0.712559 0
M  V30 47070 O 6457.25 6.1189 0.194655 0
M  V30 47071 C 6455.12 7.27966 -0.139777 0
M  V30 47072 H 6455.15 7.25354 0.961601 0
M  V30 47073 H 6456.33 6.32557 -1.65702 0
M  V30 47074 H 6457.82 8.19355 -1.79097 0
M  V30 47075 H 6456.12 10.1294 -1.10029 0
M  V30 47076 H 6455.93 9.64276 -3.41316 0
M  V30 47077 H 6454.3 9.25417 -2.76357 0
M  V30 47078 H 6456.94 6.25267 1.07847 0
M  V30 47079 P 6458.8 8.791 -1.89631e-10 0
M  V30 47080 O 6460.22 9.31096 0.027933 0
M  V30 47081 O 6458.44 7.77869 -1.04071 0
M  V30 47082 O 6458.47 8.09533 1.41463 0
M  V30 47083 C 6458.31 9.0349 2.53943 0
M  V30 47084 C 6458.85 8.35226 3.79016 0
M  V30 47085 O 6457.8 7.57992 4.15078 0
M  V30 47086 C 6460.07 7.45087 3.67298 0
M  V30 47087 O 6460.81 7.27796 4.85194 0
M  V30 47088 C 6459.4 6.17323 3.12027 0
M  V30 47089 O 6460.2 5.04231 3.47188 0
M  V30 47090 C 6458.07 6.19961 3.81809 0
M  V30 47091 H 6458.1 5.58218 4.73051 0
M  V30 47092 H 6459.28 6.21726 2.02589 0
M  V30 47093 H 6460.77 7.86112 2.9231 0
M  V30 47094 H 6459.07 9.11627 4.55076 0
M  V30 47095 H 6458.88 9.9573 2.34194 0
M  V30 47096 H 6457.25 9.2792 2.67832 0
M  V30 47097 H 6459.89 4.67702 4.28772 0
M  V30 47098 P 6461.75 7.39546 4.75277 0
M  V30 47099 O 6463.17 7.81777 5.05738 0
M  V30 47100 O 6461.39 7.1065 3.32998 0
M  V30 47101 O 6461.43 6.04542 5.56673 0
M  V30 47102 C 6461.27 6.22772 7.02095 0
M  V30 47103 C 6461.81 4.97725 7.70406 0
M  V30 47104 O 6460.75 4.13256 7.58987 0
M  V30 47105 C 6463.02 4.28231 7.11815 0
M  V30 47106 O 6463.76 3.49945 8.01648 0
M  V30 47107 C 6462.35 3.5063 5.96244 0
M  V30 47108 O 6463.15 2.36482 5.64681 0
M  V30 47109 C 6461.02 3.15122 6.56374 0
M  V30 47110 H 6461.05 2.13853 6.99751 0
M  V30 47111 H 6462.23 4.13501 5.06559 0
M  V30 47112 H 6463.72 5.03285 6.70911 0
M  V30 47113 H 6462.02 5.20877 8.75697 0
M  V30 47114 H 6461.83 7.11046 7.35349 0
M  V30 47115 H 6460.2 6.35815 7.26986 0
M  V30 47116 H 6462.84 1.61644 6.13565 0
M  V30 47117 P 6464.7 3.65191 7.99657 0
M  V30 47118 O 6466.12 3.8425 8.48115 0
M  V30 47119 O 6464.34 4.17805 6.64342 0
M  V30 47120 O 6464.38 2.07613 7.95143 0
M  V30 47121 C 6464.22 1.44328 9.27336 0
M  V30 47122 C 6464.76 0.0220036 9.17197 0
M  V30 47123 O 6463.7 -0.626867 8.61923 0
M  V30 47124 C 6465.97 -0.24586 8.30336 0
M  V30 47125 O 6466.71 -1.39011 8.63583 0
M  V30 47126 C 6465.3 -0.273849 6.91158 0
M  V30 47127 O 6466.1 -1.06348 6.02892 0
M  V30 47128 C 6463.97 -0.897649 7.22545 0
M  V30 47129 H 6464 -1.9841 7.04286 0
M  V30 47130 H 6465.18 0.739928 6.497 0
M  V30 47131 H 6466.67 0.60668 8.36503 0
M  V30 47132 H 6464.97 -0.352479 10.1829 0
M  V30 47133 H 6464.78 2.00611 10.0304 0
M  V30 47134 H 6463.15 1.41843 9.55327 0
M  V30 47135 H 6465.79 -1.95734 6.03555 0
M  V30 47136 P 6467.65 -1.25109 8.70152 0
M  V30 47137 O 6469.07 -1.35274 9.21221 0
M  V30 47138 O 6467.29 -0.0769065 7.84762 0
M  V30 47139 O 6467.33 -2.55232 7.81161 0
M  V30 47140 C 6467.17 -3.79939 8.58154 0
M  V30 47141 C 6467.71 -4.94023 7.72785 0
M  V30 47142 O 6466.65 -5.18726 6.91205 0
M  V30 47143 C 6468.92 -4.69597 6.85231 0
M  V30 47144 O 6469.66 -5.83832 6.51337 0
M  V30 47145 C 6468.26 -3.96706 5.66633 0
M  V30 47146 O 6469.05 -4.15414 4.49689 0
M  V30 47147 C 6466.92 -4.66153 5.59313 0
M  V30 47148 H 6466.95 -5.47679 4.85214 0
M  V30 47149 H 6468.13 -2.89008 5.86566 0
M  V30 47150 H 6469.62 -4.0121 7.36511 0
M  V30 47151 H 6467.92 -5.80182 8.37584 0
M  V30 47152 H 6467.73 -3.73517 9.52265 0
M  V30 47153 H 6466.1 -3.97163 8.80359 0
M  V30 47154 H 6468.74 -4.90969 4.01921 0
M  V30 47155 P 6470.6 -5.75688 6.64379 0
M  V30 47156 O 6472.02 -6.11849 7.01846 0
M  V30 47157 O 6470.24 -4.30744 6.56026 0
M  V30 47158 O 6470.28 -6.37042 5.19165 0
M  V30 47159 C 6470.12 -7.83578 5.16515 0
M  V30 47160 C 6470.66 -8.33398 3.83019 0
M  V30 47161 O 6469.6 -8.10074 3.01034 0
M  V30 47162 C 6471.88 -7.65514 3.2257 0
M  V30 47163 O 6472.61 -8.4329 2.32297 0
M  V30 47164 C 6471.21 -6.40075 2.62207 0
M  V30 47165 O 6472.01 -5.92589 1.53712 0
M  V30 47166 C 6469.87 -6.9454 2.18503 0
M  V30 47167 H 6469.9 -7.23063 1.12091 0
M  V30 47168 H 6471.08 -5.6025 3.37201 0
M  V30 47169 H 6472.57 -7.35707 4.02681 0
M  V30 47170 H 6470.87 -9.40912 3.9095 0
M  V30 47171 H 6470.68 -8.29056 5.99158 0
M  V30 47172 H 6469.05 -8.10073 5.25882 0
M  V30 47173 H 6471.69 -6.30324 0.726794 0
M  V30 47174 P 6473.55 -8.4349 2.47671 0
M  V30 47175 O 6474.97 -8.94167 2.5964 0
M  V30 47176 O 6473.19 -7.1704 3.19006 0
M  V30 47177 O 6473.23 -8.16596 0.923387 0
M  V30 47178 C 6473.07 -9.38437 0.108857 0
M  V30 47179 C 6473.61 -9.08175 -1.28353 0
M  V30 47180 O 6472.55 -8.44229 -1.84713 0
M  V30 47181 C 6474.83 -8.18386 -1.42505 0
M  V30 47182 O 6475.56 -8.3501 -2.60497 0
M  V30 47183 C 6474.16 -6.80225 -1.25468 0
M  V30 47184 O 6474.96 -5.81621 -1.91066 0
M  V30 47185 C 6472.82 -7.02416 -1.9168 0
M  V30 47186 H 6472.85 -6.6888 -2.96621 0
M  V30 47187 H 6474.03 -6.53617 -0.192223 0
M  V30 47188 H 6475.52 -8.36622 -0.589963 0
M  V30 47189 H 6473.82 -10.0291 -1.79807 0
M  V30 47190 H 6473.63 -10.2138 0.558219 0
M  V30 47191 H 6472 -9.6579 0.0444202 0
M  V30 47192 H 6474.64 -5.69556 -2.79637 0
M  V30 47193 P 6476.5 -8.4349 -2.47671 0
M  V30 47194 O 6477.92 -8.92689 -2.65029 0
M  V30 47195 O 6476.14 -7.7568 -1.19296 0
M  V30 47196 O 6476.18 -7.36886 -3.63805 0
M  V30 47197 C 6476.02 -7.95433 -4.98253 0
M  V30 47198 C 6476.56 -6.94612 -5.98974 0
M  V30 47199 O 6475.5 -6.10277 -6.11744 0
M  V30 47200 C 6477.78 -6.11426 -5.62335 0
M  V30 47201 O 6478.51 -5.6162 -6.70584 0
M  V30 47202 C 6477.11 -5.04409 -4.73308 0
M  V30 47203 O 6477.91 -3.86404 -4.74719 0
M  V30 47204 C 6475.77 -4.8728 -5.41006 0
M  V30 47205 N 6474.73 -4.65812 -4.42377 0
M  V30 47206 C 6474.9 -5.09132 -3.15382 0
M  V30 47207 N 6473.87 -4.84021 -2.3716 0
M  V30 47208 C 6472.98 -4.18386 -3.20441 0
M  V30 47209 C 6471.72 -3.6275 -2.94905 0
M  V30 47210 N 6471.15 -3.05008 -4.05243 0
M  V30 47211 C 6471.75 -2.98348 -5.28159 0
M  V30 47212 N 6472.93 -3.48171 -5.56333 0
M  V30 47213 C 6473.51 -4.06869 -4.47212 0
M  V30 47214 H 6476.99 -5.39013 -3.70026 0
M  V30 47215 H 6478.47 -6.71916 -5.01943 0
M  V30 47216 H 6476.77 -7.45796 -6.94223 0
M  V30 47217 H 6476.58 -8.89416 -5.05237 0
M  V30 47218 H 6474.95 -8.14876 -5.18409 0
M  V30 47219 H 6475.8 -5.59989 -2.81362 0
M  V30 47220 H 6477.59 -3.27906 -5.43085 0
M  V30 47221 P 6479.45 -5.75688 -6.64379 0
M  V30 47222 O 6480.87 -6.07627 -7.05504 0
M  V30 47223 O 6479.09 -5.88047 -5.19722 0
M  V30 47224 O 6479.13 -4.2322 -7.04443 0
M  V30 47225 C 6478.97 -3.99743 -8.4911 0
M  V30 47226 C 6479.51 -2.60516 -8.79425 0
M  V30 47227 O 6478.45 -1.82684 -8.4467 0
M  V30 47228 C 6480.73 -2.10343 -8.03628 0
M  V30 47229 O 6481.46 -1.09919 -8.67766 0
M  V30 47230 C 6480.06 -1.68446 -6.70876 0
M  V30 47231 O 6480.86 -0.678137 -6.08433 0
M  V30 47232 C 6478.72 -1.17436 -7.18567 0
M  V30 47233 H 6478.75 -0.0804732 -7.31656 0
M  V30 47234 H 6479.94 -2.54037 -6.02537 0
M  V30 47235 H 6481.42 -2.93881 -7.85526 0
M  V30 47236 H 6479.73 -2.53065 -9.86973 0
M  V30 47237 H 6479.54 -4.75072 -9.05887 0
M  V30 47238 H 6477.91 -4.05244 -8.76668 0
M  V30 47239 H 6480.54 0.177647 -6.34251 0
M  V30 47240 P 6482.4 -1.25109 -8.70152 0
M  V30 47241 O 6483.82 -1.29744 -9.22016 0
M  V30 47242 O 6482.04 -2.13714 -7.55141 0
M  V30 47243 O 6482.08 0.248149 -8.21425 0
M  V30 47244 C 6481.92 1.22779 -9.30434 0
M  V30 47245 C 6482.46 2.56293 -8.80664 0
M  V30 47246 O 6481.4 3.02979 -8.09349 0
M  V30 47247 C 6483.68 2.57523 -7.89775 0
M  V30 47248 O 6484.42 3.7668 -7.89438 0
M  V30 47249 C 6483.01 2.20997 -6.55446 0
M  V30 47250 O 6483.81 2.71895 -5.48509 0
M  V30 47251 C 6481.67 2.89693 -6.67988 0
M  V30 47252 H 6481.7 3.88793 -6.19859 0
M  V30 47253 H 6482.89 1.12046 -6.44229 0
M  V30 47254 H 6484.37 1.7746 -8.19711 0
M  V30 47255 H 6482.68 3.20706 -9.67112 0
M  V30 47256 H 6482.49 0.901032 -10.1892 0
M  V30 47257 H 6480.86 1.33049 -9.56592 0
M  V30 47258 H 6483.5 3.57847 -5.23962 0
M  V30 47259 P 6485.35 3.65191 -7.99657 0
M  V30 47260 O 6486.77 3.89416 -8.45976 0
M  V30 47261 O 6484.99 2.28472 -7.50807 0
M  V30 47262 O 6485.03 4.64972 -6.77611 0
M  V30 47263 C 6484.87 6.06319 -7.16352 0
M  V30 47264 C 6485.41 6.91655 -6.02234 0
M  V30 47265 O 6484.35 6.92449 -5.17064 0
M  V30 47266 C 6486.63 6.43627 -5.25174 0
M  V30 47267 O 6487.37 7.43686 -4.60469 0
M  V30 47268 C 6485.96 5.40275 -4.31916 0
M  V30 47269 O 6486.76 5.25193 -3.14386 0
M  V30 47270 C 6484.62 6.04847 -4.05327 0
M  V30 47271 N 6483.58 5.04166 -3.98114 0
M  V30 47272 C 6483.64 3.96049 -4.75587 0
M  V30 47273 N 6482.6 3.15559 -4.54006 0
M  V30 47274 C 6481.86 3.78802 -3.62491 0
M  V30 47275 C 6480.56 3.476 -3.10071 0
M  V30 47276 O 6479.82 2.51136 -3.37021 0
M  V30 47277 N 6480.13 4.39088 -2.19956 0
M  V30 47278 C 6480.87 5.53215 -1.81733 0
M  V30 47279 N 6480.28 6.31963 -0.860928 0
M  V30 47280 N 6482.03 5.86688 -2.32562 0
M  V30 47281 C 6482.48 4.97525 -3.23407 0
M  V30 47282 H 6484.65 6.62195 -3.11261 0
M  V30 47283 H 6485.84 4.42488 -4.8131 0
M  V30 47284 H 6487.32 5.93051 -5.9305 0
M  V30 47285 H 6485.63 7.92655 -6.402 0
M  V30 47286 H 6485.44 6.26671 -8.0846 0
M  V30 47287 H 6483.81 6.29101 -7.32804 0
M  V30 47288 H 6479.23 4.25523 -1.77604 0
M  V30 47289 H 6484.44 3.75576 -5.47333 0
M  V30 47290 H 6479.37 6.04684 -0.468946 0
M  V30 47291 H 6480.74 7.18054 -0.542422 0
M  V30 47292 H 6486.45 5.84223 -2.47279 0
M  V30 47293 P 6488.3 7.39546 -4.75277 0
M  V30 47294 O 6489.73 7.84798 -5.01039 0
M  V30 47295 O 6487.94 5.9812 -5.08098 0
M  V30 47296 O 6487.98 7.57503 -3.1866 0
M  V30 47297 C 6487.82 8.97357 -2.74833 0
M  V30 47298 C 6488.36 9.07548 -1.32709 0
M  V30 47299 O 6487.3 8.62072 -0.606159 0
M  V30 47300 C 6489.58 8.25383 -0.938334 0
M  V30 47301 O 6490.32 8.74577 0.146954 0
M  V30 47302 C 6488.91 6.8802 -0.712559 0
M  V30 47303 O 6489.71 6.1189 0.194655 0
M  V30 47304 C 6487.57 7.27966 -0.139777 0
M  V30 47305 H 6487.6 7.25354 0.961601 0
M  V30 47306 H 6488.79 6.32557 -1.65702 0
M  V30 47307 H 6490.27 8.19355 -1.79097 0
M  V30 47308 H 6488.58 10.1294 -1.10029 0
M  V30 47309 H 6488.39 9.64276 -3.41316 0
M  V30 47310 H 6486.76 9.25417 -2.76357 0
M  V30 47311 H 6489.4 6.25267 1.07847 0
M  V30 47312 P 6491.25 8.791 -1.83824e-10 0
M  V30 47313 O 6492.68 9.31096 0.027933 0
M  V30 47314 O 6490.89 7.77869 -1.04071 0
M  V30 47315 O 6490.93 8.09533 1.41463 0
M  V30 47316 C 6490.77 9.0349 2.53943 0
M  V30 47317 C 6491.31 8.35226 3.79016 0
M  V30 47318 O 6490.25 7.57992 4.15078 0
M  V30 47319 C 6492.53 7.45087 3.67298 0
M  V30 47320 O 6493.27 7.27796 4.85194 0
M  V30 47321 C 6491.86 6.17323 3.12027 0
M  V30 47322 O 6492.66 5.04231 3.47188 0
M  V30 47323 C 6490.52 6.19961 3.81809 0
M  V30 47324 H 6490.55 5.58218 4.73051 0
M  V30 47325 H 6491.74 6.21726 2.02589 0
M  V30 47326 H 6493.22 7.86112 2.9231 0
M  V30 47327 H 6491.53 9.11627 4.55076 0
M  V30 47328 H 6491.34 9.9573 2.34194 0
M  V30 47329 H 6489.71 9.2792 2.67832 0
M  V30 47330 H 6492.35 4.67702 4.28772 0
M  V30 47331 P 6494.2 7.39546 4.75277 0
M  V30 47332 O 6495.63 7.81777 5.05738 0
M  V30 47333 O 6493.84 7.1065 3.32998 0
M  V30 47334 O 6493.88 6.04542 5.56673 0
M  V30 47335 C 6493.72 6.22772 7.02095 0
M  V30 47336 C 6494.26 4.97725 7.70406 0
M  V30 47337 O 6493.21 4.13256 7.58987 0
M  V30 47338 C 6495.48 4.28231 7.11815 0
M  V30 47339 O 6496.22 3.49945 8.01648 0
M  V30 47340 C 6494.81 3.5063 5.96244 0
M  V30 47341 O 6495.61 2.36482 5.64681 0
M  V30 47342 C 6493.47 3.15122 6.56374 0
M  V30 47343 H 6493.51 2.13853 6.99751 0
M  V30 47344 H 6494.69 4.13501 5.06559 0
M  V30 47345 H 6496.17 5.03285 6.70911 0
M  V30 47346 H 6494.48 5.20877 8.75697 0
M  V30 47347 H 6494.29 7.11046 7.35349 0
M  V30 47348 H 6492.66 6.35815 7.26986 0
M  V30 47349 H 6495.3 1.61644 6.13565 0
M  V30 47350 P 6497.16 3.65191 7.99657 0
M  V30 47351 O 6498.58 3.8425 8.48115 0
M  V30 47352 O 6496.8 4.17805 6.64342 0
M  V30 47353 O 6496.83 2.07613 7.95143 0
M  V30 47354 C 6496.67 1.44328 9.27336 0
M  V30 47355 C 6497.21 0.0220036 9.17197 0
M  V30 47356 O 6496.16 -0.626867 8.61923 0
M  V30 47357 C 6498.43 -0.24586 8.30336 0
M  V30 47358 O 6499.17 -1.39011 8.63583 0
M  V30 47359 C 6497.76 -0.273849 6.91158 0
M  V30 47360 O 6498.56 -1.06348 6.02892 0
M  V30 47361 C 6496.42 -0.897649 7.22545 0
M  V30 47362 H 6496.46 -1.9841 7.04286 0
M  V30 47363 H 6497.64 0.739928 6.497 0
M  V30 47364 H 6499.12 0.60668 8.36503 0
M  V30 47365 H 6497.43 -0.352479 10.1829 0
M  V30 47366 H 6497.24 2.00611 10.0304 0
M  V30 47367 H 6495.61 1.41843 9.55327 0
M  V30 47368 H 6498.25 -1.95734 6.03555 0
M  V30 47369 P 6500.11 -1.25109 8.70152 0
M  V30 47370 O 6501.53 -1.35274 9.21221 0
M  V30 47371 O 6499.75 -0.0769065 7.84762 0
M  V30 47372 O 6499.78 -2.55232 7.81161 0
M  V30 47373 C 6499.62 -3.79939 8.58154 0
M  V30 47374 C 6500.16 -4.94023 7.72785 0
M  V30 47375 O 6499.11 -5.18726 6.91205 0
M  V30 47376 C 6501.38 -4.69597 6.85231 0
M  V30 47377 O 6502.12 -5.83832 6.51337 0
M  V30 47378 C 6500.71 -3.96706 5.66633 0
M  V30 47379 O 6501.51 -4.15414 4.49689 0
M  V30 47380 C 6499.37 -4.66153 5.59313 0
M  V30 47381 H 6499.41 -5.47679 4.85214 0
M  V30 47382 H 6500.59 -2.89008 5.86566 0
M  V30 47383 H 6502.07 -4.0121 7.36511 0
M  V30 47384 H 6500.38 -5.80182 8.37584 0
M  V30 47385 H 6500.19 -3.73517 9.52265 0
M  V30 47386 H 6498.56 -3.97163 8.80359 0
M  V30 47387 H 6501.2 -4.90969 4.01921 0
M  V30 47388 P 6503.06 -5.75688 6.64379 0
M  V30 47389 O 6504.48 -6.11849 7.01846 0
M  V30 47390 O 6502.7 -4.30744 6.56026 0
M  V30 47391 O 6502.73 -6.37042 5.19165 0
M  V30 47392 C 6502.57 -7.83578 5.16515 0
M  V30 47393 C 6503.11 -8.33398 3.83019 0
M  V30 47394 O 6502.06 -8.10074 3.01034 0
M  V30 47395 C 6504.33 -7.65514 3.2257 0
M  V30 47396 O 6505.07 -8.4329 2.32297 0
M  V30 47397 C 6503.66 -6.40075 2.62207 0
M  V30 47398 O 6504.46 -5.92589 1.53712 0
M  V30 47399 C 6502.33 -6.9454 2.18503 0
M  V30 47400 H 6502.36 -7.23063 1.12091 0
M  V30 47401 H 6503.54 -5.6025 3.37201 0
M  V30 47402 H 6505.02 -7.35707 4.02681 0
M  V30 47403 H 6503.33 -9.40912 3.9095 0
M  V30 47404 H 6503.14 -8.29056 5.99158 0
M  V30 47405 H 6501.51 -8.10073 5.25882 0
M  V30 47406 H 6504.15 -6.30324 0.726794 0
M  V30 47407 P 6506.01 -8.4349 2.47671 0
M  V30 47408 O 6507.43 -8.94167 2.5964 0
M  V30 47409 O 6505.65 -7.1704 3.19006 0
M  V30 47410 O 6505.68 -8.16596 0.923387 0
M  V30 47411 C 6505.52 -9.38437 0.108857 0
M  V30 47412 C 6506.06 -9.08175 -1.28353 0
M  V30 47413 O 6505.01 -8.44229 -1.84713 0
M  V30 47414 C 6507.28 -8.18386 -1.42505 0
M  V30 47415 O 6508.02 -8.3501 -2.60497 0
M  V30 47416 C 6506.61 -6.80225 -1.25468 0
M  V30 47417 O 6507.41 -5.81621 -1.91066 0
M  V30 47418 C 6505.28 -7.02416 -1.9168 0
M  V30 47419 H 6505.31 -6.6888 -2.96621 0
M  V30 47420 H 6506.49 -6.53617 -0.192223 0
M  V30 47421 H 6507.97 -8.36622 -0.589963 0
M  V30 47422 H 6506.28 -10.0291 -1.79807 0
M  V30 47423 H 6506.09 -10.2138 0.558219 0
M  V30 47424 H 6504.46 -9.6579 0.0444202 0
M  V30 47425 H 6507.1 -5.69556 -2.79637 0
M  V30 47426 P 6508.96 -8.4349 -2.47671 0
M  V30 47427 O 6510.38 -8.92785 -2.65057 0
M  V30 47428 O 6508.6 -7.7568 -1.19296 0
M  V30 47429 O 6508.63 -7.36886 -3.63805 0
M  V30 47430 C 6508.47 -7.95349 -4.982 0
M  V30 47431 C 6509.01 -6.94537 -5.98908 0
M  V30 47432 O 6507.96 -6.10347 -6.11815 0
M  V30 47433 C 6510.23 -6.11426 -5.62335 0
M  V30 47434 O 6510.97 -5.6162 -6.70584 0
M  V30 47435 C 6509.56 -5.04409 -4.73308 0
M  V30 47436 O 6510.36 -3.85929 -4.75106 0
M  V30 47437 C 6508.23 -4.8728 -5.41006 0
M  V30 47438 N 6507.18 -4.65812 -4.42377 0
M  V30 47439 C 6507.25 -5.27109 -3.24335 0
M  V30 47440 N 6506.2 -4.94293 -2.47735 0
M  V30 47441 C 6505.47 -4.1271 -3.23359 0
M  V30 47442 C 6504.16 -3.56384 -2.99934 0
M  V30 47443 O 6503.43 -3.69331 -2.00616 0
M  V30 47444 N 6503.73 -2.80206 -4.03316 0
M  V30 47445 C 6504.48 -2.58614 -5.2172 0
M  V30 47446 N 6503.88 -1.75154 -6.13278 0
M  V30 47447 N 6505.63 -3.13689 -5.47619 0
M  V30 47448 C 6506.09 -3.90921 -4.46436 0
M  V30 47449 H 6508.26 -4.02333 -6.11157 0
M  V30 47450 H 6509.44 -5.39383 -3.69487 0
M  V30 47451 H 6510.93 -6.71414 -5.02615 0
M  V30 47452 H 6509.23 -7.4649 -6.93477 0
M  V30 47453 H 6509.04 -8.89416 -5.05237 0
M  V30 47454 H 6507.41 -8.14876 -5.18409 0
M  V30 47455 H 6502.83 -2.36355 -3.95916 0
M  V30 47456 H 6508.04 -5.95212 -2.93859 0
M  V30 47457 H 6502.97 -1.32473 -5.91856 0
M  V30 47458 H 6504.35 -1.5588 -7.03026 0
M  V30 47459 H 6510.05 -3.27906 -5.43085 0
M  V30 47460 P 6511.91 -5.75688 -6.64379 0
M  V30 47461 O 6513.33 -6.07627 -7.05504 0
M  V30 47462 O 6511.55 -5.88047 -5.19722 0
M  V30 47463 O 6511.58 -4.2322 -7.04443 0
M  V30 47464 C 6511.42 -3.99743 -8.4911 0
M  V30 47465 C 6511.96 -2.60516 -8.79425 0
M  V30 47466 O 6510.91 -1.82684 -8.4467 0
M  V30 47467 C 6513.18 -2.10343 -8.03628 0
M  V30 47468 O 6513.92 -1.09919 -8.67766 0
M  V30 47469 C 6512.51 -1.68446 -6.70876 0
M  V30 47470 O 6513.31 -0.678137 -6.08433 0
M  V30 47471 C 6511.18 -1.17436 -7.18567 0
M  V30 47472 H 6511.21 -0.0804732 -7.31656 0
M  V30 47473 H 6512.39 -2.54037 -6.02537 0
M  V30 47474 H 6513.88 -2.93881 -7.85526 0
M  V30 47475 H 6512.18 -2.53065 -9.86973 0
M  V30 47476 H 6511.99 -4.75072 -9.05887 0
M  V30 47477 H 6510.36 -4.05244 -8.76668 0
M  V30 47478 H 6513 0.177647 -6.34251 0
M  V30 47479 P 6514.86 -1.25109 -8.70152 0
M  V30 47480 O 6516.26 -1.3516 -9.26897 0
M  V30 47481 O 6514.48 -2.18141 -7.59181 0
M  V30 47482 O 6514.54 0.248118 -8.21325 0
M  V30 47483 C 6514.38 1.22779 -9.30434 0
M  V30 47484 C 6514.92 2.56265 -8.80568 0
M  V30 47485 O 6513.86 3.02944 -8.09255 0
M  V30 47486 C 6516.13 2.57523 -7.89775 0
M  V30 47487 O 6516.87 3.7668 -7.89438 0
M  V30 47488 C 6515.47 2.20997 -6.55446 0
M  V30 47489 O 6516.26 2.71851 -5.48419 0
M  V30 47490 C 6514.13 2.89693 -6.67988 0
M  V30 47491 N 6513.08 2.08895 -6.07487 0
M  V30 47492 C 6512.05 2.72974 -5.43836 0
M  V30 47493 O 6512.09 3.97779 -5.34036 0
M  V30 47494 N 6511.04 2.0005 -4.91983 0
M  V30 47495 C 6511.09 0.66501 -5.00098 0
M  V30 47496 C 6512.18 -0.0100979 -5.61099 0
M  V30 47497 C 6513.15 0.74189 -6.14236 0
M  V30 47498 H 6514.16 3.8874 -6.19774 0
M  V30 47499 H 6515.34 1.12673 -6.44018 0
M  V30 47500 H 6516.83 1.783 -8.19631 0
M  V30 47501 H 6515.13 3.21673 -9.66791 0
M  V30 47502 H 6514.94 0.901032 -10.1892 0
M  V30 47503 H 6513.31 1.33036 -9.56493 0
M  V30 47504 H 6512.23 -1.09591 -5.64358 0
M  V30 47505 H 6513.99 0.260263 -6.6359 0
M  V30 47506 H 6516.05 3.62759 -5.33442 0
M  V30 47507 P 6517.81 3.65191 -7.99657 0
M  V30 47508 O 6519.23 3.89374 -8.45885 0
M  V30 47509 O 6517.45 2.28472 -7.50807 0
M  V30 47510 O 6517.49 4.64972 -6.77611 0
M  V30 47511 C 6517.33 6.06383 -7.16428 0
M  V30 47512 C 6517.87 6.91731 -6.02299 0
M  V30 47513 O 6516.81 6.92369 -5.17005 0
M  V30 47514 C 6519.08 6.43627 -5.25174 0
M  V30 47515 O 6519.82 7.43686 -4.60469 0
M  V30 47516 C 6518.42 5.40275 -4.31916 0
M  V30 47517 O 6519.21 5.24878 -3.14911 0
M  V30 47518 C 6517.08 6.04847 -4.05327 0
M  V30 47519 N 6516.04 5.04166 -3.98114 0
M  V30 47520 C 6516.2 3.84629 -4.59066 0
M  V30 47521 N 6515.18 3.0363 -4.45343 0
M  V30 47522 C 6514.29 3.76722 -3.68523 0
M  V30 47523 C 6513.03 3.43528 -3.17088 0
M  V30 47524 N 6512.46 4.44526 -2.44231 0
M  V30 47525 C 6513.06 5.65243 -2.20146 0
M  V30 47526 N 6514.24 6.00221 -2.65453 0
M  V30 47527 C 6514.81 5.00564 -3.39083 0
M  V30 47528 H 6518.29 4.42969 -4.80867 0
M  V30 47529 H 6519.78 5.92458 -5.93643 0
M  V30 47530 H 6518.08 7.93295 -6.39407 0
M  V30 47531 H 6517.89 6.26671 -8.0846 0
M  V30 47532 H 6516.26 6.29101 -7.32804 0
M  V30 47533 H 6517.1 3.58193 -5.14248 0
M  V30 47534 H 6518.9 5.84223 -2.47279 0
M  V30 47535 P 6520.76 7.39546 -4.75277 0
M  V30 47536 O 6522.18 7.84798 -5.01039 0
M  V30 47537 O 6520.4 5.9812 -5.08098 0
M  V30 47538 O 6520.44 7.57503 -3.1866 0
M  V30 47539 C 6520.28 8.97357 -2.74833 0
M  V30 47540 C 6520.82 9.07548 -1.32709 0
M  V30 47541 O 6519.76 8.62072 -0.606159 0
M  V30 47542 C 6522.03 8.25383 -0.938334 0
M  V30 47543 O 6522.77 8.74577 0.146954 0
M  V30 47544 C 6521.37 6.8802 -0.712559 0
M  V30 47545 O 6522.16 6.1189 0.194655 0
M  V30 47546 C 6520.03 7.27966 -0.139777 0
M  V30 47547 H 6520.06 7.25354 0.961601 0
M  V30 47548 H 6521.24 6.32557 -1.65702 0
M  V30 47549 H 6522.73 8.19355 -1.79097 0
M  V30 47550 H 6521.03 10.1294 -1.10029 0
M  V30 47551 H 6520.84 9.64276 -3.41316 0
M  V30 47552 H 6519.21 9.25417 -2.76357 0
M  V30 47553 H 6521.85 6.25267 1.07847 0
M  V30 47554 P 6523.71 8.791 -1.78017e-10 0
M  V30 47555 O 6525.13 9.31096 0.027933 0
M  V30 47556 O 6523.35 7.77869 -1.04071 0
M  V30 47557 O 6523.39 8.09533 1.41463 0
M  V30 47558 C 6523.23 9.0349 2.53943 0
M  V30 47559 C 6523.77 8.35226 3.79016 0
M  V30 47560 O 6522.71 7.57992 4.15078 0
M  V30 47561 C 6524.99 7.45087 3.67298 0
M  V30 47562 O 6525.72 7.27796 4.85194 0
M  V30 47563 C 6524.32 6.17323 3.12027 0
M  V30 47564 O 6525.12 5.04231 3.47188 0
M  V30 47565 C 6522.98 6.19961 3.81809 0
M  V30 47566 H 6523.01 5.58218 4.73051 0
M  V30 47567 H 6524.19 6.21726 2.02589 0
M  V30 47568 H 6525.68 7.86112 2.9231 0
M  V30 47569 H 6523.98 9.11627 4.55076 0
M  V30 47570 H 6523.79 9.9573 2.34194 0
M  V30 47571 H 6522.16 9.2792 2.67832 0
M  V30 47572 H 6524.8 4.67702 4.28772 0
M  V30 47573 H 6527.36 6.95226 4.42681 0
M  V30 END ATOM
M  V30 BEGIN BOND
M  V30 END BOND
M  V30 END CTAB
M  END
$$$$
