drugbank_target|Q05397 Focal adhesion kinase 1 (DB06423; DB07248; DB07460; DB12010)
 OpenBabel12092120273D

  0  0  0     0  0            999 V3000
M  V30 BEGIN CTAB
M  V30 COUNTS 16701 16892 0 0 0
M  V30 BEGIN ATOM
M  V30 1 H -0.908 1.98254 -0.117106 0
M  V30 2 N 0 1.576 0 0
M  V30 3 C 0.933 2.03868 1.02534 0
M  V30 4 C 1.911 0.928543 1.3348 0
M  V30 5 O 3.095 1.19667 1.45644 0
M  V30 6 C 0.222 2.43627 2.35294 0
M  V30 7 C -0.732 3.65373 2.2001 0
M  V30 8 S 0.101 5.13292 1.52614 0
M  V30 9 C 1.257 5.56322 2.86805 0
M  V30 10 H 1.49 2.90518 0.631377 0
M  V30 11 H -0.977 1.52953 0.210867 0
M  V30 12 H 0.981 2.67203 3.11629 0
M  V30 13 H -0.358 1.57376 2.7183 0
M  V30 14 H -1.165 3.90944 3.18086 0
M  V30 15 H -1.563 3.418 1.51819 0
M  V30 16 H 0.729 5.58782 3.83104 0
M  V30 17 H 1.672 6.56266 2.65933 0
M  V30 18 H 2.08 4.83886 2.90714 0
M  V30 19 N 1.4781 -0.272755 1.55222 0
M  V30 20 C 2.4411 -1.32041 1.87344 0
M  V30 21 C 3.4411 -1.42342 0.74803 0
M  V30 22 O 4.6311 -1.41488 1.0162 0
M  V30 23 C 1.7631 -2.70173 2.07893 0
M  V30 24 H 2.9561 -1.04789 2.80997 0
M  V30 25 H 0.5091 -0.51083 1.47717 0
M  V30 26 H 1.2441 -3.02605 1.16622 0
M  V30 27 H 1.0291 -2.64082 2.89833 0
M  V30 28 H 2.5191 -3.45869 2.34017 0
M  V30 29 N 2.9562 -1.48159 -0.537278 0
M  V30 30 C 3.9192 -1.61665 -1.62472 0
M  V30 31 C 4.9192 -0.490395 -1.5314 0
M  V30 32 O 6.1092 -0.755998 -1.5694 0
M  V30 33 C 3.2412 -1.57997 -3.02076 0
M  V30 34 H 4.4342 -2.58621 -1.51839 0
M  V30 35 H 1.9872 -1.36647 -0.758771 0
M  V30 36 H 2.7222 -0.624913 -3.18222 0
M  V30 37 H 2.5072 -2.39755 -3.10258 0
M  V30 38 H 3.9972 -1.70627 -3.81151 0
M  V30 39 N 4.4343 0.785586 -1.36625 0
M  V30 40 C 5.3973 1.87999 -1.31107 0
M  V30 41 C 6.3973 1.59316 -0.217959 0
M  V30 42 O 7.5873 1.67656 -0.472977 0
M  V30 43 C 4.7193 3.24861 -1.03334 0
M  V30 44 H 5.9123 1.94307 -2.2844 0
M  V30 45 H 3.4653 0.983813 -1.21453 0
M  V30 46 H 4.2003 3.24235 -0.0647432 0
M  V30 47 H 3.9853 3.4707 -1.82441 0
M  V30 48 H 5.4753 4.04929 -1.02088 0
M  V30 49 N 5.9124 1.20967 1.01018 0
M  V30 50 C 7.1424 1.04803 1.78044 0
M  V30 51 C 7.5504 -0.405462 1.84804 0
M  V30 52 O 6.8934 -1.2932 1.30468 0
M  V30 53 C 6.9554 1.56377 3.23707 0
M  V30 54 C 6.6194 3.04767 3.40538 0
M  V30 55 C 7.6164 4.02366 3.29239 0
M  V30 56 C 5.3014 3.43862 3.66147 0
M  V30 57 C 7.2954 5.37049 3.43304 0
M  V30 58 C 4.9824 4.78699 3.79855 0
M  V30 59 C 5.9804 5.75101 3.68439 0
M  V30 60 O 5.6684 7.07493 3.81719 0
M  V30 61 H 5.4004 0.368778 0.56655 0
M  V30 62 H 7.9544 1.60642 1.27997 0
M  V30 63 H 6.1844 0.949297 3.74867 0
M  V30 64 H 7.8734 1.36136 3.8239 0
M  V30 65 H 8.6394 3.73506 3.09384 0
M  V30 66 H 4.5184 2.69364 3.74118 0
M  V30 67 H 8.0624 6.12277 3.34309 0
M  V30 68 H 3.9594 5.07247 3.99213 0
M  V30 69 H 4.7274 7.1483 3.98697 0
M  V30 70 N 7.3905 -1.2043 1.01659 0
M  V30 71 C 8.3205 -2.25466 0.607226 0
M  V30 72 C 9.3015 -1.65853 -0.377716 0
M  V30 73 O 10.4865 -1.92409 -0.263149 0
M  V30 74 C 7.6165 -3.47256 -0.0552949 0
M  V30 75 C 6.5705 -4.19462 0.850632 0
M  V30 76 C 5.8965 -5.34673 0.0538859 0
M  V30 77 C 7.1965 -4.75603 2.15868 0
M  V30 78 H 8.8905 -2.59962 1.48526 0
M  V30 79 H 6.4365 -1.2496 0.715605 0
M  V30 80 H 8.3895 -4.19917 -0.353233 0
M  V30 81 H 7.1135 -3.11924 -0.968045 0
M  V30 82 H 5.7725 -3.48667 1.13257 0
M  V30 83 H 5.4205 -4.95585 -0.860514 0
M  V30 84 H 5.1205 -5.83913 0.657192 0
M  V30 85 H 6.6445 -6.10138 -0.237598 0
M  V30 86 H 8.0585 -5.40083 1.92311 0
M  V30 87 H 6.4555 -5.3528 2.71284 0
M  V30 88 H 7.5255 -3.94346 2.82169 0
M  V30 89 N 8.8686 -0.792821 -1.36206 0
M  V30 90 C 10.1456 -0.290627 -1.93429 0
M  V30 91 C 10.5256 1.21773 -1.72437 0
M  V30 92 O 9.8736 2.0108 -1.08531 0
M  V30 93 C 10.0836 -0.686973 -3.42172 0
M  V30 94 C 11.4316 -0.668643 -4.19302 0
M  V30 95 O 12.4556 -0.627658 -3.50626 0
M  V30 96 O 11.3146 -0.714597 -5.41808 0
M  V30 97 H 8.4086 -0.0727927 -0.82379 0
M  V30 98 H 10.9546 -0.875593 -1.45367 0
M  V30 99 H 9.7266 -1.72711 -3.51122 0
M  V30 100 H 9.3496 -0.0760733 -3.97527 0
M  V30 101 N 10.3467 1.47872 -0.545128 0
M  V30 102 C 11.7577 1.86384 -0.108581 0
M  V30 103 C 12.1087 1.45309 1.31832 0
M  V30 104 O 11.2337 0.850641 1.9898 0
M  V30 105 C 11.8287 3.38265 -0.190274 0
M  V30 106 C 10.3877 3.75914 0.191164 0
M  V30 107 C 9.5347 2.71926 -0.543273 0
M  V30 108 H 12.4857 1.39561 -0.755537 0
M  V30 109 H 12.5067 3.75831 0.594217 0
M  V30 110 H 12.0187 3.6813 -1.2289 0
M  V30 111 H 10.1197 3.51665 1.23136 0
M  V30 112 H 10.2327 4.78836 -0.158987 0
M  V30 113 H 8.5967 2.54697 0.0122495 0
M  V30 114 H 9.3797 3.04634 -1.58282 0
M  V30 115 N 11.8248 0.280983 1.55075 0
M  V30 116 C 12.7728 -0.619864 2.24188 0
M  V30 117 C 13.7668 -1.15315 1.24092 0
M  V30 118 O 14.9728 -1.1061 1.42005 0
M  V30 119 H 11.3478 -0.218459 0.719569 0
M  V30 120 H 13.3188 -0.0141831 2.98397 0
M  V30 121 C 12.0678 -1.7899 2.98091 0
M  V30 122 H 11.3908 -1.38874 3.74905 0
M  V30 123 H 12.8308 -2.39672 3.49762 0
M  V30 124 C 11.2898 -2.68192 2.03899 0
M  V30 125 O 11.8198 -3.6872 1.594 0
M  V30 126 N 10.0258 -2.35488 1.70275 0
M  V30 127 H 9.5728 -1.53787 2.06658 0
M  V30 128 H 9.5308 -2.95442 1.07524 0
M  V30 129 N 13.3029 -1.57598 0.00835791 0
M  V30 130 C 14.2329 -2.1198 -0.979113 0
M  V30 131 C 15.2139 -1.03091 -1.35301 0
M  V30 132 O 16.3989 -1.30818 -1.43528 0
M  V30 133 C 13.5289 -2.62995 -2.26828 0
M  V30 134 C 12.4829 -3.76485 -2.03576 0
M  V30 135 C 11.8089 -4.13846 -3.38579 0
M  V30 136 C 13.1089 -5.0342 -1.39161 0
M  V30 137 H 14.8029 -2.94738 -0.526281 0
M  V30 138 H 12.3489 -1.41783 -0.251704 0
M  V30 139 H 14.3019 -2.99669 -2.96271 0
M  V30 140 H 13.0259 -1.7737 -2.7424 0
M  V30 141 H 11.6849 -3.40217 -1.36557 0
M  V30 142 H 11.3329 -3.25232 -3.83709 0
M  V30 143 H 11.0329 -4.90312 -3.23834 0
M  V30 144 H 12.5569 -4.53086 -4.09323 0
M  V30 145 H 13.9709 -5.37812 -1.98573 0
M  V30 146 H 12.3679 -5.84746 -1.34878 0
M  V30 147 H 13.4379 -4.83548 -0.361868 0
M  V30 148 N 14.781 0.264519 -1.55364 0
M  V30 149 C 15.729 1.34702 -1.89626 0
M  V30 150 C 16.723 1.50712 -0.773459 0
M  V30 151 O 17.929 1.52395 -0.957897 0
M  V30 152 H 14.304 0.450682 -0.601988 0
M  V30 153 H 16.275 1.0306 -2.80038 0
M  V30 154 C 15.024 2.6989 -2.19214 0
M  V30 155 H 14.347 2.58365 -3.05103 0
M  V30 156 H 15.787 3.44553 -2.47102 0
M  V30 157 C 14.246 3.21637 -1.00254 0
M  V30 158 O 14.776 4.00973 -0.241501 0
M  V30 159 N 12.982 2.7943 -0.797938 0
M  V30 160 H 12.529 2.15026 -1.4185 0
M  V30 161 H 12.487 3.144 -0.00363422 0
M  V30 162 N 16.2591 1.48442 0.529413 0
M  V30 163 C 17.2091 1.59407 1.63014 0
M  V30 164 C 18.1931 0.451166 1.54445 0
M  V30 165 O 19.3851 0.702635 1.62456 0
M  V30 166 C 16.5141 1.63746 3.01732 0
M  V30 167 C 15.6001 2.83518 3.15402 0
M  V30 168 N 15.9911 4.07929 2.99045 0
M  V30 169 C 14.2891 2.80862 3.46457 0
M  V30 170 C 14.9901 4.8829 3.16146 0
M  V30 171 N 13.9661 4.21117 3.43746 0
M  V30 172 H 17.7681 2.53343 1.48978 0
M  V30 173 H 15.2821 1.44821 0.734885 0
M  V30 174 H 17.2791 1.69695 3.80801 0
M  V30 175 H 15.9391 0.709264 3.16859 0
M  V30 176 H 16.9501 4.38357 2.75796 0
M  V30 177 H 13.6271 1.97301 3.67938 0
M  V30 178 H 15.0171 5.97028 3.08232 0
M  V30 179 N 17.7372 -0.778329 1.37039 0
M  V30 180 C 18.9652 -1.56734 1.35063 0
M  V30 181 C 19.3802 -1.88686 -0.0655597 0
M  V30 182 O 18.7372 -1.5096 -1.02554 0
M  V30 183 C 18.7882 -2.88163 2.18276 0
M  V30 184 O 18.5092 -2.57583 3.54376 0
M  V30 185 C 20.0102 -3.82422 2.24206 0
M  V30 186 H 17.2302 -0.485778 0.462883 0
M  V30 187 H 19.7742 -0.965185 1.8029 0
M  V30 188 H 17.9292 -3.44818 1.76576 0
M  V30 189 H 18.3432 -3.41699 3.97922 0
M  V30 190 H 19.8172 -4.71667 2.86765 0
M  V30 191 H 20.2942 -4.21078 1.24861 0
M  V30 192 H 20.9002 -3.31697 2.6619 0
M  V30 193 N 19.2153 -1.21501 -1.00376 0
M  V30 194 C 20.6263 -1.03146 -1.55621 0
M  V30 195 C 20.9773 0.408375 -1.91903 0
M  V30 196 O 20.1023 1.29177 -1.73616 0
M  V30 197 C 20.6973 -1.86612 -2.82775 0
M  V30 198 C 19.2563 -1.72586 -3.34501 0
M  V30 199 C 18.4033 -1.83747 -2.07683 0
M  V30 200 H 21.3543 -1.35505 -0.826081 0
M  V30 201 H 21.3753 -1.3771 -3.54706 0
M  V30 202 H 20.8873 -2.91399 -2.56336 0
M  V30 203 H 18.9883 -0.704877 -3.65872 0
M  V30 204 H 19.1013 -2.54623 -4.05837 0
M  V30 205 H 17.4653 -1.27069 -2.20739 0
M  V30 206 H 18.2483 -2.90044 -1.83655 0
M  V30 207 N 20.6934 1.19889 -1.02296 0
M  V30 208 C 21.6414 2.24938 -0.592081 0
M  V30 209 C 22.6354 1.65257 0.372357 0
M  V30 210 O 23.8414 1.78371 0.241583 0
M  V30 211 H 20.2164 0.731787 -0.173182 0
M  V30 212 H 22.1874 2.58603 -1.48885 0
M  V30 213 C 20.9364 3.47668 0.047351 0
M  V30 214 H 20.2594 3.93875 -0.685772 0
M  V30 215 H 21.6994 4.22852 0.311862 0
M  V30 216 C 20.1584 3.11136 1.29212 0
M  V30 217 O 20.6884 3.2325 2.38479 0
M  V30 218 N 18.8944 2.65625 1.17863 0
M  V30 219 H 18.4414 2.55968 0.289493 0
M  V30 220 H 18.3994 2.41553 2.01245 0
M  V30 221 N 22.1715 0.800033 1.35784 0
M  V30 222 C 23.3965 0.388511 2.03729 0
M  V30 223 C 23.8215 -0.990481 1.5991 0
M  V30 224 O 23.1795 -1.64013 0.772612 0
M  V30 225 C 23.2275 0.4726 3.5749 0
M  V30 226 O 22.3315 -0.51646 4.09153 0
M  V30 227 H 21.6725 0.163271 0.643614 0
M  V30 228 H 24.2025 1.0841 1.73518 0
M  V30 229 H 24.2125 0.34003 4.06581 0
M  V30 230 H 22.8875 1.47848 3.88734 0
M  V30 231 H 21.4645 -0.344673 3.71304 0
M  V30 232 N 23.6496 -1.47581 0.552962 0
M  V30 233 C 24.8746 -2.07378 0.0300593 0
M  V30 234 C 25.2996 -1.40355 -1.25229 0
M  V30 235 O 24.6576 -0.477099 -1.7491 0
M  V30 236 C 24.7056 -3.60274 -0.153231 0
M  V30 237 O 23.8096 -3.94041 -1.21678 0
M  V30 238 H 23.1506 -0.662158 0.0494182 0
M  V30 239 H 25.6806 -1.89662 0.767434 0
M  V30 240 H 25.6906 -4.0633 -0.368761 0
M  V30 241 H 24.3656 -4.08455 0.783397 0
M  V30 242 H 22.9426 -3.59735 -0.982079 0
M  V30 243 N 25.1277 -0.289203 -1.54924 0
M  V30 244 C 26.3557 0.326463 -2.04308 0
M  V30 245 C 26.7707 1.48413 -1.16701 0
M  V30 246 O 26.1277 1.81507 -0.190087 0
M  V30 247 C 26.1787 0.794014 -3.52672 0
M  V30 248 O 25.8997 -0.317564 -4.36948 0
M  V30 249 C 27.4007 1.47605 -4.18004 0
M  V30 250 H 24.6207 0.0726272 -0.667058 0
M  V30 251 H 27.1647 -0.425401 -2.00026 0
M  V30 252 H 25.3197 1.49593 -3.57352 0
M  V30 253 H 25.7337 0.0443186 -5.24481 0
M  V30 254 H 27.2077 1.75447 -5.23376 0
M  V30 255 H 27.6847 2.41224 -3.67025 0
M  V30 256 H 28.2907 0.81762 -4.17367 0
M  V30 257 N 26.6058 1.57591 -0.0167156 0
M  V30 258 C 27.5528 2.09462 0.969251 0
M  V30 259 C 28.5228 0.99381 1.33089 0
M  V30 260 O 29.7078 1.26726 1.42636 0
M  V30 261 C 26.8478 2.61622 2.25051 0
M  V30 262 C 25.9608 3.85666 1.94642 0
M  V30 263 C 25.0958 4.26266 3.16972 0
M  V30 264 C 24.1348 5.43101 2.82326 0
M  V30 265 N 23.2718 5.78915 3.97243 0
M  V30 266 H 28.1118 2.93428 0.519997 0
M  V30 267 H 25.6488 1.45044 0.245087 0
M  V30 268 H 27.6068 2.89949 2.99976 0
M  V30 269 H 26.2368 1.80505 2.67615 0
M  V30 270 H 25.2888 3.64145 1.10013 0
M  V30 271 H 26.6008 4.70678 1.65117 0
M  V30 272 H 25.7548 4.55963 4.00228 0
M  V30 273 H 24.4938 3.39996 3.49648 0
M  V30 274 H 23.4988 5.1311 1.97479 0
M  V30 275 H 24.7238 6.3106 2.50879 0
M  V30 276 H 22.6698 4.95602 4.29785 0
M  V30 277 H 22.5868 6.58539 3.71299 0
M  V30 278 H 23.8548 6.13212 4.81239 0
M  V30 279 N 28.0839 -0.256276 1.55502 0
M  V30 280 C 29.3119 -1.00342 1.8094 0
M  V30 281 C 29.7269 -1.79307 0.59114 0
M  V30 282 O 29.0839 -1.77114 -0.440081 0
M  V30 283 C 29.1349 -1.94875 3.04476 0
M  V30 284 O 28.8559 -1.19107 4.21598 0
M  V30 285 C 30.3569 -2.81266 3.42644 0
M  V30 286 H 27.5769 -0.295685 0.602338 0
M  V30 287 H 30.1209 -0.281998 2.02546 0
M  V30 288 H 28.2759 -2.62457 2.84947 0
M  V30 289 H 28.6899 -1.82969 4.91551 0
M  V30 290 H 30.1639 -3.43362 4.32211 0
M  V30 291 H 30.6409 -3.51897 2.62802 0
M  V30 292 H 31.2469 -2.1915 3.64491 0
M  V30 293 N 29.562 -1.4872 -0.521534 0
M  V30 294 C 30.512 -1.60269 -1.62166 0
M  V30 295 C 31.496 -0.45935 -1.54204 0
M  V30 296 O 32.688 -0.711241 -1.62081 0
M  V30 297 C 29.817 -1.65344 -3.00859 0
M  V30 298 C 28.903 -2.85187 -3.13894 0
M  V30 299 N 29.294 -4.09509 -2.96877 0
M  V30 300 C 27.592 -2.82695 -3.44963 0
M  V30 301 C 28.293 -4.89959 -3.13552 0
M  V30 302 N 27.269 -4.22934 -3.41508 0
M  V30 303 H 31.071 -2.5413 -1.47632 0
M  V30 304 H 28.585 -1.45209 -0.727194 0
M  V30 305 H 30.582 -1.71713 -3.79895 0
M  V30 306 H 29.242 -0.726058 -3.16478 0
M  V30 307 H 30.253 -4.39814 -2.73467 0
M  V30 308 H 26.93 -1.99249 -3.66887 0
M  V30 309 H 28.32 -5.98654 -3.05061 0
M  V30 310 N 31.0401 0.771051 -1.3745 0
M  V30 311 C 31.9701 1.89827 -1.3597 0
M  V30 312 C 32.9511 1.68562 -0.228216 0
M  V30 313 O 34.1361 1.8941 -0.428675 0
M  V30 314 C 31.2661 3.2712 -1.16662 0
M  V30 315 C 30.2201 3.6295 -2.2683 0
M  V30 316 C 29.5461 4.98791 -1.92644 0
M  V30 317 C 30.8461 3.69627 -3.69017 0
M  V30 318 H 32.5401 1.91323 -2.30295 0
M  V30 319 H 30.0861 0.919082 -1.10855 0
M  V30 320 H 32.0391 4.05615 -1.14256 0
M  V30 321 H 30.7631 3.26059 -0.187926 0
M  V30 322 H 29.4221 2.86763 -2.28392 0
M  V30 323 H 29.0701 4.94271 -0.933021 0
M  V30 324 H 28.7701 5.23733 -2.66416 0
M  V30 325 H 30.2941 5.79685 -1.91826 0
M  V30 326 H 31.7081 4.38273 -3.69581 0
M  V30 327 H 30.1051 4.06067 -4.41848 0
M  V30 328 H 31.1751 2.70273 -4.02592 0
M  V30 329 N 32.5182 1.22032 0.997298 0
M  V30 330 C 33.7662 1.04016 1.73278 0
M  V30 331 C 34.0872 -0.426255 1.90284 0
M  V30 332 O 33.3572 -1.30694 1.45931 0
M  V30 333 H 31.9372 0.381897 0.642 0
M  V30 334 H 34.5992 1.5347 1.20137 0
M  V30 335 H 33.6952 1.51441 2.72896 0
M  V30 336 N 33.9963 -1.19345 1.0293 0
M  V30 337 C 35.2243 -1.92997 0.745644 0
M  V30 338 C 35.6393 -1.75519 -0.695589 0
M  V30 339 O 34.9963 -1.07737 -1.47306 0
M  V30 340 C 35.0473 -3.44741 1.08792 0
M  V30 341 O 34.7683 -3.61658 2.47256 0
M  V30 342 C 36.2693 -4.35515 0.827129 0
M  V30 343 H 33.4893 -0.613042 0.272801 0
M  V30 344 H 36.0333 -1.51473 1.3739 0
M  V30 345 H 34.1883 -3.84097 0.504832 0
M  V30 346 H 34.6023 -4.55514 2.60015 0
M  V30 347 H 36.0763 -5.40589 1.11658 0
M  V30 348 H 36.5533 -4.38552 -0.238436 0
M  V30 349 H 37.1593 -4.01841 1.39297 0
M  V30 350 N 35.4744 -0.807222 -1.35358 0
M  V30 351 C 36.7224 -0.387122 -1.98358 0
M  V30 352 C 37.0434 1.04942 -1.64354 0
M  V30 353 O 36.3134 1.72615 -0.926339 0
M  V30 354 H 34.8934 -0.140154 -0.733734 0
M  V30 355 H 37.5554 -1.0332 -1.6526 0
M  V30 356 H 36.6514 -0.493352 -3.08176 0
M  V30 357 N 36.9525 1.47285 -0.560781 0
M  V30 358 C 37.8855 2.27009 0.232821 0
M  V30 359 C 38.8635 1.34273 0.917039 0
M  V30 360 O 40.0475 1.63659 0.935315 0
M  V30 361 C 37.1745 3.11406 1.33206 0
M  V30 362 C 36.2205 4.19746 0.756019 0
M  V30 363 S 37.0535 5.34003 -0.400165 0
M  V30 364 C 38.2095 6.21964 0.700805 0
M  V30 365 H 38.4425 2.93971 -0.443683 0
M  V30 366 H 35.9755 1.50446 -0.347181 0
M  V30 367 H 37.9335 3.60601 1.96156 0
M  V30 368 H 36.5945 2.438 1.98041 0
M  V30 369 H 35.7875 4.78541 1.5816 0
M  V30 370 H 35.3895 3.73451 0.202619 0
M  V30 371 H 37.6815 6.58529 1.59202 0
M  V30 372 H 38.6245 7.07941 0.150126 0
M  V30 373 H 39.0325 5.5566 0.995083 0
M  V30 374 N 38.4306 0.297415 1.54768 0
M  V30 375 C 39.3406 -0.58983 2.27064 0
M  V30 376 C 40.3566 -1.15144 1.30453 0
M  V30 377 O 41.5326 -1.17699 1.63428 0
M  V30 378 C 38.5976 -1.74714 2.9946 0
M  V30 379 C 37.6586 -1.21997 4.11601 0
M  V30 380 C 36.8916 -2.32212 4.80535 0
M  V30 381 O 37.1146 -3.52036 4.48806 0
M  V30 382 O 36.0486 -1.99106 5.68014 0
M  V30 383 H 39.8746 -0.00348199 3.037 0
M  V30 384 H 37.4596 0.0640035 1.49263 0
M  V30 385 H 39.3416 -2.42147 3.44881 0
M  V30 386 H 38.0166 -2.32016 2.25722 0
M  V30 387 H 36.9236 -0.511458 3.70587 0
M  V30 388 H 38.2566 -0.692419 4.87305 0
M  V30 389 N 39.9087 -1.5758 0.0250728 0
M  V30 390 C 41.3247 -1.56124 -0.331282 0
M  V30 391 C 41.5247 -1.03029 -1.73169 0
M  V30 392 O 40.5807 -0.675215 -2.43305 0
M  V30 393 C 41.8937 -3.00139 -0.183584 0
M  V30 394 C 43.4417 -3.11946 -0.256654 0
M  V30 395 C 43.9167 -4.57793 -0.137792 0
M  V30 396 N 45.4077 -4.6279 -0.194904 0
M  V30 397 C 46.1427 -5.7326 -0.126655 0
M  V30 398 N 45.6387 -6.928 -0.00755288 0
M  V30 399 N 47.4317 -5.61811 -0.180348 0
M  V30 400 H 39.5827 -1.90424 0.94087 0
M  V30 401 H 41.8457 -0.875761 0.362968 0
M  V30 402 H 41.5517 -3.4292 0.780927 0
M  V30 403 H 41.4257 -3.64899 -0.955448 0
M  V30 404 H 43.8127 -2.69079 -1.21162 0
M  V30 405 H 43.8937 -2.49915 0.545517 0
M  V30 406 H 43.5377 -5.01339 0.813739 0
M  V30 407 H 43.4677 -5.17798 -0.958775 0
M  V30 408 H 45.9587 -3.76807 -0.287267 0
M  V30 409 H 46.2717 -7.72791 0.0379428 0
M  V30 410 H 44.6167 -6.94995 0.0271731 0
M  V30 411 H 47.8077 -4.6731 -0.271767 0
M  V30 412 H 47.9807 -6.47882 -0.123697 0
M  V30 413 N 41.3868 0.248026 -1.55636 0
M  V30 414 C 42.6118 0.998028 -1.81808 0
M  V30 415 C 43.0368 1.78207 -0.601979 0
M  V30 416 O 42.3948 1.75653 0.448961 0
M  V30 417 C 42.4428 1.9125 -3.05705 0
M  V30 418 O 41.5468 3.00406 -2.82542 0
M  V30 419 H 40.8878 0.284045 -0.600179 0
M  V30 420 H 43.4178 0.269357 -2.02819 0
M  V30 421 H 43.4278 2.32737 -3.35108 0
M  V30 422 H 42.1028 1.33602 -3.93857 0
M  V30 423 H 40.6798 2.63056 -2.64303 0
M  V30 424 N 42.8649 1.48995 0.513639 0
M  V30 425 C 44.2759 1.5119 1.09537 0
M  V30 426 C 44.6269 0.290906 1.94031 0
M  V30 427 O 43.7519 -0.60049 2.07902 0
M  V30 428 C 44.3469 2.73964 1.99322 0
M  V30 429 C 42.9059 2.78978 2.52682 0
M  V30 430 C 42.0529 2.44934 1.30009 0
M  V30 431 H 45.0039 1.55875 0.298125 0
M  V30 432 H 45.0249 2.53409 2.83838 0
M  V30 433 H 44.5369 3.62813 1.37799 0
M  V30 434 H 42.6379 1.94378 3.1788 0
M  V30 435 H 42.7509 3.8083 2.90698 0
M  V30 436 H 41.1149 1.9644 1.62122 0
M  V30 437 H 41.8979 3.36043 0.702131 0
M  V30 438 N 44.343 -0.763751 1.37857 0
M  V30 439 C 45.591 -1.51957 1.33243 0
M  V30 440 C 45.912 -1.94835 -0.0801709 0
M  V30 441 O 45.182 -1.66894 -1.02582 0
M  V30 442 H 43.762 -0.563626 0.49024 0
M  V30 443 H 46.424 -0.908504 1.7243 0
M  V30 444 H 45.52 -2.41523 1.97669 0
M  V30 445 N 45.8211 -1.22559 -0.990812 0
M  V30 446 C 46.7841 -0.998863 -2.0629 0
M  V30 447 C 47.7841 0.0354834 -1.60761 0
M  V30 448 O 48.9741 -0.203231 -1.7301 0
M  V30 449 C 46.1061 -0.509203 -3.37076 0
M  V30 450 H 47.2991 -1.95014 -2.27837 0
M  V30 451 H 44.8521 -1.04456 -1.16269 0
M  V30 452 H 45.5871 0.446335 -3.21214 0
M  V30 453 H 45.3721 -1.25547 -3.71457 0
M  V30 454 H 46.8621 -0.370888 -4.1595 0
M  V30 455 N 47.2992 1.18797 -1.03562 0
M  V30 456 C 48.2322 2.2105 -0.56676 0
M  V30 457 C 49.2102 1.57704 0.395993 0
M  V30 458 O 50.3942 1.85908 0.311498 0
M  V30 459 C 47.5212 3.38259 0.172704 0
M  V30 460 C 46.5672 4.19987 -0.74252 0
M  V30 461 S 47.4002 4.87199 -2.22254 0
M  V30 462 C 48.5562 6.07813 -1.49379 0
M  V30 463 H 48.7892 2.60478 -1.43312 0
M  V30 464 H 46.3222 1.29151 -0.846133 0
M  V30 465 H 48.2802 4.06191 0.593191 0
M  V30 466 H 46.9412 2.97252 1.01488 0
M  V30 467 H 46.1342 5.03709 -0.171265 0
M  V30 468 H 45.7362 3.57408 -1.10163 0
M  V30 469 H 48.0282 6.72948 -0.784056 0
M  V30 470 H 48.9712 6.69435 -2.30786 0
M  V30 471 H 49.3792 5.55781 -0.988331 0
M  V30 472 N 48.7773 0.814389 1.34928 0
M  V30 473 C 49.6873 0.231978 2.3345 0
M  V30 474 C 50.7033 -0.629139 1.62228 0
M  V30 475 O 51.8793 -0.539052 1.94052 0
M  V30 476 C 48.9443 -0.603482 3.41407 0
M  V30 477 C 48.0053 0.279037 4.28392 0
M  V30 478 C 47.2383 -0.516643 5.31193 0
M  V30 479 O 47.4613 -1.75068 5.4287 0
M  V30 480 O 46.3953 0.0965652 6.01823 0
M  V30 481 H 50.2213 1.04721 2.85074 0
M  V30 482 H 47.8063 0.576343 1.37836 0
M  V30 483 H 49.6883 -1.07908 4.0735 0
M  V30 484 H 48.3633 -1.39618 2.92042 0
M  V30 485 H 47.2703 0.801948 3.65403 0
M  V30 486 H 48.6033 1.03588 4.81176 0
M  V30 487 N 50.2554 -1.46986 0.568584 0
M  V30 488 C 51.6714 -1.57946 0.229189 0
M  V30 489 C 51.8714 -1.56567 -1.26843 0
M  V30 490 O 50.9274 -1.47511 -2.04931 0
M  V30 491 C 52.2404 -2.87963 0.865909 0
M  V30 492 C 53.7884 -3.01568 0.838188 0
M  V30 493 C 54.2634 -4.34301 1.45419 0
M  V30 494 N 55.7544 -4.40965 1.41788 0
M  V30 495 C 56.4894 -5.42256 1.86403 0
M  V30 496 N 55.9854 -6.50297 2.38926 0
M  V30 497 N 57.7784 -5.3337 1.77405 0
M  V30 498 H 49.9294 -1.46126 1.54146 0
M  V30 499 H 52.1924 -0.696156 0.643484 0
M  V30 500 H 51.8984 -2.94742 1.91886 0
M  V30 501 H 51.7724 -3.75423 0.365687 0
M  V30 502 H 54.1594 -2.94379 -0.206106 0
M  V30 503 H 54.2404 -2.1562 1.37629 0
M  V30 504 H 53.8844 -4.42247 2.49761 0
M  V30 505 H 53.8144 -5.19 0.891435 0
M  V30 506 H 56.3054 -3.63484 1.03381 0
M  V30 507 H 56.6184 -7.23777 2.70863 0
M  V30 508 H 54.9634 -6.51155 2.42944 0
M  V30 509 H 58.1544 -4.47865 1.3614 0
M  V30 510 H 58.3274 -6.12169 2.12492 0
M  V30 511 N 51.7335 -0.305618 -1.54608 0
M  V30 512 C 52.9795 0.302746 -2.00528 0
M  V30 513 C 53.3125 1.53184 -1.19367 0
M  V30 514 O 52.5875 1.92598 -0.271321 0
M  V30 515 C 52.8705 0.654756 -3.54097 0
M  V30 516 C 52.7235 -0.583793 -4.45995 0
M  V30 517 C 54.0425 1.47947 -4.14487 0
M  V30 518 H 51.1615 0.108564 -0.72896 0
M  V30 519 H 53.8035 -0.418634 -1.85331 0
M  V30 520 H 51.9535 1.26935 -3.67178 0
M  V30 521 H 53.6255 -1.22224 -4.44814 0
M  V30 522 H 51.8685 -1.21615 -4.16404 0
M  V30 523 H 52.5395 -0.293287 -5.5122 0
M  V30 524 H 55.0155 0.96013 -4.04871 0
M  V30 525 H 53.8915 1.69454 -5.22088 0
M  V30 526 H 54.1525 2.47011 -3.66658 0
M  V30 527 N 53.2116 1.57565 -0.0334293 0
M  V30 528 C 54.1416 2.13511 0.945265 0
M  V30 529 C 55.1226 1.05231 1.33643 0
M  V30 530 O 56.3076 1.33084 1.41429 0
M  V30 531 C 53.4376 2.6657 2.22616 0
M  V30 532 C 52.3916 3.79676 1.97561 0
M  V30 533 C 51.7176 4.1918 3.31952 0
M  V30 534 C 53.0176 5.0557 1.31135 0
M  V30 535 H 54.7116 2.95538 0.479325 0
M  V30 536 H 52.2576 1.42166 0.229115 0
M  V30 537 H 54.2106 3.04344 2.91466 0
M  V30 538 H 52.9346 1.8171 2.71384 0
M  V30 539 H 51.5936 3.42347 1.31127 0
M  V30 540 H 51.2416 3.31296 3.78487 0
M  V30 541 H 50.9416 4.95402 3.15992 0
M  V30 542 H 52.4656 4.59541 4.02063 0
M  V30 543 H 53.8796 5.40903 1.89992 0
M  V30 544 H 52.2766 5.86818 1.25559 0
M  V30 545 H 53.3466 4.84062 0.284894 0
M  V30 546 N 54.6897 -0.239769 1.55765 0
M  V30 547 C 55.6367 -1.29696 1.90913 0
M  V30 548 C 56.6067 -1.47478 0.764164 0
M  V30 549 O 57.7917 -1.61345 1.01845 0
M  V30 550 C 54.9317 -2.64598 2.21544 0
M  V30 551 C 54.0447 -2.54765 3.48882 0
M  V30 552 C 53.1797 -3.82069 3.69049 0
M  V30 553 C 52.2187 -3.66883 4.89963 0
M  V30 554 N 51.3557 -4.86094 5.06614 0
M  V30 555 H 56.1957 -0.990224 2.81067 0
M  V30 556 H 53.7327 -0.477684 1.39128 0
M  V30 557 H 55.6907 -3.43132 2.3731 0
M  V30 558 H 54.3207 -2.93405 1.34585 0
M  V30 559 H 53.3727 -1.67763 3.41409 0
M  V30 560 H 54.6847 -2.39457 4.37563 0
M  V30 561 H 53.8387 -4.69046 3.84812 0
M  V30 562 H 52.5777 -4.00282 2.78614 0
M  V30 563 H 51.5827 -2.78289 4.74168 0
M  V30 564 H 52.8077 -3.50157 5.81865 0
M  V30 565 H 50.7537 -5.04655 4.19117 0
M  V30 566 H 50.6707 -4.73443 5.89396 0
M  V30 567 H 51.9387 -5.74549 5.26795 0
M  V30 568 N 56.1678 -1.49265 -0.50573 0
M  V30 569 C 57.4138 -1.58748 -1.26202 0
M  V30 570 C 57.7468 -0.271227 -1.92297 0
M  V30 571 O 57.0218 0.724831 -1.80489 0
M  V30 572 C 57.3048 -2.74332 -2.33268 0
M  V30 573 C 57.1578 -4.15737 -1.71705 0
M  V30 574 C 58.4768 -2.85576 -3.34865 0
M  V30 575 H 55.5958 -0.577826 -0.457478 0
M  V30 576 H 58.2378 -1.81532 -0.560897 0
M  V30 577 H 56.3878 -2.55036 -2.93068 0
M  V30 578 H 58.0598 -4.46537 -1.15769 0
M  V30 579 H 56.3028 -4.21605 -1.02135 0
M  V30 580 H 56.9738 -4.92477 -2.49341 0
M  V30 581 H 59.4498 -3.03127 -2.8505 0
M  V30 582 H 58.3258 -3.68135 -4.07146 0
M  V30 583 H 58.5868 -1.94732 -3.96903 0
M  V30 584 N 57.6459 0.756429 -1.3826 0
M  V30 585 C 58.8929 1.51547 -1.34312 0
M  V30 586 C 59.2209 1.94382 0.0677144 0
M  V30 587 O 58.4759 1.65514 1.04421 0
M  V30 588 C 58.7749 2.78313 -2.24224 0
M  V30 589 C 58.4409 2.54455 -3.72241 0
M  V30 590 C 57.1029 2.47657 -4.12576 0
M  V30 591 C 59.4549 2.3354 -4.65949 0
M  V30 592 C 56.7829 2.17956 -5.44713 0
M  V30 593 C 59.1349 2.05359 -5.9834 0
M  V30 594 C 57.7989 1.97016 -6.37762 0
M  V30 595 H 57.0689 0.55455 -0.491482 0
M  V30 596 H 59.7159 0.870039 -1.70595 0
M  V30 597 H 58.0209 3.47492 -1.80987 0
M  V30 598 H 59.7179 3.36259 -2.18474 0
M  V30 599 H 56.3079 2.60616 -3.40261 0
M  V30 600 H 60.4919 2.37772 -4.35635 0
M  V30 601 H 55.7479 2.10003 -5.74203 0
M  V30 602 H 59.9219 1.88179 -6.70494 0
M  V30 603 H 57.5489 1.73766 -7.40074 0
M  V30 604 N 59.124 1.23083 0.984299 0
M  V30 605 C 60.074 0.975749 2.06066 0
M  V30 606 C 61.058 -0.0768251 1.60716 0
M  V30 607 O 62.25 0.134805 1.76486 0
M  V30 608 C 59.379 0.564673 3.38624 0
M  V30 609 C 58.465 1.65244 3.90583 0
M  V30 610 N 58.856 2.88193 4.15666 0
M  V30 611 C 57.154 1.52612 4.19077 0
M  V30 612 C 57.855 3.58593 4.58024 0
M  V30 613 N 56.831 2.86093 4.62225 0
M  V30 614 H 60.633 1.90957 2.23411 0
M  V30 615 H 58.147 1.12963 1.16675 0
M  V30 616 H 60.144 0.36322 4.15315 0
M  V30 617 H 58.804 -0.362147 3.22674 0
M  V30 618 H 59.815 3.24537 4.03604 0
M  V30 619 H 56.492 0.666121 4.12152 0
M  V30 620 H 57.882 4.63974 4.85982 0
M  V30 621 N 60.6021 -1.18246 1.0419 0
M  V30 622 C 61.8321 -1.91916 0.764961 0
M  V30 623 C 62.2401 -1.76485 -0.681898 0
M  V30 624 O 61.5831 -1.09275 -1.47664 0
M  V30 625 C 61.6451 -3.4373 1.05309 0
M  V30 626 C 61.3091 -3.8294 2.4941 0
M  V30 627 C 62.3061 -3.86621 3.47592 0
M  V30 628 C 59.9911 -4.142 2.84155 0
M  V30 629 C 61.9851 -4.21013 4.78568 0
M  V30 630 C 59.6721 -4.48262 4.15337 0
M  V30 631 C 60.6701 -4.51645 5.12353 0
M  V30 632 O 60.3581 -4.84911 6.41183 0
M  V30 633 H 60.0901 -0.61606 0.278292 0
M  V30 634 H 62.6441 -1.50947 1.39299 0
M  V30 635 H 60.8741 -3.84946 0.367933 0
M  V30 636 H 62.5631 -3.9865 0.763752 0
M  V30 637 H 63.3291 -3.62607 3.22089 0
M  V30 638 H 59.2081 -4.10743 2.09311 0
M  V30 639 H 62.7521 -4.23568 5.54289 0
M  V30 640 H 58.6491 -4.71737 4.40607 0
M  V30 641 H 59.4171 -5.02809 6.45852 0
M  V30 642 N 62.0802 -0.821533 -1.34494 0
M  V30 643 C 63.3272 -0.408946 -1.98328 0
M  V30 644 C 63.6552 1.02764 -1.65136 0
M  V30 645 O 62.9102 1.73026 -0.914349 0
M  V30 646 C 63.2092 -0.556512 -3.53041 0
M  V30 647 C 62.8752 -1.95861 -4.0614 0
M  V30 648 C 61.5372 -2.34217 -4.20352 0
M  V30 649 C 63.8892 -2.87523 -4.34718 0
M  V30 650 C 61.2172 -3.63572 -4.6047 0
M  V30 651 C 63.5692 -4.1634 -4.76281 0
M  V30 652 C 62.2332 -4.54675 -4.88699 0
M  V30 653 H 61.5032 -0.149644 -0.725732 0
M  V30 654 H 64.1502 -1.04521 -1.6046 0
M  V30 655 H 62.4552 0.163148 -3.9146 0
M  V30 656 H 64.1522 -0.217826 -4.00408 0
M  V30 657 H 60.7422 -1.65066 -3.95539 0
M  V30 658 H 64.9262 -2.59133 -4.23277 0
M  V30 659 H 60.1822 -3.93101 -4.68275 0
M  V30 660 H 64.3562 -4.87455 -4.97354 0
M  V30 661 H 61.9832 -5.54959 -5.19542 0
M  V30 662 N 63.5583 1.46682 -0.576371 0
M  V30 663 C 64.4683 2.34032 0.163141 0
M  V30 664 C 65.4843 1.49367 0.892501 0
M  V30 665 O 66.6603 1.82252 0.857106 0
M  V30 666 C 63.7253 3.26435 1.16795 0
M  V30 667 C 62.7863 4.26998 0.443944 0
M  V30 668 C 62.0193 5.14986 1.40088 0
M  V30 669 O 62.2423 5.05785 2.637 0
M  V30 670 O 61.1763 5.94906 0.914917 0
M  V30 671 H 65.0023 2.98607 -0.55388 0
M  V30 672 H 62.5873 1.45554 -0.336821 0
M  V30 673 H 64.4693 3.83459 1.74748 0
M  V30 674 H 63.1443 2.64465 1.86655 0
M  V30 675 H 62.0513 3.7368 -0.177271 0
M  V30 676 H 63.3843 4.91736 -0.213566 0
M  V30 677 N 65.0364 0.313813 1.54444 0
M  V30 678 C 66.2614 -0.296681 2.05267 0
M  V30 679 C 66.6864 -1.45757 1.18897 0
M  V30 680 O 66.0444 -1.80239 0.195886 0
M  V30 681 C 66.0924 -0.71831 3.53373 0
M  V30 682 O 65.1964 -1.82175 3.69981 0
M  V30 683 H 64.5374 -0.0554061 0.661684 0
M  V30 684 H 67.0674 0.459387 1.99376 0
M  V30 685 H 67.0774 -1.00364 3.95463 0
M  V30 686 H 65.7524 0.130821 4.15694 0
M  V30 687 H 64.3294 -1.53598 3.39797 0
M  V30 688 N 66.5145 -1.57545 0.0417849 0
M  V30 689 C 67.4625 -2.12148 -0.953723 0
M  V30 690 C 68.4565 -1.05104 -1.32852 0
M  V30 691 O 69.6625 -1.23524 -1.30927 0
M  V30 692 H 66.0375 -0.677957 -0.325389 0
M  V30 693 H 68.0085 -2.94707 -0.467991 0
M  V30 694 C 66.7575 -2.6739 -2.22257 0
M  V30 695 H 66.0805 -3.49413 -1.94295 0
M  V30 696 H 67.5205 -3.09227 -2.90094 0
M  V30 697 C 65.9795 -1.60723 -2.96091 0
M  V30 698 O 66.5095 -1.01449 -3.88679 0
M  V30 699 N 64.7155 -1.32466 -2.58652 0
M  V30 700 H 64.2625 -1.80856 -1.83437 0
M  V30 701 H 64.2205 -0.61325 -3.08361 0
M  V30 702 N 67.9926 0.231505 -1.5589 0
M  V30 703 C 69.2176 0.978689 -1.82856 0
M  V30 704 C 69.6426 1.77559 -0.620846 0
M  V30 705 O 69.0006 1.76119 0.430305 0
M  V30 706 C 69.0486 1.87997 -3.07716 0
M  V30 707 O 68.1526 2.97393 -2.85712 0
M  V30 708 H 67.4936 0.277663 -0.603158 0
M  V30 709 H 70.0236 0.24783 -2.03093 0
M  V30 710 H 70.0336 2.2917 -3.37558 0
M  V30 711 H 68.7086 1.29417 -3.95252 0
M  V30 712 H 67.2856 2.60238 -2.67078 0
M  V30 713 N 69.4707 1.49531 0.497807 0
M  V30 714 C 70.3807 1.69176 1.62532 0
M  V30 715 C 71.3967 0.5744 1.64246 0
M  V30 716 O 72.5727 0.849497 1.82608 0
M  V30 717 C 69.6377 1.75695 2.98885 0
M  V30 718 C 68.6987 2.9929 3.07773 0
M  V30 719 C 67.9317 3.05488 4.37622 0
M  V30 720 O 68.1547 2.19192 5.26603 0
M  V30 721 O 67.0887 3.9798 4.51548 0
M  V30 722 H 70.9147 2.647 1.48887 0
M  V30 723 H 68.4997 1.3331 0.674441 0
M  V30 724 H 70.3817 1.82317 3.79919 0
M  V30 725 H 69.0567 0.8335 3.12785 0
M  V30 726 H 67.9637 2.98183 2.25915 0
M  V30 727 H 69.2967 3.91125 2.98801 0
M  V30 728 N 70.9488 -0.749086 1.3866 0
M  V30 729 C 72.3598 -1.32664 1.31366 0
M  V30 730 C 72.7108 -1.96179 -0.028484 0
M  V30 731 O 71.8358 -1.9537 -0.93057 0
M  V30 732 C 72.4308 -2.41219 2.37905 0
M  V30 733 C 70.9898 -2.94684 2.34176 0
M  V30 734 C 70.1368 -1.68108 2.20533 0
M  V30 735 H 73.0878 -0.547628 1.48952 0
M  V30 736 H 73.1088 -3.21268 2.0388 0
M  V30 737 H 72.6208 -1.94962 3.35576 0
M  V30 738 H 70.7218 -3.45258 1.401 0
M  V30 739 H 70.8348 -3.48757 3.2849 0
M  V30 740 H 69.1988 -1.91907 1.67463 0
M  V30 741 H 69.9818 -1.23923 3.20153 0
M  V30 742 N 72.4269 -1.23603 -0.977757 0
M  V30 743 C 73.6549 -1.09646 -1.75458 0
M  V30 744 C 74.0699 0.351859 -1.85492 0
M  V30 745 O 73.4269 1.24327 -1.336 0
M  V30 746 C 73.4779 -1.71895 -3.18016 0
M  V30 747 O 73.1989 -3.11063 -3.08498 0
M  V30 748 C 74.6999 -1.63415 -4.12081 0
M  V30 749 H 71.9199 -0.38359 -0.550545 0
M  V30 750 H 74.4639 -1.63507 -1.22824 0
M  V30 751 H 72.6189 -1.22061 -3.67668 0
M  V30 752 H 73.0329 -3.41305 -3.9826 0
M  V30 753 H 74.5069 -2.11669 -5.09804 0
M  V30 754 H 74.9839 -0.593462 -4.35172 0
M  V30 755 H 75.5899 -2.12628 -3.68334 0
M  V30 756 N 73.905 1.17692 -1.04816 0
M  V30 757 C 75.133 1.91786 -0.776254 0
M  V30 758 C 75.548 1.76604 0.667577 0
M  V30 759 O 74.905 1.10067 1.45573 0
M  V30 760 C 74.956 3.42967 -1.14263 0
M  V30 761 O 74.677 3.57678 -2.52978 0
M  V30 762 C 76.178 4.34144 -0.896311 0
M  V30 763 H 73.398 0.608624 -0.282519 0
M  V30 764 H 75.942 1.49268 -1.39783 0
M  V30 765 H 74.097 3.83245 -0.565874 0
M  V30 766 H 74.511 4.51319 -2.67229 0
M  V30 767 H 75.985 5.38744 -1.20244 0
M  V30 768 H 76.462 4.38876 0.168636 0
M  V30 769 H 77.068 3.99574 -1.45672 0
M  V30 770 N 75.3831 0.828654 1.34056 0
M  V30 771 C 76.6291 0.429279 1.98818 0
M  V30 772 C 76.9841 -0.998011 1.64492 0
M  V30 773 O 76.2771 -1.68652 0.909228 0
M  V30 774 C 76.4711 0.575226 3.52741 0
M  V30 775 C 76.3001 2.01515 4.02022 0
M  V30 776 C 75.0701 2.64825 4.30344 0
M  V30 777 C 77.2681 2.98261 4.18981 0
M  V30 778 N 75.2501 3.99998 4.65698 0
M  V30 779 C 76.6211 4.18356 4.57578 0
M  V30 780 C 78.6761 2.94802 4.01243 0
M  V30 781 C 77.3791 5.35454 4.80293 0
M  V30 782 C 79.4051 4.11121 4.25128 0
M  V30 783 C 78.7671 5.29969 4.64018 0
M  V30 784 H 74.8661 0.205304 0.754569 0
M  V30 785 H 77.4501 1.07457 1.62361 0
M  V30 786 H 75.6211 -0.0401962 3.88379 0
M  V30 787 H 77.3531 0.148292 4.04428 0
M  V30 788 H 74.1081 2.16027 4.21461 0
M  V30 789 H 74.5321 4.69653 4.87601 0
M  V30 790 H 79.1741 2.04054 3.70299 0
M  V30 791 H 76.8921 6.26755 5.10102 0
M  V30 792 H 80.4781 4.0985 4.12934 0
M  V30 793 H 79.3581 6.18479 4.82134 0
M  V30 794 N 76.8612 -1.46375 0.584142 0
M  V30 795 C 77.8242 -2.28784 -0.138108 0
M  V30 796 C 78.8242 -1.38471 -0.817462 0
M  V30 797 O 80.0142 -1.60833 -0.669199 0
M  V30 798 C 77.1462 -3.18892 -1.20503 0
M  V30 799 H 78.3392 -2.94117 0.586127 0
M  V30 800 H 75.8922 -1.52509 0.342171 0
M  V30 801 H 76.6272 -2.58309 -1.96079 0
M  V30 802 H 76.4122 -3.85388 -0.722384 0
M  V30 803 H 77.9022 -3.80914 -1.71155 0
M  V30 804 N 78.3393 -0.321999 -1.54275 0
M  V30 805 C 79.5643 0.285791 -2.05422 0
M  V30 806 C 79.9893 1.45124 -1.19669 0
M  V30 807 O 79.3473 1.80132 -0.205441 0
M  V30 808 C 79.3953 0.69956 -3.53749 0
M  V30 809 O 78.4993 1.8021 -3.70942 0
M  V30 810 H 77.8403 0.0518962 -0.661969 0
M  V30 811 H 80.3703 -0.469954 -1.9913 0
M  V30 812 H 80.3803 0.982649 -3.9599 0
M  V30 813 H 79.0553 -0.152864 -4.15619 0
M  V30 814 H 77.6323 1.51794 -3.40607 0
M  V30 815 N 79.8174 1.5752 -0.0501392 0
M  V30 816 C 81.0664 1.91827 0.623328 0
M  V30 817 C 81.3794 0.930222 1.72065 0
M  V30 818 O 82.5854 1.1653 2.4522 0
M  V30 819 C 81.0414 3.40692 1.16003 0
M  V30 820 C 80.6494 4.479 0.0948811 0
M  V30 821 C 82.3934 3.84034 1.80881 0
M  V30 822 C 80.3004 5.87879 0.644411 0
M  V30 823 H 79.2304 0.715918 0.236596 0
M  V30 824 H 81.8814 1.83115 -0.118861 0
M  V30 825 H 80.2634 3.44405 1.9545 0
M  V30 826 H 81.4374 4.55775 -0.678675 0
M  V30 827 H 79.7524 4.13892 -0.45637 0
M  V30 828 H 82.3494 4.85984 2.22988 0
M  V30 829 H 82.6924 3.20225 2.6601 0
M  V30 830 H 83.2254 3.82833 1.0809 0
M  V30 831 H 79.9644 6.55282 -0.169229 0
M  V30 832 H 79.4844 5.83567 1.38598 0
M  V30 833 H 81.1634 6.37098 1.12763 0
M  V30 834 N 81.2955 -0.223234 1.56011 0
M  V30 835 C 82.5445 -0.945912 1.78144 0
M  V30 836 C 82.8575 -1.85567 0.618396 0
M  V30 837 O 84.0635 -2.61688 0.723318 0
M  V30 838 C 82.5195 -1.73216 3.15475 0
M  V30 839 C 82.1275 -0.868619 4.39499 0
M  V30 840 C 83.8715 -2.44615 3.46935 0
M  V30 841 C 81.7785 -1.65212 5.67855 0
M  V30 842 H 80.7085 -0.356929 0.664167 0
M  V30 843 H 83.3595 -0.199845 1.82409 0
M  V30 844 H 81.7415 -2.52107 3.05382 0
M  V30 845 H 82.9155 -0.120366 4.60643 0
M  V30 846 H 81.2305 -0.26683 4.15544 0
M  V30 847 H 83.8275 -3.03732 4.40058 0
M  V30 848 H 84.1705 -3.17417 2.69355 0
M  V30 849 H 84.7035 -1.72715 3.58349 0
M  V30 850 H 81.4425 -0.967407 6.48322 0
M  V30 851 H 80.9625 -2.37503 5.50774 0
M  V30 852 H 82.6415 -2.21322 6.07968 0
M  V30 853 N 82.7736 -1.49793 -0.48987 0
M  V30 854 C 84.1896 -1.36803 -0.822022 0
M  V30 855 C 84.3896 -0.409652 -1.97292 0
M  V30 856 O 83.4456 0.154614 -2.52026 0
M  V30 857 C 84.7586 -2.77768 -1.15175 0
M  V30 858 C 86.3066 -2.86549 -1.25931 0
M  V30 859 C 86.7816 -4.28306 -1.62228 0
M  V30 860 N 88.2726 -4.31169 -1.69256 0
M  V30 861 C 89.0076 -5.37832 -1.98807 0
M  V30 862 N 88.5036 -6.54726 -2.26507 0
M  V30 863 N 90.2966 -5.25258 -2.00152 0
M  V30 864 H 82.4476 -2.10691 0.268881 0
M  V30 865 H 84.7106 -0.946241 0.057728 0
M  V30 866 H 84.4166 -3.49648 -0.379335 0
M  V30 867 H 84.2906 -3.13836 -2.09253 0
M  V30 868 H 86.6776 -2.14899 -2.02243 0
M  V30 869 H 86.7586 -2.54049 -0.298776 0
M  V30 870 H 86.4026 -5.00486 -0.864622 0
M  V30 871 H 86.3326 -4.58279 -2.594 0
M  V30 872 H 88.8236 -3.4687 -1.49965 0
M  V30 873 H 89.1366 -7.31833 -2.48276 0
M  V30 874 H 87.4816 -6.57933 -2.23939 0
M  V30 875 H 90.6726 -4.32938 -1.77996 0
M  V30 876 H 90.8456 -6.08476 -2.22848 0
M  V30 877 N 84.2517 0.741722 -1.39055 0
M  V30 878 C 85.2017 1.84661 -1.33732 0
M  V30 879 C 86.1857 1.59397 -0.219401 0
M  V30 880 O 87.3777 1.71015 -0.456375 0
M  V30 881 C 84.5067 3.22512 -1.17647 0
M  V30 882 C 83.5927 3.53628 -2.34112 0
M  V30 883 N 83.9837 3.55723 -3.59576 0
M  V30 884 C 82.2817 3.83956 -2.26923 0
M  V30 885 C 82.9827 3.84443 -4.36553 0
M  V30 886 N 81.9587 4.01877 -3.66055 0
M  V30 887 H 85.7607 1.84576 -2.28711 0
M  V30 888 H 83.2747 0.939647 -1.32455 0
M  V30 889 H 85.2717 4.01597 -1.11917 0
M  V30 890 H 83.9317 3.2384 -0.236124 0
M  V30 891 H 84.9427 3.37196 -3.93089 0
M  V30 892 H 81.6197 3.92929 -1.41113 0
M  V30 893 H 83.0097 3.92588 -5.45274 0
M  V30 894 N 85.7298 1.2412 0.971189 0
M  V30 895 C 86.9778 1.07668 1.71032 0
M  V30 896 C 87.2988 -0.385797 1.91146 0
M  V30 897 O 86.5688 -1.27569 1.4867 0
M  V30 898 H 85.1488 0.395429 0.633755 0
M  V30 899 H 87.8108 1.55984 1.16855 0
M  V30 900 H 86.9068 1.57195 2.69622 0
M  V30 901 N 87.2079 -1.17134 1.05439 0
M  V30 902 C 88.4849 -1.83411 0.679699 0
M  V30 903 C 88.8649 -1.9368 -0.839726 0
M  V30 904 O 88.2129 -1.47325 -1.74664 0
M  V30 905 C 88.4229 -3.20918 1.37159 0
M  V30 906 C 89.7709 -3.96796 1.51123 0
M  V30 907 O 90.7949 -3.30406 1.3308 0
M  V30 908 O 89.6539 -5.15778 1.80651 0
M  V30 909 H 86.7479 -0.79154 0.239569 0
M  V30 910 H 89.2939 -1.24411 1.15413 0
M  V30 911 H 88.0659 -3.08428 2.40807 0
M  V30 912 H 87.6889 -3.87587 0.886674 0
M  V30 913 N 88.686 -0.835752 -1.33615 0
M  V30 914 C 89.649 -0.272 -2.2758 0
M  V30 915 C 90.649 0.557487 -1.50827 0
M  V30 916 O 91.839 0.37173 -1.70188 0
M  V30 917 C 88.971 0.617173 -3.35267 0
M  V30 918 H 90.164 -1.10111 -2.78954 0
M  V30 919 H 87.717 -0.608594 -1.43965 0
M  V30 920 H 88.452 1.46884 -2.89129 0
M  V30 921 H 88.237 0.0237066 -3.92093 0
M  V30 922 H 89.727 1.005 -4.05326 0
M  V30 923 N 90.1641 1.46063 -0.591896 0
M  V30 924 C 91.3921 2.06717 -0.0868936 0
M  V30 925 C 91.8071 1.43916 1.22203 0
M  V30 926 O 91.1641 0.547698 1.74088 0
M  V30 927 C 91.2151 3.6142 0.0758725 0
M  V30 928 O 90.9361 4.21874 -1.18126 0
M  V30 929 C 92.4371 4.39025 0.61416 0
M  V30 930 H 89.6571 0.668162 -0.0616518 0
M  V30 931 H 92.2011 1.8755 -0.815175 0
M  V30 932 H 90.3561 3.79983 0.754413 0
M  V30 933 H 90.7701 5.14861 -1.00092 0
M  V30 934 H 92.2441 5.4783 0.677193 0
M  V30 935 H 92.7211 4.07708 1.63312 0
M  V30 936 H 93.3271 4.2529 -0.0298142 0
M  V30 937 N 91.6422 0.330177 1.54103 0
M  V30 938 C 92.9192 -0.325007 1.92881 0
M  V30 939 C 93.2992 -1.6934 1.26045 0
M  V30 940 O 92.6472 -2.24855 0.406526 0
M  V30 941 C 92.8572 -0.410634 3.46576 0
M  V30 942 C 94.2052 -0.667801 4.19316 0
M  V30 943 O 95.2292 -0.49329 3.52768 0
M  V30 944 O 94.0882 -1.00491 5.37181 0
M  V30 945 H 91.1822 -0.186873 0.80561 0
M  V30 946 H 93.7282 0.380376 1.65382 0
M  V30 947 H 92.5002 0.550164 3.87413 0
M  V30 948 H 92.1232 -1.16333 3.802 0
M  V30 949 N 93.1203 -1.57491 0.0584922 0
M  V30 950 C 94.3663 -1.93264 -0.614558 0
M  V30 951 C 94.6993 -0.937717 -1.7006 0
M  V30 952 O 93.9743 0.0351652 -1.94468 0
M  V30 953 C 94.2573 -3.3938 -1.20386 0
M  V30 954 C 94.1103 -4.49625 -0.125375 0
M  V30 955 C 95.4293 -3.86039 -2.11334 0
M  V30 956 H 92.5483 -0.702791 -0.221933 0
M  V30 957 H 95.1903 -1.8961 0.12175 0
M  V30 958 H 93.3403 -3.42626 -1.83139 0
M  V30 959 H 95.0123 -4.58506 0.506971 0
M  V30 960 H 93.2553 -4.30354 0.545672 0
M  V30 961 H 93.9263 -5.48967 -0.577861 0
M  V30 962 H 96.4023 -3.84716 -1.58534 0
M  V30 963 H 95.2783 -4.88914 -2.49507 0
M  V30 964 H 95.5393 -3.23215 -3.01636 0
M  V30 965 N 94.5984 0.214957 -1.56127 0
M  V30 966 C 96.0144 0.564948 -1.49267 0
M  V30 967 C 96.2144 1.86827 -0.754838 0
M  V30 968 O 95.2704 2.50745 -0.297198 0
M  V30 969 C 96.5834 0.638071 -2.93852 0
M  V30 970 C 98.1314 0.728253 -3.0441 0
M  V30 971 C 98.6064 0.832663 -4.50367 0
M  V30 972 N 100.097 0.896712 -4.54437 0
M  V30 973 C 100.832 0.997324 -5.6466 0
M  V30 974 N 100.328 1.06147 -6.8462 0
M  V30 975 N 102.121 1.03297 -5.52527 0
M  V30 976 H 94.2724 -0.640211 -2.02522 0
M  V30 977 H 96.5354 -0.225507 -0.920788 0
M  V30 978 H 96.2414 -0.250126 -3.50809 0
M  V30 979 H 96.1154 1.49947 -3.46115 0
M  V30 980 H 98.5024 1.60689 -2.47514 0
M  V30 981 H 98.5834 -0.158952 -2.55306 0
M  V30 982 H 98.2274 -0.0415417 -5.07883 0
M  V30 983 H 98.1574 1.73538 -4.97184 0
M  V30 984 H 100.648 0.857188 -3.6805 0
M  V30 985 H 100.961 1.1382 -7.64372 0
M  V30 986 H 99.3064 1.03049 -6.87318 0
M  V30 987 H 102.497 0.979558 -4.57736 0
M  V30 988 H 102.67 1.10793 -6.38458 0
M  V30 989 N 96.0765 1.50051 0.48192 0
M  V30 990 C 97.3245 1.60181 1.23234 0
M  V30 991 C 97.6455 0.299176 1.92691 0
M  V30 992 O 96.9155 -0.682708 1.83619 0
M  V30 993 H 95.4955 0.590232 0.457859 0
M  V30 994 H 98.1575 1.86775 0.556881 0
M  V30 995 H 97.2535 2.40753 1.98607 0
M  V30 996 N 97.5546 -0.734337 1.39446 0
M  V30 997 C 98.8036 -1.48937 1.36017 0
M  V30 998 C 99.1166 -1.95557 -0.0409005 0
M  V30 999 O 100.323 -2.70779 -0.19778 0
M  V30 1000 C 98.7786 -2.69125 2.38955 0
M  V30 1001 C 98.3866 -2.29452 3.8478 0
M  V30 1002 C 100.131 -3.46944 2.44603 0
M  V30 1003 C 98.0376 -3.46366 4.79358 0
M  V30 1004 H 96.9676 -0.559296 0.505672 0
M  V30 1005 H 99.6186 -0.800983 1.65095 0
M  V30 1006 H 98.0006 -3.40041 2.02948 0
M  V30 1007 H 99.1746 -1.66077 4.29831 0
M  V30 1008 H 97.4896 -1.64723 3.82433 0
M  V30 1009 H 100.087 -4.33907 3.12456 0
M  V30 1010 H 100.43 -3.89454 1.47076 0
M  V30 1011 H 100.963 -2.83056 2.79507 0
M  V30 1012 H 97.7016 -3.08905 5.78151 0
M  V30 1013 H 97.2216 -4.08719 4.38986 0
M  V30 1014 H 98.9006 -4.12691 4.98292 0
M  V30 1015 N 99.0327 -1.24633 -0.964593 0
M  V30 1016 C 100.282 -1.08188 -1.7023 0
M  V30 1017 C 100.595 0.37873 -1.91898 0
M  V30 1018 O 101.801 0.663427 -2.6327 0
M  V30 1019 C 100.257 -1.88773 -3.06419 0
M  V30 1020 C 99.8647 -3.39263 -2.92582 0
M  V30 1021 C 101.609 -1.80867 -3.84041 0
M  V30 1022 C 99.5157 -4.1218 -4.24101 0
M  V30 1023 H 98.4457 -0.401245 -0.638372 0
M  V30 1024 H 101.097 -1.48742 -1.07462 0
M  V30 1025 H 99.4787 -1.41035 -3.70034 0
M  V30 1026 H 100.653 -3.94603 -2.37961 0
M  V30 1027 H 98.9677 -3.48154 -2.28424 0
M  V30 1028 H 101.565 -2.32646 -4.81435 0
M  V30 1029 H 101.908 -0.774543 -4.09031 0
M  V30 1030 H 102.441 -2.26301 -3.27159 0
M  V30 1031 H 99.1797 -5.15965 -4.04303 0
M  V30 1032 H 98.6997 -3.61626 -4.78526 0
M  V30 1033 H 100.379 -4.19349 -4.92702 0
M  V30 1034 N 100.511 1.16574 -1.06058 0
M  V30 1035 C 101.443 2.2045 -0.627239 0
M  V30 1036 C 102.456 1.59752 0.313534 0
M  V30 1037 O 103.645 1.78192 0.104896 0
M  V30 1038 C 100.745 3.3875 0.100974 0
M  V30 1039 C 99.9178 4.29008 -0.852687 0
M  V30 1040 C 98.9768 5.25944 -0.164152 0
M  V30 1041 O 98.0028 5.63535 -0.801047 0
M  V30 1042 N 99.2048 5.70075 1.09518 0
M  V30 1043 H 101.97 2.58249 -1.52077 0
M  V30 1044 H 99.5308 1.3156 -0.943594 0
M  V30 1045 H 101.523 4.00638 0.57194 0
M  V30 1046 H 100.093 2.99476 0.89628 0
M  V30 1047 H 99.3128 3.64419 -1.50308 0
M  V30 1048 H 100.601 4.86195 -1.49972 0
M  V30 1049 H 99.9988 5.41624 1.6328 0
M  V30 1050 H 98.5558 6.34067 1.51006 0
M  V30 1051 N 101.989 0.842826 1.3317 0
M  V30 1052 C 102.936 0.276885 2.29133 0
M  V30 1053 C 103.906 -0.609527 1.54512 0
M  V30 1054 O 105.091 -0.546955 1.82792 0
M  V30 1055 C 102.231 -0.538707 3.40869 0
M  V30 1056 C 101.344 0.372169 4.30394 0
M  V30 1057 C 100.479 -0.454908 5.29249 0
M  V30 1058 C 99.5179 0.45411 6.10413 0
M  V30 1059 N 98.6549 -0.335075 7.013 0
M  V30 1060 H 103.495 1.10052 2.76934 0
M  V30 1061 H 101.032 0.554161 1.36262 0
M  V30 1062 H 102.99 -1.02709 4.0436 0
M  V30 1063 H 101.62 -1.32727 2.9425 0
M  V30 1064 H 100.672 0.97888 3.6759 0
M  V30 1065 H 101.984 1.0703 4.87182 0
M  V30 1066 H 101.138 -1.00695 5.98285 0
M  V30 1067 H 99.8769 -1.18646 4.73048 0
M  V30 1068 H 98.8819 1.01813 5.40291 0
M  V30 1069 H 100.107 1.18409 6.68697 0
M  V30 1070 H 98.0529 -1.04994 6.47543 0
M  V30 1071 H 97.9699 0.304262 7.55387 0
M  V30 1072 H 99.2379 -0.869224 7.74638 0
M  V30 1073 N 103.467 -1.45747 0.599634 0
M  V30 1074 C 104.716 -2.01502 0.0893511 0
M  V30 1075 C 105.029 -1.4748 -1.28488 0
M  V30 1076 O 106.235 -1.95161 -1.88745 0
M  V30 1077 C 104.691 -3.59735 0.109082 0
M  V30 1078 C 104.299 -4.22754 1.48267 0
M  V30 1079 C 106.043 -4.23085 -0.346374 0
M  V30 1080 C 103.95 -5.73115 1.45921 0
M  V30 1081 H 102.88 -0.753417 0.0296347 0
M  V30 1082 H 105.531 -1.67303 0.753788 0
M  V30 1083 H 103.913 -3.91087 -0.621854 0
M  V30 1084 H 105.087 -4.02987 2.23468 0
M  V30 1085 H 103.402 -3.71567 1.87955 0
M  V30 1086 H 105.999 -5.33327 -0.38298 0
M  V30 1087 H 106.342 -3.93201 -1.36743 0
M  V30 1088 H 106.875 -3.9642 0.331038 0
M  V30 1089 H 103.614 -6.07685 2.45762 0
M  V30 1090 H 103.134 -5.95097 0.749665 0
M  V30 1091 H 104.813 -6.3616 1.17941 0
M  V30 1092 N 104.945 -0.338344 -1.53925 0
M  V30 1093 C 106.191 0.260143 -2.01125 0
M  V30 1094 C 106.524 1.50617 -1.22589 0
M  V30 1095 O 105.799 1.91979 -0.312113 0
M  V30 1096 C 106.082 0.579499 -3.55407 0
M  V30 1097 C 105.935 -0.678264 -4.44657 0
M  V30 1098 C 107.254 1.39122 -4.17532 0
M  V30 1099 H 104.373 0.0930772 -0.731099 0
M  V30 1100 H 107.015 -0.457852 -1.84401 0
M  V30 1101 H 105.165 1.19118 -3.69788 0
M  V30 1102 H 106.837 -1.31631 -4.42121 0
M  V30 1103 H 105.08 -1.3042 -4.13731 0
M  V30 1104 H 105.751 -0.410143 -5.50474 0
M  V30 1105 H 108.227 0.874035 -4.06817 0
M  V30 1106 H 107.103 1.58342 -5.25565 0
M  V30 1107 H 107.364 2.39178 -3.71815 0
M  V30 1108 N 106.423 1.57458 -0.0668435 0
M  V30 1109 C 107.7 1.8469 0.644132 0
M  V30 1110 C 108.08 0.958343 1.88093 0
M  V30 1111 O 107.428 0.0233579 2.28488 0
M  V30 1112 C 107.638 3.34767 0.986509 0
M  V30 1113 C 108.986 4.02159 1.36212 0
M  V30 1114 O 110.01 3.39484 1.07839 0
M  V30 1115 O 108.869 5.12694 1.89227 0
M  V30 1116 H 105.963 0.762816 0.319437 0
M  V30 1117 H 108.509 1.6942 -0.0973986 0
M  V30 1118 H 107.281 3.91151 0.107883 0
M  V30 1119 H 106.904 3.55281 1.78497 0
M  V30 1120 N 107.901 -0.206675 1.56239 0
M  V30 1121 C 109.126 -0.949474 1.8439 0
M  V30 1122 C 109.551 -1.76549 0.649016 0
M  V30 1123 O 108.909 -1.76782 -0.402231 0
M  V30 1124 C 108.957 -1.83078 3.10668 0
M  V30 1125 O 108.061 -2.9281 2.90407 0
M  V30 1126 H 107.402 -0.268033 0.607499 0
M  V30 1127 H 109.932 -0.215488 2.03462 0
M  V30 1128 H 109.942 -2.2377 3.41161 0
M  V30 1129 H 108.617 -1.23112 3.97261 0
M  V30 1130 H 107.194 -2.55956 2.71184 0
M  V30 1131 N 109.379 -1.50304 -0.473955 0
M  V30 1132 C 110.329 -1.65347 -1.56985 0
M  V30 1133 C 111.313 -0.508176 -1.52664 0
M  V30 1134 O 112.505 -0.762446 -1.59737 0
M  V30 1135 C 109.634 -1.74832 -2.95447 0
M  V30 1136 C 108.72 -2.95028 -3.04662 0
M  V30 1137 N 109.111 -4.18747 -2.83698 0
M  V30 1138 C 107.409 -2.93527 -3.35795 0
M  V30 1139 C 108.11 -4.99687 -2.97805 0
M  V30 1140 N 107.086 -4.33585 -3.2788 0
M  V30 1141 H 110.888 -2.58698 -1.39472 0
M  V30 1142 H 108.402 -1.47449 -0.680629 0
M  V30 1143 H 110.399 -1.83712 -3.7424 0
M  V30 1144 H 109.059 -0.826376 -3.14008 0
M  V30 1145 H 110.07 -4.48291 -2.59337 0
M  V30 1146 H 106.747 -2.10821 -3.60362 0
M  V30 1147 H 108.137 -6.08057 -2.85861 0
M  V30 1148 N 110.857 0.726932 -1.39834 0
M  V30 1149 C 111.804 1.841 -1.39197 0
M  V30 1150 C 112.774 1.642 -0.250502 0
M  V30 1151 O 113.959 1.85494 -0.446846 0
M  V30 1152 C 111.099 3.21697 -1.24919 0
M  V30 1153 C 110.212 3.53247 -2.48678 0
M  V30 1154 C 109.347 4.80289 -2.26928 0
M  V30 1155 C 108.386 5.04707 -3.4632 0
M  V30 1156 N 107.523 6.22956 -3.23836 0
M  V30 1157 H 112.363 1.83979 -2.34427 0
M  V30 1158 H 109.9 0.898876 -1.16442 0
M  V30 1159 H 111.858 4.01137 -1.1465 0
M  V30 1160 H 110.488 3.21076 -0.333153 0
M  V30 1161 H 109.54 2.68447 -2.69519 0
M  V30 1162 H 110.852 3.67205 -3.37582 0
M  V30 1163 H 110.006 5.67725 -2.13947 0
M  V30 1164 H 108.745 4.68519 -1.35431 0
M  V30 1165 H 107.75 4.1573 -3.5979 0
M  V30 1166 H 108.975 5.18357 -4.38729 0
M  V30 1167 H 106.921 6.12459 -2.35011 0
M  V30 1168 H 106.838 6.37539 -4.063 0
M  V30 1169 H 108.106 7.1321 -3.14566 0
M  V30 1170 N 112.336 1.25143 0.95797 0
M  V30 1171 C 113.582 1.09855 1.70469 0
M  V30 1172 C 113.915 -0.360187 1.90831 0
M  V30 1173 O 113.19 -1.26568 1.47685 0
M  V30 1174 C 113.473 1.8497 3.08963 0
M  V30 1175 C 113.326 3.38652 2.96032 0
M  V30 1176 C 114.645 1.63016 4.08795 0
M  V30 1177 H 111.764 0.400465 0.618706 0
M  V30 1178 H 114.406 1.53933 1.11376 0
M  V30 1179 H 112.556 1.47505 3.59409 0
M  V30 1180 H 114.228 3.85772 2.52938 0
M  V30 1181 H 112.471 3.66534 2.32025 0
M  V30 1182 H 113.142 3.8642 3.94187 0
M  V30 1183 H 115.618 1.95625 3.67247 0
M  V30 1184 H 114.494 2.18015 5.03747 0
M  V30 1185 H 114.755 0.570692 4.38401 0
M  V30 1186 N 113.814 -1.1601 1.06675 0
M  V30 1187 C 114.761 -2.20525 0.680967 0
M  V30 1188 C 115.731 -1.62904 -0.324283 0
M  V30 1189 O 116.916 -1.89615 -0.212294 0
M  V30 1190 C 114.056 -3.45013 0.0776551 0
M  V30 1191 C 113.169 -4.16863 1.13355 0
M  V30 1192 C 112.304 -5.2888 0.49597 0
M  V30 1193 C 111.343 -5.92537 1.53513 0
M  V30 1194 N 110.48 -6.96038 0.920631 0
M  V30 1195 H 115.32 -2.52876 1.57663 0
M  V30 1196 H 112.857 -1.24199 0.788223 0
M  V30 1197 H 114.815 -4.16193 -0.289704 0
M  V30 1198 H 113.445 -3.132 -0.781393 0
M  V30 1199 H 112.497 -3.44248 1.61857 0
M  V30 1200 H 113.809 -4.60294 1.92174 0
M  V30 1201 H 112.963 -6.06653 0.0758604 0
M  V30 1202 H 111.702 -4.86622 -0.324062 0
M  V30 1203 H 110.707 -5.13482 1.9651 0
M  V30 1204 H 111.932 -6.36873 2.35733 0
M  V30 1205 H 109.878 -6.55888 0.12138 0
M  V30 1206 H 109.795 -7.3786 1.64616 0
M  V30 1207 H 111.063 -7.77725 0.525795 0
M  V30 1208 N 115.292 -0.849877 -1.32721 0
M  V30 1209 C 116.242 -0.262892 -2.26479 0
M  V30 1210 C 117.226 0.588493 -1.49752 0
M  V30 1211 O 118.418 0.438659 -1.71478 0
M  V30 1212 C 115.547 0.551818 -3.38836 0
M  V30 1213 C 114.633 -0.311689 -4.22953 0
M  V30 1214 N 115.024 -1.39567 -4.86163 0
M  V30 1215 C 113.322 -0.100611 -4.45887 0
M  V30 1216 C 114.023 -1.92651 -5.48872 0
M  V30 1217 N 112.999 -1.22637 -5.29586 0
M  V30 1218 H 116.801 -1.09166 -2.72873 0
M  V30 1219 H 114.315 -0.695486 -1.46754 0
M  V30 1220 H 116.312 0.988713 -4.05006 0
M  V30 1221 H 114.972 1.37844 -2.93988 0
M  V30 1222 H 115.983 -1.77859 -4.86402 0
M  V30 1223 H 112.66 0.691681 -4.11731 0
M  V30 1224 H 114.05 -2.83487 -6.09167 0
M  V30 1225 N 116.77 1.45427 -0.607355 0
M  V30 1226 C 118.016 2.0254 -0.102607 0
M  V30 1227 C 118.349 1.47478 1.26348 0
M  V30 1228 O 117.624 0.64939 1.83339 0
M  V30 1229 C 117.907 3.60044 -0.0634347 0
M  V30 1230 C 117.76 4.2544 -1.46017 0
M  V30 1231 C 119.079 4.35646 0.624514 0
M  V30 1232 H 116.198 0.73598 -0.0387607 0
M  V30 1233 H 118.84 1.73284 -0.779282 0
M  V30 1234 H 116.99 3.85101 0.512808 0
M  V30 1235 H 118.662 4.11569 -2.08347 0
M  V30 1236 H 116.905 3.83849 -2.02094 0
M  V30 1237 H 117.576 5.34342 -1.385 0
M  V30 1238 H 120.052 4.15882 0.134723 0
M  V30 1239 H 118.928 5.45376 0.621028 0
M  V30 1240 H 119.189 4.08501 1.69055 0
M  V30 1241 N 118.248 0.346503 1.53744 0
M  V30 1242 C 119.211 -0.496439 2.23759 0
M  V30 1243 C 120.211 -1.0252 1.2388 0
M  V30 1244 O 121.401 -0.913974 1.48297 0
M  V30 1245 C 118.533 -1.69187 2.95954 0
M  V30 1246 H 119.726 0.115952 2.99676 0
M  V30 1247 H 117.279 0.0978939 1.55993 0
M  V30 1248 H 118.014 -2.34288 2.24231 0
M  V30 1249 H 117.799 -1.31989 3.69217 0
M  V30 1250 H 119.289 -2.28969 3.49232 0
M  V30 1251 N 119.726 -1.57421 0.075193 0
M  V30 1252 C 120.966 -1.95495 -0.596757 0
M  V30 1253 C 121.33 -0.954886 -1.66571 0
M  V30 1254 O 122.531 -1.22341 -2.39345 0
M  V30 1255 C 120.802 -3.382 -1.15566 0
M  V30 1256 S 122.361 -3.98254 -1.84226 0
M  V30 1257 H 119.179 -0.683649 -0.195307 0
M  V30 1258 H 121.781 -1.94925 0.149859 0
M  V30 1259 H 120.485 -4.08766 -0.36588 0
M  V30 1260 H 120.016 -3.42321 -1.93856 0
M  V30 1261 H 122.031 -3.85435 -3.12497 0
M  V30 1262 N 121.204 0.198386 -1.56346 0
M  V30 1263 C 122.434 0.934215 -1.84271 0
M  V30 1264 C 122.842 1.77496 -0.655125 0
M  V30 1265 O 122.185 1.7961 0.385488 0
M  V30 1266 C 122.247 1.88278 -3.06254 0
M  V30 1267 C 121.911 1.22431 -4.40295 0
M  V30 1268 C 122.908 0.602839 -5.16393 0
M  V30 1269 C 120.593 1.22915 -4.87029 0
M  V30 1270 C 122.587 -0.0050083 -6.374 0
M  V30 1271 C 120.274 0.617465 -6.07973 0
M  V30 1272 C 121.272 0.00146341 -6.83 0
M  V30 1273 O 120.96 -0.600642 -8.01653 0
M  V30 1274 H 120.692 0.278245 -0.616081 0
M  V30 1275 H 123.246 0.211626 -2.04307 0
M  V30 1276 H 121.476 2.64498 -2.82095 0
M  V30 1277 H 123.165 2.48612 -3.20853 0
M  V30 1278 H 123.931 0.591265 -4.81382 0
M  V30 1279 H 119.81 1.69801 -4.28589 0
M  V30 1280 H 123.354 -0.48643 -6.95902 0
M  V30 1281 H 119.251 0.62653 -6.42452 0
M  V30 1282 H 120.019 -0.497225 -8.16988 0
M  V30 1283 N 122.682 1.50554 0.465978 0
M  V30 1284 C 123.93 1.61479 1.21528 0
M  V30 1285 C 124.251 0.319596 1.92363 0
M  V30 1286 O 123.521 -0.663194 1.84333 0
M  V30 1287 H 122.101 0.595055 0.451573 0
M  V30 1288 H 124.763 1.87355 0.53704 0
M  V30 1289 H 123.859 2.42846 1.96042 0
M  V30 1290 N 124.16 -0.719506 1.40217 0
M  V30 1291 C 125.407 -1.47933 1.38283 0
M  V30 1292 C 125.735 -1.94493 -0.0161536 0
M  V30 1293 O 124.99 -1.68224 -0.999956 0
M  V30 1294 C 125.289 -2.72271 2.31524 0
M  V30 1295 C 124.955 -2.44496 3.78857 0
M  V30 1296 C 123.617 -2.36631 4.18998 0
M  V30 1297 C 125.969 -2.21104 4.71977 0
M  V30 1298 C 123.297 -2.03437 5.503 0
M  V30 1299 C 125.649 -1.89423 6.03574 0
M  V30 1300 C 124.313 -1.80038 6.42762 0
M  V30 1301 H 123.583 -0.541325 0.506012 0
M  V30 1302 H 126.23 -0.824502 1.72842 0
M  V30 1303 H 124.535 -3.42572 1.90137 0
M  V30 1304 H 126.232 -3.30348 2.27313 0
M  V30 1305 H 122.822 -2.51503 3.47051 0
M  V30 1306 H 127.006 -2.26139 4.41786 0
M  V30 1307 H 122.262 -1.94705 5.79569 0
M  V30 1308 H 126.436 -1.70336 6.75247 0
M  V30 1309 H 124.063 -1.54083 7.44421 0
M  V30 1310 N 125.638 -1.25649 -0.95132 0
M  V30 1311 C 127.054 -1.02542 -1.223 0
M  V30 1312 C 127.254 0.255715 -1.99871 0
M  V30 1313 O 126.31 0.967558 -2.33226 0
M  V30 1314 C 127.623 -2.25065 -1.99415 0
M  V30 1315 C 129.171 -2.29861 -2.12446 0
M  V30 1316 C 129.646 -3.52048 -2.92961 0
M  V30 1317 N 131.137 -3.52465 -3.00538 0
M  V30 1318 C 131.872 -4.43672 -3.63239 0
M  V30 1319 N 131.368 -5.45157 -4.27523 0
M  V30 1320 N 133.161 -4.31346 -3.60412 0
M  V30 1321 H 125.312 -2.07951 -0.432471 0
M  V30 1322 H 127.575 -0.91339 -0.253816 0
M  V30 1323 H 127.281 -3.18194 -1.49817 0
M  V30 1324 H 127.155 -2.28502 -3.00111 0
M  V30 1325 H 129.542 -1.37252 -2.61239 0
M  V30 1326 H 129.623 -2.3044 -1.11044 0
M  V30 1327 H 129.267 -4.44981 -2.44856 0
M  V30 1328 H 129.197 -3.48715 -3.94596 0
M  V30 1329 H 131.688 -2.79056 -2.54826 0
M  V30 1330 H 132.001 -6.10958 -4.73234 0
M  V30 1331 H 130.346 -5.49025 -4.26141 0
M  V30 1332 H 133.537 -3.51288 -3.09377 0
M  V30 1333 H 133.71 -5.02624 -4.0899 0
M  V30 1334 N 127.117 1.15442 -1.07289 0
M  V30 1335 C 128.047 2.22312 -0.714107 0
M  V30 1336 C 129.028 1.67467 0.298155 0
M  V30 1337 O 130.213 1.93445 0.171048 0
M  V30 1338 C 127.343 3.47124 -0.110448 0
M  V30 1339 C 126.297 4.14926 -1.04979 0
M  V30 1340 C 125.623 5.33807 -0.308924 0
M  V30 1341 C 126.923 4.64762 -2.38314 0
M  V30 1342 H 128.617 2.5258 -1.6076 0
M  V30 1343 H 126.163 1.21404 -0.77441 0
M  V30 1344 H 128.116 4.21124 0.152482 0
M  V30 1345 H 126.84 3.16187 0.81812 0
M  V30 1346 H 125.499 3.42866 -1.29764 0
M  V30 1347 H 125.147 4.99126 0.623084 0
M  V30 1348 H 124.847 5.80113 -0.935036 0
M  V30 1349 H 126.371 6.10576 -0.0537771 0
M  V30 1350 H 127.785 5.30292 -2.1786 0
M  V30 1351 H 126.182 5.21728 -2.96514 0
M  V30 1352 H 127.252 3.80434 -3.00663 0
M  V30 1353 N 128.595 0.856903 1.32268 0
M  V30 1354 C 129.82 0.474569 2.01897 0
M  V30 1355 C 130.245 -0.921766 1.63967 0
M  V30 1356 O 129.603 -1.60589 0.84148 0
M  V30 1357 C 129.651 0.623799 3.55164 0
M  V30 1358 O 128.755 -0.342459 4.10976 0
M  V30 1359 H 128.096 0.190422 0.63611 0
M  V30 1360 H 130.626 1.15672 1.68764 0
M  V30 1361 H 130.636 0.512169 4.04773 0
M  V30 1362 H 129.311 1.64202 3.82113 0
M  V30 1363 H 127.888 -0.18688 3.72431 0
M  V30 1364 N 130.073 -1.45103 0.615059 0
M  V30 1365 C 131.023 -2.27679 -0.120966 0
M  V30 1366 C 132.007 -1.3775 -0.831491 0
M  V30 1367 O 133.199 -1.61683 -0.720249 0
M  V30 1368 C 130.328 -3.24767 -1.1127 0
M  V30 1369 C 129.414 -4.22184 -0.402627 0
M  V30 1370 N 129.805 -5.02692 0.559884 0
M  V30 1371 C 128.103 -4.4125 -0.649202 0
M  V30 1372 C 128.804 -5.73421 0.977942 0
M  V30 1373 N 127.78 -5.42657 0.320104 0
M  V30 1374 H 131.582 -2.87325 0.618181 0
M  V30 1375 H 129.096 -1.56345 0.439304 0
M  V30 1376 H 131.093 -3.82666 -1.65446 0
M  V30 1377 H 129.753 -2.66682 -1.85232 0
M  V30 1378 H 130.764 -5.09354 0.936976 0
M  V30 1379 H 127.441 -3.9428 -1.37293 0
M  V30 1380 H 128.831 -6.48107 1.77222 0
M  V30 1381 N 131.551 -0.354651 -1.53558 0
M  V30 1382 C 132.481 0.489091 -2.2832 0
M  V30 1383 C 133.462 1.09324 -1.30316 0
M  V30 1384 O 134.647 1.11255 -1.59173 0
M  V30 1385 C 131.777 1.63456 -3.0643 0
M  V30 1386 C 130.731 1.1582 -4.12031 0
M  V30 1387 C 130.057 2.39305 -4.7816 0
M  V30 1388 C 131.357 0.250731 -5.21698 0
M  V30 1389 H 133.051 -0.134614 -2.99097 0
M  V30 1390 H 130.597 -0.0661826 -1.43848 0
M  V30 1391 H 132.55 2.23136 -3.57475 0
M  V30 1392 H 131.274 2.28533 -2.33325 0
M  V30 1393 H 129.933 0.584146 -3.61916 0
M  V30 1394 H 129.581 3.02814 -4.01637 0
M  V30 1395 H 129.281 2.08109 -5.49513 0
M  V30 1396 H 130.805 2.99691 -5.31994 0
M  V30 1397 H 132.219 0.754695 -5.68311 0
M  V30 1398 H 130.616 0.0301468 -6.00092 0
M  V30 1399 H 131.686 -0.710125 -4.79672 0
M  V30 1400 N 133.029 1.57378 -0.0835403 0
M  V30 1401 C 134.445 1.57246 0.273109 0
M  V30 1402 C 134.645 1.09385 1.69225 0
M  V30 1403 O 133.701 0.765051 2.40631 0
M  V30 1404 C 135.014 3.00614 0.0720628 0
M  V30 1405 C 136.562 3.12684 0.1407 0
M  V30 1406 C 137.037 4.57989 -0.0322094 0
M  V30 1407 N 138.528 4.63194 0.0230085 0
M  V30 1408 C 139.263 5.73335 -0.0861941 0
M  V30 1409 N 138.759 6.9235 -0.24958 0
M  V30 1410 N 140.552 5.62093 -0.0282886 0
M  V30 1411 H 132.703 1.86801 -1.0109 0
M  V30 1412 H 134.966 0.861687 -0.395222 0
M  V30 1413 H 134.672 3.39786 -0.907662 0
M  V30 1414 H 134.546 3.68193 0.81936 0
M  V30 1415 H 136.933 2.73391 1.11092 0
M  V30 1416 H 137.014 2.47719 -0.637896 0
M  V30 1417 H 136.658 4.97973 -0.999247 0
M  V30 1418 H 136.588 5.21 0.765937 0
M  V30 1419 H 139.079 3.77613 0.14722 0
M  V30 1420 H 139.392 7.72117 -0.324733 0
M  V30 1421 H 137.737 6.94415 -0.285097 0
M  V30 1422 H 140.928 4.67997 0.0981408 0
M  V30 1423 H 141.101 6.47895 -0.116845 0
M  V30 1424 N 134.507 -0.190092 1.56449 0
M  V30 1425 C 135.732 -0.929864 1.85387 0
M  V30 1426 C 136.157 -1.7585 0.667704 0
M  V30 1427 O 135.515 -1.77198 -0.383459 0
M  V30 1428 C 135.563 -1.79773 3.12593 0
M  V30 1429 O 134.667 -2.89713 2.93496 0
M  V30 1430 H 134.008 -0.261574 0.610307 0
M  V30 1431 H 136.538 -0.193896 2.03679 0
M  V30 1432 H 136.548 -2.20139 3.43515 0
M  V30 1433 H 135.223 -1.18892 3.98544 0
M  V30 1434 H 133.8 -2.53065 2.73884 0
M  V30 1435 N 135.985 -1.50799 -0.457987 0
M  V30 1436 C 136.895 -1.73426 -1.57989 0
M  V30 1437 C 137.911 -0.617745 -1.62665 0
M  V30 1438 O 139.087 -0.897614 -1.80291 0
M  V30 1439 C 136.152 -1.83557 -2.94122 0
M  V30 1440 C 135.213 -3.07345 -2.99729 0
M  V30 1441 C 134.446 -3.16983 -4.29368 0
M  V30 1442 O 134.669 -2.33077 -5.20607 0
M  V30 1443 O 133.603 -4.09812 -4.40837 0
M  V30 1444 H 137.429 -2.68555 -1.41817 0
M  V30 1445 H 135.014 -1.35052 -0.638859 0
M  V30 1446 H 136.896 -1.92326 -3.74952 0
M  V30 1447 H 135.571 -0.916137 -3.10465 0
M  V30 1448 H 134.478 -3.04068 -2.1793 0
M  V30 1449 H 135.811 -3.9891 -2.88326 0
M  V30 1450 N 137.463 0.71206 -1.40597 0
M  V30 1451 C 138.373 1.8562 -1.43466 0
M  V30 1452 C 139.389 1.70902 -0.326902 0
M  V30 1453 O 140.565 1.93105 -0.572043 0
M  V30 1454 C 137.63 3.21451 -1.29884 0
M  V30 1455 C 136.691 3.48398 -2.50833 0
M  V30 1456 C 135.924 4.77749 -2.3789 0
M  V30 1457 O 136.147 5.53089 -1.39459 0
M  V30 1458 O 135.081 5.05111 -3.27333 0
M  V30 1459 H 138.907 1.86155 -2.39958 0
M  V30 1460 H 136.492 0.86295 -1.21957 0
M  V30 1461 H 138.374 4.02579 -1.24531 0
M  V30 1462 H 137.049 3.21636 -0.364997 0
M  V30 1463 H 135.956 2.67265 -2.61763 0
M  V30 1464 H 137.289 3.53014 -3.4299 0
M  V30 1465 N 138.941 1.26152 0.944643 0
M  V30 1466 C 140.187 1.11657 1.69294 0
M  V30 1467 C 140.52 -0.339926 1.91202 0
M  V30 1468 O 139.795 -1.24994 1.49019 0
M  V30 1469 C 140.078 1.88236 3.06984 0
M  V30 1470 C 139.931 3.41772 2.92424 0
M  V30 1471 C 141.25 1.67343 4.07043 0
M  V30 1472 H 138.369 0.407004 0.614424 0
M  V30 1473 H 141.011 1.55106 1.09737 0
M  V30 1474 H 139.161 1.51308 3.57824 0
M  V30 1475 H 140.833 3.88433 2.48832 0
M  V30 1476 H 139.076 3.68974 2.28124 0
M  V30 1477 H 139.747 3.90579 3.90067 0
M  V30 1478 H 142.223 1.99509 3.65151 0
M  V30 1479 H 141.099 2.23346 5.01406 0
M  V30 1480 H 141.36 0.617158 4.37771 0
M  V30 1481 N 140.419 -1.14872 1.07899 0
M  V30 1482 C 141.369 -2.17809 0.674027 0
M  V30 1483 C 142.353 -1.58008 -0.303699 0
M  V30 1484 O 143.545 -1.76616 -0.11654 0
M  V30 1485 C 140.674 -3.43208 0.0793318 0
M  V30 1486 C 139.76 -4.10051 1.08253 0
M  V30 1487 N 140.151 -4.52296 2.2641 0
M  V30 1488 C 138.449 -4.36469 0.917124 0
M  V30 1489 C 139.15 -5.04199 2.901 0
M  V30 1490 N 138.126 -4.98088 2.17736 0
M  V30 1491 H 141.928 -2.48207 1.57386 0
M  V30 1492 H 139.442 -1.315 0.952976 0
M  V30 1493 H 141.439 -4.16272 -0.228719 0
M  V30 1494 H 140.099 -3.14291 -0.815551 0
M  V30 1495 H 141.11 -4.45504 2.64096 0
M  V30 1496 H 137.787 -4.17432 0.0756078 0
M  V30 1497 H 139.177 -5.46802 3.90458 0
M  V30 1498 N 141.898 -0.863906 -1.31812 0
M  V30 1499 C 143.144 -0.481841 -1.9761 0
M  V30 1500 C 143.499 0.954048 -1.6708 0
M  V30 1501 O 142.792 1.66182 -0.953624 0
M  V30 1502 C 142.986 -0.668547 -3.51091 0
M  V30 1503 C 142.815 -2.12103 -3.96538 0
M  V30 1504 C 141.585 -2.76141 -4.23171 0
M  V30 1505 C 143.783 -3.09265 -4.10925 0
M  V30 1506 N 141.765 -4.12205 -4.54929 0
M  V30 1507 C 143.136 -4.30341 -4.46326 0
M  V30 1508 C 145.191 -3.05337 -3.93286 0
M  V30 1509 C 143.894 -5.48 -4.65928 0
M  V30 1510 C 145.92 -4.22248 -4.14078 0
M  V30 1511 C 145.282 -5.42085 -4.49804 0
M  V30 1512 H 141.381 -0.225238 -0.74886 0
M  V30 1513 H 143.965 -1.11723 -1.59455 0
M  V30 1514 H 142.136 -0.0627898 -3.88349 0
M  V30 1515 H 143.868 -0.255467 -4.03893 0
M  V30 1516 H 140.623 -2.27125 -4.15585 0
M  V30 1517 H 141.047 -4.82416 -4.74978 0
M  V30 1518 H 145.689 -2.138 -3.64759 0
M  V30 1519 H 143.407 -6.40059 -4.93305 0
M  V30 1520 H 146.993 -4.20654 -4.01922 0
M  V30 1521 H 145.873 -6.31044 -4.65567 0
M  V30 1522 N 143.376 1.44774 -0.622745 0
M  V30 1523 C 144.306 2.33382 0.0741861 0
M  V30 1524 C 145.287 1.47719 0.843387 0
M  V30 1525 O 146.472 1.76458 0.810934 0
M  V30 1526 C 143.602 3.30663 1.06204 0
M  V30 1527 C 142.556 4.26079 0.405037 0
M  V30 1528 C 141.882 5.13165 1.5022 0
M  V30 1529 C 143.182 5.1781 -0.683414 0
M  V30 1530 H 144.876 2.91905 -0.665713 0
M  V30 1531 H 142.422 1.40363 -0.321587 0
M  V30 1532 H 144.375 3.9153 1.55827 0
M  V30 1533 H 143.099 2.70331 1.83272 0
M  V30 1534 H 141.758 3.66532 -0.0704683 0
M  V30 1535 H 141.406 4.49191 2.26355 0
M  V30 1536 H 141.106 5.77812 1.06803 0
M  V30 1537 H 142.63 5.76902 2.00041 0
M  V30 1538 H 144.044 5.72661 -0.270631 0
M  V30 1539 H 142.441 5.91015 -1.04023 0
M  V30 1540 H 143.511 4.59326 -1.55395 0
M  V30 1541 N 144.854 0.36279 1.53368 0
M  V30 1542 C 145.804 -0.501391 2.22419 0
M  V30 1543 C 146.788 -1.0509 1.2184 0
M  V30 1544 O 147.98 -0.981404 1.47301 0
M  V30 1545 C 145.109 -1.64201 3.01484 0
M  V30 1546 C 144.195 -1.10552 4.09438 0
M  V30 1547 N 144.586 -0.291788 5.04958 0
M  V30 1548 C 142.884 -1.3806 4.24094 0
M  V30 1549 C 143.585 0.00162655 5.817 0
M  V30 1550 N 142.561 -0.595244 5.40331 0
M  V30 1551 H 146.363 0.127159 2.93625 0
M  V30 1552 H 143.877 0.170658 1.61501 0
M  V30 1553 H 145.874 -2.27326 3.49469 0
M  V30 1554 H 144.534 -2.27365 2.31809 0
M  V30 1555 H 145.545 0.0687731 5.17854 0
M  V30 1556 H 142.222 -2.01522 3.65644 0
M  V30 1557 H 143.612 0.659278 6.68658 0
M  V30 1558 N 146.332 -1.57332 0.0918853 0
M  V30 1559 C 147.578 -1.94524 -0.573425 0
M  V30 1560 C 147.911 -0.973578 -1.68033 0
M  V30 1561 O 147.186 -0.00609226 -1.94499 0
M  V30 1562 C 147.469 -3.41858 -1.13161 0
M  V30 1563 C 147.322 -4.4979 -0.0299747 0
M  V30 1564 C 148.641 -3.90435 -2.03098 0
M  V30 1565 H 145.76 -0.70734 -0.206975 0
M  V30 1566 H 148.402 -1.89309 0.161942 0
M  V30 1567 H 146.552 -3.46433 -1.7583 0
M  V30 1568 H 148.224 -4.57327 0.604112 0
M  V30 1569 H 146.467 -4.291 0.636833 0
M  V30 1570 H 147.138 -5.50069 -0.461287 0
M  V30 1571 H 149.614 -3.87992 -1.50338 0
M  V30 1572 H 148.49 -4.94097 -2.39081 0
M  V30 1573 H 148.751 -3.29541 -2.94712 0
M  V30 1574 N 147.81 0.181792 -1.56548 0
M  V30 1575 C 149.087 0.926765 -1.72251 0
M  V30 1576 C 149.467 2.00831 -0.650386 0
M  V30 1577 O 148.815 2.26008 0.336521 0
M  V30 1578 C 149.025 1.50106 -3.1507 0
M  V30 1579 C 150.373 1.97805 -3.75711 0
M  V30 1580 O 151.397 1.59922 -3.18282 0
M  V30 1581 O 150.256 2.67555 -4.76525 0
M  V30 1582 H 147.35 0.435506 -0.703039 0
M  V30 1583 H 149.896 0.170443 -1.68842 0
M  V30 1584 H 148.668 0.72212 -3.84579 0
M  V30 1585 H 148.291 2.32186 -3.22763 0
M  V30 1586 N 149.288 1.51039 0.449983 0
M  V30 1587 C 150.221 1.66105 1.56474 0
M  V30 1588 C 151.199 0.508776 1.54435 0
M  V30 1589 O 152.383 0.731005 1.73749 0
M  V30 1590 C 149.51 1.66304 2.9506 0
M  V30 1591 C 148.556 2.87346 3.15174 0
M  V30 1592 S 149.389 4.4835 2.92818 0
M  V30 1593 C 150.545 4.51274 4.33708 0
M  V30 1594 H 150.778 2.60397 1.43459 0
M  V30 1595 H 148.311 1.40565 0.638805 0
M  V30 1596 H 150.269 1.67103 3.74949 0
M  V30 1597 H 148.93 0.732108 3.05449 0
M  V30 1598 H 148.123 2.83849 4.16468 0
M  V30 1599 H 147.725 2.84223 2.43091 0
M  V30 1600 H 150.017 4.26136 5.26701 0
M  V30 1601 H 150.96 5.53017 4.42242 0
M  V30 1602 H 151.368 3.80738 4.16772 0
M  V30 1603 N 150.766 -0.704594 1.40972 0
M  V30 1604 C 152.014 -1.46169 1.39568 0
M  V30 1605 C 152.335 -1.95 0.00253745 0
M  V30 1606 O 151.605 -1.71095 -0.954114 0
M  V30 1607 H 150.185 -0.542326 0.513704 0
M  V30 1608 H 152.847 -0.834553 1.76128 0
M  V30 1609 H 151.943 -2.32922 2.07735 0
M  V30 1610 N 152.244 -1.26651 -0.937939 0
M  V30 1611 C 153.49 -1.12553 -1.687 0
M  V30 1612 C 153.823 0.329782 -1.91379 0
M  V30 1613 O 153.098 1.24202 -1.4968 0
M  V30 1614 C 153.381 -1.89862 -3.05981 0
M  V30 1615 C 153.234 -3.43318 -2.90607 0
M  V30 1616 C 154.553 -1.69499 -4.0615 0
M  V30 1617 H 151.672 -0.410257 -0.612257 0
M  V30 1618 H 154.314 -1.55685 -1.08913 0
M  V30 1619 H 152.464 -1.53204 -3.57017 0
M  V30 1620 H 154.136 -3.89747 -2.46769 0
M  V30 1621 H 152.379 -3.70179 -2.26164 0
M  V30 1622 H 153.05 -3.92642 -3.8799 0
M  V30 1623 H 155.526 -2.01442 -3.64088 0
M  V30 1624 H 154.402 -2.26002 -5.00214 0
M  V30 1625 H 154.663 -0.640365 -4.37438 0
M  V30 1626 N 153.722 1.14298 -1.08507 0
M  V30 1627 C 154.947 1.8976 -0.837001 0
M  V30 1628 C 155.372 1.78097 0.605228 0
M  V30 1629 O 154.73 1.12188 1.4242 0
M  V30 1630 C 154.778 3.37685 -1.26495 0
M  V30 1631 O 153.882 4.10281 -0.417514 0
M  V30 1632 H 153.223 0.590365 -0.303917 0
M  V30 1633 H 155.753 1.44672 -1.44676 0
M  V30 1634 H 155.763 3.88501 -1.24625 0
M  V30 1635 H 154.438 3.45492 -2.31534 0
M  V30 1636 H 153.015 3.69536 -0.499722 0
M  V30 1637 N 155.201 0.870884 1.31352 0
M  V30 1638 C 156.426 0.495957 2.01383 0
M  V30 1639 C 156.851 -0.904324 1.64935 0
M  V30 1640 O 156.209 -1.59687 0.858466 0
M  V30 1641 C 156.257 0.661433 3.54482 0
M  V30 1642 O 155.361 -0.298851 4.11316 0
M  V30 1643 H 154.702 0.197158 0.634054 0
M  V30 1644 H 157.232 1.17455 1.67527 0
M  V30 1645 H 157.242 0.555072 4.04207 0
M  V30 1646 H 155.917 1.68246 3.8035 0
M  V30 1647 H 154.494 -0.147368 3.72609 0
M  V30 1648 N 156.679 -1.44442 0.630414 0
M  V30 1649 C 157.925 -2.02351 0.134816 0
M  V30 1650 C 158.258 -1.4947 -1.23986 0
M  V30 1651 O 157.533 -0.678475 -1.82283 0
M  V30 1652 C 157.816 -3.59898 0.120707 0
M  V30 1653 C 157.669 -4.23063 1.52767 0
M  V30 1654 C 158.988 -4.36585 -0.555127 0
M  V30 1655 H 156.107 -0.73527 0.0504646 0
M  V30 1656 H 158.749 -1.72022 0.806751 0
M  V30 1657 H 156.899 -3.85868 -0.451477 0
M  V30 1658 H 158.571 -4.08202 2.14869 0
M  V30 1659 H 156.814 -3.80586 2.08175 0
M  V30 1660 H 157.485 -5.32071 1.46984 0
M  V30 1661 H 159.961 -4.16044 -0.0685429 0
M  V30 1662 H 158.837 -5.46294 -0.534185 0
M  V30 1663 H 159.098 -4.11138 -1.62535 0
M  V30 1664 N 158.157 -0.370918 -1.53173 0
M  V30 1665 C 159.573 -0.0200818 -1.59587 0
M  V30 1666 C 159.773 1.46279 -1.38581 0
M  V30 1667 O 158.829 2.22506 -1.19363 0
M  V30 1668 C 160.142 -0.4808 -2.96831 0
M  V30 1669 C 161.69 -0.435477 -3.09956 0
M  V30 1670 C 162.165 -0.872092 -4.4962 0
M  V30 1671 N 163.656 -0.827364 -4.55751 0
M  V30 1672 C 164.391 -1.13683 -5.62018 0
M  V30 1673 N 163.887 -1.51584 -6.76014 0
M  V30 1674 N 165.68 -1.05927 -5.52029 0
M  V30 1675 H 157.831 -1.33652 -1.65079 0
M  V30 1676 H 160.094 -0.546634 -0.774529 0
M  V30 1677 H 159.8 -1.51577 -3.1736 0
M  V30 1678 H 159.674 0.129796 -3.76977 0
M  V30 1679 H 162.061 0.590371 -2.89134 0
M  V30 1680 H 162.142 -1.08164 -2.31806 0
M  V30 1681 H 161.786 -1.89608 -4.71181 0
M  V30 1682 H 161.716 -0.203127 -5.26208 0
M  V30 1683 H 164.207 -0.548216 -3.73902 0
M  V30 1684 H 164.52 -1.73609 -7.53047 0
M  V30 1685 H 162.865 -1.55454 -6.77391 0
M  V30 1686 H 166.056 -0.762321 -4.61851 0
M  V30 1687 H 166.229 -1.30378 -6.34749 0
M  V30 1688 N 159.635 1.57281 -0.100228 0
M  V30 1689 C 160.545 2.17833 0.870965 0
M  V30 1690 C 161.561 1.14921 1.30649 0
M  V30 1691 O 162.737 1.47313 1.37335 0
M  V30 1692 C 159.802 2.75085 2.1102 0
M  V30 1693 C 158.863 3.9297 1.72838 0
M  V30 1694 C 158.096 4.47482 2.90854 0
M  V30 1695 O 158.319 4.00922 4.05731 0
M  V30 1696 O 157.253 5.38433 2.69023 0
M  V30 1697 H 161.079 3.0124 0.38575 0
M  V30 1698 H 158.664 1.48881 0.124397 0
M  V30 1699 H 160.546 3.11656 2.83634 0
M  V30 1700 H 159.221 1.94721 2.58584 0
M  V30 1701 H 158.128 3.61201 0.973883 0
M  V30 1702 H 159.461 4.74713 1.30033 0
M  V30 1703 N 161.113 -0.173488 1.56642 0
M  V30 1704 C 162.06 -1.21482 1.96242 0
M  V30 1705 C 163.03 -1.44104 0.826027 0
M  V30 1706 O 164.215 -1.5688 1.08597 0
M  V30 1707 C 161.355 -2.54964 2.32567 0
M  V30 1708 C 160.468 -2.39739 3.59373 0
M  V30 1709 C 159.603 -3.66072 3.84921 0
M  V30 1710 C 158.642 -3.45771 5.05083 0
M  V30 1711 N 157.779 -4.64169 5.26775 0
M  V30 1712 H 162.619 -0.870123 2.85014 0
M  V30 1713 H 160.156 -0.418245 1.41029 0
M  V30 1714 H 162.114 -3.32758 2.5165 0
M  V30 1715 H 160.744 -2.87433 1.46908 0
M  V30 1716 H 159.796 -1.53131 3.48217 0
M  V30 1717 H 161.108 -2.20683 4.47326 0
M  V30 1718 H 160.262 -4.52303 4.0436 0
M  V30 1719 H 159.001 -3.88105 2.9534 0
M  V30 1720 H 158.006 -2.57927 4.85545 0
M  V30 1721 H 159.231 -3.25163 5.96193 0
M  V30 1722 H 157.177 -4.86425 4.40144 0
M  V30 1723 H 157.094 -4.48019 6.08946 0
M  V30 1724 H 158.362 -5.51689 5.5069 0
M  V30 1725 N 162.591 -1.51276 -0.441967 0
M  V30 1726 C 163.821 -1.67273 -1.21257 0
M  V30 1727 C 164.229 -0.367624 -1.85594 0
M  V30 1728 O 163.572 0.663349 -1.71305 0
M  V30 1729 C 163.634 -2.72807 -2.34129 0
M  V30 1730 C 163.298 -4.1554 -1.90198 0
M  V30 1731 C 164.295 -5.00471 -1.40801 0
M  V30 1732 C 161.98 -4.61616 -1.9803 0
M  V30 1733 C 163.974 -6.29536 -0.998174 0
M  V30 1734 C 161.661 -5.90679 -1.56658 0
M  V30 1735 C 162.659 -6.74466 -1.07633 0
M  V30 1736 O 162.347 -8.01116 -0.668459 0
M  V30 1737 H 162.079 -0.564614 -0.371734 0
M  V30 1738 H 164.633 -1.9843 -0.530521 0
M  V30 1739 H 162.863 -2.36954 -3.05597 0
M  V30 1740 H 164.552 -2.77729 -2.96009 0
M  V30 1741 H 165.318 -4.66079 -1.34148 0
M  V30 1742 H 161.197 -3.96526 -2.35135 0
M  V30 1743 H 164.741 -6.94885 -0.61482 0
M  V30 1744 H 160.638 -6.24586 -1.62979 0
M  V30 1745 H 161.406 -8.14633 -0.794722 0
M  V30 1746 N 164.069 0.697108 -1.41344 0
M  V30 1747 C 164.979 1.84088 -1.45427 0
M  V30 1748 C 165.995 1.70545 -0.34501 0
M  V30 1749 O 167.171 1.92488 -0.592492 0
M  V30 1750 C 164.236 3.20056 -1.33286 0
M  V30 1751 C 163.297 3.45718 -2.54514 0
M  V30 1752 C 162.53 4.75199 -2.42944 0
M  V30 1753 O 162.753 5.51579 -1.45318 0
M  V30 1754 O 161.687 5.0161 -3.32672 0
M  V30 1755 H 165.513 1.836 -2.41919 0
M  V30 1756 H 163.098 0.849966 -1.22866 0
M  V30 1757 H 164.98 4.01236 -1.28794 0
M  V30 1758 H 163.655 3.2123 -0.39909 0
M  V30 1759 H 162.562 2.64474 -2.64583 0
M  V30 1760 H 163.895 3.49356 -3.46715 0
M  V30 1761 N 165.547 1.27147 0.931209 0
M  V30 1762 C 166.477 1.12081 2.04842 0
M  V30 1763 C 167.458 0.0232364 1.70084 0
M  V30 1764 O 168.643 0.197085 1.93197 0
M  V30 1765 C 165.773 0.76354 3.38803 0
M  V30 1766 C 164.727 1.81396 3.87659 0
M  V30 1767 C 164.053 1.31075 5.18385 0
M  V30 1768 C 165.353 3.21739 4.11438 0
M  V30 1769 H 167.047 2.05537 2.17703 0
M  V30 1770 H 164.593 0.989603 1.04608 0
M  V30 1771 H 166.546 0.644982 4.16435 0
M  V30 1772 H 165.27 -0.206727 3.25945 0
M  V30 1773 H 163.929 1.92136 3.12217 0
M  V30 1774 H 163.577 0.330037 5.01916 0
M  V30 1775 H 163.277 2.013 5.52044 0
M  V30 1776 H 164.801 1.20506 5.98591 0
M  V30 1777 H 166.215 3.14019 4.79651 0
M  V30 1778 H 164.612 3.89644 4.56397 0
M  V30 1779 H 165.682 3.67054 3.16859 0
M  V30 1780 N 167.025 -1.13721 1.09112 0
M  V30 1781 C 167.988 -2.17222 0.731241 0
M  V30 1782 C 168.988 -1.59035 -0.237566 0
M  V30 1783 O 170.178 -1.74192 -0.0161704 0
M  V30 1784 C 167.31 -3.40804 0.0808443 0
M  V30 1785 H 168.503 -2.50573 1.64783 0
M  V30 1786 H 166.056 -1.28493 0.889897 0
M  V30 1787 H 166.791 -3.1304 -0.847127 0
M  V30 1788 H 166.576 -3.84306 0.777896 0
M  V30 1789 H 168.066 -4.1731 -0.155657 0
M  V30 1790 N 168.503 -0.877838 -1.30888 0
M  V30 1791 C 169.453 -0.310872 -2.25871 0
M  V30 1792 C 170.437 0.556596 -1.50966 0
M  V30 1793 O 171.629 0.402187 -1.7237 0
M  V30 1794 C 168.758 0.479821 -3.3993 0
M  V30 1795 C 167.844 -0.401333 -4.22197 0
M  V30 1796 N 168.235 -1.49848 -4.83093 0
M  V30 1797 C 166.533 -0.195167 -4.45573 0
M  V30 1798 C 167.234 -2.0425 -5.44662 0
M  V30 1799 N 166.21 -1.33843 -5.26865 0
M  V30 1800 H 170.012 -1.1493 -2.70496 0
M  V30 1801 H 167.526 -0.726458 -1.45246 0
M  V30 1802 H 169.523 0.902582 -4.07012 0
M  V30 1803 H 168.183 1.31577 -2.96846 0
M  V30 1804 H 169.194 -1.88137 -4.82519 0
M  V30 1805 H 165.871 0.604192 -4.13105 0
M  V30 1806 H 167.261 -2.96345 -6.03017 0
M  V30 1807 N 169.982 1.44106 -0.638065 0
M  V30 1808 C 171.393 1.85316 -0.226894 0
M  V30 1809 C 171.744 1.53399 1.22324 0
M  V30 1810 O 170.869 0.975463 1.93167 0
M  V30 1811 C 171.464 3.3637 -0.405013 0
M  V30 1812 C 170.023 3.76369 -0.0482902 0
M  V30 1813 C 169.17 2.67921 -0.715108 0
M  V30 1814 H 172.121 1.34474 -0.842764 0
M  V30 1815 H 172.142 3.7885 0.354 0
M  V30 1816 H 171.654 3.59569 -1.46053 0
M  V30 1817 H 169.755 3.58784 1.00522 0
M  V30 1818 H 169.868 4.76856 -0.463187 0
M  V30 1819 H 168.232 2.54259 -0.149753 0
M  V30 1820 H 169.015 2.93951 -1.77335 0
M  V30 1821 N 171.46 0.379036 1.52974 0
M  V30 1822 C 172.871 -0.0972525 1.86447 0
M  V30 1823 C 173.222 -1.47027 1.29914 0
M  V30 1824 O 172.347 -2.07135 0.626433 0
M  V30 1825 C 172.942 -0.183248 3.38304 0
M  V30 1826 C 171.501 -0.603812 3.71525 0
M  V30 1827 C 170.648 0.240632 2.76254 0
M  V30 1828 H 173.599 0.597316 1.4703 0
M  V30 1829 H 173.62 -1.00432 3.67006 0
M  V30 1830 H 173.132 0.816191 3.79421 0
M  V30 1831 H 171.233 -1.61099 3.35973 0
M  V30 1832 H 171.346 -0.369086 4.77676 0
M  V30 1833 H 169.71 -0.292548 2.53014 0
M  V30 1834 H 170.493 1.23786 3.20206 0
M  V30 1835 N 172.938 -1.57226 0.108567 0
M  V30 1836 C 173.848 -2.18292 -0.859401 0
M  V30 1837 C 174.864 -1.15612 -1.30038 0
M  V30 1838 O 176.04 -1.48039 -1.36552 0
M  V30 1839 C 173.105 -2.762 -2.09558 0
M  V30 1840 C 172.166 -3.93881 -1.70752 0
M  V30 1841 C 171.399 -4.49018 -2.88477 0
M  V30 1842 O 171.622 -4.03068 -4.036 0
M  V30 1843 O 170.556 -5.39852 -2.66164 0
M  V30 1844 H 174.382 -3.01441 -0.369769 0
M  V30 1845 H 171.967 -1.48945 -0.1165 0
M  V30 1846 H 173.849 -3.13156 -2.81978 0
M  V30 1847 H 172.524 -1.96089 -2.57548 0
M  V30 1848 H 171.431 -3.61713 -0.954714 0
M  V30 1849 H 172.764 -4.75396 -1.27513 0
M  V30 1850 N 174.416 0.165178 -1.56732 0
M  V30 1851 C 175.326 1.22423 -2.00125 0
M  V30 1852 C 176.342 1.48084 -0.913619 0
M  V30 1853 O 177.518 1.60112 -1.22172 0
M  V30 1854 C 174.583 2.54197 -2.35764 0
M  V30 1855 C 173.644 2.36343 -3.58386 0
M  V30 1856 C 172.877 3.61834 -3.92316 0
M  V30 1857 O 173.1 4.67267 -3.27135 0
M  V30 1858 O 172.034 3.55579 -4.85641 0
M  V30 1859 H 175.86 0.885886 -2.90492 0
M  V30 1860 H 173.445 0.372518 -1.44681 0
M  V30 1861 H 175.327 3.3192 -2.59629 0
M  V30 1862 H 174.002 2.87598 -1.48557 0
M  V30 1863 H 172.909 1.56632 -3.39731 0
M  V30 1864 H 174.242 2.07865 -4.46154 0
M  V30 1865 N 175.894 1.51508 0.433938 0
M  V30 1866 C 177.14 1.65549 1.18173 0
M  V30 1867 C 177.495 0.368751 1.88833 0
M  V30 1868 O 176.788 -0.635616 1.8075 0
M  V30 1869 C 176.982 2.79928 2.22205 0
M  V30 1870 C 176.811 4.19601 1.61756 0
M  V30 1871 C 175.581 4.85489 1.40101 0
M  V30 1872 C 177.779 5.02574 1.09194 0
M  V30 1873 N 175.761 6.09266 0.752859 0
M  V30 1874 C 177.132 6.17381 0.569255 0
M  V30 1875 C 179.187 4.88079 0.984025 0
M  V30 1876 C 177.89 7.19282 -0.0507472 0
M  V30 1877 C 179.916 5.90191 0.377912 0
M  V30 1878 C 179.278 7.04272 -0.134216 0
M  V30 1879 H 175.377 0.659653 0.419979 0
M  V30 1880 H 177.961 1.88746 0.477818 0
M  V30 1881 H 176.132 2.5839 2.89982 0
M  V30 1882 H 177.864 2.83132 2.89168 0
M  V30 1883 H 174.619 4.43417 1.66369 0
M  V30 1884 H 175.043 6.75528 0.446123 0
M  V30 1885 H 179.685 4.00131 1.36583 0
M  V30 1886 H 177.403 8.06876 -0.444676 0
M  V30 1887 H 180.989 5.81045 0.296269 0
M  V30 1888 H 179.869 7.81933 -0.59585 0
M  V30 1889 N 177.372 -0.689602 1.41712 0
M  V30 1890 C 178.319 -1.80345 1.44029 0
M  V30 1891 C 179.289 -1.63478 0.293948 0
M  V30 1892 O 180.474 -1.84244 0.495869 0
M  V30 1893 C 177.614 -3.18272 1.33405 0
M  V30 1894 C 176.727 -3.46529 2.57956 0
M  V30 1895 C 175.862 -4.74103 2.39582 0
M  V30 1896 C 174.901 -4.95347 3.5958 0
M  V30 1897 N 174.038 -6.14151 3.40239 0
M  V30 1898 H 178.878 -1.77698 2.39222 0
M  V30 1899 H 176.415 -0.867688 1.18784 0
M  V30 1900 H 178.373 -3.97956 1.25246 0
M  V30 1901 H 177.003 -3.2008 0.418164 0
M  V30 1902 H 176.055 -2.61207 2.76542 0
M  V30 1903 H 177.367 -3.58126 3.47199 0
M  V30 1904 H 176.521 -5.61853 2.28924 0
M  V30 1905 H 175.26 -4.64763 1.47805 0
M  V30 1906 H 174.265 -4.06044 3.70686 0
M  V30 1907 H 175.49 -5.06542 4.52318 0
M  V30 1908 H 173.436 -6.06013 2.51167 0
M  V30 1909 H 173.353 -6.26543 4.23061 0
M  V30 1910 H 174.621 -7.04619 3.33365 0
M  V30 1911 N 178.85 -1.27639 -0.924453 0
M  V30 1912 C 180.08 -1.16819 -1.70402 0
M  V30 1913 C 180.488 0.277191 -1.87158 0
M  V30 1914 O 179.831 1.20025 -1.39067 0
M  V30 1915 C 179.893 -1.78305 -3.12166 0
M  V30 1916 C 179.557 -3.27502 -3.18734 0
M  V30 1917 C 180.554 -4.2409 -3.00738 0
M  V30 1918 C 178.239 -3.68269 -3.4159 0
M  V30 1919 C 180.233 -5.59422 -3.05492 0
M  V30 1920 C 177.92 -5.0373 -3.45977 0
M  V30 1921 C 178.918 -5.99116 -3.27946 0
M  V30 1922 O 178.606 -7.32108 -3.32074 0
M  V30 1923 H 178.338 -0.406931 -0.539799 0
M  V30 1924 H 180.892 -1.69078 -1.16626 0
M  V30 1925 H 179.122 -1.20528 -3.67437 0
M  V30 1926 H 180.811 -1.62154 -3.72103 0
M  V30 1927 H 181.577 -3.93931 -2.82919 0
M  V30 1928 H 177.456 -2.94496 -3.54673 0
M  V30 1929 H 181 -6.33852 -2.91337 0
M  V30 1930 H 176.897 -5.33543 -3.63321 0
M  V30 1931 H 177.665 -7.40598 -3.48507 0
M  V30 1932 N 180.328 1.1314 -1.09713 0
M  V30 1933 C 181.238 2.22242 -0.751367 0
M  V30 1934 C 182.254 1.72224 0.247938 0
M  V30 1935 O 183.43 2.01205 0.0885463 0
M  V30 1936 C 180.495 3.46231 -0.180274 0
M  V30 1937 C 179.556 4.11125 -1.2359 0
M  V30 1938 C 178.789 5.29195 -0.691966 0
M  V30 1939 O 179.012 5.68342 0.48414 0
M  V30 1940 O 177.946 5.84214 -1.44838 0
M  V30 1941 H 181.772 2.54197 -1.66186 0
M  V30 1942 H 179.357 1.21331 -0.871735 0
M  V30 1943 H 181.239 4.21185 0.134739 0
M  V30 1944 H 179.914 3.1597 0.703185 0
M  V30 1945 H 178.821 3.37985 -1.60366 0
M  V30 1946 H 180.154 4.45524 -2.09211 0
M  V30 1947 N 181.806 0.884767 1.30421 0
M  V30 1948 C 182.736 0.367574 2.30589 0
M  V30 1949 C 183.717 -0.549464 1.60981 0
M  V30 1950 O 184.902 -0.46336 1.88591 0
M  V30 1951 C 182.032 -0.418944 3.44764 0
M  V30 1952 C 180.986 0.406316 4.26067 0
M  V30 1953 C 180.312 -0.506793 5.32293 0
M  V30 1954 C 181.612 1.64832 4.95608 0
M  V30 1955 H 183.306 1.20462 2.74097 0
M  V30 1956 H 180.852 0.580695 1.31772 0
M  V30 1957 H 182.805 -0.791395 4.13902 0
M  V30 1958 H 181.529 -1.28964 3.0006 0
M  V30 1959 H 180.188 0.760903 3.58617 0
M  V30 1960 H 179.836 -1.37519 4.83836 0
M  V30 1961 H 179.536 0.0415828 5.87585 0
M  V30 1962 H 181.06 -0.875764 6.04287 0
M  V30 1963 H 182.474 1.34646 5.57264 0
M  V30 1964 H 180.871 2.13688 5.60765 0
M  V30 1965 H 181.941 2.39284 4.21748 0
M  V30 1966 N 183.284 -1.43765 0.645699 0
M  V30 1967 C 184.7 -1.56509 0.312591 0
M  V30 1968 C 184.9 -1.6307 -1.18365 0
M  V30 1969 O 183.956 -1.58167 -1.96824 0
M  V30 1970 C 185.269 -2.82968 1.01733 0
M  V30 1971 C 186.817 -2.96701 0.996865 0
M  V30 1972 C 187.292 -4.25982 1.68236 0
M  V30 1973 N 188.783 -4.32829 1.64964 0
M  V30 1974 C 189.518 -5.31613 2.14885 0
M  V30 1975 N 189.014 -6.36718 2.73061 0
M  V30 1976 N 190.807 -5.23217 2.05428 0
M  V30 1977 H 182.958 -1.3775 1.61675 0
M  V30 1978 H 185.221 -0.661067 0.679481 0
M  V30 1979 H 184.927 -2.84156 2.0724 0
M  V30 1980 H 184.801 -3.72957 0.564177 0
M  V30 1981 H 187.188 -2.95058 -0.0497719 0
M  V30 1982 H 187.269 -2.08022 1.48865 0
M  V30 1983 H 186.913 -4.28386 2.72852 0
M  V30 1984 H 186.843 -5.13545 1.16529 0
M  V30 1985 H 189.334 -3.57493 1.22503 0
M  V30 1986 H 189.647 -7.08401 3.08848 0
M  V30 1987 H 187.992 -6.37362 2.77118 0
M  V30 1988 H 191.183 -4.40019 1.59689 0
M  V30 1989 H 191.356 -6.00045 2.44643 0
M  V30 1990 N 184.763 -0.387143 -1.52771 0
M  V30 1991 C 186.012 0.19697 -2.00736 0
M  V30 1992 C 186.325 1.48082 -1.27793 0
M  V30 1993 O 187.531 2.14485 -1.66458 0
M  V30 1994 C 185.987 0.401568 -3.57653 0
M  V30 1995 C 185.595 -0.868907 -4.39493 0
M  V30 1996 C 187.339 0.942164 -4.13912 0
M  V30 1997 C 185.246 -0.632705 -5.88006 0
M  V30 1998 H 184.176 0.0773827 -0.750019 0
M  V30 1999 H 186.827 -0.50921 -1.76293 0
M  V30 2000 H 185.209 1.16954 -3.78335 0
M  V30 2001 H 186.383 -1.64133 -4.30577 0
M  V30 2002 H 184.698 -1.33429 -3.94443 0
M  V30 2003 H 187.295 1.13455 -5.22525 0
M  V30 2004 H 187.638 1.9106 -3.69867 0
M  V30 2005 H 188.171 0.233814 -3.97112 0
M  V30 2006 H 184.91 -1.57208 -6.36369 0
M  V30 2007 H 184.43 0.100825 -5.99715 0
M  V30 2008 H 186.109 -0.26642 -6.46451 0
M  V30 2009 N 186.241 1.57166 -0.116904 0
M  V30 2010 C 187.657 1.5779 0.239693 0
M  V30 2011 C 187.857 1.1295 1.66867 0
M  V30 2012 O 186.913 0.81592 2.38954 0
M  V30 2013 C 188.226 3.00699 0.00828202 0
M  V30 2014 C 189.774 3.12912 0.0743438 0
M  V30 2015 C 190.249 4.57817 -0.129348 0
M  V30 2016 N 191.74 4.63139 -0.075247 0
M  V30 2017 C 192.475 5.73023 -0.207788 0
M  V30 2018 N 191.971 6.91665 -0.396382 0
M  V30 2019 N 193.764 5.61906 -0.14751 0
M  V30 2020 H 185.915 1.84615 -1.05029 0
M  V30 2021 H 188.178 0.85311 -0.41341 0
M  V30 2022 H 187.884 3.37784 -0.979531 0
M  V30 2023 H 187.758 3.69848 0.741077 0
M  V30 2024 H 190.145 2.75686 1.05268 0
M  V30 2025 H 190.226 2.4631 -0.690297 0
M  V30 2026 H 189.87 4.95742 -1.10465 0
M  V30 2027 H 189.8 5.22507 0.655253 0
M  V30 2028 H 192.291 3.7784 0.0670898 0
M  V30 2029 H 192.604 7.71255 -0.488437 0
M  V30 2030 H 190.949 6.93654 -0.432329 0
M  V30 2031 H 194.14 4.681 -0.00115036 0
M  V30 2032 H 194.313 6.47501 -0.254247 0
M  V30 2033 N 187.719 -0.156864 1.56817 0
M  V30 2034 C 188.949 -0.885031 1.86684 0
M  V30 2035 C 189.357 -1.75696 0.701954 0
M  V30 2036 O 188.7 -1.80569 -0.337732 0
M  V30 2037 C 188.762 -1.80092 3.11138 0
M  V30 2038 C 188.426 -1.10714 4.43386 0
M  V30 2039 C 189.423 -0.465714 5.1781 0
M  V30 2040 C 187.108 -1.09959 4.90117 0
M  V30 2041 C 189.102 0.174002 6.37162 0
M  V30 2042 C 186.789 -0.456055 6.09396 0
M  V30 2043 C 187.787 0.179622 6.82764 0
M  V30 2044 O 187.475 0.812975 7.99779 0
M  V30 2045 H 187.207 -0.261813 0.623242 0
M  V30 2046 H 189.761 -0.157383 2.04796 0
M  V30 2047 H 187.991 -2.56926 2.89009 0
M  V30 2048 H 189.68 -2.40018 3.27332 0
M  V30 2049 H 190.446 -0.463427 4.82781 0
M  V30 2050 H 186.325 -1.58378 4.3294 0
M  V30 2051 H 189.869 0.670765 6.94368 0
M  V30 2052 H 185.766 -0.455975 6.43888 0
M  V30 2053 H 186.534 0.71366 8.15383 0
M  V30 2054 N 189.197 -1.51736 -0.425897 0
M  V30 2055 C 190.127 -1.76827 -1.52494 0
M  V30 2056 C 191.108 -0.618524 -1.58456 0
M  V30 2057 O 192.293 -0.862416 -1.74 0
M  V30 2058 C 189.423 -1.90374 -2.90474 0
M  V30 2059 C 188.377 -3.0588 -2.99369 0
M  V30 2060 C 187.703 -3.04625 -4.3944 0
M  V30 2061 C 189.003 -4.45644 -2.72394 0
M  V30 2062 H 190.697 -2.68855 -1.31748 0
M  V30 2063 H 188.243 -1.29372 -0.632362 0
M  V30 2064 H 190.196 -2.0651 -3.6733 0
M  V30 2065 H 188.92 -0.95004 -3.12477 0
M  V30 2066 H 187.579 -2.89467 -2.24954 0
M  V30 2067 H 187.227 -2.0701 -4.58428 0
M  V30 2068 H 186.927 -3.82195 -4.46319 0
M  V30 2069 H 188.451 -3.22869 -5.18255 0
M  V30 2070 H 189.865 -4.62348 -3.38979 0
M  V30 2071 H 188.262 -5.25006 -2.9067 0
M  V30 2072 H 189.332 -4.54893 -1.67929 0
M  V30 2073 N 190.675 0.682077 -1.42076 0
M  V30 2074 C 192.086 1.26246 -1.37546 0
M  V30 2075 C 192.437 1.96092 -0.0651481 0
M  V30 2076 O 191.562 1.99587 0.836297 0
M  V30 2077 C 192.157 2.29594 -2.49143 0
M  V30 2078 C 190.716 2.83175 -2.47969 0
M  V30 2079 C 189.863 1.57395 -2.28303 0
M  V30 2080 H 192.814 0.475937 -1.51395 0
M  V30 2081 H 192.835 3.11175 -2.18976 0
M  V30 2082 H 192.347 1.78729 -3.44496 0
M  V30 2083 H 190.448 3.3818 -1.56413 0
M  V30 2084 H 190.561 3.32687 -3.44755 0
M  V30 2085 H 188.925 1.83699 -1.76428 0
M  V30 2086 H 189.708 1.08507 -3.25701 0
M  V30 2087 N 192.153 1.28127 0.917671 0
M  V30 2088 C 193.1 1.11717 2.0196 0
M  V30 2089 C 194.07 0.0153929 1.66093 0
M  V30 2090 O 195.255 0.179596 1.89953 0
M  V30 2091 C 192.395 0.780927 3.36148 0
M  V30 2092 C 191.508 1.96135 3.84909 0
M  V30 2093 C 190.643 1.56609 5.0759 0
M  V30 2094 C 189.682 2.71339 5.48673 0
M  V30 2095 N 188.819 2.32332 6.62545 0
M  V30 2096 H 193.659 2.06003 2.15329 0
M  V30 2097 H 191.196 1.02535 1.05475 0
M  V30 2098 H 193.154 0.56675 4.13333 0
M  V30 2099 H 191.784 -0.124998 3.22558 0
M  V30 2100 H 190.836 2.28777 3.03916 0
M  V30 2101 H 192.148 2.82165 4.1132 0
M  V30 2102 H 191.302 1.31374 5.92305 0
M  V30 2103 H 190.041 0.677014 4.82978 0
M  V30 2104 H 189.046 2.97276 4.62501 0
M  V30 2105 H 190.271 3.60882 5.75274 0
M  V30 2106 H 188.217 1.45889 6.39572 0
M  V30 2107 H 188.134 3.11899 6.88662 0
M  V30 2108 H 189.402 2.10371 7.50576 0
M  V30 2109 N 193.631 -1.12557 1.10312 0
M  V30 2110 C 194.879 -1.83675 0.843091 0
M  V30 2111 C 195.2 -1.84435 -0.633131 0
M  V30 2112 O 194.47 -1.30657 -1.45964 0
M  V30 2113 H 193.05 -0.680138 0.308904 0
M  V30 2114 H 195.712 -1.36301 1.39313 0
M  V30 2115 H 194.808 -2.87908 1.2048 0
M  V30 2116 N 195.109 -0.891671 -1.2995 0
M  V30 2117 C 196.356 -0.513501 -1.95881 0
M  V30 2118 C 196.684 0.938655 -1.70351 0
M  V30 2119 O 195.939 1.67936 -1.00478 0
M  V30 2120 C 196.238 -0.742868 -3.49594 0
M  V30 2121 C 195.904 -2.17114 -3.95186 0
M  V30 2122 C 194.566 -2.56169 -4.07346 0
M  V30 2123 C 196.918 -3.10162 -4.18866 0
M  V30 2124 C 194.246 -3.87469 -4.4055 0
M  V30 2125 C 196.598 -4.41001 -4.53542 0
M  V30 2126 C 195.262 -4.79941 -4.63911 0
M  V30 2127 H 194.532 -0.187903 -0.71678 0
M  V30 2128 H 197.179 -1.1288 -1.54694 0
M  V30 2129 H 195.484 -0.044586 -3.91775 0
M  V30 2130 H 197.181 -0.429767 -3.9869 0
M  V30 2131 H 193.771 -1.85801 -3.86233 0
M  V30 2132 H 197.955 -2.81206 -4.08946 0
M  V30 2133 H 193.211 -4.17371 -4.46779 0
M  V30 2134 H 197.385 -5.13133 -4.70815 0
M  V30 2135 H 195.012 -5.81719 -4.89395 0
M  V30 2136 N 196.587 1.43421 -0.653314 0
M  V30 2137 C 197.517 2.33487 0.0246656 0
M  V30 2138 C 198.498 1.49475 0.811863 0
M  V30 2139 O 199.683 1.78139 0.773322 0
M  V30 2140 C 196.813 3.32841 0.99166 0
M  V30 2141 C 195.767 4.26842 0.314568 0
M  V30 2142 C 195.093 5.16236 1.39302 0
M  V30 2143 C 196.393 5.16243 -0.793095 0
M  V30 2144 H 198.087 2.90427 -0.727481 0
M  V30 2145 H 195.633 1.39649 -0.351287 0
M  V30 2146 H 197.586 3.94747 1.47487 0
M  V30 2147 H 196.31 2.74158 1.77497 0
M  V30 2148 H 194.969 3.663 -0.148199 0
M  V30 2149 H 194.617 4.53891 2.16776 0
M  V30 2150 H 194.317 5.79948 0.945223 0
M  V30 2151 H 195.841 5.81015 1.87759 0
M  V30 2152 H 197.255 5.71958 -0.392039 0
M  V30 2153 H 195.652 5.88676 -1.16536 0
M  V30 2154 H 196.722 4.55927 -1.65103 0
M  V30 2155 N 198.065 0.39524 1.52563 0
M  V30 2156 C 199.013 -0.451859 2.28169 0
M  V30 2157 C 200.007 -1.05792 1.32304 0
M  V30 2158 O 201.213 -0.997718 1.49818 0
M  V30 2159 H 197.588 -0.164481 0.733792 0
M  V30 2160 H 199.559 0.207199 2.9768 0
M  V30 2161 C 198.308 -1.56385 3.10546 0
M  V30 2162 H 197.631 -1.10682 3.84174 0
M  V30 2163 H 199.071 -2.13067 3.66577 0
M  V30 2164 C 197.53 -2.52328 2.23231 0
M  V30 2165 O 198.06 -3.5588 1.86312 0
M  V30 2166 N 196.266 -2.22209 1.87274 0
M  V30 2167 H 195.813 -1.38033 2.17496 0
M  V30 2168 H 195.771 -2.86652 1.29143 0
M  V30 2169 N 199.544 -1.57102 0.125237 0
M  V30 2170 C 200.476 -2.12726 -0.853237 0
M  V30 2171 C 201.489 -1.07145 -1.22571 0
M  V30 2172 O 202.678 -1.34497 -1.17358 0
M  V30 2173 C 199.778 -2.61709 -2.15317 0
M  V30 2174 C 198.951 -3.91456 -1.95143 0
M  V30 2175 C 198.01 -4.25973 -3.08923 0
M  V30 2176 O 197.036 -4.94682 -2.81564 0
M  V30 2177 N 198.238 -3.83795 -4.35524 0
M  V30 2178 H 201.003 -2.97307 -0.377964 0
M  V30 2179 H 198.564 -1.61792 -0.0590011 0
M  V30 2180 H 200.556 -2.81826 -2.90441 0
M  V30 2181 H 199.126 -1.81974 -2.54174 0
M  V30 2182 H 198.346 -3.80185 -1.04177 0
M  V30 2183 H 199.634 -4.76283 -1.78976 0
M  V30 2184 H 199.032 -3.2839 -4.60626 0
M  V30 2185 H 197.589 -4.09008 -5.07499 0
M  V30 2186 N 201.022 0.148545 -1.56898 0
M  V30 2187 C 202.269 0.861418 -1.83264 0
M  V30 2188 C 202.597 1.81239 -0.705883 0
M  V30 2189 O 201.852 1.93305 0.305212 0
M  V30 2190 C 202.151 1.67064 -3.1595 0
M  V30 2191 C 201.817 0.866591 -4.42494 0
M  V30 2192 C 200.479 0.644762 -4.76861 0
M  V30 2193 C 202.831 0.30418 -5.20312 0
M  V30 2194 C 200.159 -0.15021 -5.86508 0
M  V30 2195 C 202.511 -0.477824 -6.30793 0
M  V30 2196 C 201.175 -0.710244 -6.63711 0
M  V30 2197 H 200.445 0.315215 -0.670612 0
M  V30 2198 H 203.092 0.125142 -1.91091 0
M  V30 2199 H 201.397 2.47698 -3.03567 0
M  V30 2200 H 203.094 2.22566 -3.33565 0
M  V30 2201 H 199.684 1.04955 -4.15551 0
M  V30 2202 H 203.868 0.462844 -4.94137 0
M  V30 2203 H 199.124 -0.339796 -6.10455 0
M  V30 2204 H 203.298 -0.92076 -6.90286 0
M  V30 2205 H 200.925 -1.3281 -7.48509 0
M  V30 2206 N 202.5 1.5196 0.417844 0
M  V30 2207 C 203.728 1.69426 1.18753 0
M  V30 2208 C 204.143 0.399955 1.84515 0
M  V30 2209 O 203.5 -0.623288 1.71527 0
M  V30 2210 C 203.551 2.82375 2.25714 0
M  V30 2211 O 203.272 4.06793 1.62638 0
M  V30 2212 C 204.773 3.11277 3.15628 0
M  V30 2213 H 201.993 0.568031 0.357186 0
M  V30 2214 H 204.537 1.98475 0.49273 0
M  V30 2215 H 202.692 2.5587 2.90877 0
M  V30 2216 H 203.106 4.69667 2.3348 0
M  V30 2217 H 204.58 3.93843 3.86771 0
M  V30 2218 H 205.057 2.24473 3.77503 0
M  V30 2219 H 205.663 3.39515 2.56144 0
M  V30 2220 N 203.978 -0.674533 1.42435 0
M  V30 2221 C 204.888 -1.81751 1.48337 0
M  V30 2222 C 205.904 -1.69975 0.372099 0
M  V30 2223 O 207.08 -1.91521 0.62304 0
M  V30 2224 C 204.145 -3.17895 1.38361 0
M  V30 2225 C 203.206 -3.41625 2.59982 0
M  V30 2226 C 202.439 -4.71274 2.50473 0
M  V30 2227 O 202.662 -5.49197 1.54075 0
M  V30 2228 O 201.596 -4.96254 3.4061 0
M  V30 2229 H 205.422 -1.79728 2.44809 0
M  V30 2230 H 203.007 -0.830312 1.24202 0
M  V30 2231 H 204.889 -3.99136 1.35161 0
M  V30 2232 H 203.564 -3.20555 0.450144 0
M  V30 2233 H 202.471 -2.60231 2.68757 0
M  V30 2234 H 203.804 -3.43796 3.52229 0
M  V30 2235 N 205.456 -1.28612 -0.910864 0
M  V30 2236 C 206.733 -1.06632 -1.63979 0
M  V30 2237 C 207.113 0.393351 -2.07403 0
M  V30 2238 O 206.461 1.37999 -1.82122 0
M  V30 2239 C 206.671 -2.0436 -2.8291 0
M  V30 2240 C 208.019 -2.34666 -3.5386 0
M  V30 2241 O 209.043 -2.02467 -2.93062 0
M  V30 2242 O 207.902 -2.89631 -4.63439 0
M  V30 2243 H 204.996 -0.407737 -0.7195 0
M  V30 2244 H 207.542 -1.39942 -0.959914 0
M  V30 2245 H 206.314 -3.02727 -2.47936 0
M  V30 2246 H 205.937 -1.71714 -3.58609 0
M  V30 2247 N 206.934 1.1197 -1.10907 0
M  V30 2248 C 207.881 2.17846 -0.762345 0
M  V30 2249 C 208.851 1.63995 0.263599 0
M  V30 2250 O 210.036 1.90273 0.141773 0
M  V30 2251 C 207.176 3.44487 -0.205651 0
M  V30 2252 C 206.289 4.12369 -1.28748 0
M  V30 2253 C 205.424 5.26674 -0.691919 0
M  V30 2254 C 204.463 5.86431 -1.75399 0
M  V30 2255 N 203.6 6.92142 -1.17833 0
M  V30 2256 H 208.44 2.46851 -1.6694 0
M  V30 2257 H 205.977 1.21188 -0.833776 0
M  V30 2258 H 207.935 4.16981 0.135037 0
M  V30 2259 H 206.565 3.15884 0.664613 0
M  V30 2260 H 205.617 3.38003 -1.74522 0
M  V30 2261 H 206.929 4.52844 -2.09125 0
M  V30 2262 H 206.083 6.05953 -0.300963 0
M  V30 2263 H 204.822 4.8749 0.143232 0
M  V30 2264 H 203.827 5.05835 -2.15432 0
M  V30 2265 H 205.052 6.27685 -2.59208 0
M  V30 2266 H 202.998 6.54985 -0.364725 0
M  V30 2267 H 202.915 7.31242 -1.91887 0
M  V30 2268 H 204.183 7.75237 -0.81408 0
M  V30 2269 N 208.412 0.89855 1.29475 0
M  V30 2270 C 209.823 0.572537 1.77705 0
M  V30 2271 C 210.174 -0.911778 1.73727 0
M  V30 2272 O 209.299 -1.71288 1.32247 0
M  V30 2273 C 209.894 1.03252 3.22683 0
M  V30 2274 C 208.453 0.757687 3.68695 0
M  V30 2275 C 207.6 1.20787 2.49612 0
M  V30 2276 H 210.551 1.08139 1.16153 0
M  V30 2277 H 210.572 0.367307 3.78723 0
M  V30 2278 H 210.084 2.11285 3.25546 0
M  V30 2279 H 208.185 -0.310079 3.71308 0
M  V30 2280 H 208.298 1.35476 4.59547 0
M  V30 2281 H 206.662 0.626888 2.46865 0
M  V30 2282 H 207.445 2.29622 2.55203 0
M  V30 2283 N 209.89 -1.43072 0.660911 0
M  V30 2284 C 211.118 -2.06067 0.185422 0
M  V30 2285 C 211.533 -1.49582 -1.15198 0
M  V30 2286 O 210.89 -0.630134 -1.71276 0
M  V30 2287 C 210.941 -3.61371 0.0966523 0
M  V30 2288 O 210.662 -4.15758 1.38119 0
M  V30 2289 C 212.163 -4.41455 -0.403996 0
M  V30 2290 H 209.383 -0.664459 0.0934604 0
M  V30 2291 H 211.927 -1.83447 0.90373 0
M  V30 2292 H 210.082 -3.8315 -0.572259 0
M  V30 2293 H 210.496 -5.09499 1.24542 0
M  V30 2294 H 211.97 -5.50437 -0.415045 0
M  V30 2295 H 212.447 -4.15036 -1.43674 0
M  V30 2296 H 213.053 -4.24663 0.232691 0
M  V30 2297 N 211.368 -0.403325 -1.52352 0
M  V30 2298 C 212.298 0.416205 -2.29761 0
M  V30 2299 C 213.279 1.05123 -1.33728 0
M  V30 2300 O 214.464 1.06134 -1.62632 0
M  V30 2301 C 211.594 1.53624 -3.11475 0
M  V30 2302 C 210.548 1.02653 -4.15507 0
M  V30 2303 C 209.874 2.23971 -4.85532 0
M  V30 2304 C 211.174 0.08463 -5.22231 0
M  V30 2305 H 212.868 -0.229701 -2.98518 0
M  V30 2306 H 210.414 -0.111913 -1.43564 0
M  V30 2307 H 212.367 2.1165 -3.64393 0
M  V30 2308 H 211.091 2.20994 -2.40477 0
M  V30 2309 H 209.75 0.46871 -3.63591 0
M  V30 2310 H 209.398 2.89883 -4.11068 0
M  V30 2311 H 209.098 1.90521 -5.55856 0
M  V30 2312 H 210.622 2.82614 -5.41259 0
M  V30 2313 H 212.036 0.573509 -5.70424 0
M  V30 2314 H 210.433 -0.160783 -5.99885 0
M  V30 2315 H 211.503 -0.86237 -4.7717 0
M  V30 2316 N 212.846 1.57033 -0.133567 0
M  V30 2317 C 213.794 2.17348 0.828412 0
M  V30 2318 C 214.788 1.12671 1.26498 0
M  V30 2319 O 215.994 1.30947 1.23502 0
M  V30 2320 H 212.369 0.695775 0.285309 0
M  V30 2321 H 214.34 2.96935 0.295372 0
M  V30 2322 C 213.089 2.79893 2.06289 0
M  V30 2323 H 212.412 3.60147 1.73592 0
M  V30 2324 H 213.852 3.25615 2.71572 0
M  V30 2325 C 212.311 1.77713 2.86216 0
M  V30 2326 O 212.841 1.23937 3.82103 0
M  V30 2327 N 211.047 1.47321 2.50489 0
M  V30 2328 H 210.594 1.91243 1.7258 0
M  V30 2329 H 210.552 0.79199 3.04261 0
M  V30 2330 N 214.325 -0.140222 1.56975 0
M  V30 2331 C 215.572 -0.851687 1.83719 0
M  V30 2332 C 215.9 -1.80862 0.715485 0
M  V30 2333 O 215.155 -1.93464 -0.294956 0
M  V30 2334 C 215.454 -1.65386 3.16832 0
M  V30 2335 C 215.12 -0.843112 4.42947 0
M  V30 2336 C 213.782 -0.619464 4.77196 0
M  V30 2337 C 216.134 -0.276582 5.20466 0
M  V30 2338 C 213.462 0.181312 5.8642 0
M  V30 2339 C 215.814 0.51127 6.30531 0
M  V30 2340 C 214.478 0.745432 6.63325 0
M  V30 2341 H 213.748 -0.311654 0.672274 0
M  V30 2342 H 216.395 -0.115006 1.91154 0
M  V30 2343 H 214.7 -2.46084 3.04877 0
M  V30 2344 H 216.397 -2.20793 3.34741 0
M  V30 2345 H 212.987 -1.0275 4.16101 0
M  V30 2346 H 217.171 -0.436632 4.94376 0
M  V30 2347 H 212.427 0.372165 6.10266 0
M  V30 2348 H 216.601 0.957354 6.89788 0
M  V30 2349 H 214.228 1.36778 7.47794 0
M  V30 2350 N 215.803 -1.52179 -0.40978 0
M  V30 2351 C 217.05 -1.66206 -1.15679 0
M  V30 2352 C 217.378 -0.391674 -1.90516 0
M  V30 2353 O 216.633 0.62533 -1.8544 0
M  V30 2354 C 216.932 -2.83428 -2.17723 0
M  V30 2355 C 216.598 -4.21672 -1.59699 0
M  V30 2356 C 215.26 -4.59274 -1.43599 0
M  V30 2357 C 217.612 -5.07825 -1.17317 0
M  V30 2358 C 214.94 -5.80709 -0.836328 0
M  V30 2359 C 217.292 -6.29864 -0.587691 0
M  V30 2360 C 215.956 -6.66216 -0.413818 0
M  V30 2361 H 215.226 -0.608192 -0.423301 0
M  V30 2362 H 217.873 -1.86279 -0.444097 0
M  V30 2363 H 216.178 -2.57687 -2.95135 0
M  V30 2364 H 217.875 -2.91477 -2.75394 0
M  V30 2365 H 214.465 -3.9204 -1.73213 0
M  V30 2366 H 218.649 -4.79359 -1.28565 0
M  V30 2367 H 213.905 -6.07498 -0.689626 0
M  V30 2368 H 218.079 -6.95948 -0.250894 0
M  V30 2369 H 215.706 -7.60182 0.0529471 0
M  V30 2370 N 217.281 0.66697 -1.42791 0
M  V30 2371 C 218.511 1.45294 -1.46878 0
M  V30 2372 C 218.919 1.89027 -0.0809861 0
M  V30 2373 O 218.262 1.59219 0.916246 0
M  V30 2374 C 218.324 2.72908 -2.34012 0
M  V30 2375 C 217.988 2.51203 -3.81767 0
M  V30 2376 C 218.985 2.15302 -4.73224 0
M  V30 2377 C 216.67 2.65954 -4.26115 0
M  V30 2378 C 218.664 1.94431 -6.07022 0
M  V30 2379 C 216.351 2.44699 -5.59969 0
M  V30 2380 C 217.349 2.08992 -6.5024 0
M  V30 2381 O 217.037 1.87948 -7.81621 0
M  V30 2382 H 216.769 0.453306 -0.501487 0
M  V30 2383 H 219.323 0.826232 -1.88049 0
M  V30 2384 H 217.553 3.38089 -1.87703 0
M  V30 2385 H 219.242 3.34816 -2.29462 0
M  V30 2386 H 220.008 2.03495 -4.40244 0
M  V30 2387 H 215.887 2.92724 -3.56137 0
M  V30 2388 H 219.431 1.66484 -6.77443 0
M  V30 2389 H 215.328 2.56105 -5.9252 0
M  V30 2390 H 216.096 2.02483 -7.93059 0
M  V30 2391 N 218.759 1.29093 0.90403 0
M  V30 2392 C 219.691 1.09658 2.01266 0
M  V30 2393 C 220.704 0.0453729 1.62737 0
M  V30 2394 O 221.893 0.289446 1.76138 0
M  V30 2395 C 218.993 0.646278 3.32681 0
M  V30 2396 C 218.166 1.77505 3.99763 0
M  V30 2397 C 217.225 1.31649 5.09465 0
M  V30 2398 O 216.251 2.02045 5.32134 0
M  V30 2399 N 217.453 0.184997 5.80205 0
M  V30 2400 H 220.218 2.05135 2.18494 0
M  V30 2401 H 217.779 1.20975 1.07594 0
M  V30 2402 H 219.771 0.322906 4.0341 0
M  V30 2403 H 218.341 -0.215916 3.11853 0
M  V30 2404 H 217.561 2.26752 3.22455 0
M  V30 2405 H 218.849 2.53198 4.41325 0
M  V30 2406 H 218.247 -0.402021 5.6427 0
M  V30 2407 H 216.804 -0.0790358 6.51752 0
M  V30 2408 N 220.237 -1.11381 1.11499 0
M  V30 2409 C 221.169 -2.17207 0.731704 0
M  V30 2410 C 222.182 -1.61066 -0.236957 0
M  V30 2411 O 223.371 -1.78489 -0.0197591 0
M  V30 2412 C 220.471 -3.38846 0.0607624 0
M  V30 2413 C 219.644 -4.24451 1.0564 0
M  V30 2414 C 218.703 -5.24562 0.4149 0
M  V30 2415 O 217.729 -5.59071 1.069 0
M  V30 2416 N 218.931 -5.74651 -0.821943 0
M  V30 2417 H 221.696 -2.50699 1.64225 0
M  V30 2418 H 219.257 -1.26908 1.00529 0
M  V30 2419 H 221.249 -4.02911 -0.380139 0
M  V30 2420 H 219.819 -3.03411 -0.752376 0
M  V30 2421 H 219.039 -3.56833 1.67524 0
M  V30 2422 H 220.327 -4.78486 1.72998 0
M  V30 2423 H 219.725 -5.48797 -1.37252 0
M  V30 2424 H 218.282 -6.40549 -1.20582 0
M  V30 2425 N 221.715 -0.905404 -1.28997 0
M  V30 2426 C 222.961 -0.535039 -1.95615 0
M  V30 2427 C 223.294 0.917404 -1.71165 0
M  V30 2428 O 222.569 1.65123 -1.02785 0
M  V30 2429 C 222.852 -0.834918 -3.50287 0
M  V30 2430 C 222.705 -2.33948 -3.84172 0
M  V30 2431 C 224.024 -0.325318 -4.38896 0
M  V30 2432 H 221.143 -0.195861 -0.710498 0
M  V30 2433 H 223.785 -1.13313 -1.52513 0
M  V30 2434 H 221.935 -0.325904 -3.87131 0
M  V30 2435 H 223.607 -2.91847 -3.57243 0
M  V30 2436 H 221.85 -2.79789 -3.31513 0
M  V30 2437 H 222.521 -2.49987 -4.92149 0
M  V30 2438 H 224.997 -0.761256 -4.09077 0
M  V30 2439 H 223.873 -0.564295 -5.45992 0
M  V30 2440 H 224.134 0.774144 -4.35269 0
M  V30 2441 N 223.193 1.4272 -0.668489 0
M  V30 2442 C 224.14 2.30796 0.0137489 0
M  V30 2443 C 225.11 1.4561 0.799177 0
M  V30 2444 O 226.295 1.74453 0.772702 0
M  V30 2445 C 223.435 3.31377 0.963507 0
M  V30 2446 C 222.548 4.31655 0.172569 0
M  V30 2447 C 221.683 5.19312 1.1175 0
M  V30 2448 C 220.722 6.11274 0.317886 0
M  V30 2449 N 219.859 6.91504 1.2152 0
M  V30 2450 H 224.699 2.88585 -0.743161 0
M  V30 2451 H 222.236 1.42154 -0.378226 0
M  V30 2452 H 224.194 3.88214 1.52792 0
M  V30 2453 H 222.824 2.75202 1.68712 0
M  V30 2454 H 221.876 3.76988 -0.508374 0
M  V30 2455 H 223.188 4.96779 -0.448527 0
M  V30 2456 H 222.342 5.80851 1.75206 0
M  V30 2457 H 221.081 4.5435 1.77249 0
M  V30 2458 H 220.086 5.48809 -0.329918 0
M  V30 2459 H 221.311 6.78283 -0.332917 0
M  V30 2460 H 219.257 6.29176 1.85671 0
M  V30 2461 H 219.174 7.53209 0.649036 0
M  V30 2462 H 220.442 7.57535 1.83742 0
M  V30 2463 N 224.671 0.411399 1.52136 0
M  V30 2464 C 225.896 -0.165538 2.06738 0
M  V30 2465 C 226.321 -1.379 1.27926 0
M  V30 2466 O 225.679 -1.78628 0.310114 0
M  V30 2467 C 225.727 -0.492124 3.57226 0
M  V30 2468 O 224.831 -1.58276 3.80818 0
M  V30 2469 H 224.172 -0.0132132 0.663869 0
M  V30 2470 H 226.702 0.585253 1.96051 0
M  V30 2471 H 226.712 -0.750104 4.01045 0
M  V30 2472 H 225.387 0.394922 4.14021 0
M  V30 2473 H 223.964 -1.31677 3.48877 0
M  V30 2474 N 226.149 -1.5696 0.141893 0
M  V30 2475 C 227.426 -1.87553 -0.555281 0
M  V30 2476 C 227.806 -1.04699 -1.83306 0
M  V30 2477 O 227.154 -0.132346 -2.28116 0
M  V30 2478 C 227.364 -3.39093 -0.825664 0
M  V30 2479 C 228.712 -4.08199 -1.16869 0
M  V30 2480 O 229.736 -3.44242 -0.915185 0
M  V30 2481 O 228.595 -5.21139 -1.6455 0
M  V30 2482 H 225.689 -0.777188 -0.282679 0
M  V30 2483 H 228.235 -1.68763 0.17812 0
M  V30 2484 H 227.007 -3.91221 0.0788633 0
M  V30 2485 H 226.63 -3.63393 -1.61343 0
M  V30 2486 N 227.627 0.131896 -1.57047 0
M  V30 2487 C 228.857 0.855219 -1.88068 0
M  V30 2488 C 229.265 1.74557 -0.729817 0
M  V30 2489 O 228.608 1.81083 0.308962 0
M  V30 2490 C 228.67 1.75119 -3.13964 0
M  V30 2491 C 228.334 1.03646 -4.45091 0
M  V30 2492 C 229.331 0.383276 -5.18485 0
M  V30 2493 C 227.016 1.02148 -4.91804 0
M  V30 2494 C 229.01 -0.275347 -6.36805 0
M  V30 2495 C 226.697 0.359047 -6.10044 0
M  V30 2496 C 227.695 -0.288222 -6.82392 0
M  V30 2497 O 227.383 -0.94011 -7.98384 0
M  V30 2498 H 227.115 0.251864 -0.627328 0
M  V30 2499 H 229.669 0.124782 -2.05021 0
M  V30 2500 H 227.899 2.52295 -2.9306 0
M  V30 2501 H 229.588 2.3478 -3.31109 0
M  V30 2502 H 230.354 0.386562 -4.83457 0
M  V30 2503 H 226.233 1.5147 -4.35405 0
M  V30 2504 H 229.777 -0.781148 -6.93213 0
M  V30 2505 H 225.674 0.35348 -6.44531 0
M  V30 2506 H 226.442 -0.84329 -8.14144 0
M  V30 2507 N 229.106 1.52395 0.401703 0
M  V30 2508 C 230.039 1.70999 1.51111 0
M  V30 2509 C 231.017 0.55765 1.52738 0
M  V30 2510 O 232.201 0.785912 1.71335 0
M  V30 2511 C 229.328 1.75607 2.8962 0
M  V30 2512 C 228.374 2.97227 3.05873 0
M  V30 2513 S 229.207 4.57439 2.78405 0
M  V30 2514 C 230.363 4.64844 4.19131 0
M  V30 2515 H 230.596 2.6483 1.35102 0
M  V30 2516 H 228.129 1.42527 0.593762 0
M  V30 2517 H 230.087 1.78947 3.69443 0
M  V30 2518 H 228.748 0.828914 3.02965 0
M  V30 2519 H 227.941 2.96955 4.07227 0
M  V30 2520 H 227.543 2.91813 2.33925 0
M  V30 2521 H 229.835 4.42677 5.12877 0
M  V30 2522 H 230.778 5.66807 4.24424 0
M  V30 2523 H 231.186 3.93804 4.04448 0
M  V30 2524 N 230.584 -0.659388 1.43143 0
M  V30 2525 C 231.514 -1.78422 1.50625 0
M  V30 2526 C 232.495 -1.66216 0.361443 0
M  V30 2527 O 233.68 -1.85404 0.577834 0
M  V30 2528 C 230.81 -3.16815 1.42287 0
M  V30 2529 C 229.764 -3.43777 2.54954 0
M  V30 2530 C 229.09 -4.81905 2.31671 0
M  V30 2531 C 230.39 -3.39134 3.97222 0
M  V30 2532 H 232.084 -1.72417 2.44771 0
M  V30 2533 H 229.63 -0.828084 1.17808 0
M  V30 2534 H 231.583 -3.95253 1.46127 0
M  V30 2535 H 230.307 -3.23534 0.446435 0
M  V30 2536 H 228.966 -2.67707 2.50457 0
M  V30 2537 H 228.614 -4.85294 1.32284 0
M  V30 2538 H 228.314 -5.00906 3.07192 0
M  V30 2539 H 229.838 -5.62609 2.37284 0
M  V30 2540 H 231.252 -4.07518 4.03239 0
M  V30 2541 H 229.649 -3.69671 4.72719 0
M  V30 2542 H 230.719 -2.37426 4.22797 0
M  V30 2543 N 232.062 -1.29571 -0.897171 0
M  V30 2544 C 232.972 -1.16808 -2.03453 0
M  V30 2545 C 233.988 -0.0907471 -1.73763 0
M  V30 2546 O 235.164 -0.303312 -1.99103 0
M  V30 2547 C 232.229 -0.848264 -3.36163 0
M  V30 2548 C 231.29 -2.0097 -3.79354 0
M  V30 2549 C 230.523 -1.70505 -5.05731 0
M  V30 2550 O 230.746 -0.62718 -5.66941 0
M  V30 2551 O 229.68 -2.5538 -5.45036 0
M  V30 2552 H 233.506 -2.12325 -2.17144 0
M  V30 2553 H 231.091 -1.09047 -1.02123 0
M  V30 2554 H 232.973 -0.684581 -4.15802 0
M  V30 2555 H 231.648 0.0771071 -3.23608 0
M  V30 2556 H 230.555 -2.22863 -3.00471 0
M  V30 2557 H 231.888 -2.91636 -3.96496 0
M  V30 2558 N 233.54 1.10788 -1.12088 0
M  V30 2559 C 234.789 1.82036 -0.868659 0
M  V30 2560 C 235.102 1.85929 0.607426 0
M  V30 2561 O 236.308 2.53346 0.97613 0
M  V30 2562 C 234.764 3.26951 -1.50435 0
M  V30 2563 C 234.372 3.31367 -3.01496 0
M  V30 2564 C 236.116 4.03053 -1.33225 0
M  V30 2565 C 234.023 4.7072 -3.58017 0
M  V30 2566 H 232.953 0.682108 -0.321318 0
M  V30 2567 H 235.604 1.24618 -1.34694 0
M  V30 2568 H 233.986 3.84343 -0.953735 0
M  V30 2569 H 235.16 2.83819 -3.6302 0
M  V30 2570 H 233.475 2.6875 -3.18061 0
M  V30 2571 H 236.072 5.05981 -1.72878 0
M  V30 2572 H 236.415 4.15387 -0.275529 0
M  V30 2573 H 236.948 3.52066 -1.85188 0
M  V30 2574 H 233.687 4.63585 -4.63432 0
M  V30 2575 H 233.207 5.1865 -3.01268 0
M  V30 2576 H 234.886 5.39685 -3.56859 0
M  V30 2577 N 235.018 0.912232 1.28515 0
M  V30 2578 C 235.981 0.404223 2.25607 0
M  V30 2579 C 236.981 -0.468602 1.53821 0
M  V30 2580 O 238.171 -0.271873 1.72065 0
M  V30 2581 C 235.303 -0.420653 3.38295 0
M  V30 2582 H 236.496 1.26188 2.7206 0
M  V30 2583 H 234.049 0.691495 1.40171 0
M  V30 2584 H 234.784 -1.29777 2.97201 0
M  V30 2585 H 234.569 0.204935 3.91564 0
M  V30 2586 H 236.059 -0.766971 4.10496 0
M  V30 2587 N 236.496 -1.42363 0.676048 0
M  V30 2588 C 237.773 -1.95183 0.127726 0
M  V30 2589 C 238.153 -1.61641 -1.35777 0
M  V30 2590 O 237.501 -0.913216 -2.09458 0
M  V30 2591 C 237.711 -3.46721 0.398199 0
M  V30 2592 C 239.059 -4.23427 0.315383 0
M  V30 2593 O 240.083 -3.54649 0.332016 0
M  V30 2594 O 238.942 -5.45888 0.25865 0
M  V30 2595 H 236.036 -0.826992 0.00359427 0
M  V30 2596 H 238.582 -1.52184 0.750864 0
M  V30 2597 H 237.354 -3.64344 1.4272 0
M  V30 2598 H 236.977 -3.96769 -0.256885 0
M  V30 2599 N 237.974 -0.419461 -1.51915 0
M  V30 2600 C 238.906 0.43646 -2.25006 0
M  V30 2601 C 239.919 1.00149 -1.28351 0
M  V30 2602 O 241.108 0.898674 -1.54227 0
M  V30 2603 C 238.208 1.6206 -2.9764 0
M  V30 2604 C 237.381 1.17763 -4.21249 0
M  V30 2605 C 236.44 2.22985 -4.76617 0
M  V30 2606 O 235.466 1.83151 -5.38929 0
M  V30 2607 N 236.668 3.55271 -4.59089 0
M  V30 2608 H 239.433 -0.18989 -2.99098 0
M  V30 2609 H 236.994 -0.247386 -1.59999 0
M  V30 2610 H 238.986 2.32038 -3.31573 0
M  V30 2611 H 237.556 2.15266 -2.2667 0
M  V30 2612 H 236.776 0.305582 -3.93014 0
M  V30 2613 H 238.064 0.858781 -5.015 0
M  V30 2614 H 237.462 3.90377 -4.09417 0
M  V30 2615 H 236.019 4.21195 -4.97432 0
M  V30 2616 N 239.452 1.56882 -0.150215 0
M  V30 2617 C 240.698 1.96518 0.500834 0
M  V30 2618 C 241.031 1.03527 1.64304 0
M  V30 2619 O 240.306 0.0782751 1.94342 0
M  V30 2620 C 240.589 3.45822 1.00395 0
M  V30 2621 C 240.442 4.49591 -0.136983 0
M  V30 2622 C 241.761 3.97704 1.88467 0
M  V30 2623 H 238.88 0.714535 0.18058 0
M  V30 2624 H 241.522 1.88577 -0.232091 0
M  V30 2625 H 239.672 3.5272 1.62851 0
M  V30 2626 H 241.344 4.5477 -0.77343 0
M  V30 2627 H 239.587 4.26441 -0.795652 0
M  V30 2628 H 240.258 5.51402 0.256815 0
M  V30 2629 H 242.734 3.93304 1.35834 0
M  V30 2630 H 241.61 5.0263 2.20578 0
M  V30 2631 H 241.871 3.40252 2.82279 0
M  V30 2632 N 240.93 -0.123565 1.57115 0
M  V30 2633 C 242.207 -0.862196 1.75572 0
M  V30 2634 C 242.587 -1.98279 0.724475 0
M  V30 2635 O 241.935 -2.27102 -0.252407 0
M  V30 2636 C 242.145 -1.38309 3.20424 0
M  V30 2637 C 243.493 -1.83724 3.82793 0
M  V30 2638 O 244.517 -1.47999 3.23998 0
M  V30 2639 O 243.376 -2.49685 4.86127 0
M  V30 2640 H 240.47 -0.409113 0.718718 0
M  V30 2641 H 243.016 -0.107661 1.69358 0
M  V30 2642 H 241.788 -0.578889 3.86994 0
M  V30 2643 H 241.411 -2.20046 3.31158 0
M  V30 2644 N 242.408 -1.52605 -0.393616 0
M  V30 2645 C 243.34 -1.73303 -1.49995 0
M  V30 2646 C 244.353 -0.613473 -1.50799 0
M  V30 2647 O 245.542 -0.889049 -1.54784 0
M  V30 2648 C 242.642 -1.77245 -2.88855 0
M  V30 2649 C 241.815 -3.06483 -3.12069 0
M  V30 2650 C 240.874 -3.02033 -4.30886 0
M  V30 2651 O 239.9 -3.75907 -4.27414 0
M  V30 2652 N 241.102 -2.20897 -5.36828 0
M  V30 2653 H 243.867 -2.68756 -1.32629 0
M  V30 2654 H 241.428 -1.51036 -0.583083 0
M  V30 2655 H 243.42 -1.7178 -3.66434 0
M  V30 2656 H 241.99 -0.891993 -2.99603 0
M  V30 2657 H 241.21 -3.25474 -2.22396 0
M  V30 2658 H 242.498 -3.91947 -3.2443 0
M  V30 2659 H 241.896 -1.60336 -5.42502 0
M  V30 2660 H 240.453 -2.21275 -6.13091 0
M  V30 2661 N 243.887 0.651787 -1.4349 0
M  V30 2662 C 244.797 1.79368 -1.5121 0
M  V30 2663 C 245.813 1.69361 -0.399093 0
M  V30 2664 O 246.989 1.90505 -0.653431 0
M  V30 2665 C 244.054 3.15653 -1.43401 0
M  V30 2666 C 243.115 3.37446 -2.65384 0
M  V30 2667 C 242.348 4.67229 -2.57939 0
M  V30 2668 O 242.571 5.46676 -1.62792 0
M  V30 2669 O 241.505 4.90773 -3.48462 0
M  V30 2670 H 245.331 1.7581 -2.47638 0
M  V30 2671 H 242.916 0.810447 -1.25507 0
M  V30 2672 H 244.798 3.96935 -1.41494 0
M  V30 2673 H 243.473 3.19798 -0.501085 0
M  V30 2674 H 242.38 2.55923 -2.72863 0
M  V30 2675 H 243.713 3.38148 -3.57654 0
M  V30 2676 N 245.365 1.30045 0.890287 0
M  V30 2677 C 246.614 1.17929 1.63633 0
M  V30 2678 C 246.927 -0.266204 1.9378 0
M  V30 2679 O 248.133 -0.508804 2.6669 0
M  V30 2680 C 246.589 2.06317 2.94892 0
M  V30 2681 C 246.197 3.55745 2.72305 0
M  V30 2682 C 247.941 2.0295 3.72843 0
M  V30 2683 C 245.848 4.36205 3.99348 0
M  V30 2684 H 244.778 0.437782 0.613892 0
M  V30 2685 H 247.429 1.54754 0.986075 0
M  V30 2686 H 245.811 1.6237 3.61182 0
M  V30 2687 H 246.985 4.07805 2.1455 0
M  V30 2688 H 245.3 3.6088 2.07737 0
M  V30 2689 H 247.897 2.60319 4.67053 0
M  V30 2690 H 248.24 1.0117 4.0382 0
M  V30 2691 H 248.773 2.4499 3.13408 0
M  V30 2692 H 245.512 5.38659 3.73533 0
M  V30 2693 H 245.032 3.8891 4.56628 0
M  V30 2694 H 246.711 4.47362 4.67415 0
M  V30 2695 N 246.843 -1.10192 1.12674 0
M  V30 2696 C 247.806 -2.14786 0.799979 0
M  V30 2697 C 248.806 -1.59711 -0.18685 0
M  V30 2698 O 249.996 -1.74156 0.0392558 0
M  V30 2699 C 247.128 -3.40374 0.189228 0
M  V30 2700 H 248.321 -2.45203 1.72671 0
M  V30 2701 H 245.874 -1.25597 0.930326 0
M  V30 2702 H 246.609 -3.15577 -0.747107 0
M  V30 2703 H 246.394 -3.81637 0.899766 0
M  V30 2704 H 247.884 -4.17594 -0.0228143 0
M  V30 2705 N 248.321 -0.919034 -1.28029 0
M  V30 2706 C 249.251 -0.428581 -2.29533 0
M  V30 2707 C 250.232 0.50659 -1.62381 0
M  V30 2708 O 251.417 0.413195 -1.89753 0
M  V30 2709 C 248.547 0.327388 -3.45753 0
M  V30 2710 C 247.501 -0.519137 -4.2484 0
M  V30 2711 C 246.827 0.365486 -5.33449 0
M  V30 2712 C 248.127 -1.77914 -4.91064 0
M  V30 2713 H 249.821 -1.27687 -2.70807 0
M  V30 2714 H 247.367 -0.615428 -1.30186 0
M  V30 2715 H 249.32 0.681378 -4.15855 0
M  V30 2716 H 248.044 1.20963 -3.03374 0
M  V30 2717 H 246.703 -0.855717 -3.56473 0
M  V30 2718 H 246.351 1.24642 -4.87312 0
M  V30 2719 H 246.051 -0.197356 -5.87268 0
M  V30 2720 H 247.575 0.715241 -6.06396 0
M  V30 2721 H 248.989 -1.49374 -5.53498 0
M  V30 2722 H 247.386 -2.2848 -5.54903 0
M  V30 2723 H 248.456 -2.50382 -4.15255 0
M  V30 2724 N 249.799 1.42003 -0.683588 0
M  V30 2725 C 250.746 2.30798 -0.0107309 0
M  V30 2726 C 251.716 1.4645 0.783688 0
M  V30 2727 O 252.901 1.75263 0.754156 0
M  V30 2728 C 250.041 3.3238 0.928306 0
M  V30 2729 C 249.154 4.31814 0.126776 0
M  V30 2730 C 248.289 5.20468 1.06236 0
M  V30 2731 C 247.328 6.11577 0.253035 0
M  V30 2732 N 246.465 6.92754 1.14179 0
M  V30 2733 H 251.305 2.8778 -0.773727 0
M  V30 2734 H 248.842 1.41745 -0.393283 0
M  V30 2735 H 250.8 3.89813 1.48666 0
M  V30 2736 H 249.43 2.76976 1.65783 0
M  V30 2737 H 248.482 3.76427 -0.54833 0
M  V30 2738 H 249.794 4.96276 -0.501192 0
M  V30 2739 H 248.948 5.82677 1.69035 0
M  V30 2740 H 247.687 4.56204 1.7242 0
M  V30 2741 H 246.692 5.48428 -0.388108 0
M  V30 2742 H 247.917 6.77892 -0.404839 0
M  V30 2743 H 245.863 6.3111 1.78987 0
M  V30 2744 H 245.78 7.53855 0.569111 0
M  V30 2745 H 247.048 7.59441 1.75697 0
M  V30 2746 N 251.277 0.427512 1.51691 0
M  V30 2747 C 252.207 -0.3796 2.30394 0
M  V30 2748 C 253.188 -1.02982 1.35384 0
M  V30 2749 O 254.373 -1.03534 1.643 0
M  V30 2750 C 251.503 -1.48649 3.1388 0
M  V30 2751 C 250.457 -0.960294 4.17088 0
M  V30 2752 C 249.783 -2.16219 4.89033 0
M  V30 2753 C 251.083 -0.00153679 5.223 0
M  V30 2754 H 252.777 0.277164 2.98114 0
M  V30 2755 H 250.323 0.134739 1.43368 0
M  V30 2756 H 252.276 -2.05826 3.67714 0
M  V30 2757 H 251 -2.1714 2.43962 0
M  V30 2758 H 249.659 -0.410806 3.64291 0
M  V30 2759 H 249.307 -2.83307 4.15628 0
M  V30 2760 H 249.007 -1.81654 5.58816 0
M  V30 2761 H 250.531 -2.73968 5.45687 0
M  V30 2762 H 251.945 -0.482687 5.71264 0
M  V30 2763 H 250.342 0.256199 5.99553 0
M  V30 2764 H 251.412 0.938174 4.75738 0
M  V30 2765 N 252.755 -1.56801 0.158532 0
M  V30 2766 C 254.003 -1.96102 -0.488712 0
M  V30 2767 C 254.324 -1.04498 -1.64636 0
M  V30 2768 O 253.594 -0.108783 -1.95598 0
M  V30 2769 H 252.174 -0.724102 -0.183535 0
M  V30 2770 H 254.836 -1.93457 0.236728 0
M  V30 2771 H 253.932 -3.00097 -0.857219 0
M  V30 2772 N 254.233 0.115231 -1.57178 0
M  V30 2773 C 255.473 0.828199 -1.8687 0
M  V30 2774 C 255.837 1.76873 -0.747002 0
M  V30 2775 O 257.038 2.52354 -0.925785 0
M  V30 2776 C 255.309 1.55515 -3.21792 0
M  V30 2777 S 256.868 2.30917 -3.73125 0
M  V30 2778 H 253.686 0.27634 -0.655101 0
M  V30 2779 H 256.288 0.0863469 -1.95309 0
M  V30 2780 H 254.992 0.856248 -4.01368 0
M  V30 2781 H 254.523 2.3373 -3.16439 0
M  V30 2782 H 256.538 3.56705 -3.44929 0
M  V30 2783 N 255.711 1.52812 0.385517 0
M  V30 2784 C 256.641 1.80808 1.47752 0
M  V30 2785 C 257.622 0.660318 1.5676 0
M  V30 2786 O 258.807 0.908246 1.71652 0
M  V30 2787 C 255.937 1.98008 2.85324 0
M  V30 2788 C 254.891 3.13709 2.91154 0
M  V30 2789 C 254.217 3.16169 4.31209 0
M  V30 2790 C 255.517 4.52709 2.60483 0
M  V30 2791 H 257.211 2.72253 1.24573 0
M  V30 2792 H 254.757 1.31003 0.597839 0
M  V30 2793 H 256.71 2.16176 3.61726 0
M  V30 2794 H 255.434 1.03255 3.09848 0
M  V30 2795 H 254.093 2.95329 2.17201 0
M  V30 2796 H 253.741 2.19092 4.52778 0
M  V30 2797 H 253.441 3.93894 4.36029 0
M  V30 2798 H 254.965 3.36496 5.09512 0
M  V30 2799 H 256.379 4.71173 3.26602 0
M  V30 2800 H 254.776 5.32528 2.76648 0
M  V30 2801 H 255.846 4.59186 1.55809 0
M  V30 2802 N 257.189 -0.644168 1.43834 0
M  V30 2803 C 258.099 -1.78563 1.52159 0
M  V30 2804 C 259.115 -1.69147 0.408069 0
M  V30 2805 O 260.291 -1.90156 0.663524 0
M  V30 2806 C 257.356 -3.14888 1.45073 0
M  V30 2807 C 256.417 -3.36034 2.6717 0
M  V30 2808 C 255.65 -4.65855 2.60413 0
M  V30 2809 O 255.873 -5.45805 1.65689 0
M  V30 2810 O 254.807 -4.88918 3.5106 0
M  V30 2811 H 258.633 -1.74494 2.48567 0
M  V30 2812 H 256.218 -0.80378 1.25935 0
M  V30 2813 H 258.1 -3.96179 1.43597 0
M  V30 2814 H 256.775 -3.19528 0.518037 0
M  V30 2815 H 255.682 -2.54472 2.74217 0
M  V30 2816 H 257.015 -3.36247 3.59442 0
M  V30 2817 N 258.668 -1.30515 -0.883378 0
M  V30 2818 C 259.917 -1.18795 -1.63005 0
M  V30 2819 C 260.23 0.255923 -1.93919 0
M  V30 2820 O 261.436 0.494654 -2.66956 0
M  V30 2821 C 259.892 -2.07878 -2.93794 0
M  V30 2822 C 259.5 -3.57184 -2.70414 0
M  V30 2823 C 261.244 -2.04924 -3.71761 0
M  V30 2824 C 259.151 -4.38317 -3.97029 0
M  V30 2825 H 258.081 -0.441031 -0.611562 0
M  V30 2826 H 260.732 -1.55275 -0.977854 0
M  V30 2827 H 259.114 -1.64283 -3.60315 0
M  V30 2828 H 260.288 -4.08937 -2.12384 0
M  V30 2829 H 258.603 -3.61976 -2.0582 0
M  V30 2830 H 261.2 -2.62792 -4.65665 0
M  V30 2831 H 261.543 -1.0331 -4.03277 0
M  V30 2832 H 262.076 -2.46649 -3.12104 0
M  V30 2833 H 258.815 -5.40632 -3.70671 0
M  V30 2834 H 258.335 -3.91326 -4.54559 0
M  V30 2835 H 260.014 -4.49834 -4.65036 0
M  V30 2836 N 260.146 1.09593 -1.13257 0
M  V30 2837 C 261.562 1.33775 -0.870423 0
M  V30 2838 C 261.762 1.95327 0.494926 0
M  V30 2839 O 260.818 2.19853 1.2418 0
M  V30 2840 C 262.131 2.25106 -1.99369 0
M  V30 2841 C 263.679 2.3862 -2.02558 0
M  V30 2842 C 264.154 3.33285 -3.14142 0
M  V30 2843 N 265.645 3.40857 -3.13641 0
M  V30 2844 C 266.38 4.14101 -3.96621 0
M  V30 2845 N 265.876 4.90157 -4.8961 0
M  V30 2846 N 267.669 4.09808 -3.84726 0
M  V30 2847 H 259.82 0.680136 -2.01216 0
M  V30 2848 H 262.083 0.362133 -0.876107 0
M  V30 2849 H 261.789 1.87103 -2.97801 0
M  V30 2850 H 261.663 3.25481 -1.90635 0
M  V30 2851 H 264.05 2.75887 -1.0474 0
M  V30 2852 H 264.131 1.38028 -2.15364 0
M  V30 2853 H 263.775 2.96741 -4.12198 0
M  V30 2854 H 263.705 4.33776 -2.98574 0
M  V30 2855 H 266.196 2.86624 -2.46282 0
M  V30 2856 H 266.509 5.4347 -5.49418 0
M  V30 2857 H 264.854 4.89251 -4.93617 0
M  V30 2858 H 268.045 3.4949 -3.11408 0
M  V30 2859 H 268.218 4.66629 -4.49623 0
M  V30 2860 N 261.624 0.925811 1.2754 0
M  V30 2861 C 263.04 0.625767 1.46821 0
M  V30 2862 C 263.24 -0.825506 1.83814 0
M  V30 2863 O 262.296 -1.60356 1.95044 0
M  V30 2864 C 263.609 1.57402 2.56213 0
M  V30 2865 C 265.157 1.58204 2.70075 0
M  V30 2866 C 265.632 2.51721 3.82623 0
M  V30 2867 N 267.123 2.49917 3.89994 0
M  V30 2868 C 267.858 3.18968 4.76494 0
M  V30 2869 N 267.354 3.97391 5.67496 0
M  V30 2870 N 269.147 3.07996 4.70208 0
M  V30 2871 H 261.298 1.86409 1.01811 0
M  V30 2872 H 263.561 0.800213 0.508295 0
M  V30 2873 H 263.267 2.60925 2.35819 0
M  V30 2874 H 263.141 1.31428 3.53563 0
M  V30 2875 H 265.528 0.554124 2.89851 0
M  V30 2876 H 265.609 1.88226 1.73218 0
M  V30 2877 H 265.253 3.54622 3.63601 0
M  V30 2878 H 265.183 2.18996 4.78903 0
M  V30 2879 H 267.674 1.9296 3.24923 0
M  V30 2880 H 267.987 4.4707 6.30356 0
M  V30 2881 H 266.332 4.01495 5.67298 0
M  V30 2882 H 269.523 2.46223 3.9811 0
M  V30 2883 H 269.696 3.6208 5.37403 0
M  V30 2884 N 263.102 -1.41638 0.69111 0
M  V30 2885 C 264.327 -2.06148 0.227583 0
M  V30 2886 C 264.752 -1.51652 -1.11281 0
M  V30 2887 O 264.11 -0.64164 -1.69566 0
M  V30 2888 C 264.158 -3.60095 0.190858 0
M  V30 2889 O 263.262 -4.03845 -0.835664 0
M  V30 2890 H 262.603 -0.654434 0.112306 0
M  V30 2891 H 265.133 -1.81484 0.944714 0
M  V30 2892 H 265.143 -4.07995 0.020207 0
M  V30 2893 H 263.818 -3.99129 1.16915 0
M  V30 2894 H 262.395 -3.67458 -0.63473 0
M  V30 2895 N 264.58 -0.43555 -1.51462 0
M  V30 2896 C 265.81 0.130053 -2.0619 0
M  V30 2897 C 266.218 1.37164 -1.30317 0
M  V30 2898 O 265.561 1.80225 -0.355598 0
M  V30 2899 C 265.623 0.519418 -3.55728 0
M  V30 2900 C 265.287 -0.615119 -4.52841 0
M  V30 2901 C 266.284 -1.48671 -4.9819 0
M  V30 2902 C 263.969 -0.795341 -4.95963 0
M  V30 2903 C 265.963 -2.52324 -5.8533 0
M  V30 2904 C 263.65 -1.83514 -5.82894 0
M  V30 2905 C 264.648 -2.69748 -6.27475 0
M  V30 2906 O 264.336 -3.71944 -7.1268 0
M  V30 2907 H 264.068 0.0121612 -0.675891 0
M  V30 2908 H 266.622 -0.6129 -1.96043 0
M  V30 2909 H 264.852 1.31505 -3.63653 0
M  V30 2910 H 266.541 1.01597 -3.92979 0
M  V30 2911 H 267.307 -1.359 -4.65571 0
M  V30 2912 H 263.186 -0.133713 -4.60806 0
M  V30 2913 H 266.73 -3.19665 -6.20048 0
M  V30 2914 H 262.627 -1.96306 -6.14926 0
M  V30 2915 H 263.395 -3.68503 -7.30854 0
M  V30 2916 N 266.058 1.56714 -0.166846 0
M  V30 2917 C 267.304 1.97813 0.473473 0
M  V30 2918 C 267.659 1.05095 1.61161 0
M  V30 2919 O 266.952 0.0897541 1.9139 0
M  V30 2920 C 267.146 3.42889 1.00806 0
M  V30 2921 C 266.975 4.49635 -0.0767392 0
M  V30 2922 C 265.745 5.02566 -0.524894 0
M  V30 2923 C 267.943 5.06793 -0.875504 0
M  V30 2924 N 265.925 5.9294 -1.59047 0
M  V30 2925 C 267.296 5.93565 -1.79111 0
M  V30 2926 C 269.351 4.89306 -0.921083 0
M  V30 2927 C 268.054 6.64721 -2.74843 0
M  V30 2928 C 270.08 5.61179 -1.86633 0
M  V30 2929 C 269.442 6.47675 -2.76942 0
M  V30 2930 H 265.541 0.769093 0.141489 0
M  V30 2931 H 268.125 1.92874 -0.266031 0
M  V30 2932 H 266.296 3.48382 1.7171 0
M  V30 2933 H 268.028 3.71008 1.61664 0
M  V30 2934 H 264.783 4.73439 -0.123432 0
M  V30 2935 H 265.207 6.42831 -2.12361 0
M  V30 2936 H 269.849 4.22136 -0.23692 0
M  V30 2937 H 267.567 7.31107 -3.44249 0
M  V30 2938 H 271.153 5.49636 -1.90764 0
M  V30 2939 H 270.033 7.02313 -3.48893 0
M  V30 2940 N 267.536 -0.106894 1.57237 0
M  V30 2941 C 268.446 -1.14911 2.0453 0
M  V30 2942 C 269.462 -1.44592 0.96795 0
M  V30 2943 O 270.638 -1.55468 1.2803 0
M  V30 2944 C 267.703 -2.45272 2.45036 0
M  V30 2945 C 266.764 -2.22879 3.66911 0
M  V30 2946 C 265.997 -3.47024 4.05475 0
M  V30 2947 O 266.22 -4.54804 3.44252 0
M  V30 2948 O 265.154 -3.3731 4.98504 0
M  V30 2949 H 268.98 -0.777461 2.9358 0
M  V30 2950 H 266.565 -0.318563 1.45964 0
M  V30 2951 H 268.447 -3.22055 2.71769 0
M  V30 2952 H 267.122 -2.81886 1.59129 0
M  V30 2953 H 266.029 -1.43915 3.45311 0
M  V30 2954 H 267.362 -1.91163 4.53561 0
M  V30 2955 N 269.014 -1.53014 -0.377408 0
M  V30 2956 C 269.947 -1.73382 -1.48371 0
M  V30 2957 C 270.925 -0.581879 -1.51832 0
M  V30 2958 O 272.109 -0.81307 -1.70063 0
M  V30 2959 C 269.236 -1.80192 -2.8679 0
M  V30 2960 C 268.282 -3.02056 -3.01105 0
M  V30 2961 S 269.115 -4.61811 -2.71093 0
M  V30 2962 C 270.271 -4.71453 -4.11683 0
M  V30 2963 H 270.504 -2.66946 -1.30872 0
M  V30 2964 H 268.037 -1.43453 -0.571012 0
M  V30 2965 H 269.995 -1.84802 -3.6655 0
M  V30 2966 H 268.656 -0.877008 -3.01608 0
M  V30 2967 H 267.849 -3.03396 -4.02451 0
M  V30 2968 H 267.451 -2.95498 -2.29253 0
M  V30 2969 H 269.743 -4.50781 -5.0577 0
M  V30 2970 H 270.686 -5.73487 -4.15353 0
M  V30 2971 H 271.094 -4.00189 -3.98132 0
M  V30 2972 N 270.492 0.636531 -1.44174 0
M  V30 2973 C 271.908 0.954104 -1.27941 0
M  V30 2974 C 272.108 2.0039 -0.211248 0
M  V30 2975 O 271.164 2.49236 0.404695 0
M  V30 2976 C 272.477 1.4225 -2.64925 0
M  V30 2977 C 274.025 1.53827 -2.72592 0
M  V30 2978 C 274.5 2.04053 -4.10032 0
M  V30 2979 N 275.991 2.11331 -4.12182 0
M  V30 2980 C 276.726 2.51352 -5.15374 0
M  V30 2981 N 276.222 2.90549 -6.2893 0
M  V30 2982 N 278.015 2.51438 -5.02728 0
M  V30 2983 H 270.166 -0.0578386 -2.12321 0
M  V30 2984 H 272.429 0.0367406 -0.947288 0
M  V30 2985 H 272.135 0.725466 -3.44136 0
M  V30 2986 H 272.009 2.39451 -2.9145 0
M  V30 2987 H 274.396 2.22628 -1.93702 0
M  V30 2988 H 274.477 0.550154 -2.49814 0
M  V30 2989 H 274.121 1.35848 -4.89395 0
M  V30 2990 H 274.051 3.03726 -4.30184 0
M  V30 2991 H 276.542 1.83745 -3.30222 0
M  V30 2992 H 276.855 3.19884 -7.03487 0
M  V30 2993 H 275.2 2.88313 -6.32377 0
M  V30 2994 H 278.391 2.20203 -4.13072 0
M  V30 2995 H 278.564 2.82304 -5.83274 0
M  V30 2996 N 271.97 1.30982 0.876444 0
M  V30 2997 C 273.218 1.20058 1.62575 0
M  V30 2998 C 273.539 -0.242947 1.93481 0
M  V30 2999 O 272.809 -1.1619 1.57724 0
M  V30 3000 H 271.389 0.44135 0.602677 0
M  V30 3001 H 274.051 1.64222 1.04962 0
M  V30 3002 H 273.147 1.76762 2.57219 0
M  V30 3003 N 273.449 -1.08991 1.13837 0
M  V30 3004 C 274.397 -2.17841 0.815347 0
M  V30 3005 C 275.391 -1.68164 -0.204233 0
M  V30 3006 O 276.597 -1.79897 -0.0609304 0
M  V30 3007 H 272.972 -0.710654 0.245915 0
M  V30 3008 H 274.943 -2.42315 1.74143 0
M  V30 3009 C 273.692 -3.46381 0.302614 0
M  V30 3010 H 273.015 -3.84979 1.0785 0
M  V30 3011 H 274.455 -4.23844 0.115074 0
M  V30 3012 C 272.914 -3.22556 -0.972591 0
M  V30 3013 O 273.444 -3.45599 -2.04754 0
M  V30 3014 N 271.65 -2.76134 -0.905455 0
M  V30 3015 H 271.197 -2.57582 -0.0305421 0
M  V30 3016 H 271.155 -2.60571 -1.75926 0
M  V30 3017 N 274.927 -0.932562 -1.27047 0
M  V30 3018 C 275.89 -0.440064 -2.24936 0
M  V30 3019 C 276.89 0.444071 -1.54547 0
M  V30 3020 O 278.08 0.244465 -1.72476 0
M  V30 3021 C 275.212 0.36678 -3.38921 0
M  V30 3022 H 276.405 -1.305 -2.70018 0
M  V30 3023 H 273.958 -0.713707 -1.39054 0
M  V30 3024 H 274.693 1.25033 -2.99228 0
M  V30 3025 H 274.478 -0.267204 -3.91188 0
M  V30 3026 H 275.968 0.701567 -4.11665 0
M  V30 3027 N 276.405 1.4127 -0.698611 0
M  V30 3028 C 277.335 2.33447 -0.049629 0
M  V30 3029 C 278.316 1.51982 0.763898 0
M  V30 3030 O 279.501 1.80509 0.716257 0
M  V30 3031 C 276.631 3.35828 0.885267 0
M  V30 3032 C 275.585 4.27627 0.178613 0
M  V30 3033 C 274.911 5.20406 1.22807 0
M  V30 3034 C 276.211 5.13459 -0.956933 0
M  V30 3035 H 277.905 2.87966 -0.81951 0
M  V30 3036 H 275.451 1.38461 -0.395538 0
M  V30 3037 H 277.404 3.9924 1.34854 0
M  V30 3038 H 276.128 2.79666 1.68685 0
M  V30 3039 H 274.787 3.65643 -0.26466 0
M  V30 3040 H 274.435 4.60558 2.02226 0
M  V30 3041 H 274.135 5.82661 0.760239 0
M  V30 3042 H 275.659 5.86695 1.69179 0
M  V30 3043 H 277.073 5.70421 -0.573805 0
M  V30 3044 H 275.47 5.8467 -1.35205 0
M  V30 3045 H 276.54 4.50443 -1.79524 0
M  V30 3046 N 277.883 0.443576 1.51229 0
M  V30 3047 C 278.793 -0.370721 2.31652 0
M  V30 3048 C 279.809 -1.02186 1.40833 0
M  V30 3049 O 280.985 -1.01586 1.73903 0
M  V30 3050 C 278.05 -1.45376 3.14749 0
M  V30 3051 C 277.111 -0.822099 4.21355 0
M  V30 3052 C 276.344 -1.85353 5.0048 0
M  V30 3053 O 276.567 -3.07656 4.80316 0
M  V30 3054 O 275.501 -1.4406 5.84406 0
M  V30 3055 H 279.327 0.286002 3.0235 0
M  V30 3056 H 276.912 0.20598 1.47973 0
M  V30 3057 H 278.794 -2.08173 3.66391 0
M  V30 3058 H 277.469 -2.09445 2.46809 0
M  V30 3059 H 276.376 -0.155909 3.73775 0
M  V30 3060 H 277.709 -0.224797 4.91686 0
M  V30 3061 N 279.361 -1.56624 0.175154 0
M  V30 3062 C 280.308 -2.18149 -0.753634 0
M  V30 3063 C 281.278 -1.12265 -1.22417 0
M  V30 3064 O 282.463 -1.40432 -1.29165 0
M  V30 3065 C 279.603 -2.82933 -1.97592 0
M  V30 3066 C 278.716 -4.03289 -1.5486 0
M  V30 3067 C 277.851 -4.55988 -2.72485 0
M  V30 3068 C 276.89 -5.68746 -2.26262 0
M  V30 3069 N 276.027 -6.15938 -3.36994 0
M  V30 3070 H 280.867 -2.9717 -0.222195 0
M  V30 3071 H 278.404 -1.46774 -0.0979422 0
M  V30 3072 H 280.362 -3.18653 -2.69288 0
M  V30 3073 H 278.992 -2.06509 -2.481 0
M  V30 3074 H 278.044 -3.73364 -0.728246 0
M  V30 3075 H 279.356 -4.849 -1.16933 0
M  V30 3076 H 278.51 -4.9391 -3.52332 0
M  V30 3077 H 277.249 -3.73443 -3.13674 0
M  V30 3078 H 276.254 -5.30372 -1.44863 0
M  V30 3079 H 277.479 -6.53095 -1.86127 0
M  V30 3080 H 275.425 -5.36321 -3.77751 0
M  V30 3081 H 275.342 -6.92548 -3.03172 0
M  V30 3082 H 276.61 -6.58511 -4.17114 0
M  V30 3083 N 280.839 0.0985539 -1.57292 0
M  V30 3084 C 281.786 1.11981 -2.01814 0
M  V30 3085 C 282.756 1.39999 -0.89384 0
M  V30 3086 O 283.941 1.5152 -1.15958 0
M  V30 3087 C 281.081 2.43577 -2.44467 0
M  V30 3088 C 280.194 2.2232 -3.70402 0
M  V30 3089 C 279.329 3.4729 -4.01949 0
M  V30 3090 C 278.368 3.2128 -5.21005 0
M  V30 3091 N 277.505 4.38507 -5.48321 0
M  V30 3092 H 282.345 0.733149 -2.88841 0
M  V30 3093 H 279.882 0.350482 -1.42864 0
M  V30 3094 H 281.84 3.20373 -2.6724 0
M  V30 3095 H 280.47 2.80097 -1.60455 0
M  V30 3096 H 279.522 1.36343 -3.55126 0
M  V30 3097 H 280.834 1.99089 -4.57345 0
M  V30 3098 H 279.988 4.32495 -4.25479 0
M  V30 3099 H 278.727 3.73572 -3.13521 0
M  V30 3100 H 277.732 2.34468 -4.97298 0
M  V30 3101 H 278.957 2.96348 -6.11028 0
M  V30 3102 H 276.903 4.64871 -4.62851 0
M  V30 3103 H 276.82 4.18455 -6.29628 0
M  V30 3104 H 278.088 5.24787 -5.76385 0
M  V30 3105 N 282.317 1.53212 0.369288 0
M  V30 3106 C 283.542 1.73423 1.1375 0
M  V30 3107 C 283.967 0.460404 1.82378 0
M  V30 3108 O 283.325 -0.585298 1.71592 0
M  V30 3109 C 283.373 2.89769 2.1463 0
M  V30 3110 O 282.477 2.58119 3.21634 0
M  V30 3111 H 281.818 0.576061 0.330227 0
M  V30 3112 H 284.348 2.00083 0.427547 0
M  V30 3113 H 284.358 3.15829 2.58294 0
M  V30 3114 H 283.033 3.8217 1.64071 0
M  V30 3115 H 281.61 2.42864 2.82969 0
M  V30 3116 N 283.795 -0.628877 1.44509 0
M  V30 3117 C 284.743 -1.76193 1.51852 0
M  V30 3118 C 285.737 -1.64849 0.390042 0
M  V30 3119 O 286.943 -1.709 0.565082 0
M  V30 3120 H 283.318 -0.581728 0.476547 0
M  V30 3121 H 285.289 -1.67123 2.47209 0
M  V30 3122 C 284.038 -3.14533 1.48204 0
M  V30 3123 H 283.361 -3.23911 2.34354 0
M  V30 3124 H 284.801 -3.93701 1.57402 0
M  V30 3125 C 283.26 -3.36287 0.203142 0
M  V30 3126 O 283.79 -3.9509 -0.725745 0
M  V30 3127 N 281.996 -2.90408 0.105563 0
M  V30 3128 H 281.543 -2.42739 0.862301 0
M  V30 3129 H 281.501 -3.05339 -0.749371 0
M  V30 3130 N 285.273 -1.31445 -0.869486 0
M  V30 3131 C 286.503 -1.23942 -1.65294 0
M  V30 3132 C 286.911 0.197561 -1.88166 0
M  V30 3133 O 286.254 1.14019 -1.44033 0
M  V30 3134 C 286.316 -1.91385 -3.04322 0
M  V30 3135 C 285.98 -3.40726 -3.04557 0
M  V30 3136 C 286.977 -4.36464 -2.82481 0
M  V30 3137 C 284.662 -3.82425 -3.25663 0
M  V30 3138 C 286.656 -5.71876 -2.8149 0
M  V30 3139 C 284.343 -5.1795 -3.243 0
M  V30 3140 C 285.341 -6.12486 -3.02241 0
M  V30 3141 O 285.029 -7.45534 -3.00724 0
M  V30 3142 H 284.761 -0.429459 -0.522054 0
M  V30 3143 H 287.315 -1.73873 -1.0935 0
M  V30 3144 H 285.545 -1.36004 -3.61994 0
M  V30 3145 H 287.234 -1.77791 -3.64891 0
M  V30 3146 H 288 -4.05576 -2.65956 0
M  V30 3147 H 283.879 -3.09274 -3.41863 0
M  V30 3148 H 287.423 -6.45638 -2.64191 0
M  V30 3149 H 283.32 -5.48473 -3.40365 0
M  V30 3150 H 284.088 -7.54713 -3.16782 0
M  V30 3151 N 286.751 1.08385 -1.14413 0
M  V30 3152 C 287.661 2.18856 -0.844951 0
M  V30 3153 C 288.677 1.73121 0.174668 0
M  V30 3154 O 289.853 2.014 0.00312857 0
M  V30 3155 C 286.918 3.45155 -0.32696 0
M  V30 3156 C 285.979 4.05513 -1.40916 0
M  V30 3157 C 285.212 5.25784 -0.915793 0
M  V30 3158 O 285.435 5.69884 0.242651 0
M  V30 3159 O 284.369 5.77545 -1.69487 0
M  V30 3160 H 288.195 2.46919 -1.76818 0
M  V30 3161 H 285.78 1.17524 -0.922411 0
M  V30 3162 H 287.662 4.21377 -0.0440211 0
M  V30 3163 H 286.337 3.18668 0.568539 0
M  V30 3164 H 285.244 3.30879 -1.74556 0
M  V30 3165 H 286.577 4.3625 -2.27919 0
M  V30 3166 N 288.23 0.939286 1.26551 0
M  V30 3167 C 289.476 0.586715 1.94128 0
M  V30 3168 C 289.809 -0.8717 1.73537 0
M  V30 3169 O 289.084 -1.62339 1.07127 0
M  V30 3170 C 289.367 0.927497 3.4795 0
M  V30 3171 C 289.22 2.44052 3.77834 0
M  V30 3172 C 290.539 0.441569 4.37879 0
M  V30 3173 H 287.658 0.21463 0.705055 0
M  V30 3174 H 290.3 1.17316 1.49455 0
M  V30 3175 H 288.45 0.428431 3.8613 0
M  V30 3176 H 290.122 3.01216 3.4938 0
M  V30 3177 H 288.365 2.8848 3.23978 0
M  V30 3178 H 289.036 2.62947 4.85348 0
M  V30 3179 H 291.512 0.869448 4.06915 0
M  V30 3180 H 290.388 0.708856 5.44304 0
M  V30 3181 H 290.649 -0.658467 4.37169 0
M  V30 3182 N 289.708 -1.40897 0.706093 0
M  V30 3183 C 290.638 -2.33418 0.0620085 0
M  V30 3184 C 291.619 -1.52385 -0.755827 0
M  V30 3185 O 292.804 -1.80886 -0.706674 0
M  V30 3186 C 289.934 -3.36293 -0.867445 0
M  V30 3187 C 288.888 -4.27716 -0.155932 0
M  V30 3188 C 288.214 -5.2105 -1.20046 0
M  V30 3189 C 289.514 -5.12944 0.984149 0
M  V30 3190 H 291.208 -2.87527 0.83477 0
M  V30 3191 H 288.754 -1.38249 0.402875 0
M  V30 3192 H 290.707 -3.99949 -1.32735 0
M  V30 3193 H 289.431 -2.80556 -1.67199 0
M  V30 3194 H 288.09 -3.65498 0.284047 0
M  V30 3195 H 287.738 -4.61624 -1.99781 0
M  V30 3196 H 287.438 -5.83056 -0.729328 0
M  V30 3197 H 288.962 -5.87584 -1.66066 0
M  V30 3198 H 290.376 -5.70109 0.604048 0
M  V30 3199 H 288.773 -5.83945 1.38304 0
M  V30 3200 H 289.843 -4.49485 1.81911 0
M  V30 3201 N 291.186 -0.45159 -1.50991 0
M  V30 3202 C 292.096 0.358431 -2.31846 0
M  V30 3203 C 293.112 1.01438 -1.41373 0
M  V30 3204 O 294.288 1.00663 -1.74439 0
M  V30 3205 C 291.353 1.43704 -3.15515 0
M  V30 3206 C 290.414 0.799742 -4.21785 0
M  V30 3207 C 289.647 1.82696 -5.01456 0
M  V30 3208 O 289.87 3.05105 -4.81941 0
M  V30 3209 O 288.804 1.40958 -5.85162 0
M  V30 3210 H 292.63 -0.302032 -3.02194 0
M  V30 3211 H 290.215 -0.213825 -1.47862 0
M  V30 3212 H 292.097 2.06227 -3.67489 0
M  V30 3213 H 290.772 2.08133 -2.47916 0
M  V30 3214 H 289.679 0.136084 -3.73852 0
M  V30 3215 H 291.012 0.198718 -4.91799 0
M  V30 3216 N 292.664 1.56529 -0.183458 0
M  V30 3217 C 293.611 2.18546 0.742055 0
M  V30 3218 C 294.581 1.12912 1.2182 0
M  V30 3219 O 295.766 1.41115 1.28418 0
M  V30 3220 C 292.906 2.83977 1.96089 0
M  V30 3221 C 292.019 4.04105 1.52719 0
M  V30 3222 C 291.154 4.57427 2.70063 0
M  V30 3223 C 290.193 5.69938 2.23243 0
M  V30 3224 N 289.33 6.17717 3.33722 0
M  V30 3225 H 294.17 2.97284 0.206432 0
M  V30 3226 H 291.707 1.46823 0.0901571 0
M  V30 3227 H 293.665 3.20077 2.67594 0
M  V30 3228 H 292.295 2.07822 2.47002 0
M  V30 3229 H 291.347 3.73745 0.708436 0
M  V30 3230 H 292.659 4.85513 1.1436 0
M  V30 3231 H 291.813 4.95772 3.49708 0
M  V30 3232 H 290.552 3.75101 3.11689 0
M  V30 3233 H 289.557 5.31133 1.42048 0
M  V30 3234 H 290.782 6.54073 1.82661 0
M  V30 3235 H 288.728 5.38317 3.74902 0
M  V30 3236 H 288.645 6.94146 2.99495 0
M  V30 3237 H 289.913 6.60713 4.13616 0
M  V30 3238 N 294.142 -0.090211 1.57342 0
M  V30 3239 C 295.419 -0.824761 1.77361 0
M  V30 3240 C 295.799 -1.96698 0.76637 0
M  V30 3241 O 295.147 -2.27586 -0.204179 0
M  V30 3242 C 295.357 -1.31481 3.23286 0
M  V30 3243 C 296.705 -1.75563 3.86604 0
M  V30 3244 O 297.729 -1.41093 3.27065 0
M  V30 3245 O 296.588 -2.39317 4.91314 0
M  V30 3246 H 293.682 -0.393776 0.727234 0
M  V30 3247 H 296.228 -0.0717138 1.69548 0
M  V30 3248 H 295 -0.496671 3.88135 0
M  V30 3249 H 294.623 -2.12973 3.35751 0
M  V30 3250 N 295.62 -1.53406 -0.361157 0
M  V30 3251 C 296.866 -1.70054 -1.10496 0
M  V30 3252 C 297.199 -0.453278 -1.88836 0
M  V30 3253 O 296.474 0.5495 -1.86576 0
M  V30 3254 C 296.757 -2.95317 -2.06058 0
M  V30 3255 C 296.61 -4.3021 -1.31298 0
M  V30 3256 C 297.929 -3.16193 -3.06121 0
M  V30 3257 H 295.048 -0.618799 -0.400321 0
M  V30 3258 H 297.69 -1.86052 -0.385318 0
M  V30 3259 H 295.84 -2.81809 -2.67425 0
M  V30 3260 H 297.512 -4.55538 -0.726807 0
M  V30 3261 H 295.755 -4.29421 -0.614853 0
M  V30 3262 H 296.426 -5.14 -2.01265 0
M  V30 3263 H 298.902 -3.28916 -2.5486 0
M  V30 3264 H 297.778 -4.05266 -3.70204 0
M  V30 3265 H 298.039 -2.31676 -3.76535 0
M  V30 3266 N 297.098 0.621204 -1.44841 0
M  V30 3267 C 298.346 1.37783 -1.47852 0
M  V30 3268 C 298.667 1.94653 -0.116224 0
M  V30 3269 O 297.937 1.76367 0.852737 0
M  V30 3270 H 296.517 0.511453 -0.544449 0
M  V30 3271 H 299.179 0.730446 -1.80694 0
M  V30 3272 H 298.275 2.20414 -2.20961 0
M  V30 3273 N 298.576 1.31904 0.862503 0
M  V30 3274 C 299.506 1.22782 1.98612 0
M  V30 3275 C 300.487 0.113362 1.69722 0
M  V30 3276 O 301.672 0.299218 1.91881 0
M  V30 3277 C 298.802 0.942058 3.34279 0
M  V30 3278 C 297.756 2.0169 3.77499 0
M  V30 3279 C 297.082 1.58369 5.10709 0
M  V30 3280 C 298.382 3.43096 3.93805 0
M  V30 3281 H 300.076 2.16788 2.06502 0
M  V30 3282 H 297.622 1.04366 0.992154 0
M  V30 3283 H 299.575 0.864818 4.1243 0
M  V30 3284 H 298.299 -0.0336603 3.26583 0
M  V30 3285 H 296.958 2.08416 3.01593 0
M  V30 3286 H 296.606 0.595628 4.99461 0
M  V30 3287 H 296.306 2.30279 5.40597 0
M  V30 3288 H 297.83 1.52067 5.91361 0
M  V30 3289 H 299.244 3.39003 4.62331 0
M  V30 3290 H 297.641 4.13288 4.35101 0
M  V30 3291 H 298.711 3.83334 2.96957 0
M  V30 3292 N 300.054 -1.07777 1.14986 0
M  V30 3293 C 301.001 -2.14867 0.842672 0
M  V30 3294 C 301.971 -1.6486 -0.202552 0
M  V30 3295 O 303.156 -1.90668 -0.0710568 0
M  V30 3296 C 300.296 -3.43486 0.333363 0
M  V30 3297 C 299.409 -4.07306 1.43965 0
M  V30 3298 C 298.544 -5.23744 0.886914 0
M  V30 3299 C 297.583 -5.79517 1.97043 0
M  V30 3300 N 296.72 -6.87291 1.4344 0
M  V30 3301 H 301.56 -2.40485 1.75986 0
M  V30 3302 H 299.097 -1.1801 0.878179 0
M  V30 3303 H 301.055 -4.17195 0.0198163 0
M  V30 3304 H 299.685 -3.18133 -0.546916 0
M  V30 3305 H 298.737 -3.31293 1.86946 0
M  V30 3306 H 300.049 -4.44771 2.25788 0
M  V30 3307 H 299.203 -6.04419 0.525651 0
M  V30 3308 H 297.942 -4.87685 0.0377957 0
M  V30 3309 H 296.947 -4.97491 2.34057 0
M  V30 3310 H 298.172 -6.17632 2.82325 0
M  V30 3311 H 296.118 -6.5318 0.607567 0
M  V30 3312 H 296.035 -7.23617 2.18895 0
M  V30 3313 H 297.303 -7.71682 1.10124 0
M  V30 3314 N 301.532 -0.945985 -1.26051 0
M  V30 3315 C 302.948 -0.649045 -1.45807 0
M  V30 3316 C 303.148 0.796158 -1.85104 0
M  V30 3317 O 302.204 1.57233 -1.97571 0
M  V30 3318 C 303.517 -1.61458 -2.53677 0
M  V30 3319 C 305.065 -1.62481 -2.67524 0
M  V30 3320 C 305.54 -2.57776 -3.7857 0
M  V30 3321 N 307.031 -2.5609 -3.85969 0
M  V30 3322 C 307.766 -3.26508 -4.7136 0
M  V30 3323 N 307.262 -4.0637 -5.61102 0
M  V30 3324 N 309.055 -3.15437 -4.65248 0
M  V30 3325 H 301.206 -1.88005 -0.988328 0
M  V30 3326 H 303.469 -0.808198 -0.4955 0
M  V30 3327 H 303.175 -2.64644 -2.31638 0
M  V30 3328 H 303.049 -1.37036 -3.51427 0
M  V30 3329 H 305.436 -0.600167 -2.88933 0
M  V30 3330 H 305.517 -1.90958 -1.70202 0
M  V30 3331 H 305.161 -3.60361 -3.57913 0
M  V30 3332 H 305.091 -2.26587 -4.75359 0
M  V30 3333 H 307.582 -1.98105 -3.21812 0
M  V30 3334 H 307.895 -4.57042 -6.23164 0
M  V30 3335 H 306.24 -4.10469 -5.60839 0
M  V30 3336 H 309.431 -2.52525 -3.94143 0
M  V30 3337 H 309.604 -3.70584 -5.31575 0
M  V30 3338 N 303.011 1.40521 -0.713556 0
M  V30 3339 C 304.258 2.00923 -0.25219 0
M  V30 3340 C 304.586 1.56571 1.15395 0
M  V30 3341 O 303.841 0.775874 1.79663 0
M  V30 3342 C 304.14 3.56317 -0.278 0
M  V30 3343 C 303.806 4.20246 -1.63415 0
M  V30 3344 C 302.468 4.37422 -2.00538 0
M  V30 3345 C 304.82 4.55923 -2.52554 0
M  V30 3346 C 302.148 4.87558 -3.2635 0
M  V30 3347 C 304.5 5.07458 -3.77716 0
M  V30 3348 C 303.164 5.22843 -4.14959 0
M  V30 3349 H 302.434 0.735231 -0.0922829 0
M  V30 3350 H 305.081 1.68161 -0.916188 0
M  V30 3351 H 303.386 3.88976 0.469567 0
M  V30 3352 H 305.083 4.00883 0.0967819 0
M  V30 3353 H 301.673 4.07263 -1.33546 0
M  V30 3354 H 305.857 4.42291 -2.25149 0
M  V30 3355 H 301.113 4.97654 -3.55176 0
M  V30 3356 H 305.287 5.34041 -4.4696 0
M  V30 3357 H 302.914 5.61454 -5.12516 0
M  V30 3358 N 304.489 0.459591 1.5075 0
M  V30 3359 C 305.736 -0.0993495 2.02256 0
M  V30 3360 C 306.064 -1.40751 1.34237 0
M  V30 3361 O 305.319 -1.90379 0.453228 0
M  V30 3362 C 305.618 -0.342866 3.55752 0
M  V30 3363 C 305.284 0.88218 4.42186 0
M  V30 3364 C 303.946 1.21808 4.65528 0
M  V30 3365 C 306.298 1.69837 4.92752 0
M  V30 3366 C 303.626 2.37045 5.36681 0
M  V30 3367 C 305.978 2.84192 5.65171 0
M  V30 3368 C 304.642 3.1821 5.8677 0
M  V30 3369 H 303.912 -0.0363545 0.740108 0
M  V30 3370 H 306.559 0.611329 1.8148 0
M  V30 3371 H 304.864 -1.13567 3.7498 0
M  V30 3372 H 306.561 -0.789121 3.93159 0
M  V30 3373 H 303.151 0.610467 4.2423 0
M  V30 3374 H 307.335 1.45205 4.74583 0
M  V30 3375 H 302.591 2.63689 5.51614 0
M  V30 3376 H 306.765 3.4779 6.03337 0
M  V30 3377 H 304.392 4.07613 6.41682 0
M  V30 3378 N 305.967 -1.56429 0.191757 0
M  V30 3379 C 307.378 -1.83912 -0.321428 0
M  V30 3380 C 307.729 -1.11231 -1.61623 0
M  V30 3381 O 306.854 -0.37202 -2.13178 0
M  V30 3382 C 307.449 -3.33624 -0.589961 0
M  V30 3383 C 306.008 -3.6153 -1.04753 0
M  V30 3384 C 305.155 -2.7714 -0.0943327 0
M  V30 3385 H 308.106 -1.53161 0.415612 0
M  V30 3386 H 308.127 -3.52213 -1.43966 0
M  V30 3387 H 307.639 -3.86495 0.352588 0
M  V30 3388 H 305.74 -3.14089 -2.00447 0
M  V30 3389 H 305.853 -4.69737 -0.942549 0
M  V30 3390 H 304.217 -2.47638 -0.595589 0
M  V30 3391 H 305 -3.32799 0.842601 0
M  V30 3392 N 307.445 0.0818655 -1.57387 0
M  V30 3393 C 308.392 1.09834 -2.0299 0
M  V30 3394 C 309.362 1.39043 -0.908639 0
M  V30 3395 O 310.547 1.50282 -1.17559 0
M  V30 3396 C 307.687 2.40971 -2.47037 0
M  V30 3397 C 306.8 2.18379 -3.7274 0
M  V30 3398 C 305.935 3.43008 -4.0561 0
M  V30 3399 C 304.974 3.15736 -5.24383 0
M  V30 3400 N 304.111 4.32667 -5.52941 0
M  V30 3401 H 308.951 0.702472 -2.89602 0
M  V30 3402 H 306.488 0.33531 -1.43227 0
M  V30 3403 H 308.446 3.1752 -2.70623 0
M  V30 3404 H 307.076 2.78379 -1.63417 0
M  V30 3405 H 306.128 1.32569 -3.56552 0
M  V30 3406 H 307.44 1.94227 -4.59431 0
M  V30 3407 H 306.594 4.27958 -4.30043 0
M  V30 3408 H 305.333 3.70225 -3.17466 0
M  V30 3409 H 304.338 2.2918 -4.99757 0
M  V30 3410 H 305.563 2.8985 -6.14136 0
M  V30 3411 H 303.509 4.59935 -4.67756 0
M  V30 3412 H 303.426 4.11753 -6.34031 0
M  V30 3413 H 304.694 5.18644 -5.81918 0
M  V30 3414 N 308.923 1.53595 0.353017 0
M  V30 3415 C 310.148 1.7462 1.11904 0
M  V30 3416 C 310.573 0.479721 1.8188 0
M  V30 3417 O 309.931 -0.567066 1.72204 0
M  V30 3418 C 309.979 2.92029 2.11545 0
M  V30 3419 O 309.083 2.61516 3.18878 0
M  V30 3420 H 308.424 0.579531 0.324099 0
M  V30 3421 H 310.954 2.00525 0.406301 0
M  V30 3422 H 310.964 3.18551 2.5493 0
M  V30 3423 H 309.639 3.83888 1.60008 0
M  V30 3424 H 308.216 2.45852 2.80377 0
M  V30 3425 N 310.401 -0.613514 1.45168 0
M  V30 3426 C 311.331 -1.7354 1.56225 0
M  V30 3427 C 312.312 -1.64981 0.41414 0
M  V30 3428 O 313.497 -1.83472 0.636526 0
M  V30 3429 C 310.627 -3.12128 1.52295 0
M  V30 3430 C 309.581 -3.35491 2.65762 0
M  V30 3431 C 308.907 -4.74291 2.46885 0
M  V30 3432 C 310.207 -3.26325 4.0781 0
M  V30 3433 H 311.901 -1.64543 2.50132 0
M  V30 3434 H 309.447 -0.790185 1.20383 0
M  V30 3435 H 311.4 -3.90404 1.58628 0
M  V30 3436 H 310.124 -3.2195 0.549139 0
M  V30 3437 H 308.783 -2.59603 2.58847 0
M  V30 3438 H 308.431 -4.80839 1.47657 0
M  V30 3439 H 308.131 -4.9088 3.22972 0
M  V30 3440 H 309.655 -5.54775 2.55063 0
M  V30 3441 H 311.069 -3.94483 4.16 0
M  V30 3442 H 309.466 -3.54445 4.8424 0
M  V30 3443 H 310.536 -2.23855 4.30136 0
M  V30 3444 N 311.879 -1.3236 -0.855495 0
M  V30 3445 C 312.809 -1.23833 -1.97958 0
M  V30 3446 C 313.79 -0.122361 -1.69659 0
M  V30 3447 O 314.975 -0.30939 -1.9172 0
M  V30 3448 C 312.105 -0.959772 -3.33775 0
M  V30 3449 C 311.059 -2.03689 -3.76424 0
M  V30 3450 C 310.385 -1.61075 -5.09862 0
M  V30 3451 C 311.685 -3.4518 -3.9198 0
M  V30 3452 H 313.379 -2.1788 -2.0535 0
M  V30 3453 H 310.925 -1.04891 -0.986605 0
M  V30 3454 H 312.878 -0.886678 -4.11966 0
M  V30 3455 H 311.602 0.0163404 -3.26596 0
M  V30 3456 H 310.261 -2.10012 -3.00484 0
M  V30 3457 H 309.909 -0.622107 -4.99138 0
M  V30 3458 H 309.609 -2.33143 -5.39368 0
M  V30 3459 H 311.133 -1.55201 -5.90546 0
M  V30 3460 H 312.547 -3.4145 -4.60526 0
M  V30 3461 H 310.944 -4.1559 -4.32903 0
M  V30 3462 H 312.014 -3.84903 -2.94919 0
M  V30 3463 N 313.357 1.07166 -1.15556 0
M  V30 3464 C 314.634 1.76546 -0.842069 0
M  V30 3465 C 315.014 2.00453 0.661939 0
M  V30 3466 O 314.362 1.62452 1.60691 0
M  V30 3467 C 314.572 3.07266 -1.65495 0
M  V30 3468 C 315.92 3.81578 -1.86234 0
M  V30 3469 O 316.944 3.17083 -1.62287 0
M  V30 3470 O 315.803 4.97419 -2.26355 0
M  V30 3471 H 312.897 0.766756 -0.309862 0
M  V30 3472 H 315.443 1.13514 -1.26145 0
M  V30 3473 H 314.215 2.85494 -2.67598 0
M  V30 3474 H 313.838 3.7803 -1.23203 0
M  V30 3475 N 314.835 0.952656 1.25548 0
M  V30 3476 C 316.06 0.623025 1.97821 0
M  V30 3477 C 316.485 -0.7976 1.70352 0
M  V30 3478 O 315.843 -1.53905 0.958283 0
M  V30 3479 C 315.891 0.885532 3.49558 0
M  V30 3480 O 314.995 -0.0366641 4.12384 0
M  V30 3481 H 314.336 0.237082 0.620232 0
M  V30 3482 H 316.866 1.27871 1.59719 0
M  V30 3483 H 316.876 0.811009 3.99858 0
M  V30 3484 H 315.551 1.92094 3.6888 0
M  V30 3485 H 314.128 0.0898954 3.72792 0
M  V30 3486 N 316.313 -1.40141 0.720998 0
M  V30 3487 C 317.559 -2.01084 0.263231 0
M  V30 3488 C 317.892 -1.57052 -1.14229 0
M  V30 3489 O 317.167 -0.793027 -1.77599 0
M  V30 3490 C 317.45 -3.58401 0.349344 0
M  V30 3491 C 317.303 -4.12491 1.79363 0
M  V30 3492 C 318.622 -4.39231 -0.276351 0
M  V30 3493 H 315.741 -0.730572 0.0971228 0
M  V30 3494 H 318.383 -1.66543 0.914518 0
M  V30 3495 H 316.533 -3.87958 -0.205165 0
M  V30 3496 H 318.205 -3.93711 2.40394 0
M  V30 3497 H 316.448 -3.66576 2.31958 0
M  V30 3498 H 317.119 -5.21646 1.80524 0
M  V30 3499 H 319.595 -4.15637 0.196184 0
M  V30 3500 H 318.471 -5.48586 -0.185681 0
M  V30 3501 H 318.732 -4.20643 -1.36059 0
M  V30 3502 N 317.792 -0.46758 -1.50504 0
M  V30 3503 C 318.739 0.328413 -2.28452 0
M  V30 3504 C 319.709 0.990313 -1.33349 0
M  V30 3505 O 320.894 1.00343 -1.62284 0
M  V30 3506 C 318.034 1.40648 -3.15138 0
M  V30 3507 C 317.147 0.759709 -4.25267 0
M  V30 3508 C 316.282 1.81537 -4.99217 0
M  V30 3509 C 315.321 1.14866 -6.01226 0
M  V30 3510 N 314.458 2.14702 -6.68467 0
M  V30 3511 H 319.298 -0.342603 -2.96024 0
M  V30 3512 H 316.835 -0.180801 -1.45985 0
M  V30 3513 H 318.793 2.04315 -3.63746 0
M  V30 3514 H 317.423 2.04671 -2.49619 0
M  V30 3515 H 316.475 0.0105671 -3.80399 0
M  V30 3516 H 317.787 0.233243 -4.98254 0
M  V30 3517 H 316.941 2.52793 -5.51526 0
M  V30 3518 H 315.68 2.37564 -4.25928 0
M  V30 3519 H 314.685 0.42171 -5.4818 0
M  V30 3520 H 315.91 0.595334 -6.76485 0
M  V30 3521 H 313.856 2.69752 -5.97972 0
M  V30 3522 H 313.773 1.6703 -7.37317 0
M  V30 3523 H 315.041 2.85348 -7.25394 0
M  V30 3524 N 319.27 1.56325 -0.20005 0
M  V30 3525 C 320.233 2.18084 0.705132 0
M  V30 3526 C 321.233 1.13666 1.1374 0
M  V30 3527 O 322.423 1.39023 1.04968 0
M  V30 3528 C 319.555 2.78689 1.96329 0
M  V30 3529 H 320.748 2.99435 0.167023 0
M  V30 3530 H 318.301 1.56221 0.0495725 0
M  V30 3531 H 319.036 2.0115 2.5438 0
M  V30 3532 H 318.821 3.55133 1.66202 0
M  V30 3533 H 320.311 3.26096 2.60866 0
M  V30 3534 N 320.748 -0.0735177 1.57428 0
M  V30 3535 C 321.695 -1.08756 2.0357 0
M  V30 3536 C 322.665 -1.38559 0.916 0
M  V30 3537 O 323.85 -1.49656 1.18354 0
M  V30 3538 C 320.99 -2.39657 2.48311 0
M  V30 3539 C 320.103 -2.16399 3.73892 0
M  V30 3540 C 319.238 -3.40852 4.07423 0
M  V30 3541 C 318.277 -3.1295 5.2605 0
M  V30 3542 N 317.414 -4.29729 5.55228 0
M  V30 3543 H 322.254 -0.687104 2.8997 0
M  V30 3544 H 319.791 -0.327709 1.43403 0
M  V30 3545 H 321.749 -3.16081 2.72303 0
M  V30 3546 H 320.379 -2.77508 1.64891 0
M  V30 3547 H 319.431 -1.30676 3.57251 0
M  V30 3548 H 320.743 -1.91788 4.60455 0
M  V30 3549 H 319.897 -4.25671 4.32306 0
M  V30 3550 H 318.636 -3.68537 3.19425 0
M  V30 3551 H 317.641 -2.26526 5.00965 0
M  V30 3552 H 318.866 -2.86589 6.15665 0
M  V30 3553 H 316.812 -4.57448 4.70188 0
M  V30 3554 H 316.729 -4.08385 6.36206 0
M  V30 3555 H 317.997 -5.1555 5.84661 0
M  V30 3556 N 322.226 -1.5378 -0.344866 0
M  V30 3557 C 323.454 -1.74899 -1.10534 0
M  V30 3558 C 323.869 -0.487534 -1.82397 0
M  V30 3559 O 323.226 0.540741 -1.74305 0
M  V30 3560 C 323.277 -2.92822 -2.11984 0
M  V30 3561 O 322.998 -4.14089 -1.43044 0
M  V30 3562 C 324.499 -3.25982 -3.00417 0
M  V30 3563 H 321.719 -0.584426 -0.329678 0
M  V30 3564 H 324.263 -2.006 -0.397474 0
M  V30 3565 H 322.418 -2.69457 -2.78338 0
M  V30 3566 H 322.832 -4.80272 -2.10805 0
M  V30 3567 H 324.306 -4.11848 -3.67539 0
M  V30 3568 H 324.783 -2.42228 -3.66363 0
M  V30 3569 H 325.389 -3.51349 -2.39654 0
M  V30 3570 N 323.704 0.605807 -1.45491 0
M  V30 3571 C 324.634 1.72709 -1.57143 0
M  V30 3572 C 325.615 1.6476 -0.422884 0
M  V30 3573 O 326.8 1.83132 -0.646247 0
M  V30 3574 C 323.93 3.11316 -1.53948 0
M  V30 3575 C 322.884 3.34077 -2.67537 0
M  V30 3576 C 322.21 4.72975 -2.49397 0
M  V30 3577 C 323.51 3.24158 -4.09535 0
M  V30 3578 H 325.204 1.63214 -2.51001 0
M  V30 3579 H 322.75 0.78379 -1.208 0
M  V30 3580 H 324.703 3.89557 -1.60696 0
M  V30 3581 H 323.427 3.21655 -0.566205 0
M  V30 3582 H 322.086 2.58227 -2.6022 0
M  V30 3583 H 321.734 4.8005 -1.50205 0
M  V30 3584 H 321.434 4.8916 -3.25571 0
M  V30 3585 H 322.958 5.53414 -2.58002 0
M  V30 3586 H 324.372 3.92271 -4.18086 0
M  V30 3587 H 322.769 3.51872 -4.86113 0
M  V30 3588 H 323.839 2.2157 -4.31317 0
M  V30 3589 N 325.182 1.32811 0.848464 0
M  V30 3590 C 326.598 1.11937 1.13764 0
M  V30 3591 C 326.798 -0.0960789 2.01271 0
M  V30 3592 O 325.854 -0.779165 2.40178 0
M  V30 3593 C 327.167 2.402 1.809 0
M  V30 3594 C 328.715 2.46016 1.93508 0
M  V30 3595 C 329.19 3.74215 2.64059 0
M  V30 3596 N 330.681 3.75232 2.71579 0
M  V30 3597 C 331.416 4.71134 3.26833 0
M  V30 3598 N 330.912 5.77406 3.8285 0
M  V30 3599 N 332.705 4.58623 3.24995 0
M  V30 3600 H 324.856 2.1073 0.265855 0
M  V30 3601 H 327.119 0.930671 0.180431 0
M  V30 3602 H 326.825 3.29093 1.24058 0
M  V30 3603 H 326.699 2.51628 2.81004 0
M  V30 3604 H 329.086 1.57577 2.49506 0
M  V30 3605 H 329.167 2.38536 0.923811 0
M  V30 3606 H 328.811 4.63031 2.08722 0
M  V30 3607 H 328.741 3.78968 3.65637 0
M  V30 3608 H 331.232 2.98423 2.31845 0
M  V30 3609 H 331.545 6.46632 4.23187 0
M  V30 3610 H 329.89 5.81152 3.81165 0
M  V30 3611 H 333.081 3.74762 2.80484 0
M  V30 3612 H 333.254 5.33535 3.67756 0
M  V30 3613 N 326.66 -1.06551 1.16123 0
M  V30 3614 C 327.607 -2.13961 0.865414 0
M  V30 3615 C 328.577 -1.65066 -0.185055 0
M  V30 3616 O 329.762 -1.90732 -0.05083 0
M  V30 3617 C 326.902 -3.43113 0.369776 0
M  V30 3618 C 326.015 -4.05756 1.48276 0
M  V30 3619 C 325.15 -5.22773 0.942414 0
M  V30 3620 C 324.189 -5.77395 2.03179 0
M  V30 3621 N 323.326 -6.85731 1.50721 0
M  V30 3622 H 328.166 -2.38605 1.78527 0
M  V30 3623 H 325.703 -1.17072 0.890646 0
M  V30 3624 H 327.661 -4.17151 0.0640643 0
M  V30 3625 H 326.291 -3.18695 -0.513143 0
M  V30 3626 H 325.343 -3.29292 1.9045 0
M  V30 3627 H 326.655 -4.42351 2.30493 0
M  V30 3628 H 325.809 -6.03827 0.589729 0
M  V30 3629 H 324.548 -4.87618 0.0895191 0
M  V30 3630 H 323.553 -4.94981 2.3932 0
M  V30 3631 H 324.778 -6.14603 2.8886 0
M  V30 3632 H 322.724 -6.52499 0.676811 0
M  V30 3633 H 322.641 -7.21254 2.26557 0
M  V30 3634 H 323.909 -7.7047 1.18303 0
M  V30 3635 N 328.138 -0.959301 -1.25041 0
M  V30 3636 C 329.068 -0.501388 -2.28053 0
M  V30 3637 C 330.049 0.454673 -1.63911 0
M  V30 3638 O 331.234 0.352618 -1.90972 0
M  V30 3639 C 328.364 0.217224 -3.4662 0
M  V30 3640 C 327.318 -0.654034 -4.22973 0
M  V30 3641 C 326.644 0.195589 -5.34342 0
M  V30 3642 C 327.944 -1.93447 -4.85155 0
M  V30 3643 H 329.638 -1.36238 -2.66608 0
M  V30 3644 H 327.184 -0.656534 -1.28163 0
M  V30 3645 H 329.137 0.548732 -4.17812 0
M  V30 3646 H 327.861 1.1125 -3.07068 0
M  V30 3647 H 326.52 -0.968693 -3.5357 0
M  V30 3648 H 326.168 1.09076 -4.91031 0
M  V30 3649 H 325.868 -0.384091 -5.86343 0
M  V30 3650 H 327.392 0.521958 -6.08365 0
M  V30 3651 H 328.806 -1.66908 -5.48466 0
M  V30 3652 H 327.203 -2.46018 -5.47353 0
M  V30 3653 H 328.273 -2.63466 -4.07079 0
M  V30 3654 N 329.616 1.39756 -0.72842 0
M  V30 3655 C 330.865 1.99879 -0.270407 0
M  V30 3656 C 331.178 1.58449 1.14688 0
M  V30 3657 O 332.384 2.11362 1.70407 0
M  V30 3658 C 330.84 3.57292 -0.43252 0
M  V30 3659 C 330.448 4.07688 -1.85727 0
M  V30 3660 C 332.192 4.24485 -0.0359507 0
M  V30 3661 C 330.099 5.5765 -1.96928 0
M  V30 3662 H 329.029 0.747689 -0.0973472 0
M  V30 3663 H 331.68 1.59837 -0.901355 0
M  V30 3664 H 330.062 3.95097 0.267219 0
M  V30 3665 H 331.236 3.81231 -2.58843 0
M  V30 3666 H 329.551 3.53135 -2.20646 0
M  V30 3667 H 332.148 5.34609 -0.0987484 0
M  V30 3668 H 332.491 4.03915 1.00787 0
M  V30 3669 H 333.024 3.9183 -0.686604 0
M  V30 3670 H 329.763 5.8309 -2.99476 0
M  V30 3671 H 329.283 5.8593 -1.28241 0
M  V30 3672 H 330.962 6.22957 -1.74737 0
M  V30 3673 N 331.094 0.475555 1.50254 0
M  V30 3674 C 332.026 -0.352649 2.26471 0
M  V30 3675 C 333.039 -0.953165 1.3198 0
M  V30 3676 O 334.228 -0.840815 1.57457 0
M  V30 3677 C 331.328 -1.50902 3.0345 0
M  V30 3678 C 330.501 -1.02047 4.25329 0
M  V30 3679 C 329.56 -2.05142 4.84565 0
M  V30 3680 O 328.586 -1.63023 5.45355 0
M  V30 3681 N 329.788 -3.37987 4.71959 0
M  V30 3682 H 332.553 0.300767 2.98187 0
M  V30 3683 H 330.114 0.306598 1.5897 0
M  V30 3684 H 332.106 -2.19572 3.39956 0
M  V30 3685 H 330.676 -2.06705 2.34504 0
M  V30 3686 H 329.896 -0.159507 3.93877 0
M  V30 3687 H 331.184 -0.672061 5.04342 0
M  V30 3688 H 330.582 -3.74913 4.23623 0
M  V30 3689 H 329.139 -4.02443 5.12721 0
M  V30 3690 N 332.573 -1.56217 0.208337 0
M  V30 3691 C 333.505 -2.1695 -0.739276 0
M  V30 3692 C 334.518 -1.13492 -1.1672 0
M  V30 3693 O 335.707 -1.40529 -1.10063 0
M  V30 3694 C 332.807 -2.72755 -2.01142 0
M  V30 3695 C 331.98 -4.0125 -1.74118 0
M  V30 3696 C 331.039 -4.41749 -2.85909 0
M  V30 3697 O 330.065 -5.08912 -2.54946 0
M  V30 3698 N 331.267 -4.06342 -4.14568 0
M  V30 3699 H 334.032 -2.98893 -0.219837 0
M  V30 3700 H 331.593 -1.61878 0.0268445 0
M  V30 3701 H 333.585 -2.96826 -2.75094 0
M  V30 3702 H 332.155 -1.95191 -2.4417 0
M  V30 3703 H 331.375 -3.85173 -0.838775 0
M  V30 3704 H 332.663 -4.851 -1.53477 0
M  V30 3705 H 332.061 -3.52345 -4.42571 0
M  V30 3706 H 330.618 -4.35335 -4.85105 0
M  V30 3707 N 334.051 0.0651679 -1.57465 0
M  V30 3708 C 335.279 0.775808 -1.91804 0
M  V30 3709 C 335.694 1.70782 -0.804916 0
M  V30 3710 O 335.051 1.81153 0.221311 0
M  V30 3711 C 335.102 1.56381 -3.25925 0
M  V30 3712 O 334.823 0.669248 -4.32958 0
M  V30 3713 C 336.324 2.37485 -3.7432 0
M  V30 3714 H 333.544 0.2202 -0.63384 0
M  V30 3715 H 336.088 0.0334587 -2.04473 0
M  V30 3716 H 334.243 2.25837 -3.14764 0
M  V30 3717 H 334.657 1.21801 -5.10162 0
M  V30 3718 H 336.131 2.88223 -4.70778 0
M  V30 3719 H 336.608 3.17307 -3.03666 0
M  V30 3720 H 337.214 1.73173 -3.88447 0
M  V30 3721 N 335.529 1.53961 0.336706 0
M  V30 3722 C 336.776 1.71536 1.07618 0
M  V30 3723 C 337.104 0.482125 1.8843 0
M  V30 3724 O 336.359 -0.536142 1.88213 0
M  V30 3725 C 336.658 2.93493 2.03953 0
M  V30 3726 C 336.324 4.28811 1.39399 0
M  V30 3727 C 334.986 4.65602 1.21523 0
M  V30 3728 C 337.338 5.12844 0.929541 0
M  V30 3729 C 334.666 5.84037 0.558312 0
M  V30 3730 C 337.018 6.31951 0.286505 0
M  V30 3731 C 335.682 6.67432 0.0954869 0
M  V30 3732 H 334.952 0.627696 0.393801 0
M  V30 3733 H 337.599 1.88186 0.354715 0
M  V30 3734 H 335.904 2.71475 2.82504 0
M  V30 3735 H 337.601 3.04285 2.61174 0
M  V30 3736 H 334.191 3.99858 1.54311 0
M  V30 3737 H 338.375 4.84947 1.05548 0
M  V30 3738 H 333.631 6.10097 0.398995 0
M  V30 3739 H 337.805 6.96352 -0.0814376 0
M  V30 3740 H 335.432 7.59063 -0.415579 0
M  V30 3741 N 337.007 -0.598083 1.45811 0
M  V30 3742 C 338.423 -0.919847 1.30426 0
M  V30 3743 C 338.623 -1.99759 0.264303 0
M  V30 3744 O 337.679 -2.50221 -0.338472 0
M  V30 3745 C 338.992 -1.35176 2.68603 0
M  V30 3746 C 340.54 -1.46546 2.76574 0
M  V30 3747 C 341.015 -1.9311 4.15298 0
M  V30 3748 N 342.506 -2.00328 4.1764 0
M  V30 3749 C 343.241 -2.37599 5.21856 0
M  V30 3750 N 342.737 -2.73771 6.36413 0
M  V30 3751 N 344.53 -2.38021 5.09218 0
M  V30 3752 H 336.681 0.114111 2.12093 0
M  V30 3753 H 338.944 -0.0116121 0.947929 0
M  V30 3754 H 338.65 -0.633969 3.45939 0
M  V30 3755 H 338.524 -2.3164 2.97696 0
M  V30 3756 H 340.911 -2.17415 1.99537 0
M  V30 3757 H 340.992 -0.483727 2.51185 0
M  V30 3758 H 340.636 -1.22824 4.92825 0
M  V30 3759 H 340.566 -2.92213 4.38086 0
M  V30 3760 H 343.057 -1.74925 3.34977 0
M  V30 3761 H 343.37 -3.0112 7.11721 0
M  V30 3762 H 341.715 -2.71445 6.39799 0
M  V30 3763 H 344.906 -2.09174 4.18765 0
M  V30 3764 H 345.079 -2.66741 5.90554 0
M  V30 3765 N 338.485 -1.33259 -0.841409 0
M  V30 3766 C 339.417 -1.19136 -1.95804 0
M  V30 3767 C 340.43 -0.122965 -1.62335 0
M  V30 3768 O 341.619 -0.373154 -1.74556 0
M  V30 3769 C 338.719 -0.804268 -3.29218 0
M  V30 3770 C 337.892 -1.96376 -3.90839 0
M  V30 3771 C 336.951 -1.55806 -5.02604 0
M  V30 3772 O 335.977 -2.27203 -5.21888 0
M  V30 3773 N 337.179 -0.461609 -5.78662 0
M  V30 3774 H 339.944 -2.15326 -2.08458 0
M  V30 3775 H 337.505 -1.25971 -1.017 0
M  V30 3776 H 339.497 -0.51501 -4.0141 0
M  V30 3777 H 338.067 0.0668809 -3.12528 0
M  V30 3778 H 337.287 -2.41879 -3.11269 0
M  V30 3779 H 338.575 -2.73966 -4.28742 0
M  V30 3780 H 337.973 0.132343 -5.65545 0
M  V30 3781 H 336.53 -0.232013 -6.51387 0
M  V30 3782 N 339.963 1.05934 -1.16686 0
M  V30 3783 C 341.21 1.788 -0.950622 0
M  V30 3784 C 341.538 1.87384 0.521305 0
M  V30 3785 O 340.793 1.36438 1.40297 0
M  V30 3786 C 341.092 3.23105 -1.52767 0
M  V30 3787 C 340.758 3.34594 -3.02254 0
M  V30 3788 C 339.42 3.37437 -3.43059 0
M  V30 3789 C 341.772 3.36219 -3.98254 0
M  V30 3790 C 339.1 3.39525 -4.78477 0
M  V30 3791 C 341.452 3.39845 -5.33562 0
M  V30 3792 C 340.116 3.40971 -5.73842 0
M  V30 3793 H 339.386 0.654275 -0.347857 0
M  V30 3794 H 342.033 1.24555 -1.45459 0
M  V30 3795 H 340.338 3.80227 -0.94524 0
M  V30 3796 H 342.035 3.7809 -1.336 0
M  V30 3797 H 338.625 3.3309 -2.6972 0
M  V30 3798 H 342.809 3.33231 -3.67792 0
M  V30 3799 H 338.065 3.38703 -5.09009 0
M  V30 3800 H 342.239 3.4005 -6.07733 0
M  V30 3801 H 339.866 3.42342 -6.78753 0
M  V30 3802 N 341.441 0.965919 1.2453 0
M  V30 3803 C 342.404 0.499547 2.2369 0
M  V30 3804 C 343.404 -0.40294 1.5567 0
M  V30 3805 O 344.594 -0.19865 1.73064 0
M  V30 3806 C 341.726 -0.276792 3.39774 0
M  V30 3807 H 342.919 1.37613 2.66463 0
M  V30 3808 H 340.472 0.750324 1.37112 0
M  V30 3809 H 341.207 -1.17055 3.02438 0
M  V30 3810 H 340.992 0.370826 3.90343 0
M  V30 3811 H 342.482 -0.592175 4.1338 0
M  V30 3812 N 342.919 -1.39368 0.735821 0
M  V30 3813 C 343.867 -2.32443 0.0855131 0
M  V30 3814 C 344.861 -1.53104 -0.724954 0
M  V30 3815 O 346.067 -1.68762 -0.626047 0
M  V30 3816 H 342.442 -0.751948 0.00885257 0
M  V30 3817 H 344.413 -2.84916 0.886883 0
M  V30 3818 C 343.162 -3.38206 -0.806983 0
M  V30 3819 H 342.485 -3.99335 -0.19274 0
M  V30 3820 H 343.925 -4.05779 -1.2296 0
M  V30 3821 C 342.384 -2.75321 -1.94165 0
M  V30 3822 O 342.914 -2.63231 -3.03435 0
M  V30 3823 N 341.12 -2.33396 -1.73132 0
M  V30 3824 H 340.667 -2.4343 -0.842596 0
M  V30 3825 H 340.625 -1.91661 -2.49225 0
M  V30 3826 N 344.397 -0.483516 -1.5 0
M  V30 3827 C 345.327 0.293829 -2.31644 0
M  V30 3828 C 346.308 0.978864 -1.39112 0
M  V30 3829 O 347.493 0.973644 -1.68029 0
M  V30 3830 C 344.623 1.36897 -3.19181 0
M  V30 3831 C 343.577 0.804833 -4.20365 0
M  V30 3832 C 342.903 1.9792 -4.96721 0
M  V30 3833 C 344.203 -0.192313 -5.21946 0
M  V30 3834 H 345.897 -0.387616 -2.9688 0
M  V30 3835 H 343.443 -0.187856 -1.42769 0
M  V30 3836 H 345.396 1.92037 -3.751 0
M  V30 3837 H 344.12 2.07936 -2.51853 0
M  V30 3838 H 342.779 0.275319 -3.65565 0
M  V30 3839 H 342.427 2.67686 -4.25856 0
M  V30 3840 H 342.127 1.60789 -5.65173 0
M  V30 3841 H 343.651 2.53526 -5.55479 0
M  V30 3842 H 345.065 0.270333 -5.72662 0
M  V30 3843 H 343.462 -0.478543 -5.98189 0
M  V30 3844 H 344.532 -1.11409 -4.71928 0
M  V30 3845 N 345.875 1.56104 -0.216619 0
M  V30 3846 C 346.823 2.21434 0.712036 0
M  V30 3847 C 347.817 1.19218 1.20348 0
M  V30 3848 O 349.023 1.3731 1.16387 0
M  V30 3849 H 345.398 0.70992 0.248026 0
M  V30 3850 H 347.369 2.98083 0.137558 0
M  V30 3851 C 346.118 2.90434 1.91163 0
M  V30 3852 H 345.441 3.68842 1.54258 0
M  V30 3853 H 346.881 3.39552 2.5393 0
M  V30 3854 C 345.34 1.92635 2.76394 0
M  V30 3855 O 345.87 1.44017 3.74996 0
M  V30 3856 N 344.076 1.60392 2.42328 0
M  V30 3857 H 343.623 2.00122 1.622 0
M  V30 3858 H 343.581 0.952159 2.99635 0
M  V30 3859 N 347.353 -0.0568162 1.57498 0
M  V30 3860 C 348.769 -0.411933 1.54192 0
M  V30 3861 C 348.969 -1.78287 0.938942 0
M  V30 3862 O 348.025 -2.46483 0.547919 0
M  V30 3863 C 349.338 -0.339244 2.9878 0
M  V30 3864 C 350.886 -0.418348 3.10192 0
M  V30 3865 C 351.361 -0.375407 4.56459 0
M  V30 3866 N 352.852 -0.435038 4.61153 0
M  V30 3867 C 353.587 -0.424265 5.71828 0
M  V30 3868 N 353.083 -0.367418 6.91825 0
M  V30 3869 N 354.876 -0.471938 5.60115 0
M  V30 3870 H 347.027 0.840684 1.95055 0
M  V30 3871 H 349.29 0.316987 0.893433 0
M  V30 3872 H 348.996 0.601742 3.46514 0
M  V30 3873 H 348.87 -1.14371 3.59443 0
M  V30 3874 H 351.257 -1.34976 2.62422 0
M  V30 3875 H 351.338 0.414962 2.52412 0
M  V30 3876 H 350.982 0.552219 5.04889 0
M  V30 3877 H 350.912 -1.22645 5.12119 0
M  V30 3878 H 353.403 -0.482612 3.74806 0
M  V30 3879 H 353.716 -0.363535 7.71944 0
M  V30 3880 H 352.061 -0.333879 6.94198 0
M  V30 3881 H 355.252 -0.514145 4.65268 0
M  V30 3882 H 355.425 -0.460073 6.46365 0
M  V30 3883 N 348.832 -1.54138 -0.328536 0
M  V30 3884 C 349.742 -1.86192 -1.42723 0
M  V30 3885 C 350.758 -0.753382 -1.56844 0
M  V30 3886 O 351.934 -1.04718 -1.72035 0
M  V30 3887 C 348.999 -2.07824 -2.77507 0
M  V30 3888 C 348.06 -3.31641 -2.72603 0
M  V30 3889 C 347.293 -3.52232 -4.00959 0
M  V30 3890 O 347.516 -2.7636 -4.9898 0
M  V30 3891 O 346.45 -4.45699 -4.0452 0
M  V30 3892 H 350.276 -2.79608 -1.18547 0
M  V30 3893 H 347.861 -1.3998 -0.522104 0
M  V30 3894 H 349.743 -2.23411 -3.57303 0
M  V30 3895 H 348.418 -1.17596 -3.01584 0
M  V30 3896 H 347.325 -3.21444 -1.91376 0
M  V30 3897 H 348.658 -4.2191 -2.53481 0
M  V30 3898 N 350.31 0.590341 -1.46126 0
M  V30 3899 C 351.22 1.72793 -1.58681 0
M  V30 3900 C 352.236 1.67516 -0.470566 0
M  V30 3901 O 353.412 1.87562 -0.733642 0
M  V30 3902 C 350.477 3.09287 -1.5666 0
M  V30 3903 C 349.538 3.25886 -2.79458 0
M  V30 3904 C 348.771 4.55869 -2.77524 0
M  V30 3905 O 348.994 5.3928 -1.85832 0
M  V30 3906 O 347.928 4.75552 -3.68964 0
M  V30 3907 H 351.754 1.65149 -2.54872 0
M  V30 3908 H 349.339 0.756486 -1.28832 0
M  V30 3909 H 351.221 3.90577 -1.58202 0
M  V30 3910 H 349.896 3.17385 -0.636271 0
M  V30 3911 H 348.803 2.44119 -2.83472 0
M  V30 3912 H 350.136 3.22675 -3.71674 0
M  V30 3913 N 351.788 1.33704 0.83433 0
M  V30 3914 C 353.013 1.28615 1.62705 0
M  V30 3915 C 353.438 -0.139242 1.87584 0
M  V30 3916 O 352.796 -1.09734 1.4432 0
M  V30 3917 C 352.844 2.07139 2.95171 0
M  V30 3918 O 351.948 1.4331 3.86699 0
M  V30 3919 H 351.289 0.44226 0.49528 0
M  V30 3920 H 353.819 1.76335 1.03766 0
M  V30 3921 H 353.829 2.18073 3.44831 0
M  V30 3922 H 352.504 3.10779 2.76386 0
M  V30 3923 H 351.081 1.4105 3.45195 0
M  V30 3924 N 353.266 -1.05314 1.17247 0
M  V30 3925 C 354.515 -1.77685 0.954521 0
M  V30 3926 C 354.828 -1.88616 -0.518025 0
M  V30 3927 O 356.034 -2.57714 -0.854144 0
M  V30 3928 C 354.49 -3.19402 1.65863 0
M  V30 3929 C 354.098 -3.16605 3.16963 0
M  V30 3930 C 355.842 -3.96237 1.52303 0
M  V30 3931 C 353.749 -4.53103 3.80068 0
M  V30 3932 H 352.679 -0.666 0.353496 0
M  V30 3933 H 355.33 -1.1805 1.40486 0
M  V30 3934 H 353.712 -3.79355 1.13602 0
M  V30 3935 H 354.886 -2.66176 3.76148 0
M  V30 3936 H 353.201 -2.53268 3.30521 0
M  V30 3937 H 355.798 -4.97157 1.96822 0
M  V30 3938 H 356.141 -4.136 0.473401 0
M  V30 3939 H 356.674 -3.42829 2.01775 0
M  V30 3940 H 353.413 -4.40946 4.85023 0
M  V30 3941 H 352.933 -5.03686 3.2567 0
M  V30 3942 H 354.612 -5.22045 3.82202 0
M  V30 3943 N 354.744 -0.972509 -1.24016 0
M  V30 3944 C 355.674 -0.525548 -2.27509 0
M  V30 3945 C 356.655 0.437262 -1.64384 0
M  V30 3946 O 357.84 0.332343 -1.91335 0
M  V30 3947 C 354.97 0.180448 -3.46831 0
M  V30 3948 C 353.924 -0.698859 -4.22256 0
M  V30 3949 C 353.25 0.138903 -5.3452 0
M  V30 3950 C 354.55 -1.98582 -4.83076 0
M  V30 3951 H 356.244 -1.39058 -2.65148 0
M  V30 3952 H 353.79 -0.67009 -1.27459 0
M  V30 3953 H 355.743 0.504387 -4.18371 0
M  V30 3954 H 354.467 1.07987 -3.08231 0
M  V30 3955 H 353.126 -1.00614 -3.52523 0
M  V30 3956 H 352.774 1.03862 -4.9216 0
M  V30 3957 H 352.474 -0.446259 -5.85903 0
M  V30 3958 H 353.998 0.457404 -6.08884 0
M  V30 3959 H 355.412 -1.72715 -5.46665 0
M  V30 3960 H 353.809 -2.5181 -5.44713 0
M  V30 3961 H 354.879 -2.67769 -4.04262 0
M  V30 3962 N 356.222 1.38976 -0.743202 0
M  V30 3963 C 357.169 2.30544 -0.10861 0
M  V30 3964 C 358.139 1.49642 0.720869 0
M  V30 3965 O 359.324 1.78304 0.679142 0
M  V30 3966 C 356.464 3.36018 0.786496 0
M  V30 3967 C 355.577 4.31963 -0.0564849 0
M  V30 3968 C 354.712 5.24506 0.840657 0
M  V30 3969 C 353.751 6.121 -0.00658363 0
M  V30 3970 N 352.888 6.96973 0.846943 0
M  V30 3971 H 357.728 2.8424 -0.895088 0
M  V30 3972 H 355.265 1.3995 -0.453048 0
M  V30 3973 H 357.223 3.95768 1.31999 0
M  V30 3974 H 355.853 2.83758 1.53887 0
M  V30 3975 H 354.905 3.73763 -0.707492 0
M  V30 3976 H 356.217 4.93703 -0.711229 0
M  V30 3977 H 355.371 5.89322 1.4417 0
M  V30 3978 H 354.11 4.63107 1.52916 0
M  V30 3979 H 353.115 5.46289 -0.620366 0
M  V30 3980 H 354.34 6.75565 -0.691992 0
M  V30 3981 H 352.286 6.38133 1.52059 0
M  V30 3982 H 352.203 7.5559 0.248864 0
M  V30 3983 H 353.471 7.6621 1.43328 0
M  V30 3984 N 357.7 0.491464 1.49741 0
M  V30 3985 C 358.947 -0.0564256 2.02421 0
M  V30 3986 C 359.275 -1.37872 1.37192 0
M  V30 3987 O 358.53 -1.89375 0.493508 0
M  V30 3988 C 358.829 -0.267329 3.56399 0
M  V30 3989 C 358.495 0.975775 4.40215 0
M  V30 3990 C 357.157 1.31655 4.62839 0
M  V30 3991 C 359.509 1.80251 4.89039 0
M  V30 3992 C 356.837 2.48375 5.31532 0
M  V30 3993 C 359.189 2.96116 5.59015 0
M  V30 3994 C 357.853 3.30585 5.79888 0
M  V30 3995 H 357.123 -0.0206476 0.740712 0
M  V30 3996 H 359.77 0.649686 1.80143 0
M  V30 3997 H 358.075 -1.05588 3.77304 0
M  V30 3998 H 359.772 -0.705549 3.94744 0
M  V30 3999 H 356.362 0.700315 4.2284 0
M  V30 4000 H 360.546 1.55239 4.71396 0
M  V30 4001 H 355.802 2.7533 5.45897 0
M  V30 4002 H 359.976 3.60509 5.95824 0
M  V30 4003 H 357.603 4.21132 6.32892 0
M  V30 4004 N 359.178 -1.55987 0.224894 0
M  V30 4005 C 360.425 -1.9839 -0.4059 0
M  V30 4006 C 360.753 -1.11261 -1.59535 0
M  V30 4007 O 360.008 -0.158314 -1.95059 0
M  V30 4008 C 360.307 -3.46394 -0.880106 0
M  V30 4009 C 359.973 -4.5046 0.19918 0
M  V30 4010 C 358.635 -4.7864 0.495661 0
M  V30 4011 C 360.987 -5.12855 0.928939 0
M  V30 4012 C 358.315 -5.66497 1.52636 0
M  V30 4013 C 360.667 -6.01828 1.949 0
M  V30 4014 C 359.331 -6.28351 2.25236 0
M  V30 4015 H 358.601 -0.725961 -0.148529 0
M  V30 4016 H 361.248 -1.88668 0.328113 0
M  V30 4017 H 359.553 -3.53337 -1.69294 0
M  V30 4018 H 361.25 -3.76577 -1.37808 0
M  V30 4019 H 357.84 -4.28579 -0.0420526 0
M  V30 4020 H 362.024 -4.9115 0.713129 0
M  V30 4021 H 357.28 -5.8531 1.76698 0
M  V30 4022 H 361.454 -6.49225 2.51951 0
M  V30 4023 H 359.081 -6.96226 3.05244 0
M  V30 4024 N 360.656 0.0484629 -1.57525 0
M  V30 4025 C 361.566 1.07241 -2.08654 0
M  V30 4026 C 362.582 1.409 -1.02095 0
M  V30 4027 O 363.758 1.50609 -1.33712 0
M  V30 4028 C 360.823 2.36008 -2.5397 0
M  V30 4029 C 359.884 2.09108 -3.7493 0
M  V30 4030 C 359.117 3.31736 -4.18075 0
M  V30 4031 O 359.34 4.41714 -3.60895 0
M  V30 4032 O 358.274 3.18576 -5.10679 0
M  V30 4033 H 362.1 0.667965 -2.96263 0
M  V30 4034 H 359.685 0.26417 -1.47046 0
M  V30 4035 H 361.567 3.11747 -2.83535 0
M  V30 4036 H 360.242 2.75786 -1.69481 0
M  V30 4037 H 359.149 1.31 -3.50414 0
M  V30 4038 H 360.482 1.74198 -4.60343 0
M  V30 4039 N 362.134 1.5431 0.320358 0
M  V30 4040 C 363.383 1.7188 1.05546 0
M  V30 4041 C 363.696 0.501143 1.89071 0
M  V30 4042 O 364.902 0.558258 2.65699 0
M  V30 4043 C 363.358 3.04025 1.92605 0
M  V30 4044 C 362.966 4.33207 1.14176 0
M  V30 4045 C 364.71 3.30959 2.65832 0
M  V30 4046 C 362.617 5.56412 2.00399 0
M  V30 4047 H 361.547 0.640547 0.397763 0
M  V30 4048 H 364.198 1.80802 0.313522 0
M  V30 4049 H 362.58 2.89019 2.7071 0
M  V30 4050 H 363.754 4.58989 0.40819 0
M  V30 4051 H 362.069 4.13062 0.526165 0
M  V30 4052 H 364.666 4.20203 3.30656 0
M  V30 4053 H 365.009 2.48979 3.33639 0
M  V30 4054 H 365.542 3.46847 1.94787 0
M  V30 4055 H 362.281 6.41004 1.37094 0
M  V30 4056 H 361.801 5.34844 2.7148 0
M  V30 4057 H 363.48 5.92938 2.58908 0
M  V30 4058 N 363.613 -0.582584 1.46437 0
M  V30 4059 C 364.543 -1.70187 1.59871 0
M  V30 4060 C 365.524 -1.64066 0.449042 0
M  V30 4061 O 366.709 -1.82081 0.6753 0
M  V30 4062 C 363.839 -3.08827 1.58881 0
M  V30 4063 C 362.793 -3.29779 2.72819 0
M  V30 4064 C 362.119 -4.68947 2.5689 0
M  V30 4065 C 363.419 -3.17601 4.1464 0
M  V30 4066 H 365.113 -1.592 2.53566 0
M  V30 4067 H 362.659 -0.764472 1.22032 0
M  V30 4068 H 364.612 -3.86951 1.66873 0
M  V30 4069 H 363.336 -3.20713 0.617306 0
M  V30 4070 H 361.995 -2.54054 2.64296 0
M  V30 4071 H 361.643 -4.77599 1.57823 0
M  V30 4072 H 361.343 -4.83919 3.33312 0
M  V30 4073 H 362.867 -5.4924 2.66773 0
M  V30 4074 H 364.281 -3.8557 4.24274 0
M  V30 4075 H 362.678 -3.44094 4.9165 0
M  V30 4076 H 363.748 -2.14681 4.34788 0
M  V30 4077 N 365.091 -1.34144 -0.827227 0
M  V30 4078 C 366.316 -1.29476 -1.62021 0
M  V30 4079 C 366.741 0.129292 -1.87655 0
M  V30 4080 O 366.099 1.08967 -1.449 0
M  V30 4081 C 366.147 -2.08702 -2.94068 0
M  V30 4082 O 365.251 -1.45359 -3.85933 0
M  V30 4083 H 364.592 -0.444881 -0.492927 0
M  V30 4084 H 367.122 -1.76882 -1.02829 0
M  V30 4085 H 367.132 -2.19898 -3.43669 0
M  V30 4086 H 365.807 -3.12241 -2.74734 0
M  V30 4087 H 364.384 -1.42879 -3.44442 0
M  V30 4088 N 366.569 1.04691 -1.17803 0
M  V30 4089 C 367.98 1.59238 -0.974689 0
M  V30 4090 C 368.331 1.90306 0.477292 0
M  V30 4091 O 367.456 1.68846 1.35352 0
M  V30 4092 C 368.051 2.89318 -1.76296 0
M  V30 4093 C 366.61 3.40506 -1.60414 0
M  V30 4094 C 365.757 2.14172 -1.76141 0
M  V30 4095 H 368.708 0.874395 -1.32439 0
M  V30 4096 H 368.729 3.5944 -1.24833 0
M  V30 4097 H 368.241 2.66675 -2.81968 0
M  V30 4098 H 366.342 3.68175 -0.572519 0
M  V30 4099 H 366.455 4.14753 -2.39827 0
M  V30 4100 H 364.819 2.25176 -1.19028 0
M  V30 4101 H 365.602 1.93992 -2.83235 0
M  V30 4102 N 368.047 0.979072 1.23499 0
M  V30 4103 C 369.293 0.648178 1.92163 0
M  V30 4104 C 369.626 -0.816049 1.76222 0
M  V30 4105 O 368.901 -1.58849 1.12237 0
M  V30 4106 C 369.184 1.03773 3.44824 0
M  V30 4107 C 369.037 2.55948 3.69879 0
M  V30 4108 C 370.356 0.580653 4.36253 0
M  V30 4109 H 367.475 0.236952 0.69787 0
M  V30 4110 H 370.117 1.22012 1.45647 0
M  V30 4111 H 368.267 0.551058 3.84572 0
M  V30 4112 H 369.939 3.12179 3.3962 0
M  V30 4113 H 368.182 2.98641 3.14636 0
M  V30 4114 H 368.853 2.78255 4.76737 0
M  V30 4115 H 371.329 0.998465 4.03943 0
M  V30 4116 H 370.205 0.881663 5.41773 0
M  V30 4117 H 370.466 -0.519052 4.39042 0
M  V30 4118 N 369.525 -1.3858 0.750561 0
M  V30 4119 C 370.755 -2.04175 0.31564 0
M  V30 4120 C 371.163 -1.56726 -1.05989 0
M  V30 4121 O 370.506 -0.734225 -1.68389 0
M  V30 4122 C 370.568 -3.58585 0.256389 0
M  V30 4123 C 370.232 -4.29077 1.57296 0
M  V30 4124 C 371.229 -4.54656 2.52159 0
M  V30 4125 C 368.914 -4.67324 1.84156 0
M  V30 4126 C 370.908 -5.17512 3.72103 0
M  V30 4127 C 368.595 -5.29905 3.04374 0
M  V30 4128 C 369.593 -5.54933 3.98168 0
M  V30 4129 O 369.281 -6.16212 5.16273 0
M  V30 4130 H 369.013 -0.662742 0.133226 0
M  V30 4131 H 371.567 -1.78313 1.01948 0
M  V30 4132 H 369.797 -3.83406 -0.503677 0
M  V30 4133 H 371.486 -4.05628 -0.148612 0
M  V30 4134 H 372.252 -4.25539 2.32683 0
M  V30 4135 H 368.131 -4.47191 1.11988 0
M  V30 4136 H 371.675 -5.36963 4.45327 0
M  V30 4137 H 367.572 -5.58444 3.23745 0
M  V30 4138 H 368.34 -6.34701 5.16815 0
M  V30 4139 N 371.003 -0.499398 -1.49478 0
M  V30 4140 C 372.419 -0.155261 -1.58843 0
M  V30 4141 C 372.619 1.34008 -1.50479 0
M  V30 4142 O 371.675 2.11589 -1.37791 0
M  V30 4143 C 372.988 -0.730636 -2.91689 0
M  V30 4144 C 374.536 -0.696599 -3.0515 0
M  V30 4145 C 375.011 -1.25001 -4.40612 0
M  V30 4146 N 376.502 -1.21064 -4.47099 0
M  V30 4147 C 377.237 -1.60905 -5.50361 0
M  V30 4148 N 376.733 -2.08331 -6.60735 0
M  V30 4149 N 378.526 -1.52331 -5.41065 0
M  V30 4150 H 370.677 -1.47162 -1.53158 0
M  V30 4151 H 372.94 -0.610309 -0.725415 0
M  V30 4152 H 372.646 -1.77928 -3.03372 0
M  V30 4153 H 372.52 -0.190161 -3.7672 0
M  V30 4154 H 374.907 0.343204 -2.93097 0
M  V30 4155 H 374.988 -1.2742 -2.21806 0
M  V30 4156 H 374.632 -2.28859 -4.53416 0
M  V30 4157 H 374.562 -0.64836 -5.22593 0
M  V30 4158 H 377.053 -0.863128 -3.67911 0
M  V30 4159 H 377.366 -2.36805 -7.35624 0
M  V30 4160 H 375.711 -2.12304 -6.6178 0
M  V30 4161 H 378.902 -1.151 -4.53729 0
M  V30 4162 H 379.075 -1.83704 -6.21415 0
M  V30 4163 N 372.481 1.55866 -0.233164 0
M  V30 4164 C 373.728 1.98603 0.395374 0
M  V30 4165 C 374.056 1.12105 1.58942 0
M  V30 4166 O 373.311 0.168656 1.94972 0
M  V30 4167 C 373.61 3.46856 0.861724 0
M  V30 4168 C 373.276 4.50348 -0.223066 0
M  V30 4169 C 371.938 4.78371 -0.521038 0
M  V30 4170 C 374.29 5.12355 -0.956124 0
M  V30 4171 C 371.618 5.6568 -1.55638 0
M  V30 4172 C 373.97 6.00786 -1.98089 0
M  V30 4173 C 372.634 6.27148 -2.28565 0
M  V30 4174 H 371.904 0.726739 0.144677 0
M  V30 4175 H 374.551 1.88491 -0.338114 0
M  V30 4176 H 372.856 3.5423 1.67418 0
M  V30 4177 H 374.553 3.77302 1.35809 0
M  V30 4178 H 371.143 4.28596 0.0193234 0
M  V30 4179 H 375.327 4.90765 -0.739166 0
M  V30 4180 H 370.583 5.84365 -1.798 0
M  V30 4181 H 374.757 6.4788 -2.55391 0
M  V30 4182 H 372.384 6.94597 -3.08932 0
M  V30 4183 N 373.959 -0.0401083 1.57549 0
M  V30 4184 C 375.236 -0.767917 1.79896 0
M  V30 4185 C 375.616 -1.9416 0.82856 0
M  V30 4186 O 374.964 -2.2812 -0.131671 0
M  V30 4187 C 375.174 -1.2113 3.27305 0
M  V30 4188 C 376.522 -1.63175 3.91994 0
M  V30 4189 O 377.546 -1.30616 3.31388 0
M  V30 4190 O 376.405 -2.23565 4.98679 0
M  V30 4191 H 373.499 -0.370441 0.739393 0
M  V30 4192 H 376.045 -0.017737 1.69691 0
M  V30 4193 H 374.817 -0.372937 3.89519 0
M  V30 4194 H 374.44 -2.02183 3.42356 0
M  V30 4195 N 375.437 -1.54477 -0.31217 0
M  V30 4196 C 376.384 -1.84655 -1.38461 0
M  V30 4197 C 377.354 -0.694536 -1.50882 0
M  V30 4198 O 378.539 -0.942081 -1.6592 0
M  V30 4199 C 375.679 -2.0896 -2.74645 0
M  V30 4200 C 374.792 -3.36618 -2.70763 0
M  V30 4201 C 373.927 -3.50824 -3.98868 0
M  V30 4202 C 372.966 -4.72315 -3.89339 0
M  V30 4203 N 372.103 -4.83387 -5.09197 0
M  V30 4204 H 376.943 -2.76142 -1.12026 0
M  V30 4205 H 374.48 -1.36748 -0.542065 0
M  V30 4206 H 376.438 -2.21045 -3.53829 0
M  V30 4207 H 375.068 -1.20752 -2.99364 0
M  V30 4208 H 374.12 -3.33211 -1.83506 0
M  V30 4209 H 375.432 -4.25917 -2.59608 0
M  V30 4210 H 374.586 -3.62513 -4.86486 0
M  V30 4211 H 373.325 -2.59638 -4.12843 0
M  V30 4212 H 372.33 -4.6067 -3.00105 0
M  V30 4213 H 373.555 -5.64897 -3.76919 0
M  V30 4214 H 371.501 -3.9512 -5.23657 0
M  V30 4215 H 371.418 -5.66669 -5.00422 0
M  V30 4216 H 372.686 -4.9942 -5.98498 0
M  V30 4217 N 376.915 0.57481 -1.46744 0
M  V30 4218 C 377.825 1.711 -1.60505 0
M  V30 4219 C 378.841 1.67008 -0.488307 0
M  V30 4220 O 380.017 1.86774 -0.753495 0
M  V30 4221 C 377.082 3.07608 -1.59932 0
M  V30 4222 C 376.143 3.22904 -2.82898 0
M  V30 4223 C 375.376 4.529 -2.82343 0
M  V30 4224 O 375.599 5.37278 -1.91542 0
M  V30 4225 O 374.533 4.71611 -3.73987 0
M  V30 4226 H 378.359 1.62436 -2.56609 0
M  V30 4227 H 375.944 0.742779 -1.29627 0
M  V30 4228 H 377.826 3.88877 -1.62336 0
M  V30 4229 H 376.501 3.16692 -0.669898 0
M  V30 4230 H 375.408 2.41099 -2.86046 0
M  V30 4231 H 376.741 3.18715 -3.75076 0
M  V30 4232 N 378.394 1.34581 0.820102 0
M  V30 4233 C 379.634 1.28448 1.58998 0
M  V30 4234 C 379.998 -0.142883 1.91468 0
M  V30 4235 O 381.199 -0.328422 2.66786 0
M  V30 4236 C 379.47 2.153 2.85273 0
M  V30 4237 S 381.029 2.26548 3.75794 0
M  V30 4238 H 377.847 0.456685 0.54494 0
M  V30 4239 H 380.449 1.69825 0.968487 0
M  V30 4240 H 379.153 3.18008 2.59421 0
M  V30 4241 H 378.684 1.7483 3.52417 0
M  V30 4242 H 380.699 1.44034 4.74835 0
M  V30 4243 N 379.872 -1.04064 1.18357 0
M  V30 4244 C 381.119 -1.77265 0.978947 0
M  V30 4245 C 381.447 -1.88189 -0.491428 0
M  V30 4246 O 380.702 -1.38653 -1.38108 0
M  V30 4247 C 381.001 -3.20634 1.57888 0
M  V30 4248 C 380.667 -3.29743 3.07539 0
M  V30 4249 C 379.329 -3.31937 3.48384 0
M  V30 4250 C 381.681 -3.29841 4.03552 0
M  V30 4251 C 379.009 -3.3187 4.83818 0
M  V30 4252 C 381.361 -3.31313 5.38901 0
M  V30 4253 C 380.025 -3.31799 5.79194 0
M  V30 4254 H 379.295 -0.648659 0.358222 0
M  V30 4255 H 381.942 -1.22225 1.47422 0
M  V30 4256 H 380.247 -3.78675 1.00561 0
M  V30 4257 H 381.944 -3.75917 1.39598 0
M  V30 4258 H 378.534 -3.28757 2.74986 0
M  V30 4259 H 382.718 -3.27337 3.73047 0
M  V30 4260 H 377.974 -3.30562 5.14333 0
M  V30 4261 H 382.148 -3.30338 6.13066 0
M  V30 4262 H 379.775 -3.315 6.84114 0
M  V30 4263 N 381.35 -0.985608 -1.22978 0
M  V30 4264 C 382.297 -0.529825 -2.24636 0
M  V30 4265 C 383.267 0.434028 -1.60329 0
M  V30 4266 O 384.452 0.340414 -1.87739 0
M  V30 4267 C 381.592 0.156533 -3.44745 0
M  V30 4268 C 380.705 -0.848197 -4.23591 0
M  V30 4269 C 379.84 -0.136109 -5.31026 0
M  V30 4270 C 378.879 -1.1297 -6.01585 0
M  V30 4271 N 378.016 -0.446415 -7.00679 0
M  V30 4272 H 382.856 -1.40148 -2.62988 0
M  V30 4273 H 380.393 -0.702168 -1.29259 0
M  V30 4274 H 382.351 0.571324 -4.1327 0
M  V30 4275 H 380.981 0.992025 -3.07179 0
M  V30 4276 H 380.033 -1.38135 -3.54433 0
M  V30 4277 H 381.345 -1.60512 -4.72268 0
M  V30 4278 H 380.499 0.335784 -6.0577 0
M  V30 4279 H 379.238 0.653373 -4.83304 0
M  V30 4280 H 378.243 -1.6123 -5.25628 0
M  V30 4281 H 379.468 -1.91993 -6.51395 0
M  V30 4282 H 377.414 0.323763 -6.55201 0
M  V30 4283 H 377.331 -1.1419 -7.47326 0
M  V30 4284 H 378.599 0.00291697 -7.795 0
M  V30 4285 N 382.828 1.3818 -0.7579 0
M  V30 4286 C 384.068 2.01864 -0.320968 0
M  V30 4287 C 384.432 1.58863 1.07827 0
M  V30 4288 O 385.633 2.14908 1.61456 0
M  V30 4289 C 383.904 3.54626 -0.44446 0
M  V30 4290 S 385.463 4.38706 -0.0907467 0
M  V30 4291 H 382.281 0.700056 -0.124268 0
M  V30 4292 H 384.883 1.68611 -0.989468 0
M  V30 4293 H 383.587 3.83411 -1.4637 0
M  V30 4294 H 383.118 3.92661 0.241073 0
M  V30 4295 H 385.133 4.83435 1.11826 0
M  V30 4296 N 384.306 0.507319 1.49211 0
M  V30 4297 C 385.269 -0.256763 2.27757 0
M  V30 4298 C 386.269 -0.888287 1.34038 0
M  V30 4299 O 387.459 -0.751841 1.5714 0
M  V30 4300 C 384.591 -1.36905 3.12202 0
M  V30 4301 H 385.784 0.432557 2.96764 0
M  V30 4302 H 383.337 0.262488 1.5408 0
M  V30 4303 H 384.072 -2.09233 2.47775 0
M  V30 4304 H 383.857 -0.921599 3.81115 0
M  V30 4305 H 385.347 -1.9071 3.7151 0
M  V30 4306 N 385.784 -1.5574 0.241426 0
M  V30 4307 C 386.714 -2.24133 -0.654722 0
M  V30 4308 C 387.695 -1.21974 -1.1856 0
M  V30 4309 O 388.88 -1.50612 -1.22595 0
M  V30 4310 C 386.01 -2.93659 -1.85423 0
M  V30 4311 C 384.964 -4.0246 -1.45636 0
M  V30 4312 C 384.29 -4.59383 -2.73626 0
M  V30 4313 C 385.59 -5.18468 -0.631506 0
M  V30 4314 H 387.284 -2.99281 -0.0844353 0
M  V30 4315 H 384.83 -1.43947 -0.0391707 0
M  V30 4316 H 386.783 -3.40203 -2.48676 0
M  V30 4317 H 385.507 -2.15991 -2.44981 0
M  V30 4318 H 384.166 -3.56676 -0.847202 0
M  V30 4319 H 383.814 -3.78422 -3.3137 0
M  V30 4320 H 383.514 -5.32826 -2.4773 0
M  V30 4321 H 385.038 -5.08658 -3.37786 0
M  V30 4322 H 386.452 -5.61272 -1.1682 0
M  V30 4323 H 384.849 -5.98266 -0.468831 0
M  V30 4324 H 385.919 -4.8358 0.357506 0
M  V30 4325 N 387.262 0.0317525 -1.57568 0
M  V30 4326 C 388.51 0.721676 -1.88776 0
M  V30 4327 C 388.831 1.76039 -0.838772 0
M  V30 4328 O 388.101 1.95482 0.127935 0
M  V30 4329 H 386.681 0.269534 -0.696678 0
M  V30 4330 H 389.343 -0.00165879 -1.949 0
M  V30 4331 H 388.439 1.21293 -2.87566 0
M  V30 4332 N 388.74 1.54641 0.303973 0
M  V30 4333 C 389.965 1.78092 1.06292 0
M  V30 4334 C 390.39 0.537342 1.80262 0
M  V30 4335 O 389.748 -0.511993 1.7392 0
M  V30 4336 C 389.796 2.98612 2.02147 0
M  V30 4337 O 388.9 2.71528 3.10397 0
M  V30 4338 H 388.241 0.589548 0.305497 0
M  V30 4339 H 390.771 2.01716 0.3423 0
M  V30 4340 H 390.781 3.265 2.44667 0
M  V30 4341 H 389.456 3.88785 1.47714 0
M  V30 4342 H 388.033 2.54648 2.72413 0
M  V30 4343 N 390.218 -0.567019 1.47046 0
M  V30 4344 C 391.443 -1.3551 1.57009 0
M  V30 4345 C 391.868 -1.86841 0.217259 0
M  V30 4346 O 391.226 -1.62435 -0.805268 0
M  V30 4347 C 391.274 -2.50777 2.5912 0
M  V30 4348 O 390.378 -3.52706 2.13711 0
M  V30 4349 H 389.719 -0.402919 0.52778 0
M  V30 4350 H 392.249 -0.686241 1.92748 0
M  V30 4351 H 392.259 -2.97481 2.79229 0
M  V30 4352 H 390.934 -2.12771 3.57353 0
M  V30 4353 H 389.511 -3.12374 2.03659 0
M  V30 4354 N 391.696 -1.35014 -0.812953 0
M  V30 4355 C 392.942 -1.29129 -1.57154 0
M  V30 4356 C 393.297 0.134922 -1.91926 0
M  V30 4357 O 392.59 1.08373 -1.58006 0
M  V30 4358 C 392.784 -2.12524 -2.87347 0
M  V30 4359 C 392.613 -3.6311 -2.65294 0
M  V30 4360 C 391.383 -4.32363 -2.61516 0
M  V30 4361 C 393.581 -4.56897 -2.36114 0
M  V30 4362 N 391.563 -5.68735 -2.31113 0
M  V30 4363 C 392.934 -5.81345 -2.15494 0
M  V30 4364 C 394.989 -4.45706 -2.21925 0
M  V30 4365 C 393.692 -6.95862 -1.82122 0
M  V30 4366 C 395.718 -5.60066 -1.89948 0
M  V30 4367 C 395.08 -6.83539 -1.7016 0
M  V30 4368 H 391.179 -0.527764 -0.577052 0
M  V30 4369 H 393.763 -1.6983 -0.952146 0
M  V30 4370 H 391.934 -1.74104 -3.47192 0
M  V30 4371 H 393.666 -1.98207 -3.5284 0
M  V30 4372 H 390.421 -3.84907 -2.75941 0
M  V30 4373 H 390.845 -6.40694 -2.18724 0
M  V30 4374 H 395.487 -3.50855 -2.35925 0
M  V30 4375 H 393.205 -7.90685 -1.6686 0
M  V30 4376 H 396.791 -5.53357 -1.79687 0
M  V30 4377 H 395.671 -7.70531 -1.45777 0
M  V30 4378 N 393.175 1.03435 -1.18907 0
M  V30 4379 C 394.424 1.76143 -0.982669 0
M  V30 4380 C 394.737 1.89416 0.487953 0
M  V30 4381 O 395.943 2.59041 0.813036 0
M  V30 4382 C 394.399 3.16722 -1.70924 0
M  V30 4383 C 394.007 3.11522 -3.21959 0
M  V30 4384 C 395.751 3.93764 -1.58588 0
M  V30 4385 C 393.658 4.46999 -3.87228 0
M  V30 4386 H 392.588 0.660292 -0.364047 0
M  V30 4387 H 395.239 1.158 -1.42347 0
M  V30 4388 H 393.621 3.775 -1.19623 0
M  V30 4389 H 394.795 2.60158 -3.80335 0
M  V30 4390 H 393.11 2.47978 -3.34508 0
M  V30 4391 H 395.707 4.93963 -2.04707 0
M  V30 4392 H 396.05 4.12794 -0.539142 0
M  V30 4393 H 396.583 3.39576 -2.07203 0
M  V30 4394 H 393.322 4.33174 -4.91976 0
M  V30 4395 H 392.842 4.98441 -3.33642 0
M  V30 4396 H 394.521 5.15898 -3.90459 0
M  V30 4397 N 394.653 0.992116 1.22453 0
M  V30 4398 C 395.902 0.662992 1.90492 0
M  V30 4399 C 396.215 -0.808407 1.78113 0
M  V30 4400 O 397.421 -1.24908 2.41061 0
M  V30 4401 C 395.877 1.1353 3.41524 0
M  V30 4402 C 395.485 2.63187 3.62542 0
M  V30 4403 C 397.229 0.880465 4.15269 0
M  V30 4404 C 395.136 3.04024 5.0727 0
M  V30 4405 H 394.066 0.244278 0.713333 0
M  V30 4406 H 396.717 1.20157 1.38688 0
M  V30 4407 H 395.099 0.52485 3.92506 0
M  V30 4408 H 396.273 3.2957 3.22056 0
M  V30 4409 H 394.588 2.86543 3.02129 0
M  V30 4410 H 397.185 1.16128 5.21937 0
M  V30 4411 H 397.528 -0.183408 4.15896 0
M  V30 4412 H 398.061 1.45307 3.70312 0
M  V30 4413 H 394.8 4.09584 5.11782 0
M  V30 4414 H 394.32 2.42343 5.48662 0
M  V30 4415 H 395.999 2.95282 5.75689 0
M  V30 4416 N 396.131 -1.37776 0.765217 0
M  V30 4417 C 397.356 -2.04651 0.336537 0
M  V30 4418 C 397.781 -1.57337 -1.03086 0
M  V30 4419 O 397.139 -0.730621 -1.65927 0
M  V30 4420 C 397.187 -3.58577 0.381468 0
M  V30 4421 O 396.291 -4.07706 -0.62042 0
M  V30 4422 H 395.632 -0.64756 0.146838 0
M  V30 4423 H 398.162 -1.76221 1.03959 0
M  V30 4424 H 398.172 -4.07314 0.236448 0
M  V30 4425 H 396.847 -3.9237 1.37907 0
M  V30 4426 H 395.424 -3.70306 -0.439056 0
M  V30 4427 N 397.609 -0.515225 -1.4894 0
M  V30 4428 C 398.855 0.0242508 -2.02785 0
M  V30 4429 C 399.188 1.35323 -1.39289 0
M  V30 4430 O 398.463 1.87041 -0.533469 0
M  V30 4431 C 398.746 0.16184 -3.59736 0
M  V30 4432 C 398.599 -1.19127 -4.33738 0
M  V30 4433 C 399.918 0.895719 -4.30888 0
M  V30 4434 H 397.037 0.00733914 -0.736963 0
M  V30 4435 H 399.679 -0.669395 -1.77818 0
M  V30 4436 H 397.829 0.752624 -3.8114 0
M  V30 4437 H 399.501 -1.82202 -4.23792 0
M  V30 4438 H 397.744 -1.77695 -3.95736 0
M  V30 4439 H 398.415 -1.04815 -5.41957 0
M  V30 4440 H 400.891 0.394528 -4.14225 0
M  V30 4441 H 399.767 0.960859 -5.40425 0
M  V30 4442 H 400.028 1.9427 -3.97129 0
M  V30 4443 N 399.087 1.5561 -0.249682 0
M  V30 4444 C 399.997 2.25143 0.659375 0
M  V30 4445 C 401.013 1.2685 1.19101 0
M  V30 4446 O 402.189 1.59732 1.22669 0
M  V30 4447 C 399.254 2.93945 1.8384 0
M  V30 4448 C 398.315 4.07655 1.34596 0
M  V30 4449 C 397.548 4.73167 2.46878 0
M  V30 4450 O 397.771 4.37768 3.65671 0
M  V30 4451 O 396.705 5.61623 2.16478 0
M  V30 4452 H 400.531 3.03545 0.0968698 0
M  V30 4453 H 398.116 1.49389 -0.018074 0
M  V30 4454 H 399.998 3.37271 2.52638 0
M  V30 4455 H 398.673 2.18481 2.38847 0
M  V30 4456 H 397.58 3.68839 0.625174 0
M  V30 4457 H 398.913 4.84946 0.841941 0
M  V30 4458 N 400.565 -0.0233959 1.57583 0
M  V30 4459 C 401.495 -1.02162 2.09965 0
M  V30 4460 C 402.476 -1.3735 1.00344 0
M  V30 4461 O 403.661 -1.46135 1.27899 0
M  V30 4462 C 400.791 -2.32081 2.58371 0
M  V30 4463 C 399.745 -2.1112 3.72307 0
M  V30 4464 C 399.071 -3.46848 4.06941 0
M  V30 4465 C 400.371 -1.49276 5.00514 0
M  V30 4466 H 402.065 -0.585557 2.93618 0
M  V30 4467 H 399.611 -0.280218 1.41247 0
M  V30 4468 H 401.564 -3.02249 2.93639 0
M  V30 4469 H 400.288 -2.77758 1.71808 0
M  V30 4470 H 398.947 -1.43384 3.37397 0
M  V30 4471 H 398.595 -3.90184 3.17436 0
M  V30 4472 H 398.295 -3.33646 4.83688 0
M  V30 4473 H 399.819 -4.18369 4.44747 0
M  V30 4474 H 401.233 -2.09368 5.33702 0
M  V30 4475 H 399.63 -1.46632 5.8191 0
M  V30 4476 H 400.7 -0.459217 4.82721 0
M  V30 4477 N 402.043 -1.548 -0.295768 0
M  V30 4478 C 403.006 -1.85363 -1.34808 0
M  V30 4479 C 404.006 -0.726817 -1.43436 0
M  V30 4480 O 405.196 -0.995088 -1.42981 0
M  V30 4481 C 402.328 -2.03859 -2.73229 0
M  V30 4482 H 403.521 -2.7941 -1.08949 0
M  V30 4483 H 401.074 -1.46942 -0.532702 0
M  V30 4484 H 401.809 -1.12117 -3.04303 0
M  V30 4485 H 401.594 -2.8588 -2.68356 0
M  V30 4486 H 403.084 -2.28857 -3.49305 0
M  V30 4487 N 403.521 0.559213 -1.47345 0
M  V30 4488 C 404.77 1.31281 -1.53128 0
M  V30 4489 C 405.083 1.94602 -0.197344 0
M  V30 4490 O 406.289 2.71173 -0.133154 0
M  V30 4491 C 404.745 2.38051 -2.69925 0
M  V30 4492 C 404.353 1.8093 -4.0984 0
M  V30 4493 C 406.097 3.14604 -2.84999 0
M  V30 4494 C 404.004 2.85468 -5.1794 0
M  V30 4495 H 402.934 0.493614 -0.569966 0
M  V30 4496 H 405.585 0.594155 -1.73615 0
M  V30 4497 H 403.967 3.12822 -2.42814 0
M  V30 4498 H 405.141 1.12544 -4.46845 0
M  V30 4499 H 403.456 1.16967 -3.99634 0
M  V30 4500 H 406.053 3.92666 -3.62929 0
M  V30 4501 H 406.396 3.68665 -1.93369 0
M  V30 4502 H 406.929 2.46945 -3.1187 0
M  V30 4503 H 403.668 2.36264 -6.1144 0
M  V30 4504 H 403.188 3.52269 -4.85455 0
M  V30 4505 H 404.867 3.48996 -5.44803 0
M  V30 4506 N 404.999 1.35443 0.805782 0
M  V30 4507 C 406.247 1.28507 1.55982 0
M  V30 4508 C 406.568 -0.140046 1.94496 0
M  V30 4509 O 405.838 -1.07666 1.63661 0
M  V30 4510 H 404.418 0.472676 0.578434 0
M  V30 4511 H 407.08 1.69555 0.961098 0
M  V30 4512 H 406.176 1.90148 2.47488 0
M  V30 4513 N 406.477 -1.02803 1.19454 0
M  V30 4514 C 407.888 -1.57667 0.999899 0
M  V30 4515 C 408.239 -1.91041 -0.446956 0
M  V30 4516 O 407.364 -1.70978 -1.32648 0
M  V30 4517 C 407.959 -2.86477 1.80877 0
M  V30 4518 C 406.518 -3.37911 1.65811 0
M  V30 4519 C 405.665 -2.11343 1.79526 0
M  V30 4520 H 408.616 -0.853214 1.33813 0
M  V30 4521 H 408.637 -3.57408 1.30536 0
M  V30 4522 H 408.149 -2.62155 2.86175 0
M  V30 4523 H 406.25 -3.67218 0.63102 0
M  V30 4524 H 406.363 -4.10885 2.46395 0
M  V30 4525 H 404.727 -2.23254 1.22596 0
M  V30 4526 H 405.51 -1.89461 2.86285 0
M  V30 4527 N 407.956 -0.998596 -1.21925 0
M  V30 4528 C 408.866 -0.562736 -2.27751 0
M  V30 4529 C 409.882 0.391203 -1.69545 0
M  V30 4530 O 411.058 0.256625 -1.99758 0
M  V30 4531 C 408.123 0.11012 -3.46525 0
M  V30 4532 C 407.184 -0.887495 -4.20026 0
M  V30 4533 C 406.417 -0.246654 -5.3313 0
M  V30 4534 O 406.64 0.958088 -5.62296 0
M  V30 4535 O 405.574 -0.954374 -5.94286 0
M  V30 4536 H 409.4 -1.44329 -2.67213 0
M  V30 4537 H 406.985 -0.767135 -1.28201 0
M  V30 4538 H 408.867 0.486756 -4.18579 0
M  V30 4539 H 407.542 0.965154 -3.08976 0
M  V30 4540 H 406.449 -1.31517 -3.5022 0
M  V30 4541 H 407.782 -1.71191 -4.6147 0
M  V30 4542 N 409.434 1.37368 -0.772513 0
M  V30 4543 C 410.344 2.34053 -0.160081 0
M  V30 4544 C 411.36 1.60216 0.678728 0
M  V30 4545 O 412.536 1.92303 0.59847 0
M  V30 4546 C 409.601 3.3939 0.708182 0
M  V30 4547 C 408.662 4.29048 -0.147172 0
M  V30 4548 C 407.895 5.29354 0.679744 0
M  V30 4549 O 408.118 5.3723 1.91678 0
M  V30 4550 O 407.052 6.01835 0.0885444 0
M  V30 4551 H 410.878 2.88159 -0.959053 0
M  V30 4552 H 408.463 1.39543 -0.533685 0
M  V30 4553 H 410.345 4.03839 1.20384 0
M  V30 4554 H 409.02 2.8761 1.48533 0
M  V30 4555 H 407.927 3.67697 -0.689205 0
M  V30 4556 H 409.26 4.84134 -0.887423 0
M  V30 4557 N 410.912 0.523116 1.48665 0
M  V30 4558 C 412.16 -0.0134497 2.02096 0
M  V30 4559 C 412.481 -1.35418 1.40311 0
M  V30 4560 O 411.751 -1.87543 0.566074 0
M  V30 4561 H 410.331 -0.00795915 0.746958 0
M  V30 4562 H 412.993 0.685388 1.82451 0
M  V30 4563 H 412.089 -0.126849 3.11842 0
M  V30 4564 N 412.39 -1.55475 0.257931 0
M  V30 4565 C 413.639 -1.98383 -0.364275 0
M  V30 4566 C 413.952 -1.14952 -1.58258 0
M  V30 4567 O 415.158 -1.47924 -2.27664 0
M  V30 4568 C 413.614 -3.53037 -0.699479 0
M  V30 4569 C 413.222 -4.45223 0.498046 0
M  V30 4570 C 414.966 -4.04575 -1.28526 0
M  V30 4571 C 412.873 -5.91238 0.138383 0
M  V30 4572 H 411.803 -0.740911 -0.13988 0
M  V30 4573 H 414.454 -1.79936 0.359883 0
M  V30 4574 H 412.836 -3.6722 -1.48207 0
M  V30 4575 H 414.01 -4.42803 1.27522 0
M  V30 4576 H 412.325 -4.04226 0.999503 0
M  V30 4577 H 414.922 -5.11196 -1.56788 0
M  V30 4578 H 415.265 -3.5258 -2.21344 0
M  V30 4579 H 415.798 -3.93762 -0.565337 0
M  V30 4580 H 412.537 -6.47294 1.03398 0
M  V30 4581 H 412.057 -5.96768 -0.602374 0
M  V30 4582 H 413.736 -6.46413 -0.27553 0
M  V30 4583 N 413.868 0.0150385 -1.57593 0
M  V30 4584 C 415.093 0.718067 -1.94573 0
M  V30 4585 C 415.518 1.6734 -0.859005 0
M  V30 4586 O 414.876 1.80362 0.184147 0
M  V30 4587 C 414.924 1.43918 -3.30636 0
M  V30 4588 O 414.028 2.55299 -3.23876 0
M  V30 4589 H 413.369 0.192125 -0.635597 0
M  V30 4590 H 415.899 -0.0336708 -2.04572 0
M  V30 4591 H 415.909 1.80598 -3.65853 0
M  V30 4592 H 414.584 0.738619 -4.09289 0
M  V30 4593 H 413.161 2.21058 -3.00312 0
M  V30 4594 N 415.346 1.54954 0.287554 0
M  V30 4595 C 416.576 1.78622 1.03816 0
M  V30 4596 C 416.984 0.552451 1.80955 0
M  V30 4597 O 416.327 -0.487665 1.77109 0
M  V30 4598 C 416.389 2.94975 2.055 0
M  V30 4599 C 416.053 4.32565 1.47433 0
M  V30 4600 C 417.05 5.12096 0.897436 0
M  V30 4601 C 414.735 4.79195 1.50591 0
M  V30 4602 C 416.729 6.36383 0.359851 0
M  V30 4603 C 414.416 6.03441 0.964459 0
M  V30 4604 C 415.414 6.81872 0.392413 0
M  V30 4605 O 415.102 8.03777 -0.140788 0
M  V30 4606 H 414.834 0.599144 0.313053 0
M  V30 4607 H 417.388 2.02761 0.328225 0
M  V30 4608 H 415.618 2.66493 2.80211 0
M  V30 4609 H 417.307 3.06097 2.6657 0
M  V30 4610 H 418.073 4.77209 0.865841 0
M  V30 4611 H 413.952 4.18167 1.94055 0
M  V30 4612 H 417.496 6.97545 -0.0872951 0
M  V30 4613 H 413.393 6.37813 0.993246 0
M  V30 4614 H 414.161 8.18495 -0.0287617 0
M  V30 4615 N 416.824 -0.551391 1.4764 0
M  V30 4616 C 417.754 -1.66757 1.63445 0
M  V30 4617 C 418.735 -1.63077 0.483742 0
M  V30 4618 O 419.92 -1.80607 0.71377 0
M  V30 4619 C 417.05 -3.05387 1.65396 0
M  V30 4620 C 416.004 -3.23918 2.79752 0
M  V30 4621 C 415.33 -4.63393 2.66779 0
M  V30 4622 C 416.63 -3.08735 4.21284 0
M  V30 4623 H 418.324 -1.53786 2.56886 0
M  V30 4624 H 415.87 -0.738415 1.23626 0
M  V30 4625 H 417.823 -3.83325 1.75043 0
M  V30 4626 H 416.547 -3.19332 0.685195 0
M  V30 4627 H 415.206 -2.48391 2.69625 0
M  V30 4628 H 414.854 -4.74144 1.67918 0
M  V30 4629 H 414.554 -4.7674 3.43501 0
M  V30 4630 H 416.078 -5.43458 2.78364 0
M  V30 4631 H 417.492 -3.76484 4.32357 0
M  V30 4632 H 415.889 -3.33588 4.98838 0
M  V30 4633 H 416.959 -2.0541 4.39243 0
M  V30 4634 N 418.302 -1.35869 -0.798587 0
M  V30 4635 C 419.53 -1.32722 -1.58722 0
M  V30 4636 C 419.945 0.0935631 -1.88568 0
M  V30 4637 O 419.302 1.04784 -1.49421 0
M  V30 4638 C 419.353 -2.13974 -2.91371 0
M  V30 4639 O 419.074 -3.50514 -2.62815 0
M  V30 4640 C 420.575 -2.18504 -3.85708 0
M  V30 4641 H 417.795 -0.45562 -0.492596 0
M  V30 4642 H 420.339 -1.78837 -0.991843 0
M  V30 4643 H 418.494 -1.71438 -3.47402 0
M  V30 4644 H 418.908 -3.92806 -3.47568 0
M  V30 4645 H 420.382 -2.79732 -4.75872 0
M  V30 4646 H 420.859 -1.18597 -4.22885 0
M  V30 4647 H 421.465 -2.61236 -3.35612 0
M  V30 4648 N 419.78 1.02168 -1.19998 0
M  V30 4649 C 421.057 1.72816 -0.916191 0
M  V30 4650 C 421.437 2.03081 0.576325 0
M  V30 4651 O 420.785 1.69122 1.53656 0
M  V30 4652 C 420.995 2.9997 -1.78378 0
M  V30 4653 C 422.343 3.73336 -2.02251 0
M  V30 4654 O 423.367 3.09914 -1.75589 0
M  V30 4655 O 422.226 4.87371 -2.47249 0
M  V30 4656 H 419.32 0.752924 -0.342103 0
M  V30 4657 H 421.866 1.08062 -1.30846 0
M  V30 4658 H 420.638 2.73888 -2.79466 0
M  V30 4659 H 420.261 3.72464 -1.39126 0
M  V30 4660 N 421.258 1.00505 1.21394 0
M  V30 4661 C 422.205 0.565496 2.23765 0
M  V30 4662 C 423.175 -0.408466 1.60999 0
M  V30 4663 O 424.36 -0.310503 1.88257 0
M  V30 4664 C 421.5 -0.101667 3.4495 0
M  V30 4665 C 420.613 0.915479 4.22188 0
M  V30 4666 C 419.748 0.220574 5.30742 0
M  V30 4667 C 418.787 1.22527 5.99711 0
M  V30 4668 N 417.924 0.557831 6.9988 0
M  V30 4669 H 422.764 1.44314 2.60725 0
M  V30 4670 H 420.301 0.722643 1.28126 0
M  V30 4671 H 422.259 -0.505504 4.14126 0
M  V30 4672 H 420.889 -0.94303 3.08718 0
M  V30 4673 H 419.941 1.43756 3.52191 0
M  V30 4674 H 421.253 1.68005 4.69655 0
M  V30 4675 H 420.407 -0.239368 6.06228 0
M  V30 4676 H 419.146 -0.576401 4.84282 0
M  V30 4677 H 418.151 1.69571 5.22997 0
M  V30 4678 H 419.376 2.02332 6.48258 0
M  V30 4679 H 417.322 -0.219486 6.55633 0
M  V30 4680 H 417.239 1.26065 7.45415 0
M  V30 4681 H 418.507 0.121095 7.79406 0
M  V30 4682 N 422.737 -1.36956 0.779787 0
M  V30 4683 C 423.985 -1.99097 0.347079 0
M  V30 4684 C 424.306 -1.62206 -1.08232 0
M  V30 4685 O 423.576 -0.891373 -1.74446 0
M  V30 4686 H 422.156 -0.736409 0.125342 0
M  V30 4687 H 424.818 -1.67308 0.999696 0
M  V30 4688 H 423.914 -3.09107 0.431162 0
M  V30 4689 N 424.215 -0.530993 -1.48385 0
M  V30 4690 C 425.455 0.000718982 -2.044 0
M  V30 4691 C 425.819 1.31485 -1.39913 0
M  V30 4692 O 427.02 1.93265 -1.86821 0
M  V30 4693 C 425.291 0.119177 -3.57201 0
M  V30 4694 S 426.85 0.600806 -4.34667 0
M  V30 4695 H 423.668 -0.0125473 -0.710889 0
M  V30 4696 H 426.27 -0.711783 -1.82082 0
M  V30 4697 H 424.974 -0.842061 -4.01668 0
M  V30 4698 H 424.505 0.856026 -3.83974 0
M  V30 4699 H 426.52 1.86514 -4.59812 0
M  V30 4700 N 425.693 1.55336 -0.266172 0
M  V30 4701 C 426.641 2.23587 0.641228 0
M  V30 4702 C 427.635 1.22986 1.16494 0
M  V30 4703 O 428.841 1.40943 1.1196 0
M  V30 4704 H 425.216 0.717452 0.225315 0
M  V30 4705 H 427.187 2.9837 0.0426561 0
M  V30 4706 C 425.936 2.96369 1.81826 0
M  V30 4707 H 425.259 3.73563 1.42445 0
M  V30 4708 H 426.699 3.47459 2.42998 0
M  V30 4709 C 425.158 2.0133 2.70125 0
M  V30 4710 O 425.688 1.55875 3.70224 0
M  V30 4711 N 423.894 1.6802 2.37102 0
M  V30 4712 H 423.441 2.05181 1.55751 0
M  V30 4713 H 423.399 1.047 2.96454 0
M  V30 4714 N 427.171 -0.0066808 1.57599 0
M  V30 4715 C 428.582 -0.550379 1.78403 0
M  V30 4716 C 428.933 -1.74339 0.900014 0
M  V30 4717 O 428.058 -2.16166 0.100713 0
M  V30 4718 C 428.653 -1.00523 3.23544 0
M  V30 4719 C 427.212 -1.49428 3.45468 0
M  V30 4720 C 426.359 -0.442444 2.73748 0
M  V30 4721 H 429.31 0.219508 1.57175 0
M  V30 4722 H 429.331 -1.87157 3.31289 0
M  V30 4723 H 428.843 -0.136735 3.87859 0
M  V30 4724 H 426.944 -2.3839 2.86358 0
M  V30 4725 H 427.057 -1.52635 4.54136 0
M  V30 4726 H 425.421 -0.902578 2.38171 0
M  V30 4727 H 426.204 0.416973 3.40758 0
M  V30 4728 N 428.649 -1.55105 -0.279332 0
M  V30 4729 C 429.877 -1.7943 -1.03017 0
M  V30 4730 C 430.292 -0.564456 -1.80165 0
M  V30 4731 O 429.649 0.466326 -1.76442 0
M  V30 4732 C 429.7 -3.0155 -1.99374 0
M  V30 4733 O 429.421 -4.19784 -1.25352 0
M  V30 4734 C 430.922 -3.3843 -2.86321 0
M  V30 4735 H 428.142 -0.597882 -0.304594 0
M  V30 4736 H 430.686 -2.02105 -0.312035 0
M  V30 4737 H 428.841 -2.81019 -2.66659 0
M  V30 4738 H 429.255 -4.88781 -1.90246 0
M  V30 4739 H 430.729 -4.27066 -3.49741 0
M  V30 4740 H 431.206 -2.57549 -3.5576 0
M  V30 4741 H 431.812 -3.61197 -2.24536 0
M  V30 4742 N 430.127 0.543554 -1.4793 0
M  V30 4743 C 431.077 1.64527 -1.57844 0
M  V30 4744 C 432.061 1.54869 -0.436408 0
M  V30 4745 O 433.253 1.63119 -0.687101 0
M  V30 4746 C 430.382 3.03281 -1.6086 0
M  V30 4747 C 429.468 3.18093 -2.80495 0
M  V30 4748 N 429.859 3.02923 -4.05057 0
M  V30 4749 C 428.157 3.49121 -2.77543 0
M  V30 4750 C 428.858 3.20791 -4.85251 0
M  V30 4751 N 427.834 3.47749 -4.17818 0
M  V30 4752 H 431.636 1.51388 -2.5191 0
M  V30 4753 H 429.15 0.748671 -1.44113 0
M  V30 4754 H 431.147 3.82403 -1.66054 0
M  V30 4755 H 429.807 3.17521 -0.678996 0
M  V30 4756 H 430.818 2.79966 -4.35705 0
M  V30 4757 H 427.495 3.69804 -1.93781 0
M  V30 4758 H 428.885 3.13915 -5.9406 0
M  V30 4759 N 431.605 1.3629 0.791371 0
M  V30 4760 C 432.535 1.33137 1.91825 0
M  V30 4761 C 433.516 0.203168 1.68882 0
M  V30 4762 O 434.701 0.400509 1.90025 0
M  V30 4763 C 431.831 1.11793 3.28816 0
M  V30 4764 C 430.785 2.21417 3.66277 0
M  V30 4765 C 430.111 1.85218 5.01596 0
M  V30 4766 C 431.411 3.63489 3.75064 0
M  V30 4767 H 433.105 2.2743 1.9472 0
M  V30 4768 H 430.651 1.09479 0.935437 0
M  V30 4769 H 432.604 1.08222 4.07266 0
M  V30 4770 H 431.328 0.139501 3.26302 0
M  V30 4771 H 429.987 2.2411 2.90121 0
M  V30 4772 H 429.635 0.859544 4.95602 0
M  V30 4773 H 429.335 2.58611 5.27631 0
M  V30 4774 H 430.859 1.832 5.82469 0
M  V30 4775 H 432.273 3.63034 4.43711 0
M  V30 4776 H 430.67 4.35771 4.12582 0
M  V30 4777 H 431.74 3.98536 2.76219 0
M  V30 4778 N 433.083 -1.0153 1.20538 0
M  V30 4779 C 434.046 -2.0826 0.957098 0
M  V30 4780 C 435.046 -1.60657 -0.0678655 0
M  V30 4781 O 436.236 -1.73385 0.168332 0
M  V30 4782 C 433.368 -3.38033 0.441188 0
M  V30 4783 H 434.561 -2.31719 1.90384 0
M  V30 4784 H 432.114 -1.1835 1.02093 0
M  V30 4785 H 432.849 -3.20249 -0.510961 0
M  V30 4786 H 432.634 -3.73911 1.18038 0
M  V30 4787 H 434.124 -4.16613 0.287009 0
M  V30 4788 N 434.561 -1.01147 -1.20859 0
M  V30 4789 C 435.838 -0.613136 -1.85742 0
M  V30 4790 C 436.218 0.909004 -1.90526 0
M  V30 4791 O 435.566 1.79862 -1.40932 0
M  V30 4792 C 435.776 -1.255 -3.25654 0
M  V30 4793 C 437.124 -1.3672 -4.01986 0
M  V30 4794 O 438.148 -1.21082 -3.34989 0
M  V30 4795 O 437.007 -1.6194 -5.21956 0
M  V30 4796 H 434.101 -0.210878 -0.799662 0
M  V30 4797 H 436.647 -1.10853 -1.2849 0
M  V30 4798 H 435.419 -2.29532 -3.16908 0
M  V30 4799 H 435.042 -0.746369 -3.90532 0
M  V30 4800 N 436.039 1.36541 -0.78704 0
M  V30 4801 C 437.286 1.99304 -0.358341 0
M  V30 4802 C 437.614 1.62467 1.06933 0
M  V30 4803 O 436.869 0.870019 1.75297 0
M  V30 4804 C 437.168 3.54343 -0.466485 0
M  V30 4805 C 436.834 4.10993 -1.85461 0
M  V30 4806 C 435.496 4.26177 -2.23443 0
M  V30 4807 C 437.848 4.41895 -2.76366 0
M  V30 4808 C 435.176 4.69573 -3.51736 0
M  V30 4809 C 437.528 4.86722 -4.04084 0
M  V30 4810 C 436.192 5.00112 -4.42091 0
M  V30 4811 H 435.462 0.729306 -0.131126 0
M  V30 4812 H 438.109 1.63068 -1.00404 0
M  V30 4813 H 436.414 3.90918 0.262719 0
M  V30 4814 H 438.111 4.00833 -0.115854 0
M  V30 4815 H 434.701 3.99612 -1.54946 0
M  V30 4816 H 438.885 4.29735 -2.48277 0
M  V30 4817 H 434.141 4.78127 -3.81057 0
M  V30 4818 H 438.315 5.09598 -4.7464 0
M  V30 4819 H 435.942 5.33498 -5.41557 0
M  V30 4820 N 437.518 0.538854 1.48102 0
M  V30 4821 C 438.746 0.0123136 2.06896 0
M  V30 4822 C 439.161 -1.27312 1.39417 0
M  V30 4823 O 438.518 -1.75949 0.484582 0
M  V30 4824 C 438.569 -0.206118 3.60912 0
M  V30 4825 O 438.29 1.0284 4.25859 0
M  V30 4826 C 439.791 -0.772033 4.36526 0
M  V30 4827 H 437.011 0.0375239 0.66995 0
M  V30 4828 H 439.555 0.747032 1.90367 0
M  V30 4829 H 437.71 -0.89091 3.77017 0
M  V30 4830 H 438.124 0.814654 5.18135 0
M  V30 4831 H 439.598 -0.874251 5.45033 0
M  V30 4832 H 440.075 -1.77904 4.01555 0
M  V30 4833 H 440.681 -0.123526 4.25121 0
M  V30 4834 N 438.996 -1.55193 0.274407 0
M  V30 4835 C 439.928 -2.1989 -0.646595 0
M  V30 4836 C 440.941 -1.1834 -1.11801 0
M  V30 4837 O 442.13 -1.4507 -1.04004 0
M  V30 4838 C 439.23 -2.8104 -1.89393 0
M  V30 4839 C 438.403 -4.08274 -1.56943 0
M  V30 4840 C 437.462 -4.53478 -2.66916 0
M  V30 4841 O 436.488 -5.19267 -2.33132 0
M  V30 4842 N 437.69 -4.2356 -3.9696 0
M  V30 4843 H 440.455 -2.99556 -0.0928686 0
M  V30 4844 H 438.016 -1.61618 0.0954783 0
M  V30 4845 H 440.008 -3.08226 -2.62257 0
M  V30 4846 H 438.578 -2.05372 -2.35672 0
M  V30 4847 H 437.798 -3.88384 -0.674655 0
M  V30 4848 H 439.086 -4.91173 -1.32764 0
M  V30 4849 H 438.484 -3.70799 -4.27229 0
M  V30 4850 H 437.041 -4.55518 -4.66205 0
M  V30 4851 N 440.474 -0.00167713 -1.576 0
M  V30 4852 C 441.72 0.683832 -1.90923 0
M  V30 4853 C 442.053 1.7333 -0.875799 0
M  V30 4854 O 441.328 1.94215 0.10525 0
M  V30 4855 C 441.611 1.32543 -3.3482 0
M  V30 4856 C 441.464 0.287387 -4.48881 0
M  V30 4857 C 442.783 2.25114 -3.78169 0
M  V30 4858 H 439.902 0.247125 -0.694333 0
M  V30 4859 H 442.544 -0.0533149 -1.89925 0
M  V30 4860 H 440.694 1.95372 -3.35801 0
M  V30 4861 H 442.366 -0.341346 -4.60035 0
M  V30 4862 H 440.609 -0.39017 -4.32042 0
M  V30 4863 H 441.28 0.775393 -5.46527 0
M  V30 4864 H 443.756 1.723 -3.7875 0
M  V30 4865 H 442.632 2.66971 -4.79602 0
M  V30 4866 H 442.893 3.13092 -3.12131 0
M  V30 4867 N 441.952 1.55251 0.271103 0
M  V30 4868 C 442.884 1.84675 1.35749 0
M  V30 4869 C 443.897 0.731366 1.45447 0
M  V30 4870 O 445.086 1.00924 1.4723 0
M  V30 4871 C 442.186 1.99638 2.73857 0
M  V30 4872 C 441.359 3.30312 2.86727 0
M  V30 4873 C 440.418 3.35318 4.05522 0
M  V30 4874 O 439.444 4.08682 3.96191 0
M  V30 4875 N 440.646 2.62857 5.17577 0
M  V30 4876 H 443.411 2.78445 1.10853 0
M  V30 4877 H 440.972 1.55191 0.461218 0
M  V30 4878 H 442.964 2.00355 3.51625 0
M  V30 4879 H 441.534 1.12725 2.91568 0
M  V30 4880 H 440.754 3.42118 1.95829 0
M  V30 4881 H 442.042 4.16488 2.92258 0
M  V30 4882 H 441.44 2.02939 5.28046 0
M  V30 4883 H 439.997 2.69295 5.93568 0
M  V30 4884 N 443.43 -0.535701 1.48216 0
M  V30 4885 C 444.658 -1.31671 1.59594 0
M  V30 4886 C 445.073 -1.87083 0.254056 0
M  V30 4887 O 444.43 -1.66112 -0.755854 0
M  V30 4888 C 444.481 -2.47158 2.63809 0
M  V30 4889 O 444.202 -1.94032 3.92789 0
M  V30 4890 C 445.703 -3.39062 2.85573 0
M  V30 4891 H 442.923 -0.400623 0.538277 0
M  V30 4892 H 445.467 -0.646827 1.94001 0
M  V30 4893 H 443.622 -3.10043 2.32276 0
M  V30 4894 H 444.036 -2.69585 4.49916 0
M  V30 4895 H 445.51 -4.16459 3.62306 0
M  V30 4896 H 445.987 -3.93941 1.94184 0
M  V30 4897 H 446.593 -2.81975 3.18387 0
M  V30 4898 N 444.908 -1.36708 -0.784132 0
M  V30 4899 C 446.157 -1.30559 -1.53744 0
M  V30 4900 C 446.47 0.111374 -1.95283 0
M  V30 4901 O 447.676 0.29527 -2.6989 0
M  V30 4902 C 446.132 -2.29098 -2.77565 0
M  V30 4903 C 445.74 -3.76258 -2.43174 0
M  V30 4904 C 447.484 -2.31936 -3.55536 0
M  V30 4905 C 445.391 -4.6656 -3.63422 0
M  V30 4906 H 444.321 -0.48518 -0.577162 0
M  V30 4907 H 446.972 -1.62101 -0.859981 0
M  V30 4908 H 445.354 -1.90557 -3.47137 0
M  V30 4909 H 446.528 -4.23565 -1.81465 0
M  V30 4910 H 444.843 -3.76246 -1.78403 0
M  V30 4911 H 447.44 -2.9661 -4.44889 0
M  V30 4912 H 447.783 -1.3294 -3.94503 0
M  V30 4913 H 448.316 -2.6912 -2.92949 0
M  V30 4914 H 445.055 -5.66638 -3.29547 0
M  V30 4915 H 444.575 -4.23966 -4.24279 0
M  V30 4916 H 446.254 -4.8309 -4.30387 0
M  V30 4917 N 446.386 1.0089 -1.21074 0
M  V30 4918 C 447.318 2.09737 -0.924291 0
M  V30 4919 C 448.331 1.62546 0.0909809 0
M  V30 4920 O 449.52 1.77942 -0.141021 0
M  V30 4921 C 446.62 3.36922 -0.36559 0
M  V30 4922 C 445.793 4.13216 -1.43426 0
M  V30 4923 C 444.852 5.18696 -0.885496 0
M  V30 4924 O 443.878 5.47176 -1.56801 0
M  V30 4925 N 445.08 5.79718 0.301227 0
M  V30 4926 H 447.845 2.34895 -1.8613 0
M  V30 4927 H 445.406 1.17341 -1.11546 0
M  V30 4928 H 447.398 4.04697 0.0158407 0
M  V30 4929 H 445.968 3.08952 0.476149 0
M  V30 4930 H 445.188 3.40301 -1.9897 0
M  V30 4931 H 446.476 4.60967 -2.15376 0
M  V30 4932 H 445.874 5.58926 0.872849 0
M  V30 4933 H 444.431 6.48804 0.624211 0
M  V30 4934 N 447.864 1.01787 1.20321 0
M  V30 4935 C 449.094 0.72614 1.93419 0
M  V30 4936 C 449.502 -0.717317 1.75075 0
M  V30 4937 O 448.845 -1.49836 1.06278 0
M  V30 4938 C 448.907 0.983621 3.45782 0
M  V30 4939 C 448.571 2.41645 3.87888 0
M  V30 4940 C 449.568 3.39732 3.93545 0
M  V30 4941 C 447.253 2.75752 4.19841 0
M  V30 4942 C 449.247 4.69988 4.30569 0
M  V30 4943 C 446.934 4.06221 4.56539 0
M  V30 4944 C 447.932 5.0315 4.61876 0
M  V30 4945 O 447.62 6.31284 4.97731 0
M  V30 4946 H 447.352 0.265824 0.621541 0
M  V30 4947 H 449.906 1.3623 1.53722 0
M  V30 4948 H 448.136 0.290301 3.85609 0
M  V30 4949 H 449.825 0.683279 4.00108 0
M  V30 4950 H 450.591 3.14718 3.69022 0
M  V30 4951 H 446.47 2.00993 4.14877 0
M  V30 4952 H 450.014 5.45642 4.3465 0
M  V30 4953 H 445.911 4.31013 4.80518 0
M  V30 4954 H 446.679 6.35591 5.15719 0
M  V30 4955 N 449.342 -1.36122 0.79427 0
M  V30 4956 C 450.567 -2.03891 0.379871 0
M  V30 4957 C 450.992 -1.59488 -0.997251 0
M  V30 4958 O 450.35 -0.765652 -1.64339 0
M  V30 4959 C 450.398 -3.57687 0.457442 0
M  V30 4960 O 449.502 -4.08931 -0.5338 0
M  V30 4961 H 448.843 -0.6443 0.160541 0
M  V30 4962 H 451.373 -1.73976 1.07673 0
M  V30 4963 H 451.383 -4.06721 0.322792 0
M  V30 4964 H 450.058 -3.89357 1.46199 0
M  V30 4965 H 448.635 -3.71154 -0.360409 0
M  V30 4966 N 450.82 -0.546701 -1.47814 0
M  V30 4967 C 451.768 0.220048 -2.31557 0
M  V30 4968 C 452.762 0.919472 -1.42275 0
M  V30 4969 O 453.968 0.841953 -1.59095 0
M  V30 4970 H 450.343 0.0898334 -0.746615 0
M  V30 4971 H 452.314 -0.505589 -2.94086 0
M  V30 4972 C 451.063 1.24353 -3.24702 0
M  V30 4973 H 450.386 0.714758 -3.93359 0
M  V30 4974 H 451.826 1.75112 -3.8615 0
M  V30 4975 C 450.285 2.28593 -2.47481 0
M  V30 4976 O 450.815 3.35334 -2.21165 0
M  V30 4977 N 449.021 2.02244 -2.08676 0
M  V30 4978 H 448.568 1.15455 -2.30278 0
M  V30 4979 H 448.526 2.72207 -1.57323 0
M  V30 4980 N 452.299 1.55045 -0.282633 0
M  V30 4981 C 453.524 2.04628 0.337977 0
M  V30 4982 C 453.949 1.15937 1.48123 0
M  V30 4983 O 453.307 0.159532 1.80597 0
M  V30 4984 C 453.355 3.51854 0.78936 0
M  V30 4985 O 452.459 3.66236 1.89592 0
M  V30 4986 H 451.8 0.660434 0.0687261 0
M  V30 4987 H 454.33 2.00261 -0.419124 0
M  V30 4988 H 454.34 3.93361 1.08311 0
M  V30 4989 H 453.015 4.15873 -0.0470419 0
M  V30 4990 H 451.592 3.36633 1.60413 0
M  V30 4991 N 453.777 0.010035 1.57597 0
M  V30 4992 C 454.687 -0.994226 2.12491 0
M  V30 4993 C 455.703 -1.37013 1.07254 0
M  V30 4994 O 456.879 -1.45542 1.3921 0
M  V30 4995 C 453.944 -2.2642 2.62555 0
M  V30 4996 C 453.005 -1.95049 3.82432 0
M  V30 4997 C 452.238 -3.15991 4.30099 0
M  V30 4998 O 452.461 -4.28015 3.7704 0
M  V30 4999 O 451.395 -2.99403 5.22151 0
M  V30 5000 H 455.221 -0.557549 2.98538 0
M  V30 5001 H 452.806 -0.209413 1.47925 0
M  V30 5002 H 454.688 -3.01009 2.9491 0
M  V30 5003 H 453.363 -2.69306 1.796 0
M  V30 5004 H 452.27 -1.17904 3.55034 0
M  V30 5005 H 453.603 -1.56992 4.66491 0
M  V30 5006 N 455.255 -1.55392 -0.262866 0
M  V30 5007 C 456.532 -1.67204 -1.01499 0
M  V30 5008 C 456.912 -0.545186 -2.03939 0
M  V30 5009 O 456.26 0.453467 -2.23955 0
M  V30 5010 C 456.47 -3.06847 -1.6627 0
M  V30 5011 C 457.818 -3.64928 -2.17054 0
M  V30 5012 O 458.842 -3.09545 -1.76239 0
M  V30 5013 O 457.701 -4.61984 -2.91947 0
M  V30 5014 H 454.795 -0.679467 -0.471438 0
M  V30 5015 H 457.341 -1.67729 -0.257918 0
M  V30 5016 H 456.113 -3.80309 -0.920915 0
M  V30 5017 H 455.736 -3.10266 -2.48638 0
M  V30 5018 N 456.733 0.527833 -1.48498 0
M  V30 5019 C 457.68 1.6322 -1.6318 0
M  V30 5020 C 458.65 1.59199 -0.473815 0
M  V30 5021 O 459.835 1.77591 -0.697563 0
M  V30 5022 C 456.975 3.01474 -1.67951 0
M  V30 5023 C 456.088 3.15713 -2.94871 0
M  V30 5024 C 455.223 4.44539 -2.90789 0
M  V30 5025 C 454.262 4.52315 -4.12404 0
M  V30 5026 N 453.399 5.72533 -4.06387 0
M  V30 5027 H 458.239 1.50011 -2.57489 0
M  V30 5028 H 455.776 0.730298 -1.27691 0
M  V30 5029 H 457.734 3.81572 -1.68698 0
M  V30 5030 H 456.364 3.1345 -0.771306 0
M  V30 5031 H 455.416 2.28854 -3.03859 0
M  V30 5032 H 456.728 3.1732 -3.8485 0
M  V30 5033 H 455.882 5.3293 -2.89949 0
M  V30 5034 H 454.621 4.45457 -1.98542 0
M  V30 5035 H 453.626 3.62331 -4.13517 0
M  V30 5036 H 454.851 4.53134 -5.05812 0
M  V30 5037 H 452.797 5.74344 -3.16962 0
M  V30 5038 H 452.714 5.75643 -4.90073 0
M  V30 5039 H 453.982 6.63204 -4.0961 0
M  V30 5040 N 458.211 1.37122 0.776871 0
M  V30 5041 C 459.488 1.22586 1.52421 0
M  V30 5042 C 459.868 -0.182726 2.10308 0
M  V30 5043 O 459.216 -1.18979 1.9508 0
M  V30 5044 C 459.426 2.31782 2.60918 0
M  V30 5045 C 460.774 2.69071 3.2846 0
M  V30 5046 O 461.798 2.3092 2.71209 0
M  V30 5047 O 460.657 3.3478 4.31954 0
M  V30 5048 H 457.751 0.478045 0.674835 0
M  V30 5049 H 460.297 1.48888 0.814275 0
M  V30 5050 H 459.069 3.26131 2.16227 0
M  V30 5051 H 458.692 2.06916 3.39517 0
M  V30 5052 N 459.689 -1.00246 1.21608 0
M  V30 5053 C 461.105 -1.26435 0.973975 0
M  V30 5054 C 461.305 -1.98642 -0.338143 0
M  V30 5055 O 460.361 -2.29026 -1.06317 0
M  V30 5056 C 461.674 -2.08551 2.16626 0
M  V30 5057 C 463.222 -2.21769 2.20879 0
M  V30 5058 C 463.697 -3.07267 3.39633 0
M  V30 5059 N 465.188 -3.14855 3.39736 0
M  V30 5060 C 465.923 -3.81274 4.28273 0
M  V30 5061 N 465.419 -4.497 5.27012 0
M  V30 5062 N 467.212 -3.7794 4.16074 0
M  V30 5063 H 459.363 -0.518089 2.05984 0
M  V30 5064 H 461.626 -0.291368 0.902113 0
M  V30 5065 H 461.332 -1.62847 3.11727 0
M  V30 5066 H 461.206 -3.09303 2.15897 0
M  V30 5067 H 463.593 -2.66691 1.26332 0
M  V30 5068 H 463.674 -1.20478 2.25652 0
M  V30 5069 H 463.318 -2.63047 4.34475 0
M  V30 5070 H 463.248 -4.08678 3.321 0
M  V30 5071 H 465.739 -2.66147 2.6828 0
M  V30 5072 H 466.052 -4.98092 5.90867 0
M  V30 5073 H 464.397 -4.48479 5.30935 0
M  V30 5074 H 467.588 -3.23638 3.38195 0
M  V30 5075 H 467.761 -4.29424 4.85282 0
M  V30 5076 N 461.167 -1.02423 -1.1978 0
M  V30 5077 C 462.114 -0.601023 -2.22837 0
M  V30 5078 C 463.084 0.382801 -1.61629 0
M  V30 5079 O 464.269 0.280514 -1.88727 0
M  V30 5080 C 461.409 0.0467755 -3.45068 0
M  V30 5081 C 460.522 -0.98253 -4.20678 0
M  V30 5082 C 459.657 -0.304982 -5.30324 0
M  V30 5083 C 458.696 -1.32052 -5.97686 0
M  V30 5084 N 457.833 -0.669105 -6.98904 0
M  V30 5085 H 462.673 -1.48444 -2.58396 0
M  V30 5086 H 460.21 -0.742936 -1.2696 0
M  V30 5087 H 462.168 0.439556 -4.14878 0
M  V30 5088 H 460.798 0.893796 -3.10179 0
M  V30 5089 H 459.85 -1.49341 -3.49859 0
M  V30 5090 H 461.162 -1.75455 -4.66923 0
M  V30 5091 H 460.316 0.142893 -6.06532 0
M  V30 5092 H 459.055 0.499283 -4.85138 0
M  V30 5093 H 458.06 -1.7787 -5.20233 0
M  V30 5094 H 459.285 -2.1262 -6.44957 0
M  V30 5095 H 457.231 0.115152 -6.55899 0
M  V30 5096 H 457.148 -1.37908 -7.43315 0
M  V30 5097 H 458.416 -0.245076 -7.79115 0
M  V30 5098 N 462.645 1.35699 -0.801477 0
M  V30 5099 C 463.893 1.9852 -0.37871 0
M  V30 5100 C 464.214 1.63907 1.05638 0
M  V30 5101 O 463.484 0.919013 1.73006 0
M  V30 5102 H 462.064 0.734322 -0.137042 0
M  V30 5103 H 464.726 1.65697 -1.02619 0
M  V30 5104 H 463.822 3.08382 -0.480284 0
M  V30 5105 N 464.123 0.554532 1.47522 0
M  V30 5106 C 465.056 -0.242442 2.26908 0
M  V30 5107 C 466.034 -0.922722 1.33883 0
M  V30 5108 O 467.218 -0.942244 1.63261 0
M  V30 5109 C 464.345 -1.34525 3.10839 0
M  V30 5110 C 463.391 -0.773805 4.19422 0
M  V30 5111 S 464.224 0.377525 5.34168 0
M  V30 5112 C 465.38 -0.727164 6.21662 0
M  V30 5113 H 465.613 0.431218 2.94156 0
M  V30 5114 H 463.146 0.3408 1.50592 0
M  V30 5115 H 465.104 -1.97683 3.59766 0
M  V30 5116 H 463.765 -1.99073 2.42958 0
M  V30 5117 H 462.958 -1.60187 4.77866 0
M  V30 5118 H 462.56 -0.218448 3.73361 0
M  V30 5119 H 464.852 -1.61992 6.57849 0
M  V30 5120 H 465.795 -0.180135 7.07871 0
M  V30 5121 H 466.203 -1.01863 5.55233 0
M  V30 5122 N 465.601 -1.54893 0.290851 0
M  V30 5123 C 466.531 -2.26103 -0.583084 0
M  V30 5124 C 467.512 -1.25684 -1.14619 0
M  V30 5125 O 468.697 -1.54436 -1.17741 0
M  V30 5126 C 465.827 -2.99409 -1.75987 0
M  V30 5127 C 464.781 -4.0689 -1.32758 0
M  V30 5128 C 464.107 -4.67856 -2.58872 0
M  V30 5129 C 465.407 -5.20215 -0.46624 0
M  V30 5130 H 467.101 -2.99398 0.0108214 0
M  V30 5131 H 464.647 -1.43998 0.00664468 0
M  V30 5132 H 466.6 -3.47943 -2.37727 0
M  V30 5133 H 465.324 -2.23675 -2.37985 0
M  V30 5134 H 463.983 -3.59191 -0.733299 0
M  V30 5135 H 463.631 -3.88772 -3.19163 0
M  V30 5136 H 463.331 -5.40438 -2.30653 0
M  V30 5137 H 464.855 -5.19147 -3.21433 0
M  V30 5138 H 466.269 -5.64704 -0.989047 0
M  V30 5139 H 464.666 -5.99455 -0.27826 0
M  V30 5140 H 465.736 -4.82198 0.511173 0
M  V30 5141 N 467.08 -0.0183926 -1.57589 0
M  V30 5142 C 468.012 0.995557 -2.06449 0
M  V30 5143 C 469.025 1.29556 -0.985849 0
M  V30 5144 O 470.214 1.2621 -1.26227 0
M  V30 5145 C 467.314 2.32572 -2.46502 0
M  V30 5146 C 466.487 2.21245 -3.77319 0
M  V30 5147 C 465.546 3.37104 -4.04039 0
M  V30 5148 O 464.572 3.14468 -4.74445 0
M  V30 5149 N 465.774 4.60553 -3.53372 0
M  V30 5150 H 468.539 0.578746 -2.94059 0
M  V30 5151 H 466.1 0.168603 -1.6102 0
M  V30 5152 H 468.092 3.08887 -2.61478 0
M  V30 5153 H 466.662 2.65931 -1.64315 0
M  V30 5154 H 465.882 1.29723 -3.72244 0
M  V30 5155 H 467.17 2.10868 -4.63047 0
M  V30 5156 H 466.568 4.81839 -2.96391 0
M  V30 5157 H 465.125 5.34072 -3.73644 0
M  V30 5158 N 468.558 1.5553 0.254621 0
M  V30 5159 C 469.488 1.9268 1.31897 0
M  V30 5160 C 470.469 0.790797 1.506 0
M  V30 5161 O 471.654 1.05045 1.63337 0
M  V30 5162 C 468.784 2.21477 2.67517 0
M  V30 5163 C 467.738 3.37256 2.63519 0
M  V30 5164 C 467.064 3.51576 4.02862 0
M  V30 5165 C 468.364 4.73157 2.21179 0
M  V30 5166 H 470.058 2.81832 1.01051 0
M  V30 5167 H 467.604 1.35599 0.484662 0
M  V30 5168 H 469.557 2.46055 3.42104 0
M  V30 5169 H 468.281 1.29144 2.99982 0
M  V30 5170 H 466.94 3.12675 1.9139 0
M  V30 5171 H 466.588 2.56676 4.32581 0
M  V30 5172 H 466.288 4.2943 4.01078 0
M  V30 5173 H 467.812 3.78467 4.79161 0
M  V30 5174 H 469.226 4.97158 2.85494 0
M  V30 5175 H 467.623 5.54058 2.30521 0
M  V30 5176 H 468.693 4.70739 1.16332 0
M  V30 5177 N 470.036 -0.519951 1.48776 0
M  V30 5178 C 470.983 -1.62352 1.64044 0
M  V30 5179 C 471.953 -1.58945 0.482251 0
M  V30 5180 O 473.138 -1.77219 0.706971 0
M  V30 5181 C 470.278 -3.00579 1.69547 0
M  V30 5182 C 469.391 -3.14145 2.96541 0
M  V30 5183 C 468.526 -4.42991 2.93142 0
M  V30 5184 C 467.565 -4.50122 4.14797 0
M  V30 5185 N 466.702 -5.7037 4.09418 0
M  V30 5186 H 471.542 -1.48643 2.58281 0
M  V30 5187 H 469.079 -0.723516 1.28077 0
M  V30 5188 H 471.037 -3.80671 1.70719 0
M  V30 5189 H 469.667 -3.13036 0.787918 0
M  V30 5190 H 468.719 -2.27239 3.05068 0
M  V30 5191 H 470.031 -3.15275 3.86527 0
M  V30 5192 H 469.185 -5.31385 2.92772 0
M  V30 5193 H 467.924 -4.44398 2.00902 0
M  V30 5194 H 466.929 -3.60133 4.15433 0
M  V30 5195 H 468.154 -4.50445 5.08208 0
M  V30 5196 H 466.1 -5.72655 3.20004 0
M  V30 5197 H 466.017 -5.73036 4.93119 0
M  V30 5198 H 467.285 -6.61023 4.13121 0
M  V30 5199 N 471.514 -1.37532 -0.769588 0
M  V30 5200 C 472.763 -1.32183 -1.5235 0
M  V30 5201 C 473.076 0.0906555 -1.9539 0
M  V30 5202 O 474.282 0.266628 -2.70188 0
M  V30 5203 C 472.738 -2.32029 -2.75119 0
M  V30 5204 C 472.346 -3.78816 -2.3917 0
M  V30 5205 C 474.09 -2.35694 -3.53056 0
M  V30 5206 C 471.997 -4.70388 -3.58453 0
M  V30 5207 H 470.927 -0.491275 -0.571984 0
M  V30 5208 H 473.578 -1.63004 -0.842739 0
M  V30 5209 H 471.96 -1.94229 -3.45096 0
M  V30 5210 H 473.134 -4.25466 -1.76962 0
M  V30 5211 H 471.449 -3.78117 -1.74402 0
M  V30 5212 H 474.046 -3.01312 -4.41718 0
M  V30 5213 H 474.389 -1.37117 -3.93071 0
M  V30 5214 H 474.922 -2.72212 -2.90078 0
M  V30 5215 H 471.661 -5.70102 -3.23518 0
M  V30 5216 H 471.181 -4.28442 -4.19758 0
M  V30 5217 H 472.86 -4.87628 -4.25239 0
M  V30 5218 N 472.992 0.995999 -1.22138 0
M  V30 5219 C 473.955 2.06711 -0.990109 0
M  V30 5220 C 474.955 1.60744 0.0422978 0
M  V30 5221 O 476.145 1.73095 -0.195895 0
M  V30 5222 C 473.277 3.37288 -0.49491 0
M  V30 5223 H 474.47 2.28661 -1.94047 0
M  V30 5224 H 472.023 1.16711 -1.03963 0
M  V30 5225 H 472.758 3.21022 0.459948 0
M  V30 5226 H 472.543 3.71986 -1.23971 0
M  V30 5227 H 474.033 4.16103 -0.353253 0
M  V30 5228 N 474.47 1.03057 1.19235 0
M  V30 5229 C 475.718 0.726581 1.88587 0
M  V30 5230 C 476.039 -0.747227 1.80115 0
M  V30 5231 O 475.309 -1.53849 1.21274 0
M  V30 5232 H 473.889 0.265768 0.698124 0
M  V30 5233 H 476.551 1.30516 1.44746 0
M  V30 5234 H 475.647 1.0224 2.94879 0
M  V30 5235 N 475.948 -1.35272 0.808662 0
M  V30 5236 C 476.911 -2.28082 0.226093 0
M  V30 5237 C 477.911 -1.49673 -0.587762 0
M  V30 5238 O 479.101 -1.69404 -0.405943 0
M  V30 5239 C 476.233 -3.33955 -0.684596 0
M  V30 5240 H 477.426 -2.81116 1.04469 0
M  V30 5241 H 474.979 -1.45162 0.579466 0
M  V30 5242 H 475.714 -2.86111 -1.5268 0
M  V30 5243 H 475.499 -3.91965 -0.102699 0
M  V30 5244 H 476.989 -4.03219 -1.08646 0
M  V30 5245 N 477.426 -0.562348 -1.47226 0
M  V30 5246 C 478.837 -0.130325 -1.86245 0
M  V30 5247 C 479.188 1.30128 -1.46838 0
M  V30 5248 O 478.313 1.97974 -0.873805 0
M  V30 5249 C 478.908 -0.229738 -3.3802 0
M  V30 5250 C 477.467 0.14728 -3.76112 0
M  V30 5251 C 476.614 -0.574971 -2.71274 0
M  V30 5252 H 479.565 -0.771773 -1.3867 0
M  V30 5253 H 479.586 0.550316 -3.76499 0
M  V30 5254 H 479.098 -1.27178 -3.66671 0
M  V30 5255 H 477.199 1.19023 -3.53078 0
M  V30 5256 H 477.312 -0.214858 -4.78618 0
M  V30 5257 H 475.676 -0.0174756 -2.54694 0
M  V30 5258 H 476.459 -1.61827 -3.02766 0
M  V30 5259 N 478.904 1.54736 -0.299062 0
M  V30 5260 C 479.814 2.27127 0.587413 0
M  V30 5261 C 480.83 1.30575 1.15005 0
M  V30 5262 O 482.006 1.63554 1.17525 0
M  V30 5263 C 479.071 2.99645 1.74395 0
M  V30 5264 C 478.132 4.11731 1.21559 0
M  V30 5265 C 477.365 4.80781 2.317 0
M  V30 5266 O 477.588 4.4918 3.51558 0
M  V30 5267 O 476.522 5.68226 1.98501 0
M  V30 5268 H 480.348 3.037 0.000250109 0
M  V30 5269 H 477.933 1.49256 -0.0655919 0
M  V30 5270 H 479.815 3.45138 2.4178 0
M  V30 5271 H 478.49 2.25969 2.31775 0
M  V30 5272 H 477.397 3.70641 0.507514 0
M  V30 5273 H 478.73 4.87379 0.687233 0
M  V30 5274 N 480.382 0.0267497 1.57577 0
M  V30 5275 C 481.793 -0.512413 1.79531 0
M  V30 5276 C 482.144 -1.72391 0.936791 0
M  V30 5277 O 481.269 -2.15903 0.146543 0
M  V30 5278 C 481.864 -0.936378 3.25603 0
M  V30 5279 C 480.423 -1.42067 3.4856 0
M  V30 5280 C 479.57 -0.384278 2.74624 0
M  V30 5281 H 482.521 0.252797 1.56674 0
M  V30 5282 H 482.542 -1.80088 3.35184 0
M  V30 5283 H 482.054 -0.0544332 3.88062 0
M  V30 5284 H 480.155 -2.32262 2.9135 0
M  V30 5285 H 480.268 -1.42968 4.57271 0
M  V30 5286 H 478.632 -0.851855 2.40032 0
M  V30 5287 H 479.415 0.489159 3.39797 0
M  V30 5288 N 481.861 -1.55662 -0.24637 0
M  V30 5289 C 482.791 -1.93377 -1.30873 0
M  V30 5290 C 483.772 -0.798773 -1.50179 0
M  V30 5291 O 484.957 -1.0591 -1.62778 0
M  V30 5292 C 482.087 -2.22893 -2.66338 0
M  V30 5293 C 481.041 -3.38649 -2.61727 0
M  V30 5294 C 480.367 -3.53708 -4.00992 0
M  V30 5295 C 481.667 -4.74323 -2.18666 0
M  V30 5296 H 483.361 -2.82363 -0.995552 0
M  V30 5297 H 480.907 -1.35854 -0.477464 0
M  V30 5298 H 482.86 -2.47866 -3.40794 0
M  V30 5299 H 481.584 -1.30733 -2.99293 0
M  V30 5300 H 480.243 -3.13685 -1.89729 0
M  V30 5301 H 479.891 -2.58967 -4.31214 0
M  V30 5302 H 479.591 -4.31551 -3.98795 0
M  V30 5303 H 481.115 -3.81003 -4.77147 0
M  V30 5304 H 482.529 -4.98665 -2.82854 0
M  V30 5305 H 480.926 -5.55273 -2.27579 0
M  V30 5306 H 481.996 -4.71349 -1.13834 0
M  V30 5307 N 483.339 0.512053 -1.4905 0
M  V30 5308 C 484.567 1.29116 -1.61669 0
M  V30 5309 C 484.982 1.86655 -0.283787 0
M  V30 5310 O 484.339 1.67293 0.729331 0
M  V30 5311 C 484.39 2.4293 -2.67707 0
M  V30 5312 O 484.111 1.87758 -3.95826 0
M  V30 5313 C 485.612 3.34476 -2.90931 0
M  V30 5314 H 482.832 0.392009 -0.544583 0
M  V30 5315 H 485.376 0.615881 -1.95006 0
M  V30 5316 H 483.531 3.06308 -2.37179 0
M  V30 5317 H 483.945 2.62393 -4.54148 0
M  V30 5318 H 485.419 4.10642 -3.68886 0
M  V30 5319 H 485.896 3.90801 -2.00427 0
M  V30 5320 H 486.502 2.76874 -3.22832 0
M  V30 5321 N 484.817 1.37938 0.762283 0
M  V30 5322 C 486.063 1.33866 1.52341 0
M  V30 5323 C 486.396 -0.0738961 1.94059 0
M  V30 5324 O 485.671 -1.03326 1.64785 0
M  V30 5325 C 485.954 2.28644 2.78197 0
M  V30 5326 C 485.807 3.78722 2.42672 0
M  V30 5327 C 487.126 2.21702 3.80179 0
M  V30 5328 H 484.245 0.487593 0.55265 0
M  V30 5329 H 486.887 1.68717 0.873767 0
M  V30 5330 H 485.037 1.99055 3.33631 0
M  V30 5331 H 486.709 4.18948 1.93081 0
M  V30 5332 H 484.952 3.96827 1.75244 0
M  V30 5333 H 485.623 4.40486 3.3268 0
M  V30 5334 H 488.099 2.47805 3.34263 0
M  V30 5335 H 486.975 2.90143 4.65949 0
M  V30 5336 H 487.236 1.21301 4.25133 0
M  V30 5337 N 486.295 -0.989507 1.22664 0
M  V30 5338 C 487.523 -1.76496 1.07967 0
M  V30 5339 C 487.938 -1.85148 -0.369543 0
M  V30 5340 O 487.295 -1.32408 -1.25596 0
M  V30 5341 C 487.346 -3.19642 1.68853 0
M  V30 5342 O 487.067 -3.11453 3.08105 0
M  V30 5343 C 488.568 -4.13621 1.59475 0
M  V30 5344 H 485.788 -0.55418 0.378319 0
M  V30 5345 H 488.332 -1.24378 1.62328 0
M  V30 5346 H 486.487 -3.68816 1.18547 0
M  V30 5347 H 486.901 -4.01499 3.37489 0
M  V30 5348 H 488.375 -5.11801 2.06795 0
M  V30 5349 H 488.852 -4.35718 0.55191 0
M  V30 5350 H 489.458 -3.70346 2.09103 0
M  V30 5351 N 487.773 -1.03688 -1.18687 0
M  V30 5352 C 488.736 -0.629115 -2.20397 0
M  V30 5353 C 489.736 0.311495 -1.57754 0
M  V30 5354 O 490.926 0.0974107 -1.73927 0
M  V30 5355 C 488.058 0.0782231 -3.4081 0
M  V30 5356 H 489.251 -1.52915 -2.57987 0
M  V30 5357 H 486.804 -0.828988 -1.32505 0
M  V30 5358 H 487.539 0.992233 -3.08748 0
M  V30 5359 H 487.324 -0.597776 -3.87517 0
M  V30 5360 H 488.814 0.350156 -4.16129 0
M  V30 5361 N 489.251 1.34841 -0.815825 0
M  V30 5362 C 490.662 1.80937 -0.46029 0
M  V30 5363 C 491.013 1.67685 1.01863 0
M  V30 5364 O 490.138 1.21277 1.79223 0
M  V30 5365 C 490.733 3.28509 -0.828708 0
M  V30 5366 C 489.292 3.72712 -0.525644 0
M  V30 5367 C 488.439 2.56676 -1.04941 0
M  V30 5368 H 491.39 1.22688 -1.00664 0
M  V30 5369 H 491.411 3.80279 -0.129757 0
M  V30 5370 H 490.923 3.38122 -1.90513 0
M  V30 5371 H 489.024 3.68642 0.541666 0
M  V30 5372 H 489.137 4.67119 -1.06474 0
M  V30 5373 H 487.501 2.50302 -0.471286 0
M  V30 5374 H 488.284 2.69063 -2.13214 0
M  V30 5375 N 490.729 0.570148 1.46925 0
M  V30 5376 C 491.954 0.0542592 2.07329 0
M  V30 5377 C 492.379 -1.23582 1.41806 0
M  V30 5378 O 491.737 -1.74341 0.497479 0
M  V30 5379 C 491.785 -0.111175 3.60429 0
M  V30 5380 O 490.889 -1.17071 3.95434 0
M  V30 5381 H 490.23 0.0571425 0.661537 0
M  V30 5382 H 492.76 0.789516 1.88753 0
M  V30 5383 H 492.77 -0.321315 4.06733 0
M  V30 5384 H 491.445 0.831012 4.07513 0
M  V30 5385 H 490.022 -0.940029 3.60857 0
M  V30 5386 N 492.207 -1.54576 0.307264 0
M  V30 5387 C 493.137 -2.26708 -0.55907 0
M  V30 5388 C 494.118 -1.26893 -1.1328 0
M  V30 5389 O 495.303 -1.55677 -1.16097 0
M  V30 5390 C 492.433 -3.01259 -1.72801 0
M  V30 5391 C 491.387 -4.08275 -1.28435 0
M  V30 5392 C 490.713 -4.70575 -2.53895 0
M  V30 5393 C 492.013 -5.2068 -0.411038 0
M  V30 5394 H 493.707 -2.9937 0.042576 0
M  V30 5395 H 491.253 -1.43983 0.0219173 0
M  V30 5396 H 493.206 -3.50444 -2.34023 0
M  V30 5397 H 491.93 -2.26187 -2.356 0
M  V30 5398 H 490.589 -3.59949 -0.695161 0
M  V30 5399 H 490.237 -3.92136 -3.15021 0
M  V30 5400 H 489.937 -5.42854 -2.24908 0
M  V30 5401 H 491.461 -5.22527 -3.15908 0
M  V30 5402 H 492.875 -5.65721 -0.929097 0
M  V30 5403 H 491.272 -5.99716 -0.214664 0
M  V30 5404 H 492.342 -4.81629 0.562287 0
M  V30 5405 N 493.685 -0.035106 -1.57561 0
M  V30 5406 C 494.913 0.652258 -1.9635 0
M  V30 5407 C 495.328 1.65317 -0.911897 0
M  V30 5408 O 494.685 1.82194 0.105657 0
M  V30 5409 C 494.736 1.35337 -3.35211 0
M  V30 5410 O 494.457 0.392548 -4.36338 0
M  V30 5411 C 495.958 2.13199 -3.88666 0
M  V30 5412 H 493.178 0.179444 -0.646561 0
M  V30 5413 H 495.722 -0.0966459 -2.04271 0
M  V30 5414 H 493.877 2.05362 -3.28489 0
M  V30 5415 H 494.291 0.891097 -5.16875 0
M  V30 5416 H 495.765 2.577 -4.88154 0
M  V30 5417 H 496.242 2.97353 -3.23231 0
M  V30 5418 H 496.848 1.48118 -3.98674 0
M  V30 5419 N 495.163 1.55791 0.238111 0
M  V30 5420 C 496.412 1.77234 0.962868 0
M  V30 5421 C 496.725 0.600661 1.86149 0
M  V30 5422 O 497.931 0.698315 2.62366 0
M  V30 5423 C 496.387 3.13808 1.76218 0
M  V30 5424 C 495.995 4.3865 0.910518 0
M  V30 5425 C 497.739 3.44585 2.47914 0
M  V30 5426 C 495.646 5.66252 1.70623 0
M  V30 5427 H 494.576 0.660731 0.36325 0
M  V30 5428 H 497.227 1.8221 0.217242 0
M  V30 5429 H 495.609 3.02963 2.55009 0
M  V30 5430 H 496.783 4.60507 0.164316 0
M  V30 5431 H 495.098 4.15271 0.30647 0
M  V30 5432 H 497.695 4.3714 3.07917 0
M  V30 5433 H 498.038 2.66314 3.19973 0
M  V30 5434 H 498.571 3.56685 1.76127 0
M  V30 5435 H 495.31 6.47369 1.02923 0
M  V30 5436 H 494.83 5.48483 2.42748 0
M  V30 5437 H 496.509 6.05829 2.27114 0
M  V30 5438 N 496.642 -0.504142 1.49319 0
M  V30 5439 C 497.605 -1.5883 1.65244 0
M  V30 5440 C 498.605 -1.52009 0.524386 0
M  V30 5441 O 499.795 -1.55218 0.79077 0
M  V30 5442 C 496.927 -2.98481 1.64687 0
M  V30 5443 H 498.12 -1.4604 2.61939 0
M  V30 5444 H 495.673 -0.728144 1.38303 0
M  V30 5445 H 496.408 -3.16751 0.695644 0
M  V30 5446 H 496.193 -3.0484 2.46607 0
M  V30 5447 H 497.683 -3.77256 1.79075 0
M  V30 5448 N 498.12 -1.38341 -0.754957 0
M  V30 5449 C 499.03 -1.3769 -1.89944 0
M  V30 5450 C 500.046 -0.274194 -1.71826 0
M  V30 5451 O 501.222 -0.512391 -1.94773 0
M  V30 5452 C 498.287 -1.19938 -3.25293 0
M  V30 5453 C 497.348 -2.40001 -3.55946 0
M  V30 5454 C 496.581 -2.23087 -4.84838 0
M  V30 5455 O 496.804 -1.22386 -5.57116 0
M  V30 5456 O 495.738 -3.11646 -5.14937 0
M  V30 5457 H 499.564 -2.3412 -1.93446 0
M  V30 5458 H 497.149 -1.19246 -0.900044 0
M  V30 5459 H 499.031 -1.12093 -4.06218 0
M  V30 5460 H 497.706 -0.265919 -3.22606 0
M  V30 5461 H 496.613 -2.53421 -2.75188 0
M  V30 5462 H 497.946 -3.31973 -3.63394 0
M  V30 5463 N 499.598 0.982988 -1.23187 0
M  V30 5464 C 500.546 2.09616 -1.00817 0
M  V30 5465 C 501.54 1.6932 0.0519995 0
M  V30 5466 O 502.746 1.79715 -0.101284 0
M  V30 5467 H 499.121 0.685628 -0.308899 0
M  V30 5468 H 501.092 2.25652 -1.95253 0
M  V30 5469 C 499.841 3.42249 -0.613243 0
M  V30 5470 H 499.164 3.73705 -1.42073 0
M  V30 5471 H 500.604 4.21086 -0.496208 0
M  V30 5472 C 499.063 3.30002 0.678233 0
M  V30 5473 O 499.593 3.6263 1.72807 0
M  V30 5474 N 497.799 2.83164 0.653165 0
M  V30 5475 H 497.346 2.56811 -0.201492 0
M  V30 5476 H 497.304 2.75352 1.51752 0
M  V30 5477 N 501.076 1.04316 1.18135 0
M  V30 5478 C 502.009 0.580823 2.20685 0
M  V30 5479 C 502.987 -0.385943 1.57953 0
M  V30 5480 O 504.171 -0.299654 1.86103 0
M  V30 5481 C 501.298 -0.151162 3.38363 0
M  V30 5482 C 500.344 0.769247 4.19505 0
M  V30 5483 S 501.177 2.25352 4.85774 0
M  V30 5484 C 502.333 1.53246 6.0685 0
M  V30 5485 H 502.566 1.44968 2.5956 0
M  V30 5486 H 500.099 0.85434 1.28609 0
M  V30 5487 H 502.057 -0.567315 4.06561 0
M  V30 5488 H 500.718 -0.995936 2.97892 0
M  V30 5489 H 499.911 0.203335 5.0359 0
M  V30 5490 H 499.513 1.12436 3.56699 0
M  V30 5491 H 501.805 0.82689 6.72435 0
M  V30 5492 H 502.748 2.35044 6.67952 0
M  V30 5493 H 503.156 1.0237 5.5514 0
M  V30 5494 N 502.554 -1.34406 0.822964 0
M  V30 5495 C 503.517 -2.2783 0.250271 0
M  V30 5496 C 504.517 -1.50288 -0.571854 0
M  V30 5497 O 505.707 -1.69825 -0.387952 0
M  V30 5498 C 502.839 -3.34663 -0.649137 0
M  V30 5499 H 504.032 -2.79992 1.07444 0
M  V30 5500 H 501.585 -1.44539 0.594829 0
M  V30 5501 H 502.32 -2.87714 -1.49637 0
M  V30 5502 H 502.105 -3.92052 -0.0611199 0
M  V30 5503 H 503.595 -4.04349 -1.04363 0
M  V30 5504 N 504.032 -0.577932 -1.46621 0
M  V30 5505 C 505.309 0.00495287 -1.95599 0
M  V30 5506 C 505.689 1.46428 -1.5206 0
M  V30 5507 O 505.037 2.1517 -0.769046 0
M  V30 5508 C 505.247 -0.162114 -3.48623 0
M  V30 5509 C 506.595 -0.0274623 -4.24591 0
M  V30 5510 O 507.619 -0.0907067 -3.56084 0
M  V30 5511 O 506.478 0.1122 -5.46385 0
M  V30 5512 H 503.572 0.0525057 -0.825332 0
M  V30 5513 H 506.118 -0.645914 -1.56927 0
M  V30 5514 H 504.89 -1.17679 -3.73185 0
M  V30 5515 H 504.513 0.525407 -3.94113 0
M  V30 5516 N 505.51 1.54411 -0.315457 0
M  V30 5517 C 506.44 2.27002 0.547039 0
M  V30 5518 C 507.421 1.27492 1.12605 0
M  V30 5519 O 508.606 1.5629 1.15269 0
M  V30 5520 C 505.736 3.02171 1.71201 0
M  V30 5521 C 504.69 4.0895 1.26268 0
M  V30 5522 C 504.016 4.71915 2.51396 0
M  V30 5523 C 505.316 5.20891 0.383419 0
M  V30 5524 H 507.01 2.99343 -0.0584517 0
M  V30 5525 H 504.556 1.4397 -0.0295527 0
M  V30 5526 H 506.509 3.51681 2.32161 0
M  V30 5527 H 505.233 2.27433 2.34397 0
M  V30 5528 H 503.892 3.60312 0.676062 0
M  V30 5529 H 503.54 3.93801 3.12937 0
M  V30 5530 H 503.24 5.44039 2.22026 0
M  V30 5531 H 504.764 5.24195 3.13133 0
M  V30 5532 H 506.178 5.66206 0.899082 0
M  V30 5533 H 504.575 5.99821 0.182857 0
M  V30 5534 H 505.645 4.81324 -0.587821 0
M  V30 5535 N 506.988 0.0434614 1.5754 0
M  V30 5536 C 508.237 -0.631454 1.91561 0
M  V30 5537 C 508.55 -1.72457 0.92292 0
M  V30 5538 O 509.756 -2.45712 1.15489 0
M  V30 5539 C 508.212 -1.17447 3.40197 0
M  V30 5540 C 507.82 -0.113867 4.47855 0
M  V30 5541 C 509.564 -1.82507 3.83264 0
M  V30 5542 C 507.471 -0.669326 5.876 0
M  V30 5543 H 506.401 -0.239629 0.714908 0
M  V30 5544 H 509.052 0.111097 1.83163 0
M  V30 5545 H 507.434 -1.96909 3.43574 0
M  V30 5546 H 508.608 0.659348 4.56058 0
M  V30 5547 H 506.923 0.438821 4.14081 0
M  V30 5548 H 509.52 -2.25047 4.85034 0
M  V30 5549 H 509.863 -2.67365 3.19095 0
M  V30 5550 H 510.396 -1.09712 3.82372 0
M  V30 5551 H 507.135 0.141449 6.55347 0
M  V30 5552 H 506.655 -1.4107 5.82974 0
M  V30 5553 H 508.334 -1.15463 6.36614 0
M  V30 5554 N 508.466 -1.55915 -0.229846 0
M  V30 5555 C 509.743 -1.6932 -0.979295 0
M  V30 5556 C 510.123 -0.588321 -2.02736 0
M  V30 5557 O 509.471 0.40586 -2.24867 0
M  V30 5558 C 509.681 -3.10305 -1.59724 0
M  V30 5559 C 511.029 -3.6945 -2.09264 0
M  V30 5560 O 512.053 -3.13214 -1.69633 0
M  V30 5561 O 510.912 -4.68072 -2.82082 0
M  V30 5562 H 508.006 -0.689314 -0.456919 0
M  V30 5563 H 510.552 -1.68238 -0.222283 0
M  V30 5564 H 509.324 -3.82177 -0.840039 0
M  V30 5565 H 508.947 -3.1547 -2.42001 0
M  V30 5566 N 509.944 0.496216 -1.49584 0
M  V30 5567 C 511.192 1.24756 -1.58998 0
M  V30 5568 C 511.513 1.92968 -0.280775 0
M  V30 5569 O 510.783 1.82959 0.700198 0
M  V30 5570 H 509.363 0.463471 -0.585836 0
M  V30 5571 H 512.025 0.574678 -1.86235 0
M  V30 5572 H 511.121 2.00895 -2.38847 0
M  V30 5573 N 511.423 1.38739 0.74761 0
M  V30 5574 C 512.653 1.3832 1.53464 0
M  V30 5575 C 513.061 -0.0273464 1.8918 0
M  V30 5576 O 512.404 -1.00588 1.53713 0
M  V30 5577 C 512.466 2.18007 2.85855 0
M  V30 5578 C 512.13 3.66762 2.72644 0
M  V30 5579 C 513.127 4.60124 2.42037 0
M  V30 5580 C 510.812 4.10193 2.89909 0
M  V30 5581 C 512.806 5.94897 2.28859 0
M  V30 5582 C 510.493 5.45045 2.7635 0
M  V30 5583 C 511.491 6.37211 2.45869 0
M  V30 5584 O 511.179 7.69581 2.3238 0
M  V30 5585 H 510.911 0.474718 0.481268 0
M  V30 5586 H 513.465 1.83012 0.932518 0
M  V30 5587 H 511.695 1.68043 3.48279 0
M  V30 5588 H 513.384 2.09921 3.47402 0
M  V30 5589 H 514.15 4.27874 2.28361 0
M  V30 5590 H 510.029 3.38797 3.1263 0
M  V30 5591 H 513.573 6.66802 2.04989 0
M  V30 5592 H 509.47 5.76889 2.89601 0
M  V30 5593 H 510.238 7.80169 2.47546 0
M  V30 5594 N 512.901 -0.976442 1.23707 0
M  V30 5595 C 514.141 -1.73331 1.08332 0
M  V30 5596 C 514.505 -1.88346 -0.372781 0
M  V30 5597 O 515.706 -2.60877 -0.647813 0
M  V30 5598 C 513.977 -3.09159 1.7932 0
M  V30 5599 S 515.536 -4.00376 1.79567 0
M  V30 5600 H 512.354 -0.596045 0.387622 0
M  V30 5601 H 514.956 -1.16625 1.56904 0
M  V30 5602 H 513.66 -2.95884 2.84395 0
M  V30 5603 H 513.191 -3.70932 1.31046 0
M  V30 5604 H 515.206 -4.88742 0.857094 0
M  V30 5605 N 514.379 -1.04941 -1.1758 0
M  V30 5606 C 515.795 -0.770282 -1.39781 0
M  V30 5607 C 515.995 0.636417 -1.91186 0
M  V30 5608 O 515.051 1.39923 -2.10185 0
M  V30 5609 C 516.364 -1.82376 -2.3908 0
M  V30 5610 C 517.912 -1.84569 -2.52791 0
M  V30 5611 C 518.387 -2.88933 -3.55361 0
M  V30 5612 N 519.878 -2.8788 -3.62877 0
M  V30 5613 C 520.613 -3.65282 -4.41992 0
M  V30 5614 N 520.109 -4.52461 -5.24643 0
M  V30 5615 N 521.902 -3.53732 -4.36841 0
M  V30 5616 H 514.053 -1.95705 -0.825438 0
M  V30 5617 H 516.316 -0.847284 -0.425222 0
M  V30 5618 H 516.022 -2.83323 -2.08376 0
M  V30 5619 H 515.896 -1.66327 -3.38549 0
M  V30 5620 H 518.283 -0.842879 -2.82807 0
M  V30 5621 H 518.364 -2.04696 -1.53406 0
M  V30 5622 H 518.008 -3.89398 -3.26085 0
M  V30 5623 H 517.938 -2.66059 -4.54445 0
M  V30 5624 H 520.429 -2.24666 -3.03864 0
M  V30 5625 H 520.742 -5.08211 -5.82187 0
M  V30 5626 H 519.087 -4.56524 -5.24033 0
M  V30 5627 H 522.278 -2.85021 -3.71323 0
M  V30 5628 H 522.451 -4.14302 -4.98255 0
M  V30 5629 N 515.857 1.33968 -0.830081 0
M  V30 5630 C 516.787 2.31911 -0.271911 0
M  V30 5631 C 517.768 1.58571 0.61556 0
M  V30 5632 O 518.953 1.86514 0.540946 0
M  V30 5633 C 516.083 3.42737 0.561146 0
M  V30 5634 C 515.037 4.27383 -0.229789 0
M  V30 5635 C 514.363 5.29742 0.726463 0
M  V30 5636 C 515.663 5.02 -1.44197 0
M  V30 5637 H 517.357 2.78844 -1.09025 0
M  V30 5638 H 514.903 1.34061 -0.52571 0
M  V30 5639 H 516.856 4.10276 0.961867 0
M  V30 5640 H 515.58 2.94471 1.41261 0
M  V30 5641 H 514.239 3.61456 -0.611964 0
M  V30 5642 H 513.887 4.77736 1.57408 0
M  V30 5643 H 513.587 5.87255 0.20142 0
M  V30 5644 H 515.111 6.00149 1.12489 0
M  V30 5645 H 516.525 5.62355 -1.11488 0
M  V30 5646 H 514.922 5.69122 -1.90317 0
M  V30 5647 H 515.992 4.31281 -2.2164 0
M  V30 5648 N 517.335 0.585699 1.46312 0
M  V30 5649 C 518.581 0.0725284 2.0267 0
M  V30 5650 C 518.914 -1.28523 1.45586 0
M  V30 5651 O 518.189 -1.84283 0.622101 0
M  V30 5652 C 518.472 0.0099788 3.60099 0
M  V30 5653 C 518.325 1.39685 4.27561 0
M  V30 5654 C 519.644 -0.689117 4.34671 0
M  V30 5655 H 516.763 0.0278307 0.736474 0
M  V30 5656 H 519.405 0.753472 1.74421 0
M  V30 5657 H 517.555 -0.56992 3.84297 0
M  V30 5658 H 519.227 2.02215 4.14617 0
M  V30 5659 H 517.47 1.96374 3.86807 0
M  V30 5660 H 518.141 1.30553 5.36339 0
M  V30 5661 H 520.617 -0.196446 4.15636 0
M  V30 5662 H 519.493 -0.701921 5.44393 0
M  V30 5663 H 519.754 -1.75101 4.05946 0
M  V30 5664 N 518.813 -1.54241 0.323641 0
M  V30 5665 C 519.761 -2.25813 -0.557804 0
M  V30 5666 C 520.755 -1.27225 -1.11849 0
M  V30 5667 O 521.961 -1.45001 -1.06652 0
M  V30 5668 H 518.336 -0.72532 -0.198532 0
M  V30 5669 H 520.307 -2.98322 0.0681112 0
M  V30 5670 C 519.056 -3.02913 -1.70701 0
M  V30 5671 H 518.379 -3.78593 -1.28482 0
M  V30 5672 H 519.819 -3.56238 -2.29935 0
M  V30 5673 C 518.278 -2.11217 -2.62467 0
M  V30 5674 O 518.808 -1.69508 -3.64184 0
M  V30 5675 N 517.014 -1.76704 -2.30703 0
M  V30 5676 H 516.561 -2.1082 -1.48029 0
M  V30 5677 H 516.519 -1.15631 -2.92364 0
M  V30 5678 N 520.291 -0.0518155 -1.57515 0
M  V30 5679 C 521.539 0.620595 -1.92336 0
M  V30 5680 C 521.86 1.71345 -0.930907 0
M  V30 5681 O 521.13 1.95885 0.0241341 0
M  V30 5682 H 519.71 0.232226 -0.709986 0
M  V30 5683 H 522.372 -0.104969 -1.94617 0
M  V30 5684 H 521.468 1.05879 -2.93592 0
M  V30 5685 N 521.769 1.56035 0.221574 0
M  V30 5686 C 522.997 1.8313 0.962864 0
M  V30 5687 C 523.412 0.630934 1.77946 0
M  V30 5688 O 522.769 -0.400519 1.78051 0
M  V30 5689 C 522.82 3.08742 1.88045 0
M  V30 5690 O 522.541 4.24147 1.09686 0
M  V30 5691 C 524.042 3.48824 2.73563 0
M  V30 5692 H 521.262 0.608775 0.282194 0
M  V30 5693 H 523.806 2.03124 0.23681 0
M  V30 5694 H 521.961 2.90723 2.56045 0
M  V30 5695 H 522.375 4.95505 1.71974 0
M  V30 5696 H 523.849 4.39752 3.3365 0
M  V30 5697 H 524.326 2.70575 3.45956 0
M  V30 5698 H 524.932 3.69282 2.10976 0
M  V30 5699 N 523.247 -0.488276 1.49845 0
M  V30 5700 C 524.472 -1.26997 1.63971 0
M  V30 5701 C 524.897 -1.85427 0.315994 0
M  V30 5702 O 524.255 -1.66475 -0.718032 0
M  V30 5703 C 524.303 -2.36689 2.72049 0
M  V30 5704 O 523.407 -3.40882 2.32107 0
M  V30 5705 H 522.748 -0.374376 0.548396 0
M  V30 5706 H 525.278 -0.583104 1.96115 0
M  V30 5707 H 525.288 -2.82262 2.94605 0
M  V30 5708 H 523.963 -1.93529 3.68129 0
M  V30 5709 H 522.54 -3.01139 2.19931 0
M  V30 5710 N 524.725 -1.39134 -0.740242 0
M  V30 5711 C 525.657 -1.33332 -1.86428 0
M  V30 5712 C 526.67 -0.243042 -1.60976 0
M  V30 5713 O 527.859 -0.501608 -1.71307 0
M  V30 5714 C 524.959 -1.04626 -3.22346 0
M  V30 5715 C 524.132 -2.24826 -3.75196 0
M  V30 5716 C 523.191 -1.92659 -4.89662 0
M  V30 5717 O 522.217 -2.6529 -5.03597 0
M  V30 5718 N 523.419 -0.889575 -5.73643 0
M  V30 5719 H 526.184 -2.30196 -1.91911 0
M  V30 5720 H 523.745 -1.33168 -0.920756 0
M  V30 5721 H 525.737 -0.811347 -3.96484 0
M  V30 5722 H 524.307 -0.165129 -3.12164 0
M  V30 5723 H 523.527 -2.64301 -2.9247 0
M  V30 5724 H 524.815 -3.05015 -4.07239 0
M  V30 5725 H 524.213 -0.287529 -5.64969 0
M  V30 5726 H 522.77 -0.714557 -6.47871 0
M  V30 5727 N 526.204 0.969867 -1.24223 0
M  V30 5728 C 527.429 1.75289 -1.10853 0
M  V30 5729 C 527.854 1.85091 0.335079 0
M  V30 5730 O 527.212 1.32024 1.24255 0
M  V30 5731 C 527.26 3.15255 -1.75062 0
M  V30 5732 O 526.364 3.99589 -1.01992 0
M  V30 5733 H 525.705 0.538904 -0.387915 0
M  V30 5734 H 528.235 1.21675 -1.64488 0
M  V30 5735 H 528.245 3.65787 -1.80731 0
M  V30 5736 H 526.92 3.07436 -2.801 0
M  V30 5737 H 525.497 3.58077 -1.04094 0
M  V30 5738 N 527.682 1.05563 1.17022 0
M  V30 5739 C 528.929 0.767937 1.87374 0
M  V30 5740 C 529.257 -0.705224 1.81265 0
M  V30 5741 O 528.512 -1.5318 1.21796 0
M  V30 5742 C 528.811 1.19849 3.36706 0
M  V30 5743 C 528.477 2.6745 3.63017 0
M  V30 5744 C 527.139 3.0777 3.69907 0
M  V30 5745 C 529.491 3.62811 3.74189 0
M  V30 5746 C 526.819 4.42307 3.85463 0
M  V30 5747 C 529.171 4.97087 3.91264 0
M  V30 5748 C 527.835 5.37055 3.96394 0
M  V30 5749 H 527.105 0.281008 0.68565 0
M  V30 5750 H 529.752 1.32339 1.38415 0
M  V30 5751 H 528.057 0.562096 3.87747 0
M  V30 5752 H 529.754 0.953038 3.8951 0
M  V30 5753 H 526.344 2.35228 3.58282 0
M  V30 5754 H 530.528 3.32798 3.68183 0
M  V30 5755 H 525.784 4.72769 3.87684 0
M  V30 5756 H 529.958 5.70869 3.9885 0
M  V30 5757 H 527.585 6.41308 4.082 0
M  V30 5758 N 529.16 -1.33526 0.837174 0
M  V30 5759 C 530.409 -1.97098 0.428387 0
M  V30 5760 C 530.722 -1.67062 -1.01734 0
M  V30 5761 O 531.928 -2.24235 -1.53072 0
M  V30 5762 C 530.384 -3.52725 0.715075 0
M  V30 5763 C 529.992 -3.9164 2.17537 0
M  V30 5764 C 531.736 -4.22857 0.373154 0
M  V30 5765 C 529.643 -5.40237 2.40619 0
M  V30 5766 H 528.573 -0.737589 0.156455 0
M  V30 5767 H 531.224 -1.52169 1.02552 0
M  V30 5768 H 529.606 -3.95971 0.0475904 0
M  V30 5769 H 530.78 -3.59456 2.88319 0
M  V30 5770 H 529.095 -3.34485 2.4801 0
M  V30 5771 H 531.692 -5.32133 0.523264 0
M  V30 5772 H 532.035 -4.10647 -0.683708 0
M  V30 5773 H 532.568 -3.85135 0.995801 0
M  V30 5774 H 529.307 -5.57449 3.44864 0
M  V30 5775 H 528.827 -5.73887 1.74396 0
M  V30 5776 H 530.506 -6.07102 2.23688 0
M  V30 5777 N 530.638 -0.59345 -1.46 0
M  V30 5778 C 531.887 -0.0808084 -2.01538 0
M  V30 5779 C 532.2 1.29112 -1.46934 0
M  V30 5780 O 533.406 1.8957 -1.94359 0
M  V30 5781 C 531.862 -0.0938311 -3.59778 0
M  V30 5782 C 531.47 -1.46474 -4.23379 0
M  V30 5783 C 533.214 0.364306 -4.22934 0
M  V30 5784 C 531.121 -1.4349 -5.73729 0
M  V30 5785 H 530.051 -0.0264407 -0.753536 0
M  V30 5786 H 532.702 -0.746689 -1.67621 0
M  V30 5787 H 531.084 0.638427 -3.9082 0
M  V30 5788 H 532.258 -2.21758 -4.03931 0
M  V30 5789 H 530.573 -1.86379 -3.7236 0
M  V30 5790 H 533.17 0.405584 -5.3316 0
M  V30 5791 H 533.513 1.38409 -3.92618 0
M  V30 5792 H 534.046 -0.31423 -3.96557 0
M  V30 5793 H 530.785 -2.43184 -6.08722 0
M  V30 5794 H 530.305 -0.724431 -5.95409 0
M  V30 5795 H 531.984 -1.15243 -6.36654 0
M  V30 5796 N 532.116 1.54067 -0.331816 0
M  V30 5797 C 533.532 1.59587 0.0205388 0
M  V30 5798 C 533.732 1.34813 1.49759 0
M  V30 5799 O 532.788 1.13661 2.25471 0
M  V30 5800 C 534.101 2.97959 -0.405103 0
M  V30 5801 C 535.649 3.10964 -0.356454 0
M  V30 5802 C 536.124 4.51694 -0.757384 0
M  V30 5803 N 537.615 4.57709 -0.71111 0
M  V30 5804 C 538.35 5.64729 -0.993427 0
M  V30 5805 N 537.846 6.79652 -1.3433 0
M  V30 5806 N 539.639 5.54546 -0.918442 0
M  V30 5807 H 531.79 1.68426 -1.29407 0
M  V30 5808 H 534.053 0.78819 -0.526745 0
M  V30 5809 H 533.759 3.21115 -1.43451 0
M  V30 5810 H 533.633 3.76524 0.225692 0
M  V30 5811 H 536.02 2.87538 0.663763 0
M  V30 5812 H 536.101 2.34484 -1.02229 0
M  V30 5813 H 535.745 4.75853 -1.77555 0
M  V30 5814 H 535.675 5.26555 -0.0691444 0
M  V30 5815 H 538.166 3.75176 -0.452883 0
M  V30 5816 H 538.479 7.57221 -1.54388 0
M  V30 5817 H 536.824 6.81128 -1.38164 0
M  V30 5818 H 540.015 4.63641 -0.644536 0
M  V30 5819 H 540.188 6.37861 -1.14181 0
M  V30 5820 N 533.594 0.0601682 1.57485 0
M  V30 5821 C 535.005 -0.474217 1.80577 0
M  V30 5822 C 535.356 -1.70365 0.973147 0
M  V30 5823 O 534.481 -2.15544 0.192306 0
M  V30 5824 C 535.076 -0.867102 3.27516 0
M  V30 5825 C 533.635 -1.34642 3.51495 0
M  V30 5826 C 532.782 -0.32594 2.75378 0
M  V30 5827 H 535.733 0.285973 1.56102 0
M  V30 5828 H 535.754 -1.72938 3.38929 0
M  V30 5829 H 535.266 0.0278927 3.8809 0
M  V30 5830 H 533.367 -2.2603 2.96212 0
M  V30 5831 H 533.48 -1.33237 4.60201 0
M  V30 5832 H 531.844 -0.800749 2.41785 0
M  V30 5833 H 532.627 0.561125 3.38683 0
M  V30 5834 N 535.072 -1.5615 -0.213296 0
M  V30 5835 C 536.004 -1.89586 -1.28802 0
M  V30 5836 C 537.017 -0.784844 -1.42633 0
M  V30 5837 O 538.206 -1.06319 -1.43383 0
M  V30 5838 C 535.306 -2.09665 -2.66259 0
M  V30 5839 C 534.479 -3.40726 -2.7427 0
M  V30 5840 C 533.538 -3.50137 -3.92798 0
M  V30 5841 O 532.564 -4.23105 -3.8075 0
M  V30 5842 N 533.766 -2.81886 -5.07465 0
M  V30 5843 H 536.531 -2.82368 -1.00442 0
M  V30 5844 H 534.092 -1.56796 -0.403302 0
M  V30 5845 H 536.084 -2.13268 -3.43946 0
M  V30 5846 H 534.654 -1.23469 -2.87183 0
M  V30 5847 H 533.874 -3.4915 -1.82997 0
M  V30 5848 H 535.162 -4.27048 -2.76599 0
M  V30 5849 H 534.56 -2.22397 -5.2015 0
M  V30 5850 H 533.117 -2.91139 -5.83165 0
M  V30 5851 N 536.55 0.480323 -1.50102 0
M  V30 5852 C 537.497 1.57946 -1.6829 0
M  V30 5853 C 538.467 1.57611 -0.524223 0
M  V30 5854 O 539.652 1.75282 -0.753709 0
M  V30 5855 C 536.792 2.95978 -1.77457 0
M  V30 5856 C 535.905 3.06173 -3.04766 0
M  V30 5857 C 535.04 4.35063 -3.04784 0
M  V30 5858 C 534.079 4.38966 -4.26586 0
M  V30 5859 N 533.216 5.59314 -4.24396 0
M  V30 5860 H 538.056 1.41743 -2.62131 0
M  V30 5861 H 535.593 0.689304 -1.2995 0
M  V30 5862 H 537.551 3.76011 -1.80752 0
M  V30 5863 H 536.181 3.10837 -0.870637 0
M  V30 5864 H 535.233 2.19071 -3.10986 0
M  V30 5865 H 536.545 3.04916 -3.9475 0
M  V30 5866 H 535.699 5.23436 -3.06757 0
M  V30 5867 H 534.438 4.38915 -2.12614 0
M  V30 5868 H 533.443 3.48992 -4.24835 0
M  V30 5869 H 534.668 4.36813 -5.19972 0
M  V30 5870 H 532.614 5.63969 -3.35074 0
M  V30 5871 H 532.531 5.5976 -5.08138 0
M  V30 5872 H 533.799 6.49837 -4.30502 0
M  V30 5873 N 538.028 1.39524 0.732853 0
M  V30 5874 C 538.938 1.40695 1.87729 0
M  V30 5875 C 539.954 0.301496 1.71368 0
M  V30 5876 O 541.13 0.543313 1.93933 0
M  V30 5877 C 538.195 1.25098 3.23344 0
M  V30 5878 C 537.256 2.45634 3.52083 0
M  V30 5879 C 536.489 2.30772 4.81228 0
M  V30 5880 O 536.712 1.31233 5.55098 0
M  V30 5881 O 535.646 3.19799 5.09914 0
M  V30 5882 H 539.472 2.37168 1.89697 0
M  V30 5883 H 537.057 1.20663 0.880959 0
M  V30 5884 H 538.939 1.18541 4.04383 0
M  V30 5885 H 537.614 0.317209 3.22142 0
M  V30 5886 H 536.521 2.57767 2.71122 0
M  V30 5887 H 537.854 3.37712 3.58066 0
M  V30 5888 N 539.506 -0.963266 1.24736 0
M  V30 5889 C 540.754 -1.70343 1.08755 0
M  V30 5890 C 541.075 -1.91387 -0.373619 0
M  V30 5891 O 540.345 -1.4948 -1.2662 0
M  V30 5892 H 538.925 -0.631224 0.399456 0
M  V30 5893 H 541.587 -1.15859 1.56725 0
M  V30 5894 H 540.683 -2.68616 1.58909 0
M  V30 5895 N 540.985 -1.06182 -1.16461 0
M  V30 5896 C 541.895 -0.682671 -2.24448 0
M  V30 5897 C 542.911 0.30078 -1.71381 0
M  V30 5898 O 544.087 0.150376 -2.00838 0
M  V30 5899 C 541.152 -0.0737202 -3.46622 0
M  V30 5900 C 540.213 -1.10889 -4.14731 0
M  V30 5901 C 539.446 -0.528908 -5.31073 0
M  V30 5902 O 539.669 0.65868 -5.66584 0
M  V30 5903 O 538.603 -1.26805 -5.88391 0
M  V30 5904 H 542.429 -1.58291 -2.59187 0
M  V30 5905 H 540.014 -0.834013 -1.23954 0
M  V30 5906 H 541.896 0.264192 -4.20571 0
M  V30 5907 H 540.571 0.800015 -3.13658 0
M  V30 5908 H 539.478 -1.49896 -3.42756 0
M  V30 5909 H 540.811 -1.95412 -4.51747 0
M  V30 5910 N 542.463 1.3308 -0.844243 0
M  V30 5911 C 543.879 1.50447 -0.532729 0
M  V30 5912 C 544.079 1.78292 0.938837 0
M  V30 5913 O 543.135 1.84635 1.72239 0
M  V30 5914 C 544.448 2.65555 -1.41072 0
M  V30 5915 C 545.996 2.7944 -1.41005 0
M  V30 5916 C 546.471 3.97616 -2.27301 0
M  V30 5917 N 547.962 4.0486 -2.2504 0
M  V30 5918 C 548.697 4.95508 -2.88547 0
M  V30 5919 N 548.193 5.91236 -3.61126 0
M  V30 5920 N 549.986 4.88548 -2.77989 0
M  V30 5921 H 542.137 1.13269 -1.79677 0
M  V30 5922 H 544.4 0.55734 -0.766861 0
M  V30 5923 H 544.106 2.51675 -2.45668 0
M  V30 5924 H 543.98 3.61089 -1.09061 0
M  V30 5925 H 546.367 2.92749 -0.371784 0
M  V30 5926 H 546.448 1.8465 -1.77026 0
M  V30 5927 H 546.092 3.85066 -3.3119 0
M  V30 5928 H 546.022 4.91661 -1.88619 0
M  V30 5929 H 548.513 3.36353 -1.72264 0
M  V30 5930 H 548.826 6.57079 -4.06776 0
M  V30 5931 H 547.171 5.91295 -3.65234 0
M  V30 5932 H 550.362 4.12729 -2.20846 0
M  V30 5933 H 550.535 5.58994 -3.27765 0
M  V30 5934 N 543.941 0.601185 1.45683 0
M  V30 5935 C 544.904 -0.111398 2.28929 0
M  V30 5936 C 545.904 -0.801246 1.39416 0
M  V30 5937 O 547.094 -0.650383 1.61603 0
M  V30 5938 C 544.226 -1.16773 3.20276 0
M  V30 5939 H 545.419 0.620412 2.93413 0
M  V30 5940 H 542.972 0.359946 1.52099 0
M  V30 5941 H 543.707 -1.93051 2.60579 0
M  V30 5942 H 543.492 -0.677358 3.86205 0
M  V30 5943 H 544.982 -1.66698 3.82886 0
M  V30 5944 N 545.419 -1.53889 0.339982 0
M  V30 5945 C 546.349 -2.27843 -0.510856 0
M  V30 5946 C 547.33 -1.29267 -1.10563 0
M  V30 5947 O 548.515 -1.58104 -1.12768 0
M  V30 5948 C 545.645 -3.04857 -1.66372 0
M  V30 5949 C 544.599 -4.10907 -1.19746 0
M  V30 5950 C 543.925 -4.75855 -2.43857 0
M  V30 5951 C 545.225 -5.21435 -0.300501 0
M  V30 5952 H 546.919 -2.99212 0.106067 0
M  V30 5953 H 544.465 -1.43904 0.0524533 0
M  V30 5954 H 546.418 -3.5533 -2.26537 0
M  V30 5955 H 545.142 -2.31133 -2.30749 0
M  V30 5956 H 543.801 -3.61342 -0.618654 0
M  V30 5957 H 543.449 -3.9873 -3.06633 0
M  V30 5958 H 543.149 -5.47502 -2.13343 0
M  V30 5959 H 544.673 -5.2911 -3.04754 0
M  V30 5960 H 546.087 -5.67565 -0.80889 0
M  V30 5961 H 544.484 -6.00036 -0.0874076 0
M  V30 5962 H 545.554 -4.80328 0.664321 0
M  V30 5963 N 546.897 -0.0685191 -1.57451 0
M  V30 5964 C 548.308 0.464634 -1.80826 0
M  V30 5965 C 548.659 1.69847 -0.982169 0
M  V30 5966 O 547.784 2.15439 -0.203734 0
M  V30 5967 C 548.379 0.849721 -3.27971 0
M  V30 5968 C 546.938 1.32776 -3.52204 0
M  V30 5969 C 546.085 0.311332 -2.75547 0
M  V30 5970 H 549.036 -0.294248 -1.55948 0
M  V30 5971 H 549.057 1.71138 -3.39841 0
M  V30 5972 H 548.569 -0.0484736 -3.8807 0
M  V30 5973 H 546.67 2.24456 -2.97406 0
M  V30 5974 H 546.783 1.30794 -4.60901 0
M  V30 5975 H 545.147 0.787915 -2.42206 0
M  V30 5976 H 545.93 -0.579078 -3.38381 0
M  V30 5977 N 548.375 1.56261 0.205012 0
M  V30 5978 C 549.6 1.84491 0.947512 0
M  V30 5979 C 550.025 0.650894 1.76479 0
M  V30 5980 O 549.383 -0.40035 1.76824 0
M  V30 5981 C 549.431 3.10863 1.82747 0
M  V30 5982 O 548.535 2.90719 2.925 0
M  V30 5983 H 547.876 0.607783 0.267386 0
M  V30 5984 H 550.406 2.03485 0.213323 0
M  V30 5985 H 550.416 3.41399 2.23407 0
M  V30 5986 H 549.091 3.97392 1.2269 0
M  V30 5987 H 547.668 2.71457 2.55667 0
M  V30 5988 N 549.853 -0.472356 1.50355 0
M  V30 5989 C 551.102 -1.2213 1.60522 0
M  V30 5990 C 551.415 -1.9312 0.310466 0
M  V30 5991 O 552.621 -2.69936 0.291029 0
M  V30 5992 C 551.077 -2.21909 2.83345 0
M  V30 5993 C 550.685 -1.56727 4.19691 0
M  V30 5994 C 552.429 -2.97453 3.02856 0
M  V30 5995 C 550.336 -2.54785 5.33703 0
M  V30 5996 H 549.266 -0.459543 0.597776 0
M  V30 5997 H 551.917 -0.491922 1.76783 0
M  V30 5998 H 550.299 -2.98133 2.60639 0
M  V30 5999 H 551.473 -0.863007 4.52646 0
M  V30 6000 H 549.788 -0.934685 4.05774 0
M  V30 6001 H 552.385 -3.70838 3.85205 0
M  V30 6002 H 552.728 -3.56764 2.14534 0
M  V30 6003 H 553.261 -2.28342 3.25737 0
M  V30 6004 H 550 -2.00214 6.24175 0
M  V30 6005 H 549.52 -3.23367 5.05167 0
M  V30 6006 H 551.199 -3.16639 5.64224 0
M  V30 6007 N 551.331 -1.39911 -0.725443 0
M  V30 6008 C 552.742 -1.33599 -1.30415 0
M  V30 6009 C 553.093 -0.00481792 -1.96199 0
M  V30 6010 O 552.218 0.897275 -1.96921 0
M  V30 6011 C 552.813 -2.41965 -2.37146 0
M  V30 6012 C 551.372 -2.39144 -2.90667 0
M  V30 6013 C 550.519 -2.23355 -1.64341 0
M  V30 6014 H 553.47 -1.4986 -0.522267 0
M  V30 6015 H 553.491 -2.09304 -3.17761 0
M  V30 6016 H 553.003 -3.38837 -1.89238 0
M  V30 6017 H 551.104 -1.4594 -3.4283 0
M  V30 6018 H 551.217 -3.34362 -3.43131 0
M  V30 6019 H 549.581 -1.70696 -1.89037 0
M  V30 6020 H 550.364 -3.2221 -1.18471 0
M  V30 6021 N 552.809 0.956637 -1.25245 0
M  V30 6022 C 553.756 2.053 -1.05454 0
M  V30 6023 C 554.726 1.66062 0.0356889 0
M  V30 6024 O 555.911 1.90415 -0.121099 0
M  V30 6025 C 553.051 3.38391 -0.677191 0
M  V30 6026 C 552.164 3.90758 -1.84206 0
M  V30 6027 C 551.299 5.12165 -1.40926 0
M  V30 6028 C 550.338 5.56757 -2.54338 0
M  V30 6029 N 549.475 6.69376 -2.11848 0
M  V30 6030 H 554.315 2.21562 -1.99284 0
M  V30 6031 H 551.852 1.08578 -0.992434 0
M  V30 6032 H 553.81 4.1488 -0.43938 0
M  V30 6033 H 552.44 3.22021 0.224127 0
M  V30 6034 H 551.492 3.10808 -2.19323 0
M  V30 6035 H 552.804 4.19802 -2.69383 0
M  V30 6036 H 551.958 5.96065 -1.13098 0
M  V30 6037 H 550.697 4.84832 -0.528175 0
M  V30 6038 H 549.702 4.71423 -2.82913 0
M  V30 6039 H 550.927 5.861 -3.43022 0
M  V30 6040 H 548.873 6.43756 -1.26153 0
M  V30 6041 H 548.79 6.97927 -2.90574 0
M  V30 6042 H 550.058 7.5669 -1.87191 0
M  V30 6043 N 554.287 1.06798 1.15896 0
M  V30 6044 C 555.217 0.704677 2.22613 0
M  V30 6045 C 556.198 -0.305252 1.67339 0
M  V30 6046 O 557.383 -0.179247 1.93371 0
M  V30 6047 C 554.513 0.0957325 3.47168 0
M  V30 6048 C 553.467 1.0322 4.15367 0
M  V30 6049 C 552.793 0.286293 5.33933 0
M  V30 6050 C 554.093 2.36341 4.65768 0
M  V30 6051 H 555.787 1.59688 2.53259 0
M  V30 6052 H 553.333 0.769257 1.21731 0
M  V30 6053 H 555.286 -0.170333 4.21056 0
M  V30 6054 H 554.01 -0.831516 3.15838 0
M  V30 6055 H 552.669 1.28309 3.43413 0
M  V30 6056 H 552.317 -0.644237 4.98857 0
M  V30 6057 H 552.017 0.910436 5.80504 0
M  V30 6058 H 553.541 0.0278938 6.10594 0
M  V30 6059 H 554.955 2.1561 5.31211 0
M  V30 6060 H 553.352 2.94299 5.2298 0
M  V30 6061 H 554.422 2.99047 3.81705 0
M  V30 6062 N 555.766 -1.3263 0.851289 0
M  V30 6063 C 556.729 -2.27247 0.298541 0
M  V30 6064 C 557.729 -1.51467 -0.539847 0
M  V30 6065 O 558.919 -1.7061 -0.351843 0
M  V30 6066 C 556.051 -3.35964 -0.578004 0
M  V30 6067 H 557.244 -2.7765 1.13359 0
M  V30 6068 H 554.797 -1.43245 0.625354 0
M  V30 6069 H 555.532 -2.90823 -1.435 0
M  V30 6070 H 555.317 -3.92094 0.0220539 0
M  V30 6071 H 556.807 -4.06472 -0.957626 0
M  V30 6072 N 557.244 -0.608902 -1.45362 0
M  V30 6073 C 558.192 0.121639 -2.32282 0
M  V30 6074 C 559.186 0.858301 -1.46046 0
M  V30 6075 O 560.392 0.773718 -1.62523 0
M  V30 6076 H 556.767 0.058086 -0.749753 0
M  V30 6077 H 558.738 -0.629866 -2.91677 0
M  V30 6078 C 557.487 1.1047 -3.29684 0
M  V30 6079 H 556.81 0.547278 -3.96036 0
M  V30 6080 H 558.25 1.58576 -3.9323 0
M  V30 6081 C 556.709 2.17891 -2.56954 0
M  V30 6082 O 557.239 3.25652 -2.35189 0
M  V30 6083 N 555.445 1.93211 -2.17066 0
M  V30 6084 H 554.992 1.05584 -2.34967 0
M  V30 6085 H 554.95 2.6529 -1.68727 0
M  V30 6086 N 558.722 1.53707 -0.348139 0
M  V30 6087 C 559.947 2.05877 0.250883 0
M  V30 6088 C 560.372 1.22115 1.43072 0
M  V30 6089 O 559.73 0.235986 1.79758 0
M  V30 6090 C 559.778 3.54886 0.639416 0
M  V30 6091 O 558.882 3.73948 1.73888 0
M  V30 6092 H 558.223 0.662754 0.040653 0
M  V30 6093 H 560.753 1.98303 -0.503685 0
M  V30 6094 H 560.763 3.97601 0.915295 0
M  V30 6095 H 559.438 4.153 -0.223386 0
M  V30 6096 H 558.015 3.43134 1.45991 0
M  V30 6097 N 560.2 0.0768682 1.57412 0
M  V30 6098 C 561.11 -0.903207 2.16516 0
M  V30 6099 C 562.126 -1.32341 1.12968 0
M  V30 6100 O 563.302 -1.39507 1.45258 0
M  V30 6101 C 560.367 -2.1508 2.71922 0
M  V30 6102 C 559.428 -1.78653 3.90361 0
M  V30 6103 C 558.661 -2.97465 4.43114 0
M  V30 6104 O 558.884 -4.11638 3.94854 0
M  V30 6105 O 557.818 -2.76987 5.3438 0
M  V30 6106 H 561.644 -0.430427 3.00634 0
M  V30 6107 H 559.229 -0.146485 1.4868 0
M  V30 6108 H 561.111 -2.8823 3.07411 0
M  V30 6109 H 559.786 -2.61446 1.9086 0
M  V30 6110 H 558.693 -1.0274 3.59716 0
M  V30 6111 H 560.026 -1.37066 4.7273 0
M  V30 6112 N 561.678 -1.56367 -0.196722 0
M  V30 6113 C 562.625 -1.94417 -1.24382 0
M  V30 6114 C 563.595 -0.804543 -1.45315 0
M  V30 6115 O 564.78 -1.06256 -1.58475 0
M  V30 6116 C 561.92 -2.28757 -2.58388 0
M  V30 6117 C 561.033 -3.55775 -2.45047 0
M  V30 6118 C 560.168 -3.79445 -3.71746 0
M  V30 6119 C 559.207 -4.99894 -3.53231 0
M  V30 6120 N 558.344 -5.19826 -4.71938 0
M  V30 6121 H 563.184 -2.83691 -0.912338 0
M  V30 6122 H 560.721 -1.40392 -0.439135 0
M  V30 6123 H 562.679 -2.46682 -3.36457 0
M  V30 6124 H 561.309 -1.42625 -2.89582 0
M  V30 6125 H 560.361 -3.45905 -1.58284 0
M  V30 6126 H 561.673 -4.44 -2.27299 0
M  V30 6127 H 560.827 -3.97601 -4.58256 0
M  V30 6128 H 559.566 -2.89546 -3.92446 0
M  V30 6129 H 558.571 -4.81662 -2.65107 0
M  V30 6130 H 559.796 -5.913 -3.33978 0
M  V30 6131 H 557.742 -4.32875 -4.92905 0
M  V30 6132 H 557.659 -6.02228 -4.57009 0
M  V30 6133 H 558.927 -5.42439 -5.59803 0
M  V30 6134 N 563.156 0.464375 -1.50603 0
M  V30 6135 C 564.088 1.57916 -1.66118 0
M  V30 6136 C 565.101 1.53497 -0.54246 0
M  V30 6137 O 566.29 1.58763 -0.815877 0
M  V30 6138 C 563.39 2.96809 -1.63577 0
M  V30 6139 C 562.563 3.26026 -2.91592 0
M  V30 6140 C 561.622 4.44506 -2.81604 0
M  V30 6141 O 560.648 4.44484 -3.55559 0
M  V30 6142 N 561.85 5.46549 -1.95614 0
M  V30 6143 H 564.615 1.45022 -2.62276 0
M  V30 6144 H 562.176 0.652903 -1.48151 0
M  V30 6145 H 564.168 3.74048 -1.54499 0
M  V30 6146 H 562.738 3.03438 -0.751262 0
M  V30 6147 H 561.958 2.37337 -3.14746 0
M  V30 6148 H 563.246 3.42361 -3.76386 0
M  V30 6149 H 562.644 5.49391 -1.34854 0
M  V30 6150 H 561.201 6.22746 -1.92435 0
M  V30 6151 N 564.634 1.40294 0.718013 0
M  V30 6152 C 565.882 1.38167 1.47494 0
M  V30 6153 C 566.203 -0.01607 1.94993 0
M  V30 6154 O 565.473 -0.970396 1.70177 0
M  V30 6155 H 564.053 0.508505 0.547203 0
M  V30 6156 H 566.715 1.75324 0.851322 0
M  V30 6157 H 565.811 2.05503 2.34894 0
M  V30 6158 N 566.112 -0.949982 1.2575 0
M  V30 6159 C 567.045 -2.047 1.00862 0
M  V30 6160 C 568.023 -1.62475 -0.0636982 0
M  V30 6161 O 569.207 -1.88343 0.0769153 0
M  V30 6162 C 566.334 -3.34597 0.525613 0
M  V30 6163 C 565.38 -3.95788 1.58916 0
M  V30 6164 S 566.213 -4.31175 3.17567 0
M  V30 6165 C 567.369 -5.64183 2.71013 0
M  V30 6166 H 567.602 -2.25497 1.93749 0
M  V30 6167 H 565.135 -1.09022 1.09332 0
M  V30 6168 H 567.093 -4.09716 0.25359 0
M  V30 6169 H 565.754 -3.11758 -0.382828 0
M  V30 6170 H 564.947 -4.89457 1.20201 0
M  V30 6171 H 564.549 -3.27168 1.81211 0
M  V30 6172 H 566.841 -6.42504 2.14928 0
M  V30 6173 H 567.784 -6.07774 3.6334 0
M  V30 6174 H 568.192 -5.2364 2.1086 0
M  V30 6175 N 567.59 -1.07411 -1.15328 0
M  V30 6176 C 569.006 -0.799759 -1.38116 0
M  V30 6177 C 569.206 0.59572 -1.92493 0
M  V30 6178 O 568.262 1.35433 -2.13106 0
M  V30 6179 C 569.575 -1.87407 -2.35158 0
M  V30 6180 C 571.123 -1.89889 -2.48819 0
M  V30 6181 C 571.598 -2.96406 -3.49153 0
M  V30 6182 N 573.089 -2.95512 -3.56689 0
M  V30 6183 C 573.824 -3.74575 -4.34144 0
M  V30 6184 N 573.32 -4.63488 -5.14928 0
M  V30 6185 N 575.113 -3.62919 -4.29239 0
M  V30 6186 H 567.264 -1.97411 -0.78374 0
M  V30 6187 H 569.527 -0.856113 -0.407154 0
M  V30 6188 H 569.233 -2.8768 -2.0232 0
M  V30 6189 H 569.107 -1.73471 -3.34944 0
M  V30 6190 H 571.494 -0.902677 -2.80955 0
M  V30 6191 H 571.575 -2.07904 -1.49029 0
M  V30 6192 H 571.219 -3.96227 -3.17752 0
M  V30 6193 H 571.149 -2.75638 -4.48699 0
M  V30 6194 H 573.64 -2.31061 -2.99031 0
M  V30 6195 H 573.953 -5.20445 -5.71276 0
M  V30 6196 H 572.298 -4.67537 -5.14232 0
M  V30 6197 H 575.489 -2.92833 -3.65194 0
M  V30 6198 H 575.662 -4.24777 -4.89355 0
M  V30 6199 N 569.068 1.32177 -0.85831 0
M  V30 6200 C 570.296 2.01313 -0.477582 0
M  V30 6201 C 570.711 1.6449 0.926736 0
M  V30 6202 O 570.068 0.868096 1.60531 0
M  V30 6203 C 570.119 3.56293 -0.611337 0
M  V30 6204 O 569.84 3.91794 -1.96034 0
M  V30 6205 C 571.341 4.42702 -0.230093 0
M  V30 6206 H 568.561 0.644323 -0.187322 0
M  V30 6207 H 571.105 1.68674 -1.15626 0
M  V30 6208 H 569.26 3.87395 0.0196494 0
M  V30 6209 H 569.674 4.86513 -1.95973 0
M  V30 6210 H 571.148 5.50727 -0.374674 0
M  V30 6211 H 571.625 4.3129 0.829779 0
M  V30 6212 H 572.231 4.16997 -0.836302 0
M  V30 6213 N 570.547 0.616602 1.45037 0
M  V30 6214 C 571.497 -0.118543 2.27692 0
M  V30 6215 C 572.481 -0.830025 1.37838 0
M  V30 6216 O 573.673 -0.718528 1.6176 0
M  V30 6217 C 570.802 -1.10924 3.24886 0
M  V30 6218 C 569.888 -0.398134 4.22227 0
M  V30 6219 N 570.279 0.565233 5.02632 0
M  V30 6220 C 568.577 -0.644506 4.41319 0
M  V30 6221 C 569.278 0.984043 5.73316 0
M  V30 6222 N 568.254 0.325879 5.42622 0
M  V30 6223 H 572.056 0.621239 2.87259 0
M  V30 6224 H 569.57 0.440968 1.56299 0
M  V30 6225 H 571.567 -1.65038 3.82842 0
M  V30 6226 H 570.227 -1.84948 2.66879 0
M  V30 6227 H 571.238 0.942395 5.09254 0
M  V30 6228 H 567.915 -1.36873 3.94426 0
M  V30 6229 H 569.305 1.77911 6.47918 0
M  V30 6230 N 572.025 -1.5352 0.356285 0
M  V30 6231 C 572.988 -2.24071 -0.482182 0
M  V30 6232 C 573.988 -1.24531 -1.01729 0
M  V30 6233 O 575.178 -1.48876 -0.904513 0
M  V30 6234 C 572.31 -2.97025 -1.67299 0
M  V30 6235 H 573.503 -2.99596 0.135031 0
M  V30 6236 H 571.056 -1.55928 0.107825 0
M  V30 6237 H 571.791 -2.25719 -2.32855 0
M  V30 6238 H 571.576 -3.7005 -1.29636 0
M  V30 6239 H 573.066 -3.50683 -2.26741 0
M  V30 6240 N 573.503 -0.0852151 -1.57369 0
M  V30 6241 C 574.749 0.581666 -1.94279 0
M  V30 6242 C 575.082 1.68444 -0.966446 0
M  V30 6243 O 574.357 1.945 0.00215277 0
M  V30 6244 C 574.64 1.14609 -3.41375 0
M  V30 6245 C 574.493 0.0490414 -4.49773 0
M  V30 6246 C 575.812 2.04751 -3.8957 0
M  V30 6247 H 572.931 0.209972 -0.706456 0
M  V30 6248 H 575.573 -0.153915 -1.89376 0
M  V30 6249 H 573.723 1.77297 -3.45685 0
M  V30 6250 H 575.395 -0.584721 -4.57579 0
M  V30 6251 H 573.638 -0.618638 -4.29366 0
M  V30 6252 H 574.309 0.484601 -5.49869 0
M  V30 6253 H 576.785 1.51981 -3.87351 0
M  V30 6254 H 575.661 2.41173 -4.93079 0
M  V30 6255 H 575.922 2.96107 -3.28288 0
M  V30 6256 N 574.981 1.5647 0.188427 0
M  V30 6257 C 576.206 1.85486 0.927891 0
M  V30 6258 C 576.631 0.669575 1.75779 0
M  V30 6259 O 575.989 -0.381573 1.77239 0
M  V30 6260 C 576.037 3.12784 1.7944 0
M  V30 6261 O 575.141 2.93805 2.894 0
M  V30 6262 H 574.482 0.610585 0.260925 0
M  V30 6263 H 577.012 2.037 0.191729 0
M  V30 6264 H 577.022 3.43749 2.19774 0
M  V30 6265 H 575.697 3.98671 1.18468 0
M  V30 6266 H 574.274 2.74153 2.52774 0
M  V30 6267 N 576.459 -0.456382 1.50847 0
M  V30 6268 C 577.705 -1.20914 1.62811 0
M  V30 6269 C 578.038 -1.91301 0.334304 0
M  V30 6270 O 577.313 -1.82775 -0.665098 0
M  V30 6271 C 577.596 -2.24122 2.81853 0
M  V30 6272 C 577.449 -1.57944 4.21158 0
M  V30 6273 C 578.768 -3.25295 2.96431 0
M  V30 6274 H 575.887 -0.438233 0.592554 0
M  V30 6275 H 578.529 -0.50091 1.83278 0
M  V30 6276 H 576.679 -2.84524 2.64534 0
M  V30 6277 H 578.351 -1.01025 4.50102 0
M  V30 6278 H 576.594 -0.882185 4.24735 0
M  V30 6279 H 577.265 -2.33014 5.00408 0
M  V30 6280 H 579.741 -2.7493 3.12335 0
M  V30 6281 H 578.617 -3.94822 3.81322 0
M  V30 6282 H 578.878 -3.90286 2.07676 0
M  V30 6283 N 577.937 -1.40673 -0.710563 0
M  V30 6284 C 579.162 -1.42741 -1.50465 0
M  V30 6285 C 579.587 -0.0302116 -1.88076 0
M  V30 6286 O 578.945 0.962945 -1.53613 0
M  V30 6287 C 578.993 -2.32873 -2.75322 0
M  V30 6288 O 578.097 -1.77544 -3.72226 0
M  V30 6289 H 577.438 -0.485056 -0.45345 0
M  V30 6290 H 579.968 -1.84961 -0.874681 0
M  V30 6291 H 579.978 -2.48233 -3.23797 0
M  V30 6292 H 578.653 -3.34401 -2.47283 0
M  V30 6293 H 577.23 -1.71556 -3.31093 0
M  V30 6294 N 579.415 0.9433 -1.26252 0
M  V30 6295 C 580.325 2.07532 -1.09397 0
M  V30 6296 C 581.341 1.73977 -0.0280449 0
M  V30 6297 O 582.517 2.00067 -0.231337 0
M  V30 6298 C 579.582 3.39002 -0.726523 0
M  V30 6299 C 578.643 3.86353 -1.87163 0
M  V30 6300 C 577.876 5.11549 -1.52162 0
M  V30 6301 O 578.099 5.68834 -0.422385 0
M  V30 6302 O 577.033 5.53889 -2.35565 0
M  V30 6303 H 580.859 2.24658 -2.04359 0
M  V30 6304 H 578.444 1.05988 -1.05295 0
M  V30 6305 H 580.326 4.18 -0.534236 0
M  V30 6306 H 579.001 3.2312 0.193721 0
M  V30 6307 H 577.908 3.0831 -2.11886 0
M  V30 6308 H 579.241 4.06752 -2.77152 0
M  V30 6309 N 580.893 1.08022 1.14757 0
M  V30 6310 C 582.121 0.828847 1.89572 0
M  V30 6311 C 582.536 -0.618621 1.78377 0
M  V30 6312 O 581.893 -1.42482 1.1404 0
M  V30 6313 C 581.944 1.23677 3.39685 0
M  V30 6314 O 581.665 2.62746 3.50566 0
M  V30 6315 C 583.166 1.01569 4.31507 0
M  V30 6316 H 580.386 0.299196 0.600602 0
M  V30 6317 H 582.93 1.43846 1.45357 0
M  V30 6318 H 581.085 0.671347 3.81539 0
M  V30 6319 H 581.499 2.79573 4.43778 0
M  V30 6320 H 582.973 1.35055 5.35223 0
M  V30 6321 H 583.45 -0.0475433 4.39174 0
M  V30 6322 H 584.056 1.56636 3.95405 0
M  V30 6323 N 582.371 -1.3172 0.865308 0
M  V30 6324 C 583.648 -1.91574 0.394789 0
M  V30 6325 C 584.028 -1.78769 -1.12271 0
M  V30 6326 O 583.376 -1.19245 -1.94918 0
M  V30 6327 C 583.586 -3.37957 0.870982 0
M  V30 6328 C 584.934 -4.15073 0.894384 0
M  V30 6329 O 585.958 -3.4672 0.816325 0
M  V30 6330 O 584.817 -5.37151 1.00651 0
M  V30 6331 H 581.911 -0.818649 0.117229 0
M  V30 6332 H 584.457 -1.4042 0.952913 0
M  V30 6333 H 583.229 -3.41269 1.91444 0
M  V30 6334 H 582.852 -3.96534 0.290907 0
M  V30 6335 N 583.85 -0.624285 -1.44708 0
M  V30 6336 C 585.127 -0.0572781 -1.95516 0
M  V30 6337 C 585.507 1.41516 -1.56641 0
M  V30 6338 O 584.855 2.12614 -0.837111 0
M  V30 6339 C 585.065 -0.272944 -3.47931 0
M  V30 6340 C 586.413 -0.162529 -4.24289 0
M  V30 6341 O 587.437 -0.203946 -3.55616 0
M  V30 6342 O 586.296 -0.0616847 -5.46465 0
M  V30 6343 H 583.389 0.0262219 -0.826584 0
M  V30 6344 H 585.936 -0.695512 -1.54793 0
M  V30 6345 H 584.707 -1.29492 -3.69253 0
M  V30 6346 H 584.331 0.399756 -3.95585 0
M  V30 6347 N 585.328 1.53329 -0.364422 0
M  V30 6348 C 586.558 2.05359 0.226096 0
M  V30 6349 C 586.966 1.23777 1.43094 0
M  V30 6350 O 586.309 0.271139 1.81688 0
M  V30 6351 C 586.371 3.52918 0.684794 0
M  V30 6352 C 586.035 4.55218 -0.403206 0
M  V30 6353 C 587.032 5.04583 -1.2527 0
M  V30 6354 C 584.717 4.99134 -0.563117 0
M  V30 6355 C 586.711 5.96463 -2.24745 0
M  V30 6356 C 584.398 5.9082 -1.56124 0
M  V30 6357 C 585.396 6.39375 -2.40184 0
M  V30 6358 O 585.084 7.29255 -3.38293 0
M  V30 6359 H 584.816 0.674588 0.0436772 0
M  V30 6360 H 587.37 1.98688 -0.520782 0
M  V30 6361 H 585.6 3.57122 1.48326 0
M  V30 6362 H 587.289 3.87812 1.19818 0
M  V30 6363 H 588.055 4.71403 -1.14034 0
M  V30 6364 H 583.934 4.60928 0.0813909 0
M  V30 6365 H 587.478 6.34285 -2.90393 0
M  V30 6366 H 583.375 6.23414 -1.67407 0
M  V30 6367 H 584.143 7.47249 -3.34009 0
M  V30 6368 N 586.806 0.0935595 1.57322 0
M  V30 6369 C 587.769 -0.851426 2.12799 0
M  V30 6370 C 588.769 -1.21187 1.0569 0
M  V30 6371 O 589.959 -1.14156 1.31583 0
M  V30 6372 C 587.091 -2.14779 2.64731 0
M  V30 6373 H 588.284 -0.369733 2.97612 0
M  V30 6374 H 585.837 -0.155417 1.55525 0
M  V30 6375 H 586.572 -2.67437 1.83434 0
M  V30 6376 H 586.357 -1.89907 3.43042 0
M  V30 6377 H 587.847 -2.82383 3.07651 0
M  V30 6378 N 588.284 -1.56567 -0.180126 0
M  V30 6379 C 589.194 -1.98947 -1.24327 0
M  V30 6380 C 590.21 -0.899446 -1.4895 0
M  V30 6381 O 591.386 -1.20639 -1.61271 0
M  V30 6382 C 588.451 -2.33328 -2.56435 0
M  V30 6383 C 587.512 -3.56114 -2.39752 0
M  V30 6384 C 586.745 -3.88845 -3.65561 0
M  V30 6385 O 586.968 -3.22662 -4.70368 0
M  V30 6386 O 585.902 -4.82226 -3.60197 0
M  V30 6387 H 589.728 -2.89634 -0.913565 0
M  V30 6388 H 587.313 -1.44319 -0.386306 0
M  V30 6389 H 589.195 -2.5645 -3.34382 0
M  V30 6390 H 587.87 -1.45806 -2.89002 0
M  V30 6391 H 586.777 -3.38221 -1.59866 0
M  V30 6392 H 588.11 -4.4415 -2.12113 0
M  V30 6393 N 589.762 0.448376 -1.51087 0
M  V30 6394 C 591.011 1.19561 -1.62444 0
M  V30 6395 C 591.324 1.92602 -0.341151 0
M  V30 6396 O 592.53 2.69439 -0.333936 0
M  V30 6397 C 590.986 2.17373 -2.8684 0
M  V30 6398 C 590.594 1.5003 -4.22131 0
M  V30 6399 C 592.338 2.92597 -3.0755 0
M  V30 6400 C 590.245 2.46262 -5.37689 0
M  V30 6401 H 589.175 0.449975 -0.605011 0
M  V30 6402 H 591.826 0.463735 -1.77544 0
M  V30 6403 H 590.208 2.93948 -2.65349 0
M  V30 6404 H 591.382 0.790886 -4.53962 0
M  V30 6405 H 589.697 0.870011 -4.0721 0
M  V30 6406 H 592.294 3.64663 -3.91056 0
M  V30 6407 H 592.637 3.53306 -2.20183 0
M  V30 6408 H 593.17 2.23131 -3.29329 0
M  V30 6409 H 589.909 1.90258 -6.27281 0
M  V30 6410 H 589.429 3.15289 -5.10248 0
M  V30 6411 H 591.108 3.07623 -5.6919 0
M  V30 6412 N 591.24 1.41047 0.703093 0
M  V30 6413 C 592.489 1.39301 1.4587 0
M  V30 6414 C 592.802 0.00267077 1.956 0
M  V30 6415 O 594.008 -0.137414 2.71152 0
M  V30 6416 C 592.464 2.44891 2.63735 0
M  V30 6417 C 592.072 3.89796 2.20824 0
M  V30 6418 C 593.816 2.5227 3.41409 0
M  V30 6419 C 591.723 4.86955 3.35602 0
M  V30 6420 H 590.653 0.518005 0.547893 0
M  V30 6421 H 593.304 1.66839 0.764009 0
M  V30 6422 H 591.686 2.10472 3.35436 0
M  V30 6423 H 592.86 4.33424 1.56461 0
M  V30 6424 H 591.175 3.86008 1.56163 0
M  V30 6425 H 593.772 3.22044 4.26839 0
M  V30 6426 H 594.115 1.55714 3.86081 0
M  V30 6427 H 594.648 2.85742 2.7676 0
M  V30 6428 H 591.387 5.84888 2.9595 0
M  V30 6429 H 590.907 4.47982 3.98839 0
M  V30 6430 H 592.586 5.07361 4.01489 0
M  V30 6431 N 592.718 -0.936591 1.26751 0
M  V30 6432 C 593.995 -1.66094 1.03306 0
M  V30 6433 C 594.375 -2.06568 -0.435058 0
M  V30 6434 O 593.723 -1.79305 -1.41641 0
M  V30 6435 C 593.933 -2.86969 1.98619 0
M  V30 6436 C 595.281 -3.58516 2.27489 0
M  V30 6437 O 596.305 -2.97082 1.96522 0
M  V30 6438 O 595.164 -4.69181 2.80235 0
M  V30 6439 H 592.258 -0.727568 0.393158 0
M  V30 6440 H 594.804 -0.987914 1.3798 0
M  V30 6441 H 593.576 -2.53985 2.9767 0
M  V30 6442 H 593.199 -3.61996 1.64454 0
M  V30 6443 N 594.196 -1.08629 -1.14182 0
M  V30 6444 C 595.106 -0.730126 -2.22949 0
M  V30 6445 C 596.122 0.26436 -1.7198 0
M  V30 6446 O 597.298 0.107742 -2.01112 0
M  V30 6447 C 594.363 -0.147227 -3.46387 0
M  V30 6448 C 593.424 -1.19662 -4.12286 0
M  V30 6449 C 592.657 -0.641437 -5.29831 0
M  V30 6450 O 592.88 0.538351 -5.67854 0
M  V30 6451 O 591.814 -1.39257 -5.85569 0
M  V30 6452 H 595.64 -1.63753 -2.55771 0
M  V30 6453 H 593.225 -0.860118 -1.22157 0
M  V30 6454 H 595.107 0.174923 -4.21037 0
M  V30 6455 H 593.782 0.733304 -3.15285 0
M  V30 6456 H 592.689 -1.57133 -3.395 0
M  V30 6457 H 594.022 -2.0495 -4.475 0
M  V30 6458 N 595.674 1.31259 -0.872281 0
M  V30 6459 C 596.584 2.32221 -0.333255 0
M  V30 6460 C 597.6 1.6481 0.558013 0
M  V30 6461 O 598.776 1.96212 0.454175 0
M  V30 6462 C 595.841 3.43708 0.454479 0
M  V30 6463 C 594.902 4.26774 -0.465024 0
M  V30 6464 C 594.135 5.32937 0.28521 0
M  V30 6465 O 594.358 5.49968 1.513 0
M  V30 6466 O 593.292 6.00834 -0.358126 0
M  V30 6467 H 597.118 2.80252 -1.17016 0
M  V30 6468 H 594.703 1.352 -0.635724 0
M  V30 6469 H 596.585 4.11656 0.900963 0
M  V30 6470 H 595.26 2.97836 1.26789 0
M  V30 6471 H 594.167 3.61571 -0.960055 0
M  V30 6472 H 595.5 4.76217 -1.2441 0
M  V30 6473 N 597.152 0.631951 1.44375 0
M  V30 6474 C 598.429 0.067646 1.95483 0
M  V30 6475 C 598.809 -1.40683 1.57389 0
M  V30 6476 O 598.157 -2.12167 0.848375 0
M  V30 6477 C 598.367 0.291392 3.47781 0
M  V30 6478 C 599.715 0.185028 4.24197 0
M  V30 6479 O 600.739 0.222803 3.55503 0
M  V30 6480 O 599.598 0.0906642 5.46425 0
M  V30 6481 H 596.692 -0.0218379 0.826712 0
M  V30 6482 H 599.238 0.703711 1.54421 0
M  V30 6483 H 598.01 1.31449 3.68561 0
M  V30 6484 H 597.633 -0.378772 3.95792 0
M  V30 6485 N 598.631 -1.53133 0.372548 0
M  V30 6486 C 599.859 -2.05774 -0.215515 0
M  V30 6487 C 600.274 -1.24555 -1.41886 0
M  V30 6488 O 599.631 -0.287951 -1.80214 0
M  V30 6489 C 599.682 -3.5645 -0.602161 0
M  V30 6490 O 599.403 -4.34591 0.553359 0
M  V30 6491 C 600.904 -4.25374 -1.24787 0
M  V30 6492 H 598.124 -0.670009 -0.0364529 0
M  V30 6493 H 600.668 -1.97434 0.532934 0
M  V30 6494 H 598.823 -3.64918 -1.30052 0
M  V30 6495 H 599.237 -5.23954 0.239336 0
M  V30 6496 H 600.711 -5.32097 -1.46891 0
M  V30 6497 H 601.188 -3.79531 -2.21026 0
M  V30 6498 H 601.794 -4.21177 -0.590752 0
M  V30 6499 N 600.109 -0.101901 -1.5727 0
M  V30 6500 C 601.339 0.567568 -1.98651 0
M  V30 6501 C 601.747 1.61839 -0.980037 0
M  V30 6502 O 601.09 1.83661 0.0376564 0
M  V30 6503 C 601.152 1.26742 -3.36417 0
M  V30 6504 C 600.816 0.366561 -4.55528 0
M  V30 6505 C 601.813 -0.388022 -5.1845 0
M  V30 6506 C 599.498 0.282629 -5.01504 0
M  V30 6507 C 601.492 -1.21445 -6.25724 0
M  V30 6508 C 599.179 -0.547443 -6.08643 0
M  V30 6509 C 600.177 -1.29462 -6.70618 0
M  V30 6510 O 599.865 -2.11095 -7.7569 0
M  V30 6511 H 599.597 0.156282 -0.657687 0
M  V30 6512 H 602.151 -0.179912 -2.04611 0
M  V30 6513 H 600.381 2.06162 -3.27161 0
M  V30 6514 H 602.07 1.8321 -3.622 0
M  V30 6515 H 602.836 -0.332949 -4.83856 0
M  V30 6516 H 598.715 0.853868 -4.53023 0
M  V30 6517 H 602.259 -1.79814 -6.74027 0
M  V30 6518 H 598.156 -0.603971 -6.42668 0
M  V30 6519 H 598.924 -2.03851 -7.92709 0
M  V30 6520 N 601.587 1.56661 0.17182 0
M  V30 6521 C 602.815 1.861 0.904115 0
M  V30 6522 C 603.23 0.687227 1.75848 0
M  V30 6523 O 602.587 -0.343671 1.79235 0
M  V30 6524 C 602.638 3.14568 1.78127 0
M  V30 6525 O 602.359 4.27422 0.961366 0
M  V30 6526 C 603.86 3.5735 2.62327 0
M  V30 6527 H 601.08 0.617445 0.262684 0
M  V30 6528 H 603.624 2.03775 0.172068 0
M  V30 6529 H 601.779 2.98721 2.46666 0
M  V30 6530 H 602.193 5.00725 1.56123 0
M  V30 6531 H 603.667 4.50144 3.1949 0
M  V30 6532 H 604.144 2.81445 3.37173 0
M  V30 6533 H 604.75 3.75807 1.99121 0
M  V30 6534 N 603.065 -0.440357 1.51323 0
M  V30 6535 C 603.998 -1.55414 1.67098 0
M  V30 6536 C 604.976 -1.54108 0.518599 0
M  V30 6537 O 606.16 -1.7328 0.742054 0
M  V30 6538 C 603.287 -2.93996 1.68179 0
M  V30 6539 C 602.333 -3.13338 2.89347 0
M  V30 6540 S 603.166 -2.89957 4.50206 0
M  V30 6541 C 604.322 -4.30826 4.54027 0
M  V30 6542 H 604.555 -1.41798 2.61306 0
M  V30 6543 H 602.088 -0.629841 1.40969 0
M  V30 6544 H 604.046 -3.73878 1.69487 0
M  V30 6545 H 602.707 -3.04976 0.751542 0
M  V30 6546 H 601.9 -4.14652 2.86495 0
M  V30 6547 H 601.502 -2.41276 2.85766 0
M  V30 6548 H 603.794 -5.23977 4.29481 0
M  V30 6549 H 604.737 -4.38712 5.55822 0
M  V30 6550 H 605.145 -4.1434 3.83384 0
M  V30 6551 N 604.543 -1.41418 -0.695603 0
M  V30 6552 C 605.954 -1.36335 -1.27552 0
M  V30 6553 C 606.305 -0.0464336 -1.96145 0
M  V30 6554 O 605.43 0.855304 -1.9878 0
M  V30 6555 C 606.025 -2.46941 -2.3196 0
M  V30 6556 C 604.584 -2.45256 -2.85529 0
M  V30 6557 C 603.731 -2.2679 -1.59566 0
M  V30 6558 H 606.682 -1.50934 -0.490362 0
M  V30 6559 H 606.703 -2.15997 -3.1325 0
M  V30 6560 H 606.215 -3.42775 -1.82008 0
M  V30 6561 H 604.316 -1.53179 -3.39657 0
M  V30 6562 H 604.429 -3.41565 -3.35961 0
M  V30 6563 H 602.793 -1.74667 -1.85374 0
M  V30 6564 H 603.576 -3.24651 -1.1161 0
M  V30 6565 N 606.021 0.929856 -1.27246 0
M  V30 6566 C 607.246 1.71674 -1.16374 0
M  V30 6567 C 607.671 1.86064 0.276024 0
M  V30 6568 O 607.029 1.3591 1.19992 0
M  V30 6569 C 607.077 3.09526 -1.85003 0
M  V30 6570 O 606.181 3.96142 -1.14653 0
M  V30 6571 H 605.522 0.52629 -0.404863 0
M  V30 6572 H 608.052 1.16381 -1.68276 0
M  V30 6573 H 608.062 3.59852 -1.92276 0
M  V30 6574 H 606.737 2.98369 -2.89739 0
M  V30 6575 H 605.314 3.54584 -1.15433 0
M  V30 6576 N 607.499 1.09233 1.13605 0
M  V30 6577 C 608.727 0.848908 1.88683 0
M  V30 6578 C 609.142 -0.599667 1.79024 0
M  V30 6579 O 608.499 -1.41265 1.15544 0
M  V30 6580 C 608.55 1.27273 3.38355 0
M  V30 6581 O 608.271 2.66449 3.47759 0
M  V30 6582 C 609.772 1.0614 4.30406 0
M  V30 6583 H 606.992 0.305549 0.597395 0
M  V30 6584 H 609.536 1.4538 1.43823 0
M  V30 6585 H 607.691 0.711776 3.80805 0
M  V30 6586 H 608.105 2.84264 4.40788 0
M  V30 6587 H 609.579 1.40725 5.33761 0
M  V30 6588 H 610.056 -0.000960332 4.392 0
M  V30 6589 H 610.662 1.60821 3.93722 0
M  V30 6590 N 608.977 -1.30795 0.87923 0
M  V30 6591 C 610.393 -1.48981 0.57243 0
M  V30 6592 C 610.593 -1.80719 -0.891236 0
M  V30 6593 O 609.649 -1.89136 -1.67283 0
M  V30 6594 C 610.962 -2.61721 1.48063 0
M  V30 6595 C 612.51 -2.75603 1.48365 0
M  V30 6596 C 612.985 -3.91449 2.37763 0
M  V30 6597 N 614.476 -3.98751 2.35695 0
M  V30 6598 C 615.211 -4.87684 3.01583 0
M  V30 6599 N 614.707 -5.81454 3.76674 0
M  V30 6600 N 616.5 -4.81005 2.90844 0
M  V30 6601 H 608.651 -1.08465 1.82617 0
M  V30 6602 H 610.914 -0.536813 0.781368 0
M  V30 6603 H 610.62 -2.45073 2.52254 0
M  V30 6604 H 610.494 -3.58071 1.18596 0
M  V30 6605 H 612.881 -2.9166 0.44927 0
M  V30 6606 H 612.962 -1.79891 1.81859 0
M  V30 6607 H 612.606 -3.76149 3.41283 0
M  V30 6608 H 612.536 -4.86487 2.01589 0
M  V30 6609 H 615.027 -3.31668 1.81121 0
M  V30 6610 H 615.34 -6.46063 4.24054 0
M  V30 6611 H 613.685 -5.81403 3.80782 0
M  V30 6612 H 616.876 -4.06728 2.31711 0
M  V30 6613 H 617.049 -5.50107 3.42471 0
M  V30 6614 N 610.455 -0.639598 -1.44038 0
M  V30 6615 C 611.732 -0.078012 -1.95444 0
M  V30 6616 C 612.112 1.39847 -1.58133 0
M  V30 6617 O 611.46 2.11714 -0.859614 0
M  V30 6618 C 611.67 -0.309832 -3.47622 0
M  V30 6619 C 613.018 -0.207521 -4.24093 0
M  V30 6620 O 614.042 -0.241653 -3.55379 0
M  V30 6621 O 612.901 -0.119641 -5.46369 0
M  V30 6622 H 609.995 0.0174534 -0.826816 0
M  V30 6623 H 612.541 -0.711891 -1.54046 0
M  V30 6624 H 611.313 -1.33401 -3.67858 0
M  V30 6625 H 610.936 0.357777 -3.95987 0
M  V30 6626 N 611.933 1.52934 -0.380664 0
M  V30 6627 C 613.163 2.05587 0.204302 0
M  V30 6628 C 613.571 1.25288 1.41773 0
M  V30 6629 O 612.914 0.290394 1.8139 0
M  V30 6630 C 612.976 3.53624 0.647324 0
M  V30 6631 C 612.64 4.54765 -0.451465 0
M  V30 6632 C 613.637 5.03226 -1.30614 0
M  V30 6633 C 611.322 4.98508 -0.616025 0
M  V30 6634 C 613.316 5.94046 -2.31058 0
M  V30 6635 C 611.003 5.89131 -1.62381 0
M  V30 6636 C 612.001 6.36792 -2.46952 0
M  V30 6637 O 611.689 7.25626 -3.46009 0
M  V30 6638 H 611.421 0.675013 0.0365198 0
M  V30 6639 H 613.975 1.98125 -0.541827 0
M  V30 6640 H 612.205 3.58676 1.44529 0
M  V30 6641 H 613.894 3.89061 1.15698 0
M  V30 6642 H 614.66 4.70167 -1.19027 0
M  V30 6643 H 610.539 4.60989 0.0324987 0
M  V30 6644 H 614.083 6.3117 -2.97104 0
M  V30 6645 H 609.98 6.21603 -1.7401 0
M  V30 6646 H 610.748 7.43664 -3.41916 0
M  V30 6647 N 613.412 0.11024 1.57214 0
M  V30 6648 C 614.322 -0.857077 2.18383 0
M  V30 6649 C 615.338 -1.29915 1.1575 0
M  V30 6650 O 616.514 -1.36394 1.48184 0
M  V30 6651 C 613.579 -2.09264 2.76423 0
M  V30 6652 C 612.64 -1.70333 3.94063 0
M  V30 6653 C 611.873 -2.87999 4.49324 0
M  V30 6654 O 612.096 -4.0317 4.03497 0
M  V30 6655 O 611.03 -2.6559 5.40135 0
M  V30 6656 H 614.856 -0.366561 3.0148 0
M  V30 6657 H 612.441 -0.114914 1.48957 0
M  V30 6658 H 614.323 -2.81644 3.13456 0
M  V30 6659 H 612.998 -2.57339 1.96363 0
M  V30 6660 H 611.905 -0.950864 3.61814 0
M  V30 6661 H 613.238 -1.27007 4.75531 0
M  V30 6662 N 614.89 -1.56749 -0.16351 0
M  V30 6663 C 616.139 -1.81626 -0.877211 0
M  V30 6664 C 616.452 -0.688791 -1.83071 0
M  V30 6665 O 617.658 -0.822697 -2.58735 0
M  V30 6666 C 616.114 -3.21858 -1.61045 0
M  V30 6667 C 615.722 -4.42494 -0.700195 0
M  V30 6668 C 617.466 -3.56021 -2.31192 0
M  V30 6669 C 615.373 -5.73748 -1.43412 0
M  V30 6670 H 614.303 -0.67731 -0.331312 0
M  V30 6671 H 616.954 -1.83039 -0.13006 0
M  V30 6672 H 615.336 -3.14784 -2.40264 0
M  V30 6673 H 616.51 -4.60766 0.0555849 0
M  V30 6674 H 614.825 -4.1626 -0.10799 0
M  V30 6675 H 617.422 -4.51333 -2.8671 0
M  V30 6676 H 617.765 -2.81277 -3.06902 0
M  V30 6677 H 618.298 -3.64682 -1.58909 0
M  V30 6678 H 615.037 -6.51543 -0.719186 0
M  V30 6679 H 614.557 -5.5944 -2.16302 0
M  V30 6680 H 616.236 -6.15975 -1.9795 0
M  V30 6681 N 616.368 0.432326 -1.51554 0
M  V30 6682 C 617.3 1.54357 -1.6943 0
M  V30 6683 C 618.313 1.52311 -0.574897 0
M  V30 6684 O 619.502 1.56997 -0.849369 0
M  V30 6685 C 616.602 2.93273 -1.69836 0
M  V30 6686 C 615.775 3.19768 -2.98442 0
M  V30 6687 C 614.834 4.38433 -2.90969 0
M  V30 6688 O 613.86 4.36842 -3.64908 0
M  V30 6689 N 615.062 5.42276 -2.07163 0
M  V30 6690 H 617.827 1.39426 -2.65293 0
M  V30 6691 H 615.388 0.621331 -1.49503 0
M  V30 6692 H 617.38 3.70687 -1.62399 0
M  V30 6693 H 615.95 3.01777 -0.815456 0
M  V30 6694 H 615.17 2.30607 -3.19709 0
M  V30 6695 H 616.458 3.343 -3.83563 0
M  V30 6696 H 615.856 5.46407 -1.46477 0
M  V30 6697 H 614.413 6.18524 -2.05601 0
M  V30 6698 N 617.846 1.41785 0.688094 0
M  V30 6699 C 619.262 1.24419 0.999608 0
M  V30 6700 C 619.462 0.138868 2.01021 0
M  V30 6701 O 618.518 -0.494283 2.47615 0
M  V30 6702 C 619.831 2.59625 1.51709 0
M  V30 6703 C 621.379 2.66869 1.63554 0
M  V30 6704 C 621.854 4.0241 2.18702 0
M  V30 6705 N 623.345 4.04295 2.26053 0
M  V30 6706 C 624.08 5.05977 2.69768 0
M  V30 6707 N 623.576 6.18047 3.13033 0
M  V30 6708 N 625.369 4.93336 2.69398 0
M  V30 6709 H 617.52 2.12392 0.0187427 0
M  V30 6710 H 619.783 0.945347 0.0708673 0
M  V30 6711 H 619.489 3.41297 0.849059 0
M  V30 6712 H 619.363 2.82628 2.49803 0
M  V30 6713 H 621.75 1.8555 2.29467 0
M  V30 6714 H 621.831 2.47668 0.639857 0
M  V30 6715 H 621.475 4.8418 1.53402 0
M  V30 6716 H 621.405 4.18955 3.19037 0
M  V30 6717 H 623.896 3.23383 1.9553 0
M  V30 6718 H 624.209 6.91498 3.45038 0
M  V30 6719 H 622.554 6.21572 3.10923 0
M  V30 6720 H 625.745 4.04865 2.34952 0
M  V30 6721 H 625.918 5.72717 3.03148 0
M  V30 6722 N 619.324 -0.923095 1.27737 0
M  V30 6723 C 620.234 -2.05765 1.12685 0
M  V30 6724 C 621.25 -1.73911 0.0557197 0
M  V30 6725 O 622.426 -1.99674 0.263137 0
M  V30 6726 C 619.491 -3.37804 0.780363 0
M  V30 6727 C 618.552 -3.83326 1.93286 0
M  V30 6728 C 617.785 -5.09064 1.60281 0
M  V30 6729 O 618.008 -5.6809 0.512828 0
M  V30 6730 O 616.942 -5.50071 2.44347 0
M  V30 6731 H 620.768 -2.21378 2.07907 0
M  V30 6732 H 618.353 -1.04299 1.06968 0
M  V30 6733 H 620.235 -4.17097 0.600668 0
M  V30 6734 H 618.91 -3.23387 -0.142291 0
M  V30 6735 H 617.817 -3.049 2.16764 0
M  V30 6736 H 619.15 -4.02292 2.83588 0
M  V30 6737 N 620.802 -1.09834 -1.13024 0
M  V30 6738 C 622.218 -0.828875 -1.36388 0
M  V30 6739 C 622.418 0.554756 -1.93713 0
M  V30 6740 O 621.474 1.30882 -2.15931 0
M  V30 6741 C 622.787 -1.92352 -2.3113 0
M  V30 6742 C 624.335 -1.95124 -2.44735 0
M  V30 6743 C 624.81 -3.03745 -3.42787 0
M  V30 6744 N 626.301 -3.03012 -3.5034 0
M  V30 6745 C 627.036 -3.83699 -4.26101 0
M  V30 6746 N 626.532 -4.74306 -5.04981 0
M  V30 6747 N 628.325 -3.71942 -4.21445 0
M  V30 6748 H 620.476 -1.99029 -0.74169 0
M  V30 6749 H 622.739 -0.864557 -0.388903 0
M  V30 6750 H 622.445 -2.91906 -1.96172 0
M  V30 6751 H 622.319 -1.80536 -3.3119 0
M  V30 6752 H 624.706 -0.962069 -2.78977 0
M  V30 6753 H 624.787 -2.11018 -1.44586 0
M  V30 6754 H 624.431 -4.02878 -3.09276 0
M  V30 6755 H 624.361 -2.85094 -4.42752 0
M  V30 6756 H 626.852 -2.37352 -2.94062 0
M  V30 6757 H 627.165 -5.32446 -5.60108 0
M  V30 6758 H 625.51 -4.78339 -5.04199 0
M  V30 6759 H 628.701 -3.00513 -3.589 0
M  V30 6760 H 628.874 -4.35062 -4.80235 0
M  V30 6761 N 622.28 1.30327 -0.886154 0
M  V30 6762 C 623.529 1.95373 -0.501243 0
M  V30 6763 C 623.842 1.70722 0.954634 0
M  V30 6764 O 625.048 2.29761 1.44644 0
M  V30 6765 C 623.504 3.49828 -0.845493 0
M  V30 6766 C 623.112 3.83296 -2.31922 0
M  V30 6767 C 624.856 4.2118 -0.529838 0
M  V30 6768 C 622.763 5.30935 -2.60504 0
M  V30 6769 H 621.693 0.731274 -0.183722 0
M  V30 6770 H 624.344 1.48258 -1.08129 0
M  V30 6771 H 622.726 3.95522 -0.19452 0
M  V30 6772 H 623.9 3.48508 -3.01461 0
M  V30 6773 H 622.215 3.2505 -2.60253 0
M  V30 6774 H 624.812 5.29825 -0.720401 0
M  V30 6775 H 625.155 4.12902 0.530828 0
M  V30 6776 H 625.688 3.81173 -1.13806 0
M  V30 6777 H 622.427 5.44265 -3.65316 0
M  V30 6778 H 621.947 5.67019 -1.95575 0
M  V30 6779 H 623.626 5.98381 -2.46066 0
M  V30 6780 N 623.758 0.647228 1.43697 0
M  V30 6781 C 624.668 -0.0487997 2.34549 0
M  V30 6782 C 625.684 -0.818586 1.53542 0
M  V30 6783 O 626.86 -0.767195 1.86215 0
M  V30 6784 C 623.925 -1.00734 3.31743 0
M  V30 6785 C 622.986 -0.23515 4.28655 0
M  V30 6786 C 622.219 -1.14803 5.21206 0
M  V30 6787 O 622.442 -2.38717 5.18045 0
M  V30 6788 O 621.376 -0.623667 5.9866 0
M  V30 6789 H 625.202 0.698863 2.9555 0
M  V30 6790 H 622.787 0.407412 1.43738 0
M  V30 6791 H 624.669 -1.55837 3.91526 0
M  V30 6792 H 623.344 -1.73534 2.73254 0
M  V30 6793 H 622.251 0.359319 3.7237 0
M  V30 6794 H 623.584 0.453152 4.9011 0
M  V30 6795 N 625.236 -1.5273 0.388769 0
M  V30 6796 C 626.166 -2.29353 -0.438111 0
M  V30 6797 C 627.147 -1.32719 -1.06394 0
M  V30 6798 O 628.332 -1.61612 -1.07681 0
M  V30 6799 C 625.462 -3.09995 -1.56589 0
M  V30 6800 C 624.416 -4.14509 -1.06613 0
M  V30 6801 C 623.742 -4.83372 -2.28594 0
M  V30 6802 C 625.042 -5.22127 -0.134459 0
M  V30 6803 H 626.736 -2.98723 0.201206 0
M  V30 6804 H 624.282 -1.43665 0.0982089 0
M  V30 6805 H 626.235 -3.62357 -2.15118 0
M  V30 6806 H 624.959 -2.38357 -2.23279 0
M  V30 6807 H 623.618 -3.63128 -0.503383 0
M  V30 6808 H 623.266 -4.08283 -2.93792 0
M  V30 6809 H 622.966 -5.54012 -1.95817 0
M  V30 6810 H 624.49 -5.38538 -2.87766 0
M  V30 6811 H 625.904 -5.69851 -0.627914 0
M  V30 6812 H 624.301 -6.00011 0.103534 0
M  V30 6813 H 625.371 -4.77971 0.816798 0
M  V30 6814 N 626.714 -0.118576 -1.57153 0
M  V30 6815 C 627.962 0.538461 -1.94795 0
M  V30 6816 C 628.283 1.67243 -1.00274 0
M  V30 6817 O 627.553 1.95811 -0.0589692 0
M  V30 6818 H 626.133 0.201904 -0.719197 0
M  V30 6819 H 628.795 -0.187418 -1.93997 0
M  V30 6820 H 627.891 0.933315 -2.97818 0
M  V30 6821 N 628.193 1.56834 0.155195 0
M  V30 6822 C 629.609 1.51315 0.50755 0
M  V30 6823 C 629.809 0.825614 1.83809 0
M  V30 6824 O 628.865 0.39271 2.49427 0
M  V30 6825 C 630.178 2.96074 0.52542 0
M  V30 6826 C 631.726 3.06968 0.611505 0
M  V30 6827 C 632.201 4.53218 0.660115 0
M  V30 6828 N 633.692 4.5753 0.722564 0
M  V30 6829 C 634.427 5.68056 0.781023 0
M  V30 6830 N 633.923 6.88173 0.799327 0
M  V30 6831 N 635.716 5.56068 0.821278 0
M  V30 6832 H 627.867 1.9993 -0.717063 0
M  V30 6833 H 630.13 0.911507 -0.260496 0
M  V30 6834 H 629.836 3.49599 -0.383875 0
M  V30 6835 H 629.71 3.51587 1.36624 0
M  V30 6836 H 632.097 2.53468 1.51122 0
M  V30 6837 H 632.178 2.54513 -0.256306 0
M  V30 6838 H 631.822 5.07354 -0.23541 0
M  V30 6839 H 631.752 5.03447 1.5443 0
M  V30 6840 H 634.243 3.71054 0.716049 0
M  V30 6841 H 634.556 7.6816 0.845553 0
M  V30 6842 H 632.901 6.90751 0.767337 0
M  V30 6843 H 636.092 4.61142 0.804091 0
M  V30 6844 H 636.265 6.42223 0.863372 0
M  V30 6845 N 629.671 -0.424282 1.51781 0
M  V30 6846 C 630.911 -1.18194 1.66762 0
M  V30 6847 C 631.275 -1.88164 0.381857 0
M  V30 6848 O 632.476 -2.65692 0.407586 0
M  V30 6849 C 630.747 -2.16173 2.84612 0
M  V30 6850 S 632.306 -3.0025 3.19993 0
M  V30 6851 H 629.124 -0.400626 0.587384 0
M  V30 6852 H 631.726 -0.471499 1.89729 0
M  V30 6853 H 630.43 -1.6343 3.76455 0
M  V30 6854 H 629.961 -2.91778 2.63873 0
M  V30 6855 H 631.976 -4.1796 2.67439 0
M  V30 6856 N 631.149 -1.42148 -0.680565 0
M  V30 6857 C 632.398 -1.41604 -1.43636 0
M  V30 6858 C 632.711 -0.0337887 -1.95571 0
M  V30 6859 O 633.917 0.0942588 -2.71336 0
M  V30 6860 C 632.373 -2.49056 -2.59806 0
M  V30 6861 C 631.981 -3.9326 -2.14594 0
M  V30 6862 C 633.725 -2.5767 -3.37352 0
M  V30 6863 C 631.632 -4.92232 -3.27813 0
M  V30 6864 H 630.562 -0.526656 -0.539583 0
M  V30 6865 H 633.213 -1.68033 -0.737369 0
M  V30 6866 H 631.595 -2.15782 -3.32045 0
M  V30 6867 H 632.769 -4.35858 -1.49546 0
M  V30 6868 H 631.084 -3.88443 -1.50002 0
M  V30 6869 H 633.681 -3.28794 -4.21662 0
M  V30 6870 H 634.024 -1.61837 -3.83555 0
M  V30 6871 H 634.557 -2.90109 -2.72179 0
M  V30 6872 H 631.296 -5.89522 -2.86607 0
M  V30 6873 H 630.816 -4.5427 -3.91661 0
M  V30 6874 H 632.495 -5.13684 -3.93367 0
M  V30 6875 N 632.627 0.916307 -1.28225 0
M  V30 6876 C 633.875 1.6619 -1.15002 0
M  V30 6877 C 634.196 1.92642 0.302329 0
M  V30 6878 O 633.466 1.54076 1.20985 0
M  V30 6879 H 632.046 0.615964 -0.422608 0
M  V30 6880 H 634.708 1.09963 -1.60917 0
M  V30 6881 H 633.804 2.62533 -1.68769 0
M  V30 6882 N 634.105 1.10431 1.1244 0
M  V30 6883 C 635.015 0.765502 2.21759 0
M  V30 6884 C 636.031 -0.236966 1.72379 0
M  V30 6885 O 637.207 -0.0757329 2.01258 0
M  V30 6886 C 634.272 0.202316 3.46109 0
M  V30 6887 C 633.333 1.26205 4.1033 0
M  V30 6888 C 632.566 0.725648 5.28744 0
M  V30 6889 O 632.789 -0.447942 5.68638 0
M  V30 6890 O 631.723 1.48555 5.83279 0
M  V30 6891 H 635.549 1.67801 2.53133 0
M  V30 6892 H 633.134 0.879443 1.20773 0
M  V30 6893 H 635.016 -0.107918 4.21262 0
M  V30 6894 H 633.691 -0.683052 3.16411 0
M  V30 6895 H 632.598 1.62514 3.36957 0
M  V30 6896 H 633.931 2.12044 4.44183 0
M  V30 6897 N 635.583 -1.29855 0.893053 0
M  V30 6898 C 636.831 -1.9544 0.514566 0
M  V30 6899 C 637.152 -1.70795 -0.940959 0
M  V30 6900 O 636.422 -1.03601 -1.66264 0
M  V30 6901 H 635.002 -0.723137 0.187302 0
M  V30 6902 H 637.664 -1.58234 1.13789 0
M  V30 6903 H 636.76 -3.04341 0.691581 0
M  V30 6904 N 637.061 -0.65484 -1.43351 0
M  V30 6905 C 637.993 0.0744757 -2.29079 0
M  V30 6906 C 639.006 0.7855 -1.42596 0
M  V30 6907 O 640.195 0.642986 -1.66517 0
M  V30 6908 C 637.295 1.12859 -3.19556 0
M  V30 6909 C 636.468 0.495381 -4.34586 0
M  V30 6910 C 635.527 1.44659 -5.05925 0
M  V30 6911 O 634.553 0.954567 -5.61139 0
M  V30 6912 N 635.755 2.78051 -5.09576 0
M  V30 6913 H 638.52 -0.661346 -2.92312 0
M  V30 6914 H 636.081 -0.497744 -1.54059 0
M  V30 6915 H 638.073 1.76577 -3.64147 0
M  V30 6916 H 636.643 1.76636 -2.57912 0
M  V30 6917 H 635.863 -0.32092 -3.92892 0
M  V30 6918 H 637.151 0.0534203 -5.08772 0
M  V30 6919 H 636.549 3.20584 -4.66093 0
M  V30 6920 H 635.106 3.37068 -5.57878 0
M  V30 6921 N 638.539 1.52521 -0.396863 0
M  V30 6922 C 639.786 2.01672 0.182898 0
M  V30 6923 C 640.114 1.28302 1.46181 0
M  V30 6924 O 639.369 0.374118 1.92091 0
M  V30 6925 C 639.668 3.5403 0.489677 0
M  V30 6926 C 639.334 4.45456 -0.698581 0
M  V30 6927 C 637.996 4.70166 -1.02454 0
M  V30 6928 C 640.348 4.99354 -1.49316 0
M  V30 6929 C 637.676 5.46024 -2.1465 0
M  V30 6930 C 640.028 5.76439 -2.60579 0
M  V30 6931 C 638.692 5.99426 -2.93675 0
M  V30 6932 H 637.962 0.737971 0.066927 0
M  V30 6933 H 640.609 1.83853 -0.535764 0
M  V30 6934 H 638.914 3.69963 1.28976 0
M  V30 6935 H 640.611 3.8956 0.951018 0
M  V30 6936 H 637.201 4.26392 -0.434525 0
M  V30 6937 H 641.385 4.80182 -1.25457 0
M  V30 6938 H 636.641 5.62046 -2.40654 0
M  V30 6939 H 640.815 6.17202 -3.22544 0
M  V30 6940 H 638.442 6.57988 -3.80731 0
M  V30 6941 N 640.017 0.126909 1.57088 0
M  V30 6942 C 641.265 -0.528123 1.95078 0
M  V30 6943 C 641.586 -1.66708 1.0116 0
M  V30 6944 O 640.856 -1.95777 0.0693527 0
M  V30 6945 H 639.436 -0.198087 0.720257 0
M  V30 6946 H 642.098 0.197703 1.93895 0
M  V30 6947 H 641.194 -0.917507 2.98309 0
M  V30 6948 N 641.495 -1.56914 -0.146875 0
M  V30 6949 C 642.772 -1.74273 -0.888165 0
M  V30 6950 C 643.152 -0.69496 -1.99333 0
M  V30 6951 O 642.5 0.286093 -2.26702 0
M  V30 6952 C 642.71 -3.18336 -1.43051 0
M  V30 6953 C 644.058 -3.80024 -1.89387 0
M  V30 6954 O 645.082 -3.21765 -1.52792 0
M  V30 6955 O 643.941 -4.82367 -2.56874 0
M  V30 6956 H 641.035 -0.712565 -0.419738 0
M  V30 6957 H 643.581 -1.6918 -0.132791 0
M  V30 6958 H 642.353 -3.86092 -0.636274 0
M  V30 6959 H 641.976 -3.27854 -2.24938 0
M  V30 6960 N 642.974 0.416227 -1.52004 0
M  V30 6961 C 644.22 1.16555 -1.6596 0
M  V30 6962 C 644.553 1.90347 -0.384906 0
M  V30 6963 O 643.828 1.84474 0.616405 0
M  V30 6964 C 644.111 2.1657 -2.87696 0
M  V30 6965 C 643.964 1.46722 -4.25197 0
M  V30 6966 C 645.283 3.17321 -3.04951 0
M  V30 6967 H 642.402 0.422369 -0.603965 0
M  V30 6968 H 645.044 0.452141 -1.84542 0
M  V30 6969 H 643.194 2.77411 -2.71985 0
M  V30 6970 H 644.866 0.89056 -4.52622 0
M  V30 6971 H 643.109 0.769263 -4.26925 0
M  V30 6972 H 643.78 2.19665 -5.0641 0
M  V30 6973 H 646.256 2.66552 -3.19514 0
M  V30 6974 H 645.132 3.84573 -3.91656 0
M  V30 6975 H 645.393 3.84643 -2.17951 0
M  V30 6976 N 644.452 1.42507 0.673017 0
M  V30 6977 C 645.402 1.4258 1.77919 0
M  V30 6978 C 646.386 0.296885 1.58137 0
M  V30 6979 O 647.578 0.539243 1.68586 0
M  V30 6980 C 644.707 1.33238 3.1639 0
M  V30 6981 C 643.793 2.51081 3.41788 0
M  V30 6982 N 644.184 3.76498 3.37761 0
M  V30 6983 C 642.482 2.4538 3.72431 0
M  V30 6984 C 643.183 4.54784 3.62693 0
M  V30 6985 N 642.159 3.8522 3.83544 0
M  V30 6986 H 645.961 2.37442 1.73201 0
M  V30 6987 H 643.475 1.36881 0.873924 0
M  V30 6988 H 645.472 1.31372 3.9566 0
M  V30 6989 H 644.132 0.393794 3.22303 0
M  V30 6990 H 645.143 4.09068 3.17622 0
M  V30 6991 H 641.82 1.60109 3.85579 0
M  V30 6992 H 643.21 5.63774 3.65525 0
M  V30 6993 N 645.93 -0.909495 1.28709 0
M  V30 6994 C 646.862 -2.01729 1.08804 0
M  V30 6995 C 647.875 -1.62755 0.0384739 0
M  V30 6996 O 649.064 -1.76259 0.281977 0
M  V30 6997 C 646.164 -3.32952 0.63217 0
M  V30 6998 C 645.337 -4.00512 1.75809 0
M  V30 6999 C 644.396 -5.10019 1.29488 0
M  V30 7000 O 643.422 -5.32986 1.99787 0
M  V30 7001 N 644.624 -5.80278 0.1604 0
M  V30 7002 H 647.389 -2.19362 2.04207 0
M  V30 7003 H 644.95 -1.08106 1.20518 0
M  V30 7004 H 646.942 -4.03543 0.305802 0
M  V30 7005 H 645.512 -3.11759 -0.229134 0
M  V30 7006 H 644.732 -3.23413 2.25383 0
M  V30 7007 H 646.02 -4.42395 2.51325 0
M  V30 7008 H 645.418 -5.64094 -0.425937 0
M  V30 7009 H 643.975 -6.51713 -0.106663 0
M  V30 7010 N 647.408 -1.11026 -1.11852 0
M  V30 7011 C 648.656 -0.854769 -1.83134 0
M  V30 7012 C 648.977 0.621375 -1.84835 0
M  V30 7013 O 648.247 1.45129 -1.31584 0
M  V30 7014 H 646.827 -0.313229 -0.678157 0
M  V30 7015 H 649.489 -1.40178 -1.35411 0
M  V30 7016 H 648.585 -1.22311 -2.87135 0
M  V30 7017 N 648.886 1.2938 -0.899927 0
M  V30 7018 C 650.135 1.9483 -0.521937 0
M  V30 7019 C 650.448 1.71725 0.936473 0
M  V30 7020 O 651.654 2.31282 1.42199 0
M  V30 7021 C 650.11 3.48911 -0.88255 0
M  V30 7022 C 649.718 3.80815 -2.35974 0
M  V30 7023 C 651.462 4.20595 -0.57448 0
M  V30 7024 C 649.369 5.28142 -2.66121 0
M  V30 7025 H 648.299 0.729285 -0.191468 0
M  V30 7026 H 650.95 1.47103 -1.09695 0
M  V30 7027 H 649.332 3.95293 -0.236459 0
M  V30 7028 H 650.506 3.45291 -3.05141 0
M  V30 7029 H 648.821 3.22271 -2.63686 0
M  V30 7030 H 651.418 5.29031 -0.776556 0
M  V30 7031 H 651.761 4.13442 0.487005 0
M  V30 7032 H 652.294 3.79945 -1.17842 0
M  V30 7033 H 649.033 5.4036 -3.71068 0
M  V30 7034 H 648.553 5.64913 -2.01578 0
M  V30 7035 H 650.232 5.95738 -2.52399 0
M  V30 7036 N 650.364 0.662433 1.43002 0
M  V30 7037 C 651.594 0.187343 2.05749 0
M  V30 7038 C 652.002 -1.15582 1.49791 0
M  V30 7039 O 651.345 -1.72651 0.627487 0
M  V30 7040 C 651.407 0.0316493 3.59486 0
M  V30 7041 C 651.071 1.30156 4.38073 0
M  V30 7042 C 652.068 2.23234 4.69535 0
M  V30 7043 C 649.753 1.54572 4.77926 0
M  V30 7044 C 651.747 3.39012 5.39768 0
M  V30 7045 C 649.434 2.70641 5.47902 0
M  V30 7046 C 650.432 3.62687 5.78746 0
M  V30 7047 O 650.12 4.76728 6.47291 0
M  V30 7048 H 649.852 0.0915214 0.669776 0
M  V30 7049 H 652.406 0.905982 1.8434 0
M  V30 7050 H 650.636 -0.742451 3.79506 0
M  V30 7051 H 652.325 -0.401977 4.03905 0
M  V30 7052 H 653.091 2.05616 4.39257 0
M  V30 7053 H 648.97 0.83804 4.53319 0
M  V30 7054 H 652.514 4.10877 5.63761 0
M  V30 7055 H 648.411 2.88189 5.77596 0
M  V30 7056 H 649.179 4.76113 6.65777 0
M  V30 7057 N 651.842 -1.52309 0.404946 0
M  V30 7058 C 652.775 -2.23369 -0.467087 0
M  V30 7059 C 653.753 -1.24034 -1.0514 0
M  V30 7060 O 654.937 -1.53071 -1.10006 0
M  V30 7061 C 652.064 -2.95906 -1.64795 0
M  V30 7062 C 651.11 -4.09637 -1.18743 0
M  V30 7063 S 651.943 -5.35273 -0.156022 0
M  V30 7064 C 653.099 -6.11337 -1.34231 0
M  V30 7065 H 653.332 -2.96987 0.136294 0
M  V30 7066 H 650.865 -1.53236 0.189219 0
M  V30 7067 H 652.823 -3.38304 -2.3251 0
M  V30 7068 H 651.484 -2.21937 -2.22267 0
M  V30 7069 H 650.677 -4.59549 -2.06955 0
M  V30 7070 H 650.279 -3.69333 -0.588981 0
M  V30 7071 H 652.571 -6.38458 -2.26665 0
M  V30 7072 H 653.514 -7.02563 -0.883804 0
M  V30 7073 H 653.922 -5.42338 -1.56621 0
M  V30 7074 N 653.32 -0.135238 -1.57019 0
M  V30 7075 C 654.545 0.529343 -2.00531 0
M  V30 7076 C 654.97 1.58391 -1.01459 0
M  V30 7077 O 654.328 1.81296 0.0113986 0
M  V30 7078 C 654.376 1.11748 -3.42848 0
M  V30 7079 O 653.48 2.23267 -3.46736 0
M  V30 7080 H 652.821 0.130669 -0.651016 0
M  V30 7081 H 655.351 -0.228503 -2.0332 0
M  V30 7082 H 655.361 1.44905 -3.81401 0
M  V30 7083 H 654.036 0.345147 -4.14465 0
M  V30 7084 H 652.613 1.91428 -3.20015 0
M  V30 7085 N 654.798 1.5699 0.138552 0
M  V30 7086 C 656.209 1.73171 0.697754 0
M  V30 7087 C 656.56 0.750952 1.8126 0
M  V30 7088 O 655.685 -0.080549 2.1625 0
M  V30 7089 C 656.28 3.13996 1.27248 0
M  V30 7090 C 654.839 3.3175 1.77816 0
M  V30 7091 C 653.986 2.69084 0.669991 0
M  V30 7092 H 656.937 1.5846 -0.0871979 0
M  V30 7093 H 656.958 3.14463 2.14227 0
M  V30 7094 H 656.47 3.85354 0.460855 0
M  V30 7095 H 654.571 2.65403 2.61519 0
M  V30 7096 H 654.684 4.39768 1.90107 0
M  V30 7097 H 653.048 2.29782 1.09874 0
M  V30 7098 H 653.831 3.43053 -0.130329 0
M  V30 7099 N 656.276 -0.40816 1.52223 0
M  V30 7100 C 657.186 -1.52202 1.78526 0
M  V30 7101 C 658.202 -1.60546 0.670892 0
M  V30 7102 O 659.378 -1.77242 0.956404 0
M  V30 7103 C 656.443 -2.87928 1.93128 0
M  V30 7104 C 655.504 -2.89463 3.17033 0
M  V30 7105 C 654.737 -4.18715 3.30929 0
M  V30 7106 O 654.96 -5.12662 2.50067 0
M  V30 7107 O 653.894 -4.27125 4.24084 0
M  V30 7108 H 657.72 -1.32911 2.73072 0
M  V30 7109 H 655.305 -0.594112 1.37079 0
M  V30 7110 H 657.187 -3.68426 2.04549 0
M  V30 7111 H 655.862 -3.07285 1.01772 0
M  V30 7112 H 654.769 -2.07815 3.11069 0
M  V30 7113 H 656.102 -2.75055 4.08174 0
M  V30 7114 N 657.755 -1.42862 -0.66545 0
M  V30 7115 C 658.703 -1.47319 -1.8 0
M  V30 7116 C 659.697 -0.347963 -1.65788 0
M  V30 7117 O 660.903 -0.521406 -1.72283 0
M  V30 7118 H 657.278 -0.461588 -0.593667 0
M  V30 7119 H 659.249 -2.42876 -1.7336 0
M  V30 7120 C 657.998 -1.40152 -3.18203 0
M  V30 7121 H 657.321 -2.26035 -3.2977 0
M  V30 7122 H 658.761 -1.47331 -3.9758 0
M  V30 7123 C 657.22 -0.117493 -3.36695 0
M  V30 7124 O 657.75 0.826058 -3.93115 0
M  V30 7125 N 655.956 -0.0316218 -2.90583 0
M  V30 7126 H 655.503 -0.800247 -2.44855 0
M  V30 7127 H 655.461 0.826835 -3.03333 0
M  V30 7128 N 659.233 0.902656 -1.29189 0
M  V30 7129 C 660.644 1.46809 -1.15343 0
M  V30 7130 C 660.995 1.94568 0.252517 0
M  V30 7131 O 660.12 1.83454 1.14777 0
M  V30 7132 C 660.715 2.66829 -2.08776 0
M  V30 7133 C 659.274 3.19518 -1.98961 0
M  V30 7134 C 658.421 1.92212 -1.99874 0
M  V30 7135 H 661.372 0.714282 -1.41717 0
M  V30 7136 H 661.393 3.42465 -1.65826 0
M  V30 7137 H 660.905 2.32039 -3.11094 0
M  V30 7138 H 659.006 3.59008 -0.99721 0
M  V30 7139 H 659.119 3.84016 -2.86477 0
M  V30 7140 H 657.483 2.0979 -1.44431 0
M  V30 7141 H 658.266 1.59702 -3.03891 0
M  V30 7142 N 660.711 1.11618 1.11262 0
M  V30 7143 C 661.674 0.779447 2.15539 0
M  V30 7144 C 662.674 -0.202081 1.59525 0
M  V30 7145 O 663.864 0.0226356 1.74185 0
M  V30 7146 C 660.996 0.15674 3.40539 0
M  V30 7147 H 662.189 1.70324 2.4684 0
M  V30 7148 H 659.742 0.918298 1.26479 0
M  V30 7149 H 660.477 -0.777186 3.1485 0
M  V30 7150 H 660.262 0.863308 3.82478 0
M  V30 7151 H 661.752 -0.062661 4.17553 0
M  V30 7152 N 662.189 -1.289 0.906776 0
M  V30 7153 C 663.119 -2.29932 0.406659 0
M  V30 7154 C 664.1 -1.6189 -0.522061 0
M  V30 7155 O 665.285 -1.8935 -0.431283 0
M  V30 7156 C 662.415 -3.45425 -0.360366 0
M  V30 7157 C 661.369 -4.25316 0.478574 0
M  V30 7158 C 660.695 -5.33076 -0.416373 0
M  V30 7159 C 661.995 -4.92739 1.7322 0
M  V30 7160 H 663.689 -2.72013 1.25097 0
M  V30 7161 H 661.235 -1.30768 0.602977 0
M  V30 7162 H 663.188 -4.15186 -0.721029 0
M  V30 7163 H 661.912 -3.02206 -1.23852 0
M  V30 7164 H 660.571 -3.57273 0.821662 0
M  V30 7165 H 660.219 -4.86101 -1.29287 0
M  V30 7166 H 659.919 -5.8743 0.141309 0
M  V30 7167 H 661.443 -6.05686 -0.773072 0
M  V30 7168 H 662.857 -5.54898 1.44086 0
M  V30 7169 H 661.254 -5.57057 2.23175 0
M  V30 7170 H 662.324 -4.17625 2.46408 0
M  V30 7171 N 663.667 -0.670007 -1.42649 0
M  V30 7172 C 664.63 0.00204659 -2.292 0
M  V30 7173 C 665.63 0.733817 -1.4308 0
M  V30 7174 O 666.82 0.57254 -1.64522 0
M  V30 7175 C 663.952 1.01359 -3.25483 0
M  V30 7176 H 665.145 -0.759696 -2.90118 0
M  V30 7177 H 662.698 -0.432105 -1.50208 0
M  V30 7178 H 663.433 1.80399 -2.69493 0
M  V30 7179 H 663.218 0.492323 -3.88997 0
M  V30 7180 H 664.708 1.4824 -3.90403 0
M  V30 7181 N 665.145 1.52092 -0.413018 0
M  V30 7182 C 666.391 2.02154 0.161737 0
M  V30 7183 C 666.724 1.29789 1.44459 0
M  V30 7184 O 665.999 0.405378 1.90229 0
M  V30 7185 C 666.282 3.5781 0.405463 0
M  V30 7186 C 666.135 4.40819 -0.894335 0
M  V30 7187 C 667.454 4.23821 1.18591 0
M  V30 7188 H 664.573 0.734769 0.0573077 0
M  V30 7189 H 667.215 1.81948 -0.547247 0
M  V30 7190 H 665.365 3.75158 1.0094 0
M  V30 7191 H 667.037 4.35175 -1.53039 0
M  V30 7192 H 665.28 4.06877 -1.50444 0
M  V30 7193 H 665.951 5.47819 -0.678144 0
M  V30 7194 H 668.427 4.10596 0.674573 0
M  V30 7195 H 667.303 5.32663 1.3252 0
M  V30 7196 H 667.564 3.83038 2.20758 0
M  V30 7197 N 666.623 0.143563 1.56945 0
M  V30 7198 C 667.586 -0.783295 2.154 0
M  V30 7199 C 668.586 -1.17763 1.09492 0
M  V30 7200 O 669.776 -1.09912 1.35148 0
M  V30 7201 C 666.908 -2.06248 2.7143 0
M  V30 7202 H 668.101 -0.274863 2.98638 0
M  V30 7203 H 665.654 -0.105859 1.55941 0
M  V30 7204 H 666.389 -2.61466 1.91849 0
M  V30 7205 H 666.174 -1.78897 3.4891 0
M  V30 7206 H 667.664 -2.72453 3.16479 0
M  V30 7207 N 668.101 -1.57061 -0.130224 0
M  V30 7208 C 669.35 -1.83446 -0.838488 0
M  V30 7209 C 669.663 -0.727468 -1.81569 0
M  V30 7210 O 670.869 -0.877394 -2.56932 0
M  V30 7211 C 669.325 -3.25201 -1.54182 0
M  V30 7212 C 668.933 -4.4388 -0.606178 0
M  V30 7213 C 670.677 -3.60844 -2.23588 0
M  V30 7214 C 668.584 -5.76661 -1.31209 0
M  V30 7215 H 667.514 -0.684185 -0.316871 0
M  V30 7216 H 670.165 -1.83273 -0.0912059 0
M  V30 7217 H 668.547 -3.1981 -2.33533 0
M  V30 7218 H 669.721 -4.60545 0.153308 0
M  V30 7219 H 668.036 -4.16395 -0.0196705 0
M  V30 7220 H 670.633 -4.57313 -2.77072 0
M  V30 7221 H 670.976 -2.87724 -3.00867 0
M  V30 7222 H 671.509 -3.67971 -1.51137 0
M  V30 7223 H 668.248 -6.52922 -0.580823 0
M  V30 7224 H 667.768 -5.63902 -2.04387 0
M  V30 7225 H 669.447 -6.20035 -1.8484 0
M  V30 7226 N 669.579 0.400081 -1.52437 0
M  V30 7227 C 670.526 1.48803 -1.76426 0
M  V30 7228 C 671.496 1.5461 -0.607032 0
M  V30 7229 O 672.681 1.71041 -0.845563 0
M  V30 7230 C 669.821 2.86156 -1.92896 0
M  V30 7231 C 668.934 2.89587 -3.20567 0
M  V30 7232 C 668.069 4.18296 -3.27417 0
M  V30 7233 C 667.108 4.15736 -4.49255 0
M  V30 7234 N 666.245 5.36032 -4.53447 0
M  V30 7235 H 671.085 1.27649 -2.69276 0
M  V30 7236 H 668.622 0.619451 -1.33421 0
M  V30 7237 H 670.58 3.65901 -2.00429 0
M  V30 7238 H 669.21 3.05785 -1.03418 0
M  V30 7239 H 668.262 2.02278 -3.22161 0
M  V30 7240 H 669.574 2.83562 -4.10358 0
M  V30 7241 H 668.728 5.06439 -3.34072 0
M  V30 7242 H 667.467 4.27028 -2.35581 0
M  V30 7243 H 666.472 3.25982 -4.42737 0
M  V30 7244 H 667.697 4.08636 -5.42396 0
M  V30 7245 H 665.643 5.45415 -3.64498 0
M  V30 7246 H 665.56 5.32038 -5.37096 0
M  V30 7247 H 666.828 6.26104 -4.64343 0
M  V30 7248 N 671.057 1.43213 0.657864 0
M  V30 7249 C 672.285 1.48015 1.44566 0
M  V30 7250 C 672.7 0.0965951 1.88553 0
M  V30 7251 O 672.057 -0.892221 1.59203 0
M  V30 7252 C 672.108 2.42199 2.68369 0
M  V30 7253 O 671.829 3.75173 2.26223 0
M  V30 7254 C 673.33 2.56195 3.61772 0
M  V30 7255 H 670.55 0.502861 0.444266 0
M  V30 7256 H 673.094 1.87907 0.806917 0
M  V30 7257 H 671.249 2.05514 3.28394 0
M  V30 7258 H 671.663 4.25776 3.06293 0
M  V30 7259 H 673.137 3.26182 4.4532 0
M  V30 7260 H 673.614 1.60534 4.0881 0
M  V30 7261 H 674.22 2.93671 3.07632 0
M  V30 7262 N 672.536 -0.895792 1.29666 0
M  V30 7263 C 673.776 -1.6609 1.19136 0
M  V30 7264 C 674.14 -1.90336 -0.252245 0
M  V30 7265 O 675.341 -2.64469 -0.480593 0
M  V30 7266 C 673.612 -2.97129 1.98618 0
M  V30 7267 S 675.171 -3.88146 2.04666 0
M  V30 7268 H 671.989 -0.570188 0.424744 0
M  V30 7269 H 674.591 -1.06411 1.64003 0
M  V30 7270 H 673.295 -2.77199 3.02637 0
M  V30 7271 H 672.826 -3.61847 1.54371 0
M  V30 7272 H 674.841 -4.82301 1.16618 0
M  V30 7273 N 674.014 -1.12206 -1.10668 0
M  V30 7274 C 674.961 -0.787716 -2.16942 0
M  V30 7275 C 675.931 0.244442 -1.64291 0
M  V30 7276 O 677.116 0.119558 -1.90425 0
M  V30 7277 C 674.256 -0.24584 -3.44223 0
M  V30 7278 C 673.369 -1.33552 -4.10838 0
M  V30 7279 C 672.504 -0.753337 -5.25831 0
M  V30 7280 C 671.543 -1.82231 -5.84344 0
M  V30 7281 N 670.68 -1.25902 -6.90719 0
M  V30 7282 H 675.52 -1.69809 -2.44885 0
M  V30 7283 H 673.057 -0.847862 -1.20207 0
M  V30 7284 H 675.015 0.0863639 -4.17111 0
M  V30 7285 H 673.645 0.627702 -3.16638 0
M  V30 7286 H 672.697 -1.78454 -3.35944 0
M  V30 7287 H 674.009 -2.14396 -4.50373 0
M  V30 7288 H 673.163 -0.37166 -6.05561 0
M  V30 7289 H 671.902 0.0863297 -4.87624 0
M  V30 7290 H 670.907 -2.2132 -5.03287 0
M  V30 7291 H 672.132 -2.66515 -6.24617 0
M  V30 7292 H 670.078 -0.44114 -6.54515 0
M  V30 7293 H 669.995 -2.00408 -7.28953 0
M  V30 7294 H 671.263 -0.904498 -7.74235 0
M  V30 7295 N 675.492 1.28418 -0.913599 0
M  V30 7296 C 676.44 2.29272 -0.392037 0
M  V30 7297 C 677.434 1.61344 0.516198 0
M  V30 7298 O 678.64 1.75557 0.39746 0
M  V30 7299 H 675.015 0.744178 -0.108178 0
M  V30 7300 H 676.986 2.70691 -1.25574 0
M  V30 7301 C 675.735 3.45905 0.352815 0
M  V30 7302 H 675.058 3.98378 -0.336848 0
M  V30 7303 H 676.498 4.18473 0.682398 0
M  V30 7304 C 674.957 2.98572 1.56065 0
M  V30 7305 O 675.487 3.01033 2.65974 0
M  V30 7306 N 673.693 2.54235 1.40759 0
M  V30 7307 H 673.24 2.52432 0.513403 0
M  V30 7308 H 673.198 2.22925 2.21702 0
M  V30 7309 N 676.97 0.677563 1.42291 0
M  V30 7310 C 678.21 0.204894 2.0337 0
M  V30 7311 C 678.574 -1.16744 1.5243 0
M  V30 7312 O 679.775 -1.73492 2.05314 0
M  V30 7313 C 678.046 0.240742 3.56588 0
M  V30 7314 S 679.605 -0.16052 4.38506 0
M  V30 7315 H 676.423 0.0839932 0.706021 0
M  V30 7316 H 679.025 0.891332 1.73999 0
M  V30 7317 H 677.729 1.24184 3.91161 0
M  V30 7318 H 677.26 -0.465439 3.90637 0
M  V30 7319 H 679.275 -1.39315 4.76241 0
M  V30 7320 N 678.448 -1.51871 0.421078 0
M  V30 7321 C 679.676 -2.06356 -0.14994 0
M  V30 7322 C 680.091 -1.29006 -1.37851 0
M  V30 7323 O 679.448 -0.345139 -1.79207 0
M  V30 7324 C 679.499 -3.58185 -0.488454 0
M  V30 7325 O 679.22 -4.32611 0.691341 0
M  V30 7326 C 680.721 -4.29129 -1.11191 0
M  V30 7327 H 677.941 -0.67083 -0.0151186 0
M  V30 7328 H 680.485 -1.95638 0.595476 0
M  V30 7329 H 678.64 -3.68871 -1.18376 0
M  V30 7330 H 679.054 -5.22927 0.405906 0
M  V30 7331 H 680.528 -5.36501 -1.29889 0
M  V30 7332 H 681.005 -3.86371 -2.0884 0
M  V30 7333 H 681.611 -4.22843 -0.456458 0
M  V30 7334 N 679.926 -0.151884 -1.56866 0
M  V30 7335 C 681.151 0.508044 -2.01081 0
M  V30 7336 C 681.576 1.57306 -1.03134 0
M  V30 7337 O 680.934 1.81298 -0.0078309 0
M  V30 7338 C 680.982 1.08106 -3.44014 0
M  V30 7339 O 680.086 2.19577 -3.49084 0
M  V30 7340 H 679.427 0.123757 -0.652365 0
M  V30 7341 H 681.957 -0.250055 -2.03066 0
M  V30 7342 H 681.967 1.40851 -3.82916 0
M  V30 7343 H 680.642 0.301168 -4.14808 0
M  V30 7344 H 679.219 1.88023 -3.22027 0
M  V30 7345 N 681.404 1.57128 0.121893 0
M  V30 7346 C 682.681 1.75664 0.860327 0
M  V30 7347 C 683.061 0.726585 1.98202 0
M  V30 7348 O 682.409 -0.24999 2.27128 0
M  V30 7349 C 682.619 3.20571 1.37968 0
M  V30 7350 C 683.967 3.82988 1.83317 0
M  V30 7351 O 684.991 3.24156 1.47654 0
M  V30 7352 O 683.85 4.86393 2.49168 0
M  V30 7353 H 680.944 0.719153 0.408348 0
M  V30 7354 H 683.49 1.6937 0.105859 0
M  V30 7355 H 682.262 3.87056 0.57477 0
M  V30 7356 H 681.885 3.31392 2.19694 0
M  V30 7357 N 682.882 -0.391992 1.52647 0
M  V30 7358 C 684.107 -1.16312 1.71716 0
M  V30 7359 C 684.532 -1.83042 0.433279 0
M  V30 7360 O 683.89 -1.70705 -0.610707 0
M  V30 7361 C 683.938 -2.18908 2.86551 0
M  V30 7362 O 683.042 -3.2543 2.53316 0
M  V30 7363 H 682.383 -0.338743 0.571095 0
M  V30 7364 H 684.913 -0.457202 1.99426 0
M  V30 7365 H 684.923 -2.62954 3.1196 0
M  V30 7366 H 683.598 -1.69726 3.79692 0
M  V30 7367 H 682.175 -2.86543 2.38637 0
M  V30 7368 N 684.36 -1.4356 -0.65026 0
M  V30 7369 C 685.606 -1.45549 -1.41221 0
M  V30 7370 C 685.939 -0.0805472 -1.94033 0
M  V30 7371 O 685.214 0.899043 -1.72475 0
M  V30 7372 C 685.497 -2.50028 -2.59148 0
M  V30 7373 C 685.35 -3.96808 -2.1181 0
M  V30 7374 C 686.669 -2.51212 -3.61359 0
M  V30 7375 H 683.788 -0.529967 -0.512156 0
M  V30 7376 H 686.43 -1.75127 -0.736933 0
M  V30 7377 H 684.58 -2.24937 -3.16758 0
M  V30 7378 H 686.252 -4.32966 -1.59178 0
M  V30 7379 H 684.495 -4.09498 -1.43156 0
M  V30 7380 H 685.166 -4.6553 -2.96625 0
M  V30 7381 H 687.642 -2.73583 -3.13515 0
M  V30 7382 H 686.518 -3.26252 -4.41419 0
M  V30 7383 H 686.779 -1.54701 -4.1415 0
M  V30 7384 N 685.838 0.888903 -1.30139 0
M  V30 7385 C 687.254 1.17153 -1.08385 0
M  V30 7386 C 687.454 2.0088 0.157925 0
M  V30 7387 O 686.51 2.37668 0.852652 0
M  V30 7388 C 687.823 1.882 -2.34523 0
M  V30 7389 C 689.371 2.00981 -2.39949 0
M  V30 7390 C 689.846 2.75441 -3.65918 0
M  V30 7391 N 691.337 2.82989 -3.66704 0
M  V30 7392 C 692.072 3.41167 -4.60861 0
M  V30 7393 N 691.568 4.00425 -5.6536 0
M  V30 7394 N 693.361 3.38944 -4.48412 0
M  V30 7395 H 685.512 0.33053 -2.09812 0
M  V30 7396 H 687.775 0.208964 -0.924683 0
M  V30 7397 H 687.481 1.34119 -3.25123 0
M  V30 7398 H 687.355 2.88609 -2.42868 0
M  V30 7399 H 689.742 2.54234 -1.4983 0
M  V30 7400 H 689.823 0.996725 -2.35582 0
M  V30 7401 H 689.467 2.22861 -4.56394 0
M  V30 7402 H 689.397 3.77118 -3.67546 0
M  V30 7403 H 691.888 2.40912 -2.91153 0
M  V30 7404 H 692.201 4.42871 -6.33313 0
M  V30 7405 H 690.546 3.98856 -5.69157 0
M  V30 7406 H 693.737 2.91875 -3.6596 0
M  V30 7407 H 693.91 3.83989 -5.21974 0
M  V30 7408 N 687.317 1.12792 1.10072 0
M  V30 7409 C 688.227 0.812369 2.20086 0
M  V30 7410 C 689.243 -0.200349 1.72843 0
M  V30 7411 O 690.419 -0.0330262 2.01373 0
M  V30 7412 C 687.484 0.275685 3.45602 0
M  V30 7413 C 686.545 1.34881 4.07561 0
M  V30 7414 C 685.778 0.837639 5.27086 0
M  V30 7415 O 686.001 -0.327224 5.69461 0
M  V30 7416 O 684.935 1.60894 5.79997 0
M  V30 7417 H 688.761 1.73133 2.49517 0
M  V30 7418 H 686.346 0.904863 1.18881 0
M  V30 7419 H 688.228 -0.0185375 4.21396 0
M  V30 7420 H 686.903 -0.615783 3.17789 0
M  V30 7421 H 685.81 1.69625 3.33434 0
M  V30 7422 H 687.143 2.21418 4.39585 0
M  V30 7423 N 688.795 -1.27931 0.920396 0
M  V30 7424 C 689.742 -2.27085 0.412422 0
M  V30 7425 C 690.712 -1.57858 -0.516725 0
M  V30 7426 O 691.897 -1.85717 -0.437475 0
M  V30 7427 C 689.037 -3.43466 -0.335399 0
M  V30 7428 C 688.15 -4.27425 0.627017 0
M  V30 7429 C 687.285 -5.31016 -0.139916 0
M  V30 7430 C 686.324 -6.06641 0.815683 0
M  V30 7431 N 685.461 -7.02052 0.0818439 0
M  V30 7432 H 690.301 -2.69913 1.26298 0
M  V30 7433 H 687.838 -1.32732 0.634076 0
M  V30 7434 H 689.796 -4.09744 -0.785226 0
M  V30 7435 H 688.426 -3.01611 -1.15025 0
M  V30 7436 H 687.478 -3.6113 1.19537 0
M  V30 7437 H 688.79 -4.79969 1.35763 0
M  V30 7438 H 687.944 -6.03208 -0.649998 0
M  V30 7439 H 686.683 -4.79257 -0.903543 0
M  V30 7440 H 685.688 -5.33294 1.33708 0
M  V30 7441 H 686.913 -6.60489 1.57897 0
M  V30 7442 H 684.859 -6.52634 -0.663671 0
M  V30 7443 H 684.776 -7.52249 0.752163 0
M  V30 7444 H 686.044 -7.78432 -0.407825 0
M  V30 7445 N 690.273 -0.685099 -1.4193 0
M  V30 7446 C 691.52 -0.211658 -2.01391 0
M  V30 7447 C 691.848 1.18526 -1.54214 0
M  V30 7448 O 691.103 1.81189 -0.739519 0
M  V30 7449 C 691.402 -0.206154 -3.56805 0
M  V30 7450 C 691.068 -1.54915 -4.23453 0
M  V30 7451 C 689.73 -1.91684 -4.41373 0
M  V30 7452 C 692.082 -2.43317 -4.60919 0
M  V30 7453 C 689.41 -3.16461 -4.94034 0
M  V30 7454 C 691.762 -3.67415 -5.14965 0
M  V30 7455 C 690.426 -4.04341 -5.31098 0
M  V30 7456 H 689.696 -0.0774511 -0.736941 0
M  V30 7457 H 692.343 -0.882121 -1.69973 0
M  V30 7458 H 690.648 0.547841 -3.87951 0
M  V30 7459 H 692.345 0.17753 -4.00607 0
M  V30 7460 H 688.935 -1.25314 -4.09871 0
M  V30 7461 H 693.119 -2.16192 -4.46738 0
M  V30 7462 H 688.375 -3.45078 -5.04709 0
M  V30 7463 H 692.549 -4.3611 -5.42938 0
M  V30 7464 H 690.176 -5.01101 -5.71666 0
M  V30 7465 N 691.751 1.51645 -0.429126 0
M  V30 7466 C 692.681 2.30434 0.377148 0
M  V30 7467 C 693.662 1.35493 1.02838 0
M  V30 7468 O 694.847 1.6441 1.03359 0
M  V30 7469 C 691.977 3.14038 1.48315 0
M  V30 7470 C 690.931 4.1719 0.955855 0
M  V30 7471 C 690.257 4.89263 2.15698 0
M  V30 7472 C 691.557 5.223 -0.00402136 0
M  V30 7473 H 693.251 2.98085 -0.280336 0
M  V30 7474 H 690.797 1.43354 -0.136265 0
M  V30 7475 H 692.75 3.67933 2.05435 0
M  V30 7476 H 691.474 2.44193 2.16881 0
M  V30 7477 H 690.133 3.64335 0.406929 0
M  V30 7478 H 689.781 4.15929 2.82864 0
M  V30 7479 H 689.481 5.59009 1.81059 0
M  V30 7480 H 691.005 5.45978 2.73387 0
M  V30 7481 H 692.419 5.71315 0.476607 0
M  V30 7482 H 690.816 5.99525 -0.26258 0
M  V30 7483 H 691.886 4.75638 -0.943236 0
M  V30 7484 N 693.229 0.160201 1.56784 0
M  V30 7485 C 694.161 -0.80564 2.14574 0
M  V30 7486 C 695.174 -1.20154 1.09849 0
M  V30 7487 O 696.363 -1.14333 1.37078 0
M  V30 7488 C 693.463 -2.09434 2.6644 0
M  V30 7489 C 692.636 -1.86375 3.95706 0
M  V30 7490 C 691.695 -2.99358 4.32749 0
M  V30 7491 O 690.721 -2.70475 5.00831 0
M  V30 7492 N 691.923 -4.26867 3.93402 0
M  V30 7493 H 694.688 -0.311644 2.98075 0
M  V30 7494 H 692.249 -0.0229465 1.61884 0
M  V30 7495 H 694.241 -2.84091 2.88226 0
M  V30 7496 H 692.811 -2.50057 1.8759 0
M  V30 7497 H 692.031 -0.956821 3.82412 0
M  V30 7498 H 693.319 -1.68322 4.80151 0
M  V30 7499 H 692.717 -4.53197 3.38569 0
M  V30 7500 H 691.274 -4.98263 4.20211 0
M  V30 7501 N 694.707 -1.5719 -0.113559 0
M  V30 7502 C 695.617 -2.04041 -1.15777 0
M  V30 7503 C 696.633 -0.961812 -1.45001 0
M  V30 7504 O 697.809 -1.2737 -1.56009 0
M  V30 7505 C 694.874 -2.43994 -2.46308 0
M  V30 7506 C 693.935 -3.65962 -2.24433 0
M  V30 7507 C 693.168 -4.04 -3.4874 0
M  V30 7508 O 693.391 -3.42321 -4.56259 0
M  V30 7509 O 692.325 -4.97069 -3.3942 0
M  V30 7510 H 696.151 -2.93248 -0.789899 0
M  V30 7511 H 693.736 -1.45828 -0.324748 0
M  V30 7512 H 695.618 -2.70401 -3.23204 0
M  V30 7513 H 694.293 -1.57932 -2.82558 0
M  V30 7514 H 693.2 -3.44697 -1.45377 0
M  V30 7515 H 694.533 -4.52746 -1.93084 0
M  V30 7516 N 696.185 0.383891 -1.52853 0
M  V30 7517 C 697.148 1.45197 -1.77343 0
M  V30 7518 C 698.148 1.47362 -0.643522 0
M  V30 7519 O 699.338 1.48443 -0.911613 0
M  V30 7520 C 696.47 2.8445 -1.87885 0
M  V30 7521 H 697.663 1.24764 -2.72716 0
M  V30 7522 H 695.216 0.615939 -1.43652 0
M  V30 7523 H 695.951 3.10222 -0.94515 0
M  V30 7524 H 695.736 2.8428 -2.70051 0
M  V30 7525 H 697.226 3.61832 -2.08488 0
M  V30 7526 N 697.663 1.43903 0.642637 0
M  V30 7527 C 698.593 1.52697 1.76652 0
M  V30 7528 C 699.574 0.380816 1.65782 0
M  V30 7529 O 700.759 0.599432 1.84717 0
M  V30 7530 C 697.889 1.45975 3.15133 0
M  V30 7531 C 696.843 2.58949 3.40778 0
M  V30 7532 C 696.169 2.37279 4.79169 0
M  V30 7533 C 697.469 4.01153 3.34475 0
M  V30 7534 H 699.163 2.46766 1.69549 0
M  V30 7535 H 696.709 1.18767 0.814279 0
M  V30 7536 H 698.662 1.5073 3.93521 0
M  V30 7537 H 697.386 0.484162 3.22991 0
M  V30 7538 H 696.045 2.53564 2.64765 0
M  V30 7539 H 695.693 1.37939 4.83717 0
M  V30 7540 H 695.393 3.13016 4.97287 0
M  V30 7541 H 696.917 2.43834 5.59801 0
M  V30 7542 H 698.331 4.07968 4.02784 0
M  V30 7543 H 696.728 4.77001 3.64129 0
M  V30 7544 H 697.798 4.25539 2.32475 0
M  V30 7545 N 699.141 -0.881989 1.30609 0
M  V30 7546 C 700.369 -1.66711 1.22536 0
M  V30 7547 C 700.784 -1.87614 -0.2113 0
M  V30 7548 O 700.141 -1.42576 -1.13923 0
M  V30 7549 C 700.192 -3.04182 1.95335 0
M  V30 7550 O 699.913 -2.8422 3.33393 0
M  V30 7551 C 701.414 -3.98617 1.93956 0
M  V30 7552 H 698.634 -0.520124 0.423925 0
M  V30 7553 H 701.178 -1.10174 1.72285 0
M  V30 7554 H 699.333 -3.57442 1.49378 0
M  V30 7555 H 699.747 -3.71452 3.70302 0
M  V30 7556 H 701.221 -4.92433 2.49426 0
M  V30 7557 H 701.698 -4.29473 0.919198 0
M  V30 7558 H 702.304 -3.51292 2.39738 0
M  V30 7559 N 700.619 -1.13374 -1.09472 0
M  V30 7560 C 701.552 -0.754354 -2.15371 0
M  V30 7561 C 702.53 0.259205 -1.60521 0
M  V30 7562 O 703.714 0.150819 -1.87896 0
M  V30 7563 C 700.841 -0.118197 -3.38494 0
M  V30 7564 C 699.887 -1.10017 -4.12066 0
M  V30 7565 S 700.72 -2.63242 -4.6633 0
M  V30 7566 C 701.876 -2.00984 -5.92753 0
M  V30 7567 H 702.109 -1.65135 -2.4722 0
M  V30 7568 H 699.642 -0.953838 -1.21414 0
M  V30 7569 H 701.6 0.242447 -4.09783 0
M  V30 7570 H 700.261 0.756065 -3.04865 0
M  V30 7571 H 699.454 -0.60287 -5.00381 0
M  V30 7572 H 699.056 -1.40426 -3.46636 0
M  V30 7573 H 701.348 -1.35863 -6.63738 0
M  V30 7574 H 702.291 -2.8738 -6.47162 0
M  V30 7575 H 702.699 -1.46161 -5.4525 0
M  V30 7576 N 702.098 1.27442 -0.927168 0
M  V30 7577 C 703.514 1.46754 -0.627329 0
M  V30 7578 C 703.714 1.83902 0.823549 0
M  V30 7579 O 702.77 1.95215 1.60148 0
M  V30 7580 C 704.083 2.56045 -1.57674 0
M  V30 7581 C 705.631 2.69906 -1.58491 0
M  V30 7582 C 706.106 3.82355 -2.52128 0
M  V30 7583 N 707.597 3.89728 -2.50332 0
M  V30 7584 C 708.332 4.76155 -3.19475 0
M  V30 7585 N 707.828 5.67073 -3.97995 0
M  V30 7586 N 709.621 4.6988 -3.08496 0
M  V30 7587 H 701.772 1.01613 -1.86517 0
M  V30 7588 H 704.035 0.507443 -0.800753 0
M  V30 7589 H 703.741 2.35542 -2.61176 0
M  V30 7590 H 703.615 3.53423 -1.31804 0
M  V30 7591 H 706.002 2.89792 -0.557208 0
M  V30 7592 H 706.083 1.73018 -1.8841 0
M  V30 7593 H 705.727 3.63224 -3.55008 0
M  V30 7594 H 705.657 4.7867 -2.19505 0
M  V30 7595 H 708.148 3.24717 -1.93306 0
M  V30 7596 H 708.461 6.2988 -4.4774 0
M  V30 7597 H 706.806 5.6687 -4.02098 0
M  V30 7598 H 709.997 3.97848 -2.46646 0
M  V30 7599 H 710.17 5.37017 -3.62652 0
M  V30 7600 N 703.576 0.692616 1.41565 0
M  V30 7601 C 704.508 -0.0137132 2.29196 0
M  V30 7602 C 705.521 -0.747417 1.44629 0
M  V30 7603 O 706.71 -0.598611 1.68163 0
M  V30 7604 C 703.81 -1.04347 3.22436 0
M  V30 7605 C 702.983 -0.379985 4.35746 0
M  V30 7606 C 702.042 -1.31195 5.09583 0
M  V30 7607 O 701.068 -0.805455 5.63472 0
M  V30 7608 N 702.27 -2.64443 5.16769 0
M  V30 7609 H 705.035 0.738614 2.90456 0
M  V30 7610 H 702.596 0.538415 1.52685 0
M  V30 7611 H 704.588 -1.6686 3.687 0
M  V30 7612 H 703.158 -1.69736 2.62504 0
M  V30 7613 H 702.378 0.424975 3.91903 0
M  V30 7614 H 703.666 0.0814904 5.08735 0
M  V30 7615 H 703.064 -3.08114 4.74428 0
M  V30 7616 H 701.621 -3.22159 5.66619 0
M  V30 7617 N 705.054 -1.51416 0.437162 0
M  V30 7618 C 706.301 -2.02086 -0.129364 0
M  V30 7619 C 706.629 -1.32133 -1.42728 0
M  V30 7620 O 705.884 -0.424916 -1.91031 0
M  V30 7621 C 706.183 -3.55203 -0.39564 0
M  V30 7622 C 705.849 -4.43447 0.81644 0
M  V30 7623 C 704.511 -4.67285 1.14884 0
M  V30 7624 C 706.863 -4.95219 1.62503 0
M  V30 7625 C 704.191 -5.40141 2.29052 0
M  V30 7626 C 706.543 -5.69327 2.7577 0
M  V30 7627 C 705.207 -5.91429 3.09464 0
M  V30 7628 H 704.477 -0.739486 -0.0473375 0
M  V30 7629 H 707.124 -1.82368 0.584321 0
M  V30 7630 H 705.429 -3.73252 -1.19121 0
M  V30 7631 H 707.126 -3.91944 -0.847399 0
M  V30 7632 H 703.716 -4.2509 0.547422 0
M  V30 7633 H 707.9 -4.76686 1.38144 0
M  V30 7634 H 703.156 -5.55468 2.55471 0
M  V30 7635 H 707.33 -6.08433 3.38795 0
M  V30 7636 H 704.957 -6.47662 3.98042 0
M  V30 7637 N 706.532 -0.168513 -1.56696 0
M  V30 7638 C 707.809 0.523367 -1.88468 0
M  V30 7639 C 708.189 1.81503 -1.07796 0
M  V30 7640 O 707.537 2.27859 -0.171045 0
M  V30 7641 C 707.747 0.767991 -3.40445 0
M  V30 7642 C 709.095 1.09924 -4.10124 0
M  V30 7643 O 710.119 0.856625 -3.45746 0
M  V30 7644 O 708.978 1.55681 -5.23856 0
M  V30 7645 H 706.072 0.269447 -0.781874 0
M  V30 7646 H 708.618 -0.206739 -1.68436 0
M  V30 7647 H 707.39 -0.145254 -3.9103 0
M  V30 7648 H 707.013 1.55151 -3.66079 0
M  V30 7649 N 708.01 1.57248 0.105221 0
M  V30 7650 C 708.96 1.9777 1.1345 0
M  V30 7651 C 709.944 0.854654 1.36325 0
M  V30 7652 O 711.136 1.11844 1.37186 0
M  V30 7653 C 708.265 2.39717 2.45745 0
M  V30 7654 C 707.351 3.58686 2.26286 0
M  V30 7655 N 707.742 4.73942 1.76671 0
M  V30 7656 C 706.04 3.64586 2.56891 0
M  V30 7657 C 706.741 5.55923 1.71245 0
M  V30 7658 N 705.717 4.98803 2.16093 0
M  V30 7659 H 709.519 2.84336 0.743664 0
M  V30 7660 H 707.033 1.59359 0.312787 0
M  V30 7661 H 709.03 2.66971 3.20206 0
M  V30 7662 H 707.69 1.54523 2.85574 0
M  V30 7663 H 708.701 4.9689 1.46016 0
M  V30 7664 H 705.378 2.90031 3.00314 0
M  V30 7665 H 706.768 6.58398 1.34022 0
M  V30 7666 N 709.488 -0.375779 1.53054 0
M  V30 7667 C 710.899 -0.95309 1.6054 0
M  V30 7668 C 711.25 -1.90575 0.466446 0
M  V30 7669 O 710.375 -2.12507 -0.408609 0
M  V30 7670 C 710.97 -1.73537 2.90982 0
M  V30 7671 C 709.529 -2.26218 3.00836 0
M  V30 7672 C 708.676 -1.07157 2.55759 0
M  V30 7673 H 711.627 -0.154895 1.57942 0
M  V30 7674 H 711.648 -2.59574 2.78211 0
M  V30 7675 H 711.16 -1.04176 3.73857 0
M  V30 7676 H 709.261 -2.98852 2.22527 0
M  V30 7677 H 709.374 -2.54799 4.05727 0
M  V30 7678 H 707.738 -1.43553 2.10391 0
M  V30 7679 H 708.521 -0.393099 3.41042 0
M  V30 7680 N 710.966 -1.44241 -0.634997 0
M  V30 7681 C 711.916 -1.47247 -1.74076 0
M  V30 7682 C 712.9 -0.338708 -1.57295 0
M  V30 7683 O 714.092 -0.583751 -1.67097 0
M  V30 7684 C 711.221 -1.41579 -3.12746 0
M  V30 7685 C 710.307 -2.60055 -3.35011 0
M  V30 7686 N 710.698 -3.85321 -3.27661 0
M  V30 7687 C 708.996 -2.55168 -3.65794 0
M  V30 7688 C 709.697 -4.64241 -3.50508 0
M  V30 7689 N 708.673 -3.95254 -3.73196 0
M  V30 7690 H 712.475 -2.4195 -1.66845 0
M  V30 7691 H 709.989 -1.3915 -0.837326 0
M  V30 7692 H 711.986 -1.41816 -3.92038 0
M  V30 7693 H 710.646 -0.479108 -3.21146 0
M  V30 7694 H 711.657 -4.17345 -3.06665 0
M  V30 7695 H 708.334 -1.70276 -3.81198 0
M  V30 7696 H 709.724 -5.73267 -3.50449 0
M  V30 7697 N 712.444 0.87505 -1.31075 0
M  V30 7698 C 713.693 1.62245 -1.19831 0
M  V30 7699 C 714.006 1.94078 0.24357 0
M  V30 7700 O 715.212 2.67265 0.477646 0
M  V30 7701 C 713.668 2.92464 -2.09744 0
M  V30 7702 C 713.276 2.68134 -3.58898 0
M  V30 7703 C 715.02 3.70449 -2.07287 0
M  V30 7704 C 712.927 3.9423 -4.40836 0
M  V30 7705 H 711.857 0.608741 -0.444916 0
M  V30 7706 H 714.508 0.967947 -1.55894 0
M  V30 7707 H 712.89 3.59262 -1.66574 0
M  V30 7708 H 714.064 2.09776 -4.10281 0
M  V30 7709 H 712.379 2.03511 -3.6328 0
M  V30 7710 H 714.976 4.63983 -2.65752 0
M  V30 7711 H 715.319 4.02611 -1.05876 0
M  V30 7712 H 715.852 3.10528 -2.48631 0
M  V30 7713 H 712.591 3.67221 -5.42982 0
M  V30 7714 H 712.111 4.52058 -3.94213 0
M  V30 7715 H 713.79 4.62162 -4.52786 0
M  V30 7716 N 713.922 1.13953 1.08869 0
M  V30 7717 C 715.168 0.906151 1.8143 0
M  V30 7718 C 715.501 -0.566089 1.85766 0
M  V30 7719 O 714.776 -1.41915 1.33006 0
M  V30 7720 C 715.059 1.50183 3.27287 0
M  V30 7721 C 714.912 3.04359 3.31189 0
M  V30 7722 C 716.231 1.17477 4.24131 0
M  V30 7723 H 713.35 0.330624 0.658678 0
M  V30 7724 H 715.992 1.40873 1.27495 0
M  V30 7725 H 714.142 1.07442 3.73348 0
M  V30 7726 H 715.814 3.55896 2.93488 0
M  V30 7727 H 714.057 3.39053 2.70602 0
M  V30 7728 H 714.728 3.41141 4.33966 0
M  V30 7729 H 717.204 1.5442 3.86385 0
M  V30 7730 H 716.08 1.61795 5.24513 0
M  V30 7731 H 716.341 0.0893312 4.4201 0
M  V30 7732 N 715.4 -1.26948 0.933913 0
M  V30 7733 C 716.347 -2.26635 0.436484 0
M  V30 7734 C 717.317 -1.58397 -0.499953 0
M  V30 7735 O 718.502 -1.86171 -0.417753 0
M  V30 7736 C 715.642 -3.43803 -0.298951 0
M  V30 7737 C 714.755 -4.26736 0.672316 0
M  V30 7738 C 713.89 -5.31134 -0.0835872 0
M  V30 7739 C 712.929 -6.05742 0.879979 0
M  V30 7740 N 712.066 -7.01926 0.156301 0
M  V30 7741 H 716.906 -2.68558 1.29154 0
M  V30 7742 H 714.443 -1.32052 0.648118 0
M  V30 7743 H 716.401 -4.10554 -0.741723 0
M  V30 7744 H 715.031 -3.02814 -1.1182 0
M  V30 7745 H 714.083 -3.59842 1.23361 0
M  V30 7746 H 715.395 -4.78502 1.40846 0
M  V30 7747 H 714.549 -6.03863 -0.585984 0
M  V30 7748 H 713.288 -4.80188 -0.852661 0
M  V30 7749 H 712.293 -5.31846 1.39357 0
M  V30 7750 H 713.518 -6.58777 1.64894 0
M  V30 7751 H 711.464 -6.53301 -0.594413 0
M  V30 7752 H 711.381 -7.51409 0.831906 0
M  V30 7753 H 712.649 -7.78821 -0.325239 0
M  V30 7754 N 716.879 -0.700114 -1.41195 0
M  V30 7755 C 717.809 -0.0521132 -2.33442 0
M  V30 7756 C 718.79 0.76228 -1.52063 0
M  V30 7757 O 719.975 0.714336 -1.80585 0
M  V30 7758 C 717.105 0.881693 -3.35922 0
M  V30 7759 C 716.059 0.174062 -4.27646 0
M  V30 7760 C 715.385 1.22254 -5.20536 0
M  V30 7761 C 716.685 -0.962396 -5.13357 0
M  V30 7762 H 718.379 -0.822574 -2.87879 0
M  V30 7763 H 715.925 -0.397011 -1.38419 0
M  V30 7764 H 717.878 1.34429 -3.99383 0
M  V30 7765 H 716.602 1.68387 -2.79845 0
M  V30 7766 H 715.261 -0.268551 -3.65615 0
M  V30 7767 H 714.909 2.01736 -4.60773 0
M  V30 7768 H 714.609 0.754038 -5.82742 0
M  V30 7769 H 716.133 1.68555 -5.86874 0
M  V30 7770 H 717.547 -0.579875 -5.7036 0
M  V30 7771 H 715.944 -1.35828 -5.84526 0
M  V30 7772 H 717.014 -1.80003 -4.50252 0
M  V30 7773 N 718.357 1.51182 -0.445186 0
M  V30 7774 C 719.606 2.01342 0.120189 0
M  V30 7775 C 719.919 1.33353 1.43095 0
M  V30 7776 O 721.125 1.74525 2.07974 0
M  V30 7777 C 719.581 3.58925 0.264732 0
M  V30 7778 C 719.189 4.35855 -1.03606 0
M  V30 7779 C 720.933 4.17208 0.783455 0
M  V30 7780 C 718.84 5.85162 -0.856731 0
M  V30 7781 H 717.77 0.752426 0.0486922 0
M  V30 7782 H 720.421 1.74221 -0.576143 0
M  V30 7783 H 718.803 3.82525 1.02425 0
M  V30 7784 H 719.977 4.23997 -1.80452 0
M  V30 7785 H 718.292 3.89062 -1.48391 0
M  V30 7786 H 720.889 5.26475 0.934239 0
M  V30 7787 H 721.232 3.76892 1.768 0
M  V30 7788 H 721.765 3.97715 0.0820346 0
M  V30 7789 H 718.504 6.29904 -1.81388 0
M  V30 7790 H 718.024 5.99663 -0.128206 0
M  V30 7791 H 719.703 6.44963 -0.513027 0
M  V30 7792 N 719.835 0.176821 1.56605 0
M  V30 7793 C 721.083 -0.465793 1.96659 0
M  V30 7794 C 721.404 -1.63406 1.06412 0
M  V30 7795 O 720.674 -1.95457 0.131603 0
M  V30 7796 H 719.254 -0.175072 0.726195 0
M  V30 7797 H 721.916 0.25929 1.93168 0
M  V30 7798 H 721.012 -0.822138 3.01077 0
M  V30 7799 N 721.313 -1.57302 -0.09688 0
M  V30 7800 C 722.559 -1.86273 -0.801885 0
M  V30 7801 C 722.892 -0.765694 -1.78468 0
M  V30 7802 O 722.167 0.226495 -1.93177 0
M  V30 7803 C 722.45 -3.25876 -1.53221 0
M  V30 7804 C 722.303 -4.46205 -0.567529 0
M  V30 7805 C 723.622 -3.63352 -2.48321 0
M  V30 7806 H 720.741 -0.67752 -0.29006 0
M  V30 7807 H 723.383 -1.89887 -0.0655577 0
M  V30 7808 H 721.533 -3.22926 -2.15988 0
M  V30 7809 H 723.205 -4.6127 0.0529982 0
M  V30 7810 H 721.448 -4.33636 0.119233 0
M  V30 7811 H 722.119 -5.40608 -1.11564 0
M  V30 7812 H 724.595 -3.67234 -1.95648 0
M  V30 7813 H 723.471 -4.61968 -2.9644 0
M  V30 7814 H 723.732 -2.91941 -3.31998 0
M  V30 7815 N 722.791 0.367657 -1.53252 0
M  V30 7816 C 724.04 1.10782 -1.68554 0
M  V30 7817 C 724.353 1.90523 -0.442765 0
M  V30 7818 O 725.559 2.6729 -0.47629 0
M  V30 7819 C 724.015 2.01863 -2.97959 0
M  V30 7820 C 723.623 1.27443 -4.29491 0
M  V30 7821 C 725.367 2.75883 -3.22628 0
M  V30 7822 C 723.274 2.17414 -5.49987 0
M  V30 7823 H 722.204 0.417272 -0.628013 0
M  V30 7824 H 724.855 0.368971 -1.79752 0
M  V30 7825 H 723.237 2.7947 -2.80558 0
M  V30 7826 H 724.411 0.549138 -4.57516 0
M  V30 7827 H 722.726 0.652935 -4.11249 0
M  V30 7828 H 725.323 3.43421 -4.09837 0
M  V30 7829 H 725.666 3.41138 -2.38601 0
M  V30 7830 H 726.199 2.0536 -3.40693 0
M  V30 7831 H 722.938 1.5674 -6.36485 0
M  V30 7832 H 722.458 2.87799 -5.26243 0
M  V30 7833 H 724.137 2.77019 -5.84696 0
M  V30 7834 N 724.269 1.44576 0.627338 0
M  V30 7835 C 725.497 1.51048 1.41394 0
M  V30 7836 C 725.912 0.136568 1.88305 0
M  V30 7837 O 725.269 -0.858251 1.6106 0
M  V30 7838 C 725.32 2.47837 2.63172 0
M  V30 7839 O 725.041 3.79887 2.18215 0
M  V30 7840 C 726.542 2.63811 3.56257 0
M  V30 7841 H 723.762 0.512171 0.4335 0
M  V30 7842 H 726.306 1.89576 0.766878 0
M  V30 7843 H 724.461 2.12433 3.23961 0
M  V30 7844 H 724.875 4.32177 2.97192 0
M  V30 7845 H 726.349 3.35554 4.38301 0
M  V30 7846 H 726.826 1.69169 4.05313 0
M  V30 7847 H 727.432 3.0013 3.01333 0
M  V30 7848 N 725.747 -0.868086 1.31537 0
M  V30 7849 C 726.657 -2.00801 1.21311 0
M  V30 7850 C 727.673 -1.73518 0.129431 0
M  V30 7851 O 728.849 -1.98378 0.347588 0
M  V30 7852 C 725.914 -3.3419 0.922935 0
M  V30 7853 C 724.975 -3.74783 2.0937 0
M  V30 7854 C 724.208 -5.01807 1.81728 0
M  V30 7855 O 724.431 -5.65404 0.753313 0
M  V30 7856 O 723.365 -5.39213 2.67457 0
M  V30 7857 H 727.191 -2.12361 2.17109 0
M  V30 7858 H 724.776 -0.996684 1.11295 0
M  V30 7859 H 726.658 -4.14174 0.777033 0
M  V30 7860 H 725.333 -3.237 -0.00500301 0
M  V30 7861 H 724.24 -2.95432 2.29501 0
M  V30 7862 H 725.573 -3.89902 3.00396 0
M  V30 7863 N 727.225 -1.14528 -1.08264 0
M  V30 7864 C 728.173 -0.829201 -2.17318 0
M  V30 7865 C 729.167 0.193521 -1.68291 0
M  V30 7866 O 730.373 0.0494744 -1.79932 0
M  V30 7867 H 726.748 -0.250435 -0.709074 0
M  V30 7868 H 728.719 -1.75683 -2.41201 0
M  V30 7869 C 727.468 -0.324663 -3.46181 0
M  V30 7870 H 726.791 -1.10299 -3.84284 0
M  V30 7871 H 728.231 -0.142059 -4.23762 0
M  V30 7872 C 726.69 0.952033 -3.23169 0
M  V30 7873 O 727.22 2.02549 -3.46896 0
M  V30 7874 N 725.426 0.887854 -2.76705 0
M  V30 7875 H 724.973 0.0141402 -2.57596 0
M  V30 7876 H 724.931 1.74263 -2.61686 0
M  V30 7877 N 728.703 1.26451 -0.940633 0
M  V30 7878 C 730.114 1.75726 -0.630653 0
M  V30 7879 C 730.465 1.76631 0.854167 0
M  V30 7880 O 729.59 1.37807 1.66848 0
M  V30 7881 C 730.185 3.19114 -1.13805 0
M  V30 7882 C 728.744 3.66005 -0.878497 0
M  V30 7883 C 727.891 2.45505 -1.28928 0
M  V30 7884 H 730.842 1.12535 -1.119 0
M  V30 7885 H 730.863 3.77311 -0.491625 0
M  V30 7886 H 730.375 3.18424 -2.21874 0
M  V30 7887 H 728.476 3.72126 0.187833 0
M  V30 7888 H 728.589 4.54844 -1.50512 0
M  V30 7889 H 726.953 2.4467 -0.707713 0
M  V30 7890 H 727.736 2.47516 -2.37888 0
M  V30 7891 N 730.181 0.707592 1.40822 0
M  V30 7892 C 731.427 0.244031 2.01326 0
M  V30 7893 C 731.76 -1.15722 1.55955 0
M  V30 7894 O 731.035 -1.78347 0.776044 0
M  V30 7895 C 731.318 0.315128 3.58718 0
M  V30 7896 C 731.171 1.75419 4.14184 0
M  V30 7897 C 732.49 -0.318251 4.38948 0
M  V30 7898 H 729.609 0.0901471 0.731466 0
M  V30 7899 H 732.251 0.898584 1.67408 0
M  V30 7900 H 730.401 -0.242176 3.87744 0
M  V30 7901 H 732.073 2.36626 3.95987 0
M  V30 7902 H 730.316 2.28449 3.68773 0
M  V30 7903 H 730.987 1.75538 5.23345 0
M  V30 7904 H 733.463 0.156514 4.15806 0
M  V30 7905 H 732.339 -0.238019 5.48384 0
M  V30 7906 H 732.6 -1.40067 4.19325 0
M  V30 7907 N 731.66 -1.50943 0.453197 0
M  V30 7908 C 732.906 -2.03153 -0.100277 0
M  V30 7909 C 733.261 -1.33032 -1.38997 0
M  V30 7910 O 732.554 -0.441423 -1.86446 0
M  V30 7911 C 732.748 -3.55603 -0.357944 0
M  V30 7912 C 732.577 -4.40495 0.905223 0
M  V30 7913 C 731.347 -4.84247 1.44337 0
M  V30 7914 C 733.545 -4.81931 1.79575 0
M  V30 7915 N 731.527 -5.53403 2.65742 0
M  V30 7916 C 732.898 -5.50314 2.85577 0
M  V30 7917 C 734.953 -4.63903 1.80828 0
M  V30 7918 C 733.656 -6.02581 3.92797 0
M  V30 7919 C 735.682 -5.17097 2.86993 0
M  V30 7920 C 735.044 -5.8544 3.91713 0
M  V30 7921 H 731.143 -0.781995 0.00287755 0
M  V30 7922 H 733.727 -1.84651 0.617411 0
M  V30 7923 H 731.898 -3.74087 -1.04467 0
M  V30 7924 H 733.63 -3.9447 -0.904175 0
M  V30 7925 H 730.385 -4.63029 0.995045 0
M  V30 7926 H 730.809 -5.92598 3.27348 0
M  V30 7927 H 735.451 -4.10512 1.0119 0
M  V30 7928 H 733.169 -6.55018 4.73262 0
M  V30 7929 H 736.755 -5.0499 2.88923 0
M  V30 7930 H 735.635 -6.25861 4.72512 0
M  V30 7931 N 733.138 -0.185124 -1.56509 0
M  V30 7932 C 734.387 0.456421 -1.96468 0
M  V30 7933 C 734.7 1.63448 -1.07444 0
M  V30 7934 O 735.906 2.34316 -1.37143 0
M  V30 7935 C 734.362 0.863404 -3.4939 0
M  V30 7936 C 733.97 -0.289815 -4.47062 0
M  V30 7937 C 735.714 1.47259 -3.98139 0
M  V30 7938 C 733.621 0.137571 -5.9124 0
M  V30 7939 H 732.551 0.17429 -0.733579 0
M  V30 7940 H 735.202 -0.275554 -1.81419 0
M  V30 7941 H 733.584 1.65176 -3.59907 0
M  V30 7942 H 734.758 -1.06728 -4.4827 0
M  V30 7943 H 733.073 -0.809851 -4.08449 0
M  V30 7944 H 735.67 1.80463 -5.03326 0
M  V30 7945 H 736.013 2.3755 -3.41871 0
M  V30 7946 H 736.546 0.748405 -3.90696 0
M  V30 7947 H 733.285 -0.730907 -6.51412 0
M  V30 7948 H 732.805 0.8801 -5.93308 0
M  V30 7949 H 734.484 0.576771 -6.44424 0
M  V30 7950 N 734.616 1.57351 0.0885366 0
M  V30 7951 C 735.865 1.85604 0.789556 0
M  V30 7952 C 736.178 0.775352 1.79576 0
M  V30 7953 O 737.384 0.945206 2.54515 0
M  V30 7954 C 735.84 3.29175 1.45506 0
M  V30 7955 C 735.448 4.45331 0.488278 0
M  V30 7956 C 737.192 3.66646 2.13942 0
M  V30 7957 C 735.099 5.79937 1.15874 0
M  V30 7958 H 734.029 0.692346 0.298619 0
M  V30 7959 H 736.68 1.83451 0.0425821 0
M  V30 7960 H 735.062 3.25889 2.24972 0
M  V30 7961 H 736.236 4.59977 -0.275359 0
M  V30 7962 H 734.551 4.16301 -0.0907363 0
M  V30 7963 H 737.148 4.64498 2.6485 0
M  V30 7964 H 737.491 2.956 2.93132 0
M  V30 7965 H 738.024 3.71848 1.41328 0
M  V30 7966 H 734.763 6.54232 0.407508 0
M  V30 7967 H 734.283 5.69123 1.89364 0
M  V30 7968 H 735.962 6.24718 1.68336 0
M  V30 7969 N 736.094 -0.359525 1.53444 0
M  V30 7970 C 737.027 -1.46338 1.75101 0
M  V30 7971 C 738.005 -1.51142 0.599559 0
M  V30 7972 O 739.189 -1.69102 0.832862 0
M  V30 7973 C 736.316 -2.84667 1.83527 0
M  V30 7974 C 735.362 -2.9756 3.05549 0
M  V30 7975 S 736.195 -2.65685 4.64943 0
M  V30 7976 C 737.351 -4.06153 4.76225 0
M  V30 7977 H 737.584 -1.27747 2.68455 0
M  V30 7978 H 735.117 -0.554231 1.4411 0
M  V30 7979 H 737.075 -3.64368 1.89067 0
M  V30 7980 H 735.736 -3.00564 0.912147 0
M  V30 7981 H 734.929 -3.98883 3.08072 0
M  V30 7982 H 734.531 -2.25789 2.98153 0
M  V30 7983 H 736.823 -5.00475 4.56652 0
M  V30 7984 H 737.766 -4.08632 5.78295 0
M  V30 7985 H 738.174 -3.93435 4.04808 0
M  V30 7986 N 737.572 -1.44907 -0.619662 0
M  V30 7987 C 738.482 -1.55168 -1.75955 0
M  V30 7988 C 739.498 -0.43672 -1.6843 0
M  V30 7989 O 740.674 -0.695704 -1.89002 0
M  V30 7990 C 737.739 -1.50397 -3.12381 0
M  V30 7991 C 736.8 -2.72835 -3.31451 0
M  V30 7992 C 736.033 -2.68283 -4.61368 0
M  V30 7993 O 736.256 -1.74929 -5.42914 0
M  V30 7994 O 735.19 -3.59308 -4.82889 0
M  V30 7995 H 739.016 -2.51493 -1.7025 0
M  V30 7996 H 736.601 -1.27282 -0.782289 0
M  V30 7997 H 738.483 -1.50301 -3.93685 0
M  V30 7998 H 737.158 -0.572197 -3.18603 0
M  V30 7999 H 736.065 -2.78496 -2.49781 0
M  V30 8000 H 737.398 -3.65098 -3.30098 0
M  V30 8001 N 739.05 0.861098 -1.31996 0
M  V30 8002 C 739.98 1.98482 -1.22993 0
M  V30 8003 C 740.961 1.6971 -0.115168 0
M  V30 8004 O 742.146 1.91849 -0.30126 0
M  V30 8005 C 739.276 3.34179 -0.945615 0
M  V30 8006 C 738.23 3.77284 -2.02091 0
M  V30 8007 C 737.556 5.1054 -1.58912 0
M  V30 8008 C 738.856 3.93439 -3.43515 0
M  V30 8009 H 740.55 2.06271 -2.17008 0
M  V30 8010 H 738.096 0.991043 -1.04472 0
M  V30 8011 H 740.049 4.12338 -0.869206 0
M  V30 8012 H 738.773 3.26586 0.0301849 0
M  V30 8013 H 737.432 3.01371 -2.08737 0
M  V30 8014 H 737.08 4.99397 -0.600942 0
M  V30 8015 H 736.78 5.40352 -2.30854 0
M  V30 8016 H 738.304 5.91199 -1.52696 0
M  V30 8017 H 739.718 4.6197 -3.39495 0
M  V30 8018 H 738.115 4.34661 -4.13751 0
M  V30 8019 H 739.185 2.96548 -3.8365 0
M  V30 8020 N 740.528 1.15101 1.07655 0
M  V30 8021 C 741.768 0.934462 1.81789 0
M  V30 8022 C 742.132 -0.529101 1.84566 0
M  V30 8023 O 743.333 -0.863868 2.5454 0
M  V30 8024 C 741.604 1.52817 3.23082 0
M  V30 8025 S 743.163 1.45429 4.14 0
M  V30 8026 H 739.981 0.336379 0.626395 0
M  V30 8027 H 742.583 1.46593 1.29347 0
M  V30 8028 H 741.287 2.58635 3.18647 0
M  V30 8029 H 740.818 0.995432 3.80598 0
M  V30 8030 H 742.833 0.445058 4.942 0
M  V30 8031 N 742.006 -1.2595 0.947325 0
M  V30 8032 C 743.234 -1.97544 0.615127 0
M  V30 8033 C 743.649 -1.70484 -0.811221 0
M  V30 8034 O 743.006 -0.97662 -1.5417 0
M  V30 8035 C 743.057 -3.51236 0.855328 0
M  V30 8036 O 742.778 -3.77359 2.22558 0
M  V30 8037 C 744.279 -4.40066 0.534515 0
M  V30 8038 H 741.499 -0.629888 0.231263 0
M  V30 8039 H 744.043 -1.60308 1.26971 0
M  V30 8040 H 742.198 -3.8661 0.247266 0
M  V30 8041 H 742.612 -4.71857 2.29022 0
M  V30 8042 H 744.086 -5.46838 0.753168 0
M  V30 8043 H 744.563 -4.35982 -0.530701 0
M  V30 8044 H 745.169 -4.10245 1.12158 0
M  V30 8045 N 743.484 -0.715051 -1.40445 0
M  V30 8046 C 744.414 -0.0768699 -2.33373 0
M  V30 8047 C 745.395 0.746109 -1.52863 0
M  V30 8048 O 746.58 0.695142 -1.81332 0
M  V30 8049 C 743.71 0.846014 -3.36838 0
M  V30 8050 C 742.664 0.128694 -4.27806 0
M  V30 8051 C 741.99 1.16726 -5.21804 0
M  V30 8052 C 743.29 -1.01679 -5.12307 0
M  V30 8053 H 744.984 -0.853061 -2.8699 0
M  V30 8054 H 742.53 -0.41167 -1.3799 0
M  V30 8055 H 744.483 1.30185 -4.00786 0
M  V30 8056 H 743.207 1.6541 -2.81615 0
M  V30 8057 H 741.866 -0.307314 -3.6531 0
M  V30 8058 H 741.514 1.96838 -4.62887 0
M  V30 8059 H 741.214 0.692188 -5.83509 0
M  V30 8060 H 742.738 1.62321 -5.88629 0
M  V30 8061 H 744.152 -0.640337 -5.69713 0
M  V30 8062 H 742.549 -1.4202 -5.83053 0
M  V30 8063 H 743.619 -1.84769 -4.48317 0
M  V30 8064 N 744.962 1.50701 -0.461195 0
M  V30 8065 C 746.21 2.01867 0.0970051 0
M  V30 8066 C 746.531 1.34591 1.41104 0
M  V30 8067 O 745.801 0.488041 1.89723 0
M  V30 8068 H 744.381 0.74599 0.0388392 0
M  V30 8069 H 747.043 1.85129 -0.609357 0
M  V30 8070 H 746.139 3.11051 0.255688 0
M  V30 8071 N 746.441 0.193421 1.56409 0
M  V30 8072 C 747.351 -0.740112 2.2262 0
M  V30 8073 C 748.367 -1.23597 1.22474 0
M  V30 8074 O 749.543 -1.28348 1.55206 0
M  V30 8075 C 746.608 -1.94317 2.87127 0
M  V30 8076 C 745.669 -1.49205 4.02538 0
M  V30 8077 C 744.902 -2.63776 4.63959 0
M  V30 8078 O 745.125 -3.81215 4.24301 0
M  V30 8079 O 744.059 -2.36585 5.53454 0
M  V30 8080 H 747.885 -0.206238 3.02999 0
M  V30 8081 H 745.47 -0.0357938 1.49357 0
M  V30 8082 H 747.352 -2.64633 3.27944 0
M  V30 8083 H 746.027 -2.46568 2.09728 0
M  V30 8084 H 744.934 -0.757738 3.66346 0
M  V30 8085 H 746.267 -1.01622 4.81595 0
M  V30 8086 N 747.919 -1.57396 -0.0801906 0
M  V30 8087 C 748.849 -2.06145 -1.09665 0
M  V30 8088 C 749.83 -0.953273 -1.40878 0
M  V30 8089 O 751.015 -1.22548 -1.50651 0
M  V30 8090 C 748.145 -2.49836 -2.41245 0
M  V30 8091 C 747.099 -3.64454 -2.24405 0
M  V30 8092 C 746.425 -3.94172 -3.61293 0
M  V30 8093 C 747.725 -4.94807 -1.67223 0
M  V30 8094 H 749.419 -2.91316 -0.691028 0
M  V30 8095 H 746.965 -1.40145 -0.330957 0
M  V30 8096 H 748.918 -2.82552 -3.12638 0
M  V30 8097 H 747.642 -1.61683 -2.83771 0
M  V30 8098 H 746.301 -3.32008 -1.55454 0
M  V30 8099 H 745.949 -3.03163 -4.01374 0
M  V30 8100 H 745.649 -4.71345 -3.50867 0
M  V30 8101 H 747.173 -4.29376 -4.3413 0
M  V30 8102 H 748.587 -5.25807 -2.28472 0
M  V30 8103 H 746.984 -5.76245 -1.67515 0
M  V30 8104 H 748.054 -4.80751 -0.632944 0
M  V30 8105 N 749.397 0.351382 -1.53633 0
M  V30 8106 C 750.813 0.693987 -1.43722 0
M  V30 8107 C 751.013 1.9274 -0.587669 0
M  V30 8108 O 750.069 2.52387 -0.0756082 0
M  V30 8109 C 751.382 0.893937 -2.87105 0
M  V30 8110 C 752.93 0.993051 -2.96829 0
M  V30 8111 C 753.405 1.22537 -4.41303 0
M  V30 8112 N 754.896 1.29275 -4.44795 0
M  V30 8113 C 755.631 1.48988 -5.53706 0
M  V30 8114 N 755.127 1.65924 -6.72637 0
M  V30 8115 N 756.92 1.51472 -5.41306 0
M  V30 8116 H 749.071 -0.459688 -2.07366 0
M  V30 8117 H 751.334 -0.143684 -0.937048 0
M  V30 8118 H 751.04 0.0592517 -3.5165 0
M  V30 8119 H 750.914 1.79795 -3.31592 0
M  V30 8120 H 753.301 1.81827 -2.32429 0
M  V30 8121 H 753.382 0.0661119 -2.55715 0
M  V30 8122 H 753.026 0.405117 -5.06282 0
M  V30 8123 H 752.956 2.16575 -4.80003 0
M  V30 8124 H 755.447 1.17743 -3.59089 0
M  V30 8125 H 755.76 1.80578 -7.51406 0
M  V30 8126 H 754.105 1.63075 -6.75597 0
M  V30 8127 H 757.296 1.37818 -4.47352 0
M  V30 8128 H 757.469 1.66493 -6.26246 0
M  V30 8129 N 750.875 1.45233 0.611969 0
M  V30 8130 C 752.1 1.52767 1.40274 0
M  V30 8131 C 752.525 0.159701 1.87421 0
M  V30 8132 O 751.883 -0.854837 1.59882 0
M  V30 8133 C 751.931 2.51286 2.58626 0
M  V30 8134 O 751.035 2.02764 3.59111 0
M  V30 8135 H 750.376 0.515141 0.418958 0
M  V30 8136 H 752.906 1.90547 0.745188 0
M  V30 8137 H 752.916 2.69949 3.05927 0
M  V30 8138 H 751.591 3.50641 2.23659 0
M  V30 8139 H 750.168 1.93957 3.18489 0
M  V30 8140 N 752.353 -0.854086 1.3245 0
M  V30 8141 C 753.6 -1.60831 1.23043 0
M  V30 8142 C 753.928 -1.93389 -0.2076 0
M  V30 8143 O 753.183 -1.5756 -1.16075 0
M  V30 8144 C 753.482 -2.93746 2.03587 0
M  V30 8145 C 753.148 -2.80615 3.52939 0
M  V30 8146 C 751.81 -2.76742 3.93659 0
M  V30 8147 C 754.162 -2.66507 4.4791 0
M  V30 8148 C 751.49 -2.56638 5.27592 0
M  V30 8149 C 753.842 -2.47939 5.81987 0
M  V30 8150 C 752.506 -2.42458 6.21909 0
M  V30 8151 H 751.776 -0.588523 0.450247 0
M  V30 8152 H 754.423 -0.990699 1.63882 0
M  V30 8153 H 752.728 -3.5963 1.55478 0
M  V30 8154 H 754.425 -3.51127 1.93677 0
M  V30 8155 H 751.015 -2.84456 3.20598 0
M  V30 8156 H 755.199 -2.68544 4.1737 0
M  V30 8157 H 750.455 -2.50831 5.57579 0
M  V30 8158 H 754.629 -2.36002 6.55192 0
M  V30 8159 H 752.256 -2.2664 7.2563 0
M  V30 8160 N 753.831 -1.1567 -1.07043 0
M  V30 8161 C 754.761 -0.879348 -2.16309 0
M  V30 8162 C 755.742 0.171311 -1.69235 0
M  V30 8163 O 756.927 0.0250175 -1.94184 0
M  V30 8164 C 754.057 -0.371307 -3.45309 0
M  V30 8165 C 753.011 -1.359 -4.05851 0
M  V30 8166 C 752.337 -0.709678 -5.29969 0
M  V30 8167 C 753.637 -2.72606 -4.45514 0
M  V30 8168 H 755.331 -1.79308 -2.39768 0
M  V30 8169 H 752.877 -0.863558 -1.15233 0
M  V30 8170 H 754.83 -0.164798 -4.21078 0
M  V30 8171 H 753.554 0.577906 -3.21446 0
M  V30 8172 H 752.213 -1.55193 -3.32131 0
M  V30 8173 H 751.861 0.245782 -5.02399 0
M  V30 8174 H 751.561 -1.36886 -5.71433 0
M  V30 8175 H 753.085 -0.513015 -6.08441 0
M  V30 8176 H 754.499 -2.57141 -5.12398 0
M  V30 8177 H 752.896 -3.34927 -4.97939 0
M  V30 8178 H 753.966 -3.28434 -3.56734 0
M  V30 8179 N 755.309 1.25446 -0.953992 0
M  V30 8180 C 756.241 2.25111 -0.431004 0
M  V30 8181 C 757.254 1.56377 0.452764 0
M  V30 8182 O 758.443 1.76579 0.261144 0
M  V30 8183 C 755.543 3.3655 0.39839 0
M  V30 8184 C 754.716 4.34843 -0.472229 0
M  V30 8185 C 753.775 5.25351 0.29886 0
M  V30 8186 O 752.801 5.68396 -0.302522 0
M  V30 8187 N 754.003 5.5824 1.59211 0
M  V30 8188 H 756.768 2.70619 -1.28785 0
M  V30 8189 H 754.329 1.39346 -0.824281 0
M  V30 8190 H 756.321 3.94059 0.921941 0
M  V30 8191 H 754.891 2.90436 1.15609 0
M  V30 8192 H 754.111 3.76222 -1.17689 0
M  V30 8193 H 755.399 4.97497 -1.06648 0
M  V30 8194 H 754.797 5.25172 2.10264 0
M  V30 8195 H 753.354 6.18336 2.06164 0
M  V30 8196 N 756.787 0.722489 1.40064 0
M  V30 8197 C 758.033 0.265371 2.01056 0
M  V30 8198 C 758.366 -1.14062 1.57174 0
M  V30 8199 O 757.641 -1.77514 0.794916 0
M  V30 8200 C 757.924 0.353157 3.58364 0
M  V30 8201 C 757.777 1.79802 4.123 0
M  V30 8202 C 759.096 -0.271677 4.39261 0
M  V30 8203 H 756.215 0.0979002 0.730469 0
M  V30 8204 H 758.857 0.916289 1.66446 0
M  V30 8205 H 757.007 -0.201037 3.87979 0
M  V30 8206 H 758.679 2.40813 3.93455 0
M  V30 8207 H 756.922 2.32348 3.66329 0
M  V30 8208 H 757.593 1.81079 5.21454 0
M  V30 8209 H 760.069 0.200607 4.15616 0
M  V30 8210 H 758.945 -0.179843 5.48605 0
M  V30 8211 H 759.206 -1.35611 4.20787 0
M  V30 8212 N 758.265 -1.50454 0.469181 0
M  V30 8213 C 759.681 -1.59124 0.123226 0
M  V30 8214 C 759.881 -1.47749 -1.37013 0
M  V30 8215 O 758.937 -1.335 -2.14322 0
M  V30 8216 C 760.25 -2.93101 0.67172 0
M  V30 8217 C 761.798 -3.06491 0.634978 0
M  V30 8218 C 762.273 -4.43041 1.16098 0
M  V30 8219 N 763.764 -4.49448 1.12031 0
M  V30 8220 C 764.499 -5.53491 1.49784 0
M  V30 8221 N 763.995 -6.64798 1.94976 0
M  V30 8222 N 765.788 -5.44025 1.41399 0
M  V30 8223 H 757.939 -1.56091 1.44046 0
M  V30 8224 H 760.202 -0.737564 0.59557 0
M  V30 8225 H 759.908 -3.06895 1.7178 0
M  V30 8226 H 759.782 -3.77027 0.114222 0
M  V30 8227 H 762.169 -2.92346 -0.402187 0
M  V30 8228 H 762.25 -2.24328 1.22926 0
M  V30 8229 H 761.894 -4.57935 2.19677 0
M  V30 8230 H 761.824 -5.23794 0.542939 0
M  V30 8231 H 764.315 -3.69575 0.788828 0
M  V30 8232 H 764.628 -7.40246 2.21936 0
M  V30 8233 H 762.973 -6.65923 1.98927 0
M  V30 8234 H 766.164 -4.55955 1.05935 0
M  V30 8235 H 766.337 -6.2499 1.71147 0
M  V30 8236 N 759.743 -0.201713 -1.56304 0
M  V30 8237 C 760.69 0.716499 -2.19397 0
M  V30 8238 C 761.66 1.20494 -1.14326 0
M  V30 8239 O 762.845 1.26763 -1.42604 0
M  V30 8240 C 759.985 1.92762 -2.86246 0
M  V30 8241 C 759.098 1.47993 -4.0586 0
M  V30 8242 C 758.233 2.64706 -4.60547 0
M  V30 8243 C 757.272 2.16576 -5.72504 0
M  V30 8244 N 756.409 3.26491 -6.21569 0
M  V30 8245 H 761.249 0.171724 -2.97505 0
M  V30 8246 H 758.786 0.073016 -1.46919 0
M  V30 8247 H 760.744 2.6384 -3.23178 0
M  V30 8248 H 759.374 2.44559 -2.10691 0
M  V30 8249 H 758.426 0.66477 -3.74546 0
M  V30 8250 H 759.738 1.08686 -4.86815 0
M  V30 8251 H 758.892 3.43898 -4.99819 0
M  V30 8252 H 757.631 3.0729 -3.78713 0
M  V30 8253 H 756.636 1.3584 -5.32755 0
M  V30 8254 H 757.861 1.75015 -6.56161 0
M  V30 8255 H 755.807 3.68594 -5.42655 0
M  V30 8256 H 755.724 2.91374 -6.97594 0
M  V30 8257 H 756.992 4.05877 -6.65495 0
M  V30 8258 N 761.222 1.57436 0.0718424 0
M  V30 8259 C 762.452 1.91196 0.782795 0
M  V30 8260 C 762.86 0.795927 1.71644 0
M  V30 8261 O 762.203 -0.239604 1.82131 0
M  V30 8262 C 762.265 3.20421 1.63005 0
M  V30 8263 C 761.929 4.48724 0.865782 0
M  V30 8264 C 762.926 5.19571 0.185051 0
M  V30 8265 C 760.611 4.95345 0.832971 0
M  V30 8266 C 762.605 6.3529 -0.518264 0
M  V30 8267 C 760.292 6.1097 0.125884 0
M  V30 8268 C 761.29 6.80794 -0.548533 0
M  V30 8269 O 760.978 7.94213 -1.24423 0
M  V30 8270 H 760.71 0.636486 0.227731 0
M  V30 8271 H 763.264 2.05348 0.0464187 0
M  V30 8272 H 761.494 3.02478 2.40923 0
M  V30 8273 H 763.183 3.39831 2.21968 0
M  V30 8274 H 763.949 4.8458 0.201707 0
M  V30 8275 H 759.828 4.40871 1.34737 0
M  V30 8276 H 763.372 6.89725 -1.04523 0
M  V30 8277 H 759.269 6.45411 0.107155 0
M  V30 8278 H 760.037 8.10331 -1.1535 0
M  V30 8279 N 762.7 -0.34323 1.53817 0
M  V30 8280 C 763.925 -1.1079 1.75329 0
M  V30 8281 C 764.35 -1.81571 0.491293 0
M  V30 8282 O 763.708 -1.72561 -0.556089 0
M  V30 8283 C 763.756 -2.09681 2.9337 0
M  V30 8284 O 762.86 -3.17207 2.63541 0
M  V30 8285 H 762.201 -0.320402 0.581583 0
M  V30 8286 H 764.731 -0.393525 2.0078 0
M  V30 8287 H 764.741 -2.52897 3.20168 0
M  V30 8288 H 763.416 -1.5756 3.84899 0
M  V30 8289 H 761.993 -2.78806 2.47632 0
M  V30 8290 N 764.178 -1.45556 -0.604258 0
M  V30 8291 C 765.108 -1.57327 -1.72541 0
M  V30 8292 C 766.089 -0.424637 -1.64714 0
M  V30 8293 O 767.274 -0.648196 -1.83063 0
M  V30 8294 C 764.404 -1.54279 -3.11152 0
M  V30 8295 C 763.358 -2.67893 -3.33792 0
M  V30 8296 C 762.684 -2.499 -4.72709 0
M  V30 8297 C 763.984 -4.0988 -3.23722 0
M  V30 8298 H 765.678 -2.51175 -1.62947 0
M  V30 8299 H 763.224 -1.20884 -0.782504 0
M  V30 8300 H 765.177 -1.6111 -3.89386 0
M  V30 8301 H 763.901 -0.569627 -3.21594 0
M  V30 8302 H 762.56 -2.60495 -2.57949 0
M  V30 8303 H 762.208 -1.50715 -4.79889 0
M  V30 8304 H 761.908 -3.26091 -4.88813 0
M  V30 8305 H 763.432 -2.5859 -5.5314 0
M  V30 8306 H 764.846 -4.18503 -3.91826 0
M  V30 8307 H 763.243 -4.86487 -3.51355 0
M  V30 8308 H 764.313 -4.31553 -2.21111 0
M  V30 8309 N 765.656 0.84705 -1.32902 0
M  V30 8310 C 766.933 1.58583 -1.14503 0
M  V30 8311 C 767.313 2.09075 0.291724 0
M  V30 8312 O 766.661 1.88636 1.28952 0
M  V30 8313 C 766.871 2.72605 -2.17916 0
M  V30 8314 C 768.219 3.41993 -2.51646 0
M  V30 8315 O 769.243 2.82838 -2.1652 0
M  V30 8316 O 768.102 4.48761 -3.1189 0
M  V30 8317 H 765.196 0.698756 -0.442345 0
M  V30 8318 H 767.742 0.890516 -1.44457 0
M  V30 8319 H 766.514 2.32876 -3.14459 0
M  V30 8320 H 766.137 3.49807 -1.89 0
M  V30 8321 N 767.134 1.16236 1.06428 0
M  V30 8322 C 768.064 0.890807 2.1584 0
M  V30 8323 C 769.045 -0.162333 1.69324 0
M  V30 8324 O 770.23 -0.0147191 1.94194 0
M  V30 8325 C 767.36 0.389615 3.45108 0
M  V30 8326 C 766.314 1.38051 4.05125 0
M  V30 8327 C 765.64 0.737773 5.29586 0
M  V30 8328 C 766.94 2.74965 4.44062 0
M  V30 8329 H 768.634 1.80577 2.38814 0
M  V30 8330 H 766.18 0.869657 1.14774 0
M  V30 8331 H 768.133 0.187127 4.20984 0
M  V30 8332 H 766.857 -0.560851 3.21748 0
M  V30 8333 H 765.516 1.56952 3.31303 0
M  V30 8334 H 765.164 -0.219135 5.02522 0
M  V30 8335 H 764.864 1.39914 5.70699 0
M  V30 8336 H 766.388 0.545275 6.0816 0
M  V30 8337 H 767.802 2.59855 5.11027 0
M  V30 8338 H 766.199 3.37563 4.96156 0
M  V30 8339 H 767.269 3.30321 3.54987 0
M  V30 8340 N 768.612 -1.24939 0.960631 0
M  V30 8341 C 769.575 -2.239 0.49006 0
M  V30 8342 C 770.575 -1.55497 -0.409535 0
M  V30 8343 O 771.765 -1.72978 -0.205984 0
M  V30 8344 C 768.897 -3.39654 -0.291193 0
M  V30 8345 H 770.09 -2.67044 1.36482 0
M  V30 8346 H 767.643 -1.37429 0.744505 0
M  V30 8347 H 768.378 -3.01939 -1.18336 0
M  V30 8348 H 768.163 -3.90496 0.354276 0
M  V30 8349 H 769.653 -4.13125 -0.609693 0
M  V30 8350 N 770.09 -0.729906 -1.39679 0
M  V30 8351 C 771.315 -0.284345 -2.05442 0
M  V30 8352 C 771.74 1.07056 -1.54663 0
M  V30 8353 O 771.098 1.67732 -0.688157 0
M  V30 8354 C 771.146 -0.290089 -3.59431 0
M  V30 8355 O 770.25 0.723978 -4.05995 0
M  V30 8356 H 769.591 -0.130311 -0.651088 0
M  V30 8357 H 772.121 -0.994403 -1.78809 0
M  V30 8358 H 772.131 -0.132712 -4.07784 0
M  V30 8359 H 770.806 -1.27877 -3.95753 0
M  V30 8360 H 769.383 0.533154 -3.69069 0
M  V30 8361 N 771.568 1.50203 -0.477153 0
M  V30 8362 C 772.498 2.31517 0.303646 0
M  V30 8363 C 773.479 1.38696 0.984753 0
M  V30 8364 O 774.664 1.67615 0.980758 0
M  V30 8365 C 771.794 3.18598 1.38249 0
M  V30 8366 C 770.748 4.2002 0.822645 0
M  V30 8367 C 770.074 4.95878 2.00024 0
M  V30 8368 C 771.374 5.22023 -0.170185 0
M  V30 8369 H 773.068 2.97042 -0.375027 0
M  V30 8370 H 770.614 1.42848 -0.181802 0
M  V30 8371 H 772.567 3.74282 1.93625 0
M  V30 8372 H 771.291 2.5097 2.09002 0
M  V30 8373 H 769.95 3.65445 0.290813 0
M  V30 8374 H 769.598 4.24717 2.69489 0
M  V30 8375 H 769.298 5.64487 1.63183 0
M  V30 8376 H 770.822 5.54399 2.55878 0
M  V30 8377 H 772.236 5.72543 0.294606 0
M  V30 8378 H 770.633 5.98386 -0.453181 0
M  V30 8379 H 771.703 4.72396 -1.09408 0
M  V30 8380 N 773.046 0.209999 1.56195 0
M  V30 8381 C 774.295 -0.425106 1.97169 0
M  V30 8382 C 774.608 -1.61718 1.10031 0
M  V30 8383 O 775.814 -2.32105 1.40853 0
M  V30 8384 C 774.27 -0.80771 3.50719 0
M  V30 8385 C 773.878 0.360902 4.46544 0
M  V30 8386 C 775.622 -1.40906 4.00432 0
M  V30 8387 C 773.529 -0.0434919 5.91384 0
M  V30 8388 H 772.459 -0.162598 0.736259 0
M  V30 8389 H 775.11 0.304382 1.80958 0
M  V30 8390 H 773.492 -1.59429 3.62489 0
M  V30 8391 H 774.666 1.13846 4.46515 0
M  V30 8392 H 772.981 0.874729 4.07109 0
M  V30 8393 H 775.578 -1.72433 5.06133 0
M  V30 8394 H 775.921 -2.32081 3.45607 0
M  V30 8395 H 776.454 -0.686154 3.91838 0
M  V30 8396 H 773.193 0.834448 6.50167 0
M  V30 8397 H 772.713 -0.785598 5.94633 0
M  V30 8398 H 774.392 -0.474176 6.4526 0
M  V30 8399 N 774.524 -1.57472 -0.0634922 0
M  V30 8400 C 775.454 -2.07297 -1.07473 0
M  V30 8401 C 776.435 -0.968162 -1.39859 0
M  V30 8402 O 777.62 -1.24139 -1.49343 0
M  V30 8403 C 774.75 -2.52381 -2.38581 0
M  V30 8404 C 773.704 -3.66813 -2.20526 0
M  V30 8405 C 773.03 -3.97982 -3.57092 0
M  V30 8406 C 774.33 -4.96553 -1.61965 0
M  V30 8407 H 776.024 -2.92033 -0.660092 0
M  V30 8408 H 773.57 -1.40488 -0.316074 0
M  V30 8409 H 775.523 -2.85852 -3.09624 0
M  V30 8410 H 774.247 -1.64684 -2.8204 0
M  V30 8411 H 772.906 -3.33639 -1.51924 0
M  V30 8412 H 772.554 -3.07403 -3.98136 0
M  V30 8413 H 772.254 -4.7504 -3.45848 0
M  V30 8414 H 773.778 -4.33956 -4.29552 0
M  V30 8415 H 775.192 -5.28201 -2.22883 0
M  V30 8416 H 773.589 -5.7799 -1.61394 0
M  V30 8417 H 774.659 -4.81396 -0.581918 0
M  V30 8418 N 776.003 0.335068 -1.53997 0
M  V30 8419 C 777.233 1.0926 -1.75345 0
M  V30 8420 C 777.641 1.82568 -0.496545 0
M  V30 8421 O 776.984 1.75525 0.541897 0
M  V30 8422 C 777.046 2.14473 -2.88516 0
M  V30 8423 C 776.71 1.60665 -4.27827 0
M  V30 8424 C 777.707 1.05448 -5.09094 0
M  V30 8425 C 775.392 1.65255 -4.74337 0
M  V30 8426 C 777.386 0.555372 -6.34976 0
M  V30 8427 C 775.073 1.14956 -6.0019 0
M  V30 8428 C 776.071 0.601907 -6.80343 0
M  V30 8429 O 775.759 0.106445 -8.0383 0
M  V30 8430 H 775.491 0.331329 -0.589234 0
M  V30 8431 H 778.045 0.39042 -2.01655 0
M  V30 8432 H 776.275 2.88274 -2.5775 0
M  V30 8433 H 777.964 2.75857 -2.97755 0
M  V30 8434 H 778.73 1.01218 -4.74321 0
M  V30 8435 H 774.609 2.06822 -4.12002 0
M  V30 8436 H 778.153 0.127245 -6.97484 0
M  V30 8437 H 774.05 1.18891 -6.34457 0
M  V30 8438 H 774.818 0.222944 -8.18196 0
M  V30 8439 N 777.481 1.45874 0.596531 0
M  V30 8440 C 778.444 1.54988 1.68853 0
M  V30 8441 C 779.444 0.428302 1.54991 0
M  V30 8442 O 780.634 0.692158 1.59859 0
M  V30 8443 C 777.766 1.457 3.08195 0
M  V30 8444 H 778.959 2.52294 1.62135 0
M  V30 8445 H 776.512 1.33479 0.813206 0
M  V30 8446 H 777.247 0.496204 3.20481 0
M  V30 8447 H 777.032 2.27061 3.19665 0
M  V30 8448 H 778.522 1.55133 3.87716 0
M  V30 8449 N 778.959 -0.83999 1.33349 0
M  V30 8450 C 780.189 -1.62492 1.27593 0
M  V30 8451 C 780.597 -1.88559 -0.155597 0
M  V30 8452 O 779.94 -1.46537 -1.10782 0
M  V30 8453 C 780.002 -2.99984 1.98116 0
M  V30 8454 C 779.666 -2.96892 3.47425 0
M  V30 8455 C 780.663 -2.72688 4.42648 0
M  V30 8456 C 778.348 -3.17063 3.89585 0
M  V30 8457 C 780.342 -2.68681 5.78004 0
M  V30 8458 C 778.029 -3.12682 5.25046 0
M  V30 8459 C 779.027 -2.88522 6.19067 0
M  V30 8460 O 778.715 -2.84042 7.52047 0
M  V30 8461 H 778.447 -0.512358 0.440982 0
M  V30 8462 H 781.001 -1.0545 1.76265 0
M  V30 8463 H 779.231 -3.58875 1.44034 0
M  V30 8464 H 780.92 -3.6084 1.85875 0
M  V30 8465 H 781.686 -2.56856 4.114 0
M  V30 8466 H 777.565 -3.34889 3.16813 0
M  V30 8467 H 781.109 -2.49743 6.51363 0
M  V30 8468 H 777.006 -3.28063 5.55918 0
M  V30 8469 H 777.774 -2.99892 7.61582 0
M  V30 8470 N 780.437 -1.16799 -1.0581 0
M  V30 8471 C 781.369 -0.836774 -2.13379 0
M  V30 8472 C 782.382 0.158116 -1.6203 0
M  V30 8473 O 783.571 -0.0673211 -1.78373 0
M  V30 8474 C 780.671 -0.225959 -3.38146 0
M  V30 8475 C 779.844 -1.26217 -4.18794 0
M  V30 8476 C 778.903 -0.670257 -5.21914 0
M  V30 8477 O 777.929 -1.34042 -5.53192 0
M  V30 8478 N 779.131 0.540683 -5.77977 0
M  V30 8479 H 781.896 -1.76257 -2.42391 0
M  V30 8480 H 779.457 -1.06599 -1.21853 0
M  V30 8481 H 781.449 0.18317 -4.04285 0
M  V30 8482 H 780.019 0.603494 -3.06719 0
M  V30 8483 H 779.239 -1.84729 -3.48237 0
M  V30 8484 H 780.527 -1.9613 -4.69479 0
M  V30 8485 H 779.925 1.10322 -5.54838 0
M  V30 8486 H 778.482 0.891958 -6.45668 0
M  V30 8487 N 781.915 1.24427 -0.967243 0
M  V30 8488 C 782.845 2.2773 -0.515899 0
M  V30 8489 C 783.826 1.64197 0.444227 0
M  V30 8490 O 785.011 1.91193 0.340451 0
M  V30 8491 C 782.141 3.46751 0.195149 0
M  V30 8492 C 781.095 4.22548 -0.680953 0
M  V30 8493 C 780.421 5.34456 0.161561 0
M  V30 8494 C 781.721 4.83914 -1.96532 0
M  V30 8495 H 783.415 2.65735 -1.37933 0
M  V30 8496 H 780.961 1.27742 -0.664681 0
M  V30 8497 H 782.914 4.18153 0.522117 0
M  V30 8498 H 781.638 3.07771 1.09292 0
M  V30 8499 H 780.297 3.52946 -0.991186 0
M  V30 8500 H 779.945 4.91716 1.05947 0
M  V30 8501 H 779.645 5.86087 -0.421418 0
M  V30 8502 H 781.169 6.08685 0.483211 0
M  V30 8503 H 782.583 5.47392 -1.70396 0
M  V30 8504 H 780.98 5.45775 -2.49499 0
M  V30 8505 H 782.05 4.05393 -2.66053 0
M  V30 8506 N 783.393 0.737304 1.3929 0
M  V30 8507 C 784.618 0.295237 2.05288 0
M  V30 8508 C 785.043 -1.06235 1.55228 0
M  V30 8509 O 784.401 -1.67365 0.697043 0
M  V30 8510 C 784.449 0.309146 3.59272 0
M  V30 8511 O 783.553 -0.702437 4.06374 0
M  V30 8512 H 782.894 0.133762 0.650387 0
M  V30 8513 H 785.424 1.00387 1.78279 0
M  V30 8514 H 785.434 0.154336 4.07708 0
M  V30 8515 H 784.109 1.29974 3.95069 0
M  V30 8516 H 782.686 -0.513574 3.69346 0
M  V30 8517 N 784.871 -1.49948 0.485112 0
M  V30 8518 C 786.099 -2.06806 -0.0622824 0
M  V30 8519 C 786.514 -1.34736 -1.32256 0
M  V30 8520 O 785.871 -0.420836 -1.77582 0
M  V30 8521 C 785.922 -3.59934 -0.336096 0
M  V30 8522 O 785.643 -4.29289 0.874203 0
M  V30 8523 C 787.144 -4.33459 -0.928903 0
M  V30 8524 H 784.364 -0.670867 0.0133472 0
M  V30 8525 H 786.908 -1.92937 0.677917 0
M  V30 8526 H 785.063 -3.7356 -1.02625 0
M  V30 8527 H 785.477 -5.20735 0.627332 0
M  V30 8528 H 786.951 -5.41527 -1.07017 0
M  V30 8529 H 787.428 -3.94881 -1.92265 0
M  V30 8530 H 788.034 -4.24399 -0.276705 0
M  V30 8531 N 786.349 -0.21828 -1.56081 0
M  V30 8532 C 787.312 0.679633 -2.18892 0
M  V30 8533 C 788.312 1.12405 -1.14986 0
M  V30 8534 O 789.502 1.03339 -1.40238 0
M  V30 8535 C 786.634 1.93063 -2.80962 0
M  V30 8536 H 787.827 0.132066 -2.99609 0
M  V30 8537 H 785.38 0.0313374 -1.56269 0
M  V30 8538 H 786.115 2.52015 -2.04106 0
M  V30 8539 H 785.9 1.62046 -3.57048 0
M  V30 8540 H 787.39 2.57043 -3.29118 0
M  V30 8541 N 787.827 1.57504 0.0551401 0
M  V30 8542 C 788.757 2.07864 1.06372 0
M  V30 8543 C 789.738 0.975565 1.39344 0
M  V30 8544 O 790.923 1.24929 1.48682 0
M  V30 8545 C 788.053 2.53643 2.3724 0
M  V30 8546 C 787.007 3.67978 2.18578 0
M  V30 8547 C 786.333 3.9987 3.54976 0
M  V30 8548 C 787.633 4.97405 1.59329 0
M  V30 8549 H 789.327 2.92379 0.644595 0
M  V30 8550 H 786.873 1.40654 0.308619 0
M  V30 8551 H 788.826 2.8749 3.08103 0
M  V30 8552 H 787.55 1.66177 2.81163 0
M  V30 8553 H 786.209 3.3444 1.50152 0
M  V30 8554 H 785.857 3.0951 3.965 0
M  V30 8555 H 785.557 4.76867 3.43324 0
M  V30 8556 H 787.081 4.36228 4.27244 0
M  V30 8557 H 788.495 5.29375 2.20078 0
M  V30 8558 H 786.892 5.78837 1.58327 0
M  V30 8559 H 787.962 4.81697 0.55638 0
M  V30 8560 N 789.305 -0.326896 1.54172 0
M  V30 8561 C 790.268 -1.38515 1.8261 0
M  V30 8562 C 791.268 -1.44872 0.697771 0
M  V30 8563 O 792.458 -1.44957 0.966078 0
M  V30 8564 C 789.59 -2.77281 1.98313 0
M  V30 8565 H 790.783 -1.14556 2.77159 0
M  V30 8566 H 788.336 -0.562199 1.45839 0
M  V30 8567 H 789.071 -3.065 1.05964 0
M  V30 8568 H 788.856 -2.74061 2.80416 0
M  V30 8569 H 790.346 -3.53845 2.21773 0
M  V30 8570 N 790.784 -1.46188 -0.588786 0
M  V30 8571 C 792.014 -1.54519 -1.3714 0
M  V30 8572 C 792.422 -0.183075 -1.88312 0
M  V30 8573 O 791.765 0.828815 -1.6394 0
M  V30 8574 C 791.827 -2.48426 -2.59856 0
M  V30 8575 C 791.491 -3.94791 -2.30193 0
M  V30 8576 C 792.488 -4.84173 -1.894 0
M  V30 8577 C 790.173 -4.39872 -2.42525 0
M  V30 8578 C 792.167 -6.16647 -1.61325 0
M  V30 8579 C 789.854 -5.72381 -2.14063 0
M  V30 8580 C 790.852 -6.60589 -1.73527 0
M  V30 8581 O 790.54 -7.9064 -1.4541 0
M  V30 8582 H 790.272 -0.525264 -0.425527 0
M  V30 8583 H 792.826 -1.92242 -0.723344 0
M  V30 8584 H 791.056 -2.05709 -3.27446 0
M  V30 8585 H 792.745 -2.4723 -3.21919 0
M  V30 8586 H 793.511 -4.50603 -1.79393 0
M  V30 8587 H 789.39 -3.71444 -2.7304 0
M  V30 8588 H 792.934 -6.85454 -1.29611 0
M  V30 8589 H 788.831 -6.05501 -2.23693 0
M  V30 8590 H 789.599 -8.02847 -1.59306 0
M  V30 8591 N 792.262 0.832906 -1.33792 0
M  V30 8592 C 793.192 1.95828 -1.27176 0
M  V30 8593 C 794.173 1.69427 -0.15114 0
M  V30 8594 O 795.358 1.91167 -0.341886 0
M  V30 8595 C 792.488 3.32098 -1.01629 0
M  V30 8596 C 791.442 3.72912 -2.10049 0
M  V30 8597 C 790.768 5.07054 -1.69706 0
M  V30 8598 C 792.068 3.86064 -3.51783 0
M  V30 8599 H 793.762 2.01622 -2.21334 0
M  V30 8600 H 791.308 0.96866 -1.0655 0
M  V30 8601 H 793.261 4.10402 -0.956474 0
M  V30 8602 H 791.985 3.26577 -0.0390956 0
M  V30 8603 H 790.644 2.96876 -2.15082 0
M  V30 8604 H 790.292 4.9801 -0.706737 0
M  V30 8605 H 789.992 5.35333 -2.42264 0
M  V30 8606 H 791.516 5.87827 -1.65202 0
M  V30 8607 H 792.93 4.54665 -3.49218 0
M  V30 8608 H 791.327 4.25787 -4.22878 0
M  V30 8609 H 792.397 2.88344 -3.89854 0
M  V30 8610 N 793.74 1.17359 1.05189 0
M  V30 8611 C 794.65 0.904984 2.16442 0
M  V30 8612 C 795.666 -0.12686 1.73537 0
M  V30 8613 O 796.842 0.0524127 2.01332 0
M  V30 8614 C 793.907 0.422019 3.44122 0
M  V30 8615 C 792.968 1.52045 4.01473 0
M  V30 8616 C 792.201 1.06044 5.23059 0
M  V30 8617 O 792.424 -0.0854023 5.70336 0
M  V30 8618 O 791.358 1.85349 5.72651 0
M  V30 8619 H 795.184 1.8356 2.41949 0
M  V30 8620 H 792.769 0.95447 1.14936 0
M  V30 8621 H 794.651 0.160208 4.21095 0
M  V30 8622 H 793.326 -0.480444 3.20115 0
M  V30 8623 H 792.233 1.83615 3.25939 0
M  V30 8624 H 793.566 2.39863 4.29798 0
M  V30 8625 N 795.218 -1.23913 0.973828 0
M  V30 8626 C 796.443 -1.96735 0.656511 0
M  V30 8627 C 796.868 -1.71682 -0.768571 0
M  V30 8628 O 796.226 -0.984267 -1.52256 0
M  V30 8629 C 796.274 -3.48004 0.944735 0
M  V30 8630 O 795.378 -4.12387 0.0333357 0
M  V30 8631 H 794.719 -0.616119 0.247575 0
M  V30 8632 H 797.249 -1.57525 1.30564 0
M  V30 8633 H 797.259 -3.98424 0.87876 0
M  V30 8634 H 795.934 -3.65567 1.98328 0
M  V30 8635 H 794.511 -3.72585 0.153157 0
M  V30 8636 N 796.696 -0.74468 -1.38897 0
M  V30 8637 C 797.643 -0.111064 -2.30533 0
M  V30 8638 C 798.613 0.719276 -1.49719 0
M  V30 8639 O 799.798 0.677244 -1.78376 0
M  V30 8640 C 796.938 0.78292 -3.36102 0
M  V30 8641 C 796.051 -0.0610817 -4.31957 0
M  V30 8642 C 795.186 0.835075 -5.24595 0
M  V30 8643 C 794.225 -0.0130974 -6.12099 0
M  V30 8644 N 793.362 0.839525 -6.97063 0
M  V30 8645 H 798.202 -0.898113 -2.84144 0
M  V30 8646 H 795.739 -0.454537 -1.39901 0
M  V30 8647 H 797.697 1.31578 -3.95908 0
M  V30 8648 H 796.327 1.53585 -2.83922 0
M  V30 8649 H 795.379 -0.711469 -3.73687 0
M  V30 8650 H 796.691 -0.716482 -4.93627 0
M  V30 8651 H 795.845 1.43542 -5.89475 0
M  V30 8652 H 794.584 1.52423 -4.63269 0
M  V30 8653 H 793.589 -0.626179 -5.46223 0
M  V30 8654 H 794.814 -0.699181 -6.75491 0
M  V30 8655 H 792.76 1.5138 -6.38295 0
M  V30 8656 H 792.677 0.240823 -7.55616 0
M  V30 8657 H 793.945 1.42513 -7.66362 0
M  V30 8658 N 798.174 1.49689 -0.493057 0
M  V30 8659 C 799.59 1.58907 -0.148526 0
M  V30 8660 C 799.79 1.4991 1.34645 0
M  V30 8661 O 798.846 1.36893 2.12171 0
M  V30 8662 C 800.159 2.91996 -0.718265 0
M  V30 8663 C 801.707 3.05443 -0.683658 0
M  V30 8664 C 802.182 4.41138 -1.23132 0
M  V30 8665 N 803.673 4.47608 -1.19167 0
M  V30 8666 C 804.408 5.51038 -1.5857 0
M  V30 8667 N 803.904 6.61612 -2.05528 0
M  V30 8668 N 805.697 5.41706 -1.50036 0
M  V30 8669 H 797.848 1.5378 -1.46511 0
M  V30 8670 H 800.111 0.727996 -0.607228 0
M  V30 8671 H 799.817 3.04123 -1.7664 0
M  V30 8672 H 799.691 3.76798 -0.17419 0
M  V30 8673 H 802.078 2.92949 0.355626 0
M  V30 8674 H 802.159 2.22344 -1.26479 0
M  V30 8675 H 801.803 4.54382 -2.26935 0
M  V30 8676 H 801.733 5.22864 -0.626201 0
M  V30 8677 H 804.224 3.68274 -0.847524 0
M  V30 8678 H 804.537 7.36622 -2.33685 0
M  V30 8679 H 802.882 6.62674 -2.09497 0
M  V30 8680 H 806.073 4.54212 -1.13176 0
M  V30 8681 H 806.246 6.22188 -1.81068 0
M  V30 8682 N 799.652 0.226554 1.55963 0
M  V30 8683 C 800.899 -0.403789 1.98433 0
M  V30 8684 C 801.227 -1.59416 1.1143 0
M  V30 8685 O 800.482 -1.95042 0.160389 0
M  V30 8686 C 800.781 -0.87642 3.46488 0
M  V30 8687 C 800.447 0.203973 4.50438 0
M  V30 8688 C 799.109 0.500754 4.78587 0
M  V30 8689 C 801.461 0.934396 5.12756 0
M  V30 8690 C 798.789 1.53239 5.66334 0
M  V30 8691 C 801.141 1.9554 6.0162 0
M  V30 8692 C 799.805 2.25905 6.28111 0
M  V30 8693 H 799.075 -0.147757 0.726119 0
M  V30 8694 H 801.722 0.330121 1.88633 0
M  V30 8695 H 800.027 -1.68918 3.53517 0
M  V30 8696 H 801.724 -1.37407 3.76723 0
M  V30 8697 H 798.314 -0.0374917 4.28584 0
M  V30 8698 H 802.498 0.718355 4.91074 0
M  V30 8699 H 797.754 1.77321 5.85122 0
M  V30 8700 H 801.928 2.52642 6.48957 0
M  V30 8701 H 799.555 3.05985 6.959 0
M  V30 8702 N 801.13 -1.57531 -0.0467866 0
M  V30 8703 C 802.376 -1.8873 -0.742218 0
M  V30 8704 C 802.709 -0.822084 -1.75941 0
M  V30 8705 O 801.984 0.164922 -1.938 0
M  V30 8706 C 802.267 -3.30586 -1.42776 0
M  V30 8707 C 802.12 -4.47785 -0.425285 0
M  V30 8708 C 803.439 -3.71068 -2.36636 0
M  V30 8709 H 800.558 -0.686406 -0.268359 0
M  V30 8710 H 803.2 -1.89999 -0.00511341 0
M  V30 8711 H 801.35 -3.29634 -2.05605 0
M  V30 8712 H 803.022 -4.60867 0.199721 0
M  V30 8713 H 801.265 -4.33037 0.25713 0
M  V30 8714 H 801.936 -5.43884 -0.943086 0
M  V30 8715 H 804.412 -3.73273 -1.83866 0
M  V30 8716 H 803.288 -4.71165 -2.81593 0
M  V30 8717 H 803.549 -3.02355 -3.22542 0
M  V30 8718 N 802.608 0.318715 -1.54344 0
M  V30 8719 C 803.558 1.39364 -1.80448 0
M  V30 8720 C 804.542 1.46708 -0.660728 0
M  V30 8721 O 805.734 1.51159 -0.920869 0
M  V30 8722 C 802.863 2.76144 -2.03959 0
M  V30 8723 C 801.949 2.73094 -3.24469 0
M  V30 8724 N 802.34 2.39663 -4.45416 0
M  V30 8725 C 800.638 3.04218 -3.2614 0
M  V30 8726 C 801.339 2.45469 -5.27371 0
M  V30 8727 N 800.315 2.82107 -4.64668 0
M  V30 8728 H 804.117 1.12453 -2.71535 0
M  V30 8729 H 801.631 0.527221 -1.53604 0
M  V30 8730 H 803.628 3.53627 -2.20802 0
M  V30 8731 H 802.288 3.03982 -1.14129 0
M  V30 8732 H 803.299 2.12424 -4.72331 0
M  V30 8733 H 799.976 3.37066 -2.4636 0
M  V30 8734 H 801.366 2.22571 -6.33965 0
M  V30 8735 N 804.086 1.46499 0.581025 0
M  V30 8736 C 805.502 1.31491 0.904563 0
M  V30 8737 C 805.702 0.287598 1.99437 0
M  V30 8738 O 804.758 -0.309247 2.50599 0
M  V30 8739 C 806.071 2.70163 1.32032 0
M  V30 8740 C 807.619 2.78266 1.43308 0
M  V30 8741 C 808.094 4.17524 1.8825 0
M  V30 8742 N 809.585 4.19949 1.9544 0
M  V30 8743 C 810.32 5.24594 2.31493 0
M  V30 8744 N 809.816 6.39564 2.66326 0
M  V30 8745 N 811.609 5.11961 2.32062 0
M  V30 8746 H 803.76 2.11946 -0.138856 0
M  V30 8747 H 806.023 0.948 0.000548528 0
M  V30 8748 H 805.729 3.46655 0.593554 0
M  V30 8749 H 805.603 3.00379 2.2815 0
M  V30 8750 H 807.99 2.02061 2.15071 0
M  V30 8751 H 808.071 2.51732 0.45438 0
M  V30 8752 H 807.715 4.94225 1.17065 0
M  V30 8753 H 807.645 4.41466 2.87081 0
M  V30 8754 H 810.136 3.36996 1.71004 0
M  V30 8755 H 810.449 7.15187 2.92793 0
M  V30 8756 H 808.794 6.42923 2.6396 0
M  V30 8757 H 811.985 4.21177 2.04272 0
M  V30 8758 H 812.158 5.93626 2.5983 0
M  V30 8759 N 805.565 -0.825799 1.34232 0
M  V30 8760 C 806.842 -1.56741 1.17011 0
M  V30 8761 C 807.222 -2.09512 -0.258425 0
M  V30 8762 O 806.57 -1.90664 -1.25935 0
M  V30 8763 C 806.78 -2.69104 2.22225 0
M  V30 8764 C 808.128 -3.37947 2.57055 0
M  V30 8765 O 809.152 -2.79358 2.20992 0
M  V30 8766 O 808.011 -4.43743 3.1899 0
M  V30 8767 H 805.105 -0.69163 0.453405 0
M  V30 8768 H 807.651 -0.867422 1.45856 0
M  V30 8769 H 806.423 -2.27844 3.18124 0
M  V30 8770 H 806.046 -3.46756 1.94541 0
M  V30 8771 N 807.043 -1.17915 -1.04565 0
M  V30 8772 C 808.292 -0.965816 -1.77073 0
M  V30 8773 C 808.605 0.506005 -1.88942 0
M  V30 8774 O 809.811 0.837717 -2.58253 0
M  V30 8775 C 808.267 -1.67894 -3.18339 0
M  V30 8776 C 807.875 -3.18972 -3.1458 0
M  V30 8777 C 809.619 -1.54823 -3.9526 0
M  V30 8778 C 807.526 -3.82946 -4.50674 0
M  V30 8779 H 806.456 -0.357729 -0.663736 0
M  V30 8780 H 809.107 -1.41235 -1.17153 0
M  V30 8781 H 807.489 -1.16016 -3.78624 0
M  V30 8782 H 808.663 -3.77835 -2.63776 0
M  V30 8783 H 806.978 -3.32127 -2.51159 0
M  V30 8784 H 809.575 -1.99984 -4.95894 0
M  V30 8785 H 809.918 -0.499727 -4.1329 0
M  V30 8786 H 810.451 -2.03953 -3.41538 0
M  V30 8787 H 807.19 -4.8782 -4.37849 0
M  V30 8788 H 806.71 -3.2887 -5.01602 0
M  V30 8789 H 808.389 -3.85518 -5.196 0
M  V30 8790 N 808.521 1.23394 -0.980386 0
M  V30 8791 C 809.484 2.23092 -0.525619 0
M  V30 8792 C 810.484 1.56129 0.384745 0
M  V30 8793 O 811.674 1.73284 0.178439 0
M  V30 8794 C 808.806 3.40074 0.23712 0
M  V30 8795 H 809.999 2.64839 -1.40714 0
M  V30 8796 H 807.552 1.36227 -0.766275 0
M  V30 8797 H 808.287 3.03783 1.13518 0
M  V30 8798 H 808.072 3.89883 -0.416356 0
M  V30 8799 H 809.562 4.14043 0.543892 0
M  V30 8800 N 809.999 0.752036 1.385 0
M  V30 8801 C 810.962 0.131587 2.28822 0
M  V30 8802 C 811.962 -0.649149 1.47115 0
M  V30 8803 O 813.152 -0.475645 1.67581 0
M  V30 8804 C 810.284 -0.822101 3.30839 0
M  V30 8805 H 811.477 0.927551 2.85196 0
M  V30 8806 H 809.03 0.518945 1.47434 0
M  V30 8807 H 809.765 -1.6438 2.79553 0
M  V30 8808 H 809.55 -0.264689 3.91206 0
M  V30 8809 H 811.04 -1.25226 3.98382 0
M  V30 8810 N 811.477 -1.49425 0.500989 0
M  V30 8811 C 812.893 -1.58826 0.156951 0
M  V30 8812 C 813.093 -1.50622 -1.33848 0
M  V30 8813 O 812.149 -1.38016 -2.11442 0
M  V30 8814 C 813.462 -2.91611 0.73374 0
M  V30 8815 C 815.01 -3.05076 0.699846 0
M  V30 8816 C 815.485 -4.40479 1.2547 0
M  V30 8817 N 816.976 -4.4697 1.2154 0
M  V30 8818 C 817.711 -5.50189 1.6149 0
M  V30 8819 N 817.207 -6.60512 2.09034 0
M  V30 8820 N 819 -5.40903 1.52907 0
M  V30 8821 H 811.151 -1.53001 1.47324 0
M  V30 8822 H 813.414 -0.724765 0.61108 0
M  V30 8823 H 813.12 -3.03182 1.78251 0
M  V30 8824 H 812.994 -3.767 0.19417 0
M  V30 8825 H 815.381 -2.93134 -0.340085 0
M  V30 8826 H 815.462 -2.2167 1.27656 0
M  V30 8827 H 815.106 -4.53172 2.29341 0
M  V30 8828 H 815.036 -5.22524 0.653921 0
M  V30 8829 H 817.527 -3.67819 0.867043 0
M  V30 8830 H 817.84 -7.35372 2.37588 0
M  V30 8831 H 816.185 -6.61553 2.13008 0
M  V30 8832 H 819.376 -4.53606 1.15583 0
M  V30 8833 H 819.549 -6.21219 1.84365 0
M  V30 8834 N 812.955 -0.234822 -1.55841 0
M  V30 8835 C 813.903 0.686145 -2.22249 0
M  V30 8836 C 814.897 1.18948 -1.20614 0
M  V30 8837 O 816.103 1.14777 -1.38659 0
M  V30 8838 H 812.478 0.239724 -0.712767 0
M  V30 8839 H 814.449 0.102762 -2.98223 0
M  V30 8840 C 813.198 1.8776 -2.92646 0
M  V30 8841 H 812.521 1.49943 -3.70617 0
M  V30 8842 H 813.961 2.4995 -3.42493 0
M  V30 8843 C 812.42 2.74127 -1.95847 0
M  V30 8844 O 812.95 3.7329 -1.48384 0
M  V30 8845 N 811.156 2.4044 -1.63209 0
M  V30 8846 H 810.703 1.59854 -2.02001 0
M  V30 8847 H 810.661 2.98504 -0.987063 0
M  V30 8848 N 814.433 1.57553 0.0384317 0
M  V30 8849 C 815.679 1.89121 0.732199 0
M  V30 8850 C 816.012 0.831404 1.75503 0
M  V30 8851 O 815.287 -0.154642 1.93884 0
M  V30 8852 C 815.57 3.31338 1.41021 0
M  V30 8853 C 815.423 4.48004 0.401532 0
M  V30 8854 C 816.742 3.72318 2.34665 0
M  V30 8855 H 813.861 0.687819 0.264715 0
M  V30 8856 H 816.503 1.89999 -0.00496279 0
M  V30 8857 H 814.653 3.3072 2.03854 0
M  V30 8858 H 816.325 4.60755 -0.224159 0
M  V30 8859 H 814.568 4.32895 -0.280092 0
M  V30 8860 H 815.239 5.44377 0.91423 0
M  V30 8861 H 817.715 3.74243 1.81883 0
M  V30 8862 H 816.591 4.72652 2.7909 0
M  V30 8863 H 816.852 3.04062 3.20934 0
M  V30 8864 N 815.911 -0.310526 1.54511 0
M  V30 8865 C 816.841 -1.38757 1.878 0
M  V30 8866 C 817.822 -1.53353 0.735991 0
M  V30 8867 O 819.007 -1.67018 0.990887 0
M  V30 8868 C 816.137 -2.75327 2.11689 0
M  V30 8869 C 815.091 -2.75506 3.27537 0
M  V30 8870 C 814.417 -4.15275 3.36824 0
M  V30 8871 C 815.717 -2.38093 4.64875 0
M  V30 8872 H 817.411 -1.11146 2.78005 0
M  V30 8873 H 814.957 -0.533232 1.33763 0
M  V30 8874 H 816.91 -3.50752 2.33562 0
M  V30 8875 H 815.634 -3.04443 1.18245 0
M  V30 8876 H 814.293 -2.02538 3.05572 0
M  V30 8877 H 813.941 -4.41553 2.40915 0
M  V30 8878 H 813.641 -4.16299 4.14692 0
M  V30 8879 H 815.165 -4.92493 3.60947 0
M  V30 8880 H 816.579 -3.03232 4.86542 0
M  V30 8881 H 814.976 -2.50345 5.45387 0
M  V30 8882 H 816.046 -1.33227 4.66239 0
M  V30 8883 N 817.389 -1.46805 -0.573248 0
M  V30 8884 C 818.635 -1.5283 -1.33307 0
M  V30 8885 C 818.968 -0.183287 -1.93333 0
M  V30 8886 O 818.243 0.806354 -1.76998 0
M  V30 8887 C 818.526 -2.63414 -2.45531 0
M  V30 8888 C 818.379 -4.07478 -1.90478 0
M  V30 8889 C 819.698 -2.70014 -3.47535 0
M  V30 8890 H 816.817 -0.556371 -0.483343 0
M  V30 8891 H 819.459 -1.78787 -0.643066 0
M  V30 8892 H 817.609 -2.41412 -3.04389 0
M  V30 8893 H 819.281 -4.40795 -1.36004 0
M  V30 8894 H 817.524 -4.16511 -1.21248 0
M  V30 8895 H 818.195 -4.80598 -2.71531 0
M  V30 8896 H 820.671 -2.89817 -2.98572 0
M  V30 8897 H 819.547 -3.49192 -4.23504 0
M  V30 8898 H 819.808 -1.76436 -4.05367 0
M  V30 8899 N 818.867 0.818669 -1.34668 0
M  V30 8900 C 820.092 1.61193 -1.30505 0
M  V30 8901 C 820.517 1.87734 0.117341 0
M  V30 8902 O 819.875 1.45591 1.08042 0
M  V30 8903 C 819.923 2.92733 -2.1057 0
M  V30 8904 O 819.027 3.85 -1.47813 0
M  V30 8905 H 818.368 0.490085 -0.44801 0
M  V30 8906 H 820.898 1.01701 -1.77534 0
M  V30 8907 H 820.908 3.42262 -2.22082 0
M  V30 8908 H 819.583 2.7274 -3.13984 0
M  V30 8909 H 818.16 3.43525 -1.45069 0
M  V30 8910 N 820.346 1.18468 1.03938 0
M  V30 8911 C 821.571 1.00638 1.81347 0
M  V30 8912 C 821.996 -0.440477 1.8287 0
M  V30 8913 O 821.354 -1.31609 1.24695 0
M  V30 8914 C 821.402 1.5673 3.24759 0
M  V30 8915 O 820.506 0.789517 4.04772 0
M  V30 8916 H 819.847 0.356432 0.560225 0
M  V30 8917 H 822.377 1.57253 1.30891 0
M  V30 8918 H 822.387 1.59496 3.75533 0
M  V30 8919 H 821.062 2.62043 3.22965 0
M  V30 8920 H 819.639 0.834267 3.63448 0
M  V30 8921 N 821.824 -1.22873 0.986916 0
M  V30 8922 C 822.772 -2.26597 0.525043 0
M  V30 8923 C 823.766 -1.64079 -0.421252 0
M  V30 8924 O 824.972 -1.77576 -0.294429 0
M  V30 8925 H 821.347 -0.736606 0.151381 0
M  V30 8926 H 823.318 -2.62909 1.41142 0
M  V30 8927 C 822.067 -3.47374 -0.150542 0
M  V30 8928 H 821.39 -3.95737 0.568541 0
M  V30 8929 H 822.83 -4.21739 -0.437256 0
M  V30 8930 C 821.289 -3.07163 -1.38392 0
M  V30 8931 O 821.819 -3.16028 -2.47971 0
M  V30 8932 N 820.025 -2.62009 -1.25697 0
M  V30 8933 H 819.572 -2.54996 -0.365355 0
M  V30 8934 H 819.53 -2.35472 -2.08327 0
M  V30 8935 N 823.302 -0.75937 -1.38099 0
M  V30 8936 C 824.579 -0.243371 -1.9408 0
M  V30 8937 C 824.959 1.25942 -1.69416 0
M  V30 8938 O 824.307 2.03667 -1.03595 0
M  V30 8939 C 824.517 -0.603328 -3.43745 0
M  V30 8940 C 825.865 -0.566195 -4.20808 0
M  V30 8941 O 826.889 -0.541969 -3.52053 0
M  V30 8942 O 825.748 -0.582261 -5.43389 0
M  V30 8943 H 822.842 -0.0526825 -0.82532 0
M  V30 8944 H 825.388 -0.839884 -1.47459 0
M  V30 8945 H 824.16 -1.64098 -3.55229 0
M  V30 8946 H 823.783 0.0208887 -3.97595 0
M  V30 8947 N 824.78 1.49157 -0.508906 0
M  V30 8948 C 826.02 2.04376 0.0310623 0
M  V30 8949 C 826.384 1.37946 1.33547 0
M  V30 8950 O 827.585 1.83931 1.96017 0
M  V30 8951 C 825.856 3.56985 0.172191 0
M  V30 8952 S 827.415 4.33728 0.665267 0
M  V30 8953 H 824.233 0.710997 -0.00199266 0
M  V30 8954 H 826.835 1.83119 -0.684674 0
M  V30 8955 H 825.539 4.02874 -0.78234 0
M  V30 8956 H 825.07 3.82661 0.912933 0
M  V30 8957 H 827.085 4.56992 1.9332 0
M  V30 8958 N 826.258 0.243083 1.55714 0
M  V30 8959 C 827.504 -0.383287 1.99145 0
M  V30 8960 C 827.837 -1.57868 1.13098 0
M  V30 8961 O 827.112 -1.93535 0.193509 0
M  V30 8962 C 827.395 -0.796879 3.51172 0
M  V30 8963 C 827.248 0.403642 4.47985 0
M  V30 8964 C 828.567 -1.64525 4.08191 0
M  V30 8965 H 825.686 -0.137843 0.723995 0
M  V30 8966 H 828.328 0.343631 1.86867 0
M  V30 8967 H 826.478 -1.41625 3.61766 0
M  V30 8968 H 828.15 1.04204 4.49376 0
M  V30 8969 H 826.393 1.04741 4.20965 0
M  V30 8970 H 827.064 0.0709794 5.51954 0
M  V30 8971 H 829.54 -1.12246 4.00674 0
M  V30 8972 H 828.416 -1.9035 5.14838 0
M  V30 8973 H 828.677 -2.61582 3.56409 0
M  V30 8974 N 827.736 -1.57571 -0.0300757 0
M  V30 8975 C 828.683 -2.06492 -1.03101 0
M  V30 8976 C 829.653 -0.953862 -1.3598 0
M  V30 8977 O 830.838 -1.22436 -1.46335 0
M  V30 8978 C 827.978 -2.54826 -2.32718 0
M  V30 8979 C 827.091 -3.79718 -2.06006 0
M  V30 8980 C 826.226 -4.16668 -3.29487 0
M  V30 8981 C 825.265 -5.3448 -2.98324 0
M  V30 8982 N 824.402 -5.66867 -4.14254 0
M  V30 8983 H 829.242 -2.91755 -0.606877 0
M  V30 8984 H 826.779 -1.44252 -0.288038 0
M  V30 8985 H 828.737 -2.80916 -3.08451 0
M  V30 8986 H 827.367 -1.72481 -2.72856 0
M  V30 8987 H 826.419 -3.60718 -1.20774 0
M  V30 8988 H 827.731 -4.65569 -1.79017 0
M  V30 8989 H 826.885 -4.43881 -4.13588 0
M  V30 8990 H 825.624 -3.29466 -3.59588 0
M  V30 8991 H 824.629 -5.07021 -2.12625 0
M  V30 8992 H 825.854 -6.23334 -2.69502 0
M  V30 8993 H 823.8 -4.82625 -4.44308 0
M  V30 8994 H 823.717 -6.47226 -3.90685 0
M  V30 8995 H 824.985 -5.98656 -4.99231 0
M  V30 8996 N 829.214 0.302327 -1.54673 0
M  V30 8997 C 830.144 1.37759 -1.88533 0
M  V30 8998 C 831.125 1.52961 -0.744113 0
M  V30 8999 O 832.31 1.6649 -0.999731 0
M  V30 9000 C 829.44 2.74201 -2.13146 0
M  V30 9001 C 828.394 2.73765 -3.28993 0
M  V30 9002 C 827.72 4.13483 -3.39022 0
M  V30 9003 C 829.02 2.35624 -4.66132 0
M  V30 9004 H 830.714 1.0967 -2.78591 0
M  V30 9005 H 828.26 0.52613 -1.34044 0
M  V30 9006 H 830.213 3.49508 -2.35419 0
M  V30 9007 H 828.937 3.03812 -1.19858 0
M  V30 9008 H 827.596 2.00914 -3.06642 0
M  V30 9009 H 827.244 4.40269 -2.43253 0
M  V30 9010 H 826.944 4.14093 -4.16894 0
M  V30 9011 H 828.468 4.90572 -3.63553 0
M  V30 9012 H 829.882 3.00647 -4.88143 0
M  V30 9013 H 828.279 2.47449 -5.46707 0
M  V30 9014 H 829.349 1.30753 -4.66939 0
M  V30 9015 N 830.692 1.47107 0.565454 0
M  V30 9016 C 831.94 1.53005 1.32038 0
M  V30 9017 C 832.261 0.190453 1.94068 0
M  V30 9018 O 831.531 -0.784783 1.79494 0
M  V30 9019 H 830.111 0.563578 0.490294 0
M  V30 9020 H 832.773 1.83351 0.660928 0
M  V30 9021 H 831.869 2.29215 2.11818 0
M  V30 9022 N 832.17 -0.811516 1.35101 0
M  V30 9023 C 833.447 -1.55491 1.18667 0
M  V30 9024 C 833.827 -2.09775 -0.236189 0
M  V30 9025 O 833.175 -1.91989 -1.23905 0
M  V30 9026 C 833.385 -2.66732 2.25067 0
M  V30 9027 C 834.733 -3.35201 2.60625 0
M  V30 9028 O 835.757 -2.76998 2.23943 0
M  V30 9029 O 834.616 -4.40334 3.23679 0
M  V30 9030 H 831.71 -0.686783 0.460716 0
M  V30 9031 H 834.256 -0.851903 1.46768 0
M  V30 9032 H 833.028 -2.24457 3.20523 0
M  V30 9033 H 832.651 -3.44673 1.98208 0
M  V30 9034 N 833.648 -1.19017 -1.03309 0
M  V30 9035 C 834.895 -0.990214 -1.76638 0
M  V30 9036 C 835.223 0.479435 -1.88498 0
M  V30 9037 O 834.478 1.37223 -1.39529 0
M  V30 9038 C 834.777 -1.59927 -3.19622 0
M  V30 9039 C 834.443 -3.09632 -3.27779 0
M  V30 9040 C 833.105 -3.50491 -3.29712 0
M  V30 9041 C 835.457 -4.05644 -3.27264 0
M  V30 9042 C 832.785 -4.85921 -3.28782 0
M  V30 9043 C 835.137 -5.41 -3.27875 0
M  V30 9044 C 833.801 -5.81295 -3.28104 0
M  V30 9045 H 833.071 -0.362345 -0.646364 0
M  V30 9046 H 835.718 -1.48197 -1.21284 0
M  V30 9047 H 834.023 -1.0297 -3.78027 0
M  V30 9048 H 835.72 -1.41989 -3.7502 0
M  V30 9049 H 832.31 -2.77073 -3.26999 0
M  V30 9050 H 836.494 -3.75124 -3.24955 0
M  V30 9051 H 831.75 -5.16427 -3.27281 0
M  V30 9052 H 835.924 -6.15157 -3.26428 0
M  V30 9053 H 833.551 -6.86211 -3.27138 0
M  V30 9054 N 835.127 1.22348 -0.993418 0
M  V30 9055 C 836.375 1.90733 -0.668246 0
M  V30 9056 C 836.696 1.77732 0.802261 0
M  V30 9057 O 835.966 1.16486 1.57505 0
M  V30 9058 H 834.546 0.705966 -0.244174 0
M  V30 9059 H 837.208 1.48691 -1.26004 0
M  V30 9060 H 836.304 2.97883 -0.931239 0
M  V30 9061 N 836.605 0.766683 1.37694 0
M  V30 9062 C 837.535 0.163432 2.32927 0
M  V30 9063 C 838.516 -0.688861 1.55527 0
M  V30 9064 O 839.701 -0.627363 1.83787 0
M  V30 9065 C 836.831 -0.720416 3.39746 0
M  V30 9066 C 835.785 0.0301718 4.27989 0
M  V30 9067 C 835.111 -0.972788 5.25776 0
M  V30 9068 C 836.411 1.20623 5.0818 0
M  V30 9069 H 838.105 0.958988 2.83626 0
M  V30 9070 H 835.651 0.462601 1.36367 0
M  V30 9071 H 837.604 -1.15221 4.05342 0
M  V30 9072 H 836.328 -1.54844 2.8756 0
M  V30 9073 H 834.987 0.442685 3.63917 0
M  V30 9074 H 834.635 -1.79522 4.69873 0
M  V30 9075 H 834.335 -0.475145 5.85676 0
M  V30 9076 H 835.859 -1.40362 5.94248 0
M  V30 9077 H 837.273 0.851341 5.66944 0
M  V30 9078 H 835.67 1.63561 5.7738 0
M  V30 9079 H 836.74 2.01281 4.41151 0
M  V30 9080 N 838.083 -1.48885 0.516809 0
M  V30 9081 C 839.308 -2.0739 -0.0205201 0
M  V30 9082 C 839.733 -1.37259 -1.28614 0
M  V30 9083 O 839.091 -0.434304 -1.76021 0
M  V30 9084 C 839.139 -3.59793 -0.24104 0
M  V30 9085 O 838.243 -3.90957 -1.31251 0
M  V30 9086 H 837.584 -0.663167 0.0332564 0
M  V30 9087 H 840.114 -1.91477 0.720956 0
M  V30 9088 H 840.124 -4.0531 -0.467737 0
M  V30 9089 H 838.799 -4.10244 0.68356 0
M  V30 9090 H 837.376 -3.57234 -1.06951 0
M  V30 9091 N 839.561 -0.251338 -1.55583 0
M  V30 9092 C 840.977 0.103409 -1.59265 0
M  V30 9093 C 841.177 1.56559 -1.26852 0
M  V30 9094 O 840.233 2.31071 -1.01796 0
M  V30 9095 C 841.546 -0.249781 -2.99661 0
M  V30 9096 C 843.094 -0.194442 -3.12395 0
M  V30 9097 C 843.569 -0.521728 -4.55019 0
M  V30 9098 N 845.06 -0.472393 -4.60785 0
M  V30 9099 C 845.795 -0.698737 -5.69127 0
M  V30 9100 N 845.291 -0.988443 -6.85713 0
M  V30 9101 N 847.084 -0.629143 -5.58568 0
M  V30 9102 H 839.235 -1.20484 -1.74921 0
M  V30 9103 H 841.498 -0.485092 -0.814488 0
M  V30 9104 H 841.204 -1.26577 -3.28133 0
M  V30 9105 H 841.078 0.420973 -3.74844 0
M  V30 9106 H 843.465 0.812229 -2.83702 0
M  V30 9107 H 843.546 -0.899111 -2.39478 0
M  V30 9108 H 843.19 -1.52597 -4.84434 0
M  V30 9109 H 843.12 0.204468 -5.26203 0
M  V30 9110 H 845.611 -0.257386 -3.77022 0
M  V30 9111 H 845.924 -1.14846 -7.64219 0
M  V30 9112 H 844.269 -1.02596 -6.87386 0
M  V30 9113 H 847.46 -0.402826 -4.66364 0
M  V30 9114 H 847.633 -0.808935 -6.42931 0
M  V30 9115 N 841.039 1.57585 0.0217189 0
M  V30 9116 C 842.269 1.9359 0.721572 0
M  V30 9117 C 842.677 0.850132 1.69025 0
M  V30 9118 O 842.02 -0.181539 1.82801 0
M  V30 9119 C 842.082 3.25445 1.52729 0
M  V30 9120 C 841.746 4.51251 0.722586 0
M  V30 9121 C 842.743 5.19896 0.0196598 0
M  V30 9122 C 840.428 4.97745 0.674959 0
M  V30 9123 C 842.422 6.33319 -0.720114 0
M  V30 9124 C 840.109 6.11062 -0.068555 0
M  V30 9125 C 841.107 6.78704 -0.764845 0
M  V30 9126 O 840.795 7.89852 -1.49627 0
M  V30 9127 H 840.527 0.643409 0.207366 0
M  V30 9128 H 843.081 2.05391 -0.0189346 0
M  V30 9129 H 841.311 3.0999 2.31178 0
M  V30 9130 H 843 3.46721 2.11044 0
M  V30 9131 H 843.766 4.84977 0.0474394 0
M  V30 9132 H 839.645 4.44934 1.20643 0
M  V30 9133 H 843.189 6.86051 -1.26413 0
M  V30 9134 H 839.086 6.45425 -0.0982318 0
M  V30 9135 H 839.854 8.06251 -1.41071 0
M  V30 9136 N 842.517 -0.29412 1.54831 0
M  V30 9137 C 843.45 -1.38779 1.81151 0
M  V30 9138 C 844.428 -1.48464 0.663124 0
M  V30 9139 O 845.612 -1.65418 0.903835 0
M  V30 9140 C 842.739 -2.76627 1.95436 0
M  V30 9141 C 841.785 -2.84333 3.17895 0
M  V30 9142 S 842.618 -2.45726 4.75793 0
M  V30 9143 C 843.774 -3.85589 4.93023 0
M  V30 9144 H 844.007 -1.16246 2.73631 0
M  V30 9145 H 841.54 -0.492611 1.46331 0
M  V30 9146 H 843.498 -3.56021 2.04351 0
M  V30 9147 H 842.159 -2.96425 1.03881 0
M  V30 9148 H 841.352 -3.85457 3.24713 0
M  V30 9149 H 840.954 -2.1294 3.07461 0
M  V30 9150 H 843.246 -4.80656 4.77468 0
M  V30 9151 H 844.189 -3.83737 5.95107 0
M  V30 9152 H 844.597 -3.75911 4.21131 0
M  V30 9153 N 843.995 -1.47404 -0.557645 0
M  V30 9154 C 844.905 -1.62491 -1.69216 0
M  V30 9155 C 845.921 -0.507764 -1.66426 0
M  V30 9156 O 847.097 -0.775241 -1.85882 0
M  V30 9157 C 844.162 -1.63511 -3.05721 0
M  V30 9158 C 843.223 -2.86648 -3.1958 0
M  V30 9159 C 842.456 -2.87609 -4.49574 0
M  V30 9160 O 842.679 -1.97799 -5.35006 0
M  V30 9161 O 841.613 -3.79465 -4.67215 0
M  V30 9162 H 845.439 -2.58487 -1.59431 0
M  V30 9163 H 843.024 -1.30485 -0.7276 0
M  V30 9164 H 844.906 -1.66863 -3.86956 0
M  V30 9165 H 843.581 -0.706812 -3.15889 0
M  V30 9166 H 842.488 -2.8884 -2.37744 0
M  V30 9167 H 843.821 -3.7877 -3.14316 0
M  V30 9168 N 845.473 0.80434 -1.35529 0
M  V30 9169 C 846.75 1.5486 -1.1949 0
M  V30 9170 C 847.13 2.09897 0.22506 0
M  V30 9171 O 846.478 1.92643 1.22886 0
M  V30 9172 C 846.688 2.65535 -2.26478 0
M  V30 9173 C 848.036 3.33814 -2.62399 0
M  V30 9174 O 849.06 2.75807 -2.25409 0
M  V30 9175 O 847.919 4.38612 -3.26009 0
M  V30 9176 H 845.013 0.68433 -0.464351 0
M  V30 9177 H 847.559 0.844107 -1.47217 0
M  V30 9178 H 846.331 2.22754 -3.21709 0
M  V30 9179 H 845.954 3.43617 -2.00033 0
M  V30 9180 N 846.951 1.19563 1.02676 0
M  V30 9181 C 848.176 1.02556 1.80269 0
M  V30 9182 C 848.601 -0.421056 1.83327 0
M  V30 9183 O 847.959 -1.30279 1.26084 0
M  V30 9184 C 848.007 1.60165 3.23078 0
M  V30 9185 O 847.111 0.832404 4.03912 0
M  V30 9186 H 846.452 0.362354 0.556413 0
M  V30 9187 H 848.982 1.58633 1.29216 0
M  V30 9188 H 848.992 1.6347 3.7382 0
M  V30 9189 H 847.667 2.65454 3.20167 0
M  V30 9190 H 846.244 0.872768 3.62543 0
M  V30 9191 N 848.429 -1.21819 0.999893 0
M  V30 9192 C 849.657 -1.94758 0.698359 0
M  V30 9193 C 850.072 -1.73771 -0.738183 0
M  V30 9194 O 849.429 -1.04113 -1.49889 0
M  V30 9195 C 849.48 -3.47292 1.00353 0
M  V30 9196 O 849.201 -3.67579 2.38363 0
M  V30 9197 C 850.702 -4.37403 0.72068 0
M  V30 9198 H 847.922 -0.619512 0.257771 0
M  V30 9199 H 850.466 -1.54778 1.33656 0
M  V30 9200 H 848.621 -3.85213 0.411018 0
M  V30 9201 H 849.035 -4.61719 2.48829 0
M  V30 9202 H 850.509 -5.43151 0.984422 0
M  V30 9203 H 850.986 -4.3784 -0.345309 0
M  V30 9204 H 851.592 -4.05119 1.29456 0
M  V30 9205 N 849.908 -0.773975 -1.37286 0
M  V30 9206 C 851.138 -0.350249 -2.03609 0
M  V30 9207 C 851.546 1.03313 -1.58502 0
M  V30 9208 O 850.889 1.67118 -0.7627 0
M  V30 9209 C 850.951 -0.317215 -3.58098 0
M  V30 9210 C 850.615 -1.64556 -4.26345 0
M  V30 9211 C 851.612 -2.59839 -4.50311 0
M  V30 9212 C 849.297 -1.92061 -4.64131 0
M  V30 9213 C 851.291 -3.80833 -5.11122 0
M  V30 9214 C 848.978 -3.13325 -5.24663 0
M  V30 9215 C 849.976 -4.0753 -5.48095 0
M  V30 9216 O 849.664 -5.26658 -6.0736 0
M  V30 9217 H 849.396 -0.144456 -0.660385 0
M  V30 9218 H 851.95 -1.0496 -1.76557 0
M  V30 9219 H 850.18 0.438528 -3.84205 0
M  V30 9220 H 851.869 0.0797428 -4.05822 0
M  V30 9221 H 852.635 -2.39872 -4.21529 0
M  V30 9222 H 848.514 -1.19562 -4.45226 0
M  V30 9223 H 852.058 -4.54377 -5.29327 0
M  V30 9224 H 847.955 -3.33177 -5.52869 0
M  V30 9225 H 848.723 -5.27513 -6.25837 0
M  V30 9226 N 851.386 1.48609 -0.524698 0
M  V30 9227 C 852.616 2.06599 0.00741868 0
M  V30 9228 C 853.024 1.3823 1.29186 0
M  V30 9229 O 852.367 0.461962 1.77797 0
M  V30 9230 C 852.429 3.58184 0.307324 0
M  V30 9231 C 852.093 4.48391 -0.882864 0
M  V30 9232 C 853.09 4.88485 -1.77984 0
M  V30 9233 C 850.775 4.90367 -1.08837 0
M  V30 9234 C 852.769 5.69319 -2.86627 0
M  V30 9235 C 850.456 5.70972 -2.17794 0
M  V30 9236 C 851.454 6.10355 -3.06523 0
M  V30 9237 O 851.142 6.89343 -4.13596 0
M  V30 9238 H 850.874 0.675421 -0.0279846 0
M  V30 9239 H 853.428 1.92058 -0.7282 0
M  V30 9240 H 851.658 3.70818 1.09685 0
M  V30 9241 H 853.347 3.98318 0.780886 0
M  V30 9242 H 854.113 4.56682 -1.63299 0
M  V30 9243 H 849.992 4.592 -0.407035 0
M  V30 9244 H 853.536 5.99978 -3.55911 0
M  V30 9245 H 849.433 6.02188 -2.32465 0
M  V30 9246 H 850.201 7.07689 -4.1124 0
M  V30 9247 N 852.864 0.259585 1.55447 0
M  V30 9248 C 853.811 -0.634578 2.21905 0
M  V30 9249 C 854.781 -1.16168 1.18719 0
M  V30 9250 O 855.966 -1.21383 1.4721 0
M  V30 9251 C 853.106 -1.82005 2.93203 0
M  V30 9252 C 852.219 -1.32828 4.11073 0
M  V30 9253 C 851.354 -2.47431 4.70055 0
M  V30 9254 C 850.393 -1.95179 5.80148 0
M  V30 9255 N 849.53 -3.03197 6.33258 0
M  V30 9256 H 854.37 -0.0611886 2.97937 0
M  V30 9257 H 851.907 -0.0184378 1.47088 0
M  V30 9258 H 853.865 -2.51664 3.32748 0
M  V30 9259 H 852.495 -2.36571 2.19622 0
M  V30 9260 H 851.547 -0.525301 3.76756 0
M  V30 9261 H 852.859 -0.905435 4.90513 0
M  V30 9262 H 852.013 -3.25111 5.12238 0
M  V30 9263 H 850.752 -2.93023 3.89857 0
M  V30 9264 H 849.757 -1.15974 5.37429 0
M  V30 9265 H 850.982 -1.50541 6.62204 0
M  V30 9266 H 848.928 -3.48199 5.55961 0
M  V30 9267 H 848.845 -2.65282 7.07928 0
M  V30 9268 H 850.113 -3.80898 6.80101 0
M  V30 9269 N 854.342 -1.57594 -0.0133615 0
M  V30 9270 C 855.305 -2.06534 -0.993799 0
M  V30 9271 C 856.305 -0.972267 -1.28077 0
M  V30 9272 O 857.495 -1.23537 -1.22818 0
M  V30 9273 C 854.627 -2.49554 -2.3224 0
M  V30 9274 H 855.82 -2.94419 -0.570741 0
M  V30 9275 H 853.373 -1.54113 -0.260546 0
M  V30 9276 H 854.108 -1.64872 -2.79263 0
M  V30 9277 H 853.893 -3.29371 -2.12737 0
M  V30 9278 H 855.383 -2.8779 -3.026 0
M  V30 9279 N 855.82 0.285905 -1.54985 0
M  V30 9280 C 857.045 1.04207 -1.7932 0
M  V30 9281 C 857.47 1.79622 -0.558343 0
M  V30 9282 O 856.828 1.74506 0.491661 0
M  V30 9283 C 856.876 1.98648 -3.0095 0
M  V30 9284 O 855.98 3.07207 -2.75132 0
M  V30 9285 H 855.321 0.298596 -0.593074 0
M  V30 9286 H 857.851 0.318736 -2.02102 0
M  V30 9287 H 857.861 2.4084 -3.29333 0
M  V30 9288 H 856.536 1.43167 -3.90482 0
M  V30 9289 H 855.113 2.69423 -2.57809 0
M  V30 9290 N 857.298 1.47698 0.54982 0
M  V30 9291 C 858.245 1.60739 1.65625 0
M  V30 9292 C 859.215 0.450129 1.59884 0
M  V30 9293 O 860.4 0.671123 1.78607 0
M  V30 9294 C 857.54 1.63457 3.03934 0
M  V30 9295 C 856.653 2.90152 3.20056 0
M  V30 9296 C 855.788 2.84157 4.48807 0
M  V30 9297 C 854.827 4.05644 4.58387 0
M  V30 9298 N 853.964 3.97843 5.78503 0
M  V30 9299 H 858.804 2.55234 1.53817 0
M  V30 9300 H 856.341 1.26593 0.749173 0
M  V30 9301 H 858.299 1.63015 3.84034 0
M  V30 9302 H 856.929 0.724689 3.1456 0
M  V30 9303 H 855.981 3.00428 2.33339 0
M  V30 9304 H 857.293 3.80097 3.22998 0
M  V30 9305 H 856.447 2.82006 5.37175 0
M  V30 9306 H 855.186 1.91908 4.48356 0
M  V30 9307 H 854.191 4.08092 3.6843 0
M  V30 9308 H 855.416 4.9903 4.60593 0
M  V30 9309 H 853.362 3.08401 5.78986 0
M  V30 9310 H 853.279 4.81473 5.82855 0
M  V30 9311 H 854.547 3.99719 6.69212 0
M  V30 9312 N 858.776 -0.797141 1.35954 0
M  V30 9313 C 860.024 -1.55161 1.29497 0
M  V30 9314 C 860.345 -1.94582 -0.127659 0
M  V30 9315 O 859.615 -1.64343 -1.06622 0
M  V30 9316 H 858.195 -0.575413 0.47635 0
M  V30 9317 H 860.857 -0.950282 1.70164 0
M  V30 9318 H 859.953 -2.46272 1.9172 0
M  V30 9319 N 860.254 -1.20106 -1.0204 0
M  V30 9320 C 861.201 -0.946468 -2.10501 0
M  V30 9321 C 862.171 0.121902 -1.65652 0
M  V30 9322 O 863.356 -0.0220244 -1.90787 0
M  V30 9323 C 860.496 -0.500499 -3.41451 0
M  V30 9324 C 859.609 -1.63659 -3.998 0
M  V30 9325 C 858.744 -1.14131 -5.18794 0
M  V30 9326 C 857.783 -2.25074 -5.69217 0
M  V30 9327 N 856.92 -1.76791 -6.79477 0
M  V30 9328 H 861.76 -1.87506 -2.31615 0
M  V30 9329 H 859.297 -0.934693 -1.13587 0
M  V30 9330 H 861.255 -0.223276 -4.16602 0
M  V30 9331 H 859.885 0.391099 -3.20422 0
M  V30 9332 H 858.937 -2.02882 -3.21781 0
M  V30 9333 H 860.249 -2.47213 -4.33229 0
M  V30 9334 H 859.403 -0.819826 -6.01135 0
M  V30 9335 H 858.142 -0.275615 -4.86921 0
M  V30 9336 H 857.147 -2.58043 -4.85483 0
M  V30 9337 H 858.372 -3.12114 -6.03127 0
M  V30 9338 H 856.318 -0.925428 -6.4944 0
M  V30 9339 H 856.235 -2.53928 -7.12079 0
M  V30 9340 H 857.503 -1.47631 -7.65392 0
M  V30 9341 N 861.732 1.21287 -1.00634 0
M  V30 9342 C 862.662 2.25973 -0.588089 0
M  V30 9343 C 863.643 1.65527 0.391764 0
M  V30 9344 O 864.828 1.92179 0.279452 0
M  V30 9345 C 861.958 3.47197 0.0847336 0
M  V30 9346 C 860.912 4.20168 -0.815039 0
M  V30 9347 C 860.238 5.34699 -0.00855393 0
M  V30 9348 C 861.538 4.77416 -2.11828 0
M  V30 9349 H 863.232 2.61212 -1.46317 0
M  V30 9350 H 860.778 1.25563 -0.704985 0
M  V30 9351 H 862.731 4.19602 0.388821 0
M  V30 9352 H 861.455 3.11092 0.994456 0
M  V30 9353 H 860.114 3.49614 -1.10297 0
M  V30 9354 H 859.762 4.94837 0.902499 0
M  V30 9355 H 859.462 5.84449 -0.607664 0
M  V30 9356 H 860.986 6.09914 0.289317 0
M  V30 9357 H 862.4 5.41694 -1.87725 0
M  V30 9358 H 860.797 5.37561 -2.66736 0
M  V30 9359 H 861.867 3.96724 -2.78816 0
M  V30 9360 N 863.21 0.781244 1.36873 0
M  V30 9361 C 864.621 0.414093 1.8205 0
M  V30 9362 C 864.972 -1.06098 1.65039 0
M  V30 9363 O 864.097 -1.82251 1.16677 0
M  V30 9364 C 864.692 0.744837 3.30511 0
M  V30 9365 C 863.251 0.430621 3.73929 0
M  V30 9366 C 862.398 0.983746 2.59264 0
M  V30 9367 H 865.349 0.975091 1.2521 0
M  V30 9368 H 865.37 0.032936 3.80486 0
M  V30 9369 H 864.882 1.81847 3.42861 0
M  V30 9370 H 862.983 -0.635308 3.67144 0
M  V30 9371 H 863.096 0.945514 4.69677 0
M  V30 9372 H 861.46 0.407433 2.5142 0
M  V30 9373 H 862.243 2.06297 2.74402 0
M  V30 9374 N 864.689 -1.48329 0.532571 0
M  V30 9375 C 865.938 -2.017 -0.00259705 0
M  V30 9376 C 866.251 -1.41469 -1.35077 0
M  V30 9377 O 867.457 -1.86354 -1.97445 0
M  V30 9378 C 865.913 -3.59858 -0.0550179 0
M  V30 9379 C 865.521 -4.29073 1.28842 0
M  V30 9380 C 867.265 -4.21066 -0.538878 0
M  V30 9381 C 865.172 -5.79171 1.19644 0
M  V30 9382 H 864.102 -0.753985 -0.00474081 0
M  V30 9383 H 866.753 -1.70565 0.676739 0
M  V30 9384 H 865.135 -3.87846 -0.799486 0
M  V30 9385 H 866.309 -4.12755 2.04865 0
M  V30 9386 H 864.624 -3.79748 1.70822 0
M  V30 9387 H 867.221 -5.31026 -0.6257 0
M  V30 9388 H 867.564 -3.86559 -1.54525 0
M  V30 9389 H 868.097 -3.97517 0.149984 0
M  V30 9390 H 864.836 -6.18257 2.17805 0
M  V30 9391 H 864.356 -5.97895 0.477609 0
M  V30 9392 H 866.035 -6.40875 0.888186 0
M  V30 9393 N 866.167 -0.267825 -1.55308 0
M  V30 9394 C 867.114 0.6228 -2.22238 0
M  V30 9395 C 868.084 1.15536 -1.19334 0
M  V30 9396 O 869.269 1.206 -1.47852 0
M  V30 9397 C 866.409 1.80447 -2.94164 0
M  V30 9398 C 865.522 1.30646 -4.11771 0
M  V30 9399 C 864.657 2.44935 -4.7136 0
M  V30 9400 C 863.696 1.92099 -5.81175 0
M  V30 9401 N 862.833 2.99834 -6.34857 0
M  V30 9402 H 867.673 0.0453874 -2.97965 0
M  V30 9403 H 865.21 0.0106371 -1.47096 0
M  V30 9404 H 867.168 2.49896 -3.34078 0
M  V30 9405 H 865.798 2.35403 -2.20874 0
M  V30 9406 H 864.85 0.505314 -3.77029 0
M  V30 9407 H 866.162 0.879409 -4.90987 0
M  V30 9408 H 865.316 3.2239 -5.13955 0
M  V30 9409 H 864.055 2.90951 -3.91406 0
M  V30 9410 H 863.06 1.13122 -5.38037 0
M  V30 9411 H 864.285 1.47027 -6.62993 0
M  V30 9412 H 862.231 3.45246 -5.578 0
M  V30 9413 H 862.148 2.61524 -7.09324 0
M  V30 9414 H 863.416 3.77286 -6.82111 0
M  V30 9415 N 867.645 1.57599 0.00500368 0
M  V30 9416 C 868.891 1.91471 0.686313 0
M  V30 9417 C 869.246 0.868988 1.71658 0
M  V30 9418 O 868.539 -0.11944 1.91227 0
M  V30 9419 C 868.733 3.29855 1.37588 0
M  V30 9420 C 868.562 4.47791 0.413924 0
M  V30 9421 C 867.332 5.05293 0.0261488 0
M  V30 9422 C 869.53 5.13317 -0.317764 0
M  V30 9423 N 867.512 6.06745 -0.934545 0
M  V30 9424 C 868.883 6.09554 -1.13331 0
M  V30 9425 C 870.938 4.96431 -0.382136 0
M  V30 9426 C 869.641 6.90723 -2.00735 0
M  V30 9427 C 871.667 5.78182 -1.24339 0
M  V30 9428 C 871.029 6.74007 -2.04679 0
M  V30 9429 H 867.128 0.749083 0.224495 0
M  V30 9430 H 869.712 1.94625 -0.0541684 0
M  V30 9431 H 867.883 3.27585 2.08668 0
M  V30 9432 H 869.615 3.51171 2.01149 0
M  V30 9433 H 866.37 4.71963 0.393462 0
M  V30 9434 H 866.794 6.62152 -1.41012 0
M  V30 9435 H 871.436 4.22202 0.224718 0
M  V30 9436 H 869.154 7.64281 -2.6249 0
M  V30 9437 H 872.74 5.67158 -1.29704 0
M  V30 9438 H 871.62 7.36164 -2.70244 0
M  V30 9439 N 869.123 -0.277682 1.55134 0
M  V30 9440 C 870.056 -1.3685 1.82612 0
M  V30 9441 C 871.034 -1.47752 0.678833 0
M  V30 9442 O 872.218 -1.6445 0.921329 0
M  V30 9443 C 869.345 -2.74539 1.98359 0
M  V30 9444 C 868.391 -2.80945 3.20893 0
M  V30 9445 S 869.224 -2.40666 4.78373 0
M  V30 9446 C 870.38 -3.80338 4.97085 0
M  V30 9447 H 870.613 -1.13338 2.74849 0
M  V30 9448 H 868.146 -0.477063 1.46845 0
M  V30 9449 H 870.104 -3.53834 2.08115 0
M  V30 9450 H 868.765 -2.95306 1.07019 0
M  V30 9451 H 867.958 -3.81992 3.28783 0
M  V30 9452 H 867.56 -2.09667 3.09703 0
M  V30 9453 H 869.852 -4.75565 4.8254 0
M  V30 9454 H 870.795 -3.77403 5.99143 0
M  V30 9455 H 871.203 -3.71424 4.25094 0
M  V30 9456 N 870.601 -1.47988 -0.541979 0
M  V30 9457 C 871.564 -1.61148 -1.62984 0
M  V30 9458 C 872.564 -0.48553 -1.53295 0
M  V30 9459 O 873.754 -0.751012 -1.5718 0
M  V30 9460 C 870.886 -1.57038 -3.02576 0
M  V30 9461 H 872.079 -2.58138 -1.52659 0
M  V30 9462 H 869.632 -1.36405 -0.763106 0
M  V30 9463 H 870.367 -0.614807 -3.18419 0
M  V30 9464 H 870.152 -2.38769 -3.11018 0
M  V30 9465 H 871.642 -1.69416 -3.81691 0
M  V30 9466 N 872.079 0.78992 -1.36375 0
M  V30 9467 C 873.49 1.36506 -1.2737 0
M  V30 9468 C 873.841 1.96008 0.086711 0
M  V30 9469 O 872.966 1.92521 0.988159 0
M  V30 9470 C 873.561 2.48175 -2.30639 0
M  V30 9471 C 872.12 3.01506 -2.25325 0
M  V30 9472 C 871.267 1.74581 -2.15445 0
M  V30 9473 H 874.218 0.591606 -1.47261 0
M  V30 9474 H 874.239 3.27179 -1.94253 0
M  V30 9475 H 873.751 2.04838 -3.2964 0
M  V30 9476 H 871.852 3.49265 -1.29788 0
M  V30 9477 H 871.965 3.58355 -3.17992 0
M  V30 9478 H 870.329 1.96794 -1.61692 0
M  V30 9479 H 871.112 1.33373 -3.16333 0
M  V30 9480 N 873.557 1.20646 1.01402 0
M  V30 9481 C 874.467 0.973385 2.13453 0
M  V30 9482 C 875.483 -0.0715865 1.73853 0
M  V30 9483 O 876.659 0.116438 2.01063 0
M  V30 9484 C 873.724 0.531285 3.42605 0
M  V30 9485 C 872.785 1.64741 3.96433 0
M  V30 9486 C 872.018 1.22631 5.1942 0
M  V30 9487 O 872.241 0.0960891 5.70319 0
M  V30 9488 O 871.175 2.03474 5.66465 0
M  V30 9489 H 875.001 1.91164 2.35987 0
M  V30 9490 H 872.586 0.990553 1.11841 0
M  V30 9491 H 874.468 0.294095 4.20373 0
M  V30 9492 H 873.143 -0.378358 3.21481 0
M  V30 9493 H 872.05 1.93891 3.19933 0
M  V30 9494 H 873.383 2.53415 4.2195 0
M  V30 9495 N 875.035 -1.20752 1.01276 0
M  V30 9496 C 876.26 -1.94547 0.718769 0
M  V30 9497 C 876.685 -1.7404 -0.713563 0
M  V30 9498 O 876.043 -1.03221 -1.49047 0
M  V30 9499 C 876.091 -3.44823 1.05497 0
M  V30 9500 O 875.195 -4.12072 0.164516 0
M  V30 9501 H 874.536 -0.607931 0.267051 0
M  V30 9502 H 877.066 -1.53292 1.35509 0
M  V30 9503 H 877.076 -3.95427 1.00507 0
M  V30 9504 H 875.751 -3.59072 2.09858 0
M  V30 9505 H 874.328 -3.71909 0.271615 0
M  V30 9506 N 876.513 -0.788492 -1.36457 0
M  V30 9507 C 877.762 -0.357052 -1.98515 0
M  V30 9508 C 878.075 1.0769 -1.63285 0
M  V30 9509 O 879.281 1.61057 -2.1857 0
M  V30 9510 C 877.737 -0.587449 -3.55073 0
M  V30 9511 C 877.345 -2.03276 -3.99228 0
M  V30 9512 C 879.089 -0.220468 -4.23927 0
M  V30 9513 C 876.996 -2.20987 -5.48561 0
M  V30 9514 H 875.926 -0.129762 -0.74275 0
M  V30 9515 H 878.577 -0.969995 -1.55767 0
M  V30 9516 H 876.959 0.0951918 -3.95886 0
M  V30 9517 H 878.133 -2.75173 -3.69617 0
M  V30 9518 H 876.448 -2.3579 -3.43208 0
M  V30 9519 H 879.045 -0.331085 -5.33674 0
M  V30 9520 H 879.388 0.831306 -4.07915 0
M  V30 9521 H 879.921 -0.856309 -3.88474 0
M  V30 9522 H 876.66 -3.24543 -5.69519 0
M  V30 9523 H 876.18 -1.53594 -5.79801 0
M  V30 9524 H 877.859 -2.01656 -6.14771 0
M  V30 9525 N 877.991 1.48044 -0.54043 0
M  V30 9526 C 878.939 2.31461 0.229862 0
M  V30 9527 C 879.933 1.41884 0.925495 0
M  V30 9528 O 881.139 1.58736 0.848689 0
M  V30 9529 H 877.514 0.746227 0.0929975 0
M  V30 9530 H 879.485 2.94297 -0.493118 0
M  V30 9531 C 878.234 3.24172 1.25729 0
M  V30 9532 H 877.557 3.93052 0.731426 0
M  V30 9533 H 878.997 3.85404 1.76747 0
M  V30 9534 C 877.456 2.4651 2.2964 0
M  V30 9535 O 877.986 2.19742 3.36268 0
M  V30 9536 N 876.192 2.07817 2.03127 0
M  V30 9537 H 875.739 2.29786 1.1643 0
M  V30 9538 H 875.697 1.56168 2.72872 0
M  V30 9539 N 879.47 0.276058 1.55163 0
M  V30 9540 C 880.717 -0.340455 1.99618 0
M  V30 9541 C 881.045 -1.5579 1.16446 0
M  V30 9542 O 880.3 -1.94433 0.222359 0
M  V30 9543 C 880.599 -0.765744 3.491 0
M  V30 9544 C 880.265 0.347174 4.49561 0
M  V30 9545 C 878.927 0.65276 4.76752 0
M  V30 9546 C 881.279 1.09705 5.09523 0
M  V30 9547 C 878.607 1.71179 5.61173 0
M  V30 9548 C 880.959 2.14581 5.95095 0
M  V30 9549 C 879.623 2.45773 6.20606 0
M  V30 9550 H 878.893 -0.124581 0.730452 0
M  V30 9551 H 881.54 0.389966 1.87487 0
M  V30 9552 H 879.845 -1.57585 3.58712 0
M  V30 9553 H 881.542 -1.25352 3.80904 0
M  V30 9554 H 878.132 0.0988779 4.28486 0
M  V30 9555 H 882.316 0.874223 4.8854 0
M  V30 9556 H 877.572 1.95846 5.79184 0
M  V30 9557 H 881.746 2.7316 6.40591 0
M  V30 9558 H 879.373 3.27969 6.85813 0
M  V30 9559 N 880.948 -1.576 0.00335426 0
M  V30 9560 C 882.364 -1.55653 -0.352766 0
M  V30 9561 C 882.564 -1.00632 -1.74572 0
M  V30 9562 O 881.62 -0.641621 -2.44212 0
M  V30 9563 C 882.933 -2.99858 -0.224929 0
M  V30 9564 C 884.481 -3.11563 -0.299619 0
M  V30 9565 C 884.956 -4.57559 -0.200868 0
M  V30 9566 N 886.447 -4.62477 -0.258663 0
M  V30 9567 C 887.182 -5.73031 -0.205644 0
M  V30 9568 N 886.678 -6.92723 -0.103027 0
M  V30 9569 N 888.471 -5.61509 -0.257754 0
M  V30 9570 H 880.622 -1.91703 0.914539 0
M  V30 9571 H 882.885 -0.88068 0.350865 0
M  V30 9572 H 882.591 -3.43964 0.733595 0
M  V30 9573 H 882.465 -3.63547 -1.00564 0
M  V30 9574 H 884.852 -2.67384 -1.24859 0
M  V30 9575 H 884.933 -2.50644 0.511025 0
M  V30 9576 H 884.577 -5.02413 0.744572 0
M  V30 9577 H 884.507 -5.16428 -1.03004 0
M  V30 9578 H 886.998 -3.76375 -0.339168 0
M  V30 9579 H 887.311 -7.7277 -0.0685593 0
M  V30 9580 H 885.656 -6.94966 -0.0686069 0
M  V30 9581 H 888.847 -4.66892 -0.336142 0
M  V30 9582 H 889.02 -6.4765 -0.21297 0
M  V30 9583 N 882.426 0.269451 -1.5528 0
M  V30 9584 C 883.842 0.616827 -1.47199 0
M  V30 9585 C 884.042 1.89354 -0.68901 0
M  V30 9586 O 883.098 2.51631 -0.209287 0
M  V30 9587 C 884.411 0.740492 -2.9144 0
M  V30 9588 C 885.959 0.834312 -3.01676 0
M  V30 9589 C 886.434 0.989725 -4.47178 0
M  V30 9590 N 887.925 1.05516 -4.51022 0
M  V30 9591 C 888.66 1.19427 -5.60825 0
M  V30 9592 N 888.156 1.30035 -6.80487 0
M  V30 9593 N 889.949 1.22566 -5.48575 0
M  V30 9594 H 882.1 -0.568962 -2.04638 0
M  V30 9595 H 884.363 -0.193153 -0.928114 0
M  V30 9596 H 884.069 -0.127234 -3.5147 0
M  V30 9597 H 883.943 1.61965 -3.40657 0
M  V30 9598 H 886.33 1.6925 -2.4174 0
M  V30 9599 H 886.411 -0.0695298 -2.55705 0
M  V30 9600 H 886.055 0.136179 -5.07717 0
M  V30 9601 H 885.985 1.90827 -4.90808 0
M  V30 9602 H 888.476 0.985434 -3.64825 0
M  V30 9603 H 888.789 1.40494 -7.59922 0
M  V30 9604 H 887.134 1.27033 -6.83292 0
M  V30 9605 H 890.325 1.13911 -4.54029 0
M  V30 9606 H 890.498 1.33063 -6.34191 0
M  V30 9607 N 883.904 1.48273 0.534124 0
M  V30 9608 C 885.151 1.56079 1.29017 0
M  V30 9609 C 885.479 0.232912 1.931 0
M  V30 9610 O 884.734 -0.77642 1.79639 0
M  V30 9611 C 885.033 2.64468 2.40398 0
M  V30 9612 C 884.699 4.07034 1.93995 0
M  V30 9613 C 883.361 4.45838 1.81058 0
M  V30 9614 C 885.713 4.96395 1.58877 0
M  V30 9615 C 883.041 5.71812 1.31331 0
M  V30 9616 C 885.393 6.22854 1.10614 0
M  V30 9617 C 884.057 6.60518 0.962895 0
M  V30 9618 H 883.327 0.571135 0.472108 0
M  V30 9619 H 885.974 1.81973 0.5965 0
M  V30 9620 H 884.279 2.32419 3.15418 0
M  V30 9621 H 885.976 2.67725 2.98537 0
M  V30 9622 H 882.566 3.76387 2.05015 0
M  V30 9623 H 886.75 4.67096 1.67734 0
M  V30 9624 H 882.006 5.99722 1.18924 0
M  V30 9625 H 886.18 6.91495 0.825095 0
M  V30 9626 H 883.807 7.58019 0.575369 0
M  V30 9627 N 885.382 -0.782676 1.36792 0
M  V30 9628 C 886.61 -1.57162 1.34565 0
M  V30 9629 C 887.025 -1.88664 -0.0715501 0
M  V30 9630 O 886.382 -1.50633 -1.03033 0
M  V30 9631 C 886.433 -2.88854 2.1736 0
M  V30 9632 O 886.154 -2.58707 3.53557 0
M  V30 9633 C 887.655 -3.83132 2.2299 0
M  V30 9634 H 884.875 -0.487245 0.461338 0
M  V30 9635 H 887.419 -0.970905 1.79982 0
M  V30 9636 H 885.574 -3.45377 1.7548 0
M  V30 9637 H 885.988 -3.42961 3.96835 0
M  V30 9638 H 887.462 -4.72575 2.85266 0
M  V30 9639 H 887.939 -4.21472 1.23524 0
M  V30 9640 H 888.545 -3.32541 2.65135 0
M  V30 9641 N 886.86 -1.21182 -1.00761 0
M  V30 9642 C 888.085 -1.05411 -1.78615 0
M  V30 9643 C 888.51 0.391837 -1.83973 0
M  V30 9644 O 887.868 1.28256 -1.28141 0
M  V30 9645 C 887.916 -1.65285 -3.20489 0
M  V30 9646 O 887.02 -0.896558 -4.02536 0
M  V30 9647 H 886.361 -0.37116 -0.550578 0
M  V30 9648 H 888.891 -1.60669 -1.26676 0
M  V30 9649 H 888.901 -1.69397 -3.71172 0
M  V30 9650 H 887.576 -2.70514 -3.15904 0
M  V30 9651 H 886.153 -0.930335 -3.61108 0
M  V30 9652 N 888.338 1.20213 -1.01915 0
M  V30 9653 C 889.301 2.21307 -0.596327 0
M  V30 9654 C 890.301 1.57274 0.334879 0
M  V30 9655 O 891.491 1.73764 0.12322 0
M  V30 9656 C 888.623 3.40657 0.128808 0
M  V30 9657 H 889.816 2.60228 -1.49068 0
M  V30 9658 H 887.369 1.33721 -0.809226 0
M  V30 9659 H 888.104 3.07241 1.03796 0
M  V30 9660 H 887.889 3.88361 -0.540183 0
M  V30 9661 H 889.379 4.15564 0.411892 0
M  V30 9662 N 889.816 0.795718 1.36037 0
M  V30 9663 C 891.041 0.38204 2.03851 0
M  V30 9664 C 891.466 -0.995553 1.59594 0
M  V30 9665 O 890.824 -1.64258 0.767401 0
M  V30 9666 C 890.872 0.461248 3.57638 0
M  V30 9667 O 889.976 -0.529448 4.08987 0
M  V30 9668 H 889.317 0.161227 0.644129 0
M  V30 9669 H 891.847 1.07858 1.73861 0
M  V30 9670 H 891.857 0.32712 4.06687 0
M  V30 9671 H 890.532 1.46613 3.89201 0
M  V30 9672 H 889.109 -0.35646 3.71192 0
M  V30 9673 N 891.294 -1.47756 0.548274 0
M  V30 9674 C 892.571 -1.9555 -0.0443603 0
M  V30 9675 C 892.951 -1.49079 -1.49462 0
M  V30 9676 O 892.299 -0.725538 -2.16675 0
M  V30 9677 C 892.509 -3.48879 0.0918425 0
M  V30 9678 C 893.857 -4.2456 -0.0580879 0
M  V30 9679 O 894.881 -3.56195 0.018946 0
M  V30 9680 O 893.74 -5.46048 -0.222261 0
M  V30 9681 H 890.834 -0.824106 -0.0691235 0
M  V30 9682 H 893.38 -1.58196 0.614166 0
M  V30 9683 H 892.152 -3.7548 1.10137 0
M  V30 9684 H 891.775 -3.92975 -0.604704 0
M  V30 9685 N 892.772 -0.284283 -1.55015 0
M  V30 9686 C 894.018 0.330352 -2.00091 0
M  V30 9687 C 894.351 1.54814 -1.17244 0
M  V30 9688 O 893.626 1.92954 -0.244753 0
M  V30 9689 C 893.909 0.703492 -3.53161 0
M  V30 9690 C 893.762 -0.522275 -4.46758 0
M  V30 9691 C 895.081 1.53645 -4.12409 0
M  V30 9692 H 892.2 0.118599 -0.727395 0
M  V30 9693 H 894.842 -0.393054 -1.8589 0
M  V30 9694 H 892.992 1.31983 -3.65394 0
M  V30 9695 H 894.664 -1.16082 -4.46456 0
M  V30 9696 H 892.907 -1.15865 -4.1804 0
M  V30 9697 H 893.578 -0.217295 -5.51572 0
M  V30 9698 H 896.054 1.01583 -4.0351 0
M  V30 9699 H 894.93 1.76633 -5.19704 0
M  V30 9700 H 895.191 2.5204 -3.63219 0
M  V30 9701 N 894.251 1.57596 -0.0117121 0
M  V30 9702 C 895.497 1.92189 0.665966 0
M  V30 9703 C 895.852 0.887145 1.70726 0
M  V30 9704 O 895.145 -0.099151 1.91343 0
M  V30 9705 C 895.339 3.31296 1.34082 0
M  V30 9706 C 895.168 4.48205 0.366406 0
M  V30 9707 C 893.938 5.05293 -0.0274458 0
M  V30 9708 C 896.136 5.12951 -0.37219 0
M  V30 9709 N 894.118 6.0572 -0.998846 0
M  V30 9710 C 895.489 6.08318 -1.1979 0
M  V30 9711 C 897.544 4.95998 -0.434768 0
M  V30 9712 C 896.247 6.88555 -2.0805 0
M  V30 9713 C 898.273 5.7683 -1.30464 0
M  V30 9714 C 897.635 6.71798 -2.11816 0
M  V30 9715 H 893.734 0.751422 0.216537 0
M  V30 9716 H 896.318 1.94556 -0.0748079 0
M  V30 9717 H 894.489 3.2978 2.05182 0
M  V30 9718 H 896.221 3.53285 1.97413 0
M  V30 9719 H 892.976 4.72354 0.343382 0
M  V30 9720 H 893.4 6.60619 -1.48027 0
M  V30 9721 H 898.042 4.22417 0.179925 0
M  V30 9722 H 895.76 7.61453 -2.70581 0
M  V30 9723 H 899.346 5.6575 -1.35712 0
M  V30 9724 H 898.226 7.33256 -2.78037 0
M  V30 9725 N 895.729 -0.261212 1.5542 0
M  V30 9726 C 896.662 -1.34906 1.84054 0
M  V30 9727 C 897.64 -1.47024 0.694466 0
M  V30 9728 O 898.824 -1.63463 0.938719 0
M  V30 9729 C 895.951 -2.7242 2.01259 0
M  V30 9730 C 894.997 -2.77526 3.23855 0
M  V30 9731 S 895.83 -2.35578 4.80898 0
M  V30 9732 C 896.986 -3.75045 5.01091 0
M  V30 9733 H 897.219 -1.10416 2.76035 0
M  V30 9734 H 894.752 -0.461461 1.47343 0
M  V30 9735 H 896.71 -3.51606 2.11857 0
M  V30 9736 H 895.371 -2.94155 1.10145 0
M  V30 9737 H 894.564 -3.78483 3.32816 0
M  V30 9738 H 894.166 -2.0637 3.11909 0
M  V30 9739 H 896.458 -4.7042 4.87556 0
M  V30 9740 H 897.401 -3.71027 6.03112 0
M  V30 9741 H 897.809 -3.66894 4.29009 0
M  V30 9742 N 897.207 -1.48554 -0.526253 0
M  V30 9743 C 898.454 -1.56761 -1.28188 0
M  V30 9744 C 898.782 -0.24315 -1.92974 0
M  V30 9745 O 898.037 0.766883 -1.80048 0
M  V30 9746 C 898.336 -2.65739 -2.38993 0
M  V30 9747 C 898.002 -4.08057 -1.91834 0
M  V30 9748 C 896.664 -4.46792 -1.78691 0
M  V30 9749 C 899.016 -4.9723 -1.56242 0
M  V30 9750 C 896.344 -5.72501 -1.28296 0
M  V30 9751 C 898.696 -6.23432 -1.07309 0
M  V30 9752 C 897.36 -6.6102 -0.927853 0
M  V30 9753 H 896.63 -0.573631 -0.469072 0
M  V30 9754 H 899.277 -1.82287 -0.586842 0
M  V30 9755 H 897.582 -2.34088 -3.14181 0
M  V30 9756 H 899.279 -2.69304 -2.97113 0
M  V30 9757 H 895.869 -3.77469 -2.03016 0
M  V30 9758 H 900.053 -4.67979 -1.65255 0
M  V30 9759 H 895.309 -6.00345 -1.15742 0
M  V30 9760 H 899.483 -6.91923 -0.788412 0
M  V30 9761 H 897.11 -7.58314 -0.535162 0
M  V30 9762 N 898.685 0.775411 -1.37205 0
M  V30 9763 C 899.933 1.53081 -1.3195 0
M  V30 9764 C 900.254 1.9476 0.0966864 0
M  V30 9765 O 899.524 1.66019 1.03993 0
M  V30 9766 H 898.104 0.567762 -0.485444 0
M  V30 9767 H 900.766 0.92309 -1.71654 0
M  V30 9768 H 899.862 2.4319 -1.95614 0
M  V30 9769 N 900.163 1.21714 1.00117 0
M  V30 9770 C 901.409 1.03823 1.74208 0
M  V30 9771 C 901.742 -0.426733 1.89454 0
M  V30 9772 O 901.017 -1.31658 1.43166 0
M  V30 9773 C 901.3 1.74047 3.15246 0
M  V30 9774 C 901.153 3.28087 3.077 0
M  V30 9775 C 902.472 1.48614 4.14249 0
M  V30 9776 H 899.591 0.378573 0.632338 0
M  V30 9777 H 902.233 1.49942 1.16694 0
M  V30 9778 H 900.383 1.3484 3.64349 0
M  V30 9779 H 902.055 3.76686 2.6628 0
M  V30 9780 H 900.298 3.58191 2.44707 0
M  V30 9781 H 900.969 3.72392 4.07466 0
M  V30 9782 H 903.445 1.82656 3.73866 0
M  V30 9783 H 902.321 2.00257 5.11066 0
M  V30 9784 H 902.582 0.416957 4.40129 0
M  V30 9785 N 901.641 -1.19671 1.02551 0
M  V30 9786 C 902.881 -1.90971 0.728668 0
M  V30 9787 C 903.245 -1.7762 -0.729057 0
M  V30 9788 O 904.446 -2.43484 -1.13882 0
M  V30 9789 C 902.717 -3.3794 1.16323 0
M  V30 9790 S 904.276 -4.27493 0.989722 0
M  V30 9791 H 901.094 -0.659617 0.265381 0
M  V30 9792 H 903.696 -1.44698 1.31463 0
M  V30 9793 H 902.4 -3.45181 2.21986 0
M  V30 9794 H 901.931 -3.89243 0.570417 0
M  V30 9795 H 903.946 -4.96096 -0.101666 0
M  V30 9796 N 903.119 -0.802921 -1.35613 0
M  V30 9797 C 904.052 -0.156345 -2.27664 0
M  V30 9798 C 905.03 0.675517 -1.47904 0
M  V30 9799 O 906.214 0.643589 -1.77173 0
M  V30 9800 C 903.341 0.78348 -3.29514 0
M  V30 9801 C 902.387 0.0317062 -4.26488 0
M  V30 9802 S 903.22 -1.30183 -5.19435 0
M  V30 9803 C 904.376 -0.366354 -6.24827 0
M  V30 9804 H 904.609 -0.936803 -2.82155 0
M  V30 9805 H 902.142 -0.597799 -1.42358 0
M  V30 9806 H 904.1 1.32023 -3.8869 0
M  V30 9807 H 902.761 1.53729 -2.73909 0
M  V30 9808 H 901.954 0.745364 -4.98458 0
M  V30 9809 H 901.556 -0.43497 -3.71462 0
M  V30 9810 H 903.848 0.44976 -6.76005 0
M  V30 9811 H 904.791 -1.05513 -7.00195 0
M  V30 9812 H 905.199 0.0363203 -5.64488 0
M  V30 9813 N 904.597 1.47463 -0.556102 0
M  V30 9814 C 905.843 2.03361 -0.039909 0
M  V30 9815 C 906.198 1.42292 1.29502 0
M  V30 9816 O 905.491 0.568813 1.82962 0
M  V30 9817 C 905.685 3.57224 0.112126 0
M  V30 9818 C 905.514 4.33213 -1.20652 0
M  V30 9819 C 904.284 4.73153 -1.77352 0
M  V30 9820 C 906.482 4.68415 -2.12348 0
M  V30 9821 N 904.464 5.33781 -3.03233 0
M  V30 9822 C 905.835 5.29334 -3.22808 0
M  V30 9823 C 907.89 4.50344 -2.12356 0
M  V30 9824 C 906.593 5.7409 -4.33374 0
M  V30 9825 C 908.619 4.96098 -3.21933 0
M  V30 9826 C 907.981 5.57065 -4.31112 0
M  V30 9827 H 904.08 0.779939 -0.0567407 0
M  V30 9828 H 906.664 1.79959 -0.743147 0
M  V30 9829 H 904.835 3.80395 0.784485 0
M  V30 9830 H 906.567 3.99762 0.630285 0
M  V30 9831 H 903.322 4.55074 -1.31165 0
M  V30 9832 H 903.746 5.6864 -3.67393 0
M  V30 9833 H 908.388 4.02566 -1.29229 0
M  V30 9834 H 906.106 6.2086 -5.17261 0
M  V30 9835 H 909.692 4.83887 -3.23024 0
M  V30 9836 H 908.572 5.91824 -5.14504 0
M  V30 9837 N 906.075 0.2925 1.54862 0
M  V30 9838 C 906.985 -0.597036 2.26876 0
M  V30 9839 C 908.001 -1.15558 1.30086 0
M  V30 9840 O 909.177 -1.18217 1.63054 0
M  V30 9841 C 906.242 -1.75664 2.98903 0
M  V30 9842 C 905.303 -1.23303 4.11212 0
M  V30 9843 C 904.536 -2.33736 4.79795 0
M  V30 9844 O 904.759 -3.53459 4.47686 0
M  V30 9845 O 903.693 -2.00908 5.67379 0
M  V30 9846 H 907.519 -0.0131242 3.03697 0
M  V30 9847 H 905.104 0.0592642 1.49282 0
M  V30 9848 H 906.986 -2.43241 3.4411 0
M  V30 9849 H 905.661 -2.32731 2.24984 0
M  V30 9850 H 904.568 -0.523222 3.70423 0
M  V30 9851 H 905.901 -0.707887 4.87083 0
M  V30 9852 N 907.553 -1.57587 0.0200696 0
M  V30 9853 C 908.802 -1.90602 -0.659822 0
M  V30 9854 C 909.115 -0.897216 -1.73808 0
M  V30 9855 O 910.321 -1.11829 -2.47399 0
M  V30 9856 C 908.777 -3.38416 -1.22484 0
M  V30 9857 C 908.385 -4.47637 -0.180339 0
M  V30 9858 C 910.129 -3.80513 -1.88176 0
M  V30 9859 C 908.036 -5.86542 -0.756482 0
M  V30 9860 H 906.966 -0.711272 -0.250216 0
M  V30 9861 H 909.617 -1.83308 0.0838942 0
M  V30 9862 H 907.999 -3.40613 -2.01987 0
M  V30 9863 H 909.173 -4.56987 0.591573 0
M  V30 9864 H 907.488 -4.14687 0.377302 0
M  V30 9865 H 910.085 -4.8164 -2.32222 0
M  V30 9866 H 910.428 -3.15091 -2.72073 0
M  V30 9867 H 910.961 -3.80701 -1.15377 0
M  V30 9868 H 907.7 -6.55485 0.0441468 0
M  V30 9869 H 907.22 -5.80816 -1.49709 0
M  V30 9870 H 908.899 -6.3483 -1.249 0
M  V30 9871 N 909.032 0.252966 -1.55557 0
M  V30 9872 C 909.962 1.31691 -1.9282 0
M  V30 9873 C 910.943 1.50516 -0.7924 0
M  V30 9874 O 912.128 1.63225 -1.05219 0
M  V30 9875 C 909.258 2.67281 -2.21762 0
M  V30 9876 C 908.212 2.6316 -3.37536 0
M  V30 9877 C 907.538 4.02488 -3.52005 0
M  V30 9878 C 908.838 2.20675 -4.73392 0
M  V30 9879 H 910.532 1.00751 -2.81939 0
M  V30 9880 H 908.078 0.483219 -1.3565 0
M  V30 9881 H 910.031 3.41842 -2.46419 0
M  V30 9882 H 908.755 2.99845 -1.29463 0
M  V30 9883 H 907.414 1.91057 -3.12878 0
M  V30 9884 H 907.062 4.32307 -2.57137 0
M  V30 9885 H 906.762 4.00621 -4.29857 0
M  V30 9886 H 908.286 4.78758 -3.78977 0
M  V30 9887 H 909.7 2.84965 -4.97461 0
M  V30 9888 H 908.097 2.29931 -5.54303 0
M  V30 9889 H 909.167 1.15831 -4.70862 0
M  V30 9890 N 910.51 1.48831 0.518367 0
M  V30 9891 C 911.443 1.588 1.63884 0
M  V30 9892 C 912.421 0.437847 1.56594 0
M  V30 9893 O 913.605 0.651042 1.769 0
M  V30 9894 C 910.732 1.52681 3.02335 0
M  V30 9895 C 909.778 2.7268 3.27945 0
M  V30 9896 S 910.611 4.34536 3.12951 0
M  V30 9897 C 911.767 4.31034 4.53828 0
M  V30 9898 H 912 2.53587 1.5518 0
M  V30 9899 H 909.533 1.37507 0.702218 0
M  V30 9900 H 911.491 1.49837 3.82177 0
M  V30 9901 H 910.152 0.592107 3.08469 0
M  V30 9902 H 909.345 2.64569 4.28974 0
M  V30 9903 H 908.947 2.72847 2.55794 0
M  V30 9904 H 911.239 4.01683 5.45579 0
M  V30 9905 H 912.182 5.32282 4.66991 0
M  V30 9906 H 912.59 3.61343 4.33695 0
M  V30 9907 N 911.988 -0.768124 1.37614 0
M  V30 9908 C 912.938 -1.8718 1.30184 0
M  V30 9909 C 913.922 -1.59787 0.188943 0
M  V30 9910 O 915.114 -1.71855 0.423656 0
M  V30 9911 C 912.243 -3.24698 1.11471 0
M  V30 9912 C 911.329 -3.58031 2.27321 0
M  V30 9913 N 911.72 -3.6252 3.52722 0
M  V30 9914 C 910.018 -3.88216 2.19554 0
M  V30 9915 C 910.719 -3.92704 4.29137 0
M  V30 9916 N 909.695 -4.08789 3.58319 0
M  V30 9917 H 913.497 -1.88907 2.25147 0
M  V30 9918 H 911.011 -0.964753 1.30638 0
M  V30 9919 H 913.008 -4.0366 1.04233 0
M  V30 9920 H 911.668 -3.24232 0.174281 0
M  V30 9921 H 912.679 -3.44636 3.86583 0
M  V30 9922 H 909.356 -3.95551 1.33588 0
M  V30 9923 H 910.746 -4.02922 5.37683 0
M  V30 9924 N 913.466 -1.22244 -0.994698 0
M  V30 9925 C 914.714 -1.04384 -1.73056 0
M  V30 9926 C 915.035 0.422204 -1.90374 0
M  V30 9927 O 914.305 1.30383 -1.46209 0
M  V30 9928 H 912.885 -0.383263 -0.641185 0
M  V30 9929 H 915.547 -1.53725 -1.1981 0
M  V30 9930 H 914.643 -1.52021 -2.72573 0
M  V30 9931 N 914.944 1.19125 -1.03184 0
M  V30 9932 C 916.19 1.89163 -0.731111 0
M  V30 9933 C 916.523 1.79604 0.738662 0
M  V30 9934 O 915.798 1.19037 1.53819 0
M  V30 9935 C 916.081 3.39986 -1.18666 0
M  V30 9936 C 915.934 3.58401 -2.71788 0
M  V30 9937 C 917.253 4.33316 -0.769772 0
M  V30 9938 H 914.372 0.686908 -0.267069 0
M  V30 9939 H 917.014 1.40205 -1.28229 0
M  V30 9940 H 915.164 3.81813 -0.717736 0
M  V30 9941 H 916.836 3.25727 -3.26649 0
M  V30 9942 H 915.079 3.01355 -3.12038 0
M  V30 9943 H 915.75 4.64189 -2.98719 0
M  V30 9944 H 918.226 3.9922 -1.17314 0
M  V30 9945 H 917.102 5.37427 -1.11637 0
M  V30 9946 H 917.363 4.40884 0.327681 0
M  V30 9947 N 916.422 0.810101 1.35185 0
M  V30 9948 C 917.369 0.220927 2.2974 0
M  V30 9949 C 918.339 -0.647024 1.5298 0
M  V30 9950 O 919.524 -0.591367 1.81404 0
M  V30 9951 C 916.664 -0.62167 3.39454 0
M  V30 9952 C 915.777 0.267104 4.31173 0
M  V30 9953 C 914.912 -0.583833 5.27982 0
M  V30 9954 C 913.951 0.305123 6.11339 0
M  V30 9955 N 913.088 -0.505992 7.00274 0
M  V30 9956 H 917.928 1.03266 2.79536 0
M  V30 9957 H 915.465 0.520768 1.37573 0
M  V30 9958 H 917.423 -1.12539 4.01735 0
M  V30 9959 H 916.053 -1.39863 2.90926 0
M  V30 9960 H 915.105 0.88895 3.69867 0
M  V30 9961 H 916.417 0.951182 4.89647 0
M  V30 9962 H 915.571 -1.15254 5.95652 0
M  V30 9963 H 914.31 -1.30146 4.70014 0
M  V30 9964 H 913.315 0.886075 5.42613 0
M  V30 9965 H 914.54 1.02067 6.71386 0
M  V30 9966 H 912.486 -1.20753 6.4479 0
M  V30 9967 H 912.403 0.119966 7.55905 0
M  V30 9968 H 913.671 -1.05787 7.72288 0
M  V30 9969 N 917.9 -1.47166 0.563914 0
M  V30 9970 C 919.311 -1.86231 0.132307 0
M  V30 9971 C 919.662 -1.46976 -1.29971 0
M  V30 9972 O 918.787 -0.875911 -1.97881 0
M  V30 9973 C 919.382 -3.37996 0.233335 0
M  V30 9974 C 917.941 -3.76127 -0.143278 0
M  V30 9975 C 917.088 -2.71212 0.577857 0
M  V30 9976 H 920.039 -1.38588 0.773249 0
M  V30 9977 H 920.06 -3.76558 -0.546309 0
M  V30 9978 H 919.572 -3.66535 1.27568 0
M  V30 9979 H 917.673 -3.53205 -1.18648 0
M  V30 9980 H 917.786 -4.78595 0.219952 0
M  V30 9981 H 916.15 -2.54692 0.020186 0
M  V30 9982 H 916.933 -3.02593 1.62149 0
M  V30 9983 N 919.378 -0.300708 -1.54705 0
M  V30 9984 C 920.625 0.308654 -2.00134 0
M  V30 9985 C 920.953 1.53918 -1.1891 0
M  V30 9986 O 920.208 1.94054 -0.253263 0
M  V30 9987 C 920.507 0.710108 -3.50275 0
M  V30 9988 C 920.173 -0.418651 -4.48952 0
M  V30 9989 C 918.835 -0.728524 -4.75653 0
M  V30 9990 C 921.187 -1.17797 -5.07714 0
M  V30 9991 C 918.515 -1.80085 -5.58378 0
M  V30 9992 C 920.867 -2.24022 -5.91606 0
M  V30 9993 C 919.531 -2.55616 -6.16617 0
M  V30 9994 H 918.801 0.112945 -0.732342 0
M  V30 9995 H 921.448 -0.419744 -1.86843 0
M  V30 9996 H 919.753 1.51859 -3.61173 0
M  V30 9997 H 921.45 1.19277 -3.8285 0
M  V30 9998 H 918.04 -0.167034 -4.28274 0
M  V30 9999 H 922.224 -0.951835 -4.87087 0
M  V30 10000 H 917.48 -2.05036 -5.75995 0
M  V30 10001 H 921.654 -2.83317 -6.36164 0
M  V30 10002 H 919.281 -3.38839 -6.80509 0
M  V30 10003 N 920.856 1.57574 -0.0284266 0
M  V30 10004 C 921.788 2.07079 0.982391 0
M  V30 10005 C 922.801 0.994078 1.28926 0
M  V30 10006 O 923.99 1.27028 1.25404 0
M  V30 10007 C 921.09 2.47978 2.30998 0
M  V30 10008 C 920.263 3.7872 2.18838 0
M  V30 10009 C 919.322 4.06177 3.34524 0
M  V30 10010 O 918.348 4.76438 3.11441 0
M  V30 10011 N 919.55 3.56297 4.58293 0
M  V30 10012 H 922.315 2.94421 0.560011 0
M  V30 10013 H 919.876 1.61124 0.158347 0
M  V30 10014 H 921.868 2.63439 3.07216 0
M  V30 10015 H 920.438 1.66005 2.64879 0
M  V30 10016 H 919.658 3.73062 1.27351 0
M  V30 10017 H 920.946 4.6438 2.07915 0
M  V30 10018 H 920.344 2.99453 4.79942 0
M  V30 10019 H 918.901 3.77038 5.31682 0
M  V30 10020 N 922.334 -0.244713 1.55689 0
M  V30 10021 C 923.582 -0.970525 1.77272 0
M  V30 10022 C 923.903 -1.85771 0.592804 0
M  V30 10023 O 923.173 -1.91952 -0.391323 0
M  V30 10024 H 921.753 -0.361342 0.653789 0
M  V30 10025 H 924.415 -0.262134 1.93129 0
M  V30 10026 H 923.511 -1.59096 2.68505 0
M  V30 10027 N 923.813 -1.49104 -0.510467 0
M  V30 10028 C 925.059 -1.58346 -1.26705 0
M  V30 10029 C 925.392 -0.265121 -1.92382 0
M  V30 10030 O 924.667 0.730558 -1.80258 0
M  V30 10031 C 924.95 -2.7359 -2.34137 0
M  V30 10032 C 924.803 -4.1519 -1.73024 0
M  V30 10033 C 926.122 -2.84511 -3.3577 0
M  V30 10034 H 923.241 -0.57637 -0.459311 0
M  V30 10035 H 925.883 -1.81353 -0.566658 0
M  V30 10036 H 924.033 -2.54105 -2.93876 0
M  V30 10037 H 925.705 -4.46167 -1.17186 0
M  V30 10038 H 923.948 -4.21279 -1.03473 0
M  V30 10039 H 924.619 -4.91683 -2.50903 0
M  V30 10040 H 927.095 -3.0222 -2.86011 0
M  V30 10041 H 925.971 -3.6684 -4.08313 0
M  V30 10042 H 926.232 -1.93471 -3.97519 0
M  V30 10043 N 925.291 0.760815 -1.38019 0
M  V30 10044 C 926.238 1.8744 -1.34666 0
M  V30 10045 C 927.208 1.64762 -0.210386 0
M  V30 10046 O 928.393 1.86528 -0.401479 0
M  V30 10047 C 925.533 3.24648 -1.17037 0
M  V30 10048 C 924.646 3.59206 -2.3999 0
M  V30 10049 C 923.781 4.8568 -2.15148 0
M  V30 10050 C 922.82 5.13002 -3.3391 0
M  V30 10051 N 921.957 6.30668 -3.08549 0
M  V30 10052 H 926.797 1.8964 -2.29871 0
M  V30 10053 H 924.334 0.927004 -1.14215 0
M  V30 10054 H 926.292 4.03814 -1.04834 0
M  V30 10055 H 924.922 3.21793 -0.254758 0
M  V30 10056 H 923.974 2.74939 -2.62893 0
M  V30 10057 H 925.286 3.75328 -3.28527 0
M  V30 10058 H 924.44 5.72773 -2.00039 0
M  V30 10059 H 923.179 4.71682 -1.23965 0
M  V30 10060 H 922.184 4.2438 -3.49545 0
M  V30 10061 H 923.409 5.28901 -4.25958 0
M  V30 10062 H 921.355 6.18008 -2.20006 0
M  V30 10063 H 921.272 6.47257 -3.90633 0
M  V30 10064 H 922.54 7.20669 -2.9708 0
M  V30 10065 N 926.769 1.22769 0.988202 0
M  V30 10066 C 927.717 0.999271 2.10041 0
M  V30 10067 C 928.711 -0.0591767 1.69297 0
M  V30 10068 O 929.917 0.0936653 1.79756 0
M  V30 10069 H 926.292 0.30599 0.686931 0
M  V30 10070 H 928.263 1.94294 2.26478 0
M  V30 10071 C 927.012 0.59873 3.42506 0
M  V30 10072 H 926.335 1.40487 3.74304 0
M  V30 10073 H 927.775 0.478353 4.21293 0
M  V30 10074 C 926.234 -0.692216 3.29712 0
M  V30 10075 O 926.764 -1.74342 3.61895 0
M  V30 10076 N 924.97 -0.665163 2.82885 0
M  V30 10077 H 924.517 0.190604 2.56894 0
M  V30 10078 H 924.475 -1.52917 2.74706 0
M  V30 10079 N 928.247 -1.18576 1.03814 0
M  V30 10080 C 929.195 -2.24166 0.620678 0
M  V30 10081 C 930.189 -1.65718 -0.351282 0
M  V30 10082 O 931.395 -1.78665 -0.218848 0
M  V30 10083 H 927.77 -0.729522 0.182487 0
M  V30 10084 H 929.741 -2.56686 1.52166 0
M  V30 10085 C 928.49 -3.477 -0.00307331 0
M  V30 10086 H 927.813 -3.92969 0.735874 0
M  V30 10087 H 929.253 -4.23214 -0.257988 0
M  V30 10088 C 927.712 -3.12757 -1.2524 0
M  V30 10089 O 928.242 -3.26261 -2.34344 0
M  V30 10090 N 926.448 -2.67104 -1.14471 0
M  V30 10091 H 925.995 -2.56316 -0.256873 0
M  V30 10092 H 925.953 -2.44096 -1.98153 0
M  V30 10093 N 929.725 -0.817259 -1.34754 0
M  V30 10094 C 931.002 -0.325468 -1.92873 0
M  V30 10095 C 931.382 1.18643 -1.74606 0
M  V30 10096 O 930.73 1.9909 -1.1214 0
M  V30 10097 C 930.94 -0.74858 -3.40877 0
M  V30 10098 C 932.288 -0.744165 -4.18028 0
M  V30 10099 O 933.312 -0.690799 -3.49437 0
M  V30 10100 O 932.171 -0.812207 -5.40431 0
M  V30 10101 H 929.265 -0.0876397 -0.822343 0
M  V30 10102 H 931.811 -0.901671 -1.43764 0
M  V30 10103 H 930.583 -1.79017 -3.47949 0
M  V30 10104 H 930.206 -0.147764 -3.97325 0
M  V30 10105 N 931.203 1.46865 -0.571711 0
M  V30 10106 C 932.449 2.0273 -0.0531858 0
M  V30 10107 C 932.782 1.44353 1.29907 0
M  V30 10108 O 932.057 0.604488 1.84868 0
M  V30 10109 C 932.34 3.60092 0.0243831 0
M  V30 10110 C 932.193 4.28874 -1.35599 0
M  V30 10111 C 933.512 4.33994 0.730563 0
M  V30 10112 H 930.631 0.736706 -0.0208018 0
M  V30 10113 H 933.273 1.75132 -0.736794 0
M  V30 10114 H 931.423 3.83736 0.606565 0
M  V30 10115 H 933.095 4.16527 -1.98249 0
M  V30 10116 H 931.338 3.88664 -1.92674 0
M  V30 10117 H 932.009 5.37561 -1.25429 0
M  V30 10118 H 934.485 4.1543 0.236098 0
M  V30 10119 H 933.361 5.43699 0.753836 0
M  V30 10120 H 933.622 4.04257 1.78967 0
M  V30 10121 N 932.681 0.308908 1.54543 0
M  V30 10122 C 933.93 -0.298854 1.99474 0
M  V30 10123 C 934.243 -1.54393 1.20093 0
M  V30 10124 O 935.449 -2.22677 1.55329 0
M  V30 10125 C 933.905 -0.58303 3.55146 0
M  V30 10126 C 933.513 0.644157 4.43345 0
M  V30 10127 C 935.257 -1.15155 4.08582 0
M  V30 10128 C 933.164 0.332694 5.90463 0
M  V30 10129 H 932.094 -0.115445 0.74511 0
M  V30 10130 H 934.745 0.418848 1.78656 0
M  V30 10131 H 933.127 -1.36053 3.71894 0
M  V30 10132 H 934.301 1.42012 4.38371 0
M  V30 10133 H 932.616 1.13186 4.00722 0
M  V30 10134 H 935.213 -1.39896 5.16075 0
M  V30 10135 H 935.556 -2.09632 3.59667 0
M  V30 10136 H 936.089 -0.435571 3.95408 0
M  V30 10137 H 932.828 1.24624 6.43544 0
M  V30 10138 H 932.348 -0.405844 5.98425 0
M  V30 10139 H 934.027 -0.0628545 6.46969 0
M  V30 10140 N 934.159 -1.57557 0.0367827 0
M  V30 10141 C 935.407 -1.91735 -0.63892 0
M  V30 10142 C 935.728 -0.914515 -1.72226 0
M  V30 10143 O 934.998 0.0428248 -1.95853 0
M  V30 10144 H 933.578 -0.707738 -0.23899 0
M  V30 10145 H 936.24 -1.94708 0.0863931 0
M  V30 10146 H 935.336 -2.92568 -1.08676 0
M  V30 10147 N 935.637 0.236453 -1.55816 0
M  V30 10148 C 937.053 0.585465 -1.48474 0
M  V30 10149 C 937.253 1.8785 -0.72902 0
M  V30 10150 O 936.309 2.51131 -0.262614 0
M  V30 10151 C 937.622 0.678506 -2.92945 0
M  V30 10152 C 939.17 0.770135 -3.03378 0
M  V30 10153 C 939.645 0.894649 -4.49177 0
M  V30 10154 N 941.136 0.959253 -4.53158 0
M  V30 10155 C 941.871 1.07505 -5.63232 0
M  V30 10156 N 941.367 1.15572 -6.83092 0
M  V30 10157 N 943.16 1.10902 -5.51051 0
M  V30 10158 H 935.311 -0.612241 -2.03385 0
M  V30 10159 H 937.574 -0.212796 -0.923808 0
M  V30 10160 H 937.28 -0.201757 -3.51121 0
M  V30 10161 H 937.154 1.54703 -3.44016 0
M  V30 10162 H 939.541 1.64085 -2.45276 0
M  V30 10163 H 939.622 -0.123753 -2.555 0
M  V30 10164 H 939.266 0.0284537 -5.07892 0
M  V30 10165 H 939.196 1.80373 -4.94745 0
M  V30 10166 H 941.687 0.907827 -3.66834 0
M  V30 10167 H 942 1.24343 -7.62731 0
M  V30 10168 H 940.345 1.12511 -6.85833 0
M  V30 10169 H 943.536 1.04255 -4.56343 0
M  V30 10170 H 943.709 1.19581 -6.36871 0
M  V30 10171 N 937.115 1.49373 0.502552 0
M  V30 10172 C 938.364 1.58028 1.25339 0
M  V30 10173 C 938.677 0.271494 1.93707 0
M  V30 10174 O 939.883 0.236584 2.70467 0
M  V30 10175 C 938.339 2.78817 2.27572 0
M  V30 10176 C 937.947 4.16448 1.65151 0
M  V30 10177 C 939.691 2.96802 3.03494 0
M  V30 10178 C 937.598 5.28461 2.65486 0
M  V30 10179 H 936.528 0.588396 0.471494 0
M  V30 10180 H 939.179 1.75756 0.52744 0
M  V30 10181 H 937.561 2.5458 3.03323 0
M  V30 10182 H 938.735 4.50816 0.954029 0
M  V30 10183 H 937.05 4.03809 1.01625 0
M  V30 10184 H 939.647 3.77656 3.78524 0
M  V30 10185 H 939.99 2.07303 3.61014 0
M  V30 10186 H 940.523 3.21071 2.34858 0
M  V30 10187 H 937.262 6.20015 2.12749 0
M  V30 10188 H 936.782 4.9855 3.33479 0
M  V30 10189 H 938.461 5.5773 3.27943 0
M  V30 10190 N 938.594 -0.753485 1.38421 0
M  V30 10191 C 939.504 -1.89797 1.37892 0
M  V30 10192 C 940.52 -1.71797 0.276023 0
M  V30 10193 O 941.696 -1.94718 0.514464 0
M  V30 10194 C 938.761 -3.25166 1.20284 0
M  V30 10195 C 937.822 -3.55691 2.4038 0
M  V30 10196 C 937.055 -4.84601 2.23602 0
M  V30 10197 O 937.278 -5.56985 1.22979 0
M  V30 10198 O 936.212 -5.14605 3.12194 0
M  V30 10199 H 940.038 -1.93197 2.34326 0
M  V30 10200 H 937.623 -0.898775 1.19342 0
M  V30 10201 H 939.505 -4.06099 1.12525 0
M  V30 10202 H 938.18 -3.22577 0.269352 0
M  V30 10203 H 937.087 -2.74919 2.53714 0
M  V30 10204 H 938.42 -3.6304 3.32359 0
M  V30 10205 N 940.072 -1.23292 -0.981677 0
M  V30 10206 C 941.02 -1.0104 -2.09508 0
M  V30 10207 C 942.014 0.0501977 -1.69326 0
M  V30 10208 O 943.22 -0.103197 -1.79704 0
M  V30 10209 H 939.595 -0.309629 -0.685298 0
M  V30 10210 H 941.566 -1.95493 -2.25444 0
M  V30 10211 C 940.315 -0.616885 -3.42184 0
M  V30 10212 H 939.638 -1.4247 -3.73554 0
M  V30 10213 H 941.078 -0.500688 -4.21033 0
M  V30 10214 C 939.537 0.674721 -3.30074 0
M  V30 10215 O 940.067 1.72421 -3.62814 0
M  V30 10216 N 938.273 0.650151 -2.83234 0
M  V30 10217 H 937.82 -0.204225 -2.56789 0
M  V30 10218 H 937.778 1.51458 -2.75514 0
M  V30 10219 N 941.55 1.18024 -1.04442 0
M  V30 10220 C 942.798 1.87727 -0.74854 0
M  V30 10221 C 943.119 1.80975 0.726156 0
M  V30 10222 O 942.389 1.23061 1.52423 0
M  V30 10223 H 940.969 0.694974 -0.273897 0
M  V30 10224 H 943.631 1.43213 -1.32197 0
M  V30 10225 H 942.727 2.93665 -1.05674 0
M  V30 10226 N 943.028 0.824394 1.34319 0
M  V30 10227 C 943.938 0.24932 2.33271 0
M  V30 10228 C 944.954 -0.617066 1.62691 0
M  V30 10229 O 946.13 -0.524616 1.94447 0
M  V30 10230 C 943.195 -0.578094 3.41846 0
M  V30 10231 C 942.256 0.310866 4.28173 0
M  V30 10232 C 941.489 -0.477153 5.31563 0
M  V30 10233 O 941.712 -1.71028 5.44156 0
M  V30 10234 O 940.646 0.141287 6.01734 0
M  V30 10235 H 944.472 1.06837 2.84288 0
M  V30 10236 H 942.057 0.58657 1.37403 0
M  V30 10237 H 943.939 -1.04878 4.0814 0
M  V30 10238 H 942.614 -1.37444 2.93071 0
M  V30 10239 H 941.521 0.829081 3.64797 0
M  V30 10240 H 942.854 1.07161 4.80393 0
M  V30 10241 N 944.506 -1.46559 0.579492 0
M  V30 10242 C 945.922 -1.57771 0.240921 0
M  V30 10243 C 946.122 -1.57505 -1.25676 0
M  V30 10244 O 945.178 -1.4903 -2.03829 0
M  V30 10245 C 946.491 -2.87311 0.887285 0
M  V30 10246 C 948.039 -3.00937 0.860576 0
M  V30 10247 C 948.514 -4.33208 1.48642 0
M  V30 10248 N 950.005 -4.39899 1.45062 0
M  V30 10249 C 950.74 -5.40856 1.90428 0
M  V30 10250 N 950.236 -6.48503 2.43752 0
M  V30 10251 N 952.029 -5.32037 1.81364 0
M  V30 10252 H 944.18 -1.44976 1.55228 0
M  V30 10253 H 946.443 -0.691354 0.648639 0
M  V30 10254 H 946.149 -2.93307 1.94071 0
M  V30 10255 H 946.023 -3.75141 0.393577 0
M  V30 10256 H 948.41 -2.94524 -0.184223 0
M  V30 10257 H 948.491 -2.14591 1.39227 0
M  V30 10258 H 948.135 -4.40378 2.5304 0
M  V30 10259 H 948.065 -5.18323 0.92998 0
M  V30 10260 H 950.556 -3.62706 1.0608 0
M  V30 10261 H 950.869 -7.21744 2.76234 0
M  V30 10262 H 949.214 -6.49332 2.47776 0
M  V30 10263 H 952.405 -4.46841 1.39465 0
M  V30 10264 H 952.578 -6.10573 2.17035 0
M  V30 10265 N 945.984 -0.3171 -1.54377 0
M  V30 10266 C 946.914 0.544623 -2.2706 0
M  V30 10267 C 947.895 1.12469 -1.27611 0
M  V30 10268 O 949.08 1.15103 -1.56413 0
M  V30 10269 C 946.21 1.70879 -3.02353 0
M  V30 10270 C 945.164 1.25833 -4.09084 0
M  V30 10271 C 944.49 2.50894 -4.72182 0
M  V30 10272 C 945.79 0.377876 -5.20931 0
M  V30 10273 H 947.484 -0.0616372 -2.99337 0
M  V30 10274 H 945.03 -0.0310848 -1.43966 0
M  V30 10275 H 946.983 2.31787 -3.51927 0
M  V30 10276 H 945.707 2.34155 -2.27682 0
M  V30 10277 H 944.366 0.672228 -3.60384 0
M  V30 10278 H 944.014 3.12518 -3.94134 0
M  V30 10279 H 943.714 2.21447 -5.44275 0
M  V30 10280 H 945.238 3.12575 -5.24528 0
M  V30 10281 H 946.652 0.893056 -5.66302 0
M  V30 10282 H 945.049 0.176474 -5.9984 0
M  V30 10283 H 946.119 -0.592943 -4.81261 0
M  V30 10284 N 947.462 1.57535 -0.0451378 0
M  V30 10285 C 948.873 1.80116 0.491426 0
M  V30 10286 C 949.224 0.956846 1.71286 0
M  V30 10287 O 948.349 0.17173 2.15718 0
M  V30 10288 C 948.944 3.26674 0.898315 0
M  V30 10289 C 947.503 3.50194 1.37989 0
M  V30 10290 C 946.65 2.75054 0.352202 0
M  V30 10291 H 949.601 1.56368 -0.271065 0
M  V30 10292 H 949.622 3.37263 1.76164 0
M  V30 10293 H 949.134 3.88099 0.009141 0
M  V30 10294 H 947.235 2.94041 2.28846 0
M  V30 10295 H 947.348 4.58909 1.37622 0
M  V30 10296 H 945.712 2.4101 0.823784 0
M  V30 10297 H 946.495 3.39203 -0.528782 0
M  V30 10298 N 948.94 -0.228186 1.55939 0
M  V30 10299 C 949.873 -1.30971 1.86874 0
M  V30 10300 C 950.851 -1.45517 0.725496 0
M  V30 10301 O 952.035 -1.61436 0.973181 0
M  V30 10302 C 949.162 -2.68089 2.06992 0
M  V30 10303 C 948.208 -2.70594 3.29669 0
M  V30 10304 S 949.041 -2.25325 4.85787 0
M  V30 10305 C 950.197 -3.64331 5.08934 0
M  V30 10306 H 950.43 -1.04536 2.78315 0
M  V30 10307 H 947.963 -0.430103 1.48288 0
M  V30 10308 H 949.921 -3.47033 2.19267 0
M  V30 10309 H 948.582 -2.91752 1.16359 0
M  V30 10310 H 947.775 -3.71338 3.4077 0
M  V30 10311 H 947.377 -1.99708 3.16216 0
M  V30 10312 H 949.669 -4.59972 4.97425 0
M  V30 10313 H 950.612 -3.58151 6.10847 0
M  V30 10314 H 951.02 -3.57711 4.36695 0
M  V30 10315 N 950.418 -1.49637 -0.494624 0
M  V30 10316 C 951.829 -1.52573 -1.07603 0
M  V30 10317 C 952.18 -0.315591 -1.93645 0
M  V30 10318 O 951.305 0.573966 -2.08649 0
M  V30 10319 C 951.9 -2.7648 -1.95817 0
M  V30 10320 C 950.459 -2.82173 -2.49109 0
M  V30 10321 C 949.606 -2.4657 -1.2688 0
M  V30 10322 H 952.557 -1.56242 -0.278251 0
M  V30 10323 H 952.578 -2.57003 -2.80588 0
M  V30 10324 H 952.09 -3.64538 -1.33167 0
M  V30 10325 H 950.191 -1.9841 -3.15379 0
M  V30 10326 H 950.304 -3.84501 -2.85825 0
M  V30 10327 H 948.668 -1.98489 -1.59607 0
M  V30 10328 H 949.451 -3.3691 -0.659281 0
M  V30 10329 N 951.896 0.746133 -1.38819 0
M  V30 10330 C 953.307 1.32384 -1.31648 0
M  V30 10331 C 953.658 1.96185 0.0243086 0
M  V30 10332 O 952.783 1.95567 0.92641 0
M  V30 10333 C 953.378 2.40712 -2.38418 0
M  V30 10334 C 951.937 2.94185 -2.34803 0
M  V30 10335 C 951.084 1.67639 -2.20891 0
M  V30 10336 H 954.035 0.544457 -1.49068 0
M  V30 10337 H 954.056 3.20833 -2.04564 0
M  V30 10338 H 953.568 1.94247 -3.3599 0
M  V30 10339 H 951.669 3.44959 -1.40834 0
M  V30 10340 H 951.782 3.48057 -3.29231 0
M  V30 10341 H 950.146 1.9155 -1.67871 0
M  V30 10342 H 950.929 1.23242 -3.20416 0
M  V30 10343 N 953.375 1.23811 0.975125 0
M  V30 10344 C 954.323 1.02149 2.0897 0
M  V30 10345 C 955.317 -0.0412172 1.6935 0
M  V30 10346 O 956.523 0.112726 1.79647 0
M  V30 10347 H 952.898 0.313259 0.683647 0
M  V30 10348 H 954.869 1.96686 2.24404 0
M  V30 10349 C 953.618 0.635023 3.41852 0
M  V30 10350 H 952.941 1.44449 3.72793 0
M  V30 10351 H 954.381 0.52301 4.20762 0
M  V30 10352 C 952.84 -0.657207 3.30428 0
M  V30 10353 O 953.37 -1.70494 3.63723 0
M  V30 10354 N 951.576 -0.635122 2.83575 0
M  V30 10355 H 951.123 0.21784 2.56677 0
M  V30 10356 H 951.081 -1.49995 2.76313 0
M  V30 10357 N 954.853 -1.17469 1.05066 0
M  V30 10358 C 956.093 -1.89382 0.769012 0
M  V30 10359 C 956.457 -1.79126 -0.691217 0
M  V30 10360 O 957.658 -2.45845 -1.08692 0
M  V30 10361 C 955.929 -3.35397 1.23465 0
M  V30 10362 S 957.488 -4.25297 1.08018 0
M  V30 10363 H 954.306 -0.653839 0.279312 0
M  V30 10364 H 956.908 -1.41877 1.34503 0
M  V30 10365 H 955.612 -3.40395 2.29258 0
M  V30 10366 H 955.143 -3.87945 0.652853 0
M  V30 10367 H 957.158 -4.962 0.00358573 0
M  V30 10368 N 956.331 -0.831506 -1.3388 0
M  V30 10369 C 957.742 -0.481375 -1.80388 0
M  V30 10370 C 958.093 0.998993 -1.68863 0
M  V30 10371 O 957.218 1.77795 -1.2336 0
M  V30 10372 C 957.813 -0.86699 -3.27519 0
M  V30 10373 C 956.372 -0.569105 -3.72073 0
M  V30 10374 C 955.519 -1.07929 -2.55434 0
M  V30 10375 H 958.47 -1.02089 -1.21505 0
M  V30 10376 H 958.491 -0.174128 -3.80101 0
M  V30 10377 H 958.003 -1.94447 -3.35875 0
M  V30 10378 H 956.104 0.498607 -3.69249 0
M  V30 10379 H 956.217 -1.11918 -4.65845 0
M  V30 10380 H 954.581 -0.500465 -2.49735 0
M  V30 10381 H 955.364 -2.16339 -2.66556 0
M  V30 10382 N 957.809 1.4625 -0.587256 0
M  V30 10383 C 959.22 1.85997 -0.161918 0
M  V30 10384 C 959.571 1.49025 1.27616 0
M  V30 10385 O 958.696 0.907282 1.96462 0
M  V30 10386 C 959.291 3.37582 -0.287077 0
M  V30 10387 C 957.85 3.76308 0.0834211 0
M  V30 10388 C 956.997 2.70259 -0.620932 0
M  V30 10389 H 959.948 1.3734 -0.795199 0
M  V30 10390 H 959.969 3.77379 0.486333 0
M  V30 10391 H 959.481 3.64459 -1.33383 0
M  V30 10392 H 957.582 3.55047 1.13013 0
M  V30 10393 H 957.695 4.78184 -0.296064 0
M  V30 10394 H 956.059 2.54628 -0.0607027 0
M  V30 10395 H 956.842 2.99975 -1.66942 0
M  V30 10396 N 959.287 0.325282 1.54207 0
M  V30 10397 C 960.515 -0.27869 2.05014 0
M  V30 10398 C 960.93 -1.45649 1.20133 0
M  V30 10399 O 960.287 -1.81014 0.232398 0
M  V30 10400 C 960.338 -0.711486 3.54429 0
M  V30 10401 O 960.059 0.419458 4.36087 0
M  V30 10402 C 961.56 -1.37809 4.21336 0
M  V30 10403 H 958.78 -0.0570388 0.668571 0
M  V30 10404 H 961.324 0.47197 1.98979 0
M  V30 10405 H 959.479 -1.41212 3.60746 0
M  V30 10406 H 959.893 0.0781037 5.24442 0
M  V30 10407 H 961.367 -1.63184 5.27328 0
M  V30 10408 H 961.844 -2.32593 3.72555 0
M  V30 10409 H 962.45 -0.719987 4.19161 0
M  V30 10410 N 960.765 -1.57509 0.0534917 0
M  V30 10411 C 961.695 -2.14698 -0.917999 0
M  V30 10412 C 962.676 -1.06924 -1.32292 0
M  V30 10413 O 963.861 -1.34875 -1.39723 0
M  V30 10414 C 960.991 -2.69383 -2.19203 0
M  V30 10415 C 959.945 -3.82161 -1.9271 0
M  V30 10416 C 959.271 -4.23373 -3.26587 0
M  V30 10417 C 960.571 -5.07199 -1.24686 0
M  V30 10418 H 962.265 -2.96125 -0.44165 0
M  V30 10419 H 959.811 -1.42446 -0.210993 0
M  V30 10420 H 961.764 -3.08031 -2.87567 0
M  V30 10421 H 960.488 -1.85151 -2.69048 0
M  V30 10422 H 959.147 -3.43989 -1.26757 0
M  V30 10423 H 958.795 -3.36089 -3.74237 0
M  V30 10424 H 958.495 -4.99385 -3.09658 0
M  V30 10425 H 960.019 -4.64623 -3.96178 0
M  V30 10426 H 961.433 -5.43279 -1.83088 0
M  V30 10427 H 959.83 -5.88369 -1.18076 0
M  V30 10428 H 960.9 -4.84386 -0.223227 0
M  V30 10429 N 962.243 0.219913 -1.56058 0
M  V30 10430 C 963.473 0.959521 -1.82967 0
M  V30 10431 C 963.881 1.78382 -0.630602 0
M  V30 10432 O 963.224 1.79062 0.410203 0
M  V30 10433 C 963.286 1.92481 -3.0363 0
M  V30 10434 C 962.95 1.28487 -4.38566 0
M  V30 10435 C 963.947 0.673946 -5.15513 0
M  V30 10436 C 961.632 1.29615 -4.85289 0
M  V30 10437 C 963.626 0.0828324 -6.37346 0
M  V30 10438 C 961.313 0.701191 -6.07064 0
M  V30 10439 C 962.311 0.0955877 -6.82933 0
M  V30 10440 O 961.999 -0.490109 -8.02405 0
M  V30 10441 H 961.731 0.286709 -0.612188 0
M  V30 10442 H 964.285 0.239761 -2.03996 0
M  V30 10443 H 962.515 2.6836 -2.78424 0
M  V30 10444 H 964.204 2.5301 -3.17397 0
M  V30 10445 H 964.97 0.657548 -4.80522 0
M  V30 10446 H 960.849 1.75691 -4.26208 0
M  V30 10447 H 964.393 -0.390482 -6.96506 0
M  V30 10448 H 960.29 0.715007 -6.41528 0
M  V30 10449 H 961.058 -0.384588 -8.17596 0
M  V30 10450 N 963.721 1.49897 0.486681 0
M  V30 10451 C 964.946 1.64106 1.26823 0
M  V30 10452 C 965.371 0.317967 1.85393 0
M  V30 10453 O 964.729 -0.71626 1.66551 0
M  V30 10454 C 964.777 2.72301 2.36399 0
M  V30 10455 O 963.881 2.32469 3.40634 0
M  V30 10456 H 963.222 0.548794 0.373793 0
M  V30 10457 H 965.752 1.96177 0.581017 0
M  V30 10458 H 965.762 2.94906 2.81948 0
M  V30 10459 H 964.437 3.68335 1.93137 0
M  V30 10460 H 963.014 2.20251 3.00905 0
M  V30 10461 N 965.199 -0.738761 1.39212 0
M  V30 10462 C 966.129 -1.86602 1.40364 0
M  V30 10463 C 967.11 -1.67984 0.267495 0
M  V30 10464 O 968.295 -1.88358 0.472765 0
M  V30 10465 C 965.425 -3.24308 1.24265 0
M  V30 10466 C 964.379 -3.57557 2.35239 0
M  V30 10467 C 963.705 -4.94159 2.04233 0
M  V30 10468 C 965.005 -3.60914 3.77543 0
M  V30 10469 H 966.699 -1.85896 2.34698 0
M  V30 10470 H 964.245 -0.892959 1.1297 0
M  V30 10471 H 966.198 -4.02838 1.23692 0
M  V30 10472 H 964.922 -3.25531 0.263974 0
M  V30 10473 H 963.581 -2.81354 2.35022 0
M  V30 10474 H 963.229 -4.91959 1.04813 0
M  V30 10475 H 962.929 -5.17373 2.78567 0
M  V30 10476 H 964.453 -5.7505 2.05303 0
M  V30 10477 H 965.867 -4.29528 3.79709 0
M  V30 10478 H 964.264 -3.95644 4.51205 0
M  V30 10479 H 965.334 -2.60803 4.08791 0
M  V30 10480 N 966.677 -1.24326 -0.968545 0
M  V30 10481 C 967.61 -0.978121 -2.06175 0
M  V30 10482 C 968.588 0.0878107 -1.62363 0
M  V30 10483 O 969.772 -0.0489472 -1.88436 0
M  V30 10484 C 966.899 -0.475884 -3.3534 0
M  V30 10485 C 965.945 -1.53023 -3.98103 0
M  V30 10486 S 966.778 -3.11131 -4.35841 0
M  V30 10487 C 967.934 -2.62608 -5.68144 0
M  V30 10488 H 968.167 -1.9038 -2.28348 0
M  V30 10489 H 965.7 -1.07701 -1.10633 0
M  V30 10490 H 967.658 -0.192739 -4.10047 0
M  V30 10491 H 966.319 0.429067 -3.11156 0
M  V30 10492 H 965.512 -1.12922 -4.91187 0
M  V30 10493 H 965.114 -1.76334 -3.29822 0
M  V30 10494 H 967.406 -2.05367 -6.45624 0
M  V30 10495 H 968.349 -3.54277 -6.13101 0
M  V30 10496 H 968.757 -2.03063 -5.26712 0
M  V30 10497 N 968.156 1.1691 -1.05688 0
M  V30 10498 C 969.384 1.91204 -0.790485 0
M  V30 10499 C 969.799 1.77095 0.654434 0
M  V30 10500 O 969.156 1.11146 1.44751 0
M  V30 10501 C 969.207 3.42108 -1.16808 0
M  V30 10502 O 968.928 3.55788 -2.55629 0
M  V30 10503 C 970.429 4.33466 -0.92855 0
M  V30 10504 H 967.649 0.606508 -0.287035 0
M  V30 10505 H 970.193 1.48225 -1.40888 0
M  V30 10506 H 968.348 3.82814 -0.59434 0
M  V30 10507 H 968.762 4.49321 -2.70575 0
M  V30 10508 H 970.236 5.37836 -1.24245 0
M  V30 10509 H 970.713 4.38989 0.136016 0
M  V30 10510 H 971.319 3.98481 -1.48638 0
M  V30 10511 N 969.634 0.838594 1.33437 0
M  V30 10512 C 970.581 0.269609 2.2922 0
M  V30 10513 C 971.551 -0.614429 1.54318 0
M  V30 10514 O 972.736 -0.552756 1.82618 0
M  V30 10515 C 969.876 -0.549527 3.40697 0
M  V30 10516 C 968.989 0.358502 4.3051 0
M  V30 10517 C 968.124 -0.471709 5.29101 0
M  V30 10518 C 967.163 0.434728 6.10554 0
M  V30 10519 N 966.3 -0.357339 7.0119 0
M  V30 10520 H 971.14 1.09172 2.77282 0
M  V30 10521 H 968.677 0.549832 1.36438 0
M  V30 10522 H 970.635 -1.03992 4.04032 0
M  V30 10523 H 969.265 -1.33661 2.93828 0
M  V30 10524 H 968.317 0.967204 3.67899 0
M  V30 10525 H 969.629 1.05483 4.87519 0
M  V30 10526 H 968.783 -1.02594 5.97963 0
M  V30 10527 H 967.522 -1.20147 4.72669 0
M  V30 10528 H 966.527 1.00097 5.40611 0
M  V30 10529 H 967.752 1.16285 6.6907 0
M  V30 10530 H 965.698 -1.07049 6.47207 0
M  V30 10531 H 965.615 0.280277 7.5548 0
M  V30 10532 H 966.883 -0.893814 7.74359 0
M  V30 10533 N 971.112 -1.45937 0.595003 0
M  V30 10534 C 972.352 -2.0421 0.0881479 0
M  V30 10535 C 972.716 -1.45498 -1.25277 0
M  V30 10536 O 973.917 -1.95047 -1.8496 0
M  V30 10537 C 972.188 -3.57382 0.0362346 0
M  V30 10538 S 973.747 -4.36869 -0.41126 0
M  V30 10539 H 970.565 -0.709672 0.0434424 0
M  V30 10540 H 973.167 -1.78815 0.790273 0
M  V30 10541 H 971.871 -3.97628 1.0159 0
M  V30 10542 H 971.402 -3.87332 -0.688278 0
M  V30 10543 H 973.417 -4.67486 -1.66347 0
M  V30 10544 N 972.59 -0.333456 -1.54032 0
M  V30 10545 C 973.836 0.259248 -2.01741 0
M  V30 10546 C 974.191 1.48999 -1.21725 0
M  V30 10547 O 973.484 1.89333 -0.293882 0
M  V30 10548 C 973.678 0.63565 -3.51702 0
M  V30 10549 C 973.507 -0.55707 -4.46236 0
M  V30 10550 C 972.277 -1.05925 -4.94073 0
M  V30 10551 C 974.475 -1.41237 -4.94527 0
M  V30 10552 N 972.457 -2.21535 -5.72534 0
M  V30 10553 C 973.828 -2.41551 -5.71011 0
M  V30 10554 C 975.883 -1.43899 -4.76652 0
M  V30 10555 C 974.586 -3.44342 -6.31523 0
M  V30 10556 C 976.612 -2.45567 -5.38006 0
M  V30 10557 C 975.974 -3.44606 -6.1435 0
M  V30 10558 H 972.073 0.0584431 -0.779813 0
M  V30 10559 H 974.657 -0.470736 -1.88924 0
M  V30 10560 H 972.828 1.33475 -3.64745 0
M  V30 10561 H 974.56 1.21067 -3.86167 0
M  V30 10562 H 971.315 -0.628947 -4.69405 0
M  V30 10563 H 971.739 -2.79878 -6.16439 0
M  V30 10564 H 976.381 -0.686929 -4.17182 0
M  V30 10565 H 974.099 -4.20449 -6.90107 0
M  V30 10566 H 977.685 -2.4844 -5.26088 0
M  V30 10567 H 976.565 -4.21987 -6.60982 0
M  V30 10568 N 974.068 1.57479 -0.061844 0
M  V30 10569 C 975.031 2.1104 0.894127 0
M  V30 10570 C 976.031 1.03227 1.23292 0
M  V30 10571 O 977.221 1.29256 1.16784 0
M  V30 10572 C 974.353 2.6035 2.20069 0
M  V30 10573 H 975.546 2.96807 0.429619 0
M  V30 10574 H 973.099 1.55181 0.18672 0
M  V30 10575 H 973.834 1.78008 2.71079 0
M  V30 10576 H 973.619 3.39146 1.9678 0
M  V30 10577 H 975.109 3.019 2.88525 0
M  V30 10578 N 975.546 -0.211634 1.56173 0
M  V30 10579 C 976.776 -0.949805 1.83473 0
M  V30 10580 C 977.184 -1.78045 0.640053 0
M  V30 10581 O 976.527 -1.79277 -0.400702 0
M  V30 10582 C 976.589 -1.90868 3.04647 0
M  V30 10583 C 976.253 -1.26159 4.39241 0
M  V30 10584 C 977.25 -0.646597 5.15863 0
M  V30 10585 C 974.935 -1.27039 4.85969 0
M  V30 10586 C 976.929 -0.0490313 6.37381 0
M  V30 10587 C 974.616 -0.668987 6.07427 0
M  V30 10588 C 975.614 -0.0593687 6.82974 0
M  V30 10589 O 975.302 0.532656 8.02133 0
M  V30 10590 H 975.034 -0.283458 0.6137 0
M  V30 10591 H 977.588 -0.22894 2.0412 0
M  V30 10592 H 975.818 -2.6688 2.79843 0
M  V30 10593 H 977.507 -2.51323 3.18734 0
M  V30 10594 H 978.273 -0.632056 4.80864 0
M  V30 10595 H 974.152 -1.73429 4.27134 0
M  V30 10596 H 977.696 0.427414 6.96289 0
M  V30 10597 H 973.593 -0.680975 6.41898 0
M  V30 10598 H 974.361 0.427942 8.17381 0
M  V30 10599 N 977.024 -1.50153 -0.478725 0
M  V30 10600 C 978.301 -1.51274 -1.23999 0
M  V30 10601 C 978.681 -0.253048 -2.09578 0
M  V30 10602 O 978.029 0.763827 -2.15355 0
M  V30 10603 C 978.239 -2.80423 -2.07759 0
M  V30 10604 C 979.587 -3.30788 -2.66204 0
M  V30 10605 O 980.611 -2.81693 -2.18008 0
M  V30 10606 O 979.47 -4.1635 -3.53999 0
M  V30 10607 H 976.564 -0.606438 -0.562283 0
M  V30 10608 H 979.11 -1.62436 -0.491171 0
M  V30 10609 H 977.882 -3.63584 -1.44645 0
M  V30 10610 H 977.505 -2.72228 -2.89789 0
M  V30 10611 N 978.502 0.731368 -1.39602 0
M  V30 10612 C 979.913 1.30981 -1.33045 0
M  V30 10613 C 980.264 1.962 0.00349918 0
M  V30 10614 O 979.389 1.96539 0.905615 0
M  V30 10615 C 979.984 2.3817 -2.40958 0
M  V30 10616 C 978.543 2.91678 -2.3791 0
M  V30 10617 C 977.69 1.65286 -2.22656 0
M  V30 10618 H 980.641 0.528615 -1.49637 0
M  V30 10619 H 980.662 3.18645 -2.07955 0
M  V30 10620 H 980.174 1.90673 -3.38032 0
M  V30 10621 H 978.275 3.43446 -1.44485 0
M  V30 10622 H 978.388 3.44545 -3.32904 0
M  V30 10623 H 976.752 1.89759 -1.69893 0
M  V30 10624 H 977.535 1.19836 -3.21705 0
M  V30 10625 N 979.98 1.24838 0.961938 0
M  V30 10626 C 981.205 1.11967 1.7458 0
M  V30 10627 C 981.63 -0.323287 1.85301 0
M  V30 10628 O 980.988 -1.23412 1.32812 0
M  V30 10629 C 981.036 1.77066 3.14134 0
M  V30 10630 O 980.14 1.04534 3.98932 0
M  V30 10631 H 979.481 0.391338 0.536424 0
M  V30 10632 H 982.011 1.65259 1.20626 0
M  V30 10633 H 982.021 1.83056 3.64629 0
M  V30 10634 H 980.696 2.82052 3.05646 0
M  V30 10635 H 979.273 1.06372 3.57407 0
M  V30 10636 N 981.458 -1.16348 1.06306 0
M  V30 10637 C 982.874 -1.38873 0.786543 0
M  V30 10638 C 983.074 -1.91915 -0.614061 0
M  V30 10639 O 982.13 -2.11804 -1.3746 0
M  V30 10640 C 983.443 -2.36936 1.85154 0
M  V30 10641 C 984.991 -2.5062 1.87506 0
M  V30 10642 C 985.466 -3.51965 2.9306 0
M  V30 10643 N 986.957 -3.59492 2.92095 0
M  V30 10644 C 987.692 -4.37699 3.70415 0
M  V30 10645 N 987.188 -5.19327 4.58553 0
M  V30 10646 N 988.981 -4.32683 3.58806 0
M  V30 10647 H 981.132 -0.802542 1.96655 0
M  V30 10648 H 983.395 -0.415304 0.852189 0
M  V30 10649 H 983.101 -2.05056 2.85736 0
M  V30 10650 H 982.975 -3.36585 1.70267 0
M  V30 10651 H 985.362 -2.81804 0.875827 0
M  V30 10652 H 985.443 -1.51006 2.06472 0
M  V30 10653 H 985.087 -3.21518 3.93177 0
M  V30 10654 H 985.017 -4.51309 2.71344 0
M  V30 10655 H 987.508 -3.01222 2.28197 0
M  V30 10656 H 987.821 -5.76216 5.1497 0
M  V30 10657 H 986.166 -5.1867 4.62608 0
M  V30 10658 H 989.357 -3.67971 2.89335 0
M  V30 10659 H 989.53 -4.93386 4.20088 0
M  V30 10660 N 982.937 -0.845659 -1.3299 0
M  V30 10661 C 984.353 -0.53433 -1.5039 0
M  V30 10662 C 984.553 0.936939 -1.78392 0
M  V30 10663 O 983.609 1.72043 -1.84818 0
M  V30 10664 C 984.922 -1.41354 -2.65404 0
M  V30 10665 C 986.47 -1.41303 -2.79289 0
M  V30 10666 C 986.945 -2.27724 -3.97373 0
M  V30 10667 N 988.436 -2.25471 -4.0462 0
M  V30 10668 C 989.171 -2.89074 -4.95201 0
M  V30 10669 N 988.667 -3.61755 -5.90851 0
M  V30 10670 N 990.46 -2.78508 -4.88251 0
M  V30 10671 H 982.611 -1.79798 -1.13078 0
M  V30 10672 H 984.874 -0.767454 -0.556524 0
M  V30 10673 H 984.58 -2.45936 -2.51413 0
M  V30 10674 H 984.454 -1.09445 -3.60973 0
M  V30 10675 H 986.841 -0.374899 -2.92709 0
M  V30 10676 H 986.922 -1.77222 -1.84461 0
M  V30 10677 H 986.566 -3.316 -3.84713 0
M  V30 10678 H 986.496 -1.89142 -4.9146 0
M  V30 10679 H 988.987 -1.72622 -3.3617 0
M  V30 10680 H 989.3 -4.07475 -6.56646 0
M  V30 10681 H 987.645 -3.65863 -5.90906 0
M  V30 10682 H 990.836 -2.21285 -4.12493 0
M  V30 10683 H 991.009 -3.2836 -5.58645 0
M  V30 10684 N 984.415 1.45619 -0.602734 0
M  V30 10685 C 985.826 1.85814 -0.181636 0
M  V30 10686 C 986.177 1.5037 1.26029 0
M  V30 10687 O 985.302 0.928068 1.95489 0
M  V30 10688 C 985.897 3.37258 -0.322866 0
M  V30 10689 C 984.456 3.76375 0.043504 0
M  V30 10690 C 983.603 2.69585 -0.649561 0
M  V30 10691 H 986.554 1.36489 -0.809721 0
M  V30 10692 H 986.575 3.77874 0.446279 0
M  V30 10693 H 986.087 3.63024 -1.37241 0
M  V30 10694 H 984.188 3.56226 1.09241 0
M  V30 10695 H 984.301 4.77843 -0.346765 0
M  V30 10696 H 982.665 2.54549 -0.087706 0
M  V30 10697 H 983.448 2.98188 -1.70115 0
M  V30 10698 N 985.893 0.34162 1.53853 0
M  V30 10699 C 987.309 -0.0103769 1.59597 0
M  V30 10700 C 987.509 -1.48897 1.35764 0
M  V30 10701 O 986.565 -2.24743 1.15095 0
M  V30 10702 C 987.878 0.424067 2.97695 0
M  V30 10703 C 989.426 0.376247 3.1073 0
M  V30 10704 C 989.901 0.786129 4.51203 0
M  V30 10705 N 991.392 0.74024 4.57247 0
M  V30 10706 C 992.127 1.02937 5.64085 0
M  V30 10707 N 991.623 1.38655 6.78783 0
M  V30 10708 N 993.416 0.953734 5.5395 0
M  V30 10709 H 985.567 1.30477 1.67599 0
M  V30 10710 H 987.83 0.531753 0.78482 0
M  V30 10711 H 987.536 1.45493 3.20195 0
M  V30 10712 H 987.41 -0.201713 3.7666 0
M  V30 10713 H 989.797 -0.645441 2.87955 0
M  V30 10714 H 989.878 1.0372 2.33828 0
M  V30 10715 H 989.522 1.80582 4.74713 0
M  V30 10716 H 989.452 0.102671 5.265 0
M  V30 10717 H 991.943 0.476763 3.7488 0
M  V30 10718 H 992.256 1.59206 7.56223 0
M  V30 10719 H 990.601 1.42498 6.80235 0
M  V30 10720 H 993.792 0.674044 4.63222 0
M  V30 10721 H 993.965 1.18241 6.37121 0
M  V30 10722 N 987.371 -1.57444 0.0701946 0
M  V30 10723 C 988.618 -1.93429 -0.59929 0
M  V30 10724 C 988.946 -0.9501 -1.69715 0
M  V30 10725 O 988.201 0.0345377 -1.9567 0
M  V30 10726 C 988.5 -3.36044 -1.21694 0
M  V30 10727 C 988.166 -4.50232 -0.245374 0
M  V30 10728 C 986.828 -4.81195 0.0219161 0
M  V30 10729 C 989.18 -5.1951 0.419396 0
M  V30 10730 C 986.508 -5.78775 0.96109 0
M  V30 10731 C 988.86 -6.18095 1.34688 0
M  V30 10732 C 987.524 -6.47477 1.62265 0
M  V30 10733 H 986.794 -0.707807 -0.219296 0
M  V30 10734 H 989.441 -1.90982 0.14073 0
M  V30 10735 H 987.746 -3.34948 -2.03265 0
M  V30 10736 H 989.443 -3.61176 -1.74221 0
M  V30 10737 H 986.033 -4.26082 -0.463887 0
M  V30 10738 H 990.217 -4.95785 0.226009 0
M  V30 10739 H 985.473 -5.99865 1.18202 0
M  V30 10740 H 989.647 -6.7088 1.86795 0
M  V30 10741 H 987.274 -7.229 2.352 0
M  V30 10742 N 988.849 0.203349 -1.56283 0
M  V30 10743 C 990.077 0.941426 -1.84241 0
M  V30 10744 C 990.492 1.77197 -0.651658 0
M  V30 10745 O 989.849 1.78506 0.379713 0
M  V30 10746 C 989.9 1.84429 -3.10915 0
M  V30 10747 O 989.621 1.04729 -4.25398 0
M  V30 10748 C 991.122 2.69474 -3.51993 0
M  V30 10749 H 988.342 0.27507 -0.612027 0
M  V30 10750 H 990.886 0.213088 -2.03387 0
M  V30 10751 H 989.041 2.52635 -2.93691 0
M  V30 10752 H 989.455 1.66179 -4.97478 0
M  V30 10753 H 990.929 3.28495 -4.43616 0
M  V30 10754 H 991.406 3.42775 -2.74594 0
M  V30 10755 H 992.012 2.06652 -3.71719 0
M  V30 10756 N 990.327 1.50405 0.470755 0
M  V30 10757 C 991.237 1.7208 1.59454 0
M  V30 10758 C 992.253 0.603932 1.63183 0
M  V30 10759 O 993.429 0.882296 1.81046 0
M  V30 10760 C 990.494 1.81057 2.95667 0
M  V30 10761 C 989.555 3.04792 3.02324 0
M  V30 10762 C 988.788 3.13332 4.3204 0
M  V30 10763 O 989.011 2.28655 5.22564 0
M  V30 10764 O 987.945 4.0606 4.44296 0
M  V30 10765 H 991.771 2.67343 1.44089 0
M  V30 10766 H 989.356 1.34505 0.650286 0
M  V30 10767 H 991.238 1.8914 3.76569 0
M  V30 10768 H 989.913 0.889782 3.11231 0
M  V30 10769 H 988.82 3.0221 2.205 0
M  V30 10770 H 990.153 3.96451 2.91698 0
M  V30 10771 N 991.805 -0.723954 1.39988 0
M  V30 10772 C 992.735 -1.85103 1.42335 0
M  V30 10773 C 993.716 -1.6769 0.285297 0
M  V30 10774 O 994.901 -1.87846 0.492716 0
M  V30 10775 C 992.031 -3.22972 1.27697 0
M  V30 10776 C 990.985 -3.55041 2.39018 0
M  V30 10777 C 990.311 -4.91965 2.09462 0
M  V30 10778 C 991.611 -3.56889 3.8135 0
M  V30 10779 H 993.305 -1.83396 2.36656 0
M  V30 10780 H 990.851 -0.880926 1.13911 0
M  V30 10781 H 992.804 -4.01503 1.27958 0
M  V30 10782 H 991.528 -3.25233 0.298487 0
M  V30 10783 H 990.187 -2.78845 2.37993 0
M  V30 10784 H 989.835 -4.90819 1.10025 0
M  V30 10785 H 989.535 -5.14389 2.84038 0
M  V30 10786 H 991.059 -5.7284 2.11391 0
M  V30 10787 H 992.473 -4.25476 3.84243 0
M  V30 10788 H 990.87 -3.90836 4.55376 0
M  V30 10789 H 991.94 -2.56452 4.11534 0
M  V30 10790 N 993.283 -1.25346 -0.955304 0
M  V30 10791 C 994.23 -1.05672 -2.05188 0
M  V30 10792 C 995.2 0.0339217 -1.66065 0
M  V30 10793 O 996.385 -0.123126 -1.90402 0
M  V30 10794 C 993.525 -0.680791 -3.38318 0
M  V30 10795 C 992.638 -1.84622 -3.90562 0
M  V30 10796 C 991.773 -1.41471 -5.12015 0
M  V30 10797 C 990.812 -2.54931 -5.56486 0
M  V30 10798 N 989.949 -2.1256 -6.69151 0
M  V30 10799 H 994.789 -1.9952 -2.2135 0
M  V30 10800 H 992.326 -0.993588 -1.08472 0
M  V30 10801 H 994.284 -0.443794 -4.14833 0
M  V30 10802 H 992.914 0.2207 -3.22045 0
M  V30 10803 H 991.966 -2.19654 -3.10574 0
M  V30 10804 H 993.278 -2.6983 -4.19515 0
M  V30 10805 H 992.432 -1.13732 -5.95945 0
M  V30 10806 H 991.171 -0.533334 -4.84775 0
M  V30 10807 H 990.176 -2.83415 -4.71122 0
M  V30 10808 H 991.401 -3.43645 -5.85734 0
M  V30 10809 H 989.347 -1.26838 -6.43621 0
M  V30 10810 H 989.264 -2.91317 -6.97618 0
M  V30 10811 H 990.532 -1.87996 -7.5649 0
M  V30 10812 N 994.761 1.15782 -1.06922 0
M  V30 10813 C 995.724 2.18578 -0.689654 0
M  V30 10814 C 996.724 1.58553 0.267872 0
M  V30 10815 O 997.914 1.7413 0.0494097 0
M  V30 10816 C 995.046 3.40896 -0.0157919 0
M  V30 10817 H 996.239 2.53672 -1.59971 0
M  V30 10818 H 993.792 1.30168 -0.865214 0
M  V30 10819 H 994.527 3.11367 0.906712 0
M  V30 10820 H 994.312 3.85721 -0.704415 0
M  V30 10821 H 995.802 4.16937 0.235266 0
M  V30 10822 N 996.239 0.8527 1.3254 0
M  V30 10823 C 997.171 0.253181 2.27797 0
M  V30 10824 C 998.184 -0.573977 1.52346 0
M  V30 10825 O 999.373 -0.398786 1.73988 0
M  V30 10826 C 996.473 -0.661034 3.32391 0
M  V30 10827 C 995.646 0.12984 4.37207 0
M  V30 10828 C 994.705 -0.709837 5.2139 0
M  V30 10829 O 993.731 -0.144056 5.69018 0
M  V30 10830 N 994.933 -2.0249 5.44039 0
M  V30 10831 H 997.698 1.07171 2.79883 0
M  V30 10832 H 995.259 0.712491 1.45379 0
M  V30 10833 H 997.251 -1.22806 3.85617 0
M  V30 10834 H 995.821 -1.38025 2.80478 0
M  V30 10835 H 995.041 0.878289 3.84291 0
M  V30 10836 H 996.329 0.673141 5.04328 0
M  V30 10837 H 995.727 -2.50792 5.0707 0
M  V30 10838 H 994.284 -2.5401 6.00269 0
M  V30 10839 N 997.718 -1.45297 0.610449 0
M  V30 10840 C 998.648 -2.33311 -0.0939698 0
M  V30 10841 C 999.629 -1.46999 -0.85588 0
M  V30 10842 O 1000.81 -1.75764 -0.825865 0
M  V30 10843 C 997.944 -3.29751 -1.09003 0
M  V30 10844 C 996.898 -4.2572 -0.441146 0
M  V30 10845 C 996.224 -5.11873 -1.54566 0
M  V30 10846 C 997.524 -5.1837 0.639489 0
M  V30 10847 H 999.218 -2.92459 0.640941 0
M  V30 10848 H 996.764 -1.40631 0.309675 0
M  V30 10849 H 998.717 -3.90195 -1.59141 0
M  V30 10850 H 997.441 -2.68768 -1.85557 0
M  V30 10851 H 996.1 -3.66579 0.0393908 0
M  V30 10852 H 995.748 -4.47256 -2.30155 0
M  V30 10853 H 995.448 -5.76886 -1.11698 0
M  V30 10854 H 996.972 -5.75185 -2.04925 0
M  V30 10855 H 998.386 -5.7287 0.22207 0
M  V30 10856 H 996.783 -5.91876 0.990089 0
M  V30 10857 H 997.853 -4.60627 1.51495 0
M  V30 10858 N 999.196 -0.349774 -1.5367 0
M  V30 10859 C 1000.42 0.248692 -2.05904 0
M  V30 10860 C 1000.85 1.42942 -1.22267 0
M  V30 10861 O 1000.2 1.79732 -0.237899 0
M  V30 10862 C 1000.25 0.635639 -3.54953 0
M  V30 10863 O 999.356 1.7349 -3.74132 0
M  V30 10864 H 998.697 0.0399477 -0.662797 0
M  V30 10865 H 1001.23 -0.505795 -1.9825 0
M  V30 10866 H 1001.24 0.911064 -3.97698 0
M  V30 10867 H 999.912 -0.227805 -4.15276 0
M  V30 10868 H 998.489 1.45626 -3.43289 0
M  V30 10869 N 1000.67 1.57404 -0.0785433 0
M  V30 10870 C 1001.9 1.98074 0.597862 0
M  V30 10871 C 1002.32 0.95714 1.6274 0
M  V30 10872 O 1001.67 -0.0553728 1.82416 0
M  V30 10873 C 1001.72 3.38815 1.26041 0
M  V30 10874 O 1001.45 4.37254 0.27207 0
M  V30 10875 C 1002.95 3.94397 2.024 0
M  V30 10876 H 1000.17 0.651263 0.161546 0
M  V30 10877 H 1002.71 2.03927 -0.152941 0
M  V30 10878 H 1000.87 3.34028 1.96225 0
M  V30 10879 H 1001.28 5.19136 0.74822 0
M  V30 10880 H 1002.75 4.95075 2.4414 0
M  V30 10881 H 1003.23 3.31308 2.88326 0
M  V30 10882 H 1003.84 4.02607 1.37068 0
M  V30 10883 N 1002.15 -0.195058 1.56388 0
M  V30 10884 C 1003.4 -0.913626 1.79821 0
M  V30 10885 C 1003.71 -1.84422 0.651767 0
M  V30 10886 O 1004.92 -2.6034 0.770402 0
M  V30 10887 C 1003.38 -1.67497 3.18548 0
M  V30 10888 C 1002.98 -0.789205 4.40994 0
M  V30 10889 C 1004.73 -2.38318 3.5129 0
M  V30 10890 C 1002.63 -1.54942 5.70742 0
M  V30 10891 H 1001.56 -0.344891 0.670497 0
M  V30 10892 H 1004.22 -0.166912 1.82739 0
M  V30 10893 H 1002.6 -2.46557 3.0988 0
M  V30 10894 H 1003.77 -0.0372595 4.60785 0
M  V30 10895 H 1002.09 -0.191834 4.15958 0
M  V30 10896 H 1004.68 -2.95745 4.45465 0
M  V30 10897 H 1005.03 -3.12507 2.75037 0
M  V30 10898 H 1005.56 -1.66224 3.61406 0
M  V30 10899 H 1002.3 -0.85031 6.49962 0
M  V30 10900 H 1001.82 -2.2753 5.54969 0
M  V30 10901 H 1003.5 -2.1032 6.11861 0
M  V30 10902 N 1003.63 -1.50653 -0.462772 0
M  V30 10903 C 1004.56 -1.73056 -1.5676 0
M  V30 10904 C 1005.54 -0.579699 -1.59917 0
M  V30 10905 O 1006.73 -0.819729 -1.76051 0
M  V30 10906 C 1003.86 -1.83234 -2.9503 0
M  V30 10907 C 1002.81 -2.98488 -3.06739 0
M  V30 10908 C 1002.14 -2.93818 -4.46738 0
M  V30 10909 C 1003.44 -4.38869 -2.83181 0
M  V30 10910 H 1005.13 -2.65562 -1.38265 0
M  V30 10911 H 1002.68 -1.27792 -0.663722 0
M  V30 10912 H 1004.63 -1.97491 -3.72257 0
M  V30 10913 H 1003.35 -0.873558 -3.14701 0
M  V30 10914 H 1002.01 -2.83895 -2.31946 0
M  V30 10915 H 1001.66 -1.95769 -4.63339 0
M  V30 10916 H 1001.36 -3.71197 -4.55507 0
M  V30 10917 H 1002.88 -3.10135 -5.25974 0
M  V30 10918 H 1004.3 -4.53945 -3.50153 0
M  V30 10919 H 1002.69 -5.17762 -3.03386 0
M  V30 10920 H 1003.76 -4.50663 -1.78972 0
M  V30 10921 N 1005.11 0.71652 -1.4037 0
M  V30 10922 C 1006.02 1.86074 -1.42876 0
M  V30 10923 C 1007.03 1.71005 -0.321475 0
M  V30 10924 O 1008.21 1.93286 -0.565909 0
M  V30 10925 C 1005.28 3.21862 -1.28863 0
M  V30 10926 C 1004.34 3.49193 -2.49726 0
M  V30 10927 C 1003.57 4.78502 -2.36372 0
M  V30 10928 O 1003.79 5.53529 -1.37703 0
M  V30 10929 O 1002.73 5.06147 -3.25728 0
M  V30 10930 H 1006.55 1.86916 -2.39366 0
M  V30 10931 H 1004.14 0.866818 -1.21683 0
M  V30 10932 H 1006.02 4.02972 -1.23253 0
M  V30 10933 H 1004.69 3.2175 -0.354783 0
M  V30 10934 H 1003.6 2.68095 -2.60913 0
M  V30 10935 H 1004.93 3.54101 -3.41868 0
M  V30 10936 N 1006.59 1.25851 0.948643 0
M  V30 10937 C 1007.5 1.08516 2.07994 0
M  V30 10938 C 1008.51 0.0206696 1.73988 0
M  V30 10939 O 1009.69 0.222854 2.00163 0
M  V30 10940 C 1006.75 0.712145 3.39307 0
M  V30 10941 C 1005.81 1.85523 3.87143 0
M  V30 10942 C 1005.05 1.49992 5.1219 0
M  V30 10943 O 1005.27 0.398268 5.69008 0
M  V30 10944 O 1004.2 2.33215 5.54882 0
M  V30 10945 H 1008.03 2.03405 2.25522 0
M  V30 10946 H 1005.62 1.04844 1.06433 0
M  V30 10947 H 1007.5 0.516512 4.18223 0
M  V30 10948 H 1006.17 -0.207416 3.23035 0
M  V30 10949 H 1005.08 2.10578 3.09205 0
M  V30 10950 H 1006.41 2.75425 4.07924 0
M  V30 10951 N 1008.06 -1.15214 1.07534 0
M  V30 10952 C 1008.97 -2.23636 0.708818 0
M  V30 10953 C 1009.99 -1.7172 -0.280759 0
M  V30 10954 O 1011.17 -2.01 -0.126927 0
M  V30 10955 C 1008.23 -3.46512 0.114167 0
M  V30 10956 C 1007.29 -4.13409 1.15722 0
M  V30 10957 C 1006.53 -5.30419 0.59085 0
M  V30 10958 O 1006.75 -5.67314 -0.592512 0
M  V30 10959 O 1005.68 -5.86871 1.33663 0
M  V30 10960 H 1009.51 -2.57322 1.61305 0
M  V30 10961 H 1007.09 -1.22972 0.848422 0
M  V30 10962 H 1008.98 -4.20851 -0.215091 0
M  V30 10963 H 1007.65 -3.1457 -0.763356 0
M  V30 10964 H 1006.56 -3.40984 1.53886 0
M  V30 10965 H 1007.89 -4.49435 2.00671 0
M  V30 10966 N 1009.54 -0.859717 -1.32086 0
M  V30 10967 C 1010.49 -0.306042 -2.28762 0
M  V30 10968 C 1011.46 0.589801 -1.55276 0
M  V30 10969 O 1012.64 0.523633 -1.83474 0
M  V30 10970 C 1009.78 0.495256 -3.41528 0
M  V30 10971 C 1008.9 -0.426947 -4.29885 0
M  V30 10972 C 1008.03 0.387474 -5.29785 0
M  V30 10973 C 1007.07 -0.531807 -6.09785 0
M  V30 10974 N 1006.21 0.245741 -7.0167 0
M  V30 10975 H 1011.05 -1.1357 -2.7551 0
M  V30 10976 H 1008.59 -0.571468 -1.35546 0
M  V30 10977 H 1010.54 0.97551 -4.05635 0
M  V30 10978 H 1009.17 1.28969 -2.95917 0
M  V30 10979 H 1008.23 -1.02561 -3.66313 0
M  V30 10980 H 1009.54 -1.13226 -4.85779 0
M  V30 10981 H 1008.69 0.930677 -5.99519 0
M  V30 10982 H 1007.43 1.12612 -4.74521 0
M  V30 10983 H 1006.44 -1.08685 -5.3895 0
M  V30 10984 H 1007.66 -1.26915 -6.67135 0
M  V30 10985 H 1005.61 0.967391 -6.48828 0
M  V30 10986 H 1005.52 -0.400432 -7.54939 0
M  V30 10987 H 1006.79 0.770507 -7.75683 0
M  V30 10988 N 1011.02 1.44971 -0.618145 0
M  V30 10989 C 1011.98 2.29044 0.0846739 0
M  V30 10990 C 1012.98 1.40341 0.784921 0
M  V30 10991 O 1014.17 1.62351 0.631479 0
M  V30 10992 C 1011.31 3.21617 1.13027 0
M  V30 10993 H 1012.5 2.92668 -0.654612 0
M  V30 10994 H 1010.05 1.51668 -0.377672 0
M  V30 10995 H 1010.79 2.62815 1.89997 0
M  V30 10996 H 1010.57 3.86969 0.63224 0
M  V30 10997 H 1012.06 3.84805 1.62218 0
M  V30 10998 N 1012.5 0.357919 1.53482 0
M  V30 10999 C 1013.43 -0.526753 2.23065 0
M  V30 11000 C 1014.44 -1.05239 1.24212 0
M  V30 11001 O 1015.63 -0.960078 1.50482 0
M  V30 11002 C 1012.73 -1.73919 2.9087 0
M  V30 11003 C 1011.91 -1.34638 4.16163 0
M  V30 11004 C 1010.96 -2.42005 4.67247 0
M  V30 11005 O 1009.99 -2.04714 5.31113 0
M  V30 11006 N 1011.19 -3.73478 4.44404 0
M  V30 11007 H 1013.96 0.0692386 2.9962 0
M  V30 11008 H 1011.52 0.182726 1.60866 0
M  V30 11009 H 1013.51 -2.45207 3.21956 0
M  V30 11010 H 1012.08 -2.24223 2.17814 0
M  V30 11011 H 1011.3 -0.463667 3.91464 0
M  V30 11012 H 1012.59 -1.06012 4.97633 0
M  V30 11013 H 1011.99 -4.06555 3.93357 0
M  V30 11014 H 1010.54 -4.40893 4.80059 0
M  V30 11015 N 1013.98 -1.5736 0.0868897 0
M  V30 11016 C 1014.91 -2.10582 -0.904858 0
M  V30 11017 C 1015.92 -1.04124 -1.25148 0
M  V30 11018 O 1017.11 -1.31595 -1.20603 0
M  V30 11019 C 1014.21 -2.56381 -2.21635 0
M  V30 11020 C 1013.38 -3.86581 -2.04631 0
M  V30 11021 C 1012.44 -4.18313 -3.19219 0
M  V30 11022 O 1011.47 -4.87669 -2.93544 0
M  V30 11023 N 1012.67 -3.73061 -4.44754 0
M  V30 11024 H 1015.44 -2.96297 -0.450352 0
M  V30 11025 H 1013 -1.616 -0.0984376 0
M  V30 11026 H 1014.99 -2.7466 -2.97227 0
M  V30 11027 H 1013.56 -1.75721 -2.58536 0
M  V30 11028 H 1012.78 -3.77532 -1.13417 0
M  V30 11029 H 1014.07 -4.71777 -1.90537 0
M  V30 11030 H 1013.46 -3.1706 -4.68497 0
M  V30 11031 H 1012.02 -3.96511 -5.17322 0
M  V30 11032 N 1015.45 0.186762 -1.56489 0
M  V30 11033 C 1016.36 1.25169 -1.98419 0
M  V30 11034 C 1017.38 1.49329 -0.893124 0
M  V30 11035 O 1018.56 1.61781 -1.19954 0
M  V30 11036 C 1015.62 2.57422 -2.32239 0
M  V30 11037 C 1014.68 2.4126 -3.55095 0
M  V30 11038 C 1013.92 3.67206 -3.87292 0
M  V30 11039 O 1014.14 4.71731 -3.20665 0
M  V30 11040 O 1013.07 3.62238 -4.80695 0
M  V30 11041 H 1016.9 0.925834 -2.89244 0
M  V30 11042 H 1014.48 0.392421 -1.44154 0
M  V30 11043 H 1016.37 3.35466 -2.5503 0
M  V30 11044 H 1015.04 2.89618 -1.44579 0
M  V30 11045 H 1013.95 1.61299 -3.37541 0
M  V30 11046 H 1015.28 2.13994 -4.43247 0
M  V30 11047 N 1016.93 1.50896 0.454776 0
M  V30 11048 C 1017.84 1.73762 1.5762 0
M  V30 11049 C 1018.86 0.621206 1.62533 0
M  V30 11050 O 1020.03 0.901449 1.801 0
M  V30 11051 C 1017.1 1.84183 2.9373 0
M  V30 11052 C 1016.16 3.07982 2.99075 0
M  V30 11053 C 1015.39 3.17896 4.28693 0
M  V30 11054 O 1015.62 2.34184 5.20109 0
M  V30 11055 O 1014.55 4.10749 4.39964 0
M  V30 11056 H 1018.38 2.68856 1.41245 0
M  V30 11057 H 1015.96 1.35187 0.635984 0
M  V30 11058 H 1017.84 1.93123 3.74542 0
M  V30 11059 H 1016.52 0.922742 3.10269 0
M  V30 11060 H 1015.43 3.04531 2.17282 0
M  V30 11061 H 1016.76 3.99523 2.87476 0
M  V30 11062 N 1018.41 -0.709066 1.40748 0
M  V30 11063 C 1019.83 -1.01797 1.22921 0
M  V30 11064 C 1020.03 -2.01205 0.109011 0
M  V30 11065 O 1019.08 -2.46854 -0.530987 0
M  V30 11066 C 1020.4 -1.55546 2.57344 0
M  V30 11067 C 1021.94 -1.67498 2.64412 0
M  V30 11068 C 1022.42 -2.24652 3.99119 0
M  V30 11069 N 1023.91 -2.3203 4.00895 0
M  V30 11070 C 1024.64 -2.7725 5.01917 0
M  V30 11071 N 1024.14 -3.22174 6.13332 0
M  V30 11072 N 1025.93 -2.76692 4.89283 0
M  V30 11073 H 1018.08 -0.0502704 2.12341 0
M  V30 11074 H 1020.35 -0.0848933 0.944191 0
M  V30 11075 H 1020.05 -0.899631 3.39999 0
M  V30 11076 H 1019.93 -2.53971 2.78888 0
M  V30 11077 H 1022.31 -2.32196 1.82123 0
M  V30 11078 H 1022.4 -0.676553 2.46691 0
M  V30 11079 H 1022.04 -1.60573 4.81849 0
M  V30 11080 H 1021.97 -3.25221 4.14173 0
M  V30 11081 H 1024.46 -2.00309 3.20444 0
M  V30 11082 H 1024.77 -3.55265 6.86299 0
M  V30 11083 H 1023.12 -3.20116 6.16888 0
M  V30 11084 H 1026.31 -2.40936 4.01332 0
M  V30 11085 H 1026.48 -3.11617 5.68154 0
M  V30 11086 N 1019.89 -1.26353 -0.941956 0
M  V30 11087 C 1020.82 -1.02163 -2.04054 0
M  V30 11088 C 1021.8 0.0533514 -1.62512 0
M  V30 11089 O 1022.98 -0.0889063 -1.8829 0
M  V30 11090 C 1020.11 -0.546908 -3.34255 0
M  V30 11091 C 1019.16 -1.61433 -3.94768 0
M  V30 11092 S 1019.99 -3.20306 -4.29144 0
M  V30 11093 C 1021.15 -2.746 -5.62446 0
M  V30 11094 H 1021.38 -1.9518 -2.24259 0
M  V30 11095 H 1018.91 -1.10024 -1.08324 0
M  V30 11096 H 1020.87 -0.279673 -4.09546 0
M  V30 11097 H 1019.53 0.36297 -3.11996 0
M  V30 11098 H 1018.72 -1.23315 -4.88681 0
M  V30 11099 H 1018.33 -1.8329 -3.26007 0
M  V30 11100 H 1020.62 -2.19015 -6.41123 0
M  V30 11101 H 1021.56 -3.67202 -6.05449 0
M  V30 11102 H 1021.97 -2.1419 -5.22286 0
M  V30 11103 N 1021.37 1.14642 -1.08144 0
M  V30 11104 C 1022.78 1.37604 -0.808537 0
M  V30 11105 C 1022.98 1.92868 0.583452 0
M  V30 11106 O 1022.04 2.13964 1.34073 0
M  V30 11107 C 1023.35 2.3396 -1.889 0
M  V30 11108 C 1024.9 2.47605 -1.9147 0
M  V30 11109 C 1025.38 3.47258 -2.98623 0
M  V30 11110 N 1026.87 3.548 -2.97777 0
M  V30 11111 C 1027.6 4.31751 -3.77331 0
M  V30 11112 N 1027.1 5.11966 -4.66757 0
M  V30 11113 N 1028.89 4.2692 -3.65645 0
M  V30 11114 H 1021.04 0.771154 -1.97906 0
M  V30 11115 H 1023.3 0.401694 -0.858688 0
M  V30 11116 H 1023.01 2.00484 -2.88962 0
M  V30 11117 H 1022.88 3.33833 -1.756 0
M  V30 11118 H 1025.27 2.80375 -0.920548 0
M  V30 11119 H 1025.35 1.47702 -2.08848 0
M  V30 11120 H 1025 3.15223 -3.98243 0
M  V30 11121 H 1024.93 4.46935 -2.7849 0
M  V30 11122 H 1027.42 2.97553 -2.3296 0
M  V30 11123 H 1027.73 5.67951 -5.24072 0
M  V30 11124 H 1026.08 5.11245 -4.70801 0
M  V30 11125 H 1029.27 3.63322 -2.95152 0
M  V30 11126 H 1029.44 4.8664 -4.27885 0
M  V30 11127 N 1022.85 0.866709 1.31628 0
M  V30 11128 C 1023.78 0.264788 2.26659 0
M  V30 11129 C 1024.76 -0.604181 1.50958 0
M  V30 11130 O 1025.94 -0.558324 1.80042 0
M  V30 11131 C 1023.07 -0.625373 3.32877 0
M  V30 11132 C 1022.11 0.171813 4.26154 0
M  V30 11133 S 1022.95 1.54818 5.12632 0
M  V30 11134 C 1024.1 0.66405 6.22367 0
M  V30 11135 H 1024.34 1.07036 2.77364 0
M  V30 11136 H 1021.87 0.665038 1.39343 0
M  V30 11137 H 1023.83 -1.13327 3.94547 0
M  V30 11138 H 1022.49 -1.40486 2.80932 0
M  V30 11139 H 1021.68 -0.506694 5.01447 0
M  V30 11140 H 1021.28 0.611704 3.68964 0
M  V30 11141 H 1023.57 -0.126717 6.77381 0
M  V30 11142 H 1024.52 1.388 6.94363 0
M  V30 11143 H 1024.93 0.233046 5.64019 0
M  V30 11144 N 1024.32 -1.44642 0.625825 0
M  V30 11145 C 1025.23 -2.34451 -0.0836134 0
M  V30 11146 C 1026.25 -1.5231 -0.841289 0
M  V30 11147 O 1027.43 -1.85056 -0.794754 0
M  V30 11148 C 1024.49 -3.30211 -1.05648 0
M  V30 11149 C 1023.55 -4.28259 -0.298759 0
M  V30 11150 C 1022.78 -5.19444 -1.22528 0
M  V30 11151 O 1023.01 -5.14444 -2.46382 0
M  V30 11152 O 1021.94 -5.97668 -0.71247 0
M  V30 11153 H 1025.77 -2.96555 0.654912 0
M  V30 11154 H 1023.35 -1.44327 0.386029 0
M  V30 11155 H 1025.23 -3.8917 -1.61632 0
M  V30 11156 H 1023.91 -2.70648 -1.77571 0
M  V30 11157 H 1022.82 -3.72863 0.304001 0
M  V30 11158 H 1024.15 -4.90728 0.380345 0
M  V30 11159 N 1025.8 -0.366053 -1.5329 0
M  V30 11160 C 1027.03 0.226839 -2.06156 0
M  V30 11161 C 1027.45 1.41637 -1.23776 0
M  V30 11162 O 1026.81 1.7947 -0.256948 0
M  V30 11163 C 1026.86 0.597956 -3.55608 0
M  V30 11164 O 1025.96 1.69512 -3.75951 0
M  V30 11165 H 1025.3 0.0329156 -0.663184 0
M  V30 11166 H 1027.83 -0.526793 -1.97702 0
M  V30 11167 H 1027.84 0.868831 -3.98642 0
M  V30 11168 H 1026.52 -0.271838 -4.15011 0
M  V30 11169 H 1025.09 1.41976 -3.44815 0
M  V30 11170 N 1027.28 1.57312 -0.0952337 0
M  V30 11171 C 1028.7 1.57445 0.261416 0
M  V30 11172 C 1028.9 1.10639 1.68408 0
M  V30 11173 O 1027.95 0.782912 2.40056 0
M  V30 11174 C 1029.26 3.00659 0.0497206 0
M  V30 11175 C 1030.81 3.1278 0.117459 0
M  V30 11176 C 1031.29 4.57952 -0.0662441 0
M  V30 11177 N 1032.78 4.63199 -0.0114146 0
M  V30 11178 C 1033.51 5.73255 -0.128799 0
M  V30 11179 N 1033.01 6.92146 -0.301026 0
M  V30 11180 N 1034.8 5.62056 -0.0700599 0
M  V30 11181 H 1026.95 1.86045 -1.02475 0
M  V30 11182 H 1029.22 0.858726 -0.401614 0
M  V30 11183 H 1028.92 3.39102 -0.932888 0
M  V30 11184 H 1028.8 3.68792 0.791975 0
M  V30 11185 H 1031.18 2.74209 1.09057 0
M  V30 11186 H 1031.26 2.47238 -0.656288 0
M  V30 11187 H 1030.91 4.97217 -1.03623 0
M  V30 11188 H 1030.84 5.21555 0.727198 0
M  V30 11189 H 1033.33 3.77712 0.119154 0
M  V30 11190 H 1033.64 7.71855 -0.382104 0
M  V30 11191 H 1031.99 6.94184 -0.336695 0
M  V30 11192 H 1035.18 4.68057 0.0633587 0
M  V30 11193 H 1035.35 6.4779 -0.164991 0
M  V30 11194 N 1028.76 -0.17846 1.56586 0
M  V30 11195 C 1030.17 -0.529957 1.50544 0
M  V30 11196 C 1030.37 -1.85015 0.798237 0
M  V30 11197 O 1029.43 -2.49983 0.355639 0
M  V30 11198 C 1030.74 -0.569314 2.95261 0
M  V30 11199 C 1032.29 -0.657008 3.06027 0
M  V30 11200 C 1032.77 -0.727323 4.52188 0
M  V30 11201 N 1034.26 -0.790406 4.56406 0
M  V30 11202 C 1034.99 -0.865265 5.66834 0
M  V30 11203 N 1034.49 -0.901398 6.86911 0
M  V30 11204 N 1036.28 -0.903736 5.54787 0
M  V30 11205 H 1028.43 0.687304 2.00972 0
M  V30 11206 H 1030.69 0.246936 0.915274 0
M  V30 11207 H 1030.4 0.331934 3.5013 0
M  V30 11208 H 1030.27 -1.41828 3.4952 0
M  V30 11209 H 1032.66 -1.54868 2.51197 0
M  V30 11210 H 1032.74 0.218495 2.54865 0
M  V30 11211 H 1032.39 0.160067 5.07648 0
M  V30 11212 H 1032.32 -1.61887 5.01099 0
M  V30 11213 H 1034.81 -0.771054 3.6995 0
M  V30 11214 H 1035.12 -0.959494 7.6682 0
M  V30 11215 H 1033.47 -0.869795 6.89536 0
M  V30 11216 H 1036.66 -0.872459 4.59898 0
M  V30 11217 H 1036.83 -0.958615 6.4087 0
M  V30 11218 N 1030.24 -1.51135 -0.446768 0
M  V30 11219 C 1031.17 -1.67949 -1.55967 0
M  V30 11220 C 1032.18 -0.560337 -1.52853 0
M  V30 11221 O 1033.37 -0.83435 -1.578 0
M  V30 11222 C 1030.47 -1.6703 -2.9488 0
M  V30 11223 C 1029.64 -2.95377 -3.22601 0
M  V30 11224 C 1028.7 -2.86772 -4.4119 0
M  V30 11225 O 1027.73 -3.60722 -4.40304 0
M  V30 11226 N 1028.93 -2.01979 -5.44228 0
M  V30 11227 H 1031.69 -2.63951 -1.41951 0
M  V30 11228 H 1029.26 -1.48903 -0.635569 0
M  V30 11229 H 1031.25 -1.58854 -3.7222 0
M  V30 11230 H 1029.82 -0.786623 -3.02541 0
M  V30 11231 H 1029.04 -3.17494 -2.33647 0
M  V30 11232 H 1030.33 -3.80356 -3.37945 0
M  V30 11233 H 1029.72 -1.41257 -5.4778 0
M  V30 11234 H 1028.28 -1.99689 -6.20457 0
M  V30 11235 N 1031.71 0.701592 -1.41122 0
M  V30 11236 C 1032.68 1.79733 -1.42227 0
M  V30 11237 C 1033.68 1.57708 -0.313831 0
M  V30 11238 O 1034.87 1.64492 -0.573423 0
M  V30 11239 C 1032 3.18024 -1.22775 0
M  V30 11240 H 1033.19 1.80148 -2.39764 0
M  V30 11241 H 1030.74 0.908624 -1.27176 0
M  V30 11242 H 1031.48 3.23252 -0.260552 0
M  V30 11243 H 1031.26 3.35411 -2.0308 0
M  V30 11244 H 1032.75 3.98021 -1.2637 0
M  V30 11245 N 1033.19 1.2685 0.935242 0
M  V30 11246 C 1034.42 1.15538 1.71635 0
M  V30 11247 C 1034.83 -0.288698 1.8658 0
M  V30 11248 O 1034.19 -1.19721 1.37743 0
M  V30 11249 C 1034.24 1.8259 3.11999 0
M  V30 11250 O 1033.96 3.21355 2.97763 0
M  V30 11251 C 1035.46 1.77307 4.06297 0
M  V30 11252 H 1032.68 0.402055 0.537208 0
M  V30 11253 H 1035.23 1.67582 1.17203 0
M  V30 11254 H 1033.38 1.3447 3.63313 0
M  V30 11255 H 1033.8 3.54626 3.86446 0
M  V30 11256 H 1035.27 2.28851 5.02326 0
M  V30 11257 H 1035.75 0.740823 4.32907 0
M  V30 11258 H 1036.35 2.25007 3.60904 0
M  V30 11259 N 1034.67 -1.14067 1.0875 0
M  V30 11260 C 1035.92 -1.85459 0.82053 0
M  V30 11261 C 1036.25 -1.82923 -0.65213 0
M  V30 11262 O 1035.52 -1.26241 -1.47965 0
M  V30 11263 C 1035.81 -3.33937 1.34752 0
M  V30 11264 C 1035.66 -3.45026 2.88578 0
M  V30 11265 C 1036.98 -4.2915 0.975636 0
M  V30 11266 H 1034.1 -0.673384 0.299538 0
M  V30 11267 H 1036.74 -1.33927 1.34772 0
M  V30 11268 H 1034.89 -3.77953 0.899086 0
M  V30 11269 H 1036.56 -3.09771 3.41818 0
M  V30 11270 H 1034.81 -2.86124 3.26061 0
M  V30 11271 H 1035.48 -4.49408 3.20526 0
M  V30 11272 H 1037.95 -3.93168 1.36228 0
M  V30 11273 H 1036.83 -5.31489 1.37152 0
M  V30 11274 H 1037.09 -4.41945 -0.116956 0
M  V30 11275 N 1036.15 -0.873678 -1.31166 0
M  V30 11276 C 1037.37 -0.500242 -2.01277 0
M  V30 11277 C 1037.8 0.900811 -1.65127 0
M  V30 11278 O 1037.16 1.59504 -0.861862 0
M  V30 11279 C 1037.2 -0.668976 -3.5434 0
M  V30 11280 O 1036.31 0.290096 -4.11378 0
M  V30 11281 H 1035.65 -0.198507 -0.633633 0
M  V30 11282 H 1038.18 -1.17811 -1.67277 0
M  V30 11283 H 1038.19 -0.563673 -4.04088 0
M  V30 11284 H 1036.86 -1.69055 -3.79991 0
M  V30 11285 H 1035.44 0.139437 -3.72639 0
M  V30 11286 N 1037.63 1.44308 -0.633487 0
M  V30 11287 C 1038.87 2.02863 -0.14765 0
M  V30 11288 C 1039.23 1.48956 1.21778 0
M  V30 11289 O 1038.52 0.664997 1.7969 0
M  V30 11290 C 1038.71 3.57316 -0.0773886 0
M  V30 11291 C 1038.54 4.26208 -1.43446 0
M  V30 11292 C 1037.31 4.63087 -2.02184 0
M  V30 11293 C 1039.51 4.56501 -2.36879 0
M  V30 11294 N 1037.49 5.16957 -3.31102 0
M  V30 11295 C 1038.86 5.11479 -3.50413 0
M  V30 11296 C 1040.92 4.38454 -2.35929 0
M  V30 11297 C 1039.62 5.50311 -4.63196 0
M  V30 11298 C 1041.65 4.78336 -3.47777 0
M  V30 11299 C 1041.01 5.3343 -4.60035 0
M  V30 11300 H 1037.11 0.775835 -0.0980038 0
M  V30 11301 H 1039.69 1.75767 -0.837495 0
M  V30 11302 H 1037.86 3.84019 0.581743 0
M  V30 11303 H 1039.6 4.02541 0.417494 0
M  V30 11304 H 1036.35 4.47482 -1.55103 0
M  V30 11305 H 1036.78 5.48366 -3.97019 0
M  V30 11306 H 1041.42 3.9515 -1.50387 0
M  V30 11307 H 1039.14 5.92568 -5.49444 0
M  V30 11308 H 1042.72 4.66084 -3.4822 0
M  V30 11309 H 1041.6 5.63719 -5.45151 0
M  V30 11310 N 1039.1 0.374177 1.53094 0
M  V30 11311 C 1040.38 -0.269632 1.93733 0
M  V30 11312 C 1040.76 -1.6566 1.30843 0
M  V30 11313 O 1040.11 -2.23598 0.470759 0
M  V30 11314 C 1040.32 -0.311204 3.4761 0
M  V30 11315 C 1041.67 -0.547432 4.21056 0
M  V30 11316 O 1042.69 -0.392053 3.54036 0
M  V30 11317 O 1041.55 -0.850645 5.39839 0
M  V30 11318 H 1038.64 -0.163723 0.810632 0
M  V30 11319 H 1041.19 0.427586 1.64225 0
M  V30 11320 H 1039.96 0.660897 3.85678 0
M  V30 11321 H 1039.59 -1.05397 3.83376 0
M  V30 11322 N 1040.58 -1.57259 0.103575 0
M  V30 11323 C 1041.81 -1.99424 -0.569638 0
M  V30 11324 C 1042.23 -0.982475 -1.60403 0
M  V30 11325 O 1041.59 0.0479231 -1.81237 0
M  V30 11326 C 1041.64 -3.40527 -1.18633 0
M  V30 11327 O 1040.74 -3.42167 -2.30208 0
M  V30 11328 H 1040.08 -0.648251 -0.143759 0
M  V30 11329 H 1042.61 -2.03739 0.187493 0
M  V30 11330 H 1042.62 -3.78404 -1.5256 0
M  V30 11331 H 1041.3 -4.13686 -0.428582 0
M  V30 11332 H 1039.88 -3.16093 -1.97837 0
M  V30 11333 N 1042.06 0.170153 -1.56679 0
M  V30 11334 C 1043.31 0.884841 -1.817 0
M  V30 11335 C 1043.63 1.82731 -0.680763 0
M  V30 11336 O 1042.9 1.936 0.299294 0
M  V30 11337 H 1041.48 0.329738 -0.670285 0
M  V30 11338 H 1044.14 0.169691 -1.9416 0
M  V30 11339 H 1043.24 1.46104 -2.7579 0
M  V30 11340 N 1043.54 1.5137 0.438746 0
M  V30 11341 C 1044.79 1.63645 1.18595 0
M  V30 11342 C 1045.11 0.354241 1.91755 0
M  V30 11343 O 1044.38 -0.629838 1.85499 0
M  V30 11344 H 1042.96 0.603103 0.440767 0
M  V30 11345 H 1045.62 1.88293 0.503159 0
M  V30 11346 H 1044.72 2.46342 1.9163 0
M  V30 11347 N 1045.02 -0.694098 1.41492 0
M  V30 11348 C 1046.24 -1.48789 1.44488 0
M  V30 11349 C 1046.67 -1.88028 0.0521588 0
M  V30 11350 O 1046.02 -1.54727 -0.944952 0
M  V30 11351 C 1046.07 -2.72586 2.3607 0
M  V30 11352 O 1045.18 -3.70128 1.81876 0
M  V30 11353 H 1044.52 -0.447758 0.490315 0
M  V30 11354 H 1047.05 -0.853036 1.85969 0
M  V30 11355 H 1047.06 -3.20877 2.51995 0
M  V30 11356 H 1045.73 -2.43363 3.37264 0
M  V30 11357 H 1044.31 -3.29069 1.75408 0
M  V30 11358 N 1046.49 -1.27344 -0.928501 0
M  V30 11359 C 1047.77 -1.04362 -1.65433 0
M  V30 11360 C 1048.15 0.421896 -2.06841 0
M  V30 11361 O 1047.5 1.40496 -1.80203 0
M  V30 11362 C 1047.71 -2.00442 -2.85699 0
M  V30 11363 C 1049.06 -2.29767 -3.57061 0
M  V30 11364 O 1050.08 -1.98409 -2.95825 0
M  V30 11365 O 1048.94 -2.83217 -4.67387 0
M  V30 11366 H 1046.03 -0.397783 -0.72505 0
M  V30 11367 H 1048.58 -1.38606 -0.979109 0
M  V30 11368 H 1047.35 -2.99281 -2.52085 0
M  V30 11369 H 1046.98 -1.66755 -3.60941 0
M  V30 11370 N 1047.97 1.13488 -1.09353 0
M  V30 11371 C 1048.88 2.2248 -0.744307 0
M  V30 11372 C 1049.9 1.72145 0.253404 0
M  V30 11373 O 1051.07 2.01176 0.0949339 0
M  V30 11374 C 1048.14 3.46286 -0.16928 0
M  V30 11375 C 1047.2 4.11516 -1.22284 0
M  V30 11376 C 1046.43 5.29412 -0.675161 0
M  V30 11377 O 1046.66 5.68185 0.502182 0
M  V30 11378 O 1045.59 5.8467 -1.42983 0
M  V30 11379 H 1049.42 2.54723 -1.65378 0
M  V30 11380 H 1047 1.21607 -0.867879 0
M  V30 11381 H 1048.88 4.2114 0.14811 0
M  V30 11382 H 1047.56 3.15745 0.713214 0
M  V30 11383 H 1046.47 3.38492 -1.59292 0
M  V30 11384 H 1047.8 4.46186 -2.07796 0
M  V30 11385 N 1049.45 0.880621 1.30701 0
M  V30 11386 C 1050.41 0.349087 2.26526 0
M  V30 11387 C 1051.41 -0.505973 1.52632 0
M  V30 11388 O 1052.6 -0.313751 1.71351 0
M  V30 11389 C 1049.74 -0.503023 3.37168 0
M  V30 11390 H 1050.93 1.19516 2.75056 0
M  V30 11391 H 1048.48 0.657107 1.41816 0
M  V30 11392 H 1049.22 -1.36986 2.93948 0
M  V30 11393 H 1049 0.109389 3.91947 0
M  V30 11394 H 1050.49 -0.866845 4.08504 0
M  V30 11395 N 1050.93 -1.4397 0.641131 0
M  V30 11396 C 1052.34 -1.85267 0.230838 0
M  V30 11397 C 1052.69 -1.53659 -1.21998 0
M  V30 11398 O 1051.82 -0.979572 -1.92959 0
M  V30 11399 C 1052.41 -3.36284 0.412171 0
M  V30 11400 C 1050.97 -3.76358 0.0563004 0
M  V30 11401 C 1050.12 -2.67768 0.720809 0
M  V30 11402 H 1053.07 -1.34294 0.845624 0
M  V30 11403 H 1053.09 -3.78924 -0.345936 0
M  V30 11404 H 1052.6 -3.59258 1.46818 0
M  V30 11405 H 1050.7 -3.58997 -0.997582 0
M  V30 11406 H 1050.82 -4.76756 0.473335 0
M  V30 11407 H 1049.18 -2.54227 0.155164 0
M  V30 11408 H 1049.96 -2.93573 1.77961 0
M  V30 11409 N 1052.41 -0.382291 -1.52893 0
M  V30 11410 C 1053.82 0.0932841 -1.86467 0
M  V30 11411 C 1054.17 1.4675 -1.30226 0
M  V30 11412 O 1053.29 2.07001 -0.63084 0
M  V30 11413 C 1053.89 0.176048 -3.38342 0
M  V30 11414 C 1052.45 0.595904 -3.71653 0
M  V30 11415 C 1051.6 -0.246511 -2.76202 0
M  V30 11416 H 1054.55 -0.600443 -1.46903 0
M  V30 11417 H 1054.57 0.996512 -3.67219 0
M  V30 11418 H 1054.08 -0.824264 -3.79246 0
M  V30 11419 H 1052.18 1.60384 -3.36315 0
M  V30 11420 H 1052.29 0.358919 -4.77754 0
M  V30 11421 H 1050.66 0.287162 -2.53076 0
M  V30 11422 H 1051.44 -1.24467 -3.19942 0
M  V30 11423 N 1053.89 1.57202 -0.111913 0
M  V30 11424 C 1054.83 2.14936 0.840908 0
M  V30 11425 C 1055.8 1.07242 1.2684 0
M  V30 11426 O 1056.99 1.35114 1.34718 0
M  V30 11427 C 1054.13 2.74743 2.0883 0
M  V30 11428 C 1053.24 3.96723 1.70982 0
M  V30 11429 C 1052.38 4.4464 2.90634 0
M  V30 11430 C 1051.41 5.59169 2.48992 0
M  V30 11431 N 1050.55 6.01862 3.61534 0
M  V30 11432 H 1055.39 2.96034 0.341735 0
M  V30 11433 H 1052.93 1.4626 0.156993 0
M  V30 11434 H 1054.89 3.07546 2.81907 0
M  V30 11435 H 1053.52 1.96346 2.56218 0
M  V30 11436 H 1052.57 3.70127 0.878072 0
M  V30 11437 H 1053.88 4.79795 1.36373 0
M  V30 11438 H 1053.03 4.79315 3.71944 0
M  V30 11439 H 1051.77 3.60503 3.28464 0
M  V30 11440 H 1050.78 5.24106 1.66113 0
M  V30 11441 H 1052 6.45067 2.12287 0
M  V30 11442 H 1049.95 5.20667 3.99051 0
M  V30 11443 H 1049.87 6.79772 3.30827 0
M  V30 11444 H 1051.13 6.41172 4.43305 0
M  V30 11445 N 1055.36 -0.161842 1.56767 0
M  V30 11446 C 1056.77 -0.723385 1.72116 0
M  V30 11447 C 1057.13 -1.82355 0.723961 0
M  V30 11448 O 1056.25 -2.16107 -0.112643 0
M  V30 11449 C 1056.85 -1.31895 3.12072 0
M  V30 11450 C 1055.4 -1.82722 3.29074 0
M  V30 11451 C 1054.55 -0.709863 2.6806 0
M  V30 11452 H 1057.5 0.0636647 1.58572 0
M  V30 11453 H 1057.52 -2.18871 3.11249 0
M  V30 11454 H 1057.04 -0.51801 3.84627 0
M  V30 11455 H 1055.14 -2.6543 2.61491 0
M  V30 11456 H 1055.25 -1.96614 4.36898 0
M  V30 11457 H 1053.61 -1.13273 2.28126 0
M  V30 11458 H 1054.4 0.0793884 3.43208 0
M  V30 11459 N 1056.84 -1.516 -0.430713 0
M  V30 11460 C 1058.07 -1.687 -1.20644 0
M  V30 11461 C 1058.49 -0.386555 -1.84085 0
M  V30 11462 O 1057.85 0.653952 -1.69095 0
M  V30 11463 C 1057.9 -2.80887 -2.2613 0
M  V30 11464 O 1057 -2.44952 -3.31772 0
M  V30 11465 H 1056.34 -0.562289 -0.353167 0
M  V30 11466 H 1058.87 -1.98198 -0.507807 0
M  V30 11467 H 1058.88 -3.05167 -2.70809 0
M  V30 11468 H 1057.56 -3.75249 -1.79334 0
M  V30 11469 H 1056.13 -2.31267 -2.92523 0
M  V30 11470 N 1058.32 0.686584 -1.41858 0
M  V30 11471 C 1059.74 0.998283 -1.24525 0
M  V30 11472 C 1059.94 2.01006 -0.141007 0
M  V30 11473 O 1058.99 2.47667 0.491648 0
M  V30 11474 C 1060.3 1.51432 -2.59786 0
M  V30 11475 C 1061.85 1.6327 -2.67043 0
M  V30 11476 C 1062.33 2.18274 -4.02642 0
M  V30 11477 N 1063.82 2.25622 -4.04535 0
M  V30 11478 C 1064.55 2.69229 -5.06264 0
M  V30 11479 N 1064.05 3.12375 -6.1838 0
M  V30 11480 N 1065.84 2.68873 -4.93623 0
M  V30 11481 H 1057.99 0.0164825 -2.12394 0
M  V30 11482 H 1060.26 0.0698613 -0.945422 0
M  V30 11483 H 1059.96 0.845426 -3.41388 0
M  V30 11484 H 1059.84 2.49502 -2.82894 0
M  V30 11485 H 1062.22 2.29269 -1.85794 0
M  V30 11486 H 1062.3 0.637221 -2.47736 0
M  V30 11487 H 1061.95 1.52887 -4.84343 0
M  V30 11488 H 1061.88 3.18591 -4.19294 0
M  V30 11489 H 1064.37 1.95186 -3.23591 0
M  V30 11490 H 1064.68 3.44301 -6.91864 0
M  V30 11491 H 1063.03 3.10262 -6.21902 0
M  V30 11492 H 1066.22 2.34521 -4.05114 0
M  V30 11493 H 1066.39 3.02539 -5.7304 0
M  V30 11494 N 1059.8 1.27835 0.921735 0
M  V30 11495 C 1061.21 1.13151 1.48505 0
M  V30 11496 C 1061.56 -0.281373 1.94172 0
M  V30 11497 O 1060.68 -1.17487 1.8173 0
M  V30 11498 C 1061.28 2.04792 2.69899 0
M  V30 11499 C 1059.84 1.94196 3.22436 0
M  V30 11500 C 1058.99 1.96999 1.95158 0
M  V30 11501 H 1061.94 1.40641 0.735241 0
M  V30 11502 H 1061.96 1.60724 3.44889 0
M  V30 11503 H 1061.47 3.07615 2.36631 0
M  V30 11504 H 1059.57 0.943805 3.60448 0
M  V30 11505 H 1059.68 2.80744 3.88226 0
M  V30 11506 H 1058.05 1.41301 2.11911 0
M  V30 11507 H 1058.83 3.01487 1.64196 0
M  V30 11508 N 1061.28 -1.12907 1.09954 0
M  V30 11509 C 1062.52 -1.83941 0.837255 0
M  V30 11510 C 1062.84 -1.84234 -0.638984 0
M  V30 11511 O 1062.11 -1.30193 -1.46378 0
M  V30 11512 H 1060.69 -0.681115 0.306743 0
M  V30 11513 H 1063.36 -1.36743 1.38879 0
M  V30 11514 H 1062.45 -2.88289 1.19565 0
M  V30 11515 N 1062.75 -0.88754 -1.30232 0
M  V30 11516 C 1063.98 -0.521549 -1.99909 0
M  V30 11517 C 1064.39 0.895086 -1.66688 0
M  V30 11518 O 1063.73 1.60053 -0.90159 0
M  V30 11519 C 1063.8 -0.619564 -3.54121 0
M  V30 11520 C 1063.46 -2.00097 -4.10865 0
M  V30 11521 C 1064.46 -2.97068 -4.26669 0
M  V30 11522 C 1062.14 -2.30706 -4.46184 0
M  V30 11523 C 1064.14 -4.2278 -4.77007 0
M  V30 11524 C 1061.82 -3.56663 -4.96221 0
M  V30 11525 C 1062.82 -4.52515 -5.11585 0
M  V30 11526 O 1062.51 -5.76237 -5.60541 0
M  V30 11527 H 1062.24 -0.199904 -0.645766 0
M  V30 11528 H 1064.8 -1.19546 -1.67027 0
M  V30 11529 H 1063.03 0.111334 -3.8654 0
M  V30 11530 H 1064.71 -0.26448 -4.05037 0
M  V30 11531 H 1065.48 -2.74734 -3.99683 0
M  V30 11532 H 1061.36 -1.56865 -4.33491 0
M  V30 11533 H 1064.9 -4.97603 -4.88914 0
M  V30 11534 H 1060.8 -3.78834 -5.22643 0
M  V30 11535 H 1061.57 -5.78655 -5.78879 0
M  V30 11536 N 1064.23 1.43628 -0.648757 0
M  V30 11537 C 1065.64 1.85142 -0.24066 0
M  V30 11538 C 1065.99 1.54304 1.21181 0
M  V30 11539 O 1065.12 0.989792 1.92437 0
M  V30 11540 C 1065.71 3.3606 -0.429999 0
M  V30 11541 C 1064.27 3.76323 -0.0762588 0
M  V30 11542 C 1063.42 2.67382 -0.734999 0
M  V30 11543 H 1066.37 1.33844 -0.852734 0
M  V30 11544 H 1066.39 3.79102 0.325836 0
M  V30 11545 H 1065.9 3.58474 -1.48721 0
M  V30 11546 H 1064.01 3.59521 0.978529 0
M  V30 11547 H 1064.12 4.76498 -0.498612 0
M  V30 11548 H 1062.48 2.54141 -0.168644 0
M  V30 11549 H 1063.27 2.92625 -1.79515 0
M  V30 11550 N 1065.71 0.390394 1.52688 0
M  V30 11551 C 1066.94 -0.194013 2.06491 0
M  V30 11552 C 1067.36 -1.3965 1.26014 0
M  V30 11553 O 1066.72 -1.79038 0.285468 0
M  V30 11554 C 1066.77 -0.541306 3.56514 0
M  V30 11555 O 1065.87 -1.63509 3.78601 0
M  V30 11556 H 1065.21 -0.0223608 0.663623 0
M  V30 11557 H 1067.74 0.558179 1.96839 0
M  V30 11558 H 1067.75 -0.805301 3.99974 0
M  V30 11559 H 1066.43 0.337828 4.14526 0
M  V30 11560 H 1065 -1.36473 3.4703 0
M  V30 11561 N 1067.19 -1.57141 0.120249 0
M  V30 11562 C 1068.6 -1.82256 -0.404931 0
M  V30 11563 C 1068.95 -1.03748 -1.66526 0
M  V30 11564 O 1068.08 -0.274456 -2.14653 0
M  V30 11565 C 1068.67 -3.30588 -0.741431 0
M  V30 11566 C 1067.23 -3.56379 -1.21124 0
M  V30 11567 C 1066.38 -2.76421 -0.220569 0
M  V30 11568 H 1069.33 -1.54897 0.345361 0
M  V30 11569 H 1069.35 -3.45284 -1.59872 0
M  V30 11570 H 1068.86 -3.87701 0.176036 0
M  V30 11571 H 1066.96 -3.04625 -2.14556 0
M  V30 11572 H 1067.07 -4.64952 -1.1557 0
M  V30 11573 H 1065.44 -2.44666 -0.707857 0
M  V30 11574 H 1066.22 -3.36294 0.690018 0
M  V30 11575 N 1068.67 0.153526 -1.5685 0
M  V30 11576 C 1070.08 0.505939 -1.51368 0
M  V30 11577 C 1070.28 1.83721 -0.82757 0
M  V30 11578 O 1069.34 2.49385 -0.395364 0
M  V30 11579 C 1070.65 0.522269 -2.9613 0
M  V30 11580 C 1072.2 0.608238 -3.07033 0
M  V30 11581 C 1072.67 0.655292 -4.53288 0
M  V30 11582 N 1074.17 0.717695 -4.57606 0
M  V30 11583 C 1074.9 0.774977 -5.68139 0
M  V30 11584 N 1074.4 0.792003 -6.88258 0
M  V30 11585 N 1076.19 0.81536 -5.56155 0
M  V30 11586 H 1068.34 -0.71919 -1.99853 0
M  V30 11587 H 1070.6 -0.261466 -0.91123 0
M  V30 11588 H 1070.31 -0.387595 -3.49558 0
M  V30 11589 H 1070.18 1.3625 -3.51733 0
M  V30 11590 H 1072.57 1.50852 -2.53629 0
M  V30 11591 H 1072.65 -0.259014 -2.54485 0
M  V30 11592 H 1072.3 -0.240809 -5.07329 0
M  V30 11593 H 1072.23 1.53894 -5.03611 0
M  V30 11594 H 1074.72 0.7121 -3.7113 0
M  V30 11595 H 1075.03 0.837378 -7.6825 0
M  V30 11596 H 1073.37 0.759986 -6.90832 0
M  V30 11597 H 1076.57 0.799183 -4.61227 0
M  V30 11598 H 1076.74 0.856537 -6.42314 0
M  V30 11599 N 1070.14 1.51827 0.422667 0
M  V30 11600 C 1071.37 1.69337 1.19748 0
M  V30 11601 C 1071.79 0.396312 1.83878 0
M  V30 11602 O 1071.15 -0.644976 1.6944 0
M  V30 11603 C 1071.2 2.82082 2.24637 0
M  V30 11604 O 1070.3 2.46708 3.30468 0
M  V30 11605 H 1069.65 0.564154 0.35018 0
M  V30 11606 H 1072.18 1.98465 0.497289 0
M  V30 11607 H 1072.19 3.06599 2.69186 0
M  V30 11608 H 1070.86 3.76195 1.77341 0
M  V30 11609 H 1069.44 2.32815 2.91293 0
M  V30 11610 N 1071.62 -0.679052 1.4222 0
M  V30 11611 C 1072.85 -1.47248 1.46058 0
M  V30 11612 C 1073.27 -1.87962 0.0720987 0
M  V30 11613 O 1072.63 -1.5572 -0.928488 0
M  V30 11614 C 1072.68 -2.70067 2.38948 0
M  V30 11615 O 1071.78 -3.68178 1.85791 0
M  V30 11616 H 1071.12 -0.442533 0.495036 0
M  V30 11617 H 1073.65 -0.833263 1.86863 0
M  V30 11618 H 1073.66 -3.18187 2.55385 0
M  V30 11619 H 1072.34 -2.39773 3.39826 0
M  V30 11620 H 1070.92 -3.2719 1.78889 0
M  V30 11621 N 1073.1 -1.28322 -0.914942 0
M  V30 11622 C 1074.01 -1.13993 -2.05043 0
M  V30 11623 C 1075.03 -0.0667921 -1.73872 0
M  V30 11624 O 1076.2 -0.275845 -1.99502 0
M  V30 11625 C 1073.27 -0.801856 -3.373 0
M  V30 11626 C 1072.33 -1.95723 -3.82088 0
M  V30 11627 C 1071.56 -1.63519 -5.08033 0
M  V30 11628 O 1071.78 -0.54899 -5.67752 0
M  V30 11629 O 1070.72 -2.47844 -5.48504 0
M  V30 11630 H 1074.54 -2.09313 -2.2005 0
M  V30 11631 H 1072.13 -1.0763 -1.03616 0
M  V30 11632 H 1074.01 -0.627214 -4.16706 0
M  V30 11633 H 1072.69 0.121696 -3.23471 0
M  V30 11634 H 1071.59 -2.18702 -3.03514 0
M  V30 11635 H 1072.93 -2.86144 -4.00478 0
M  V30 11636 N 1074.58 1.12322 -1.10551 0
M  V30 11637 C 1075.83 1.83495 -0.846998 0
M  V30 11638 C 1076.15 1.8457 0.629205 0
M  V30 11639 O 1075.42 1.30968 1.45686 0
M  V30 11640 H 1074 0.679479 -0.310351 0
M  V30 11641 H 1076.66 1.36004 -1.39602 0
M  V30 11642 H 1075.76 2.87651 -1.21092 0
M  V30 11643 N 1076.06 0.894434 1.2976 0
M  V30 11644 C 1077.3 0.517669 1.95771 0
M  V30 11645 C 1077.63 -0.935028 1.70551 0
M  V30 11646 O 1076.89 -1.67722 1.00835 0
M  V30 11647 C 1077.19 0.750307 3.49435 0
M  V30 11648 C 1076.85 2.17955 3.94723 0
M  V30 11649 C 1075.51 2.57036 4.068 0
M  V30 11650 C 1077.87 3.11053 4.18205 0
M  V30 11651 C 1075.19 3.88406 4.39724 0
M  V30 11652 C 1077.55 4.41966 4.52602 0
M  V30 11653 C 1076.21 4.80927 4.62888 0
M  V30 11654 H 1075.48 0.189428 0.716378 0
M  V30 11655 H 1078.13 1.13209 1.54454 0
M  V30 11656 H 1076.43 0.0529242 3.91764 0
M  V30 11657 H 1078.13 0.438251 3.98598 0
M  V30 11658 H 1074.72 1.86622 3.85837 0
M  V30 11659 H 1078.9 2.82076 4.08347 0
M  V30 11660 H 1074.16 4.18321 4.4589 0
M  V30 11661 H 1078.33 5.14134 4.69722 0
M  V30 11662 H 1075.96 5.82759 4.88156 0
M  V30 11663 N 1077.53 -1.43282 0.656365 0
M  V30 11664 C 1078.76 -2.05826 0.178619 0
M  V30 11665 C 1079.17 -1.493 -1.16216 0
M  V30 11666 O 1078.52 -0.620163 -1.72915 0
M  V30 11667 C 1078.58 -3.59496 0.0164101 0
M  V30 11668 C 1078.24 -4.38621 1.28298 0
M  V30 11669 C 1079.24 -4.70477 2.21241 0
M  V30 11670 C 1076.92 -4.78577 1.52544 0
M  V30 11671 C 1078.92 -5.412 3.36721 0
M  V30 11672 C 1076.6 -5.49044 2.68316 0
M  V30 11673 C 1077.6 -5.80279 3.6023 0
M  V30 11674 O 1077.29 -6.49306 4.7398 0
M  V30 11675 H 1077.02 -0.670158 0.0886814 0
M  V30 11676 H 1079.58 -1.84722 0.89816 0
M  V30 11677 H 1077.81 -3.79188 -0.758532 0
M  V30 11678 H 1079.5 -4.03731 -0.419096 0
M  V30 11679 H 1080.26 -4.40125 2.03753 0
M  V30 11680 H 1076.14 -4.5367 0.818816 0
M  V30 11681 H 1079.68 -5.65497 4.08483 0
M  V30 11682 H 1075.58 -5.78813 2.85738 0
M  V30 11683 H 1076.35 -6.67789 4.73286 0
M  V30 11684 N 1079.01 -0.398486 -1.52479 0
M  V30 11685 C 1080.42 0.0735015 -1.86555 0
M  V30 11686 C 1080.78 1.45361 -1.31775 0
M  V30 11687 O 1079.9 2.0632 -0.652759 0
M  V30 11688 C 1080.5 0.140152 -3.3851 0
M  V30 11689 C 1079.05 0.556451 -3.72264 0
M  V30 11690 C 1078.2 -0.275792 -2.75925 0
M  V30 11691 H 1081.15 -0.615991 -1.46257 0
M  V30 11692 H 1081.17 0.957507 -3.68255 0
M  V30 11693 H 1080.69 -0.864442 -3.7835 0
M  V30 11694 H 1078.79 1.56808 -3.37997 0
M  V30 11695 H 1078.9 0.308227 -4.78107 0
M  V30 11696 H 1077.26 0.260304 -2.53366 0
M  V30 11697 H 1078.05 -1.27854 -3.18604 0
M  V30 11698 N 1080.49 1.57075 -0.12858 0
M  V30 11699 C 1081.72 2.00305 0.537839 0
M  V30 11700 C 1082.14 1.00787 1.58819 0
M  V30 11701 O 1081.5 -0.0190839 1.8129 0
M  V30 11702 C 1081.55 3.42371 1.13201 0
M  V30 11703 O 1080.65 3.45786 2.24735 0
M  V30 11704 H 1079.99 0.650456 0.133428 0
M  V30 11705 H 1082.52 2.03415 -0.219882 0
M  V30 11706 H 1082.53 3.80783 1.4652 0
M  V30 11707 H 1081.21 4.14315 0.362713 0
M  V30 11708 H 1079.78 3.19201 1.92783 0
M  V30 11709 N 1081.97 -0.145205 1.5693 0
M  V30 11710 C 1083.38 -0.705089 1.72874 0
M  V30 11711 C 1083.73 -1.81577 0.743261 0
M  V30 11712 O 1082.86 -2.16214 -0.0897153 0
M  V30 11713 C 1083.45 -1.28578 3.13454 0
M  V30 11714 C 1082.01 -1.79221 3.30994 0
M  V30 11715 C 1081.16 -0.681392 2.68798 0
M  V30 11716 H 1084.11 0.0804798 1.58496 0
M  V30 11717 H 1084.13 -2.15558 3.13552 0
M  V30 11718 H 1083.64 -0.477186 3.85155 0
M  V30 11719 H 1081.74 -2.62642 2.64292 0
M  V30 11720 H 1081.86 -1.91969 4.38959 0
M  V30 11721 H 1080.22 -1.10847 2.29314 0
M  V30 11722 H 1081 0.115786 3.43105 0
M  V30 11723 N 1083.45 -1.52049 -0.414609 0
M  V30 11724 C 1084.38 -1.7122 -1.52369 0
M  V30 11725 C 1085.39 -0.592634 -1.5163 0
M  V30 11726 O 1086.58 -0.867634 -1.55995 0
M  V30 11727 C 1083.68 -1.73247 -2.91271 0
M  V30 11728 C 1082.85 -3.02153 -3.16263 0
M  V30 11729 C 1081.91 -2.96066 -4.35007 0
M  V30 11730 O 1080.94 -3.69981 -4.32554 0
M  V30 11731 N 1082.14 -2.13478 -5.39822 0
M  V30 11732 H 1084.91 -2.66902 -1.3632 0
M  V30 11733 H 1082.47 -1.50218 -0.603842 0
M  V30 11734 H 1084.46 -1.66714 -3.68766 0
M  V30 11735 H 1083.03 -0.85062 -3.00804 0
M  V30 11736 H 1082.25 -3.22379 -2.2686 0
M  V30 11737 H 1083.54 -3.87439 -3.29801 0
M  V30 11738 H 1082.94 -1.52844 -5.44661 0
M  V30 11739 H 1081.49 -2.12805 -6.16082 0
M  V30 11740 N 1084.93 0.6715 -1.42579 0
M  V30 11741 C 1085.88 1.77767 -1.42769 0
M  V30 11742 C 1086.86 1.58106 -0.298568 0
M  V30 11743 O 1088.05 1.68528 -0.541037 0
M  V30 11744 C 1085.18 3.16248 -1.33574 0
M  V30 11745 C 1084.27 3.41521 -2.51445 0
M  V30 11746 N 1084.66 3.37361 -3.76857 0
M  V30 11747 C 1082.96 3.7217 -2.45776 0
M  V30 11748 C 1083.66 3.62209 -4.5517 0
M  V30 11749 N 1082.63 3.83134 -3.85628 0
M  V30 11750 H 1086.43 1.72949 -2.37626 0
M  V30 11751 H 1083.95 0.872467 -1.36974 0
M  V30 11752 H 1085.95 3.9552 -1.31793 0
M  V30 11753 H 1084.61 3.22261 -0.397223 0
M  V30 11754 H 1085.62 3.17187 -4.09406 0
M  V30 11755 H 1082.29 3.85408 -1.6052 0
M  V30 11756 H 1083.68 3.64925 -5.64162 0
M  V30 11757 N 1086.4 1.28806 0.908124 0
M  V30 11758 C 1087.34 1.07538 2.01273 0
M  V30 11759 C 1088.31 -0.0102454 1.62597 0
M  V30 11760 O 1089.5 0.138797 1.87988 0
M  V30 11761 C 1086.63 0.635337 3.32688 0
M  V30 11762 C 1085.67 1.71843 3.90349 0
M  V30 11763 S 1086.5 3.31571 4.20501 0
M  V30 11764 C 1087.66 2.89416 5.54968 0
M  V30 11765 H 1087.89 2.01058 2.19005 0
M  V30 11766 H 1085.43 1.12857 1.05369 0
M  V30 11767 H 1087.38 0.388159 4.08661 0
M  V30 11768 H 1086.05 -0.280122 3.12848 0
M  V30 11769 H 1085.24 1.36228 4.8524 0
M  V30 11770 H 1084.84 1.91869 3.21033 0
M  V30 11771 H 1087.13 2.35936 6.35091 0
M  V30 11772 H 1088.08 3.83126 5.955 0
M  V30 11773 H 1088.48 2.27962 5.16424 0
M  V30 11774 N 1087.88 -1.11734 1.11145 0
M  V30 11775 C 1089.13 -1.83677 0.859684 0
M  V30 11776 C 1089.46 -1.84265 -0.613182 0
M  V30 11777 O 1088.74 -1.29351 -1.45254 0
M  V30 11778 C 1089.02 -3.31003 1.41805 0
M  V30 11779 C 1088.87 -3.38827 2.95831 0
M  V30 11780 C 1090.19 -4.26984 1.06645 0
M  V30 11781 H 1087.31 -0.666879 0.313754 0
M  V30 11782 H 1089.95 -1.31038 1.37583 0
M  V30 11783 H 1088.1 -3.75961 0.979054 0
M  V30 11784 H 1089.77 -3.02451 3.48312 0
M  V30 11785 H 1088.02 -2.79143 3.32056 0
M  V30 11786 H 1088.69 -4.42508 3.29986 0
M  V30 11787 H 1091.16 -3.9019 1.44537 0
M  V30 11788 H 1090.04 -5.2846 1.48394 0
M  V30 11789 H 1090.3 -4.42094 -0.0231866 0
M  V30 11790 N 1089.36 -0.901303 -1.29284 0
M  V30 11791 C 1090.29 -0.337552 -2.26701 0
M  V30 11792 C 1091.3 0.517039 -1.54371 0
M  V30 11793 O 1092.49 0.333937 -1.75349 0
M  V30 11794 C 1089.59 0.537214 -3.34615 0
M  V30 11795 C 1088.77 -0.292017 -4.36424 0
M  V30 11796 C 1087.83 0.515837 -5.23666 0
M  V30 11797 O 1086.85 -0.0672303 -5.6916 0
M  V30 11798 N 1088.05 1.82159 -5.51179 0
M  V30 11799 H 1090.82 -1.17484 -2.75713 0
M  V30 11800 H 1088.38 -0.765957 -1.42635 0
M  V30 11801 H 1090.37 1.0841 -3.8991 0
M  V30 11802 H 1088.94 1.2752 -2.85408 0
M  V30 11803 H 1088.16 -1.02031 -3.80767 0
M  V30 11804 H 1089.45 -0.859855 -5.01482 0
M  V30 11805 H 1088.85 2.318 -5.16028 0
M  V30 11806 H 1087.4 2.31556 -6.09282 0
M  V30 11807 N 1090.84 1.42931 -0.663954 0
M  V30 11808 C 1092.07 2.06028 -0.189808 0
M  V30 11809 C 1092.48 1.49827 1.14879 0
M  V30 11810 O 1091.84 0.633778 1.71142 0
M  V30 11811 C 1091.89 3.61349 -0.104343 0
M  V30 11812 O 1091.61 4.15463 -1.39004 0
M  V30 11813 C 1093.11 4.4154 0.394599 0
M  V30 11814 H 1090.33 0.664259 -0.0948744 0
M  V30 11815 H 1092.87 1.83255 -0.907632 0
M  V30 11816 H 1091.03 3.83271 0.564103 0
M  V30 11817 H 1091.44 5.09233 -1.25626 0
M  V30 11818 H 1092.92 5.50525 0.403329 0
M  V30 11819 H 1093.39 4.1534 1.4279 0
M  V30 11820 H 1094 4.24612 -0.241729 0
M  V30 11821 N 1092.32 0.406567 1.52266 0
M  V30 11822 C 1093.26 -0.43489 2.28498 0
M  V30 11823 C 1094.26 -1.04806 1.33086 0
M  V30 11824 O 1095.46 -0.986557 1.50556 0
M  V30 11825 H 1091.84 -0.159023 0.734994 0
M  V30 11826 H 1093.81 0.229316 2.97518 0
M  V30 11827 C 1092.56 -1.54073 3.117 0
M  V30 11828 H 1091.88 -1.07824 3.84986 0
M  V30 11829 H 1093.32 -2.10337 3.6815 0
M  V30 11830 C 1091.78 -2.50662 2.251 0
M  V30 11831 O 1092.31 -3.54486 1.88951 0
M  V30 11832 N 1090.52 -2.20811 1.8892 0
M  V30 11833 H 1090.06 -1.36413 2.18516 0
M  V30 11834 H 1090.02 -2.85684 1.3127 0
M  V30 11835 N 1093.79 -1.57004 0.136909 0
M  V30 11836 C 1094.74 -2.12815 -0.818144 0
M  V30 11837 C 1095.73 -1.0534 -1.21623 0
M  V30 11838 O 1096.92 -1.31539 -1.18434 0
M  V30 11839 C 1094.05 -2.74533 -2.06122 0
M  V30 11840 C 1093.14 -3.89117 -1.68669 0
M  V30 11841 N 1093.53 -4.95412 -1.01983 0
M  V30 11842 C 1091.82 -3.99636 -1.98009 0
M  V30 11843 C 1092.53 -5.75594 -0.840624 0
M  V30 11844 N 1091.5 -5.26019 -1.37131 0
M  V30 11845 H 1095.3 -2.92372 -0.299315 0
M  V30 11846 H 1092.82 -1.6227 -0.0649741 0
M  V30 11847 H 1094.81 -3.12872 -2.7553 0
M  V30 11848 H 1093.47 -1.96446 -2.58532 0
M  V30 11849 H 1094.49 -5.13393 -0.681744 0
M  V30 11850 H 1091.16 -3.32613 -2.52339 0
M  V30 11851 H 1092.55 -6.71157 -0.315807 0
M  V30 11852 N 1095.27 0.136881 -1.57004 0
M  V30 11853 C 1096.5 0.861186 -1.87796 0
M  V30 11854 C 1096.91 1.74788 -0.724272 0
M  V30 11855 O 1096.25 1.80984 0.31471 0
M  V30 11856 C 1096.32 1.76115 -3.13407 0
M  V30 11857 C 1095.98 1.05059 -4.4476 0
M  V30 11858 C 1096.98 0.399736 -5.18361 0
M  V30 11859 C 1094.66 1.03709 -4.91477 0
M  V30 11860 C 1096.66 -0.255127 -6.36889 0
M  V30 11861 C 1094.34 0.378414 -6.09927 0
M  V30 11862 C 1095.34 -0.266555 -6.8248 0
M  V30 11863 O 1095.03 -0.914757 -7.98679 0
M  V30 11864 H 1094.76 0.253855 -0.626525 0
M  V30 11865 H 1097.31 0.131291 -2.0498 0
M  V30 11866 H 1095.54 2.53224 -2.92257 0
M  V30 11867 H 1097.23 2.3583 -3.30362 0
M  V30 11868 H 1098 0.401909 -4.83332 0
M  V30 11869 H 1093.88 1.52852 -4.34922 0
M  V30 11870 H 1097.42 -0.759135 -6.93457 0
M  V30 11871 H 1093.32 0.373942 -6.44416 0
M  V30 11872 H 1094.09 -0.817437 -8.14408 0
M  V30 11873 N 1096.75 1.52266 0.40654 0
M  V30 11874 C 1097.68 1.72025 1.51459 0
M  V30 11875 C 1098.7 0.600667 1.51314 0
M  V30 11876 O 1099.88 0.875894 1.55532 0
M  V30 11877 C 1096.98 1.7479 2.90348 0
M  V30 11878 C 1096.16 3.03826 3.14656 0
M  V30 11879 C 1095.22 2.98369 4.33431 0
M  V30 11880 O 1094.24 3.7227 4.30586 0
M  V30 11881 N 1095.44 2.16338 5.38682 0
M  V30 11882 H 1098.21 2.67622 1.34903 0
M  V30 11883 H 1095.77 1.50536 0.595867 0
M  V30 11884 H 1097.76 1.68667 3.67877 0
M  V30 11885 H 1096.33 0.86656 3.00349 0
M  V30 11886 H 1095.55 3.23577 2.25148 0
M  V30 11887 H 1096.84 3.89182 3.27742 0
M  V30 11888 H 1096.24 1.55731 5.43842 0
M  V30 11889 H 1094.8 2.1607 6.14945 0
M  V30 11890 N 1098.23 -0.663929 1.42933 0
M  V30 11891 C 1099.47 -1.42603 1.44195 0
M  V30 11892 C 1099.81 -1.94101 0.0620284 0
M  V30 11893 O 1099.08 -1.71609 -0.91546 0
M  V30 11894 C 1099.37 -2.61522 2.47544 0
M  V30 11895 C 1099.22 -2.15587 3.94769 0
M  V30 11896 C 1100.54 -3.6374 2.47753 0
M  V30 11897 H 1097.66 -0.517189 0.525056 0
M  V30 11898 H 1100.3 -0.75361 1.74415 0
M  V30 11899 H 1098.45 -3.1889 2.21904 0
M  V30 11900 H 1100.12 -1.63303 4.31428 0
M  V30 11901 H 1098.36 -1.47057 4.08114 0
M  V30 11902 H 1099.03 -3.01053 4.62678 0
M  V30 11903 H 1101.51 -3.16111 2.70579 0
M  V30 11904 H 1100.39 -4.44512 3.22025 0
M  V30 11905 H 1100.65 -4.15607 1.50742 0
M  V30 11906 N 1099.71 -1.29285 -0.901281 0
M  V30 11907 C 1100.93 -1.20169 -1.69039 0
M  V30 11908 C 1101.36 0.234509 -1.86632 0
M  V30 11909 O 1100.71 1.16935 -1.38549 0
M  V30 11910 C 1100.76 -1.91852 -3.05328 0
M  V30 11911 O 1099.87 -1.23448 -3.9349 0
M  V30 11912 H 1099.21 -0.416486 -0.517141 0
M  V30 11913 H 1101.74 -1.70826 -1.12603 0
M  V30 11914 H 1101.75 -2.00244 -3.5548 0
M  V30 11915 H 1100.42 -2.96313 -2.91841 0
M  V30 11916 H 1099 -1.23303 -3.51924 0
M  V30 11917 N 1101.18 1.11143 -1.11736 0
M  V30 11918 C 1102.43 1.82586 -0.866412 0
M  V30 11919 C 1102.75 1.85227 0.609593 0
M  V30 11920 O 1102.02 1.32505 1.44288 0
M  V30 11921 H 1100.6 0.676149 -0.31754 0
M  V30 11922 H 1103.27 1.34516 -1.41037 0
M  V30 11923 H 1102.36 2.8635 -1.24136 0
M  V30 11924 N 1102.66 0.908147 1.28804 0
M  V30 11925 C 1103.89 0.553287 1.99054 0
M  V30 11926 C 1104.3 -0.868455 1.68091 0
M  V30 11927 O 1103.64 -1.58599 0.926939 0
M  V30 11928 C 1103.71 0.675823 3.5309 0
M  V30 11929 C 1103.37 2.06608 4.0763 0
M  V30 11930 C 1104.37 3.03819 4.21889 0
M  V30 11931 C 1102.05 2.37775 4.42457 0
M  V30 11932 C 1104.05 4.30316 4.7022 0
M  V30 11933 C 1101.73 3.64512 4.90484 0
M  V30 11934 C 1102.73 4.60597 5.04321 0
M  V30 11935 O 1102.42 5.85082 5.51302 0
M  V30 11936 H 1102.15 0.210152 0.642504 0
M  V30 11937 H 1104.7 1.22188 1.65104 0
M  V30 11938 H 1102.93 -0.0498253 3.86668 0
M  V30 11939 H 1104.62 0.328884 4.04565 0
M  V30 11940 H 1105.39 2.81057 3.95262 0
M  V30 11941 H 1101.27 1.63742 4.3094 0
M  V30 11942 H 1104.81 5.05318 4.80936 0
M  V30 11943 H 1100.71 3.87101 5.1655 0
M  V30 11944 H 1101.48 5.87791 5.69599 0
M  V30 11945 N 1104.14 -1.42577 0.671525 0
M  V30 11946 C 1105.55 -1.84736 0.270084 0
M  V30 11947 C 1105.9 -1.56212 -1.18711 0
M  V30 11948 O 1105.03 -1.02028 -1.90838 0
M  V30 11949 C 1105.62 -3.35334 0.483409 0
M  V30 11950 C 1104.18 -3.76154 0.136119 0
M  V30 11951 C 1103.33 -2.66179 0.777444 0
M  V30 11952 H 1106.28 -1.3247 0.873919 0
M  V30 11953 H 1106.3 -3.79573 -0.265483 0
M  V30 11954 H 1105.81 -3.56063 1.54405 0
M  V30 11955 H 1103.91 -3.61033 -0.921209 0
M  V30 11956 H 1104.03 -4.75645 0.574356 0
M  V30 11957 H 1102.39 -2.53841 0.209055 0
M  V30 11958 H 1103.17 -2.89732 1.84148 0
M  V30 11959 N 1105.62 -0.414636 -1.52048 0
M  V30 11960 C 1106.87 0.159034 -2.01473 0
M  V30 11961 C 1107.19 1.45176 -1.30188 0
M  V30 11962 O 1106.46 1.91134 -0.429469 0
M  V30 11963 H 1105.04 0.0617604 -0.744443 0
M  V30 11964 H 1107.7 -0.552141 -1.86916 0
M  V30 11965 H 1106.8 0.351217 -3.10118 0
M  V30 11966 N 1107.1 1.56929 -0.145233 0
M  V30 11967 C 1108.32 2.00864 0.516564 0
M  V30 11968 C 1108.75 1.02466 1.57741 0
M  V30 11969 O 1108.1 0.000145439 1.813 0
M  V30 11970 C 1108.15 3.43552 1.09563 0
M  V30 11971 O 1107.26 3.4815 2.21055 0
M  V30 11972 H 1106.6 0.651835 0.126521 0
M  V30 11973 H 1109.13 2.0317 -0.241445 0
M  V30 11974 H 1109.14 3.82316 1.42473 0
M  V30 11975 H 1107.81 4.14677 0.318749 0
M  V30 11976 H 1106.39 3.21228 1.89387 0
M  V30 11977 N 1108.58 -0.128553 1.57075 0
M  V30 11978 C 1109.53 -1.16373 1.96065 0
M  V30 11979 C 1110.51 -1.37579 0.834323 0
M  V30 11980 O 1111.7 -1.38831 1.09795 0
M  V30 11981 C 1108.83 -2.49276 2.36043 0
M  V30 11982 C 1107.92 -2.31586 3.55287 0
M  V30 11983 N 1108.31 -1.83688 4.71267 0
M  V30 11984 C 1106.61 -2.62275 3.60732 0
M  V30 11985 C 1107.31 -1.79479 5.53319 0
M  V30 11986 N 1106.28 -2.23474 4.95541 0
M  V30 11987 H 1110.08 -0.785792 2.832 0
M  V30 11988 H 1107.6 -0.33641 1.58877 0
M  V30 11989 H 1109.6 -3.24134 2.62188 0
M  V30 11990 H 1108.26 -2.87837 1.50267 0
M  V30 11991 H 1109.27 -1.53376 4.94668 0
M  V30 11992 H 1105.94 -3.04586 2.85541 0
M  V30 11993 H 1107.33 -1.43781 6.56336 0
M  V30 11994 N 1110.05 -1.5248 -0.398459 0
M  V30 11995 C 1111.3 -1.66731 -1.14215 0
M  V30 11996 C 1111.62 -0.404957 -1.90749 0
M  V30 11997 O 1110.89 0.580434 -1.87104 0
M  V30 11998 H 1109.47 -0.614577 -0.424622 0
M  V30 11999 H 1112.13 -1.89561 -0.453059 0
M  V30 12000 H 1111.23 -2.51336 -1.85031 0
M  V30 12001 N 1111.53 0.65634 -1.43283 0
M  V30 12002 C 1112.78 1.41212 -1.44021 0
M  V30 12003 C 1113.09 1.95485 -0.0669783 0
M  V30 12004 O 1114.3 2.71457 0.0481909 0
M  V30 12005 C 1112.76 2.55541 -2.5343 0
M  V30 12006 C 1112.36 2.07889 -3.96845 0
M  V30 12007 C 1114.11 3.3293 -2.63359 0
M  V30 12008 C 1112.01 3.19411 -4.97726 0
M  V30 12009 H 1110.94 0.530566 -0.535739 0
M  V30 12010 H 1113.6 0.708743 -1.6926 0
M  V30 12011 H 1111.98 3.28335 -2.21387 0
M  V30 12012 H 1113.15 1.42127 -4.38334 0
M  V30 12013 H 1111.47 1.43388 -3.90933 0
M  V30 12014 H 1114.06 4.1602 -3.35903 0
M  V30 12015 H 1114.41 3.80753 -1.68324 0
M  V30 12016 H 1114.94 2.67216 -2.94687 0
M  V30 12017 H 1111.68 2.7656 -5.94302 0
M  V30 12018 H 1111.2 3.83895 -4.60853 0
M  V30 12019 H 1112.88 3.84591 -5.20287 0
M  V30 12020 N 1113.01 1.29761 0.894412 0
M  V30 12021 C 1114.24 1.2094 1.67872 0
M  V30 12022 C 1114.65 -0.229192 1.87404 0
M  V30 12023 O 1114.01 -1.15278 1.41482 0
M  V30 12024 C 1114.06 1.92424 3.06032 0
M  V30 12025 O 1113.78 3.30665 2.87388 0
M  V30 12026 C 1115.28 1.90144 4.0045 0
M  V30 12027 H 1112.5 0.418942 0.524145 0
M  V30 12028 H 1115.05 1.71226 1.11813 0
M  V30 12029 H 1113.2 1.4596 3.58851 0
M  V30 12030 H 1113.62 3.66741 3.74969 0
M  V30 12031 H 1115.09 2.44716 4.94791 0
M  V30 12032 H 1115.57 0.878175 4.30331 0
M  V30 12033 H 1116.17 2.36375 3.53563 0
M  V30 12034 N 1114.49 -1.10549 1.12324 0
M  V30 12035 C 1115.45 -2.15039 0.793156 0
M  V30 12036 C 1116.45 -1.59651 -0.19192 0
M  V30 12037 O 1117.64 -1.74167 0.0337262 0
M  V30 12038 C 1114.77 -3.40433 0.17842 0
M  V30 12039 H 1115.97 -2.4575 1.71892 0
M  V30 12040 H 1113.52 -1.25892 0.926333 0
M  V30 12041 H 1114.25 -3.15338 -0.757122 0
M  V30 12042 H 1114.04 -3.81921 0.887645 0
M  V30 12043 H 1115.53 -4.17584 -0.0360724 0
M  V30 12044 N 1115.97 -0.914965 -1.28321 0
M  V30 12045 C 1116.9 -0.348729 -2.2552 0
M  V30 12046 C 1117.88 0.547737 -1.53097 0
M  V30 12047 O 1119.06 0.491119 -1.8199 0
M  V30 12048 C 1116.19 0.501397 -3.34968 0
M  V30 12049 C 1115.23 -0.329859 -4.25223 0
M  V30 12050 S 1116.07 -1.73737 -5.06533 0
M  V30 12051 C 1117.22 -0.89458 -6.19474 0
M  V30 12052 H 1117.46 -1.17256 -2.732 0
M  V30 12053 H 1114.99 -0.716297 -1.36779 0
M  V30 12054 H 1116.95 0.986061 -3.98481 0
M  V30 12055 H 1115.61 1.29962 -2.85952 0
M  V30 12056 H 1114.8 0.320236 -5.02982 0
M  V30 12057 H 1114.4 -0.748221 -3.66439 0
M  V30 12058 H 1116.69 -0.124776 -6.77385 0
M  V30 12059 H 1117.64 -1.64475 -6.88733 0
M  V30 12060 H 1118.05 -0.442217 -5.62765 0
M  V30 12061 N 1117.44 1.42219 -0.679077 0
M  V30 12062 C 1118.41 2.29197 -0.0125475 0
M  V30 12063 C 1119.41 1.43544 0.724691 0
M  V30 12064 O 1120.6 1.64884 0.562052 0
M  V30 12065 C 1117.73 3.26122 0.992846 0
M  V30 12066 H 1118.92 2.89629 -0.778154 0
M  V30 12067 H 1116.47 1.4993 -0.44166 0
M  V30 12068 H 1117.21 2.70637 1.78679 0
M  V30 12069 H 1116.99 3.89302 0.467544 0
M  V30 12070 H 1118.48 3.91339 1.45751 0
M  V30 12071 N 1118.92 0.422693 1.51826 0
M  V30 12072 C 1120.17 -0.148348 2.01555 0
M  V30 12073 C 1120.49 -1.44483 1.30956 0
M  V30 12074 O 1119.76 -1.90904 0.439599 0
M  V30 12075 H 1118.34 -0.0578116 0.74476 0
M  V30 12076 H 1121 0.562046 1.8662 0
M  V30 12077 H 1120.1 -0.334766 3.10299 0
M  V30 12078 N 1120.4 -1.5685 0.153553 0
M  V30 12079 C 1121.62 -2.01135 -0.505904 0
M  V30 12080 C 1122.05 -1.03301 -1.57196 0
M  V30 12081 O 1121.41 -0.00976022 -1.81297 0
M  V30 12082 C 1121.46 -3.44129 -1.0774 0
M  V30 12083 O 1120.56 -3.49318 -2.19205 0
M  V30 12084 H 1119.9 -0.652496 -0.123062 0
M  V30 12085 H 1122.43 -2.03039 0.252216 0
M  V30 12086 H 1122.44 -3.83066 -1.40444 0
M  V30 12087 H 1121.12 -4.1484 -0.296754 0
M  V30 12088 H 1119.69 -3.22227 -1.8768 0
M  V30 12089 N 1121.88 0.120221 -1.57141 0
M  V30 12090 C 1123.13 0.826791 -1.83976 0
M  V30 12091 C 1123.44 1.81102 -0.739014 0
M  V30 12092 O 1124.65 2.56368 -0.893736 0
M  V30 12093 C 1123.1 1.52108 -3.26176 0
M  V30 12094 C 1122.71 0.577902 -4.44257 0
M  V30 12095 C 1124.45 2.21286 -3.62261 0
M  V30 12096 C 1122.36 1.27535 -5.77485 0
M  V30 12097 H 1121.29 0.312508 -0.686189 0
M  V30 12098 H 1123.94 0.0795343 -1.83328 0
M  V30 12099 H 1122.32 2.31492 -3.2129 0
M  V30 12100 H 1123.5 -0.182629 -4.60438 0
M  V30 12101 H 1121.81 -0.00684348 -4.16399 0
M  V30 12102 H 1124.41 2.74154 -4.59068 0
M  V30 12103 H 1124.75 2.99029 -2.89634 0
M  V30 12104 H 1125.29 1.48791 -3.68925 0
M  V30 12105 H 1122.02 0.539237 -6.53278 0
M  V30 12106 H 1121.54 2.00792 -5.65192 0
M  V30 12107 H 1123.22 1.80888 -6.21199 0
M  V30 12108 N 1123.36 1.52689 0.390367 0
M  V30 12109 C 1124.59 1.71292 1.1551 0
M  V30 12110 C 1124.99 0.430405 1.84239 0
M  V30 12111 O 1124.34 -0.604823 1.73458 0
M  V30 12112 C 1124.4 2.80597 2.24735 0
M  V30 12113 C 1124.06 4.21757 1.75984 0
M  V30 12114 C 1125.06 5.04961 1.23733 0
M  V30 12115 C 1122.75 4.68071 1.82248 0
M  V30 12116 C 1124.74 6.32561 0.783926 0
M  V30 12117 C 1122.43 5.95656 1.36519 0
M  V30 12118 C 1123.42 6.7773 0.846786 0
M  V30 12119 O 1123.11 8.02923 0.396164 0
M  V30 12120 H 1122.84 0.576906 0.352356 0
M  V30 12121 H 1125.4 2.00117 0.462865 0
M  V30 12122 H 1123.63 2.4719 2.97378 0
M  V30 12123 H 1125.32 2.87616 2.86412 0
M  V30 12124 H 1126.08 4.70363 1.18251 0
M  V30 12125 H 1121.96 4.04278 2.21541 0
M  V30 12126 H 1125.51 6.96572 0.378612 0
M  V30 12127 H 1121.4 6.29758 1.41686 0
M  V30 12128 H 1122.17 8.16861 0.517766 0
M  V30 12129 N 1124.83 -0.648732 1.43629 0
M  V30 12130 C 1126.25 -1.23001 1.40455 0
M  V30 12131 C 1126.6 -1.95886 0.110897 0
M  V30 12132 O 1125.72 -2.01485 -0.789487 0
M  V30 12133 C 1126.32 -2.23716 2.54434 0
M  V30 12134 C 1124.88 -2.77311 2.54511 0
M  V30 12135 C 1124.02 -1.52024 2.31914 0
M  V30 12136 H 1126.97 -0.440473 1.52465 0
M  V30 12137 H 1126.99 -3.05979 2.26179 0
M  V30 12138 H 1126.51 -1.7064 3.48574 0
M  V30 12139 H 1124.61 -3.34437 1.64263 0
M  V30 12140 H 1124.72 -3.2455 3.52426 0
M  V30 12141 H 1123.08 -1.79531 1.80667 0
M  V30 12142 H 1123.87 -1.00876 3.28145 0
M  V30 12143 N 1126.31 -1.30234 -0.887518 0
M  V30 12144 C 1127.56 -1.18675 -1.63587 0
M  V30 12145 C 1127.88 0.259342 -1.93268 0
M  V30 12146 O 1127.15 1.17523 -1.56733 0
M  V30 12147 H 1125.73 -0.436224 -0.606397 0
M  V30 12148 H 1128.39 -1.63326 -1.06351 0
M  V30 12149 H 1127.49 -1.74575 -2.58708 0
M  V30 12150 N 1127.79 1.09952 -1.12909 0
M  V30 12151 C 1128.72 2.16257 -0.759305 0
M  V30 12152 C 1129.74 1.61355 0.216427 0
M  V30 12153 O 1130.92 1.785 -0.00297224 0
M  V30 12154 C 1128.02 3.38741 -0.103908 0
M  V30 12155 C 1127.2 4.23072 -1.11037 0
M  V30 12156 C 1126.26 5.23991 -0.481667 0
M  V30 12157 O 1125.28 5.57665 -1.14011 0
M  V30 12158 N 1126.48 5.75652 0.748698 0
M  V30 12159 H 1129.25 2.48588 -1.67405 0
M  V30 12160 H 1126.81 1.25617 -1.02137 0
M  V30 12161 H 1128.8 4.03362 0.328799 0
M  V30 12162 H 1127.37 3.04344 0.713677 0
M  V30 12163 H 1126.59 3.5467 -1.72054 0
M  V30 12164 H 1127.88 4.76244 -1.79078 0
M  V30 12165 H 1127.28 5.505 1.30253 0
M  V30 12166 H 1125.84 6.42033 1.12415 0
M  V30 12167 N 1129.27 0.921757 1.27833 0
M  V30 12168 C 1130.23 0.420978 2.25301 0
M  V30 12169 C 1131.23 -0.457158 1.54165 0
M  V30 12170 O 1132.42 -0.259079 1.72263 0
M  V30 12171 C 1129.55 -0.395501 3.38598 0
M  V30 12172 H 1130.75 1.28206 2.71115 0
M  V30 12173 H 1128.3 0.701893 1.39654 0
M  V30 12174 H 1129.03 -1.27565 2.98157 0
M  V30 12175 H 1128.82 0.234029 3.91401 0
M  V30 12176 H 1130.31 -0.736444 4.11055 0
M  V30 12177 N 1130.75 -1.41857 0.686609 0
M  V30 12178 C 1131.97 -2.06219 0.221037 0
M  V30 12179 C 1132.4 -1.51298 -1.11762 0
M  V30 12180 O 1131.75 -0.636253 -1.69769 0
M  V30 12181 C 1131.8 -3.60153 0.179425 0
M  V30 12182 O 1130.91 -4.03577 -0.848481 0
M  V30 12183 H 1130.25 -0.654787 0.110228 0
M  V30 12184 H 1132.78 -1.81783 0.938948 0
M  V30 12185 H 1132.79 -4.07999 0.00725332 0
M  V30 12186 H 1131.46 -3.99498 1.15647 0
M  V30 12187 H 1130.04 -3.67255 -0.646393 0
M  V30 12188 N 1132.22 -0.430739 -1.51599 0
M  V30 12189 C 1133.15 0.374695 -2.30474 0
M  V30 12190 C 1134.14 1.02694 -1.35602 0
M  V30 12191 O 1135.32 1.03184 -1.6452 0
M  V30 12192 C 1132.45 1.47981 -3.14196 0
M  V30 12193 C 1131.4 0.951415 -4.17291 0
M  V30 12194 C 1130.73 2.15177 -4.89492 0
M  V30 12195 C 1132.03 -0.00957951 -5.22299 0
M  V30 12196 H 1133.72 -0.283508 -2.98055 0
M  V30 12197 H 1131.27 -0.13779 -1.43339 0
M  V30 12198 H 1133.22 2.05043 -3.68151 0
M  V30 12199 H 1131.95 2.16621 -2.44424 0
M  V30 12200 H 1130.61 0.403052 -3.64378 0
M  V30 12201 H 1130.25 2.82421 -4.1623 0
M  V30 12202 H 1129.95 1.80464 -5.59202 0
M  V30 12203 H 1131.48 2.72806 -5.46269 0
M  V30 12204 H 1132.89 0.470527 -5.71366 0
M  V30 12205 H 1131.29 -0.268959 -5.99497 0
M  V30 12206 H 1132.36 -0.948297 -4.75537 0
M  V30 12207 N 1133.7 1.56767 -0.161869 0
M  V30 12208 C 1134.63 2.20511 0.767918 0
M  V30 12209 C 1135.61 1.15783 1.24612 0
M  V30 12210 O 1136.8 1.44179 1.301 0
M  V30 12211 C 1133.93 2.83844 2.00125 0
M  V30 12212 C 1132.88 3.94528 1.65926 0
M  V30 12213 C 1132.21 4.44866 2.96646 0
M  V30 12214 C 1133.51 5.14583 0.894497 0
M  V30 12215 H 1135.2 2.98464 0.236607 0
M  V30 12216 H 1132.75 1.43561 0.112363 0
M  V30 12217 H 1134.7 3.27109 2.65664 0
M  V30 12218 H 1133.43 2.03246 2.55654 0
M  V30 12219 H 1132.08 3.51904 1.02759 0
M  V30 12220 H 1131.73 3.61071 3.50196 0
M  V30 12221 H 1131.43 5.19531 2.74521 0
M  V30 12222 H 1132.96 4.90812 3.6323 0
M  V30 12223 H 1134.37 5.54601 1.45228 0
M  V30 12224 H 1132.77 5.95105 0.772636 0
M  V30 12225 H 1133.84 4.84773 -0.110986 0
M  V30 12226 N 1135.18 -0.111886 1.57202 0
M  V30 12227 C 1136.46 -0.849125 1.76208 0
M  V30 12228 C 1136.84 -1.97735 0.73919 0
M  V30 12229 O 1136.19 -2.27283 -0.235523 0
M  V30 12230 C 1136.4 -1.35924 3.21443 0
M  V30 12231 C 1137.74 -1.80874 3.84148 0
M  V30 12232 O 1138.77 -1.45587 3.25089 0
M  V30 12233 O 1137.63 -2.46065 4.87969 0
M  V30 12234 H 1134.72 -0.403761 0.721738 0
M  V30 12235 H 1137.27 -0.0950726 1.69433 0
M  V30 12236 H 1136.04 -0.550113 3.87414 0
M  V30 12237 H 1135.66 -2.17579 3.32784 0
M  V30 12238 N 1136.66 -1.52894 -0.382264 0
M  V30 12239 C 1137.59 -1.74413 -1.48703 0
M  V30 12240 C 1138.6 -0.624663 -1.50339 0
M  V30 12241 O 1139.79 -0.900527 -1.54119 0
M  V30 12242 C 1136.89 -1.79387 -2.8753 0
M  V30 12243 C 1136.07 -3.08794 -3.09783 0
M  V30 12244 C 1135.12 -3.05226 -4.2863 0
M  V30 12245 O 1134.15 -3.79073 -4.24609 0
M  V30 12246 N 1135.35 -2.2488 -5.35172 0
M  V30 12247 H 1138.12 -2.69734 -1.30628 0
M  V30 12248 H 1135.68 -1.51465 -0.571842 0
M  V30 12249 H 1137.67 -1.74498 -3.65147 0
M  V30 12250 H 1136.24 -0.914233 -2.98932 0
M  V30 12251 H 1135.46 -3.27118 -2.19971 0
M  V30 12252 H 1136.75 -3.94347 -3.21509 0
M  V30 12253 H 1136.15 -1.64363 -5.41296 0
M  V30 12254 H 1134.7 -2.25825 -6.1143 0
M  V30 12255 N 1138.14 0.641106 -1.43971 0
M  V30 12256 C 1139.37 1.42829 -1.49692 0
M  V30 12257 C 1139.78 1.88427 -0.118594 0
M  V30 12258 O 1139.14 1.60234 0.873581 0
M  V30 12259 C 1139.19 2.65524 -2.45314 0
M  V30 12260 O 1138.91 2.2183 -3.77787 0
M  V30 12261 C 1140.41 3.58758 -2.60399 0
M  V30 12262 H 1137.63 0.438367 -0.508011 0
M  V30 12263 H 1140.17 0.784933 -1.88836 0
M  V30 12264 H 1138.33 3.25973 -2.09332 0
M  V30 12265 H 1138.74 3.01303 -4.29321 0
M  V30 12266 H 1140.22 4.41483 -3.31357 0
M  V30 12267 H 1140.69 4.06909 -1.65294 0
M  V30 12268 H 1141.3 3.04184 -2.97241 0
M  V30 12269 N 1139.62 1.30703 0.880598 0
M  V30 12270 C 1140.89 1.1043 1.61445 0
M  V30 12271 C 1141.27 -0.344837 2.08264 0
M  V30 12272 O 1140.62 -1.33711 1.85293 0
M  V30 12273 C 1140.83 2.10908 2.78063 0
M  V30 12274 C 1142.18 2.42861 3.48287 0
M  V30 12275 O 1143.2 2.09252 2.88257 0
M  V30 12276 O 1142.06 3.00369 4.56553 0
M  V30 12277 H 1139.16 0.424419 0.709787 0
M  V30 12278 H 1141.7 1.42144 0.926991 0
M  V30 12279 H 1140.47 3.08431 2.40803 0
M  V30 12280 H 1140.1 1.80036 3.54503 0
M  V30 12281 N 1141.09 -1.09351 1.1349 0
M  V30 12282 C 1142.32 -1.85844 0.92069 0
M  V30 12283 C 1142.74 -1.80616 -0.525303 0
M  V30 12284 O 1142.1 -1.1842 -1.37282 0
M  V30 12285 C 1142.15 -3.31716 1.4141 0
M  V30 12286 O 1141.25 -4.08014 0.599838 0
M  V30 12287 H 1140.59 -0.576242 0.32991 0
M  V30 12288 H 1143.12 -1.38084 1.50976 0
M  V30 12289 H 1143.13 -3.82564 1.41805 0
M  V30 12290 H 1141.81 -3.34837 2.46692 0
M  V30 12291 H 1140.39 -3.66944 0.663816 0
M  V30 12292 N 1142.57 -0.928524 -1.27343 0
M  V30 12293 C 1143.82 -0.579726 -1.94963 0
M  V30 12294 C 1144.17 0.869595 -1.71627 0
M  V30 12295 O 1143.47 1.61223 -1.03526 0
M  V30 12296 C 1143.66 -0.84269 -3.47323 0
M  V30 12297 C 1143.49 -2.31602 -3.85474 0
M  V30 12298 C 1142.26 -2.96888 -4.08884 0
M  V30 12299 C 1144.46 -3.2936 -3.95002 0
M  V30 12300 N 1142.44 -4.34365 -4.33821 0
M  V30 12301 C 1143.81 -4.5205 -4.24324 0
M  V30 12302 C 1145.86 -3.24557 -3.7758 0
M  V30 12303 C 1144.57 -5.70539 -4.38038 0
M  V30 12304 C 1146.59 -4.4236 -3.9252 0
M  V30 12305 C 1145.96 -5.63828 -4.22229 0
M  V30 12306 H 1142.05 -0.262279 -0.736705 0
M  V30 12307 H 1144.64 -1.19531 -1.53689 0
M  V30 12308 H 1142.81 -0.256254 -3.87554 0
M  V30 12309 H 1144.54 -0.456438 -4.02118 0
M  V30 12310 H 1141.3 -2.47555 -4.03749 0
M  V30 12311 H 1141.72 -5.05488 -4.50345 0
M  V30 12312 H 1146.36 -2.31713 -3.53651 0
M  V30 12313 H 1144.08 -6.63849 -4.60793 0
M  V30 12314 H 1147.67 -4.40162 -3.80458 0
M  V30 12315 H 1146.55 -6.53463 -4.33539 0
M  V30 12316 N 1144.05 1.41491 -0.694123 0
M  V30 12317 C 1145 2.32594 -0.0164704 0
M  V30 12318 C 1145.99 1.50884 0.770086 0
M  V30 12319 O 1147.2 1.66829 0.675871 0
M  V30 12320 H 1143.57 0.751879 0.0134743 0
M  V30 12321 H 1145.54 2.87423 -0.80191 0
M  V30 12322 C 1144.29 3.35661 0.90703 0
M  V30 12323 H 1143.62 3.98587 0.311205 0
M  V30 12324 H 1145.06 4.0195 1.34952 0
M  V30 12325 C 1143.51 2.69436 2.02253 0
M  V30 12326 O 1144.04 2.54107 3.11115 0
M  V30 12327 N 1142.25 2.28154 1.79984 0
M  V30 12328 H 1141.8 2.40821 0.914492 0
M  V30 12329 H 1141.76 1.84178 2.54805 0
M  V30 12330 N 1145.53 0.438773 1.51369 0
M  V30 12331 C 1146.48 -0.389921 2.24641 0
M  V30 12332 C 1147.46 -0.988871 1.26926 0
M  V30 12333 O 1148.65 -0.906774 1.52009 0
M  V30 12334 C 1145.78 -1.48972 3.09293 0
M  V30 12335 C 1144.87 -0.900093 4.14438 0
M  V30 12336 N 1145.26 -0.0397688 5.05784 0
M  V30 12337 C 1143.56 -1.16752 4.30447 0
M  V30 12338 C 1144.26 0.291527 5.80969 0
M  V30 12339 N 1143.23 -0.325219 5.42626 0
M  V30 12340 H 1147.04 0.273335 2.92626 0
M  V30 12341 H 1144.55 0.250934 1.6045 0
M  V30 12342 H 1146.55 -2.09627 3.60364 0
M  V30 12343 H 1145.21 -2.1553 2.42852 0
M  V30 12344 H 1146.22 0.326771 5.16868 0
M  V30 12345 H 1142.9 -1.83049 3.75232 0
M  V30 12346 H 1144.29 0.991699 6.64541 0
M  V30 12347 N 1147.01 -1.56678 0.170181 0
M  V30 12348 C 1148.42 -1.58512 -0.185999 0
M  V30 12349 C 1148.62 -1.18548 -1.62937 0
M  V30 12350 O 1147.68 -0.896554 -2.36047 0
M  V30 12351 C 1148.99 -3.00554 0.0937842 0
M  V30 12352 C 1150.54 -3.12984 0.0319057 0
M  V30 12353 C 1151.01 -4.57115 0.284664 0
M  V30 12354 N 1152.5 -4.62617 0.2324 0
M  V30 12355 C 1153.24 -5.71988 0.40216 0
M  V30 12356 N 1152.74 -6.89921 0.630915 0
M  V30 12357 N 1154.53 -5.61082 0.338144 0
M  V30 12358 H 1146.68 -1.80944 1.11235 0
M  V30 12359 H 1148.94 -0.838586 0.442128 0
M  V30 12360 H 1148.65 -3.34265 1.09362 0
M  V30 12361 H 1148.52 -3.72151 -0.615118 0
M  V30 12362 H 1150.91 -2.791 -0.958502 0
M  V30 12363 H 1150.99 -2.43825 0.773501 0
M  V30 12364 H 1150.63 -4.91707 1.27227 0
M  V30 12365 H 1150.56 -5.2443 -0.477529 0
M  V30 12366 H 1153.06 -3.7785 0.0611933 0
M  V30 12367 H 1153.37 -7.69153 0.749931 0
M  V30 12368 H 1151.71 -6.91787 0.667516 0
M  V30 12369 H 1154.9 -4.67826 0.16003 0
M  V30 12370 H 1155.08 -6.46265 0.473872 0
M  V30 12371 N 1148.48 0.103547 -1.57259 0
M  V30 12372 C 1149.89 0.659006 -1.74683 0
M  V30 12373 C 1150.25 1.79542 -0.791142 0
M  V30 12374 O 1149.37 2.16376 0.0323585 0
M  V30 12375 C 1149.97 1.20222 -3.16752 0
M  V30 12376 C 1148.52 1.70382 -3.35629 0
M  V30 12377 C 1147.67 0.609886 -2.7051 0
M  V30 12378 H 1150.62 -0.122474 -1.58227 0
M  V30 12379 H 1150.64 2.07169 -3.19157 0
M  V30 12380 H 1150.16 0.374901 -3.86285 0
M  V30 12381 H 1148.26 2.55542 -2.71162 0
M  V30 12382 H 1148.37 1.80263 -4.43894 0
M  V30 12383 H 1146.73 1.04728 -2.32173 0
M  V30 12384 H 1147.52 -0.206713 -3.42677 0
M  V30 12385 N 1149.96 1.53094 0.37415 0
M  V30 12386 C 1150.89 1.75199 1.47776 0
M  V30 12387 C 1151.91 0.632627 1.50006 0
M  V30 12388 O 1153.1 0.908688 1.5364 0
M  V30 12389 C 1150.2 1.80909 2.86575 0
M  V30 12390 C 1149.37 3.10432 3.08141 0
M  V30 12391 C 1148.43 3.07495 4.27005 0
M  V30 12392 O 1147.45 3.81319 4.22592 0
M  V30 12393 N 1148.66 2.27715 5.33972 0
M  V30 12394 H 1151.42 2.70423 1.29196 0
M  V30 12395 H 1148.98 1.51766 0.563802 0
M  V30 12396 H 1150.97 1.76432 3.64217 0
M  V30 12397 H 1149.54 0.930074 2.98443 0
M  V30 12398 H 1148.76 3.2828 2.18233 0
M  V30 12399 H 1150.05 3.96047 3.19413 0
M  V30 12400 H 1149.45 1.67231 5.40417 0
M  V30 12401 H 1148.01 2.29065 6.10223 0
M  V30 12402 N 1151.44 -0.633461 1.44309 0
M  V30 12403 C 1152.35 -1.77428 1.53481 0
M  V30 12404 C 1153.37 -1.68839 0.420628 0
M  V30 12405 O 1154.54 -1.89658 0.677638 0
M  V30 12406 C 1151.61 -3.13801 1.47409 0
M  V30 12407 C 1150.67 -3.34039 2.6966 0
M  V30 12408 C 1149.9 -4.63907 2.63868 0
M  V30 12409 O 1150.12 -5.44559 1.69741 0
M  V30 12410 O 1149.06 -4.86295 3.54684 0
M  V30 12411 H 1152.88 -1.72642 2.49857 0
M  V30 12412 H 1150.47 -0.794399 1.26529 0
M  V30 12413 H 1152.35 -3.95101 1.46537 0
M  V30 12414 H 1151.03 -3.19134 0.541769 0
M  V30 12415 H 1149.93 -2.52427 2.761 0
M  V30 12416 H 1151.27 -3.33566 3.61931 0
M  V30 12417 N 1152.92 -1.31168 -0.873655 0
M  V30 12418 C 1154.17 -1.20003 -1.62118 0
M  V30 12419 C 1154.48 0.241505 -1.94103 0
M  V30 12420 O 1155.69 0.474801 -2.67316 0
M  V30 12421 C 1154.14 -2.10055 -2.92241 0
M  V30 12422 C 1153.75 -3.59183 -2.67752 0
M  V30 12423 C 1155.49 -2.07681 -3.70228 0
M  V30 12424 C 1153.4 -4.41255 -3.93761 0
M  V30 12425 H 1152.33 -0.445564 -0.608267 0
M  V30 12426 H 1154.98 -1.55997 -0.966287 0
M  V30 12427 H 1153.36 -1.66956 -3.59085 0
M  V30 12428 H 1154.54 -4.10504 -2.09339 0
M  V30 12429 H 1152.85 -3.63496 -2.03125 0
M  V30 12430 H 1155.45 -2.66246 -4.637 0
M  V30 12431 H 1155.79 -1.06304 -4.02499 0
M  V30 12432 H 1156.33 -2.48961 -3.10263 0
M  V30 12433 H 1153.07 -5.43372 -3.66643 0
M  V30 12434 H 1152.59 -3.94694 -4.51638 0
M  V30 12435 H 1154.26 -4.53278 -4.6168 0
M  V30 12436 N 1154.4 1.08748 -1.14068 0
M  V30 12437 C 1155.36 2.1375 -0.827266 0
M  V30 12438 C 1156.36 1.59936 0.166496 0
M  V30 12439 O 1157.55 1.74092 -0.0614305 0
M  V30 12440 C 1154.68 3.40106 -0.232557 0
M  V30 12441 H 1155.87 2.42985 -1.7578 0
M  V30 12442 H 1153.43 1.24402 -0.946244 0
M  V30 12443 H 1154.16 3.16503 0.706859 0
M  V30 12444 H 1153.95 3.8046 -0.948293 0
M  V30 12445 H 1155.44 4.17589 -0.0303662 0
M  V30 12446 N 1155.87 0.935264 1.26849 0
M  V30 12447 C 1156.81 0.384563 2.24936 0
M  V30 12448 C 1157.79 -0.523311 1.53949 0
M  V30 12449 O 1158.97 -0.462103 1.82748 0
M  V30 12450 C 1156.1 -0.448043 3.35723 0
M  V30 12451 C 1155.14 0.397466 4.24644 0
M  V30 12452 S 1155.98 1.81773 5.03705 0
M  V30 12453 C 1157.13 0.99302 6.17972 0
M  V30 12454 H 1157.36 1.21588 2.713 0
M  V30 12455 H 1154.9 0.737966 1.35622 0
M  V30 12456 H 1156.86 -0.922541 3.99999 0
M  V30 12457 H 1155.52 -1.25397 2.87983 0
M  V30 12458 H 1154.71 -0.240176 5.03427 0
M  V30 12459 H 1154.31 0.806423 3.65202 0
M  V30 12460 H 1156.6 0.232526 6.77101 0
M  V30 12461 H 1157.55 1.75412 6.86029 0
M  V30 12462 H 1157.95 0.531692 5.6199 0
M  V30 12463 N 1157.35 -1.41121 0.701616 0
M  V30 12464 C 1158.6 -2.01928 0.244271 0
M  V30 12465 C 1158.95 -1.54597 -1.14532 0
M  V30 12466 O 1158.25 -0.749972 -1.76312 0
M  V30 12467 C 1158.44 -3.5654 0.247781 0
M  V30 12468 C 1158.27 -4.18879 1.63618 0
M  V30 12469 C 1157.04 -4.52913 2.24048 0
M  V30 12470 C 1159.24 -4.44679 2.5839 0
M  V30 12471 N 1157.22 -5.00571 3.55389 0
M  V30 12472 C 1158.59 -4.94178 3.74418 0
M  V30 12473 C 1160.65 -4.26698 2.56579 0
M  V30 12474 C 1159.35 -5.27584 4.88924 0
M  V30 12475 C 1161.37 -4.61198 3.70203 0
M  V30 12476 C 1160.74 -5.10873 4.84962 0
M  V30 12477 H 1156.84 -0.770275 0.134908 0
M  V30 12478 H 1159.42 -1.71571 0.920402 0
M  V30 12479 H 1157.59 -3.86357 -0.39786 0
M  V30 12480 H 1159.32 -4.04074 -0.224961 0
M  V30 12481 H 1156.08 -4.39572 1.76277 0
M  V30 12482 H 1156.5 -5.28799 4.2273 0
M  V30 12483 H 1161.14 -3.87525 1.69069 0
M  V30 12484 H 1158.86 -5.65678 5.77091 0
M  V30 12485 H 1162.45 -4.48939 3.70061 0
M  V30 12486 H 1161.33 -5.37067 5.71426 0
M  V30 12487 N 1158.83 -0.446794 -1.51134 0
M  V30 12488 C 1159.76 0.395804 -2.25757 0
M  V30 12489 C 1160.78 0.978178 -1.30137 0
M  V30 12490 O 1161.96 0.87071 -1.55823 0
M  V30 12491 C 1159.06 1.56665 -3.00515 0
M  V30 12492 C 1158.24 1.10146 -4.23305 0
M  V30 12493 C 1157.3 2.14352 -4.80562 0
M  V30 12494 O 1156.32 1.73401 -5.42145 0
M  V30 12495 N 1157.52 3.46932 -4.65423 0
M  V30 12496 H 1160.29 -0.243808 -2.98707 0
M  V30 12497 H 1157.85 -0.276205 -1.59527 0
M  V30 12498 H 1159.84 2.26019 -3.35704 0
M  V30 12499 H 1158.41 2.11142 -2.30516 0
M  V30 12500 H 1157.63 0.234644 -3.93501 0
M  V30 12501 H 1158.92 0.768185 -5.02968 0
M  V30 12502 H 1158.32 3.82929 -4.16391 0
M  V30 12503 H 1156.88 4.12154 -5.04948 0
M  V30 12504 N 1160.31 1.56586 -0.178487 0
M  V30 12505 C 1161.72 1.83633 0.337009 0
M  V30 12506 C 1162.07 1.09857 1.6256 0
M  V30 12507 O 1161.2 0.353933 2.13486 0
M  V30 12508 C 1161.79 3.33112 0.618225 0
M  V30 12509 C 1160.35 3.60629 1.07814 0
M  V30 12510 C 1159.5 2.7705 0.117825 0
M  V30 12511 H 1162.45 1.53508 -0.402612 0
M  V30 12512 H 1162.47 3.5098 1.46947 0
M  V30 12513 H 1161.98 3.8678 -0.319808 0
M  V30 12514 H 1160.08 3.12378 2.03103 0
M  V30 12515 H 1160.19 4.68921 0.982339 0
M  V30 12516 H 1158.56 2.47125 0.616563 0
M  V30 12517 H 1159.34 3.33501 -0.814356 0
M  V30 12518 N 1161.79 -0.095206 1.57312 0
M  V30 12519 C 1162.73 -1.13438 2.03063 0
M  V30 12520 C 1163.73 -1.41478 0.931679 0
M  V30 12521 O 1164.93 -1.41161 1.11686 0
M  V30 12522 H 1161.31 -0.383042 0.647134 0
M  V30 12523 H 1163.28 -0.722186 2.89529 0
M  V30 12524 C 1162.03 -2.44641 2.47075 0
M  V30 12525 H 1161.35 -2.23908 3.31218 0
M  V30 12526 H 1162.79 -3.15855 2.82863 0
M  V30 12527 C 1161.25 -3.08931 1.34399 0
M  V30 12528 O 1161.78 -3.96021 0.673071 0
M  V30 12529 N 1159.99 -2.6918 1.09501 0
M  V30 12530 H 1159.53 -1.98451 1.6424 0
M  V30 12531 H 1159.49 -3.12522 0.34311 0
M  V30 12532 N 1163.26 -1.53291 -0.366026 0
M  V30 12533 C 1164.51 -1.69702 -1.11036 0
M  V30 12534 C 1164.84 -0.44728 -1.88979 0
M  V30 12535 O 1164.12 0.55542 -1.86401 0
M  V30 12536 C 1164.4 -2.94661 -2.06995 0
M  V30 12537 C 1164.25 -4.29791 -1.32663 0
M  V30 12538 C 1165.57 -3.15219 -3.07123 0
M  V30 12539 H 1162.69 -0.617525 -0.402284 0
M  V30 12540 H 1165.33 -1.85929 -0.391223 0
M  V30 12541 H 1163.48 -2.80958 -2.68318 0
M  V30 12542 H 1165.16 -4.55305 -0.741266 0
M  V30 12543 H 1163.4 -4.29223 -0.628484 0
M  V30 12544 H 1164.07 -5.13359 -2.02896 0
M  V30 12545 H 1166.55 -3.28105 -2.55903 0
M  V30 12546 H 1165.42 -4.04088 -3.71489 0
M  V30 12547 H 1165.68 -2.30479 -3.77269 0
M  V30 12548 N 1164.74 0.6258 -1.44643 0
M  V30 12549 C 1165.65 1.76611 -1.5442 0
M  V30 12550 C 1166.67 1.68614 -0.429576 0
M  V30 12551 O 1167.84 1.89296 -0.687686 0
M  V30 12552 C 1164.91 3.13015 -1.49071 0
M  V30 12553 C 1163.97 3.32604 -2.71428 0
M  V30 12554 C 1163.2 4.62501 -2.66325 0
M  V30 12555 O 1163.43 5.43651 -1.72626 0
M  V30 12556 O 1162.36 4.84408 -3.57258 0
M  V30 12557 H 1166.19 1.71315 -2.50769 0
M  V30 12558 H 1163.77 0.787677 -1.26949 0
M  V30 12559 H 1165.65 3.94318 -1.48631 0
M  V30 12560 H 1164.33 3.18842 -0.558686 0
M  V30 12561 H 1163.24 2.50959 -2.77435 0
M  V30 12562 H 1164.57 3.31642 -3.63695 0
M  V30 12563 N 1166.22 1.31629 0.866686 0
M  V30 12564 C 1167.5 1.12136 1.60265 0
M  V30 12565 C 1167.88 -0.322729 2.08618 0
M  V30 12566 O 1167.23 -1.31738 1.86701 0
M  V30 12567 C 1167.44 2.13845 2.7581 0
M  V30 12568 C 1168.78 2.46541 3.45692 0
M  V30 12569 O 1169.81 2.12298 2.86021 0
M  V30 12570 O 1168.67 3.05194 4.53342 0
M  V30 12571 H 1165.76 0.431923 0.705246 0
M  V30 12572 H 1168.31 1.43119 0.911863 0
M  V30 12573 H 1167.08 3.10967 2.37518 0
M  V30 12574 H 1166.7 1.83786 3.52574 0
M  V30 12575 N 1167.7 -1.08142 1.14644 0
M  V30 12576 C 1168.92 -1.84857 0.940349 0
M  V30 12577 C 1169.35 -1.81163 -0.506117 0
M  V30 12578 O 1168.71 -1.19869 -1.36019 0
M  V30 12579 C 1168.76 -3.30198 1.4492 0
M  V30 12580 O 1167.86 -4.07355 0.64308 0
M  V30 12581 H 1167.2 -0.572711 0.336003 0
M  V30 12582 H 1169.73 -1.36475 1.52432 0
M  V30 12583 H 1169.74 -3.81039 1.45854 0
M  V30 12584 H 1168.42 -3.32202 2.50229 0
M  V30 12585 H 1166.99 -3.66219 0.702698 0
M  V30 12586 N 1169.18 -0.941978 -1.26351 0
M  V30 12587 C 1170.41 -0.606748 -1.97803 0
M  V30 12588 C 1170.82 0.818441 -1.70138 0
M  V30 12589 O 1170.18 1.54583 -0.970076 0
M  V30 12590 C 1170.23 -0.840431 -3.51595 0
M  V30 12591 O 1169.95 -2.20957 -3.78299 0
M  V30 12592 C 1171.45 -0.515855 -4.40288 0
M  V30 12593 H 1168.67 -0.228591 -0.630862 0
M  V30 12594 H 1171.21 -1.2629 -1.60845 0
M  V30 12595 H 1169.37 -0.230875 -3.86711 0
M  V30 12596 H 1169.78 -2.2702 -4.72824 0
M  V30 12597 H 1171.26 -0.72998 -5.47152 0
M  V30 12598 H 1171.73 0.549178 -4.35753 0
M  V30 12599 H 1172.34 -1.10417 -4.10717 0
M  V30 12600 N 1170.66 1.40747 -0.709091 0
M  V30 12601 C 1171.9 2.013 -0.246174 0
M  V30 12602 C 1172.23 1.56078 1.15556 0
M  V30 12603 O 1171.51 0.777941 1.78265 0
M  V30 12604 C 1171.79 3.58685 -0.318945 0
M  V30 12605 C 1171.65 4.13997 -1.75859 0
M  V30 12606 C 1172.96 4.38981 0.31358 0
M  V30 12607 H 1170.08 0.73137 -0.0909255 0
M  V30 12608 H 1172.73 1.67312 -0.900365 0
M  V30 12609 H 1170.88 3.8777 0.23805 0
M  V30 12610 H 1172.55 3.95735 -2.37047 0
M  V30 12611 H 1170.79 3.6853 -2.28841 0
M  V30 12612 H 1171.46 5.23158 -1.76095 0
M  V30 12613 H 1173.94 4.15789 -0.160939 0
M  V30 12614 H 1172.81 5.48409 0.232184 0
M  V30 12615 H 1173.07 4.19474 1.39621 0
M  V30 12616 N 1172.13 0.454803 1.50895 0
M  V30 12617 C 1173.06 -0.337982 2.31041 0
M  V30 12618 C 1174.04 -1.00523 1.37219 0
M  V30 12619 O 1175.23 -1.00553 1.66141 0
M  V30 12620 C 1172.36 -1.42964 3.1651 0
M  V30 12621 C 1171.31 -0.884907 4.18752 0
M  V30 12622 C 1170.64 -2.07363 4.92854 0
M  V30 12623 C 1171.94 0.0926716 5.22218 0
M  V30 12624 H 1173.63 0.33089 2.97566 0
M  V30 12625 H 1171.18 0.160577 1.43102 0
M  V30 12626 H 1173.13 -1.9916 3.71367 0
M  V30 12627 H 1171.86 -2.12705 2.47839 0
M  V30 12628 H 1170.52 -0.345031 3.64973 0
M  V30 12629 H 1170.16 -2.75764 4.2067 0
M  V30 12630 H 1169.86 -1.71545 5.62002 0
M  V30 12631 H 1171.39 -2.6408 5.5054 0
M  V30 12632 H 1172.8 -0.379568 5.72042 0
M  V30 12633 H 1171.2 0.3643 5.98993 0
M  V30 12634 H 1172.27 1.02383 4.73968 0
M  V30 12635 N 1173.61 -1.56489 0.186789 0
M  V30 12636 C 1174.89 -1.89066 -0.501337 0
M  V30 12637 C 1175.27 -1.09906 -1.80233 0
M  V30 12638 O 1174.62 -0.197626 -2.27644 0
M  V30 12639 C 1174.83 -3.41318 -0.728207 0
M  V30 12640 C 1176.17 -4.11379 -1.0513 0
M  V30 12641 O 1177.2 -3.46722 -0.816216 0
M  V30 12642 O 1176.06 -5.25638 -1.49557 0
M  V30 12643 H 1173.15 -0.784966 -0.260303 0
M  V30 12644 H 1175.7 -1.68183 0.226382 0
M  V30 12645 H 1174.47 -3.90834 0.19088 0
M  V30 12646 H 1174.09 -3.67865 -1.50869 0
M  V30 12647 N 1175.09 0.086862 -1.5736 0
M  V30 12648 C 1176.02 1.10538 -2.05678 0
M  V30 12649 C 1177 1.41281 -0.947293 0
M  V30 12650 O 1178.19 1.51169 -1.21908 0
M  V30 12651 C 1175.32 2.42302 -2.48812 0
M  V30 12652 C 1174.27 2.25948 -3.63499 0
M  V30 12653 C 1173.6 3.62961 -3.92637 0
M  V30 12654 C 1174.9 1.69319 -4.94094 0
M  V30 12655 H 1176.59 0.703371 -2.91021 0
M  V30 12656 H 1174.14 0.336895 -1.40004 0
M  V30 12657 H 1176.09 3.13833 -2.81224 0
M  V30 12658 H 1174.81 2.84454 -1.60479 0
M  V30 12659 H 1173.47 1.5686 -3.31347 0
M  V30 12660 H 1173.12 4.02656 -3.01459 0
M  V30 12661 H 1172.82 3.52862 -4.69853 0
M  V30 12662 H 1174.34 4.35946 -4.27531 0
M  V30 12663 H 1175.76 2.30699 -5.24834 0
M  V30 12664 H 1174.15 1.69957 -5.7553 0
M  V30 12665 H 1175.22 0.653318 -4.80479 0
M  V30 12666 N 1176.57 1.53483 0.357892 0
M  V30 12667 C 1177.98 1.43426 0.700073 0
M  V30 12668 C 1178.18 0.579493 1.92987 0
M  V30 12669 O 1177.24 0.0649086 2.52417 0
M  V30 12670 C 1178.55 2.86723 0.906099 0
M  V30 12671 C 1180.1 2.96405 1.00563 0
M  V30 12672 C 1180.58 4.4078 1.24407 0
M  V30 12673 N 1182.07 4.44243 1.3116 0
M  V30 12674 C 1182.8 5.53069 1.51333 0
M  V30 12675 N 1182.3 6.71928 1.68774 0
M  V30 12676 N 1184.09 5.40659 1.53765 0
M  V30 12677 H 1176.24 2.07559 -0.450894 0
M  V30 12678 H 1178.5 0.937649 -0.139711 0
M  V30 12679 H 1178.21 3.51622 0.0741579 0
M  V30 12680 H 1178.08 3.30827 1.81199 0
M  V30 12681 H 1180.47 2.31656 1.8281 0
M  V30 12682 H 1180.55 2.55684 0.0769512 0
M  V30 12683 H 1180.2 5.06105 0.426575 0
M  V30 12684 H 1180.13 4.7908 2.18608 0
M  V30 12685 H 1182.62 3.58587 1.19265 0
M  V30 12686 H 1182.93 7.50634 1.83762 0
M  V30 12687 H 1181.28 6.749 1.65937 0
M  V30 12688 H 1184.47 4.46764 1.39713 0
M  V30 12689 H 1184.64 6.25535 1.69146 0
M  V30 12690 N 1178.05 -0.61812 1.44973 0
M  V30 12691 C 1179.29 -1.37468 1.48145 0
M  V30 12692 C 1179.61 -1.94628 0.120366 0
M  V30 12693 O 1178.88 -1.76548 -0.848982 0
M  V30 12694 H 1177.46 -0.510293 0.545536 0
M  V30 12695 H 1180.13 -0.726598 1.8085 0
M  V30 12696 H 1179.22 -2.19944 2.2143 0
M  V30 12697 N 1179.52 -1.32087 -0.859693 0
M  V30 12698 C 1180.77 -1.21716 -1.60836 0
M  V30 12699 C 1181.09 0.220904 -1.94349 0
M  V30 12700 O 1182.29 0.446422 -2.67805 0
M  V30 12701 C 1180.75 -2.13143 -2.89997 0
M  V30 12702 C 1180.36 -3.62003 -2.63928 0
M  V30 12703 C 1182.1 -2.11596 -3.68004 0
M  V30 12704 C 1180.01 -4.45407 -3.89059 0
M  V30 12705 H 1178.94 -0.45199 -0.603507 0
M  V30 12706 H 1181.59 -1.57013 -0.949687 0
M  V30 12707 H 1179.97 -1.70755 -3.57294 0
M  V30 12708 H 1181.14 -4.12701 -2.04974 0
M  V30 12709 H 1179.46 -3.6563 -1.99258 0
M  V30 12710 H 1182.06 -2.71149 -4.6085 0
M  V30 12711 H 1182.4 -1.10568 -4.01348 0
M  V30 12712 H 1182.93 -2.52238 -3.07605 0
M  V30 12713 H 1179.67 -5.4723 -3.60859 0
M  V30 12714 H 1179.19 -3.99462 -4.47427 0
M  V30 12715 H 1180.87 -4.58149 -4.56846 0
M  V30 12716 N 1181 1.07532 -1.15215 0
M  V30 12717 C 1182.25 1.79737 -0.924062 0
M  V30 12718 C 1182.57 1.87072 0.550356 0
M  V30 12719 O 1181.84 1.37029 1.4 0
M  V30 12720 H 1180.42 0.665704 -0.338891 0
M  V30 12721 H 1183.08 1.29961 -1.45245 0
M  V30 12722 H 1182.18 2.82256 -1.33184 0
M  V30 12723 N 1182.48 0.948665 1.2585 0
M  V30 12724 C 1183.41 0.421458 2.25292 0
M  V30 12725 C 1184.43 -0.459389 1.56184 0
M  V30 12726 O 1185.61 -0.268627 1.76467 0
M  V30 12727 C 1182.71 -0.412653 3.36378 0
M  V30 12728 C 1181.89 0.453792 4.3504 0
M  V30 12729 C 1180.95 -0.321127 5.25219 0
M  V30 12730 O 1179.97 0.278424 5.68519 0
M  V30 12731 N 1181.17 -1.61576 5.5756 0
M  V30 12732 H 1183.94 1.27636 2.71162 0
M  V30 12733 H 1181.5 0.818367 1.39694 0
M  V30 12734 H 1183.49 -0.938637 3.93664 0
M  V30 12735 H 1182.06 -1.16839 2.89944 0
M  V30 12736 H 1181.28 1.16093 3.76718 0
M  V30 12737 H 1182.57 1.04538 4.97945 0
M  V30 12738 H 1181.97 -2.12488 5.24276 0
M  V30 12739 H 1180.53 -2.08783 6.17457 0
M  V30 12740 N 1183.96 -1.40369 0.716545 0
M  V30 12741 C 1185.2 -2.01167 0.256846 0
M  V30 12742 C 1185.54 -1.56689 -1.14727 0
M  V30 12743 O 1184.81 -0.787384 -1.7785 0
M  V30 12744 C 1185.1 -3.58511 0.337963 0
M  V30 12745 C 1184.95 -4.13059 1.78052 0
M  V30 12746 C 1186.27 -4.39142 -0.290295 0
M  V30 12747 H 1183.39 -0.730877 0.0948028 0
M  V30 12748 H 1186.03 -1.66833 0.909225 0
M  V30 12749 H 1184.18 -3.87891 -0.217482 0
M  V30 12750 H 1185.85 -3.94472 2.39143 0
M  V30 12751 H 1184.09 -3.67311 2.30793 0
M  V30 12752 H 1184.76 -5.22217 1.78867 0
M  V30 12753 H 1187.24 -4.15697 0.182987 0
M  V30 12754 H 1186.12 -5.48524 -0.203097 0
M  V30 12755 H 1186.38 -4.20209 -1.37394 0
M  V30 12756 N 1185.44 -0.462799 -1.50652 0
M  V30 12757 C 1186.37 0.325724 -2.31217 0
M  V30 12758 C 1187.35 0.997942 -1.3775 0
M  V30 12759 O 1188.53 0.996707 -1.66671 0
M  V30 12760 C 1185.66 1.41283 -3.17264 0
M  V30 12761 C 1184.62 0.862687 -4.19216 0
M  V30 12762 C 1183.94 2.04746 -4.93946 0
M  V30 12763 C 1185.24 -0.120365 -5.22161 0
M  V30 12764 H 1186.94 -0.346666 -2.97386 0
M  V30 12765 H 1184.48 -0.168163 -1.43015 0
M  V30 12766 H 1186.44 1.97188 -3.72418 0
M  V30 12767 H 1185.16 2.11387 -2.48964 0
M  V30 12768 H 1183.82 0.325671 -3.65151 0
M  V30 12769 H 1183.47 2.73529 -4.22127 0
M  V30 12770 H 1183.17 1.68562 -5.62904 0
M  V30 12771 H 1184.69 2.61157 -5.51932 0
M  V30 12772 H 1186.1 0.349226 -5.72235 0
M  V30 12773 H 1184.5 -0.396061 -5.98792 0
M  V30 12774 H 1185.57 -1.04895 -4.73418 0
M  V30 12775 N 1186.91 1.56388 -0.195085 0
M  V30 12776 C 1188.33 1.8398 0.317513 0
M  V30 12777 C 1188.68 1.11575 1.61386 0
M  V30 12778 O 1187.8 0.376557 2.13099 0
M  V30 12779 C 1188.4 3.33749 0.582859 0
M  V30 12780 C 1186.96 3.61752 1.03983 0
M  V30 12781 C 1186.1 2.77159 0.088434 0
M  V30 12782 H 1189.05 1.53072 -0.418871 0
M  V30 12783 H 1189.07 3.52519 1.43216 0
M  V30 12784 H 1188.59 3.86419 -0.360813 0
M  V30 12785 H 1186.69 3.14515 1.99778 0
M  V30 12786 H 1186.8 4.69937 0.932549 0
M  V30 12787 H 1185.16 2.47765 0.590317 0
M  V30 12788 H 1185.95 3.32619 -0.849682 0
M  V30 12789 N 1188.39 -0.0785156 1.57404 0
M  V30 12790 C 1189.62 -0.792042 1.9114 0
M  V30 12791 C 1190.04 -1.71458 0.790408 0
M  V30 12792 O 1189.39 -1.80959 -0.236662 0
M  V30 12793 C 1189.44 -1.59138 3.24588 0
M  V30 12794 O 1189.16 -0.705931 4.32375 0
M  V30 12795 C 1190.67 -2.4065 3.72293 0
M  V30 12796 H 1187.89 -0.225566 0.63195 0
M  V30 12797 H 1190.43 -0.0507929 2.04437 0
M  V30 12798 H 1188.58 -2.28498 3.12838 0
M  V30 12799 H 1189 -1.26121 5.09111 0
M  V30 12800 H 1190.47 -2.92204 4.68317 0
M  V30 12801 H 1190.95 -3.1987 3.00965 0
M  V30 12802 H 1191.56 -1.7646 3.86965 0
M  V30 12803 N 1189.87 -1.5367 -0.349747 0
M  V30 12804 C 1190.82 -1.77604 -1.42972 0
M  V30 12805 C 1191.8 -0.631036 -1.48009 0
M  V30 12806 O 1193 -0.890228 -1.52983 0
M  V30 12807 C 1190.13 -1.98354 -2.80198 0
M  V30 12808 C 1189.21 -3.18901 -2.79576 0
M  V30 12809 N 1189.6 -4.40497 -2.48589 0
M  V30 12810 C 1187.9 -3.19945 -3.10727 0
M  V30 12811 C 1188.6 -5.22318 -2.56045 0
M  V30 12812 N 1187.58 -4.5889 -2.91412 0
M  V30 12813 H 1191.38 -2.69215 -1.17901 0
M  V30 12814 H 1188.89 -1.5251 -0.558062 0
M  V30 12815 H 1190.89 -2.13632 -3.58004 0
M  V30 12816 H 1189.55 -1.07981 -3.06219 0
M  V30 12817 H 1190.56 -4.67955 -2.21898 0
M  V30 12818 H 1187.24 -2.39519 -3.41961 0
M  V30 12819 H 1188.63 -6.29352 -2.35299 0
M  V30 12820 N 1191.35 0.610423 -1.45298 0
M  V30 12821 C 1192.28 1.73207 -1.56594 0
M  V30 12822 C 1193.26 1.64893 -0.417651 0
M  V30 12823 O 1194.44 1.83336 -0.64043 0
M  V30 12824 C 1191.57 3.11803 -1.52959 0
M  V30 12825 C 1190.53 3.34925 -2.66475 0
M  V30 12826 C 1189.85 4.73764 -2.47894 0
M  V30 12827 C 1191.15 3.25456 -4.08504 0
M  V30 12828 H 1192.85 1.6401 -2.50482 0
M  V30 12829 H 1190.39 0.787621 -1.20551 0
M  V30 12830 H 1192.35 3.90065 -1.59458 0
M  V30 12831 H 1191.07 3.21833 -0.55599 0
M  V30 12832 H 1189.73 2.59051 -2.59399 0
M  V30 12833 H 1189.38 4.80524 -1.4868 0
M  V30 12834 H 1189.08 4.90191 -3.24016 0
M  V30 12835 H 1190.6 5.54231 -2.56243 0
M  V30 12836 H 1192.02 3.93597 -4.16839 0
M  V30 12837 H 1190.41 3.53414 -4.84994 0
M  V30 12838 H 1191.48 2.22939 -4.30612 0
M  V30 12839 N 1192.83 1.32541 0.852676 0
M  V30 12840 C 1193.76 1.15977 1.96531 0
M  V30 12841 C 1194.74 0.0587267 1.62494 0
M  V30 12842 O 1195.92 0.218404 1.8723 0
M  V30 12843 C 1193.05 0.77587 3.29694 0
M  V30 12844 C 1192.09 1.88244 3.82709 0
M  V30 12845 S 1192.93 3.49108 4.06059 0
M  V30 12846 C 1194.08 3.12693 5.42193 0
M  V30 12847 H 1194.32 2.10165 2.1028 0
M  V30 12848 H 1191.85 1.17225 1.00487 0
M  V30 12849 H 1193.81 0.561136 4.06647 0
M  V30 12850 H 1192.47 -0.14718 3.13755 0
M  V30 12851 H 1191.66 1.56687 4.79025 0
M  V30 12852 H 1191.26 2.05313 3.12606 0
M  V30 12853 H 1193.56 2.62661 6.24512 0
M  V30 12854 H 1194.5 4.08038 5.78714 0
M  V30 12855 H 1194.91 2.4966 5.06291 0
M  V30 12856 N 1194.3 -1.0692 1.15784 0
M  V30 12857 C 1195.21 -2.17762 0.872753 0
M  V30 12858 C 1196.23 -1.73329 -0.152608 0
M  V30 12859 O 1197.41 -2.01387 0.022519 0
M  V30 12860 C 1194.47 -3.4471 0.370887 0
M  V30 12861 C 1193.53 -4.03686 1.46069 0
M  V30 12862 C 1192.77 -5.24575 0.982675 0
M  V30 12863 O 1192.99 -5.70146 -0.17006 0
M  V30 12864 O 1191.92 -5.7534 1.76828 0
M  V30 12865 H 1195.75 -2.44648 1.79948 0
M  V30 12866 H 1193.33 -1.1634 0.937303 0
M  V30 12867 H 1195.22 -4.21287 0.0976779 0
M  V30 12868 H 1193.89 -3.19366 -0.527912 0
M  V30 12869 H 1192.8 -3.28629 1.78756 0
M  V30 12870 H 1194.13 -4.33312 2.33456 0
M  V30 12871 N 1195.78 -0.955326 -1.25345 0
M  V30 12872 C 1196.69 -0.482707 -2.2958 0
M  V30 12873 C 1197.71 0.450283 -1.68073 0
M  V30 12874 O 1198.88 0.326358 -1.98738 0
M  V30 12875 C 1195.95 0.231293 -3.45928 0
M  V30 12876 C 1195.01 -0.739995 -4.22874 0
M  V30 12877 C 1194.24 -0.0599748 -5.33666 0
M  V30 12878 O 1194.47 1.15423 -5.586 0
M  V30 12879 O 1193.4 -0.745865 -5.97261 0
M  V30 12880 H 1197.23 -1.34892 -2.72099 0
M  V30 12881 H 1194.81 -0.721812 -1.30806 0
M  V30 12882 H 1196.69 0.632908 -4.1662 0
M  V30 12883 H 1195.37 1.07267 -3.0541 0
M  V30 12884 H 1194.28 -1.19183 -3.54607 0
M  V30 12885 H 1195.61 -1.54941 -4.67177 0
M  V30 12886 N 1197.26 1.39987 -0.723979 0
M  V30 12887 C 1198.68 1.54547 -0.398403 0
M  V30 12888 C 1198.88 1.69348 1.09194 0
M  V30 12889 O 1197.93 1.68778 1.87804 0
M  V30 12890 C 1199.25 2.76929 -1.1718 0
M  V30 12891 C 1200.79 2.90754 -1.15893 0
M  V30 12892 C 1201.27 4.16059 -1.91465 0
M  V30 12893 N 1202.76 4.23076 -1.88576 0
M  V30 12894 C 1203.5 5.18957 -2.43867 0
M  V30 12895 N 1202.99 6.20695 -3.0775 0
M  V30 12896 N 1204.78 5.11095 -2.33962 0
M  V30 12897 H 1196.94 1.28626 -1.69024 0
M  V30 12898 H 1199.2 0.6226 -0.714894 0
M  V30 12899 H 1198.9 2.72298 -2.22591 0
M  V30 12900 H 1198.78 3.69279 -0.768941 0
M  V30 12901 H 1201.17 2.94884 -0.112978 0
M  V30 12902 H 1201.25 1.99498 -1.60107 0
M  V30 12903 H 1200.89 4.12691 -2.96055 0
M  V30 12904 H 1200.82 5.06339 -1.44665 0
M  V30 12905 H 1203.31 3.50195 -1.42027 0
M  V30 12906 H 1203.62 6.90296 -3.47435 0
M  V30 12907 H 1201.97 6.21114 -3.11837 0
M  V30 12908 H 1205.16 4.30546 -1.83706 0
M  V30 12909 H 1205.33 5.85644 -2.77353 0
M  V30 12910 N 1198.74 0.470782 1.50404 0
M  V30 12911 C 1199.67 -0.313458 2.31386 0
M  V30 12912 C 1200.65 -0.990623 1.38278 0
M  V30 12913 O 1201.84 -0.987854 1.67198 0
M  V30 12914 C 1198.97 -1.39599 3.18009 0
M  V30 12915 C 1197.92 -0.840443 4.19667 0
M  V30 12916 C 1197.25 -2.02124 4.95025 0
M  V30 12917 C 1198.55 0.148055 5.2209 0
M  V30 12918 H 1200.24 0.362432 2.97198 0
M  V30 12919 H 1197.79 0.175745 1.42924 0
M  V30 12920 H 1199.74 -1.9521 3.73458 0
M  V30 12921 H 1198.46 -2.10064 2.50081 0
M  V30 12922 H 1197.12 -0.306302 3.65318 0
M  V30 12923 H 1196.77 -2.71286 4.23571 0
M  V30 12924 H 1196.47 -1.65574 5.6379 0
M  V30 12925 H 1197.99 -2.58226 5.5331 0
M  V30 12926 H 1199.41 -0.318874 5.72413 0
M  V30 12927 H 1197.8 0.427811 5.98573 0
M  V30 12928 H 1198.87 1.07404 4.72855 0
M  V30 12929 N 1200.22 -1.56282 0.203376 0
M  V30 12930 C 1201.47 -1.96987 -0.433461 0
M  V30 12931 C 1201.78 -1.09344 -1.62183 0
M  V30 12932 O 1202.99 -1.39868 -2.327 0
M  V30 12933 C 1201.44 -3.50374 -0.82257 0
M  V30 12934 C 1201.05 -4.46693 0.341969 0
M  V30 12935 C 1202.79 -3.99831 -1.42603 0
M  V30 12936 C 1200.7 -5.9136 -0.0685608 0
M  V30 12937 H 1199.63 -0.735564 -0.165717 0
M  V30 12938 H 1202.28 -1.81085 0.296708 0
M  V30 12939 H 1200.66 -3.6181 -1.60964 0
M  V30 12940 H 1201.84 -4.46994 1.11952 0
M  V30 12941 H 1200.15 -4.07476 0.857463 0
M  V30 12942 H 1202.75 -5.05398 -1.74577 0
M  V30 12943 H 1203.09 -3.4462 -2.33544 0
M  V30 12944 H 1203.63 -3.91543 -0.702758 0
M  V30 12945 H 1200.36 -6.50515 0.80688 0
M  V30 12946 H 1199.88 -5.94295 -0.810798 0
M  V30 12947 H 1201.56 -6.45053 -0.501525 0
M  V30 12948 N 1201.7 0.070167 -1.57444 0
M  V30 12949 C 1203.11 0.424991 -1.53838 0
M  V30 12950 C 1203.31 1.79076 -0.923793 0
M  V30 12951 O 1202.37 2.46939 -0.527002 0
M  V30 12952 C 1203.68 0.364562 -2.98482 0
M  V30 12953 C 1205.23 0.444631 -3.09826 0
M  V30 12954 C 1205.7 0.414093 -4.56124 0
M  V30 12955 N 1207.19 0.474119 -4.60767 0
M  V30 12956 C 1207.93 0.472729 -5.71448 0
M  V30 12957 N 1207.43 0.426059 -6.91489 0
M  V30 12958 N 1209.22 0.519408 -5.59695 0
M  V30 12959 H 1201.37 -0.824117 -1.9576 0
M  V30 12960 H 1203.63 -0.309401 -0.896089 0
M  V30 12961 H 1203.34 -0.572343 -3.47012 0
M  V30 12962 H 1203.21 1.17414 -3.5846 0
M  V30 12963 H 1205.6 1.37196 -2.61269 0
M  V30 12964 H 1205.68 -0.393547 -2.52755 0
M  V30 12965 H 1205.32 -0.509394 -5.05339 0
M  V30 12966 H 1205.25 1.26983 -5.11061 0
M  V30 12967 H 1207.75 0.514371 -3.74383 0
M  V30 12968 H 1208.06 0.428969 -7.71609 0
M  V30 12969 H 1206.4 0.392722 -6.9389 0
M  V30 12970 H 1209.59 0.553573 -4.64815 0
M  V30 12971 H 1209.77 0.514856 -6.45951 0
M  V30 12972 N 1203.17 1.53854 0.341593 0
M  V30 12973 C 1204.11 1.78295 1.44027 0
M  V30 12974 C 1205.12 0.664303 1.4863 0
M  V30 12975 O 1206.31 0.941073 1.51678 0
M  V30 12976 C 1203.41 1.86947 2.82673 0
M  V30 12977 C 1202.58 3.16898 3.01487 0
M  V30 12978 C 1201.64 3.16483 4.20386 0
M  V30 12979 O 1200.67 3.90197 4.14409 0
M  V30 12980 N 1201.87 2.3899 5.29022 0
M  V30 12981 H 1204.63 2.73102 1.23431 0
M  V30 12982 H 1202.19 1.52928 0.531483 0
M  V30 12983 H 1204.19 1.84118 3.60392 0
M  V30 12984 H 1202.76 0.993169 2.96403 0
M  V30 12985 H 1201.98 3.32835 2.11221 0
M  V30 12986 H 1203.26 4.02733 3.1094 0
M  V30 12987 H 1202.66 1.78657 5.36748 0
M  V30 12988 H 1201.22 2.41957 6.05227 0
M  V30 12989 N 1204.65 -0.602709 1.4562 0
M  V30 12990 C 1205.58 -1.7271 1.50678 0
M  V30 12991 C 1206.6 -1.57884 0.397048 0
M  V30 12992 O 1207.79 -1.65676 0.664367 0
M  V30 12993 C 1204.89 -3.10762 1.35204 0
M  V30 12994 C 1204.06 -3.51782 2.59939 0
M  V30 12995 C 1203.12 -4.68816 2.38952 0
M  V30 12996 O 1202.14 -4.75686 3.12588 0
M  V30 12997 N 1203.35 -5.624 1.43827 0
M  V30 12998 H 1206.11 -1.68833 2.47619 0
M  V30 12999 H 1203.67 -0.788131 1.41422 0
M  V30 13000 H 1205.66 -3.86819 1.18967 0
M  V30 13001 H 1204.23 -3.09119 0.465203 0
M  V30 13002 H 1203.45 -2.65637 2.91257 0
M  V30 13003 H 1204.74 -3.75948 3.42842 0
M  V30 13004 H 1204.14 -5.59568 0.830669 0
M  V30 13005 H 1202.7 -6.37969 1.33561 0
M  V30 13006 N 1206.13 -1.32992 -0.845635 0
M  V30 13007 C 1207.06 -1.18513 -1.96182 0
M  V30 13008 C 1208.07 -0.11781 -1.62373 0
M  V30 13009 O 1209.26 -0.36761 -1.74674 0
M  V30 13010 C 1206.36 -0.793812 -3.29472 0
M  V30 13011 C 1205.54 -1.95134 -3.91461 0
M  V30 13012 C 1204.6 -1.54209 -5.03096 0
M  V30 13013 O 1203.62 -2.25545 -5.22607 0
M  V30 13014 N 1204.82 -0.443235 -5.78805 0
M  V30 13015 H 1207.59 -2.14663 -2.09141 0
M  V30 13016 H 1205.15 -1.25648 -1.02099 0
M  V30 13017 H 1207.14 -0.502263 -4.01571 0
M  V30 13018 H 1205.71 0.0768031 -3.12506 0
M  V30 13019 H 1204.93 -2.40889 -3.12035 0
M  V30 13020 H 1206.22 -2.72604 -4.2961 0
M  V30 13021 H 1205.62 0.150298 -5.655 0
M  V30 13022 H 1204.17 -0.211331 -6.51457 0
M  V30 13023 N 1207.61 1.06304 -1.1635 0
M  V30 13024 C 1208.52 2.17296 -0.884289 0
M  V30 13025 C 1209.53 1.73408 0.143414 0
M  V30 13026 O 1210.71 2.01373 -0.0331987 0
M  V30 13027 C 1207.77 3.44509 -0.389163 0
M  V30 13028 C 1206.84 4.02906 -1.48208 0
M  V30 13029 C 1206.07 5.24047 -1.01048 0
M  V30 13030 O 1206.29 5.70229 0.139821 0
M  V30 13031 O 1205.23 5.74394 -1.79876 0
M  V30 13032 H 1209.05 2.4369 -1.81243 0
M  V30 13033 H 1206.64 1.15841 -0.943459 0
M  V30 13034 H 1208.52 4.21229 -0.120018 0
M  V30 13035 H 1207.19 3.19642 0.510968 0
M  V30 13036 H 1206.1 3.27677 -1.80496 0
M  V30 13037 H 1207.43 4.32068 -2.35751 0
M  V30 13038 N 1209.09 0.96196 1.24836 0
M  V30 13039 C 1210.02 0.432188 2.2407 0
M  V30 13040 C 1211 -0.490539 1.55024 0
M  V30 13041 O 1212.18 -0.423236 1.83687 0
M  V30 13042 C 1209.31 -0.37673 3.36598 0
M  V30 13043 C 1208.35 0.48745 4.23705 0
M  V30 13044 S 1209.19 1.92417 4.99736 0
M  V30 13045 C 1210.34 1.12388 6.15727 0
M  V30 13046 H 1210.58 1.27315 2.6866 0
M  V30 13047 H 1208.11 0.766568 1.34026 0
M  V30 13048 H 1210.07 -0.837488 4.01866 0
M  V30 13049 H 1208.73 -1.1926 2.90579 0
M  V30 13050 H 1207.92 -0.133338 5.03824 0
M  V30 13051 H 1207.52 0.883707 3.6341 0
M  V30 13052 H 1209.81 0.376097 6.76455 0
M  V30 13053 H 1210.76 1.89924 6.82154 0
M  V30 13054 H 1211.17 0.650779 5.60736 0
M  V30 13055 N 1210.56 -1.39601 0.731392 0
M  V30 13056 C 1211.47 -2.34425 0.090527 0
M  V30 13057 C 1212.49 -1.58131 -0.725992 0
M  V30 13058 O 1213.67 -1.90441 -0.655294 0
M  V30 13059 C 1210.73 -3.37138 -0.808624 0
M  V30 13060 C 1209.79 -4.29295 0.0197365 0
M  V30 13061 C 1209.02 -5.27102 -0.836593 0
M  V30 13062 O 1209.25 -5.31302 -2.07543 0
M  V30 13063 O 1208.18 -6.01307 -0.267172 0
M  V30 13064 H 1212.01 -2.9088 0.873084 0
M  V30 13065 H 1209.59 -1.41066 0.492024 0
M  V30 13066 H 1211.47 -4.00087 -1.32319 0
M  V30 13067 H 1210.15 -2.83074 -1.57006 0
M  V30 13068 H 1209.06 -3.69581 0.579744 0
M  V30 13069 H 1210.39 -4.86555 0.743308 0
M  V30 13070 N 1212.04 -0.478751 -1.50152 0
M  V30 13071 C 1212.95 0.316554 -2.32455 0
M  V30 13072 C 1213.97 0.98871 -1.4318 0
M  V30 13073 O 1215.14 0.974998 -1.76226 0
M  V30 13074 C 1212.21 1.3799 -3.18056 0
M  V30 13075 C 1211.27 0.723534 -4.23159 0
M  V30 13076 C 1210.5 1.73621 -5.0467 0
M  V30 13077 O 1210.73 2.96362 -4.87366 0
M  V30 13078 O 1209.66 1.30381 -5.87609 0
M  V30 13079 H 1213.49 -0.356491 -3.016 0
M  V30 13080 H 1211.07 -0.24046 -1.47452 0
M  V30 13081 H 1212.95 1.99565 -3.71149 0
M  V30 13082 H 1211.63 2.03627 -2.5163 0
M  V30 13083 H 1210.54 0.0686296 -3.74037 0
M  V30 13084 H 1211.87 0.109979 -4.92077 0
M  V30 13085 N 1213.52 1.56172 -0.211661 0
M  V30 13086 C 1214.8 1.8984 0.471195 0
M  V30 13087 C 1215.18 1.1276 1.78461 0
M  V30 13088 O 1214.53 0.233817 2.27301 0
M  V30 13089 C 1214.74 3.42434 0.673814 0
M  V30 13090 C 1216.08 4.13 0.985719 0
M  V30 13091 O 1217.11 3.47977 0.760953 0
M  V30 13092 O 1215.97 5.2795 1.41176 0
M  V30 13093 H 1213.06 0.789008 0.247782 0
M  V30 13094 H 1215.61 1.67802 -0.25311 0
M  V30 13095 H 1214.38 3.90481 -0.253034 0
M  V30 13096 H 1214 3.70218 1.44997 0
M  V30 13097 N 1215 -0.0618163 1.57479 0
M  V30 13098 C 1215.93 -1.09931 2.01116 0
M  V30 13099 C 1216.94 -1.34405 0.91865 0
M  V30 13100 O 1218.13 -1.32469 1.19642 0
M  V30 13101 C 1215.23 -2.44814 2.34349 0
M  V30 13102 C 1214.41 -2.40157 3.65573 0
M  V30 13103 C 1213.46 -3.57226 3.86363 0
M  V30 13104 O 1212.49 -3.38202 4.5783 0
M  V30 13105 N 1213.69 -4.77937 3.2948 0
M  V30 13106 H 1216.46 -0.727621 2.90733 0
M  V30 13107 H 1214.02 -0.250315 1.59953 0
M  V30 13108 H 1216.01 -3.21792 2.45422 0
M  V30 13109 H 1214.58 -2.73947 1.50571 0
M  V30 13110 H 1213.8 -1.48496 3.65161 0
M  V30 13111 H 1215.09 -2.34156 4.51717 0
M  V30 13112 H 1214.49 -4.96296 2.7149 0
M  V30 13113 H 1213.04 -5.52392 3.45986 0
M  V30 13114 N 1216.48 -1.54033 -0.333429 0
M  V30 13115 C 1217.89 -1.44522 -0.677166 0
M  V30 13116 C 1218.09 -0.610122 -1.92041 0
M  V30 13117 O 1217.15 -0.105058 -2.52281 0
M  V30 13118 C 1218.46 -2.88129 -0.860369 0
M  V30 13119 C 1220.01 -2.97968 -0.958342 0
M  V30 13120 C 1220.48 -4.42703 -1.17379 0
M  V30 13121 N 1221.98 -4.46273 -1.24075 0
M  V30 13122 C 1222.71 -5.55407 -1.42515 0
M  V30 13123 N 1222.21 -6.74528 -1.58062 0
M  V30 13124 N 1224 -5.43037 -1.45144 0
M  V30 13125 H 1216.15 -2.06815 0.483858 0
M  V30 13126 H 1218.41 -0.935307 0.15461 0
M  V30 13127 H 1218.12 -3.51695 -0.0182085 0
M  V30 13128 H 1217.99 -3.33668 -1.75913 0
M  V30 13129 H 1220.38 -2.34535 -1.79102 0
M  V30 13130 H 1220.46 -2.55774 -0.0362643 0
M  V30 13131 H 1220.11 -5.0672 -0.346004 0
M  V30 13132 H 1220.04 -4.82498 -2.10959 0
M  V30 13133 H 1222.53 -3.60439 -1.13545 0
M  V30 13134 H 1222.84 -7.53462 -1.71797 0
M  V30 13135 H 1221.18 -6.77454 -1.55179 0
M  V30 13136 H 1224.38 -4.4893 -1.32588 0
M  V30 13137 H 1224.55 -6.28146 -1.59173 0
M  V30 13138 N 1217.95 0.594978 -1.45938 0
M  V30 13139 C 1219.2 1.35356 -1.51823 0
M  V30 13140 C 1219.56 1.91711 -0.162721 0
M  V30 13141 O 1218.85 1.72831 0.827047 0
M  V30 13142 C 1219.04 2.51129 -2.54301 0
M  V30 13143 C 1218.87 2.06113 -3.99684 0
M  V30 13144 C 1217.64 1.91698 -4.67525 0
M  V30 13145 C 1219.84 1.62817 -4.87848 0
M  V30 13146 N 1217.82 1.40625 -5.97577 0
M  V30 13147 C 1219.19 1.23248 -6.07626 0
M  V30 13148 C 1221.25 1.50523 -4.74602 0
M  V30 13149 C 1219.95 0.726124 -7.15626 0
M  V30 13150 C 1221.98 1.0129 -5.82661 0
M  V30 13151 C 1221.34 0.626938 -7.01604 0
M  V30 13152 H 1217.44 0.488744 -0.610454 0
M  V30 13153 H 1220.02 0.678804 -1.82484 0
M  V30 13154 H 1218.19 3.16184 -2.25571 0
M  V30 13155 H 1219.92 3.18046 -2.50257 0
M  V30 13156 H 1216.68 2.1327 -4.22863 0
M  V30 13157 H 1217.1 1.17285 -6.66763 0
M  V30 13158 H 1221.75 1.78985 -3.83046 0
M  V30 13159 H 1219.46 0.429069 -8.0696 0
M  V30 13160 H 1223.05 0.921864 -5.7445 0
M  V30 13161 H 1221.93 0.251849 -7.83795 0
M  V30 13162 N 1219.43 1.33438 0.838571 0
M  V30 13163 C 1220.36 1.26344 1.96365 0
M  V30 13164 C 1221.34 0.143956 1.6949 0
M  V30 13165 O 1222.53 0.333779 1.9131 0
M  V30 13166 C 1219.66 1.0022 3.32526 0
M  V30 13167 C 1218.61 2.08466 3.73799 0
M  V30 13168 C 1217.94 1.67555 5.07769 0
M  V30 13169 C 1219.24 3.50144 3.87552 0
M  V30 13170 H 1220.93 2.20478 2.02558 0
M  V30 13171 H 1218.48 1.06139 0.973168 0
M  V30 13172 H 1220.43 0.939068 4.10803 0
M  V30 13173 H 1219.16 0.0252514 3.2659 0
M  V30 13174 H 1217.81 2.13822 2.97785 0
M  V30 13175 H 1217.46 0.685619 4.98305 0
M  V30 13176 H 1217.16 2.39993 5.36356 0
M  V30 13177 H 1218.69 1.62708 5.88522 0
M  V30 13178 H 1220.1 3.47287 4.56141 0
M  V30 13179 H 1218.5 4.21069 4.27575 0
M  V30 13180 H 1219.57 3.88628 2.89994 0
M  V30 13181 N 1220.91 -1.05686 1.16912 0
M  V30 13182 C 1221.82 -2.16824 0.8958 0
M  V30 13183 C 1222.84 -1.73482 -0.134215 0
M  V30 13184 O 1224.01 -2.01352 0.0438776 0
M  V30 13185 C 1221.08 -3.44298 0.407427 0
M  V30 13186 C 1220.14 -4.02114 1.50342 0
M  V30 13187 C 1219.37 -5.23503 1.03826 0
M  V30 13188 O 1219.59 -5.70295 -0.109579 0
M  V30 13189 O 1218.53 -5.73432 1.8292 0
M  V30 13190 H 1222.35 -2.42725 1.82533 0
M  V30 13191 H 1219.94 -1.15339 0.949589 0
M  V30 13192 H 1221.82 -4.21159 0.142356 0
M  V30 13193 H 1220.5 -3.19908 -0.494009 0
M  V30 13194 H 1219.4 -3.26715 1.82231 0
M  V30 13195 H 1220.74 -4.30811 2.38039 0
M  V30 13196 N 1222.39 -0.968567 -1.24324 0
M  V30 13197 C 1223.34 -0.498817 -2.25345 0
M  V30 13198 C 1224.31 0.456082 -1.59716 0
M  V30 13199 O 1225.49 0.366254 -1.87252 0
M  V30 13200 C 1222.63 0.204027 -3.44496 0
M  V30 13201 C 1221.74 -0.789741 -4.2472 0
M  V30 13202 C 1220.88 -0.0629156 -5.31163 0
M  V30 13203 C 1219.92 -1.04669 -6.03084 0
M  V30 13204 N 1219.05 -0.349812 -7.01228 0
M  V30 13205 H 1223.89 -1.36511 -2.64894 0
M  V30 13206 H 1221.43 -0.684288 -1.30215 0
M  V30 13207 H 1223.39 0.628223 -4.12443 0
M  V30 13208 H 1222.02 1.03426 -3.05782 0
M  V30 13209 H 1221.07 -1.33237 -3.56303 0
M  V30 13210 H 1222.38 -1.53988 -4.74436 0
M  V30 13211 H 1221.54 0.419233 -6.0525 0
M  V30 13212 H 1220.28 0.719915 -4.82357 0
M  V30 13213 H 1219.28 -1.53971 -5.278 0
M  V30 13214 H 1220.51 -1.82998 -6.53979 0
M  V30 13215 H 1218.45 0.414026 -6.54692 0
M  V30 13216 H 1218.37 -1.03881 -7.48829 0
M  V30 13217 H 1219.64 0.11034 -7.79422 0
M  V30 13218 N 1223.87 1.39211 -0.738786 0
M  V30 13219 C 1224.78 2.34374 -0.102958 0
M  V30 13220 C 1225.79 1.58514 0.717596 0
M  V30 13221 O 1226.97 1.90786 0.645186 0
M  V30 13222 C 1224.03 3.37562 0.790733 0
M  V30 13223 C 1223.09 4.29279 -0.0425028 0
M  V30 13224 C 1222.33 5.27539 0.808628 0
M  V30 13225 O 1222.55 5.32396 2.04722 0
M  V30 13226 O 1221.48 6.0144 0.235279 0
M  V30 13227 H 1225.31 2.90412 -0.888498 0
M  V30 13228 H 1222.9 1.40803 -0.499498 0
M  V30 13229 H 1224.78 4.00783 1.30196 0
M  V30 13230 H 1223.45 2.83903 1.55502 0
M  V30 13231 H 1222.36 3.69268 -0.599335 0
M  V30 13232 H 1223.69 4.86154 -0.7691 0
M  V30 13233 N 1225.34 0.486708 1.49896 0
M  V30 13234 C 1226.25 -0.304222 2.32619 0
M  V30 13235 C 1227.27 -0.981103 1.43702 0
M  V30 13236 O 1228.45 -0.965639 1.76741 0
M  V30 13237 C 1225.51 -1.36301 3.18783 0
M  V30 13238 C 1224.57 -0.701082 4.23537 0
M  V30 13239 C 1223.81 -1.70943 5.05583 0
M  V30 13240 O 1224.03 -2.93773 4.88931 0
M  V30 13241 O 1222.96 -1.27263 5.88292 0
M  V30 13242 H 1226.79 0.37248 3.01407 0
M  V30 13243 H 1224.37 0.248277 1.47323 0
M  V30 13244 H 1226.26 -1.97594 3.72202 0
M  V30 13245 H 1224.93 -2.0229 2.52706 0
M  V30 13246 H 1223.84 -0.0487926 3.74068 0
M  V30 13247 H 1225.17 -0.0838817 4.92129 0
M  V30 13248 N 1226.82 -1.56058 0.219941 0
M  V30 13249 C 1228.24 -1.59024 -0.135476 0
M  V30 13250 C 1228.44 -1.23672 -1.59083 0
M  V30 13251 O 1227.5 -0.971197 -2.33075 0
M  V30 13252 C 1228.81 -3.00103 0.189356 0
M  V30 13253 C 1230.36 -3.12724 0.131463 0
M  V30 13254 C 1230.83 -4.55977 0.429947 0
M  V30 13255 N 1232.32 -4.61643 0.37946 0
M  V30 13256 C 1233.06 -5.70419 0.58393 0
M  V30 13257 N 1232.55 -6.87565 0.850088 0
M  V30 13258 N 1234.35 -5.59722 0.516477 0
M  V30 13259 H 1226.5 -1.77313 1.16935 0
M  V30 13260 H 1228.76 -0.824096 0.468583 0
M  V30 13261 H 1228.47 -3.30616 1.19941 0
M  V30 13262 H 1228.34 -3.73919 -0.49641 0
M  V30 13263 H 1230.73 -2.82008 -0.869223 0
M  V30 13264 H 1230.81 -2.41241 0.85068 0
M  V30 13265 H 1230.45 -4.8741 1.42806 0
M  V30 13266 H 1230.38 -5.25684 -0.310444 0
M  V30 13267 H 1232.87 -3.77465 0.181373 0
M  V30 13268 H 1233.19 -7.66378 0.994251 0
M  V30 13269 H 1231.53 -6.89313 0.887265 0
M  V30 13270 H 1234.72 -4.6708 0.308784 0
M  V30 13271 H 1234.9 -6.4443 0.679236 0
M  V30 13272 N 1228.3 0.053464 -1.57509 0
M  V30 13273 C 1229.55 0.749102 -1.88135 0
M  V30 13274 C 1229.88 1.76642 -0.814111 0
M  V30 13275 O 1229.13 1.94796 0.187845 0
M  V30 13276 C 1229.43 1.47666 -3.25468 0
M  V30 13277 C 1229.1 0.597619 -4.46922 0
M  V30 13278 C 1227.76 0.355429 -4.79886 0
M  V30 13279 C 1230.11 -0.0107869 -5.21199 0
M  V30 13280 C 1227.44 -0.504347 -5.84528 0
M  V30 13281 C 1229.79 -0.858123 -6.26753 0
M  V30 13282 C 1228.45 -1.11001 -6.58206 0
M  V30 13283 H 1227.72 0.274116 -0.688434 0
M  V30 13284 H 1230.37 0.00944162 -1.91498 0
M  V30 13285 H 1228.68 2.28901 -3.1798 0
M  V30 13286 H 1230.37 2.02002 -3.46404 0
M  V30 13287 H 1226.96 0.796526 -4.21134 0
M  V30 13288 H 1231.15 0.163404 -4.96031 0
M  V30 13289 H 1226.4 -0.708057 -6.07286 0
M  V30 13290 H 1230.58 -1.3362 -6.83461 0
M  V30 13291 H 1228.2 -1.77798 -7.39116 0
M  V30 13292 N 1229.78 1.54207 0.325255 0
M  V30 13293 C 1230.71 1.86467 1.40543 0
M  V30 13294 C 1231.69 0.721324 1.54048 0
M  V30 13295 O 1232.88 0.974905 1.67956 0
M  V30 13296 C 1230.01 2.09052 2.77335 0
M  V30 13297 C 1228.96 3.24893 2.78619 0
M  V30 13298 C 1228.29 3.32846 4.1847 0
M  V30 13299 C 1229.59 4.62582 2.42518 0
M  V30 13300 H 1231.28 2.76932 1.13794 0
M  V30 13301 H 1228.83 1.33248 0.545971 0
M  V30 13302 H 1230.78 2.30204 3.52964 0
M  V30 13303 H 1229.5 1.15335 3.05558 0
M  V30 13304 H 1228.16 3.03625 2.05444 0
M  V30 13305 H 1227.81 2.3669 4.43832 0
M  V30 13306 H 1227.51 4.10701 4.20237 0
M  V30 13307 H 1229.03 3.56231 4.95915 0
M  V30 13308 H 1230.45 4.83627 3.07861 0
M  V30 13309 H 1228.84 5.42974 2.55538 0
M  V30 13310 H 1229.91 4.64946 1.3767 0
M  V30 13311 N 1231.26 -0.58723 1.46251 0
M  V30 13312 C 1232.2 -1.69662 1.56472 0
M  V30 13313 C 1233.17 -1.60978 0.409294 0
M  V30 13314 O 1234.36 -1.80257 0.625451 0
M  V30 13315 C 1231.5 -3.07996 1.55669 0
M  V30 13316 C 1230.61 -3.27337 2.81913 0
M  V30 13317 C 1229.75 -4.55894 2.72644 0
M  V30 13318 C 1228.79 -4.68562 3.93847 0
M  V30 13319 N 1227.92 -5.8844 3.82991 0
M  V30 13320 H 1232.76 -1.60262 2.51237 0
M  V30 13321 H 1230.3 -0.781148 1.24645 0
M  V30 13322 H 1232.26 -3.88058 1.53189 0
M  V30 13323 H 1230.89 -3.16303 0.6444 0
M  V30 13324 H 1229.94 -2.4091 2.94392 0
M  V30 13325 H 1231.25 -3.32567 3.71754 0
M  V30 13326 H 1230.41 -5.44178 2.68244 0
M  V30 13327 H 1229.15 -4.53094 1.80435 0
M  V30 13328 H 1228.15 -3.78696 3.98584 0
M  V30 13329 H 1229.38 -4.73144 4.87146 0
M  V30 13330 H 1227.32 -5.86647 2.93566 0
M  V30 13331 H 1227.24 -5.94919 4.66484 0
M  V30 13332 H 1228.51 -6.79168 3.82559 0
M  V30 13333 N 1232.74 -1.33881 -0.831482 0
M  V30 13334 C 1234.15 -1.23112 -1.40358 0
M  V30 13335 C 1234.5 0.146944 -1.95649 0
M  V30 13336 O 1233.62 1.04689 -1.89391 0
M  V30 13337 C 1234.22 -2.22899 -2.5515 0
M  V30 13338 C 1232.78 -2.15946 -3.08292 0
M  V30 13339 C 1231.92 -2.09975 -1.81124 0
M  V30 13340 H 1234.87 -1.45372 -0.63661 0
M  V30 13341 H 1234.9 -1.841 -3.32997 0
M  V30 13342 H 1234.41 -3.23186 -2.14878 0
M  V30 13343 H 1232.51 -1.18987 -3.53091 0
M  V30 13344 H 1232.62 -3.06822 -3.67964 0
M  V30 13345 H 1230.99 -1.55564 -2.01673 0
M  V30 13346 H 1231.77 -3.12082 -1.43037 0
M  V30 13347 N 1234.21 1.05064 -1.1747 0
M  V30 13348 C 1235.49 1.74999 -0.873776 0
M  V30 13349 C 1235.87 2.01615 0.625676 0
M  V30 13350 O 1235.22 1.65324 1.57734 0
M  V30 13351 C 1235.43 3.04231 -1.7101 0
M  V30 13352 C 1236.78 3.78157 -1.93087 0
M  V30 13353 O 1237.8 3.14104 -1.6798 0
M  V30 13354 O 1236.66 4.93255 -2.3529 0
M  V30 13355 H 1233.75 0.761042 -0.323641 0
M  V30 13356 H 1236.3 1.1122 -1.28172 0
M  V30 13357 H 1235.07 2.80621 -2.72704 0
M  V30 13358 H 1234.69 3.75746 -1.30002 0
M  V30 13359 N 1235.69 0.975146 1.23809 0
M  V30 13360 C 1236.94 0.642074 1.92367 0
M  V30 13361 C 1237.27 -0.82164 1.75962 0
M  V30 13362 O 1236.55 -1.59205 1.11732 0
M  V30 13363 C 1236.83 1.02677 3.45151 0
M  V30 13364 C 1236.68 2.54773 3.7069 0
M  V30 13365 C 1238 0.5668 4.36435 0
M  V30 13366 H 1235.12 0.234735 0.698619 0
M  V30 13367 H 1237.76 1.21549 1.46034 0
M  V30 13368 H 1235.91 0.538846 3.84745 0
M  V30 13369 H 1237.58 3.11099 3.4061 0
M  V30 13370 H 1235.83 2.97641 3.15583 0
M  V30 13371 H 1236.5 2.7674 4.77618 0
M  V30 13372 H 1238.97 0.985635 4.04258 0
M  V30 13373 H 1237.85 0.864458 5.4205 0
M  V30 13374 H 1238.11 -0.532989 4.38875 0
M  V30 13375 N 1237.17 -1.38817 0.746158 0
M  V30 13376 C 1238.59 -1.53894 0.42294 0
M  V30 13377 C 1238.79 -1.71064 -1.06486 0
M  V30 13378 O 1237.84 -1.71744 -1.85095 0
M  V30 13379 C 1239.15 -2.75029 1.2157 0
M  V30 13380 C 1240.7 -2.88873 1.20504 0
M  V30 13381 C 1241.18 -4.1296 1.9806 0
M  V30 13382 N 1242.67 -4.20022 1.95283 0
M  V30 13383 C 1243.4 -5.15011 2.52093 0
M  V30 13384 N 1242.9 -6.1572 3.17586 0
M  V30 13385 N 1244.69 -5.07308 2.42064 0
M  V30 13386 H 1236.84 -1.25921 1.71049 0
M  V30 13387 H 1239.11 -0.611148 0.724708 0
M  V30 13388 H 1238.81 -2.68722 2.26895 0
M  V30 13389 H 1238.69 -3.68009 0.827593 0
M  V30 13390 H 1241.07 -2.94667 0.159877 0
M  V30 13391 H 1241.15 -1.96925 1.63261 0
M  V30 13392 H 1240.8 -4.07929 3.02583 0
M  V30 13393 H 1240.73 -5.03974 1.52702 0
M  V30 13394 H 1243.22 -3.47892 1.4758 0
M  V30 13395 H 1243.53 -6.84682 3.58373 0
M  V30 13396 H 1241.88 -6.16075 3.21678 0
M  V30 13397 H 1245.07 -4.27569 1.90532 0
M  V30 13398 H 1245.24 -5.81158 2.86635 0
M  V30 13399 N 1238.65 -0.49465 -1.49636 0
M  V30 13400 C 1239.58 0.276606 -2.31856 0
M  V30 13401 C 1240.56 0.968499 -1.39836 0
M  V30 13402 O 1241.74 0.96113 -1.68748 0
M  V30 13403 C 1238.87 1.34522 -3.20189 0
M  V30 13404 C 1237.83 0.773571 -4.20951 0
M  V30 13405 C 1237.15 1.94223 -4.98178 0
M  V30 13406 C 1238.45 -0.231096 -5.21788 0
M  V30 13407 H 1240.15 -0.409668 -2.96584 0
M  V30 13408 H 1237.69 -0.198461 -1.42626 0
M  V30 13409 H 1239.65 1.89244 -3.76517 0
M  V30 13410 H 1238.37 2.06059 -2.53392 0
M  V30 13411 H 1237.03 0.248144 -3.65759 0
M  V30 13412 H 1236.68 2.64514 -4.27834 0
M  V30 13413 H 1236.38 1.56584 -5.66353 0
M  V30 13414 H 1237.9 2.49391 -5.57348 0
M  V30 13415 H 1239.32 0.227768 -5.72847 0
M  V30 13416 H 1237.71 -0.522984 -5.97817 0
M  V30 13417 H 1238.78 -1.14914 -4.71087 0
M  V30 13418 N 1240.13 1.55939 -0.228214 0
M  V30 13419 C 1241.35 2.0332 0.409364 0
M  V30 13420 C 1241.78 1.10683 1.52088 0
M  V30 13421 O 1241.13 0.0962484 1.81044 0
M  V30 13422 C 1241.18 3.48877 0.911981 0
M  V30 13423 O 1240.29 3.59378 2.02289 0
M  V30 13424 H 1239.63 0.657625 0.0917909 0
M  V30 13425 H 1242.16 2.01605 -0.348802 0
M  V30 13426 H 1242.17 3.89331 1.22007 0
M  V30 13427 H 1240.84 4.15783 0.0984902 0
M  V30 13428 H 1239.42 3.30815 1.72093 0
M  V30 13429 N 1241.6 -0.0451101 1.57535 0
M  V30 13430 C 1243.02 -0.400463 1.54494 0
M  V30 13431 C 1243.22 -1.77584 0.952166 0
M  V30 13432 O 1242.28 -2.46069 0.566221 0
M  V30 13433 C 1243.59 -0.31703 2.99024 0
M  V30 13434 C 1245.14 -0.395284 3.10494 0
M  V30 13435 C 1245.61 -0.341475 4.56725 0
M  V30 13436 N 1247.1 -0.400755 4.61463 0
M  V30 13437 C 1247.84 -0.381757 5.72128 0
M  V30 13438 N 1247.33 -0.315995 6.92079 0
M  V30 13439 N 1249.13 -0.4303 5.60451 0
M  V30 13440 H 1241.28 0.855156 1.94424 0
M  V30 13441 H 1243.54 0.323618 0.891053 0
M  V30 13442 H 1243.25 0.627477 3.46057 0
M  V30 13443 H 1243.12 -1.11696 3.60283 0
M  V30 13444 H 1245.51 -1.33022 2.63418 0
M  V30 13445 H 1245.59 0.433709 2.52096 0
M  V30 13446 H 1245.23 0.589725 5.04465 0
M  V30 13447 H 1245.16 -1.18836 5.13016 0
M  V30 13448 H 1247.65 -0.454745 3.75154 0
M  V30 13449 H 1247.97 -0.306158 7.72193 0
M  V30 13450 H 1246.31 -0.282281 6.94427 0
M  V30 13451 H 1249.5 -0.479555 4.65637 0
M  V30 13452 H 1249.68 -0.412025 6.46689 0
M  V30 13453 N 1243.08 -1.54377 -0.317073 0
M  V30 13454 C 1244.33 -1.72551 -1.05216 0
M  V30 13455 C 1244.65 -0.5055 -1.88334 0
M  V30 13456 O 1243.92 0.480439 -1.89917 0
M  V30 13457 H 1242.5 -0.636222 -0.391447 0
M  V30 13458 H 1245.16 -1.91696 -0.35194 0
M  V30 13459 H 1244.26 -2.60791 -1.71448 0
M  V30 13460 N 1244.56 0.579466 -1.4656 0
M  V30 13461 C 1245.79 1.36837 -1.55854 0
M  V30 13462 C 1246.21 1.87019 -0.20141 0
M  V30 13463 O 1245.57 1.61746 0.81901 0
M  V30 13464 C 1245.62 2.52965 -2.56985 0
M  V30 13465 O 1244.72 3.54505 -2.10713 0
M  V30 13466 H 1244.06 0.407379 -0.524345 0
M  V30 13467 H 1246.59 0.702558 -1.9216 0
M  V30 13468 H 1246.6 2.99838 -2.76697 0
M  V30 13469 H 1245.28 2.15793 -3.55536 0
M  V30 13470 H 1243.85 3.14089 -2.01003 0
M  V30 13471 N 1246.04 1.3432 0.824371 0
M  V30 13472 C 1247.29 1.25938 1.57552 0
M  V30 13473 C 1247.6 -0.169298 1.94866 0
M  V30 13474 O 1248.81 -0.375262 2.68894 0
M  V30 13475 C 1247.26 2.20757 2.84244 0
M  V30 13476 C 1246.87 3.68873 2.54237 0
M  V30 13477 C 1248.61 2.21279 3.62265 0
M  V30 13478 C 1246.52 4.55566 3.77113 0
M  V30 13479 H 1245.45 0.467832 0.591311 0
M  V30 13480 H 1248.1 1.59476 0.907724 0
M  V30 13481 H 1246.48 1.80168 3.52641 0
M  V30 13482 H 1247.66 4.17991 1.93959 0
M  V30 13483 H 1245.97 3.70784 1.89494 0
M  V30 13484 H 1248.57 2.83272 4.53499 0
M  V30 13485 H 1248.91 1.2117 3.98276 0
M  V30 13486 H 1249.45 2.60305 3.00809 0
M  V30 13487 H 1246.19 5.56605 3.46223 0
M  V30 13488 H 1245.71 4.11184 4.36678 0
M  V30 13489 H 1247.38 4.701 4.44539 0
M  V30 13490 N 1247.52 -1.0444 1.18026 0
M  V30 13491 C 1248.79 -1.74533 0.883045 0
M  V30 13492 C 1249.17 -2.01944 -0.614975 0
M  V30 13493 O 1248.52 -1.66158 -1.56855 0
M  V30 13494 C 1248.73 -3.0332 1.72621 0
M  V30 13495 C 1250.08 -3.77128 1.9509 0
M  V30 13496 O 1251.1 -3.13209 1.69643 0
M  V30 13497 O 1249.96 -4.92001 2.37903 0
M  V30 13498 H 1247.06 -0.759315 0.327673 0
M  V30 13499 H 1249.6 -1.10539 1.2876 0
M  V30 13500 H 1248.37 -2.79171 2.74188 0
M  V30 13501 H 1248 -3.75052 1.31993 0
M  V30 13502 N 1248.99 -0.981699 -1.2329 0
M  V30 13503 C 1250.41 -0.690539 -1.43888 0
M  V30 13504 C 1250.61 0.742816 -1.87309 0
M  V30 13505 O 1249.67 1.5151 -2.01993 0
M  V30 13506 C 1250.98 -1.68657 -2.48948 0
M  V30 13507 C 1252.53 -1.70076 -2.62761 0
M  V30 13508 C 1253 -2.68513 -3.71032 0
M  V30 13509 N 1254.49 -2.67039 -3.78476 0
M  V30 13510 C 1255.23 -3.39874 -4.61815 0
M  V30 13511 N 1254.72 -4.22273 -5.49233 0
M  V30 13512 N 1256.52 -3.28633 -4.56023 0
M  V30 13513 H 1248.67 -1.90758 -0.934077 0
M  V30 13514 H 1250.93 -0.822058 -0.472149 0
M  V30 13515 H 1250.64 -2.7117 -2.23964 0
M  V30 13516 H 1250.51 -1.47045 -3.47358 0
M  V30 13517 H 1252.9 -0.682673 -2.87095 0
M  V30 13518 H 1252.98 -1.95754 -1.64663 0
M  V30 13519 H 1252.62 -3.70464 -3.47446 0
M  V30 13520 H 1252.55 -2.40109 -4.68674 0
M  V30 13521 H 1255.04 -2.07241 -3.16006 0
M  V30 13522 H 1255.36 -4.74702 -6.09818 0
M  V30 13523 H 1253.7 -4.26364 -5.48852 0
M  V30 13524 H 1256.89 -2.6371 -3.86749 0
M  V30 13525 H 1257.07 -3.85656 -5.20743 0
M  V30 13526 N 1250.47 1.3842 -0.753509 0
M  V30 13527 C 1251.38 2.34252 -0.127811 0
M  V30 13528 C 1252.4 1.59266 0.700743 0
M  V30 13529 O 1253.57 1.9146 0.624914 0
M  V30 13530 C 1250.64 3.38382 0.754886 0
M  V30 13531 C 1249.7 4.2921 -0.0880312 0
M  V30 13532 C 1248.93 5.28367 0.75263 0
M  V30 13533 O 1249.16 5.34537 1.99064 0
M  V30 13534 O 1248.09 6.01656 0.171475 0
M  V30 13535 H 1251.92 2.89454 -0.91925 0
M  V30 13536 H 1249.5 1.40265 -0.514404 0
M  V30 13537 H 1251.38 4.02141 1.25938 0
M  V30 13538 H 1250.06 2.85536 1.52482 0
M  V30 13539 H 1248.97 3.68611 -0.638468 0
M  V30 13540 H 1250.3 4.85311 -0.82062 0
M  V30 13541 N 1251.95 0.502579 1.49372 0
M  V30 13542 C 1253.23 -0.104472 1.95321 0
M  V30 13543 C 1253.61 -1.53975 1.44412 0
M  V30 13544 O 1252.96 -2.18804 0.658566 0
M  V30 13545 C 1253.17 -0.0154833 3.48997 0
M  V30 13546 C 1254.51 -0.188615 4.24181 0
M  V30 13547 O 1255.54 -0.090595 3.56085 0
M  V30 13548 O 1254.4 -0.390068 5.45106 0
M  V30 13549 H 1251.49 -0.0944325 0.821591 0
M  V30 13550 H 1254.04 0.565229 1.6001 0
M  V30 13551 H 1252.81 0.985383 3.7869 0
M  V30 13552 H 1252.43 -0.72526 3.90929 0
M  V30 13553 N 1253.43 -1.55816 0.23648 0
M  V30 13554 C 1254.68 -1.98294 -0.390373 0
M  V30 13555 C 1255 -1.12573 -1.59224 0
M  V30 13556 O 1254.27 -0.206128 -1.94813 0
M  V30 13557 H 1252.85 -0.732349 -0.14722 0
M  V30 13558 H 1255.51 -1.92037 0.332848 0
M  V30 13559 H 1254.61 -3.03996 -0.706595 0
M  V30 13560 N 1254.91 0.036755 -1.57557 0
M  V30 13561 C 1256.13 0.744813 -1.93565 0
M  V30 13562 C 1256.56 1.68508 -0.835863 0
M  V30 13563 O 1255.91 1.80091 0.208986 0
M  V30 13564 C 1255.96 1.48461 -3.28621 0
M  V30 13565 O 1255.07 2.59739 -3.20327 0
M  V30 13566 H 1254.41 0.200866 -0.632889 0
M  V30 13567 H 1256.94 -0.00547543 -2.04599 0
M  V30 13568 H 1256.95 1.85622 -3.63329 0
M  V30 13569 H 1255.62 0.794953 -4.08232 0
M  V30 13570 H 1254.2 2.25176 -2.97237 0
M  V30 13571 N 1256.39 1.54543 0.308881 0
M  V30 13572 C 1257.32 1.87947 1.38557 0
M  V30 13573 C 1258.3 0.737622 1.53275 0
M  V30 13574 O 1259.48 0.992664 1.66913 0
M  V30 13575 C 1256.61 2.11982 2.75102 0
M  V30 13576 C 1255.57 3.2783 2.75158 0
M  V30 13577 C 1254.89 3.37266 4.14917 0
M  V30 13578 C 1256.19 4.65129 2.37598 0
M  V30 13579 H 1257.89 2.78123 1.1085 0
M  V30 13580 H 1255.43 1.3382 0.531808 0
M  V30 13581 H 1257.38 2.33935 3.50503 0
M  V30 13582 H 1256.11 1.18569 3.04317 0
M  V30 13583 H 1254.77 3.05787 2.02212 0
M  V30 13584 H 1254.42 2.41384 4.41296 0
M  V30 13585 H 1254.12 4.15135 4.15857 0
M  V30 13586 H 1255.64 3.61471 4.92109 0
M  V30 13587 H 1257.05 4.86865 3.02714 0
M  V30 13588 H 1255.45 5.45653 2.49765 0
M  V30 13589 H 1256.52 4.6638 1.32731 0
M  V30 13590 N 1257.86 -0.571685 1.46866 0
M  V30 13591 C 1258.8 -1.69475 1.54307 0
M  V30 13592 C 1259.81 -1.57006 0.430449 0
M  V30 13593 O 1261 -1.64229 0.69936 0
M  V30 13594 C 1258.1 -3.07824 1.41766 0
M  V30 13595 C 1257.27 -3.46189 2.67342 0
M  V30 13596 C 1256.33 -4.63642 2.48843 0
M  V30 13597 O 1255.36 -4.68949 3.22608 0
M  V30 13598 N 1256.56 -5.59223 1.55724 0
M  V30 13599 H 1259.32 -1.63543 2.51145 0
M  V30 13600 H 1256.88 -0.757957 1.43062 0
M  V30 13601 H 1258.88 -3.84208 1.27146 0
M  V30 13602 H 1257.45 -3.08063 0.530667 0
M  V30 13603 H 1256.67 -2.59399 2.96826 0
M  V30 13604 H 1257.95 -3.68591 3.50739 0
M  V30 13605 H 1257.35 -5.5768 0.949175 0
M  V30 13606 H 1255.91 -6.34993 1.47063 0
M  V30 13607 N 1259.34 -1.34755 -0.817236 0
M  V30 13608 C 1260.59 -1.2718 -1.57066 0
M  V30 13609 C 1260.91 0.156531 -1.94371 0
M  V30 13610 O 1260.18 1.09049 -1.62742 0
M  V30 13611 H 1258.76 -0.467755 -0.582421 0
M  V30 13612 H 1261.42 -1.68734 -0.975438 0
M  V30 13613 H 1260.52 -1.88043 -2.49091 0
M  V30 13614 N 1260.82 1.03812 -1.18578 0
M  V30 13615 C 1262.23 1.58509 -0.986496 0
M  V30 13616 C 1262.58 1.90655 0.463136 0
M  V30 13617 O 1261.71 1.69847 1.34093 0
M  V30 13618 C 1262.3 2.88 -1.78441 0
M  V30 13619 C 1260.86 3.39304 -1.6294 0
M  V30 13620 C 1260.01 2.12857 -1.77727 0
M  V30 13621 H 1262.96 0.864528 -1.33085 0
M  V30 13622 H 1262.98 3.58502 -1.27501 0
M  V30 13623 H 1262.49 2.64572 -2.83942 0
M  V30 13624 H 1260.59 3.6774 -0.599864 0
M  V30 13625 H 1260.71 4.12959 -2.42902 0
M  V30 13626 H 1259.07 2.24285 -1.20699 0
M  V30 13627 H 1259.85 1.91882 -2.84669 0
M  V30 13628 N 1262.3 0.988223 1.22768 0
M  V30 13629 C 1263.55 0.656941 1.90702 0
M  V30 13630 C 1263.86 -0.814058 1.77855 0
M  V30 13631 O 1265.07 -1.25673 2.40663 0
M  V30 13632 C 1263.52 1.12445 3.41883 0
M  V30 13633 C 1263.13 2.62034 3.63376 0
M  V30 13634 C 1264.87 0.867277 4.15546 0
M  V30 13635 C 1262.78 3.02412 5.08233 0
M  V30 13636 H 1261.71 0.242012 0.714105 0
M  V30 13637 H 1264.36 1.19716 1.39069 0
M  V30 13638 H 1262.74 0.512386 3.92671 0
M  V30 13639 H 1263.92 3.28546 3.23101 0
M  V30 13640 H 1262.23 2.85583 3.03037 0
M  V30 13641 H 1264.83 1.14471 5.22303 0
M  V30 13642 H 1265.17 -0.196611 4.15835 0
M  V30 13643 H 1265.71 1.4413 3.70771 0
M  V30 13644 H 1262.44 4.07957 5.1308 0
M  V30 13645 H 1261.96 2.406 5.49429 0
M  V30 13646 H 1263.64 2.93452 5.76624 0
M  V30 13647 N 1263.78 -1.38018 0.760839 0
M  V30 13648 C 1265.02 -1.99557 0.319609 0
M  V30 13649 C 1265.34 -1.60699 -1.10457 0
M  V30 13650 O 1264.61 -0.867248 -1.75658 0
M  V30 13651 H 1263.19 -0.738066 0.115182 0
M  V30 13652 H 1265.86 -1.6867 0.976544 0
M  V30 13653 H 1264.95 -3.09672 0.388523 0
M  V30 13654 N 1265.25 -0.510493 -1.49103 0
M  V30 13655 C 1266.2 0.276449 -2.30951 0
M  V30 13656 C 1267.2 0.953893 -1.3999 0
M  V30 13657 O 1268.4 0.880499 -1.56994 0
M  V30 13658 H 1264.78 0.108013 -0.744202 0
M  V30 13659 H 1266.75 -0.433725 -2.95231 0
M  V30 13660 C 1265.5 1.32234 -3.21573 0
M  V30 13661 H 1264.82 0.810468 -3.91499 0
M  V30 13662 H 1266.26 1.84476 -3.81765 0
M  V30 13663 C 1264.72 2.3456 -2.41833 0
M  V30 13664 O 1265.25 3.40627 -2.12922 0
M  V30 13665 N 1263.45 2.07272 -2.03682 0
M  V30 13666 H 1263 1.21036 -2.27394 0
M  V30 13667 H 1262.96 2.75963 -1.50638 0
M  V30 13668 N 1266.73 1.55688 -0.24474 0
M  V30 13669 C 1267.66 2.18616 0.68844 0
M  V30 13670 C 1268.68 1.16185 1.14039 0
M  V30 13671 O 1269.87 1.43059 1.06754 0
M  V30 13672 C 1266.97 2.77375 1.94721 0
M  V30 13673 C 1266.14 4.05204 1.64706 0
M  V30 13674 C 1265.2 4.48302 2.75521 0
M  V30 13675 O 1264.22 5.14723 2.42999 0
M  V30 13676 N 1265.43 4.15907 4.04971 0
M  V30 13677 H 1268.19 2.99324 0.150018 0
M  V30 13678 H 1265.75 1.61771 -0.0646183 0
M  V30 13679 H 1267.74 3.03165 2.68091 0
M  V30 13680 H 1266.31 2.00837 2.39548 0
M  V30 13681 H 1265.53 3.87026 0.74865 0
M  V30 13682 H 1266.82 4.8855 1.42114 0
M  V30 13683 H 1266.22 3.62579 4.34227 0
M  V30 13684 H 1264.78 4.46538 4.74813 0
M  V30 13685 N 1268.21 -0.0283989 1.57574 0
M  V30 13686 C 1269.16 -1.03669 2.03069 0
M  V30 13687 C 1270.14 -1.31994 0.920129 0
M  V30 13688 O 1271.34 -1.31568 1.18402 0
M  V30 13689 C 1268.46 -2.3376 2.51418 0
M  V30 13690 C 1267.55 -2.08522 3.69296 0
M  V30 13691 N 1267.94 -1.53345 4.81995 0
M  V30 13692 C 1266.24 -2.38803 3.76682 0
M  V30 13693 C 1266.94 -1.43926 5.63613 0
M  V30 13694 N 1265.92 -1.91507 5.0875 0
M  V30 13695 H 1269.72 -0.604097 2.87625 0
M  V30 13696 H 1267.23 -0.234689 1.60695 0
M  V30 13697 H 1269.23 -3.06804 2.82271 0
M  V30 13698 H 1267.89 -2.77698 1.68268 0
M  V30 13699 H 1268.9 -1.21607 5.0342 0
M  V30 13700 H 1265.58 -2.8581 3.04333 0
M  V30 13701 H 1266.97 -1.0175 6.64151 0
M  V30 13702 N 1269.69 -1.54705 -0.300681 0
M  V30 13703 C 1270.94 -1.73211 -1.03349 0
M  V30 13704 C 1271.25 -0.52518 -1.88418 0
M  V30 13705 O 1272.46 -0.592049 -2.64966 0
M  V30 13706 C 1270.91 -3.06453 -1.88717 0
M  V30 13707 C 1270.52 -4.34625 -1.0865 0
M  V30 13708 C 1272.26 -3.34317 -2.61595 0
M  V30 13709 C 1270.17 -5.58919 -1.93297 0
M  V30 13710 H 1269.1 -0.64556 -0.389574 0
M  V30 13711 H 1271.75 -1.81186 -0.290472 0
M  V30 13712 H 1270.13 -2.92443 -2.67008 0
M  V30 13713 H 1271.31 -4.59471 -0.349707 0
M  V30 13714 H 1269.62 -4.13699 -0.473521 0
M  V30 13715 H 1272.22 -4.2438 -3.25278 0
M  V30 13716 H 1272.56 -2.53207 -3.30442 0
M  V30 13717 H 1273.1 -3.493 -1.90354 0
M  V30 13718 H 1269.83 -6.42697 -1.2892 0
M  V30 13719 H 1269.35 -5.38258 -2.64647 0
M  V30 13720 H 1271.03 -5.96187 -2.51336 0
M  V30 13721 N 1271.17 0.563888 -1.47167 0
M  V30 13722 C 1272.4 1.34498 -1.56825 0
M  V30 13723 C 1272.8 1.87974 -0.215011 0
M  V30 13724 O 1272.15 1.65323 0.80087 0
M  V30 13725 C 1272.21 2.55602 -2.528 0
M  V30 13726 C 1271.87 2.23459 -3.98642 0
M  V30 13727 C 1272.87 1.81155 -4.87318 0
M  V30 13728 C 1270.56 2.35024 -4.43925 0
M  V30 13729 C 1272.55 1.50835 -6.19296 0
M  V30 13730 C 1270.24 2.04317 -5.75932 0
M  V30 13731 C 1271.23 1.6229 -6.63439 0
M  V30 13732 O 1270.92 1.31969 -7.92994 0
M  V30 13733 H 1270.65 0.416551 -0.532411 0
M  V30 13734 H 1273.21 0.690611 -1.93442 0
M  V30 13735 H 1271.44 3.23907 -2.11237 0
M  V30 13736 H 1273.13 3.17677 -2.52659 0
M  V30 13737 H 1273.89 1.71719 -4.53583 0
M  V30 13738 H 1269.77 2.66696 -3.76024 0
M  V30 13739 H 1273.32 1.17958 -6.87555 0
M  V30 13740 H 1269.21 2.13383 -6.09211 0
M  V30 13741 H 1269.98 1.45656 -8.05436 0
M  V30 13742 N 1272.64 1.35187 0.810078 0
M  V30 13743 C 1273.58 1.23673 1.92971 0
M  V30 13744 C 1274.59 0.160819 1.62004 0
M  V30 13745 O 1275.78 0.413793 1.73638 0
M  V30 13746 C 1272.88 0.880887 3.27252 0
M  V30 13747 C 1272.05 2.05444 3.86149 0
M  V30 13748 C 1271.11 1.67494 4.98831 0
M  V30 13749 O 1270.14 2.39322 5.16443 0
M  V30 13750 N 1271.34 0.596539 5.77427 0
M  V30 13751 H 1274.1 2.20133 2.03376 0
M  V30 13752 H 1271.66 1.2831 0.987322 0
M  V30 13753 H 1273.66 0.608556 4.00098 0
M  V30 13754 H 1272.23 0.00607926 3.12599 0
M  V30 13755 H 1271.45 2.49077 3.05539 0
M  V30 13756 H 1272.73 2.83898 4.22231 0
M  V30 13757 H 1272.13 -0.000312591 5.657 0
M  V30 13758 H 1270.69 0.383979 6.50668 0
M  V30 13759 N 1274.12 -1.03182 1.19127 0
M  V30 13760 C 1275.53 -1.57984 0.994888 0
M  V30 13761 C 1275.88 -1.90898 -0.453019 0
M  V30 13762 O 1275.01 -1.70556 -1.33191 0
M  V30 13763 C 1275.6 -2.8705 1.79966 0
M  V30 13764 C 1274.16 -3.38435 1.64737 0
M  V30 13765 C 1273.31 -2.11912 1.78854 0
M  V30 13766 H 1276.26 -0.857458 1.33542 0
M  V30 13767 H 1276.28 -3.57821 1.294 0
M  V30 13768 H 1275.79 -2.63062 2.85341 0
M  V30 13769 H 1273.9 -3.67416 0.619358 0
M  V30 13770 H 1274.01 -4.11665 2.45089 0
M  V30 13771 H 1272.37 -2.23642 1.21886 0
M  V30 13772 H 1273.16 -1.90369 2.85682 0
M  V30 13773 N 1275.6 -0.99472 -1.22242 0
M  V30 13774 C 1276.85 -0.672596 -1.91322 0
M  V30 13775 C 1277.18 0.793542 -1.77247 0
M  V30 13776 O 1276.45 1.57407 -1.14251 0
M  V30 13777 C 1276.74 -1.08155 -3.43474 0
M  V30 13778 C 1276.59 -2.60638 -3.6659 0
M  V30 13779 C 1277.91 -0.636161 -4.35478 0
M  V30 13780 H 1275.03 -0.24582 -0.694796 0
M  V30 13781 H 1277.67 -1.23857 -1.44082 0
M  V30 13782 H 1275.82 -0.599987 -3.83839 0
M  V30 13783 H 1277.49 -3.16479 -3.35617 0
M  V30 13784 H 1275.74 -3.02624 -3.10808 0
M  V30 13785 H 1276.41 -2.84304 -4.73155 0
M  V30 13786 H 1278.88 -1.04982 -4.02639 0
M  V30 13787 H 1277.76 -0.950584 -5.40606 0
M  V30 13788 H 1278.02 0.4631 -4.39668 0
M  V30 13789 N 1277.08 1.37613 -0.768148 0
M  V30 13790 C 1278.33 1.99384 -0.330187 0
M  V30 13791 C 1278.65 1.61283 1.09604 0
M  V30 13792 O 1277.92 0.876551 1.75195 0
M  V30 13793 H 1276.5 0.737445 -0.119095 0
M  V30 13794 H 1279.16 1.6815 -0.985476 0
M  V30 13795 H 1278.26 3.09462 -0.40494 0
M  V30 13796 N 1278.56 0.518393 1.4883 0
M  V30 13797 C 1279.5 -0.250684 2.29435 0
M  V30 13798 C 1280.47 -0.944481 1.36634 0
M  V30 13799 O 1281.66 -0.947766 1.65596 0
M  V30 13800 C 1278.8 -1.29871 3.1973 0
M  V30 13801 C 1277.91 -0.61493 4.27601 0
M  V30 13802 C 1277.05 -1.64489 5.05091 0
M  V30 13803 C 1276.09 -0.943932 6.04778 0
M  V30 13804 N 1275.22 -1.91889 6.75369 0
M  V30 13805 H 1280.06 0.44288 2.94691 0
M  V30 13806 H 1277.6 0.230246 1.45287 0
M  V30 13807 H 1279.56 -1.91851 3.70471 0
M  V30 13808 H 1278.19 -1.96081 2.56422 0
M  V30 13809 H 1277.24 0.118552 3.80215 0
M  V30 13810 H 1278.55 -0.063994 4.98759 0
M  V30 13811 H 1277.71 -2.33928 5.59788 0
M  V30 13812 H 1276.44 -2.2297 4.33746 0
M  V30 13813 H 1275.45 -0.235407 5.49296 0
M  V30 13814 H 1276.67 -0.365383 6.78116 0
M  V30 13815 H 1274.62 -2.493 6.06783 0
M  V30 13816 H 1274.54 -1.41909 7.42562 0
M  V30 13817 H 1275.81 -2.60563 7.34661 0
M  V30 13818 N 1280.03 -1.55556 0.252993 0
M  V30 13819 C 1281.45 -1.85032 -0.249011 0
M  V30 13820 C 1281.8 -1.17488 -1.57134 0
M  V30 13821 O 1280.92 -0.455387 -2.11554 0
M  V30 13822 C 1281.52 -3.35682 -0.458589 0
M  V30 13823 C 1280.08 -3.65362 -0.90485 0
M  V30 13824 C 1279.22 -2.77296 0.0144927 0
M  V30 13825 H 1282.17 -1.51412 0.475394 0
M  V30 13826 H 1282.19 -3.57591 -1.30034 0
M  V30 13827 H 1281.71 -3.84814 0.503981 0
M  V30 13828 H 1279.81 -3.21713 -1.87967 0
M  V30 13829 H 1279.92 -4.73074 -0.757492 0
M  V30 13830 H 1278.28 -2.49785 -0.497954 0
M  V30 13831 H 1279.07 -3.29236 0.972546 0
M  V30 13832 N 1281.51 0.0200419 -1.57587 0
M  V30 13833 C 1282.79 0.744946 -1.80859 0
M  V30 13834 C 1283.17 1.93089 -0.853218 0
M  V30 13835 O 1282.52 2.28269 0.10261 0
M  V30 13836 C 1282.73 1.16952 -3.28821 0
M  V30 13837 C 1284.08 1.5817 -3.9404 0
M  V30 13838 O 1285.1 1.26385 -3.33024 0
M  V30 13839 O 1283.96 2.17197 -5.01486 0
M  V30 13840 H 1281.05 0.360995 -0.744051 0
M  V30 13841 H 1283.6 -0.00387374 -1.697 0
M  V30 13842 H 1282.37 0.323304 -3.89962 0
M  V30 13843 H 1281.99 1.97807 -3.44903 0
M  V30 13844 N 1282.99 1.54862 0.292472 0
M  V30 13845 C 1284.4 1.65459 0.864891 0
M  V30 13846 C 1284.75 0.568808 1.87774 0
M  V30 13847 O 1283.88 -0.293107 2.14406 0
M  V30 13848 C 1284.47 2.99939 1.5755 0
M  V30 13849 C 1283.03 3.12628 2.09621 0
M  V30 13850 C 1282.18 2.61179 0.931713 0
M  V30 13851 H 1285.13 1.58549 0.0692679 0
M  V30 13852 H 1285.15 2.91839 2.44152 0
M  V30 13853 H 1284.66 3.78943 0.838088 0
M  V30 13854 H 1282.76 2.3836 2.86383 0
M  V30 13855 H 1282.88 4.18911 2.32488 0
M  V30 13856 H 1281.24 2.17846 1.31967 0
M  V30 13857 H 1282.02 3.42669 0.208121 0
M  V30 13858 N 1284.47 -0.556076 1.47464 0
M  V30 13859 C 1285.43 -1.64515 1.59586 0
M  V30 13860 C 1286.43 -1.53751 0.470881 0
M  V30 13861 O 1287.62 -1.57889 0.735979 0
M  V30 13862 C 1284.75 -3.0406 1.54143 0
M  V30 13863 H 1285.95 -1.55116 2.56669 0
M  V30 13864 H 1283.5 -0.776087 1.35671 0
M  V30 13865 H 1284.23 -3.18991 0.584395 0
M  V30 13866 H 1284.02 -3.13282 2.3579 0
M  V30 13867 H 1285.51 -3.8329 1.65766 0
M  V30 13868 N 1285.95 -1.35615 -0.802897 0
M  V30 13869 C 1286.91 -1.28705 -1.89651 0
M  V30 13870 C 1287.91 -0.197681 -1.5958 0
M  V30 13871 O 1289.1 -0.451618 -1.68244 0
M  V30 13872 C 1286.23 -0.991941 -3.26149 0
M  V30 13873 H 1287.43 -2.25951 -1.97196 0
M  V30 13874 H 1284.98 -1.20192 -0.999179 0
M  V30 13875 H 1285.71 -0.0235051 -3.24291 0
M  V30 13876 H 1285.5 -1.78013 -3.49362 0
M  V30 13877 H 1286.99 -0.969298 -4.06195 0
M  V30 13878 N 1287.43 1.02549 -1.19673 0
M  V30 13879 C 1288.84 1.57454 -1.00325 0
M  V30 13880 C 1289.19 1.91136 0.442889 0
M  V30 13881 O 1288.31 1.7126 1.32284 0
M  V30 13882 C 1288.91 2.86091 -1.81486 0
M  V30 13883 C 1287.47 3.37557 -1.6653 0
M  V30 13884 C 1286.61 2.1096 -1.79975 0
M  V30 13885 H 1289.56 0.850364 -1.33994 0
M  V30 13886 H 1289.59 3.5713 -1.31296 0
M  V30 13887 H 1289.1 2.61546 -2.86733 0
M  V30 13888 H 1287.2 3.67083 -0.638834 0
M  V30 13889 H 1287.31 4.1036 -2.47269 0
M  V30 13890 H 1285.68 2.22993 -1.23071 0
M  V30 13891 H 1286.46 1.88852 -2.86688 0
M  V30 13892 N 1288.9 1.00119 1.21713 0
M  V30 13893 C 1290.31 0.715611 1.72441 0
M  V30 13894 C 1290.67 -0.767 1.80587 0
M  V30 13895 O 1289.79 -1.59928 1.45781 0
M  V30 13896 C 1290.39 1.29234 3.13184 0
M  V30 13897 C 1288.94 1.05597 3.61284 0
M  V30 13898 C 1288.09 1.40749 2.38925 0
M  V30 13899 H 1291.04 1.17255 1.06943 0
M  V30 13900 H 1291.06 0.67507 3.74464 0
M  V30 13901 H 1290.58 2.37141 3.07223 0
M  V30 13902 H 1288.68 -0.00610816 3.72599 0
M  V30 13903 H 1288.79 1.72517 4.46961 0
M  V30 13904 H 1287.15 0.826207 2.40927 0
M  V30 13905 H 1287.94 2.49678 2.35618 0
M  V30 13906 N 1290.38 -1.37203 0.775435 0
M  V30 13907 C 1291.33 -2.30228 0.162388 0
M  V30 13908 C 1292.3 -1.51284 -0.685747 0
M  V30 13909 O 1293.48 -1.7984 -0.637342 0
M  V30 13910 C 1290.62 -3.37762 -0.707858 0
M  V30 13911 C 1289.74 -4.31714 0.157287 0
M  V30 13912 C 1288.87 -5.26325 -0.718012 0
M  V30 13913 C 1287.91 -6.11918 0.149442 0
M  V30 13914 N 1287.05 -6.9876 -0.684043 0
M  V30 13915 H 1291.89 -2.82073 0.961184 0
M  V30 13916 H 1289.42 -1.38854 0.485587 0
M  V30 13917 H 1291.38 -3.98741 -1.22726 0
M  V30 13918 H 1290.01 -2.87273 -1.47222 0
M  V30 13919 H 1289.06 -3.7201 0.794533 0
M  V30 13920 H 1290.38 -4.91909 0.826262 0
M  V30 13921 H 1289.53 -5.92526 -1.30376 0
M  V30 13922 H 1288.27 -4.6655 -1.42066 0
M  V30 13923 H 1287.27 -5.44692 0.747697 0
M  V30 13924 H 1288.5 -6.73766 0.849476 0
M  V30 13925 H 1286.45 -6.41508 -1.37124 0
M  V30 13926 H 1286.36 -7.55965 -0.0724464 0
M  V30 13927 H 1287.63 -7.69346 -1.25407 0
M  V30 13928 N 1291.86 -0.526279 -1.48553 0
M  V30 13929 C 1292.81 0.238513 -2.29564 0
M  V30 13930 C 1293.78 0.937222 -1.37133 0
M  V30 13931 O 1294.96 0.93897 -1.66096 0
M  V30 13932 C 1292.1 1.28173 -3.20415 0
M  V30 13933 C 1291.21 0.592244 -4.27921 0
M  V30 13934 C 1290.35 1.61808 -5.05956 0
M  V30 13935 C 1289.39 0.911846 -6.0527 0
M  V30 13936 N 1288.53 1.88305 -6.76377 0
M  V30 13937 H 1293.37 -0.458502 -2.94452 0
M  V30 13938 H 1290.9 -0.237948 -1.45163 0
M  V30 13939 H 1292.86 1.89883 -3.71484 0
M  V30 13940 H 1291.49 1.94718 -2.57458 0
M  V30 13941 H 1290.54 -0.138714 -3.80147 0
M  V30 13942 H 1291.85 0.0375427 -4.98786 0
M  V30 13943 H 1291.01 2.30956 -5.61021 0
M  V30 13944 H 1289.75 2.20667 -4.34922 0
M  V30 13945 H 1288.75 0.206273 -5.49413 0
M  V30 13946 H 1289.98 0.329415 -6.78301 0
M  V30 13947 H 1287.92 2.46079 -6.08096 0
M  V30 13948 H 1287.84 1.37969 -7.43304 0
M  V30 13949 H 1289.11 2.56663 -7.36033 0
M  V30 13950 N 1293.34 1.5542 -0.261239 0
M  V30 13951 C 1294.75 1.85161 0.239195 0
M  V30 13952 C 1295.1 1.18319 1.56509 0
M  V30 13953 O 1294.22 0.4666 2.1131 0
M  V30 13954 C 1294.82 3.3592 0.440781 0
M  V30 13955 C 1293.38 3.65837 0.885461 0
M  V30 13956 C 1292.53 2.77285 -0.0291982 0
M  V30 13957 H 1295.48 1.51158 -0.483417 0
M  V30 13958 H 1295.5 3.58276 1.28136 0
M  V30 13959 H 1295.01 3.84541 -0.524382 0
M  V30 13960 H 1293.11 3.22705 1.86259 0
M  V30 13961 H 1293.22 4.73469 0.732394 0
M  V30 13962 H 1291.59 2.50045 0.484701 0
M  V30 13963 H 1292.37 3.28716 -0.989992 0
M  V30 13964 N 1294.82 -0.0116844 1.57596 0
M  V30 13965 C 1296.23 -0.55604 1.78228 0
M  V30 13966 C 1296.58 -1.74624 0.894474 0
M  V30 13967 O 1295.7 -2.16196 0.0938498 0
M  V30 13968 C 1296.3 -1.0155 3.23223 0
M  V30 13969 C 1294.86 -1.50525 3.44992 0
M  V30 13970 C 1294 -0.451133 2.73606 0
M  V30 13971 H 1296.95 0.214516 1.57243 0
M  V30 13972 H 1296.98 -1.88208 3.30693 0
M  V30 13973 H 1296.49 -0.149048 3.87814 0
M  V30 13974 H 1294.59 -2.39298 2.856 0
M  V30 13975 H 1294.7 -1.54076 4.53649 0
M  V30 13976 H 1293.07 -0.910135 2.37884 0
M  V30 13977 H 1293.85 0.406152 3.40889 0
M  V30 13978 N 1296.29 -1.55015 -0.284256 0
M  V30 13979 C 1297.71 -1.46603 -0.630845 0
M  V30 13980 C 1297.91 -0.67091 -1.90003 0
M  V30 13981 O 1296.97 -0.185266 -2.51819 0
M  V30 13982 C 1298.28 -2.9072 -0.768268 0
M  V30 13983 C 1299.83 -3.00866 -0.863061 0
M  V30 13984 C 1300.3 -4.46214 -1.03235 0
M  V30 13985 N 1301.79 -4.49994 -1.09815 0
M  V30 13986 C 1302.53 -5.5966 -1.24773 0
M  V30 13987 N 1302.02 -6.79215 -1.36523 0
M  V30 13988 N 1303.82 -5.4738 -1.27795 0
M  V30 13989 H 1295.97 -2.05171 0.549409 0
M  V30 13990 H 1298.23 -0.929915 0.184288 0
M  V30 13991 H 1297.94 -3.51575 0.0936899 0
M  V30 13992 H 1297.81 -3.39096 -1.65209 0
M  V30 13993 H 1300.2 -2.40114 -1.71549 0
M  V30 13994 H 1300.28 -2.5576 0.0451267 0
M  V30 13995 H 1299.92 -5.07564 -0.18462 0
M  V30 13996 H 1299.85 -4.88965 -1.95502 0
M  V30 13997 H 1302.34 -3.63869 -1.0202 0
M  V30 13998 H 1302.66 -7.58547 -1.47739 0
M  V30 13999 H 1301 -6.82048 -1.33548 0
M  V30 14000 H 1304.19 -4.52921 -1.18238 0
M  V30 14001 H 1304.37 -6.32892 -1.39109 0
M  V30 14002 N 1297.77 0.548248 -1.47757 0
M  V30 14003 C 1299.18 1.13033 -1.48595 0
M  V30 14004 C 1299.53 1.94657 -0.245575 0
M  V30 14005 O 1298.66 2.06445 0.648813 0
M  V30 14006 C 1299.25 2.05657 -2.69241 0
M  V30 14007 C 1297.81 2.59119 -2.73009 0
M  V30 14008 C 1296.96 1.35686 -2.41836 0
M  V30 14009 H 1299.91 0.334397 -1.55137 0
M  V30 14010 H 1299.93 2.89671 -2.4672 0
M  V30 14011 H 1299.44 1.46222 -3.595 0
M  V30 14012 H 1297.54 3.22327 -1.86912 0
M  V30 14013 H 1297.66 2.99501 -3.73946 0
M  V30 14014 H 1296.02 1.66659 -1.92606 0
M  V30 14015 H 1296.8 0.780311 -3.34314 0
M  V30 14016 N 1299.25 1.36039 0.795694 0
M  V30 14017 C 1300.5 1.29663 1.55023 0
M  V30 14018 C 1300.82 -0.125588 1.94595 0
M  V30 14019 O 1300.09 -1.06447 1.64456 0
M  V30 14020 H 1298.67 0.476962 0.574906 0
M  V30 14021 H 1301.33 1.70265 0.948471 0
M  V30 14022 H 1300.43 1.91982 2.46068 0
M  V30 14023 N 1300.73 -1.01913 1.20215 0
M  V30 14024 C 1301.69 -2.08563 0.950481 0
M  V30 14025 C 1302.69 -1.60634 -0.0729659 0
M  V30 14026 O 1303.88 -1.73437 0.162826 0
M  V30 14027 C 1301.01 -3.38171 0.430453 0
M  V30 14028 H 1302.21 -2.32323 1.89647 0
M  V30 14029 H 1299.76 -1.18674 1.01716 0
M  V30 14030 H 1300.49 -3.20086 -0.521126 0
M  V30 14031 H 1300.28 -3.74284 1.1685 0
M  V30 14032 H 1301.77 -4.16702 0.273781 0
M  V30 14033 N 1302.21 -1.00763 -1.2118 0
M  V30 14034 C 1303.62 -0.724746 -1.72059 0
M  V30 14035 C 1303.97 0.757413 -1.80991 0
M  V30 14036 O 1303.09 1.59152 -1.46627 0
M  V30 14037 C 1303.69 -1.30893 -3.12494 0
M  V30 14038 C 1302.25 -1.07511 -3.60719 0
M  V30 14039 C 1301.39 -1.42014 -2.38175 0
M  V30 14040 H 1304.35 -1.17821 -1.0632 0
M  V30 14041 H 1304.37 -0.694919 -3.741 0
M  V30 14042 H 1303.88 -2.38767 -3.05961 0
M  V30 14043 H 1301.98 -0.0136518 -3.72597 0
M  V30 14044 H 1302.09 -1.74885 -4.4604 0
M  V30 14045 H 1300.46 -0.838972 -2.40486 0
M  V30 14046 H 1301.24 -2.50924 -2.34291 0
M  V30 14047 N 1303.68 1.3679 -0.7827 0
M  V30 14048 C 1304.93 1.99023 -0.351316 0
M  V30 14049 C 1305.25 1.62436 1.07887 0
M  V30 14050 O 1304.52 0.895084 1.74256 0
M  V30 14051 H 1303.1 0.736141 -0.126909 0
M  V30 14052 H 1305.77 1.67095 -1.00325 0
M  V30 14053 H 1304.86 3.09015 -0.43774 0
M  V30 14054 N 1305.16 0.53415 1.48272 0
M  V30 14055 C 1306.11 -0.246268 2.26666 0
M  V30 14056 C 1307.1 -0.906149 1.32958 0
M  V30 14057 O 1308.29 -0.808266 1.57468 0
M  V30 14058 C 1305.42 -1.29001 3.18141 0
M  V30 14059 C 1304.5 -0.634704 4.19324 0
M  V30 14060 N 1304.89 0.281972 5.05013 0
M  V30 14061 C 1303.19 -0.891412 4.37001 0
M  V30 14062 C 1303.89 0.660411 5.77939 0
M  V30 14063 N 1302.87 0.0205295 5.43596 0
M  V30 14064 H 1306.67 0.458881 2.90296 0
M  V30 14065 H 1304.19 0.352466 1.58529 0
M  V30 14066 H 1306.18 -1.86285 3.72966 0
M  V30 14067 H 1304.84 -1.99649 2.56067 0
M  V30 14068 H 1305.85 0.654819 5.13744 0
M  V30 14069 H 1302.53 -1.58815 3.86114 0
M  V30 14070 H 1303.92 1.41231 6.56889 0
M  V30 14071 N 1306.64 -1.55279 0.269478 0
M  V30 14072 C 1307.57 -2.25278 -0.614188 0
M  V30 14073 C 1308.55 -1.24092 -1.1634 0
M  V30 14074 O 1309.74 -1.52799 -1.19858 0
M  V30 14075 C 1306.87 -2.96956 -1.80096 0
M  V30 14076 C 1305.82 -4.05021 -1.38353 0
M  V30 14077 C 1305.15 -4.64244 -2.65295 0
M  V30 14078 C 1306.45 -5.19523 -0.537886 0
M  V30 14079 H 1308.14 -2.99385 -0.0304397 0
M  V30 14080 H 1305.69 -1.43994 -0.0132004 0
M  V30 14081 H 1307.64 -3.44633 -2.42499 0
M  V30 14082 H 1306.36 -2.20374 -2.41045 0
M  V30 14083 H 1305.02 -3.58146 -0.78273 0
M  V30 14084 H 1304.67 -3.84337 -3.2449 0
M  V30 14085 H 1304.37 -5.37208 -2.38079 0
M  V30 14086 H 1305.89 -5.14668 -3.28557 0
M  V30 14087 H 1307.31 -5.63287 -1.06677 0
M  V30 14088 H 1305.71 -5.99014 -0.360845 0
M  V30 14089 H 1306.78 -4.82857 0.444672 0
M  V30 14090 N 1308.12 0.00332656 -1.576 0
M  V30 14091 C 1309.37 0.687508 -1.90047 0
M  V30 14092 C 1309.69 1.74497 -0.870388 0
M  V30 14093 O 1308.96 1.95681 0.0926544 0
M  V30 14094 H 1307.54 0.256924 -0.701426 0
M  V30 14095 H 1310.2 -0.0368129 -1.94865 0
M  V30 14096 H 1309.3 1.16086 -2.89707 0
M  V30 14097 N 1309.6 1.55164 0.276031 0
M  V30 14098 C 1310.82 1.7998 1.03063 0
M  V30 14099 C 1311.25 0.569769 1.79263 0
M  V30 14100 O 1310.6 -0.48054 1.74816 0
M  V30 14101 C 1310.65 3.02209 1.96728 0
M  V30 14102 O 1309.76 2.77083 3.05449 0
M  V30 14103 H 1309.1 0.594963 0.294814 0
M  V30 14104 H 1311.63 2.02301 0.305861 0
M  V30 14105 H 1311.64 3.3086 2.38738 0
M  V30 14106 H 1310.31 3.91386 1.40677 0
M  V30 14107 H 1308.89 2.5952 2.67776 0
M  V30 14108 N 1311.07 -0.540404 1.48045 0
M  V30 14109 C 1312 -1.65538 1.6468 0
M  V30 14110 C 1312.99 -1.62713 0.495847 0
M  V30 14111 O 1314.17 -1.80072 0.727172 0
M  V30 14112 C 1311.3 -3.0415 1.67661 0
M  V30 14113 C 1310.25 -3.2183 2.82152 0
M  V30 14114 C 1309.58 -4.61397 2.70216 0
M  V30 14115 C 1310.88 -3.05596 4.23567 0
M  V30 14116 H 1312.57 -1.51873 2.58021 0
M  V30 14117 H 1310.12 -0.729208 1.24171 0
M  V30 14118 H 1312.07 -3.82013 1.77887 0
M  V30 14119 H 1310.8 -3.18814 0.708907 0
M  V30 14120 H 1309.46 -2.4638 2.71463 0
M  V30 14121 H 1309.1 -4.72883 1.71437 0
M  V30 14122 H 1308.8 -4.74174 3.47035 0
M  V30 14123 H 1310.33 -5.41374 2.82395 0
M  V30 14124 H 1311.74 -3.73261 4.35143 0
M  V30 14125 H 1310.14 -3.29871 5.01303 0
M  V30 14126 H 1311.21 -2.0214 4.40758 0
M  V30 14127 N 1312.55 -1.36459 -0.788468 0
M  V30 14128 C 1313.52 -1.3071 -1.88275 0
M  V30 14129 C 1314.52 -0.214596 -1.59362 0
M  V30 14130 O 1315.71 -0.469437 -1.67756 0
M  V30 14131 C 1312.84 -1.02648 -3.25079 0
M  V30 14132 H 1314.03 -2.28029 -1.94788 0
M  V30 14133 H 1311.58 -1.21245 -0.986375 0
M  V30 14134 H 1312.32 -0.0578992 -3.24248 0
M  V30 14135 H 1312.1 -1.81708 -3.47454 0
M  V30 14136 H 1313.59 -1.01233 -4.05144 0
M  V30 14137 N 1314.03 1.01274 -1.20754 0
M  V30 14138 C 1315.26 1.7906 -1.04653 0
M  V30 14139 C 1315.68 1.83806 0.399632 0
M  V30 14140 O 1315.04 1.27596 1.28798 0
M  V30 14141 C 1315.09 3.21187 -1.63925 0
M  V30 14142 O 1314.19 4.02913 -0.879486 0
M  V30 14143 H 1313.53 0.552147 -0.368823 0
M  V30 14144 H 1316.06 1.27356 -1.6013 0
M  V30 14145 H 1316.07 3.71887 -1.67822 0
M  V30 14146 H 1314.75 3.17048 -2.69172 0
M  V30 14147 H 1313.32 3.61499 -0.915019 0
M  V30 14148 N 1315.51 1.01404 1.20644 0
M  V30 14149 C 1316.44 0.602465 2.25594 0
M  V30 14150 C 1317.42 -0.381216 1.65773 0
M  V30 14151 O 1318.61 -0.267209 1.92353 0
M  V30 14152 C 1315.74 -0.0626245 3.47244 0
M  V30 14153 C 1314.69 0.841776 4.1964 0
M  V30 14154 C 1314.02 0.0426002 5.34683 0
M  V30 14155 C 1315.32 2.14864 4.76058 0
M  V30 14156 H 1317.01 1.47977 2.60275 0
M  V30 14157 H 1314.56 0.712966 1.25111 0
M  V30 14158 H 1316.51 -0.362095 4.19841 0
M  V30 14159 H 1315.23 -0.974627 3.11719 0
M  V30 14160 H 1313.89 1.12521 3.48905 0
M  V30 14161 H 1313.54 -0.870973 4.95402 0
M  V30 14162 H 1313.24 0.644866 5.84051 0
M  V30 14163 H 1314.76 -0.250476 6.10086 0
M  V30 14164 H 1316.18 1.9117 5.40488 0
M  V30 14165 H 1314.57 2.70153 5.35852 0
M  V30 14166 H 1315.64 2.81336 3.9494 0
M  V30 14167 N 1316.99 -1.36373 0.789944 0
M  V30 14168 C 1318.21 -2.04011 0.373396 0
M  V30 14169 C 1318.64 -1.59171 -1.00231 0
M  V30 14170 O 1318 -0.760431 -1.64582 0
M  V30 14171 C 1318.04 -3.5783 0.446083 0
M  V30 14172 O 1317.15 -4.08759 -0.54678 0
M  V30 14173 H 1316.49 -0.644807 0.158495 0
M  V30 14174 H 1319.02 -1.74317 1.0712 0
M  V30 14175 H 1319.03 -4.06822 0.309877 0
M  V30 14176 H 1317.7 -3.89819 1.44962 0
M  V30 14177 H 1316.28 -3.71038 -0.372192 0
M  V30 14178 N 1318.47 -0.542005 -1.47987 0
M  V30 14179 C 1319.69 -0.0146835 -2.07395 0
M  V30 14180 C 1320.12 1.26266 -1.39422 0
M  V30 14181 O 1319.47 1.75259 -0.464118 0
M  V30 14182 C 1319.52 0.179937 -3.60151 0
M  V30 14183 O 1318.63 1.24596 -3.93128 0
M  V30 14184 H 1317.97 -0.0445076 -0.662507 0
M  V30 14185 H 1320.5 -0.753352 -1.90226 0
M  V30 14186 H 1320.51 0.398876 -4.06046 0
M  V30 14187 H 1319.18 -0.753093 -4.09025 0
M  V30 14188 H 1317.76 1.00872 -3.58997 0
M  V30 14189 N 1319.94 1.55134 -0.277709 0
M  V30 14190 C 1321.35 1.85405 0.219543 0
M  V30 14191 C 1321.71 1.19973 1.55245 0
M  V30 14192 O 1320.83 0.488986 2.10803 0
M  V30 14193 C 1321.43 3.36369 0.405127 0
M  V30 14194 C 1319.98 3.66755 0.846609 0
M  V30 14195 C 1319.13 2.77238 -0.0586063 0
M  V30 14196 H 1322.08 1.50637 -0.499422 0
M  V30 14197 H 1322.1 3.59615 1.24329 0
M  V30 14198 H 1321.62 3.83963 -0.565138 0
M  V30 14199 H 1319.72 3.24662 1.82825 0
M  V30 14200 H 1319.83 4.74219 0.682135 0
M  V30 14201 H 1318.19 2.50546 0.458153 0
M  V30 14202 H 1318.98 3.27647 -1.0248 0
M  V30 14203 N 1321.42 0.00503138 1.57599 0
M  V30 14204 C 1322.38 -0.969628 2.0768 0
M  V30 14205 C 1323.38 -1.26933 0.987148 0
M  V30 14206 O 1324.57 -1.21368 1.24962 0
M  V30 14207 C 1321.71 -2.29312 2.52247 0
M  V30 14208 H 1322.9 -0.536342 2.95065 0
M  V30 14209 H 1320.45 -0.242543 1.54407 0
M  V30 14210 H 1321.19 -2.7732 1.6812 0
M  V30 14211 H 1320.97 -2.08878 3.31832 0
M  V30 14212 H 1322.46 -2.99221 2.91302 0
M  V30 14213 N 1322.9 -1.55308 -0.267798 0
M  V30 14214 C 1324.18 -1.66881 -1.02029 0
M  V30 14215 C 1324.56 -0.538708 -2.04111 0
M  V30 14216 O 1323.9 0.460575 -2.2381 0
M  V30 14217 C 1324.11 -3.06318 -1.67243 0
M  V30 14218 C 1325.46 -3.64237 -2.18212 0
M  V30 14219 O 1326.49 -3.08984 -1.77221 0
M  V30 14220 O 1325.35 -4.61055 -2.93413 0
M  V30 14221 H 1322.44 -0.677967 -0.473593 0
M  V30 14222 H 1324.99 -1.67646 -0.263242 0
M  V30 14223 H 1323.76 -3.80015 -0.932985 0
M  V30 14224 H 1323.38 -3.09475 -2.49622 0
M  V30 14225 N 1324.38 0.532545 -1.4833 0
M  V30 14226 C 1325.6 1.31809 -1.60129 0
M  V30 14227 C 1326.03 1.86283 -0.260807 0
M  V30 14228 O 1325.39 1.6427 0.767137 0
M  V30 14229 C 1325.43 2.44661 -2.64903 0
M  V30 14230 O 1324.54 3.47622 -2.21885 0
M  V30 14231 H 1323.88 0.390492 -0.53704 0
M  V30 14232 H 1326.41 0.641068 -1.94297 0
M  V30 14233 H 1326.42 2.90883 -2.86096 0
M  V30 14234 H 1325.09 2.04373 -3.62222 0
M  V30 14235 H 1323.67 3.07536 -2.10894 0
M  V30 14236 N 1325.86 1.36875 0.78122 0
M  V30 14237 C 1327.09 1.34537 1.56791 0
M  V30 14238 C 1327.49 -0.0734709 1.89057 0
M  V30 14239 O 1326.84 -1.04307 1.51215 0
M  V30 14240 C 1326.9 2.10971 2.91087 0
M  V30 14241 C 1326.56 3.60005 2.81506 0
M  V30 14242 C 1327.56 4.54085 2.53185 0
M  V30 14243 C 1325.24 4.03001 2.99826 0
M  V30 14244 C 1327.24 5.89139 2.43298 0
M  V30 14245 C 1324.93 5.38144 2.89559 0
M  V30 14246 C 1325.92 6.31026 2.61335 0
M  V30 14247 O 1325.61 7.63685 2.51077 0
M  V30 14248 H 1325.34 0.46284 0.492702 0
M  V30 14249 H 1327.9 1.80683 0.976869 0
M  V30 14250 H 1326.13 1.595 3.52274 0
M  V30 14251 H 1327.82 2.01387 3.52418 0
M  V30 14252 H 1328.58 4.22178 2.38727 0
M  V30 14253 H 1324.46 3.31073 3.20799 0
M  V30 14254 H 1328.01 6.61605 2.21188 0
M  V30 14255 H 1323.9 5.69656 3.03583 0
M  V30 14256 H 1324.67 7.739 2.66498 0
M  V30 14257 N 1327.33 -1.00632 1.21289 0
M  V30 14258 C 1328.28 -2.11502 0.96798 0
M  V30 14259 C 1329.28 -1.6919 -0.0843024 0
M  V30 14260 O 1330.48 -1.79875 0.06697 0
M  V30 14261 H 1326.86 -0.691398 0.295759 0
M  V30 14262 H 1328.83 -2.29337 1.90911 0
M  V30 14263 C 1327.58 -3.43357 0.547818 0
M  V30 14264 H 1326.9 -3.76348 1.34915 0
M  V30 14265 H 1328.34 -4.21957 0.415759 0
M  V30 14266 C 1326.8 -3.28648 -0.741086 0
M  V30 14267 O 1327.33 -3.59267 -1.79695 0
M  V30 14268 N 1325.53 -2.81866 -0.707084 0
M  V30 14269 H 1325.08 -2.57149 0.152447 0
M  V30 14270 H 1325.04 -2.72406 -1.56979 0
M  V30 14271 N 1328.81 -1.02043 -1.20104 0
M  V30 14272 C 1329.72 -0.603724 -2.26699 0
M  V30 14273 C 1330.74 0.360558 -1.70223 0
M  V30 14274 O 1331.91 0.220552 -2.00189 0
M  V30 14275 C 1328.98 0.0475988 -3.46667 0
M  V30 14276 C 1328.04 -0.963111 -4.18357 0
M  V30 14277 C 1327.27 -0.342775 -5.32598 0
M  V30 14278 O 1327.5 0.856509 -5.63933 0
M  V30 14279 O 1326.43 -1.06141 -5.92467 0
M  V30 14280 H 1330.26 -1.49125 -2.64566 0
M  V30 14281 H 1327.84 -0.790134 -1.26796 0
M  V30 14282 H 1329.72 0.411177 -4.19389 0
M  V30 14283 H 1328.4 0.909266 -3.10667 0
M  V30 14284 H 1327.3 -1.37813 -3.47791 0
M  V30 14285 H 1328.64 -1.79487 -4.58307 0
M  V30 14286 N 1330.29 1.35952 -0.797165 0
M  V30 14287 C 1331.54 1.98639 -0.372405 0
M  V30 14288 C 1331.86 1.63571 1.06158 0
M  V30 14289 O 1331.13 0.913516 1.73297 0
M  V30 14290 H 1329.71 0.734753 -0.13471 0
M  V30 14291 H 1332.37 1.66022 -1.02092 0
M  V30 14292 H 1331.47 3.08533 -0.47049 0
M  V30 14293 N 1331.77 0.549846 1.47697 0
M  V30 14294 C 1333.01 0.0230845 2.02787 0
M  V30 14295 C 1333.35 -1.32035 1.42409 0
M  V30 14296 O 1332.62 -1.85745 0.576978 0
M  V30 14297 C 1332.91 -0.0778363 3.60016 0
M  V30 14298 C 1332.76 1.29217 4.3084 0
M  V30 14299 C 1334.08 -0.794909 4.32862 0
M  V30 14300 H 1331.2 0.00986307 0.736934 0
M  V30 14301 H 1333.84 0.710714 1.76207 0
M  V30 14302 H 1331.99 -0.663464 3.82793 0
M  V30 14303 H 1333.66 1.92044 4.19424 0
M  V30 14304 H 1331.9 1.86883 3.91481 0
M  V30 14305 H 1332.57 1.17435 5.39364 0
M  V30 14306 H 1335.05 -0.297743 4.15033 0
M  V30 14307 H 1333.93 -0.834466 5.4252 0
M  V30 14308 H 1334.19 -1.84948 4.01555 0
M  V30 14309 N 1333.25 -1.54984 0.285932 0
M  V30 14310 C 1334.19 -2.2295 -0.596822 0
M  V30 14311 C 1335.16 -1.20674 -1.14136 0
M  V30 14312 O 1336.35 -1.49249 -1.18867 0
M  V30 14313 C 1333.49 -2.9625 -1.77002 0
M  V30 14314 C 1332.6 -4.13268 -1.25831 0
M  V30 14315 C 1331.74 -4.74187 -2.39417 0
M  V30 14316 C 1330.78 -5.83377 -1.85304 0
M  V30 14317 N 1329.91 -6.38313 -2.92405 0
M  V30 14318 H 1334.75 -2.97998 -0.0106104 0
M  V30 14319 H 1332.29 -1.47099 0.00653041 0
M  V30 14320 H 1334.25 -3.36971 -2.4598 0
M  V30 14321 H 1332.88 -2.23606 -2.3281 0
M  V30 14322 H 1331.93 -3.77593 -0.461278 0
M  V30 14323 H 1333.24 -4.91979 -0.822049 0
M  V30 14324 H 1332.4 -5.17683 -3.16369 0
M  V30 14325 H 1331.13 -3.94775 -2.86364 0
M  V30 14326 H 1330.14 -5.3932 -1.06835 0
M  V30 14327 H 1331.36 -6.64664 -1.3928 0
M  V30 14328 H 1329.31 -5.61791 -3.38713 0
M  V30 14329 H 1329.23 -7.12328 -2.53228 0
M  V30 14330 H 1330.5 -6.86468 -3.69299 0
M  V30 14331 N 1334.72 -0.0133892 -1.57594 0
M  V30 14332 C 1335.65 0.972341 -2.12292 0
M  V30 14333 C 1336.64 1.34971 -1.03522 0
M  V30 14334 O 1337.82 1.4311 -1.31275 0
M  V30 14335 C 1334.95 2.25988 -2.63717 0
M  V30 14336 C 1333.9 2.02373 -3.77133 0
M  V30 14337 C 1333.23 3.37256 -4.14925 0
M  V30 14338 C 1334.53 1.37553 -5.03861 0
M  V30 14339 H 1336.22 0.516869 -2.94905 0
M  V30 14340 H 1333.77 0.247176 -1.41863 0
M  V30 14341 H 1335.72 2.95313 -3.00613 0
M  V30 14342 H 1334.45 2.73672 -1.78244 0
M  V30 14343 H 1333.11 1.3547 -3.40651 0
M  V30 14344 H 1332.75 3.82669 -3.26456 0
M  V30 14345 H 1332.45 3.22267 -4.91343 0
M  V30 14346 H 1333.98 4.07875 -4.5439 0
M  V30 14347 H 1335.39 1.96855 -5.38443 0
M  V30 14348 H 1333.79 1.33011 -5.85174 0
M  V30 14349 H 1334.86 0.346429 -4.83661 0
M  V30 14350 N 1336.2 1.55448 0.259558 0
M  V30 14351 C 1337.13 1.85678 1.34373 0
M  V30 14352 C 1338.15 0.742155 1.449 0
M  V30 14353 O 1339.34 1.02015 1.46476 0
M  V30 14354 C 1336.44 2.01668 2.72366 0
M  V30 14355 C 1335.61 3.32434 2.84265 0
M  V30 14356 C 1334.67 3.38322 4.03019 0
M  V30 14357 O 1333.69 4.11616 3.93143 0
M  V30 14358 N 1334.9 2.66697 5.1561 0
M  V30 14359 H 1337.66 2.79261 1.08781 0
M  V30 14360 H 1335.22 1.5553 0.449672 0
M  V30 14361 H 1337.21 2.02963 3.50126 0
M  V30 14362 H 1335.78 1.14889 2.90722 0
M  V30 14363 H 1335 3.43564 1.93281 0
M  V30 14364 H 1336.29 4.18649 2.89155 0
M  V30 14365 H 1335.69 2.06857 5.26523 0
M  V30 14366 H 1334.25 2.73699 5.91551 0
M  V30 14367 N 1337.68 -0.524672 1.4861 0
M  V30 14368 C 1339.09 -1.10655 1.50374 0
M  V30 14369 C 1339.44 -1.94242 0.276512 0
M  V30 14370 O 1338.57 -2.07451 -0.615887 0
M  V30 14371 C 1339.16 -2.01348 2.72478 0
M  V30 14372 C 1337.72 -2.54743 2.77097 0
M  V30 14373 C 1336.87 -1.31822 2.43964 0
M  V30 14374 H 1339.82 -0.309674 1.55649 0
M  V30 14375 H 1339.84 -2.85709 2.51297 0
M  V30 14376 H 1339.35 -1.40485 3.61781 0
M  V30 14377 H 1337.45 -3.19313 1.92016 0
M  V30 14378 H 1337.57 -2.93514 3.78664 0
M  V30 14379 H 1335.93 -1.63574 1.95233 0
M  V30 14380 H 1336.71 -0.727026 3.35513 0
M  V30 14381 N 1339.16 -1.37287 -0.77395 0
M  V30 14382 C 1340.09 -1.28746 -1.89624 0
M  V30 14383 C 1341.1 -0.203715 -1.6152 0
M  V30 14384 O 1342.29 -0.459684 -1.72479 0
M  V30 14385 C 1339.39 -0.967342 -3.24801 0
M  V30 14386 C 1338.57 -2.1561 -3.80567 0
M  V30 14387 C 1337.62 -1.80661 -4.94215 0
M  V30 14388 O 1336.65 -2.5293 -5.09917 0
M  V30 14389 N 1337.85 -0.749424 -5.75642 0
M  V30 14390 H 1340.62 -2.25447 -1.97468 0
M  V30 14391 H 1338.18 -1.30883 -0.952956 0
M  V30 14392 H 1340.17 -0.714421 -3.98344 0
M  V30 14393 H 1338.74 -0.0889573 -3.12473 0
M  V30 14394 H 1337.96 -2.57091 -2.98828 0
M  V30 14395 H 1339.25 -2.94993 -4.14556 0
M  V30 14396 H 1338.65 -0.149673 -5.65502 0
M  V30 14397 H 1337.2 -0.556358 -6.49421 0
M  V30 14398 N 1340.64 0.999871 -1.21821 0
M  V30 14399 C 1341.55 2.12303 -0.99823 0
M  V30 14400 C 1342.56 1.73924 0.0512923 0
M  V30 14401 O 1343.74 2.00914 -0.139895 0
M  V30 14402 C 1340.8 3.41962 -0.571232 0
M  V30 14403 C 1339.86 3.94483 -1.69356 0
M  V30 14404 C 1339.1 5.17954 -1.28685 0
M  V30 14405 O 1339.32 5.70168 -0.162641 0
M  V30 14406 O 1338.25 5.64051 -2.10071 0
M  V30 14407 H 1342.08 2.3374 -1.93905 0
M  V30 14408 H 1339.67 1.10677 -1.00354 0
M  V30 14409 H 1341.55 4.20001 -0.343134 0
M  V30 14410 H 1340.22 3.21901 0.340814 0
M  V30 14411 H 1339.13 3.17648 -1.97612 0
M  V30 14412 H 1340.46 4.18964 -2.58322 0
M  V30 14413 N 1342.11 1.02678 1.19562 0
M  V30 14414 C 1343.36 0.717279 1.88515 0
M  V30 14415 C 1343.68 -0.757063 1.80355 0
M  V30 14416 O 1344.88 -1.17953 2.44539 0
M  V30 14417 C 1343.34 1.23265 3.38133 0
M  V30 14418 C 1342.95 2.73462 3.54856 0
M  V30 14419 C 1344.69 0.99904 4.12577 0
M  V30 14420 C 1342.6 3.18428 4.98355 0
M  V30 14421 H 1341.53 0.264608 0.706044 0
M  V30 14422 H 1344.18 1.2408 1.3519 0
M  V30 14423 H 1342.56 0.637052 3.90842 0
M  V30 14424 H 1343.73 3.38659 3.12485 0
M  V30 14425 H 1342.05 2.95079 2.93798 0
M  V30 14426 H 1344.65 1.3103 5.18397 0
M  V30 14427 H 1344.99 -0.064217 4.1625 0
M  V30 14428 H 1345.52 1.55853 3.65998 0
M  V30 14429 H 1342.26 4.24074 4.99842 0
M  V30 14430 H 1341.78 2.57958 5.41496 0
M  V30 14431 H 1343.46 3.11649 5.66996 0
M  V30 14432 N 1343.59 -1.35528 0.804364 0
M  V30 14433 C 1344.82 -2.03604 0.395013 0
M  V30 14434 C 1345.24 -1.60225 -0.985371 0
M  V30 14435 O 1344.6 -0.777844 -1.63766 0
M  V30 14436 C 1344.65 -3.57337 0.484011 0
M  V30 14437 O 1343.75 -4.09316 -0.503395 0
M  V30 14438 H 1343.09 -0.643089 0.165325 0
M  V30 14439 H 1345.62 -1.73171 1.08963 0
M  V30 14440 H 1345.63 -4.0647 0.353009 0
M  V30 14441 H 1344.31 -3.8826 1.49088 0
M  V30 14442 H 1342.89 -3.71412 -0.332817 0
M  V30 14443 N 1345.07 -0.557671 -1.47404 0
M  V30 14444 C 1346.48 -0.124411 -1.86285 0
M  V30 14445 C 1346.83 1.30593 -1.46424 0
M  V30 14446 O 1345.96 1.9825 -0.867515 0
M  V30 14447 C 1346.55 -0.219005 -3.38091 0
M  V30 14448 C 1345.11 0.159221 -3.76063 0
M  V30 14449 C 1344.26 -0.566355 -2.71455 0
M  V30 14450 H 1347.21 -0.767367 -1.38914 0
M  V30 14451 H 1347.23 0.562267 -3.76323 0
M  V30 14452 H 1346.74 -1.26013 -3.67073 0
M  V30 14453 H 1344.84 1.20144 -3.52698 0
M  V30 14454 H 1344.96 -0.199662 -4.78684 0
M  V30 14455 H 1343.32 -0.00938921 -2.54698 0
M  V30 14456 H 1344.1 -1.60865 -3.03278 0
M  V30 14457 N 1346.55 1.54831 -0.294147 0
M  V30 14458 C 1347.96 1.85627 0.199866 0
M  V30 14459 C 1348.31 1.21613 1.53964 0
M  V30 14460 O 1347.44 0.511317 2.10272 0
M  V30 14461 C 1348.03 3.3678 0.369428 0
M  V30 14462 C 1346.59 3.67633 0.807663 0
M  V30 14463 C 1345.74 2.7716 -0.0880078 0
M  V30 14464 H 1348.69 1.50099 -0.515371 0
M  V30 14465 H 1348.71 3.60913 1.20508 0
M  V30 14466 H 1348.22 3.83342 -0.605831 0
M  V30 14467 H 1346.32 3.26583 1.79372 0
M  V30 14468 H 1346.44 4.74916 0.631799 0
M  V30 14469 H 1344.8 2.51017 0.431553 0
M  V30 14470 H 1345.58 3.26542 -1.0595 0
M  V30 14471 N 1348.03 0.0217466 1.57585 0
M  V30 14472 C 1349.44 -0.51811 1.79367 0
M  V30 14473 C 1349.79 -1.72688 0.931313 0
M  V30 14474 O 1348.91 -2.15949 0.139687 0
M  V30 14475 C 1349.51 -0.946711 3.25304 0
M  V30 14476 C 1348.07 -1.43173 3.48107 0
M  V30 14477 C 1347.22 -0.392996 2.74501 0
M  V30 14478 H 1350.17 0.247822 1.56753 0
M  V30 14479 H 1350.19 -1.81152 3.34611 0
M  V30 14480 H 1349.7 -0.0667536 3.88043 0
M  V30 14481 H 1347.8 -2.33186 2.90612 0
M  V30 14482 H 1347.91 -1.44419 4.56815 0
M  V30 14483 H 1346.28 -0.859471 2.39761 0
M  V30 14484 H 1347.06 0.478368 3.39951 0
M  V30 14485 N 1349.51 -1.55583 -0.251311 0
M  V30 14486 C 1350.73 -1.81259 -0.997636 0
M  V30 14487 C 1351.15 -0.596861 -1.79117 0
M  V30 14488 O 1350.51 0.434425 -1.77254 0
M  V30 14489 C 1350.56 -3.05097 -1.93902 0
M  V30 14490 O 1350.28 -4.21976 -1.1776 0
M  V30 14491 C 1351.78 -3.4354 -2.8017 0
M  V30 14492 H 1349 -0.603279 -0.29376 0
M  V30 14493 H 1351.54 -2.02635 -0.27553 0
M  V30 14494 H 1349.7 -2.85784 -2.61546 0
M  V30 14495 H 1350.11 -4.92133 -1.81398 0
M  V30 14496 H 1351.59 -4.33305 -3.41981 0
M  V30 14497 H 1352.06 -2.63924 -3.51057 0
M  V30 14498 H 1352.67 -3.65189 -2.17985 0
M  V30 14499 N 1350.98 0.516783 -1.48886 0
M  V30 14500 C 1351.95 1.60226 -1.63891 0
M  V30 14501 C 1352.95 1.52448 -0.511479 0
M  V30 14502 O 1354.14 1.55882 -0.777582 0
M  V30 14503 C 1351.27 2.99867 -1.62151 0
M  V30 14504 H 1352.46 1.48256 -2.60692 0
M  V30 14505 H 1350.01 0.739844 -1.37681 0
M  V30 14506 H 1350.75 3.1733 -0.668764 0
M  V30 14507 H 1350.53 3.0692 -2.44013 0
M  V30 14508 H 1352.02 3.7876 -1.7587 0
M  V30 14509 N 1352.46 1.37696 0.766659 0
M  V30 14510 C 1353.41 1.33966 1.90147 0
M  V30 14511 C 1354.4 0.2276 1.67864 0
M  V30 14512 O 1355.61 0.395912 1.75592 0
M  V30 14513 H 1351.98 0.417611 0.625384 0
M  V30 14514 H 1353.96 2.29753 1.9041 0
M  V30 14515 C 1352.7 1.16859 3.27474 0
M  V30 14516 H 1352.03 2.01686 3.452 0
M  V30 14517 H 1353.47 1.18301 4.07162 0
M  V30 14518 C 1351.93 -0.125418 3.36666 0
M  V30 14519 O 1352.46 -1.10717 3.86141 0
M  V30 14520 N 1350.66 -0.17784 2.90055 0
M  V30 14521 H 1350.21 0.621737 2.49984 0
M  V30 14522 H 1350.17 -1.04325 2.96587 0
M  V30 14523 N 1353.94 -0.993397 1.22349 0
M  V30 14524 C 1354.87 -2.10171 1.01737 0
M  V30 14525 C 1355.85 -1.69989 -0.0615276 0
M  V30 14526 O 1357.04 -1.93939 0.100591 0
M  V30 14527 C 1354.17 -3.42186 0.593801 0
M  V30 14528 C 1353.12 -3.96215 1.61858 0
M  V30 14529 C 1352.45 -5.24272 1.05086 0
M  V30 14530 C 1353.75 -4.26956 3.00842 0
M  V30 14531 H 1355.44 -2.27673 1.94436 0
M  V30 14532 H 1352.99 -1.09408 0.936258 0
M  V30 14533 H 1354.94 -4.19131 0.436715 0
M  V30 14534 H 1353.66 -3.2451 -0.368855 0
M  V30 14535 H 1352.32 -3.21401 1.76343 0
M  V30 14536 H 1351.97 -5.02937 0.0795747 0
M  V30 14537 H 1351.67 -5.61387 1.73547 0
M  V30 14538 H 1353.19 -6.03851 0.905349 0
M  V30 14539 H 1354.61 -4.94699 2.89734 0
M  V30 14540 H 1353 -4.75242 3.66422 0
M  V30 14541 H 1354.07 -3.34752 3.50812 0
M  V30 14542 N 1355.42 -1.03311 -1.19015 0
M  V30 14543 C 1356.69 -0.646539 -1.84606 0
M  V30 14544 C 1357.07 0.87449 -1.92135 0
M  V30 14545 O 1356.42 1.77291 -1.44154 0
M  V30 14546 C 1356.63 -1.31354 -3.23338 0
M  V30 14547 C 1357.98 -1.43949 -3.99455 0
M  V30 14548 O 1359 -1.27104 -3.32751 0
M  V30 14549 O 1357.86 -1.71328 -5.1895 0
M  V30 14550 H 1354.96 -0.225267 -0.795728 0
M  V30 14551 H 1357.5 -1.13152 -1.2647 0
M  V30 14552 H 1356.28 -2.3521 -3.12717 0
M  V30 14553 H 1355.9 -0.816688 -3.89122 0
M  V30 14554 N 1356.9 1.35099 -0.81154 0
M  V30 14555 C 1358.31 1.51701 -0.495883 0
M  V30 14556 C 1358.51 1.7595 0.982035 0
M  V30 14557 O 1357.57 1.8038 1.7669 0
M  V30 14558 C 1358.88 2.68916 -1.34554 0
M  V30 14559 C 1360.43 2.82795 -1.34149 0
M  V30 14560 C 1360.9 4.0304 -2.17538 0
M  V30 14561 N 1362.39 4.10227 -2.151 0
M  V30 14562 C 1363.13 5.02397 -2.76377 0
M  V30 14563 N 1362.63 5.99866 -3.46601 0
M  V30 14564 N 1364.42 4.95181 -2.65992 0
M  V30 14565 H 1356.57 1.17617 -1.76862 0
M  V30 14566 H 1358.83 0.575875 -0.753042 0
M  V30 14567 H 1358.54 2.57591 -2.39458 0
M  V30 14568 H 1358.41 3.63641 -1.00223 0
M  V30 14569 H 1360.8 2.93568 -0.300285 0
M  V30 14570 H 1360.88 1.88912 -1.7247 0
M  V30 14571 H 1360.52 3.93027 -3.21702 0
M  V30 14572 H 1360.45 4.96114 -1.76574 0
M  V30 14573 H 1362.95 3.40454 -1.6401 0
M  V30 14574 H 1363.26 6.66803 -3.90632 0
M  V30 14575 H 1361.6 6.00025 -3.50706 0
M  V30 14576 H 1364.79 4.17991 -2.10715 0
M  V30 14577 H 1364.97 5.6682 -3.14036 0
M  V30 14578 N 1358.37 0.56548 1.47106 0
M  V30 14579 C 1359.6 0.0476763 2.07345 0
M  V30 14580 C 1360.02 -1.24032 1.41413 0
M  V30 14581 O 1359.38 -1.74498 0.491941 0
M  V30 14582 C 1359.43 -0.122618 3.60391 0
M  V30 14583 O 1358.53 -1.18326 3.9506 0
M  V30 14584 H 1357.87 0.0550419 0.661715 0
M  V30 14585 H 1360.4 0.78352 1.89003 0
M  V30 14586 H 1360.41 -0.334227 4.06629 0
M  V30 14587 H 1359.09 0.81807 4.07775 0
M  V30 14588 H 1357.67 -0.951481 3.60557 0
M  V30 14589 N 1359.85 -1.54672 0.302354 0
M  V30 14590 C 1360.8 -2.25022 -0.58887 0
M  V30 14591 C 1361.79 -1.25671 -1.13592 0
M  V30 14592 O 1363 -1.43518 -1.0864 0
M  V30 14593 H 1359.38 -0.722515 -0.208509 0
M  V30 14594 H 1361.35 -2.98388 0.0269928 0
M  V30 14595 C 1360.1 -3.00532 -1.74859 0
M  V30 14596 H 1359.42 -3.76786 -1.33688 0
M  V30 14597 H 1360.86 -3.53036 -2.34823 0
M  V30 14598 C 1359.32 -2.0758 -2.65353 0
M  V30 14599 O 1359.85 -1.64473 -3.66485 0
M  V30 14600 N 1358.05 -1.73508 -2.33116 0
M  V30 14601 H 1357.6 -2.0876 -1.5092 0
M  V30 14602 H 1357.56 -1.11591 -2.9393 0
M  V30 14603 N 1361.33 -0.0301034 -1.57571 0
M  V30 14604 C 1362.61 0.68703 -1.83137 0
M  V30 14605 C 1362.99 1.90277 -0.914216 0
M  V30 14606 O 1362.34 2.2848 0.0299358 0
M  V30 14607 C 1362.55 1.06431 -3.32375 0
M  V30 14608 C 1363.89 1.45554 -3.98873 0
M  V30 14609 O 1364.92 1.15727 -3.36877 0
M  V30 14610 O 1363.78 2.01133 -5.08142 0
M  V30 14611 H 1360.87 0.337141 -0.755159 0
M  V30 14612 H 1363.42 -0.0578604 -1.69601 0
M  V30 14613 H 1362.19 0.199077 -3.90793 0
M  V30 14614 H 1361.81 1.86734 -3.51022 0
M  V30 14615 N 1362.81 1.55714 0.243056 0
M  V30 14616 C 1363.76 1.90638 1.30099 0
M  V30 14617 C 1364.73 0.761049 1.47639 0
M  V30 14618 O 1365.91 1.01505 1.61559 0
M  V30 14619 C 1363.05 2.20985 2.65065 0
M  V30 14620 C 1362.16 3.48343 2.55501 0
M  V30 14621 C 1361.3 3.68241 3.82847 0
M  V30 14622 C 1360.34 4.89187 3.67916 0
M  V30 14623 N 1359.47 5.05586 4.87162 0
M  V30 14624 H 1364.31 2.80857 0.996155 0
M  V30 14625 H 1361.85 1.39027 0.480619 0
M  V30 14626 H 1363.81 2.36585 3.43632 0
M  V30 14627 H 1362.44 1.33966 2.93689 0
M  V30 14628 H 1361.49 3.41054 1.68483 0
M  V30 14629 H 1362.8 4.37057 2.4038 0
M  V30 14630 H 1361.96 3.83822 4.69857 0
M  V30 14631 H 1360.7 2.77768 4.00869 0
M  V30 14632 H 1359.7 4.7358 2.79289 0
M  V30 14633 H 1360.93 5.81124 3.51385 0
M  V30 14634 H 1358.87 4.18051 5.05538 0
M  V30 14635 H 1358.79 5.88395 4.74686 0
M  V30 14636 H 1360.06 5.25582 5.7566 0
M  V30 14637 N 1364.29 -0.50888 1.49158 0
M  V30 14638 C 1365.53 -1.26537 1.58481 0
M  V30 14639 C 1365.87 -1.92353 0.267168 0
M  V30 14640 O 1365.14 -1.80336 -0.728639 0
M  V30 14641 C 1365.42 -2.33846 2.73839 0
M  V30 14642 C 1365.28 -1.72582 4.15374 0
M  V30 14643 C 1366.6 -3.35467 2.84868 0
M  V30 14644 H 1363.71 -0.458697 0.576859 0
M  V30 14645 H 1366.36 -0.564728 1.81413 0
M  V30 14646 H 1364.51 -2.93605 2.54417 0
M  V30 14647 H 1366.18 -1.16711 4.46292 0
M  V30 14648 H 1364.42 -1.03025 4.21389 0
M  V30 14649 H 1365.09 -2.5038 4.91949 0
M  V30 14650 H 1367.57 -2.85689 3.02524 0
M  V30 14651 H 1366.44 -4.07922 3.67275 0
M  V30 14652 H 1366.71 -3.97313 1.93894 0
M  V30 14653 N 1365.76 -1.381 -0.759346 0
M  V30 14654 C 1366.99 -1.37014 -1.54631 0
M  V30 14655 C 1367.4 0.0433843 -1.8915 0
M  V30 14656 O 1366.75 1.01888 -1.52855 0
M  V30 14657 C 1366.81 -2.15575 -2.87693 0
M  V30 14658 C 1366.47 -3.64438 -2.75743 0
M  V30 14659 C 1367.47 -4.58055 -2.45929 0
M  V30 14660 C 1365.15 -4.0772 -2.93376 0
M  V30 14661 C 1367.15 -5.92935 -2.33894 0
M  V30 14662 C 1364.83 -5.42682 -2.80961 0
M  V30 14663 C 1365.83 -6.35103 -2.51262 0
M  V30 14664 O 1365.52 -7.67583 -2.38896 0
M  V30 14665 H 1365.25 -0.47062 -0.485276 0
M  V30 14666 H 1367.81 -1.82214 -0.948 0
M  V30 14667 H 1366.04 -1.65084 -3.49691 0
M  V30 14668 H 1367.73 -2.06968 -3.49169 0
M  V30 14669 H 1368.49 -4.25923 -2.3198 0
M  V30 14670 H 1364.37 -3.36135 -3.15491 0
M  V30 14671 H 1367.91 -6.65041 -2.10634 0
M  V30 14672 H 1363.81 -5.74413 -2.94482 0
M  V30 14673 H 1364.58 -7.78042 -2.54152 0
M  V30 14674 N 1367.24 0.986894 -1.22875 0
M  V30 14675 C 1368.15 2.11232 -1.02069 0
M  V30 14676 C 1369.17 1.73969 0.0328424 0
M  V30 14677 O 1370.34 2.00754 -0.161197 0
M  V30 14678 C 1367.41 3.41337 -0.60747 0
M  V30 14679 C 1366.47 3.92665 -1.73531 0
M  V30 14680 C 1365.7 5.1656 -1.34171 0
M  V30 14681 O 1365.93 5.69964 -0.223106 0
M  V30 14682 O 1364.86 5.61791 -2.16041 0
M  V30 14683 H 1368.69 2.3167 -1.96374 0
M  V30 14684 H 1366.27 1.09607 -1.01522 0
M  V30 14685 H 1368.15 4.19613 -0.387661 0
M  V30 14686 H 1366.83 3.22244 0.306653 0
M  V30 14687 H 1365.74 3.15534 -2.0097 0
M  V30 14688 H 1367.07 4.162 -2.62751 0
M  V30 14689 N 1368.72 1.0394 1.18466 0
M  V30 14690 C 1369.67 0.623063 2.241 0
M  V30 14691 C 1370.66 -0.349518 1.65755 0
M  V30 14692 O 1371.87 -0.216947 1.78688 0
M  V30 14693 H 1368.24 0.183263 0.729327 0
M  V30 14694 H 1370.21 1.52439 2.56524 0
M  V30 14695 C 1368.96 0.000626805 3.477 0
M  V30 14696 H 1368.29 0.740056 3.92891 0
M  V30 14697 H 1369.73 -0.253484 4.23242 0
M  V30 14698 C 1368.19 -1.24907 3.1289 0
M  V30 14699 O 1368.72 -2.33996 3.2651 0
M  V30 14700 N 1366.92 -1.14187 2.67226 0
M  V30 14701 H 1366.47 -0.254146 2.56343 0
M  V30 14702 H 1366.43 -1.97893 2.44307 0
M  V30 14703 N 1370.2 -1.34667 0.818693 0
M  V30 14704 C 1371.44 -1.98708 0.405359 0
M  V30 14705 C 1371.78 -1.64767 -1.02788 0
M  V30 14706 O 1371.05 -0.91714 -1.71519 0
M  V30 14707 C 1371.34 -3.55016 0.602966 0
M  V30 14708 C 1371.19 -3.98713 2.08201 0
M  V30 14709 C 1372.51 -4.40085 0.0362489 0
M  V30 14710 H 1369.63 -0.721831 0.148756 0
M  V30 14711 H 1372.27 -1.59628 1.03047 0
M  V30 14712 H 1370.42 -3.88435 0.0708453 0
M  V30 14713 H 1372.09 -3.75647 2.67745 0
M  V30 14714 H 1370.33 -3.49179 2.57403 0
M  V30 14715 H 1371 -5.0751 2.17111 0
M  V30 14716 H 1373.48 -4.13195 0.490837 0
M  V30 14717 H 1372.36 -5.4852 0.204344 0
M  V30 14718 H 1372.62 -4.29243 -1.05845 0
M  V30 14719 N 1371.68 -0.573274 -1.46804 0
M  V30 14720 C 1372.9 -0.0605984 -2.06811 0
M  V30 14721 C 1373.32 1.24024 -1.4235 0
M  V30 14722 O 1372.68 1.7477 -0.525515 0
M  V30 14723 C 1372.73 0.121828 -3.61295 0
M  V30 14724 O 1372.45 -1.12751 -4.23342 0
M  V30 14725 C 1373.95 0.669941 -4.38208 0
M  V30 14726 H 1371.17 -0.0531498 -0.668892 0
M  V30 14727 H 1373.71 -0.791259 -1.88572 0
M  V30 14728 H 1371.87 0.802674 -3.78993 0
M  V30 14729 H 1372.28 -0.935361 -5.16092 0
M  V30 14730 H 1373.76 0.746806 -5.46925 0
M  V30 14731 H 1374.23 1.68483 -4.05598 0
M  V30 14732 H 1374.84 0.0242721 -4.25293 0
M  V30 14733 N 1373.15 1.5451 -0.310553 0
M  V30 14734 C 1374.4 1.99931 0.29532 0
M  V30 14735 C 1374.72 1.20042 1.53672 0
M  V30 14736 O 1373.99 0.298841 1.93607 0
M  V30 14737 H 1372.57 0.738539 0.112111 0
M  V30 14738 H 1375.24 1.9023 -0.424092 0
M  V30 14739 H 1374.33 3.07021 0.560749 0
M  V30 14740 N 1374.63 0.0384594 1.57553 0
M  V30 14741 C 1375.56 -0.938444 2.13812 0
M  V30 14742 C 1376.54 -1.33307 1.05657 0
M  V30 14743 O 1377.73 -1.41003 1.33535 0
M  V30 14744 C 1374.86 -2.21764 2.67279 0
M  V30 14745 C 1373.81 -1.96347 3.80305 0
M  V30 14746 C 1373.14 -3.30612 4.20238 0
M  V30 14747 C 1374.44 -1.2952 5.05986 0
M  V30 14748 H 1376.13 -0.469887 2.9569 0
M  V30 14749 H 1373.68 -0.224576 1.42238 0
M  V30 14750 H 1375.63 -2.90493 3.05273 0
M  V30 14751 H 1374.36 -2.70802 1.82576 0
M  V30 14752 H 1373.02 -1.30033 3.42764 0
M  V30 14753 H 1372.66 -3.77427 3.32502 0
M  V30 14754 H 1372.36 -3.14409 4.96408 0
M  V30 14755 H 1373.89 -4.00594 4.60822 0
M  V30 14756 H 1375.3 -1.88264 5.41507 0
M  V30 14757 H 1373.7 -1.23685 5.87216 0
M  V30 14758 H 1374.77 -0.269439 4.84151 0
M  V30 14759 N 1376.11 -1.55841 -0.234795 0
M  V30 14760 C 1377.36 -1.78502 -0.96254 0
M  V30 14761 C 1377.69 -0.605832 -1.84508 0
M  V30 14762 O 1376.97 0.395446 -1.90438 0
M  V30 14763 C 1377.25 -3.11144 -1.81277 0
M  V30 14764 C 1377.1 -4.39488 -0.957607 0
M  V30 14765 C 1378.42 -3.40114 -2.79304 0
M  V30 14766 H 1375.54 -0.649397 -0.348501 0
M  V30 14767 H 1378.18 -1.88575 -0.23224 0
M  V30 14768 H 1376.33 -3.02687 -2.43542 0
M  V30 14769 H 1378 -4.59949 -0.352726 0
M  V30 14770 H 1376.25 -4.33005 -0.262454 0
M  V30 14771 H 1376.92 -5.28707 -1.58659 0
M  V30 14772 H 1379.39 -3.48612 -2.27175 0
M  V30 14773 H 1378.27 -4.34118 -3.35906 0
M  V30 14774 H 1378.53 -2.61623 -3.56378 0
M  V30 14775 N 1377.59 0.500963 -1.49426 0
M  V30 14776 C 1378.54 1.6025 -1.66098 0
M  V30 14777 C 1379.51 1.58318 -0.502453 0
M  V30 14778 O 1380.69 1.76304 -0.729482 0
M  V30 14779 C 1377.83 2.98396 -1.73361 0
M  V30 14780 C 1376.94 3.10343 -3.00518 0
M  V30 14781 C 1376.08 4.39222 -2.9876 0
M  V30 14782 C 1375.12 4.44803 -4.20496 0
M  V30 14783 N 1374.26 5.6511 -4.16648 0
M  V30 14784 H 1379.1 1.45342 -2.60153 0
M  V30 14785 H 1376.63 0.707147 -1.28988 0
M  V30 14786 H 1378.59 3.78467 -1.75553 0
M  V30 14787 H 1377.22 3.12007 -0.827718 0
M  V30 14788 H 1376.27 2.23336 -3.07937 0
M  V30 14789 H 1377.58 3.10327 -3.90511 0
M  V30 14790 H 1376.74 5.27613 -2.99515 0
M  V30 14791 H 1375.48 4.41804 -2.06545 0
M  V30 14792 H 1374.48 3.54814 -4.19985 0
M  V30 14793 H 1375.71 4.43937 -5.13903 0
M  V30 14794 H 1373.65 5.68533 -3.2727 0
M  V30 14795 H 1373.57 5.6671 -5.00376 0
M  V30 14796 H 1374.84 6.55708 -4.21506 0
M  V30 14797 N 1379.07 1.38501 0.752011 0
M  V30 14798 C 1380.03 1.35655 1.84744 0
M  V30 14799 C 1381.03 0.256772 1.58737 0
M  V30 14800 O 1382.22 0.513749 1.66452 0
M  V30 14801 C 1379.35 1.11231 3.22243 0
M  V30 14802 H 1380.55 2.33114 1.88674 0
M  V30 14803 H 1378.1 1.23818 0.953882 0
M  V30 14804 H 1378.83 0.143848 3.23981 0
M  V30 14805 H 1378.62 1.90857 3.42515 0
M  V30 14806 H 1380.11 1.11939 4.02318 0
M  V30 14807 N 1380.55 -0.980364 1.23396 0
M  V30 14808 C 1381.79 -1.72421 1.06765 0
M  V30 14809 C 1382.12 -1.90151 -0.394515 0
M  V30 14810 O 1381.4 -1.4538 -1.29209 0
M  V30 14811 C 1381.68 -3.12246 1.79372 0
M  V30 14812 C 1381.54 -3.02087 3.33262 0
M  V30 14813 C 1382.85 -4.11667 1.55624 0
M  V30 14814 H 1379.97 -0.625822 0.389251 0
M  V30 14815 H 1382.62 -1.14132 1.51901 0
M  V30 14816 H 1380.77 -3.62008 1.41004 0
M  V30 14817 H 1382.44 -2.59848 3.81152 0
M  V30 14818 H 1380.68 -2.38592 3.62293 0
M  V30 14819 H 1381.35 -4.01087 3.79254 0
M  V30 14820 H 1383.83 -3.70712 1.88975 0
M  V30 14821 H 1382.7 -5.07593 2.08902 0
M  V30 14822 H 1382.96 -4.39358 0.491601 0
M  V30 14823 N 1382.02 -1.04567 -1.17913 0
M  V30 14824 C 1383.27 -0.747179 -1.8735 0
M  V30 14825 C 1383.59 0.728274 -1.81537 0
M  V30 14826 O 1384.79 1.14048 -2.46385 0
M  V30 14827 C 1383.25 -1.28629 -3.36129 0
M  V30 14828 C 1382.86 -2.79073 -3.5046 0
M  V30 14829 C 1384.6 -1.06455 -4.10935 0
M  V30 14830 C 1382.51 -3.26316 -4.93226 0
M  V30 14831 H 1381.44 -0.275807 -0.701745 0
M  V30 14832 H 1384.09 -1.26215 -1.33199 0
M  V30 14833 H 1382.47 -0.699151 -3.89779 0
M  V30 14834 H 1383.64 -3.43587 -3.07057 0
M  V30 14835 H 1381.96 -2.99716 -2.89066 0
M  V30 14836 H 1384.56 -1.3926 -5.16247 0
M  V30 14837 H 1384.9 -0.00201298 -4.163 0
M  V30 14838 H 1385.43 -1.61656 -3.63472 0
M  V30 14839 H 1382.17 -4.31972 -4.93032 0
M  V30 14840 H 1381.69 -2.6654 -5.37323 0
M  V30 14841 H 1383.37 -3.2063 -5.61966 0
M  V30 14842 N 1383.5 1.34231 -0.825823 0
M  V30 14843 C 1384.41 2.33245 -0.251803 0
M  V30 14844 C 1385.43 1.62756 0.615334 0
M  V30 14845 O 1386.6 1.94503 0.522547 0
M  V30 14846 C 1383.67 3.41908 0.574456 0
M  V30 14847 C 1382.73 4.2814 -0.315422 0
M  V30 14848 C 1381.96 5.31613 0.471496 0
M  V30 14849 O 1382.19 5.44337 1.70449 0
M  V30 14850 O 1381.12 6.01719 -0.147691 0
M  V30 14851 H 1384.95 2.84174 -1.07139 0
M  V30 14852 H 1382.53 1.37341 -0.588032 0
M  V30 14853 H 1384.41 4.08252 1.04444 0
M  V30 14854 H 1383.09 2.93217 1.37132 0
M  V30 14855 H 1381.99 3.64709 -0.832963 0
M  V30 14856 H 1383.33 4.80279 -1.07672 0
M  V30 14857 N 1384.98 0.581051 1.46498 0
M  V30 14858 C 1385.91 -0.201475 2.27309 0
M  V30 14859 C 1386.89 -0.898424 1.35525 0
M  V30 14860 O 1388.07 -0.912643 1.64934 0
M  V30 14861 C 1385.2 -1.28896 3.13215 0
M  V30 14862 C 1384.25 -0.698028 4.20749 0
M  V30 14863 S 1385.08 0.473812 5.334 0
M  V30 14864 C 1386.24 -0.614916 6.22872 0
M  V30 14865 H 1386.47 0.484205 2.9333 0
M  V30 14866 H 1384 0.367907 1.49953 0
M  V30 14867 H 1385.96 -1.91162 3.63273 0
M  V30 14868 H 1384.62 -1.94658 2.46509 0
M  V30 14869 H 1383.81 -1.51542 4.80678 0
M  V30 14870 H 1383.42 -0.151069 3.73695 0
M  V30 14871 H 1385.71 -1.501 6.60663 0
M  V30 14872 H 1386.65 -0.0524259 7.08081 0
M  V30 14873 H 1387.06 -0.918315 5.5698 0
M  V30 14874 N 1386.46 -1.54343 0.318742 0
M  V30 14875 C 1387.68 -2.05361 -0.290126 0
M  V30 14876 C 1388.11 -1.19362 -1.45376 0
M  V30 14877 O 1387.47 -0.201639 -1.80175 0
M  V30 14878 C 1387.51 -3.53601 -0.707025 0
M  V30 14879 O 1386.62 -3.70561 -1.80992 0
M  V30 14880 H 1385.96 -0.661858 -0.0532933 0
M  V30 14881 H 1388.49 -1.99228 0.46575 0
M  V30 14882 H 1388.5 -3.95782 -0.991005 0
M  V30 14883 H 1387.17 -4.1565 0.144091 0
M  V30 14884 H 1385.75 -3.40286 -1.52513 0
M  V30 14885 N 1387.94 -0.0468143 -1.5753 0
M  V30 14886 C 1389.16 0.641161 -1.97241 0
M  V30 14887 C 1389.59 1.6384 -0.92401 0
M  V30 14888 O 1388.94 1.80946 0.113229 0
M  V30 14889 C 1388.99 1.30832 -3.36029 0
M  V30 14890 O 1388.1 2.42394 -3.33645 0
M  V30 14891 H 1387.44 0.167035 -0.642647 0
M  V30 14892 H 1389.97 -0.113921 -2.04283 0
M  V30 14893 H 1389.98 1.66102 -3.72658 0
M  V30 14894 H 1388.65 0.57744 -4.11872 0
M  V30 14895 H 1387.23 2.09104 -3.08756 0
M  V30 14896 N 1389.41 1.55964 0.226527 0
M  V30 14897 C 1390.36 1.92007 1.28069 0
M  V30 14898 C 1391.33 0.776666 1.46823 0
M  V30 14899 O 1392.52 1.03213 1.60474 0
M  V30 14900 C 1389.66 2.23784 2.62707 0
M  V30 14901 C 1388.77 3.51034 2.51792 0
M  V30 14902 C 1387.9 3.72281 3.7892 0
M  V30 14903 C 1386.94 4.93062 3.62707 0
M  V30 14904 N 1386.08 5.10725 4.81772 0
M  V30 14905 H 1390.92 2.81898 0.96631 0
M  V30 14906 H 1388.46 1.39529 0.465847 0
M  V30 14907 H 1390.42 2.40217 3.41104 0
M  V30 14908 H 1389.05 1.37073 2.92251 0
M  V30 14909 H 1388.1 3.42822 1.64856 0
M  V30 14910 H 1389.41 4.39582 2.35731 0
M  V30 14911 H 1388.56 3.88783 4.6576 0
M  V30 14912 H 1387.3 2.82004 3.97901 0
M  V30 14913 H 1386.31 4.76515 2.7425 0
M  V30 14914 H 1387.53 5.84819 3.45201 0
M  V30 14915 H 1385.48 4.2339 5.01076 0
M  V30 14916 H 1385.4 5.93397 4.68419 0
M  V30 14917 H 1386.66 5.31658 5.70053 0
M  V30 14918 N 1390.89 -0.493031 1.4969 0
M  V30 14919 C 1392.14 -1.2433 1.58823 0
M  V30 14920 C 1392.45 -1.9353 0.283823 0
M  V30 14921 O 1393.66 -2.70311 0.253801 0
M  V30 14922 C 1392.12 -2.25792 2.8026 0
M  V30 14923 C 1391.72 -1.62496 4.17491 0
M  V30 14924 C 1393.47 -3.01598 2.98729 0
M  V30 14925 C 1391.38 -2.62115 5.30141 0
M  V30 14926 H 1390.31 -0.467738 0.591386 0
M  V30 14927 H 1392.96 -0.516238 1.76089 0
M  V30 14928 H 1391.34 -3.01696 2.56506 0
M  V30 14929 H 1392.51 -0.925305 4.51414 0
M  V30 14930 H 1390.83 -0.990516 4.04447 0
M  V30 14931 H 1393.42 -3.76111 3.80058 0
M  V30 14932 H 1393.77 -3.59687 2.09597 0
M  V30 14933 H 1394.3 -2.32809 3.2256 0
M  V30 14934 H 1391.04 -2.08797 6.21357 0
M  V30 14935 H 1390.56 -3.30298 5.00663 0
M  V30 14936 H 1392.24 -3.24385 5.59807 0
M  V30 14937 N 1392.37 -1.38898 -0.744656 0
M  V30 14938 C 1393.3 -1.32739 -1.8685 0
M  V30 14939 C 1394.32 -0.23793 -1.61052 0
M  V30 14940 O 1395.5 -0.496166 -1.71466 0
M  V30 14941 C 1392.6 -1.03602 -3.22676 0
M  V30 14942 C 1391.78 -2.23634 -3.75908 0
M  V30 14943 C 1390.84 -1.91103 -4.90271 0
M  V30 14944 O 1389.86 -2.6369 -5.04437 0
M  V30 14945 N 1391.06 -0.871358 -5.73923 0
M  V30 14946 H 1393.83 -2.29585 -1.92641 0
M  V30 14947 H 1391.39 -1.32875 -0.924979 0
M  V30 14948 H 1393.38 -0.798755 -3.96739 0
M  V30 14949 H 1391.95 -0.155218 -3.12214 0
M  V30 14950 H 1391.17 -2.63371 -2.93307 0
M  V30 14951 H 1392.46 -3.0372 -4.08205 0
M  V30 14952 H 1391.86 -0.269591 -5.65057 0
M  V30 14953 H 1390.42 -0.693984 -6.48095 0
M  V30 14954 N 1393.85 0.973806 -1.23914 0
M  V30 14955 C 1395.26 1.53057 -1.06913 0
M  V30 14956 C 1395.61 1.92842 0.361423 0
M  V30 14957 O 1394.74 1.76716 1.24901 0
M  V30 14958 C 1395.33 2.78137 -1.93457 0
M  V30 14959 C 1393.89 3.3019 -1.80697 0
M  V30 14960 C 1393.04 2.03137 -1.88761 0
M  V30 14961 H 1395.99 0.792767 -1.37481 0
M  V30 14962 H 1396.01 3.5124 -1.46325 0
M  V30 14963 H 1395.52 2.49149 -2.97568 0
M  V30 14964 H 1393.62 3.64043 -0.793951 0
M  V30 14965 H 1393.73 3.99503 -2.64451 0
M  V30 14966 H 1392.1 2.17572 -1.32418 0
M  V30 14967 H 1392.88 1.76522 -2.9444 0
M  V30 14968 N 1395.33 1.05191 1.17357 0
M  V30 14969 C 1396.29 0.65713 2.19578 0
M  V30 14970 C 1397.29 -0.29138 1.58138 0
M  V30 14971 O 1398.48 -0.075254 1.74037 0
M  V30 14972 C 1395.61 -0.0348162 3.40882 0
M  V30 14973 H 1396.8 1.56188 2.56018 0
M  V30 14974 H 1394.36 0.845795 1.31438 0
M  V30 14975 H 1395.09 -0.952835 3.09986 0
M  V30 14976 H 1394.88 0.647076 3.86724 0
M  V30 14977 H 1396.37 -0.297135 4.16542 0
M  V30 14978 N 1396.8 -1.33791 0.83293 0
M  V30 14979 C 1398.22 -1.80336 0.483294 0
M  V30 14980 C 1398.57 -1.68969 -0.997195 0
M  V30 14981 O 1397.69 -1.23549 -1.77664 0
M  V30 14982 C 1398.29 -3.27427 0.870475 0
M  V30 14983 C 1396.85 -3.72012 0.573064 0
M  V30 14984 C 1395.99 -2.55319 1.08201 0
M  V30 14985 H 1398.94 -1.21396 1.02218 0
M  V30 14986 H 1398.96 -3.80083 0.178173 0
M  V30 14987 H 1398.48 -3.35668 1.94804 0
M  V30 14988 H 1396.58 -3.69302 -0.494678 0
M  V30 14989 H 1396.69 -4.65725 1.12414 0
M  V30 14990 H 1395.05 -2.49681 0.503123 0
M  V30 14991 H 1395.84 -2.66326 2.16623 0
M  V30 14992 N 1398.28 -0.588812 -1.46187 0
M  V30 14993 C 1399.69 -0.163897 -1.85979 0
M  V30 14994 C 1400.04 1.27458 -1.49161 0
M  V30 14995 O 1399.17 1.96365 -0.909372 0
M  V30 14996 C 1399.76 -0.29067 -3.37551 0
M  V30 14997 C 1398.32 0.0794165 -3.76316 0
M  V30 14998 C 1397.47 -0.623807 -2.70192 0
M  V30 14999 H 1400.42 -0.79666 -1.37255 0
M  V30 15000 H 1400.44 0.482316 -3.77431 0
M  V30 15001 H 1399.95 -1.33771 -3.64317 0
M  V30 15002 H 1398.06 1.12636 -3.55168 0
M  V30 15003 H 1398.17 -0.301153 -4.78153 0
M  V30 15004 H 1396.53 -0.0634124 -2.54621 0
M  V30 15005 H 1397.32 -1.67261 -2.99797 0
M  V30 15006 N 1399.76 1.54172 -0.326923 0
M  V30 15007 C 1400.67 2.28149 0.546351 0
M  V30 15008 C 1401.69 1.32628 1.12631 0
M  V30 15009 O 1402.86 1.65647 1.14556 0
M  V30 15010 C 1399.93 3.02742 1.68962 0
M  V30 15011 C 1398.99 4.13856 1.14112 0
M  V30 15012 C 1398.22 4.84882 2.2299 0
M  V30 15013 O 1398.44 4.55448 3.43399 0
M  V30 15014 O 1397.38 5.71714 1.8822 0
M  V30 15015 H 1401.2 3.03651 -0.0545288 0
M  V30 15016 H 1398.79 1.49113 -0.0925027 0
M  V30 15017 H 1400.67 3.49443 2.35515 0
M  V30 15018 H 1399.35 2.30113 2.27662 0
M  V30 15019 H 1398.25 3.71497 0.440579 0
M  V30 15020 H 1399.59 4.88539 0.599211 0
M  V30 15021 N 1401.24 0.0551678 1.57503 0
M  V30 15022 C 1402.15 -0.932959 2.15251 0
M  V30 15023 C 1403.16 -1.33885 1.11134 0
M  V30 15024 O 1404.34 -1.41495 1.43321 0
M  V30 15025 C 1401.41 -2.18807 2.68932 0
M  V30 15026 C 1400.47 -1.84016 3.87862 0
M  V30 15027 C 1399.7 -3.03543 4.38973 0
M  V30 15028 O 1399.92 -4.17041 3.89144 0
M  V30 15029 O 1398.86 -2.84325 5.30512 0
M  V30 15030 H 1402.68 -0.471816 3.00013 0
M  V30 15031 H 1400.27 -0.16696 1.48464 0
M  V30 15032 H 1402.15 -2.92439 3.0341 0
M  V30 15033 H 1400.82 -2.64051 1.87239 0
M  V30 15034 H 1399.73 -1.07687 3.58266 0
M  V30 15035 H 1401.06 -1.43567 4.70796 0
M  V30 15036 N 1402.72 -1.56081 -0.218252 0
M  V30 15037 C 1403.95 -1.83069 -0.957574 0
M  V30 15038 C 1404.35 -0.6325 -1.78315 0
M  V30 15039 O 1403.7 0.408298 -1.79105 0
M  V30 15040 C 1403.76 -3.03835 -1.92157 0
M  V30 15041 C 1403.42 -4.38702 -1.2802 0
M  V30 15042 C 1404.42 -5.15585 -0.66846 0
M  V30 15043 C 1402.11 -4.85427 -1.29098 0
M  V30 15044 C 1404.1 -6.37355 -0.0760499 0
M  V30 15045 C 1401.79 -6.07138 -0.69473 0
M  V30 15046 C 1402.78 -6.82943 -0.0883201 0
M  V30 15047 O 1402.47 -8.02352 0.498648 0
M  V30 15048 H 1402.2 -0.612493 -0.286057 0
M  V30 15049 H 1404.76 -2.04021 -0.23759 0
M  V30 15050 H 1402.99 -2.78709 -2.68064 0
M  V30 15051 H 1404.68 -3.17666 -2.52672 0
M  V30 15052 H 1405.44 -4.80592 -0.652434 0
M  V30 15053 H 1401.32 -4.26395 -1.75238 0
M  V30 15054 H 1404.87 -6.96464 0.397893 0
M  V30 15055 H 1400.76 -6.41604 -0.70818 0
M  V30 15056 H 1401.53 -8.17555 0.393289 0
M  V30 15057 N 1404.2 0.485086 -1.49949 0
M  V30 15058 C 1405.44 1.23999 -1.60474 0
M  V30 15059 C 1405.77 1.91904 -0.297736 0
M  V30 15060 O 1405.05 1.81472 0.699857 0
M  V30 15061 C 1405.33 2.2946 -2.77525 0
M  V30 15062 C 1405.19 1.65952 -4.18067 0
M  V30 15063 C 1406.5 3.30893 -2.90169 0
M  V30 15064 H 1403.62 0.449462 -0.584083 0
M  V30 15065 H 1406.27 0.535795 -1.82289 0
M  V30 15066 H 1404.42 2.89521 -2.59056 0
M  V30 15067 H 1406.09 1.09596 -4.48092 0
M  V30 15068 H 1404.33 0.963079 -4.22974 0
M  V30 15069 H 1405 2.42521 -4.9587 0
M  V30 15070 H 1407.48 2.8084 -3.07031 0
M  V30 15071 H 1406.35 4.02027 -3.73718 0
M  V30 15072 H 1406.61 3.94178 -2.0019 0
M  V30 15073 N 1405.67 1.39291 0.737279 0
M  V30 15074 C 1407.08 1.32489 1.31543 0
M  V30 15075 C 1407.44 -0.0118162 1.96196 0
M  V30 15076 O 1406.56 -0.913938 1.96153 0
M  V30 15077 C 1407.16 2.39946 2.39189 0
M  V30 15078 C 1405.71 2.36671 2.92684 0
M  V30 15079 C 1404.86 2.21953 1.66229 0
M  V30 15080 H 1407.81 1.49412 0.534954 0
M  V30 15081 H 1407.83 2.06603 3.19524 0
M  V30 15082 H 1407.35 3.3722 1.92104 0
M  V30 15083 H 1405.45 1.43028 3.44055 0
M  V30 15084 H 1405.56 3.31441 3.45953 0
M  V30 15085 H 1403.92 1.69087 1.90478 0
M  V30 15086 H 1404.71 3.21194 1.21199 0
M  V30 15087 N 1407.15 -0.967221 1.24429 0
M  V30 15088 C 1408.08 -2.06071 0.980314 0
M  V30 15089 C 1409.06 -1.62372 -0.0860829 0
M  V30 15090 O 1410.25 -1.88431 0.0509524 0
M  V30 15091 C 1407.37 -3.35289 0.479452 0
M  V30 15092 C 1406.42 -3.9794 1.53447 0
M  V30 15093 S 1407.25 -4.3551 3.11595 0
M  V30 15094 C 1408.41 -5.67865 2.63212 0
M  V30 15095 H 1408.64 -2.28145 1.90623 0
M  V30 15096 H 1406.17 -1.10519 1.07819 0
M  V30 15097 H 1408.13 -4.10027 0.197103 0
M  V30 15098 H 1406.79 -3.11201 -0.425755 0
M  V30 15099 H 1405.99 -4.91067 1.13445 0
M  V30 15100 H 1405.59 -3.29634 1.76685 0
M  V30 15101 H 1407.88 -6.45405 2.06054 0
M  V30 15102 H 1408.82 -6.12724 3.5493 0
M  V30 15103 H 1409.23 -5.26496 2.03623 0
M  V30 15104 N 1408.63 -1.05812 -1.16797 0
M  V30 15105 C 1409.88 -0.773066 -1.87487 0
M  V30 15106 C 1410.21 0.698471 -1.81204 0
M  V30 15107 O 1409.48 1.51129 -1.22434 0
M  V30 15108 C 1409.77 -1.2621 -3.37258 0
M  V30 15109 C 1409.62 -2.79704 -3.52258 0
M  V30 15110 C 1410.94 -0.866104 -4.31494 0
M  V30 15111 H 1408.06 -0.282304 -0.680789 0
M  V30 15112 H 1410.7 -1.3132 -1.37314 0
M  V30 15113 H 1408.85 -0.802608 -3.80119 0
M  V30 15114 H 1410.52 -3.33824 -3.1837 0
M  V30 15115 H 1408.76 -3.18673 -2.94329 0
M  V30 15116 H 1409.44 -3.08985 -4.57419 0
M  V30 15117 H 1411.91 -1.26178 -3.96508 0
M  V30 15118 H 1410.79 -1.23581 -5.34807 0
M  V30 15119 H 1411.05 0.229391 -4.41504 0
M  V30 15120 N 1410.11 1.33347 -0.840014 0
M  V30 15121 C 1411.05 2.29191 -0.272048 0
M  V30 15122 C 1412.02 1.54383 0.612787 0
M  V30 15123 O 1413.21 1.82676 0.550812 0
M  V30 15124 C 1410.35 3.40755 0.545901 0
M  V30 15125 C 1409.46 4.30471 -0.363084 0
M  V30 15126 C 1408.6 5.29151 0.466078 0
M  V30 15127 C 1407.64 6.10508 -0.441225 0
M  V30 15128 N 1406.77 7.01228 0.349877 0
M  V30 15129 H 1411.61 2.77166 -1.09467 0
M  V30 15130 H 1409.15 1.36379 -0.551284 0
M  V30 15131 H 1411.11 4.04142 1.03562 0
M  V30 15132 H 1409.74 2.9397 1.33348 0
M  V30 15133 H 1408.79 3.67795 -0.971119 0
M  V30 15134 H 1410.1 4.87406 -1.06002 0
M  V30 15135 H 1409.26 5.98072 1.01957 0
M  V30 15136 H 1408 4.72796 1.19644 0
M  V30 15137 H 1407 5.40504 -1.00672 0
M  V30 15138 H 1408.23 6.68946 -1.16997 0
M  V30 15139 H 1406.17 6.4732 1.0636 0
M  V30 15140 H 1406.09 7.5545 -0.288317 0
M  V30 15141 H 1407.36 7.74453 0.885573 0
M  V30 15142 N 1411.59 0.596556 1.45873 0
M  V30 15143 C 1412.5 -0.130832 2.34235 0
M  V30 15144 C 1413.51 -0.871805 1.50584 0
M  V30 15145 O 1414.69 -0.831877 1.83417 0
M  V30 15146 C 1411.75 -1.12279 3.28016 0
M  V30 15147 C 1410.81 -0.384982 4.2757 0
M  V30 15148 C 1410.05 -1.32969 5.1687 0
M  V30 15149 O 1410.27 -2.56696 5.09375 0
M  V30 15150 O 1409.2 -0.832741 5.96112 0
M  V30 15151 H 1413.03 0.59503 2.97814 0
M  V30 15152 H 1410.61 0.356873 1.45075 0
M  V30 15153 H 1412.5 -1.6944 3.85834 0
M  V30 15154 H 1411.17 -1.82988 2.67015 0
M  V30 15155 H 1410.08 0.228816 3.734 0
M  V30 15156 H 1411.41 0.281398 4.91395 0
M  V30 15157 N 1413.06 -1.53996 0.335095 0
M  V30 15158 C 1414.31 -2.01069 -0.264388 0
M  V30 15159 C 1414.64 -1.22271 -1.50876 0
M  V30 15160 O 1413.92 -0.30806 -1.92045 0
M  V30 15161 C 1414.2 -3.55283 -0.587 0
M  V30 15162 C 1414.05 -4.44799 0.668877 0
M  V30 15163 C 1415.37 -4.17238 -1.40003 0
M  V30 15164 H 1412.49 -0.730901 -0.0946202 0
M  V30 15165 H 1415.13 -1.84497 0.453958 0
M  V30 15166 H 1413.28 -3.69536 -1.19899 0
M  V30 15167 H 1414.96 -4.42398 1.30698 0
M  V30 15168 H 1413.2 -4.14005 1.29547 0
M  V30 15169 H 1413.87 -5.5056 0.398523 0
M  V30 15170 H 1416.35 -4.06631 -0.88262 0
M  V30 15171 H 1415.22 -5.2523 -1.59451 0
M  V30 15172 H 1415.48 -3.71309 -2.39962 0
M  V30 15173 N 1414.54 -0.0635198 -1.57472 0
M  V30 15174 C 1415.79 0.606285 -1.92792 0
M  V30 15175 C 1416.11 1.70648 -0.943615 0
M  V30 15176 O 1415.38 1.95898 0.00957612 0
M  V30 15177 H 1413.96 0.226943 -0.711692 0
M  V30 15178 H 1416.62 -0.119429 -1.94534 0
M  V30 15179 H 1415.72 1.03694 -2.9437 0
M  V30 15180 N 1416.02 1.56195 0.209972 0
M  V30 15181 C 1416.95 1.96378 1.26324 0
M  V30 15182 C 1417.93 0.833606 1.48273 0
M  V30 15183 O 1419.12 1.0968 1.60262 0
M  V30 15184 C 1416.25 2.29048 2.61064 0
M  V30 15185 C 1415.2 3.44665 2.53752 0
M  V30 15186 C 1414.53 3.6297 3.92628 0
M  V30 15187 C 1415.83 4.79297 2.07536 0
M  V30 15188 H 1417.52 2.8461 0.929379 0
M  V30 15189 H 1415.07 1.36931 0.445627 0
M  V30 15190 H 1417.02 2.55752 3.34916 0
M  V30 15191 H 1415.74 1.37682 2.96161 0
M  V30 15192 H 1414.4 3.18028 1.82356 0
M  V30 15193 H 1414.05 2.68961 4.25052 0
M  V30 15194 H 1413.75 4.40741 3.88614 0
M  V30 15195 H 1415.27 3.92035 4.68125 0
M  V30 15196 H 1416.69 5.05131 2.71138 0
M  V30 15197 H 1415.08 5.60433 2.14557 0
M  V30 15198 H 1416.15 4.73877 1.02802 0
M  V30 15199 N 1417.5 -0.477127 1.50204 0
M  V30 15200 C 1418.46 -1.55824 1.68082 0
M  V30 15201 C 1419.46 -1.51039 0.551719 0
M  V30 15202 O 1420.65 -1.53766 0.818638 0
M  V30 15203 C 1417.78 -2.95462 1.70044 0
M  V30 15204 H 1418.98 -1.41292 2.64531 0
M  V30 15205 H 1416.53 -0.70308 1.39594 0
M  V30 15206 H 1417.26 -3.15445 0.752663 0
M  V30 15207 H 1417.05 -3.00343 2.52065 0
M  V30 15208 H 1418.54 -3.73964 1.85851 0
M  V30 15209 N 1418.98 -1.3968 -0.729882 0
M  V30 15210 C 1419.91 -1.41549 -1.85704 0
M  V30 15211 C 1420.89 -0.278186 -1.6781 0
M  V30 15212 O 1422.07 -0.484749 -1.88053 0
M  V30 15213 C 1419.2 -1.26327 -3.2351 0
M  V30 15214 C 1418.16 -2.37511 -3.56051 0
M  V30 15215 C 1417.48 -2.07375 -4.92849 0
M  V30 15216 C 1418.78 -3.79833 -3.58502 0
M  V30 15217 H 1420.48 -2.35877 -1.84398 0
M  V30 15218 H 1418.02 -1.13536 -0.885747 0
M  V30 15219 H 1419.98 -1.26254 -4.02042 0
M  V30 15220 H 1418.7 -0.284697 -3.25357 0
M  V30 15221 H 1417.36 -2.36809 -2.79852 0
M  V30 15222 H 1417.01 -1.07943 -4.91281 0
M  V30 15223 H 1416.71 -2.81855 -5.15588 0
M  V30 15224 H 1418.23 -2.08961 -5.73731 0
M  V30 15225 H 1419.64 -3.82436 -4.27101 0
M  V30 15226 H 1418.04 -4.53715 -3.92763 0
M  V30 15227 H 1419.11 -4.10443 -2.58195 0
M  V30 15228 N 1420.45 0.960609 -1.2494 0
M  V30 15229 C 1421.87 1.23057 -1.01633 0
M  V30 15230 C 1422.07 1.99676 0.270527 0
M  V30 15231 O 1421.13 2.32503 0.984823 0
M  V30 15232 C 1422.44 2.01078 -2.2358 0
M  V30 15233 C 1423.99 2.14144 -2.28279 0
M  V30 15234 C 1424.46 2.95563 -3.49867 0
M  V30 15235 N 1425.95 3.03143 -3.50227 0
M  V30 15236 C 1426.69 3.66518 -4.40967 0
M  V30 15237 N 1426.18 4.31553 -5.41972 0
M  V30 15238 N 1427.98 3.636 -4.28663 0
M  V30 15239 H 1420.13 0.447876 -2.07624 0
M  V30 15240 H 1422.39 0.260581 -0.911483 0
M  V30 15241 H 1422.1 1.52172 -3.17075 0
M  V30 15242 H 1421.97 3.01797 -2.2627 0
M  V30 15243 H 1424.36 2.6225 -1.35311 0
M  V30 15244 H 1424.44 1.1275 -2.29611 0
M  V30 15245 H 1424.08 2.48149 -4.43153 0
M  V30 15246 H 1424.01 3.9717 -3.45779 0
M  V30 15247 H 1426.5 2.56888 -2.77159 0
M  V30 15248 H 1426.82 4.7775 -6.07433 0
M  V30 15249 H 1425.16 4.302 -5.45851 0
M  V30 15250 H 1428.35 3.11973 -3.48985 0
M  V30 15251 H 1428.53 4.12706 -4.99578 0
M  V30 15252 N 1421.93 1.0643 1.16234 0
M  V30 15253 C 1423.16 0.802644 1.90697 0
M  V30 15254 C 1423.58 -0.643145 1.77508 0
M  V30 15255 O 1422.93 -1.4404 1.12065 0
M  V30 15256 C 1422.98 1.18984 3.41358 0
M  V30 15257 O 1422.7 2.5789 3.54153 0
M  V30 15258 C 1424.21 0.956132 4.32866 0
M  V30 15259 H 1421.43 0.290891 0.604668 0
M  V30 15260 H 1423.97 1.41829 1.47325 0
M  V30 15261 H 1422.12 0.618703 3.82428 0
M  V30 15262 H 1422.54 2.73431 4.47589 0
M  V30 15263 H 1424.01 1.27667 5.37034 0
M  V30 15264 H 1424.49 -0.108062 4.39067 0
M  V30 15265 H 1425.1 1.51172 3.97526 0
M  V30 15266 N 1423.41 -1.329 0.847073 0
M  V30 15267 C 1424.34 -2.31546 0.301422 0
M  V30 15268 C 1425.32 -1.59342 -0.595317 0
M  V30 15269 O 1426.51 -1.87188 -0.517151 0
M  V30 15270 C 1423.64 -3.43423 -0.517454 0
M  V30 15271 C 1422.59 -4.27055 0.284195 0
M  V30 15272 C 1421.92 -5.30624 -0.658944 0
M  V30 15273 C 1423.22 -5.00123 1.50578 0
M  V30 15274 H 1424.91 -2.77433 1.12567 0
M  V30 15275 H 1422.46 -1.3338 0.542739 0
M  V30 15276 H 1424.41 -4.11467 -0.909543 0
M  V30 15277 H 1423.13 -2.96246 -1.37499 0
M  V30 15278 H 1421.79 -3.60648 0.657944 0
M  V30 15279 H 1421.44 -4.79702 -1.51311 0
M  V30 15280 H 1421.14 -5.87464 -0.12662 0
M  V30 15281 H 1422.66 -6.01533 -1.04837 0
M  V30 15282 H 1424.08 -5.6089 1.18641 0
M  V30 15283 H 1422.48 -5.66652 1.97549 0
M  V30 15284 H 1423.55 -4.28424 2.27115 0
M  V30 15285 N 1424.89 -0.604284 -1.45555 0
M  V30 15286 C 1425.82 0.103859 -2.33269 0
M  V30 15287 C 1426.8 0.862104 -1.46635 0
M  V30 15288 O 1427.98 0.833308 -1.75413 0
M  V30 15289 C 1425.11 1.104 -3.29286 0
M  V30 15290 C 1424.07 0.459189 -4.2553 0
M  V30 15291 C 1423.39 1.56734 -5.11213 0
M  V30 15292 C 1424.69 -0.617509 -5.18637 0
M  V30 15293 H 1426.39 -0.628538 -2.92728 0
M  V30 15294 H 1423.93 -0.303711 -1.40761 0
M  V30 15295 H 1425.89 1.60794 -3.89517 0
M  V30 15296 H 1424.61 1.86695 -2.67979 0
M  V30 15297 H 1423.27 -0.0238508 -3.66592 0
M  V30 15298 H 1422.92 2.32049 -4.46276 0
M  V30 15299 H 1422.62 1.14142 -5.76407 0
M  V30 15300 H 1424.14 2.07361 -5.74312 0
M  V30 15301 H 1425.56 -0.197784 -5.72959 0
M  V30 15302 H 1423.95 -0.96499 -5.9229 0
M  V30 15303 H 1425.02 -1.49541 -4.61265 0
M  V30 15304 N 1426.37 1.53816 -0.343257 0
M  V30 15305 C 1427.33 2.23654 0.501161 0
M  V30 15306 C 1428.33 1.23664 1.02781 0
M  V30 15307 O 1429.52 1.48104 0.917103 0
M  V30 15308 C 1426.65 2.95596 1.69812 0
M  V30 15309 H 1427.84 2.997 -0.109626 0
M  V30 15310 H 1425.4 1.56013 -0.0946011 0
M  V30 15311 H 1426.13 2.23736 2.34761 0
M  V30 15312 H 1425.92 3.68938 1.32768 0
M  V30 15313 H 1427.41 3.48748 2.29706 0
M  V30 15314 N 1427.84 0.0718701 1.57436 0
M  V30 15315 C 1429.07 -0.606253 1.97819 0
M  V30 15316 C 1429.49 -1.63144 0.950233 0
M  V30 15317 O 1428.84 -1.82391 -0.0631051 0
M  V30 15318 C 1428.9 -1.27476 3.38278 0
M  V30 15319 O 1428.62 -0.290603 4.37135 0
M  V30 15320 C 1430.12 -2.0407 3.93536 0
M  V30 15321 H 1427.34 -0.164305 0.650573 0
M  V30 15322 H 1429.88 0.144295 2.0399 0
M  V30 15323 H 1428.04 -1.97639 3.33193 0
M  V30 15324 H 1428.45 -0.77022 5.18814 0
M  V30 15325 H 1429.92 -2.46237 4.94036 0
M  V30 15326 H 1430.4 -2.89728 3.30083 0
M  V30 15327 H 1431.01 -1.38773 4.02022 0
M  V30 15328 N 1429.32 -1.56304 -0.201686 0
M  V30 15329 C 1430.57 -1.80504 -0.92446 0
M  V30 15330 C 1430.9 -0.644832 -1.83182 0
M  V30 15331 O 1430.18 0.354963 -1.91234 0
M  V30 15332 C 1430.46 -3.14919 -1.74636 0
M  V30 15333 C 1430.31 -4.41421 -0.864169 0
M  V30 15334 C 1431.63 -3.45962 -2.72026 0
M  V30 15335 H 1428.75 -0.656643 -0.334648 0
M  V30 15336 H 1431.39 -1.89025 -0.192188 0
M  V30 15337 H 1429.54 -3.07785 -2.37066 0
M  V30 15338 H 1431.21 -4.60594 -0.255084 0
M  V30 15339 H 1429.46 -4.33465 -0.170548 0
M  V30 15340 H 1430.13 -5.31954 -1.47409 0
M  V30 15341 H 1432.6 -3.53353 -2.1973 0
M  V30 15342 H 1431.48 -4.41146 -3.26622 0
M  V30 15343 H 1431.74 -2.69124 -3.50749 0
M  V30 15344 N 1430.8 0.469154 -1.50455 0
M  V30 15345 C 1432.08 1.23033 -1.5206 0
M  V30 15346 C 1432.46 2.09412 -0.266388 0
M  V30 15347 O 1431.81 2.15837 0.750099 0
M  V30 15348 C 1432.02 2.05969 -2.81741 0
M  V30 15349 C 1433.36 2.64093 -3.32476 0
M  V30 15350 O 1434.39 2.1621 -2.83075 0
M  V30 15351 O 1433.25 3.51341 -4.18595 0
M  V30 15352 H 1430.34 0.55841 -0.610006 0
M  V30 15353 H 1432.89 0.480818 -1.62746 0
M  V30 15354 H 1431.66 1.42327 -3.64498 0
M  V30 15355 H 1431.28 2.8805 -2.74067 0
M  V30 15356 N 1432.28 1.40065 0.722464 0
M  V30 15357 C 1433.19 1.42086 1.86678 0
M  V30 15358 C 1434.2 0.314223 1.71139 0
M  V30 15359 O 1435.38 0.55771 1.93524 0
M  V30 15360 C 1432.45 1.27498 3.22405 0
M  V30 15361 C 1431.51 2.48243 3.50248 0
M  V30 15362 C 1430.74 2.34342 4.79499 0
M  V30 15363 O 1430.96 1.35355 5.54108 0
M  V30 15364 O 1429.9 3.23579 5.07523 0
M  V30 15365 H 1433.72 2.38571 1.87929 0
M  V30 15366 H 1431.31 1.21314 0.871968 0
M  V30 15367 H 1433.19 1.21543 4.03491 0
M  V30 15368 H 1431.86 0.341141 3.21897 0
M  V30 15369 H 1430.77 2.59775 2.69199 0
M  V30 15370 H 1432.1 3.40364 3.55547 0
M  V30 15371 N 1433.76 -0.95397 1.25448 0
M  V30 15372 C 1434.99 -1.73331 1.12977 0
M  V30 15373 C 1435.4 -1.86131 -0.316364 0
M  V30 15374 O 1434.76 -1.35951 -1.21753 0
M  V30 15375 C 1434.81 -3.14675 1.77938 0
M  V30 15376 O 1434.53 -3.025 3.16899 0
M  V30 15377 C 1436.03 -4.08884 1.71256 0
M  V30 15378 H 1433.25 -0.543118 0.394036 0
M  V30 15379 H 1435.79 -1.19678 1.65823 0
M  V30 15380 H 1433.95 -3.6527 1.29062 0
M  V30 15381 H 1434.36 -3.91668 3.4885 0
M  V30 15382 H 1435.84 -5.05668 2.21368 0
M  V30 15383 H 1436.31 -4.33959 0.676476 0
M  V30 15384 H 1436.92 -3.64205 2.19624 0
M  V30 15385 N 1435.24 -1.07045 -1.15668 0
M  V30 15386 C 1436.48 -0.786751 -1.85723 0
M  V30 15387 C 1436.8 0.689604 -1.83041 0
M  V30 15388 O 1438 1.08796 -2.48748 0
M  V30 15389 C 1436.46 -1.35729 -3.33325 0
M  V30 15390 C 1436.07 -2.86444 -3.44462 0
M  V30 15391 C 1437.81 -1.15148 -4.08584 0
M  V30 15392 C 1435.72 -3.36705 -4.86193 0
M  V30 15393 H 1434.65 -0.29063 -0.695737 0
M  V30 15394 H 1437.3 -1.29012 -1.30492 0
M  V30 15395 H 1435.68 -0.781671 -3.88209 0
M  V30 15396 H 1436.86 -3.50023 -2.997 0
M  V30 15397 H 1435.17 -3.0578 -2.82644 0
M  V30 15398 H 1437.77 -1.50179 -5.13177 0
M  V30 15399 H 1438.11 -0.0903159 -4.16202 0
M  V30 15400 H 1438.64 -1.6933 -3.59962 0
M  V30 15401 H 1435.38 -4.42333 -4.83758 0
M  V30 15402 H 1434.9 -2.77877 -5.31549 0
M  V30 15403 H 1436.58 -3.32478 -5.55038 0
M  V30 15404 N 1436.71 1.32449 -0.85411 0
M  V30 15405 C 1438.12 1.79545 -0.511923 0
M  V30 15406 C 1438.48 1.70534 0.970188 0
M  V30 15407 O 1437.6 1.2636 1.75676 0
M  V30 15408 C 1438.2 3.26 -0.922456 0
M  V30 15409 C 1436.75 3.71053 -0.632176 0
M  V30 15410 C 1435.9 2.53565 -1.12249 0
M  V30 15411 H 1438.85 1.19755 -1.04137 0
M  V30 15412 H 1438.87 3.79751 -0.238618 0
M  V30 15413 H 1438.39 3.32526 -2.00119 0
M  V30 15414 H 1436.49 3.70042 0.435862 0
M  V30 15415 H 1436.6 4.63878 -1.19809 0
M  V30 15416 H 1434.96 2.48849 -0.542781 0
M  V30 15417 H 1435.75 2.62846 -2.20832 0
M  V30 15418 N 1438.19 0.611994 1.45232 0
M  V30 15419 C 1439.12 -0.0914869 2.33321 0
M  V30 15420 C 1440.1 -0.854315 1.4709 0
M  V30 15421 O 1441.29 -0.823994 1.75852 0
M  V30 15422 C 1438.42 -1.08652 3.29867 0
M  V30 15423 C 1437.37 -0.436615 4.25767 0
M  V30 15424 C 1436.7 -1.54021 5.12037 0
M  V30 15425 C 1438 0.645005 5.18302 0
M  V30 15426 H 1439.69 0.644053 2.92391 0
M  V30 15427 H 1437.24 0.311171 1.40598 0
M  V30 15428 H 1439.19 -1.58726 3.90364 0
M  V30 15429 H 1437.91 -1.85271 2.68965 0
M  V30 15430 H 1436.57 0.0432918 3.66574 0
M  V30 15431 H 1436.22 -2.29679 4.475 0
M  V30 15432 H 1435.92 -1.11084 5.77005 0
M  V30 15433 H 1437.45 -2.04313 5.75403 0
M  V30 15434 H 1438.86 0.228166 5.72846 0
M  V30 15435 H 1437.26 0.996387 5.9177 0
M  V30 15436 H 1438.33 1.51985 4.60466 0
M  V30 15437 N 1439.67 -1.53632 0.351409 0
M  V30 15438 C 1440.6 -2.28217 -0.49391 0
M  V30 15439 C 1441.58 -1.30085 -1.09599 0
M  V30 15440 O 1442.77 -1.58938 -1.1159 0
M  V30 15441 C 1439.9 -3.06085 -1.64102 0
M  V30 15442 C 1438.85 -4.11786 -1.16689 0
M  V30 15443 C 1438.18 -4.77654 -2.40314 0
M  V30 15444 C 1439.48 -5.21644 -0.261742 0
M  V30 15445 H 1441.17 -2.99125 0.1283 0
M  V30 15446 H 1438.72 -1.43861 0.0631462 0
M  V30 15447 H 1440.67 -3.57003 -2.2389 0
M  V30 15448 H 1439.39 -2.32842 -2.29025 0
M  V30 15449 H 1438.05 -3.61792 -0.591784 0
M  V30 15450 H 1437.7 -4.00997 -3.03661 0
M  V30 15451 H 1437.4 -5.49072 -2.09268 0
M  V30 15452 H 1438.92 -5.3136 -3.00813 0
M  V30 15453 H 1440.34 -5.6815 -0.766689 0
M  V30 15454 H 1438.73 -6.00085 -0.0428132 0
M  V30 15455 H 1439.8 -4.79821 0.699999 0
M  V30 15456 N 1441.15 -0.0802183 -1.57396 0
M  V30 15457 C 1442.56 0.451183 -1.81166 0
M  V30 15458 C 1442.91 1.69112 -0.994764 0
M  V30 15459 O 1442.03 2.15281 -0.219739 0
M  V30 15460 C 1442.63 0.825324 -3.28594 0
M  V30 15461 C 1441.19 1.30154 -3.53181 0
M  V30 15462 C 1440.34 0.290846 -2.75771 0
M  V30 15463 H 1443.29 -0.305829 -1.55725 0
M  V30 15464 H 1443.31 1.68608 -3.41104 0
M  V30 15465 H 1442.82 -0.0773119 -3.88023 0
M  V30 15466 H 1440.92 2.22239 -2.99066 0
M  V30 15467 H 1441.03 1.27365 -4.6186 0
M  V30 15468 H 1439.4 0.769894 -2.42785 0
M  V30 15469 H 1440.18 -0.604209 -3.37941 0
M  V30 15470 N 1442.63 1.56409 0.193394 0
M  V30 15471 C 1443.59 1.93822 1.22334 0
M  V30 15472 C 1444.59 0.819513 1.3835 0
M  V30 15473 O 1445.78 1.0869 1.36132 0
M  V30 15474 C 1442.91 2.21375 2.59241 0
M  V30 15475 H 1444.1 2.85967 0.903502 0
M  V30 15476 H 1441.66 1.50125 0.43498 0
M  V30 15477 H 1442.39 1.31874 2.96277 0
M  V30 15478 H 1442.18 3.02899 2.48988 0
M  V30 15479 H 1443.67 2.51319 3.33509 0
M  V30 15480 N 1444.1 -0.461169 1.50702 0
M  V30 15481 C 1445.33 -1.24019 1.66235 0
M  V30 15482 C 1445.75 -1.84827 0.349388 0
M  V30 15483 O 1445.11 -1.67743 -0.687888 0
M  V30 15484 C 1445.16 -2.31743 2.76274 0
M  V30 15485 O 1444.26 -3.3664 2.38217 0
M  V30 15486 H 1443.6 -0.364424 0.55506 0
M  V30 15487 H 1446.13 -0.547636 1.97135 0
M  V30 15488 H 1446.14 -2.76902 2.99649 0
M  V30 15489 H 1444.82 -1.86858 3.7156 0
M  V30 15490 H 1443.4 -2.97123 2.25327 0
M  V30 15491 N 1445.58 -1.40446 -0.715026 0
M  V30 15492 C 1446.81 -1.4207 -1.50412 0
M  V30 15493 C 1447.22 -0.0205547 -1.88789 0
M  V30 15494 O 1446.58 0.955635 -1.55479 0
M  V30 15495 C 1446.63 -2.3119 -2.77909 0
M  V30 15496 O 1446.35 -3.65754 -2.41154 0
M  V30 15497 C 1447.85 -2.41412 -3.718 0
M  V30 15498 H 1445.07 -0.484554 -0.464164 0
M  V30 15499 H 1447.62 -1.84504 -0.881964 0
M  V30 15500 H 1445.77 -1.92117 -3.36407 0
M  V30 15501 H 1446.19 -4.13091 -3.23197 0
M  V30 15502 H 1447.66 -3.07976 -4.58099 0
M  V30 15503 H 1448.14 -1.43934 -4.14945 0
M  V30 15504 H 1448.74 -2.81039 -3.19213 0
M  V30 15505 N 1447.06 0.947303 -1.25952 0
M  V30 15506 C 1448.01 2.03076 -1.03653 0
M  V30 15507 C 1448.99 1.60874 0.0290512 0
M  V30 15508 O 1450.19 1.76008 -0.187169 0
M  V30 15509 C 1447.31 3.36797 -0.66501 0
M  V30 15510 C 1446.4 3.85502 -1.76773 0
M  V30 15511 N 1446.79 4.06922 -3.00413 0
M  V30 15512 C 1445.09 4.14359 -1.64993 0
M  V30 15513 C 1445.79 4.4717 -3.7204 0
M  V30 15514 N 1444.77 4.53523 -2.99697 0
M  V30 15515 H 1448.57 2.17641 -1.97509 0
M  V30 15516 H 1446.08 1.13268 -1.16379 0
M  V30 15517 H 1448.08 4.14053 -0.486427 0
M  V30 15518 H 1446.74 3.23607 0.266138 0
M  V30 15519 H 1447.75 3.93786 -3.36383 0
M  V30 15520 H 1444.43 4.09991 -0.788254 0
M  V30 15521 H 1445.82 4.71985 -4.78205 0
M  V30 15522 N 1448.54 1.07657 1.15099 0
M  V30 15523 C 1449.95 0.802696 1.37945 0
M  V30 15524 C 1450.15 -0.591622 1.92619 0
M  V30 15525 O 1449.21 -1.34979 2.13394 0
M  V30 15526 C 1450.52 1.87907 2.34759 0
M  V30 15527 C 1452.07 1.90418 2.48415 0
M  V30 15528 C 1452.55 2.97148 3.48521 0
M  V30 15529 N 1454.04 2.96271 3.56059 0
M  V30 15530 C 1454.77 3.75498 4.33346 0
M  V30 15531 N 1454.27 4.64583 5.1394 0
M  V30 15532 N 1456.06 3.63831 4.28466 0
M  V30 15533 H 1448.21 1.97578 0.779537 0
M  V30 15534 H 1450.48 0.856978 0.405331 0
M  V30 15535 H 1450.18 2.8811 2.01707 0
M  V30 15536 H 1450.06 1.74183 3.34575 0
M  V30 15537 H 1452.44 0.908655 2.80762 0
M  V30 15538 H 1452.52 2.0822 1.48586 0
M  V30 15539 H 1452.17 3.96903 3.16908 0
M  V30 15540 H 1452.1 2.76593 4.48112 0
M  V30 15541 H 1454.59 2.31697 2.98538 0
M  V30 15542 H 1454.9 5.2166 5.70167 0
M  V30 15543 H 1453.25 4.6863 5.13236 0
M  V30 15544 H 1456.44 2.93609 3.6457 0
M  V30 15545 H 1456.61 4.25818 4.8845 0
M  V30 15546 N 1450.02 -1.31994 0.861122 0
M  V30 15547 C 1450.93 -2.32495 0.313555 0
M  V30 15548 C 1451.94 -1.64331 -0.571966 0
M  V30 15549 O 1453.12 -1.9582 -0.470794 0
M  V30 15550 C 1450.18 -3.43311 -0.483603 0
M  V30 15551 C 1449.24 -4.27153 0.428825 0
M  V30 15552 C 1448.48 -5.32676 -0.330383 0
M  V30 15553 O 1448.7 -5.48665 -1.55957 0
M  V30 15554 O 1447.63 -6.01116 0.307174 0
M  V30 15555 H 1451.46 -2.81234 1.14636 0
M  V30 15556 H 1449.05 -1.35734 0.624239 0
M  V30 15557 H 1450.93 -4.10877 -0.935831 0
M  V30 15558 H 1449.6 -2.9675 -1.2931 0
M  V30 15559 H 1448.51 -3.62372 0.929366 0
M  V30 15560 H 1449.84 -4.77255 1.20368 0
M  V30 15561 N 1451.49 -0.619688 -1.44906 0
M  V30 15562 C 1452.74 -0.117147 -2.0136 0
M  V30 15563 C 1453.06 1.2644 -1.49239 0
M  V30 15564 O 1454.26 1.86034 -1.97747 0
M  V30 15565 C 1452.72 -0.15871 -3.5955 0
M  V30 15566 C 1452.33 -1.54086 -4.20668 0
M  V30 15567 C 1454.07 0.287961 -4.23522 0
M  V30 15568 C 1451.98 -1.53816 -5.71047 0
M  V30 15569 H 1450.91 -0.040028 -0.752937 0
M  V30 15570 H 1453.56 -0.776802 -1.66247 0
M  V30 15571 H 1451.94 0.56783 -3.91908 0
M  V30 15572 H 1453.11 -2.29007 -3.99865 0
M  V30 15573 H 1451.43 -1.93065 -3.68938 0
M  V30 15574 H 1454.03 0.309351 -5.33804 0
M  V30 15575 H 1454.37 1.31305 -3.9505 0
M  V30 15576 H 1454.9 -0.385707 -3.95926 0
M  V30 15577 H 1451.64 -2.54124 -6.04236 0
M  V30 15578 H 1451.16 -0.831708 -5.94006 0
M  V30 15579 H 1452.84 -1.26708 -6.34472 0
M  V30 15580 N 1452.97 1.53444 -0.359552 0
M  V30 15581 C 1453.88 2.29257 0.497834 0
M  V30 15582 C 1454.9 1.34987 1.09793 0
M  V30 15583 O 1456.07 1.68039 1.11017 0
M  V30 15584 C 1453.14 3.06258 1.62502 0
M  V30 15585 C 1452.2 4.16183 1.05308 0
M  V30 15586 C 1451.43 4.89503 2.12655 0
M  V30 15587 O 1451.66 4.6263 3.33661 0
M  V30 15588 O 1450.59 5.75578 1.76051 0
M  V30 15589 H 1454.42 3.03467 -0.118925 0
M  V30 15590 H 1452 1.48884 -0.124111 0
M  V30 15591 H 1453.88 3.5436 2.2805 0
M  V30 15592 H 1452.56 2.3489 2.22729 0
M  V30 15593 H 1451.47 3.72348 0.361679 0
M  V30 15594 H 1452.8 4.897 0.49545 0
M  V30 15595 N 1454.45 0.0885642 1.57351 0
M  V30 15596 C 1455.38 -0.909155 2.09307 0
M  V30 15597 C 1456.36 -1.28051 1.00209 0
M  V30 15598 O 1457.55 -1.38689 1.27662 0
M  V30 15599 C 1454.67 -2.21232 2.56465 0
M  V30 15600 C 1453.72 -1.9913 3.7716 0
M  V30 15601 S 1454.55 -1.23528 5.21058 0
M  V30 15602 C 1455.71 -2.55089 5.7156 0
M  V30 15603 H 1455.94 -0.467121 2.93607 0
M  V30 15604 H 1453.47 -0.124581 1.53897 0
M  V30 15605 H 1455.43 -2.96121 2.84293 0
M  V30 15606 H 1454.09 -2.62557 1.72403 0
M  V30 15607 H 1453.29 -2.95614 4.08201 0
M  V30 15608 H 1452.89 -1.32372 3.49791 0
M  V30 15609 H 1455.18 -3.51098 5.79428 0
M  V30 15610 H 1456.12 -2.28634 6.70173 0
M  V30 15611 H 1456.53 -2.63062 4.99458 0
M  V30 15612 N 1455.93 -1.56509 -0.185096 0
M  V30 15613 C 1456.89 -1.94468 -1.21305 0
M  V30 15614 C 1457.89 -0.826838 -1.37913 0
M  V30 15615 O 1459.08 -1.09411 -1.35554 0
M  V30 15616 C 1456.21 -2.22747 -2.58063 0
M  V30 15617 H 1457.41 -2.86442 -0.888323 0
M  V30 15618 H 1454.96 -1.50354 -0.427012 0
M  V30 15619 H 1455.69 -1.33443 -2.95573 0
M  V30 15620 H 1455.48 -3.04215 -2.47378 0
M  V30 15621 H 1456.97 -2.53084 -3.32172 0
M  V30 15622 N 1457.41 0.45317 -1.50944 0
M  V30 15623 C 1458.34 1.56678 -1.67287 0
M  V30 15624 C 1459.35 1.53089 -0.553853 0
M  V30 15625 O 1460.54 1.58152 -0.827653 0
M  V30 15626 C 1457.64 2.95585 -1.65779 0
M  V30 15627 C 1456.81 3.2385 -2.94007 0
M  V30 15628 C 1455.87 4.42401 -2.84899 0
M  V30 15629 O 1454.9 4.4183 -3.58853 0
M  V30 15630 N 1456.1 5.4508 -1.99671 0
M  V30 15631 H 1458.87 1.43069 -2.63347 0
M  V30 15632 H 1456.43 0.641875 -1.48632 0
M  V30 15633 H 1458.42 3.7289 -1.57275 0
M  V30 15634 H 1456.99 3.02872 -0.773791 0
M  V30 15635 H 1456.21 2.34991 -3.16501 0
M  V30 15636 H 1457.5 3.39554 -3.7892 0
M  V30 15637 H 1456.89 5.48374 -1.38933 0
M  V30 15638 H 1455.45 6.21298 -1.97057 0
M  V30 15639 N 1458.88 1.40823 0.707568 0
M  V30 15640 C 1459.83 1.41724 1.82162 0
M  V30 15641 C 1460.8 0.273135 1.63839 0
M  V30 15642 O 1461.99 0.472399 1.84859 0
M  V30 15643 C 1459.13 1.29347 3.19943 0
M  V30 15644 C 1458.24 2.53529 3.49782 0
M  V30 15645 C 1457.37 2.33533 4.77112 0
M  V30 15646 C 1456.41 3.53252 4.9988 0
M  V30 15647 N 1455.55 3.32401 6.18429 0
M  V30 15648 H 1460.39 2.36943 1.80726 0
M  V30 15649 H 1457.93 1.17671 0.882723 0
M  V30 15650 H 1459.89 1.20175 3.99517 0
M  V30 15651 H 1458.52 0.377426 3.20586 0
M  V30 15652 H 1457.57 2.73198 2.64702 0
M  V30 15653 H 1458.88 3.42617 3.62512 0
M  V30 15654 H 1458.03 2.2176 5.64719 0
M  V30 15655 H 1456.77 1.41883 4.66605 0
M  V30 15656 H 1455.78 3.65492 4.10725 0
M  V30 15657 H 1457 4.4584 5.12253 0
M  V30 15658 H 1454.95 2.4344 6.09158 0
M  V30 15659 H 1454.87 4.15059 6.31872 0
M  V30 15660 H 1456.13 3.24377 7.08802 0
M  V30 15661 N 1460.36 -0.94061 1.26453 0
M  V30 15662 C 1461.29 -2.05667 1.10559 0
M  V30 15663 C 1462.27 -1.70097 0.0106258 0
M  V30 15664 O 1463.46 -1.93338 0.182756 0
M  V30 15665 C 1460.59 -3.3936 0.7384 0
M  V30 15666 C 1459.54 -3.88993 1.78517 0
M  V30 15667 C 1458.87 -5.19343 1.27228 0
M  V30 15668 C 1460.17 -4.13812 3.1868 0
M  V30 15669 H 1461.86 -2.19221 2.03918 0
M  V30 15670 H 1459.41 -1.05339 0.98182 0
M  V30 15671 H 1461.36 -4.16902 0.61409 0
M  V30 15672 H 1460.09 -3.25783 -0.230887 0
M  V30 15673 H 1458.74 -3.13633 1.89816 0
M  V30 15674 H 1458.39 -5.02147 0.292816 0
M  V30 15675 H 1458.09 -5.53521 1.97201 0
M  V30 15676 H 1459.62 -5.99468 1.16065 0
M  V30 15677 H 1461.03 -4.81966 3.10455 0
M  V30 15678 H 1459.43 -4.59273 3.86249 0
M  V30 15679 H 1460.5 -3.19571 3.64695 0
M  V30 15680 N 1461.84 -1.08266 -1.14527 0
M  V30 15681 C 1462.77 -0.732968 -2.21698 0
M  V30 15682 C 1463.75 0.283917 -1.67714 0
M  V30 15683 O 1464.94 0.154607 -1.93584 0
M  V30 15684 C 1462.07 -0.139935 -3.47018 0
M  V30 15685 C 1461.02 -1.08501 -4.14019 0
M  V30 15686 C 1460.35 -0.354263 -5.33525 0
M  V30 15687 C 1461.65 -2.42254 -4.62721 0
M  V30 15688 H 1463.34 -1.629 -2.51205 0
M  V30 15689 H 1460.89 -0.784696 -1.20742 0
M  V30 15690 H 1462.84 0.1167 -4.21238 0
M  V30 15691 H 1461.56 0.791228 -3.16871 0
M  V30 15692 H 1460.22 -1.32672 -3.41751 0
M  V30 15693 H 1459.87 0.580658 -4.99637 0
M  V30 15694 H 1459.57 -0.984287 -5.79297 0
M  V30 15695 H 1461.09 -0.105648 -6.10509 0
M  V30 15696 H 1462.51 -2.22357 -5.28422 0
M  V30 15697 H 1460.91 -3.00935 -5.1919 0
M  V30 15698 H 1461.98 -3.03884 -3.77866 0
M  V30 15699 N 1463.32 1.31536 -0.86811 0
M  V30 15700 C 1464.27 2.30504 -0.311581 0
M  V30 15701 C 1465.26 1.59439 0.572332 0
M  V30 15702 O 1466.47 1.74059 0.458639 0
M  V30 15703 H 1462.84 0.747508 -0.0820745 0
M  V30 15704 H 1464.81 2.74919 -1.16026 0
M  V30 15705 C 1463.56 3.44459 0.473622 0
M  V30 15706 H 1462.89 3.99313 -0.197259 0
M  V30 15707 H 1464.33 4.15829 0.828393 0
M  V30 15708 C 1462.78 2.92929 1.66416 0
M  V30 15709 O 1463.31 2.91543 2.76344 0
M  V30 15710 N 1461.52 2.49154 1.49568 0
M  V30 15711 H 1461.07 2.50481 0.601408 0
M  V30 15712 H 1461.03 2.15032 2.29366 0
M  V30 15713 N 1464.8 0.627364 1.44575 0
M  V30 15714 C 1466.02 0.135576 2.06956 0
M  V30 15715 C 1466.45 -1.17922 1.46547 0
M  V30 15716 O 1465.81 -1.72255 0.565509 0
M  V30 15717 C 1465.85 0.030347 3.60587 0
M  V30 15718 O 1464.96 -1.01464 3.99724 0
M  V30 15719 H 1464.3 0.083058 0.658785 0
M  V30 15720 H 1466.83 0.862977 1.8551 0
M  V30 15721 H 1466.84 -0.161461 4.0768 0
M  V30 15722 H 1465.51 0.990285 4.03938 0
M  V30 15723 H 1464.09 -0.797701 3.64268 0
M  V30 15724 N 1466.28 -1.53251 0.367684 0
M  V30 15725 C 1467.55 -1.93617 -0.277842 0
M  V30 15726 C 1467.93 -1.3014 -1.66213 0
M  V30 15727 O 1467.28 -0.461277 -2.23796 0
M  V30 15728 C 1467.49 -3.47475 -0.325937 0
M  V30 15729 C 1468.84 -4.2082 -0.565276 0
M  V30 15730 O 1469.86 -3.53866 -0.407057 0
M  V30 15731 O 1468.72 -5.39474 -0.873522 0
M  V30 15732 H 1465.82 -0.80993 -0.167158 0
M  V30 15733 H 1468.36 -1.64405 0.420621 0
M  V30 15734 H 1467.13 -3.85955 0.644542 0
M  V30 15735 H 1466.76 -3.82926 -1.07021 0
M  V30 15736 N 1467.75 -0.0969077 -1.57302 0
M  V30 15737 C 1468.68 0.858443 -2.17147 0
M  V30 15738 C 1469.66 1.29294 -1.10531 0
M  V30 15739 O 1470.85 1.3595 -1.38676 0
M  V30 15740 C 1467.98 2.11691 -2.75326 0
M  V30 15741 C 1466.93 1.82097 -3.8733 0
M  V30 15742 C 1466.26 3.14787 -4.32219 0
M  V30 15743 C 1467.56 1.10651 -5.10444 0
M  V30 15744 H 1469.25 0.35982 -2.9723 0
M  V30 15745 H 1466.8 0.17163 -1.42974 0
M  V30 15746 H 1468.75 2.78963 -3.15844 0
M  V30 15747 H 1467.48 2.63839 -1.925 0
M  V30 15748 H 1466.14 1.17222 -3.47354 0
M  V30 15749 H 1465.78 3.64826 -3.46281 0
M  V30 15750 H 1465.48 2.95769 -5.07735 0
M  V30 15751 H 1467.01 3.83215 -4.75372 0
M  V30 15752 H 1468.42 1.68036 -5.48121 0
M  V30 15753 H 1466.82 1.01805 -5.91401 0
M  V30 15754 H 1467.89 0.0895634 -4.84817 0
M  V30 15755 N 1469.23 1.56605 0.176793 0
M  V30 15756 C 1470.48 1.81324 0.892535 0
M  V30 15757 C 1470.8 0.67301 1.83018 0
M  V30 15758 O 1470.07 -0.307498 1.93472 0
M  V30 15759 H 1468.65 0.668881 0.332576 0
M  V30 15760 H 1471.31 1.94086 0.17792 0
M  V30 15761 H 1470.41 2.75168 1.47272 0
M  V30 15762 N 1470.71 -0.445159 1.51182 0
M  V30 15763 C 1471.62 -1.5651 1.74762 0
M  V30 15764 C 1472.64 -1.62134 0.631542 0
M  V30 15765 O 1473.81 -1.79522 0.912898 0
M  V30 15766 C 1470.88 -2.92552 1.86049 0
M  V30 15767 C 1469.94 -2.97108 3.0988 0
M  V30 15768 C 1469.17 -4.2666 3.2062 0
M  V30 15769 O 1469.39 -5.18608 2.37491 0
M  V30 15770 O 1468.33 -4.3734 4.13542 0
M  V30 15771 H 1472.15 -1.3953 2.6975 0
M  V30 15772 H 1469.74 -0.627363 1.3559 0
M  V30 15773 H 1471.62 -3.73304 1.95504 0
M  V30 15774 H 1470.3 -3.09676 0.94248 0
M  V30 15775 H 1469.2 -2.15338 3.05909 0
M  V30 15776 H 1470.54 -2.84927 4.01345 0
M  V30 15777 N 1472.19 -1.41197 -0.700089 0
M  V30 15778 C 1473.12 -1.45456 -1.8266 0
M  V30 15779 C 1474.1 -0.313719 -1.67182 0
M  V30 15780 O 1475.28 -0.524528 -1.86982 0
M  V30 15781 C 1472.41 -1.33161 -3.20758 0
M  V30 15782 C 1471.37 -2.4501 -3.50933 0
M  V30 15783 C 1470.69 -2.17782 -4.88339 0
M  V30 15784 C 1471.99 -3.87352 -3.50365 0
M  V30 15785 H 1473.69 -2.39735 -1.79353 0
M  V30 15786 H 1471.23 -1.1539 -0.861465 0
M  V30 15787 H 1473.19 -1.34754 -3.99274 0
M  V30 15788 H 1471.91 -0.353646 -3.2468 0
M  V30 15789 H 1470.57 -2.42692 -2.74766 0
M  V30 15790 H 1470.22 -1.1834 -4.88881 0
M  V30 15791 H 1469.92 -2.92728 -5.09494 0
M  V30 15792 H 1471.44 -2.21083 -5.6917 0
M  V30 15793 H 1472.86 -3.9141 -4.18893 0
M  V30 15794 H 1471.25 -4.61944 -3.83051 0
M  V30 15795 H 1472.32 -4.15827 -2.4943 0
M  V30 15796 N 1473.67 0.933891 -1.2695 0
M  V30 15797 C 1474.91 1.67539 -1.1231 0
M  V30 15798 C 1475.23 1.92765 0.331788 0
M  V30 15799 O 1476.43 2.6481 0.598983 0
M  V30 15800 C 1474.89 3.01722 -1.96194 0
M  V30 15801 C 1474.5 2.84216 -3.46302 0
M  V30 15802 C 1476.24 3.79513 -1.90185 0
M  V30 15803 C 1474.15 4.13916 -4.22407 0
M  V30 15804 H 1473.08 0.62839 -0.416704 0
M  V30 15805 H 1475.73 1.03801 -1.5132 0
M  V30 15806 H 1474.11 3.66482 -1.50023 0
M  V30 15807 H 1475.29 2.28261 -4.00292 0
M  V30 15808 H 1473.6 2.1986 -3.53625 0
M  V30 15809 H 1476.2 4.75615 -2.44325 0
M  V30 15810 H 1476.54 4.07019 -0.874129 0
M  V30 15811 H 1477.07 3.21539 -2.34217 0
M  V30 15812 H 1473.81 3.91591 -5.25677 0
M  V30 15813 H 1473.33 4.69558 -3.73196 0
M  V30 15814 H 1475.01 4.82322 -4.31248 0
M  V30 15815 N 1475.14 1.08871 1.13951 0
M  V30 15816 C 1476.09 0.71755 2.21255 0
M  V30 15817 C 1477.09 -0.278901 1.67088 0
M  V30 15818 O 1478.29 -0.140964 1.79447 0
M  V30 15819 H 1474.67 0.214032 0.720898 0
M  V30 15820 H 1476.64 1.63182 2.49828 0
M  V30 15821 C 1475.39 0.148098 3.47384 0
M  V30 15822 H 1474.71 0.906028 3.89398 0
M  V30 15823 H 1476.15 -0.0737451 4.23936 0
M  V30 15824 C 1474.61 -1.11524 3.17906 0
M  V30 15825 O 1475.14 -2.19937 3.3614 0
M  V30 15826 N 1473.34 -1.0275 2.71829 0
M  V30 15827 H 1472.89 -0.145193 2.5719 0
M  V30 15828 H 1472.85 -1.87353 2.5248 0
M  V30 15829 N 1476.62 -1.31073 0.875073 0
M  V30 15830 C 1477.57 -2.28389 0.332718 0
M  V30 15831 C 1478.54 -1.55954 -0.571639 0
M  V30 15832 O 1479.72 -1.84073 -0.502185 0
M  V30 15833 C 1476.86 -3.42083 -0.455364 0
M  V30 15834 C 1475.98 -4.29358 0.477088 0
M  V30 15835 C 1475.11 -5.30201 -0.325619 0
M  V30 15836 C 1474.15 -6.09123 0.602935 0
M  V30 15837 N 1473.29 -7.01909 -0.163836 0
M  V30 15838 H 1478.13 -2.74166 1.16777 0
M  V30 15839 H 1475.66 -1.3487 0.587248 0
M  V30 15840 H 1477.62 -4.06746 -0.928104 0
M  V30 15841 H 1476.25 -2.97402 -1.25507 0
M  V30 15842 H 1475.3 -3.65091 1.06829 0
M  V30 15843 H 1476.62 -4.84425 1.18887 0
M  V30 15844 H 1475.77 -6.00565 -0.860647 0
M  V30 15845 H 1474.51 -4.75802 -1.07067 0
M  V30 15846 H 1473.51 -5.37645 1.14968 0
M  V30 15847 H 1474.74 -6.65609 1.34692 0
M  V30 15848 H 1472.69 -6.49913 -0.891604 0
M  V30 15849 H 1472.6 -7.5442 0.48851 0
M  V30 15850 H 1473.87 -7.76529 -0.679929 0
M  V30 15851 N 1478.1 -0.635022 -1.4424 0
M  V30 15852 C 1479.03 0.116972 -2.279 0
M  V30 15853 C 1480.01 0.847505 -1.38766 0
M  V30 15854 O 1481.2 0.8508 -1.68207 0
M  V30 15855 C 1478.32 1.17183 -3.17783 0
M  V30 15856 C 1477.37 0.541389 -4.2305 0
M  V30 15857 S 1478.2 -0.671454 -5.31274 0
M  V30 15858 C 1479.36 0.383317 -6.24725 0
M  V30 15859 H 1479.59 -0.592739 -2.91331 0
M  V30 15860 H 1477.12 -0.423307 -1.48484 0
M  V30 15861 H 1479.08 1.77548 -3.70118 0
M  V30 15862 H 1477.74 1.85375 -2.53564 0
M  V30 15863 H 1476.94 1.33597 -4.85971 0
M  V30 15864 H 1476.54 0.0122707 -3.73998 0
M  V30 15865 H 1478.83 1.25477 -6.65779 0
M  V30 15866 H 1479.77 -0.21041 -7.07787 0
M  V30 15867 H 1480.18 0.710963 -5.60005 0
M  V30 15868 N 1479.58 1.53054 -0.375806 0
M  V30 15869 C 1480.53 2.2605 0.46582 0
M  V30 15870 C 1481.5 1.27123 1.06906 0
M  V30 15871 O 1482.68 1.55926 1.09963 0
M  V30 15872 C 1479.82 3.06066 1.59429 0
M  V30 15873 C 1478.93 4.19901 1.01523 0
M  V30 15874 C 1478.07 4.87339 2.11363 0
M  V30 15875 C 1477.11 5.93189 1.50976 0
M  V30 15876 N 1476.24 6.54276 2.54692 0
M  V30 15877 H 1481.08 2.97553 -0.163149 0
M  V30 15878 H 1478.62 1.4681 -0.092282 0
M  V30 15879 H 1480.58 3.50739 2.25915 0
M  V30 15880 H 1479.21 2.36799 2.19377 0
M  V30 15881 H 1478.26 3.7964 0.240346 0
M  V30 15882 H 1479.57 4.95935 0.533812 0
M  V30 15883 H 1478.73 5.35247 2.85649 0
M  V30 15884 H 1477.47 4.10799 2.6286 0
M  V30 15885 H 1476.47 5.44632 0.752095 0
M  V30 15886 H 1477.7 6.71654 1.00291 0
M  V30 15887 H 1475.64 5.80584 3.05383 0
M  V30 15888 H 1475.56 7.2588 2.11267 0
M  V30 15889 H 1476.83 7.06831 3.28648 0
M  V30 15890 N 1481.06 0.105248 1.57248 0
M  V30 15891 C 1481.99 -0.846915 2.176 0
M  V30 15892 C 1482.97 -1.28706 1.11216 0
M  V30 15893 O 1484.15 -1.35213 1.39396 0
M  V30 15894 C 1481.28 -2.10228 2.76445 0
M  V30 15895 C 1480.24 -1.80041 3.8829 0
M  V30 15896 C 1479.56 -3.12491 4.33882 0
M  V30 15897 C 1480.86 -1.07943 5.11024 0
M  V30 15898 H 1482.56 -0.344052 2.97417 0
M  V30 15899 H 1480.1 -0.164045 1.43063 0
M  V30 15900 H 1482.06 -2.77284 3.17319 0
M  V30 15901 H 1480.78 -2.62815 1.93897 0
M  V30 15902 H 1479.44 -1.15379 3.4797 0
M  V30 15903 H 1479.09 -3.62985 3.48211 0
M  V30 15904 H 1478.79 -2.93072 5.09296 0
M  V30 15905 H 1480.31 -3.80688 4.77398 0
M  V30 15906 H 1481.72 -1.65127 5.49004 0
M  V30 15907 H 1480.12 -0.986674 5.91933 0
M  V30 15908 H 1481.19 -0.0638511 4.84858 0
M  V30 15909 N 1482.53 -1.56697 -0.168486 0
M  V30 15910 C 1483.5 -1.95744 -1.19235 0
M  V30 15911 C 1484.5 -0.841419 -1.37028 0
M  V30 15912 O 1485.69 -1.10842 -1.34386 0
M  V30 15913 C 1482.82 -2.25471 -2.55686 0
M  V30 15914 H 1484.01 -2.87368 -0.857892 0
M  V30 15915 H 1481.57 -1.50798 -0.411041 0
M  V30 15916 H 1482.3 -1.36571 -2.94141 0
M  V30 15917 H 1482.09 -3.06822 -2.44137 0
M  V30 15918 H 1483.58 -2.56593 -3.29469 0
M  V30 15919 N 1484.01 0.437135 -1.51416 0
M  V30 15920 C 1484.94 1.54894 -1.68939 0
M  V30 15921 C 1485.96 1.52493 -0.570059 0
M  V30 15922 O 1487.15 1.57266 -0.844381 0
M  V30 15923 C 1484.25 2.9381 -1.68904 0
M  V30 15924 C 1483.42 3.20714 -2.97425 0
M  V30 15925 C 1482.48 4.39355 -2.89575 0
M  V30 15926 O 1481.5 4.37999 -3.63519 0
M  V30 15927 N 1482.71 5.42931 -2.05441 0
M  V30 15928 H 1485.47 1.40267 -2.64849 0
M  V30 15929 H 1483.03 0.626075 -1.49305 0
M  V30 15930 H 1485.02 3.71201 -1.61221 0
M  V30 15931 H 1483.59 3.02034 -0.805871 0
M  V30 15932 H 1482.81 2.31621 -3.18975 0
M  V30 15933 H 1484.1 3.35516 -3.825 0
M  V30 15934 H 1483.5 5.4687 -1.44742 0
M  V30 15935 H 1482.06 6.19173 -2.03636 0
M  V30 15936 N 1485.49 1.41566 0.692592 0
M  V30 15937 C 1486.42 1.39582 1.81795 0
M  V30 15938 C 1487.44 0.29754 1.60058 0
M  V30 15939 O 1488.62 0.559463 1.69506 0
M  V30 15940 C 1485.72 1.15506 3.18609 0
M  V30 15941 C 1484.9 2.37432 3.67349 0
M  V30 15942 C 1483.96 2.09168 4.82841 0
M  V30 15943 O 1482.98 2.8223 4.94303 0
M  V30 15944 N 1484.18 1.08377 5.70294 0
M  V30 15945 H 1486.95 2.36577 1.83988 0
M  V30 15946 H 1484.51 1.36216 0.875026 0
M  V30 15947 H 1486.5 0.945452 3.93501 0
M  V30 15948 H 1485.07 0.270987 3.11423 0
M  V30 15949 H 1484.29 2.74076 2.8333 0
M  V30 15950 H 1485.58 3.18661 3.96652 0
M  V30 15951 H 1484.98 0.479122 5.63667 0
M  V30 15952 H 1483.54 0.934042 6.45073 0
M  V30 15953 N 1486.97 -0.927146 1.27443 0
M  V30 15954 C 1488.2 -1.70648 1.1646 0
M  V30 15955 C 1488.61 -1.871 -0.28114 0
M  V30 15956 O 1487.95 -1.38813 -1.20319 0
M  V30 15957 C 1488.01 -3.12542 1.77646 0
M  V30 15958 C 1487.68 -3.19425 3.26828 0
M  V30 15959 C 1488.67 -3.01633 4.23454 0
M  V30 15960 C 1486.36 -3.42366 3.67547 0
M  V30 15961 C 1488.35 -3.06672 5.58776 0
M  V30 15962 C 1486.04 -3.47039 5.02998 0
M  V30 15963 C 1487.04 -3.2921 5.98423 0
M  V30 15964 O 1486.72 -3.33619 7.31405 0
M  V30 15965 H 1486.46 -0.540657 0.40579 0
M  V30 15966 H 1489.01 -1.16983 1.68832 0
M  V30 15967 H 1487.24 -3.67691 1.19752 0
M  V30 15968 H 1488.93 -3.72445 1.61369 0
M  V30 15969 H 1489.7 -2.8375 3.93333 0
M  V30 15970 H 1485.57 -3.55294 2.93747 0
M  V30 15971 H 1489.12 -2.92674 6.33236 0
M  V30 15972 H 1485.02 -3.64446 5.32775 0
M  V30 15973 H 1485.78 -3.5007 7.3986 0
M  V30 15974 N 1488.45 -1.09474 -1.13372 0
M  V30 15975 C 1489.69 -0.832323 -1.84933 0
M  V30 15976 C 1490.03 0.640469 -1.83335 0
M  V30 15977 O 1489.3 1.47158 -1.2718 0
M  V30 15978 C 1489.58 -1.36876 -3.33072 0
M  V30 15979 C 1489.44 -2.90769 -3.43181 0
M  V30 15980 C 1490.76 -1.00294 -4.2852 0
M  V30 15981 H 1487.87 -0.30382 -0.671463 0
M  V30 15982 H 1490.52 -1.35622 -1.33066 0
M  V30 15983 H 1488.67 -0.923134 -3.77373 0
M  V30 15984 H 1490.34 -3.43784 -3.07588 0
M  V30 15985 H 1488.58 -3.27876 -2.84042 0
M  V30 15986 H 1489.25 -3.23381 -4.47358 0
M  V30 15987 H 1491.73 -1.38729 -3.92293 0
M  V30 15988 H 1490.6 -1.40533 -5.30605 0
M  V30 15989 H 1490.87 0.0888133 -4.42011 0
M  V30 15990 N 1489.92 1.30607 -0.882012 0
M  V30 15991 C 1490.86 2.26334 -0.291222 0
M  V30 15992 C 1491.84 1.51653 0.586522 0
M  V30 15993 O 1493.02 1.80681 0.537275 0
M  V30 15994 C 1490.15 3.33584 0.586482 0
M  V30 15995 C 1489.19 4.25924 -0.221535 0
M  V30 15996 S 1490.03 5.10791 -1.6079 0
M  V30 15997 C 1491.18 6.2155 -0.736638 0
M  V30 15998 H 1491.41 2.76096 -1.10265 0
M  V30 15999 H 1488.95 1.38558 -0.681255 0
M  V30 16000 H 1490.91 3.95842 1.08715 0
M  V30 16001 H 1489.57 2.82552 1.37198 0
M  V30 16002 H 1488.76 5.02004 0.448139 0
M  V30 16003 H 1488.36 3.68225 -0.654722 0
M  V30 16004 H 1490.65 6.77483 0.0476549 0
M  V30 16005 H 1491.6 6.92696 -1.46894 0
M  V30 16006 H 1492 5.63708 -0.298853 0
M  V30 16007 N 1491.4 0.642663 1.43901 0
M  V30 16008 C 1492.63 0.159202 2.06287 0
M  V30 16009 C 1493.05 -1.17091 1.48105 0
M  V30 16010 O 1492.4 -1.72064 0.608302 0
M  V30 16011 C 1492.45 0.0506891 3.61464 0
M  V30 16012 O 1492.17 1.32821 4.17481 0
M  V30 16013 C 1493.68 -0.460103 4.40906 0
M  V30 16014 H 1490.9 0.085003 0.665594 0
M  V30 16015 H 1493.44 0.880328 1.84582 0
M  V30 16016 H 1491.59 -0.620938 3.82391 0
M  V30 16017 H 1492.01 1.18053 5.11042 0
M  V30 16018 H 1493.48 -0.48501 5.49865 0
M  V30 16019 H 1493.96 -1.4894 4.13175 0
M  V30 16020 H 1494.57 0.178668 4.24925 0
M  V30 16021 N 1492.88 -1.52852 0.383918 0
M  V30 16022 C 1494.11 -2.06406 -0.202764 0
M  V30 16023 C 1494.53 -1.25421 -1.40183 0
M  V30 16024 O 1493.89 -0.277876 -1.79158 0
M  V30 16025 C 1493.94 -3.56281 -0.556414 0
M  V30 16026 O 1493.04 -3.77904 -1.65113 0
M  V30 16027 H 1492.38 -0.663523 -0.0251737 0
M  V30 16028 H 1494.91 -1.97074 0.54983 0
M  V30 16029 H 1494.92 -3.99629 -0.822249 0
M  V30 16030 H 1493.6 -4.14665 0.320253 0
M  V30 16031 H 1492.17 -3.46448 -1.37943 0
M  V30 16032 N 1494.36 -0.113586 -1.5719 0
M  V30 16033 C 1495.29 0.835363 -2.18046 0
M  V30 16034 C 1496.27 1.28114 -1.11897 0
M  V30 16035 O 1497.46 1.34472 -1.40111 0
M  V30 16036 C 1494.59 2.08759 -2.77556 0
M  V30 16037 C 1493.54 1.77979 -3.8924 0
M  V30 16038 C 1492.87 3.10185 -4.35533 0
M  V30 16039 C 1494.17 1.05231 -5.11589 0
M  V30 16040 H 1495.86 0.328275 -2.97595 0
M  V30 16041 H 1493.41 0.156456 -1.43148 0
M  V30 16042 H 1495.36 2.75597 -3.18785 0
M  V30 16043 H 1494.08 2.61783 -1.95288 0
M  V30 16044 H 1492.74 1.13532 -3.48577 0
M  V30 16045 H 1492.39 3.61133 -3.50131 0
M  V30 16046 H 1492.09 2.90367 -5.10843 0
M  V30 16047 H 1493.61 3.78151 -4.7941 0
M  V30 16048 H 1495.03 1.62213 -5.49872 0
M  V30 16049 H 1493.42 0.955269 -5.92448 0
M  V30 16050 H 1494.49 0.038137 -4.84885 0
M  V30 16051 N 1495.84 1.56784 0.160173 0
M  V30 16052 C 1496.77 1.93848 1.22293 0
M  V30 16053 C 1497.78 0.832803 1.39886 0
M  V30 16054 O 1498.97 1.11124 1.39692 0
M  V30 16055 C 1496.07 2.18581 2.58989 0
M  V30 16056 C 1495.24 3.49839 2.62548 0
M  V30 16057 C 1494.3 3.63268 3.80687 0
M  V30 16058 O 1493.33 4.35785 3.6617 0
M  V30 16059 N 1494.53 2.98948 4.97605 0
M  V30 16060 H 1497.3 2.85614 0.908004 0
M  V30 16061 H 1494.86 1.58075 0.349851 0
M  V30 16062 H 1496.85 2.24819 3.36509 0
M  V30 16063 H 1495.42 1.33145 2.82827 0
M  V30 16064 H 1494.64 3.5516 1.7104 0
M  V30 16065 H 1495.93 4.3619 2.61945 0
M  V30 16066 H 1495.33 2.39924 5.12302 0
M  V30 16067 H 1493.88 3.10765 5.72947 0
M  V30 16068 N 1497.32 -0.429099 1.51646 0
M  V30 16069 C 1498.25 -1.53996 1.69758 0
M  V30 16070 C 1499.26 -1.52189 0.578138 0
M  V30 16071 O 1500.45 -1.56816 0.852709 0
M  V30 16072 C 1497.55 -2.9291 1.7046 0
M  V30 16073 C 1496.72 -3.19132 2.99122 0
M  V30 16074 C 1495.78 -4.37813 2.91901 0
M  V30 16075 O 1494.81 -4.36065 3.65836 0
M  V30 16076 N 1496.01 -5.41834 2.08317 0
M  V30 16077 H 1498.77 -1.38861 2.65589 0
M  V30 16078 H 1496.34 -0.618148 1.49635 0
M  V30 16079 H 1498.33 -3.7034 1.63187 0
M  V30 16080 H 1496.9 -3.01602 0.821877 0
M  V30 16081 H 1496.12 -2.29926 3.20199 0
M  V30 16082 H 1497.41 -3.33483 3.84274 0
M  V30 16083 H 1496.8 -5.46094 1.4764 0
M  V30 16084 H 1495.36 -6.18085 2.06917 0
M  V30 16085 N 1498.79 -1.41931 -0.685074 0
M  V30 16086 C 1499.7 -1.46985 -1.82846 0
M  V30 16087 C 1500.72 -0.359487 -1.70246 0
M  V30 16088 O 1501.9 -0.608824 -1.91977 0
M  V30 16089 C 1498.96 -1.36001 -3.18912 0
M  V30 16090 C 1498.02 -2.57442 -3.43543 0
M  V30 16091 C 1497.25 -2.46972 -4.73118 0
M  V30 16092 O 1497.48 -1.49999 -5.50324 0
M  V30 16093 O 1496.41 -3.36922 -4.98766 0
M  V30 16094 H 1500.24 -2.4347 -1.81538 0
M  V30 16095 H 1497.82 -1.23583 -0.839497 0
M  V30 16096 H 1499.7 -1.32198 -4.00127 0
M  V30 16097 H 1498.38 -0.426366 -3.2088 0
M  V30 16098 H 1497.29 -2.66821 -2.62217 0
M  V30 16099 H 1498.62 -3.49671 -3.46398 0
M  V30 16100 N 1500.27 0.920374 -1.27933 0
M  V30 16101 C 1501.5 1.70028 -1.17363 0
M  V30 16102 C 1501.91 1.87246 0.271214 0
M  V30 16103 O 1501.25 1.39449 1.19581 0
M  V30 16104 C 1501.31 3.11595 -1.79301 0
M  V30 16105 C 1500.98 3.17687 -3.28518 0
M  V30 16106 C 1501.98 2.99383 -4.25048 0
M  V30 16107 C 1499.66 3.40412 -3.69357 0
M  V30 16108 C 1501.65 3.03704 -5.60395 0
M  V30 16109 C 1499.34 3.44367 -5.04832 0
M  V30 16110 C 1500.34 3.26032 -6.0016 0
M  V30 16111 O 1500.03 3.29735 -7.33164 0
M  V30 16112 H 1499.76 0.538497 -0.408652 0
M  V30 16113 H 1502.31 1.16086 -1.6945 0
M  V30 16114 H 1500.54 3.6705 -1.217 0
M  V30 16115 H 1502.23 3.71584 -1.63341 0
M  V30 16116 H 1503 2.8166 -3.94833 0
M  V30 16117 H 1498.88 3.53731 -2.95627 0
M  V30 16118 H 1502.42 2.89312 -6.34779 0
M  V30 16119 H 1498.32 3.61616 -5.347 0
M  V30 16120 H 1499.09 3.46141 -7.41707 0
M  V30 16121 N 1501.75 1.10074 1.1279 0
M  V30 16122 C 1502.7 0.746173 2.18405 0
M  V30 16123 C 1503.67 -0.275751 1.63795 0
M  V30 16124 O 1504.85 -0.155876 1.90162 0
M  V30 16125 C 1501.99 0.180105 3.4463 0
M  V30 16126 C 1501.1 1.25688 4.13312 0
M  V30 16127 C 1500.24 0.652852 5.27173 0
M  V30 16128 C 1499.28 1.71046 5.87716 0
M  V30 16129 N 1498.42 1.12698 6.92996 0
M  V30 16130 H 1503.26 1.65105 2.48081 0
M  V30 16131 H 1500.79 0.824768 1.21803 0
M  V30 16132 H 1502.75 -0.165948 4.1687 0
M  V30 16133 H 1501.38 -0.688014 3.15383 0
M  V30 16134 H 1500.43 1.72011 3.39288 0
M  V30 16135 H 1501.74 2.05762 4.54382 0
M  V30 16136 H 1500.9 0.25603 6.0616 0
M  V30 16137 H 1499.64 -0.17937 4.8737 0
M  V30 16138 H 1498.64 2.11676 5.07418 0
M  V30 16139 H 1499.87 2.54547 6.29589 0
M  V30 16140 H 1497.81 0.316154 6.55238 0
M  V30 16141 H 1497.73 1.86461 7.32645 0
M  V30 16142 H 1499 0.756582 7.7582 0
M  V30 16143 N 1503.23 -1.30138 0.888926 0
M  V30 16144 C 1504.17 -2.28023 0.356923 0
M  V30 16145 C 1505.14 -1.56551 -0.555066 0
M  V30 16146 O 1506.33 -1.84595 -0.482633 0
M  V30 16147 C 1503.47 -3.42546 -0.419056 0
M  V30 16148 C 1502.58 -4.28827 0.5226 0
M  V30 16149 C 1501.72 -5.30517 -0.269366 0
M  V30 16150 C 1500.76 -6.08449 0.667507 0
M  V30 16151 N 1499.89 -7.02043 -0.08938 0
M  V30 16152 H 1504.73 -2.72912 1.19678 0
M  V30 16153 H 1502.27 -1.34239 0.60152 0
M  V30 16154 H 1504.23 -4.07707 -0.884911 0
M  V30 16155 H 1502.86 -2.98716 -1.22346 0
M  V30 16156 H 1501.91 -3.63938 1.10695 0
M  V30 16157 H 1503.22 -4.83136 1.24018 0
M  V30 16158 H 1502.38 -6.01444 -0.796901 0
M  V30 16159 H 1501.12 -4.76911 -1.02014 0
M  V30 16160 H 1500.12 -5.36396 1.20664 0
M  V30 16161 H 1501.35 -6.64143 1.41744 0
M  V30 16162 H 1499.29 -6.50822 -0.822622 0
M  V30 16163 H 1499.21 -7.53859 0.568499 0
M  V30 16164 H 1500.48 -7.77206 -0.597529 0
M  V30 16165 N 1504.71 -0.650285 -1.43559 0
M  V30 16166 C 1505.64 0.0817484 -2.29054 0
M  V30 16167 C 1506.65 0.790023 -1.42346 0
M  V30 16168 O 1507.84 0.648269 -1.66312 0
M  V30 16169 C 1504.94 1.13873 -3.19196 0
M  V30 16170 C 1504.11 0.509177 -4.34426 0
M  V30 16171 C 1503.17 1.46265 -5.05463 0
M  V30 16172 O 1502.2 0.972378 -5.60833 0
M  V30 16173 N 1503.4 2.79668 -5.08691 0
M  V30 16174 H 1506.16 -0.652062 -2.92521 0
M  V30 16175 H 1503.73 -0.49285 -1.54216 0
M  V30 16176 H 1505.72 1.77732 -3.63584 0
M  V30 16177 H 1504.29 1.77454 -2.5735 0
M  V30 16178 H 1503.51 -0.308444 -3.92991 0
M  V30 16179 H 1504.8 0.0695732 -5.08752 0
M  V30 16180 H 1504.19 3.22062 -4.65072 0
M  V30 16181 H 1502.75 3.38838 -5.56805 0
M  V30 16182 N 1506.18 1.52647 -0.392018 0
M  V30 16183 C 1507.12 2.22965 0.486007 0
M  V30 16184 C 1508.09 1.23138 1.06188 0
M  V30 16185 O 1509.28 1.52133 1.113 0
M  V30 16186 C 1506.41 2.94498 1.67298 0
M  V30 16187 C 1505.45 4.08616 1.22211 0
M  V30 16188 S 1506.28 5.35121 0.201397 0
M  V30 16189 C 1507.44 6.10177 1.39409 0
M  V30 16190 H 1507.67 2.97092 -0.111111 0
M  V30 16191 H 1505.21 1.53391 -0.176221 0
M  V30 16192 H 1507.16 3.3632 2.3537 0
M  V30 16193 H 1505.83 2.20045 2.24141 0
M  V30 16194 H 1505.02 4.57778 2.10844 0
M  V30 16195 H 1504.62 3.68821 0.620272 0
M  V30 16196 H 1506.91 6.36514 2.3207 0
M  V30 16197 H 1507.86 7.01788 0.943337 0
M  V30 16198 H 1508.26 5.4099 1.61213 0
M  V30 16199 N 1507.66 0.121921 1.57128 0
M  V30 16200 C 1508.59 -0.823788 2.18486 0
M  V30 16201 C 1509.57 -1.27519 1.12574 0
M  V30 16202 O 1510.76 -1.33727 1.40822 0
M  V30 16203 C 1507.89 -2.07284 2.78659 0
M  V30 16204 C 1506.84 -1.75912 3.90178 0
M  V30 16205 C 1506.17 -3.07871 4.37172 0
M  V30 16206 C 1507.47 -1.02517 5.1214 0
M  V30 16207 H 1509.16 -0.312488 2.97765 0
M  V30 16208 H 1506.71 -0.148862 1.43228 0
M  V30 16209 H 1508.66 -2.73903 3.20242 0
M  V30 16210 H 1507.39 -2.60743 1.96673 0
M  V30 16211 H 1506.04 -1.11681 3.49174 0
M  V30 16212 H 1505.69 -3.59271 3.52041 0
M  V30 16213 H 1505.39 -2.87653 5.12376 0
M  V30 16214 H 1506.92 -3.75604 4.81409 0
M  V30 16215 H 1508.33 -1.59295 5.50725 0
M  V30 16216 H 1506.73 -0.923836 5.92946 0
M  V30 16217 H 1507.8 -0.0124219 4.84898 0
M  V30 16218 N 1509.14 -1.56867 -0.151857 0
M  V30 16219 C 1510.37 -1.87237 -0.880343 0
M  V30 16220 C 1510.78 -0.709565 -1.74959 0
M  V30 16221 O 1510.14 0.320818 -1.79658 0
M  V30 16222 C 1510.19 -3.16811 -1.74107 0
M  V30 16223 O 1509.91 -4.28611 -0.906858 0
M  V30 16224 C 1511.41 -3.60662 -2.57755 0
M  V30 16225 H 1508.63 -0.62074 -0.254799 0
M  V30 16226 H 1511.18 -2.03977 -0.146104 0
M  V30 16227 H 1509.33 -3.01838 -2.42842 0
M  V30 16228 H 1509.75 -5.02673 -1.49733 0
M  V30 16229 H 1511.22 -4.54176 -3.13732 0
M  V30 16230 H 1511.7 -2.85716 -3.33561 0
M  V30 16231 H 1512.3 -3.78312 -1.94319 0
M  V30 16232 N 1510.62 0.421051 -1.51871 0
M  V30 16233 C 1511.58 1.49478 -1.73749 0
M  V30 16234 C 1512.58 1.48887 -0.607395 0
M  V30 16235 O 1513.77 1.50622 -0.875143 0
M  V30 16236 C 1510.9 2.88947 -1.80893 0
M  V30 16237 H 1512.1 1.31377 -2.69593 0
M  V30 16238 H 1509.65 0.650786 -1.42107 0
M  V30 16239 H 1510.38 3.12434 -0.86922 0
M  V30 16240 H 1510.17 2.90781 -2.63038 0
M  V30 16241 H 1511.66 3.66809 -1.99602 0
M  V30 16242 N 1512.1 1.42293 0.677538 0
M  V30 16243 C 1513.06 1.45258 1.77293 0
M  V30 16244 C 1514.06 0.340554 1.57152 0
M  V30 16245 O 1515.25 0.601259 1.63495 0
M  V30 16246 C 1512.38 1.28156 3.15894 0
M  V30 16247 H 1513.57 2.42787 1.76052 0
M  V30 16248 H 1511.13 1.287 0.886908 0
M  V30 16249 H 1511.86 0.315381 3.22763 0
M  V30 16250 H 1511.65 2.08744 3.31916 0
M  V30 16251 H 1513.14 1.33107 3.95818 0
M  V30 16252 N 1513.57 -0.913576 1.28419 0
M  V30 16253 C 1514.52 -2.00257 1.09001 0
M  V30 16254 C 1515.51 -1.60894 0.0136118 0
M  V30 16255 O 1516.7 -1.75449 0.233769 0
M  V30 16256 C 1513.83 -3.34916 0.754073 0
M  V30 16257 C 1512.92 -3.8068 1.86932 0
M  V30 16258 N 1513.31 -3.98814 3.11096 0
M  V30 16259 C 1511.6 -4.09839 1.75921 0
M  V30 16260 C 1512.31 -4.37149 3.83765 0
M  V30 16261 N 1511.28 -4.45417 3.11616 0
M  V30 16262 H 1515.08 -2.12327 2.0321 0
M  V30 16263 H 1512.6 -1.10143 1.19341 0
M  V30 16264 H 1514.59 -4.12617 0.596035 0
M  V30 16265 H 1513.25 -3.24199 -0.180246 0
M  V30 16266 H 1514.27 -3.84729 3.46705 0
M  V30 16267 H 1510.94 -4.07757 0.896679 0
M  V30 16268 H 1512.33 -4.5914 4.9055 0
M  V30 16269 N 1515.05 -1.1067 -1.12204 0
M  V30 16270 C 1516.02 -0.761145 -2.16193 0
M  V30 16271 C 1517.02 0.215599 -1.59348 0
M  V30 16272 O 1518.21 -0.00786723 -1.74198 0
M  V30 16273 C 1515.34 -0.127863 -3.4066 0
M  V30 16274 H 1516.53 -1.68225 -2.48275 0
M  V30 16275 H 1514.08 -0.907542 -1.27253 0
M  V30 16276 H 1514.82 0.803851 -3.14179 0
M  V30 16277 H 1514.6 -0.83085 -3.83196 0
M  V30 16278 H 1516.09 0.0980593 -4.17485 0
M  V30 16279 N 1516.53 1.29665 -0.895815 0
M  V30 16280 C 1517.46 2.30268 -0.387151 0
M  V30 16281 C 1518.44 1.61442 0.535768 0
M  V30 16282 O 1519.63 1.88978 0.447321 0
M  V30 16283 C 1516.76 3.45107 0.389639 0
M  V30 16284 C 1515.71 4.25706 -0.442498 0
M  V30 16285 C 1515.04 5.32704 0.461552 0
M  V30 16286 C 1516.34 4.9419 -1.69036 0
M  V30 16287 H 1518.03 2.73064 -1.22786 0
M  V30 16288 H 1515.58 1.31274 -0.591869 0
M  V30 16289 H 1517.53 4.14559 0.756203 0
M  V30 16290 H 1516.25 3.01145 1.2641 0
M  V30 16291 H 1514.91 3.57957 -0.791343 0
M  V30 16292 H 1514.56 4.84987 1.33403 0
M  V30 16293 H 1514.26 5.87529 -0.0915006 0
M  V30 16294 H 1515.78 6.05009 0.824395 0
M  V30 16295 H 1517.2 5.561 -1.39376 0
M  V30 16296 H 1515.6 5.5893 -2.18444 0
M  V30 16297 H 1516.67 4.19699 -2.42859 0
M  V30 16298 N 1518.01 0.657889 1.43212 0
M  V30 16299 C 1518.97 -0.0214783 2.2919 0
M  V30 16300 C 1519.97 -0.745921 1.42452 0
M  V30 16301 O 1521.16 -0.586468 1.64031 0
M  V30 16302 C 1518.29 -1.04115 3.24612 0
M  V30 16303 H 1519.49 0.735072 2.90752 0
M  V30 16304 H 1517.04 0.419354 1.50569 0
M  V30 16305 H 1517.77 -1.82677 2.67954 0
M  V30 16306 H 1517.56 -0.525285 3.88566 0
M  V30 16307 H 1519.05 -1.51544 3.89132 0
M  V30 16308 N 1519.49 -1.52437 0.400108 0
M  V30 16309 C 1520.73 -2.0201 -0.17887 0
M  V30 16310 C 1521.07 -1.2856 -1.45554 0
M  V30 16311 O 1520.34 -0.389236 -1.90565 0
M  V30 16312 C 1520.62 -3.57453 -0.435784 0
M  V30 16313 C 1520.48 -4.41562 0.85693 0
M  V30 16314 C 1521.8 -4.228 -1.2218 0
M  V30 16315 H 1518.91 -0.734256 -0.063535 0
M  V30 16316 H 1521.56 -1.82406 0.531801 0
M  V30 16317 H 1519.71 -3.74288 -1.04117 0
M  V30 16318 H 1521.38 -4.36456 1.49344 0
M  V30 16319 H 1519.62 -4.08138 1.46989 0
M  V30 16320 H 1520.29 -5.48374 0.631675 0
M  V30 16321 H 1522.77 -4.10009 -0.709359 0
M  V30 16322 H 1521.64 -5.3152 -1.37031 0
M  V30 16323 H 1521.91 -3.81153 -2.23998 0
M  V30 16324 N 1520.96 -0.130252 -1.57061 0
M  V30 16325 C 1522.24 0.569171 -1.87136 0
M  V30 16326 C 1522.62 1.84078 -1.03337 0
M  V30 16327 O 1521.97 2.28208 -0.11543 0
M  V30 16328 C 1522.18 0.850782 -3.38471 0
M  V30 16329 C 1523.53 1.19892 -4.07322 0
M  V30 16330 O 1524.55 0.940682 -3.43554 0
M  V30 16331 O 1523.41 1.6841 -5.19904 0
M  V30 16332 H 1520.5 0.288433 -0.775071 0
M  V30 16333 H 1523.05 -0.165603 -1.6889 0
M  V30 16334 H 1521.82 -0.0498562 -3.91268 0
M  V30 16335 H 1521.45 1.64032 -3.62187 0
M  V30 16336 N 1522.44 1.56945 0.143535 0
M  V30 16337 C 1523.41 1.97616 1.16106 0
M  V30 16338 C 1524.41 0.863113 1.35672 0
M  V30 16339 O 1525.6 1.12966 1.32606 0
M  V30 16340 C 1522.73 2.29511 2.52067 0
M  V30 16341 H 1523.92 2.88696 0.812066 0
M  V30 16342 H 1521.47 1.51433 0.386999 0
M  V30 16343 H 1522.21 1.41233 2.91931 0
M  V30 16344 H 1521.99 3.10667 2.39225 0
M  V30 16345 H 1523.48 2.61802 3.25345 0
M  V30 16346 N 1523.92 -0.412991 1.52093 0
M  V30 16347 C 1524.87 -1.50294 1.75158 0
M  V30 16348 C 1525.84 -1.55119 0.593902 0
M  V30 16349 O 1527.02 -1.71751 0.831032 0
M  V30 16350 C 1524.16 -2.87781 1.90463 0
M  V30 16351 C 1523.28 -2.92295 3.181 0
M  V30 16352 C 1522.41 -4.21056 3.23859 0
M  V30 16353 C 1521.45 -4.1953 4.45714 0
M  V30 16354 N 1520.59 -5.39857 4.48886 0
M  V30 16355 H 1525.43 -1.29927 2.68185 0
M  V30 16356 H 1522.96 -0.630741 1.32891 0
M  V30 16357 H 1524.92 -3.67588 1.9732 0
M  V30 16358 H 1523.55 -3.06651 1.00822 0
M  V30 16359 H 1522.6 -2.05002 3.20434 0
M  V30 16360 H 1523.92 -2.87031 4.0794 0
M  V30 16361 H 1523.07 -5.09253 3.29767 0
M  V30 16362 H 1521.81 -4.2901 2.31952 0
M  V30 16363 H 1520.81 -3.29724 4.39957 0
M  V30 16364 H 1522.04 -4.1322 5.38912 0
M  V30 16365 H 1519.99 -5.48486 3.59861 0
M  V30 16366 H 1519.9 -5.36572 5.32566 0
M  V30 16367 H 1521.17 -6.30018 4.59018 0
M  V30 16368 N 1525.4 -1.4265 -0.669982 0
M  V30 16369 C 1526.35 -1.46746 -1.80467 0
M  V30 16370 C 1527.34 -0.342698 -1.65897 0
M  V30 16371 O 1528.55 -0.515933 -1.72447 0
M  V30 16372 H 1524.92 -0.4597 -0.59513 0
M  V30 16373 H 1526.89 -2.42325 -1.7413 0
M  V30 16374 C 1525.64 -1.39141 -3.18646 0
M  V30 16375 H 1524.97 -2.24987 -3.30486 0
M  V30 16376 H 1526.41 -1.46068 -3.98045 0
M  V30 16377 C 1524.86 -0.106802 -3.36731 0
M  V30 16378 O 1525.39 0.838535 -3.9285 0
M  V30 16379 N 1523.6 -0.0223958 -2.90591 0
M  V30 16380 H 1523.15 -0.792469 -2.45108 0
M  V30 16381 H 1523.11 0.836462 -3.03069 0
M  V30 16382 N 1526.88 0.906753 -1.28902 0
M  V30 16383 C 1527.81 2.02663 -1.15974 0
M  V30 16384 C 1528.79 1.70009 -0.0557202 0
M  V30 16385 O 1529.97 1.92786 -0.233952 0
M  V30 16386 C 1527.1 3.37283 -0.828115 0
M  V30 16387 C 1526.06 3.84123 -1.88767 0
M  V30 16388 C 1525.38 5.15787 -1.40953 0
M  V30 16389 C 1526.68 4.05217 -3.2954 0
M  V30 16390 H 1528.38 2.13738 -2.09658 0
M  V30 16391 H 1525.92 1.02699 -1.0094 0
M  V30 16392 H 1527.88 4.15127 -0.724408 0
M  V30 16393 H 1526.6 3.2628 0.14443 0
M  V30 16394 H 1525.26 3.0849 -1.98065 0
M  V30 16395 H 1524.91 5.01194 -0.425848 0
M  V30 16396 H 1524.61 5.48098 -2.11807 0
M  V30 16397 H 1526.13 5.9618 -1.31918 0
M  V30 16398 H 1527.55 4.73565 -3.23124 0
M  V30 16399 H 1525.94 4.48871 -3.9829 0
M  V30 16400 H 1527.01 3.0979 -3.73039 0
M  V30 16401 N 1528.36 1.11264 1.11616 0
M  V30 16402 C 1529.29 0.79149 2.19676 0
M  V30 16403 C 1530.27 -0.239351 1.68408 0
M  V30 16404 O 1531.45 -0.103228 1.93925 0
M  V30 16405 C 1528.58 0.231891 3.46525 0
M  V30 16406 C 1527.54 1.19439 4.10997 0
M  V30 16407 C 1526.86 0.495593 5.32398 0
M  V30 16408 C 1528.16 2.54437 4.56135 0
M  V30 16409 H 1529.86 1.69503 2.46797 0
M  V30 16410 H 1527.4 0.816433 1.18619 0
M  V30 16411 H 1529.35 -0.00497468 4.214 0
M  V30 16412 H 1528.08 -0.706938 3.18857 0
M  V30 16413 H 1526.74 1.41686 3.38113 0
M  V30 16414 H 1526.39 -0.447984 5.01001 0
M  V30 16415 H 1526.09 1.13753 5.76484 0
M  V30 16416 H 1527.61 0.267476 6.10014 0
M  V30 16417 H 1529.02 2.36289 5.22341 0
M  V30 16418 H 1527.42 3.14595 5.11028 0
M  V30 16419 H 1528.49 3.13795 3.69676 0
M  V30 16420 N 1529.83 -1.29188 0.902679 0
M  V30 16421 C 1531.11 -1.90365 0.449496 0
M  V30 16422 C 1531.49 -1.81911 -1.07105 0
M  V30 16423 O 1530.84 -1.24778 -1.91423 0
M  V30 16424 C 1531.05 -3.35324 0.967418 0
M  V30 16425 C 1532.4 -4.12342 1.0129 0
M  V30 16426 O 1533.42 -3.44239 0.915293 0
M  V30 16427 O 1532.28 -5.34048 1.15994 0
M  V30 16428 H 1529.37 -0.814956 0.140628 0
M  V30 16429 H 1531.92 -1.37633 0.992739 0
M  V30 16430 H 1530.69 -3.35646 2.0114 0
M  V30 16431 H 1530.31 -3.95539 0.404358 0
M  V30 16432 N 1531.31 -0.665475 -1.42861 0
M  V30 16433 C 1532.56 -0.184156 -2.01962 0
M  V30 16434 C 1532.89 1.20301 -1.52451 0
M  V30 16435 O 1532.17 1.80573 -0.722756 0
M  V30 16436 C 1532.45 -0.208497 -3.59496 0
M  V30 16437 C 1532.3 -1.63045 -4.19209 0
M  V30 16438 C 1533.62 0.448421 -4.3781 0
M  V30 16439 H 1530.74 -0.0683924 -0.73382 0
M  V30 16440 H 1533.38 -0.84849 -1.70002 0
M  V30 16441 H 1531.53 0.357179 -3.86855 0
M  V30 16442 H 1533.2 -2.24766 -4.02837 0
M  V30 16443 H 1531.45 -2.17401 -3.75392 0
M  V30 16444 H 1532.12 -1.59924 -5.28326 0
M  V30 16445 H 1534.59 -0.0330053 -4.16087 0
M  V30 16446 H 1533.47 0.400713 -5.47435 0
M  V30 16447 H 1533.73 1.52454 -4.14982 0
M  V30 16448 N 1532.79 1.52222 -0.408187 0
M  V30 16449 C 1534.04 2.00989 0.169252 0
M  V30 16450 C 1534.35 1.29824 1.46305 0
M  V30 16451 O 1535.56 1.69402 2.12168 0
M  V30 16452 C 1534.01 3.58173 0.352179 0
M  V30 16453 C 1533.62 4.38252 -0.929468 0
M  V30 16454 C 1535.37 4.15173 0.88496 0
M  V30 16455 C 1533.27 5.87077 -0.713781 0
M  V30 16456 H 1532.2 0.751015 0.0670261 0
M  V30 16457 H 1534.85 1.75574 -0.533487 0
M  V30 16458 H 1533.24 3.79913 1.11723 0
M  V30 16459 H 1534.41 4.28272 -1.70059 0
M  V30 16460 H 1532.72 3.92565 -1.38859 0
M  V30 16461 H 1535.32 5.2404 1.06235 0
M  V30 16462 H 1535.66 3.72468 1.85938 0
M  V30 16463 H 1536.2 3.97397 0.178995 0
M  V30 16464 H 1532.94 6.3414 -1.65974 0
M  V30 16465 H 1532.46 5.99797 0.0180631 0
M  V30 16466 H 1534.14 6.46022 -0.355596 0
M  V30 16467 N 1534.27 0.138579 1.5699 0
M  V30 16468 C 1535.54 -0.559239 1.87435 0
M  V30 16469 C 1535.92 -1.83527 1.04312 0
M  V30 16470 O 1535.27 -2.28144 0.127531 0
M  V30 16471 C 1535.48 -0.83282 3.38918 0
M  V30 16472 C 1536.83 -1.1773 4.07952 0
M  V30 16473 O 1537.85 -0.92245 3.44048 0
M  V30 16474 O 1536.71 -1.6565 5.2079 0
M  V30 16475 H 1533.81 -0.284318 0.77659 0
M  V30 16476 H 1536.35 0.174558 1.688 0
M  V30 16477 H 1535.13 0.0706054 3.91236 0
M  V30 16478 H 1534.75 -1.62109 3.63051 0
M  V30 16479 N 1535.75 -1.57019 -0.13521 0
M  V30 16480 C 1536.68 -1.95769 -1.19193 0
M  V30 16481 C 1537.69 -0.854953 -1.38544 0
M  V30 16482 O 1538.88 -1.13332 -1.37906 0
M  V30 16483 C 1535.98 -2.22674 -2.55479 0
M  V30 16484 C 1535.15 -3.53972 -2.56949 0
M  V30 16485 C 1534.21 -3.69278 -3.7486 0
M  V30 16486 O 1533.24 -4.41555 -3.59191 0
M  V30 16487 N 1534.44 -3.06826 -4.92786 0
M  V30 16488 H 1537.2 -2.87022 -0.862451 0
M  V30 16489 H 1534.77 -1.58611 -0.324658 0
M  V30 16490 H 1536.76 -2.30144 -3.3289 0
M  V30 16491 H 1535.33 -1.37628 -2.80673 0
M  V30 16492 H 1534.55 -3.57836 -1.65368 0
M  V30 16493 H 1535.84 -4.40303 -2.54973 0
M  V30 16494 H 1535.23 -2.48043 -5.0842 0
M  V30 16495 H 1533.79 -3.19841 -5.67931 0
M  V30 16496 N 1537.22 0.404919 -1.52309 0
M  V30 16497 C 1538.19 1.47627 -1.75325 0
M  V30 16498 C 1539.19 1.48234 -0.623153 0
M  V30 16499 O 1540.38 1.49685 -0.891069 0
M  V30 16500 C 1537.51 2.87013 -1.83947 0
M  V30 16501 H 1538.7 1.2851 -2.70971 0
M  V30 16502 H 1536.26 0.635677 -1.42789 0
M  V30 16503 H 1536.99 3.11495 -0.902309 0
M  V30 16504 H 1536.78 2.87974 -2.66108 0
M  V30 16505 H 1538.27 3.64671 -2.03481 0
M  V30 16506 N 1538.7 1.43003 0.662408 0
M  V30 16507 C 1540.12 1.26201 0.977003 0
M  V30 16508 C 1540.32 0.175104 2.00738 0
M  V30 16509 O 1539.37 -0.44954 2.48466 0
M  V30 16510 C 1540.69 2.62319 1.47001 0
M  V30 16511 C 1542.24 2.69776 1.58714 0
M  V30 16512 C 1542.71 4.06289 2.11408 0
M  V30 16513 N 1544.2 4.08307 2.18724 0
M  V30 16514 C 1544.94 5.10761 2.60598 0
M  V30 16515 N 1544.43 6.23593 3.01834 0
M  V30 16516 N 1546.23 4.98115 2.60456 0
M  V30 16517 H 1538.38 2.12391 -0.0195698 0
M  V30 16518 H 1540.64 0.946472 0.0538044 0
M  V30 16519 H 1540.35 3.42773 0.78736 0
M  V30 16520 H 1540.22 2.87088 2.44664 0
M  V30 16521 H 1542.61 1.89659 2.26083 0
M  V30 16522 H 1542.69 2.48782 0.595081 0
M  V30 16523 H 1542.33 4.86868 1.44644 0
M  V30 16524 H 1542.26 4.24641 3.11428 0
M  V30 16525 H 1544.75 3.26857 1.89665 0
M  V30 16526 H 1545.07 6.97609 3.32509 0
M  V30 16527 H 1543.41 6.27079 2.99661 0
M  V30 16528 H 1546.6 4.09037 2.27611 0
M  V30 16529 H 1546.77 5.78092 2.92769 0
M  V30 16530 N 1540.18 -0.899904 1.29381 0
M  V30 16531 C 1541.11 -2.02045 1.17047 0
M  V30 16532 C 1542.09 -1.69977 0.0647354 0
M  V30 16533 O 1543.28 -1.92659 0.244173 0
M  V30 16534 C 1540.41 -3.36839 0.845991 0
M  V30 16535 C 1539.36 -3.83117 1.90802 0
M  V30 16536 C 1538.69 -5.15032 1.43686 0
M  V30 16537 C 1539.99 -4.03464 3.31684 0
M  V30 16538 H 1541.68 -2.12623 2.10789 0
M  V30 16539 H 1539.23 -1.02162 1.01484 0
M  V30 16540 H 1541.18 -4.14737 0.746413 0
M  V30 16541 H 1539.9 -3.26352 -0.127125 0
M  V30 16542 H 1538.56 -3.07435 1.99698 0
M  V30 16543 H 1538.21 -5.00961 0.452422 0
M  V30 16544 H 1537.91 -5.46967 2.14711 0
M  V30 16545 H 1539.43 -5.95472 1.35078 0
M  V30 16546 H 1540.85 -4.71845 3.25631 0
M  V30 16547 H 1539.25 -4.46752 4.00665 0
M  V30 16548 H 1540.32 -3.07807 3.74677 0
M  V30 16549 N 1541.66 -1.11854 -1.11024 0
M  V30 16550 C 1542.61 -0.780825 -2.17191 0
M  V30 16551 C 1543.58 0.249657 -1.64213 0
M  V30 16552 O 1544.76 0.125603 -1.90386 0
M  V30 16553 C 1541.9 -0.23491 -3.443 0
M  V30 16554 C 1541.01 -1.32247 -4.1126 0
M  V30 16555 C 1540.15 -0.736638 -5.26068 0
M  V30 16556 C 1539.19 -1.80375 -5.8492 0
M  V30 16557 N 1538.32 -1.23709 -6.91115 0
M  V30 16558 H 1543.16 -1.69031 -2.45423 0
M  V30 16559 H 1540.7 -0.844041 -1.20476 0
M  V30 16560 H 1542.66 0.0996064 -4.17081 0
M  V30 16561 H 1541.29 0.637752 -3.16437 0
M  V30 16562 H 1540.34 -1.77387 -3.36509 0
M  V30 16563 H 1541.65 -2.12965 -4.51051 0
M  V30 16564 H 1540.81 -0.352432 -6.05675 0
M  V30 16565 H 1539.55 0.101811 -4.87594 0
M  V30 16566 H 1538.55 -2.19721 -5.03987 0
M  V30 16567 H 1539.78 -2.64531 -6.2546 0
M  V30 16568 H 1537.72 -0.420357 -6.54652 0
M  V30 16569 H 1537.64 -1.98093 -7.29586 0
M  V30 16570 H 1538.91 -0.879912 -7.74518 0
M  V30 16571 N 1543.14 1.28707 -0.909517 0
M  V30 16572 C 1544.07 2.25665 -0.339165 0
M  V30 16573 C 1545.05 1.52863 0.554222 0
M  V30 16574 O 1546.23 1.8178 0.498829 0
M  V30 16575 C 1543.36 3.34753 0.515592 0
M  V30 16576 C 1542.4 4.25359 -0.31183 0
M  V30 16577 S 1543.24 5.07265 -1.71588 0
M  V30 16578 C 1544.39 6.19848 -0.868312 0
M  V30 16579 H 1544.63 2.73695 -1.16097 0
M  V30 16580 H 1542.16 1.37082 -0.710492 0
M  V30 16581 H 1544.12 3.98059 1.00294 0
M  V30 16582 H 1542.78 2.85399 1.31173 0
M  V30 16583 H 1541.97 5.02841 0.341555 0
M  V30 16584 H 1541.57 3.66753 -0.73268 0
M  V30 16585 H 1543.87 6.77432 -0.0960601 0
M  V30 16586 H 1544.81 6.89424 -1.61554 0
M  V30 16587 H 1545.22 5.62948 -0.418357 0
M  V30 16588 N 1544.61 0.673042 1.42506 0
M  V30 16589 C 1545.54 0.00755467 2.33499 0
M  V30 16590 C 1546.53 -0.791161 1.50581 0
M  V30 16591 O 1547.71 -0.748668 1.79189 0
M  V30 16592 C 1544.84 -0.945638 3.34178 0
M  V30 16593 C 1543.79 -0.25564 4.27236 0
M  V30 16594 C 1543.12 -1.32165 5.18109 0
M  V30 16595 C 1544.42 0.864254 5.151 0
M  V30 16596 H 1546.11 0.767487 2.89396 0
M  V30 16597 H 1543.66 0.370524 1.39151 0
M  V30 16598 H 1545.61 -1.42026 3.96745 0
M  V30 16599 H 1544.34 -1.73697 2.76581 0
M  V30 16600 H 1543 0.19873 3.66061 0
M  V30 16601 H 1542.64 -2.10492 4.56839 0
M  V30 16602 H 1542.34 -0.865109 5.81197 0
M  V30 16603 H 1543.87 -1.79724 5.83551 0
M  V30 16604 H 1545.28 0.470924 5.71363 0
M  V30 16605 H 1543.68 1.24648 5.87012 0
M  V30 16606 H 1544.75 1.71378 4.53605 0
M  V30 16607 N 1546.09 -1.52004 0.416254 0
M  V30 16608 C 1547.34 -2.0149 -0.15689 0
M  V30 16609 C 1547.66 -1.30343 -1.45037 0
M  V30 16610 O 1546.93 -0.431503 -1.91089 0
M  V30 16611 H 1545.51 -0.744508 -0.0609682 0
M  V30 16612 H 1548.17 -1.86857 0.55413 0
M  V30 16613 H 1547.27 -3.10155 -0.347917 0
M  V30 16614 N 1547.57 -0.146903 -1.56914 0
M  V30 16615 C 1548.5 0.823803 -2.13883 0
M  V30 16616 C 1549.52 1.21081 -1.08826 0
M  V30 16617 O 1550.7 1.15491 -1.36103 0
M  V30 16618 C 1547.8 2.11686 -2.64655 0
M  V30 16619 C 1546.98 1.89723 -3.94112 0
M  V30 16620 C 1546.04 3.03016 -4.30195 0
M  V30 16621 O 1545.06 2.74711 -4.9852 0
M  V30 16622 N 1546.26 4.30187 -3.89768 0
M  V30 16623 H 1549.03 0.336904 -2.978 0
M  V30 16624 H 1546.59 0.0366704 -1.61858 0
M  V30 16625 H 1548.58 2.86525 -2.85807 0
M  V30 16626 H 1547.15 2.51639 -1.85464 0
M  V30 16627 H 1546.37 0.989208 -3.81587 0
M  V30 16628 H 1547.66 1.72387 -4.78707 0
M  V30 16629 H 1547.06 4.56051 -3.34715 0
M  V30 16630 H 1545.62 5.01807 -4.15972 0
M  V30 16631 N 1549.05 1.57088 0.126881 0
M  V30 16632 C 1550.28 1.88614 0.850444 0
M  V30 16633 C 1550.69 0.737309 1.73808 0
M  V30 16634 O 1550.05 -0.292196 1.80146 0
M  V30 16635 C 1550.1 3.19541 1.69044 0
M  V30 16636 O 1549.82 4.3 0.838555 0
M  V30 16637 C 1551.32 3.64717 2.51985 0
M  V30 16638 H 1548.54 0.624715 0.244892 0
M  V30 16639 H 1551.09 2.04184 0.113634 0
M  V30 16640 H 1549.24 3.05664 2.38009 0
M  V30 16641 H 1549.65 5.04992 1.41717 0
M  V30 16642 H 1551.13 4.5911 3.06467 0
M  V30 16643 H 1551.61 2.90986 3.28974 0
M  V30 16644 H 1552.21 3.81356 1.88276 0
M  V30 16645 N 1550.53 -0.396836 1.52522 0
M  V30 16646 C 1551.94 -0.736347 1.41598 0
M  V30 16647 C 1552.14 -1.944 0.530191 0
M  V30 16648 O 1551.2 -2.525 0.000649033 0
M  V30 16649 C 1552.51 -0.978775 2.84325 0
M  V30 16650 C 1554.06 -1.08073 2.9375 0
M  V30 16651 C 1554.53 -1.35584 4.37471 0
M  V30 16652 N 1556.03 -1.42423 4.40761 0
M  V30 16653 C 1556.76 -1.6536 5.49039 0
M  V30 16654 N 1556.26 -1.85819 6.67415 0
M  V30 16655 N 1558.05 -1.67475 5.36571 0
M  V30 16656 H 1550.2 0.397925 2.08639 0
M  V30 16657 H 1552.46 0.115803 0.9409 0
M  V30 16658 H 1552.17 -0.16362 3.51319 0
M  V30 16659 H 1552.04 -1.8956 3.26109 0
M  V30 16660 H 1554.43 -1.88646 2.26928 0
M  V30 16661 H 1554.51 -0.141996 2.55406 0
M  V30 16662 H 1554.16 -0.555238 5.04856 0
M  V30 16663 H 1554.09 -2.3073 4.73362 0
M  V30 16664 H 1556.58 -1.28352 3.55435 0
M  V30 16665 H 1556.89 -2.02806 7.45714 0
M  V30 16666 H 1555.23 -1.83059 6.70458 0
M  V30 16667 H 1558.43 -1.51038 4.43064 0
M  V30 16668 H 1558.6 -1.85011 6.21027 0
M  V30 16669 N 1552.01 -1.43353 -0.654814 0
M  V30 16670 C 1553.42 -1.39933 -1.23595 0
M  V30 16671 C 1553.77 -0.102592 -1.95932 0
M  V30 16672 O 1552.89 0.798021 -2.01148 0
M  V30 16673 C 1553.49 -2.53483 -2.24793 0
M  V30 16674 C 1552.05 -2.53333 -2.78387 0
M  V30 16675 C 1551.19 -2.31268 -1.53005 0
M  V30 16676 H 1554.14 -1.52277 -0.446932 0
M  V30 16677 H 1554.17 -2.2488 -3.06935 0
M  V30 16678 H 1553.68 -3.47847 -1.72116 0
M  V30 16679 H 1551.78 -1.62844 -3.35131 0
M  V30 16680 H 1551.89 -3.51047 -3.26041 0
M  V30 16681 H 1550.26 -1.79905 -1.80295 0
M  V30 16682 H 1551.04 -3.27714 -1.02266 0
M  V30 16683 N 1553.48 0.89303 -1.29857 0
M  V30 16684 C 1554.43 1.98497 -1.12173 0
M  V30 16685 C 1555.42 1.60852 -0.039207 0
M  V30 16686 O 1556.61 1.75055 -0.261652 0
M  V30 16687 C 1553.74 3.33674 -0.807259 0
M  V30 16688 C 1552.82 3.77658 -1.92965 0
M  V30 16689 N 1553.22 3.93814 -3.17402 0
M  V30 16690 C 1551.51 4.06988 -1.82419 0
M  V30 16691 C 1552.21 4.30988 -3.90671 0
M  V30 16692 N 1551.19 4.40403 -3.18662 0
M  V30 16693 H 1554.99 2.09068 -2.06562 0
M  V30 16694 H 1552.51 1.0823 -1.21078 0
M  V30 16695 H 1554.5 4.11617 -0.661603 0
M  V30 16696 H 1553.16 3.24445 0.128646 0
M  V30 16697 H 1554.17 3.79164 -3.52782 0
M  V30 16698 H 1550.85 4.06279 -0.961436 0
M  V30 16699 H 1552.24 4.51278 -4.97793 0
M  V30 16700 O 1555 1.24491 1.02879 0
M  V30 16701 H 1555.69 1.02261 1.64507 0
M  V30 END ATOM
M  V30 BEGIN BOND
M  V30 END BOND
M  V30 END CTAB
M  END
$$$$
